
#######################################################################
#
#                 Cambridge Crystallographic Data Centre
#                                CCDC 
#
#######################################################################
#
# If this CIF has been generated from an entry in the Cambridge 
# Structural Database, then it will include bibliographic, chemical, 
# crystal, experimental, refinement or atomic coordinate data resulting 
# from the CCDC's data processing and validation procedures.
#
#######################################################################

data_HORKEF
_chemical_formula_moiety         'C29 H34 N4 O7,0.5(H2 O1)'
_chemical_name_systematic        
'2-(1-(2-(1-(t-Butoxycarbonyl)pyrrolidine-2-carboxamido)benzoyl)pyrrolidine-2-carboxamido)benzoic acid hemihydrate'
_symmetry_cell_setting           monoclinic
_symmetry_space_group_name_H-M   'P 21'
_symmetry_Int_Tables_number      4
_space_group_name_Hall           'P 2yb'
loop_
_symmetry_equiv_pos_site_id
_symmetry_equiv_pos_as_xyz
1 x,y,z
2 -x,1/2+y,-z
_cell_length_a                   9.6923(5)
_cell_length_b                   9.4608(4)
_cell_length_c                   15.6706(7)
_cell_angle_alpha                90
_cell_angle_beta                 93.158(2)
_cell_angle_gamma                90
_cell_volume                     1434.76
_exptl_crystal_colour            colorless
_exptl_crystal_description       block
_chemical_melting_point          '180-182 deg.C'
_cell_formula_units_Z            2
_exptl_crystal_recrystallization_method methanol/PEG-200
loop_
_atom_site_label
_atom_site_type_symbol
_atom_site_fract_x
_atom_site_fract_y
_atom_site_fract_z
N1 N 0.0540(2) 0.9556(2) 0.62884(14)
N2 N 0.1643(2) 1.0989(3) 0.83113(13)
H1 H 0.2394 1.1353 0.8108
N3 N 0.4876(2) 1.2126(2) 0.91880(14)
N4 N 0.5893(2) 1.3385(3) 0.71068(14)
H2 H 0.6603 1.3877 0.7318
O1 O 0.21453(18) 0.8267(2) 0.69851(11)
O2 O 0.0582(2) 0.7189(2) 0.60695(13)
O3 O -0.0444(2) 1.0021(3) 0.79057(13)
O4 O 0.3225(2) 1.3768(2) 0.89215(13)
O5 O 0.4240(2) 1.1822(2) 0.74998(12)
O6 O 0.8079(2) 1.5032(2) 0.69003(12)
O7 O 0.8423(2) 1.5804(2) 0.55924(12)
H3 H 0.921(4) 1.637(4) 0.590(2)
C1 C 0.3136(4) 0.5880(4) 0.6819(2)
H4 H 0.3898 0.6294 0.6517
H5 H 0.2390 0.5606 0.6405
H6 H 0.3468 0.5043 0.7137
C2 C 0.2601(3) 0.6955(3) 0.74343(19)
C3 C 0.3759(3) 0.7497(5) 0.8039(2)
H7 H 0.4511 0.7860 0.7708
H8 H 0.4105 0.6723 0.8408
H9 H 0.3409 0.8257 0.8393
C4 C 0.1404(3) 0.6389(4) 0.7924(2)
H10 H 0.0669 0.6055 0.7519
H11 H 0.1045 0.7144 0.8278
H12 H 0.1729 0.5604 0.8291
C5 C 0.1047(3) 0.8257(3) 0.64292(17)
C6 C -0.0727(3) 0.9814(3) 0.57637(19)
H13 H -0.1441 0.9100 0.5877
H14 H -0.0548 0.9797 0.5148
C7 C -0.1170(3) 1.1274(4) 0.6039(2)
H15 H -0.1842 1.1211 0.6491
H16 H -0.1596 1.1807 0.5548
C8 C 0.0161(4) 1.1980(4) 0.63762(19)
H17 H -0.0032 1.2725 0.6797
H18 H 0.0657 1.2407 0.5904
C9 C 0.1012(3) 1.0774(3) 0.68017(16)
H19 H 0.2024 1.0936 0.6756
C10 C 0.0662(3) 1.0549(3) 0.77306(17)
C11 C 0.1603(3) 1.0931(3) 0.92151(17)
C12 C 0.0667(3) 1.0093(4) 0.96244(18)
H20 H 0.0006 0.9546 0.9298
C13 C 0.0698(3) 1.0055(4) 1.05117(19)
H21 H 0.0054 0.9483 1.0791
C14 C 0.1658(3) 1.0841(4) 1.09909(18)
H22 H 0.1663 1.0823 1.1597
C15 C 0.2617(3) 1.1659(3) 1.05849(17)
H23 H 0.3292 1.2183 1.0914
C16 C 0.2587(3) 1.1713(3) 0.96967(16)
C17 C 0.3591(3) 1.2636(3) 0.92477(16)
C18 C 0.5402(3) 1.0750(3) 0.95104(18)
H24 H 0.4709 0.9994 0.9400
H25 H 0.5648 1.0794 1.0131
C19 C 0.6670(3) 1.0500(4) 0.9007(2)
H26 H 0.7393 0.9996 0.9359
H27 H 0.6434 0.9937 0.8487
C20 C 0.7151(3) 1.1953(4) 0.8777(2)
H28 H 0.7699 1.1924 0.8263
H29 H 0.7721 1.2378 0.9255
C21 C 0.5811(3) 1.2789(3) 0.86035(17)
H30 H 0.5951 1.3811 0.8746
C22 C 0.5215(3) 1.2609(3) 0.76812(17)
C23 C 0.5614(3) 1.3509(3) 0.62219(17)
C24 C 0.4461(3) 1.2902(3) 0.58025(18)
H31 H 0.3840 1.2359 0.6117
C25 C 0.4209(3) 1.3080(3) 0.49343(19)
H32 H 0.3410 1.2663 0.4661
C26 C 0.5094(3) 1.3853(3) 0.44526(19)
H33 H 0.4911 1.3972 0.3855
C27 C 0.6249(3) 1.4447(3) 0.48605(18)
H34 H 0.6876 1.4959 0.4533
C28 C 0.6526(3) 1.4319(3) 0.57409(17)
C29 C 0.7737(3) 1.5055(3) 0.61399(16)
O8 O -0.2630(5) 0.8164(5) 0.7247(3)
H35 H -0.183(6) 0.879(8) 0.744(5)
H36 H -0.209(7) 0.726(5) 0.731(5)
loop_
_geom_bond_atom_site_label_1
_geom_bond_atom_site_label_2
_geom_bond_site_symmetry_1
_geom_bond_site_symmetry_2
N1 C5 1_555 1_555
N2 H1 1_555 1_555
N3 C17 1_555 1_555
N4 H2 1_555 1_555
O1 C2 1_555 1_555
O2 C5 1_555 1_555
O3 C10 1_555 1_555
O4 C17 1_555 1_555
O5 C22 1_555 1_555
O6 C29 1_555 1_555
O7 H3 1_555 1_555
C1 H4 1_555 1_555
H5 C1 1_555 1_555
H6 C1 1_555 1_555
C2 C1 1_555 1_555
C3 C2 1_555 1_555
H7 C3 1_555 1_555
H8 C3 1_555 1_555
H9 C3 1_555 1_555
C4 C2 1_555 1_555
H10 C4 1_555 1_555
H11 C4 1_555 1_555
H12 C4 1_555 1_555
C5 O1 1_555 1_555
C6 N1 1_555 1_555
H13 C6 1_555 1_555
H14 C6 1_555 1_555
C7 C6 1_555 1_555
H15 C7 1_555 1_555
H16 C7 1_555 1_555
C8 C7 1_555 1_555
H17 C8 1_555 1_555
H18 C8 1_555 1_555
C9 N1 1_555 1_555
H19 C9 1_555 1_555
C10 N2 1_555 1_555
C11 N2 1_555 1_555
C12 C11 1_555 1_555
H20 C12 1_555 1_555
C13 C12 1_555 1_555
H21 C13 1_555 1_555
C14 C13 1_555 1_555
H22 C14 1_555 1_555
C15 C14 1_555 1_555
H23 C15 1_555 1_555
C16 C11 1_555 1_555
C17 C16 1_555 1_555
C18 N3 1_555 1_555
H24 C18 1_555 1_555
H25 C18 1_555 1_555
C19 C18 1_555 1_555
H26 C19 1_555 1_555
H27 C19 1_555 1_555
C20 C19 1_555 1_555
H28 C20 1_555 1_555
H29 C20 1_555 1_555
C21 N3 1_555 1_555
H30 C21 1_555 1_555
C22 N4 1_555 1_555
C23 N4 1_555 1_555
C24 C23 1_555 1_555
H31 C24 1_555 1_555
C25 C24 1_555 1_555
H32 C25 1_555 1_555
C26 C25 1_555 1_555
H33 C26 1_555 1_555
C27 C26 1_555 1_555
H34 C27 1_555 1_555
C28 C23 1_555 1_555
C29 O7 1_555 1_555
O8 H35 1_555 1_555
H36 O8 1_555 1_555
C8 C9 1_555 1_555
C9 C10 1_555 1_555
C15 C16 1_555 1_555
C20 C21 1_555 1_555
C21 C22 1_555 1_555
C27 C28 1_555 1_555
C28 C29 1_555 1_555

#END
