
#######################################################################
#
#                 Cambridge Crystallographic Data Centre
#                                CCDC 
#
#######################################################################
#
# If this CIF has been generated from an entry in the Cambridge 
# Structural Database, then it will include bibliographic, chemical, 
# crystal, experimental, refinement or atomic coordinate data resulting 
# from the CCDC's data processing and validation procedures.
#
#######################################################################

data_HORMEG
_chemical_formula_moiety         'C10 H10 N4 O2 S1'
_chemical_name_systematic        
1-(2-Deoxy-4-thio-\b-D-ribofuranosyl)-4,5-dicyanoimidazole
_chemical_properties_biological  
'of possible biological activity as AICAR mimics'
_symmetry_cell_setting           orthorhombic
_symmetry_space_group_name_H-M   'P 21 21 21'
_symmetry_Int_Tables_number      19
_space_group_name_Hall           'P 2ac 2ab'
loop_
_symmetry_equiv_pos_site_id
_symmetry_equiv_pos_as_xyz
1 x,y,z
2 1/2-x,-y,1/2+z
3 1/2+x,1/2-y,-z
4 -x,1/2+y,1/2-z
_cell_length_a                   5.7430(1)
_cell_length_b                   10.9130(10)
_cell_length_c                   17.918(2)
_cell_angle_alpha                90
_cell_angle_beta                 90
_cell_angle_gamma                90
_cell_volume                     1122.98
_exptl_crystal_colour            white
_chemical_melting_point          110-112deg.C
_cell_formula_units_Z            4
loop_
_atom_site_label
_atom_site_type_symbol
_atom_site_fract_x
_atom_site_fract_y
_atom_site_fract_z
S1 S 0.0689(2) 0.4258(1) 0.2982(1)
O1 O 0.3758(5) 0.3940(3) 0.4457(2)
O2 O -0.0318(4) 0.0977(2) 0.3997(2)
N1 N -0.1762(5) 0.6179(2) 0.3551(2)
N2 N -0.5080(5) 0.6919(3) 0.3090(2)
N3 N -0.5696(6) 0.9968(3) 0.3565(2)
N4 N 0.0954(7) 0.8374(3) 0.4672(2)
C1 C 0.0147(6) 0.5337(3) 0.3736(2)
C2 C -0.0274(6) 0.4579(3) 0.4430(2)
C3 C 0.1418(6) 0.3524(3) 0.4386(2)
C4 C 0.1173(7) 0.2967(3) 0.3608(2)
C5 C -0.0767(8) 0.2031(3) 0.3546(2)
C6 C -0.3714(7) 0.5968(4) 0.3162(2)
C7 C -0.3949(6) 0.7811(3) 0.3473(2)
C8 C -0.4892(6) 0.9028(3) 0.3526(2)
C9 C -0.1899(6) 0.7385(3) 0.3765(2)
C10 C -0.0283(6) 0.7931(3) 0.4255(2)
H1 H 0.1494(49) 0.5823(25) 0.3808(14)
H2 H 0.3941(70) 0.4055(34) 0.4852(19)
H3 H 0.0052(49) 0.5099(25) 0.4859(15)
H4 H -0.1821(54) 0.4314(29) 0.4416(16)
H5 H 0.1199(72) 0.0745(43) 0.3789(22)
H6 H 0.1180(48) 0.2875(22) 0.4771(14)
H7 H 0.2731(56) 0.2609(24) 0.3490(16)
H8 H -0.2258(58) 0.2436(25) 0.3724(18)
H9 H -0.1116(51) 0.1831(24) 0.3031(19)
H10 H -0.4024(58) 0.5252(25) 0.2940(16)
loop_
_geom_bond_atom_site_label_1
_geom_bond_atom_site_label_2
_geom_bond_site_symmetry_1
_geom_bond_site_symmetry_2
S1 C1 1_555 1_555
O1 C3 1_555 1_555
O2 C5 1_555 1_555
N1 C1 1_555 1_555
N2 C6 1_555 1_555
N3 C8 1_555 1_555
N4 C10 1_555 1_555
C1 C2 1_555 1_555
C2 C3 1_555 1_555
C3 C4 1_555 1_555
C4 S1 1_555 1_555
C5 C4 1_555 1_555
C6 N1 1_555 1_555
C7 N2 1_555 1_555
C8 C7 1_555 1_555
C9 N1 1_555 1_555
C10 C9 1_555 1_555
H1 C1 1_555 1_555
H2 O1 1_555 1_555
H3 C2 1_555 1_555
H4 C2 1_555 1_555
H5 O2 1_555 1_555
H6 C3 1_555 1_555
H7 C4 1_555 1_555
H8 C5 1_555 1_555
H9 C5 1_555 1_555
H10 C6 1_555 1_555
C7 C9 1_555 1_555

#END
