
#######################################################################
#
#                 Cambridge Crystallographic Data Centre
#                                CCDC 
#
#######################################################################
#
# If this CIF has been generated from an entry in the Cambridge 
# Structural Database, then it will include bibliographic, chemical, 
# crystal, experimental, refinement or atomic coordinate data resulting 
# from the CCDC's data processing and validation procedures.
#
#######################################################################

data_HORNAF
_chemical_formula_moiety         'C30 H37 B1 N2 O1,C7 H8'
_chemical_name_systematic        
'8,8-diethyl-2,3-dimethyl-6-(naphthalen-2-yl)-1-(2,4,6-trimethylphenyl)-8-borata-1,5,6-trihydroimidazo[2,1-c][1,4]oxazin-4-ium toluene solvate'
_symmetry_cell_setting           monoclinic
_symmetry_space_group_name_H-M   'P 21/c'
_symmetry_Int_Tables_number      14
_space_group_name_Hall           '-P 2ybc'
loop_
_symmetry_equiv_pos_site_id
_symmetry_equiv_pos_as_xyz
1 x,y,z
2 -x,1/2+y,1/2-z
3 -x,-y,-z
4 x,1/2-y,1/2+z
_cell_length_a                   9.9318(3)
_cell_length_b                   27.3125(10)
_cell_length_c                   10.7984(3)
_cell_angle_alpha                90
_cell_angle_beta                 100.301(3)
_cell_angle_gamma                90
_cell_volume                     2881.99
_exptl_crystal_colour            colorless
_exptl_crystal_description       block
_cell_formula_units_Z            4
loop_
_atom_site_label
_atom_site_type_symbol
_atom_site_fract_x
_atom_site_fract_y
_atom_site_fract_z
O1 O 0.85294(14) 0.20005(5) 0.22952(12)
N1 N 0.62834(16) 0.10826(6) 0.37195(14)
N2 N 0.78890(17) 0.15743(6) 0.44852(15)
C1 C 1.1973(2) 0.29087(7) 0.27445(18)
C2 C 0.8725(2) 0.22732(7) 0.34053(17)
H1 H 0.7881 0.2470 0.3430
C3 C 1.0120(2) 0.29906(7) 0.44073(18)
H2 H 0.9491 0.3018 0.4971
C4 C 0.99322(19) 0.26196(7) 0.34730(17)
C5 C 0.71330(19) 0.14283(7) 0.33890(18)
C6 C 0.3877(2) 0.10300(8) 0.27470(18)
C7 C 0.5885(2) 0.19864(8) 0.15031(18)
H3 H 0.5114 0.1754 0.1284
H4 H 0.5680 0.2200 0.2187
C8 C 0.4365(2) 0.01475(8) 0.1612(2)
H5 H 0.4531 -0.0152 0.1215
C9 C 0.6527(2) 0.10140(8) 0.50261(18)
C10 C 0.51898(19) 0.08329(7) 0.28978(17)
C11 C 1.2931(2) 0.28806(9) 0.1914(2)
H6 H 1.2825 0.2637 0.1275
C12 C 1.3277(2) 0.36064(9) 0.3772(2)
H7 H 1.3400 0.3855 0.4396
C13 C 1.0848(2) 0.25820(7) 0.26707(18)
H8 H 1.0729 0.2332 0.2050
C14 C 1.2155(2) 0.32798(8) 0.36852(18)
C15 C 0.8990(2) 0.19403(8) 0.45577(18)
H9 H 0.9880 0.1772 0.4600
H10 H 0.9033 0.2139 0.5331
C16 C 0.7620(2) 0.12616(8) 0.10449(19)
H11 H 0.6923 0.0999 0.0980
H12 H 0.7557 0.1411 0.0201
C17 C 0.3054(2) 0.03348(9) 0.14199(19)
C18 C 0.7530(2) 0.13270(8) 0.55068(19)
C19 C 0.5768(3) 0.06428(9) 0.5646(2)
H13 H 0.6118 0.0642 0.6554
H14 H 0.5896 0.0318 0.5299
H15 H 0.4791 0.0725 0.5493
C20 C 0.3568(2) 0.14996(8) 0.3380(2)
H16 H 0.2651 0.1615 0.3004
H17 H 0.4246 0.1749 0.3266
H18 H 0.3607 0.1440 0.4281
C21 C 1.1194(2) 0.33087(8) 0.45072(19)
H19 H 1.1299 0.3554 0.5140
C22 C 0.2821(2) 0.07725(9) 0.20007(19)
H20 H 0.1917 0.0900 0.1886
C23 C 1.4006(2) 0.32016(9) 0.2030(2)
H21 H 1.4640 0.3178 0.1470
C24 C 0.5453(2) 0.03846(7) 0.23709(19)
C25 C 0.5969(3) 0.23048(9) 0.0348(2)
H22 H 0.6669 0.2558 0.0577
H23 H 0.5081 0.2460 0.0052
H24 H 0.6211 0.2099 -0.0324
C26 C 0.9040(2) 0.10352(9) 0.1438(2)
H25 H 0.9733 0.1295 0.1541
H26 H 0.9215 0.0805 0.0789
H27 H 0.9082 0.0861 0.2237
C27 C 0.8157(3) 0.14386(10) 0.6841(2)
H28 H 0.7899 0.1770 0.7054
H29 H 0.9155 0.1416 0.6942
H30 H 0.7828 0.1202 0.7402
C28 C 1.4183(2) 0.35656(9) 0.2965(2)
H31 H 1.4937 0.3784 0.3036
C29 C 0.1880(3) 0.00665(13) 0.0605(3)
H32 H 0.1123 0.0030 0.1068
H33 H 0.2191 -0.0258 0.0386
H34 H 0.1569 0.0254 -0.0167
B1 B 0.7280(2) 0.16765(8) 0.2026(2)
C30 C 0.6841(2) 0.01478(9) 0.2642(2)
H35 H 0.7435 0.0298 0.2116
H36 H 0.6750 -0.0203 0.2456
H37 H 0.7242 0.0194 0.3532
loop_
_geom_bond_atom_site_label_1
_geom_bond_atom_site_label_2
_geom_bond_site_symmetry_1
_geom_bond_site_symmetry_2
O1 C2 1_555 1_555
N1 C5 1_555 1_555
N2 C5 1_555 1_555
C1 C11 1_555 1_555
C2 H1 1_555 1_555
C3 H2 1_555 1_555
C4 C2 1_555 1_555
C5 B1 1_555 1_555
C6 C10 1_555 1_555
C7 H3 1_555 1_555
H4 C7 1_555 1_555
C8 H5 1_555 1_555
C9 N1 1_555 1_555
C10 N1 1_555 1_555
C11 H6 1_555 1_555
C12 H7 1_555 1_555
C13 C1 1_555 1_555
H8 C13 1_555 1_555
C14 C1 1_555 1_555
C15 N2 1_555 1_555
H9 C15 1_555 1_555
H10 C15 1_555 1_555
C16 H11 1_555 1_555
H12 C16 1_555 1_555
C17 C8 1_555 1_555
C18 N2 1_555 1_555
C19 C9 1_555 1_555
H13 C19 1_555 1_555
H14 C19 1_555 1_555
H15 C19 1_555 1_555
C20 C6 1_555 1_555
H16 C20 1_555 1_555
H17 C20 1_555 1_555
H18 C20 1_555 1_555
C21 C3 1_555 1_555
H19 C21 1_555 1_555
C22 C6 1_555 1_555
H20 C22 1_555 1_555
C23 C11 1_555 1_555
H21 C23 1_555 1_555
C24 C8 1_555 1_555
C25 C7 1_555 1_555
H22 C25 1_555 1_555
H23 C25 1_555 1_555
H24 C25 1_555 1_555
C26 C16 1_555 1_555
H25 C26 1_555 1_555
H26 C26 1_555 1_555
H27 C26 1_555 1_555
C27 C18 1_555 1_555
H28 C27 1_555 1_555
H29 C27 1_555 1_555
H30 C27 1_555 1_555
C28 C12 1_555 1_555
H31 C28 1_555 1_555
C29 C17 1_555 1_555
H32 C29 1_555 1_555
H33 C29 1_555 1_555
H34 C29 1_555 1_555
B1 O1 1_555 1_555
C30 C24 1_555 1_555
H35 C30 1_555 1_555
H36 C30 1_555 1_555
H37 C30 1_555 1_555
C2 C15 1_555 1_555
C3 C4 1_555 1_555
C4 C13 1_555 1_555
C7 B1 1_555 1_555
C9 C18 1_555 1_555
C10 C24 1_555 1_555
C12 C14 1_555 1_555
C14 C21 1_555 1_555
C16 B1 1_555 1_555
C17 C22 1_555 1_555
C23 C28 1_555 1_555

#END
