
#######################################################################
#
#                 Cambridge Crystallographic Data Centre
#                                CCDC 
#
#######################################################################
#
# If this CIF has been generated from an entry in the Cambridge 
# Structural Database, then it will include bibliographic, chemical, 
# crystal, experimental, refinement or atomic coordinate data resulting 
# from the CCDC's data processing and validation procedures.
#
#######################################################################

data_HORNIM
_chemical_formula_moiety         'C5 H15 B1 N2'
_chemical_name_systematic        (4-Aminopiperidine)-borane
_symmetry_cell_setting           orthorhombic
_symmetry_space_group_name_H-M   'P n a 21'
_symmetry_Int_Tables_number      33
_space_group_name_Hall           'P 2c -2n'
loop_
_symmetry_equiv_pos_site_id
_symmetry_equiv_pos_as_xyz
1 x,y,z
2 -x,-y,1/2+z
3 1/2-x,1/2+y,1/2+z
4 1/2+x,1/2-y,z
_cell_length_a                   12.0885(5)
_cell_length_b                   11.7834(5)
_cell_length_c                   10.4501(6)
_cell_angle_alpha                90
_cell_angle_beta                 90
_cell_angle_gamma                90
_cell_volume                     1488.55
_exptl_crystal_colour            colorless
_exptl_crystal_description       plate
_cell_formula_units_Z            8
loop_
_atom_site_label
_atom_site_type_symbol
_atom_site_fract_x
_atom_site_fract_y
_atom_site_fract_z
B1 B 0.7162(2) 0.28040(19) 0.2383(2)
H1 H 0.764(2) 0.316(2) 0.156(3)
H2 H 0.7249(18) 0.336(2) 0.324(2)
H3 H 0.6272(19) 0.2615(17) 0.216(2)
N1 N 0.77171(11) 0.16257(12) 0.27800(15)
H4 H 0.7629 0.1128 0.2097
N2 N 0.93843(15) -0.10186(13) 0.48129(17)
H5 H 0.906(2) -0.1289(18) 0.551(3)
H6 H 1.011(2) -0.096(2) 0.492(3)
C1 C 0.71629(15) 0.11122(16) 0.39091(19)
H7 H 0.6368 0.1001 0.3717
H8 H 0.7220 0.1638 0.4645
C2 C 0.76753(14) -0.00184(16) 0.42673(19)
H9 H 0.7565 -0.0565 0.3559
H10 H 0.7301 -0.0323 0.5037
C3 C 0.89033(14) 0.01062(14) 0.45351(17)
H11 H 0.9011 0.0614 0.5291
C4 C 0.94608(14) 0.06247(15) 0.3380(2)
H12 H 0.9410 0.0093 0.2649
H13 H 1.0254 0.0751 0.3570
C5 C 0.89239(14) 0.17448(15) 0.3019(2)
H14 H 0.9042 0.2299 0.3719
H15 H 0.9285 0.2047 0.2240
B2 B 0.98633(19) -0.2440(2) 0.1646(2)
H16 H 0.9272(17) -0.1775(18) 0.121(2)
H17 H 1.070(2) -0.2080(19) 0.194(3)
H18 H 0.9956(18) -0.3226(18) 0.099(3)
N3 N 0.93017(11) -0.29068(12) 0.29362(15)
H19 H 0.9190 -0.2288 0.3474
N4 N 0.78918(16) -0.51493(15) 0.57384(18)
H20 H 0.730(2) -0.555(2) 0.553(3)
H21 H 0.8310(18) -0.567(2) 0.610(2)
C6 C 0.82017(15) -0.34288(17) 0.26868(19)
H22 H 0.8290 -0.4054 0.2062
H23 H 0.7708 -0.2853 0.2300
C7 C 0.76635(14) -0.38910(17) 0.3893(2)
H24 H 0.7502 -0.3257 0.4486
H25 H 0.6955 -0.4262 0.3669
C8 C 0.84118(15) -0.47397(15) 0.45505(17)
H26 H 0.8538 -0.5398 0.3965
C9 C 0.95171(14) -0.41793(15) 0.48446(18)
H27 H 1.0022 -0.4740 0.5239
H28 H 0.9405 -0.3552 0.5461
C10 C 1.00328(14) -0.37177(15) 0.36206(18)
H29 H 1.0737 -0.3332 0.3835
H30 H 1.0207 -0.4360 0.3044
loop_
_geom_bond_atom_site_label_1
_geom_bond_atom_site_label_2
_geom_bond_site_symmetry_1
_geom_bond_site_symmetry_2
B1 H1 1_555 1_555
H2 B1 1_555 1_555
H3 B1 1_555 1_555
N1 B1 1_555 1_555
H4 N1 1_555 1_555
N2 H5 1_555 1_555
H6 N2 1_555 1_555
C1 N1 1_555 1_555
H7 C1 1_555 1_555
H8 C1 1_555 1_555
C2 C1 1_555 1_555
H9 C2 1_555 1_555
H10 C2 1_555 1_555
C3 N2 1_555 1_555
H11 C3 1_555 1_555
C4 C3 1_555 1_555
H12 C4 1_555 1_555
H13 C4 1_555 1_555
C5 N1 1_555 1_555
H14 C5 1_555 1_555
H15 C5 1_555 1_555
B2 H16 1_555 1_555
H17 B2 1_555 1_555
H18 B2 1_555 1_555
N3 B2 1_555 1_555
H19 N3 1_555 1_555
N4 H20 1_555 1_555
H21 N4 1_555 1_555
C6 N3 1_555 1_555
H22 C6 1_555 1_555
H23 C6 1_555 1_555
C7 C6 1_555 1_555
H24 C7 1_555 1_555
H25 C7 1_555 1_555
C8 N4 1_555 1_555
H26 C8 1_555 1_555
C9 C8 1_555 1_555
H27 C9 1_555 1_555
H28 C9 1_555 1_555
C10 N3 1_555 1_555
H29 C10 1_555 1_555
H30 C10 1_555 1_555
C2 C3 1_555 1_555
C4 C5 1_555 1_555
C7 C8 1_555 1_555
C9 C10 1_555 1_555

#END
