
#######################################################################
#
#                 Cambridge Crystallographic Data Centre
#                                CCDC 
#
#######################################################################
#
# If this CIF has been generated from an entry in the Cambridge 
# Structural Database, then it will include bibliographic, chemical, 
# crystal, experimental, refinement or atomic coordinate data resulting 
# from the CCDC's data processing and validation procedures.
#
#######################################################################

data_HOSBAT
_chemical_compound_source        'aerial parts of Inula japonica'
_chemical_name_common            
"8-Hydroxy-2',5,8a,11'-tetramethyl-7'-methylene-2,6'-dioxo-3a,5,6,7,8,8a,9,9a-octahydrospiro[naphtho[2,3-b]furan-3,13'-[5]oxatetracyclo[10.2.1.0$1,10!.0$4,8!]pentadec[10]en]-15'-yl acetate acetonitrile solvate"
_chemical_formula_moiety         'C32 H40 O7,C2 H3 N1'
_chemical_name_systematic        
"(1S,4R,7S,8S,10S,1'R,2'R,3'S,7'S,8'R,10'R)-Japonicone A acetonitrile solvate"
_chemical_properties_biological  
'potent cytotoxicity against four tumour cell lines'
_symmetry_cell_setting           monoclinic
_symmetry_space_group_name_H-M   'P 21'
_symmetry_Int_Tables_number      4
_space_group_name_Hall           'P 2yb'
loop_
_symmetry_equiv_pos_site_id
_symmetry_equiv_pos_as_xyz
1 x,y,z
2 -x,1/2+y,-z
_cell_length_a                   9.4990(12)
_cell_length_b                   9.9579(12)
_cell_length_c                   17.305(2)
_cell_angle_alpha                90
_cell_angle_beta                 104.157(2)
_cell_angle_gamma                90
_cell_volume                     1587.17
_exptl_crystal_colour            colorless
_exptl_crystal_description       prismatic
_cell_formula_units_Z            2
_exptl_crystal_recrystallization_method acetonitrile
loop_
_atom_site_label
_atom_site_type_symbol
_atom_site_fract_x
_atom_site_fract_y
_atom_site_fract_z
O1 O 0.1470(5) 0.3517(4) 0.6779(2)
H1 H 0.0899 0.4073 0.6875
O2 O 0.0972(3) 0.0465(3) 0.32442(18)
O3 O 0.0147(3) 0.1855(3) 0.40232(17)
O4 O 0.5271(4) -0.1572(4) 0.0476(3)
O5 O 0.4840(3) 0.0571(3) 0.0737(2)
O6 O 0.1169(3) 0.5302(3) 0.22023(17)
O7 O -0.0253(4) 0.6651(4) 0.1322(2)
C1 C 0.2313(5) 0.4115(6) 0.6285(3)
H2 H 0.1988 0.5044 0.6167
C2 C 0.3915(6) 0.4128(6) 0.6735(3)
H3 H 0.4027 0.4583 0.7243
H4 H 0.4265 0.3215 0.6839
C3 C 0.4788(6) 0.4852(6) 0.6235(3)
H5 H 0.5802 0.4861 0.6521
H6 H 0.4461 0.5777 0.6160
C4 C 0.4651(5) 0.4203(6) 0.5420(3)
H7 H 0.5001 0.4858 0.5088
C5 C 0.3052(5) 0.3902(4) 0.5006(3)
C6 C 0.2595(5) 0.4182(5) 0.4234(3)
H8 H 0.3267 0.4578 0.3994
C7 C 0.1107(4) 0.3928(4) 0.3707(2)
H9 H 0.0690 0.4777 0.3470
C8 C 0.0078(5) 0.3284(5) 0.4164(2)
H10 H -0.0913 0.3598 0.3932
C9 C 0.0460(4) 0.3575(5) 0.5038(2)
H11 H -0.0158 0.3032 0.5285
H12 H 0.0236 0.4509 0.5113
C10 C 0.2057(5) 0.3316(4) 0.5483(2)
C11 C 0.1069(4) 0.2887(4) 0.3035(2)
C12 C 0.0773(4) 0.1598(5) 0.3422(2)
C13 C 0.2374(4) 0.2799(4) 0.2652(2)
H13 H 0.2814 0.1915 0.2731
H14 H 0.3103 0.3465 0.2880
C14 C 0.2325(5) 0.1829(5) 0.5637(3)
H15 H 0.2253 0.1372 0.5140
H16 H 0.1614 0.1474 0.5892
H17 H 0.3278 0.1697 0.5976
C15 C 0.5611(6) 0.2965(7) 0.5479(4)
H18 H 0.5414 0.2365 0.5874
H19 H 0.6613 0.3231 0.5628
H20 H 0.5414 0.2519 0.4972
C16 C 0.1713(4) 0.3080(4) 0.1742(2)
C17 C 0.0543(4) 0.4116(4) 0.1803(2)
H21 H -0.0089 0.4321 0.1278
C18 C -0.0204(4) 0.3205(4) 0.2277(2)
H22 H -0.1085 0.3577 0.2394
C19 C -0.0443(4) 0.2005(4) 0.1737(2)
C20 C 0.0708(4) 0.1910(4) 0.1416(2)
C21 C 0.0996(4) 0.0808(4) 0.0883(2)
H23 H 0.0696 0.1106 0.0334
H24 H 0.0408 0.0034 0.0940
C22 C 0.2591(4) 0.0380(4) 0.1064(2)
H25 H 0.2939 0.0274 0.1642
C23 C 0.3583(4) 0.1381(4) 0.0789(2)
H26 H 0.3098 0.1694 0.0253
C24 C 0.4070(4) 0.2565(4) 0.1301(2)
H27 H 0.4834 0.3016 0.1117
H28 H 0.4481 0.2261 0.1842
C25 C 0.2841(4) 0.3594(4) 0.1310(2)
H29 H 0.3313 0.4366 0.1618
C26 C 0.2917(4) -0.0880(5) 0.0681(2)
C27 C 0.4476(5) -0.0715(6) 0.0620(3)
C28 C 0.2152(6) -0.1937(5) 0.0387(3)
H30 H 0.1179 -0.1992 0.0397
H31 H 0.2582 -0.2633 0.0169
C29 C 0.2137(5) 0.4128(5) 0.0474(2)
H32 H 0.1574 0.3428 0.0162
H33 H 0.2880 0.4418 0.0222
H34 H 0.1516 0.4872 0.0514
C30 C -0.1697(4) 0.1065(5) 0.1654(3)
H35 H -0.1476 0.0231 0.1431
H36 H -0.2544 0.1457 0.1308
H37 H -0.1877 0.0904 0.2168
C31 C 0.0686(5) 0.6492(5) 0.1913(3)
C32 C 0.1468(7) 0.7609(6) 0.2407(3)
H38 H 0.0968 0.8438 0.2245
H39 H 0.2439 0.7667 0.2338
H40 H 0.1503 0.7443 0.2958
N1 N 0.3777(12) -0.0509(13) 0.7151(5)
C33 C 0.3662(9) 0.0195(12) 0.7632(6)
C34 C 0.3537(10) 0.1158(11) 0.8249(6)
H41 H 0.4353 0.1757 0.8349
H42 H 0.3518 0.0684 0.8729
H43 H 0.2657 0.1665 0.8073
loop_
_geom_bond_atom_site_label_1
_geom_bond_atom_site_label_2
_geom_bond_site_symmetry_1
_geom_bond_site_symmetry_2
O1 H1 1_555 1_555
O2 C12 1_555 1_555
O3 C8 1_555 1_555
O4 C27 1_555 1_555
O5 C23 1_555 1_555
O6 C17 1_555 1_555
O7 C31 1_555 1_555
N1 C33 1_555 1_555
C1 O1 1_555 1_555
H2 C1 1_555 1_555
C2 C1 1_555 1_555
H3 C2 1_555 1_555
H4 C2 1_555 1_555
C3 C2 1_555 1_555
H5 C3 1_555 1_555
H6 C3 1_555 1_555
C4 C3 1_555 1_555
H7 C4 1_555 1_555
C5 C4 1_555 1_555
C6 C5 1_555 1_555
H8 C6 1_555 1_555
C7 C6 1_555 1_555
H9 C7 1_555 1_555
C8 C7 1_555 1_555
H10 C8 1_555 1_555
C9 C8 1_555 1_555
H11 C9 1_555 1_555
H12 C9 1_555 1_555
C10 C1 1_555 1_555
C11 C7 1_555 1_555
C12 O3 1_555 1_555
C13 C11 1_555 1_555
H13 C13 1_555 1_555
H14 C13 1_555 1_555
C14 C10 1_555 1_555
H15 C14 1_555 1_555
H16 C14 1_555 1_555
H17 C14 1_555 1_555
C15 C4 1_555 1_555
H18 C15 1_555 1_555
H19 C15 1_555 1_555
H20 C15 1_555 1_555
C16 C13 1_555 1_555
C17 C16 1_555 1_555
H21 C17 1_555 1_555
C18 C11 1_555 1_555
H22 C18 1_555 1_555
C19 C18 1_555 1_555
C20 C16 1_555 1_555
C21 C20 1_555 1_555
H23 C21 1_555 1_555
H24 C21 1_555 1_555
C22 C21 1_555 1_555
H25 C22 1_555 1_555
C23 C22 1_555 1_555
H26 C23 1_555 1_555
C24 C23 1_555 1_555
H27 C24 1_555 1_555
H28 C24 1_555 1_555
C25 C16 1_555 1_555
H29 C25 1_555 1_555
C26 C22 1_555 1_555
C27 O5 1_555 1_555
C28 C26 1_555 1_555
H30 C28 1_555 1_555
H31 C28 1_555 1_555
C29 C25 1_555 1_555
H32 C29 1_555 1_555
H33 C29 1_555 1_555
H34 C29 1_555 1_555
C30 C19 1_555 1_555
H35 C30 1_555 1_555
H36 C30 1_555 1_555
H37 C30 1_555 1_555
C31 O6 1_555 1_555
C32 C31 1_555 1_555
H38 C32 1_555 1_555
H39 C32 1_555 1_555
H40 C32 1_555 1_555
C33 C34 1_555 1_555
C34 H41 1_555 1_555
H42 C34 1_555 1_555
H43 C34 1_555 1_555
C5 C10 1_555 1_555
C9 C10 1_555 1_555
C11 C12 1_555 1_555
C17 C18 1_555 1_555
C19 C20 1_555 1_555
C24 C25 1_555 1_555
C26 C27 1_555 1_555

#END
