
#######################################################################
#
#                 Cambridge Crystallographic Data Centre
#                                CCDC 
#
#######################################################################
#
# If this CIF has been generated from an entry in the Cambridge 
# Structural Database, then it will include bibliographic, chemical, 
# crystal, experimental, refinement or atomic coordinate data resulting 
# from the CCDC's data processing and validation procedures.
#
#######################################################################

data_HOTNEL
_chemical_formula_moiety         'C19 H18 N2 O3 S1'
_chemical_name_systematic        
2-((4-methylphenyl)sulfonyl)-1,2,3,4-tetrahydro-5H-[1,4]diazepino[1,2-a]indol-5-one
_symmetry_cell_setting           orthorhombic
_symmetry_space_group_name_H-M   'P b c a'
_symmetry_Int_Tables_number      61
_space_group_name_Hall           '-P 2ac 2ab'
loop_
_symmetry_equiv_pos_site_id
_symmetry_equiv_pos_as_xyz
1 x,y,z
2 1/2-x,-y,1/2+z
3 -x,1/2+y,1/2-z
4 1/2+x,1/2-y,-z
5 -x,-y,-z
6 1/2+x,y,1/2-z
7 x,1/2-y,1/2+z
8 1/2-x,1/2+y,z
_cell_length_a                   7.5449(15)
_cell_length_b                   12.252(3)
_cell_length_c                   34.976(7)
_cell_angle_alpha                90
_cell_angle_beta                 90
_cell_angle_gamma                90
_cell_volume                     3233.19
_exptl_crystal_colour            colorless
_cell_formula_units_Z            8
loop_
_atom_site_label
_atom_site_type_symbol
_atom_site_fract_x
_atom_site_fract_y
_atom_site_fract_z
S1 S 1.22254(5) 0.85781(3) 0.053885(10)
O1 O 1.34673(14) 0.77386(8) 0.06416(3)
O2 O 1.26394(14) 0.93398(9) 0.02379(3)
O3 O 0.62776(15) 0.95954(9) 0.09061(3)
N1 N 1.04219(17) 0.79499(10) 0.04009(3)
N2 N 0.79291(16) 0.81120(9) 0.10713(3)
C1 C 1.1777(2) 0.93408(11) 0.09576(4)
C2 C 1.0838(2) 1.03189(11) 0.09344(4)
H1 H 1.0471 1.0594 0.0693
C3 C 1.0442(2) 1.08892(12) 0.12676(4)
H2 H 0.9786 1.1550 0.1252
C4 C 1.0996(2) 1.05038(12) 0.16244(4)
C5 C 1.1961(2) 0.95333(12) 0.16406(4)
H3 H 1.2362 0.9271 0.1881
C6 C 1.2346(2) 0.89416(12) 0.13110(4)
H4 H 1.2988 0.8276 0.1326
C7 C 1.0577(3) 1.11282(14) 0.19852(5)
H5 H 0.9593 1.0773 0.2119
H6 H 1.0242 1.1878 0.1920
H7 H 1.1624 1.1139 0.2151
C8 C 0.9022(2) 0.85964(12) 0.02079(4)
H8 H 0.8965 0.8377 -0.0064
H9 H 0.9352 0.9378 0.0217
C9 C 0.7190(2) 0.84551(12) 0.03868(4)
H10 H 0.6327 0.8893 0.0239
H11 H 0.6838 0.7679 0.0365
C10 C 0.70795(19) 0.87889(12) 0.08026(4)
C11 C 0.77950(19) 0.82395(11) 0.14730(4)
C12 C 0.6858(2) 0.89999(12) 0.16902(4)
H12 H 0.6151 0.9548 0.1573
C13 C 0.7006(2) 0.89197(13) 0.20860(5)
H13 H 0.6373 0.9420 0.2242
C14 C 0.8064(2) 0.81197(14) 0.22604(5)
H14 H 0.8149 0.8094 0.2531
C15 C 0.8985(2) 0.73668(13) 0.20416(4)
H15 H 0.9698 0.6824 0.2160
C16 C 0.8848(2) 0.74200(11) 0.16429(4)
C17 C 0.9662(2) 0.68107(11) 0.13367(4)
H16 H 1.0449 0.6212 0.1367
C18 C 0.91141(19) 0.72363(11) 0.09999(4)
C19 C 0.9834(2) 0.69670(11) 0.06105(4)
H17 H 1.0847 0.6460 0.0638
H18 H 0.8905 0.6591 0.0460
loop_
_geom_bond_atom_site_label_1
_geom_bond_atom_site_label_2
_geom_bond_site_symmetry_1
_geom_bond_site_symmetry_2
S1 O1 1_555 1_555
O2 S1 1_555 1_555
O3 C10 1_555 1_555
N1 S1 1_555 1_555
N2 C10 1_555 1_555
C1 S1 1_555 1_555
C2 C1 1_555 1_555
H1 C2 1_555 1_555
C3 C2 1_555 1_555
H2 C3 1_555 1_555
C4 C3 1_555 1_555
C5 C4 1_555 1_555
H3 C5 1_555 1_555
C6 C1 1_555 1_555
H4 C6 1_555 1_555
C7 C4 1_555 1_555
H5 C7 1_555 1_555
H6 C7 1_555 1_555
H7 C7 1_555 1_555
C8 N1 1_555 1_555
H8 C8 1_555 1_555
H9 C8 1_555 1_555
C9 C8 1_555 1_555
H10 C9 1_555 1_555
H11 C9 1_555 1_555
C10 C9 1_555 1_555
C11 N2 1_555 1_555
C12 C11 1_555 1_555
H12 C12 1_555 1_555
C13 C12 1_555 1_555
H13 C13 1_555 1_555
C14 C13 1_555 1_555
H14 C14 1_555 1_555
C15 C14 1_555 1_555
H15 C15 1_555 1_555
C16 C11 1_555 1_555
C17 C16 1_555 1_555
H16 C17 1_555 1_555
C18 N2 1_555 1_555
C19 N1 1_555 1_555
H17 C19 1_555 1_555
H18 C19 1_555 1_555
C5 C6 1_555 1_555
C15 C16 1_555 1_555
C17 C18 1_555 1_555
C18 C19 1_555 1_555

#END
