
#######################################################################
#
#                 Cambridge Crystallographic Data Centre
#                                CCDC 
#
#######################################################################
#
# If this CIF has been generated from an entry in the Cambridge 
# Structural Database, then it will include bibliographic, chemical, 
# crystal, experimental, refinement or atomic coordinate data resulting 
# from the CCDC's data processing and validation procedures.
#
#######################################################################

data_HOTNOV
_chemical_formula_moiety         'C13 H14 N2 O3 S1'
_chemical_name_systematic        
2-(methylsulfonyl)-1,2,3,4-tetrahydro-5H-[1,4]diazepino[1,2-a]indol-5-one
_symmetry_cell_setting           triclinic
_symmetry_space_group_name_H-M   'P -1'
_symmetry_Int_Tables_number      2
_space_group_name_Hall           '-P 1'
loop_
_symmetry_equiv_pos_site_id
_symmetry_equiv_pos_as_xyz
1 x,y,z
2 -x,-y,-z
_cell_length_a                   7.1772(14)
_cell_length_b                   7.6878(15)
_cell_length_c                   12.312(3)
_cell_angle_alpha                87.84(3)
_cell_angle_beta                 79.85(3)
_cell_angle_gamma                70.71(3)
_cell_volume                     631.01
_exptl_crystal_colour            colorless
_cell_formula_units_Z            2
loop_
_atom_site_label
_atom_site_type_symbol
_atom_site_fract_x
_atom_site_fract_y
_atom_site_fract_z
S1 S 0.27977(6) 0.30998(5) 0.55192(3)
O1 O 0.9029(2) 0.0540(3) 0.83310(12)
O2 O 0.3851(2) 0.33765(18) 0.44569(9)
O3 O 0.1090(2) 0.2507(2) 0.55646(11)
N1 N 0.56387(18) 0.14451(17) 0.85349(10)
N2 N 0.44143(19) 0.15657(18) 0.61367(10)
C1 C 0.7564(2) 0.0745(2) 0.79140(13)
C2 C 0.7774(2) 0.0269(2) 0.66991(13)
H1 H 0.9160 0.0042 0.6358
H2 H 0.7499 -0.0878 0.6655
C3 C 0.6454(2) 0.1682(2) 0.60160(14)
H3 H 0.6360 0.2909 0.6240
H4 H 0.7077 0.1495 0.5245
C4 C 0.3679(2) 0.0721(2) 0.71490(12)
H5 H 0.4450 -0.0582 0.7124
H6 H 0.2294 0.0828 0.7149
C5 C 0.3797(2) 0.1544(2) 0.82113(12)
C6 C 0.2276(2) 0.2310(2) 0.90425(13)
H7 H 0.0926 0.2516 0.9036
C7 C 0.3085(3) 0.2755(2) 0.99428(13)
C8 C 0.2193(3) 0.3586(3) 1.09910(15)
H8 H 0.0811 0.3942 1.1218
C9 C 0.3397(4) 0.3863(3) 1.16736(15)
H9 H 0.2822 0.4427 1.2363
C10 C 0.5458(4) 0.3313(3) 1.13455(15)
H10 H 0.6234 0.3522 1.1824
C11 C 0.6412(3) 0.2456(3) 1.03246(14)
H11 H 0.7799 0.2074 1.0118
C12 C 0.5175(3) 0.2199(2) 0.96260(12)
C13 C 0.2010(3) 0.5187(2) 0.62814(15)
H12 H 0.0990 0.6094 0.5961
H13 H 0.3131 0.5611 0.6268
H14 H 0.1481 0.4993 0.7031
loop_
_geom_bond_atom_site_label_1
_geom_bond_atom_site_label_2
_geom_bond_site_symmetry_1
_geom_bond_site_symmetry_2
S1 O2 1_555 1_555
O1 C1 1_555 1_555
O3 S1 1_555 1_555
N1 C1 1_555 1_555
N2 S1 1_555 1_555
C1 C2 1_555 1_555
C2 H1 1_555 1_555
H2 C2 1_555 1_555
C3 N2 1_555 1_555
H3 C3 1_555 1_555
H4 C3 1_555 1_555
C4 N2 1_555 1_555
H5 C4 1_555 1_555
H6 C4 1_555 1_555
C5 N1 1_555 1_555
C6 C5 1_555 1_555
H7 C6 1_555 1_555
C7 C6 1_555 1_555
C8 C7 1_555 1_555
H8 C8 1_555 1_555
C9 C8 1_555 1_555
H9 C9 1_555 1_555
C10 C9 1_555 1_555
H10 C10 1_555 1_555
C11 C10 1_555 1_555
H11 C11 1_555 1_555
C12 N1 1_555 1_555
C13 S1 1_555 1_555
H12 C13 1_555 1_555
H13 C13 1_555 1_555
H14 C13 1_555 1_555
C2 C3 1_555 1_555
C4 C5 1_555 1_555
C7 C12 1_555 1_555
C11 C12 1_555 1_555

#END
