
#######################################################################
#
#                 Cambridge Crystallographic Data Centre
#                                CCDC 
#
#######################################################################
#
# If this CIF has been generated from an entry in the Cambridge 
# Structural Database, then it will include bibliographic, chemical, 
# crystal, experimental, refinement or atomic coordinate data resulting 
# from the CCDC's data processing and validation procedures.
#
#######################################################################

data_HOTTAM
_chemical_name_common            
((4-(2-(2-Ethyl-1-benzothiophen-3-yl)-3,3,4,4,5,5-hexafluorocyclopent-1-en-1-yl)-5-pentyl-2-thienyl)methylene)malononitrile
_chemical_formula_moiety         'C28 H22 F6 N2 S2'
_chemical_name_systematic        
((4-(2-(2-Ethyl-1-benzothiophen-3-yl)-3,3,4,4,5,5-hexafluoro-1-cyclopenten-1-yl)-5-pentyl-2-thienyl)methylene)malononitrile
_symmetry_cell_setting           triclinic
_symmetry_space_group_name_H-M   'P -1'
_symmetry_Int_Tables_number      2
_space_group_name_Hall           '-P 1'
loop_
_symmetry_equiv_pos_site_id
_symmetry_equiv_pos_as_xyz
1 x,y,z
2 -x,-y,-z
_cell_length_a                   10.930(5)
_cell_length_b                   11.525(6)
_cell_length_c                   13.715(6)
_cell_angle_alpha                65.218(6)
_cell_angle_beta                 67.338(6)
_cell_angle_gamma                64.912(6)
_cell_volume                     1374.57
_exptl_crystal_colour            colorless
_exptl_crystal_description       block
_chemical_melting_point          '408.2-408.7 K'
_cell_formula_units_Z            2
_exptl_crystal_recrystallization_method 'diethyl ether/hexane'
loop_
_atom_site_label
_atom_site_type_symbol
_atom_site_fract_x
_atom_site_fract_y
_atom_site_fract_z
S1 S 0.97928(17) 0.42123(14) 0.20648(15)
S2 S 0.61894(14) 0.81741(14) 0.45727(10)
F1 F 0.9421(4) 0.8438(4) -0.1014(3)
F2 F 0.7485(5) 0.8411(4) -0.0947(3)
F3 F 0.8312(7) 1.0944(5) -0.1457(4)
F4 F 0.6309(5) 1.0781(5) -0.0926(4)
F5 F 0.8180(5) 1.0930(4) 0.0423(3)
F6 F 0.6009(5) 1.1283(4) 0.0735(3)
N1 N 0.9268(6) 0.9525(6) 0.6455(4)
N2 N 0.6015(8) 0.7853(8) 0.7148(5)
C1 C 0.8311(6) 0.4401(5) 0.1809(5)
C2 C 0.7728(8) 0.3384(7) 0.2067(7)
H1 H 0.8166 0.2487 0.2410
C3 C 0.6501(9) 0.3763(10) 0.1793(9)
H2 H 0.6117 0.3105 0.1946
C4 C 0.5817(7) 0.5094(10) 0.1297(9)
H3 H 0.4985 0.5311 0.1128
C5 C 0.6354(6) 0.6106(7) 0.1049(6)
H4 H 0.5897 0.6997 0.0707
C6 C 0.7591(5) 0.5768(5) 0.1320(5)
C7 C 0.8311(5) 0.6638(4) 0.1210(4)
C8 C 0.9483(5) 0.5943(5) 0.1589(4)
C9 C 1.0503(6) 0.6467(6) 0.1618(7)
H5 H 1.0459 0.7319 0.1031
H6 H 1.0165 0.6666 0.2314
C10 C 1.1863(9) 0.5733(10) 0.1517(11)
H7 H 1.1945 0.4859 0.2059
H8 H 1.2340 0.6178 0.1633
H9 H 1.2272 0.5637 0.0786
C11 C 0.7865(4) 0.8112(5) 0.0749(4)
C12 C 0.8065(6) 0.8779(5) -0.0482(4)
C13 C 0.7531(6) 1.0277(6) -0.0641(5)
C14 C 0.7255(6) 1.0416(5) 0.0472(4)
C15 C 0.7427(4) 0.9019(4) 0.1279(4)
C16 C 0.7183(4) 0.8803(4) 0.2463(3)
C17 C 0.6226(5) 0.8224(5) 0.3290(4)
C18 C 0.5259(7) 0.7676(8) 0.3195(5)
H10 H 0.4773 0.8363 0.2638
H11 H 0.5830 0.6916 0.2914
C19 C 0.4205(6) 0.7239(6) 0.4195(5)
H12 H 0.3604 0.7997 0.4474
H13 H 0.4674 0.6550 0.4761
C20 C 0.3306(6) 0.6687(7) 0.4003(5)
H14 H 0.2885 0.7359 0.3404
H15 H 0.3905 0.5901 0.3761
C21 C 0.2205(8) 0.6317(10) 0.4963(7)
H16 H 0.1621 0.7098 0.5215
H17 H 0.2630 0.5631 0.5555
C22 C 0.1302(8) 0.5806(9) 0.4779(7)
H18 H 0.0716 0.6533 0.4320
H19 H 0.0731 0.5426 0.5479
H20 H 0.1874 0.5126 0.4417
C23 C 0.7867(5) 0.9221(4) 0.2875(4)
H21 H 0.8528 0.9660 0.2419
C24 C 0.7477(4) 0.8927(5) 0.4011(4)
C25 C 0.8098(5) 0.9190(5) 0.4614(4)
H22 H 0.8779 0.9609 0.4177
C26 C 0.7849(5) 0.8924(5) 0.5710(4)
C27 C 0.6843(6) 0.8316(7) 0.6515(5)
C28 C 0.8635(6) 0.9258(5) 0.6132(4)
loop_
_geom_bond_atom_site_label_1
_geom_bond_atom_site_label_2
_geom_bond_site_symmetry_1
_geom_bond_site_symmetry_2
S1 C1 1_555 1_555
S2 C17 1_555 1_555
F1 C12 1_555 1_555
F2 C12 1_555 1_555
F3 C13 1_555 1_555
F4 C13 1_555 1_555
F5 C14 1_555 1_555
F6 C14 1_555 1_555
N1 C28 1_555 1_555
N2 C27 1_555 1_555
C1 C2 1_555 1_555
C2 H1 1_555 1_555
C3 C2 1_555 1_555
H2 C3 1_555 1_555
C4 C3 1_555 1_555
H3 C4 1_555 1_555
C5 C4 1_555 1_555
H4 C5 1_555 1_555
C6 C1 1_555 1_555
C7 C6 1_555 1_555
C8 S1 1_555 1_555
C9 C8 1_555 1_555
H5 C9 1_555 1_555
H6 C9 1_555 1_555
C10 C9 1_555 1_555
H7 C10 1_555 1_555
H8 C10 1_555 1_555
H9 C10 1_555 1_555
C11 C7 1_555 1_555
C12 C11 1_555 1_555
C13 C12 1_555 1_555
C14 C13 1_555 1_555
C15 C11 1_555 1_555
C16 C15 1_555 1_555
C17 C16 1_555 1_555
C18 C17 1_555 1_555
H10 C18 1_555 1_555
H11 C18 1_555 1_555
C19 C18 1_555 1_555
H12 C19 1_555 1_555
H13 C19 1_555 1_555
C20 C19 1_555 1_555
H14 C20 1_555 1_555
H15 C20 1_555 1_555
C21 C20 1_555 1_555
H16 C21 1_555 1_555
H17 C21 1_555 1_555
C22 C21 1_555 1_555
H18 C22 1_555 1_555
H19 C22 1_555 1_555
H20 C22 1_555 1_555
C23 C16 1_555 1_555
H21 C23 1_555 1_555
C24 S2 1_555 1_555
C25 C24 1_555 1_555
H22 C25 1_555 1_555
C26 C25 1_555 1_555
C27 C26 1_555 1_555
C28 C26 1_555 1_555
C5 C6 1_555 1_555
C7 C8 1_555 1_555
C14 C15 1_555 1_555
C23 C24 1_555 1_555

#END
