
#######################################################################
#
#                 Cambridge Crystallographic Data Centre
#                                CCDC 
#
#######################################################################
#
# If this CIF has been generated from an entry in the Cambridge 
# Structural Database, then it will include bibliographic, chemical, 
# crystal, experimental, refinement or atomic coordinate data resulting 
# from the CCDC's data processing and validation procedures.
#
#######################################################################

data_HOTWOE
_chemical_formula_moiety         'C26 H33 N1 O3'
_chemical_name_systematic        
17-hydroxy-2-(hydroxymethylene)-17-(pyridin-2-ylmethyl)androst-4-en-3-one
_symmetry_cell_setting           monoclinic
_symmetry_space_group_name_H-M   'P 21'
_symmetry_Int_Tables_number      4
_space_group_name_Hall           'P 2yb'
loop_
_symmetry_equiv_pos_site_id
_symmetry_equiv_pos_as_xyz
1 x,y,z
2 -x,1/2+y,-z
_cell_length_a                   11.161(2)
_cell_length_b                   6.2498(13)
_cell_length_c                   16.253(3)
_cell_angle_alpha                90
_cell_angle_beta                 91.564(19)
_cell_angle_gamma                90
_cell_volume                     1133.29
_exptl_crystal_colour            colorless
_exptl_crystal_description       prism
_cell_formula_units_Z            2
loop_
_atom_site_label
_atom_site_type_symbol
_atom_site_fract_x
_atom_site_fract_y
_atom_site_fract_z
O1 O 0.1383(3) 0.5001(5) 1.0339(2)
O2 O 0.3315(3) 1.3586(8) 0.4600(2)
O3 O 0.1129(4) 1.3742(8) 0.4240(2)
N1 N 0.1439(3) 0.7251(8) 1.1802(2)
C1 C 0.2412(3) 0.9234(6) 0.7548(2)
C2 C 0.2574(3) 0.9627(6) 0.6602(2)
C3 C 0.1624(4) 0.8812(7) 1.0440(2)
H1 H 0.2030 1.0017 1.0196
H2 H 0.0775 0.8948 1.0307
C4 C 0.1026(3) 0.7995(7) 0.8673(2)
H3 H 0.0971 0.9412 0.8913
H4 H 0.0278 0.7253 0.8766
C5 C 0.3474(3) 0.8101(7) 0.7971(2)
C6 C 0.3234(3) 0.7917(7) 0.8894(2)
C7 C 0.3813(3) 1.0516(8) 0.6434(2)
C8 C 0.2051(3) 0.6779(6) 0.9091(2)
C9 C 0.2092(3) 0.6729(6) 1.0055(2)
C10 C 0.1806(3) 0.8916(7) 1.1365(2)
C11 C 0.1214(3) 0.8195(8) 0.7742(2)
H5 H 0.1178 0.6782 0.7495
H6 H 0.0569 0.9043 0.7498
C12 C 0.3446(3) 0.6395(8) 1.0259(2)
H7 H 0.3709 0.7371 1.0692
H8 H 0.3589 0.4942 1.0447
C13 C 0.4622(3) 0.9371(10) 0.7827(2)
H9 H 0.4547 1.0791 0.8061
H10 H 0.5295 0.8663 0.8102
C14 C 0.1859(4) 1.2180(8) 0.5470(2)
C15 C 0.1623(3) 1.1267(7) 0.6310(2)
H11 H 0.0843 1.0582 0.6296
H12 H 0.1600 1.2428 0.6705
C16 C 0.3999(4) 1.1904(10) 0.5832(3)
C17 C 0.4142(3) 0.6829(9) 0.9468(2)
H13 H 0.4824 0.7755 0.9581
H14 H 0.4423 0.5503 0.9231
C18 C 0.3044(4) 1.2630(8) 0.5272(2)
C19 C 0.2044(5) 0.4439(7) 0.8789(3)
H15 H 0.1284 0.3798 0.8900
H16 H 0.2670 0.3657 0.9071
H17 H 0.2172 0.4407 0.8207
C20 C 0.2283(4) 1.0713(9) 1.1749(3)
H18 H 0.2507 1.1889 1.1438
C21 C 0.2428(5) 0.7548(8) 0.6107(2)
H19 H 0.2549 0.7836 0.5535
H20 H 0.1636 0.6989 0.6174
H21 H 0.3008 0.6520 0.6302
C22 C 0.4852(3) 0.9551(11) 0.6910(2)
H22 H 0.5559 1.0425 0.6833
H23 H 0.5014 0.8138 0.6693
C23 C 0.1582(5) 0.7310(11) 1.2626(3)
H24 H 0.1341 0.6129 1.2928
C24 C 0.2426(5) 1.0752(12) 1.2596(3)
H25 H 0.2763 1.1935 1.2861
C25 C 0.2060(6) 0.9007(14) 1.3039(3)
H26 H 0.2139 0.8991 1.3610
C26 C 0.0959(5) 1.2780(10) 0.4937(3)
H27 H 0.316(3) 0.944(6) 0.9098(17)
H28 H 0.239(3) 1.054(6) 0.7781(18)
H29 H 0.362(3) 0.688(8) 0.780(2)
H30 H 0.481(5) 1.226(11) 0.572(3)
H31 H 0.014(5) 1.261(10) 0.506(3)
H32 H 0.129(3) 0.526(7) 1.083(2)
H33 H 0.208(4) 1.394(9) 0.426(3)
loop_
_geom_bond_atom_site_label_1
_geom_bond_atom_site_label_2
_geom_bond_site_symmetry_1
_geom_bond_site_symmetry_2
O1 C9 1_555 1_555
O2 C18 1_555 1_555
O3 C26 1_555 1_555
N1 C10 1_555 1_555
C1 C2 1_555 1_555
C2 C7 1_555 1_555
C3 H1 1_555 1_555
H2 C3 1_555 1_555
C4 H3 1_555 1_555
H4 C4 1_555 1_555
C5 C1 1_555 1_555
C6 C5 1_555 1_555
C7 C16 1_555 1_555
C8 C4 1_555 1_555
C9 C3 1_555 1_555
C10 C3 1_555 1_555
C11 C1 1_555 1_555
H5 C11 1_555 1_555
H6 C11 1_555 1_555
C12 C9 1_555 1_555
H7 C12 1_555 1_555
H8 C12 1_555 1_555
C13 C5 1_555 1_555
H9 C13 1_555 1_555
H10 C13 1_555 1_555
C14 C15 1_555 1_555
C15 C2 1_555 1_555
H11 C15 1_555 1_555
H12 C15 1_555 1_555
C16 C18 1_555 1_555
C17 C6 1_555 1_555
H13 C17 1_555 1_555
H14 C17 1_555 1_555
C18 C14 1_555 1_555
C19 C8 1_555 1_555
H15 C19 1_555 1_555
H16 C19 1_555 1_555
H17 C19 1_555 1_555
C20 C10 1_555 1_555
H18 C20 1_555 1_555
C21 C2 1_555 1_555
H19 C21 1_555 1_555
H20 C21 1_555 1_555
H21 C21 1_555 1_555
C22 C7 1_555 1_555
H22 C22 1_555 1_555
H23 C22 1_555 1_555
C23 N1 1_555 1_555
H24 C23 1_555 1_555
C24 C20 1_555 1_555
H25 C24 1_555 1_555
C25 C23 1_555 1_555
H26 C25 1_555 1_555
C26 C14 1_555 1_555
H27 C6 1_555 1_555
H28 C1 1_555 1_555
H29 C5 1_555 1_555
H30 C16 1_555 1_555
H31 C26 1_555 1_555
H32 O1 1_555 1_555
H33 O3 1_555 1_555
C4 C11 1_555 1_555
C6 C8 1_555 1_555
C8 C9 1_555 1_555
C12 C17 1_555 1_555
C13 C22 1_555 1_555
C24 C25 1_555 1_555

#END
