
#######################################################################
#
#                 Cambridge Crystallographic Data Centre
#                                CCDC 
#
#######################################################################
#
# If this CIF has been generated from an entry in the Cambridge 
# Structural Database, then it will include bibliographic, chemical, 
# crystal, experimental, refinement or atomic coordinate data resulting 
# from the CCDC's data processing and validation procedures.
#
#######################################################################

data_HOTXOF
_chemical_formula_moiety         'C24 H28 O6'
_chemical_name_systematic        
'diethyl 2-benzyl-5-(4-methoxyphenyl)dihydrofuran-3,3(2H)-dicarboxylate'
_symmetry_cell_setting           monoclinic
_symmetry_space_group_name_H-M   'P 21/c'
_symmetry_Int_Tables_number      14
_space_group_name_Hall           '-P 2ybc'
loop_
_symmetry_equiv_pos_site_id
_symmetry_equiv_pos_as_xyz
1 x,y,z
2 -x,1/2+y,1/2-z
3 -x,-y,-z
4 x,1/2-y,1/2+z
_cell_length_a                   8.1538(7)
_cell_length_b                   20.9968(19)
_cell_length_c                   13.3493(13)
_cell_angle_alpha                90
_cell_angle_beta                 107.298(3)
_cell_angle_gamma                90
_cell_volume                     2182.08
_exptl_crystal_colour            colorless
_exptl_crystal_description       Block
_cell_formula_units_Z            4
loop_
_atom_site_label
_atom_site_type_symbol
_atom_site_fract_x
_atom_site_fract_y
_atom_site_fract_z
O1 O 0.29216(8) 0.09359(3) 0.91269(5)
O2 O 0.48083(9) 0.15947(3) 0.63489(5)
O3 O 0.27773(10) 0.08356(4) 0.60296(6)
O4 O 0.18352(9) 0.22666(3) 0.66685(6)
O5 O 0.84853(10) 0.16857(4) 1.34309(6)
O6 O 0.29966(11) 0.24343(4) 0.83983(6)
C1 C -0.08289(12) 0.05767(5) 0.76736(8)
C2 C 0.51833(12) 0.13476(5) 0.85462(7)
H1 H 0.5582 0.1755 0.8870
H2 H 0.6062 0.1167 0.8276
C3 C 0.22596(12) 0.09529(4) 0.80099(7)
H3 H 0.2383 0.0529 0.7735
C4 C 0.56557(12) 0.10571(5) 1.04665(7)
C5 C 0.50359(14) 0.14738(6) 0.53243(8)
H4 H 0.4011 0.1596 0.4773
H5 H 0.5246 0.1024 0.5247
C6 C 0.36119(12) 0.12427(5) 0.65865(7)
C7 C 0.03626(12) 0.11285(5) 0.76792(8)
H6 H 0.0181 0.1453 0.8152
H7 H 0.0061 0.1311 0.6981
C8 C 0.34717(12) 0.14242(4) 0.76625(7)
C9 C 0.75877(12) 0.14381(5) 1.24786(7)
C10 C 0.80516(13) 0.08949(5) 1.20354(8)
H8 H 0.9004 0.0658 1.2403
C11 C 0.70752(13) 0.07090(5) 1.10341(8)
H9 H 0.7381 0.0343 1.0739
C12 C 0.65424(15) 0.18599(6) 0.52526(9)
H10 H 0.6725 0.1790 0.4583
H11 H 0.7549 0.1734 0.5801
H12 H 0.6319 0.2303 0.5328
C13 C -0.17701(16) 0.03135(5) 0.67238(9)
H13 H -0.1632 0.0469 0.6102
C14 C 0.61352(13) 0.17830(5) 1.19288(8)
H14 H 0.5805 0.2140 1.2233
C15 C 0.09875(16) 0.28847(5) 0.65676(10)
H15 H 0.1817 0.3214 0.6877
H16 H 0.0115 0.2881 0.6928
C16 C 0.27794(12) 0.21025(5) 0.76385(8)
C17 C 0.51873(13) 0.15952(5) 1.09334(8)
H17 H 0.4227 0.1829 1.0570
C18 C -0.21539(15) -0.01808(5) 0.85626(11)
H18 H -0.2259 -0.0352 0.9183
C19 C -0.10241(14) 0.03227(5) 0.85943(9)
H19 H -0.0394 0.0491 0.9238
C20 C 0.47541(12) 0.08901(5) 0.93425(7)
H20 H 0.5057 0.0454 0.9205
C21 C 0.01815(16) 0.30140(6) 0.54223(11)
H21 H -0.0385 0.3420 0.5335
H22 H -0.0641 0.2687 0.5124
H23 H 0.1055 0.3018 0.5073
C22 C 0.99300(16) 0.13344(7) 1.40441(9)
H24 H 1.0448 0.1556 1.4690
H25 H 1.0753 0.1291 1.3662
H26 H 0.9563 0.0920 1.4193
C23 C -0.29189(18) -0.01814(6) 0.66919(12)
H27 H -0.3557 -0.0349 0.6049
C24 C -0.31156(15) -0.04250(6) 0.76095(12)
H28 H -0.3894 -0.0753 0.7585
loop_
_geom_bond_atom_site_label_1
_geom_bond_atom_site_label_2
_geom_bond_site_symmetry_1
_geom_bond_site_symmetry_2
O1 C3 1_555 1_555
O2 C5 1_555 1_555
O3 C6 1_555 1_555
O4 C15 1_555 1_555
O5 C9 1_555 1_555
O6 C16 1_555 1_555
C1 C7 1_555 1_555
C2 H1 1_555 1_555
H2 C2 1_555 1_555
C3 H3 1_555 1_555
C4 C11 1_555 1_555
C5 H4 1_555 1_555
H5 C5 1_555 1_555
C6 O2 1_555 1_555
C7 C3 1_555 1_555
H6 C7 1_555 1_555
H7 C7 1_555 1_555
C8 C2 1_555 1_555
C9 C10 1_555 1_555
C10 H8 1_555 1_555
C11 C10 1_555 1_555
H9 C11 1_555 1_555
C12 C5 1_555 1_555
H10 C12 1_555 1_555
H11 C12 1_555 1_555
H12 C12 1_555 1_555
C13 C1 1_555 1_555
H13 C13 1_555 1_555
C14 C9 1_555 1_555
H14 C14 1_555 1_555
C15 H15 1_555 1_555
H16 C15 1_555 1_555
C16 O4 1_555 1_555
C17 C4 1_555 1_555
H17 C17 1_555 1_555
C18 H18 1_555 1_555
C19 C1 1_555 1_555
H19 C19 1_555 1_555
C20 O1 1_555 1_555
H20 C20 1_555 1_555
C21 C15 1_555 1_555
H21 C21 1_555 1_555
H22 C21 1_555 1_555
H23 C21 1_555 1_555
C22 O5 1_555 1_555
H24 C22 1_555 1_555
H25 C22 1_555 1_555
H26 C22 1_555 1_555
C23 C13 1_555 1_555
H27 C23 1_555 1_555
C24 C18 1_555 1_555
H28 C24 1_555 1_555
C2 C20 1_555 1_555
C3 C8 1_555 1_555
C4 C20 1_555 1_555
C6 C8 1_555 1_555
C8 C16 1_555 1_555
C14 C17 1_555 1_555
C18 C19 1_555 1_555
C23 C24 1_555 1_555

#END
