
#######################################################################
#
#                 Cambridge Crystallographic Data Centre
#                                CCDC 
#
#######################################################################
#
# If this CIF has been generated from an entry in the Cambridge 
# Structural Database, then it will include bibliographic, chemical, 
# crystal, experimental, refinement or atomic coordinate data resulting 
# from the CCDC's data processing and validation procedures.
#
#######################################################################

data_HOTZUM
_chemical_formula_moiety         'C15 H19 Cl1 N4 O3,H2 O1'
_chemical_name_systematic        
'1-((6-Chloropyridin-3-yl)methyl)-5-methoxy-7-methyl-8-nitro-1,2,3,5,6,7-hexahydroimidazo(1,2-a)pyridine monohydrate'
_chemical_properties_biological  'insecticidal activity'
_symmetry_cell_setting           monoclinic
_symmetry_space_group_name_H-M   'P 21/c'
_symmetry_Int_Tables_number      14
_space_group_name_Hall           '-P 2ybc'
loop_
_symmetry_equiv_pos_site_id
_symmetry_equiv_pos_as_xyz
1 x,y,z
2 -x,1/2+y,1/2-z
3 -x,-y,-z
4 x,1/2-y,1/2+z
_cell_length_a                   18.6404(17)
_cell_length_b                   7.4909(7)
_cell_length_c                   12.6367(12)
_cell_angle_alpha                90
_cell_angle_beta                 109.813(1)
_cell_angle_gamma                90
_cell_volume                     1660.05
_exptl_crystal_colour            colorless
_exptl_crystal_description       prismatic
_chemical_melting_point          '164.0-165.4 deg.C'
_cell_formula_units_Z            4
_exptl_crystal_recrystallization_method dichloromethane/acetone
loop_
_atom_site_label
_atom_site_type_symbol
_atom_site_fract_x
_atom_site_fract_y
_atom_site_fract_z
Cl1 Cl 0.44980(3) 0.46777(8) 0.21875(5)
O1 O 0.96112(8) 1.0032(2) 0.20719(13)
O2 O 0.75872(9) 0.55791(18) 0.04328(13)
O3 O 0.83911(9) 0.54035(19) -0.04846(14)
N1 N 0.82695(8) 1.05039(18) 0.14163(13)
N2 N 0.71843(8) 0.9064(2) 0.09352(13)
N3 N 0.47729(8) 0.6749(2) 0.07273(13)
N4 N 0.80405(9) 0.6345(2) 0.00128(13)
C1 C 0.78637(9) 0.9169(2) 0.08033(15)
C2 C 0.81767(10) 0.8114(2) 0.01279(15)
C3 C 0.87838(10) 0.8883(3) -0.02757(16)
C4 C 0.89829(11) 1.0790(3) 0.01630(18)
H1 H 0.9476 1.1106 0.0117
H2 H 0.8608 1.1603 -0.0319
C5 C 0.90071(10) 1.1033(3) 0.13534(18)
C6 C 0.78381(11) 1.1534(2) 0.19728(17)
H3 H 0.7740 1.2735 0.1671
H4 H 0.8104 1.1596 0.2778
C7 C 0.71039(12) 1.0467(3) 0.1700(2)
H5 H 0.7053 0.9954 0.2375
H6 H 0.6663 1.1211 0.1336
C8 C 0.64967(10) 0.8360(3) 0.00977(16)
H7 H 0.6638 0.7573 -0.0409
H8 H 0.6201 0.9337 -0.0342
C9 C 0.60177(10) 0.7349(2) 0.06410(15)
C10 C 0.52365(10) 0.7573(2) 0.02701(15)
H9 H 0.5019 0.8341 -0.0332
C11 C 0.51021(11) 0.5667(2) 0.15666(16)
C12 C 0.58698(11) 0.5291(2) 0.19936(16)
H10 H 0.6067 0.4483 0.2579
C13 C 0.63293(10) 0.6162(3) 0.15160(16)
H11 H 0.6852 0.5956 0.1780
C14 C 0.85581(13) 0.8881(3) -0.15567(18)
H12 H 0.8440 0.7685 -0.1834
H13 H 0.8973 0.9331 -0.1766
H14 H 0.8119 0.9627 -0.1875
C15 C 0.97899(14) 1.0447(4) 0.3227(2)
H15 H 0.9814 1.1720 0.3324
H16 H 1.0274 0.9933 0.3650
H17 H 0.9403 0.9971 0.3490
H18 H 0.9202(11) 0.815(2) 0.0012(15)
H19 H 0.9055(11) 1.232(3) 0.1568(17)
O4 O 0.69059(13) 0.2395(2) 0.92363(19)
H20 H 0.6466(17) 0.288(7) 0.920(4)
H21 H 0.7265(16) 0.321(4) 0.950(3)
loop_
_geom_bond_atom_site_label_1
_geom_bond_atom_site_label_2
_geom_bond_site_symmetry_1
_geom_bond_site_symmetry_2
Cl1 C11 1_555 1_555
O1 C5 1_555 1_555
O2 N4 1_555 1_555
O3 N4 1_555 1_555
O4 H20 1_555 1_555
N1 C1 1_555 1_555
N2 C1 1_555 1_555
N3 C10 1_555 1_555
N4 C2 1_555 1_555
C1 C2 1_555 1_555
C2 C3 1_555 1_555
C3 C4 1_555 1_555
C4 H1 1_555 1_555
H2 C4 1_555 1_555
C5 N1 1_555 1_555
C6 N1 1_555 1_555
H3 C6 1_555 1_555
H4 C6 1_555 1_555
C7 N2 1_555 1_555
H5 C7 1_555 1_555
H6 C7 1_555 1_555
C8 N2 1_555 1_555
H7 C8 1_555 1_555
H8 C8 1_555 1_555
C9 C8 1_555 1_555
C10 C9 1_555 1_555
H9 C10 1_555 1_555
C11 N3 1_555 1_555
C12 C11 1_555 1_555
H10 C12 1_555 1_555
C13 C9 1_555 1_555
H11 C13 1_555 1_555
C14 C3 1_555 1_555
H12 C14 1_555 1_555
H13 C14 1_555 1_555
H14 C14 1_555 1_555
C15 O1 1_555 1_555
H15 C15 1_555 1_555
H16 C15 1_555 1_555
H17 C15 1_555 1_555
H18 C3 1_555 1_555
H19 C5 1_555 1_555
H21 O4 1_555 1_555
C4 C5 1_555 1_555
C6 C7 1_555 1_555
C12 C13 1_555 1_555

#END
