
#######################################################################
#
#                 Cambridge Crystallographic Data Centre
#                                CCDC 
#
#######################################################################
#
# If this CIF has been generated from an entry in the Cambridge 
# Structural Database, then it will include bibliographic, chemical, 
# crystal, experimental, refinement or atomic coordinate data resulting 
# from the CCDC's data processing and validation procedures.
#
#######################################################################

data_HOVCAW
_chemical_formula_moiety         'C24 H54 N8'
_chemical_name_systematic        
4,7,13,16,21,24-Hexamethyl-1,4,7,10,13,16,21,24-octa-azabicyclo(8.8.8)hexacosane
_symmetry_cell_setting           rhombohedral
_symmetry_space_group_name_H-M   'R 3'
_symmetry_Int_Tables_number      146
_space_group_name_Hall           'R 3'
loop_
_symmetry_equiv_pos_site_id
_symmetry_equiv_pos_as_xyz
1 x,y,z
2 -y,x-y,z
3 -x+y,-x,z
4 2/3+x,1/3+y,1/3+z
5 2/3-y,1/3+x-y,1/3+z
6 2/3-x+y,1/3-x,1/3+z
7 1/3+x,2/3+y,2/3+z
8 1/3-y,2/3+x-y,2/3+z
9 1/3-x+y,2/3-x,2/3+z
_cell_length_a                   14.555(2)
_cell_length_b                   14.555(2)
_cell_length_c                   11.446(2)
_cell_angle_alpha                90
_cell_angle_beta                 90
_cell_angle_gamma                120.00
_cell_volume                     2099.95
_cell_formula_units_Z            3
loop_
_atom_site_label
_atom_site_type_symbol
_atom_site_fract_x
_atom_site_fract_y
_atom_site_fract_z
N1 N 0.0000 0.0000 0.1375(4)
C1 C 0.0863(6) 0.1044(5) 0.0969(5)
H1 H 0.0734(6) 0.1596(5) 0.1257(5)
H2 H 0.0856(6) 0.1063(5) 0.0122(5)
C2 C 0.1989(5) 0.1278(7) 0.1394(7)
H3 H 0.2217(5) 0.0878(7) 0.0917(7)
H4 H 0.2494(5) 0.2026(7) 0.1286(7)
N2 N 0.1992(2) 0.0989(3) 0.2680(2)
C5 C 0.1656(5) 0.1761(5) 0.3337(6)
H5 H 0.2115(5) 0.2489(5) 0.3092(6)
H6 H 0.0931(5) 0.1558(5) 0.3140(6)
C6 C 0.1758(5) 0.1662(5) 0.4651(5)
H7 H 0.2489(5) 0.2116(5) 0.4890(5)
H8 H 0.1550(5) 0.0935(5) 0.4847(5)
N3 N 0.0996(3) 0.2010(3) 0.5329(2)
C9 C 0.0629(5) 0.1938(6) 0.6585(5)
H9 H 0.1247(5) 0.2219(6) 0.7090(5)
H10 H 0.0321(5) 0.2391(6) 0.6671(5)
C10 C -0.0152(5) 0.0862(5) 0.6999(5)
H11 H -0.0154(5) 0.0874(5) 0.7846(5)
H12 H -0.0849(5) 0.0708(5) 0.6740(5)
N4 N 0.0000 0.0000 0.6635(4)
C13 C 0.3098(4) 0.1580(4) 0.2960(4)
H13 H 0.3430(4) 0.1178(4) 0.2742(4)
H14 H 0.3181(4) 0.1717(4) 0.3785(4)
H15 H 0.3423(4) 0.2240(4) 0.2542(4)
C14 C 0.1566(4) 0.3086(4) 0.5031(4)
H16 H 0.1186(4) 0.3429(4) 0.5293(4)
H17 H 0.1652(4) 0.3156(4) 0.4199(4)
H18 H 0.2250(4) 0.3410(4) 0.5398(4)
C10B C 0.1014(7) 0.0152(5) 0.6999(5)
C9B C 0.1309(8) -0.0629(5) 0.6585(5)
N3B N 0.1014(4) -0.0996(3) 0.5329(2)
C6B C -0.0096(7) -0.1758(5) 0.4651(5)
C5B C 0.0105(7) -0.1656(5) 0.3337(6)
N2B N -0.1003(4) -0.1992(2) 0.2680(2)
C2B C -0.0711(9) -0.1989(5) 0.1394(7)
C1B C 0.0181(8) -0.0863(6) 0.0969(5)
C1A C -0.1044(5) -0.0181(8) 0.0969(5)
H1A H -0.1596(5) -0.0862(8) 0.1257(5)
H2A H -0.1063(5) -0.0207(8) 0.0122(5)
C2A C -0.1278(7) 0.0711(9) 0.1394(7)
H3A H -0.0878(7) 0.1339(9) 0.0917(7)
H4A H -0.2026(7) 0.0468(9) 0.1286(7)
N2A N -0.0989(3) 0.1003(4) 0.2680(2)
C5A C -0.1761(5) -0.0105(7) 0.3337(6)
H5A H -0.2489(5) -0.0374(7) 0.3092(6)
H6A H -0.1558(5) -0.0627(7) 0.3140(6)
C6A C -0.1662(5) 0.0096(7) 0.4651(5)
H7A H -0.2116(5) 0.0373(7) 0.4890(5)
H8A H -0.0935(5) 0.0615(7) 0.4847(5)
N3A N -0.2010(3) -0.1014(4) 0.5329(2)
C9A C -0.1938(6) -0.1309(8) 0.6585(5)
H9A H -0.2219(6) -0.0972(8) 0.7090(5)
H10A H -0.2391(6) -0.2070(8) 0.6671(5)
C10A C -0.0862(5) -0.1014(7) 0.6999(5)
H11A H -0.0874(5) -0.1028(7) 0.7846(5)
H12A H -0.0708(5) -0.1557(7) 0.6740(5)
C14A C -0.3086(4) -0.1520(6) 0.5031(4)
H16A H -0.3429(4) -0.2243(6) 0.5293(4)
H17A H -0.3156(4) -0.1504(6) 0.4199(4)
H18A H -0.3410(4) -0.1160(6) 0.5398(4)
C13A C -0.1580(4) 0.1518(6) 0.2960(4)
H13A H -0.1178(4) 0.2252(6) 0.2742(4)
H14A H -0.1717(4) 0.1464(6) 0.3785(4)
H15A H -0.2240(4) 0.1183(6) 0.2542(4)
H1B H 0.0862(8) -0.0734(6) 0.1257(5)
H2B H 0.0207(8) -0.0856(6) 0.0122(5)
H3B H -0.1339(9) -0.2217(5) 0.0917(7)
H4B H -0.0468(9) -0.2494(5) 0.1286(7)
C13B C -0.1518(6) -0.3098(4) 0.2960(4)
H13B H -0.2252(6) -0.3430(4) 0.2742(4)
H14B H -0.1464(6) -0.3181(4) 0.3785(4)
H15B H -0.1183(6) -0.3423(4) 0.2542(4)
H5B H 0.0374(7) -0.2115(5) 0.3092(6)
H6B H 0.0627(7) -0.0931(5) 0.3140(6)
H7B H -0.0373(7) -0.2489(5) 0.4890(5)
H8B H -0.0615(7) -0.1550(5) 0.4847(5)
C14B C 0.1520(6) -0.1566(4) 0.5031(4)
H16B H 0.2243(6) -0.1186(4) 0.5293(4)
H17B H 0.1504(6) -0.1652(4) 0.4199(4)
H18B H 0.1160(6) -0.2250(4) 0.5398(4)
H9B H 0.0972(8) -0.1247(5) 0.7090(5)
H10B H 0.2070(8) -0.0321(5) 0.6671(5)
H11B H 0.1028(7) 0.0154(5) 0.7846(5)
H12B H 0.1557(7) 0.0849(5) 0.6740(5)
C3? C 0.0159(5) 0.1019(5) 0.0958(5)
C4? C 0.1960(5) 0.0661(7) 0.1396(6)
C7? C 0.1666(5) -0.0097(6) 0.3330(6)
C8? C 0.1755(4) 0.0090(5) 0.4663(6)
C11? C 0.0674(7) -0.1283(7) 0.6576(6)
C12? C 0.1036(5) 0.0864(5) 0.7003(4)
loop_
_geom_bond_atom_site_label_1
_geom_bond_atom_site_label_2
_geom_bond_site_symmetry_1
_geom_bond_site_symmetry_2
N1 C1 1_555 1_555
C1 H1 1_555 1_555
H2 C1 1_555 1_555
C2 C1 1_555 1_555
H3 C2 1_555 1_555
H4 C2 1_555 1_555
N2 C2 1_555 1_555
C5 N2 1_555 1_555
H5 C5 1_555 1_555
H6 C5 1_555 1_555
C6 C5 1_555 1_555
H7 C6 1_555 1_555
H8 C6 1_555 1_555
N3 C6 1_555 1_555
C9 N3 1_555 1_555
H9 C9 1_555 1_555
H10 C9 1_555 1_555
C10 C9 1_555 1_555
H11 C10 1_555 1_555
H12 C10 1_555 1_555
N4 C10 1_555 1_555
C13 N2 1_555 1_555
H13 C13 1_555 1_555
H14 C13 1_555 1_555
H15 C13 1_555 1_555
C14 N3 1_555 1_555
H16 C14 1_555 1_555
H17 C14 1_555 1_555
H18 C14 1_555 1_555
C10B N4 1_555 1_555
C9B C10B 1_555 1_555
N3B C9B 1_555 1_555
C6B N3B 1_555 1_555
C5B C6B 1_555 1_555
N2B C5B 1_555 1_555
C2B N2B 1_555 1_555
C1B N1 1_555 1_555
C1A N1 1_555 1_555
H1A C1A 1_555 1_555
H2A C1A 1_555 1_555
C2A C1A 1_555 1_555
H3A C2A 1_555 1_555
H4A C2A 1_555 1_555
N2A C2A 1_555 1_555
C5A N2A 1_555 1_555
H5A C5A 1_555 1_555
H6A C5A 1_555 1_555
C6A C5A 1_555 1_555
H7A C6A 1_555 1_555
H8A C6A 1_555 1_555
N3A C6A 1_555 1_555
C9A N3A 1_555 1_555
H9A C9A 1_555 1_555
H10A C9A 1_555 1_555
C10A N4 1_555 1_555
H11A C10A 1_555 1_555
H12A C10A 1_555 1_555
C14A N3A 1_555 1_555
H16A C14A 1_555 1_555
H17A C14A 1_555 1_555
H18A C14A 1_555 1_555
C13A N2A 1_555 1_555
H13A C13A 1_555 1_555
H14A C13A 1_555 1_555
H15A C13A 1_555 1_555
H1B C1B 1_555 1_555
H2B C1B 1_555 1_555
H3B C2B 1_555 1_555
H4B C2B 1_555 1_555
C13B N2B 1_555 1_555
H13B C13B 1_555 1_555
H14B C13B 1_555 1_555
H15B C13B 1_555 1_555
H5B C5B 1_555 1_555
H6B C5B 1_555 1_555
H7B C6B 1_555 1_555
H8B C6B 1_555 1_555
C14B N3B 1_555 1_555
H16B C14B 1_555 1_555
H17B C14B 1_555 1_555
H18B C14B 1_555 1_555
H9B C9B 1_555 1_555
H10B C9B 1_555 1_555
H11B C10B 1_555 1_555
H12B C10B 1_555 1_555
C2B C1B 1_555 1_555
C9A C10A 1_555 1_555

#END
