
#######################################################################
#
#                 Cambridge Crystallographic Data Centre
#                                CCDC 
#
#######################################################################
#
# If this CIF has been generated from an entry in the Cambridge 
# Structural Database, then it will include bibliographic, chemical, 
# crystal, experimental, refinement or atomic coordinate data resulting 
# from the CCDC's data processing and validation procedures.
#
#######################################################################

data_HOVDAY
_chemical_name_common            
"bis((-)-13aS-Tetrahydroberberine) (+)-O,O'-bis(p-toluyl)tartaric acid"
_chemical_formula_moiety         '2(C20 H21 N1 O4),C20 H18 O8'
_chemical_name_systematic        
'bis((-)-5,8,13,13a-Tetrahydro-9,10-dimethoxy-2,3-methylenedioxy-6H-dibenzo(a,g)quinolizine) (+)-2,3-bis(((4-methylphenyl)carbonyl)oxy)butanedioic acid'
_symmetry_cell_setting           triclinic
_symmetry_space_group_name_H-M   'P 1'
_symmetry_Int_Tables_number      1
_space_group_name_Hall           'P 1'
loop_
_symmetry_equiv_pos_site_id
_symmetry_equiv_pos_as_xyz
1 x,y,z
_cell_length_a                   8.206(7)
_cell_length_b                   12.1472(9)
_cell_length_c                   14.4570(11)
_cell_angle_alpha                105.296(12)
_cell_angle_beta                 105.248(12)
_cell_angle_gamma                92.646(13)
_cell_volume                     1330.71
_exptl_crystal_colour            colorless
_exptl_crystal_description       block
_chemical_melting_point          '158-159 deg.C'
_cell_formula_units_Z            1
_exptl_crystal_recrystallization_method methanol
loop_
_atom_site_label
_atom_site_type_symbol
_atom_site_fract_x
_atom_site_fract_y
_atom_site_fract_z
O1 O 0.251(5) 0.116(4) -0.103(2)
O2 O 0.528(5) 0.117(3) -0.014(2)
O3 O 0.340(3) 0.1093(19) 0.6346(16)
O4 O 0.640(3) 0.204(3) 0.7657(18)
N1 N 0.234(3) 0.106(2) 0.3330(18)
C1 C 0.416(9) 0.119(6) -0.107(4)
H1 H 0.4484 0.1877 -0.1226
H2 H 0.4258 0.0528 -0.1590
C2 C 0.257(6) 0.110(4) -0.009(3)
C3 C 0.128(6) 0.102(4) 0.031(3)
H3 H 0.0166 0.1018 -0.0061
C4 C 0.167(5) 0.096(3) 0.130(2)
C5 C 0.024(5) 0.083(4) 0.173(3)
H4 H -0.0690 0.0307 0.1230
H5 H -0.0161 0.1575 0.1923
C6 C 0.077(4) 0.040(3) 0.263(3)
H6 H -0.0126 0.0456 0.2965
H7 H 0.0928 -0.0409 0.2424
C7 C 0.269(4) 0.080(3) 0.429(2)
H8 H 0.2695 -0.0022 0.4178
H9 H 0.1787 0.1028 0.4591
C8 C 0.436(4) 0.140(3) 0.500(2)
C9 C 0.467(4) 0.151(3) 0.602(2)
C10 C 0.623(4) 0.199(3) 0.668(2)
C11 C 0.747(5) 0.239(3) 0.634(3)
H10 H 0.8534 0.2708 0.6788
C12 C 0.716(4) 0.232(3) 0.534(3)
H11 H 0.8008 0.2612 0.5117
C13 C 0.561(4) 0.183(3) 0.466(2)
C14 C 0.525(4) 0.183(3) 0.359(2)
H12 H 0.6268 0.1682 0.3377
H13 H 0.4982 0.2582 0.3534
C15 C 0.379(4) 0.093(3) 0.290(2)
H14 H 0.4143 0.0166 0.2905
C16 C 0.333(4) 0.099(3) 0.184(2)
C17 C 0.464(5) 0.105(4) 0.140(3)
H15 H 0.5760 0.1040 0.1747
C18 C 0.422(6) 0.111(4) 0.044(3)
C19 C 0.253(5) 0.199(3) 0.678(3)
H16 H 0.3343 0.2584 0.7281
H17 H 0.1764 0.1683 0.7074
H18 H 0.1899 0.2298 0.6266
C20 C 0.804(6) 0.228(6) 0.832(3)
H19 H 0.8743 0.1731 0.8073
H20 H 0.7991 0.2236 0.8965
H21 H 0.8515 0.3040 0.8376
O5 O 0.528(5) 0.861(3) 0.834(2)
O6 O 0.805(5) 0.860(3) 0.922(2)
O7 O 0.423(3) 0.785(2) 0.0568(18)
O8 O 0.725(3) 0.868(2) 0.1877(16)
N2 N 0.818(3) 0.871(2) 0.4878(18)
C21 C 0.632(8) 0.845(6) 0.923(4)
H22 H 0.6033 0.7685 0.9270
H23 H 0.6154 0.9007 0.9807
C22 C 0.799(6) 0.871(4) 0.830(3)
C23 C 0.928(6) 0.880(4) 0.790(3)
H24 H 1.0394 0.8811 0.8270
C24 C 0.890(5) 0.889(3) 0.692(3)
C25 C 1.031(5) 0.892(4) 0.646(3)
H25 H 1.0631 0.8157 0.6258
H26 H 1.1294 0.9415 0.6947
C26 C 0.983(4) 0.936(3) 0.556(3)
H27 H 0.9715 1.0178 0.5770
H28 H 1.0704 0.9267 0.5220
C27 C 0.790(4) 0.902(3) 0.393(2)
H29 H 0.8792 0.8763 0.3626
H30 H 0.7966 0.9846 0.4067
C28 C 0.621(4) 0.847(3) 0.322(2)
C29 C 0.595(4) 0.835(3) 0.221(2)
C30 C 0.437(4) 0.792(3) 0.154(2)
C31 C 0.308(4) 0.760(3) 0.189(3)
H31 H 0.2008 0.7324 0.1444
C32 C 0.335(4) 0.768(3) 0.288(3)
H32 H 0.2470 0.7434 0.3102
C33 C 0.491(4) 0.812(3) 0.356(2)
C34 C 0.522(4) 0.818(3) 0.465(2)
H33 H 0.5342 0.7412 0.4719
H34 H 0.4232 0.8425 0.4857
C35 C 0.678(4) 0.898(3) 0.533(2)
H35 H 0.6561 0.9774 0.5350
C36 C 0.723(5) 0.888(3) 0.639(3)
C37 C 0.592(5) 0.882(3) 0.683(3)
H36 H 0.4800 0.8843 0.6487
C38 C 0.635(6) 0.871(4) 0.777(3)
C39 C 0.259(6) 0.770(6) -0.009(3)
H37 H 0.2006 0.6975 -0.0148
H38 H 0.2671 0.7722 -0.0738
H39 H 0.1972 0.8310 0.0158
C40 C 0.804(5) 0.774(4) 0.145(3)
H40 H 0.8608 0.7403 0.1955
H41 H 0.8848 0.8000 0.1154
H42 H 0.7184 0.7172 0.0937
O9 O 0.135(4) 0.432(3) 0.615(2)
O10 O 0.172(3) 0.518(2) 0.5030(17)
O11 O 0.189(3) 0.317(2) 0.399(2)
O12 O -0.089(4) 0.263(3) 0.355(3)
O13 O -0.131(4) 0.495(4) 0.163(2)
O14 O 0.075(3) 0.494(2) 0.2964(17)
O15 O -0.154(3) 0.660(2) 0.447(2)
O16 O 0.032(4) 0.712(2) 0.378(2)
C41 C 0.944(7) 0.586(5) 0.775(5)
H43 H 0.9662 0.6103 0.8462
H44 H 0.9931 0.6450 0.7537
H45 H 0.9925 0.5164 0.7552
C42 C 0.756(6) 0.565(4) 0.727(3)
C43 C 0.691(6) 0.571(4) 0.631(3)
H46 H 0.7642 0.5895 0.5966
C44 C 0.518(5) 0.548(3) 0.585(3)
H47 H 0.4757 0.5517 0.5193
C45 C 0.409(5) 0.521(3) 0.635(3)
C46 C 0.475(6) 0.518(5) 0.732(3)
H48 H 0.4027 0.4997 0.7669
C47 C 0.645(7) 0.541(5) 0.776(4)
H49 H 0.6877 0.5401 0.8419
C48 C 0.228(5) 0.487(3) 0.586(3)
C49 C 0.014(4) 0.457(3) 0.437(3)
H50 H -0.0710 0.4603 0.4738
C50 C 0.037(4) 0.331(3) 0.393(3)
C51 C -0.042(4) 0.511(3) 0.356(3)
H51 H -0.1556 0.4734 0.3134
C52 C -0.051(4) 0.639(3) 0.396(3)
C53 C 0.014(5) 0.484(4) 0.200(3)
C54 C 0.144(5) 0.466(3) 0.147(3)
C55 C 0.308(5) 0.458(4) 0.192(3)
H52 H 0.3409 0.4595 0.2593
C56 C 0.425(6) 0.449(5) 0.139(3)
H53 H 0.5378 0.4448 0.1711
C57 C 0.381(6) 0.445(4) 0.040(3)
C58 C 0.216(6) 0.448(4) -0.005(3)
H54 H 0.1819 0.4422 -0.0730
C59 C 0.098(6) 0.459(4) 0.046(3)
H55 H -0.0144 0.4621 0.0137
C60 C 0.511(7) 0.442(6) -0.016(4)
H56 H 0.4595 0.4016 -0.0849
H57 H 0.6021 0.4019 0.0117
H58 H 0.5555 0.5185 -0.0092
loop_
_geom_bond_atom_site_label_1
_geom_bond_atom_site_label_2
_geom_bond_site_symmetry_1
_geom_bond_site_symmetry_2
O1 C1 1_555 1_555
O2 C1 1_555 1_555
O3 C9 1_555 1_555
O4 C10 1_555 1_555
N1 C6 1_555 1_555
C1 H1 1_555 1_555
H2 C1 1_555 1_555
C2 O1 1_555 1_555
C3 C2 1_555 1_555
H3 C3 1_555 1_555
C4 C3 1_555 1_555
C5 C4 1_555 1_555
H4 C5 1_555 1_555
H5 C5 1_555 1_555
C6 C5 1_555 1_555
H6 C6 1_555 1_555
H7 C6 1_555 1_555
C7 N1 1_555 1_555
H8 C7 1_555 1_555
H9 C7 1_555 1_555
C8 C7 1_555 1_555
C9 C8 1_555 1_555
C10 C9 1_555 1_555
C11 C10 1_555 1_555
H10 C11 1_555 1_555
C12 C11 1_555 1_555
H11 C12 1_555 1_555
C13 C8 1_555 1_555
C14 C13 1_555 1_555
H12 C14 1_555 1_555
H13 C14 1_555 1_555
C15 N1 1_555 1_555
H14 C15 1_555 1_555
C16 C4 1_555 1_555
C17 C16 1_555 1_555
H15 C17 1_555 1_555
C18 O2 1_555 1_555
C19 O3 1_555 1_555
H16 C19 1_555 1_555
H17 C19 1_555 1_555
H18 C19 1_555 1_555
C20 O4 1_555 1_555
H19 C20 1_555 1_555
H20 C20 1_555 1_555
H21 C20 1_555 1_555
O5 C21 1_555 1_555
O6 C21 1_555 1_555
O7 C30 1_555 1_555
O8 C29 1_555 1_555
N2 C26 1_555 1_555
C21 H22 1_555 1_555
H23 C21 1_555 1_555
C22 O6 1_555 1_555
C23 C22 1_555 1_555
H24 C23 1_555 1_555
C24 C23 1_555 1_555
C25 C24 1_555 1_555
H25 C25 1_555 1_555
H26 C25 1_555 1_555
C26 C25 1_555 1_555
H27 C26 1_555 1_555
H28 C26 1_555 1_555
C27 N2 1_555 1_555
H29 C27 1_555 1_555
H30 C27 1_555 1_555
C28 C27 1_555 1_555
C29 C28 1_555 1_555
C30 C29 1_555 1_555
C31 C30 1_555 1_555
H31 C31 1_555 1_555
C32 C31 1_555 1_555
H32 C32 1_555 1_555
C33 C28 1_555 1_555
C34 C33 1_555 1_555
H33 C34 1_555 1_555
H34 C34 1_555 1_555
C35 N2 1_555 1_555
H35 C35 1_555 1_555
C36 C24 1_555 1_555
C37 C36 1_555 1_555
H36 C37 1_555 1_555
C38 O5 1_555 1_555
C39 O7 1_555 1_555
H37 C39 1_555 1_555
H38 C39 1_555 1_555
H39 C39 1_555 1_555
C40 O8 1_555 1_555
H40 C40 1_555 1_555
H41 C40 1_555 1_555
H42 C40 1_555 1_555
O9 C48 1_555 1_555
O10 C48 1_555 1_555
O11 C50 1_555 1_555
O12 C50 1_555 1_555
O13 C53 1_555 1_555
O14 C51 1_555 1_555
O15 C52 1_555 1_555
O16 C52 1_555 1_555
C41 H43 1_555 1_555
H44 C41 1_555 1_555
H45 C41 1_555 1_555
C42 C41 1_555 1_555
C43 C42 1_555 1_555
H46 C43 1_555 1_555
C44 C43 1_555 1_555
H47 C44 1_555 1_555
C45 C44 1_555 1_555
C46 C45 1_555 1_555
H48 C46 1_555 1_555
C47 C42 1_555 1_555
H49 C47 1_555 1_555
C48 C45 1_555 1_555
C49 O10 1_555 1_555
H50 C49 1_555 1_555
C50 C49 1_555 1_555
C51 C49 1_555 1_555
H51 C51 1_555 1_555
C52 C51 1_555 1_555
C53 O14 1_555 1_555
C54 C53 1_555 1_555
C55 C54 1_555 1_555
H52 C55 1_555 1_555
C56 C55 1_555 1_555
H53 C56 1_555 1_555
C57 C56 1_555 1_555
C58 C57 1_555 1_555
H54 C58 1_555 1_555
C59 C54 1_555 1_555
H55 C59 1_555 1_555
C60 C57 1_555 1_555
H56 C60 1_555 1_555
H57 C60 1_555 1_555
H58 C60 1_555 1_555
C2 C18 1_555 1_555
C12 C13 1_555 1_555
C14 C15 1_555 1_555
C15 C16 1_555 1_555
C17 C18 1_555 1_555
C22 C38 1_555 1_555
C32 C33 1_555 1_555
C34 C35 1_555 1_555
C35 C36 1_555 1_555
C37 C38 1_555 1_555
C46 C47 1_555 1_555
C58 C59 1_555 1_555

#END
