
#######################################################################
#
#                 Cambridge Crystallographic Data Centre
#                                CCDC 
#
#######################################################################
#
# If this CIF has been generated from an entry in the Cambridge 
# Structural Database, then it will include bibliographic, chemical, 
# crystal, experimental, refinement or atomic coordinate data resulting 
# from the CCDC's data processing and validation procedures.
#
#######################################################################

data_HOVRIT
_chemical_formula_moiety         'C16 H18 N2 O4 S1'
_chemical_name_systematic        
(E)-((((5-Nitrothien-2-yl)methylene)phenylmethyl)(hydroxyethyl)amino)ethanol
_symmetry_cell_setting           monoclinic
_symmetry_space_group_name_H-M   'P 21/c'
_symmetry_Int_Tables_number      14
_space_group_name_Hall           '-P 2ybc'
loop_
_symmetry_equiv_pos_site_id
_symmetry_equiv_pos_as_xyz
1 x,y,z
2 -x,1/2+y,1/2-z
3 -x,-y,-z
4 x,1/2-y,1/2+z
_cell_length_a                   9.018(2)
_cell_length_b                   22.322(3)
_cell_length_c                   9.0703(8)
_cell_angle_alpha                90
_cell_angle_beta                 118.99(1)
_cell_angle_gamma                90
_cell_volume                     1597.08
_exptl_crystal_colour            'dark purple'
_chemical_melting_point          124-125deg.C
_cell_formula_units_Z            4
_exptl_crystal_recrystallization_method dichloromethane/hexane
loop_
_atom_site_label
_atom_site_type_symbol
_atom_site_fract_x
_atom_site_fract_y
_atom_site_fract_z
S1 S 0.9135(1) 0.01712(4) 0.2367(2)
O1 O 1.1877(3) -0.1257(1) 0.3460(4)
O2 O 1.2263(4) -0.0353(1) 0.2794(4)
O3 O 0.3219(4) 0.2883(1) 0.1563(4)
O4 O 0.4608(3) 0.1370(1) 0.5097(4)
N1 N 0.4451(4) 0.1300(1) 0.1787(4)
N2 N 1.1380(4) -0.0727(2) 0.3022(4)
C1 C 0.5771(4) 0.0985(2) 0.1842(5)
C2 C 0.5930(5) 0.0378(2) 0.2126(5)
C3 C 0.7271(4) -0.0010(2) 0.2375(5)
C4 C 0.7245(5) -0.0624(2) 0.2696(5)
C5 C 0.8673(5) -0.0932(2) 0.2958(5)
C6 C 0.9809(5) -0.0561(2) 0.2822(5)
C7 C 0.3977(5) 0.1899(2) 0.1028(6)
C8 C 0.4199(6) 0.2373(2) 0.2321(6)
C9 C 0.3212(5) 0.1016(2) 0.2189(6)
C10 C 0.3898(5) 0.0866(2) 0.4021(7)
C11 C 0.7077(4) 0.1341(2) 0.1681(5)
C12 C 0.7198(5) 0.1346(2) 0.0220(5)
C13 C 0.8393(5) 0.1701(2) 0.0097(5)
C14 C 0.9496(5) 0.2037(2) 0.1444(6)
C15 C 0.9413(5) 0.2025(2) 0.2910(6)
C16 C 0.8203(5) 0.1685(2) 0.3039(5)
H1 H 0.364 0.308 0.104
H2 H 0.569 0.137 0.559
H3 H 0.493 0.019 0.212
H4 H 0.625 -0.081 0.272
H5 H 0.882 -0.137 0.320
H6 H 0.469 0.201 0.050
H7 H 0.277 0.191 0.011
H8 H 0.542 0.248 0.300
H9 H 0.386 0.220 0.314
H10 H 0.223 0.129 0.186
H11 H 0.277 0.064 0.150
H12 H 0.479 0.055 0.435
H13 H 0.299 0.069 0.423
H14 H 0.639 0.109 -0.074
H15 H 0.842 0.170 -0.099
H16 H 1.037 0.229 0.137
H17 H 1.025 0.226 0.389
H18 H 0.812 0.168 0.410
loop_
_geom_bond_atom_site_label_1
_geom_bond_atom_site_label_2
_geom_bond_site_symmetry_1
_geom_bond_site_symmetry_2
S1 C3 1_555 1_555
O1 N2 1_555 1_555
O2 N2 1_555 1_555
O3 C8 1_555 1_555
O4 C10 1_555 1_555
N1 C1 1_555 1_555
N2 C6 1_555 1_555
C1 C2 1_555 1_555
C2 C3 1_555 1_555
C3 C4 1_555 1_555
C4 C5 1_555 1_555
C5 C6 1_555 1_555
C6 S1 1_555 1_555
C7 N1 1_555 1_555
C8 C7 1_555 1_555
C9 N1 1_555 1_555
C10 C9 1_555 1_555
C11 C1 1_555 1_555
C12 C11 1_555 1_555
C13 C12 1_555 1_555
C14 C13 1_555 1_555
C15 C14 1_555 1_555
C16 C11 1_555 1_555
H1 O3 1_555 1_555
H2 O4 1_555 1_555
H3 C2 1_555 1_555
H4 C4 1_555 1_555
H5 C5 1_555 1_555
H6 C7 1_555 1_555
H7 C7 1_555 1_555
H8 C8 1_555 1_555
H9 C8 1_555 1_555
H10 C9 1_555 1_555
H11 C9 1_555 1_555
H12 C10 1_555 1_555
H13 C10 1_555 1_555
H14 C12 1_555 1_555
H15 C13 1_555 1_555
H16 C14 1_555 1_555
H17 C15 1_555 1_555
H18 C16 1_555 1_555
C15 C16 1_555 1_555

#END
