
#######################################################################
#
#                 Cambridge Crystallographic Data Centre
#                                CCDC 
#
#######################################################################
#
# If this CIF has been generated from an entry in the Cambridge 
# Structural Database, then it will include bibliographic, chemical, 
# crystal, experimental, refinement or atomic coordinate data resulting 
# from the CCDC's data processing and validation procedures.
#
#######################################################################

data_HOWGEG
_chemical_name_common            
2-Benzoyl-6-(pentafluorobenzoyl)dithieno[2,3-b:3',2'-d]thiophene
_chemical_formula_moiety         'C22 H7 F5 O2 S3'
_chemical_name_systematic        
(6-benzoyl-7H-cyclopenta[b]thieno[2,3-d]thiophen-2-yl)(pentafluorophenyl)methanone
_symmetry_cell_setting           monoclinic
_symmetry_space_group_name_H-M   'P 21/c'
_symmetry_Int_Tables_number      14
_space_group_name_Hall           '-P 2ybc'
loop_
_symmetry_equiv_pos_site_id
_symmetry_equiv_pos_as_xyz
1 x,y,z
2 -x,1/2+y,1/2-z
3 -x,-y,-z
4 x,1/2-y,1/2+z
_cell_length_a                   6.2481(3)
_cell_length_b                   40.288(2)
_cell_length_c                   7.7740(4)
_cell_angle_alpha                90
_cell_angle_beta                 107.7950(12)
_cell_angle_gamma                90
_cell_volume                     1863.27
_exptl_crystal_colour            yellow
_exptl_crystal_description       needle
_cell_formula_units_Z            4
_exptl_crystal_recrystallization_method 'gradient sublimation'
loop_
_atom_site_label
_atom_site_type_symbol
_atom_site_fract_x
_atom_site_fract_y
_atom_site_fract_z
S1 S 0.95667(9) 0.259183(13) 0.08846(9)
S2 S 0.38417(9) 0.212055(13) 0.13712(10)
S3 S 0.94678(8) 0.162981(13) 0.08108(8)
O1 O 1.0630(3) 0.32570(4) 0.1190(3)
O2 O 1.0179(2) 0.09252(4) 0.0960(2)
C1 C 0.7730(3) 0.28991(5) 0.1126(3)
C2 C 0.5777(3) 0.27724(5) 0.1320(3)
H1 H 0.4593 0.2903 0.1490
C3 C 0.5758(3) 0.24239(5) 0.1235(3)
C4 C 0.7711(3) 0.22889(5) 0.1011(3)
C5 C 0.7671(3) 0.19395(5) 0.0982(3)
C6 C 0.5675(3) 0.18118(5) 0.1146(3)
C7 C 0.5592(3) 0.14638(5) 0.1155(3)
H2 H 0.4358 0.1337 0.1266
C8 C 0.7547(3) 0.13311(5) 0.0982(3)
C9 C 0.8632(4) 0.32340(5) 0.1095(3)
C10 C 0.7259(3) 0.35393(5) 0.0947(3)
C11 C 0.8401(4) 0.38358(5) 0.1491(3)
H3 H 0.9989 0.3835 0.2010
C12 C 0.7243(4) 0.41313(6) 0.1281(3)
H4 H 0.8031 0.4333 0.1665
C13 C 0.4919(4) 0.41349(6) 0.0506(3)
H5 H 0.4124 0.4339 0.0345
C14 C 0.3773(4) 0.38419(6) -0.0025(3)
H6 H 0.2186 0.3845 -0.0549
C15 C 0.4921(3) 0.35439(5) 0.0199(3)
H7 H 0.4121 0.3342 -0.0155
C16 C 0.8298(3) 0.09900(5) 0.1036(3)
C17 C 0.6812(3) 0.07127(5) 0.1282(3)
C18 C 0.7701(3) 0.04760(5) 0.2607(3)
C19 C 0.6480(4) 0.02117(6) 0.2874(4)
C20 C 0.4303(4) 0.01693(6) 0.1761(4)
C21 C 0.3379(3) 0.03918(6) 0.0420(3)
C22 C 0.4606(3) 0.06633(5) 0.0209(3)
F1 F 0.9815(2) 0.05095(4) 0.3710(2)
F2 F 0.7364(3) -0.00074(4) 0.4187(3)
F3 F 0.3132(3) -0.00950(4) 0.1984(3)
F4 F 0.1313(2) 0.03391(4) -0.0713(2)
F5 F 0.3651(2) 0.08740(4) -0.11285(18)
loop_
_geom_bond_atom_site_label_1
_geom_bond_atom_site_label_2
_geom_bond_site_symmetry_1
_geom_bond_site_symmetry_2
S1 C1 1_555 1_555
S2 C3 1_555 1_555
S3 C5 1_555 1_555
O1 C9 1_555 1_555
O2 C16 1_555 1_555
C1 C2 1_555 1_555
C2 H1 1_555 1_555
C3 C2 1_555 1_555
C4 S1 1_555 1_555
C5 C4 1_555 1_555
C6 S2 1_555 1_555
C7 C6 1_555 1_555
H2 C7 1_555 1_555
C8 S3 1_555 1_555
C9 C1 1_555 1_555
C10 C9 1_555 1_555
C11 C10 1_555 1_555
H3 C11 1_555 1_555
C12 C11 1_555 1_555
H4 C12 1_555 1_555
C13 C12 1_555 1_555
H5 C13 1_555 1_555
C14 C13 1_555 1_555
H6 C14 1_555 1_555
C15 C10 1_555 1_555
H7 C15 1_555 1_555
C16 C8 1_555 1_555
C17 C16 1_555 1_555
C18 C17 1_555 1_555
C19 C18 1_555 1_555
C20 C19 1_555 1_555
C21 C20 1_555 1_555
C22 C17 1_555 1_555
F1 C18 1_555 1_555
F2 C19 1_555 1_555
F3 C20 1_555 1_555
F4 C21 1_555 1_555
F5 C22 1_555 1_555
C3 C4 1_555 1_555
C5 C6 1_555 1_555
C7 C8 1_555 1_555
C14 C15 1_555 1_555
C21 C22 1_555 1_555

#END
