
#######################################################################
#
#                 Cambridge Crystallographic Data Centre
#                                CCDC 
#
#######################################################################
#
# If this CIF has been generated from an entry in the Cambridge 
# Structural Database, then it will include bibliographic, chemical, 
# crystal, experimental, refinement or atomic coordinate data resulting 
# from the CCDC's data processing and validation procedures.
#
#######################################################################

data_HOWNIR
_chemical_formula_moiety         'C14 H20 N1 O1 1+,Br1 1-,C20 H14 O2'
_chemical_name_systematic        
"[N(R),3S]-2-Allyl-1,2,3,4-tetrahydro-3-(hydroxymethyl)-2-methylisoquinolinium bromide (S)-1,1'-binaphthalene-2,2'-diol"
_symmetry_cell_setting           monoclinic
_symmetry_space_group_name_H-M   'P 21'
_symmetry_Int_Tables_number      4
_space_group_name_Hall           'P 2yb'
loop_
_symmetry_equiv_pos_site_id
_symmetry_equiv_pos_as_xyz
1 x,y,z
2 -x,1/2+y,-z
_cell_length_a                   11.148(4)
_cell_length_b                   9.995(4)
_cell_length_c                   13.628(3)
_cell_angle_alpha                90
_cell_angle_beta                 107.93(3)
_cell_angle_gamma                90
_cell_volume                     1444.74
_exptl_crystal_colour            colorless
_exptl_crystal_description       block
_cell_formula_units_Z            2
_exptl_crystal_recrystallization_method ethanol
loop_
_atom_site_label
_atom_site_type_symbol
_atom_site_fract_x
_atom_site_fract_y
_atom_site_fract_z
Br1 Br 0.75291(5) 0.89272(8) 0.98465(4)
O1 O 0.9547(3) 0.8172(4) 1.2076(3)
H1 H 0.9038 0.8472 1.1552
O2 O 1.2242(4) 0.6442(4) 1.1688(2)
H2 H 1.2284 0.5792 1.1333
C1 C 1.0608(4) 0.8957(6) 1.2346(3)
C2 C 1.0565(5) 1.0303(5) 1.2037(4)
H4 H 0.9808 1.0677 1.1637
C3 C 1.1624(6) 1.1048(5) 1.2323(4)
H5 H 1.1585 1.1935 1.2109
C4 C 1.2782(5) 1.0527(5) 1.2933(4)
C5 C 1.3917(6) 1.1277(6) 1.3239(4)
H6 H 1.3899 1.2165 1.3032
C6 C 1.5032(6) 1.0746(6) 1.3825(5)
H7 H 1.5762 1.1262 1.4015
C7 C 1.5062(6) 0.9419(6) 1.4135(4)
H8 H 1.5820 0.9047 1.4534
C8 C 1.4001(5) 0.8653(5) 1.3864(4)
H9 H 1.4048 0.7770 1.4087
C9 C 1.2830(4) 0.9168(5) 1.3251(3)
C10 C 1.1722(5) 0.8393(4) 1.2946(3)
C11 C 1.1767(4) 0.6930(4) 1.3228(3)
C12 C 1.1556(4) 0.6510(5) 1.4151(3)
C13 C 1.1268(5) 0.7380(5) 1.4843(4)
H10 H 1.1209 0.8290 1.4693
C14 C 1.1068(6) 0.6956(6) 1.5734(4)
H11 H 1.0862 0.7568 1.6170
C15 C 1.1177(6) 0.5594(6) 1.5984(4)
H12 H 1.1065 0.5305 1.6599
C16 C 1.1445(5) 0.4688(6) 1.5334(4)
H13 H 1.1501 0.3785 1.5504
C17 C 1.1642(4) 0.5108(5) 1.4399(4)
C18 C 1.1939(4) 0.4212(5) 1.3718(3)
H14 H 1.2005 0.3303 1.3874
C19 C 1.2130(5) 0.4643(5) 1.2837(4)
H15 H 1.2316 0.4029 1.2392
C20 C 1.2049(4) 0.6016(5) 1.2588(3)
O3 O 0.0275(4) 0.8644(6) 0.9321(4)
H3 H -0.0330 0.8572 0.9540
N1 N 0.2983(4) 0.9246(5) 0.9497(3)
C21 C 0.4012(5) 0.9747(8) 0.9109(4)
H16 H 0.4708 0.9118 0.9305
H17 H 0.4314 1.0594 0.9441
C22 C 0.3615(5) 0.9942(7) 0.7949(4)
C23 C 0.4555(6) 0.9971(9) 0.7489(5)
H18 H 0.5385 0.9786 0.7870
C24 C 0.4245(7) 1.0279(9) 0.6453(5)
H19 H 0.4875 1.0310 0.6136
C25 C 0.3034(7) 1.0537(7) 0.5892(5)
H20 H 0.2839 1.0758 0.5197
C26 C 0.2092(7) 1.0471(6) 0.6348(4)
H21 H 0.1260 1.0629 0.5957
C27 C 0.2379(5) 1.0171(6) 0.7389(4)
C28 C 0.1347(5) 1.0038(6) 0.7892(4)
H22 H 0.0727 1.0736 0.7629
H23 H 0.0929 0.9183 0.7701
C29 C 0.1827(5) 1.0134(6) 0.9049(4)
H24 H 0.2122 1.1056 0.9205
C30 C 0.0798(6) 0.9941(9) 0.9543(5)
H25 H 0.1143 1.0056 1.0284
H26 H 0.0145 1.0607 0.9282
C31 C 0.2725(8) 0.7814(7) 0.9179(6)
H27 H 0.2549 0.7741 0.8445
H28 H 0.2011 0.7503 0.9367
H29 H 0.3449 0.7280 0.9520
C32 C 0.3412(5) 0.9335(8) 1.0684(3)
H30 H 0.3585 1.0264 1.0882
H31 H 0.2724 0.9044 1.0927
C33 C 0.4543(5) 0.8532(8) 1.1208(3)
H32 H 0.4493 0.7603 1.1189
C34 C 0.5638(5) 0.9127(8) 1.1711(3)
H33 H 0.5694 1.0055 1.1733
H34 H 0.6342 0.8611 1.2038
loop_
_geom_bond_atom_site_label_1
_geom_bond_atom_site_label_2
_geom_bond_site_symmetry_1
_geom_bond_site_symmetry_2
O1 H1 1_555 1_555
O2 H2 1_555 1_555
O3 H3 1_555 1_555
N1 C21 1_555 1_555
C1 O1 1_555 1_555
C2 C1 1_555 1_555
H4 C2 1_555 1_555
C3 C2 1_555 1_555
H5 C3 1_555 1_555
C4 C3 1_555 1_555
C5 C4 1_555 1_555
H6 C5 1_555 1_555
C6 C5 1_555 1_555
H7 C6 1_555 1_555
C7 C6 1_555 1_555
H8 C7 1_555 1_555
C8 C7 1_555 1_555
H9 C8 1_555 1_555
C9 C4 1_555 1_555
C10 C1 1_555 1_555
C11 C10 1_555 1_555
C12 C11 1_555 1_555
C13 C12 1_555 1_555
H10 C13 1_555 1_555
C14 C13 1_555 1_555
H11 C14 1_555 1_555
C15 C14 1_555 1_555
H12 C15 1_555 1_555
C16 C15 1_555 1_555
H13 C16 1_555 1_555
C17 C12 1_555 1_555
C18 C17 1_555 1_555
H14 C18 1_555 1_555
C19 C18 1_555 1_555
H15 C19 1_555 1_555
C20 O2 1_555 1_555
C21 H16 1_555 1_555
H17 C21 1_555 1_555
C22 C21 1_555 1_555
C23 C22 1_555 1_555
H18 C23 1_555 1_555
C24 C23 1_555 1_555
H19 C24 1_555 1_555
C25 C24 1_555 1_555
H20 C25 1_555 1_555
C26 C25 1_555 1_555
H21 C26 1_555 1_555
C27 C22 1_555 1_555
C28 C27 1_555 1_555
H22 C28 1_555 1_555
H23 C28 1_555 1_555
C29 N1 1_555 1_555
H24 C29 1_555 1_555
C30 O3 1_555 1_555
H25 C30 1_555 1_555
H26 C30 1_555 1_555
C31 N1 1_555 1_555
H27 C31 1_555 1_555
H28 C31 1_555 1_555
H29 C31 1_555 1_555
C32 N1 1_555 1_555
H30 C32 1_555 1_555
H31 C32 1_555 1_555
C33 C32 1_555 1_555
H32 C33 1_555 1_555
C34 C33 1_555 1_555
H33 C34 1_555 1_555
H34 C34 1_555 1_555
C8 C9 1_555 1_555
C9 C10 1_555 1_555
C11 C20 1_555 1_555
C16 C17 1_555 1_555
C19 C20 1_555 1_555
C26 C27 1_555 1_555
C28 C29 1_555 1_555
C29 C30 1_555 1_555

#END
