
#######################################################################
#
#                 Cambridge Crystallographic Data Centre
#                                CCDC 
#
#######################################################################
#
# If this CIF has been generated from an entry in the Cambridge 
# Structural Database, then it will include bibliographic, chemical, 
# crystal, experimental, refinement or atomic coordinate data resulting 
# from the CCDC's data processing and validation procedures.
#
#######################################################################

data_HOWTAQ
_chemical_formula_moiety         'C20 H15 N1 O3 S1'
_chemical_name_systematic        
3-benzoyl-1-(2-thienylmethyl)-1-azaspiro[3.5]nona-5,8-diene-2,7-dione
_symmetry_cell_setting           orthorhombic
_symmetry_space_group_name_H-M   'P n a 21'
_symmetry_Int_Tables_number      33
_space_group_name_Hall           'P 2c -2n'
loop_
_symmetry_equiv_pos_site_id
_symmetry_equiv_pos_as_xyz
1 x,y,z
2 -x,-y,1/2+z
3 1/2+x,1/2-y,z
4 1/2-x,1/2+y,1/2+z
_cell_length_a                   8.2412(4)
_cell_length_b                   12.9751(7)
_cell_length_c                   15.8747(10)
_cell_angle_alpha                90
_cell_angle_beta                 90
_cell_angle_gamma                90
_cell_volume                     1697.49
_exptl_crystal_colour            'pale yellow'
_exptl_crystal_description       block
_cell_formula_units_Z            4
loop_
_atom_site_label
_atom_site_type_symbol
_atom_site_fract_x
_atom_site_fract_y
_atom_site_fract_z
S1 S 0.25806(10) 0.69166(7) 0.45849(8)
O1 O 0.1574(3) 0.26237(19) 0.7642(2)
C1 C 0.1534(5) 0.6933(3) 1.0237(3)
H1 H 0.0917 0.7533 1.0230
C2 C 0.3360(4) 0.5141(3) 1.0261(3)
H2 H 0.3958 0.4533 1.0273
O2 O 0.1769(4) 0.8313(2) 0.6948(3)
C3 C 0.0267(4) 0.4229(3) 0.7806(2)
H3 H -0.0646 0.3929 0.8048
C4 C 0.2860(5) 0.5577(3) 1.0993(3)
H4 H 0.3130 0.5267 1.1502
C5 C 0.3086(4) 0.5095(3) 0.7067(2)
H5 H 0.3982 0.5385 0.6801
N1 N 0.1264(3) 0.6571(2) 0.6688(2)
C6 C 0.1540(5) 0.6995(3) 0.8689(3)
C7 C 0.1476(4) 0.6080(3) 0.5189(2)
C8 C 0.0290(4) 0.5240(2) 0.7689(2)
H6 H -0.0624 0.5620 0.7834
C9 C 0.1636(4) 0.3566(3) 0.7565(2)
C10 C 0.2037(4) 0.6491(3) 0.9483(3)
C11 C 0.3400(4) 0.5942(3) 0.4002(3)
H7 H 0.4139 0.6041 0.3567
C12 C 0.2982(4) 0.5598(3) 0.9493(3)
H8 H 0.3354 0.5312 0.8992
O3 O 0.0493(5) 0.7645(3) 0.8694(2)
C13 C 0.2848(6) 0.5007(3) 0.4249(3)
H9 H 0.3169 0.4397 0.3990
C14 C 0.3064(4) 0.4083(3) 0.7196(3)
H10 H 0.3968 0.3693 0.7051
C15 C 0.2371(4) 0.6739(3) 0.7868(3)
H11 H 0.3555 0.6734 0.7922
C16 C 0.1944(4) 0.6487(3) 1.0995(3)
H12 H 0.1618 0.6784 1.1501
C17 C 0.1740(4) 0.5030(3) 0.4934(3)
H13 H 0.1260 0.4455 0.5180
C18 C 0.1792(4) 0.7399(3) 0.7117(3)
C19 C 0.0427(4) 0.6460(3) 0.5887(2)
H14 H -0.0021 0.7124 0.5727
H15 H -0.0472 0.5986 0.5959
C20 C 0.1719(4) 0.5791(3) 0.7334(2)
loop_
_geom_bond_atom_site_label_1
_geom_bond_atom_site_label_2
_geom_bond_site_symmetry_1
_geom_bond_site_symmetry_2
S1 C7 1_555 1_555
O1 C9 1_555 1_555
C1 H1 1_555 1_555
C2 H2 1_555 1_555
O2 C18 1_555 1_555
C3 H3 1_555 1_555
C4 C2 1_555 1_555
H4 C4 1_555 1_555
C5 H5 1_555 1_555
N1 C18 1_555 1_555
C6 C10 1_555 1_555
C7 C17 1_555 1_555
C8 C3 1_555 1_555
H6 C8 1_555 1_555
C9 C3 1_555 1_555
C10 C1 1_555 1_555
C11 S1 1_555 1_555
H7 C11 1_555 1_555
C12 C2 1_555 1_555
H8 C12 1_555 1_555
O3 C6 1_555 1_555
C13 C11 1_555 1_555
H9 C13 1_555 1_555
C14 C5 1_555 1_555
H10 C14 1_555 1_555
C15 C6 1_555 1_555
H11 C15 1_555 1_555
C16 C1 1_555 1_555
H12 C16 1_555 1_555
C17 C13 1_555 1_555
H13 C17 1_555 1_555
C18 C15 1_555 1_555
C19 N1 1_555 1_555
H14 C19 1_555 1_555
H15 C19 1_555 1_555
C20 C5 1_555 1_555
C4 C16 1_555 1_555
N1 C20 1_555 1_555
C7 C19 1_555 1_555
C8 C20 1_555 1_555
C9 C14 1_555 1_555
C10 C12 1_555 1_555
C15 C20 1_555 1_555

#END
