
#######################################################################
#
#                 Cambridge Crystallographic Data Centre
#                                CCDC 
#
#######################################################################
#
# If this CIF has been generated from an entry in the Cambridge 
# Structural Database, then it will include bibliographic, chemical, 
# crystal, experimental, refinement or atomic coordinate data resulting 
# from the CCDC's data processing and validation procedures.
#
#######################################################################

data_HOXJIP
_chemical_formula_moiety         'C27 H45 Cl1 O1'
_chemical_name_systematic        2-chlorocholestan-3-one
_symmetry_cell_setting           monoclinic
_symmetry_space_group_name_H-M   'C 2'
_symmetry_Int_Tables_number      5
_space_group_name_Hall           'C 2y'
loop_
_symmetry_equiv_pos_site_id
_symmetry_equiv_pos_as_xyz
1 x,y,z
2 -x,y,-z
3 1/2+x,1/2+y,z
4 1/2-x,1/2+y,-z
_cell_length_a                   62.156(3)
_cell_length_b                   6.5176(3)
_cell_length_c                   18.9764(8)
_cell_angle_alpha                90
_cell_angle_beta                 101.552(3)
_cell_angle_gamma                90
_cell_volume                     7531.77
_exptl_crystal_colour            colorless
_exptl_crystal_description       needle
_cell_formula_units_Z            12
loop_
_atom_site_label
_atom_site_type_symbol
_atom_site_fract_x
_atom_site_fract_y
_atom_site_fract_z
Cl1 Cl 0.53626(6) 0.5705(7) 0.2406(2)
C1 C 0.5174(2) 0.478(2) 0.3545(9)
C2 C 0.5129(2) 0.488(2) 0.2725(8)
H1 H 0.5096 0.3448 0.2544
C3 C 0.49288(18) 0.616(2) 0.2425(6)
H2 H 0.4899 0.6079 0.1893
H3 H 0.496 0.7613 0.2562
C4 C 0.47226(18) 0.5457(17) 0.2699(5)
C5 C 0.47782(18) 0.5616(19) 0.3542(5)
H4 H 0.4814 0.7082 0.3669
C6 C 0.4980(2) 0.433(2) 0.3865(6)
H5 H 0.5018 0.4594 0.4389
H6 H 0.4942 0.2861 0.3795
C7 C 0.45836(19) 0.503(2) 0.3867(6)
H7 H 0.4624 0.5119 0.4397
H8 H 0.454 0.3597 0.3736
C8 C 0.43910(18) 0.648(2) 0.3588(5)
H9 H 0.4431 0.7886 0.376
H10 H 0.4262 0.6048 0.3787
C9 C 0.43277(16) 0.6491(18) 0.2764(5)
H11 H 0.4274 0.509 0.26
C10 C 0.45309(16) 0.6973(15) 0.2447(5)
H12 H 0.4585 0.834 0.2647
C11 C 0.46663(18) 0.3250(18) 0.2451(6)
H13 H 0.4639 0.3189 0.1925
H14 H 0.4534 0.2804 0.2618
H15 H 0.4789 0.2345 0.2652
C12 C 0.4468(2) 0.726(2) 0.1631(5)
H16 H 0.4599 0.7766 0.1458
H17 H 0.4429 0.591 0.1406
C13 C 0.42776(19) 0.875(2) 0.1372(5)
H18 H 0.4323 1.0159 0.1532
H19 H 0.424 0.8747 0.084
C14 C 0.40761(16) 0.8147(15) 0.1668(4)
C15 C 0.41455(17) 0.8028(19) 0.2488(5)
H20 H 0.4203 0.9413 0.2657
C16 C 0.39285(18) 0.775(2) 0.2731(5)
H21 H 0.394 0.8241 0.3231
H22 H 0.3883 0.6295 0.2703
C17 C 0.37640(19) 0.907(2) 0.2201(5)
H23 H 0.3718 1.0289 0.2448
H24 H 0.3632 0.8266 0.1992
C18 C 0.39866(19) 0.6060(18) 0.1335(5)
H25 H 0.4103 0.5021 0.144
H26 H 0.394 0.621 0.0813
H27 H 0.3861 0.5635 0.1542
C19 C 0.38901(17) 0.9755(16) 0.1595(4)
H28 H 0.396 1.1116 0.1738
C20 C 0.3740(3) 1.001(5) 0.0846(9)
H29 H 0.367 0.8661 0.0684
C21 C 0.3879(5) 1.074(6) 0.0305(12)
H30 H 0.3993 0.9723 0.0278
H31 H 0.3785 1.0908 -0.0171
H32 H 0.3948 1.2058 0.0465
C22 C 0.3561(4) 1.158(5) 0.0894(12)
H33 H 0.3628 1.2967 0.093
H34 H 0.3508 1.1336 0.1344
C23 C 0.3363(4) 1.160(5) 0.0269(14)
H35 H 0.3416 1.174 -0.0187
H36 H 0.3287 1.0256 0.0257
C24 C 0.3197(5) 1.330(5) 0.0308(18)
H37 H 0.3274 1.4632 0.0342
H38 H 0.3139 1.3115 0.0754
C25 C 0.3001(3) 1.336(3) -0.0339(13)
H39 H 0.3059 1.3532 -0.079
C26 C 0.2875(6) 1.538(5) -0.021(2)
H40 H 0.2747 1.5558 -0.0597
H41 H 0.2828 1.5283 0.0253
H42 H 0.2973 1.6565 -0.0198
C27 C 0.2860(4) 1.137(4) -0.0403(14)
H43 H 0.2738 1.1484 -0.0818
H44 H 0.2951 1.0188 -0.0465
H45 H 0.2801 1.1194 0.0036
O1 O 0.53587(15) 0.5049(13) 0.3915(6)
Cl2 Cl 0.52211(5) -0.0508(6) 0.4801(2)
O2 O 0.52159(17) 0.0226(14) 0.3290(6)
C36 C 0.5405(2) 0.001(2) 0.3648(10)
C37 C 0.5459(2) -0.051(2) 0.4431(9)
H63 H 0.5517 -0.1947 0.4469
C38 C 0.56347(17) 0.0809(19) 0.4841(7)
H64 H 0.5674 0.0297 0.5341
H65 H 0.5577 0.222 0.4858
C39 C 0.58441(19) 0.0881(19) 0.4517(7)
C40 C 0.57782(18) 0.1694(17) 0.3758(7)
H66 H 0.5714 0.3088 0.3795
C41 C 0.5596(2) 0.039(2) 0.3272(7)
H67 H 0.5543 0.1121 0.2813
H68 H 0.5659 -0.094 0.3161
C42 C 0.59763(19) 0.198(2) 0.3393(7)
H69 H 0.6044 0.0629 0.3338
H70 H 0.5926 0.2571 0.2907
C43 C 0.61456(19) 0.3389(19) 0.3834(6)
H71 H 0.6277 0.3435 0.3613
H72 H 0.6084 0.4794 0.3819
C44 C 0.62136(18) 0.2734(18) 0.4600(6)
H73 H 0.6293 0.1397 0.4604
C45 C 0.60103(18) 0.2358(17) 0.4945(6)
H74 H 0.5933 0.371 0.4927
C46 C 0.5939(2) -0.1336(18) 0.4542(8)
H75 H 0.6077 -0.1321 0.4367
H76 H 0.5834 -0.224 0.4238
H77 H 0.5967 -0.1841 0.5039
C47 C 0.60768(19) 0.1809(19) 0.5745(6)
H78 H 0.614 0.0409 0.5791
H79 H 0.5944 0.1798 0.5958
C48 C 0.62451(18) 0.3313(19) 0.6170(6)
H80 H 0.6175 0.4671 0.6184
H81 H 0.629 0.2817 0.6671
C49 C 0.64488(17) 0.3549(16) 0.5842(6)
C50 C 0.63682(16) 0.4221(16) 0.5048(5)
H82 H 0.6283 0.5513 0.5065
C51 C 0.65785(17) 0.4847(18) 0.4807(5)
H83 H 0.6651 0.3641 0.464
H84 H 0.6548 0.587 0.4414
C52 C 0.67206(17) 0.5771(19) 0.5480(5)
H85 H 0.6739 0.7264 0.5416
H86 H 0.6868 0.5125 0.5577
C53 C 0.65744(19) 0.1504(18) 0.5895(6)
H87 H 0.6716 0.1713 0.5752
H88 H 0.6488 0.0494 0.5576
H89 H 0.66 0.1004 0.6392
C54 C 0.66002(16) 0.5356(17) 0.6126(5)
H90 H 0.6515 0.658 0.6234
C55 C 0.6767(3) 0.549(3) 0.6898(9)
H91 H 0.6894 0.4565 0.6881
C56 C 0.6656(5) 0.473(5) 0.7510(13)
H92 H 0.6597 0.3348 0.7396
H93 H 0.6765 0.4689 0.7962
H94 H 0.6537 0.5665 0.756
C57 C 0.6856(3) 0.760(3) 0.7094(9)
H95 H 0.674 0.8407 0.7256
H96 H 0.6885 0.826 0.6654
C58 C 0.7061(3) 0.772(3) 0.7670(11)
H97 H 0.7182 0.6978 0.7507
H98 H 0.7036 0.7039 0.8112
C59 C 0.7129(4) 0.993(3) 0.7835(13)
H99 H 0.7008 1.0608 0.8015
H100 H 0.7139 1.0598 0.7375
C60 C 0.7342(4) 1.038(4) 0.8373(12)
H101 H 0.7357 0.9445 0.8797
C61 C 0.7503(4) 0.980(5) 0.7927(13)
H102 H 0.7652 1.0015 0.8204
H103 H 0.7483 0.8356 0.7789
H104 H 0.748 1.0657 0.7493
C62 C 0.7406(6) 1.254(4) 0.8621(16)
H105 H 0.7306 1.3039 0.8922
H106 H 0.7557 1.2544 0.89
H107 H 0.7396 1.3438 0.8201
Cl3 Cl 0.77759(4) 0.6149(4) 0.41157(11)
O3 O 0.73988(11) 0.5980(10) 0.4797(4)
C71 C 0.75681(17) 0.6198(15) 0.5249(6)
C72 C 0.77877(14) 0.6568(15) 0.5056(4)
H125 H 0.7825 0.8047 0.5154
C73 C 0.79757(14) 0.5290(14) 0.5513(4)
H126 H 0.7953 0.3821 0.5388
H127 H 0.8118 0.5718 0.5399
C74 C 0.79842(13) 0.5573(12) 0.6320(4)
C75 C 0.77635(13) 0.4888(16) 0.6476(4)
H128 H 0.774 0.3444 0.63
C76 C 0.75724(14) 0.6187(16) 0.6044(5)
H129 H 0.7431 0.5635 0.6128
H130 H 0.7586 0.7616 0.6224
C77 C 0.77573(16) 0.4859(18) 0.7270(5)
H131 H 0.7611 0.4392 0.7337
H132 H 0.7782 0.6261 0.7471
C78 C 0.79342(14) 0.3417(17) 0.7669(5)
H133 H 0.7934 0.3466 0.819
H134 H 0.79 0.1994 0.7501
C79 C 0.81613(14) 0.3988(15) 0.7548(4)
H135 H 0.8198 0.5389 0.7752
C80 C 0.81640(13) 0.4056(14) 0.6737(4)
H136 H 0.8122 0.2652 0.6545
C81 C 0.80394(16) 0.7816(14) 0.6538(4)
H137 H 0.8179 0.8194 0.641
H138 H 0.8051 0.7967 0.7058
H139 H 0.7923 0.8716 0.6284
C82 C 0.83954(13) 0.4473(16) 0.6602(4)
H140 H 0.8437 0.5902 0.6745
H141 H 0.8393 0.4341 0.6081
C83 C 0.85690(14) 0.3003(16) 0.7018(4)
H142 H 0.8716 0.3393 0.6934
H143 H 0.8537 0.1589 0.6836
C84 C 0.85721(15) 0.3052(14) 0.7837(4)
C85 C 0.83392(14) 0.2499(15) 0.7919(4)
H144 H 0.8305 0.1148 0.7672
C86 C 0.83627(17) 0.2078(18) 0.8713(5)
H145 H 0.8244 0.1162 0.8806
H146 H 0.836 0.3369 0.8986
C87 C 0.85890(15) 0.1024(18) 0.8918(5)
H147 H 0.8571 -0.0454 0.9011
H148 H 0.8677 0.1656 0.9358
C88 C 0.87065(14) 0.1311(15) 0.8274(4)
H149 H 0.8681 0.0036 0.7976
C89 C 0.86467(18) 0.5169(15) 0.8156(5)
H150 H 0.8546 0.6226 0.7916
H151 H 0.8795 0.5456 0.8082
H152 H 0.8646 0.5171 0.8672
C90 C 0.90744(15) 0.2118(18) 0.7914(5)
H153 H 0.8999 0.3265 0.7636
H154 H 0.9226 0.2515 0.8119
H155 H 0.9074 0.0928 0.7599
C91 C 0.89555(15) 0.1566(15) 0.8525(4)
H156 H 0.8989 0.26 0.8921
C92 C 0.9044(4) -0.059(3) 0.8799(16)
H157 H 0.8947 -0.1141 0.9107
H158 H 0.9031 -0.1505 0.8377
C93 C 0.9282(4) -0.072(4) 0.9225(14)
H159 H 0.938 0.0023 0.896
H160 H 0.9292 -0.004 0.9697
C94 C 0.9362(3) -0.294(4) 0.9348(12)
H161 H 0.928 -0.3577 0.9687
H162 H 0.9319 -0.3675 0.8885
C95 C 0.9593(4) -0.331(4) 0.9619(12)
H163 H 0.9682 -0.2787 0.9272
C96 C 0.9652(7) -0.220(6) 1.0321(19)
H164 H 0.9809 -0.2416 1.0524
H165 H 0.9624 -0.0734 1.0245
H166 H 0.9564 -0.2739 1.0654
C97 C 0.9642(5) -0.550(5) 0.9789(19)
H167 H 0.98 -0.5674 0.9969
H168 H 0.9562 -0.5959 1.0156
H169 H 0.9596 -0.633 0.9352
C28? C 0.3709(5) 1.006(8) 0.0912(14)
H46? H 0.3635 0.8695 0.0815
C29? C 0.3807(7) 1.053(11) 0.0246(18)
H47? H 0.3923 0.9538 0.0213
H48? H 0.3691 1.0452 -0.0187
H49? H 0.387 1.1921 0.029
C30? C 0.3529(7) 1.159(11) 0.098(2)
H50? H 0.3591 1.2985 0.0997
H51? H 0.3482 1.1337 0.1439
C31? C 0.3325(7) 1.152(10) 0.037(3)
H52? H 0.3374 1.1499 -0.0092
H53? H 0.3247 1.0217 0.0412
C32? C 0.3162(8) 1.327(10) 0.035(4)
H54? H 0.3224 1.4522 0.0173
H55? H 0.3143 1.3557 0.0849
C33? C 0.2934(6) 1.287(7) -0.0121(17)
H56? H 0.2863 1.1703 0.0088
C34? C 0.2803(9) 1.490(9) -0.005(3)
H57? H 0.2654 1.4778 -0.034
H58? H 0.2795 1.5123 0.0453
H59? H 0.2878 1.6061 -0.0226
C35? C 0.2948(5) 1.233(6) -0.0916(16)
H60? H 0.28 1.2083 -0.1197
H61? H 0.3015 1.3476 -0.1127
H62? H 0.3038 1.1094 -0.0921
C63? C 0.6781(4) 0.472(5) 0.6785(13)
H108? H 0.6871 0.3568 0.6646
C64? C 0.6673(6) 0.404(5) 0.7409(16)
H109? H 0.6586 0.2802 0.7269
H110? H 0.6787 0.3747 0.7834
H111? H 0.6578 0.514 0.7521
C65? C 0.6921(3) 0.662(4) 0.6937(13)
H112? H 0.6834 0.7714 0.7111
H113? H 0.696 0.7098 0.6483
C66? C 0.7129(3) 0.627(4) 0.7487(12)
H114? H 0.7216 0.5178 0.731
H115? H 0.7089 0.5767 0.7938
C67? C 0.7270(4) 0.816(3) 0.7653(12)
H116? H 0.74 0.7736 0.8016
H117? H 0.7325 0.8474 0.7209
C68? C 0.7199(6) 1.016(4) 0.791(2)
H118? H 0.7074 1.0577 0.7516
C69? C 0.7087(6) 0.953(6) 0.8507(18)
H119? H 0.7034 1.0756 0.8718
H120? H 0.6964 0.8628 0.8316
H121? H 0.7192 0.8805 0.8878
C70? C 0.7303(7) 1.216(5) 0.817(3)
H122? H 0.7191 1.3087 0.8284
H123? H 0.7417 1.1934 0.8597
H124? H 0.7368 1.2778 0.7788
C98? C 0.9067(4) -0.022(4) 0.8981(18)
H170? H 0.9066 -0.1427 0.8662
H171? H 0.8977 -0.0583 0.9337
C99? C 0.9303(4) 0.012(4) 0.9386(14)
H172? H 0.9392 0.0679 0.9051
H173? H 0.9304 0.1132 0.9774
C100? C 0.9404(3) -0.186(4) 0.9705(13)
H174? H 0.9299 -0.2487 0.9969
H175? H 0.9412 -0.2787 0.9297
C101? C 0.9622(6) -0.192(6) 1.019(2)
H176? H 0.9606 -0.1277 1.0657
C102? C 0.9706(6) -0.405(7) 1.035(2)
H177? H 0.985 -0.3997 1.0671
H178? H 0.9603 -0.4821 1.0577
H179? H 0.9719 -0.4725 0.9898
C103? C 0.9778(6) -0.066(6) 0.988(2)
H180? H 0.9923 -0.069 1.0199
H181? H 0.9789 -0.1209 0.9407
H182? H 0.9725 0.0762 0.9824
loop_
_geom_bond_atom_site_label_1
_geom_bond_atom_site_label_2
_geom_bond_site_symmetry_1
_geom_bond_site_symmetry_2
Cl1 C2 1_555 1_555
C1 C2 1_555 1_555
C2 H1 1_555 1_555
C3 C2 1_555 1_555
H2 C3 1_555 1_555
H3 C3 1_555 1_555
C4 C3 1_555 1_555
C5 C4 1_555 1_555
H4 C5 1_555 1_555
C6 C1 1_555 1_555
H5 C6 1_555 1_555
H6 C6 1_555 1_555
C7 C5 1_555 1_555
H7 C7 1_555 1_555
H8 C7 1_555 1_555
C8 C7 1_555 1_555
H9 C8 1_555 1_555
H10 C8 1_555 1_555
C9 C8 1_555 1_555
H11 C9 1_555 1_555
C10 C4 1_555 1_555
H12 C10 1_555 1_555
C11 C4 1_555 1_555
H13 C11 1_555 1_555
H14 C11 1_555 1_555
H15 C11 1_555 1_555
C12 C10 1_555 1_555
H16 C12 1_555 1_555
H17 C12 1_555 1_555
C13 C12 1_555 1_555
H18 C13 1_555 1_555
H19 C13 1_555 1_555
C14 C13 1_555 1_555
C15 C9 1_555 1_555
H20 C15 1_555 1_555
C16 C15 1_555 1_555
H21 C16 1_555 1_555
H22 C16 1_555 1_555
C17 C16 1_555 1_555
H23 C17 1_555 1_555
H24 C17 1_555 1_555
C18 C14 1_555 1_555
H25 C18 1_555 1_555
H26 C18 1_555 1_555
H27 C18 1_555 1_555
C19 C14 1_555 1_555
H28 C19 1_555 1_555
C20 C19 1_555 1_555
H29 C20 1_555 1_555
C21 C20 1_555 1_555
H30 C21 1_555 1_555
H31 C21 1_555 1_555
H32 C21 1_555 1_555
C22 C20 1_555 1_555
H33 C22 1_555 1_555
H34 C22 1_555 1_555
C23 C22 1_555 1_555
H35 C23 1_555 1_555
H36 C23 1_555 1_555
C24 C23 1_555 1_555
H37 C24 1_555 1_555
H38 C24 1_555 1_555
C25 C24 1_555 1_555
H39 C25 1_555 1_555
C26 C25 1_555 1_555
H40 C26 1_555 1_555
H41 C26 1_555 1_555
H42 C26 1_555 1_555
C27 C25 1_555 1_555
H43 C27 1_555 1_555
H44 C27 1_555 1_555
H45 C27 1_555 1_555
O1 C1 1_555 1_555
Cl2 C37 1_555 1_555
O2 C36 1_555 1_555
C36 C37 1_555 1_555
C37 H63 1_555 1_555
C38 C37 1_555 1_555
H64 C38 1_555 1_555
H65 C38 1_555 1_555
C39 C38 1_555 1_555
C40 C39 1_555 1_555
H66 C40 1_555 1_555
C41 C36 1_555 1_555
H67 C41 1_555 1_555
H68 C41 1_555 1_555
C42 C40 1_555 1_555
H69 C42 1_555 1_555
H70 C42 1_555 1_555
C43 C42 1_555 1_555
H71 C43 1_555 1_555
H72 C43 1_555 1_555
C44 C43 1_555 1_555
H73 C44 1_555 1_555
C45 C39 1_555 1_555
H74 C45 1_555 1_555
C46 C39 1_555 1_555
H75 C46 1_555 1_555
H76 C46 1_555 1_555
H77 C46 1_555 1_555
C47 C45 1_555 1_555
H78 C47 1_555 1_555
H79 C47 1_555 1_555
C48 C47 1_555 1_555
H80 C48 1_555 1_555
H81 C48 1_555 1_555
C49 C48 1_555 1_555
C50 C44 1_555 1_555
H82 C50 1_555 1_555
C51 C50 1_555 1_555
H83 C51 1_555 1_555
H84 C51 1_555 1_555
C52 C51 1_555 1_555
H85 C52 1_555 1_555
H86 C52 1_555 1_555
C53 C49 1_555 1_555
H87 C53 1_555 1_555
H88 C53 1_555 1_555
H89 C53 1_555 1_555
C54 C49 1_555 1_555
H90 C54 1_555 1_555
C55 C54 1_555 1_555
H91 C55 1_555 1_555
C56 C55 1_555 1_555
H92 C56 1_555 1_555
H93 C56 1_555 1_555
H94 C56 1_555 1_555
C57 C55 1_555 1_555
H95 C57 1_555 1_555
H96 C57 1_555 1_555
C58 C57 1_555 1_555
H97 C58 1_555 1_555
H98 C58 1_555 1_555
C59 C58 1_555 1_555
H99 C59 1_555 1_555
H100 C59 1_555 1_555
C60 C59 1_555 1_555
H101 C60 1_555 1_555
C61 C60 1_555 1_555
H102 C61 1_555 1_555
H103 C61 1_555 1_555
H104 C61 1_555 1_555
C62 C60 1_555 1_555
H105 C62 1_555 1_555
H106 C62 1_555 1_555
H107 C62 1_555 1_555
Cl3 C72 1_555 1_555
O3 C71 1_555 1_555
C71 C72 1_555 1_555
C72 H125 1_555 1_555
C73 C72 1_555 1_555
H126 C73 1_555 1_555
H127 C73 1_555 1_555
C74 C73 1_555 1_555
C75 C74 1_555 1_555
H128 C75 1_555 1_555
C76 C71 1_555 1_555
H129 C76 1_555 1_555
H130 C76 1_555 1_555
C77 C75 1_555 1_555
H131 C77 1_555 1_555
H132 C77 1_555 1_555
C78 C77 1_555 1_555
H133 C78 1_555 1_555
H134 C78 1_555 1_555
C79 C78 1_555 1_555
H135 C79 1_555 1_555
C80 C74 1_555 1_555
H136 C80 1_555 1_555
C81 C74 1_555 1_555
H137 C81 1_555 1_555
H138 C81 1_555 1_555
H139 C81 1_555 1_555
C82 C80 1_555 1_555
H140 C82 1_555 1_555
H141 C82 1_555 1_555
C83 C82 1_555 1_555
H142 C83 1_555 1_555
H143 C83 1_555 1_555
C84 C83 1_555 1_555
C85 C79 1_555 1_555
H144 C85 1_555 1_555
C86 C85 1_555 1_555
H145 C86 1_555 1_555
H146 C86 1_555 1_555
C87 C86 1_555 1_555
H147 C87 1_555 1_555
H148 C87 1_555 1_555
C88 C84 1_555 1_555
H149 C88 1_555 1_555
C89 C84 1_555 1_555
H150 C89 1_555 1_555
H151 C89 1_555 1_555
H152 C89 1_555 1_555
C90 H153 1_555 1_555
H154 C90 1_555 1_555
H155 C90 1_555 1_555
C91 C88 1_555 1_555
H156 C91 1_555 1_555
C92 C91 1_555 1_555
H157 C92 1_555 1_555
H158 C92 1_555 1_555
C93 C92 1_555 1_555
H159 C93 1_555 1_555
H160 C93 1_555 1_555
C94 C93 1_555 1_555
H161 C94 1_555 1_555
H162 C94 1_555 1_555
C95 C94 1_555 1_555
H163 C95 1_555 1_555
C96 C95 1_555 1_555
H164 C96 1_555 1_555
H165 C96 1_555 1_555
H166 C96 1_555 1_555
C97 C95 1_555 1_555
H167 C97 1_555 1_555
H168 C97 1_555 1_555
H169 C97 1_555 1_555
C5 C6 1_555 1_555
C9 C10 1_555 1_555
C14 C15 1_555 1_555
C17 C19 1_555 1_555
C40 C41 1_555 1_555
C44 C45 1_555 1_555
C49 C50 1_555 1_555
C52 C54 1_555 1_555
C75 C76 1_555 1_555
C79 C80 1_555 1_555
C84 C85 1_555 1_555
C87 C88 1_555 1_555
C90 C91 1_555 1_555

#END
