
#######################################################################
#
#                 Cambridge Crystallographic Data Centre
#                                CCDC 
#
#######################################################################
#
# If this CIF has been generated from an entry in the Cambridge 
# Structural Database, then it will include bibliographic, chemical, 
# crystal, experimental, refinement or atomic coordinate data resulting 
# from the CCDC's data processing and validation procedures.
#
#######################################################################

data_HOXNUE
_chemical_name_common            
'(S)-Dimethyl 2-(1-(2-chlorophenyl)-2-nitroethyl)-2-fluoromalonate'
_chemical_formula_moiety         'C13 H13 Cl1 F1 N1 O6'
_chemical_name_systematic        
'Dimethyl (S)-2-(1-(2-chlorophenyl)-2-nitroethyl)-2-fluoromalonate'
_symmetry_cell_setting           monoclinic
_symmetry_space_group_name_H-M   'P 21'
_symmetry_Int_Tables_number      4
_space_group_name_Hall           'P 2yb'
loop_
_symmetry_equiv_pos_site_id
_symmetry_equiv_pos_as_xyz
1 x,y,z
2 -x,1/2+y,-z
_cell_length_a                   9.2128(6)
_cell_length_b                   7.5548(5)
_cell_length_c                   11.3782(8)
_cell_angle_alpha                90
_cell_angle_beta                 112.449(4)
_cell_angle_gamma                90
_cell_volume                     731.92
_exptl_crystal_colour            colorless
_exptl_crystal_description       block
_cell_formula_units_Z            2
loop_
_atom_site_label
_atom_site_type_symbol
_atom_site_fract_x
_atom_site_fract_y
_atom_site_fract_z
Cl1 Cl 0.24482(5) 0.21424(7) 0.63722(4)
F1 F -0.08709(9) 0.44076(10) 0.89638(6)
N1 N -0.19407(14) 0.02364(15) 0.72338(12)
O1 O -0.17997(15) -0.05058(16) 0.63370(11)
O2 O -0.31923(15) 0.0432(2) 0.73444(14)
O3 O 0.08552(11) 0.69369(13) 0.85710(9)
O4 O 0.04743(11) 0.58288(14) 0.66385(9)
O5 O -0.26577(12) 0.35383(15) 0.57890(10)
O6 O -0.31047(11) 0.56818(14) 0.69675(10)
C1 C 0.30372(15) 0.25481(18) 0.79917(12)
C2 C 0.46367(16) 0.2761(3) 0.86961(17)
H1 H 0.5354 0.2710 0.8291
C3 C 0.51644(17) 0.3046(3) 0.99834(17)
H2 H 0.6243 0.3205 1.0460
C4 C 0.41084(17) 0.3099(3) 1.05784(15)
H3 H 0.4473 0.3270 1.1462
C5 C 0.25118(15) 0.2899(2) 0.98764(12)
H4 H 0.1806 0.2931 1.0293
C6 C 0.19372(13) 0.26516(15) 0.85595(11)
C7 C 0.01857(13) 0.25156(14) 0.77921(10)
H5 H 0.0034 0.2284 0.6896
C8 C -0.04992(15) 0.09425(17) 0.82604(12)
H6 H 0.0290 0.0002 0.8555
H7 H -0.0757 0.1317 0.8982
C9 C -0.06610(12) 0.42667(15) 0.78292(9)
C10 C 0.03237(13) 0.58664(16) 0.77476(11)
C11 C 0.1441(2) 0.7192(3) 0.64086(18)
H8 H 0.0956 0.8339 0.6381
H9 H 0.1540 0.6969 0.5603
H10 H 0.2474 0.7181 0.7088
C12 C -0.22770(12) 0.44113(16) 0.67297(11)
C13 C -0.46180(16) 0.6052(3) 0.59592(16)
H11 H -0.4482 0.6201 0.5161
H12 H -0.5052 0.7128 0.6158
H13 H -0.5329 0.5074 0.5887
loop_
_geom_bond_atom_site_label_1
_geom_bond_atom_site_label_2
_geom_bond_site_symmetry_1
_geom_bond_site_symmetry_2
Cl1 C1 1_555 1_555
F1 C9 1_555 1_555
N1 O1 1_555 1_555
O2 N1 1_555 1_555
O3 C10 1_555 1_555
O4 C10 1_555 1_555
O5 C12 1_555 1_555
O6 C12 1_555 1_555
C1 C2 1_555 1_555
C2 H1 1_555 1_555
C3 C2 1_555 1_555
H2 C3 1_555 1_555
C4 C3 1_555 1_555
H3 C4 1_555 1_555
C5 C4 1_555 1_555
H4 C5 1_555 1_555
C6 C1 1_555 1_555
C7 C6 1_555 1_555
H5 C7 1_555 1_555
C8 N1 1_555 1_555
H6 C8 1_555 1_555
H7 C8 1_555 1_555
C9 C7 1_555 1_555
C10 C9 1_555 1_555
C11 O4 1_555 1_555
H8 C11 1_555 1_555
H9 C11 1_555 1_555
H10 C11 1_555 1_555
C12 C9 1_555 1_555
C13 O6 1_555 1_555
H11 C13 1_555 1_555
H12 C13 1_555 1_555
H13 C13 1_555 1_555
C5 C6 1_555 1_555
C7 C8 1_555 1_555

#END
