
#######################################################################
#
#                 Cambridge Crystallographic Data Centre
#                                CCDC 
#
#######################################################################
#
# If this CIF has been generated from an entry in the Cambridge 
# Structural Database, then it will include bibliographic, chemical, 
# crystal, experimental, refinement or atomic coordinate data resulting 
# from the CCDC's data processing and validation procedures.
#
#######################################################################

data_HOXPAM
_chemical_formula_moiety         'C30 H28 B1 N1 O3'
_chemical_name_systematic        
(2-(((9-Anthrylmethyl)(methyl)ammonio)methyl)phenyl)-(catecholato)-(methanolato)-boron
_symmetry_cell_setting           monoclinic
_symmetry_space_group_name_H-M   'P 21/n'
_symmetry_Int_Tables_number      14
_space_group_name_Hall           '-P 2yn'
loop_
_symmetry_equiv_pos_site_id
_symmetry_equiv_pos_as_xyz
1 x,y,z
2 1/2-x,1/2+y,1/2-z
3 -x,-y,-z
4 1/2+x,1/2-y,1/2+z
_cell_length_a                   15.4162(4)
_cell_length_b                   7.3575(2)
_cell_length_c                   20.8718(5)
_cell_angle_alpha                90
_cell_angle_beta                 92.8650(10)
_cell_angle_gamma                90
_cell_volume                     2364.42
_exptl_crystal_colour            colorless
_exptl_crystal_description       rectangular
_cell_formula_units_Z            4
_exptl_crystal_recrystallization_method methanol
loop_
_atom_site_label
_atom_site_type_symbol
_atom_site_fract_x
_atom_site_fract_y
_atom_site_fract_z
C1 C 0.57483(7) 1.31403(17) 0.32934(5)
C2 C 0.52948(8) 1.48204(17) 0.31861(6)
H1 H 0.5038 1.5074 0.2773
C3 C 0.52243(9) 1.60610(19) 0.36650(6)
H2 H 0.4919 1.7164 0.3580
C4 C 0.55987(9) 1.5733(2) 0.42882(6)
H3 H 0.5538 1.6604 0.4619
C5 C 0.60422(9) 1.4178(2) 0.44115(6)
H4 H 0.6298 1.3978 0.4829
C6 C 0.61354(8) 1.28237(18) 0.39266(6)
C7 C 0.65919(8) 1.12258(19) 0.40537(6)
H5 H 0.6847 1.1031 0.4472
C8 C 0.66874(8) 0.99009(18) 0.35865(6)
C9 C 0.71693(8) 0.8275(2) 0.37231(7)
H6 H 0.7427 0.8091 0.4141
C10 C 0.72638(8) 0.6992(2) 0.32660(7)
H7 H 0.7586 0.5919 0.3365
C11 C 0.68827(8) 0.72499(18) 0.26399(7)
H8 H 0.6955 0.6347 0.2322
C12 C 0.64146(8) 0.87730(17) 0.24887(6)
H9 H 0.6160 0.8909 0.2067
C13 C 0.62980(7) 1.01772(16) 0.29539(6)
C14 C 0.58415(7) 1.18079(16) 0.28154(5)
C15 C 0.55122(7) 1.21564(16) 0.21346(5)
H10 H 0.5446 1.3484 0.2072
H11 H 0.5953 1.1727 0.1841
C16 C 0.39140(8) 1.20859(17) 0.22704(6)
H12 H 0.4030 1.2075 0.2736
H13 H 0.3385 1.1390 0.2162
H14 H 0.3836 1.3343 0.2123
C17 C 0.45180(8) 1.12712(15) 0.12249(5)
H15 H 0.3896 1.1068 0.1107
H16 H 0.4685 1.2472 0.1056
C18 C 0.50544(7) 0.98081(15) 0.09315(5)
C19 C 0.58008(8) 1.02822(17) 0.06179(5)
H17 H 0.5965 1.1523 0.0590
C20 C 0.63029(8) 0.8951(2) 0.03465(6)
H18 H 0.6815 0.9275 0.0139
C21 C 0.60533(8) 0.71541(19) 0.03802(6)
H19 H 0.6393 0.6236 0.0194
C22 C 0.53034(8) 0.66847(17) 0.06868(6)
H20 H 0.5137 0.5443 0.0700
C23 C 0.47887(7) 0.79814(15) 0.09748(5)
C24 C 0.34548(9) 0.74151(18) 0.24611(6)
H21 H 0.2937 0.8080 0.2303
H22 H 0.3632 0.7845 0.2892
H23 H 0.3324 0.6113 0.2477
C25 C 0.28179(8) 0.54414(17) 0.10514(5)
C26 C 0.22877(9) 0.39536(19) 0.09314(6)
H24 H 0.2511 0.2750 0.0954
C27 C 0.14085(9) 0.4290(2) 0.07750(6)
H25 H 0.1028 0.3293 0.0689
C28 C 0.10821(9) 0.6031(2) 0.07435(6)
H26 H 0.0481 0.6214 0.0641
C29 C 0.16235(8) 0.7539(2) 0.08599(6)
H27 H 0.1400 0.8741 0.0838
C30 C 0.24925(8) 0.72170(17) 0.10075(5)
B1 B 0.39374(8) 0.73930(17) 0.13516(6)
N1 N 0.46596(6) 1.12515(13) 0.19519(4)
H28 H 0.4648(10) 1.002(2) 0.2078(7)
O1 O 0.41418(5) 0.77163(11) 0.20413(4)
O2 O 0.31261(5) 0.84474(11) 0.11399(4)
O3 O 0.36790(5) 0.54487(11) 0.12261(4)
loop_
_geom_bond_atom_site_label_1
_geom_bond_atom_site_label_2
_geom_bond_site_symmetry_1
_geom_bond_site_symmetry_2
C1 C2 1_555 1_555
C2 H1 1_555 1_555
C3 C2 1_555 1_555
H2 C3 1_555 1_555
C4 C3 1_555 1_555
H3 C4 1_555 1_555
C5 C4 1_555 1_555
H4 C5 1_555 1_555
C6 C1 1_555 1_555
C7 C6 1_555 1_555
H5 C7 1_555 1_555
C8 C7 1_555 1_555
C9 C8 1_555 1_555
H6 C9 1_555 1_555
C10 C9 1_555 1_555
H7 C10 1_555 1_555
C11 C10 1_555 1_555
H8 C11 1_555 1_555
C12 C11 1_555 1_555
H9 C12 1_555 1_555
C13 C8 1_555 1_555
C14 C1 1_555 1_555
C15 C14 1_555 1_555
H10 C15 1_555 1_555
H11 C15 1_555 1_555
C16 H12 1_555 1_555
H13 C16 1_555 1_555
H14 C16 1_555 1_555
C17 H15 1_555 1_555
H16 C17 1_555 1_555
C18 C17 1_555 1_555
C19 C18 1_555 1_555
H17 C19 1_555 1_555
C20 C19 1_555 1_555
H18 C20 1_555 1_555
C21 C20 1_555 1_555
H19 C21 1_555 1_555
C22 C21 1_555 1_555
H20 C22 1_555 1_555
C23 C18 1_555 1_555
C24 H21 1_555 1_555
H22 C24 1_555 1_555
H23 C24 1_555 1_555
C25 C26 1_555 1_555
C26 H24 1_555 1_555
C27 C26 1_555 1_555
H25 C27 1_555 1_555
C28 C27 1_555 1_555
H26 C28 1_555 1_555
C29 C28 1_555 1_555
H27 C29 1_555 1_555
C30 C25 1_555 1_555
B1 C23 1_555 1_555
N1 C15 1_555 1_555
H28 N1 1_555 1_555
O1 C24 1_555 1_555
O2 C30 1_555 1_555
O3 C25 1_555 1_555
C5 C6 1_555 1_555
C12 C13 1_555 1_555
C13 C14 1_555 1_555
C16 N1 1_555 1_555
C17 N1 1_555 1_555
C22 C23 1_555 1_555
C29 C30 1_555 1_555
B1 O1 1_555 1_555
B1 O2 1_555 1_555
B1 O3 1_555 1_555

#END
