
#######################################################################
#
#                 Cambridge Crystallographic Data Centre
#                                CCDC 
#
#######################################################################
#
# If this CIF has been generated from an entry in the Cambridge 
# Structural Database, then it will include bibliographic, chemical, 
# crystal, experimental, refinement or atomic coordinate data resulting 
# from the CCDC's data processing and validation procedures.
#
#######################################################################

data_HOZCEG
_chemical_formula_moiety         
'C35 H26 O20 S5 4-,2(C14 H12 N2 2+),10.5(H2 O1)'
_chemical_name_systematic        
'5,6-dihydropyrazino[1,2,3,4-lmn][1,10]phenanthrolinediium 31,32,33,34,35-pentahydroxy-29-sulfohexacyclo[25.3.1.1^3,7^.1^9,13^.1^15,19^.1^21,25^]pentatriaconta-1(31),3(35),4,6,9(34),10,12,15(33),16,18,21(32),22,24,27,29-pentadecaene-5,11,17,23-tetrasulfonate hydrate'
_symmetry_cell_setting           triclinic
_symmetry_space_group_name_H-M   'P -1'
_symmetry_Int_Tables_number      2
_space_group_name_Hall           '-P 1'
loop_
_symmetry_equiv_pos_site_id
_symmetry_equiv_pos_as_xyz
1 x,y,z
2 -x,-y,-z
_cell_length_a                   11.177(2)
_cell_length_b                   14.903(3)
_cell_length_c                   19.970(4)
_cell_angle_alpha                95.73(3)
_cell_angle_beta                 93.96(3)
_cell_angle_gamma                94.51(3)
_cell_volume                     3289.62
_exptl_crystal_colour            yellow
_exptl_crystal_description       BLOCK
_cell_formula_units_Z            2
loop_
_atom_site_label
_atom_site_type_symbol
_atom_site_fract_x
_atom_site_fract_y
_atom_site_fract_z
S1 S 1.14531(9) 0.26955(7) 0.07038(5)
S2 S 1.13136(10) 0.27210(7) 0.45075(5)
S3 S 0.68216(10) 0.18295(7) 0.61112(5)
S4 S 0.50760(10) 0.38666(6) 0.27822(5)
S5 S 0.59464(10) 0.20550(7) -0.09155(5)
O1 O 0.9301(3) -0.0631(2) 0.16741(15)
H1 H 0.9547 -0.0675 0.2065
O2 O 1.0625(3) 0.2881(2) 0.01538(18)
O3 O 1.2621(3) 0.2493(2) 0.04929(18)
O4 O 1.1544(3) 0.3412(2) 0.12662(17)
O5 O 0.9606(3) -0.08080(18) 0.29997(13)
H2 H 0.9682 -0.1219 0.3239
O6 O 1.1061(4) 0.3418(2) 0.40678(18)
O7 O 1.2598(3) 0.2656(2) 0.46313(17)
O8 O 1.0680(3) 0.2816(2) 0.51182(16)
O9 O 0.6382(2) -0.02806(18) 0.34345(13)
H3 H 0.5735 -0.0236 0.3226
O10 O 0.7339(4) 0.1264(3) 0.66039(18)
O11 O 0.7714(3) 0.2572(2) 0.60290(16)
O12 O 0.5670(3) 0.2097(3) 0.62713(19)
O13 O 0.4445(3) -0.01214(17) 0.25147(13)
H4 H 0.4383 -0.0345 0.2121
O14 O 0.5578(3) 0.4140(2) 0.34740(16)
O15 O 0.3883(3) 0.41853(19) 0.26651(16)
O16 O 0.5875(3) 0.4110(2) 0.22768(16)
O17 O 0.6491(3) -0.0077(2) 0.14046(14)
H5 H 0.5896 -0.0428 0.1425
O18 O 0.5224(4) 0.2762(2) -0.07436(16)
O19 O 0.5513(4) 0.1444(2) -0.14951(16)
O20 O 0.7204(4) 0.2384(3) -0.1041(2)
C1 C 0.9344(3) 0.0407(2) 0.08650(19)
C2 C 0.9850(3) 0.1201(3) 0.06428(19)
H6 H 0.9540 0.1391 0.0242
C3 C 1.0810(3) 0.1707(3) 0.1016(2)
C4 C 1.1305(3) 0.1417(3) 0.16051(19)
H7 H 1.1956 0.1757 0.1847
C5 C 1.0835(3) 0.0624(3) 0.18368(19)
C6 C 0.9829(4) 0.0135(2) 0.14677(19)
C7 C 1.1412(3) 0.0281(3) 0.24575(19)
H8 H 1.2259 0.0495 0.2506
H9 H 1.1358 -0.0375 0.2391
C8 C 1.0855(3) 0.0571(3) 0.3105(2)
C9 C 1.1224(4) 0.1402(3) 0.3460(2)
H10 H 1.1799 0.1786 0.3291
C10 C 1.0749(4) 0.1671(3) 0.4063(2)
C11 C 0.9873(3) 0.1116(3) 0.4316(2)
H11 H 0.9557 0.1307 0.4719
C12 C 0.9459(3) 0.0274(3) 0.39738(19)
C13 C 0.9969(3) 0.0008(3) 0.33700(19)
C14 C 0.8495(4) -0.0341(3) 0.4250(2)
H12 H 0.8193 -0.0819 0.3899
H13 H 0.8859 -0.0623 0.4622
C15 C 0.7449(3) 0.0157(2) 0.44923(19)
C16 C 0.7519(4) 0.0617(3) 0.5132(2)
H14 H 0.8180 0.0572 0.5432
C17 C 0.6605(4) 0.1150(3) 0.53298(19)
C18 C 0.5593(4) 0.1192(3) 0.48954(19)
H15 H 0.4989 0.1549 0.5031
C19 C 0.5471(3) 0.0704(2) 0.42548(18)
C20 C 0.6414(3) 0.0193(2) 0.40604(18)
C21 C 0.4349(3) 0.0754(3) 0.37906(19)
H16 H 0.3756 0.1047 0.4048
H17 H 0.4014 0.0144 0.3633
C22 C 0.4565(3) 0.1264(3) 0.31822(19)
C23 C 0.4740(3) 0.2203(2) 0.32533(19)
H18 H 0.4772 0.2522 0.3680
C24 C 0.4867(3) 0.2666(3) 0.2691(2)
C25 C 0.4771(3) 0.2209(3) 0.20524(19)
H19 H 0.4831 0.2531 0.1679
C26 C 0.4583(3) 0.1264(3) 0.19594(19)
C27 C 0.4551(3) 0.0800(2) 0.25357(19)
C28 C 0.4312(3) 0.0790(3) 0.12474(19)
H20 H 0.4102 0.0152 0.1280
H21 H 0.3609 0.1032 0.1044
C29 C 0.5311(3) 0.0867(2) 0.07767(18)
C30 C 0.5193(4) 0.1383(2) 0.02312(19)
H22 H 0.4520 0.1704 0.0172
C31 C 0.6079(4) 0.1417(3) -0.02201(19)
C32 C 0.7071(3) 0.0918(2) -0.01512(19)
H23 H 0.7648 0.0936 -0.0465
C33 C 0.7211(3) 0.0393(2) 0.03824(18)
C34 C 0.6335(4) 0.0390(2) 0.08502(18)
C35 C 0.8295(3) -0.0139(3) 0.0451(2)
H24 H 0.8539 -0.0327 0.0005
H25 H 0.8080 -0.0680 0.0664
N1 N 0.8732(4) 0.4703(3) 0.3674(2)
N2 N 0.8505(3) 0.3934(3) 0.2312(2)
C36 C 0.8724(5) 0.5099(3) 0.4302(3)
H26 H 0.8974 0.5711 0.4398
C37 C 0.8351(5) 0.4614(4) 0.4809(3)
H27 H 0.8309 0.4905 0.5241
C38 C 0.8036(5) 0.3695(4) 0.4682(3)
H28 H 0.7827 0.3357 0.5029
C39 C 0.8036(4) 0.3281(3) 0.4021(3)
C40 C 0.7745(4) 0.2344(3) 0.3857(3)
H29 H 0.7543 0.1991 0.4198
C41 C 0.7750(4) 0.1940(3) 0.3217(3)
H30 H 0.7578 0.1316 0.3130
C42 C 0.8017(4) 0.2465(3) 0.2676(2)
C43 C 0.7973(5) 0.2096(4) 0.2001(3)
H31 H 0.7796 0.1476 0.1888
C44 C 0.8190(5) 0.2649(4) 0.1507(3)
H32 H 0.8159 0.2403 0.1059
C45 C 0.8456(4) 0.3567(4) 0.1669(3)
H33 H 0.8602 0.3935 0.1329
C46 C 0.8316(4) 0.3408(3) 0.2820(2)
C47 C 0.8360(4) 0.3802(3) 0.3500(2)
C48 C 0.8626(5) 0.4925(3) 0.2492(3)
H34 H 0.7831 0.5143 0.2496
H35 H 0.9047 0.5211 0.2149
C49 C 0.9293(5) 0.5194(3) 0.3164(3)
H36 H 1.0125 0.5057 0.3145
H37 H 0.9283 0.5840 0.3282
N3 N 0.5601(3) 0.6806(2) 0.21636(16)
N4 N 0.4593(3) 0.5220(2) 0.13645(16)
C50 C 0.6009(4) 0.7603(3) 0.2491(2)
H38 H 0.5548 0.7882 0.2808
C51 C 0.7112(4) 0.8028(3) 0.2368(2)
H39 H 0.7377 0.8593 0.2592
C52 C 0.7803(4) 0.7608(3) 0.1917(2)
H40 H 0.8562 0.7871 0.1850
C53 C 0.7364(4) 0.6773(3) 0.1551(2)
C54 C 0.8047(4) 0.6316(3) 0.1062(2)
H41 H 0.8794 0.6577 0.0972
C55 C 0.7616(4) 0.5508(3) 0.0729(2)
H42 H 0.8083 0.5210 0.0425
C56 C 0.6449(4) 0.5106(3) 0.0839(2)
C57 C 0.5956(4) 0.4282(3) 0.0487(2)
H43 H 0.6404 0.3967 0.0182
C58 C 0.4825(4) 0.3943(3) 0.0591(2)
H44 H 0.4508 0.3391 0.0365
C59 C 0.4143(4) 0.4428(3) 0.1038(2)
H45 H 0.3370 0.4196 0.1108
C60 C 0.5745(4) 0.5561(3) 0.12986(19)
C61 C 0.6233(3) 0.6384(2) 0.16782(19)
C62 C 0.3807(4) 0.5776(3) 0.1768(2)
H46 H 0.3167 0.5386 0.1919
H47 H 0.3441 0.6191 0.1488
C63 C 0.4511(4) 0.6305(3) 0.2371(2)
H48 H 0.4008 0.6729 0.2589
H49 H 0.4747 0.5894 0.2694
O21 O 0.9862(3) 0.7765(2) 0.36370(16)
O22 O 0.6852(4) 0.5978(3) 0.3363(2)
O23 O 0.1051(4) 0.3673(3) 0.2651(2)
O24 O 0.8650(16) 0.3791(12) 0.9662(6)
O26 O 0.3181(4) 0.2324(3) 0.5949(2)
O27 O 0.8394(5) 0.2167(3) 0.7794(2)
O28 O 0.0669(11) 0.5069(8) 0.1342(5)
O30 O 0.5574(5) 0.3864(4) 0.5883(3)
O31 O 0.1481(5) 0.6055(3) 0.2538(3)
O33 O 0.4424(5) 0.4041(4) 0.4687(3)
O35 O 0.2660(5) 0.5308(4) 0.3480(3)
O33A O 0.5576(5) 0.5959(4) 0.5313(3)
O25? O 0.8693(18) 0.3710(13) 0.9893(7)
O29? O 0.0641(15) 0.5148(10) 0.1068(7)
O32? O 0.0692(17) 0.6302(11) 0.2138(7)
O34? O 0.5000 0.5000 0.5000
O36? O 0.2556(9) 0.4418(7) 0.3450(5)
loop_
_geom_bond_atom_site_label_1
_geom_bond_atom_site_label_2
_geom_bond_site_symmetry_1
_geom_bond_site_symmetry_2
S1 O2 1_555 1_555
S2 O6 1_555 1_555
S3 O10 1_555 1_555
S4 O14 1_555 1_555
S5 O18 1_555 1_555
O1 H1 1_555 1_555
O3 S1 1_555 1_555
O4 S1 1_555 1_555
O5 H2 1_555 1_555
O7 S2 1_555 1_555
O8 S2 1_555 1_555
O9 H3 1_555 1_555
O11 S3 1_555 1_555
O12 S3 1_555 1_555
O13 H4 1_555 1_555
O15 S4 1_555 1_555
O16 S4 1_555 1_555
O17 H5 1_555 1_555
O19 S5 1_555 1_555
O20 S5 1_555 1_555
C1 C2 1_555 1_555
C2 H6 1_555 1_555
C3 S1 1_555 1_555
C4 C3 1_555 1_555
H7 C4 1_555 1_555
C5 C4 1_555 1_555
C6 O1 1_555 1_555
C7 C5 1_555 1_555
H8 C7 1_555 1_555
H9 C7 1_555 1_555
C8 C7 1_555 1_555
C9 C8 1_555 1_555
H10 C9 1_555 1_555
C10 S2 1_555 1_555
C11 C10 1_555 1_555
H11 C11 1_555 1_555
C12 C11 1_555 1_555
C13 O5 1_555 1_555
C14 C12 1_555 1_555
H12 C14 1_555 1_555
H13 C14 1_555 1_555
C15 C14 1_555 1_555
C16 C15 1_555 1_555
H14 C16 1_555 1_555
C17 S3 1_555 1_555
C18 C17 1_555 1_555
H15 C18 1_555 1_555
C19 C18 1_555 1_555
C20 O9 1_555 1_555
C21 C19 1_555 1_555
H16 C21 1_555 1_555
H17 C21 1_555 1_555
C22 C21 1_555 1_555
C23 C22 1_555 1_555
H18 C23 1_555 1_555
C24 S4 1_555 1_555
C25 C24 1_555 1_555
H19 C25 1_555 1_555
C26 C25 1_555 1_555
C27 O13 1_555 1_555
C28 C26 1_555 1_555
H20 C28 1_555 1_555
H21 C28 1_555 1_555
C29 C28 1_555 1_555
C30 C29 1_555 1_555
H22 C30 1_555 1_555
C31 S5 1_555 1_555
C32 C31 1_555 1_555
H23 C32 1_555 1_555
C33 C32 1_555 1_555
C34 O17 1_555 1_555
C35 C1 1_555 1_555
H24 C35 1_555 1_555
H25 C35 1_555 1_555
N1 C36 1_555 1_555
N2 C45 1_555 1_555
C36 H26 1_555 1_555
C37 C36 1_555 1_555
H27 C37 1_555 1_555
C38 C37 1_555 1_555
H28 C38 1_555 1_555
C39 C38 1_555 1_555
C40 C39 1_555 1_555
H29 C40 1_555 1_555
C41 C40 1_555 1_555
H30 C41 1_555 1_555
C42 C41 1_555 1_555
C43 C42 1_555 1_555
H31 C43 1_555 1_555
C44 C43 1_555 1_555
H32 C44 1_555 1_555
C45 C44 1_555 1_555
H33 C45 1_555 1_555
C46 N2 1_555 1_555
C47 N1 1_555 1_555
C48 N2 1_555 1_555
H34 C48 1_555 1_555
H35 C48 1_555 1_555
C49 N1 1_555 1_555
H36 C49 1_555 1_555
H37 C49 1_555 1_555
N3 C50 1_555 1_555
N4 C59 1_555 1_555
C50 H38 1_555 1_555
C51 C50 1_555 1_555
H39 C51 1_555 1_555
C52 C51 1_555 1_555
H40 C52 1_555 1_555
C53 C52 1_555 1_555
C54 C53 1_555 1_555
H41 C54 1_555 1_555
C55 C54 1_555 1_555
H42 C55 1_555 1_555
C56 C55 1_555 1_555
C57 C56 1_555 1_555
H43 C57 1_555 1_555
C58 C57 1_555 1_555
H44 C58 1_555 1_555
C59 C58 1_555 1_555
H45 C59 1_555 1_555
C60 N4 1_555 1_555
C61 N3 1_555 1_555
C62 N4 1_555 1_555
H46 C62 1_555 1_555
H47 C62 1_555 1_555
C63 N3 1_555 1_555
H48 C63 1_555 1_555
H49 C63 1_555 1_555
C1 C6 1_555 1_555
C2 C3 1_555 1_555
C5 C6 1_555 1_555
C8 C13 1_555 1_555
C9 C10 1_555 1_555
C12 C13 1_555 1_555
C15 C20 1_555 1_555
C16 C17 1_555 1_555
C19 C20 1_555 1_555
C22 C27 1_555 1_555
C23 C24 1_555 1_555
C26 C27 1_555 1_555
C29 C34 1_555 1_555
C30 C31 1_555 1_555
C33 C34 1_555 1_555
C33 C35 1_555 1_555
C39 C47 1_555 1_555
C42 C46 1_555 1_555
C46 C47 1_555 1_555
C48 C49 1_555 1_555
C53 C61 1_555 1_555
C56 C60 1_555 1_555
C60 C61 1_555 1_555
C62 C63 1_555 1_555

#END
