
#######################################################################
#
#                 Cambridge Crystallographic Data Centre
#                                CCDC 
#
#######################################################################
#
# If this CIF has been generated from an entry in the Cambridge 
# Structural Database, then it will include bibliographic, chemical, 
# crystal, experimental, refinement or atomic coordinate data resulting 
# from the CCDC's data processing and validation procedures.
#
#######################################################################

data_HOZDEG
_chemical_formula_moiety         'C19 H13 Br1 Cl1 N1'
_chemical_name_systematic        3-Bromo-9-(4-chlorobenzyl)-9H-carbazole
_symmetry_cell_setting           orthorhombic
_symmetry_space_group_name_H-M   'P n a 21'
_symmetry_Int_Tables_number      33
_space_group_name_Hall           'P 2c -2n'
loop_
_symmetry_equiv_pos_site_id
_symmetry_equiv_pos_as_xyz
1 x,y,z
2 -x,-y,1/2+z
3 1/2+x,1/2-y,z
4 1/2-x,1/2+y,1/2+z
_cell_length_a                   17.272(4)
_cell_length_b                   15.789(3)
_cell_length_c                   5.5948(11)
_cell_angle_alpha                90
_cell_angle_beta                 90
_cell_angle_gamma                90
_cell_volume                     1525.74
_exptl_crystal_colour            colorless
_exptl_crystal_description       block
_chemical_melting_point          '431-433 K'
_cell_formula_units_Z            4
_exptl_crystal_recrystallization_method ethanol/chloroform
loop_
_atom_site_label
_atom_site_type_symbol
_atom_site_fract_x
_atom_site_fract_y
_atom_site_fract_z
Br1 Br 0.258680(12) 0.185476(15) 1.32912(10)
Cl1 Cl 0.65120(4) 0.59416(4) 0.8259(2)
N1 N 0.53701(13) 0.18736(14) 0.6844(4)
C1 C 0.58534(13) 0.13162(15) 0.8041(6)
C2 C 0.66094(15) 0.10636(17) 0.7491(5)
H1 H 0.6862 0.1270 0.6143
C3 C 0.69681(15) 0.04979(18) 0.9013(5)
H2 H 0.7471 0.0322 0.8682
C4 C 0.65932(16) 0.01831(19) 1.1042(6)
H3 H 0.6848 -0.0198 1.2038
C5 C 0.58446(15) 0.04349(18) 1.1579(5)
H4 H 0.5597 0.0227 1.2934
C6 C 0.54667(15) 0.10001(16) 1.0080(5)
C7 C 0.47140(14) 0.13996(16) 1.0130(5)
C8 C 0.40812(14) 0.13595(18) 1.1675(5)
H5 H 0.4082 0.1001 1.2993
C9 C 0.34553(15) 0.18694(17) 1.1181(5)
C10 C 0.34293(15) 0.24129(18) 0.9223(5)
H6 H 0.2993 0.2746 0.8960
C11 C 0.40475(15) 0.24581(18) 0.7676(5)
H7 H 0.4040 0.2824 0.6373
C12 C 0.46844(13) 0.19405(14) 0.8117(6)
C13 C 0.55872(15) 0.24502(16) 0.4941(5)
H8 H 0.5160 0.2495 0.3822
H9 H 0.6026 0.2214 0.4087
C14 C 0.57980(15) 0.33317(17) 0.5812(5)
C15 C 0.62228(15) 0.34401(18) 0.7921(6)
H10 H 0.6358 0.2971 0.8835
C16 C 0.64432(14) 0.42472(17) 0.8658(6)
H11 H 0.6729 0.4319 1.0052
C17 C 0.62343(16) 0.49356(17) 0.7311(5)
C18 C 0.58085(15) 0.48457(18) 0.5212(6)
H12 H 0.5671 0.5318 0.4313
C19 C 0.55924(15) 0.40353(17) 0.4486(5)
H13 H 0.5306 0.3967 0.3091
loop_
_geom_bond_atom_site_label_1
_geom_bond_atom_site_label_2
_geom_bond_site_symmetry_1
_geom_bond_site_symmetry_2
Br1 C9 1_555 1_555
Cl1 C17 1_555 1_555
N1 C1 1_555 1_555
C1 C2 1_555 1_555
C2 H1 1_555 1_555
C3 C2 1_555 1_555
H2 C3 1_555 1_555
C4 C3 1_555 1_555
H3 C4 1_555 1_555
C5 C4 1_555 1_555
H4 C5 1_555 1_555
C6 C1 1_555 1_555
C7 C6 1_555 1_555
C8 C7 1_555 1_555
H5 C8 1_555 1_555
C9 C8 1_555 1_555
C10 C9 1_555 1_555
H6 C10 1_555 1_555
C11 C10 1_555 1_555
H7 C11 1_555 1_555
C12 N1 1_555 1_555
C13 N1 1_555 1_555
H8 C13 1_555 1_555
H9 C13 1_555 1_555
C14 C13 1_555 1_555
C15 C14 1_555 1_555
H10 C15 1_555 1_555
C16 C15 1_555 1_555
H11 C16 1_555 1_555
C17 C16 1_555 1_555
C18 C17 1_555 1_555
H12 C18 1_555 1_555
C19 C14 1_555 1_555
H13 C19 1_555 1_555
C5 C6 1_555 1_555
C7 C12 1_555 1_555
C11 C12 1_555 1_555
C18 C19 1_555 1_555

#END
