
#######################################################################
#
#                 Cambridge Crystallographic Data Centre
#                                CCDC 
#
#######################################################################
#
# If this CIF has been generated from an entry in the Cambridge 
# Structural Database, then it will include bibliographic, chemical, 
# crystal, experimental, refinement or atomic coordinate data resulting 
# from the CCDC's data processing and validation procedures.
#
#######################################################################

data_HUCDOA
_chemical_formula_moiety         'C14 H11 Cl1 N4 O1 S1'
_chemical_name_systematic        
4-chloro-2-((4-(dimethylamino)phenyl)diazenyl)-5-formylthiophene-3-carbonitrile
_symmetry_cell_setting           triclinic
_symmetry_space_group_name_H-M   'P -1'
_symmetry_Int_Tables_number      2
_space_group_name_Hall           '-P 1'
loop_
_symmetry_equiv_pos_site_id
_symmetry_equiv_pos_as_xyz
1 x,y,z
2 -x,-y,-z
_cell_length_a                   7.462(4)
_cell_length_b                   13.640(7)
_cell_length_c                   14.765(8)
_cell_angle_alpha                85.315(9)
_cell_angle_beta                 86.543(10)
_cell_angle_gamma                76.836(9)
_cell_volume                     1457.08
_exptl_crystal_colour            violet
_exptl_crystal_description       block
_cell_formula_units_Z            4
loop_
_atom_site_label
_atom_site_type_symbol
_atom_site_fract_x
_atom_site_fract_y
_atom_site_fract_z
C1 C 0.3397(3) 0.43909(15) 0.65428(13)
C2 C 0.4198(3) 0.34702(15) 0.69792(13)
C3 C 0.4431(3) 0.35634(15) 0.79086(13)
C4 C 0.3817(3) 0.45216(16) 0.81673(13)
C5 C 0.4678(4) 0.25492(17) 0.65431(14)
C6 C 0.3821(3) 0.48959(18) 0.90540(15)
H1 H 0.4250 0.4439 0.9538
C7 C 0.1885(3) 0.56472(16) 0.44947(13)
C8 C 0.1114(3) 0.66487(16) 0.42079(14)
H2 H 0.0917 0.7141 0.4626
C9 C 0.0640(3) 0.69231(16) 0.33259(15)
H3 H 0.0124 0.7595 0.3155
C10 C 0.0928(3) 0.61965(16) 0.26737(13)
C11 C 0.1746(3) 0.51847(16) 0.29669(14)
H4 H 0.1981 0.4691 0.2549
C12 C 0.2191(3) 0.49231(16) 0.38496(14)
H5 H 0.2707 0.4253 0.4026
C13 C -0.0419(4) 0.74734(18) 0.14933(16)
H6 H -0.1328 0.7763 0.1942
H7 H -0.0997 0.7472 0.0930
H8 H 0.0503 0.7866 0.1403
C14 C 0.0840(4) 0.5706(2) 0.11192(15)
H9 H 0.2144 0.5434 0.1071
H10 H 0.0422 0.6027 0.0543
H11 H 0.0218 0.5172 0.1293
Cl1 Cl 0.53969(9) 0.25523(4) 0.86247(4)
N1 N 0.5032(4) 0.18001(17) 0.62128(15)
N2 N 0.3027(3) 0.45209(13) 0.56313(11)
N3 N 0.2308(3) 0.54503(14) 0.53951(11)
N4 N 0.0438(3) 0.64448(14) 0.18034(11)
O1 O 0.3289(3) 0.57807(13) 0.91946(11)
S1 S 0.29157(8) 0.53475(4) 0.72714(4)
C15 C 0.1981(3) 1.06635(16) 1.12679(13)
C16 C 0.1898(3) 1.15723(16) 1.16439(14)
C17 C 0.1452(3) 1.14872(16) 1.25911(14)
C18 C 0.1191(3) 1.05585(16) 1.29127(14)
C19 C 0.2158(4) 1.24684(18) 1.11479(16)
C20 C 0.0646(4) 1.0223(2) 1.38189(15)
H12 H 0.0524 1.0664 1.4278
C21 C 0.2867(3) 0.94071(15) 0.92783(13)
C22 C 0.3351(3) 1.00950(15) 0.85979(13)
H13 H 0.3448 1.0728 0.8752
C23 C 0.3680(3) 0.98534(15) 0.77224(14)
H14 H 0.3990 1.0324 0.7285
C24 C 0.3558(3) 0.88907(15) 0.74620(13)
C25 C 0.3126(3) 0.81926(15) 0.81536(14)
H15 H 0.3067 0.7550 0.8009
C26 C 0.2795(3) 0.84508(16) 0.90310(13)
H16 H 0.2514 0.7979 0.9475
C27 C 0.4308(4) 0.93771(19) 0.58772(14)
H17 H 0.3350 0.9982 0.5864
H18 H 0.4420 0.9089 0.5299
H19 H 0.5453 0.9536 0.6002
C28 C 0.3843(4) 0.76595(18) 0.63132(16)
H20 H 0.4656 0.7160 0.6683
H21 H 0.4251 0.7609 0.5686
H22 H 0.2616 0.7549 0.6391
Cl2 Cl 0.12246(10) 1.24939(5) 1.32542(4)
N5 N 0.2343(4) 1.31915(18) 1.07537(16)
N6 N 0.2411(3) 1.05199(13) 1.03604(11)
N7 N 0.2444(3) 0.96111(13) 1.01740(11)
N8 N 0.3853(3) 0.86576(14) 0.65837(12)
O2 O 0.0340(3) 0.93944(15) 1.40101(12)
S2 S 0.15154(8) 0.97405(4) 1.20522(4)
loop_
_geom_bond_atom_site_label_1
_geom_bond_atom_site_label_2
_geom_bond_site_symmetry_1
_geom_bond_site_symmetry_2
C1 C2 1_555 1_555
C2 C3 1_555 1_555
C3 C4 1_555 1_555
C4 C6 1_555 1_555
C5 C2 1_555 1_555
C6 H1 1_555 1_555
C7 C8 1_555 1_555
C8 H2 1_555 1_555
C9 C8 1_555 1_555
H3 C9 1_555 1_555
C10 C9 1_555 1_555
C11 C10 1_555 1_555
H4 C11 1_555 1_555
C12 C7 1_555 1_555
H5 C12 1_555 1_555
C13 H6 1_555 1_555
H7 C13 1_555 1_555
H8 C13 1_555 1_555
C14 H9 1_555 1_555
H10 C14 1_555 1_555
H11 C14 1_555 1_555
Cl1 C3 1_555 1_555
N1 C5 1_555 1_555
N2 C1 1_555 1_555
N3 C7 1_555 1_555
N4 C10 1_555 1_555
O1 C6 1_555 1_555
S1 C1 1_555 1_555
C15 C16 1_555 1_555
C16 C17 1_555 1_555
C17 C18 1_555 1_555
C18 C20 1_555 1_555
C19 C16 1_555 1_555
C20 H12 1_555 1_555
C21 C22 1_555 1_555
C22 H13 1_555 1_555
C23 C22 1_555 1_555
H14 C23 1_555 1_555
C24 C23 1_555 1_555
C25 C24 1_555 1_555
H15 C25 1_555 1_555
C26 C21 1_555 1_555
H16 C26 1_555 1_555
C27 H17 1_555 1_555
H18 C27 1_555 1_555
H19 C27 1_555 1_555
C28 H20 1_555 1_555
H21 C28 1_555 1_555
H22 C28 1_555 1_555
Cl2 C17 1_555 1_555
N5 C19 1_555 1_555
N6 C15 1_555 1_555
N7 C21 1_555 1_555
N8 C24 1_555 1_555
O2 C20 1_555 1_555
S2 C15 1_555 1_555
C4 S1 1_555 1_555
C11 C12 1_555 1_555
C13 N4 1_555 1_555
C14 N4 1_555 1_555
N2 N3 1_555 1_555
C18 S2 1_555 1_555
C25 C26 1_555 1_555
C27 N8 1_555 1_555
C28 N8 1_555 1_555
N6 N7 1_555 1_555

#END
