
#######################################################################
#
#                 Cambridge Crystallographic Data Centre
#                                CCDC 
#
#######################################################################
#
# If this CIF has been generated from an entry in the Cambridge 
# Structural Database, then it will include bibliographic, chemical, 
# crystal, experimental, refinement or atomic coordinate data resulting 
# from the CCDC's data processing and validation procedures.
#
#######################################################################

data_HUCTIJ
_chemical_formula_moiety         'C13 H11 Br1 O2'
_chemical_name_systematic        
(R)-7-Bromo-2,3,4,4a-tetrahydro-1H-xanthen-1-one
_symmetry_cell_setting           monoclinic
_symmetry_space_group_name_H-M   'P 21'
_symmetry_Int_Tables_number      4
_space_group_name_Hall           'P 2yb'
loop_
_symmetry_equiv_pos_site_id
_symmetry_equiv_pos_as_xyz
1 x,y,z
2 -x,1/2+y,-z
_cell_length_a                   7.5419(4)
_cell_length_b                   6.9039(3)
_cell_length_c                   10.7634(5)
_cell_angle_alpha                90
_cell_angle_beta                 93.7110(12)
_cell_angle_gamma                90
_cell_volume                     559.259
_exptl_crystal_colour            yellow
_exptl_crystal_description       chunk
_cell_formula_units_Z            2
_exptl_crystal_recrystallization_method acetone
loop_
_atom_site_label
_atom_site_type_symbol
_atom_site_fract_x
_atom_site_fract_y
_atom_site_fract_z
Br1 Br 0.96613(6) 0.67049(12) 0.66752(4)
O1 O 0.5964(5) 0.6274(8) -0.0423(3)
O2 O 0.2944(3) 0.6625(11) 0.3348(2)
C1 C 0.4600(6) 0.6384(11) 0.0116(4)
C2 C 0.2803(7) 0.6187(12) -0.0570(4)
C3 C 0.1314(6) 0.7222(8) 0.0028(4)
C4 C 0.1286(5) 0.6734(16) 0.1395(3)
C5 C 0.2999(6) 0.7335(7) 0.2089(4)
C6 C 0.4495(4) 0.6742(14) 0.4075(3)
C7 C 0.4396(5) 0.6820(14) 0.5352(3)
C8 C 0.5937(5) 0.6827(14) 0.6123(3)
C9 C 0.7562(5) 0.6759(14) 0.5602(3)
C10 C 0.7694(5) 0.6637(16) 0.4334(3)
C11 C 0.6136(4) 0.6623(14) 0.3548(3)
C12 C 0.6132(5) 0.6402(11) 0.2208(4)
C13 C 0.4640(4) 0.6636(15) 0.1494(3)
H1 H 0.3034 0.8753 0.2117
H2 H 0.3294 0.6868 0.5692
H3 H 0.5879 0.6877 0.6983
H4 H 0.8801 0.6564 0.4004
H5 H 0.7181 0.6095 0.1844
H6 H 0.2509 0.4820 -0.0622
H7 H 0.2883 0.6705 -0.1402
H8 H 0.0191 0.6841 -0.0391
H9 H 0.1475 0.8609 -0.0060
H10 H 0.0304 0.7408 0.1742
H11 H 0.1129 0.5347 0.1486
loop_
_geom_bond_atom_site_label_1
_geom_bond_atom_site_label_2
_geom_bond_site_symmetry_1
_geom_bond_site_symmetry_2
Br1 C9 1_555 1_555
O1 C1 1_555 1_555
O2 C5 1_555 1_555
C1 C2 1_555 1_555
C2 C3 1_555 1_555
C3 C4 1_555 1_555
C4 C5 1_555 1_555
C5 C13 1_555 1_555
C6 O2 1_555 1_555
C7 C6 1_555 1_555
C8 C7 1_555 1_555
C9 C8 1_555 1_555
C10 C9 1_555 1_555
C11 C6 1_555 1_555
C12 C11 1_555 1_555
C13 C1 1_555 1_555
H1 C5 1_555 1_555
H2 C7 1_555 1_555
H3 C8 1_555 1_555
H4 C10 1_555 1_555
H5 C12 1_555 1_555
H6 C2 1_555 1_555
H7 C2 1_555 1_555
H8 C3 1_555 1_555
H9 C3 1_555 1_555
H10 C4 1_555 1_555
H11 C4 1_555 1_555
C10 C11 1_555 1_555
C12 C13 1_555 1_555

#END
