
#######################################################################
#
#                 Cambridge Crystallographic Data Centre
#                                CCDC 
#
#######################################################################
#
# If this CIF has been generated from an entry in the Cambridge 
# Structural Database, then it will include bibliographic, chemical, 
# crystal, experimental, refinement or atomic coordinate data resulting 
# from the CCDC's data processing and validation procedures.
#
#######################################################################

data_HUCTUW
_chemical_formula_moiety         'C4 H2 N6 O4,2(C2 H6 O1 S1)'
_chemical_name_systematic        
'3,6-dinitro-1,4-dihydropyrazolo[4,3-c]pyrazole dimethyl sulfoxide solvate'
_symmetry_cell_setting           monoclinic
_symmetry_space_group_name_H-M   'P 21/n'
_symmetry_Int_Tables_number      14
_space_group_name_Hall           '-P 2yn'
loop_
_symmetry_equiv_pos_site_id
_symmetry_equiv_pos_as_xyz
1 x,y,z
2 1/2-x,1/2+y,1/2-z
3 -x,-y,-z
4 1/2+x,1/2-y,1/2+z
_cell_length_a                   4.6473(2)
_cell_length_b                   15.1140(7)
_cell_length_c                   10.9532(5)
_cell_angle_alpha                90
_cell_angle_beta                 101.7780(10)
_cell_angle_gamma                90
_cell_volume                     753.147
_cell_formula_units_Z            2
loop_
_atom_site_label
_atom_site_type_symbol
_atom_site_fract_x
_atom_site_fract_y
_atom_site_fract_z
S1 S 0.66765(6) 0.21472(2) 0.14769(3)
O1 O 0.4782(2) 0.28722(6) 0.07588(9)
C1 C 0.5701(3) 0.21278(8) 0.29646(12)
H1 H 0.6448 0.2662 0.3430
H2 H 0.6562 0.1604 0.3427
H3 H 0.3557 0.2106 0.2857
C2 C 0.5002(3) 0.11327(9) 0.08818(13)
H4 H 0.2935 0.1132 0.0955
H5 H 0.6028 0.0637 0.1360
H6 H 0.5121 0.1071 0.0003
O2 O 1.0670(2) 0.37571(6) 0.26988(8)
O3 O 1.4707(2) 0.44826(6) 0.34155(9)
N1 N 1.2538(2) 0.43184(7) 0.26067(9)
N2 N 1.3743(2) 0.54828(6) 0.12926(9)
N3 N 1.2637(2) 0.57992(6) 0.01414(9)
H7 H 1.3367 0.6250 -0.0203
C3 C 1.2024(2) 0.48062(8) 0.14623(10)
C4 C 1.0240(2) 0.53257(7) -0.04124(10)
O2B O 0.9330(2) 0.62429(6) -0.26988(8)
O3B O 0.5293(2) 0.55174(6) -0.34155(9)
N1B N 0.7462(2) 0.56816(7) -0.26067(9)
N2B N 0.6257(2) 0.45172(6) -0.12926(9)
N3B N 0.7363(2) 0.42008(6) -0.01414(9)
H7B H 0.6633 0.3750 0.0203
C3B C 0.7976(2) 0.51938(8) -0.14623(10)
C4B C 0.9760(2) 0.46743(7) 0.04124(10)
loop_
_geom_bond_atom_site_label_1
_geom_bond_atom_site_label_2
_geom_bond_site_symmetry_1
_geom_bond_site_symmetry_2
S1 O1 1_555 1_555
C1 S1 1_555 1_555
H1 C1 1_555 1_555
H2 C1 1_555 1_555
H3 C1 1_555 1_555
C2 S1 1_555 1_555
H4 C2 1_555 1_555
H5 C2 1_555 1_555
H6 C2 1_555 1_555
O2 N1 1_555 1_555
O3 N1 1_555 1_555
N1 C3 1_555 1_555
N2 N3 1_555 1_555
N3 H7 1_555 1_555
C3 N2 1_555 1_555
C4 N3 1_555 1_555
O2B N1B 1_555 1_555
O3B N1B 1_555 1_555
N1B C3B 1_555 1_555
N2B N3B 1_555 1_555
N3B H7B 1_555 1_555
C3B C4 1_555 1_555
C4B C3 1_555 1_555
C4 C4B 1_555 1_555
N2B C3B 1_555 1_555
N3B C4B 1_555 1_555

#END
