
#######################################################################
#
#                 Cambridge Crystallographic Data Centre
#                                CCDC 
#
#######################################################################
#
# If this CIF has been generated from an entry in the Cambridge 
# Structural Database, then it will include bibliographic, chemical, 
# crystal, experimental, refinement or atomic coordinate data resulting 
# from the CCDC's data processing and validation procedures.
#
#######################################################################

data_HUDDUF
_chemical_formula_moiety         'C21 H17 F3 O9 S1'
_chemical_name_systematic        
2,3-Di-O-benzoyl-4-O-trifluoromethanesulfonyl-\b-L-gulopyranose
_symmetry_cell_setting           monoclinic
_symmetry_space_group_name_H-M   'P 21'
_symmetry_Int_Tables_number      4
_space_group_name_Hall           'P 2yb'
loop_
_symmetry_equiv_pos_site_id
_symmetry_equiv_pos_as_xyz
1 x,y,z
2 -x,1/2+y,-z
_cell_length_a                   5.7578(6)
_cell_length_b                   16.016(3)
_cell_length_c                   11.9800(15)
_cell_angle_alpha                90
_cell_angle_beta                 94.765(9)
_cell_angle_gamma                90
_cell_volume                     1100.94
_exptl_crystal_colour            colorless
_chemical_melting_point          148-149deg.C
_cell_formula_units_Z            2
_exptl_crystal_recrystallization_method chloroform/hexane
loop_
_atom_site_label
_atom_site_type_symbol
_atom_site_fract_x
_atom_site_fract_y
_atom_site_fract_z
S1 S 0.97317(13) 0.39754 0.12513(6)
F1 F 0.9056(5) 0.4875(2) -0.0515(2)
F2 F 0.6568(4) 0.5083(2) 0.0687(2)
F3 F 0.9977(6) 0.5577(2) 0.0960(2)
O1 O 0.5623(3) 0.5055(2) 0.5571(2)
O2 O 0.6455(3) 0.5509(2) 0.3290(2)
O3 O 0.9347(3) 0.4169(2) 0.2491(2)
O4 O 0.4648(4) 0.3165(2) 0.3908(2)
O5 O 0.7402(4) 0.3366(2) 0.5347(2)
O6 O 0.1971(4) 0.4921(2) 0.6066(2)
O7 O 0.9912(5) 0.6035(2) 0.3919(3)
O8 O 0.8209(5) 0.3355(2) 0.0814(2)
O9 O 1.2145(4) 0.3932(2) 0.1178(2)
C1 C 0.5158(6) 0.3611(2) 0.4918(3)
C2 C 0.5075(5) 0.4534(2) 0.4617(2)
C3 C 0.6971(5) 0.4720(2) 0.3838(2)
C4 C 0.7045(5) 0.4057(2) 0.2951(2)
C5 C 0.6838(6) 0.3183(2) 0.3424(3)
C6 C 0.8541(6) 0.3010(3) 0.4433(3)
C7 C 0.3883(5) 0.5216(2) 0.6231(3)
C8 C 0.4686(6) 0.5780(2) 0.7161(2)
C9 C 0.6797(6) 0.6199(3) 0.7200(3)
C10 C 0.7453(6) 0.6729(3) 0.8084(3)
C11 C 0.6018(7) 0.6836(3) 0.8936(3)
C12 C 0.3933(8) 0.6415(3) 0.8906(3)
C13 C 0.3254(6) 0.5893(3) 0.8028(3)
C14 C 0.8046(6) 0.6128(2) 0.3414(3)
C15 C 0.7253(6) 0.6898(2) 0.2822(3)
C16 C 0.8805(6) 0.7553(2) 0.2805(3)
C17 C 0.8165(8) 0.8284(3) 0.2256(3)
C18 C 0.5996(8) 0.8355(3) 0.1707(3)
C19 C 0.4423(7) 0.7709(3) 0.1713(3)
C20 C 0.5046(6) 0.6979(3) 0.2277(3)
C21 C 0.8765(7) 0.4946(3) 0.0558(3)
H1 H 0.399 0.348 0.547
H2 H 0.351 0.468 0.425
H3 H 0.852 0.476 0.428
H4 H 0.577 0.415 0.234
H5 H 0.692 0.275 0.283
H6 H 1.009 0.328 0.436
H7 H 0.878 0.240 0.455
H8 H 0.785 0.612 0.659
H9 H 0.897 0.704 0.810
H10 H 0.649 0.722 0.957
H11 H 0.291 0.648 0.953
H12 H 0.173 0.559 0.802
H13 H 1.041 0.750 0.319
H14 H 0.927 0.877 0.227
H15 H 0.556 0.888 0.129
H16 H 0.284 0.777 0.131
H17 H 0.389 0.651 0.228
loop_
_geom_bond_atom_site_label_1
_geom_bond_atom_site_label_2
_geom_bond_site_symmetry_1
_geom_bond_site_symmetry_2
S1 O3 1_555 1_555
F1 C21 1_555 1_555
F2 C21 1_555 1_555
F3 C21 1_555 1_555
O1 C2 1_555 1_555
O2 C3 1_555 1_555
O3 C4 1_555 1_555
O4 C1 1_555 1_555
O5 C1 1_555 1_555
O6 C7 1_555 1_555
O7 C14 1_555 1_555
O8 S1 1_555 1_555
O9 S1 1_555 1_555
C1 C2 1_555 1_555
C2 C3 1_555 1_555
C3 C4 1_555 1_555
C4 C5 1_555 1_555
C5 O4 1_555 1_555
C6 O5 1_555 1_555
C7 O1 1_555 1_555
C8 C7 1_555 1_555
C9 C8 1_555 1_555
C10 C9 1_555 1_555
C11 C10 1_555 1_555
C12 C11 1_555 1_555
C13 C8 1_555 1_555
C14 O2 1_555 1_555
C15 C14 1_555 1_555
C16 C15 1_555 1_555
C17 C16 1_555 1_555
C18 C17 1_555 1_555
C19 C18 1_555 1_555
C20 C15 1_555 1_555
C21 S1 1_555 1_555
H1 C1 1_555 1_555
H2 C2 1_555 1_555
H3 C3 1_555 1_555
H4 C4 1_555 1_555
H5 C5 1_555 1_555
H6 C6 1_555 1_555
H7 C6 1_555 1_555
H8 C9 1_555 1_555
H9 C10 1_555 1_555
H10 C11 1_555 1_555
H11 C12 1_555 1_555
H12 C13 1_555 1_555
H13 C16 1_555 1_555
H14 C17 1_555 1_555
H15 C18 1_555 1_555
H16 C19 1_555 1_555
H17 C20 1_555 1_555
C5 C6 1_555 1_555
C12 C13 1_555 1_555
C19 C20 1_555 1_555

#END
