
#######################################################################
#
#                 Cambridge Crystallographic Data Centre
#                                CCDC 
#
#######################################################################
#
# If this CIF has been generated from an entry in the Cambridge 
# Structural Database, then it will include bibliographic, chemical, 
# crystal, experimental, refinement or atomic coordinate data resulting 
# from the CCDC's data processing and validation procedures.
#
#######################################################################

data_HUDMUQ
_chemical_name_common            
'convex-convex anti-[2,2](1,4)subphthalocyaninophane unknown solvate'
_chemical_formula_moiety         'C64 H22 B2 F16 N12 O2'
_chemical_name_systematic        
'convex-convex anti-(\m-[2,2](1,4)di(8,9,10,11,15,16,17,18-octafluorosubphthalocyaninato)cyclohexaphane)-bis(phenolato)-di-boron unknown solvate'
_symmetry_cell_setting           monoclinic
_symmetry_space_group_name_H-M   'P 21/n'
_symmetry_Int_Tables_number      14
_space_group_name_Hall           '-P 2yn'
loop_
_symmetry_equiv_pos_site_id
_symmetry_equiv_pos_as_xyz
1 x,y,z
2 1/2-x,1/2+y,1/2-z
3 -x,-y,-z
4 1/2+x,1/2-y,1/2+z
_cell_length_a                   11.751(2)
_cell_length_b                   22.522(4)
_cell_length_c                   25.299(4)
_cell_angle_alpha                90
_cell_angle_beta                 93.888(2)
_cell_angle_gamma                90
_cell_volume                     6680.12
_exptl_crystal_colour            purple
_exptl_crystal_description       prism
_cell_formula_units_Z            4
_exptl_crystal_recrystallization_method chloroform/hexane
loop_
_atom_site_label
_atom_site_type_symbol
_atom_site_fract_x
_atom_site_fract_y
_atom_site_fract_z
N1 N 0.43062(12) 0.43403(7) 0.28822(5)
C1 C 0.51914(14) 0.47260(8) 0.29366(7)
C2 C 0.54167(15) 0.49033(8) 0.24008(7)
C3 C 0.62191(15) 0.52707(8) 0.22008(7)
F1 F 0.70864(9) 0.54965(5) 0.25134(4)
C4 C 0.61538(16) 0.54004(8) 0.16689(7)
F2 F 0.69324(10) 0.57524(5) 0.14644(4)
C5 C 0.52932(15) 0.51569(8) 0.13283(7)
F3 F 0.52809(9) 0.52800(5) 0.08094(4)
C6 C 0.44742(15) 0.47948(8) 0.15196(7)
F4 F 0.36540(9) 0.45722(5) 0.11813(4)
C7 C 0.45193(14) 0.46597(8) 0.20552(7)
C8 C 0.37703(15) 0.43315(8) 0.23839(6)
N2 N 0.26834(12) 0.41573(6) 0.22865(5)
N3 N 0.25687(12) 0.40548(6) 0.32215(5)
C9 C 0.20872(15) 0.40536(7) 0.27110(6)
C10 C 0.08672(15) 0.40735(8) 0.27640(7)
C11 C -0.00601(15) 0.40713(8) 0.23923(7)
F5 F 0.00753(9) 0.39907(5) 0.18768(4)
C12 C -0.11376(16) 0.41517(8) 0.25606(8)
F6 F -0.20474(9) 0.41535(5) 0.22088(5)
C13 C -0.13115(16) 0.42326(9) 0.30953(8)
F7 F -0.23766(9) 0.42861(6) 0.32431(5)
C14 C -0.03981(16) 0.42456(9) 0.34673(7)
F8 F -0.05932(9) 0.43315(6) 0.39785(4)
C15 C 0.06921(15) 0.41632(8) 0.33096(7)
C16 C 0.18156(15) 0.41945(8) 0.35887(7)
N4 N 0.21302(12) 0.44316(7) 0.40654(6)
N5 N 0.40230(12) 0.44772(7) 0.37908(5)
C17 C 0.32253(15) 0.46046(8) 0.41409(7)
C18 C 0.37261(15) 0.50624(8) 0.44906(7)
C19 C 0.33856(15) 0.52975(9) 0.49712(7)
C20 C 0.26412(16) 0.49439(10) 0.53168(7)
H1 H 0.1918 0.4844 0.5113
H2 H 0.2454 0.5190 0.5624
C21 C 0.39955(17) 0.57974(9) 0.51513(7)
H3 H 0.3708 0.6028 0.5427
C22 C 0.50091(17) 0.59707(9) 0.49425(7)
H4 H 0.5386 0.6317 0.5079
C23 C 0.54909(16) 0.56541(9) 0.45407(7)
C24 C 0.67587(17) 0.56511(9) 0.44746(7)
H5 H 0.7114 0.5992 0.4670
H6 H 0.6890 0.5702 0.4095
C25 C 0.47669(15) 0.52363(8) 0.42836(7)
C26 C 0.49025(15) 0.48749(8) 0.38134(7)
N6 N 0.55485(12) 0.49742(7) 0.34042(5)
B1 B 0.38384(17) 0.40379(9) 0.33475(7)
O1 O 0.43912(10) 0.34730(6) 0.34269(4)
C27 C 0.42816(16) 0.31080(8) 0.38556(6)
C28 C 0.32391(16) 0.29564(8) 0.40412(7)
H7 H 0.2556 0.3121 0.3880
C29 C 0.31914(18) 0.25634(9) 0.44637(8)
H8 H 0.2475 0.2464 0.4593
C30 C 0.41798(18) 0.23161(9) 0.46975(7)
H9 H 0.4143 0.2047 0.4985
C31 C 0.52229(18) 0.24638(9) 0.45089(7)
H10 H 0.5903 0.2294 0.4667
C32 C 0.52810(16) 0.28586(8) 0.40893(7)
H11 H 0.5999 0.2958 0.3962
N1B N 0.56938(12) 0.56597(7) 0.71178(5)
C1B C 0.48086(14) 0.52740(8) 0.70634(7)
C2B C 0.45833(15) 0.50967(8) 0.75992(7)
C3B C 0.37809(15) 0.47293(8) 0.77992(7)
F1B F 0.29136(9) 0.45035(5) 0.74866(4)
C4B C 0.38462(16) 0.45996(8) 0.83311(7)
F2B F 0.30676(10) 0.42476(5) 0.85356(4)
C5B C 0.47068(15) 0.48431(8) 0.86717(7)
F3B F 0.47191(9) 0.47200(5) 0.91906(4)
C6B C 0.55258(15) 0.52052(8) 0.84804(7)
F4B F 0.63460(9) 0.54278(5) 0.88187(4)
C7B C 0.54807(14) 0.53403(8) 0.79448(7)
C8B C 0.62297(15) 0.56685(8) 0.76161(6)
N2B N 0.73166(12) 0.58427(6) 0.77135(5)
N3B N 0.74313(12) 0.59452(6) 0.67785(5)
C9B C 0.79128(15) 0.59464(7) 0.72890(6)
C10B C 0.91328(15) 0.59265(8) 0.72360(7)
C11B C 1.00601(15) 0.59287(8) 0.76077(7)
F5B F 0.99247(9) 0.60093(5) 0.81232(4)
C12B C 1.11376(16) 0.58483(8) 0.74394(8)
F6B F 1.20474(9) 0.58465(5) 0.77912(5)
C13B C 1.13115(16) 0.57674(9) 0.69047(8)
F7B F 1.23766(9) 0.57139(6) 0.67569(5)
C14B C 1.03981(16) 0.57544(9) 0.65327(7)
F8B F 1.05932(9) 0.56685(6) 0.60215(4)
C15B C 0.93079(15) 0.58368(8) 0.66904(7)
C16B C 0.81844(15) 0.58055(8) 0.64113(7)
N4B N 0.78698(12) 0.55684(7) 0.59346(6)
N5B N 0.59770(12) 0.55228(7) 0.62092(5)
C17B C 0.67747(15) 0.53954(8) 0.58591(7)
C18B C 0.62739(15) 0.49376(8) 0.55094(7)
C19B C 0.66144(15) 0.47025(9) 0.50288(7)
C20B C 0.73588(16) 0.50561(10) 0.46832(7)
H1B H 0.8082 0.5156 0.4887
H2B H 0.7546 0.4810 0.4376
C21B C 0.60045(17) 0.42026(9) 0.48487(7)
H3B H 0.6292 0.3972 0.4573
C22B C 0.49909(17) 0.40293(9) 0.50575(7)
H4B H 0.4614 0.3683 0.4921
C23B C 0.45091(16) 0.43459(9) 0.54593(7)
C24B C 0.32413(17) 0.43489(9) 0.55254(7)
H5B H 0.2886 0.4008 0.5330
H6B H 0.3110 0.4298 0.5905
C25B C 0.52331(15) 0.47637(8) 0.57164(7)
C26B C 0.50975(15) 0.51251(8) 0.61866(7)
N6B N 0.44515(12) 0.50258(7) 0.65958(5)
B1B B 0.61616(17) 0.59621(9) 0.66525(7)
O1B O 0.56088(10) 0.65270(6) 0.65731(4)
C27B C 0.57184(16) 0.68920(8) 0.61444(6)
C28B C 0.67609(16) 0.70436(8) 0.59588(7)
H7B H 0.7444 0.6879 0.6120
C29B C 0.68086(18) 0.74366(9) 0.55363(8)
H8B H 0.7525 0.7536 0.5407
C30B C 0.58202(18) 0.76839(9) 0.53025(7)
H9B H 0.5857 0.7953 0.5015
C31B C 0.47771(18) 0.75362(9) 0.54911(7)
H10B H 0.4097 0.7706 0.5333
C32B C 0.47190(16) 0.71414(8) 0.59107(7)
H11B H 0.4001 0.7042 0.6038
N7 N 0.39511(12) 0.14781(6) 0.32871(5)
C33 C 0.51024(14) 0.14865(7) 0.33917(6)
C34 C 0.55033(15) 0.19523(8) 0.30534(6)
C35 C 0.65825(15) 0.21730(8) 0.29738(7)
F9 F 0.75233(9) 0.19175(5) 0.31993(4)
C36 C 0.66875(16) 0.26654(8) 0.26584(8)
F10 F 0.77260(9) 0.28843(5) 0.25773(5)
C37 C 0.57269(16) 0.29449(8) 0.24210(7)
F11 F 0.58628(10) 0.34321(5) 0.21292(5)
C38 C 0.46530(16) 0.27305(8) 0.24923(7)
F12 F 0.37424(9) 0.30124(5) 0.22642(4)
C39 C 0.45231(15) 0.22357(8) 0.28058(6)
C40 C 0.35243(15) 0.19467(8) 0.29950(6)
N8 N 0.24310(12) 0.21190(7) 0.30008(5)
N9 N 0.21535(12) 0.13394(6) 0.36188(5)
C41 C 0.17892(15) 0.18368(8) 0.33425(7)
C42 C 0.07738(15) 0.20259(8) 0.35893(7)
C43 C 0.00147(16) 0.24952(8) 0.34915(7)
F13 F 0.01037(9) 0.28489(5) 0.30716(4)
C44 C -0.08260(16) 0.25893(9) 0.38288(8)
F14 F -0.15896(10) 0.30315(5) 0.37343(5)
C45 C -0.09522(16) 0.22274(9) 0.42655(8)
F15 F -0.18111(10) 0.23319(6) 0.45742(5)
C46 C -0.02015(16) 0.17651(9) 0.43783(7)
F16 F -0.03344(9) 0.14275(5) 0.48057(4)
C47 C 0.06579(15) 0.16582(8) 0.40455(7)
C48 C 0.16179(15) 0.12512(8) 0.40720(7)
N10 N 0.20901(12) 0.09515(6) 0.44931(6)
N11 N 0.37815(12) 0.08770(6) 0.40343(5)
C49 C 0.31952(15) 0.08050(7) 0.44764(7)
C50 C 0.40535(15) 0.06898(8) 0.49081(7)
C51 C 0.39484(15) 0.04743(8) 0.54204(7)
C52 C 0.29058(16) 0.01313(8) 0.55563(7)
H12 H 0.2219 0.0377 0.5471
H13 H 0.2952 0.0052 0.5942
C53 C 0.49571(16) 0.04756(8) 0.57460(7)
H14 H 0.4916 0.0413 0.6116
C54 C 0.60208(16) 0.05646(8) 0.55485(7)
H15 H 0.6679 0.0565 0.5788
C55 C 0.61540(15) 0.06544(8) 0.50070(7)
C56 C 0.72274(15) 0.04815(8) 0.47540(7)
H16 H 0.7860 0.0448 0.5032
H17 H 0.7428 0.0797 0.4504
C57 C 0.51407(15) 0.07755(7) 0.47001(7)
C58 C 0.49324(14) 0.09326(7) 0.41431(6)
N12 N 0.56203(12) 0.11938(6) 0.38059(5)
B2 B 0.32211(17) 0.10073(9) 0.35011(8)
O2 O 0.30773(11) 0.04895(5) 0.31726(5)
C59 C 0.30169(18) 0.05868(8) 0.26299(7)
C60 C 0.3998(2) 0.05425(9) 0.23593(9)
H18 H 0.4704 0.0441 0.2542
C61 C 0.3935(3) 0.06504(11) 0.18097(10)
H19 H 0.4600 0.0618 0.1618
C62 C 0.2902(3) 0.08043(12) 0.15504(10)
H20 H 0.2861 0.0881 0.1180
C63 C 0.1935(3) 0.08476(11) 0.18244(10)
H21 H 0.1229 0.0952 0.1643
C64 C 0.1990(2) 0.07399(9) 0.23630(8)
H22 H 0.1320 0.0771 0.2551
N7B N 0.60489(12) -0.14781(6) 0.67129(5)
C33B C 0.48976(14) -0.14865(7) 0.66083(6)
C34B C 0.44967(15) -0.19523(8) 0.69466(6)
C35B C 0.34175(15) -0.21730(8) 0.70262(7)
F9B F 0.24767(9) -0.19175(5) 0.68007(4)
C36B C 0.33125(16) -0.26654(8) 0.73416(8)
F10B F 0.22740(9) -0.28843(5) 0.74227(5)
C37B C 0.42731(16) -0.29449(8) 0.75790(7)
F11B F 0.41372(10) -0.34321(5) 0.78708(5)
C38B C 0.53470(16) -0.27305(8) 0.75077(7)
F12B F 0.62576(9) -0.30124(5) 0.77358(4)
C39B C 0.54769(15) -0.22357(8) 0.71942(6)
C40B C 0.64757(15) -0.19467(8) 0.70050(6)
N8B N 0.75690(12) -0.21190(7) 0.69992(5)
N9B N 0.78465(12) -0.13394(6) 0.63812(5)
C41B C 0.82108(15) -0.18368(8) 0.66575(7)
C42B C 0.92262(15) -0.20259(8) 0.64107(7)
C43B C 0.99853(16) -0.24952(8) 0.65085(7)
F13B F 0.98963(9) -0.28489(5) 0.69284(4)
C44B C 1.08260(16) -0.25893(9) 0.61712(8)
F14B F 1.15896(10) -0.30315(5) 0.62657(5)
C45B C 1.09522(16) -0.22274(9) 0.57345(8)
F15B F 1.18111(10) -0.23319(6) 0.54258(5)
C46B C 1.02015(16) -0.17651(9) 0.56217(7)
F16B F 1.03344(9) -0.14275(5) 0.51943(4)
C47B C 0.93421(15) -0.16582(8) 0.59545(7)
C48B C 0.83821(15) -0.12512(8) 0.59280(7)
N10B N 0.79099(12) -0.09515(6) 0.55069(6)
N11B N 0.62185(12) -0.08770(6) 0.59657(5)
C49B C 0.68048(15) -0.08050(7) 0.55236(7)
C50B C 0.59465(15) -0.06898(8) 0.50919(7)
C51B C 0.60516(15) -0.04743(8) 0.45796(7)
C52B C 0.70942(16) -0.01313(8) 0.44437(7)
H12B H 0.7781 -0.0377 0.4529
H13B H 0.7048 -0.0052 0.4058
C53B C 0.50429(16) -0.04756(8) 0.42540(7)
H14B H 0.5084 -0.0413 0.3884
C54B C 0.39792(16) -0.05646(8) 0.44515(7)
H15B H 0.3321 -0.0565 0.4212
C55B C 0.38460(15) -0.06544(8) 0.49930(7)
C56B C 0.27726(15) -0.04815(8) 0.52460(7)
H16B H 0.2140 -0.0448 0.4968
H17B H 0.2572 -0.0797 0.5496
C57B C 0.48593(15) -0.07755(7) 0.52999(7)
C58B C 0.50676(14) -0.09326(7) 0.58569(6)
N12B N 0.43797(12) -0.11938(6) 0.61941(5)
B2B B 0.67789(17) -0.10073(9) 0.64989(8)
O2B O 0.69227(11) -0.04895(5) 0.68274(5)
C59B C 0.69831(18) -0.05868(8) 0.73701(7)
C60B C 0.6002(2) -0.05425(9) 0.76407(9)
H18B H 0.5296 -0.0441 0.7458
C61B C 0.6065(3) -0.06504(11) 0.81903(10)
H19B H 0.5400 -0.0618 0.8382
C62B C 0.7098(3) -0.08043(12) 0.84496(10)
H20B H 0.7139 -0.0881 0.8820
C63B C 0.8065(3) -0.08476(11) 0.81756(10)
H21B H 0.8771 -0.0952 0.8357
C64B C 0.8010(2) -0.07399(9) 0.76370(8)
H22B H 0.8680 -0.0771 0.7449
loop_
_geom_bond_atom_site_label_1
_geom_bond_atom_site_label_2
_geom_bond_site_symmetry_1
_geom_bond_site_symmetry_2
N1 C1 1_555 1_555
C1 C2 1_555 1_555
C2 C3 1_555 1_555
C3 F1 1_555 1_555
C4 C3 1_555 1_555
F2 C4 1_555 1_555
C5 C4 1_555 1_555
F3 C5 1_555 1_555
C6 C5 1_555 1_555
F4 C6 1_555 1_555
C7 C2 1_555 1_555
C8 N1 1_555 1_555
N2 C8 1_555 1_555
N3 C9 1_555 1_555
C9 N2 1_555 1_555
C10 C9 1_555 1_555
C11 C10 1_555 1_555
F5 C11 1_555 1_555
C12 C11 1_555 1_555
F6 C12 1_555 1_555
C13 C12 1_555 1_555
F7 C13 1_555 1_555
C14 C13 1_555 1_555
F8 C14 1_555 1_555
C15 C10 1_555 1_555
C16 N3 1_555 1_555
N4 C16 1_555 1_555
N5 C17 1_555 1_555
C17 N4 1_555 1_555
C18 C17 1_555 1_555
C19 C18 1_555 1_555
C20 C19 1_555 1_555
H1 C20 1_555 1_555
H2 C20 1_555 1_555
C21 C19 1_555 1_555
H3 C21 1_555 1_555
C22 C21 1_555 1_555
H4 C22 1_555 1_555
C23 C22 1_555 1_555
C24 C23 1_555 1_555
H5 C24 1_555 1_555
H6 C24 1_555 1_555
C25 C18 1_555 1_555
C26 N5 1_555 1_555
N6 C1 1_555 1_555
B1 N1 1_555 1_555
O1 B1 1_555 1_555
C27 O1 1_555 1_555
C28 C27 1_555 1_555
H7 C28 1_555 1_555
C29 C28 1_555 1_555
H8 C29 1_555 1_555
C30 C29 1_555 1_555
H9 C30 1_555 1_555
C31 C30 1_555 1_555
H10 C31 1_555 1_555
C32 C27 1_555 1_555
H11 C32 1_555 1_555
N7 C33 1_555 1_555
C33 C34 1_555 1_555
C34 C35 1_555 1_555
C35 F9 1_555 1_555
C36 C35 1_555 1_555
F10 C36 1_555 1_555
C37 C36 1_555 1_555
F11 C37 1_555 1_555
C38 C37 1_555 1_555
F12 C38 1_555 1_555
C39 C34 1_555 1_555
C40 N7 1_555 1_555
N8 C40 1_555 1_555
N9 C41 1_555 1_555
C41 N8 1_555 1_555
C42 C41 1_555 1_555
C43 C42 1_555 1_555
F13 C43 1_555 1_555
C44 C43 1_555 1_555
F14 C44 1_555 1_555
C45 C44 1_555 1_555
F15 C45 1_555 1_555
C46 C45 1_555 1_555
F16 C46 1_555 1_555
C47 C42 1_555 1_555
C48 N9 1_555 1_555
N10 C48 1_555 1_555
N11 C49 1_555 1_555
C49 N10 1_555 1_555
C50 C49 1_555 1_555
C51 C50 1_555 1_555
C52 C51 1_555 1_555
H12 C52 1_555 1_555
H13 C52 1_555 1_555
C53 C51 1_555 1_555
H14 C53 1_555 1_555
C54 C53 1_555 1_555
H15 C54 1_555 1_555
C55 C54 1_555 1_555
C56 C55 1_555 1_555
H16 C56 1_555 1_555
H17 C56 1_555 1_555
C57 C50 1_555 1_555
C58 N11 1_555 1_555
N12 C33 1_555 1_555
B2 N7 1_555 1_555
O2 B2 1_555 1_555
C59 O2 1_555 1_555
C60 C59 1_555 1_555
H18 C60 1_555 1_555
C61 C60 1_555 1_555
H19 C61 1_555 1_555
C62 C61 1_555 1_555
H20 C62 1_555 1_555
C63 C62 1_555 1_555
H21 C63 1_555 1_555
C64 C59 1_555 1_555
H22 C64 1_555 1_555
N1B C1B 1_555 1_555
C1B C2B 1_555 1_555
C2B C3B 1_555 1_555
C3B F1B 1_555 1_555
C4B C3B 1_555 1_555
F2B C4B 1_555 1_555
C5B C4B 1_555 1_555
F3B C5B 1_555 1_555
C6B C5B 1_555 1_555
F4B C6B 1_555 1_555
C7B C2B 1_555 1_555
C8B N1B 1_555 1_555
N2B C8B 1_555 1_555
N3B C9B 1_555 1_555
C9B N2B 1_555 1_555
C10B C9B 1_555 1_555
C11B C10B 1_555 1_555
F5B C11B 1_555 1_555
C12B C11B 1_555 1_555
F6B C12B 1_555 1_555
C13B C12B 1_555 1_555
F7B C13B 1_555 1_555
C14B C13B 1_555 1_555
F8B C14B 1_555 1_555
C15B C10B 1_555 1_555
C16B N3B 1_555 1_555
N4B C16B 1_555 1_555
N5B C17B 1_555 1_555
C17B N4B 1_555 1_555
C18B C17B 1_555 1_555
C19B C18B 1_555 1_555
C20B C24 1_555 1_555
H1B C20B 1_555 1_555
H2B C20B 1_555 1_555
C21B C19B 1_555 1_555
H3B C21B 1_555 1_555
C22B C21B 1_555 1_555
H4B C22B 1_555 1_555
C23B C22B 1_555 1_555
C24B C20 1_555 1_555
H5B C24B 1_555 1_555
H6B C24B 1_555 1_555
C25B C18B 1_555 1_555
C26B N5B 1_555 1_555
N6B C1B 1_555 1_555
B1B N1B 1_555 1_555
O1B B1B 1_555 1_555
C27B O1B 1_555 1_555
C28B C27B 1_555 1_555
H7B C28B 1_555 1_555
C29B C28B 1_555 1_555
H8B C29B 1_555 1_555
C30B C29B 1_555 1_555
H9B C30B 1_555 1_555
C31B C30B 1_555 1_555
H10B C31B 1_555 1_555
C32B C27B 1_555 1_555
H11B C32B 1_555 1_555
N7B C33B 1_555 1_555
C33B C34B 1_555 1_555
C34B C35B 1_555 1_555
C35B F9B 1_555 1_555
C36B C35B 1_555 1_555
F10B C36B 1_555 1_555
C37B C36B 1_555 1_555
F11B C37B 1_555 1_555
C38B C37B 1_555 1_555
F12B C38B 1_555 1_555
C39B C34B 1_555 1_555
C40B N7B 1_555 1_555
N8B C40B 1_555 1_555
N9B C41B 1_555 1_555
C41B N8B 1_555 1_555
C42B C41B 1_555 1_555
C43B C42B 1_555 1_555
F13B C43B 1_555 1_555
C44B C43B 1_555 1_555
F14B C44B 1_555 1_555
C45B C44B 1_555 1_555
F15B C45B 1_555 1_555
C46B C45B 1_555 1_555
F16B C46B 1_555 1_555
C47B C42B 1_555 1_555
C48B N9B 1_555 1_555
N10B C48B 1_555 1_555
N11B C49B 1_555 1_555
C49B N10B 1_555 1_555
C50B C49B 1_555 1_555
C51B C50B 1_555 1_555
C52B C56 1_555 1_555
H12B C52B 1_555 1_555
H13B C52B 1_555 1_555
C53B C51B 1_555 1_555
H14B C53B 1_555 1_555
C54B C53B 1_555 1_555
H15B C54B 1_555 1_555
C55B C54B 1_555 1_555
C56B C52 1_555 1_555
H16B C56B 1_555 1_555
H17B C56B 1_555 1_555
C57B C50B 1_555 1_555
C58B N11B 1_555 1_555
N12B C33B 1_555 1_555
B2B N7B 1_555 1_555
O2B B2B 1_555 1_555
C59B O2B 1_555 1_555
C60B C59B 1_555 1_555
H18B C60B 1_555 1_555
C61B C60B 1_555 1_555
H19B C61B 1_555 1_555
C62B C61B 1_555 1_555
H20B C62B 1_555 1_555
C63B C62B 1_555 1_555
H21B C63B 1_555 1_555
C64B C59B 1_555 1_555
H22B C64B 1_555 1_555
C6 C7 1_555 1_555
C7 C8 1_555 1_555
N3 B1 1_555 1_555
C14 C15 1_555 1_555
C15 C16 1_555 1_555
N5 B1 1_555 1_555
C23 C25 1_555 1_555
C25 C26 1_555 1_555
C26 N6 1_555 1_555
C31 C32 1_555 1_555
C38 C39 1_555 1_555
C39 C40 1_555 1_555
N9 B2 1_555 1_555
C46 C47 1_555 1_555
C47 C48 1_555 1_555
N11 B2 1_555 1_555
C55 C57 1_555 1_555
C57 C58 1_555 1_555
C58 N12 1_555 1_555
C63 C64 1_555 1_555
C6B C7B 1_555 1_555
C7B C8B 1_555 1_555
N3B B1B 1_555 1_555
C14B C15B 1_555 1_555
C15B C16B 1_555 1_555
N5B B1B 1_555 1_555
C19B C20B 1_555 1_555
C23B C24B 1_555 1_555
C23B C25B 1_555 1_555
C25B C26B 1_555 1_555
C26B N6B 1_555 1_555
C31B C32B 1_555 1_555
C38B C39B 1_555 1_555
C39B C40B 1_555 1_555
N9B B2B 1_555 1_555
C46B C47B 1_555 1_555
C47B C48B 1_555 1_555
N11B B2B 1_555 1_555
C51B C52B 1_555 1_555
C55B C56B 1_555 1_555
C55B C57B 1_555 1_555
C57B C58B 1_555 1_555
C58B N12B 1_555 1_555
C63B C64B 1_555 1_555

#END
