
#######################################################################
#
#                 Cambridge Crystallographic Data Centre
#                                CCDC 
#
#######################################################################
#
# If this CIF has been generated from an entry in the Cambridge 
# Structural Database, then it will include bibliographic, chemical, 
# crystal, experimental, refinement or atomic coordinate data resulting 
# from the CCDC's data processing and validation procedures.
#
#######################################################################

data_HUDYAI
_chemical_formula_moiety         'C7 H9 N1 O1,0.5(H2 O1)'
_chemical_name_systematic        '2,6-dimethylpyridin-4(1H)-one hemihydrate'
_symmetry_cell_setting           orthorhombic
_symmetry_space_group_name_H-M   'A b a 2'
_symmetry_Int_Tables_number      41
_space_group_name_Hall           'A 2 -2ab'
loop_
_symmetry_equiv_pos_site_id
_symmetry_equiv_pos_as_xyz
1 x,y,z
2 -x,-y,z
3 1/2+x,1/2-y,z
4 1/2-x,1/2+y,z
5 x,1/2+y,1/2+z
6 -x,1/2-y,1/2+z
7 1/2+x,-y,1/2+z
8 1/2-x,y,1/2+z
_cell_length_a                   12.4859(17)
_cell_length_b                   14.3697(19)
_cell_length_c                   7.7320(10)
_cell_angle_alpha                90
_cell_angle_beta                 90
_cell_angle_gamma                90
_cell_volume                     1387.26
_exptl_crystal_colour            colorless
_exptl_crystal_description       needle
_cell_formula_units_Z            8
loop_
_atom_site_label
_atom_site_type_symbol
_atom_site_fract_x
_atom_site_fract_y
_atom_site_fract_z
O1 O 0.47723(9) 0.33620(8) 0.49203(19)
N1 N 0.16883(11) 0.24949(11) 0.4446(2)
C1 C 0.35308(14) 0.22232(12) 0.3962(2)
H1 H 0.4083 0.1841 0.3504
C2 C 0.24877(14) 0.19343(12) 0.3853(2)
C3 C 0.38007(12) 0.30864(12) 0.4748(2)
C4 C 0.09367(14) 0.39066(13) 0.5690(3)
H2 H 0.0630 0.4210 0.4669
H3 H 0.1158 0.4381 0.6527
H4 H 0.0399 0.3499 0.6218
C5 C 0.18900(13) 0.33399(11) 0.5164(2)
C6 C 0.21576(15) 0.10115(12) 0.3125(3)
H5 H 0.1736 0.0672 0.3988
H6 H 0.2797 0.0650 0.2828
H7 H 0.1724 0.1109 0.2085
C7 C 0.29237(13) 0.36395(12) 0.5339(2)
H8 H 0.3061 0.4226 0.5862
H9 H 0.1043(9) 0.2265(14) 0.444(4)
O2 O 0.5000 0.5000 0.6889(3)
H10 H 0.4956(19) 0.4524(12) 0.621(3)
H10A H 0.5044(19) 0.5476(12) 0.621(3)
loop_
_geom_bond_atom_site_label_1
_geom_bond_atom_site_label_2
_geom_bond_site_symmetry_1
_geom_bond_site_symmetry_2
O1 C3 1_555 1_555
N1 C2 1_555 1_555
C1 H1 1_555 1_555
C2 C1 1_555 1_555
C3 C1 1_555 1_555
C4 H2 1_555 1_555
H3 C4 1_555 1_555
H4 C4 1_555 1_555
C5 N1 1_555 1_555
C6 C2 1_555 1_555
H5 C6 1_555 1_555
H6 C6 1_555 1_555
H7 C6 1_555 1_555
C7 C3 1_555 1_555
H8 C7 1_555 1_555
H9 N1 1_555 1_555
O2 H10 1_555 1_555
H10A O2 1_555 1_555
C4 C5 1_555 1_555
C5 C7 1_555 1_555

#END
