
#######################################################################
#
#                 Cambridge Crystallographic Data Centre
#                                CCDC 
#
#######################################################################
#
# If this CIF has been generated from an entry in the Cambridge 
# Structural Database, then it will include bibliographic, chemical, 
# crystal, experimental, refinement or atomic coordinate data resulting 
# from the CCDC's data processing and validation procedures.
#
#######################################################################

data_HUFDAO
_chemical_formula_moiety         'C13 H11 Cl1 O1'
_chemical_name_systematic        1-(Benzyloxy)-4-chlorobenzene
_symmetry_cell_setting           orthorhombic
_symmetry_space_group_name_H-M   'P n a 21'
_symmetry_Int_Tables_number      33
_space_group_name_Hall           'P 2c -2n'
loop_
_symmetry_equiv_pos_site_id
_symmetry_equiv_pos_as_xyz
1 x,y,z
2 -x,-y,1/2+z
3 1/2+x,1/2-y,z
4 1/2-x,1/2+y,1/2+z
_cell_length_a                   11.485(2)
_cell_length_b                   13.033(3)
_cell_length_c                   7.3333(15)
_cell_angle_alpha                90
_cell_angle_beta                 90
_cell_angle_gamma                90
_cell_volume                     1097.68
_exptl_crystal_colour            colorless
_exptl_crystal_description       block
_cell_formula_units_Z            4
_exptl_crystal_recrystallization_method chloroform
loop_
_atom_site_label
_atom_site_type_symbol
_atom_site_fract_x
_atom_site_fract_y
_atom_site_fract_z
Cl1 Cl 0.76032(5) 0.10633(4) 0.35041(15)
C1 C 0.72273(17) 0.23611(14) 0.3557(3)
C2 C 0.53613(16) 0.69777(14) 0.3347(3)
C3 C 0.62546(18) 0.74952(15) 0.4233(3)
H1 H 0.6896 0.7134 0.4663
C4 C 0.79431(18) 0.30526(17) 0.4443(3)
H2 H 0.8636 0.2833 0.4969
O1 O 0.63588(13) 0.54166(11) 0.3941(3)
C5 C 0.65937(17) 0.43950(15) 0.3727(3)
C6 C 0.6193(2) 0.85449(18) 0.4478(4)
H3 H 0.6791 0.8885 0.5085
C7 C 0.62149(18) 0.26770(16) 0.2733(3)
H4 H 0.5747 0.2206 0.2125
C8 C 0.76238(17) 0.40660(17) 0.4542(3)
H5 H 0.8096 0.4533 0.5153
C9 C 0.58956(18) 0.37006(16) 0.2814(3)
H6 H 0.5213 0.3920 0.2254
C10 C 0.53952(18) 0.58411(16) 0.3009(3)
H7 H 0.4681 0.5527 0.3441
H8 H 0.5464 0.5708 0.1712
C11 C 0.4370(2) 0.85864(19) 0.2956(4)
H9 H 0.3736 0.8953 0.2514
C12 C 0.44145(19) 0.75356(17) 0.2727(3)
H10 H 0.3803 0.7199 0.2151
C13 C 0.5254(2) 0.90919(16) 0.3831(4)
H11 H 0.5221 0.9799 0.3987
loop_
_geom_bond_atom_site_label_1
_geom_bond_atom_site_label_2
_geom_bond_site_symmetry_1
_geom_bond_site_symmetry_2
Cl1 C1 1_555 1_555
C1 C4 1_555 1_555
C2 C3 1_555 1_555
C3 H1 1_555 1_555
C4 H2 1_555 1_555
O1 C5 1_555 1_555
C5 C8 1_555 1_555
C6 C3 1_555 1_555
H3 C6 1_555 1_555
C7 C1 1_555 1_555
H4 C7 1_555 1_555
C8 C4 1_555 1_555
H5 C8 1_555 1_555
C9 C5 1_555 1_555
H6 C9 1_555 1_555
C10 C2 1_555 1_555
H7 C10 1_555 1_555
H8 C10 1_555 1_555
C11 H9 1_555 1_555
C12 C2 1_555 1_555
H10 C12 1_555 1_555
C13 C6 1_555 1_555
H11 C13 1_555 1_555
O1 C10 1_555 1_555
C7 C9 1_555 1_555
C11 C12 1_555 1_555
C11 C13 1_555 1_555

#END
