
#######################################################################
#
#                 Cambridge Crystallographic Data Centre
#                                CCDC 
#
#######################################################################
#
# If this CIF has been generated from an entry in the Cambridge 
# Structural Database, then it will include bibliographic, chemical, 
# crystal, experimental, refinement or atomic coordinate data resulting 
# from the CCDC's data processing and validation procedures.
#
#######################################################################

data_HUFWIP
_chemical_formula_moiety         'C17 H17 Cl1 N2 O3'
_chemical_name_systematic        
N'-[(1E)-1-(5-Chloro-2-hydroxyphenyl)propylidene]-4-methoxybenzohydrazide
_symmetry_cell_setting           monoclinic
_symmetry_space_group_name_H-M   'P 21'
_symmetry_Int_Tables_number      4
_space_group_name_Hall           'P 2yb'
loop_
_symmetry_equiv_pos_site_id
_symmetry_equiv_pos_as_xyz
1 x,y,z
2 -x,1/2+y,-z
_cell_length_a                   8.6313(13)
_cell_length_b                   4.9373(8)
_cell_length_c                   19.610(3)
_cell_angle_alpha                90
_cell_angle_beta                 102.359(3)
_cell_angle_gamma                90
_cell_volume                     816.32
_exptl_crystal_colour            colorless
_exptl_crystal_description       block
_cell_formula_units_Z            2
_exptl_crystal_recrystallization_method dimethylformamide
loop_
_atom_site_label
_atom_site_type_symbol
_atom_site_fract_x
_atom_site_fract_y
_atom_site_fract_z
Cl1 Cl 0.70397(10) 0.5956(2) 0.50973(4)
O1 O 0.5785(2) 0.0599(5) 0.75880(12)
H1 H 0.5050 0.1302 0.7727
O2 O 0.2166(3) 0.0098(4) 0.82097(12)
O3 O -0.3408(3) 0.4662(5) 0.95022(12)
N1 N 0.2158(3) 0.4370(5) 0.78114(13)
H2 H 0.1733 0.5953 0.7763
N2 N 0.3433(3) 0.3712(5) 0.75179(13)
C1 C 0.6042(4) 0.1967(6) 0.70286(16)
C2 C 0.5080(3) 0.4145(6) 0.67236(15)
C3 C 0.5434(3) 0.5345(7) 0.61244(14)
H3 H 0.4814 0.6771 0.5909
C4 C 0.6678(4) 0.4446(7) 0.58540(16)
C5 C 0.7620(4) 0.2322(8) 0.61561(19)
H4 H 0.8454 0.1714 0.5965
C6 C 0.7307(3) 0.1117(8) 0.67442(18)
H5 H 0.7951 -0.0289 0.6956
C7 C 0.3708(3) 0.5104(6) 0.69966(15)
C8 C 0.1611(4) 0.2390(7) 0.81801(16)
C9 C 0.0293(3) 0.3162(6) 0.85165(14)
C10 C -0.0777(4) 0.5202(7) 0.82750(16)
H6 H -0.0642 0.6230 0.7895
C11 C -0.2041(3) 0.5764(7) 0.85793(15)
H7 H -0.2762 0.7119 0.8401
C12 C -0.2215(4) 0.4274(7) 0.91544(15)
C13 C -0.1146(4) 0.2243(7) 0.94116(16)
H8 H -0.1264 0.1251 0.9800
C14 C 0.0089(4) 0.1689(6) 0.90945(15)
H9 H 0.0799 0.0310 0.9268
C15 C 0.2677(3) 0.7379(7) 0.66588(15)
H10 H 0.3300 0.8609 0.6440
H11 H 0.2283 0.8380 0.7012
C16 C 0.1279(4) 0.6325(11) 0.61111(19)
H12 H 0.1665 0.5444 0.5744
H13 H 0.0608 0.7813 0.5921
H14 H 0.0684 0.5056 0.6323
C17 C -0.4560(4) 0.6733(9) 0.9258(2)
H15 H -0.4043 0.8464 0.9289
H16 H -0.5342 0.6742 0.9540
H17 H -0.5065 0.6377 0.8780
loop_
_geom_bond_atom_site_label_1
_geom_bond_atom_site_label_2
_geom_bond_site_symmetry_1
_geom_bond_site_symmetry_2
Cl1 C4 1_555 1_555
O1 H1 1_555 1_555
O2 C8 1_555 1_555
O3 C12 1_555 1_555
N1 H2 1_555 1_555
N2 N1 1_555 1_555
C1 O1 1_555 1_555
C2 C1 1_555 1_555
C3 C2 1_555 1_555
H3 C3 1_555 1_555
C4 C3 1_555 1_555
C5 C4 1_555 1_555
H4 C5 1_555 1_555
C6 C1 1_555 1_555
H5 C6 1_555 1_555
C7 N2 1_555 1_555
C8 N1 1_555 1_555
C9 C8 1_555 1_555
C10 C9 1_555 1_555
H6 C10 1_555 1_555
C11 C10 1_555 1_555
H7 C11 1_555 1_555
C12 C11 1_555 1_555
C13 C12 1_555 1_555
H8 C13 1_555 1_555
C14 C9 1_555 1_555
H9 C14 1_555 1_555
C15 C7 1_555 1_555
H10 C15 1_555 1_555
H11 C15 1_555 1_555
C16 C15 1_555 1_555
H12 C16 1_555 1_555
H13 C16 1_555 1_555
H14 C16 1_555 1_555
C17 O3 1_555 1_555
H15 C17 1_555 1_555
H16 C17 1_555 1_555
H17 C17 1_555 1_555
C2 C7 1_555 1_555
C5 C6 1_555 1_555
C13 C14 1_555 1_555

#END
