
#######################################################################
#
#                 Cambridge Crystallographic Data Centre
#                                CCDC 
#
#######################################################################
#
# If this CIF has been generated from an entry in the Cambridge 
# Structural Database, then it will include bibliographic, chemical, 
# crystal, experimental, refinement or atomic coordinate data resulting 
# from the CCDC's data processing and validation procedures.
#
#######################################################################

data_HUGHIA
_chemical_formula_moiety         'C56 H40 O2 P2,2(C1 H1 Cl3),3(H2 O1)'
_chemical_name_systematic        
"9,9',10,10'-Tetrahydro-9,10,9',10'-biethenobianthracene-11,11'-bis(diphenylphosphine oxide)-12,12'-diyl chloroform solvate trihydrate"
_symmetry_cell_setting           monoclinic
_symmetry_space_group_name_H-M   'P 21/n'
_symmetry_Int_Tables_number      14
_space_group_name_Hall           '-P 2yn'
loop_
_symmetry_equiv_pos_site_id
_symmetry_equiv_pos_as_xyz
1 x,y,z
2 1/2-x,1/2+y,1/2-z
3 -x,-y,-z
4 1/2+x,1/2-y,1/2+z
_cell_length_a                   11.490(3)
_cell_length_b                   16.551(4)
_cell_length_c                   29.366(7)
_cell_angle_alpha                90
_cell_angle_beta                 92.398(5)
_cell_angle_gamma                90
_cell_volume                     5579.67
_chemical_melting_point          326-328deg.C
_cell_formula_units_Z            4
_exptl_crystal_recrystallization_method 'petroleum ether/chloroform'
loop_
_atom_site_label
_atom_site_type_symbol
_atom_site_fract_x
_atom_site_fract_y
_atom_site_fract_z
P1 P 0.6178(1) 0.6633(1) 0.1354(1)
P2 P 0.9096(1) 0.8381(1) 0.1013(1)
O1 O 0.7179(3) 0.6245(2) 0.1146(1)
O2 O 0.7954(3) 0.8736(2) 0.1095(1)
C1 C 0.6588(5) 0.7384(3) 0.1771(2)
C2 C 0.7694(5) 0.7601(3) 0.1882(2)
C3 C 0.7788(5) 0.8208(3) 0.2282(2)
C4 C 0.5686(4) 0.7794(3) 0.2063(2)
C5 C 0.7196(5) 0.7801(3) 0.2671(2)
C6 C 0.6058(5) 0.7571(3) 0.2548(2)
C7 C 0.5386(6) 0.7191(3) 0.2863(2)
C8 C 0.5854(8) 0.7040(4) 0.3301(3)
C9 C 0.6991(8) 0.7277(4) 0.3415(2)
C10 C 0.7660(6) 0.7664(3) 0.3102(2)
C11 C 0.7010(5) 0.8925(3) 0.2139(2)
C12 C 0.5888(5) 0.8697(3) 0.2020(2)
C13 C 0.5074(6) 0.9263(4) 0.1886(2)
C14 C 0.5388(7) 1.0070(4) 0.1862(2)
C15 C 0.6524(7) 1.0302(4) 0.1981(2)
C16 C 0.7340(5) 0.9727(4) 0.2122(2)
C17 C 0.5305(6) 0.5928(3) 0.1653(2)
C18 C 0.4150(6) 0.6069(4) 0.1768(2)
C19 C 0.3499(7) 0.5528(5) 0.2013(2)
C20 C 0.3996(11) 0.4809(6) 0.2126(3)
C21 C 0.5095(10) 0.4627(5) 0.2028(3)
C22 C 0.5786(6) 0.5204(5) 0.1781(2)
C23 C 0.5165(5) 0.7125(4) 0.0965(2)
C24 C 0.4296(6) 0.6693(4) 0.0730(2)
C25 C 0.3528(6) 0.7063(5) 0.0425(2)
C26 C 0.3610(7) 0.7871(5) 0.0351(2)
C27 C 0.4477(6) 0.8301(4) 0.0577(2)
C28 C 0.5241(6) 0.7955(4) 0.0883(2)
C29 C 0.9447(5) 0.7557(3) 0.1389(2)
C30 C 0.8821(5) 0.7294(3) 0.1725(2)
C31 C 1.0685(5) 0.7178(3) 0.1390(2)
C32 C 0.9464(5) 0.6681(3) 0.2042(2)
C33 C 1.0539(5) 0.6275(4) 0.1398(2)
C34 C 0.9865(5) 0.5998(4) 0.1751(2)
C35 C 0.9660(6) 0.5192(4) 0.1814(2)
C36 C 1.0163(7) 0.4643(4) 0.1518(3)
C37 C 1.0809(7) 0.4903(5) 0.1163(3)
C38 C 1.1029(5) 0.5735(4) 0.1100(2)
C39 C 1.1215(5) 0.7398(3) 0.1859(2)
C40 C 1.0546(5) 0.7115(3) 0.2215(2)
C41 C 1.0926(6) 0.7251(3) 0.2665(2)
C42 C 1.1956(6) 0.7677(4) 0.2751(3)
C43 C 1.2575(6) 0.7977(4) 0.2393(3)
C44 C 1.2220(5) 0.7835(4) 0.1948(2)
C45 C 1.0259(5) 0.9085(3) 0.1137(2)
C46 C 1.0144(6) 0.9607(4) 0.1494(2)
C47 C 1.1005(8) 1.0163(5) 0.1615(3)
C48 C 1.2019(8) 1.0194(5) 0.1399(3)
C49 C 1.2176(7) 0.9703(5) 0.1039(3)
C50 C 1.1305(6) 0.9139(4) 0.0909(2)
C51 C 0.9278(5) 0.8018(4) 0.0439(2)
C52 C 0.9272(6) 0.7214(5) 0.0343(2)
C53 C 0.9420(8) 0.6963(5) -0.0109(3)
C54 C 0.9459(9) 0.7512(8) -0.0442(3)
C55 C 0.9377(7) 0.8316(6) -0.0365(3)
C56 C 0.9289(6) 0.8581(5) 0.0086(3)
C57 C 0.6916(6) 0.0215(4) 0.0630(2)
Cl1 Cl 0.6601(2) -0.0276(1) 0.0108(1)
Cl2 Cl 0.8187(2) 0.0775(1) 0.0584(1)
Cl3 Cl 0.5755(2) 0.0828(2) 0.0750(1)
C58 C 0.7499(6) 0.9785(4) 0.4446(2)
Cl4 Cl 0.8846(2) 0.9932(2) 0.4700(1)
Cl5 Cl 0.6433(2) 0.9827(2) 0.4845(1)
Cl6 Cl 0.7399(3) 0.8891(2) 0.4165(1)
O3 O 0.6233(8) 0.7302(6) 0.9728(3)
O4 O 0.3854(11) 0.2325(8) 0.1021(3)
O5 O 0.3611(8) 0.3682(6) 0.0977(3)
loop_
_geom_bond_atom_site_label_1
_geom_bond_atom_site_label_2
_geom_bond_site_symmetry_1
_geom_bond_site_symmetry_2
P1 O1 1_555 1_555
P2 O2 1_555 1_555
C1 P1 1_555 1_555
C2 C1 1_555 1_555
C3 C2 1_555 1_555
C4 C1 1_555 1_555
C5 C3 1_555 1_555
C6 C4 1_555 1_555
C7 C6 1_555 1_555
C8 C7 1_555 1_555
C9 C8 1_555 1_555
C10 C5 1_555 1_555
C11 C3 1_555 1_555
C12 C4 1_555 1_555
C13 C12 1_555 1_555
C14 C13 1_555 1_555
C15 C14 1_555 1_555
C16 C11 1_555 1_555
C17 P1 1_555 1_555
C18 C17 1_555 1_555
C19 C18 1_555 1_555
C20 C19 1_555 1_555
C21 C20 1_555 1_555
C22 C17 1_555 1_555
C23 P1 1_555 1_555
C24 C23 1_555 1_555
C25 C24 1_555 1_555
C26 C25 1_555 1_555
C27 C26 1_555 1_555
C28 C23 1_555 1_555
C29 P2 1_555 1_555
C30 C2 1_555 1_555
C31 C29 1_555 1_555
C32 C30 1_555 1_555
C33 C31 1_555 1_555
C34 C32 1_555 1_555
C35 C34 1_555 1_555
C36 C35 1_555 1_555
C37 C36 1_555 1_555
C38 C33 1_555 1_555
C39 C31 1_555 1_555
C40 C32 1_555 1_555
C41 C40 1_555 1_555
C42 C41 1_555 1_555
C43 C42 1_555 1_555
C44 C39 1_555 1_555
C45 P2 1_555 1_555
C46 C45 1_555 1_555
C47 C46 1_555 1_555
C48 C47 1_555 1_555
C49 C48 1_555 1_555
C50 C45 1_555 1_555
C51 P2 1_555 1_555
C52 C51 1_555 1_555
C53 C52 1_555 1_555
C54 C53 1_555 1_555
C55 C54 1_555 1_555
C56 C51 1_555 1_555
C57 Cl1 1_555 1_555
C58 Cl4 1_555 1_555
Cl2 C57 1_555 1_555
Cl3 C57 1_555 1_555
Cl5 C58 1_555 1_555
Cl6 C58 1_555 1_555
C5 C6 1_555 1_555
C9 C10 1_555 1_555
C11 C12 1_555 1_555
C15 C16 1_555 1_555
C21 C22 1_555 1_555
C27 C28 1_555 1_555
C29 C30 1_555 1_555
C33 C34 1_555 1_555
C37 C38 1_555 1_555
C39 C40 1_555 1_555
C43 C44 1_555 1_555
C49 C50 1_555 1_555
C55 C56 1_555 1_555

#END
