
#######################################################################
#
#                 Cambridge Crystallographic Data Centre
#                                CCDC 
#
#######################################################################
#
# If this CIF has been generated from an entry in the Cambridge 
# Structural Database, then it will include bibliographic, chemical, 
# crystal, experimental, refinement or atomic coordinate data resulting 
# from the CCDC's data processing and validation procedures.
#
#######################################################################

data_HUGKIE
_chemical_formula_moiety         'C17 H24 Br2 O4'
_chemical_name_systematic        
'9,10-dibromo-12,13-epoxytrichothec-9-en-4\b-yl acetate'
_symmetry_cell_setting           monoclinic
_symmetry_space_group_name_H-M   'P 21'
_symmetry_Int_Tables_number      4
_space_group_name_Hall           'P 2yb'
loop_
_symmetry_equiv_pos_site_id
_symmetry_equiv_pos_as_xyz
1 x,y,z
2 -x,1/2+y,-z
_cell_length_a                   10.0120(4)
_cell_length_b                   8.3397(4)
_cell_length_c                   11.1235(6)
_cell_angle_alpha                90
_cell_angle_beta                 106.6220(10)
_cell_angle_gamma                90
_cell_volume                     889.969
_exptl_crystal_colour            colorless
_exptl_crystal_description       chunk
_cell_formula_units_Z            2
_exptl_crystal_recrystallization_method ethanol
loop_
_atom_site_label
_atom_site_type_symbol
_atom_site_fract_x
_atom_site_fract_y
_atom_site_fract_z
Br1 Br 0.88801(4) 0.21090(8) 0.71835(5)
Br2 Br 0.75860(5) -0.28303(7) 0.84118(5)
O1 O 0.2048(3) -0.0632(4) 0.6936(3)
O2 O 0.5492(3) -0.0758(3) 0.6377(3)
O3 O 0.2174(3) 0.2951(4) 0.5751(3)
C1 C 0.6197(4) 0.0702(5) 0.6879(5)
H1 H 0.6071 0.1471 0.6189
O4 O 0.3167(4) 0.5380(4) 0.6153(5)
C2 C 0.6122(5) 0.0479(6) 0.9123(4)
H2 H 0.5826 0.1011 0.9779
H3 H 0.5681 -0.0567 0.8986
C3 C 0.5623(4) 0.1472(5) 0.7900(4)
C4 C 0.3494(4) -0.0260(5) 0.7073(4)
C5 C 0.3997(4) -0.0627(5) 0.5960(4)
H4 H 0.3575 -0.1619 0.5549
C6 C 0.3968(4) 0.1468(5) 0.7378(4)
C7 C 0.3133(5) -0.1439(7) 0.7910(5)
H5 H 0.3312 -0.2561 0.7786
H6 H 0.3253 -0.1129 0.8775
C8 C 0.6110(5) 0.3216(6) 0.8173(5)
H7 H 0.7107 0.3243 0.8497
H8 H 0.5702 0.3664 0.8781
H9 H 0.5825 0.3831 0.7413
C9 C 0.7705(5) 0.0260(6) 0.9561(4)
H10 H 0.8141 0.1303 0.9755
H11 H 0.7950 -0.0367 1.0328
C10 C 0.2139(5) 0.4560(6) 0.5912(5)
C11 C 0.7743(5) 0.0191(6) 0.7299(5)
H12 H 0.7879 -0.0600 0.6693
C12 C 0.0687(6) 0.5157(7) 0.5733(6)
H13 H 0.0335 0.4743 0.6388
H14 H 0.0103 0.4804 0.4934
H15 H 0.0692 0.6307 0.5762
C13 C 0.3545(4) 0.2220(7) 0.6039(4)
H16 H 0.4240 0.3011 0.5963
C14 C 0.3263(4) 0.2247(8) 0.8282(4)
H17 H 0.2275 0.2070 0.7987
H18 H 0.3448 0.3378 0.8327
H19 H 0.3623 0.1781 0.9100
C15 C 0.8282(5) -0.0555(6) 0.8612(5)
C16 C 0.3483(5) 0.0813(5) 0.5121(4)
H20 H 0.2538 0.0644 0.4596
H21 H 0.4080 0.1018 0.4588
C17 C 0.9878(5) -0.0734(8) 0.9074(6)
H22 H 1.0299 0.0307 0.9240
H23 H 1.0199 -0.1260 0.8441
H24 H 1.0130 -0.1361 0.9829
loop_
_geom_bond_atom_site_label_1
_geom_bond_atom_site_label_2
_geom_bond_site_symmetry_1
_geom_bond_site_symmetry_2
Br1 C11 1_555 1_555
Br2 C15 1_555 1_555
O1 C4 1_555 1_555
O2 C1 1_555 1_555
O3 C10 1_555 1_555
C1 H1 1_555 1_555
O4 C10 1_555 1_555
C2 H2 1_555 1_555
H3 C2 1_555 1_555
C3 C1 1_555 1_555
C4 C5 1_555 1_555
C5 O2 1_555 1_555
H4 C5 1_555 1_555
C6 C3 1_555 1_555
C7 O1 1_555 1_555
H5 C7 1_555 1_555
H6 C7 1_555 1_555
C8 C3 1_555 1_555
H7 C8 1_555 1_555
H8 C8 1_555 1_555
H9 C8 1_555 1_555
C9 C2 1_555 1_555
H10 C9 1_555 1_555
H11 C9 1_555 1_555
C10 C12 1_555 1_555
C11 C1 1_555 1_555
H12 C11 1_555 1_555
C12 H13 1_555 1_555
H14 C12 1_555 1_555
H15 C12 1_555 1_555
C13 O3 1_555 1_555
H16 C13 1_555 1_555
C14 C6 1_555 1_555
H17 C14 1_555 1_555
H18 C14 1_555 1_555
H19 C14 1_555 1_555
C15 C9 1_555 1_555
C16 C5 1_555 1_555
H20 C16 1_555 1_555
H21 C16 1_555 1_555
C17 C15 1_555 1_555
H22 C17 1_555 1_555
H23 C17 1_555 1_555
H24 C17 1_555 1_555
C2 C3 1_555 1_555
C4 C6 1_555 1_555
C4 C7 1_555 1_555
C6 C13 1_555 1_555
C11 C15 1_555 1_555
C13 C16 1_555 1_555

#END
