
#######################################################################
#
#                 Cambridge Crystallographic Data Centre
#                                CCDC 
#
#######################################################################
#
# If this CIF has been generated from an entry in the Cambridge 
# Structural Database, then it will include bibliographic, chemical, 
# crystal, experimental, refinement or atomic coordinate data resulting 
# from the CCDC's data processing and validation procedures.
#
#######################################################################

data_HUGKAX
_chemical_formula_moiety         'C27 H29 N1 O5,0.5(C1 H2 Cl2)'
_chemical_name_systematic        
'N-(2-(Benzyloxy)-4-phenylbut-3-en-1-yl)-3,4,5-trimethoxybenzamide dichloromethane solvate'
_symmetry_cell_setting           monoclinic
_symmetry_space_group_name_H-M   'C 2'
_symmetry_Int_Tables_number      5
_space_group_name_Hall           'C 2y'
loop_
_symmetry_equiv_pos_site_id
_symmetry_equiv_pos_as_xyz
1 x,y,z
2 -x,y,-z
3 1/2+x,1/2+y,z
4 1/2-x,1/2+y,-z
_cell_length_a                   24.7884(5)
_cell_length_b                   4.97790(9)
_cell_length_c                   20.9526(4)
_cell_angle_alpha                90
_cell_angle_beta                 104.037(2)
_cell_angle_gamma                90
_cell_volume                     2508.23
_cell_formula_units_Z            4
loop_
_atom_site_label
_atom_site_type_symbol
_atom_site_fract_x
_atom_site_fract_y
_atom_site_fract_z
O1 O 0.50367(9) 0.8050(4) 0.19376(12)
O2 O 0.63778(7) 0.1828(5) 0.41646(9)
O3 O 0.72470(7) 0.4681(4) 0.40144(9)
O4 O 0.71613(7) 0.8156(5) 0.30158(9)
O5 O 0.39446(8) 0.1626(5) 0.23107(9)
N1 N 0.48983(9) 0.3577(5) 0.19480(11)
H1 H 0.5044 0.2004 0.2084
C1 C 0.51938(11) 0.5774(6) 0.21406(14)
C2 C 0.57414(11) 0.5419(6) 0.26326(12)
C3 C 0.57906(10) 0.3585(6) 0.31482(12)
H2 H 0.5486 0.2468 0.3175
C4 C 0.62929(11) 0.3418(6) 0.36230(12)
C5 C 0.67445(10) 0.4999(6) 0.35644(13)
C6 C 0.66897(11) 0.6779(7) 0.30360(13)
C7 C 0.61817(11) 0.7044(6) 0.25783(13)
H3 H 0.6137 0.8323 0.2233
C8 C 0.59248(11) 0.0152(6) 0.42253(14)
H4 H 0.5830 -0.1076 0.3849
H5 H 0.5602 0.1272 0.4235
H6 H 0.6032 -0.0890 0.4633
C9 C 0.73885(11) 0.6920(7) 0.44585(13)
H7 H 0.7359 0.8592 0.4205
H8 H 0.7770 0.6707 0.4724
H9 H 0.7133 0.6984 0.4749
C10 C 0.71182(12) 1.0098(7) 0.25056(14)
H10 H 0.7030 0.9192 0.2078
H11 H 0.7472 1.1055 0.2564
H12 H 0.6823 1.1382 0.2524
C11 C 0.43415(11) 0.3677(7) 0.15202(13)
H13 H 0.4269 0.2004 0.1258
H14 H 0.4315 0.5204 0.1211
C12 C 0.39042(11) 0.3997(6) 0.19144(13)
H15 H 0.3993 0.5609 0.2206
C13 C 0.33320(11) 0.4301(6) 0.14690(13)
H16 H 0.3183 0.2854 0.1185
C14 C 0.30239(11) 0.6504(7) 0.14548(13)
H17 H 0.3184 0.7933 0.1738
C15 C 0.24586(11) 0.6936(7) 0.10416(13)
C16 C 0.21361(13) 0.8984(8) 0.12056(15)
H18 H 0.2289 1.0130 0.1567
C17 C 0.15934(15) 0.9368(10) 0.08466(19)
H19 H 0.1374 1.0756 0.0965
C18 C 0.13737(14) 0.7734(9) 0.03176(17)
H20 H 0.1001 0.7997 0.0074
C19 C 0.16830(14) 0.5757(10) 0.01412(16)
H21 H 0.1527 0.4653 -0.0227
C20 C 0.22302(13) 0.5331(8) 0.04974(14)
H22 H 0.2446 0.3949 0.0369
C21 C 0.36474(11) 0.1815(7) 0.28119(13)
H23 H 0.3244 0.1625 0.2616
H24 H 0.3714 0.3592 0.3029
C22 C 0.38417(11) -0.0376(7) 0.33099(13)
C23 C 0.43837(11) -0.1365(7) 0.34401(13)
H25 H 0.4635 -0.0700 0.3200
C24 C 0.45579(12) -0.3320(7) 0.39193(14)
H26 H 0.4928 -0.3985 0.4005
C25 C 0.41948(14) -0.4305(7) 0.42720(14)
H27 H 0.4316 -0.5625 0.4603
C26 C 0.36575(14) -0.3357(8) 0.41393(14)
H28 H 0.3406 -0.4044 0.4377
C27 C 0.34814(11) -0.1422(7) 0.36649(14)
H29 H 0.3109 -0.0790 0.3578
C28? C 0.485(2) 1.046(6) 0.0042(13)
Cl1? Cl 0.4518(5) 0.998(3) -0.0771(6)
Cl2? Cl 0.5101(4) 0.763(2) 0.0493(4)
C29? C 0.4848(8) 0.815(4) 0.0188(8)
Cl3? Cl 0.4887(2) 0.9300(14) -0.0551(3)
Cl4? Cl 0.51621(18) 0.5427(10) 0.0501(2)
loop_
_geom_bond_atom_site_label_1
_geom_bond_atom_site_label_2
_geom_bond_site_symmetry_1
_geom_bond_site_symmetry_2
O1 C1 1_555 1_555
O2 C4 1_555 1_555
O3 C5 1_555 1_555
O4 C6 1_555 1_555
O5 C12 1_555 1_555
N1 H1 1_555 1_555
C1 N1 1_555 1_555
C2 C1 1_555 1_555
C3 C2 1_555 1_555
H2 C3 1_555 1_555
C4 C3 1_555 1_555
C5 C4 1_555 1_555
C6 C5 1_555 1_555
C7 C2 1_555 1_555
H3 C7 1_555 1_555
C8 O2 1_555 1_555
H4 C8 1_555 1_555
H5 C8 1_555 1_555
H6 C8 1_555 1_555
C9 O3 1_555 1_555
H7 C9 1_555 1_555
H8 C9 1_555 1_555
H9 C9 1_555 1_555
C10 O4 1_555 1_555
H10 C10 1_555 1_555
H11 C10 1_555 1_555
H12 C10 1_555 1_555
C11 N1 1_555 1_555
H13 C11 1_555 1_555
H14 C11 1_555 1_555
C12 C11 1_555 1_555
H15 C12 1_555 1_555
C13 C12 1_555 1_555
H16 C13 1_555 1_555
C14 C13 1_555 1_555
H17 C14 1_555 1_555
C15 C14 1_555 1_555
C16 C15 1_555 1_555
H18 C16 1_555 1_555
C17 C16 1_555 1_555
H19 C17 1_555 1_555
C18 C17 1_555 1_555
H20 C18 1_555 1_555
C19 C18 1_555 1_555
H21 C19 1_555 1_555
C20 C15 1_555 1_555
H22 C20 1_555 1_555
C21 O5 1_555 1_555
H23 C21 1_555 1_555
H24 C21 1_555 1_555
C22 C21 1_555 1_555
C23 C22 1_555 1_555
H25 C23 1_555 1_555
C24 C23 1_555 1_555
H26 C24 1_555 1_555
C25 C24 1_555 1_555
H27 C25 1_555 1_555
C26 C25 1_555 1_555
H28 C26 1_555 1_555
C27 C22 1_555 1_555
H29 C27 1_555 1_555
C6 C7 1_555 1_555
C19 C20 1_555 1_555
C26 C27 1_555 1_555

#END
