
#######################################################################
#
#                 Cambridge Crystallographic Data Centre
#                                CCDC 
#
#######################################################################
#
# If this CIF has been generated from an entry in the Cambridge 
# Structural Database, then it will include bibliographic, chemical, 
# crystal, experimental, refinement or atomic coordinate data resulting 
# from the CCDC's data processing and validation procedures.
#
#######################################################################

data_HUGLEC
_chemical_formula_moiety         'C44 H34,0.5(C1 H2 Cl2)'
_chemical_name_systematic        
"3,12-di-t-butylbenzo[a]dinaphtho[2,1,8-cde:1',2',3',4'-ghi]perylene dichloromethane solvate"
_symmetry_cell_setting           tetragonal
_symmetry_space_group_name_H-M   'P -4 21 c'
_symmetry_Int_Tables_number      114
_space_group_name_Hall           'P -4 2n'
loop_
_symmetry_equiv_pos_site_id
_symmetry_equiv_pos_as_xyz
1 x,y,z
2 y,-x,-z
3 -x,-y,z
4 -y,x,-z
5 1/2+x,1/2-y,1/2-z
6 1/2-y,1/2-x,1/2+z
7 1/2-x,1/2+y,1/2-z
8 1/2+y,1/2+x,1/2+z
_cell_length_a                   13.6757(7)
_cell_length_b                   13.6757(7)
_cell_length_c                   35.337(3)
_cell_angle_alpha                90
_cell_angle_beta                 90
_cell_angle_gamma                90
_cell_volume                     6608.89
_cell_formula_units_Z            8
loop_
_atom_site_label
_atom_site_type_symbol
_atom_site_fract_x
_atom_site_fract_y
_atom_site_fract_z
Cl1 Cl 0.03164 0.60509 0.10522
C1 C 0.00000 0.50000 0.08140
H1 H -0.05563 0.51675 0.06468
Cl1B Cl -0.03164 0.39491 0.10522
H1B H 0.05563 0.48325 0.06468
C2 C 0.07132 0.19359 0.39349
C3 C -0.01580 0.24564 0.38362
C4 C -0.05571 0.24735 0.34690
C5 C -0.01160 0.19550 0.31816
C6 C 0.07232 0.13441 0.32670
C7 C 0.11299 0.14123 0.36428
C8 C -0.05116 0.19784 0.28072
C9 C -0.14157 0.24699 0.27175
C10 C -0.17690 0.24723 0.23596
C11 C -0.12386 0.20788 0.20528
C12 C -0.02830 0.16406 0.21338
C13 C 0.00476 0.15738 0.25032
C14 C -0.16087 0.20441 0.16824
C15 C -0.10924 0.15930 0.13866
C16 C -0.01703 0.12149 0.14583
C17 C 0.02802 0.12775 0.18257
C18 C 0.12734 0.08779 0.19128
C19 C 0.20312 0.07661 0.16022
C20 C 0.19091 0.11681 0.12273
C21 C 0.25320 0.09632 0.09253
C22 C 0.33077 0.03373 0.10294
C23 C 0.35021 -0.00515 0.13926
C24 C 0.28720 0.01735 0.16898
C25 C 0.38996 -0.07373 0.21421
C26 C 0.40526 -0.09971 0.25009
C27 C 0.33831 -0.08276 0.28040
C28 C 0.25850 -0.01695 0.27337
C29 C 0.24456 0.01297 0.23584
C30 C 0.30672 -0.01395 0.20654
C31 C 0.34890 -0.12223 0.31670
C32 C 0.27812 -0.11019 0.34476
C33 C 0.20046 -0.04436 0.33769
C34 C 0.19326 0.00698 0.30347
C35 C 0.11593 0.08066 0.29523
C36 C 0.09189 0.09915 0.25795
C37 C 0.15220 0.06736 0.22709
C38 C 0.11715 0.19261 0.43199
C39 C 0.20101 0.12714 0.43840
C40 C 0.04280 0.16069 0.46178
C41 C 0.13483 0.29065 0.44420
C42 C 0.23098 0.13631 0.05305
C43 C 0.30734 0.10435 0.02273
C44 C 0.13470 0.08570 0.03903
C45 C 0.23135 0.24503 0.05354
H3 H -0.04858 0.28107 0.40295
H4 H -0.11312 0.28429 0.34193
H5 H 0.17232 0.10745 0.36923
H6 H -0.17676 0.27960 0.29120
H7 H -0.23953 0.27481 0.23134
H8 H -0.22256 0.23339 0.16304
H9 H -0.13708 0.15476 0.11410
H10 H 0.01755 0.09044 0.12585
H11 H 0.13739 0.15965 0.11840
H12 H 0.37484 0.01573 0.08336
H13 H 0.40541 -0.04600 0.14332
H14 H 0.43272 -0.09416 0.19455
H15 H 0.46500 -0.13181 0.25591
H16 H 0.40626 -0.15848 0.32244
H17 H 0.28197 -0.14519 0.36794
H18 H 0.15202 -0.03470 0.35659
H19 H 0.21746 0.12657 0.46539
H20 H 0.18404 0.06079 0.43024
H21 H 0.25734 0.15049 0.42384
H22 H 0.07726 0.13363 0.48373
H23 H 0.00383 0.21723 0.46970
H24 H -0.00038 0.11071 0.45103
H25 H 0.07232 0.32332 0.44909
H26 H 0.17388 0.28974 0.46745
H27 H 0.17042 0.32612 0.42443
H28 H 0.33188 0.03892 0.02886
H29 H 0.27627 0.10322 -0.00226
H30 H 0.36188 0.15083 0.02252
H31 H 0.11114 0.04040 0.05848
H32 H 0.08477 0.13555 0.03418
H33 H 0.14801 0.04952 0.01565
H34 H 0.16822 0.26885 0.06288
H35 H 0.28369 0.26824 0.07022
H36 H 0.24238 0.26965 0.02785
Cl2? Cl 0.08298 0.47755 0.04697
H2? H 0.01560 0.55765 0.09723
loop_
_geom_bond_atom_site_label_1
_geom_bond_atom_site_label_2
_geom_bond_site_symmetry_1
_geom_bond_site_symmetry_2
Cl1 C1 1_555 1_555
C1 H1 1_555 1_555
C2 C3 1_555 1_555
C3 C4 1_555 1_555
C4 C5 1_555 1_555
C5 C6 1_555 1_555
C6 C7 1_555 1_555
C7 C2 1_555 1_555
C8 C5 1_555 1_555
C9 C8 1_555 1_555
C10 C9 1_555 1_555
C11 C10 1_555 1_555
C12 C11 1_555 1_555
C13 C8 1_555 1_555
C14 C11 1_555 1_555
C15 C14 1_555 1_555
C16 C15 1_555 1_555
C17 C12 1_555 1_555
C18 C17 1_555 1_555
C19 C18 1_555 1_555
C20 C19 1_555 1_555
C21 C20 1_555 1_555
C22 C21 1_555 1_555
C23 C22 1_555 1_555
C24 C19 1_555 1_555
C25 C26 1_555 1_555
C26 C27 1_555 1_555
C27 C28 1_555 1_555
C28 C29 1_555 1_555
C29 C30 1_555 1_555
C30 C24 1_555 1_555
C31 C27 1_555 1_555
C32 C31 1_555 1_555
C33 C32 1_555 1_555
C34 C28 1_555 1_555
C35 C6 1_555 1_555
C36 C13 1_555 1_555
C37 C18 1_555 1_555
C38 C2 1_555 1_555
C39 C38 1_555 1_555
C40 C38 1_555 1_555
C41 C38 1_555 1_555
C42 C21 1_555 1_555
C43 C42 1_555 1_555
C44 C42 1_555 1_555
C45 C42 1_555 1_555
H3 C3 1_555 1_555
H4 C4 1_555 1_555
H5 C7 1_555 1_555
H6 C9 1_555 1_555
H7 C10 1_555 1_555
H8 C14 1_555 1_555
H9 C15 1_555 1_555
H10 C16 1_555 1_555
H11 C20 1_555 1_555
H12 C22 1_555 1_555
H13 C23 1_555 1_555
H14 C25 1_555 1_555
H15 C26 1_555 1_555
H16 C31 1_555 1_555
H17 C32 1_555 1_555
H18 C33 1_555 1_555
H19 C39 1_555 1_555
H20 C39 1_555 1_555
H21 C39 1_555 1_555
H22 C40 1_555 1_555
H23 C40 1_555 1_555
H24 C40 1_555 1_555
H25 C41 1_555 1_555
H26 C41 1_555 1_555
H27 C41 1_555 1_555
H28 C43 1_555 1_555
H29 C43 1_555 1_555
H30 C43 1_555 1_555
H31 C44 1_555 1_555
H32 C44 1_555 1_555
H33 C44 1_555 1_555
H34 C45 1_555 1_555
H35 C45 1_555 1_555
H36 C45 1_555 1_555
Cl1B C1 1_555 1_555
H1B C1 1_555 1_555
C12 C13 1_555 1_555
C16 C17 1_555 1_555
C23 C24 1_555 1_555
C25 C30 1_555 1_555
C29 C37 1_555 1_555
C33 C34 1_555 1_555
C34 C35 1_555 1_555
C35 C36 1_555 1_555
C36 C37 1_555 1_555

#END
