
#######################################################################
#
#                 Cambridge Crystallographic Data Centre
#                                CCDC 
#
#######################################################################
#
# If this CIF has been generated from an entry in the Cambridge 
# Structural Database, then it will include bibliographic, chemical, 
# crystal, experimental, refinement or atomic coordinate data resulting 
# from the CCDC's data processing and validation procedures.
#
#######################################################################

data_HUGRAD
_chemical_formula_moiety         'C23 H23 N1 O5'
_chemical_name_systematic        
'cis-6-Formyl-2-naphthyl 1,5,7-trimethyl-2,4-dioxo-3-azabicyclo[3.3.1]nonane-7-carboxylate'
_symmetry_cell_setting           monoclinic
_symmetry_space_group_name_H-M   'P 21/c'
_symmetry_Int_Tables_number      14
_space_group_name_Hall           '-P 2ybc'
loop_
_symmetry_equiv_pos_site_id
_symmetry_equiv_pos_as_xyz
1 x,y,z
2 -x,1/2+y,1/2-z
3 -x,-y,-z
4 x,1/2-y,1/2+z
_cell_length_a                   11.896(2)
_cell_length_b                   11.692(2)
_cell_length_c                   16.636(2)
_cell_angle_alpha                90
_cell_angle_beta                 121.124(9)
_cell_angle_gamma                90
_cell_volume                     1980.79
_exptl_crystal_colour            colorless
_exptl_crystal_description       block
_cell_formula_units_Z            4
loop_
_atom_site_label
_atom_site_type_symbol
_atom_site_fract_x
_atom_site_fract_y
_atom_site_fract_z
O1 O 1.13914(15) 1.52850(10) 0.66763(9)
O2 O 0.79931(9) 0.84989(8) 0.48814(7)
O3 O 0.71422(10) 0.81424(10) 0.57896(7)
O4 O 0.56292(11) 0.98673(8) 0.30018(7)
O5 O 0.40949(11) 0.87877(9) 0.48523(8)
N1 N 0.48608(11) 0.92723(9) 0.39106(8)
H1 H 0.5094 0.9926 0.4202
C1 C 1.14643(17) 1.43589(14) 0.70153(12)
H2 H 1.2061 1.4268 0.7654
C2 C 1.06708(14) 1.33579(12) 0.64863(10)
C3 C 1.08892(14) 1.23220(12) 0.69289(10)
H3 H 1.1515 1.2268 0.7566
C4 C 1.01832(12) 1.13362(11) 0.64376(9)
C5 C 0.92258(12) 1.14345(11) 0.54671(9)
C6 C 0.90366(13) 1.25141(12) 0.50278(10)
H4 H 0.8427 1.2584 0.4389
C7 C 0.97267(14) 1.34465(12) 0.55196(10)
H5 H 0.9577 1.4149 0.5218
C8 C 0.84911(12) 1.04604(12) 0.49738(9)
H6 H 0.7853 1.0515 0.4340
C9 C 0.87159(13) 0.94461(12) 0.54251(9)
C10 C 0.96829(15) 0.93151(13) 0.63736(10)
H7 H 0.9842 0.8604 0.6663
C11 C 1.03874(15) 1.02504(13) 0.68656(10)
H8 H 1.1019 1.0172 0.7499
C12 C 0.72086(12) 0.79239(11) 0.51122(9)
C13 C 0.65192(13) 0.69261(10) 0.44424(9)
C14 C 0.75342(16) 0.59438(13) 0.48707(12)
H9 H 0.7185 0.5273 0.4486
H10 H 0.7718 0.5780 0.5493
H11 H 0.8330 0.6169 0.4899
C15 C 0.61823(13) 0.71551(11) 0.34325(9)
H12 H 0.6067 0.6425 0.3123
H13 H 0.6928 0.7532 0.3459
C16 C 0.49451(13) 0.78899(10) 0.28177(8)
C17 C 0.37796(13) 0.73661(11) 0.28312(9)
H14 H 0.3616 0.6602 0.2567
H15 H 0.3001 0.7824 0.2447
C18 C 0.40466(13) 0.73080(10) 0.38319(9)
C19 C 0.52754(13) 0.65756(11) 0.44435(9)
H16 H 0.5468 0.6601 0.5085
H17 H 0.5071 0.5789 0.4233
C20 C 0.51756(13) 0.90892(10) 0.32291(8)
C21 C 0.43114(13) 0.85050(11) 0.42433(9)
C22 C 0.47044(18) 0.79546(14) 0.18231(10)
H18 H 0.3959 0.8434 0.1443
H19 H 0.4539 0.7201 0.1557
H20 H 0.5465 0.8269 0.1844
C23 C 0.28802(16) 0.68016(14) 0.38570(12)
H21 H 0.3061 0.6813 0.4490
H22 H 0.2740 0.6027 0.3633
H23 H 0.2108 0.7247 0.3463
loop_
_geom_bond_atom_site_label_1
_geom_bond_atom_site_label_2
_geom_bond_site_symmetry_1
_geom_bond_site_symmetry_2
O1 C1 1_555 1_555
O2 C9 1_555 1_555
O3 C12 1_555 1_555
O4 C20 1_555 1_555
O5 C21 1_555 1_555
N1 H1 1_555 1_555
C1 H2 1_555 1_555
C2 C1 1_555 1_555
C3 C2 1_555 1_555
H3 C3 1_555 1_555
C4 C3 1_555 1_555
C5 C4 1_555 1_555
C6 C5 1_555 1_555
H4 C6 1_555 1_555
C7 C2 1_555 1_555
H5 C7 1_555 1_555
C8 C5 1_555 1_555
H6 C8 1_555 1_555
C9 C8 1_555 1_555
C10 C9 1_555 1_555
H7 C10 1_555 1_555
C11 C4 1_555 1_555
H8 C11 1_555 1_555
C12 O2 1_555 1_555
C13 C12 1_555 1_555
C14 C13 1_555 1_555
H9 C14 1_555 1_555
H10 C14 1_555 1_555
H11 C14 1_555 1_555
C15 C13 1_555 1_555
H12 C15 1_555 1_555
H13 C15 1_555 1_555
C16 C15 1_555 1_555
C17 C16 1_555 1_555
H14 C17 1_555 1_555
H15 C17 1_555 1_555
C18 C17 1_555 1_555
C19 C13 1_555 1_555
H16 C19 1_555 1_555
H17 C19 1_555 1_555
C20 N1 1_555 1_555
C21 N1 1_555 1_555
C22 C16 1_555 1_555
H18 C22 1_555 1_555
H19 C22 1_555 1_555
H20 C22 1_555 1_555
C23 C18 1_555 1_555
H21 C23 1_555 1_555
H22 C23 1_555 1_555
H23 C23 1_555 1_555
C6 C7 1_555 1_555
C10 C11 1_555 1_555
C16 C20 1_555 1_555
C18 C19 1_555 1_555
C18 C21 1_555 1_555

#END
