
#######################################################################
#
#                 Cambridge Crystallographic Data Centre
#                                CCDC 
#
#######################################################################
#
# If this CIF has been generated from an entry in the Cambridge 
# Structural Database, then it will include bibliographic, chemical, 
# crystal, experimental, refinement or atomic coordinate data resulting 
# from the CCDC's data processing and validation procedures.
#
#######################################################################

data_HUGYAL
_chemical_formula_moiety         'C14 H9 O4 1-,C4 H12 N1 1+'
_chemical_name_systematic        
"N-ethylethanaminium 2'-carboxybiphenyl-2-carboxylate"
_symmetry_cell_setting           monoclinic
_symmetry_space_group_name_H-M   'P 21/c'
_symmetry_Int_Tables_number      14
_space_group_name_Hall           '-P 2ybc'
loop_
_symmetry_equiv_pos_site_id
_symmetry_equiv_pos_as_xyz
1 x,y,z
2 -x,1/2+y,1/2-z
3 -x,-y,-z
4 x,1/2-y,1/2+z
_cell_length_a                   7.4991(4)
_cell_length_b                   15.1134(8)
_cell_length_c                   15.1223(9)
_cell_angle_alpha                90
_cell_angle_beta                 92.583(4)
_cell_angle_gamma                90
_cell_volume                     1712.17
_exptl_crystal_description       block
_cell_formula_units_Z            4
loop_
_atom_site_label
_atom_site_type_symbol
_atom_site_fract_x
_atom_site_fract_y
_atom_site_fract_z
N1 N 0.63583(19) 0.89639(10) 0.43355(8)
H1 H 0.5406 0.9216 0.4053
H2 H 0.6271 0.9069 0.4918
C1 C 0.6264(5) 0.79820(18) 0.41865(16)
H3 H 0.6530 0.7854 0.3578
H4 H 0.7160 0.7693 0.4568
C2 C 0.4477(6) 0.76200(17) 0.4370(2)
H5 H 0.4468 0.6993 0.4268
H6 H 0.3589 0.7897 0.3985
H7 H 0.4218 0.7736 0.4975
C3 C 0.8004(3) 0.9406(3) 0.40362(14)
H8 H 0.9039 0.9159 0.4356
H9 H 0.8126 0.9290 0.3411
C4 C 0.7951(4) 1.0374(3) 0.4185(2)
H10 H 0.9026 1.0638 0.3986
H11 H 0.7852 1.0490 0.4805
H12 H 0.6940 1.0621 0.3861
C5 C 0.29760(18) 1.04659(9) 0.33318(8)
C6 C 0.22231(17) 1.07073(9) 0.24223(8)
C7 C 0.09106(19) 1.13567(9) 0.23460(9)
H13 H 0.0562 1.1652 0.2849
C8 C 0.0120(2) 1.15682(10) 0.15298(11)
H14 H -0.0770 1.1997 0.1488
C9 C 0.0648(2) 1.11441(11) 0.07783(10)
H15 H 0.0109 1.1282 0.0230
C10 C 0.19830(19) 1.05122(10) 0.08427(9)
H16 H 0.2351 1.0237 0.0332
C11 C 0.27865(16) 1.02812(8) 0.16610(8)
C12 C 0.43127(17) 0.96369(9) 0.16709(8)
C13 C 0.60420(18) 0.99611(10) 0.16131(9)
H17 H 0.6236 1.0569 0.1611
C14 C 0.74778(19) 0.93883(11) 0.15581(10)
H18 H 0.8628 0.9614 0.1533
C15 C 0.72119(19) 0.84897(11) 0.15399(10)
H19 H 0.8176 0.8108 0.1490
C16 C 0.55039(19) 0.81529(10) 0.15957(10)
H20 H 0.5324 0.7544 0.1584
C17 C 0.40544(17) 0.87196(9) 0.16695(9)
C18 C 0.22525(19) 0.83156(10) 0.17799(11)
O1 O 0.32295(13) 0.96476(7) 0.34941(6)
O2 O 0.32724(17) 1.10658(8) 0.38749(7)
O3 O 0.14077(13) 0.85627(7) 0.24877(7)
H21 H 0.2040 0.8904 0.2784
O4 O 0.16045(16) 0.77756(8) 0.12726(10)
loop_
_geom_bond_atom_site_label_1
_geom_bond_atom_site_label_2
_geom_bond_site_symmetry_1
_geom_bond_site_symmetry_2
N1 H1 1_555 1_555
H2 N1 1_555 1_555
C1 N1 1_555 1_555
H3 C1 1_555 1_555
H4 C1 1_555 1_555
C2 C1 1_555 1_555
H5 C2 1_555 1_555
H6 C2 1_555 1_555
H7 C2 1_555 1_555
C3 N1 1_555 1_555
H8 C3 1_555 1_555
H9 C3 1_555 1_555
C4 C3 1_555 1_555
H10 C4 1_555 1_555
H11 C4 1_555 1_555
H12 C4 1_555 1_555
C5 C6 1_555 1_555
C6 C7 1_555 1_555
C7 H13 1_555 1_555
C8 C7 1_555 1_555
H14 C8 1_555 1_555
C9 C8 1_555 1_555
H15 C9 1_555 1_555
C10 C9 1_555 1_555
H16 C10 1_555 1_555
C11 C6 1_555 1_555
C12 C11 1_555 1_555
C13 C12 1_555 1_555
H17 C13 1_555 1_555
C14 C13 1_555 1_555
H18 C14 1_555 1_555
C15 C14 1_555 1_555
H19 C15 1_555 1_555
C16 C15 1_555 1_555
H20 C16 1_555 1_555
C17 C12 1_555 1_555
C18 C17 1_555 1_555
O1 C5 1_555 1_555
O2 C5 1_555 1_555
O3 C18 1_555 1_555
H21 O3 1_555 1_555
O4 C18 1_555 1_555
C10 C11 1_555 1_555
C16 C17 1_555 1_555

#END
