
#######################################################################
#
#                 Cambridge Crystallographic Data Centre
#                                CCDC 
#
#######################################################################
#
# If this CIF has been generated from an entry in the Cambridge 
# Structural Database, then it will include bibliographic, chemical, 
# crystal, experimental, refinement or atomic coordinate data resulting 
# from the CCDC's data processing and validation procedures.
#
#######################################################################

data_HUGZAL
_chemical_name_common            
5,5',6,6'-Tetraisopropoxy-2,2'-bis(methoxycarbonyl)-3,3'-dibenzofuran
_chemical_formula_moiety         'C32 H38 O10'
_chemical_name_systematic        
"Dimethyl 5,5',6,6'-tetraisopropoxy-3,3'-bi-1-benzofuran-2,2'-dicarboxylate"
_symmetry_cell_setting           monoclinic
_symmetry_space_group_name_H-M   'C 2/c'
_symmetry_Int_Tables_number      15
_space_group_name_Hall           '-C 2yn'
loop_
_symmetry_equiv_pos_site_id
_symmetry_equiv_pos_as_xyz
1 x,y,z
2 -x,y,1/2-z
3 1/2+x,1/2+y,z
4 1/2-x,1/2+y,1/2-z
5 -x,-y,-z
6 x,-y,1/2+z
7 1/2-x,1/2-y,-z
8 1/2+x,1/2-y,1/2+z
_cell_length_a                   33.650(2)
_cell_length_b                   7.4977(5)
_cell_length_c                   12.4969(8)
_cell_angle_alpha                90
_cell_angle_beta                 107.479(1)
_cell_angle_gamma                90
_cell_volume                     3007.36
_chemical_melting_point          '156-157 deg.C'
_cell_formula_units_Z            4
loop_
_atom_site_label
_atom_site_type_symbol
_atom_site_fract_x
_atom_site_fract_y
_atom_site_fract_z
C1 C -0.04390(5) 1.3960(2) 0.56844(13)
H1 H -0.0511 1.5038 0.5223
H2 H -0.0337 1.4296 0.6478
H3 H -0.0686 1.3203 0.5558
C2 C -0.02108(4) 1.25866(18) 0.42876(11)
C3 C 0.01288(4) 1.16253(18) 0.40344(11)
C4 C 0.01606(4) 1.09566(17) 0.30462(10)
C5 C 0.05736(4) 1.02175(17) 0.33059(10)
C6 C 0.07967(4) 0.92767(18) 0.27064(10)
H4 H 0.0675 0.9027 0.1931
C7 C 0.11953(4) 0.87194(19) 0.32611(11)
C8 C 0.13859(4) 0.91203(19) 0.44217(11)
C9 C 0.11645(4) 1.00354(19) 0.50255(11)
H5 H 0.1283 1.0307 0.5798
C10 C 0.07623(4) 1.05286(18) 0.44409(11)
C11 C 0.12716(4) 0.59957(19) 0.23653(11)
H6 H 0.0962 0.6035 0.2037
C12 C 0.13828(6) 0.4763(2) 0.33653(14)
H7 H 0.1686 0.4664 0.3665
H8 H 0.1263 0.3581 0.3136
H9 H 0.1271 0.5243 0.3946
C13 C 0.14612(6) 0.5435(2) 0.14689(14)
H10 H 0.1368 0.6245 0.0826
H11 H 0.1374 0.4216 0.1228
H12 H 0.1766 0.5481 0.1769
C14 C 0.20402(5) 0.9352(4) 0.58769(15)
H13 H 0.1897 0.9397 0.6401
C15 C 0.21964(10) 1.0965(4) 0.5606(4)
H14 H 0.1964 1.1741 0.5213
H15 H 0.2371 1.0730 0.5120
H16 H 0.2363 1.1552 0.6295
C16 C 0.23887(7) 0.7892(4) 0.6397(2)
H17 H 0.2539 0.8211 0.7174
H18 H 0.2585 0.7844 0.5955
H19 H 0.2257 0.6722 0.6381
O1 O -0.01174(3) 1.29916(13) 0.53806(8)
O2 O -0.05329(3) 1.29798(15) 0.35916(9)
O3 O 0.04927(3) 1.13911(13) 0.49029(7)
O4 O 0.14252(3) 0.77941(14) 0.26979(8)
O5 O 0.17816(3) 0.84965(17) 0.48752(9)
C1A C 0.04390(5) 1.3960(2) -0.06844(13)
H1A H 0.0511 1.5038 -0.0223
H2A H 0.0337 1.4296 -0.1478
H3A H 0.0686 1.3203 -0.0558
C2A C 0.02108(4) 1.25866(18) 0.07124(11)
C3A C -0.01288(4) 1.16253(18) 0.09656(11)
C4A C -0.01606(4) 1.09566(17) 0.19538(10)
C5A C -0.05736(4) 1.02175(17) 0.16941(10)
C6A C -0.07967(4) 0.92767(18) 0.22936(10)
H4A H -0.0675 0.9027 0.3069
C7A C -0.11953(4) 0.87194(19) 0.17389(11)
C8A C -0.13859(4) 0.91203(19) 0.05783(11)
C9A C -0.11645(4) 1.00354(19) -0.00255(11)
H5A H -0.1283 1.0307 -0.0798
C10A C -0.07623(4) 1.05286(18) 0.05591(11)
C11A C -0.12716(4) 0.59957(19) 0.26347(11)
H6A H -0.0962 0.6035 0.2963
C12A C -0.13828(6) 0.4763(2) 0.16347(14)
H7A H -0.1686 0.4664 0.1335
H8A H -0.1263 0.3581 0.1864
H9A H -0.1271 0.5243 0.1054
C13A C -0.14612(6) 0.5435(2) 0.35311(14)
H10A H -0.1368 0.6245 0.4174
H11A H -0.1374 0.4216 0.3772
H12A H -0.1766 0.5481 0.3231
C14A C -0.20402(5) 0.9352(4) -0.08769(15)
H13A H -0.1897 0.9397 -0.1401
C15A C -0.21964(10) 1.0965(4) -0.0606(4)
H14A H -0.1964 1.1741 -0.0213
H15A H -0.2371 1.0730 -0.0120
H16A H -0.2363 1.1552 -0.1295
C16A C -0.23887(7) 0.7892(4) -0.1397(2)
H17A H -0.2539 0.8211 -0.2174
H18A H -0.2585 0.7844 -0.0955
H19A H -0.2257 0.6722 -0.1381
O1A O 0.01174(3) 1.29916(13) -0.03806(8)
O2A O 0.05329(3) 1.29798(15) 0.14084(9)
O3A O -0.04927(3) 1.13911(13) 0.00971(7)
O4A O -0.14252(3) 0.77941(14) 0.23021(8)
O5A O -0.17816(3) 0.84965(17) 0.01248(9)
C17? C 0.2014(3) 0.8764(12) 0.6850(10)
C18? C 0.2469(2) 0.9941(13) 0.5724(8)
H20? H 0.1905 1.0546 0.5820
H21? H 0.2170 0.9563 0.7451
H22? H 0.2132 0.7561 0.6988
H23? H 0.1721 0.8732 0.6834
H24? H 0.2590 1.0904 0.6252
H25? H 0.2425 1.0364 0.4954
H26? H 0.2661 0.8922 0.5869
loop_
_geom_bond_atom_site_label_1
_geom_bond_atom_site_label_2
_geom_bond_site_symmetry_1
_geom_bond_site_symmetry_2
C1 H1 1_555 1_555
H2 C1 1_555 1_555
H3 C1 1_555 1_555
C2 C3 1_555 1_555
C3 C4 1_555 1_555
C4 C5 1_555 1_555
C5 C6 1_555 1_555
C6 H4 1_555 1_555
C7 C6 1_555 1_555
C8 C7 1_555 1_555
C9 C8 1_555 1_555
H5 C9 1_555 1_555
C10 C5 1_555 1_555
C11 H6 1_555 1_555
C12 C11 1_555 1_555
H7 C12 1_555 1_555
H8 C12 1_555 1_555
H9 C12 1_555 1_555
C13 C11 1_555 1_555
H10 C13 1_555 1_555
H11 C13 1_555 1_555
H12 C13 1_555 1_555
C14 H13 1_555 1_555
C15 C14 1_555 1_555
H14 C15 1_555 1_555
H15 C15 1_555 1_555
H16 C15 1_555 1_555
C16 C14 1_555 1_555
H17 C16 1_555 1_555
H18 C16 1_555 1_555
H19 C16 1_555 1_555
O1 C1 1_555 1_555
O2 C2 1_555 1_555
O3 C3 1_555 1_555
O4 C7 1_555 1_555
O5 C8 1_555 1_555
C1A H1A 1_555 1_555
H2A C1A 1_555 1_555
H3A C1A 1_555 1_555
C2A C3A 1_555 1_555
C3A C4A 1_555 1_555
C4A C4 1_555 1_555
C5A C4A 1_555 1_555
C6A C5A 1_555 1_555
H4A C6A 1_555 1_555
C7A C6A 1_555 1_555
C8A C7A 1_555 1_555
C9A C8A 1_555 1_555
H5A C9A 1_555 1_555
C10A C5A 1_555 1_555
C11A H6A 1_555 1_555
C12A C11A 1_555 1_555
H7A C12A 1_555 1_555
H8A C12A 1_555 1_555
H9A C12A 1_555 1_555
C13A C11A 1_555 1_555
H10A C13A 1_555 1_555
H11A C13A 1_555 1_555
H12A C13A 1_555 1_555
C14A H13A 1_555 1_555
C15A C14A 1_555 1_555
H14A C15A 1_555 1_555
H15A C15A 1_555 1_555
H16A C15A 1_555 1_555
C16A C14A 1_555 1_555
H17A C16A 1_555 1_555
H18A C16A 1_555 1_555
H19A C16A 1_555 1_555
O1A C1A 1_555 1_555
O2A C2A 1_555 1_555
O3A C3A 1_555 1_555
O4A C7A 1_555 1_555
O5A C8A 1_555 1_555
C2 O1 1_555 1_555
C9 C10 1_555 1_555
C10 O3 1_555 1_555
C11 O4 1_555 1_555
C14 O5 1_555 1_555
C2A O1A 1_555 1_555
C9A C10A 1_555 1_555
C10A O3A 1_555 1_555
C11A O4A 1_555 1_555
C14A O5A 1_555 1_555

#END
