
#######################################################################
#
#                 Cambridge Crystallographic Data Centre
#                                CCDC 
#
#######################################################################
#
# If this CIF has been generated from an entry in the Cambridge 
# Structural Database, then it will include bibliographic, chemical, 
# crystal, experimental, refinement or atomic coordinate data resulting 
# from the CCDC's data processing and validation procedures.
#
#######################################################################

data_HUHKAY
_chemical_formula_moiety         'C29 H28 Br2 O6'
_chemical_name_systematic        
'(7-((4-bromobenzoyl)oxy)-6,9a-dimethyl-3-oxo-1,3,5,5a,6,7,8,9,9a,9b-decahydronaphtho[1,2-c]furan-6-yl)methyl 4-bromobenzoate'
_symmetry_cell_setting           monoclinic
_symmetry_space_group_name_H-M   'P 21'
_symmetry_Int_Tables_number      4
_space_group_name_Hall           'P 2yb'
loop_
_symmetry_equiv_pos_site_id
_symmetry_equiv_pos_as_xyz
1 x,y,z
2 -x,1/2+y,-z
_cell_length_a                   6.2860(12)
_cell_length_b                   7.3672(15)
_cell_length_c                   28.272(6)
_cell_angle_alpha                90
_cell_angle_beta                 92.047(13)
_cell_angle_gamma                90
_cell_volume                     1308.45
_exptl_crystal_colour            colorless
_exptl_crystal_description       prism
_cell_formula_units_Z            2
loop_
_atom_site_label
_atom_site_type_symbol
_atom_site_fract_x
_atom_site_fract_y
_atom_site_fract_z
Br1 Br 0.03072(13) 0.31245(12) 0.03019(2)
Br2 Br 0.44364(12) -0.23249(12) 0.04981(2)
O1 O 0.3796(6) 0.4687(7) 0.25597(14)
O2 O 0.0648(7) 0.6148(7) 0.26012(15)
O3 O 0.6456(6) 0.1645(7) 0.26307(14)
O4 O 0.9884(7) 0.1423(7) 0.24084(14)
O5 O 0.7831(6) 0.7166(7) 0.52020(14)
O6 O 0.7858(7) 0.4580(7) 0.56181(14)
C1 C 0.5974(10) 0.7258(10) 0.36143(19)
H1 H 0.4574 0.7608 0.3736
H2 H 0.6920 0.8329 0.3642
C2 C 0.5683(10) 0.6755(9) 0.3093(2)
H3 H 0.5013 0.7772 0.2914
H4 H 0.7081 0.6494 0.2957
C3 C 0.4276(9) 0.5094(10) 0.3060(2)
H5 H 0.2908 0.5383 0.3213
C4 C 0.5217(8) 0.3374(9) 0.32959(19)
C5 C 0.5715(9) 0.3890(9) 0.3826(2)
H6 H 0.4281 0.4087 0.3960
C6 C 0.6673(9) 0.2345(9) 0.41239(19)
H7 H 0.5679 0.1302 0.4114
H8 H 0.8018 0.1947 0.3984
C7 C 0.7118(8) 0.2889(11) 0.46333(19)
H9 H 0.7492 0.1982 0.4860
C8 C 0.6996(9) 0.4607(10) 0.4770(2)
C9 C 0.6433(9) 0.6168(9) 0.4449(2)
H10 H 0.4871 0.6398 0.4467
C10 C 0.6918(9) 0.5720(10) 0.39247(19)
C11 C 0.7594(9) 0.7688(11) 0.47023(19)
H11 H 0.9008 0.7875 0.4567
H12 H 0.6773 0.8831 0.4670
C12 C 0.7588(9) 0.5324(10) 0.5239(2)
C13 C 0.1912(10) 0.5284(10) 0.2378(2)
C14 C 0.1606(10) 0.4787(10) 0.1874(2)
C15 C -0.0333(11) 0.5191(10) 0.1646(2)
H13 H -0.1407 0.5788 0.1816
C16 C -0.0717(11) 0.4753(11) 0.1188(2)
H14 H -0.2024 0.5084 0.1033
C17 C 0.0848(11) 0.3792(10) 0.0941(2)
C18 C 0.2836(10) 0.3466(10) 0.1159(2)
H15 H 0.3931 0.2923 0.0984
C19 C 0.3216(10) 0.3922(10) 0.1622(2)
H16 H 0.4555 0.3660 0.1773
C20 C 0.7186(8) 0.2641(11) 0.30421(18)
H17 H 0.8103 0.3662 0.2948
H18 H 0.8030 0.1839 0.3258
C21 C 0.7982(10) 0.1119(10) 0.2335(2)
C22 C 0.7072(10) 0.0237(10) 0.1907(2)
C23 C 0.8360(10) 0.0100(10) 0.1517(2)
H19 H 0.9793 0.0508 0.1544
C24 C 0.7613(11) -0.0604(11) 0.1097(2)
H20 H 0.8467 -0.0621 0.0827
C25 C 0.5515(11) -0.1310(10) 0.1079(2)
C26 C 0.4236(10) -0.1261(10) 0.1459(2)
H21 H 0.2846 -0.1769 0.1439
C27 C 0.5009(10) -0.0449(10) 0.1878(2)
H22 H 0.4126 -0.0366 0.2143
C28 C 0.3493(9) 0.1874(9) 0.3289(2)
H23 H 0.2388 0.2191 0.3510
H24 H 0.4144 0.0715 0.3382
H25 H 0.2854 0.1768 0.2969
C29 C 0.9318(9) 0.5580(10) 0.3850(2)
H26 H 0.9993 0.6753 0.3920
H27 H 0.9558 0.5247 0.3520
H28 H 0.9936 0.4650 0.4061
loop_
_geom_bond_atom_site_label_1
_geom_bond_atom_site_label_2
_geom_bond_site_symmetry_1
_geom_bond_site_symmetry_2
Br1 C17 1_555 1_555
Br2 C25 1_555 1_555
O1 C3 1_555 1_555
O2 C13 1_555 1_555
O3 C20 1_555 1_555
O4 C21 1_555 1_555
O5 C11 1_555 1_555
O6 C12 1_555 1_555
C1 H1 1_555 1_555
H2 C1 1_555 1_555
C2 C1 1_555 1_555
H3 C2 1_555 1_555
H4 C2 1_555 1_555
C3 C2 1_555 1_555
H5 C3 1_555 1_555
C4 C3 1_555 1_555
C5 C4 1_555 1_555
H6 C5 1_555 1_555
C6 C5 1_555 1_555
H7 C6 1_555 1_555
H8 C6 1_555 1_555
C7 C6 1_555 1_555
H9 C7 1_555 1_555
C8 C7 1_555 1_555
C9 C8 1_555 1_555
H10 C9 1_555 1_555
C10 C1 1_555 1_555
C11 C9 1_555 1_555
H11 C11 1_555 1_555
H12 C11 1_555 1_555
C12 O5 1_555 1_555
C13 O1 1_555 1_555
C14 C13 1_555 1_555
C15 C14 1_555 1_555
H13 C15 1_555 1_555
C16 C15 1_555 1_555
H14 C16 1_555 1_555
C17 C16 1_555 1_555
C18 C17 1_555 1_555
H15 C18 1_555 1_555
C19 C14 1_555 1_555
H16 C19 1_555 1_555
C20 C4 1_555 1_555
H17 C20 1_555 1_555
H18 C20 1_555 1_555
C21 O3 1_555 1_555
C22 C21 1_555 1_555
C23 C22 1_555 1_555
H19 C23 1_555 1_555
C24 C23 1_555 1_555
H20 C24 1_555 1_555
C25 C24 1_555 1_555
C26 C25 1_555 1_555
H21 C26 1_555 1_555
C27 C22 1_555 1_555
H22 C27 1_555 1_555
C28 C4 1_555 1_555
H23 C28 1_555 1_555
H24 C28 1_555 1_555
H25 C28 1_555 1_555
C29 C10 1_555 1_555
H26 C29 1_555 1_555
H27 C29 1_555 1_555
H28 C29 1_555 1_555
C5 C10 1_555 1_555
C8 C12 1_555 1_555
C9 C10 1_555 1_555
C18 C19 1_555 1_555
C26 C27 1_555 1_555

#END
