
#######################################################################
#
#                 Cambridge Crystallographic Data Centre
#                                CCDC 
#
#######################################################################
#
# If this CIF has been generated from an entry in the Cambridge 
# Structural Database, then it will include bibliographic, chemical, 
# crystal, experimental, refinement or atomic coordinate data resulting 
# from the CCDC's data processing and validation procedures.
#
#######################################################################

data_HUHNOP
_chemical_formula_moiety         'C16 H23 N3'
_chemical_name_systematic        N-t-Butyl-3-(t-butylimino)-3H-indol-2-amine
_symmetry_cell_setting           monoclinic
_symmetry_space_group_name_H-M   'P 21/n'
_symmetry_Int_Tables_number      14
_space_group_name_Hall           '-P 2yn'
loop_
_symmetry_equiv_pos_site_id
_symmetry_equiv_pos_as_xyz
1 x,y,z
2 1/2-x,1/2+y,1/2-z
3 -x,-y,-z
4 1/2+x,1/2-y,1/2+z
_cell_length_a                   9.3949(7)
_cell_length_b                   10.2467(9)
_cell_length_c                   16.5514(16)
_cell_angle_alpha                90
_cell_angle_beta                 103.123(2)
_cell_angle_gamma                90
_cell_volume                     1551.74
_cell_formula_units_Z            4
loop_
_atom_site_label
_atom_site_type_symbol
_atom_site_fract_x
_atom_site_fract_y
_atom_site_fract_z
N1 N 0.5204(3) 0.5543(3) 0.36609(16)
N2 N 0.6353(3) 0.5094(3) 0.25606(15)
H1 H 0.6254 0.5197 0.2035
N3 N 0.3925(3) 0.6165(3) 0.15396(16)
C1 C 0.5282(3) 0.5578(3) 0.28874(19)
C2 C 0.3990(3) 0.6219(3) 0.23151(19)
C3 C 0.3126(3) 0.6688(3) 0.29101(19)
C4 C 0.3899(3) 0.6236(3) 0.36840(19)
C5 C 0.3408(4) 0.6465(4) 0.4393(2)
H2 H 0.3908 0.6134 0.4902
C6 C 0.2146(4) 0.7204(4) 0.4331(2)
H3 H 0.1799 0.7374 0.4804
C7 C 0.1409(4) 0.7683(4) 0.3582(2)
H4 H 0.0577 0.8189 0.3555
C8 C 0.1878(3) 0.7427(4) 0.2862(2)
H5 H 0.1362 0.7748 0.2354
C9 C 0.7677(3) 0.4409(4) 0.30008(19)
C10 C 0.8493(4) 0.5241(4) 0.3720(2)
H6 H 0.8750 0.6062 0.3512
H7 H 0.9365 0.4795 0.3999
H8 H 0.7879 0.5390 0.4102
C11 C 0.8610(4) 0.4194(4) 0.2367(2)
H9 H 0.8083 0.3661 0.1921
H10 H 0.9503 0.3764 0.2630
H11 H 0.8830 0.5021 0.2152
C12 C 0.7259(4) 0.3100(4) 0.3310(2)
H12 H 0.6639 0.3237 0.3690
H13 H 0.8126 0.2645 0.3587
H14 H 0.6748 0.2589 0.2848
C13 C 0.2705(4) 0.6632(4) 0.08761(19)
C14 C 0.1281(4) 0.5950(4) 0.0941(2)
H15 H 0.1414 0.5022 0.0935
H16 H 0.0512 0.6202 0.0480
H17 H 0.1028 0.6201 0.1450
C15 C 0.2588(4) 0.8115(4) 0.0895(2)
H18 H 0.2446 0.8387 0.1426
H19 H 0.1774 0.8396 0.0468
H20 H 0.3471 0.8496 0.0802
C16 C 0.3090(5) 0.6212(6) 0.0066(2)
H21 H 0.3994 0.6612 0.0024
H22 H 0.2327 0.6480 -0.0395
H23 H 0.3190 0.5280 0.0060
loop_
_geom_bond_atom_site_label_1
_geom_bond_atom_site_label_2
_geom_bond_site_symmetry_1
_geom_bond_site_symmetry_2
N1 C1 1_555 1_555
N2 H1 1_555 1_555
N3 C2 1_555 1_555
C1 N2 1_555 1_555
C2 C1 1_555 1_555
C3 C2 1_555 1_555
C4 N1 1_555 1_555
C5 C4 1_555 1_555
H2 C5 1_555 1_555
C6 C5 1_555 1_555
H3 C6 1_555 1_555
C7 C6 1_555 1_555
H4 C7 1_555 1_555
C8 C3 1_555 1_555
H5 C8 1_555 1_555
C9 N2 1_555 1_555
C10 C9 1_555 1_555
H6 C10 1_555 1_555
H7 C10 1_555 1_555
H8 C10 1_555 1_555
C11 C9 1_555 1_555
H9 C11 1_555 1_555
H10 C11 1_555 1_555
H11 C11 1_555 1_555
C12 C9 1_555 1_555
H12 C12 1_555 1_555
H13 C12 1_555 1_555
H14 C12 1_555 1_555
C13 N3 1_555 1_555
C14 C13 1_555 1_555
H15 C14 1_555 1_555
H16 C14 1_555 1_555
H17 C14 1_555 1_555
C15 C13 1_555 1_555
H18 C15 1_555 1_555
H19 C15 1_555 1_555
H20 C15 1_555 1_555
C16 C13 1_555 1_555
H21 C16 1_555 1_555
H22 C16 1_555 1_555
H23 C16 1_555 1_555
C3 C4 1_555 1_555
C7 C8 1_555 1_555

#END
