
#######################################################################
#
#                 Cambridge Crystallographic Data Centre
#                                CCDC 
#
#######################################################################
#
# If this CIF has been generated from an entry in the Cambridge 
# Structural Database, then it will include bibliographic, chemical, 
# crystal, experimental, refinement or atomic coordinate data resulting 
# from the CCDC's data processing and validation procedures.
#
#######################################################################

data_HUHZIT
_chemical_formula_moiety         'C17 H18 O3'
_chemical_name_systematic        (E)-3,5,4'-Trimethoxystilbene
_chemical_properties_biological  
'key intermediate in the synthesis of trans-resveratrol, which has been shown to prevent cancer, lower blood pressure and reduce osteoporosis'
_symmetry_cell_setting           triclinic
_symmetry_space_group_name_H-M   'P -1'
_symmetry_Int_Tables_number      2
_space_group_name_Hall           '-P 1'
loop_
_symmetry_equiv_pos_site_id
_symmetry_equiv_pos_as_xyz
1 x,y,z
2 -x,-y,-z
_cell_length_a                   9.958(4)
_cell_length_b                   10.048(4)
_cell_length_c                   16.205(6)
_cell_angle_alpha                90.695(8)
_cell_angle_beta                 105.545(7)
_cell_angle_gamma                111.835(7)
_cell_volume                     1438.68
_exptl_crystal_colour            colorless
_exptl_crystal_description       prism
_chemical_melting_point          329.5-330.5K
_cell_formula_units_Z            4
_exptl_crystal_recrystallization_method 'ethyl acetate'
loop_
_atom_site_label
_atom_site_type_symbol
_atom_site_fract_x
_atom_site_fract_y
_atom_site_fract_z
O1 O -0.0032(2) 0.6268(3) 0.56782(14)
O2 O 0.4243(2) 1.0334(2) 0.57601(13)
O3 O 0.9097(2) 0.6888(2) 1.17518(13)
C1 C 0.2212(3) 0.6783(3) 0.69072(19)
H1 H 0.1727 0.5975 0.7149
C2 C 0.1446(4) 0.7089(4) 0.61339(19)
C3 C 0.2152(4) 0.8281(3) 0.57634(19)
H2 H 0.1632 0.8481 0.5244
C4 C 0.3631(4) 0.9168(3) 0.61701(18)
C5 C 0.4414(3) 0.8888(3) 0.69429(18)
H3 H 0.5414 0.9502 0.7212
C6 C 0.3706(3) 0.7685(3) 0.73213(18)
C7 C 0.4491(4) 0.7377(3) 0.81533(18)
H4 H 0.3888 0.6724 0.8437
C8 C 0.5960(3) 0.7927(3) 0.85426(18)
H5 H 0.6555 0.8554 0.8244
C9 C 0.6776(3) 0.7681(3) 0.93831(18)
C10 C 0.8341(3) 0.8191(3) 0.96368(19)
H6 H 0.8859 0.8709 0.9269
C11 C 0.9161(3) 0.7961(3) 1.04152(19)
H7 H 1.0211 0.8311 1.0562
C12 C 0.8413(3) 0.7208(3) 1.09727(18)
C13 C 0.6861(3) 0.6709(3) 1.07416(18)
H8 H 0.6352 0.6208 1.1117
C14 C 0.6050(3) 0.6937(3) 0.99671(18)
H9 H 0.5001 0.6591 0.9828
C15 C -0.0813(4) 0.5002(4) 0.6001(2)
H10 H -0.0280 0.4370 0.6050
H11 H -0.1815 0.4522 0.5613
H12 H -0.0876 0.5255 0.6558
C16 C 0.5796(4) 1.1235(3) 0.6126(2)
H13 H 0.5944 1.1695 0.6684
H14 H 0.6101 1.1959 0.5757
H15 H 0.6393 1.0661 0.6183
C17 C 1.0694(4) 0.7555(4) 1.2070(2)
H16 H 1.1134 0.7191 1.1708
H17 H 1.1021 0.7346 1.2649
H18 H 1.1009 0.8582 1.2069
O4 O -0.3335(3) 0.6819(2) 0.63850(15)
O5 O 0.0308(3) 1.1228(3) 0.60074(14)
O6 O 0.4803(2) 0.7043(2) 1.21916(12)
C18 C -0.1941(4) 0.7934(4) 0.6645(2)
C19 C -0.1477(4) 0.9063(3) 0.61767(19)
H19 H -0.2115 0.9110 0.5651
C20 C -0.0040(4) 1.0125(3) 0.6508(2)
C21 C 0.0929(3) 1.0073(3) 0.72851(19)
H20 H 0.1892 1.0798 0.7495
C22 C 0.0445(3) 0.8917(3) 0.77516(18)
C23 C -0.1001(4) 0.7873(3) 0.74229(19)
H21 H -0.1344 0.7113 0.7736
C24 C 0.1467(3) 0.8851(3) 0.85742(18)
H22 H 0.2262 0.9708 0.8854
C25 C 0.1347(3) 0.7664(3) 0.89528(18)
H23 H 0.0571 0.6815 0.8647
C26 C 0.2275(3) 0.7514(3) 0.97881(18)
C27 C 0.3433(3) 0.8674(3) 1.03543(18)
H24 H 0.3657 0.9601 1.0197
C28 C 0.4249(3) 0.8485(3) 1.11361(18)
H25 H 0.5027 0.9278 1.1498
C29 C 0.3923(3) 0.7114(3) 1.13931(18)
C30 C 0.2787(3) 0.5942(3) 1.08430(19)
H26 H 0.2564 0.5016 1.1002
C31 C 0.1985(3) 0.6158(3) 1.00548(18)
H27 H 0.1220 0.5362 0.9689
C32 C -0.4395(4) 0.6868(4) 0.5622(2)
H28 H -0.4540 0.7756 0.5664
H29 H -0.5341 0.6067 0.5545
H30 H -0.4026 0.6814 0.5138
C33 C 0.1790(4) 1.2307(4) 0.6251(2)
H31 H 0.1994 1.2810 0.6806
H32 H 0.1879 1.2977 0.5832
H33 H 0.2504 1.1865 0.6280
C34 C 0.4351(4) 0.5702(3) 1.2535(2)
H34 H 0.3315 0.5401 1.2531
H35 H 0.4980 0.5817 1.3117
H36 H 0.4455 0.4985 1.2188
loop_
_geom_bond_atom_site_label_1
_geom_bond_atom_site_label_2
_geom_bond_site_symmetry_1
_geom_bond_site_symmetry_2
O1 C2 1_555 1_555
O2 C4 1_555 1_555
O3 C12 1_555 1_555
C1 H1 1_555 1_555
C2 C1 1_555 1_555
C3 C2 1_555 1_555
H2 C3 1_555 1_555
C4 C3 1_555 1_555
C5 C4 1_555 1_555
H3 C5 1_555 1_555
C6 C1 1_555 1_555
C7 C6 1_555 1_555
H4 C7 1_555 1_555
C8 C7 1_555 1_555
H5 C8 1_555 1_555
C9 C8 1_555 1_555
C10 C9 1_555 1_555
H6 C10 1_555 1_555
C11 C10 1_555 1_555
H7 C11 1_555 1_555
C12 C11 1_555 1_555
C13 C12 1_555 1_555
H8 C13 1_555 1_555
C14 C9 1_555 1_555
H9 C14 1_555 1_555
C15 O1 1_555 1_555
H10 C15 1_555 1_555
H11 C15 1_555 1_555
H12 C15 1_555 1_555
C16 O2 1_555 1_555
H13 C16 1_555 1_555
H14 C16 1_555 1_555
H15 C16 1_555 1_555
C17 O3 1_555 1_555
H16 C17 1_555 1_555
H17 C17 1_555 1_555
H18 C17 1_555 1_555
O4 C18 1_555 1_555
O5 C20 1_555 1_555
O6 C29 1_555 1_555
C18 C19 1_555 1_555
C19 H19 1_555 1_555
C20 C19 1_555 1_555
C21 C20 1_555 1_555
H20 C21 1_555 1_555
C22 C21 1_555 1_555
C23 C18 1_555 1_555
H21 C23 1_555 1_555
C24 C22 1_555 1_555
H22 C24 1_555 1_555
C25 C24 1_555 1_555
H23 C25 1_555 1_555
C26 C25 1_555 1_555
C27 C26 1_555 1_555
H24 C27 1_555 1_555
C28 C27 1_555 1_555
H25 C28 1_555 1_555
C29 C28 1_555 1_555
C30 C29 1_555 1_555
H26 C30 1_555 1_555
C31 C26 1_555 1_555
H27 C31 1_555 1_555
C32 O4 1_555 1_555
H28 C32 1_555 1_555
H29 C32 1_555 1_555
H30 C32 1_555 1_555
C33 O5 1_555 1_555
H31 C33 1_555 1_555
H32 C33 1_555 1_555
H33 C33 1_555 1_555
C34 O6 1_555 1_555
H34 C34 1_555 1_555
H35 C34 1_555 1_555
H36 C34 1_555 1_555
C5 C6 1_555 1_555
C13 C14 1_555 1_555
C22 C23 1_555 1_555
C30 C31 1_555 1_555

#END
