
#######################################################################
#
#                 Cambridge Crystallographic Data Centre
#                                CCDC 
#
#######################################################################
#
# If this CIF has been generated from an entry in the Cambridge 
# Structural Database, then it will include bibliographic, chemical, 
# crystal, experimental, refinement or atomic coordinate data resulting 
# from the CCDC's data processing and validation procedures.
#
#######################################################################

data_HUJBUJ
_chemical_formula_moiety         'C33 H56 Li1 N1 O2 P2 Si2'
_chemical_name_systematic        
(2-Trimethylsilylimino(dimethyl)phosphorano-1,3-diphenyl-3-(t-butyldimethylsilyl)-1-phospha-allyl-N,P)-bis(tetrahydrofuran)-lithium
_symmetry_cell_setting           triclinic
_symmetry_space_group_name_H-M   'P -1'
_symmetry_Int_Tables_number      2
_space_group_name_Hall           '-P 1'
loop_
_symmetry_equiv_pos_site_id
_symmetry_equiv_pos_as_xyz
1 x,y,z
2 -x,-y,-z
_cell_length_a                   10.655(3)
_cell_length_b                   17.776(5)
_cell_length_c                   21.218(6)
_cell_angle_alpha                103.262(6)
_cell_angle_beta                 97.354(6)
_cell_angle_gamma                94.270(5)
_cell_volume                     3856.91
_exptl_crystal_colour            purple
_chemical_melting_point          '142-144 deg.C'
_cell_formula_units_Z            4
loop_
_atom_site_label
_atom_site_type_symbol
_atom_site_fract_x
_atom_site_fract_y
_atom_site_fract_z
Li1 Li 0.3215(13) 0.7678(8) 0.5383(6)
P1 P 0.1058(2) 0.80864(13) 0.45534(11)
P2 P 0.3251(2) 0.72148(13) 0.41058(10)
Si1 Si 0.0897(3) 0.84669(16) 0.59783(13)
Si2 Si 0.1263(2) 0.56846(13) 0.31695(10)
N1 N 0.1475(5) 0.8077(3) 0.5287(2)
O1 O 0.3352(8) 0.6805(3) 0.5761(2)
O2 O 0.4688(7) 0.8449(4) 0.5777(3)
C1 C 0.2078(8) 0.8484(5) 0.6727(3)
H1 H 0.2287 0.7966 0.6719
H2 H 0.1711 0.8683 0.7114
H3 H 0.2836 0.8812 0.6728
C2 C 0.0549(9) 0.9467(5) 0.6047(4)
H4 H 0.1301 0.9780 0.6015
H5 H 0.0277 0.9664 0.6463
H6 H -0.0114 0.9485 0.5701
C3 C -0.0595(8) 0.7891(5) 0.6051(4)
H7 H -0.0440 0.7360 0.6021
H8 H -0.1252 0.7914 0.5704
H9 H -0.0859 0.8103 0.6465
C4 C 0.1806(7) 0.8915(4) 0.4350(3)
H10 H 0.1600 0.9381 0.4629
H11 H 0.1509 0.8907 0.3902
H12 H 0.2712 0.8902 0.4410
C5 C -0.0603(6) 0.8235(4) 0.4346(3)
H13 H -0.1142 0.7824 0.4432
H14 H -0.0776 0.8234 0.3891
H15 H -0.0766 0.8725 0.4607
C6 C 0.1516(7) 0.7224(4) 0.4010(3)
C7 C 0.0736(7) 0.6576(5) 0.3719(3)
C8 C -0.0632(9) 0.6500(4) 0.3818(5)
C9 C -0.1618(10) 0.6556(4) 0.3337(4)
H16 H -0.1430 0.6634 0.2939
C10 C -0.2903(11) 0.6495(5) 0.3445(5)
H17 H -0.3550 0.6531 0.3118
C11 C -0.3190(10) 0.6385(5) 0.4022(6)
H18 H -0.4032 0.6358 0.4095
C12 C -0.2249(11) 0.6315(5) 0.4497(5)
H19 H -0.2455 0.6232 0.4890
C13 C -0.0965(8) 0.6365(4) 0.4398(4)
H20 H -0.0334 0.6307 0.4724
C14 C -0.0164(7) 0.5196(4) 0.2574(3)
H21 H -0.0478 0.5550 0.2327
H22 H -0.0814 0.5040 0.2807
H23 H 0.0064 0.4746 0.2282
C15 C 0.2454(7) 0.5914(4) 0.2646(3)
H24 H 0.2160 0.6295 0.2423
H25 H 0.2556 0.5450 0.2330
H26 H 0.3256 0.6115 0.2916
C16 C 0.1785(8) 0.4942(4) 0.3628(4)
C17 C 0.2974(8) 0.5233(5) 0.4142(4)
H27 H 0.3666 0.5384 0.3933
H28 H 0.3198 0.4824 0.4349
H29 H 0.2802 0.5671 0.4466
C18 C 0.0761(8) 0.4703(5) 0.3975(4)
H30 H 0.0001 0.4509 0.3667
H31 H 0.0596 0.5142 0.4300
H32 H 0.1023 0.4302 0.4183
C19 C 0.2128(9) 0.4227(5) 0.3143(4)
H33 H 0.1411 0.4022 0.2808
H34 H 0.2346 0.3837 0.3372
H35 H 0.2839 0.4377 0.2946
C20 C 0.3787(10) 0.7860(4) 0.3636(4)
C21 C 0.3038(9) 0.8050(5) 0.3116(5)
H36 H 0.2179 0.7865 0.3019
C22 C 0.3544(13) 0.8506(6) 0.2745(5)
H37 H 0.3016 0.8626 0.2405
C23 C 0.4794(16) 0.8782(7) 0.2863(7)
H38 H 0.5119 0.9110 0.2626
C24 C 0.5551(12) 0.8566(7) 0.3335(7)
H39 H 0.6421 0.8719 0.3397
C25 C 0.5079(10) 0.8124(5) 0.3735(4)
H40 H 0.5627 0.8005 0.4068
C26 C 0.2355(9) 0.6385(6) 0.5952(5)
H41 H 0.1849 0.6034 0.5571
H42 H 0.1806 0.6739 0.6169
C27 C 0.2901(12) 0.5962(7) 0.6384(6)
H43 H 0.2438 0.5450 0.6302
H44 H 0.2895 0.6233 0.6835
C28 C 0.4178(12) 0.5904(7) 0.6251(7)
H45 H 0.4249 0.5392 0.5984
H46 H 0.4760 0.5987 0.6657
C29 C 0.4488(10) 0.6489(7) 0.5908(5)
H47 H 0.5127 0.6888 0.6180
H48 H 0.4814 0.6259 0.5509
C30 C 0.5951(12) 0.8385(7) 0.5764(6)
H49 H 0.6081 0.8031 0.5362
H50 H 0.6319 0.8194 0.6132
C31 C 0.6545(12) 0.9199(10) 0.5805(9)
H51 H 0.7040 0.9421 0.6233
H52 H 0.7095 0.9195 0.5474
C32 C 0.5631(18) 0.9572(10) 0.5709(8)
H53 H 0.5351 0.9510 0.5245
H54 H 0.5837 1.0120 0.5919
C33 C 0.4706(14) 0.9220(9) 0.6004(8)
H55 H 0.4929 0.9364 0.6477
H56 H 0.3877 0.9384 0.5889
Li2 Li 0.7207(12) 0.7534(8) 1.0548(6)
P3 P 0.8601(2) 0.67144(12) 0.95513(10)
P4 P 0.6162(2) 0.74712(13) 0.93556(10)
Si3 Si 0.9960(3) 0.69886(15) 1.09042(12)
Si4 Si 0.7323(3) 0.84583(15) 0.83440(12)
N2 N 0.8836(5) 0.7108(3) 1.0309(2)
O3 O 0.7427(8) 0.8616(3) 1.1053(3)
O4 O 0.6165(6) 0.6968(4) 1.1027(3)
C34 C 0.9491(8) 0.7361(5) 1.1722(3)
H57 H 0.9352 0.7898 1.1777
H58 H 1.0157 0.7312 1.2056
H59 H 0.8722 0.7066 1.1756
C35 C 1.0238(8) 0.5972(5) 1.0848(4)
H60 H 0.9449 0.5671 1.0843
H61 H 1.0834 0.5940 1.1218
H62 H 1.0577 0.5772 1.0452
C36 C 1.1517(7) 0.7533(5) 1.0914(4)
H63 H 1.1410 0.8071 1.0947
H64 H 1.1847 0.7323 1.0517
H65 H 1.2102 0.7485 1.1283
C37 C 0.7639(6) 0.5809(4) 0.9369(3)
H66 H 0.8054 0.5461 0.9591
H67 H 0.7513 0.5589 0.8905
H68 H 0.6830 0.5889 0.9513
C38 C 0.9995(6) 0.6409(4) 0.9211(3)
H69 H 1.0614 0.6851 0.9275
H70 H 0.9766 0.6176 0.8751
H71 H 1.0349 0.6035 0.9425
C39 C 0.7758(7) 0.7340(4) 0.9119(3)
C40 C 0.8282(8) 0.7813(4) 0.8787(3)
C41 C 0.9688(9) 0.7880(5) 0.8774(5)
C42 C 1.0167(11) 0.7537(6) 0.8225(5)
H72 H 0.9611 0.7262 0.7857
C43 C 1.1468(16) 0.7589(7) 0.8205(6)
H73 H 1.1781 0.7362 0.7825
C44 C 1.2276(13) 0.7979(8) 0.8751(8)
H74 H 1.3149 0.8002 0.8744
C45 C 1.1840(12) 0.8334(6) 0.9306(6)
H75 H 1.2402 0.8602 0.9675
C46 C 1.0541(12) 0.8286(5) 0.9308(5)
H76 H 1.0232 0.8536 0.9683
C47 C 0.8258(8) 0.8639(5) 0.7689(3)
H77 H 0.8374 0.8151 0.7408
H78 H 0.9073 0.8914 0.7889
H79 H 0.7803 0.8943 0.7437
C48 C 0.5732(7) 0.7991(5) 0.7873(3)
H80 H 0.5826 0.7485 0.7613
H81 H 0.5409 0.8308 0.7592
H82 H 0.5148 0.7940 0.8174
C49 C 0.7171(10) 0.9435(5) 0.8878(5)
C50 C 0.8455(11) 0.9789(6) 0.9265(5)
H83 H 0.9072 0.9782 0.8971
H84 H 0.8711 0.9493 0.9576
H85 H 0.8398 1.0316 0.9492
C51 C 0.6188(10) 0.9447(5) 0.9314(4)
H86 H 0.5384 0.9218 0.9058
H87 H 0.6118 0.9974 0.9534
H88 H 0.6424 0.9155 0.9631
C52 C 0.6796(10) 0.9985(6) 0.8429(5)
H89 H 0.7398 0.9988 0.8129
H90 H 0.6796 1.0502 0.8693
H91 H 0.5961 0.9805 0.8188
C53 C 0.5181(8) 0.6596(5) 0.8879(4)
C54 C 0.5476(8) 0.6127(6) 0.8306(5)
H92 H 0.6236 0.6245 0.8160
C55 C 0.4632(11) 0.5473(6) 0.7942(4)
H93 H 0.4855 0.5151 0.7571
C56 C 0.3494(11) 0.5317(7) 0.8138(7)
H94 H 0.2930 0.4896 0.7894
C57 C 0.3182(12) 0.5773(8) 0.8687(7)
H95 H 0.2399 0.5664 0.8815
C58 C 0.4021(10) 0.6409(6) 0.9068(5)
H96 H 0.3797 0.6707 0.9449
C59 C 0.8527(11) 0.9151(8) 1.1130(6)
H97 H 0.9275 0.8939 1.1300
H98 H 0.8651 0.9254 1.0712
C60 C 0.8337(14) 0.9833(8) 1.1567(8)
H99 H 0.8569 1.0281 1.1402
H100 H 0.8853 0.9884 1.1989
C61 C 0.7045(15) 0.9780(9) 1.1627(8)
H101 H 0.6648 1.0192 1.1474
H102 H 0.6940 0.9831 1.2082
C62 C 0.6470(11) 0.9037(8) 1.1239(6)
H103 H 0.5966 0.8779 1.1493
H104 H 0.5917 0.9098 1.0858
C63 C 0.5555(15) 0.7195(8) 1.1485(9)
H105 H 0.5014 0.7578 1.1379
H106 H 0.6143 0.7443 1.1879
C64 C 0.4787(14) 0.6561(10) 1.1604(8)
H107 H 0.3995 0.6722 1.1743
H108 H 0.5237 0.6337 1.1930
C65 C 0.4568(16) 0.6029(9) 1.0969(7)
H109 H 0.4404 0.5494 1.0995
H110 H 0.3883 0.6158 1.0679
C66 C 0.5787(16) 0.6186(10) 1.0786(7)
H111 H 0.6397 0.5885 1.0968
H112 H 0.5733 0.6047 1.0313
loop_
_geom_bond_atom_site_label_1
_geom_bond_atom_site_label_2
_geom_bond_site_symmetry_1
_geom_bond_site_symmetry_2
Li1 P2 1_555 1_555
Li2 P4 1_555 1_555
P1 N1 1_555 1_555
P2 C6 1_555 1_555
P3 N2 1_555 1_555
P4 C39 1_555 1_555
Si1 N1 1_555 1_555
Si2 C7 1_555 1_555
Si3 N2 1_555 1_555
Si4 C40 1_555 1_555
N1 Li1 1_555 1_555
N2 Li2 1_555 1_555
O1 Li1 1_555 1_555
O2 Li1 1_555 1_555
O3 Li2 1_555 1_555
O4 Li2 1_555 1_555
C1 Si1 1_555 1_555
H1 C1 1_555 1_555
H2 C1 1_555 1_555
H3 C1 1_555 1_555
C2 Si1 1_555 1_555
H4 C2 1_555 1_555
H5 C2 1_555 1_555
H6 C2 1_555 1_555
C3 Si1 1_555 1_555
H7 C3 1_555 1_555
H8 C3 1_555 1_555
H9 C3 1_555 1_555
C4 P1 1_555 1_555
H10 C4 1_555 1_555
H11 C4 1_555 1_555
H12 C4 1_555 1_555
C5 P1 1_555 1_555
H13 C5 1_555 1_555
H14 C5 1_555 1_555
H15 C5 1_555 1_555
C6 P1 1_555 1_555
C7 C6 1_555 1_555
C8 C7 1_555 1_555
C9 C8 1_555 1_555
H16 C9 1_555 1_555
C10 C9 1_555 1_555
H17 C10 1_555 1_555
C11 C10 1_555 1_555
H18 C11 1_555 1_555
C12 C11 1_555 1_555
H19 C12 1_555 1_555
C13 C8 1_555 1_555
H20 C13 1_555 1_555
C14 Si2 1_555 1_555
H21 C14 1_555 1_555
H22 C14 1_555 1_555
H23 C14 1_555 1_555
C15 Si2 1_555 1_555
H24 C15 1_555 1_555
H25 C15 1_555 1_555
H26 C15 1_555 1_555
C16 Si2 1_555 1_555
C17 C16 1_555 1_555
H27 C17 1_555 1_555
H28 C17 1_555 1_555
H29 C17 1_555 1_555
C18 C16 1_555 1_555
H30 C18 1_555 1_555
H31 C18 1_555 1_555
H32 C18 1_555 1_555
C19 C16 1_555 1_555
H33 C19 1_555 1_555
H34 C19 1_555 1_555
H35 C19 1_555 1_555
C20 P2 1_555 1_555
C21 C20 1_555 1_555
H36 C21 1_555 1_555
C22 C21 1_555 1_555
H37 C22 1_555 1_555
C23 C22 1_555 1_555
H38 C23 1_555 1_555
C24 C23 1_555 1_555
H39 C24 1_555 1_555
C25 C20 1_555 1_555
H40 C25 1_555 1_555
C26 O1 1_555 1_555
H41 C26 1_555 1_555
H42 C26 1_555 1_555
C27 C26 1_555 1_555
H43 C27 1_555 1_555
H44 C27 1_555 1_555
C28 C27 1_555 1_555
H45 C28 1_555 1_555
H46 C28 1_555 1_555
C29 O1 1_555 1_555
H47 C29 1_555 1_555
H48 C29 1_555 1_555
C30 O2 1_555 1_555
H49 C30 1_555 1_555
H50 C30 1_555 1_555
C31 C30 1_555 1_555
H51 C31 1_555 1_555
H52 C31 1_555 1_555
C32 C31 1_555 1_555
H53 C32 1_555 1_555
H54 C32 1_555 1_555
C33 O2 1_555 1_555
H55 C33 1_555 1_555
H56 C33 1_555 1_555
C34 Si3 1_555 1_555
H57 C34 1_555 1_555
H58 C34 1_555 1_555
H59 C34 1_555 1_555
C35 Si3 1_555 1_555
H60 C35 1_555 1_555
H61 C35 1_555 1_555
H62 C35 1_555 1_555
C36 Si3 1_555 1_555
H63 C36 1_555 1_555
H64 C36 1_555 1_555
H65 C36 1_555 1_555
C37 P3 1_555 1_555
H66 C37 1_555 1_555
H67 C37 1_555 1_555
H68 C37 1_555 1_555
C38 P3 1_555 1_555
H69 C38 1_555 1_555
H70 C38 1_555 1_555
H71 C38 1_555 1_555
C39 P3 1_555 1_555
C40 C39 1_555 1_555
C41 C40 1_555 1_555
C42 C41 1_555 1_555
H72 C42 1_555 1_555
C43 C42 1_555 1_555
H73 C43 1_555 1_555
C44 C43 1_555 1_555
H74 C44 1_555 1_555
C45 C44 1_555 1_555
H75 C45 1_555 1_555
C46 C41 1_555 1_555
H76 C46 1_555 1_555
C47 Si4 1_555 1_555
H77 C47 1_555 1_555
H78 C47 1_555 1_555
H79 C47 1_555 1_555
C48 Si4 1_555 1_555
H80 C48 1_555 1_555
H81 C48 1_555 1_555
H82 C48 1_555 1_555
C49 Si4 1_555 1_555
C50 C49 1_555 1_555
H83 C50 1_555 1_555
H84 C50 1_555 1_555
H85 C50 1_555 1_555
C51 C49 1_555 1_555
H86 C51 1_555 1_555
H87 C51 1_555 1_555
H88 C51 1_555 1_555
C52 C49 1_555 1_555
H89 C52 1_555 1_555
H90 C52 1_555 1_555
H91 C52 1_555 1_555
C53 P4 1_555 1_555
C54 C53 1_555 1_555
H92 C54 1_555 1_555
C55 C54 1_555 1_555
H93 C55 1_555 1_555
C56 C55 1_555 1_555
H94 C56 1_555 1_555
C57 C56 1_555 1_555
H95 C57 1_555 1_555
C58 C53 1_555 1_555
H96 C58 1_555 1_555
C59 O3 1_555 1_555
H97 C59 1_555 1_555
H98 C59 1_555 1_555
C60 C59 1_555 1_555
H99 C60 1_555 1_555
H100 C60 1_555 1_555
C61 C60 1_555 1_555
H101 C61 1_555 1_555
H102 C61 1_555 1_555
C62 O3 1_555 1_555
H103 C62 1_555 1_555
H104 C62 1_555 1_555
C63 O4 1_555 1_555
H105 C63 1_555 1_555
H106 C63 1_555 1_555
C64 C63 1_555 1_555
H107 C64 1_555 1_555
H108 C64 1_555 1_555
C65 C64 1_555 1_555
H109 C65 1_555 1_555
H110 C65 1_555 1_555
C66 O4 1_555 1_555
H111 C66 1_555 1_555
H112 C66 1_555 1_555
C12 C13 1_555 1_555
C24 C25 1_555 1_555
C28 C29 1_555 1_555
C32 C33 1_555 1_555
C45 C46 1_555 1_555
C57 C58 1_555 1_555
C61 C62 1_555 1_555
C65 C66 1_555 1_555

#END
