
#######################################################################
#
#                 Cambridge Crystallographic Data Centre
#                                CCDC 
#
#######################################################################
#
# If this CIF has been generated from an entry in the Cambridge 
# Structural Database, then it will include bibliographic, chemical, 
# crystal, experimental, refinement or atomic coordinate data resulting 
# from the CCDC's data processing and validation procedures.
#
#######################################################################

data_HUJTOX
_chemical_formula_moiety         'C24 H16 Br3 N1'
_chemical_name_systematic        
2-(4-bromobenzyl)-4,6-bis(4-bromophenyl)pyridine
_symmetry_cell_setting           triclinic
_symmetry_space_group_name_H-M   'P -1'
_symmetry_Int_Tables_number      2
_space_group_name_Hall           '-P 1'
loop_
_symmetry_equiv_pos_site_id
_symmetry_equiv_pos_as_xyz
1 x,y,z
2 -x,-y,-z
_cell_length_a                   9.8400(9)
_cell_length_b                   13.6565(13)
_cell_length_c                   15.8730(16)
_cell_angle_alpha                102.909(6)
_cell_angle_beta                 93.588(6)
_cell_angle_gamma                95.664(6)
_cell_volume                     2061.06
_exptl_crystal_colour            colorless
_exptl_crystal_description       plate
_cell_formula_units_Z            4
loop_
_atom_site_label
_atom_site_type_symbol
_atom_site_fract_x
_atom_site_fract_y
_atom_site_fract_z
Br1 Br 0.26648(12) 1.53152(8) 0.58105(7)
Br2 Br 0.43183(10) 0.88153(8) 0.78072(6)
Br3 Br -0.32802(9) 0.52350(7) 0.03759(6)
C1 C 0.1042(8) 1.0350(7) 0.3360(5)
C2 C 0.1660(8) 1.0285(6) 0.4152(5)
H1 H 0.2131 1.0872 0.4537
C3 C 0.1586(8) 0.9362(6) 0.4379(5)
C4 C 0.0875(8) 0.8538(6) 0.3803(5)
H2 H 0.0816 0.7892 0.3938
C5 C 0.0235(8) 0.8645(6) 0.3015(5)
C6 C 0.1134(10) 1.1324(7) 0.3032(6)
H3 H 0.183 1.1286 0.2605
H4 H 0.0241 1.1358 0.2723
C7 C 0.1498(9) 1.2289(7) 0.3721(6)
C8 C 0.2784(9) 1.2849(7) 0.3769(5)
H5 H 0.3432 1.261 0.3376
C9 C 0.3116(10) 1.3740(7) 0.4379(6)
H6 H 0.3989 1.4116 0.4404
C10 C 0.2192(9) 1.4093(7) 0.4956(6)
C11 C 0.0913(9) 1.3565(8) 0.4933(6)
H7 H 0.0268 1.3812 0.5325
C12 C 0.0603(9) 1.2663(7) 0.4317(6)
H8 H -0.0264 1.2284 0.4304
C13 C 0.2269(7) 0.9245(7) 0.5207(5)
C14 C 0.2236(8) 0.9969(7) 0.5976(6)
H9 H 0.1794 1.0555 0.5968
C15 C 0.2841(8) 0.9846(7) 0.6757(6)
H10 H 0.2806 1.0338 0.7281
C16 C 0.3493(8) 0.8998(7) 0.6755(5)
C17 C 0.3555(9) 0.8280(7) 0.5999(5)
H11 H 0.4023 0.7705 0.6004
C18 C 0.2930(8) 0.8406(6) 0.5236(6)
H12 H 0.2954 0.7904 0.4717
C19 C -0.0547(8) 0.7793(6) 0.2380(5)
C20 C -0.1077(8) 0.6927(7) 0.2627(6)
H13 H -0.09 0.6872 0.3209
C21 C -0.1870(8) 0.6133(7) 0.2025(6)
H14 H -0.2224 0.5536 0.2188
C22 C -0.2122(8) 0.6250(7) 0.1179(5)
C23 C -0.1586(9) 0.7101(7) 0.0926(5)
H15 H -0.1751 0.7158 0.0344
C24 C -0.0817(9) 0.7861(7) 0.1523(5)
H16 H -0.0456 0.845 0.1351
N1 N 0.0354(7) 0.9537(5) 0.2798(4)
Br4 Br 0.51403(12) -0.40250(8) 0.78746(7)
Br5 Br 0.41118(10) 0.25499(8) 0.59638(6)
Br6 Br 1.20864(9) 0.58809(7) 1.33267(6)
C25 C 0.7968(8) 0.0805(7) 1.0157(5)
C26 C 0.7322(8) 0.0898(7) 0.9386(5)
H17 H 0.6879 0.0316 0.8982
C27 C 0.7321(8) 0.1843(6) 0.9202(5)
C28 C 0.8036(7) 0.2669(7) 0.9787(5)
H18 H 0.8097 0.3319 0.9661
C29 C 0.8664(8) 0.2542(7) 1.0558(5)
C30 C 0.8044(10) -0.0177(7) 1.0433(6)
H19 H 0.766 -0.0115 1.1001
H20 H 0.9022 -0.0278 1.0518
C31 C 0.7301(8) -0.1119(7) 0.9808(5)
C32 C 0.7979(9) -0.1633(7) 0.9134(5)
H21 H 0.8884 -0.1379 0.9054
C33 C 0.7357(8) -0.2500(6) 0.8583(5)
H22 H 0.7836 -0.2856 0.8133
C34 C 0.6047(9) -0.2850(7) 0.8683(6)
C35 C 0.5319(9) -0.2369(7) 0.9340(6)
H23 H 0.4407 -0.2623 0.9404
C36 C 0.5978(9) -0.1498(8) 0.9905(5)
H24 H 0.5508 -0.1156 1.0368
C37 C 0.6533(8) 0.1984(6) 0.8412(5)
C38 C 0.5926(8) 0.2830(6) 0.8427(5)
H25 H 0.6034 0.334 0.895
C39 C 0.5151(9) 0.2997(7) 0.7722(6)
H26 H 0.4691 0.3585 0.7775
C40 C 0.5064(8) 0.2288(7) 0.6939(5)
C41 C 0.5696(8) 0.1415(7) 0.6896(5)
H27 H 0.5631 0.0915 0.6368
C42 C 0.6416(8) 0.1283(7) 0.7625(5)
H28 H 0.6852 0.0686 0.7587
C43 C 0.9422(8) 0.3388(6) 1.1217(5)
C44 C 0.9413(8) 0.3370(7) 1.2097(5)
H29 H 0.8867 0.2842 1.2262
C45 C 1.0183(8) 0.4105(7) 1.2719(6)
H30 H 1.0185 0.4086 1.3313
C46 C 1.0966(8) 0.4882(7) 1.2469(5)
C47 C 1.0964(8) 0.4920(7) 1.1604(5)
H31 H 1.1497 0.5456 1.1442
C48 C 1.0183(8) 0.4174(6) 1.0979(6)
H32 H 1.017 0.4201 1.0386
N2 N 0.8608(7) 0.1615(5) 1.0744(4)
loop_
_geom_bond_atom_site_label_1
_geom_bond_atom_site_label_2
_geom_bond_site_symmetry_1
_geom_bond_site_symmetry_2
Br1 C10 1_555 1_555
Br2 C16 1_555 1_555
Br3 C22 1_555 1_555
C1 C2 1_555 1_555
C2 H1 1_555 1_555
C3 C2 1_555 1_555
C4 C3 1_555 1_555
H2 C4 1_555 1_555
C5 C4 1_555 1_555
C6 C1 1_555 1_555
H3 C6 1_555 1_555
H4 C6 1_555 1_555
C7 C6 1_555 1_555
C8 C7 1_555 1_555
H5 C8 1_555 1_555
C9 C8 1_555 1_555
H6 C9 1_555 1_555
C10 C9 1_555 1_555
C11 C10 1_555 1_555
H7 C11 1_555 1_555
C12 C7 1_555 1_555
H8 C12 1_555 1_555
C13 C3 1_555 1_555
C14 C13 1_555 1_555
H9 C14 1_555 1_555
C15 C14 1_555 1_555
H10 C15 1_555 1_555
C16 C15 1_555 1_555
C17 C16 1_555 1_555
H11 C17 1_555 1_555
C18 C13 1_555 1_555
H12 C18 1_555 1_555
C19 C5 1_555 1_555
C20 C19 1_555 1_555
H13 C20 1_555 1_555
C21 C20 1_555 1_555
H14 C21 1_555 1_555
C22 C21 1_555 1_555
C23 C22 1_555 1_555
H15 C23 1_555 1_555
C24 C19 1_555 1_555
H16 C24 1_555 1_555
N1 C1 1_555 1_555
Br4 C34 1_555 1_555
Br5 C40 1_555 1_555
Br6 C46 1_555 1_555
C25 C26 1_555 1_555
C26 H17 1_555 1_555
C27 C26 1_555 1_555
C28 C27 1_555 1_555
H18 C28 1_555 1_555
C29 C28 1_555 1_555
C30 C25 1_555 1_555
H19 C30 1_555 1_555
H20 C30 1_555 1_555
C31 C30 1_555 1_555
C32 C31 1_555 1_555
H21 C32 1_555 1_555
C33 C32 1_555 1_555
H22 C33 1_555 1_555
C34 C33 1_555 1_555
C35 C34 1_555 1_555
H23 C35 1_555 1_555
C36 C31 1_555 1_555
H24 C36 1_555 1_555
C37 C27 1_555 1_555
C38 C37 1_555 1_555
H25 C38 1_555 1_555
C39 C38 1_555 1_555
H26 C39 1_555 1_555
C40 C39 1_555 1_555
C41 C40 1_555 1_555
H27 C41 1_555 1_555
C42 C37 1_555 1_555
H28 C42 1_555 1_555
C43 C29 1_555 1_555
C44 C43 1_555 1_555
H29 C44 1_555 1_555
C45 C44 1_555 1_555
H30 C45 1_555 1_555
C46 C45 1_555 1_555
C47 C46 1_555 1_555
H31 C47 1_555 1_555
C48 C43 1_555 1_555
H32 C48 1_555 1_555
N2 C25 1_555 1_555
C5 N1 1_555 1_555
C11 C12 1_555 1_555
C17 C18 1_555 1_555
C23 C24 1_555 1_555
C29 N2 1_555 1_555
C35 C36 1_555 1_555
C41 C42 1_555 1_555
C47 C48 1_555 1_555

#END
