
#######################################################################
#
#                 Cambridge Crystallographic Data Centre
#                                CCDC 
#
#######################################################################
#
# If this CIF has been generated from an entry in the Cambridge 
# Structural Database, then it will include bibliographic, chemical, 
# crystal, experimental, refinement or atomic coordinate data resulting 
# from the CCDC's data processing and validation procedures.
#
#######################################################################

data_HUJTAI
_chemical_formula_moiety         'C31 H30 N2'
_chemical_name_systematic        
2,4-Diisopropyl-3,6,7-triphenyl-1H-pyrrolo[3,2-c]pyridine
_symmetry_cell_setting           monoclinic
_symmetry_space_group_name_H-M   'P 21/n'
_symmetry_Int_Tables_number      14
_space_group_name_Hall           '-P 2yn'
loop_
_symmetry_equiv_pos_site_id
_symmetry_equiv_pos_as_xyz
1 x,y,z
2 1/2-x,1/2+y,1/2-z
3 -x,-y,-z
4 1/2+x,1/2-y,1/2+z
_cell_length_a                   18.623(4)
_cell_length_b                   10.490(2)
_cell_length_c                   26.142(5)
_cell_angle_alpha                90
_cell_angle_beta                 109.77(3)
_cell_angle_gamma                90
_cell_volume                     4805.96
_exptl_crystal_colour            colorless
_exptl_crystal_description       block
_chemical_melting_point          210-211deg.C
_cell_formula_units_Z            8
_exptl_crystal_recrystallization_method hexane
loop_
_atom_site_label
_atom_site_type_symbol
_atom_site_fract_x
_atom_site_fract_y
_atom_site_fract_z
N1 N 0.60134(17) 0.2455(3) 0.04643(11)
N2 N 0.37587(16) 0.2003(3) -0.03705(12)
C1 C 0.5592(2) 0.1864(3) 0.07381(13)
C2 C 0.4818(2) 0.1675(3) 0.05061(13)
C3 C 0.4502(2) 0.2037(4) -0.00381(14)
C4 C 0.4928(2) 0.2612(3) -0.03297(14)
C5 C 0.5701(2) 0.2837(4) -0.00402(14)
C6 C 0.4403(2) 0.2912(4) -0.08653(13)
C7 C 0.3698(2) 0.2537(3) -0.08711(13)
C8 C 0.6054(2) 0.1471(4) 0.13029(14)
C9 C 0.6716(2) 0.2127(4) 0.15875(14)
H1 H 0.6848 0.2847 0.1432
C10 C 0.7175(3) 0.1746(4) 0.20858(15)
H2 H 0.7624 0.2188 0.2262
C11 C 0.6978(3) 0.0702(5) 0.23336(16)
H3 H 0.7285 0.0445 0.2679
C12 C 0.6318(3) 0.0051(5) 0.20601(17)
H4 H 0.6175 -0.0646 0.2223
C13 C 0.5868(2) 0.0423(4) 0.15469(14)
H5 H 0.5431 -0.0041 0.1363
C14 C 0.4293(2) 0.1213(4) 0.07857(13)
C15 C 0.4124(2) 0.1997(4) 0.11637(14)
H6 H 0.4348 0.2798 0.1245
C16 C 0.3629(2) 0.1582(5) 0.14139(16)
H7 H 0.3510 0.2119 0.1657
C17 C 0.3303(2) 0.0381(5) 0.13133(17)
H8 H 0.2976 0.0102 0.1491
C18 C 0.3474(2) -0.0387(4) 0.09468(16)
H9 H 0.3262 -0.1198 0.0877
C19 C 0.3952(2) 0.0016(4) 0.06807(15)
H10 H 0.4050 -0.0515 0.0427
C20 C 0.6208(2) 0.3573(4) -0.02736(14)
H11 H 0.6076 0.3327 -0.0656
C21 C 0.7049(2) 0.3286(4) 0.00064(15)
H12 H 0.7213 0.3631 0.0368
H13 H 0.7339 0.3666 -0.0195
H14 H 0.7127 0.2380 0.0024
C22 C 0.6040(3) 0.4997(4) -0.02571(16)
H15 H 0.5514 0.5156 -0.0462
H16 H 0.6358 0.5472 -0.0412
H17 H 0.6144 0.5258 0.0113
C23 C 0.4540(2) 0.3517(4) -0.13345(13)
C24 C 0.4947(2) 0.2875(4) -0.16134(13)
H18 H 0.5142 0.2067 -0.1501
C25 C 0.5062(2) 0.3444(5) -0.20628(15)
H19 H 0.5327 0.3005 -0.2252
C26 C 0.4788(3) 0.4645(5) -0.22278(17)
H20 H 0.4879 0.5028 -0.2521
C27 C 0.4382(3) 0.5272(5) -0.19589(18)
H21 H 0.4176 0.6071 -0.2078
C28 C 0.4275(3) 0.4722(4) -0.15085(16)
H22 H 0.4019 0.5178 -0.1318
C29 C 0.2935(2) 0.2665(4) -0.13065(14)
H23 H 0.3023 0.2867 -0.1647
C30 C 0.2464(2) 0.1411(4) -0.13972(15)
H24 H 0.2364 0.1195 -0.1071
H25 H 0.2748 0.0736 -0.1487
H26 H 0.1990 0.1527 -0.1689
C31 C 0.2473(2) 0.3721(4) -0.11944(15)
H27 H 0.2459 0.3634 -0.0832
H28 H 0.1963 0.3684 -0.1451
H29 H 0.2700 0.4525 -0.1228
H59 H 0.3205 0.1845 -0.0371
N3 N 0.94274(17) 0.7463(3) 0.04533(11)
N4 N 1.08666(17) 0.7019(3) -0.04027(12)
C32 C 1.0097(2) 0.6874(4) 0.07198(14)
C33 C 1.0651(2) 0.6672(4) 0.04801(14)
C34 C 1.0446(2) 0.7047(3) -0.00639(14)
C35 C 0.9753(2) 0.7640(3) -0.03482(13)
C36 C 0.9251(2) 0.7861(3) -0.00557(14)
C37 C 0.9767(2) 0.7935(4) -0.08806(13)
C38 C 1.0457(2) 0.7557(4) -0.08953(14)
C39 C 1.0174(2) 0.6462(4) 0.12840(14)
C40 C 0.9762(2) 0.7107(4) 0.15655(15)
H30 H 0.9462 0.7806 0.1406
C41 C 0.9796(3) 0.6716(5) 0.20739(16)
H31 H 0.9509 0.7141 0.2250
C42 C 1.0235(3) 0.5735(6) 0.23214(17)
H32 H 1.0265 0.5506 0.2672
C43 C 1.0643(2) 0.5062(5) 0.20587(17)
H33 H 1.0939 0.4368 0.2228
C44 C 1.0610(2) 0.5424(4) 0.15393(16)
H34 H 1.0883 0.4965 0.1362
C45 C 1.1442(2) 0.6211(4) 0.07717(13)
C46 C 1.1956(2) 0.6968(4) 0.11633(15)
H35 H 1.1811 0.7767 0.1248
C47 C 1.2678(2) 0.6517(5) 0.14229(16)
H36 H 1.3025 0.7028 0.1681
C48 C 1.2902(2) 0.5353(5) 0.13153(17)
H37 H 1.3394 0.5065 0.1502
C49 C 1.2403(3) 0.4601(4) 0.09309(18)
H38 H 1.2555 0.3795 0.0860
C50 C 1.1681(2) 0.5018(4) 0.06493(15)
H39 H 1.1352 0.4514 0.0378
C51 C 0.8529(2) 0.8628(4) -0.02796(14)
H40 H 0.8295 0.8414 -0.0665
C52 C 0.7956(2) 0.8321(5) 0.00010(15)
H41 H 0.7854 0.7422 -0.0022
H42 H 0.7491 0.8779 -0.0173
H43 H 0.8162 0.8569 0.0376
C53 C 0.8732(2) 1.0043(4) -0.02402(17)
H44 H 0.9005 1.0260 0.0132
H45 H 0.8273 1.0539 -0.0370
H46 H 0.9046 1.0219 -0.0457
C54 C 0.9168(2) 0.8557(4) -0.13440(13)
C55 C 0.9254(3) 0.9784(4) -0.15068(15)
H47 H 0.9690 1.0238 -0.1313
C56 C 0.8715(3) 1.0364(5) -0.19468(18)
H48 H 0.8796 1.1184 -0.2051
C57 C 0.8072(3) 0.9722(5) -0.22219(17)
H49 H 0.7703 1.0105 -0.2515
C58 C 0.7962(2) 0.8513(5) -0.20711(16)
H50 H 0.7519 0.8077 -0.2266
C59 C 0.8503(2) 0.7919(4) -0.16304(14)
H51 H 0.8417 0.7099 -0.1529
C60 C 1.0793(2) 0.7665(4) -0.13356(14)
H52 H 1.0370 0.7809 -0.1676
C61 C 1.1204(2) 0.6437(4) -0.14114(15)
H53 H 1.1647 0.6299 -0.1095
H54 H 1.1358 0.6525 -0.1725
H55 H 1.0864 0.5724 -0.1461
C62 C 1.1327(3) 0.8804(4) -0.12529(17)
H56 H 1.1060 0.9565 -0.1219
H57 H 1.1498 0.8881 -0.1559
H58 H 1.1759 0.8683 -0.0928
H60 H 1.1434 0.6736 -0.0371
loop_
_geom_bond_atom_site_label_1
_geom_bond_atom_site_label_2
_geom_bond_site_symmetry_1
_geom_bond_site_symmetry_2
N1 C1 1_555 1_555
N2 C3 1_555 1_555
N3 C32 1_555 1_555
N4 C34 1_555 1_555
C1 C2 1_555 1_555
C2 C3 1_555 1_555
C3 C4 1_555 1_555
C4 C5 1_555 1_555
C5 N1 1_555 1_555
C6 C4 1_555 1_555
C7 N2 1_555 1_555
C8 C1 1_555 1_555
C9 C8 1_555 1_555
H1 C9 1_555 1_555
C10 C9 1_555 1_555
H2 C10 1_555 1_555
C11 C10 1_555 1_555
H3 C11 1_555 1_555
C12 C11 1_555 1_555
H4 C12 1_555 1_555
C13 C8 1_555 1_555
H5 C13 1_555 1_555
C14 C2 1_555 1_555
C15 C14 1_555 1_555
H6 C15 1_555 1_555
C16 C15 1_555 1_555
H7 C16 1_555 1_555
C17 C16 1_555 1_555
H8 C17 1_555 1_555
C18 C17 1_555 1_555
H9 C18 1_555 1_555
C19 C14 1_555 1_555
H10 C19 1_555 1_555
C20 C5 1_555 1_555
H11 C20 1_555 1_555
C21 C20 1_555 1_555
H12 C21 1_555 1_555
H13 C21 1_555 1_555
H14 C21 1_555 1_555
C22 C20 1_555 1_555
H15 C22 1_555 1_555
H16 C22 1_555 1_555
H17 C22 1_555 1_555
C23 C6 1_555 1_555
C24 C23 1_555 1_555
H18 C24 1_555 1_555
C25 C24 1_555 1_555
H19 C25 1_555 1_555
C26 C25 1_555 1_555
H20 C26 1_555 1_555
C27 C26 1_555 1_555
H21 C27 1_555 1_555
C28 C23 1_555 1_555
H22 C28 1_555 1_555
C29 C7 1_555 1_555
H23 C29 1_555 1_555
C30 C29 1_555 1_555
H24 C30 1_555 1_555
H25 C30 1_555 1_555
H26 C30 1_555 1_555
C31 C29 1_555 1_555
H27 C31 1_555 1_555
H28 C31 1_555 1_555
H29 C31 1_555 1_555
C32 C33 1_555 1_555
C33 C34 1_555 1_555
C34 C35 1_555 1_555
C35 C36 1_555 1_555
C36 N3 1_555 1_555
C37 C35 1_555 1_555
C38 N4 1_555 1_555
C39 C32 1_555 1_555
C40 C39 1_555 1_555
H30 C40 1_555 1_555
C41 C40 1_555 1_555
H31 C41 1_555 1_555
C42 C41 1_555 1_555
H32 C42 1_555 1_555
C43 C42 1_555 1_555
H33 C43 1_555 1_555
C44 C39 1_555 1_555
H34 C44 1_555 1_555
C45 C33 1_555 1_555
C46 C45 1_555 1_555
H35 C46 1_555 1_555
C47 C46 1_555 1_555
H36 C47 1_555 1_555
C48 C47 1_555 1_555
H37 C48 1_555 1_555
C49 C48 1_555 1_555
H38 C49 1_555 1_555
C50 C45 1_555 1_555
H39 C50 1_555 1_555
C51 C36 1_555 1_555
H40 C51 1_555 1_555
C52 C51 1_555 1_555
H41 C52 1_555 1_555
H42 C52 1_555 1_555
H43 C52 1_555 1_555
C53 C51 1_555 1_555
H44 C53 1_555 1_555
H45 C53 1_555 1_555
H46 C53 1_555 1_555
C54 C37 1_555 1_555
C55 C54 1_555 1_555
H47 C55 1_555 1_555
C56 C55 1_555 1_555
H48 C56 1_555 1_555
C57 C56 1_555 1_555
H49 C57 1_555 1_555
C58 C57 1_555 1_555
H50 C58 1_555 1_555
C59 C54 1_555 1_555
H51 C59 1_555 1_555
C60 C38 1_555 1_555
H52 C60 1_555 1_555
C61 C60 1_555 1_555
H53 C61 1_555 1_555
H54 C61 1_555 1_555
H55 C61 1_555 1_555
C62 C60 1_555 1_555
H56 C62 1_555 1_555
H57 C62 1_555 1_555
H58 C62 1_555 1_555
H59 N2 1_555 1_555
H60 N4 1_555 1_555
C6 C7 1_555 1_555
C12 C13 1_555 1_555
C18 C19 1_555 1_555
C27 C28 1_555 1_555
C37 C38 1_555 1_555
C43 C44 1_555 1_555
C49 C50 1_555 1_555
C58 C59 1_555 1_555

#END
