
#######################################################################
#
#                 Cambridge Crystallographic Data Centre
#                                CCDC 
#
#######################################################################
#
# If this CIF has been generated from an entry in the Cambridge 
# Structural Database, then it will include bibliographic, chemical, 
# crystal, experimental, refinement or atomic coordinate data resulting 
# from the CCDC's data processing and validation procedures.
#
#######################################################################

data_HULCEY
_chemical_formula_moiety         'C18 H22 O5'
_chemical_name_systematic        
1-(3,4,5-trimethoxy-6-methyl-12-oxatricyclo[7.2.1.0^2,7^]dodeca-2,4,6-trien-10-yl)prop-2-en-1-one
_symmetry_cell_setting           triclinic
_symmetry_space_group_name_H-M   'P -1'
_symmetry_Int_Tables_number      2
_space_group_name_Hall           '-P 1'
loop_
_symmetry_equiv_pos_site_id
_symmetry_equiv_pos_as_xyz
1 x,y,z
2 -x,-y,-z
_cell_length_a                   8.7788(10)
_cell_length_b                   9.8167(13)
_cell_length_c                   10.4098(11)
_cell_angle_alpha                104.353(11)
_cell_angle_beta                 109.179(10)
_cell_angle_gamma                98.133(10)
_cell_volume                     796.134
_exptl_crystal_colour            'light colorless'
_exptl_crystal_description       plate
_cell_formula_units_Z            2
_exptl_crystal_recrystallization_method 'diethyl ether'
loop_
_atom_site_label
_atom_site_type_symbol
_atom_site_fract_x
_atom_site_fract_y
_atom_site_fract_z
O1 O 0.12834(13) 0.41998(12) 0.57874(11)
O2 O 0.29734(12) 0.68714(11) 0.80355(12)
O3 O 0.33229(12) 0.70089(11) 1.07668(11)
O4 O 0.04566(12) 0.05190(10) 0.69332(11)
O5 O -0.39837(16) -0.13585(13) 0.48930(13)
C1 C 0.09405(16) 0.31079(15) 0.74930(14)
C2 C 0.15550(16) 0.43315(15) 0.71930(14)
C3 C 0.23404(16) 0.56414(15) 0.82921(15)
C4 C 0.25391(16) 0.56996(15) 0.96936(15)
C5 C 0.19171(16) 0.44947(16) 1.00152(14)
C6 C 0.10821(16) 0.31981(15) 0.88899(14)
C7 C 0.03723(17) 0.18524(15) 0.91706(15)
H1 H -0.0413 0.2072 0.9646
H2 H 0.1286 0.1575 0.9829
C8 C -0.05296(17) 0.05841(15) 0.77915(15)
H3 H -0.0710 -0.0343 0.8019
C9 C -0.22178(17) 0.07749(14) 0.68219(14)
H4 H -0.2612 0.1512 0.7402
C10 C -0.17559(18) 0.13568(15) 0.57208(15)
H5 H -0.2243 0.0624 0.4757
H6 H -0.2134 0.2251 0.5664
C11 C 0.01432(17) 0.16666(15) 0.63226(14)
H7 H 0.0578 0.1611 0.5540
C12 C 0.2700(2) 0.4573(2) 0.5455(2)
H8 H 0.2397 0.4195 0.4417
H9 H 0.3578 0.4152 0.5942
H10 H 0.3101 0.5631 0.5777
C13 C 0.17497(19) 0.76467(17) 0.75593(17)
H11 H 0.0904 0.7046 0.6627
H12 H 0.2284 0.8545 0.7468
H13 H 0.1224 0.7880 0.8257
C14 C 0.51079(18) 0.72768(17) 1.12826(17)
H14 H 0.5481 0.7361 1.0509
H15 H 0.5455 0.6471 1.1602
H16 H 0.5603 0.8180 1.2087
C15 C 0.21506(19) 0.45961(17) 1.15407(15)
H17 H 0.1067 0.4481 1.1632
H18 H 0.2869 0.5544 1.2184
H19 H 0.2667 0.3829 1.1797
C16 C -0.35130(18) -0.06631(15) 0.61546(16)
C17 C -0.41926(19) -0.12530(17) 0.70890(18)
H20 H -0.4898 -0.2204 0.6677
C18 C -0.3905(2) -0.05765(19) 0.84396(19)
H21 H -0.3207 0.0376 0.8896
H22 H -0.4397 -0.1042 0.8956
loop_
_geom_bond_atom_site_label_1
_geom_bond_atom_site_label_2
_geom_bond_site_symmetry_1
_geom_bond_site_symmetry_2
O1 C2 1_555 1_555
O2 C3 1_555 1_555
O3 C4 1_555 1_555
O4 C8 1_555 1_555
O5 C16 1_555 1_555
C1 C2 1_555 1_555
C2 C3 1_555 1_555
C3 C4 1_555 1_555
C4 C5 1_555 1_555
C5 C6 1_555 1_555
C6 C1 1_555 1_555
C7 C6 1_555 1_555
H1 C7 1_555 1_555
H2 C7 1_555 1_555
C8 C7 1_555 1_555
H3 C8 1_555 1_555
C9 C8 1_555 1_555
H4 C9 1_555 1_555
C10 C9 1_555 1_555
H5 C10 1_555 1_555
H6 C10 1_555 1_555
C11 O4 1_555 1_555
H7 C11 1_555 1_555
C12 O1 1_555 1_555
H8 C12 1_555 1_555
H9 C12 1_555 1_555
H10 C12 1_555 1_555
C13 O2 1_555 1_555
H11 C13 1_555 1_555
H12 C13 1_555 1_555
H13 C13 1_555 1_555
C14 O3 1_555 1_555
H14 C14 1_555 1_555
H15 C14 1_555 1_555
H16 C14 1_555 1_555
C15 C5 1_555 1_555
H17 C15 1_555 1_555
H18 C15 1_555 1_555
H19 C15 1_555 1_555
C16 C9 1_555 1_555
C17 C16 1_555 1_555
H20 C17 1_555 1_555
C18 C17 1_555 1_555
H21 C18 1_555 1_555
H22 C18 1_555 1_555
C1 C11 1_555 1_555
C10 C11 1_555 1_555

#END
