
#######################################################################
#
#                 Cambridge Crystallographic Data Centre
#                                CCDC 
#
#######################################################################
#
# If this CIF has been generated from an entry in the Cambridge 
# Structural Database, then it will include bibliographic, chemical, 
# crystal, experimental, refinement or atomic coordinate data resulting 
# from the CCDC's data processing and validation procedures.
#
#######################################################################

data_HULXOD
_chemical_compound_source        'Dysoxylum gotadhora'
_chemical_formula_moiety         'C20 H28 O2'
_chemical_name_systematic        pimara-8(14),15-diene-3,7-dione
_symmetry_cell_setting           monoclinic
_symmetry_space_group_name_H-M   'P 21'
_symmetry_Int_Tables_number      4
_space_group_name_Hall           'P 2yb'
loop_
_symmetry_equiv_pos_site_id
_symmetry_equiv_pos_as_xyz
1 x,y,z
2 -x,1/2+y,-z
_cell_length_a                   12.4345(4)
_cell_length_b                   6.06696(15)
_cell_length_c                   12.7077(4)
_cell_angle_alpha                90
_cell_angle_beta                 115.588(4)
_cell_angle_gamma                90
_cell_volume                     864.641
_exptl_crystal_colour            'light black'
_exptl_crystal_description       block
_cell_formula_units_Z            2
loop_
_atom_site_label
_atom_site_type_symbol
_atom_site_fract_x
_atom_site_fract_y
_atom_site_fract_z
O1 O -1.48790(17) -0.5550(5) -0.8789(2)
O2 O -0.87743(15) -0.3525(4) -0.49231(15)
C1 C -1.23343(18) -0.6141(3) -0.92797(17)
H1 H -1.2127 -0.6144 -0.9933
H2 H -1.2361 -0.7663 -0.9058
C2 C -1.3572(2) -0.5129(5) -0.9674(2)
H3 H -1.3582 -0.3684 -1.0005
H4 H -1.4151 -0.6044 -1.0280
C3 C -1.39221(19) -0.4911(4) -0.8691(2)
C4 C -1.30335(18) -0.3784(4) -0.75786(19)
C5 C -1.17549(17) -0.4713(3) -0.72566(16)
H5 H -1.1769 -0.6225 -0.6991
C6 C -1.08094(19) -0.3524(4) -0.61980(17)
H6 H -1.0904 -0.1951 -0.6347
H7 H -1.0974 -0.3816 -0.5531
C7 C -0.95308(19) -0.4104(4) -0.58666(17)
C8 C -0.92154(17) -0.5383(4) -0.67006(16)
C9 C -1.02218(17) -0.6420(3) -0.77524(16)
H8 H -1.0448 -0.7763 -0.7469
C10 C -1.13521(16) -0.4933(3) -0.82515(15)
C11 C -0.9773(2) -0.7167(4) -0.86439(19)
H9 H -1.0355 -0.8147 -0.9206
H10 H -0.9685 -0.5894 -0.9062
C12 C -0.8586(2) -0.8348(5) -0.8052(2)
H11 H -0.8355 -0.8890 -0.8642
H12 H -0.8677 -0.9609 -0.7628
C13 C -0.7597(2) -0.6860(5) -0.7205(2)
C14 C -0.80718(19) -0.5595(4) -0.6473(2)
H13 H -0.7517 -0.4907 -0.5805
C15 C -0.6589(3) -0.8380(7) -0.6407(3)
H14 H -0.6761 -0.9221 -0.5887
C16 C -0.5566(4) -0.8652(11) -0.6352(6)
H15 H -0.5333 -0.7865 -0.6846
H16 H -0.5042 -0.9643 -0.5818
C17 C -0.7174(3) -0.5192(8) -0.7857(3)
H17 H -0.7837 -0.4308 -0.8362
H18 H -0.6849 -0.5967 -0.8313
H19 H -0.6572 -0.4258 -0.7303
C18 C -1.3183(2) -0.1278(4) -0.7825(3)
H20 H -1.2563 -0.0498 -0.7198
H21 H -1.3946 -0.0813 -0.7885
H22 H -1.3134 -0.0967 -0.8543
C19 C -1.3359(2) -0.4270(7) -0.6571(3)
H23 H -1.3273 -0.5819 -0.6401
H24 H -1.4169 -0.3836 -0.6786
H25 H -1.2838 -0.3460 -0.5893
C20 C -1.1071(2) -0.2712(4) -0.86551(19)
H26 H -1.1799 -0.1911 -0.9073
H27 H -1.0687 -0.2962 -0.9157
H28 H -1.0552 -0.1873 -0.7988
loop_
_geom_bond_atom_site_label_1
_geom_bond_atom_site_label_2
_geom_bond_site_symmetry_1
_geom_bond_site_symmetry_2
O1 C3 1_555 1_555
O2 C7 1_555 1_555
C1 H1 1_555 1_555
H2 C1 1_555 1_555
C2 C1 1_555 1_555
H3 C2 1_555 1_555
H4 C2 1_555 1_555
C3 C2 1_555 1_555
C4 C3 1_555 1_555
C5 C4 1_555 1_555
H5 C5 1_555 1_555
C6 C5 1_555 1_555
H6 C6 1_555 1_555
H7 C6 1_555 1_555
C7 C6 1_555 1_555
C8 C7 1_555 1_555
C9 C8 1_555 1_555
H8 C9 1_555 1_555
C10 C1 1_555 1_555
C11 C9 1_555 1_555
H9 C11 1_555 1_555
H10 C11 1_555 1_555
C12 C11 1_555 1_555
H11 C12 1_555 1_555
H12 C12 1_555 1_555
C13 C12 1_555 1_555
C14 C8 1_555 1_555
H13 C14 1_555 1_555
C15 C13 1_555 1_555
H14 C15 1_555 1_555
C16 C15 1_555 1_555
H15 C16 1_555 1_555
H16 C16 1_555 1_555
C17 C13 1_555 1_555
H17 C17 1_555 1_555
H18 C17 1_555 1_555
H19 C17 1_555 1_555
C18 C4 1_555 1_555
H20 C18 1_555 1_555
H21 C18 1_555 1_555
H22 C18 1_555 1_555
C19 C4 1_555 1_555
H23 C19 1_555 1_555
H24 C19 1_555 1_555
H25 C19 1_555 1_555
C20 C10 1_555 1_555
H26 C20 1_555 1_555
H27 C20 1_555 1_555
H28 C20 1_555 1_555
C5 C10 1_555 1_555
C9 C10 1_555 1_555
C13 C14 1_555 1_555

#END
