
#######################################################################
#
#                 Cambridge Crystallographic Data Centre
#                                CCDC 
#
#######################################################################
#
# If this CIF has been generated from an entry in the Cambridge 
# Structural Database, then it will include bibliographic, chemical, 
# crystal, experimental, refinement or atomic coordinate data resulting 
# from the CCDC's data processing and validation procedures.
#
#######################################################################

data_HUMHAY
_chemical_formula_moiety         'C26 H33 N1 O3'
_chemical_name_systematic        
10-(2-(4-Hydroxyphenyl)ethyl)-3,3,6,6,9-pentamethyl-3,4,6,7,9,10-hexahydro-acridine-1,8(2H,5H)-dione
_symmetry_cell_setting           monoclinic
_symmetry_space_group_name_H-M   'P 21/n'
_symmetry_Int_Tables_number      14
_space_group_name_Hall           '-P 2yn'
loop_
_symmetry_equiv_pos_site_id
_symmetry_equiv_pos_as_xyz
1 x,y,z
2 1/2+x,1/2-y,1/2+z
3 -x,-y,-z
4 1/2-x,1/2+y,1/2-z
_cell_length_a                   11.350(2)
_cell_length_b                   15.5152(15)
_cell_length_c                   13.084(2)
_cell_angle_alpha                90
_cell_angle_beta                 104.677(14)
_cell_angle_gamma                90
_cell_volume                     2228.88
_exptl_crystal_colour            orange
_exptl_crystal_description       block
_cell_formula_units_Z            4
_exptl_crystal_recrystallization_method chloroform/methanol
loop_
_atom_site_label
_atom_site_type_symbol
_atom_site_fract_x
_atom_site_fract_y
_atom_site_fract_z
N1 N 0.42572(17) 0.15163(12) 0.21319(15)
O1 O 0.6957(2) -0.00488(13) 0.06414(17)
O2 O 0.63288(19) 0.30265(13) -0.00153(17)
O3 O 0.6541(2) 0.44067(15) 0.55095(17)
H1 H 0.7096 0.4475 0.5220
C1 C 0.7489(2) 0.17406(19) 0.2094(2)
H2 H 0.7305 0.1812 0.2765
H3 H 0.7860 0.2257 0.1918
H4 H 0.8040 0.1266 0.2130
C2 C 0.6321(2) 0.15621(16) 0.12501(19)
H5 H 0.6530 0.1499 0.0571
C3 C 0.5722(2) 0.07435(15) 0.14648(19)
C4 C 0.6176(2) -0.00604(17) 0.1151(2)
C5 C 0.5699(3) -0.08906(17) 0.1441(2)
H6 H 0.6359 -0.1306 0.1599
H7 H 0.5087 -0.1104 0.0835
C6 C 0.5141(2) -0.08385(16) 0.2382(2)
C7 C 0.4248(2) -0.00900(15) 0.2188(2)
H8 H 0.3556 -0.0238 0.1610
H9 H 0.3950 -0.0006 0.2813
C8 C 0.4785(2) 0.07451(15) 0.19291(18)
C9 C 0.3301(2) 0.14960(16) 0.2717(2)
H10 H 0.2774 0.1005 0.2479
H11 H 0.2809 0.2013 0.2552
C10 C 0.3810(3) 0.14373(17) 0.3912(2)
H12 H 0.3137 0.1385 0.4239
H13 H 0.4298 0.0918 0.4075
C11 C 0.4575(2) 0.21951(17) 0.4385(2)
C12 C 0.4068(3) 0.28729(18) 0.4833(2)
H14 H 0.3263 0.2836 0.4873
C13 C 0.4740(3) 0.3592(2) 0.5214(2)
H15 H 0.4395 0.4030 0.5527
C14 C 0.5915(3) 0.3668(2) 0.5136(2)
C15 C 0.6443(3) 0.3005(2) 0.4720(2)
H16 H 0.7250 0.3045 0.4687
C16 C 0.5768(3) 0.2278(2) 0.4349(2)
H17 H 0.6132 0.1832 0.4066
C17 C 0.4528(2) 0.22768(15) 0.16642(18)
C18 C 0.3797(2) 0.30651(15) 0.1756(2)
H18 H 0.3771 0.3131 0.2487
H19 H 0.2968 0.2979 0.1339
C19 C 0.4290(3) 0.39042(17) 0.1393(2)
C20 C 0.4617(3) 0.37153(18) 0.0353(2)
H20 H 0.3886 0.3552 -0.0176
H21 H 0.4938 0.4234 0.0110
C21 C 0.5535(2) 0.30106(16) 0.0468(2)
C22 C 0.5433(2) 0.22864(16) 0.11520(19)
C23 C 0.6129(3) -0.0697(2) 0.3398(2)
H22 H 0.6675 -0.1180 0.3519
H23 H 0.5761 -0.0640 0.3979
H24 H 0.6573 -0.0181 0.3337
C24 C 0.4451(3) -0.16686(18) 0.2474(3)
H25 H 0.3806 -0.1747 0.1845
H26 H 0.4112 -0.1631 0.3075
H27 H 0.5000 -0.2149 0.2560
C25 C 0.3271(3) 0.4583(2) 0.1211(3)
H28 H 0.3549 0.5106 0.0958
H29 H 0.3060 0.4694 0.1864
H30 H 0.2569 0.4372 0.0698
C26 C 0.5387(3) 0.4236(2) 0.2207(3)
H31 H 0.6019 0.3810 0.2333
H32 H 0.5164 0.4356 0.2853
H33 H 0.5674 0.4755 0.1951
loop_
_geom_bond_atom_site_label_1
_geom_bond_atom_site_label_2
_geom_bond_site_symmetry_1
_geom_bond_site_symmetry_2
N1 C8 1_555 1_555
O1 C4 1_555 1_555
O2 C21 1_555 1_555
O3 H1 1_555 1_555
C1 H2 1_555 1_555
H3 C1 1_555 1_555
H4 C1 1_555 1_555
C2 C1 1_555 1_555
H5 C2 1_555 1_555
C3 C2 1_555 1_555
C4 C3 1_555 1_555
C5 C4 1_555 1_555
H6 C5 1_555 1_555
H7 C5 1_555 1_555
C6 C5 1_555 1_555
C7 C6 1_555 1_555
H8 C7 1_555 1_555
H9 C7 1_555 1_555
C8 C3 1_555 1_555
C9 N1 1_555 1_555
H10 C9 1_555 1_555
H11 C9 1_555 1_555
C10 C9 1_555 1_555
H12 C10 1_555 1_555
H13 C10 1_555 1_555
C11 C10 1_555 1_555
C12 C11 1_555 1_555
H14 C12 1_555 1_555
C13 C12 1_555 1_555
H15 C13 1_555 1_555
C14 O3 1_555 1_555
C15 C14 1_555 1_555
H16 C15 1_555 1_555
C16 C11 1_555 1_555
H17 C16 1_555 1_555
C17 N1 1_555 1_555
C18 C17 1_555 1_555
H18 C18 1_555 1_555
H19 C18 1_555 1_555
C19 C18 1_555 1_555
C20 C19 1_555 1_555
H20 C20 1_555 1_555
H21 C20 1_555 1_555
C21 C20 1_555 1_555
C22 C2 1_555 1_555
C23 C6 1_555 1_555
H22 C23 1_555 1_555
H23 C23 1_555 1_555
H24 C23 1_555 1_555
C24 C6 1_555 1_555
H25 C24 1_555 1_555
H26 C24 1_555 1_555
H27 C24 1_555 1_555
C25 C19 1_555 1_555
H28 C25 1_555 1_555
H29 C25 1_555 1_555
H30 C25 1_555 1_555
C26 C19 1_555 1_555
H31 C26 1_555 1_555
H32 C26 1_555 1_555
H33 C26 1_555 1_555
C7 C8 1_555 1_555
C13 C14 1_555 1_555
C15 C16 1_555 1_555
C17 C22 1_555 1_555
C21 C22 1_555 1_555

#END
