
#######################################################################
#
#                 Cambridge Crystallographic Data Centre
#                                CCDC 
#
#######################################################################
#
# If this CIF has been generated from an entry in the Cambridge 
# Structural Database, then it will include bibliographic, chemical, 
# crystal, experimental, refinement or atomic coordinate data resulting 
# from the CCDC's data processing and validation procedures.
#
#######################################################################

data_HUMMAD03
_chemical_formula_moiety         'C10 H10 I1 N2 1+,B1 F4 1-'
_chemical_name_systematic        'bis(pyridine)iodonium tetrafluoroborate'
_symmetry_cell_setting           monoclinic
_symmetry_space_group_name_H-M   'C 2/n'
_symmetry_Int_Tables_number      15
_space_group_name_Hall           '-C 2ybc'
loop_
_symmetry_equiv_pos_site_id
_symmetry_equiv_pos_as_xyz
1 x,y,z
2 1/2+x,1/2+y,z
3 1/2-x,y,1/2-z
4 -x,1/2+y,1/2-z
5 -x,-y,-z
6 1/2-x,1/2-y,-z
7 1/2+x,-y,1/2+z
8 x,1/2-y,1/2+z
_cell_length_a                   12.4909(5)
_cell_length_b                   7.9389(2)
_cell_length_c                   14.8184(5)
_cell_angle_alpha                90
_cell_angle_beta                 113.001(4)
_cell_angle_gamma                90
_cell_volume                     1352.63
_exptl_crystal_colour            colorless
_exptl_crystal_description       block
_cell_formula_units_Z            4
loop_
_atom_site_label
_atom_site_type_symbol
_atom_site_fract_x
_atom_site_fract_y
_atom_site_fract_z
I1 I 0.0000 0.0000 0.0000
N1 N -0.0731(5) 0.2131(5) 0.0601(3)
C1 C -0.1056(6) 0.3534(6) 0.0098(5)
C2 C -0.1497(7) 0.4878(6) 0.0437(6)
C3 C -0.1591(7) 0.4706(8) 0.1335(6)
C4 C -0.1260(6) 0.3208(9) 0.1852(5)
C5 C -0.0827(6) 0.1945(7) 0.1452(4)
H1 H -0.0981 0.3646 -0.0498
H2 H -0.1717 0.5861 0.0085
H3 H -0.1877 0.5558 0.1593
H4 H -0.1345 0.3042 0.2429
H5 H -0.0597 0.0945 0.1778
N1D N 0.0731(5) -0.2131(5) -0.0601(3)
C1D C 0.1056(6) -0.3534(6) -0.0098(5)
C2D C 0.1497(7) -0.4878(6) -0.0437(6)
C3D C 0.1591(7) -0.4706(8) -0.1335(6)
C4D C 0.1260(6) -0.3208(9) -0.1852(5)
C5D C 0.0827(6) -0.1945(7) -0.1452(4)
H1D H 0.0981 -0.3646 0.0498
H2D H 0.1717 -0.5861 -0.0085
H3D H 0.1877 -0.5558 -0.1593
H4D H 0.1345 -0.3042 -0.2429
H5D H 0.0597 -0.0945 -0.1778
B1? B 0.7500 -0.0904(19) 0.2500
F1? F 0.752(3) -0.1927(19) 0.3283(8)
F2? F 0.8500(3) 0.0120(19) 0.281(2)
F3? F 0.823(4) -0.001(3) 0.304(3)
F4? F 0.798(4) -0.133(2) 0.159(2)
B2? B 0.756(3) -0.1195(18) 0.234(2)
F5? F 0.639(3) -0.067(4) 0.194(4)
F6? F 0.765(4) -0.277(2) 0.2796(19)
loop_
_geom_bond_atom_site_label_1
_geom_bond_atom_site_label_2
_geom_bond_site_symmetry_1
_geom_bond_site_symmetry_2
I1 N1 1_555 1_555
N1 C1 1_555 1_555
C1 C2 1_555 1_555
C2 C3 1_555 1_555
C3 C4 1_555 1_555
C4 C5 1_555 1_555
C5 N1 1_555 1_555
H1 C1 1_555 1_555
H2 C2 1_555 1_555
H3 C3 1_555 1_555
H4 C4 1_555 1_555
H5 C5 1_555 1_555
N1D I1 1_555 1_555
C1D N1D 1_555 1_555
C2D C1D 1_555 1_555
C3D C2D 1_555 1_555
C4D C3D 1_555 1_555
C5D N1D 1_555 1_555
H1D C1D 1_555 1_555
H2D C2D 1_555 1_555
H3D C3D 1_555 1_555
H4D C4D 1_555 1_555
H5D C5D 1_555 1_555
C4D C5D 1_555 1_555

#END
