
#######################################################################
#
#                 Cambridge Crystallographic Data Centre
#                                CCDC 
#
#######################################################################
#
# If this CIF has been generated from an entry in the Cambridge 
# Structural Database, then it will include bibliographic, chemical, 
# crystal, experimental, refinement or atomic coordinate data resulting 
# from the CCDC's data processing and validation procedures.
#
#######################################################################

data_HUMQAH
_chemical_formula_moiety         'C8 H13 N1 O3'
_chemical_name_systematic        'Methyl (E)-3-acetamido-2-pentenoate'
_symmetry_cell_setting           monoclinic
_symmetry_space_group_name_H-M   'P 21/n'
_symmetry_Int_Tables_number      14
_space_group_name_Hall           '-P 2yn'
loop_
_symmetry_equiv_pos_site_id
_symmetry_equiv_pos_as_xyz
1 x,y,z
2 1/2+x,1/2-y,1/2+z
3 -x,-y,-z
4 1/2-x,1/2+y,1/2-z
_cell_length_a                   9.718(7)
_cell_length_b                   12.673(9)
_cell_length_c                   15.653(7)
_cell_angle_alpha                90
_cell_angle_beta                 104.825(15)
_cell_angle_gamma                90
_cell_volume                     1863.59
_exptl_crystal_colour            colorless
_exptl_crystal_description       needle
_cell_formula_units_Z            8
_exptl_crystal_recrystallization_method 'ethyl acetate/hexane'
loop_
_atom_site_label
_atom_site_type_symbol
_atom_site_fract_x
_atom_site_fract_y
_atom_site_fract_z
O1 O 0.9833(2) 0.69319(16) 0.09679(19)
O2 O 1.18911(19) 0.62579(15) 0.08953(14)
O3 O 1.10959(18) 0.30060(14) 0.17560(15)
N1 N 0.8894(2) 0.36964(16) 0.15820(14)
H1 H 0.8036 0.3530 0.1580
C1 C 0.9105(2) 0.4745(2) 0.13860(18)
C2 C 1.0278(3) 0.5087(2) 0.11740(17)
H2 H 1.0956 0.4587 0.1130
C3 C 1.0572(3) 0.6175(2) 0.10079(19)
C4 C 1.2351(4) 0.7300(3) 0.0731(2)
H3 H 1.1591 0.7658 0.0321
H4 H 1.3160 0.7250 0.0487
H5 H 1.2608 0.7687 0.1276
C5 C 0.7856(3) 0.5444(2) 0.1451(2)
H6 H 0.7403 0.5150 0.1883
H7 H 0.8202 0.6143 0.1649
C6 C 0.6797(3) 0.5522(3) 0.0579(2)
H8 H 0.7240 0.5828 0.0156
H9 H 0.6016 0.5958 0.0634
H10 H 0.6451 0.4830 0.0385
C7 C 0.9857(3) 0.2902(2) 0.17752(19)
C8 C 0.9303(3) 0.1880(2) 0.2023(2)
H11 H 0.8976 0.1452 0.1505
H12 H 0.8528 0.2013 0.2285
H13 H 1.0049 0.1516 0.2440
O4 O 0.4679(2) -0.10593(16) 0.11316(17)
O5 O 0.68342(19) -0.04784(14) 0.11396(13)
O6 O 0.60226(18) 0.29268(14) 0.16089(14)
N2 N 0.3890(2) 0.22289(16) 0.16423(14)
H14 H 0.3053 0.2408 0.1677
C9 C 0.4066(2) 0.1162(2) 0.14978(17)
C10 C 0.5211(3) 0.07784(19) 0.12828(17)
H15 H 0.5885 0.1258 0.1194
C11 C 0.5477(3) -0.0328(2) 0.11787(18)
C12 C 0.7239(3) -0.1552(2) 0.1038(2)
H16 H 0.7171 -0.1954 0.1546
H17 H 0.8202 -0.1570 0.0986
H18 H 0.6616 -0.1848 0.0517
C13 C 0.2837(3) 0.0516(2) 0.16213(18)
H19 H 0.2458 0.0842 0.2074
H20 H 0.3178 -0.0181 0.1828
C14 C 0.1658(3) 0.0409(2) 0.0786(2)
H21 H 0.1314 0.1096 0.0578
H22 H 0.0895 0.0002 0.0906
H23 H 0.2015 0.0059 0.0343
C15 C 0.4841(3) 0.3031(2) 0.17365(19)
C16 C 0.4349(3) 0.4060(2) 0.2011(2)
H24 H 0.5118 0.4394 0.2433
H25 H 0.3571 0.3942 0.2274
H26 H 0.4039 0.4507 0.1502
loop_
_geom_bond_atom_site_label_1
_geom_bond_atom_site_label_2
_geom_bond_site_symmetry_1
_geom_bond_site_symmetry_2
O1 C3 1_555 1_555
O2 C3 1_555 1_555
O3 C7 1_555 1_555
N1 H1 1_555 1_555
C1 N1 1_555 1_555
C2 C1 1_555 1_555
H2 C2 1_555 1_555
C3 C2 1_555 1_555
C4 O2 1_555 1_555
H3 C4 1_555 1_555
H4 C4 1_555 1_555
H5 C4 1_555 1_555
C5 C1 1_555 1_555
H6 C5 1_555 1_555
H7 C5 1_555 1_555
C6 C5 1_555 1_555
H8 C6 1_555 1_555
H9 C6 1_555 1_555
H10 C6 1_555 1_555
C7 N1 1_555 1_555
C8 C7 1_555 1_555
H11 C8 1_555 1_555
H12 C8 1_555 1_555
H13 C8 1_555 1_555
O4 C11 1_555 1_555
O5 C11 1_555 1_555
O6 C15 1_555 1_555
N2 H14 1_555 1_555
C9 N2 1_555 1_555
C10 C9 1_555 1_555
H15 C10 1_555 1_555
C11 C10 1_555 1_555
C12 O5 1_555 1_555
H16 C12 1_555 1_555
H17 C12 1_555 1_555
H18 C12 1_555 1_555
C13 C9 1_555 1_555
H19 C13 1_555 1_555
H20 C13 1_555 1_555
C14 C13 1_555 1_555
H21 C14 1_555 1_555
H22 C14 1_555 1_555
H23 C14 1_555 1_555
C15 N2 1_555 1_555
C16 C15 1_555 1_555
H24 C16 1_555 1_555
H25 C16 1_555 1_555
H26 C16 1_555 1_555

#END
