
#######################################################################
#
#                 Cambridge Crystallographic Data Centre
#                                CCDC 
#
#######################################################################
#
# If this CIF has been generated from an entry in the Cambridge 
# Structural Database, then it will include bibliographic, chemical, 
# crystal, experimental, refinement or atomic coordinate data resulting 
# from the CCDC's data processing and validation procedures.
#
#######################################################################

data_HUNJUX
_chemical_formula_moiety         'C20 H20 N4 S2,C2 H6 O1,1.67(H2 O1)'
_chemical_name_systematic        
"1,2,3,4,9,10,11,12-octahydroquinolino[2'',3'':4',5']thieno[3',2':4,5]thieno[3,2-b]quinoline-5,8-diamine ethanol solvate hydrate"
_symmetry_cell_setting           monoclinic
_symmetry_space_group_name_H-M   'P 21/n'
_symmetry_Int_Tables_number      14
_space_group_name_Hall           '-P 2yn'
loop_
_symmetry_equiv_pos_site_id
_symmetry_equiv_pos_as_xyz
1 x,y,z
2 1/2-x,1/2+y,1/2-z
3 -x,-y,-z
4 1/2+x,1/2-y,1/2+z
_cell_length_a                   13.8815(3)
_cell_length_b                   13.9775(3)
_cell_length_c                   22.6886(5)
_cell_angle_alpha                90
_cell_angle_beta                 93.796(2)
_cell_angle_gamma                90
_cell_volume                     4392.58
_exptl_crystal_description       block
_cell_formula_units_Z            8
loop_
_atom_site_label
_atom_site_type_symbol
_atom_site_fract_x
_atom_site_fract_y
_atom_site_fract_z
S1 S 0.19643(5) 0.34818(5) 0.07950(3)
S2 S 0.31061(5) 0.43403(5) -0.02259(3)
N1 N 0.27309(15) 0.56111(15) 0.18680(10)
N2 N 0.38992(15) 0.65933(15) 0.07321(10)
N3 N 0.44317(17) 0.56511(17) -0.09748(10)
H1 H 0.4170 0.5115 -0.1111
H2 H 0.4798 0.5992 -0.1197
C1 C 0.42698(18) 0.5953(2) -0.04214(11)
N4 N 0.09589(16) 0.31817(16) 0.19919(10)
H3 H 0.0862 0.2799 0.1686
H4 H 0.0673 0.3065 0.2319
C2 C 0.46698(18) 0.68169(19) -0.01886(12)
C3 C 0.20212(18) 0.41669(18) 0.14449(11)
C4 C 0.23012(17) 0.53939(18) 0.23654(11)
C5 C 0.44582(18) 0.70982(19) 0.03769(12)
C6 C 0.35401(17) 0.57560(19) 0.05202(11)
C7 C 0.25814(18) 0.49974(18) 0.14103(11)
C8 C 0.29525(17) 0.50895(18) 0.08300(11)
C9 C 0.17072(18) 0.45964(18) 0.24346(12)
C10 C 0.1437(2) 0.51409(19) 0.34927(12)
H5 H 0.0896 0.5171 0.3755
H6 H 0.2016 0.4911 0.3730
C11 C 0.15488(18) 0.39516(18) 0.19590(12)
C12 C 0.36899(18) 0.54307(19) -0.00518(11)
C13 C 0.1187(2) 0.44319(19) 0.29920(12)
H7 H 0.1337 0.3778 0.3138
H8 H 0.0483 0.4462 0.2890
C14 C 0.5875(2) 0.8185(2) -0.02022(13)
H9 H 0.6412 0.7894 0.0044
H10 H 0.6153 0.8645 -0.0476
C15 C 0.24797(19) 0.60946(19) 0.28686(12)
H11 H 0.2594 0.6739 0.2706
H12 H 0.3067 0.5901 0.3110
C16 C 0.26781(18) 0.43269(19) 0.04742(12)
C17 C 0.1632(2) 0.61395(19) 0.32591(12)
H13 H 0.1052 0.6381 0.3028
H14 H 0.1782 0.6582 0.3593
C18 C 0.5323(2) 0.7404(2) -0.05564(13)
H15 H 0.4928 0.7706 -0.0885
H16 H 0.5793 0.6973 -0.0731
C19 C 0.4857(2) 0.8019(2) 0.06470(13)
H17 H 0.5402 0.7866 0.0935
H18 H 0.4349 0.8334 0.0864
C20 C 0.5203(2) 0.8710(2) 0.01907(14)
H19 H 0.5550 0.9252 0.0391
H20 H 0.4644 0.8970 -0.0052
O1 O 0.38958(18) 0.39371(19) -0.15913(10)
H21 H 0.423(3) 0.374(3) -0.1777(19)
H22 H 0.346(3) 0.395(3) -0.1887(19)
S3 S -0.23538(5) 1.13535(5) -0.00960(3)
S4 S -0.24126(5) 0.97562(5) 0.08486(3)
N5 N -0.05790(15) 0.99048(15) -0.10423(10)
N6 N -0.05727(15) 0.81277(15) 0.00672(10)
C21 C -0.11860(18) 0.88212(18) 0.02161(11)
C22 C -0.11579(17) 1.02185(18) -0.06259(11)
C23 C -0.13897(18) 0.97230(19) -0.00883(12)
C24 C -0.16470(18) 1.10946(19) -0.06859(12)
C25 C -0.04997(18) 0.73495(19) 0.04206(12)
C26 C -0.20250(19) 1.0266(2) 0.02135(12)
N7 N -0.22303(18) 0.78464(19) 0.15486(11)
H23 H -0.2185 0.7334 0.1774
H24 H -0.2626 0.8312 0.1631
C27 C 0.0223(2) 0.6611(2) 0.02448(13)
H25 H 0.0023 0.6374 -0.0156
H26 H 0.0859 0.6925 0.0224
C28 C -0.05044(18) 1.04621(18) -0.15231(11)
N8 N -0.21346(17) 1.24714(16) -0.12657(11)
H27 H -0.2504 1.2661 -0.0988
H28 H -0.2103 1.2813 -0.1590
C29 C -0.16119(18) 1.16511(18) -0.11946(12)
C30 C -0.0953(2) 1.1878(2) -0.21933(12)
H29 H -0.0619 1.2491 -0.2103
H30 H -0.1617 1.2028 -0.2353
C31 C 0.01630(19) 1.00817(19) -0.19701(12)
H31 H -0.0152 0.9532 -0.2180
H32 H 0.0762 0.9844 -0.1758
C32 C -0.17226(19) 0.8745(2) 0.07158(12)
C33 C -0.1041(2) 0.7206(2) 0.09132(13)
C34 C -0.16828(19) 0.7920(2) 0.10676(12)
C35 C -0.10081(18) 1.13171(18) -0.16264(12)
C36 C 0.0426(3) 1.0821(2) -0.24202(15)
H33 H 0.0895 1.1279 -0.2231
H34 H 0.0742 1.0499 -0.2745
C37 C 0.0336(4) 0.5773(3) 0.06561(19)
H35 H 0.0599 0.5234 0.0433
H36 H 0.0829 0.5943 0.0974
C38 C -0.0427(3) 1.1350(2) -0.26670(14)
H37 H -0.0879 1.0896 -0.2875
H38 H -0.0221 1.1819 -0.2961
C39 C -0.0470(3) 0.5440(3) 0.0923(2)
H39 H -0.0281 0.4912 0.1197
H40 H -0.0948 0.5189 0.0618
C40 C -0.0949(2) 0.6301(2) 0.12828(16)
H41 H -0.1597 0.6102 0.1396
H42 H -0.0544 0.6432 0.1650
O2 O 0.00280(13) 0.80477(13) -0.10867(8)
H49 H -0.0139 0.8634 -0.1138
H50 H -0.0080 0.7931 -0.0726
H51 H 0.1262 0.8004 -0.1331
C42 C 0.2218(3) 0.7050(2) -0.12785(19)
H52 H 0.2856 0.6919 -0.1432
H53 H 0.2326 0.7352 -0.0885
C43 C 0.1733(8) 0.6210(8) -0.1224(6)
H54 H 0.2189 0.5707 -0.1092
H55 H 0.1414 0.6033 -0.1607
H56 H 0.1247 0.6287 -0.0933
O4 O 0.1669(7) 0.7720(6) -0.1685(4)
O5 O 0.43674(14) 0.68816(14) 0.19359(9)
H63 H 0.3967 0.6464 0.2041
H64 H 0.4283 0.6923 0.1561
O6 O 0.24911(17) 0.86782(19) -0.24846(11)
H65 H 0.2180 0.8465 -0.2208
C45 C 0.3142(3) 0.9393(3) -0.22635(15)
H66 H 0.2776 0.9912 -0.2083
H67 H 0.3478 0.9671 -0.2595
C46 C 0.3869(3) 0.9005(3) -0.18161(19)
H68 H 0.4244 0.8501 -0.1996
H69 H 0.3540 0.8738 -0.1484
H70 H 0.4304 0.9519 -0.1673
O7 O 0.1016(5) 0.6787(5) -0.2798(3)
H71 H 0.125(7) 0.699(7) -0.245(2)
H72 H 0.052(5) 0.715(6) -0.291(4)
H43? H -0.0004 0.5225 0.0459
H44? H 0.1031 0.5608 0.0694
H45? H -0.1041 0.6460 0.1701
H46? H -0.1464 0.5846 0.1147
C41? C 0.0013(6) 0.5834(6) 0.1242(4)
H47? H 0.0498 0.6196 0.1492
H48? H -0.0018 0.5180 0.1406
O3? O 0.1836(3) 0.7971(3) -0.1426(2)
H57? H 0.2923 0.7116 -0.1191
H58? H 0.1938 0.6836 -0.0911
C44? C 0.2062(4) 0.6321(4) -0.1706(3)
H59? H 0.1371 0.6278 -0.1823
H60? H 0.2287 0.5708 -0.1538
H61? H 0.2419 0.6471 -0.2053
H62? H 0.1145 0.7864 -0.1543
loop_
_geom_bond_atom_site_label_1
_geom_bond_atom_site_label_2
_geom_bond_site_symmetry_1
_geom_bond_site_symmetry_2
S1 C3 1_555 1_555
S2 C12 1_555 1_555
N1 C4 1_555 1_555
N2 C5 1_555 1_555
N3 H1 1_555 1_555
H2 N3 1_555 1_555
C1 N3 1_555 1_555
N4 H3 1_555 1_555
H4 N4 1_555 1_555
C2 C1 1_555 1_555
C3 C7 1_555 1_555
C4 C9 1_555 1_555
C5 C2 1_555 1_555
C6 N2 1_555 1_555
C7 N1 1_555 1_555
C8 C6 1_555 1_555
C9 C11 1_555 1_555
C10 H5 1_555 1_555
H6 C10 1_555 1_555
C11 N4 1_555 1_555
C12 C1 1_555 1_555
C13 C9 1_555 1_555
H7 C13 1_555 1_555
H8 C13 1_555 1_555
C14 H9 1_555 1_555
H10 C14 1_555 1_555
C15 C4 1_555 1_555
H11 C15 1_555 1_555
H12 C15 1_555 1_555
C16 S1 1_555 1_555
C17 C10 1_555 1_555
H13 C17 1_555 1_555
H14 C17 1_555 1_555
C18 C2 1_555 1_555
H15 C18 1_555 1_555
H16 C18 1_555 1_555
C19 C5 1_555 1_555
H17 C19 1_555 1_555
H18 C19 1_555 1_555
C20 C14 1_555 1_555
H19 C20 1_555 1_555
H20 C20 1_555 1_555
O1 H21 1_555 1_555
H22 O1 1_555 1_555
S3 C24 1_555 1_555
S4 C26 1_555 1_555
N5 C22 1_555 1_555
N6 C21 1_555 1_555
C21 C23 1_555 1_555
C22 C23 1_555 1_555
C23 C26 1_555 1_555
C24 C22 1_555 1_555
C25 N6 1_555 1_555
C26 S3 1_555 1_555
N7 H23 1_555 1_555
H24 N7 1_555 1_555
C27 C25 1_555 1_555
H25 C27 1_555 1_555
H26 C27 1_555 1_555
C28 N5 1_555 1_555
N8 H27 1_555 1_555
H28 N8 1_555 1_555
C29 C24 1_555 1_555
C30 H29 1_555 1_555
H30 C30 1_555 1_555
C31 C28 1_555 1_555
H31 C31 1_555 1_555
H32 C31 1_555 1_555
C32 S4 1_555 1_555
C33 C25 1_555 1_555
C34 N7 1_555 1_555
C35 C28 1_555 1_555
C36 C31 1_555 1_555
H33 C36 1_555 1_555
H34 C36 1_555 1_555
C37 C27 1_555 1_555
H35 C37 1_555 1_555
H36 C37 1_555 1_555
C38 C30 1_555 1_555
H37 C38 1_555 1_555
H38 C38 1_555 1_555
C39 C37 1_555 1_555
H39 C39 1_555 1_555
H40 C39 1_555 1_555
C40 C33 1_555 1_555
H41 C40 1_555 1_555
H42 C40 1_555 1_555
O2 H49 1_555 1_555
H50 O2 1_555 1_555
H51 O4 1_555 1_555
C42 H52 1_555 1_555
H53 C42 1_555 1_555
C43 C42 1_555 1_555
H54 C43 1_555 1_555
H55 C43 1_555 1_555
H56 C43 1_555 1_555
O4 C42 1_555 1_555
O5 H63 1_555 1_555
H64 O5 1_555 1_555
O6 H65 1_555 1_555
C45 O6 1_555 1_555
H66 C45 1_555 1_555
H67 C45 1_555 1_555
C46 C45 1_555 1_555
H68 C46 1_555 1_555
H69 C46 1_555 1_555
H70 C46 1_555 1_555
O7 H71 1_555 1_555
H72 O7 1_555 1_555
S2 C16 1_555 1_555
C3 C11 1_555 1_555
C6 C12 1_555 1_555
C7 C8 1_555 1_555
C8 C16 1_555 1_555
C10 C13 1_555 1_555
C14 C18 1_555 1_555
C15 C17 1_555 1_555
C19 C20 1_555 1_555
C21 C32 1_555 1_555
N8 C29 1_555 1_555
C29 C35 1_555 1_555
C30 C35 1_555 1_555
C32 C34 1_555 1_555
C33 C34 1_555 1_555
C36 C38 1_555 1_555
C39 C40 1_555 1_555

#END
