
#######################################################################
#
#                 Cambridge Crystallographic Data Centre
#                                CCDC 
#
#######################################################################
#
# If this CIF has been generated from an entry in the Cambridge 
# Structural Database, then it will include bibliographic, chemical, 
# crystal, experimental, refinement or atomic coordinate data resulting 
# from the CCDC's data processing and validation procedures.
#
#######################################################################

data_HUPBUQ
_chemical_name_common            
(Z)-6-Fluoro-1-iodomethyl-3-methoxycarbonylmethylene-1-methyl-3H-isobenzofuran
_chemical_formula_moiety         'C13 H12 F1 I1 O3'
_chemical_name_systematic        
'(Z)-Methyl (5-fluoro-3-(iodomethyl)-3-methyl-2-benzofuran-1(3H)-ylidene)acetate'
_symmetry_cell_setting           orthorhombic
_symmetry_space_group_name_H-M   'P 21 c n'
_symmetry_Int_Tables_number      33
_space_group_name_Hall           'P -2n 2a'
loop_
_symmetry_equiv_pos_site_id
_symmetry_equiv_pos_as_xyz
1 x,y,z
2 1/2+x,-y,-z
3 x,1/2-y,1/2+z
4 1/2+x,1/2+y,1/2-z
_cell_length_a                   11.683(2)
_cell_length_b                   15.495(3)
_cell_length_c                   7.456(2)
_cell_angle_alpha                90
_cell_angle_beta                 90
_cell_angle_gamma                90
_cell_volume                     1349.75
_exptl_crystal_colour            colorless
_exptl_crystal_description       prismatic
_cell_formula_units_Z            4
loop_
_atom_site_label
_atom_site_type_symbol
_atom_site_fract_x
_atom_site_fract_y
_atom_site_fract_z
O1 O 0.3888(4) 1.0632(3) 0.9020(7)
O2 O 0.1937(5) 1.0978(4) 0.6914(10)
O3 O 0.1630(5) 1.2377(4) 0.6455(8)
F1 F 0.8150(4) 1.1862(4) 1.2355(9)
I1 I 0.36227(7) 1.02337(3) 1.35520(6)
C1 C 0.4878(6) 1.0229(4) 0.9857(10)
C2 C 0.5591(6) 1.0989(4) 1.0388(10)
C3 C 0.5074(7) 1.1735(4) 0.9820(10)
C4 C 0.4012(6) 1.1501(4) 0.8916(9)
C5 C 0.5576(7) 1.2538(5) 1.0081(11)
H1 H 0.5216 1.3039 0.9691
C6 C 0.6634(9) 1.2572(6) 1.0943(12)
H2 H 0.6999 1.3096 1.1149
C7 C 0.7124(7) 1.1806(6) 1.1480(12)
C8 C 0.6667(7) 1.1001(6) 1.1253(11)
H3 H 0.7035 1.0502 1.1637
C9 C 0.5475(9) 0.9677(6) 0.8377(13)
H4 H 0.4986 0.9206 0.8046
H5 H 0.6185 0.9456 0.8830
H6 H 0.5620 1.0031 0.7345
C10 C 0.4500(7) 0.9636(4) 1.1339(11)
H7 H 0.5169 0.9341 1.1803
H8 H 0.3999 0.9201 1.0828
C11 C 0.3257(6) 1.2009(5) 0.8078(10)
H9 H 0.3393 1.2600 0.8104
C12 C 0.2234(6) 1.1714(5) 0.7123(10)
C13 C 0.0610(11) 1.2167(7) 0.5488(15)
H10 H 0.0784 1.1746 0.4582
H11 H 0.0310 1.2678 0.4932
H12 H 0.0052 1.1935 0.6300
loop_
_geom_bond_atom_site_label_1
_geom_bond_atom_site_label_2
_geom_bond_site_symmetry_1
_geom_bond_site_symmetry_2
O1 C1 1_555 1_555
O2 C12 1_555 1_555
O3 C12 1_555 1_555
F1 C7 1_555 1_555
I1 C10 1_555 1_555
C1 C2 1_555 1_555
C2 C3 1_555 1_555
C3 C4 1_555 1_555
C4 O1 1_555 1_555
C5 C3 1_555 1_555
H1 C5 1_555 1_555
C6 C5 1_555 1_555
H2 C6 1_555 1_555
C7 C6 1_555 1_555
C8 C2 1_555 1_555
H3 C8 1_555 1_555
C9 C1 1_555 1_555
H4 C9 1_555 1_555
H5 C9 1_555 1_555
H6 C9 1_555 1_555
C10 C1 1_555 1_555
H7 C10 1_555 1_555
H8 C10 1_555 1_555
C11 C4 1_555 1_555
H9 C11 1_555 1_555
C12 C11 1_555 1_555
C13 O3 1_555 1_555
H10 C13 1_555 1_555
H11 C13 1_555 1_555
H12 C13 1_555 1_555
C7 C8 1_555 1_555

#END
