
#######################################################################
#
#                 Cambridge Crystallographic Data Centre
#                                CCDC 
#
#######################################################################
#
# If this CIF has been generated from an entry in the Cambridge 
# Structural Database, then it will include bibliographic, chemical, 
# crystal, experimental, refinement or atomic coordinate data resulting 
# from the CCDC's data processing and validation procedures.
#
#######################################################################

data_HUQMUD
_chemical_formula_moiety         'C44 H40 S14 Si5,7.3(C1 H1 Cl3)'
_chemical_name_systematic        
"2,2',10,10'-tetrakis(trimethylsilyl)-6,6'-spirobi[bisthieno[3'',2'':4',5']thieno[3',2':4,5]thieno[3,2-b:2',3'-e][1,4]thiasiline] chloroform solvate"
_symmetry_cell_setting           orthorhombic
_symmetry_space_group_name_H-M   'P b a n'
_symmetry_Int_Tables_number      50
_space_group_name_Hall           '-P 2ab 2b'
loop_
_symmetry_equiv_pos_site_id
_symmetry_equiv_pos_as_xyz
1 x,y,z
2 1/2-x,1/2-y,z
3 1/2-x,y,-z
4 x,1/2-y,-z
5 -x,-y,-z
6 1/2+x,1/2+y,-z
7 1/2+x,-y,z
8 -x,1/2+y,z
_cell_length_a                   11.792(5)
_cell_length_b                   13.295(5)
_cell_length_c                   44.329(18)
_cell_angle_alpha                90
_cell_angle_beta                 90
_cell_angle_gamma                90
_cell_volume                     6949.66
_exptl_crystal_colour            colorless
_exptl_crystal_description       plate
_cell_formula_units_Z            2
loop_
_atom_site_label
_atom_site_type_symbol
_atom_site_fract_x
_atom_site_fract_y
_atom_site_fract_z
Si1 Si 0.7500 0.2500 0.5000
Si2 Si 0.51410(16) 0.43921(13) 0.30561(3)
S1 S 0.7500 0.2500 0.41781(3)
S2 S 0.56363(12) 0.40813(11) 0.48667(3)
S3 S 0.42602(15) 0.52841(14) 0.43714(3)
S4 S 0.41952(14) 0.53405(13) 0.36568(3)
C1 C 0.6632(3) 0.3246(3) 0.47308(8)
C2 C 0.6645(3) 0.3235(3) 0.44195(8)
C3 C 0.5274(4) 0.4451(4) 0.45045(10)
C4 C 0.5853(3) 0.3928(3) 0.42871(8)
C5 C 0.4651(5) 0.4960(4) 0.40109(10)
C6 C 0.5510(3) 0.4233(3) 0.39895(9)
C7 C 0.5772(4) 0.4000(4) 0.36822(9)
H1 H 0.6320 0.3530 0.3628
C8 C 0.5143(4) 0.4532(4) 0.34734(9)
C9 C 0.5193(7) 0.5708(6) 0.28946(16)
H2 H 0.4523 0.6069 0.2953
H3 H 0.5232 0.5672 0.2679
H4 H 0.5851 0.6051 0.2970
C10 C 0.3849(8) 0.3645(9) 0.29391(19)
H5 H 0.3176 0.4020 0.2986
H6 H 0.3837 0.3017 0.3046
H7 H 0.3878 0.3519 0.2726
C11 C 0.6412(7) 0.3659(6) 0.29573(14)
H8 H 0.6445 0.3572 0.2743
H9 H 0.6376 0.3013 0.3053
H10 H 0.7076 0.4011 0.3025
Si2A Si 0.98590(16) 0.06079(13) 0.30561(3)
S2A S 0.93637(12) 0.09187(11) 0.48667(3)
S3A S 1.07398(15) -0.02841(14) 0.43714(3)
S4A S 1.08048(14) -0.03405(13) 0.36568(3)
C1A C 0.8368(3) 0.1754(3) 0.47308(8)
C2A C 0.8355(3) 0.1765(3) 0.44195(8)
C3A C 0.9726(4) 0.0549(4) 0.45045(10)
C4A C 0.9147(3) 0.1072(3) 0.42871(8)
C5A C 1.0349(5) 0.0040(4) 0.40109(10)
C6A C 0.9490(3) 0.0767(3) 0.39895(9)
C7A C 0.9228(4) 0.1000(4) 0.36822(9)
H1A H 0.8680 0.1470 0.3628
C8A C 0.9857(4) 0.0468(4) 0.34734(9)
C9A C 0.9807(7) -0.0708(6) 0.28946(16)
H2A H 1.0477 -0.1069 0.2953
H3A H 0.9768 -0.0672 0.2679
H4A H 0.9149 -0.1051 0.2970
C10A C 1.1151(8) 0.1355(9) 0.29391(19)
H5A H 1.1824 0.0980 0.2986
H6A H 1.1163 0.1983 0.3046
H7A H 1.1122 0.1481 0.2726
C11A C 0.8588(7) 0.1341(6) 0.29573(14)
H8A H 0.8555 0.1428 0.2743
H9A H 0.8624 0.1987 0.3053
H10A H 0.7924 0.0989 0.3025
Si2B Si 0.98590(16) 0.43921(13) 0.69439(3)
S1B S 0.7500 0.2500 0.58219(3)
S2B S 0.93637(12) 0.40813(11) 0.51333(3)
S3B S 1.07398(15) 0.52841(14) 0.56286(3)
S4B S 1.08048(14) 0.53405(13) 0.63432(3)
C1B C 0.8368(3) 0.3246(3) 0.52692(8)
C2B C 0.8355(3) 0.3235(3) 0.55805(8)
C3B C 0.9726(4) 0.4451(4) 0.54955(10)
C4B C 0.9147(3) 0.3928(3) 0.57129(8)
C5B C 1.0349(5) 0.4960(4) 0.59891(10)
C6B C 0.9490(3) 0.4233(3) 0.60105(9)
C7B C 0.9228(4) 0.4000(4) 0.63178(9)
H1B H 0.8680 0.3530 0.6372
C8B C 0.9857(4) 0.4532(4) 0.65266(9)
C9B C 0.9807(7) 0.5708(6) 0.71054(16)
H2B H 1.0477 0.6069 0.7047
H3B H 0.9768 0.5672 0.7321
H4B H 0.9149 0.6051 0.7030
C10B C 1.1151(8) 0.3645(9) 0.70609(19)
H5B H 1.1824 0.4020 0.7014
H6B H 1.1163 0.3017 0.6954
H7B H 1.1122 0.3519 0.7274
C11B C 0.8588(7) 0.3659(6) 0.70427(14)
H8B H 0.8555 0.3572 0.7257
H9B H 0.8624 0.3013 0.6947
H10B H 0.7924 0.4011 0.6975
Si2C Si 0.51410(16) 0.06079(13) 0.69439(3)
S2C S 0.56363(12) 0.09187(11) 0.51333(3)
S3C S 0.42602(15) -0.02841(14) 0.56286(3)
S4C S 0.41952(14) -0.03405(13) 0.63432(3)
C1C C 0.6632(3) 0.1754(3) 0.52692(8)
C2C C 0.6645(3) 0.1765(3) 0.55805(8)
C3C C 0.5274(4) 0.0549(4) 0.54955(10)
C4C C 0.5853(3) 0.1072(3) 0.57129(8)
C5C C 0.4651(5) 0.0040(4) 0.59891(10)
C6C C 0.5510(3) 0.0767(3) 0.60105(9)
C7C C 0.5772(4) 0.1000(4) 0.63178(9)
H1C H 0.6320 0.1470 0.6372
C8C C 0.5143(4) 0.0468(4) 0.65266(9)
C9C C 0.5193(7) -0.0708(6) 0.71054(16)
H2C H 0.4523 -0.1069 0.7047
H3C H 0.5232 -0.0672 0.7321
H4C H 0.5851 -0.1051 0.7030
C10C C 0.3849(8) 0.1355(9) 0.70609(19)
H5C H 0.3176 0.0980 0.7014
H6C H 0.3837 0.1983 0.6954
H7C H 0.3878 0.1481 0.7274
C11C C 0.6412(7) 0.1341(6) 0.70427(14)
H8C H 0.6445 0.1428 0.7257
H9C H 0.6376 0.1987 0.6947
H10C H 0.7076 0.0989 0.6975
loop_
_geom_bond_atom_site_label_1
_geom_bond_atom_site_label_2
_geom_bond_site_symmetry_1
_geom_bond_site_symmetry_2
Si1 C1 1_555 1_555
Si2 C8 1_555 1_555
S1 C2 1_555 1_555
S2 C1 1_555 1_555
S3 C3 1_555 1_555
S4 C5 1_555 1_555
C1 C2 1_555 1_555
C2 C4 1_555 1_555
C3 S2 1_555 1_555
C4 C3 1_555 1_555
C5 S3 1_555 1_555
C6 C4 1_555 1_555
C7 C6 1_555 1_555
H1 C7 1_555 1_555
C8 S4 1_555 1_555
C9 Si2 1_555 1_555
H2 C9 1_555 1_555
H3 C9 1_555 1_555
H4 C9 1_555 1_555
C10 Si2 1_555 1_555
H5 C10 1_555 1_555
H6 C10 1_555 1_555
H7 C10 1_555 1_555
C11 Si2 1_555 1_555
H8 C11 1_555 1_555
H9 C11 1_555 1_555
H10 C11 1_555 1_555
Si2A C8A 1_555 1_555
S2A C1A 1_555 1_555
S3A C3A 1_555 1_555
S4A C5A 1_555 1_555
C1A Si1 1_555 1_555
C2A S1 1_555 1_555
C3A S2A 1_555 1_555
C4A C2A 1_555 1_555
C5A S3A 1_555 1_555
C6A C4A 1_555 1_555
C7A C6A 1_555 1_555
H1A C7A 1_555 1_555
C8A S4A 1_555 1_555
C9A Si2A 1_555 1_555
H2A C9A 1_555 1_555
H3A C9A 1_555 1_555
H4A C9A 1_555 1_555
C10A Si2A 1_555 1_555
H5A C10A 1_555 1_555
H6A C10A 1_555 1_555
H7A C10A 1_555 1_555
C11A Si2A 1_555 1_555
H8A C11A 1_555 1_555
H9A C11A 1_555 1_555
H10A C11A 1_555 1_555
Si2B C8B 1_555 1_555
S1B C2B 1_555 1_555
S2B C1B 1_555 1_555
S3B C3B 1_555 1_555
S4B C5B 1_555 1_555
C1B Si1 1_555 1_555
C2B C1B 1_555 1_555
C3B S2B 1_555 1_555
C4B C2B 1_555 1_555
C5B S3B 1_555 1_555
C6B C4B 1_555 1_555
C7B C6B 1_555 1_555
H1B C7B 1_555 1_555
C8B S4B 1_555 1_555
C9B Si2B 1_555 1_555
H2B C9B 1_555 1_555
H3B C9B 1_555 1_555
H4B C9B 1_555 1_555
C10B Si2B 1_555 1_555
H5B C10B 1_555 1_555
H6B C10B 1_555 1_555
H7B C10B 1_555 1_555
C11B Si2B 1_555 1_555
H8B C11B 1_555 1_555
H9B C11B 1_555 1_555
H10B C11B 1_555 1_555
Si2C C8C 1_555 1_555
S2C C1C 1_555 1_555
S3C C3C 1_555 1_555
S4C C5C 1_555 1_555
C1C Si1 1_555 1_555
C2C S1B 1_555 1_555
C3C S2C 1_555 1_555
C4C C2C 1_555 1_555
C5C S3C 1_555 1_555
C6C C4C 1_555 1_555
C7C C6C 1_555 1_555
H1C C7C 1_555 1_555
C8C S4C 1_555 1_555
C9C Si2C 1_555 1_555
H2C C9C 1_555 1_555
H3C C9C 1_555 1_555
H4C C9C 1_555 1_555
C10C Si2C 1_555 1_555
H5C C10C 1_555 1_555
H6C C10C 1_555 1_555
H7C C10C 1_555 1_555
C11C Si2C 1_555 1_555
H8C C11C 1_555 1_555
H9C C11C 1_555 1_555
H10C C11C 1_555 1_555
C5 C6 1_555 1_555
C7 C8 1_555 1_555
C1A C2A 1_555 1_555
C3A C4A 1_555 1_555
C5A C6A 1_555 1_555
C7A C8A 1_555 1_555
C3B C4B 1_555 1_555
C5B C6B 1_555 1_555
C7B C8B 1_555 1_555
C1C C2C 1_555 1_555
C3C C4C 1_555 1_555
C5C C6C 1_555 1_555
C7C C8C 1_555 1_555

#END
