
#######################################################################
#
#                 Cambridge Crystallographic Data Centre
#                                CCDC 
#
#######################################################################
#
# If this CIF has been generated from an entry in the Cambridge 
# Structural Database, then it will include bibliographic, chemical, 
# crystal, experimental, refinement or atomic coordinate data resulting 
# from the CCDC's data processing and validation procedures.
#
#######################################################################

data_HUQMEN
_chemical_formula_moiety         'C18 H19 N1 O4'
_chemical_name_systematic        
6,6-dimethoxy-5-methyl-2-phenyl-5a,6,6a,6b-tetrahydrocyclopropa[e]isoindole-1,3(2H,3aH)-dione
_symmetry_cell_setting           monoclinic
_symmetry_space_group_name_H-M   'P 21/n'
_symmetry_Int_Tables_number      14
_space_group_name_Hall           '-P 2yn'
loop_
_symmetry_equiv_pos_site_id
_symmetry_equiv_pos_as_xyz
1 x,y,z
2 1/2-x,1/2+y,1/2-z
3 -x,-y,-z
4 1/2+x,1/2-y,1/2+z
_cell_length_a                   9.7130(2)
_cell_length_b                   9.7647(2)
_cell_length_c                   16.4938(3)
_cell_angle_alpha                90
_cell_angle_beta                 94.8270(10)
_cell_angle_gamma                90
_cell_volume                     1558.8
_exptl_crystal_colour            colorless
_exptl_crystal_description       lamellar
_cell_formula_units_Z            4
loop_
_atom_site_label
_atom_site_type_symbol
_atom_site_fract_x
_atom_site_fract_y
_atom_site_fract_z
O1 O 0.45058(10) 0.16384(10) 0.80632(6)
O2 O 0.52955(9) 0.33782(10) 0.89657(5)
O3 O 0.00836(10) 0.42818(10) 0.87429(6)
O4 O 0.25788(10) 0.81655(10) 0.93661(6)
N1 N 0.10354(11) 0.63834(12) 0.91108(7)
C1 C -0.25983(15) 0.87032(17) 0.91607(9)
H1 H -0.3401 0.9221 0.9171
C2 C -0.15599(15) 0.88232(16) 0.97832(9)
H2 H -0.1660 0.9432 1.0208
C3 C -0.03676(14) 0.80396(15) 0.97778(8)
H3 H 0.0323 0.8104 1.0202
C4 C -0.02200(13) 0.71595(14) 0.91310(8)
C5 C 0.10849(14) 0.49847(15) 0.89250(8)
C6 C 0.25858(13) 0.45276(14) 0.90283(8)
H4 H 0.2735 0.4066 0.9556
C7 C 0.29098(14) 0.35120(14) 0.83790(8)
H5 H 0.2163 0.2873 0.8208
C8 C 0.43324(14) 0.29656(14) 0.83445(8)
C9 C 0.40737(16) 0.06161(16) 0.86112(10)
H6 H 0.4546 0.0752 0.9140
H7 H 0.4290 -0.0276 0.8413
H8 H 0.3095 0.0687 0.8648
C10 C 0.66823(14) 0.34208(16) 0.87172(9)
H9 H 0.7027 0.2504 0.8675
H10 H 0.7265 0.3920 0.9113
H11 H 0.6679 0.3866 0.8198
C11 C 0.37987(13) 0.39819(14) 0.77030(8)
H12 H 0.3543 0.3596 0.7163
C12 C 0.43040(13) 0.54123(14) 0.77126(8)
C13 C 0.41125(13) 0.62498(15) 0.83275(8)
H13 H 0.4433 0.7143 0.8291
C14 C 0.34162(13) 0.58696(14) 0.90813(8)
H14 H 0.4106 0.5833 0.9550
C15 C 0.23522(14) 0.69695(15) 0.92200(8)
C16 C -0.24431(15) 0.78116(17) 0.85212(9)
H15 H -0.3144 0.7732 0.8104
C17 C -0.12502(14) 0.70378(15) 0.84992(9)
H16 H -0.1142 0.6446 0.8067
C18 C 0.50732(15) 0.58322(15) 0.69948(8)
H17 H 0.5201 0.6807 0.7001
H18 H 0.4550 0.5568 0.6500
H19 H 0.5958 0.5388 0.7027
loop_
_geom_bond_atom_site_label_1
_geom_bond_atom_site_label_2
_geom_bond_site_symmetry_1
_geom_bond_site_symmetry_2
O1 C8 1_555 1_555
O2 C8 1_555 1_555
O3 C5 1_555 1_555
O4 C15 1_555 1_555
N1 C4 1_555 1_555
C1 H1 1_555 1_555
C2 C1 1_555 1_555
H2 C2 1_555 1_555
C3 C2 1_555 1_555
H3 C3 1_555 1_555
C4 C3 1_555 1_555
C5 N1 1_555 1_555
C6 C5 1_555 1_555
H4 C6 1_555 1_555
C7 C6 1_555 1_555
H5 C7 1_555 1_555
C8 C7 1_555 1_555
C9 O1 1_555 1_555
H6 C9 1_555 1_555
H7 C9 1_555 1_555
H8 C9 1_555 1_555
C10 O2 1_555 1_555
H9 C10 1_555 1_555
H10 C10 1_555 1_555
H11 C10 1_555 1_555
C11 C7 1_555 1_555
H12 C11 1_555 1_555
C12 C11 1_555 1_555
C13 C12 1_555 1_555
H13 C13 1_555 1_555
C14 C6 1_555 1_555
H14 C14 1_555 1_555
C15 N1 1_555 1_555
C16 C1 1_555 1_555
H15 C16 1_555 1_555
C17 C4 1_555 1_555
H16 C17 1_555 1_555
C18 C12 1_555 1_555
H17 C18 1_555 1_555
H18 C18 1_555 1_555
H19 C18 1_555 1_555
C8 C11 1_555 1_555
C13 C14 1_555 1_555
C14 C15 1_555 1_555
C16 C17 1_555 1_555

#END
