
#######################################################################
#
#                 Cambridge Crystallographic Data Centre
#                                CCDC 
#
#######################################################################
#
# If this CIF has been generated from an entry in the Cambridge 
# Structural Database, then it will include bibliographic, chemical, 
# crystal, experimental, refinement or atomic coordinate data resulting 
# from the CCDC's data processing and validation procedures.
#
#######################################################################

data_HUQRAO
_chemical_compound_source        'roots of Angelica sinensis'
_chemical_name_common            'angesinenolide B'
_chemical_formula_moiety         'C25 H32 O7'
_chemical_name_systematic        
"Methyl 4'-oxo-1-pentanoyl-3-propyl-3',8',9'-trioxaspiro[bicyclo[2.2.2]octane-2,2'-tricyclo[5.2.2.0^1,5^]undecane]-5,5'-diene-6-carboxylate"
_chemical_properties_biological  'anticoagulant activity'
_symmetry_cell_setting           triclinic
_symmetry_space_group_name_H-M   'P -1'
_symmetry_Int_Tables_number      2
_space_group_name_Hall           '-P 1'
loop_
_symmetry_equiv_pos_site_id
_symmetry_equiv_pos_as_xyz
1 x,y,z
2 -x,-y,-z
_cell_length_a                   10.1553(17)
_cell_length_b                   10.4128(17)
_cell_length_c                   12.5099(19)
_cell_angle_alpha                80.379(10)
_cell_angle_beta                 69.257(7)
_cell_angle_gamma                70.505(7)
_cell_volume                     1164.39
_exptl_crystal_colour            colorless
_exptl_crystal_description       block
_chemical_melting_point          '139-140 deg.C'
_cell_formula_units_Z            2
loop_
_atom_site_label
_atom_site_type_symbol
_atom_site_fract_x
_atom_site_fract_y
_atom_site_fract_z
O1 O 0.62434(15) 0.58263(16) 0.20891(11)
O2 O 0.48667(11) 0.46467(11) 0.33987(9)
O3 O 0.16638(12) 0.58297(12) 0.30972(9)
O4 O 0.11991(15) 0.68422(14) 0.22092(11)
O5 O 0.59903(14) 0.28558(12) 0.15451(10)
O6 O 0.3767(2) 0.07314(16) 0.21894(14)
O7 O 0.2287(2) 0.00539(16) 0.38296(15)
C1 C 0.52159(18) 0.53826(17) 0.23872(13)
C2 C 0.37020(16) 0.40396(15) 0.35326(12)
C3 C 0.26808(18) 0.40070(18) 0.18188(14)
H1 H 0.1909 0.3610 0.2291
H2 H 0.3545 0.3279 0.1455
C4 C 0.2157(2) 0.5037(2) 0.09059(16)
H3 H 0.2793 0.4749 0.0146
H4 H 0.1160 0.5079 0.0981
C5 C 0.2202(2) 0.6433(2) 0.10699(15)
H5 H 0.1893 0.7096 0.0485
C6 C 0.3684(2) 0.64215(19) 0.10456(15)
H6 H 0.4243 0.6948 0.0535
C7 C 0.25227(17) 0.43246(17) 0.47433(13)
H7 H 0.1561 0.4516 0.4640
C8 C 0.24574(17) 0.55797(18) 0.52736(13)
H8 H 0.3260 0.5344 0.5589
H9 H 0.2592 0.6298 0.4679
C9 C 0.1008(2) 0.6105(3) 0.62098(19)
H10 H 0.0213 0.6347 0.5886
H11 H 0.0870 0.5373 0.6790
C10 C 0.0894(3) 0.7316(3) 0.6774(2)
H12 H 0.1061 0.8038 0.6205
H13 H 0.1620 0.7066 0.7157
H14 H -0.0073 0.7621 0.7321
C11 C 0.3174(2) 0.07991(18) 0.32091(18)
C12 C 0.2052(4) -0.0855(3) 0.3204(3)
H15 H 0.1576 -0.0330 0.2663
H16 H 0.1440 -0.1370 0.3729
H17 H 0.2985 -0.1467 0.2804
C13 C 0.57128(18) 0.20248(17) 0.23273(14)
C14 C 0.5346(2) 0.20582(19) 0.43743(15)
H18 H 0.5789 0.1077 0.4414
H19 H 0.6132 0.2481 0.4131
C15 C 0.4310(2) 0.2518(2) 0.55582(15)
H20 H 0.4545 0.3253 0.5764
H21 H 0.4422 0.1766 0.6124
C16 C 0.2724(2) 0.30074(19) 0.55312(14)
H22 H 0.2018 0.3171 0.6304
C17 C 0.2474(2) 0.19677(19) 0.49901(16)
H23 H 0.1758 0.1533 0.5379
C18 C 0.6708(2) 0.0566(2) 0.22473(18)
H24 H 0.6153 -0.0022 0.2753
H25 H 0.7517 0.0496 0.2516
C19 C 0.7338(3) 0.0054(2) 0.1050(2)
H26 H 0.6537 0.0200 0.0749
H27 H 0.7978 0.0579 0.0558
C20 C 0.8197(4) -0.1434(3) 0.1023(2)
H28 H 0.8986 -0.1580 0.1337
H29 H 0.7552 -0.1958 0.1508
C21 C 0.8845(4) -0.1950(4) -0.0154(3)
H30 H 0.9539 -0.1482 -0.0625
H31 H 0.8073 -0.1789 -0.0478
H32 H 0.9338 -0.2911 -0.0115
C22 C 0.30509(16) 0.47845(16) 0.25495(13)
C23 C 0.40901(17) 0.55548(16) 0.18537(13)
C24 C 0.45007(17) 0.24540(16) 0.34692(13)
C25 C 0.33401(19) 0.17041(17) 0.39160(15)
loop_
_geom_bond_atom_site_label_1
_geom_bond_atom_site_label_2
_geom_bond_site_symmetry_1
_geom_bond_site_symmetry_2
O1 C1 1_555 1_555
O2 C1 1_555 1_555
O3 O4 1_555 1_555
O4 C5 1_555 1_555
O5 C13 1_555 1_555
O6 C11 1_555 1_555
O7 C11 1_555 1_555
C1 C23 1_555 1_555
C2 O2 1_555 1_555
C3 H1 1_555 1_555
H2 C3 1_555 1_555
C4 C3 1_555 1_555
H3 C4 1_555 1_555
H4 C4 1_555 1_555
C5 C4 1_555 1_555
H5 C5 1_555 1_555
C6 C5 1_555 1_555
H6 C6 1_555 1_555
C7 C2 1_555 1_555
H7 C7 1_555 1_555
C8 C7 1_555 1_555
H8 C8 1_555 1_555
H9 C8 1_555 1_555
C9 C8 1_555 1_555
H10 C9 1_555 1_555
H11 C9 1_555 1_555
C10 C9 1_555 1_555
H12 C10 1_555 1_555
H13 C10 1_555 1_555
H14 C10 1_555 1_555
C11 C25 1_555 1_555
C12 O7 1_555 1_555
H15 C12 1_555 1_555
H16 C12 1_555 1_555
H17 C12 1_555 1_555
C13 C18 1_555 1_555
C14 H18 1_555 1_555
H19 C14 1_555 1_555
C15 C14 1_555 1_555
H20 C15 1_555 1_555
H21 C15 1_555 1_555
C16 C7 1_555 1_555
H22 C16 1_555 1_555
C17 C16 1_555 1_555
H23 C17 1_555 1_555
C18 H24 1_555 1_555
H25 C18 1_555 1_555
C19 C18 1_555 1_555
H26 C19 1_555 1_555
H27 C19 1_555 1_555
C20 C19 1_555 1_555
H28 C20 1_555 1_555
H29 C20 1_555 1_555
C21 C20 1_555 1_555
H30 C21 1_555 1_555
H31 C21 1_555 1_555
H32 C21 1_555 1_555
C22 O3 1_555 1_555
C23 C6 1_555 1_555
C24 C2 1_555 1_555
C25 C17 1_555 1_555
C2 C22 1_555 1_555
C3 C22 1_555 1_555
C13 C24 1_555 1_555
C14 C24 1_555 1_555
C15 C16 1_555 1_555
C22 C23 1_555 1_555
C24 C25 1_555 1_555

#END
