
#######################################################################
#
#                 Cambridge Crystallographic Data Centre
#                                CCDC 
#
#######################################################################
#
# If this CIF has been generated from an entry in the Cambridge 
# Structural Database, then it will include bibliographic, chemical, 
# crystal, experimental, refinement or atomic coordinate data resulting 
# from the CCDC's data processing and validation procedures.
#
#######################################################################

data_HURQEQ
_chemical_formula_moiety         'C32 H22 S5'
_chemical_name_systematic        
bis((Z)-5-Phenyl-2-phenylmethylidene-1,3-dithiole-4-yl)monosulfane
_symmetry_cell_setting           triclinic
_symmetry_space_group_name_H-M   'P -1'
_symmetry_Int_Tables_number      2
_space_group_name_Hall           '-P 1'
loop_
_symmetry_equiv_pos_site_id
_symmetry_equiv_pos_as_xyz
1 x,y,z
2 -x,-y,-z
_cell_length_a                   9.927(2)
_cell_length_b                   10.043(1)
_cell_length_c                   14.510(2)
_cell_angle_alpha                93.14(1)
_cell_angle_beta                 107.73(1)
_cell_angle_gamma                92.71(1)
_cell_volume                     1372.71
_exptl_crystal_colour            yellow
_exptl_crystal_description       polyhedral
_chemical_melting_point          121deg.C
_cell_formula_units_Z            2
_exptl_crystal_recrystallization_method tetrahydrofuran
loop_
_atom_site_label
_atom_site_type_symbol
_atom_site_fract_x
_atom_site_fract_y
_atom_site_fract_z
C1 C 0.4425(3) 0.1666(3) 1.0472(2)
C2 C 0.5409(3) 0.2348(3) 1.0206(2)
C3 C 0.6666(3) 0.3132(3) 1.0847(2)
C4 C 0.7587(4) 0.2596(4) 1.1644(3)
H1 H 0.7378(34) 0.1668(34) 1.1745(21)
C5 C 0.8713(4) 0.3364(5) 1.2270(3)
H2 H 0.9246(37) 0.3015(33) 1.2812(24)
C6 C 0.8928(5) 0.4702(5) 1.2125(3)
H3 H 0.9681(45) 0.5216(42) 1.2582(28)
C7 C 0.8046(4) 0.5218(4) 1.1335(3)
H4 H 0.8194(37) 0.6156(38) 1.1220(23)
C8 C 0.6922(4) 0.4451(4) 1.0686(3)
H5 H 0.6199(39) 0.4907(36) 1.0128(25)
S1 S 0.51212(9) 0.22970(9) 0.89363(6)
C9 C 0.3462(3) 0.1385(3) 0.8600(2)
C10 C 0.2588(4) 0.1094(3) 0.7667(2)
H6 H 0.1638(36) 0.0666(32) 0.7623(21)
C11 C 0.2818(4) 0.1360(3) 0.6748(2)
C12 C 0.4138(4) 0.1520(3) 0.6617(2)
H7 H 0.4982(38) 0.1573(34) 0.7205(24)
C13 C 0.4257(5) 0.1752(4) 0.5713(2)
H8 H 0.5298(45) 0.1887(39) 0.5669(26)
C14 C 0.3055(5) 0.1815(4) 0.4923(3)
H9 H 0.3167(37) 0.2015(34) 0.4305(26)
C15 C 0.1737(5) 0.1617(4) 0.5034(3)
H10 H 0.0901(39) 0.1678(33) 0.4498(25)
C16 C 0.1610(4) 0.1386(4) 0.5929(3)
H11 H 0.0712(31) 0.1203(27) 0.6044(18)
S2 S 0.29644(9) 0.08663(8) 0.95773(6)
S3 S 0.44318(9) 0.14506(7) 1.16691(6)
C17 C 0.3803(3) 0.2966(3) 1.1976(2)
C18 C 0.4418(3) 0.3754(3) 1.2790(2)
C19 C 0.5758(3) 0.3596(3) 1.3560(2)
C20 C 0.6675(4) 0.4688(4) 1.3989(2)
H12 H 0.6469(39) 0.5479(37) 1.3753(24)
C21 C 0.7944(5) 0.4558(5) 1.4694(3)
H13 H 0.8493(42) 0.5269(40) 1.4943(27)
C22 C 0.8337(5) 0.3320(5) 1.4973(3)
H14 H 0.9183(38) 0.3255(34) 1.5481(24)
C23 C 0.7444(5) 0.2214(4) 1.4562(2)
C24 C 0.6162(4) 0.2344(4) 1.3875(2)
H15 H 0.5496(31) 0.1659(29) 1.3600(20)
S4 S 0.35187(9) 0.51845(8) 1.29344(5)
C25 C 0.2340(3) 0.5071(3) 1.1752(2)
H16 H 0.7747(34) 0.1315(34) 1.4732(21)
C26 C 0.1578(3) 0.6048(3) 1.1294(2)
H17 H 0.1098(28) 0.5857(26) 1.0634(19)
C27 C 0.1485(3) 0.7405(3) 1.1666(2)
C28 C 0.1006(4) 0.8367(3) 1.1011(2)
H18 H 0.0774(33) 0.8092(31) 1.0359(23)
C29 C 0.0931(4) 0.9675(3) 1.1320(3)
H19 H 0.0653(35) 1.0298(34) 1.0847(23)
C30 C 0.1310(4) 1.0055(3) 1.2286(3)
H20 H 0.1320(31) 1.0894(31) 1.2501(20)
C31 C 0.1758(4) 0.9125(3) 1.2943(2)
H21 H 0.1984(33) 0.9369(31) 1.3605(23)
C32 C 0.1832(4) 0.7816(3) 1.2636(2)
H22 H 0.2121(29) 0.7244(28) 1.3070(19)
S5 S 0.22231(9) 0.34631(8) 1.11784(6)
loop_
_geom_bond_atom_site_label_1
_geom_bond_atom_site_label_2
_geom_bond_site_symmetry_1
_geom_bond_site_symmetry_2
C1 C2 1_555 1_555
C2 C3 1_555 1_555
C3 C4 1_555 1_555
C4 H1 1_555 1_555
C5 C4 1_555 1_555
H2 C5 1_555 1_555
C6 C5 1_555 1_555
H3 C6 1_555 1_555
C7 C6 1_555 1_555
H4 C7 1_555 1_555
C8 C3 1_555 1_555
H5 C8 1_555 1_555
S1 C2 1_555 1_555
C9 S1 1_555 1_555
C10 C9 1_555 1_555
H6 C10 1_555 1_555
C11 C10 1_555 1_555
C12 C11 1_555 1_555
H7 C12 1_555 1_555
C13 C12 1_555 1_555
H8 C13 1_555 1_555
C14 C13 1_555 1_555
H9 C14 1_555 1_555
C15 C14 1_555 1_555
H10 C15 1_555 1_555
C16 C11 1_555 1_555
H11 C16 1_555 1_555
S2 C1 1_555 1_555
S3 C1 1_555 1_555
C17 S3 1_555 1_555
C18 C17 1_555 1_555
C19 C18 1_555 1_555
C20 C19 1_555 1_555
H12 C20 1_555 1_555
C21 C20 1_555 1_555
H13 C21 1_555 1_555
C22 C21 1_555 1_555
H14 C22 1_555 1_555
C23 C22 1_555 1_555
C24 C19 1_555 1_555
H15 C24 1_555 1_555
S4 C18 1_555 1_555
C25 S4 1_555 1_555
H16 C23 1_555 1_555
C26 C25 1_555 1_555
H17 C26 1_555 1_555
C27 C26 1_555 1_555
C28 C27 1_555 1_555
H18 C28 1_555 1_555
C29 C28 1_555 1_555
H19 C29 1_555 1_555
C30 C29 1_555 1_555
H20 C30 1_555 1_555
C31 C30 1_555 1_555
H21 C31 1_555 1_555
C32 C27 1_555 1_555
H22 C32 1_555 1_555
S5 C17 1_555 1_555
C7 C8 1_555 1_555
C9 S2 1_555 1_555
C15 C16 1_555 1_555
C23 C24 1_555 1_555
C25 S5 1_555 1_555
C31 C32 1_555 1_555

#END
