
#######################################################################
#
#                 Cambridge Crystallographic Data Centre
#                                CCDC 
#
#######################################################################
#
# If this CIF has been generated from an entry in the Cambridge 
# Structural Database, then it will include bibliographic, chemical, 
# crystal, experimental, refinement or atomic coordinate data resulting 
# from the CCDC's data processing and validation procedures.
#
#######################################################################

data_HUSDUV
_chemical_formula_moiety         'C18 H23 F1 N4 O2'
_chemical_name_systematic        
N-Butyl-5-fluoro-4-(morpholin-4-yl)-6-phenoxypyrimidin-2-amine
_symmetry_cell_setting           triclinic
_symmetry_space_group_name_H-M   'P -1'
_symmetry_Int_Tables_number      2
_space_group_name_Hall           '-P 1'
loop_
_symmetry_equiv_pos_site_id
_symmetry_equiv_pos_as_xyz
1 x,y,z
2 -x,-y,-z
_cell_length_a                   9.549(2)
_cell_length_b                   9.985(2)
_cell_length_c                   20.876(2)
_cell_angle_alpha                92.04(3)
_cell_angle_beta                 95.04(3)
_cell_angle_gamma                118.18(3)
_cell_volume                     1741
_exptl_crystal_colour            colorless
_exptl_crystal_description       block
_chemical_melting_point          126-127deg.C
_cell_formula_units_Z            4
_exptl_crystal_recrystallization_method n-hexane
loop_
_atom_site_label
_atom_site_type_symbol
_atom_site_fract_x
_atom_site_fract_y
_atom_site_fract_z
F1 F -0.07609(11) 0.61668(10) 0.32858(4)
O1 O 0.22975(14) 1.13450(13) 0.47099(6)
O2 O -0.08870(16) 0.35157(13) 0.30818(6)
N1 N 0.07417(15) 0.38328(14) 0.40351(6)
N2 N 0.18387(15) 0.62283(14) 0.46802(6)
N3 N 0.13820(16) 0.82231(14) 0.44077(6)
N4 N 0.23807(16) 0.43252(15) 0.49878(6)
C1 C 0.16275(17) 0.48210(17) 0.45520(7)
C2 C 0.10679(17) 0.67477(17) 0.42691(7)
C3 C 0.00923(18) 0.57837(17) 0.37319(7)
C4 C 0.00082(18) 0.43664(17) 0.36352(7)
C5 C 0.04346(19) 0.88967(18) 0.41182(8)
C6 C 0.1503(2) 1.05966(18) 0.40854(8)
C7 C 0.3238(2) 1.06862(19) 0.49731(9)
C8 C 0.2220(2) 0.90045(18) 0.50407(8)
C9 C 0.35092(19) 0.53328(18) 0.55250(7)
C10 C 0.41276(19) 0.44741(18) 0.59506(7)
C11 C 0.5386(2) 0.55296(19) 0.64934(8)
C12 C 0.5960(2) 0.4676(2) 0.69455(9)
C13 C -0.11119(19) 0.20310(18) 0.29763(7)
C14 C -0.0204(2) 0.1767(2) 0.25567(8)
C15 C -0.0528(3) 0.0261(3) 0.24149(9)
C16 C -0.1728(3) -0.0926(2) 0.26874(9)
C17 C -0.2599(2) -0.0624(2) 0.30988(10)
C18 C -0.2311(2) 0.0859(2) 0.32445(8)
H1 H 0.235(2) 0.344(2) 0.4886(9)
H2 H -0.005(2) 0.841(2) 0.3671(10)
H3 H -0.044(3) 0.872(3) 0.4402(10)
H4 H 0.087(2) 1.112(2) 0.3940(9)
H5 H 0.234(2) 1.077(2) 0.3791(10)
H6 H 0.376(3) 1.125(3) 0.5422(11)
H7 H 0.409(2) 1.091(2) 0.4687(10)
H8 H 0.287(3) 0.851(3) 0.5194(11)
H9 H 0.139(3) 0.882(3) 0.5347(11)
H10 H 0.441(2) 0.619(2) 0.5370(9)
H11 H 0.298(3) 0.577(2) 0.5781(10)
H12 H 0.323(2) 0.370(2) 0.6123(9)
H13 H 0.460(2) 0.398(2) 0.5678(10)
H14 H 0.494(3) 0.610(3) 0.6739(11)
H15 H 0.633(3) 0.632(3) 0.6314(11)
H16 H 0.688(3) 0.542(3) 0.7277(11)
H17 H 0.511(3) 0.397(3) 0.7198(12)
H18 H 0.636(3) 0.403(3) 0.6700(13)
H19 H 0.065(3) 0.257(3) 0.2351(12)
H20 H 0.011(3) 0.005(3) 0.2110(14)
H21 H -0.197(3) -0.196(3) 0.2559(12)
H22 H -0.341(3) -0.140(3) 0.3297(11)
H23 H -0.291(3) 0.112(2) 0.3552(10)
F2 F 1.04176(11) 0.91263(11) 1.10559(5)
O3 O 1.46256(13) 1.15744(13) 0.94410(5)
O4 O 0.80262(13) 0.65418(13) 1.13128(5)
N5 N 0.78402(15) 0.53262(15) 1.03153(6)
N6 N 0.97314(15) 0.67405(15) 0.95825(6)
N7 N 1.17301(15) 0.92437(15) 0.98220(6)
N8 N 0.77831(16) 0.42706(16) 0.93100(6)
C19 C 0.84790(17) 0.54931(17) 0.97478(7)
C20 C 1.04526(17) 0.79793(17) 1.00116(7)
C21 C 0.98366(18) 0.79139(18) 1.06006(7)
C22 C 0.85514(17) 0.65615(18) 1.07234(7)
C23 C 1.30402(18) 1.03142(18) 1.02997(8)
C24 C 1.40214(19) 1.18062(19) 1.00136(8)
C25 C 1.3318(2) 1.0586(2) 0.89711(8)
C26 C 1.2313(2) 0.9039(2) 0.92156(8)
C27 C 0.83783(18) 0.42670(18) 0.86936(7)
C28 C 0.73506(18) 0.27524(19) 0.82949(7)
C29 C 0.8073(2) 0.2658(2) 0.76837(8)
C30 C 0.6988(2) 0.1246(2) 0.72347(9)
C31 C 0.67177(18) 0.51760(18) 1.14540(7)
C32 C 0.5180(2) 0.4889(2) 1.12470(8)
C33 C 0.39056(19) 0.3582(2) 1.14200(8)
C34 C 0.4181(2) 0.2598(2) 1.17970(8)
C35 C 0.5733(2) 0.2911(2) 1.20031(9)
C36 C 0.7024(2) 0.4215(2) 1.18345(8)
H24 H 0.692(3) 0.348(3) 0.9392(11)
H25 H 1.261(3) 1.055(2) 1.0687(10)
H26 H 1.376(2) 0.981(2) 1.0420(10)
H27 H 1.491(3) 1.246(3) 1.0330(10)
H28 H 1.329(2) 1.226(2) 0.9902(9)
H29 H 1.378(3) 1.049(2) 0.8571(11)
H30 H 1.262(3) 1.107(2) 0.8862(10)
H31 H 1.299(3) 0.847(2) 0.9285(10)
H32 H 1.142(3) 0.849(3) 0.8909(10)
H33 H 0.837(2) 0.513(2) 0.8444(9)
H34 H 0.952(2) 0.446(2) 0.8753(10)
H35 H 0.625(2) 0.265(2) 0.8174(10)
H36 H 0.724(3) 0.188(3) 0.8562(11)
H37 H 0.829(2) 0.360(2) 0.7446(10)
H38 H 0.917(2) 0.275(2) 0.7788(9)
H39 H 0.679(3) 0.030(3) 0.7418(13)
H40 H 0.745(3) 0.123(3) 0.6839(13)
H41 H 0.593(3) 0.122(3) 0.7101(13)
H42 H 0.501(2) 0.556(2) 1.0983(10)
H43 H 0.280(3) 0.335(2) 1.1267(10)
H44 H 0.330(3) 0.168(3) 1.1918(11)
H45 H 0.592(3) 0.220(3) 1.2269(11)
H46 H 0.814(3) 0.449(2) 1.1983(10)
loop_
_geom_bond_atom_site_label_1
_geom_bond_atom_site_label_2
_geom_bond_site_symmetry_1
_geom_bond_site_symmetry_2
F1 C3 1_555 1_555
F2 C21 1_555 1_555
O1 C6 1_555 1_555
O2 C4 1_555 1_555
O3 C24 1_555 1_555
O4 C22 1_555 1_555
N1 C1 1_555 1_555
N2 C1 1_555 1_555
N3 C2 1_555 1_555
N4 C1 1_555 1_555
N5 C19 1_555 1_555
N6 C19 1_555 1_555
N7 C20 1_555 1_555
N8 C19 1_555 1_555
C2 N2 1_555 1_555
C3 C2 1_555 1_555
C4 N1 1_555 1_555
C5 N3 1_555 1_555
C6 C5 1_555 1_555
C7 O1 1_555 1_555
C8 N3 1_555 1_555
C9 N4 1_555 1_555
C10 C9 1_555 1_555
C11 C10 1_555 1_555
C12 C11 1_555 1_555
C13 O2 1_555 1_555
C14 C13 1_555 1_555
C15 C14 1_555 1_555
C16 C15 1_555 1_555
C17 C16 1_555 1_555
C18 C13 1_555 1_555
C20 N6 1_555 1_555
C21 C20 1_555 1_555
C22 N5 1_555 1_555
C23 N7 1_555 1_555
C24 C23 1_555 1_555
C25 O3 1_555 1_555
C26 N7 1_555 1_555
C27 N8 1_555 1_555
C28 C27 1_555 1_555
C29 C28 1_555 1_555
C30 C29 1_555 1_555
C31 O4 1_555 1_555
C32 C31 1_555 1_555
C33 C32 1_555 1_555
C34 C33 1_555 1_555
C35 C34 1_555 1_555
C36 C31 1_555 1_555
H1 N4 1_555 1_555
H2 C5 1_555 1_555
H3 C5 1_555 1_555
H4 C6 1_555 1_555
H5 C6 1_555 1_555
H6 C7 1_555 1_555
H7 C7 1_555 1_555
H8 C8 1_555 1_555
H9 C8 1_555 1_555
H10 C9 1_555 1_555
H11 C9 1_555 1_555
H12 C10 1_555 1_555
H13 C10 1_555 1_555
H14 C11 1_555 1_555
H15 C11 1_555 1_555
H16 C12 1_555 1_555
H17 C12 1_555 1_555
H18 C12 1_555 1_555
H19 C14 1_555 1_555
H20 C15 1_555 1_555
H21 C16 1_555 1_555
H22 C17 1_555 1_555
H23 C18 1_555 1_555
H24 N8 1_555 1_555
H25 C23 1_555 1_555
H26 C23 1_555 1_555
H27 C24 1_555 1_555
H28 C24 1_555 1_555
H29 C25 1_555 1_555
H30 C25 1_555 1_555
H31 C26 1_555 1_555
H32 C26 1_555 1_555
H33 C27 1_555 1_555
H34 C27 1_555 1_555
H35 C28 1_555 1_555
H36 C28 1_555 1_555
H37 C29 1_555 1_555
H38 C29 1_555 1_555
H39 C30 1_555 1_555
H40 C30 1_555 1_555
H41 C30 1_555 1_555
H42 C32 1_555 1_555
H43 C33 1_555 1_555
H44 C34 1_555 1_555
H45 C35 1_555 1_555
H46 C36 1_555 1_555
C3 C4 1_555 1_555
C7 C8 1_555 1_555
C17 C18 1_555 1_555
C21 C22 1_555 1_555
C25 C26 1_555 1_555
C35 C36 1_555 1_555

#END
