
#######################################################################
#
#                 Cambridge Crystallographic Data Centre
#                                CCDC 
#
#######################################################################
#
# If this CIF has been generated from an entry in the Cambridge 
# Structural Database, then it will include bibliographic, chemical, 
# crystal, experimental, refinement or atomic coordinate data resulting 
# from the CCDC's data processing and validation procedures.
#
#######################################################################

data_HUSFEH
_chemical_formula_moiety         'C10 H16 F1 N3 O2'
_chemical_name_systematic        
2,6-Diethoxy-N-ethyl-5-fluoropyrimidin-4-amine
_symmetry_cell_setting           monoclinic
_symmetry_space_group_name_H-M   'P 21/c'
_symmetry_Int_Tables_number      14
_space_group_name_Hall           '-P 2ybc'
loop_
_symmetry_equiv_pos_site_id
_symmetry_equiv_pos_as_xyz
1 x,y,z
2 -x,1/2+y,1/2-z
3 -x,-y,-z
4 x,1/2-y,1/2+z
_cell_length_a                   11.3774(9)
_cell_length_b                   12.0944(9)
_cell_length_c                   8.5144(6)
_cell_angle_alpha                90
_cell_angle_beta                 97.39(3)
_cell_angle_gamma                90
_cell_volume                     1161.87
_exptl_crystal_colour            colorless
_exptl_crystal_description       prism
_chemical_melting_point          58-60deg.C
_cell_formula_units_Z            4
loop_
_atom_site_label
_atom_site_type_symbol
_atom_site_fract_x
_atom_site_fract_y
_atom_site_fract_z
F1 F 0.78880(9) 0.16701(9) 0.11119(12)
N1 N 0.81034(12) -0.01756(12) 0.44739(16)
N2 N 0.66680(12) 0.12435(12) 0.47731(16)
N3 N 0.62050(13) 0.25759(12) 0.28161(16)
O1 O 0.70686(11) -0.00488(10) 0.66173(14)
O2 O 0.90911(11) -0.01406(10) 0.22390(14)
C1 C 0.73026(14) 0.03499(14) 0.52077(19)
C2 C 0.68399(14) 0.16984(13) 0.33685(19)
C3 C 0.76881(15) 0.12144(14) 0.25145(19)
C4 C 0.82913(14) 0.02954(14) 0.30919(19)
C5 C 0.76705(18) -0.10365(16) 0.7219(2)
C6 C 0.7261(2) -0.12464(19) 0.8813(2)
C7 C 0.53497(17) 0.31248(17) 0.3698(2)
C8 C 0.45262(18) 0.38506(19) 0.2622(3)
C9 C 0.95781(17) -0.12115(16) 0.2709(2)
C10 C 1.0327(2) -0.1560(2) 0.1454(3)
H1 H 0.6344(19) 0.2914(18) 0.195(3)
H2 H 0.7437(19) -0.1666(19) 0.645(3)
H3 H 0.856(2) -0.0925(18) 0.734(3)
H4 H 0.638(2) -0.135(2) 0.863(3)
H5 H 0.760(2) -0.194(2) 0.925(3)
H6 H 0.746(3) -0.063(2) 0.956(3)
H7 H 0.488(2) 0.2559(19) 0.418(3)
H8 H 0.577(2) 0.354(2) 0.455(3)
H9 H 0.399(2) 0.4248(19) 0.320(3)
H10 H 0.490(2) 0.439(2) 0.209(3)
H11 H 0.405(3) 0.341(2) 0.179(4)
H12 H 0.888(2) -0.174(2) 0.273(3)
H13 H 1.005(2) -0.116(2) 0.382(3)
H14 H 0.989(3) -0.155(2) 0.042(4)
H15 H 1.101(3) -0.100(3) 0.152(4)
H16 H 1.062(2) -0.229(2) 0.164(3)
loop_
_geom_bond_atom_site_label_1
_geom_bond_atom_site_label_2
_geom_bond_site_symmetry_1
_geom_bond_site_symmetry_2
F1 C3 1_555 1_555
N1 C1 1_555 1_555
N2 C1 1_555 1_555
N3 C2 1_555 1_555
O1 C1 1_555 1_555
O2 C4 1_555 1_555
C2 N2 1_555 1_555
C3 C2 1_555 1_555
C4 N1 1_555 1_555
C5 O1 1_555 1_555
C6 C5 1_555 1_555
C7 N3 1_555 1_555
C8 C7 1_555 1_555
C9 O2 1_555 1_555
C10 C9 1_555 1_555
H1 N3 1_555 1_555
H2 C5 1_555 1_555
H3 C5 1_555 1_555
H4 C6 1_555 1_555
H5 C6 1_555 1_555
H6 C6 1_555 1_555
H7 C7 1_555 1_555
H8 C7 1_555 1_555
H9 C8 1_555 1_555
H10 C8 1_555 1_555
H11 C8 1_555 1_555
H12 C9 1_555 1_555
H13 C9 1_555 1_555
H14 C10 1_555 1_555
H15 C10 1_555 1_555
H16 C10 1_555 1_555
C3 C4 1_555 1_555

#END
