
#######################################################################
#
#                 Cambridge Crystallographic Data Centre
#                                CCDC 
#
#######################################################################
#
# If this CIF has been generated from an entry in the Cambridge 
# Structural Database, then it will include bibliographic, chemical, 
# crystal, experimental, refinement or atomic coordinate data resulting 
# from the CCDC's data processing and validation procedures.
#
#######################################################################

data_HUSFAE
_chemical_formula_moiety         'C23 H22 Cl1 N1 O4'
_chemical_name_systematic        
'methyl 5-benzyl-3-(4-chlorophenyl)-5-methyl-4,6-dioxooctahydrocyclopenta[c]pyrrole-1-carboxylate'
_symmetry_cell_setting           orthorhombic
_symmetry_space_group_name_H-M   'P 21 21 2'
_symmetry_Int_Tables_number      18
_space_group_name_Hall           'P 2 2ab'
loop_
_symmetry_equiv_pos_site_id
_symmetry_equiv_pos_as_xyz
1 x,y,z
2 -x,-y,z
3 1/2-x,1/2+y,-z
4 1/2+x,1/2-y,-z
_cell_length_a                   25.273(3)
_cell_length_b                   6.4369(9)
_cell_length_c                   12.9596(18)
_cell_angle_alpha                90
_cell_angle_beta                 90
_cell_angle_gamma                90
_cell_volume                     2108.26
_exptl_crystal_colour            colorless
_exptl_crystal_description       block
_cell_formula_units_Z            4
loop_
_atom_site_label
_atom_site_type_symbol
_atom_site_fract_x
_atom_site_fract_y
_atom_site_fract_z
C1 C 0.06867(15) 0.1376(7) 1.1871(3)
C2 C 0.07857(17) -0.0398(7) 1.1360(4)
H1 H 0.0842 -0.1619 1.1727
C3 C 0.08053(16) -0.0425(6) 1.0290(3)
H2 H 0.0867 -0.1673 0.9949
C4 C 0.07340(11) 0.1373(5) 0.9722(3)
C5 C 0.06334(14) 0.3132(6) 1.0266(3)
H3 H 0.0579 0.4366 0.9907
C6 C 0.06081(17) 0.3162(7) 1.1346(3)
H4 H 0.0538 0.4393 1.1696
C7 C 0.07719(11) 0.1330(5) 0.8558(2)
H5 H 0.0566 0.0143 0.8306
C8 C 0.13406(10) 0.1196(4) 0.8085(2)
H6 H 0.1415 -0.0229 0.7862
C9 C 0.13256(11) 0.2644(5) 0.7151(2)
H7 H 0.1461 0.1945 0.6533
C10 C 0.07386(11) 0.3212(5) 0.7026(2)
H8 H 0.0557 0.2106 0.6646
C11 C 0.06357(12) 0.5274(6) 0.6505(2)
C12 C 0.06328(18) 0.6922(8) 0.4886(3)
H9 H 0.0272 0.7375 0.4940
H10 H 0.0715 0.6633 0.4178
H11 H 0.0863 0.7994 0.5138
C13 C 0.16683(10) 0.4505(5) 0.7432(2)
C14 C 0.19791(10) 0.4086(4) 0.84126(19)
C15 C 0.17847(10) 0.1986(5) 0.8761(2)
C16 C 0.18395(13) 0.5727(5) 0.9232(2)
H12 H 0.1463 0.5766 0.9326
H13 H 0.1962 0.7065 0.9008
H14 H 0.2007 0.5373 0.9873
C17 C 0.25809(10) 0.4121(5) 0.8213(2)
H15 H 0.2684 0.5524 0.8028
H16 H 0.2762 0.3769 0.8850
C18 C 0.27664(10) 0.2670(5) 0.7381(2)
C19 C 0.29321(12) 0.0674(5) 0.7602(3)
H17 H 0.2928 0.0217 0.8283
C20 C 0.31040(14) -0.0659(6) 0.6837(3)
H18 H 0.3217 -0.1994 0.7002
C21 C 0.31063(15) 0.0012(7) 0.5828(3)
H19 H 0.3218 -0.0876 0.5306
C22 C 0.29439(15) 0.1986(7) 0.5591(2)
H20 H 0.2946 0.2431 0.4908
C23 C 0.27780(12) 0.3314(6) 0.6359(2)
H21 H 0.2673 0.4657 0.6191
Cl1 Cl 0.06577(5) 0.1399(3) 1.32150(9)
N1 N 0.05619(9) 0.3215(4) 0.80826(19)
H22 H 0.0370 0.4147 0.8377
O1 O 0.04916(9) 0.6846(4) 0.69125(18)
O2 O 0.16829(8) 0.6104(4) 0.69460(16)
O3 O 0.19611(8) 0.1038(4) 0.94837(16)
O4 O 0.07051(10) 0.5078(4) 0.54887(17)
loop_
_geom_bond_atom_site_label_1
_geom_bond_atom_site_label_2
_geom_bond_site_symmetry_1
_geom_bond_site_symmetry_2
C1 C2 1_555 1_555
C2 H1 1_555 1_555
C3 C2 1_555 1_555
H2 C3 1_555 1_555
C4 C3 1_555 1_555
C5 C4 1_555 1_555
H3 C5 1_555 1_555
C6 C1 1_555 1_555
H4 C6 1_555 1_555
C7 C4 1_555 1_555
H5 C7 1_555 1_555
C8 C7 1_555 1_555
H6 C8 1_555 1_555
C9 C8 1_555 1_555
H7 C9 1_555 1_555
C10 C9 1_555 1_555
H8 C10 1_555 1_555
C11 C10 1_555 1_555
C12 H9 1_555 1_555
H10 C12 1_555 1_555
H11 C12 1_555 1_555
C13 C9 1_555 1_555
C14 C13 1_555 1_555
C15 C8 1_555 1_555
C16 C14 1_555 1_555
H12 C16 1_555 1_555
H13 C16 1_555 1_555
H14 C16 1_555 1_555
C17 C14 1_555 1_555
H15 C17 1_555 1_555
H16 C17 1_555 1_555
C18 C17 1_555 1_555
C19 C18 1_555 1_555
H17 C19 1_555 1_555
C20 C19 1_555 1_555
H18 C20 1_555 1_555
C21 C20 1_555 1_555
H19 C21 1_555 1_555
C22 C21 1_555 1_555
H20 C22 1_555 1_555
C23 C18 1_555 1_555
H21 C23 1_555 1_555
Cl1 C1 1_555 1_555
N1 C7 1_555 1_555
H22 N1 1_555 1_555
O1 C11 1_555 1_555
O2 C13 1_555 1_555
O3 C15 1_555 1_555
O4 C11 1_555 1_555
C5 C6 1_555 1_555
C10 N1 1_555 1_555
C12 O4 1_555 1_555
C14 C15 1_555 1_555
C22 C23 1_555 1_555

#END
