
#######################################################################
#
#                 Cambridge Crystallographic Data Centre
#                                CCDC 
#
#######################################################################
#
# If this CIF has been generated from an entry in the Cambridge 
# Structural Database, then it will include bibliographic, chemical, 
# crystal, experimental, refinement or atomic coordinate data resulting 
# from the CCDC's data processing and validation procedures.
#
#######################################################################

data_HUSRUK
_chemical_formula_moiety         'C47 H42 N3 P3 S3,C1 H1 Cl3,1.5(H2 O1)'
_chemical_name_systematic        
'2-(((3-((2-cyanobenzyl)(phenyl)phosphorothioyl)-2-(((2-cyanobenzyl)(phenyl)phosphorothioyl)methyl)-2-methylpropyl)(phenyl)phosphorothioyl)methyl)benzonitrile chloroform solvate sesquihydrate'
_symmetry_cell_setting           rhombohedral
_symmetry_space_group_name_H-M   'R 3'
_symmetry_Int_Tables_number      146
_space_group_name_Hall           'R 3'
loop_
_symmetry_equiv_pos_site_id
_symmetry_equiv_pos_as_xyz
1 x,y,z
2 -y,x-y,z
3 -x+y,-x,z
4 2/3+x,1/3+y,1/3+z
5 2/3-y,1/3+x-y,1/3+z
6 2/3-x+y,1/3-x,1/3+z
7 1/3+x,2/3+y,2/3+z
8 1/3-y,2/3+x-y,2/3+z
9 1/3-x+y,2/3-x,2/3+z
_cell_length_a                   15.2550(11)
_cell_length_b                   15.255
_cell_length_c                   36.468(5)
_cell_angle_alpha                90
_cell_angle_beta                 90
_cell_angle_gamma                120
_cell_volume                     7349.66
_exptl_crystal_colour            colorless
_exptl_crystal_description       block
_cell_formula_units_Z            6
loop_
_atom_site_label
_atom_site_type_symbol
_atom_site_fract_x
_atom_site_fract_y
_atom_site_fract_z
P1 P 0.83527(9) 0.04821(9) 0.80548(3)
S1 S 0.91820(10) 0.19640(9) 0.80393(4)
C1 C 1.0000 0.0000 0.76388(19)
H1 H 0.9865 0.0527 0.7549
C2 C 1.0000 0.0000 0.80559(18)
C3 C 0.8970(3) -0.0212(3) 0.82103(13)
H2 H 0.9052 -0.0118 0.8479
H3 H 0.8485 -0.0939 0.8168
C4 C 0.7315(4) 0.0028(4) 0.83940(13)
H4 H 0.7005 -0.0714 0.8423
H5 H 0.7595 0.0346 0.8635
C5 C 0.6532(4) 0.0267(5) 0.82818(15)
C6 C 0.5587(5) -0.0495(5) 0.8167(2)
C7 C 0.4867(5) -0.0243(6) 0.8025(4)
H6 H 0.4254 -0.0746 0.7916
C8 C 0.5078(7) 0.0710(7) 0.8049(4)
H7 H 0.4598 0.0878 0.7955
C9 C 0.5946(6) 0.1461(7) 0.8200(5)
H8 H 0.6031 0.2116 0.8237
C10 C 0.6699(5) 0.1260(5) 0.8299(3)
H9 H 0.7336 0.1796 0.8379
C11 C 0.5341(4) -0.1517(5) 0.81511(15)
C12 C 0.7687(4) -0.0070(4) 0.76314(13)
C13 C 0.7526(6) 0.0544(5) 0.73878(18)
H10 H 0.7824 0.1244 0.7444
C14 C 0.6950(9) 0.0187(8) 0.7066(3)
H11 H 0.6878 0.0620 0.6896
C15 C 0.6479(6) -0.0886(7) 0.7014(2)
H12 H 0.6040 -0.1179 0.6810
C16 C 0.6620(5) -0.1487(5) 0.72335(16)
H13 H 0.6319 -0.2188 0.7179
C17 C 0.7217(4) -0.1091(4) 0.75504(15)
H14 H 0.7299 -0.1534 0.7712
N1 N 0.5142(4) -0.2359(4) 0.81424(16)
H1A H 0.9473 -0.0662 0.7549
H1B H 1.0662 0.0135 0.7549
P1A P 0.95179(9) -0.21294(13) 0.80548(3)
S1A S 0.80360(9) -0.27820(13) 0.80393(4)
C3A C 1.0212(3) -0.0818(4) 0.82103(13)
H2A H 1.0118 -0.0830 0.8479
H3A H 1.0939 -0.0576 0.8168
C4A C 0.9972(4) -0.2713(6) 0.83940(13)
H4A H 1.0714 -0.2281 0.8423
H5A H 0.9654 -0.2751 0.8635
C5A C 0.9733(5) -0.3735(6) 0.82818(15)
C6A C 1.0495(5) -0.3918(7) 0.8167(2)
C7A C 1.0243(6) -0.4890(8) 0.8025(4)
H6A H 1.0746 -0.5000 0.7916
C8A C 0.9290(7) -0.5632(10) 0.8049(4)
H7A H 0.9122 -0.6280 0.7955
C9A C 0.8539(7) -0.5515(9) 0.8200(5)
H8A H 0.7884 -0.6085 0.8237
C10A C 0.8740(5) -0.4561(7) 0.8299(3)
H9A H 0.8204 -0.4460 0.8379
C11A C 1.1517(5) -0.3142(6) 0.81511(15)
C12A C 1.0070(4) -0.2243(6) 0.76314(13)
C13A C 0.9456(5) -0.3018(8) 0.73878(18)
H10A H 0.8756 -0.3420 0.7444
C14A C 0.9813(8) -0.3237(12) 0.7066(3)
H11A H 0.9380 -0.3742 0.6896
C15A C 1.0886(7) -0.2635(9) 0.7014(2)
H12A H 1.1179 -0.2781 0.6810
C16A C 1.1487(5) -0.1893(7) 0.72335(16)
H13A H 1.2188 -0.1493 0.7179
C17A C 1.1091(4) -0.1692(6) 0.75504(15)
H14A H 1.1534 -0.1167 0.7712
N1A N 1.2359(4) -0.2499(6) 0.81424(16)
P1B P 1.21294(13) 0.16473(9) 0.80548(3)
S1B S 1.27820(13) 0.08180(10) 0.80393(4)
C3B C 1.0818(4) 0.1030(3) 0.82103(13)
H2B H 1.0830 0.0948 0.8479
H3B H 1.0576 0.1515 0.8168
C4B C 1.2713(6) 0.2685(4) 0.83940(13)
H4B H 1.2281 0.2995 0.8423
H5B H 1.2751 0.2405 0.8635
C5B C 1.3735(6) 0.3468(4) 0.82818(15)
C6B C 1.3918(7) 0.4413(5) 0.8167(2)
C7B C 1.4890(8) 0.5133(5) 0.8025(4)
H6B H 1.5000 0.5746 0.7916
C8B C 1.5632(10) 0.4922(7) 0.8049(4)
H7B H 1.6280 0.5402 0.7955
C9B C 1.5515(9) 0.4054(6) 0.8200(5)
H8B H 1.6085 0.3969 0.8237
C10B C 1.4561(7) 0.3301(5) 0.8299(3)
H9B H 1.4460 0.2664 0.8379
C11B C 1.3142(6) 0.4659(4) 0.81511(15)
C12B C 1.2243(6) 0.2313(4) 0.76314(13)
C13B C 1.3018(8) 0.2474(6) 0.73878(18)
H10B H 1.3420 0.2176 0.7444
C14B C 1.3237(12) 0.3050(9) 0.7066(3)
H11B H 1.3742 0.3122 0.6896
C15B C 1.2635(9) 0.3521(6) 0.7014(2)
H12B H 1.2781 0.3960 0.6810
C16B C 1.1893(7) 0.3380(5) 0.72335(16)
H13B H 1.1493 0.3681 0.7179
C17B C 1.1692(6) 0.2783(4) 0.75504(15)
H14B H 1.1167 0.2701 0.7712
N1B N 1.2499(6) 0.4858(4) 0.81424(16)
Cl1 Cl 0.87675(16) 0.95679(19) 0.67083(5)
C18 C 1.0000 1.0000 0.6557(4)
H17 H 1.0000 1.0000 0.6283
Cl1A Cl 1.04321(19) 0.91996(25) 0.67083(5)
Cl1B Cl 1.08004(25) 1.12325(16) 0.67083(5)
Cl2 Cl 0.3845(3) 0.7893(3) 0.72416(17)
C19 C 0.3333 0.6667 0.7384(4)
H18 H 0.3333 0.6667 0.7659
Cl2A Cl 0.2107(3) 0.5952(4) 0.72416(17)
Cl2B Cl 0.4048(4) 0.6155(3) 0.72416(17)
O1 O 0.3780(5) 0.5975(5) 1.05447(16)
P2 P 0.55123(13) 0.73726(16) 0.92104(5)
S2 S 0.60347(15) 0.88320(17) 0.92086(6)
C20 C 0.3333 0.6667 0.96088(19)
H19 H 0.2732 0.6675 0.9698
C21 C 0.3333 0.6667 0.9192(2)
C22 C 0.4245(6) 0.6572(8) 0.9038(3)
H20 H 0.4267 0.6682 0.8770
H21 H 0.4078 0.5862 0.9075
C23 C 0.6166(7) 0.6905(8) 0.8907(3)
H22 H 0.5699 0.6176 0.8862
H23 H 0.6288 0.7257 0.8669
C24 C 0.5602(5) 0.6816(10) 0.96474(16)
C25 C 0.5392(8) 0.5904(7) 0.9738(3)
H24 H 0.5083 0.5405 0.9552
C26 C 0.5533(8) 0.5618(8) 1.0017(3)
H25 H 0.5260 0.4912 1.0054
C27 C 0.6024(8) 0.6206(8) 1.0262(3)
H26 H 0.6216 0.5929 1.0459
C28 C 0.6332(6) 0.7211(9) 1.0289(2)
H27 H 0.6631 0.7595 1.0505
C29 C 0.6154(6) 0.7674(7) 0.9941(4)
H28 H 0.6347 0.8365 0.9909
C30 C 0.7162(6) 0.7031(7) 0.9041(3)
C31 C 0.7916(7) 0.8041(6) 0.9063(3)
H29 H 0.7776 0.8559 0.8994
C32 C 0.8876(6) 0.8294(6) 0.9187(3)
H30 H 0.9392 0.8985 0.9202
C33 C 0.9082(6) 0.7537(8) 0.9289(3)
H31 H 0.9738 0.7710 0.9373
C34 C 0.8327(7) 0.6527(7) 0.9267(3)
H32 H 0.8468 0.6009 0.9336
C35 C 0.7367(6) 0.6274(6) 0.9143(3)
C36 C 0.6750(11) 0.5386(11) 0.9150(4)
N2 N 0.6236(11) 0.4616(11) 0.9149(4)
H19B H 0.3943 0.7268 0.9698
H19A H 0.3325 0.6057 0.9698
P2A P 0.26274(16) 0.81397(21) 0.92104(5)
S2A S 0.11680(17) 0.72027(23) 0.92086(6)
C22A C 0.3428(8) 0.7673(10) 0.9038(3)
H20A H 0.3318 0.7585 0.8770
H21A H 0.4138 0.8216 0.9075
C23A C 0.3095(8) 0.9261(11) 0.8907(3)
H22A H 0.3824 0.9523 0.8862
H23A H 0.2743 0.9031 0.8669
C24A C 0.3184(10) 0.8786(11) 0.96474(16)
C25A C 0.4096(7) 0.9488(11) 0.9738(3)
H24A H 0.4595 0.9678 0.9552
C26A C 0.4382(8) 0.9915(11) 1.0017(3)
H25A H 0.5088 1.0348 1.0054
C27A C 0.3794(8) 0.9818(11) 1.0262(3)
H26A H 0.4071 1.0287 1.0459
C28A C 0.2789(9) 0.9121(11) 1.0289(2)
H27A H 0.2405 0.9036 1.0505
C29A C 0.2326(7) 0.8480(9) 0.9941(4)
H28A H 0.1635 0.7982 0.9909
C30A C 0.2969(7) 1.0131(9) 0.9041(3)
C31A C 0.1959(6) 0.9875(9) 0.9063(3)
H29A H 0.1441 0.9217 0.8994
C32A C 0.1706(6) 1.0582(8) 0.9187(3)
H30A H 0.1015 1.0407 0.9202
C33A C 0.2463(8) 1.1545(10) 0.9289(3)
H31A H 0.2290 1.2028 0.9373
C34A C 0.3473(7) 1.1800(10) 0.9267(3)
H32A H 0.3991 1.2459 0.9336
C35A C 0.3726(6) 1.1093(8) 0.9143(3)
C36A C 0.4614(11) 1.1364(16) 0.9150(4)
N2A N 0.5384(11) 1.1620(16) 0.9149(4)
P2B P 0.18603(21) 0.44877(13) 0.92104(5)
S2B S 0.27973(23) 0.39653(15) 0.92086(6)
C22B C 0.2327(10) 0.5755(6) 0.9038(3)
H20B H 0.2415 0.5733 0.8770
H21B H 0.1784 0.5922 0.9075
C23B C 0.0739(11) 0.3834(7) 0.8907(3)
H22B H 0.0477 0.4301 0.8862
H23B H 0.0969 0.3712 0.8669
C24B C 0.1214(11) 0.4398(5) 0.96474(16)
C25B C 0.0512(11) 0.4608(8) 0.9738(3)
H24B H 0.0322 0.4917 0.9552
C26B C 0.0085(11) 0.4467(8) 1.0017(3)
H25B H -0.0348 0.4740 1.0054
C27B C 0.0182(11) 0.3976(8) 1.0262(3)
H26B H -0.0287 0.3784 1.0459
C28B C 0.0879(11) 0.3668(6) 1.0289(2)
H27B H 0.0964 0.3369 1.0505
C29B C 0.1520(9) 0.3846(6) 0.9941(4)
H28B H 0.2018 0.3653 0.9909
C30B C -0.0131(9) 0.2838(6) 0.9041(3)
C31B C 0.0125(9) 0.2084(7) 0.9063(3)
H29B H 0.0783 0.2224 0.8994
C32B C -0.0582(8) 0.1124(6) 0.9187(3)
H30B H -0.0407 0.0608 0.9202
C33B C -0.1545(10) 0.0918(6) 0.9289(3)
H31B H -0.2028 0.0262 0.9373
C34B C -0.1800(10) 0.1673(7) 0.9267(3)
H32B H -0.2459 0.1532 0.9336
C35B C -0.1093(8) 0.2633(6) 0.9143(3)
C36B C -0.1364(16) 0.3250(11) 0.9150(4)
N2B N -0.1620(16) 0.3764(11) 0.9149(4)
H15? H 0.9865 0.0527 0.7549
H16? H 0.9865 0.0527 0.7549
P3? P 0.4860(3) 0.6024(3) 0.91872(9)
S3? S 0.3938(4) 0.4528(3) 0.91980(11)
C37? C 0.4321(10) 0.6797(13) 0.9002(4)
H33? H 0.4851 0.7519 0.9018
H34? H 0.4172 0.6633 0.8739
C38? C 0.5935(9) 0.6427(11) 0.8877(4)
H35? H 0.5682 0.6171 0.8627
H36? H 0.6321 0.7176 0.8866
C39? C 0.6650(7) 0.6036(8) 0.9002(3)
C40? C 0.6376(8) 0.5027(7) 0.8953(4)
H37? H 0.5727 0.4560 0.8858
C41? C 0.7053(10) 0.4702(7) 0.9043(4)
H38? H 0.6866 0.4012 0.9009
C42? C 0.8003(9) 0.5385(9) 0.9181(4)
H39? H 0.8465 0.5162 0.9243
C43? C 0.8276(6) 0.6394(8) 0.9230(4)
H40? H 0.8925 0.6860 0.9325
C44? C 0.7600(6) 0.6719(6) 0.9141(2)
C45? C 0.7963(18) 0.7588(18) 0.9146(7)
N3? N 0.8082(10) 0.8533(10) 0.9119(4)
H41? H 0.2732 0.6675 0.9698
H42? H 0.2732 0.6675 0.9698
loop_
_geom_bond_atom_site_label_1
_geom_bond_atom_site_label_2
_geom_bond_site_symmetry_1
_geom_bond_site_symmetry_2
P1 S1 1_555 1_555
C1 H1 1_555 1_555
C2 C1 1_555 1_555
C3 P1 1_555 1_555
H2 C3 1_555 1_555
H3 C3 1_555 1_555
C4 P1 1_555 1_555
H4 C4 1_555 1_555
H5 C4 1_555 1_555
C5 C4 1_555 1_555
C6 C5 1_555 1_555
C7 C6 1_555 1_555
H6 C7 1_555 1_555
C8 C7 1_555 1_555
H7 C8 1_555 1_555
C9 C8 1_555 1_555
H8 C9 1_555 1_555
C10 C5 1_555 1_555
H9 C10 1_555 1_555
C11 C6 1_555 1_555
C12 P1 1_555 1_555
C13 C12 1_555 1_555
H10 C13 1_555 1_555
C14 C13 1_555 1_555
H11 C14 1_555 1_555
C15 C14 1_555 1_555
H12 C15 1_555 1_555
C16 C15 1_555 1_555
H13 C16 1_555 1_555
C17 C12 1_555 1_555
H14 C17 1_555 1_555
N1 C11 1_555 1_555
Cl1 C18 1_555 1_555
C18 H17 1_555 1_555
Cl2 C19 1_555 1_555
C19 H18 1_555 1_555
P2 S2 1_555 1_555
C20 H19 1_555 1_555
C21 C20 1_555 1_555
C22 P2 1_555 1_555
H20 C22 1_555 1_555
H21 C22 1_555 1_555
C23 P2 1_555 1_555
H22 C23 1_555 1_555
H23 C23 1_555 1_555
C24 P2 1_555 1_555
C25 C24 1_555 1_555
H24 C25 1_555 1_555
C26 C25 1_555 1_555
H25 C26 1_555 1_555
C27 C26 1_555 1_555
H26 C27 1_555 1_555
C28 C27 1_555 1_555
H27 C28 1_555 1_555
C29 C24 1_555 1_555
H28 C29 1_555 1_555
C30 C23 1_555 1_555
C31 C30 1_555 1_555
H29 C31 1_555 1_555
C32 C31 1_555 1_555
H30 C32 1_555 1_555
C33 C32 1_555 1_555
H31 C33 1_555 1_555
C34 C33 1_555 1_555
H32 C34 1_555 1_555
C35 C30 1_555 1_555
C36 C35 1_555 1_555
N2 C36 1_555 1_555
H1A C1 1_555 1_555
H1B C1 1_555 1_555
P1A S1A 1_555 1_555
C3A C2 1_555 1_555
H2A C3A 1_555 1_555
H3A C3A 1_555 1_555
C4A P1A 1_555 1_555
H4A C4A 1_555 1_555
H5A C4A 1_555 1_555
C5A C4A 1_555 1_555
C6A C5A 1_555 1_555
C7A C6A 1_555 1_555
H6A C7A 1_555 1_555
C8A C7A 1_555 1_555
H7A C8A 1_555 1_555
C9A C8A 1_555 1_555
H8A C9A 1_555 1_555
C10A C5A 1_555 1_555
H9A C10A 1_555 1_555
C11A C6A 1_555 1_555
C12A P1A 1_555 1_555
C13A C12A 1_555 1_555
H10A C13A 1_555 1_555
C14A C13A 1_555 1_555
H11A C14A 1_555 1_555
C15A C14A 1_555 1_555
H12A C15A 1_555 1_555
C16A C15A 1_555 1_555
H13A C16A 1_555 1_555
C17A C12A 1_555 1_555
H14A C17A 1_555 1_555
N1A C11A 1_555 1_555
P1B S1B 1_555 1_555
C3B C2 1_555 1_555
H2B C3B 1_555 1_555
H3B C3B 1_555 1_555
C4B P1B 1_555 1_555
H4B C4B 1_555 1_555
H5B C4B 1_555 1_555
C5B C4B 1_555 1_555
C6B C5B 1_555 1_555
C7B C6B 1_555 1_555
H6B C7B 1_555 1_555
C8B C7B 1_555 1_555
H7B C8B 1_555 1_555
C9B C8B 1_555 1_555
H8B C9B 1_555 1_555
C10B C5B 1_555 1_555
H9B C10B 1_555 1_555
C11B C6B 1_555 1_555
C12B P1B 1_555 1_555
C13B C12B 1_555 1_555
H10B C13B 1_555 1_555
C14B C13B 1_555 1_555
H11B C14B 1_555 1_555
C15B C14B 1_555 1_555
H12B C15B 1_555 1_555
C16B C15B 1_555 1_555
H13B C16B 1_555 1_555
C17B C12B 1_555 1_555
H14B C17B 1_555 1_555
N1B C11B 1_555 1_555
Cl1A C18 1_555 1_555
Cl1B C18 1_555 1_555
Cl2A C19 1_555 1_555
Cl2B C19 1_555 1_555
H19B C20 1_555 1_555
H19A C20 1_555 1_555
P2A S2A 1_555 1_555
C22A C21 1_555 1_555
H20A C22A 1_555 1_555
H21A C22A 1_555 1_555
C23A P2A 1_555 1_555
H22A C23A 1_555 1_555
H23A C23A 1_555 1_555
C24A P2A 1_555 1_555
C25A C24A 1_555 1_555
H24A C25A 1_555 1_555
C26A C25A 1_555 1_555
H25A C26A 1_555 1_555
C27A C26A 1_555 1_555
H26A C27A 1_555 1_555
C28A C27A 1_555 1_555
H27A C28A 1_555 1_555
C29A C24A 1_555 1_555
H28A C29A 1_555 1_555
C30A C23A 1_555 1_555
C31A C30A 1_555 1_555
H29A C31A 1_555 1_555
C32A C31A 1_555 1_555
H30A C32A 1_555 1_555
C33A C32A 1_555 1_555
H31A C33A 1_555 1_555
C34A C33A 1_555 1_555
H32A C34A 1_555 1_555
C35A C30A 1_555 1_555
C36A C35A 1_555 1_555
N2A C36A 1_555 1_555
P2B S2B 1_555 1_555
C22B C21 1_555 1_555
H20B C22B 1_555 1_555
H21B C22B 1_555 1_555
C23B P2B 1_555 1_555
H22B C23B 1_555 1_555
H23B C23B 1_555 1_555
C24B P2B 1_555 1_555
C25B C24B 1_555 1_555
H24B C25B 1_555 1_555
C26B C25B 1_555 1_555
H25B C26B 1_555 1_555
C27B C26B 1_555 1_555
H26B C27B 1_555 1_555
C28B C27B 1_555 1_555
H27B C28B 1_555 1_555
C29B C24B 1_555 1_555
H28B C29B 1_555 1_555
C30B C23B 1_555 1_555
C31B C30B 1_555 1_555
H29B C31B 1_555 1_555
C32B C31B 1_555 1_555
H30B C32B 1_555 1_555
C33B C32B 1_555 1_555
H31B C33B 1_555 1_555
C34B C33B 1_555 1_555
H32B C34B 1_555 1_555
C35B C30B 1_555 1_555
C36B C35B 1_555 1_555
N2B C36B 1_555 1_555
C2 C3 1_555 1_555
C9 C10 1_555 1_555
C16 C17 1_555 1_555
C21 C22 1_555 1_555
C28 C29 1_555 1_555
C34 C35 1_555 1_555
P1A C3A 1_555 1_555
C9A C10A 1_555 1_555
C16A C17A 1_555 1_555
P1B C3B 1_555 1_555
C9B C10B 1_555 1_555
C16B C17B 1_555 1_555
P2A C22A 1_555 1_555
C28A C29A 1_555 1_555
C34A C35A 1_555 1_555
P2B C22B 1_555 1_555
C28B C29B 1_555 1_555
C34B C35B 1_555 1_555

#END
