
#######################################################################
#
#                 Cambridge Crystallographic Data Centre
#                                CCDC 
#
#######################################################################
#
# If this CIF has been generated from an entry in the Cambridge 
# Structural Database, then it will include bibliographic, chemical, 
# crystal, experimental, refinement or atomic coordinate data resulting 
# from the CCDC's data processing and validation procedures.
#
#######################################################################

data_HUTHEL
_chemical_formula_moiety         'C22 H14 Cl2 F5 N1 O3'
_chemical_name_systematic        
'Methyl 2-(2,3-dichlorophenyl)-4-(pentafluoroethyl)-2H,11bH-[1,3]oxazino[2,3-a]isoquinoline-3-carboxylate'
_symmetry_cell_setting           tetragonal
_symmetry_space_group_name_H-M   'I 41/a'
_symmetry_Int_Tables_number      88
_space_group_name_Hall           '-I 4ad'
loop_
_symmetry_equiv_pos_site_id
_symmetry_equiv_pos_as_xyz
1 x,y,z
2 1/2-x,-y,1/2+z
3 3/4-y,1/4+x,1/4+z
4 3/4+y,3/4-x,3/4+z
5 1/2+x,1/2+y,1/2+z
6 -x,1/2-y,z
7 1/4-y,3/4+x,3/4+z
8 1/4+y,1/4-x,1/4+z
9 -x,-y,-z
10 1/2+x,y,1/2-z
11 1/4+y,3/4-x,3/4-z
12 1/4-y,1/4+x,1/4-z
13 1/2-x,1/2-y,1/2-z
14 x,1/2+y,-z
15 3/4+y,1/4-x,1/4-z
16 3/4-y,3/4+x,3/4-z
_cell_length_a                   34.20(3)
_cell_length_b                   34.20(3)
_cell_length_c                   7.543(6)
_cell_angle_alpha                90
_cell_angle_beta                 90
_cell_angle_gamma                90
_cell_volume                     8822.59
_cell_formula_units_Z            16
loop_
_atom_site_label
_atom_site_type_symbol
_atom_site_fract_x
_atom_site_fract_y
_atom_site_fract_z
C1 C 0.07233(7) 0.47063(7) 0.6457(3)
H1 H 0.0576 0.4576 0.5513
C2 C 0.04831(8) 0.50412(7) 0.7155(3)
C3 C 0.00837(9) 0.49976(9) 0.7345(4)
H2 H -0.0036 0.4767 0.6981
C4 C -0.01396(10) 0.52947(12) 0.8074(4)
H3 H -0.0408 0.5262 0.8215
C5 C 0.00374(13) 0.56404(11) 0.8592(4)
H4 H -0.0112 0.5841 0.9072
C6 C 0.04341(12) 0.56867(9) 0.8396(4)
H5 H 0.0550 0.5920 0.8741
C7 C 0.06655(9) 0.53884(8) 0.7688(3)
C8 C 0.10817(10) 0.54187(9) 0.7461(4)
H6 H 0.1213 0.5631 0.7950
C9 C 0.12854(9) 0.51505(8) 0.6567(4)
H7 H 0.1555 0.5177 0.6478
C10 C 0.13150(7) 0.45022(8) 0.5104(3)
C11 C 0.12181(7) 0.41367(7) 0.5637(3)
C12 C 0.09460(7) 0.40731(7) 0.7211(3)
H8 H 0.1104 0.3959 0.8165
C13 C 0.06137(7) 0.37861(7) 0.6833(3)
C14 C 0.04591(7) 0.35558(7) 0.8208(3)
C15 C 0.01258(8) 0.33320(8) 0.7933(4)
C16 C -0.00484(9) 0.33213(9) 0.6265(4)
H9 H -0.0271 0.3170 0.6082
C17 C 0.01062(9) 0.35332(9) 0.4889(4)
H10 H -0.0008 0.3522 0.3771
C18 C 0.04345(8) 0.37651(8) 0.5173(3)
H11 H 0.0537 0.3909 0.4236
C19 C 0.13736(8) 0.37644(8) 0.4868(3)
C20 C 0.17143(11) 0.31846(9) 0.5614(4)
H12 H 0.1515 0.3031 0.5047
H13 H 0.1807 0.3050 0.6649
H14 H 0.1928 0.3224 0.4807
C21 C 0.16106(8) 0.45817(9) 0.3643(4)
C22 C 0.14299(11) 0.46596(11) 0.1809(4)
Cl1 Cl 0.06895(2) 0.35455(2) 1.02660(8)
Cl2 Cl -0.00792(3) 0.30629(3) 0.96536(13)
F1 F 0.18609(5) 0.42777(6) 0.3459(2)
F2 F 0.18396(6) 0.48982(6) 0.4017(3)
F3 F 0.12331(6) 0.49913(6) 0.1804(3)
F4 F 0.11923(8) 0.43791(7) 0.1367(2)
F5 F 0.17087(7) 0.46906(8) 0.0581(3)
N1 N 0.11013(6) 0.48258(6) 0.5748(3)
O1 O 0.07851(5) 0.44307(5) 0.7879(2)
O2 O 0.13300(6) 0.36510(6) 0.3370(2)
O3 O 0.15521(6) 0.35617(6) 0.6130(2)
loop_
_geom_bond_atom_site_label_1
_geom_bond_atom_site_label_2
_geom_bond_site_symmetry_1
_geom_bond_site_symmetry_2
C1 H1 1_555 1_555
C2 C1 1_555 1_555
C3 C2 1_555 1_555
H2 C3 1_555 1_555
C4 C3 1_555 1_555
H3 C4 1_555 1_555
C5 C4 1_555 1_555
H4 C5 1_555 1_555
C6 C5 1_555 1_555
H5 C6 1_555 1_555
C7 C2 1_555 1_555
C8 C7 1_555 1_555
H6 C8 1_555 1_555
C9 C8 1_555 1_555
H7 C9 1_555 1_555
C10 C11 1_555 1_555
C11 C12 1_555 1_555
C12 H8 1_555 1_555
C13 C12 1_555 1_555
C14 C13 1_555 1_555
C15 C14 1_555 1_555
C16 C15 1_555 1_555
H9 C16 1_555 1_555
C17 C16 1_555 1_555
H10 C17 1_555 1_555
C18 C13 1_555 1_555
H11 C18 1_555 1_555
C19 C11 1_555 1_555
C20 H12 1_555 1_555
H13 C20 1_555 1_555
H14 C20 1_555 1_555
C21 C10 1_555 1_555
C22 C21 1_555 1_555
Cl1 C14 1_555 1_555
Cl2 C15 1_555 1_555
F1 C21 1_555 1_555
F2 C21 1_555 1_555
F3 C22 1_555 1_555
F4 C22 1_555 1_555
F5 C22 1_555 1_555
N1 C1 1_555 1_555
O1 C1 1_555 1_555
O2 C19 1_555 1_555
O3 C19 1_555 1_555
C6 C7 1_555 1_555
C9 N1 1_555 1_555
C10 N1 1_555 1_555
C12 O1 1_555 1_555
C17 C18 1_555 1_555
C20 O3 1_555 1_555

#END
