
#######################################################################
#
#                 Cambridge Crystallographic Data Centre
#                                CCDC 
#
#######################################################################
#
# If this CIF has been generated from an entry in the Cambridge 
# Structural Database, then it will include bibliographic, chemical, 
# crystal, experimental, refinement or atomic coordinate data resulting 
# from the CCDC's data processing and validation procedures.
#
#######################################################################

data_HUTNIU
_chemical_formula_moiety         'C18 H19 N1 O4 S1'
_chemical_name_systematic        
4-Methoxy-4-phenyl-1-(phenylsulfonyl)piperidin-3-one
_symmetry_cell_setting           monoclinic
_symmetry_space_group_name_H-M   'P 21'
_symmetry_Int_Tables_number      4
_space_group_name_Hall           'P 2yb'
loop_
_symmetry_equiv_pos_site_id
_symmetry_equiv_pos_as_xyz
1 x,y,z
2 -x,1/2+y,-z
_cell_length_a                   6.3808(5)
_cell_length_b                   17.1382(13)
_cell_length_c                   7.7629(6)
_cell_angle_alpha                90
_cell_angle_beta                 93.7720(10)
_cell_angle_gamma                90
_cell_volume                     847.076
_exptl_crystal_colour            colorless
_cell_formula_units_Z            2
loop_
_atom_site_label
_atom_site_type_symbol
_atom_site_fract_x
_atom_site_fract_y
_atom_site_fract_z
C1 C 0.9862(4) 0.35470(14) 0.9771(3)
C2 C 1.0975(6) 0.4058(2) 0.8800(4)
H1 H 1.2184 0.3902 0.8290
C3 C 1.0193(10) 0.4837(2) 0.8613(5)
H2 H 1.0911 0.5201 0.7986
C4 C 0.8401(10) 0.5048(2) 0.9349(6)
H3 H 0.7902 0.5555 0.9201
C5 C 0.7324(7) 0.4539(2) 1.0292(6)
H4 H 0.6106 0.4699 1.0786
C6 C 0.8041(5) 0.37813(17) 1.0518(4)
H5 H 0.7308 0.3430 1.1166
C7 C 0.9875(4) 0.20556(15) 0.6861(3)
H6 H 1.1383 0.2098 0.6791
H7 H 0.9228 0.2512 0.6313
C8 C 0.9083(4) 0.13263(13) 0.5921(3)
C9 C 0.6848(3) 0.10472(12) 0.6267(3)
C10 C 0.6397(3) 0.11731(13) 0.8162(3)
H8 H 0.4899 0.1120 0.8276
H9 H 0.7099 0.0768 0.8856
C11 C 0.7104(3) 0.19615(14) 0.8860(3)
H10 H 0.6360 0.2375 0.8222
H11 H 0.6813 0.2006 1.0067
C12 C 0.6440(4) 0.02037(13) 0.5764(3)
C13 C 0.7954(5) -0.03735(16) 0.6147(3)
H12 H 0.9269 -0.0232 0.6636
C14 C 0.7523(6) -0.11463(16) 0.5809(4)
H13 H 0.8537 -0.1523 0.6092
C15 C 0.5584(6) -0.13687(18) 0.5047(4)
H14 H 0.5304 -0.1891 0.4798
C16 C 0.4096(6) -0.08138(19) 0.4671(5)
H15 H 0.2799 -0.0962 0.4158
C17 C 0.4480(4) -0.00259(16) 0.5040(4)
H16 H 0.3432 0.0343 0.4803
C18 C 0.5567(5) 0.16305(18) 0.3524(3)
H17 H 0.6748 0.1949 0.3273
H18 H 0.4302 0.1860 0.3012
H19 H 0.5739 0.1117 0.3058
N1 N 0.9377(3) 0.20272(11) 0.8668(3)
O1 O 1.2857(3) 0.25296(17) 0.9651(3)
O2 O 1.0153(3) 0.23340(12) 1.1738(2)
O3 O 1.0034(4) 0.10404(15) 0.4814(3)
O4 O 0.5437(3) 0.15794(9) 0.5352(2)
S1 S 1.07188(8) 0.25760(3) 1.00777(8)
loop_
_geom_bond_atom_site_label_1
_geom_bond_atom_site_label_2
_geom_bond_site_symmetry_1
_geom_bond_site_symmetry_2
C1 C2 1_555 1_555
C2 H1 1_555 1_555
C3 C2 1_555 1_555
H2 C3 1_555 1_555
C4 C3 1_555 1_555
H3 C4 1_555 1_555
C5 C4 1_555 1_555
H4 C5 1_555 1_555
C6 C1 1_555 1_555
H5 C6 1_555 1_555
C7 H6 1_555 1_555
H7 C7 1_555 1_555
C8 C7 1_555 1_555
C9 C8 1_555 1_555
C10 C9 1_555 1_555
H8 C10 1_555 1_555
H9 C10 1_555 1_555
C11 C10 1_555 1_555
H10 C11 1_555 1_555
H11 C11 1_555 1_555
C12 C9 1_555 1_555
C13 C12 1_555 1_555
H12 C13 1_555 1_555
C14 C13 1_555 1_555
H13 C14 1_555 1_555
C15 C14 1_555 1_555
H14 C15 1_555 1_555
C16 C15 1_555 1_555
H15 C16 1_555 1_555
C17 C12 1_555 1_555
H16 C17 1_555 1_555
C18 H17 1_555 1_555
H18 C18 1_555 1_555
H19 C18 1_555 1_555
N1 C7 1_555 1_555
O1 S1 1_555 1_555
O2 S1 1_555 1_555
O3 C8 1_555 1_555
O4 C9 1_555 1_555
S1 C1 1_555 1_555
C5 C6 1_555 1_555
C11 N1 1_555 1_555
C16 C17 1_555 1_555
C18 O4 1_555 1_555
N1 S1 1_555 1_555

#END
