
#######################################################################
#
#                 Cambridge Crystallographic Data Centre
#                                CCDC 
#
#######################################################################
#
# If this CIF has been generated from an entry in the Cambridge 
# Structural Database, then it will include bibliographic, chemical, 
# crystal, experimental, refinement or atomic coordinate data resulting 
# from the CCDC's data processing and validation procedures.
#
#######################################################################

data_HUTPUJ
_chemical_formula_moiety         'C28 H41 N1 O4'
_chemical_name_systematic        
'2-(1,3-Dioxo-1,3-dihydro-2H-isoindol-2-yl)-3-(1-ethylcyclopentadecyl)propanoic acid'
_symmetry_cell_setting           monoclinic
_symmetry_space_group_name_H-M   'P 21'
_symmetry_Int_Tables_number      4
_space_group_name_Hall           'P 2yb'
loop_
_symmetry_equiv_pos_site_id
_symmetry_equiv_pos_as_xyz
1 x,y,z
2 -x,1/2+y,-z
_cell_length_a                   9.0030(2)
_cell_length_b                   18.5347(4)
_cell_length_c                   23.1374(6)
_cell_angle_alpha                90
_cell_angle_beta                 101.093(3)
_cell_angle_gamma                90
_cell_volume                     3788.75
_exptl_crystal_colour            colorless
_exptl_crystal_description       'lamellar crystal'
_chemical_melting_point          '399 K'
_cell_formula_units_Z            6
_exptl_crystal_recrystallization_method dichloromethane/hexane
loop_
_atom_site_label
_atom_site_type_symbol
_atom_site_fract_x
_atom_site_fract_y
_atom_site_fract_z
O1 O -0.0162(3) -0.21466(14) -0.42374(10)
O2 O -0.0602(3) -0.06276(14) -0.47384(11)
H1 H -0.0305 -0.0579 -0.5059
O3 O 0.1861(3) -0.04829(16) -0.43468(11)
N1 N -0.1210(3) -0.12231(15) -0.37849(12)
O4 O -0.2923(3) -0.04671(15) -0.34508(11)
C1 C -0.1272(4) -0.18640(18) -0.40949(14)
C2 C -0.5098(4) -0.2790(2) -0.45375(17)
H2 H -0.5595 -0.3200 -0.4733
C3 C -0.2862(4) -0.21097(19) -0.42037(14)
C4 C 0.0589(4) -0.06120(18) -0.42938(15)
C5 C 0.1568(4) -0.06938(19) -0.25997(15)
C6 C -0.3535(4) -0.2707(2) -0.45007(16)
H3 H -0.2962 -0.3048 -0.4673
C7 C -0.3698(4) -0.1599(2) -0.39599(15)
C8 C -0.5254(4) -0.1668(2) -0.40045(16)
H4 H -0.5827 -0.1315 -0.3846
C9 C -0.2667(4) -0.10166(19) -0.36954(14)
C10 C -0.5937(4) -0.2279(2) -0.42909(17)
H5 H -0.6994 -0.2349 -0.4320
C11 C 0.1435(4) -0.10245(18) -0.32231(14)
H6 H 0.2392 -0.0930 -0.3361
H7 H 0.1334 -0.1554 -0.3191
C12 C 0.0110(4) -0.07477(18) -0.36977(14)
H8 H -0.0214 -0.0273 -0.3558
C13 C 0.2927(4) -0.10765(19) -0.22103(15)
H9 H 0.2747 -0.1603 -0.2239
H10 H 0.3842 -0.0975 -0.2375
C14 C 0.1851(4) 0.01277(19) -0.26183(16)
H11 H 0.0975 0.0352 -0.2881
H12 H 0.1888 0.0325 -0.2218
C15 C 0.0105(4) -0.0810(2) -0.23588(16)
H13 H 0.0216 -0.0550 -0.1979
H14 H -0.0735 -0.0577 -0.2635
C16 C 0.3261(4) -0.0871(2) -0.15607(16)
H15 H 0.2351 -0.0960 -0.1389
H16 H 0.3505 -0.0351 -0.1521
C17 C -0.0373(4) -0.1586(2) -0.22582(17)
H17 H -0.0495 -0.1855 -0.2634
H18 H 0.0438 -0.1823 -0.1972
C18 C 0.3287(5) 0.0355(2) -0.28259(19)
H19 H 0.4172 0.0164 -0.2555
H20 H 0.3345 0.0883 -0.2833
H21 H 0.3269 0.0166 -0.3223
C19 C -0.2198(5) -0.2377(3) -0.1778(2)
H22 H -0.3197 -0.2356 -0.1661
H23 H -0.2262 -0.2741 -0.2095
C20 C 0.4586(4) -0.1309(3) -0.12236(19)
H24 H 0.4460 -0.1817 -0.1358
H25 H 0.5529 -0.1126 -0.1331
C21 C -0.1851(4) -0.1622(3) -0.20284(19)
H26 H -0.2696 -0.1492 -0.2353
H27 H -0.1815 -0.1257 -0.1714
C22 C 0.2973(5) -0.2351(3) -0.0556(2)
H28 H 0.3895 -0.2651 -0.0526
H29 H 0.2508 -0.2310 -0.0978
C23 C 0.3435(5) -0.1606(3) -0.03221(19)
H30 H 0.3703 -0.1626 0.0113
H31 H 0.2563 -0.1275 -0.0430
C24 C -0.0548(6) -0.2061(3) -0.0772(2)
H32 H -0.1481 -0.1843 -0.0682
H33 H 0.0016 -0.1676 -0.0933
C25 C -0.0985(6) -0.2629(3) -0.1236(2)
H34 H -0.1386 -0.3053 -0.1055
H35 H -0.0066 -0.2786 -0.1378
C26 C 0.1875(6) -0.2737(3) -0.0243(2)
H36 H 0.2411 -0.2854 0.0161
H37 H 0.1594 -0.3200 -0.0448
C27 C 0.4785(5) -0.1302(3) -0.0562(2)
H38 H 0.4965 -0.0798 -0.0423
H39 H 0.5699 -0.1585 -0.0395
C28 C 0.0424(6) -0.2338(3) -0.0198(2)
H40 H 0.0697 -0.1920 0.0068
H41 H -0.0209 -0.2664 -0.0007
O5 O -0.0160(2) 0.11731(14) -0.41581(10)
O6 O -0.0538(3) 0.26869(14) -0.46783(11)
H42 H -0.0217 0.2754 -0.4992
O7 O -0.2972(3) 0.28735(15) -0.34186(11)
O8 O 0.1910(3) 0.28442(15) -0.42540(11)
N2 N -0.1242(3) 0.21132(15) -0.37339(12)
C29 C 0.0620(4) 0.27120(18) -0.42201(15)
C30 C -0.2701(4) 0.2321(2) -0.36502(14)
C31 C -0.2873(4) 0.12078(19) -0.41386(14)
C32 C -0.5096(4) 0.0523(2) -0.44701(16)
H43 H -0.5586 0.0110 -0.4662
C33 C -0.5272(4) 0.1653(2) -0.39522(16)
H44 H -0.5853 0.2006 -0.3798
C34 C 0.1371(4) 0.23087(18) -0.31411(14)
H45 H 0.2347 0.2374 -0.3272
H46 H 0.1225 0.1784 -0.3093
C35 C 0.0091(4) 0.25853(18) -0.36340(14)
H47 H -0.0240 0.3063 -0.3503
C36 C -0.1280(4) 0.14597(18) -0.40278(14)
C37 C 0.1495(4) 0.26754(19) -0.25284(15)
C38 C -0.3721(4) 0.17272(19) -0.39064(15)
C39 C -0.3531(4) 0.06068(19) -0.44273(16)
H48 H -0.2950 0.0262 -0.4591
C40 C -0.5941(4) 0.1035(2) -0.42357(16)
H49 H -0.6999 0.0962 -0.4269
C41 C 0.2793(4) 0.22863(19) -0.21117(15)
H50 H 0.2517 0.1772 -0.2089
H51 H 0.3711 0.2308 -0.2288
C42 C 0.1843(4) 0.34877(19) -0.25769(16)
H52 H 0.0994 0.3711 -0.2855
H53 H 0.1871 0.3712 -0.2187
C43 C -0.0004(4) 0.26162(19) -0.23012(15)
H54 H 0.0130 0.2870 -0.1918
H55 H -0.0791 0.2881 -0.2579
C44 C 0.3190(4) 0.2588(2) -0.14814(17)
H56 H 0.2255 0.2613 -0.1316
H57 H 0.3579 0.3086 -0.1497
C45 C -0.0610(4) 0.1861(2) -0.22184(16)
H58 H 0.0131 0.1599 -0.1920
H59 H -0.0721 0.1593 -0.2594
C46 C 0.3320(5) 0.3675(2) -0.27798(19)
H60 H 0.4180 0.3480 -0.2498
H61 H 0.3419 0.4200 -0.2802
H62 H 0.3307 0.3463 -0.3169
C47 C 0.4376(4) 0.2135(2) -0.10667(18)
H63 H 0.5247 0.2049 -0.1261
H64 H 0.4748 0.2417 -0.0705
C48 C 0.3794(5) 0.1404(2) -0.08908(18)
H65 H 0.3253 0.1159 -0.1251
H66 H 0.4674 0.1101 -0.0720
C49 C 0.2112(5) 0.0717(3) -0.0293(2)
H67 H 0.2939 0.0357 -0.0241
H68 H 0.1778 0.0765 0.0089
C50 C -0.2142(4) 0.1881(2) -0.20212(18)
H69 H -0.1970 0.2013 -0.1599
H70 H -0.2772 0.2264 -0.2244
C51 C -0.0696(5) 0.0850(3) -0.0750(2)
H71 H -0.0842 0.0895 -0.0338
H72 H -0.0597 0.1342 -0.0903
C52 C -0.2106(5) 0.0491(3) -0.1118(2)
H73 H -0.3014 0.0726 -0.1021
H74 H -0.2124 -0.0021 -0.0996
C53 C 0.2740(5) 0.1450(3) -0.0451(2)
H75 H 0.1879 0.1768 -0.0615
H76 H 0.3293 0.1677 -0.0085
C54 C -0.3018(5) 0.1172(3) -0.2106(2)
H77 H -0.3987 0.1242 -0.1971
H78 H -0.3266 0.1066 -0.2533
C55 C -0.2233(5) 0.0514(2) -0.1793(2)
H79 H -0.1199 0.0487 -0.1879
H80 H -0.2786 0.0078 -0.1963
C56 C 0.0788(5) 0.0434(3) -0.0752(2)
H81 H 0.0628 -0.0083 -0.0674
H82 H 0.1048 0.0472 -0.1148
O9 O -0.0109(2) -0.54964(13) -0.41854(10)
O10 O -0.0488(3) -0.39845(14) -0.47550(11)
H83 H -0.0164 -0.3953 -0.5071
O11 O -0.2911(3) -0.37335(15) -0.35170(12)
O12 O 0.1954(3) -0.38155(15) -0.43430(11)
N3 N -0.1180(3) -0.45243(15) -0.38015(12)
C57 C -0.2817(4) -0.54406(19) -0.41658(14)
C58 C 0.0670(4) -0.39485(17) -0.43007(15)
C59 C -0.2645(4) -0.43033(19) -0.37272(14)
C60 C 0.1435(4) -0.43260(18) -0.32149(14)
H84 H 0.2407 -0.4286 -0.3352
H85 H 0.1263 -0.4844 -0.3145
C61 C -0.5216(4) -0.4972(2) -0.39951(16)
H86 H -0.5794 -0.4602 -0.3860
C62 C 0.0156(4) -0.40563(18) -0.37100(15)
H87 H -0.0169 -0.3574 -0.3586
C63 C -0.3477(4) -0.60649(19) -0.44206(15)
H88 H -0.2897 -0.6425 -0.4568
C64 C -0.1228(4) -0.51937(18) -0.40652(14)
C65 C -0.5047(4) -0.6146(2) -0.44524(17)
H89 H -0.5538 -0.6571 -0.4620
C66 C 0.2810(4) -0.43184(19) -0.21759(15)
H90 H 0.2461 -0.4818 -0.2129
H91 H 0.3743 -0.4348 -0.2342
C67 C 0.1584(4) -0.39199(18) -0.26217(15)
C68 C 0.2055(4) -0.31282(19) -0.26973(17)
H92 H 0.1290 -0.2905 -0.3011
H93 H 0.2025 -0.2867 -0.2327
C69 C -0.3667(4) -0.49048(19) -0.39567(14)
C70 C -0.5889(4) -0.5610(2) -0.42407(16)
H94 H -0.6945 -0.5679 -0.4264
C71 C 0.0060(4) -0.3901(2) -0.24074(16)
H95 H 0.0208 -0.3625 -0.2034
H96 H -0.0680 -0.3632 -0.2701
C72 C 0.3622(5) -0.3012(2) -0.28513(19)
H97 H 0.4399 -0.3224 -0.2543
H98 H 0.3812 -0.2494 -0.2880
H99 H 0.3656 -0.3244 -0.3229
C73 C 0.3206(4) -0.3964(2) -0.15612(16)
H100 H 0.3649 -0.3481 -0.1601
H101 H 0.2263 -0.3894 -0.1407
C74 C -0.0629(4) -0.4633(2) -0.23050(17)
H102 H 0.0049 -0.4887 -0.1981
H103 H -0.0712 -0.4930 -0.2665
C75 C 0.4324(5) -0.4409(2) -0.11145(17)
H104 H 0.5224 -0.4518 -0.1287
H105 H 0.4665 -0.4112 -0.0758
C76 C -0.2207(4) -0.4552(2) -0.21473(18)
H106 H -0.2089 -0.4420 -0.1726
H107 H -0.2757 -0.4155 -0.2383
C77 C -0.1018(5) -0.5607(3) -0.08871(19)
H108 H -0.0936 -0.5100 -0.1011
H109 H -0.1184 -0.5605 -0.0476
C78 C -0.2446(5) -0.5923(2) -0.1954(2)
H110 H -0.1396 -0.5965 -0.2021
H111 H -0.3018 -0.6344 -0.2143
C79 C 0.3685(5) -0.5110(3) -0.09338(17)
H112 H 0.4528 -0.5404 -0.0716
H113 H 0.3232 -0.5380 -0.1294
C80 C 0.1763(6) -0.5754(3) -0.0429(2)
H114 H 0.2557 -0.6131 -0.0377
H115 H 0.1394 -0.5714 -0.0054
C81 C 0.2488(6) -0.5024(3) -0.0550(2)
H116 H 0.1685 -0.4695 -0.0749
H117 H 0.2962 -0.4801 -0.0171
C82 C 0.0463(5) -0.5995(3) -0.09068(18)
H118 H 0.0311 -0.6520 -0.0867
H119 H 0.0736 -0.5910 -0.1296
C83 C -0.3144(4) -0.5243(2) -0.2261(2)
H120 H -0.4126 -0.5158 -0.2139
H121 H -0.3361 -0.5335 -0.2690
C84 C -0.2405(5) -0.5963(3) -0.1290(2)
H122 H -0.2438 -0.6478 -0.1178
H123 H -0.3335 -0.5732 -0.1208
loop_
_geom_bond_atom_site_label_1
_geom_bond_atom_site_label_2
_geom_bond_site_symmetry_1
_geom_bond_site_symmetry_2
O1 C1 1_555 1_555
O2 H1 1_555 1_555
O3 C4 1_555 1_555
N1 C1 1_555 1_555
O4 C9 1_555 1_555
C1 C3 1_555 1_555
C2 H2 1_555 1_555
C3 C6 1_555 1_555
C4 O2 1_555 1_555
C5 C11 1_555 1_555
C6 C2 1_555 1_555
H3 C6 1_555 1_555
C7 C3 1_555 1_555
C8 C7 1_555 1_555
H4 C8 1_555 1_555
C9 N1 1_555 1_555
C10 C2 1_555 1_555
H5 C10 1_555 1_555
C11 H6 1_555 1_555
H7 C11 1_555 1_555
C12 N1 1_555 1_555
H8 C12 1_555 1_555
C13 C5 1_555 1_555
H9 C13 1_555 1_555
H10 C13 1_555 1_555
C14 C5 1_555 1_555
H11 C14 1_555 1_555
H12 C14 1_555 1_555
C15 C5 1_555 1_555
H13 C15 1_555 1_555
H14 C15 1_555 1_555
C16 C13 1_555 1_555
H15 C16 1_555 1_555
H16 C16 1_555 1_555
C17 C15 1_555 1_555
H17 C17 1_555 1_555
H18 C17 1_555 1_555
C18 C14 1_555 1_555
H19 C18 1_555 1_555
H20 C18 1_555 1_555
H21 C18 1_555 1_555
C19 H22 1_555 1_555
H23 C19 1_555 1_555
C20 C16 1_555 1_555
H24 C20 1_555 1_555
H25 C20 1_555 1_555
C21 C17 1_555 1_555
H26 C21 1_555 1_555
H27 C21 1_555 1_555
C22 H28 1_555 1_555
H29 C22 1_555 1_555
C23 C22 1_555 1_555
H30 C23 1_555 1_555
H31 C23 1_555 1_555
C24 H32 1_555 1_555
H33 C24 1_555 1_555
C25 C19 1_555 1_555
H34 C25 1_555 1_555
H35 C25 1_555 1_555
C26 C22 1_555 1_555
H36 C26 1_555 1_555
H37 C26 1_555 1_555
C27 C20 1_555 1_555
H38 C27 1_555 1_555
H39 C27 1_555 1_555
C28 C24 1_555 1_555
H40 C28 1_555 1_555
H41 C28 1_555 1_555
O5 C36 1_555 1_555
O6 H42 1_555 1_555
O7 C30 1_555 1_555
O8 C29 1_555 1_555
N2 C30 1_555 1_555
C29 O6 1_555 1_555
C30 C38 1_555 1_555
C31 C36 1_555 1_555
C32 H43 1_555 1_555
C33 H44 1_555 1_555
C34 H45 1_555 1_555
H46 C34 1_555 1_555
C35 N2 1_555 1_555
H47 C35 1_555 1_555
C36 N2 1_555 1_555
C37 C34 1_555 1_555
C38 C31 1_555 1_555
C39 C31 1_555 1_555
H48 C39 1_555 1_555
C40 C32 1_555 1_555
H49 C40 1_555 1_555
C41 C37 1_555 1_555
H50 C41 1_555 1_555
H51 C41 1_555 1_555
C42 C37 1_555 1_555
H52 C42 1_555 1_555
H53 C42 1_555 1_555
C43 C37 1_555 1_555
H54 C43 1_555 1_555
H55 C43 1_555 1_555
C44 C41 1_555 1_555
H56 C44 1_555 1_555
H57 C44 1_555 1_555
C45 C43 1_555 1_555
H58 C45 1_555 1_555
H59 C45 1_555 1_555
C46 C42 1_555 1_555
H60 C46 1_555 1_555
H61 C46 1_555 1_555
H62 C46 1_555 1_555
C47 C44 1_555 1_555
H63 C47 1_555 1_555
H64 C47 1_555 1_555
C48 C47 1_555 1_555
H65 C48 1_555 1_555
H66 C48 1_555 1_555
C49 H67 1_555 1_555
H68 C49 1_555 1_555
C50 C45 1_555 1_555
H69 C50 1_555 1_555
H70 C50 1_555 1_555
C51 H71 1_555 1_555
H72 C51 1_555 1_555
C52 C51 1_555 1_555
H73 C52 1_555 1_555
H74 C52 1_555 1_555
C53 C48 1_555 1_555
H75 C53 1_555 1_555
H76 C53 1_555 1_555
C54 C50 1_555 1_555
H77 C54 1_555 1_555
H78 C54 1_555 1_555
C55 C52 1_555 1_555
H79 C55 1_555 1_555
H80 C55 1_555 1_555
C56 C49 1_555 1_555
H81 C56 1_555 1_555
H82 C56 1_555 1_555
O9 C64 1_555 1_555
O10 H83 1_555 1_555
O11 C59 1_555 1_555
O12 C58 1_555 1_555
N3 C59 1_555 1_555
C57 C63 1_555 1_555
C58 O10 1_555 1_555
C59 C69 1_555 1_555
C60 H84 1_555 1_555
H85 C60 1_555 1_555
C61 H86 1_555 1_555
C62 N3 1_555 1_555
H87 C62 1_555 1_555
C63 H88 1_555 1_555
C64 N3 1_555 1_555
C65 C63 1_555 1_555
H89 C65 1_555 1_555
C66 H90 1_555 1_555
H91 C66 1_555 1_555
C67 C60 1_555 1_555
C68 C67 1_555 1_555
H92 C68 1_555 1_555
H93 C68 1_555 1_555
C69 C57 1_555 1_555
C70 C61 1_555 1_555
H94 C70 1_555 1_555
C71 C67 1_555 1_555
H95 C71 1_555 1_555
H96 C71 1_555 1_555
C72 C68 1_555 1_555
H97 C72 1_555 1_555
H98 C72 1_555 1_555
H99 C72 1_555 1_555
C73 C66 1_555 1_555
H100 C73 1_555 1_555
H101 C73 1_555 1_555
C74 C71 1_555 1_555
H102 C74 1_555 1_555
H103 C74 1_555 1_555
C75 C73 1_555 1_555
H104 C75 1_555 1_555
H105 C75 1_555 1_555
C76 C74 1_555 1_555
H106 C76 1_555 1_555
H107 C76 1_555 1_555
C77 H108 1_555 1_555
H109 C77 1_555 1_555
C78 H110 1_555 1_555
H111 C78 1_555 1_555
C79 C75 1_555 1_555
H112 C79 1_555 1_555
H113 C79 1_555 1_555
C80 H114 1_555 1_555
H115 C80 1_555 1_555
C81 C79 1_555 1_555
H116 C81 1_555 1_555
H117 C81 1_555 1_555
C82 C77 1_555 1_555
H118 C82 1_555 1_555
H119 C82 1_555 1_555
C83 C76 1_555 1_555
H120 C83 1_555 1_555
H121 C83 1_555 1_555
C84 C77 1_555 1_555
H122 C84 1_555 1_555
H123 C84 1_555 1_555
C4 C12 1_555 1_555
C7 C9 1_555 1_555
C8 C10 1_555 1_555
C11 C12 1_555 1_555
C19 C21 1_555 1_555
C23 C27 1_555 1_555
C24 C25 1_555 1_555
C26 C28 1_555 1_555
C29 C35 1_555 1_555
C32 C39 1_555 1_555
C33 C38 1_555 1_555
C33 C40 1_555 1_555
C34 C35 1_555 1_555
C49 C53 1_555 1_555
C51 C56 1_555 1_555
C54 C55 1_555 1_555
C57 C64 1_555 1_555
C58 C62 1_555 1_555
C60 C62 1_555 1_555
C61 C69 1_555 1_555
C65 C70 1_555 1_555
C66 C67 1_555 1_555
C78 C83 1_555 1_555
C78 C84 1_555 1_555
C80 C81 1_555 1_555
C80 C82 1_555 1_555

#END
