
#######################################################################
#
#                 Cambridge Crystallographic Data Centre
#                                CCDC 
#
#######################################################################
#
# If this CIF has been generated from an entry in the Cambridge 
# Structural Database, then it will include bibliographic, chemical, 
# crystal, experimental, refinement or atomic coordinate data resulting 
# from the CCDC's data processing and validation procedures.
#
#######################################################################

data_HUWHIR
_chemical_formula_moiety         'C24 H40 N4 O4 S2,0.5(H2 O1)'
_chemical_name_systematic        
'25,25,26,26-Tetramethyl-3,8-dithia-4,7,16,19-tetra-azapentacyclo[20.2.1.1^10,13^.0^1,20^.0^10,15^]hexacosa-15,19-diene 3,3,8,8-tetraoxide hemihydrate'
_symmetry_cell_setting           monoclinic
_symmetry_space_group_name_H-M   'P 21'
_symmetry_Int_Tables_number      4
_space_group_name_Hall           'P 2yb'
loop_
_symmetry_equiv_pos_site_id
_symmetry_equiv_pos_as_xyz
1 x,y,z
2 -x,1/2+y,-z
_cell_length_a                   8.9319(16)
_cell_length_b                   28.833(2)
_cell_length_c                   11.1309(18)
_cell_angle_alpha                90
_cell_angle_beta                 90.439(4)
_cell_angle_gamma                90
_cell_volume                     2866.5
_cell_formula_units_Z            4
_exptl_crystal_recrystallization_method dichloromethane/n-hexane
loop_
_atom_site_label
_atom_site_type_symbol
_atom_site_fract_x
_atom_site_fract_y
_atom_site_fract_z
C1 C 0.9951(4) 0.75267(12) -0.0647(3)
C2 C 1.0070(5) 0.72112(13) -0.1727(3)
H1 H 0.9325 0.6967 -0.1702
H2 H 1.1058 0.7073 -0.1776
C3 C 0.9774(5) 0.75485(15) -0.2802(3)
H3 H 1.0628 0.7564 -0.3333
H4 H 0.8894 0.7457 -0.3260
C4 C 0.9530(5) 0.80053(14) -0.2158(3)
H5 H 0.9644 0.8278 -0.2676
C5 C 0.8014(4) 0.79770(13) -0.1546(3)
H6 H 0.7691 0.8279 -0.1268
H7 H 0.7258 0.7850 -0.2082
C6 C 0.8326(4) 0.76527(11) -0.0499(3)
C7 C 1.0658(5) 0.79854(14) -0.1124(3)
C8 C 1.0472(4) 0.84017(13) -0.0188(3)
H8 H 1.0907 0.8678 -0.0514
H9 H 1.0970 0.8324 0.0553
H10 H 0.9428 0.8453 -0.0040
C9 C 1.2250(5) 0.79518(15) -0.1454(4)
H11 H 1.2385 0.7696 -0.1995
H12 H 1.2845 0.7903 -0.0744
H13 H 1.2555 0.8234 -0.1839
C10 C 1.0795(4) 0.73544(13) 0.0512(3)
H14 H 1.0649 0.7585 0.1135
H15 H 1.1857 0.7349 0.0337
C11 C 0.8744(5) 0.69236(14) 0.3183(3)
H16 H 0.9261 0.6663 0.3548
H17 H 0.7704 0.6907 0.3423
C12 C 0.9395(5) 0.73554(14) 0.3677(3)
H18 H 0.9134 0.7373 0.4521
H19 H 1.0476 0.7330 0.3637
C13 C 0.7159(4) 0.82785(13) 0.4616(3)
H20 H 0.6942 0.7967 0.4896
H21 H 0.7296 0.8471 0.5323
C14 C 0.5775(4) 0.84553(12) 0.3944(3)
C15 C 0.5864(4) 0.89565(12) 0.3447(4)
H22 H 0.6440 0.9155 0.3980
H23 H 0.6312 0.8961 0.2656
C16 C 0.4232(4) 0.91080(14) 0.3390(4)
H24 H 0.4051 0.9365 0.3933
H25 H 0.3952 0.9201 0.2581
C17 C 0.3386(4) 0.86900(12) 0.3765(4)
H26 H 0.2356 0.8754 0.4012
C18 C 0.3516(4) 0.83055(14) 0.2812(3)
H27 H 0.2829 0.8053 0.2970
H28 H 0.3328 0.8425 0.2010
C19 C 0.5155(4) 0.81507(11) 0.2966(3)
C20 C 0.4401(4) 0.84957(11) 0.4788(3)
C21 C 0.3852(4) 0.80343(13) 0.5271(4)
H29 H 0.3013 0.8086 0.5789
H30 H 0.4643 0.7887 0.5717
H31 H 0.3552 0.7839 0.4614
C22 C 0.4585(5) 0.88288(15) 0.5823(4)
H32 H 0.3678 0.8838 0.6280
H33 H 0.4799 0.9133 0.5519
H34 H 0.5397 0.8728 0.6330
C23 C 0.5147(5) 0.75954(16) 0.1413(4)
H35 H 0.4105 0.7686 0.1334
H36 H 0.5181 0.7266 0.1588
C24 C 0.5934(4) 0.76885(14) 0.0273(3)
H37 H 0.5412 0.7534 -0.0381
H38 H 0.5922 0.8019 0.0113
N1 N 0.8807(4) 0.68727(11) 0.1907(3)
H39 H 0.7972 0.6886 0.1519
N2 N 0.8973(3) 0.77795(11) 0.3130(2)
H40 H 0.8737 0.7778 0.2379
N3 N 0.7466(3) 0.75279(10) 0.0323(3)
N4 N 0.5842(4) 0.78519(11) 0.2394(3)
O1 O 0.9927(3) 0.64931(9) 0.0187(2)
O2 O 1.1432(3) 0.66602(10) 0.1939(3)
O3 O 0.8974(3) 0.86252(10) 0.3016(3)
O4 O 1.0059(3) 0.82294(10) 0.4771(2)
S1 S 1.02976(11) 0.67930(3) 0.11337(8)
S2 S 0.89165(10) 0.82594(3) 0.38377(8)
C25 C 0.0906(4) 0.51706(13) 0.3801(3)
C26 C 0.1039(5) 0.46998(15) 0.4396(4)
H41 H 0.1453 0.4728 0.5201
H42 H 0.1670 0.4494 0.3931
C27 C -0.0625(5) 0.45147(16) 0.4431(5)
H43 H -0.0756 0.4244 0.3923
H44 H -0.0928 0.4440 0.5243
C28 C -0.1492(5) 0.49363(14) 0.3934(4)
H45 H -0.2521 0.4868 0.3681
C29 C -0.1353(5) 0.53299(16) 0.4843(4)
H46 H -0.2043 0.5579 0.4649
H47 H -0.1560 0.5220 0.5648
C30 C 0.0218(4) 0.54890(13) 0.4747(3)
C31 C -0.0502(4) 0.50945(14) 0.2946(3)
C32 C -0.1020(5) 0.55506(15) 0.2346(4)
H48 H -0.1901 0.5493 0.1869
H49 H -0.0238 0.5667 0.1842
H50 H -0.1244 0.5775 0.2955
C33 C -0.0193(5) 0.47179(15) 0.1964(4)
H51 H -0.1085 0.4668 0.1495
H52 H 0.0099 0.4433 0.2345
H53 H 0.0597 0.4822 0.1450
C34 C 0.2279(4) 0.53413(14) 0.3118(3)
H54 H 0.2045 0.5645 0.2793
H55 H 0.2428 0.5135 0.2440
C35 C 0.4472(5) 0.62944(14) 0.3949(4)
H56 H 0.5555 0.6318 0.3946
H57 H 0.4141 0.6258 0.3122
C36 C 0.3864(5) 0.67247(13) 0.4413(3)
H58 H 0.4400 0.6978 0.4036
H59 H 0.2830 0.6746 0.4145
C37 C 0.5821(4) 0.63397(12) 0.7139(3)
H60 H 0.5665 0.6105 0.6527
H61 H 0.6884 0.6344 0.7323
C38 C 0.4989(4) 0.61792(11) 0.8290(3)
C39 C 0.5099(5) 0.64863(14) 0.9382(3)
H62 H 0.6070 0.6636 0.9422
H63 H 0.4328 0.6723 0.9360
C40 C 0.4886(5) 0.61701(16) 1.0441(3)
H64 H 0.4055 0.6270 1.0934
H65 H 0.5785 0.6153 1.0934
C41 C 0.4557(5) 0.57126(14) 0.9837(3)
H66 H 0.4657 0.5445 1.0373
C42 C 0.2985(5) 0.57507(14) 0.9217(3)
H67 H 0.2616 0.5449 0.8968
H68 H 0.2259 0.5895 0.9743
C43 C 0.3322(4) 0.60575(12) 0.8137(3)
C44 C 0.5626(5) 0.57017(12) 0.8770(3)
C45 C 0.7260(5) 0.57116(15) 0.9127(4)
H69 H 0.7553 0.5412 0.9421
H70 H 0.7413 0.5939 0.9746
H71 H 0.7853 0.5790 0.8441
C46 C 0.5365(5) 0.52972(13) 0.7916(4)
H72 H 0.5777 0.5019 0.8260
H73 H 0.5843 0.5360 0.7164
H74 H 0.4309 0.5257 0.7784
C47 C 0.0952(4) 0.60159(15) 0.7352(3)
H75 H 0.0415 0.6181 0.7973
H76 H 0.0947 0.5688 0.7550
C48 C 0.0185(4) 0.60917(15) 0.6142(3)
H77 H -0.0866 0.6009 0.6197
H78 H 0.0250 0.6416 0.5918
N5 N 0.4058(3) 0.58801(10) 0.4613(3)
H79 H 0.3826 0.5898 0.5360
N6 N 0.3890(4) 0.68036(11) 0.5682(3)
H80 H 0.3041 0.6807 0.6041
N7 N 0.0896(3) 0.58091(10) 0.5237(3)
N8 N 0.2475(3) 0.61818(9) 0.7299(2)
O5 O 0.4100(3) 0.50454(10) 0.4802(3)
O6 O 0.5146(3) 0.54140(11) 0.3007(3)
O7 O 0.4983(3) 0.71898(8) 0.7427(2)
O8 O 0.6512(3) 0.70083(9) 0.5694(3)
S3 S 0.40374(10) 0.53850(3) 0.39264(8)
S4 S 0.53473(11) 0.68866(3) 0.64932(7)
O9 O 0.9591(9) 0.9586(2) 0.1453(6)
H81 H 1.0471 0.9682 0.1608
H82 H 0.9183 0.9762 0.0934
O10 O 0.4186(11) 0.4390(3) 0.0978(8)
H83 H 0.3874 0.4328 0.0273
H84 H 0.4910 0.4211 0.1159
O11? O 1.0935(10) 0.9450(3) 0.1538(8)
H85? H 1.0990 0.9184 0.1213
H86? H 1.0020 0.9522 0.1632
loop_
_geom_bond_atom_site_label_1
_geom_bond_atom_site_label_2
_geom_bond_site_symmetry_1
_geom_bond_site_symmetry_2
C1 C2 1_555 1_555
C2 H1 1_555 1_555
H2 C2 1_555 1_555
C3 C2 1_555 1_555
H3 C3 1_555 1_555
H4 C3 1_555 1_555
C4 C3 1_555 1_555
H5 C4 1_555 1_555
C5 C4 1_555 1_555
H6 C5 1_555 1_555
H7 C5 1_555 1_555
C6 C1 1_555 1_555
C7 C1 1_555 1_555
C8 C7 1_555 1_555
H8 C8 1_555 1_555
H9 C8 1_555 1_555
H10 C8 1_555 1_555
C9 C7 1_555 1_555
H11 C9 1_555 1_555
H12 C9 1_555 1_555
H13 C9 1_555 1_555
C10 C1 1_555 1_555
H14 C10 1_555 1_555
H15 C10 1_555 1_555
C11 H16 1_555 1_555
H17 C11 1_555 1_555
C12 C11 1_555 1_555
H18 C12 1_555 1_555
H19 C12 1_555 1_555
C13 H20 1_555 1_555
H21 C13 1_555 1_555
C14 C13 1_555 1_555
C15 C14 1_555 1_555
H22 C15 1_555 1_555
H23 C15 1_555 1_555
C16 C15 1_555 1_555
H24 C16 1_555 1_555
H25 C16 1_555 1_555
C17 C16 1_555 1_555
H26 C17 1_555 1_555
C18 C17 1_555 1_555
H27 C18 1_555 1_555
H28 C18 1_555 1_555
C19 C14 1_555 1_555
C20 C14 1_555 1_555
C21 C20 1_555 1_555
H29 C21 1_555 1_555
H30 C21 1_555 1_555
H31 C21 1_555 1_555
C22 C20 1_555 1_555
H32 C22 1_555 1_555
H33 C22 1_555 1_555
H34 C22 1_555 1_555
C23 H35 1_555 1_555
H36 C23 1_555 1_555
C24 C23 1_555 1_555
H37 C24 1_555 1_555
H38 C24 1_555 1_555
N1 C11 1_555 1_555
H39 N1 1_555 1_555
N2 C12 1_555 1_555
H40 N2 1_555 1_555
N3 C6 1_555 1_555
N4 C19 1_555 1_555
O1 S1 1_555 1_555
O2 S1 1_555 1_555
O3 S2 1_555 1_555
O4 S2 1_555 1_555
S1 C10 1_555 1_555
S2 C13 1_555 1_555
C25 C26 1_555 1_555
C26 H41 1_555 1_555
H42 C26 1_555 1_555
C27 C26 1_555 1_555
H43 C27 1_555 1_555
H44 C27 1_555 1_555
C28 C27 1_555 1_555
H45 C28 1_555 1_555
C29 C28 1_555 1_555
H46 C29 1_555 1_555
H47 C29 1_555 1_555
C30 C25 1_555 1_555
C31 C25 1_555 1_555
C32 C31 1_555 1_555
H48 C32 1_555 1_555
H49 C32 1_555 1_555
H50 C32 1_555 1_555
C33 C31 1_555 1_555
H51 C33 1_555 1_555
H52 C33 1_555 1_555
H53 C33 1_555 1_555
C34 C25 1_555 1_555
H54 C34 1_555 1_555
H55 C34 1_555 1_555
C35 H56 1_555 1_555
H57 C35 1_555 1_555
C36 C35 1_555 1_555
H58 C36 1_555 1_555
H59 C36 1_555 1_555
C37 H60 1_555 1_555
H61 C37 1_555 1_555
C38 C37 1_555 1_555
C39 C38 1_555 1_555
H62 C39 1_555 1_555
H63 C39 1_555 1_555
C40 C39 1_555 1_555
H64 C40 1_555 1_555
H65 C40 1_555 1_555
C41 C40 1_555 1_555
H66 C41 1_555 1_555
C42 C41 1_555 1_555
H67 C42 1_555 1_555
H68 C42 1_555 1_555
C43 C38 1_555 1_555
C44 C38 1_555 1_555
C45 C44 1_555 1_555
H69 C45 1_555 1_555
H70 C45 1_555 1_555
H71 C45 1_555 1_555
C46 C44 1_555 1_555
H72 C46 1_555 1_555
H73 C46 1_555 1_555
H74 C46 1_555 1_555
C47 H75 1_555 1_555
H76 C47 1_555 1_555
C48 C47 1_555 1_555
H77 C48 1_555 1_555
H78 C48 1_555 1_555
N5 C35 1_555 1_555
H79 N5 1_555 1_555
N6 C36 1_555 1_555
H80 N6 1_555 1_555
N7 C30 1_555 1_555
N8 C43 1_555 1_555
O5 S3 1_555 1_555
O6 S3 1_555 1_555
O7 S4 1_555 1_555
O8 S4 1_555 1_555
S3 C34 1_555 1_555
S4 C37 1_555 1_555
O9 H81 1_555 1_555
H82 O9 1_555 1_555
O10 H83 1_555 1_555
H84 O10 1_555 1_555
C4 C7 1_555 1_555
C5 C6 1_555 1_555
C17 C20 1_555 1_555
C18 C19 1_555 1_555
C23 N4 1_555 1_555
C24 N3 1_555 1_555
N1 S1 1_555 1_555
N2 S2 1_555 1_555
C28 C31 1_555 1_555
C29 C30 1_555 1_555
C41 C44 1_555 1_555
C42 C43 1_555 1_555
C47 N8 1_555 1_555
C48 N7 1_555 1_555
N5 S3 1_555 1_555
N6 S4 1_555 1_555

#END
