
#######################################################################
#
#                 Cambridge Crystallographic Data Centre
#                                CCDC 
#
#######################################################################
#
# If this CIF has been generated from an entry in the Cambridge 
# Structural Database, then it will include bibliographic, chemical, 
# crystal, experimental, refinement or atomic coordinate data resulting 
# from the CCDC's data processing and validation procedures.
#
#######################################################################

data_HUXWEE
_chemical_formula_moiety         'C28 H22 Cl1 N3 O2'
_chemical_name_systematic        
1'-(3-chlorobenzyl)-6,7-dimethyl-4,9-dihydro-1H-spiro[benzo[b]cyclopenta[e][1,4]diazepine-10,3'-indole]-1,2'(1'H)-dione
_symmetry_cell_setting           monoclinic
_symmetry_space_group_name_H-M   'P 21'
_symmetry_Int_Tables_number      4
_space_group_name_Hall           'P 2yb'
loop_
_symmetry_equiv_pos_site_id
_symmetry_equiv_pos_as_xyz
1 x,y,z
2 -x,1/2+y,-z
_cell_length_a                   12.546(3)
_cell_length_b                   7.7500(19)
_cell_length_c                   13.149(3)
_cell_angle_alpha                90
_cell_angle_beta                 114.768(4)
_cell_angle_gamma                90
_cell_volume                     1160.89
_exptl_crystal_colour            colorless
_exptl_crystal_description       block
_cell_formula_units_Z            2
loop_
_atom_site_label
_atom_site_type_symbol
_atom_site_fract_x
_atom_site_fract_y
_atom_site_fract_z
Cl1 Cl 0.4948(2) 0.6118(4) 0.2177(2)
O1 O 0.0983(4) 0.8077(6) 0.1725(3)
O2 O -0.1532(4) 0.9935(6) 0.2785(4)
N1 N 0.1438(4) 0.7677(6) 0.3585(4)
N2 N 0.1875(4) 1.1583(6) 0.2912(3)
H1 H 0.1787 1.2622 0.3094
N3 N 0.0277(4) 1.2418(8) 0.0616(4)
H2 H -0.0035 1.3060 0.0031
C1 C 0.1094(5) 0.8627(7) 0.2628(5)
C2 C 0.0895(5) 1.0506(7) 0.2888(4)
C3 C 0.1051(5) 1.0351(8) 0.4084(4)
C4 C 0.0982(5) 1.1573(8) 0.4808(4)
H3 H 0.0740 1.2690 0.4560
C5 C 0.1279(5) 1.1122(10) 0.5916(5)
H4 H 0.1238 1.1937 0.6417
C6 C 0.1632(6) 0.9478(11) 0.6265(5)
H5 H 0.1827 0.9193 0.7009
C7 C 0.1710(5) 0.8226(9) 0.5557(5)
H6 H 0.1951 0.7111 0.5810
C8 C 0.1420(5) 0.8680(7) 0.4475(4)
C9 C -0.0261(4) 1.1145(7) 0.2039(4)
C10 C -0.0460(5) 1.1942(8) 0.1065(4)
C11 C -0.1745(5) 1.2305(10) 0.0376(6)
H7 H -0.2086 1.2865 -0.0312
C12 C -0.2346(5) 1.1563(10) 0.1047(5)
H8 H -0.3145 1.1580 0.0873
C13 C -0.1368(5) 1.0771(8) 0.2079(5)
C14 C 0.2212(5) 1.1605(8) 0.2017(4)
C15 C 0.1479(5) 1.2047(8) 0.0939(4)
C16 C 0.1913(5) 1.2157(9) 0.0142(5)
H9 H 0.1400 1.2458 -0.0584
C17 C 0.3066(6) 1.1846(9) 0.0362(5)
C18 C 0.3820(5) 1.1408(9) 0.1447(5)
C19 C 0.3385(5) 1.1278(8) 0.2245(5)
H10 H 0.3894 1.0959 0.2969
C20 C 0.5128(6) 1.1107(13) 0.1795(7)
H11 H 0.5510 1.0923 0.2590
H12 H 0.5463 1.2098 0.1602
H13 H 0.5234 1.0110 0.1414
C21 C 0.3476(7) 1.1922(12) -0.0561(7)
H14 H 0.3711 1.0791 -0.0684
H15 H 0.4131 1.2696 -0.0350
H16 H 0.2848 1.2327 -0.1236
C22 C 0.1695(6) 0.5834(8) 0.3626(6)
H17 H 0.1169 0.5307 0.2926
H18 H 0.1545 0.5310 0.4223
C23 C 0.2940(5) 0.5461(7) 0.3818(5)
C24 C 0.3711(7) 0.4590(9) 0.4781(6)
H19 H 0.3468 0.4275 0.5333
C25 C 0.4839(8) 0.4201(10) 0.4904(7)
H20 H 0.5340 0.3597 0.5535
C26 C 0.5231(7) 0.4689(12) 0.4116(8)
H21 H 0.5994 0.4446 0.4213
C27 C 0.4477(7) 0.5532(10) 0.3193(6)
C28 C 0.3353(6) 0.5904(9) 0.3030(6)
H22 H 0.2858 0.6465 0.2377
loop_
_geom_bond_atom_site_label_1
_geom_bond_atom_site_label_2
_geom_bond_site_symmetry_1
_geom_bond_site_symmetry_2
Cl1 C27 1_555 1_555
O1 C1 1_555 1_555
O2 C13 1_555 1_555
N1 C1 1_555 1_555
N2 H1 1_555 1_555
N3 H2 1_555 1_555
C1 C2 1_555 1_555
C2 N2 1_555 1_555
C3 C2 1_555 1_555
C4 C3 1_555 1_555
H3 C4 1_555 1_555
C5 C4 1_555 1_555
H4 C5 1_555 1_555
C6 C5 1_555 1_555
H5 C6 1_555 1_555
C7 C6 1_555 1_555
H6 C7 1_555 1_555
C8 N1 1_555 1_555
C9 C2 1_555 1_555
C10 N3 1_555 1_555
C11 C10 1_555 1_555
H7 C11 1_555 1_555
C12 C11 1_555 1_555
H8 C12 1_555 1_555
C13 C9 1_555 1_555
C14 N2 1_555 1_555
C15 N3 1_555 1_555
C16 C15 1_555 1_555
H9 C16 1_555 1_555
C17 C16 1_555 1_555
C18 C17 1_555 1_555
C19 C14 1_555 1_555
H10 C19 1_555 1_555
C20 C18 1_555 1_555
H11 C20 1_555 1_555
H12 C20 1_555 1_555
H13 C20 1_555 1_555
C21 C17 1_555 1_555
H14 C21 1_555 1_555
H15 C21 1_555 1_555
H16 C21 1_555 1_555
C22 N1 1_555 1_555
H17 C22 1_555 1_555
H18 C22 1_555 1_555
C23 C22 1_555 1_555
C24 C23 1_555 1_555
H19 C24 1_555 1_555
C25 C24 1_555 1_555
H20 C25 1_555 1_555
C26 C25 1_555 1_555
H21 C26 1_555 1_555
C27 C26 1_555 1_555
C28 C23 1_555 1_555
H22 C28 1_555 1_555
C3 C8 1_555 1_555
C7 C8 1_555 1_555
C9 C10 1_555 1_555
C12 C13 1_555 1_555
C14 C15 1_555 1_555
C18 C19 1_555 1_555
C27 C28 1_555 1_555

#END
