
#######################################################################
#
#                 Cambridge Crystallographic Data Centre
#                                CCDC 
#
#######################################################################
#
# If this CIF has been generated from an entry in the Cambridge 
# Structural Database, then it will include bibliographic, chemical, 
# crystal, experimental, refinement or atomic coordinate data resulting 
# from the CCDC's data processing and validation procedures.
#
#######################################################################

data_HUYGOZ
_chemical_formula_moiety         'C18 H15 N1 O1'
_chemical_name_systematic        
5-(4-Methoxyphenyl)-2-phenylpenta-2,4-dienenitrile
_symmetry_cell_setting           orthorhombic
_symmetry_space_group_name_H-M   'P n 21 a'
_symmetry_Int_Tables_number      33
_space_group_name_Hall           'P -2ac -2n'
loop_
_symmetry_equiv_pos_site_id
_symmetry_equiv_pos_as_xyz
1 x,y,z
2 -x,1/2+y,-z
3 1/2+x,y,1/2-z
4 1/2-x,1/2+y,1/2+z
_cell_length_a                   11.5404(3)
_cell_length_b                   14.1342(4)
_cell_length_c                   17.3162(5)
_cell_angle_alpha                90
_cell_angle_beta                 90
_cell_angle_gamma                90
_cell_volume                     2824.52
_exptl_crystal_colour            'light yellow'
_exptl_crystal_description       block
_cell_formula_units_Z            8
loop_
_atom_site_label
_atom_site_type_symbol
_atom_site_fract_x
_atom_site_fract_y
_atom_site_fract_z
O1 O -0.31750(19) -1.2063(2) -0.47725(12)
C1 C -0.4237(3) -1.2010(2) 0.03611(16)
C2 C -0.4825(2) -1.2028(2) 0.11212(15)
C3 C -0.4779(3) -1.1920(2) -0.03246(17)
H1 H -0.5576 -1.1824 -0.0312
C4 C -0.4246(3) -1.1960(3) -0.10718(17)
H2 H -0.3463 -1.2112 -0.1102
C5 C -0.4388(3) -1.1858(3) -0.25171(15)
C6 C -0.4822(3) -1.1788(2) -0.17282(18)
H3 H -0.5590 -1.1602 -0.1675
C7 C -0.3641(2) -1.1995(2) -0.40529(16)
C8 C -0.5079(3) -1.1557(2) -0.31295(19)
H4 H -0.5809 -1.1309 -0.3025
C9 C -0.2948(2) -1.2326(2) -0.34560(16)
H5 H -0.2232 -1.2595 -0.3566
C10 C -0.4712(3) -1.1617(2) -0.38901(17)
H6 H -0.5186 -1.1403 -0.4288
C11 C -0.4275(3) -1.1674(3) 0.17747(17)
H7 H -0.3526 -1.1435 0.1736
C12 C -0.5929(3) -1.2405(2) 0.11984(17)
H8 H -0.6301 -1.2661 0.0770
C13 C -0.4831(4) -1.1674(4) 0.24784(18)
H9 H -0.4460 -1.1423 0.2909
C14 C -0.3315(2) -1.2258(2) -0.27003(19)
H10 H -0.2841 -1.2481 -0.2306
C15 C -0.5928(4) -1.2041(4) 0.25508(19)
H11 H -0.6296 -1.2047 0.3029
C16 C -0.6480(3) -1.2402(3) 0.19076(19)
H12 H -0.7226 -1.2645 0.1952
N1 N -0.2004(3) -1.2114(3) 0.03981(18)
C17 C -0.3873(4) -1.1773(4) -0.54072(18)
H13 H -0.4074 -1.1118 -0.5349
H14 H -0.4566 -1.2148 -0.5422
H15 H -0.3449 -1.1858 -0.5879
C18 C -0.2990(3) -1.2070(3) 0.03727(18)
C19 C -0.7230(3) -0.9556(3) -0.03269(16)
H16 H -0.8029 -0.9642 -0.0317
C20 C -0.7568(2) -0.9841(2) -0.31338(17)
H17 H -0.8290 -1.0102 -0.3029
C21 C -0.6147(3) -0.9359(2) -0.40541(15)
C22 C -0.6691(3) -0.9481(3) 0.03625(17)
O2 O -0.56867(18) -0.92540(19) -0.47720(11)
C23 C -0.7297(3) -0.9652(2) -0.17308(17)
H18 H -0.8068 -0.9832 -0.1675
C24 C -0.7291(2) -0.9430(2) 0.11165(15)
C25 C -0.6690(3) -0.9517(3) -0.10744(16)
H19 H -0.5900 -0.9396 -0.1106
C26 C -0.6875(3) -0.9545(3) -0.25146(14)
C27 C -0.5807(2) -0.9130(2) -0.26987(18)
H20 H -0.5329 -0.8917 -0.2303
C28 C -0.5453(2) -0.9032(2) -0.34480(16)
H21 H -0.4745 -0.8746 -0.3555
C29 C -0.8389(3) -0.9027(2) 0.11725(17)
H22 H -0.8744 -0.8780 0.0735
C30 C -0.7335(3) -0.9748(3) 0.24780(15)
H23 H -0.6980 -0.9993 0.2917
C31 C -0.7217(2) -0.9758(2) -0.38933(16)
H24 H -0.7693 -0.9968 -0.4292
C32 C -0.8424(4) -0.9353(3) 0.25337(18)
H25 H -0.8801 -0.9328 0.3008
C33 C -0.6388(3) -0.9520(4) -0.54107(18)
H26 H -0.7108 -0.9182 -0.5391
H27 H -0.6537 -1.0188 -0.5390
H28 H -0.5991 -0.9371 -0.5883
C34 C -0.6768(3) -0.9783(2) 0.17784(17)
H29 H -0.6029 -1.0044 0.1749
C35 C -0.8953(3) -0.8994(3) 0.18787(18)
H30 H -0.9689 -0.8730 0.1913
C36 C -0.5444(3) -0.9443(3) 0.03809(17)
N2 N -0.4460(2) -0.9426(3) 0.04042(17)
loop_
_geom_bond_atom_site_label_1
_geom_bond_atom_site_label_2
_geom_bond_site_symmetry_1
_geom_bond_site_symmetry_2
O1 C7 1_555 1_555
C1 C2 1_555 1_555
C2 C11 1_555 1_555
C3 C1 1_555 1_555
H1 C3 1_555 1_555
C4 C3 1_555 1_555
H2 C4 1_555 1_555
C5 C6 1_555 1_555
C6 C4 1_555 1_555
H3 C6 1_555 1_555
C7 C9 1_555 1_555
C8 C5 1_555 1_555
H4 C8 1_555 1_555
C9 H5 1_555 1_555
C10 C7 1_555 1_555
H6 C10 1_555 1_555
C11 H7 1_555 1_555
C12 C2 1_555 1_555
H8 C12 1_555 1_555
C13 C11 1_555 1_555
H9 C13 1_555 1_555
C14 C5 1_555 1_555
H10 C14 1_555 1_555
C15 C13 1_555 1_555
H11 C15 1_555 1_555
C16 C12 1_555 1_555
H12 C16 1_555 1_555
N1 C18 1_555 1_555
C17 O1 1_555 1_555
H13 C17 1_555 1_555
H14 C17 1_555 1_555
H15 C17 1_555 1_555
C18 C1 1_555 1_555
C19 H16 1_555 1_555
C20 H17 1_555 1_555
C21 O2 1_555 1_555
C22 C19 1_555 1_555
O2 C33 1_555 1_555
C23 H18 1_555 1_555
C24 C22 1_555 1_555
C25 C19 1_555 1_555
H19 C25 1_555 1_555
C26 C20 1_555 1_555
C27 C26 1_555 1_555
H20 C27 1_555 1_555
C28 C21 1_555 1_555
H21 C28 1_555 1_555
C29 C24 1_555 1_555
H22 C29 1_555 1_555
C30 H23 1_555 1_555
C31 C20 1_555 1_555
H24 C31 1_555 1_555
C32 C30 1_555 1_555
H25 C32 1_555 1_555
C33 H26 1_555 1_555
H27 C33 1_555 1_555
H28 C33 1_555 1_555
C34 C24 1_555 1_555
H29 C34 1_555 1_555
C35 C29 1_555 1_555
H30 C35 1_555 1_555
C36 C22 1_555 1_555
N2 C36 1_555 1_555
C8 C10 1_555 1_555
C9 C14 1_555 1_555
C15 C16 1_555 1_555
C21 C31 1_555 1_555
C23 C25 1_555 1_555
C23 C26 1_555 1_555
C27 C28 1_555 1_555
C30 C34 1_555 1_555
C32 C35 1_555 1_555

#END
