
#######################################################################
#
#                 Cambridge Crystallographic Data Centre
#                                CCDC 
#
#######################################################################
#
# If this CIF has been generated from an entry in the Cambridge 
# Structural Database, then it will include bibliographic, chemical, 
# crystal, experimental, refinement or atomic coordinate data resulting 
# from the CCDC's data processing and validation procedures.
#
#######################################################################

data_HUYKIX
_chemical_formula_moiety         'C19 H13 F1 O2'
_chemical_name_systematic        
3-(4-Fluorophenyl)-2-(2-hydroxy-1-naphthyl)acrylaldehyde
_symmetry_cell_setting           monoclinic
_symmetry_space_group_name_H-M   'P 21/n'
_symmetry_Int_Tables_number      14
_space_group_name_Hall           '-P 2yn'
loop_
_symmetry_equiv_pos_site_id
_symmetry_equiv_pos_as_xyz
1 x,y,z
2 1/2-x,1/2+y,1/2-z
3 -x,-y,-z
4 1/2+x,1/2-y,1/2+z
_cell_length_a                   7.570(4)
_cell_length_b                   10.796(6)
_cell_length_c                   17.129(9)
_cell_angle_alpha                90
_cell_angle_beta                 92.175(10)
_cell_angle_gamma                90
_cell_volume                     1398.87
_exptl_crystal_colour            brown
_exptl_crystal_description       prismatic
_cell_formula_units_Z            4
loop_
_atom_site_label
_atom_site_type_symbol
_atom_site_fract_x
_atom_site_fract_y
_atom_site_fract_z
F1 F 1.00302(14) 1.26811(8) -0.00974(6)
O1 O 0.41826(13) 0.65747(9) 0.22182(6)
O2 O 0.31409(12) 0.97243(9) 0.22149(6)
H1 H 0.2405 1.0128 0.2445
C1 C 0.47560(17) 0.70747(12) 0.16459(8)
H2 H 0.4554 0.6684 0.1167
C2 C 0.57358(15) 0.82369(11) 0.16479(7)
C3 C 0.62703(16) 0.86224(11) 0.09460(7)
H3 H 0.5957 0.8093 0.0536
C4 C 0.72451(16) 0.97126(11) 0.07122(7)
C5 C 0.81450(17) 1.05127(11) 0.12277(7)
H4 H 0.8109 1.0374 0.1763
C6 C 0.90857(18) 1.15045(12) 0.09578(8)
H5 H 0.9707 1.2024 0.1303
C7 C 0.90870(18) 1.17097(12) 0.01680(8)
C8 C 0.82159(18) 1.09675(13) -0.03642(8)
H6 H 0.8235 1.1135 -0.0896
C9 C 0.73078(17) 0.99621(13) -0.00890(7)
H7 H 0.6723 0.9437 -0.0443
C10 C 0.59719(15) 0.88779(10) 0.24121(7)
C11 C 0.75231(16) 0.87035(10) 0.28922(7)
C12 C 0.89782(17) 0.79961(13) 0.26518(8)
H8 H 0.8941 0.7635 0.2158
C13 C 1.04341(19) 0.78366(16) 0.31338(10)
H9 H 1.1383 0.7375 0.2964
C14 C 1.0517(2) 0.83576(16) 0.38804(10)
H10 H 1.1515 0.8240 0.4206
C15 C 0.9139(2) 0.90370(14) 0.41310(9)
H11 H 0.9197 0.9370 0.4632
C16 C 0.76266(18) 0.92463(11) 0.36470(7)
C17 C 0.6196(2) 0.99598(13) 0.38948(8)
H12 H 0.6258 1.0322 0.4388
C18 C 0.4734(2) 1.01274(12) 0.34299(8)
H13 H 0.3806 1.0607 0.3603
C19 C 0.46105(16) 0.95777(11) 0.26850(7)
loop_
_geom_bond_atom_site_label_1
_geom_bond_atom_site_label_2
_geom_bond_site_symmetry_1
_geom_bond_site_symmetry_2
F1 C7 1_555 1_555
O1 C1 1_555 1_555
O2 H1 1_555 1_555
C1 H2 1_555 1_555
C2 C1 1_555 1_555
C3 C2 1_555 1_555
H3 C3 1_555 1_555
C4 C3 1_555 1_555
C5 C4 1_555 1_555
H4 C5 1_555 1_555
C6 C5 1_555 1_555
H5 C6 1_555 1_555
C7 C6 1_555 1_555
C8 C7 1_555 1_555
H6 C8 1_555 1_555
C9 C4 1_555 1_555
H7 C9 1_555 1_555
C10 C2 1_555 1_555
C11 C10 1_555 1_555
C12 C11 1_555 1_555
H8 C12 1_555 1_555
C13 C12 1_555 1_555
H9 C13 1_555 1_555
C14 C13 1_555 1_555
H10 C14 1_555 1_555
C15 C14 1_555 1_555
H11 C15 1_555 1_555
C16 C11 1_555 1_555
C17 C16 1_555 1_555
H12 C17 1_555 1_555
C18 C17 1_555 1_555
H13 C18 1_555 1_555
C19 O2 1_555 1_555
C8 C9 1_555 1_555
C10 C19 1_555 1_555
C15 C16 1_555 1_555
C18 C19 1_555 1_555

#END
