
#######################################################################
#
#                 Cambridge Crystallographic Data Centre
#                                CCDC 
#
#######################################################################
#
# If this CIF has been generated from an entry in the Cambridge 
# Structural Database, then it will include bibliographic, chemical, 
# crystal, experimental, refinement or atomic coordinate data resulting 
# from the CCDC's data processing and validation procedures.
#
#######################################################################

data_HUYZIM
_chemical_formula_moiety         'C19 H17 F1 O2'
_chemical_name_systematic        
1-(4-Fluorophenyl)-6,7-dimethoxy-4-methylnaphthalene
_symmetry_cell_setting           monoclinic
_symmetry_space_group_name_H-M   'P 21/n'
_symmetry_Int_Tables_number      14
_space_group_name_Hall           '-P 2yn'
loop_
_symmetry_equiv_pos_site_id
_symmetry_equiv_pos_as_xyz
1 x,y,z
2 1/2-x,1/2+y,1/2-z
3 -x,-y,-z
4 1/2+x,1/2-y,1/2+z
_cell_length_a                   7.9051(2)
_cell_length_b                   20.8558(5)
_cell_length_c                   9.2103(3)
_cell_angle_alpha                90
_cell_angle_beta                 105.7980(10)
_cell_angle_gamma                90
_cell_volume                     1461.12
_exptl_crystal_colour            colorless
_cell_formula_units_Z            4
loop_
_atom_site_label
_atom_site_type_symbol
_atom_site_fract_x
_atom_site_fract_y
_atom_site_fract_z
C1 C 0.6589(2) 0.27105(7) 0.25479(16)
C2 C 0.80624(19) 0.30279(7) 0.33716(17)
H1 H 0.9136 0.3005 0.3099
C3 C 0.79396(18) 0.33822(7) 0.46093(17)
H2 H 0.8945 0.3605 0.5191
C4 C 0.63644(18) 0.34196(6) 0.50222(16)
C5 C 0.48852(18) 0.31063(7) 0.41222(16)
H3 H 0.3795 0.3138 0.4365
C6 C 0.49896(19) 0.27495(7) 0.28773(17)
H4 H 0.3983 0.2537 0.2266
C7 C 0.63377(18) 0.37244(7) 0.64779(16)
C8 C 0.69292(17) 0.43662(7) 0.68689(16)
C9 C 0.73329(17) 0.47945(7) 0.58090(16)
H5 H 0.7208 0.4652 0.4805
C10 C 0.78972(17) 0.54066(7) 0.62020(16)
C11 C 0.81338(18) 0.56212(7) 0.77175(17)
C12 C 0.77230(18) 0.52253(7) 0.87506(17)
H6 H 0.7873 0.5374 0.9752
C13 C 0.70740(17) 0.45938(7) 0.83607(16)
C14 C 0.65512(18) 0.41945(7) 0.94210(16)
C15 C 0.58932(19) 0.35935(7) 0.89687(17)
H7 H 0.5488 0.3332 0.9649
C16 C 0.58100(19) 0.33610(7) 0.75178(17)
H8 H 0.5376 0.2940 0.7250
C17 C 0.6747(2) 0.44173(8) 1.10130(17)
H9 H 0.6202 0.4104 1.1539
H10 H 0.6170 0.4834 1.0995
H11 H 0.7999 0.4458 1.1542
C18 C 0.79613(19) 0.56697(7) 0.37067(16)
H12 H 0.8755 0.5318 0.3627
H13 H 0.8174 0.6037 0.3118
H14 H 0.6740 0.5528 0.3316
C19 C 0.8981(2) 0.64732(8) 0.94919(18)
H15 H 0.7840 0.6474 0.9721
H16 H 0.9442 0.6911 0.9560
H17 H 0.9804 0.6199 1.0218
F1 F 0.67080(12) 0.23462(4) 0.13490(10)
O1 O 0.82761(13) 0.58529(5) 0.52555(11)
O2 O 0.87677(13) 0.62315(5) 0.79953(12)
loop_
_geom_bond_atom_site_label_1
_geom_bond_atom_site_label_2
_geom_bond_site_symmetry_1
_geom_bond_site_symmetry_2
C1 C2 1_555 1_555
C2 H1 1_555 1_555
C3 C2 1_555 1_555
H2 C3 1_555 1_555
C4 C3 1_555 1_555
C5 C4 1_555 1_555
H3 C5 1_555 1_555
C6 C1 1_555 1_555
H4 C6 1_555 1_555
C7 C4 1_555 1_555
C8 C7 1_555 1_555
C9 C8 1_555 1_555
H5 C9 1_555 1_555
C10 C9 1_555 1_555
C11 C10 1_555 1_555
C12 C11 1_555 1_555
H6 C12 1_555 1_555
C13 C8 1_555 1_555
C14 C13 1_555 1_555
C15 C14 1_555 1_555
H7 C15 1_555 1_555
C16 C7 1_555 1_555
H8 C16 1_555 1_555
C17 C14 1_555 1_555
H9 C17 1_555 1_555
H10 C17 1_555 1_555
H11 C17 1_555 1_555
C18 H12 1_555 1_555
H13 C18 1_555 1_555
H14 C18 1_555 1_555
C19 H15 1_555 1_555
H16 C19 1_555 1_555
H17 C19 1_555 1_555
F1 C1 1_555 1_555
O1 C10 1_555 1_555
O2 C11 1_555 1_555
C5 C6 1_555 1_555
C12 C13 1_555 1_555
C15 C16 1_555 1_555
C18 O1 1_555 1_555
C19 O2 1_555 1_555

#END
