
#######################################################################
#
#                 Cambridge Crystallographic Data Centre
#                                CCDC 
#
#######################################################################
#
# If this CIF has been generated from an entry in the Cambridge 
# Structural Database, then it will include bibliographic, chemical, 
# crystal, experimental, refinement or atomic coordinate data resulting 
# from the CCDC's data processing and validation procedures.
#
#######################################################################

data_HUZDAH
_chemical_formula_moiety         'C25 H29 N1 O4'
_chemical_name_systematic        
(6R,9S,13R,14S)-7,8-Didehydro-3,7-dimethoxy-17-methyl-6-phenylmorphinan-4,6-diol
_symmetry_cell_setting           orthorhombic
_symmetry_space_group_name_H-M   'P 21 21 21'
_symmetry_Int_Tables_number      19
_space_group_name_Hall           'P 2ac 2ab'
loop_
_symmetry_equiv_pos_site_id
_symmetry_equiv_pos_as_xyz
1 x,y,z
2 1/2-x,-y,1/2+z
3 -x,1/2+y,1/2-z
4 1/2+x,1/2-y,-z
_cell_length_a                   11.710(4)
_cell_length_b                   13.177(4)
_cell_length_c                   14.236(5)
_cell_angle_alpha                90
_cell_angle_beta                 90
_cell_angle_gamma                90
_cell_volume                     2196.65
_exptl_crystal_colour            colorless
_exptl_crystal_description       prism
_chemical_melting_point          496-498K
_cell_formula_units_Z            4
loop_
_atom_site_label
_atom_site_type_symbol
_atom_site_fract_x
_atom_site_fract_y
_atom_site_fract_z
O1 O 0.3717(2) 0.0639(2) 0.8426(2)
O2 O 0.22427(19) 0.08576(19) 0.98279(18)
H1 H 0.2952 0.0901 0.9984
O3 O 0.0416(2) -0.05640(18) 0.89809(16)
H2 H 0.0922 -0.0116 0.8920
O4 O -0.1773(2) -0.05356(19) 0.82172(17)
C1 C 0.1483(4) 0.2160(3) 0.7274(3)
H3 H 0.1326 0.2475 0.6704
C2 C 0.2492(4) 0.1642(3) 0.7382(3)
H4 H 0.3001 0.1590 0.6883
C3 C 0.2746(3) 0.1205(3) 0.8224(3)
C4 C 0.1975(3) 0.1274(3) 0.8981(3)
C5 C -0.0178(3) 0.0729(2) 1.0138(2)
H5 H -0.0756 0.0813 1.0619
H6 H 0.0526 0.0532 1.0449
C6 C -0.0550(3) -0.0141(3) 0.9477(2)
C7 C -0.1394(3) 0.0253(3) 0.8766(2)
C8 C -0.1695(3) 0.1214(3) 0.8682(3)
H7 H -0.2255 0.1382 0.8246
C9 C -0.1084(3) 0.3043(3) 0.8713(3)
H8 H -0.1857 0.3221 0.8506
C10 C -0.0373(3) 0.2857(3) 0.7832(3)
H9 H -0.0846 0.2517 0.7370
H10 H -0.0149 0.3507 0.7571
C11 C 0.0695(3) 0.2223(3) 0.7998(3)
C12 C 0.0904(3) 0.1740(3) 0.8851(2)
C13 C 0.0011(3) 0.1753(3) 0.9651(2)
C14 C -0.1173(3) 0.2049(2) 0.9262(3)
H11 H -0.1677 0.2169 0.9800
C15 C 0.0344(3) 0.2595(2) 1.0353(2)
H12 H -0.0206 0.2613 1.0863
H13 H 0.1088 0.2446 1.0619
C16 C 0.0378(3) 0.3625(2) 0.9871(3)
H14 H 0.0519 0.4147 1.0336
H15 H 0.1004 0.3636 0.9425
N1 N -0.0700(2) 0.3855(2) 0.9371(2)
C17 C -0.0633(4) 0.4851(3) 0.8911(3)
H16 H -0.0379 0.5350 0.9356
H17 H -0.1373 0.5036 0.8677
H18 H -0.0102 0.4817 0.8398
C18 C -0.2516(4) -0.0313(4) 0.7467(3)
H19 H -0.2706 -0.0928 0.7140
H20 H -0.2149 0.0149 0.7041
H21 H -0.3201 -0.0007 0.7707
C20 C 0.4234(14) 0.0118(17) 0.7662(8)
H25 H 0.3917 -0.0552 0.7614
H26 H 0.5042 0.0071 0.7765
H27 H 0.4092 0.0483 0.7090
C21 C -0.1060(3) -0.1018(3) 1.0047(3)
C22 C -0.2216(4) -0.1079(3) 1.0232(3)
H28 H -0.2698 -0.0568 1.0017
C23 C -0.2670(5) -0.1881(4) 1.0727(4)
H29 H -0.3450 -0.1901 1.0849
C24 C -0.1995(7) -0.2637(4) 1.1035(4)
H30 H -0.2313 -0.3187 1.1351
C25 C -0.0833(6) -0.2597(4) 1.0885(4)
H31 H -0.0361 -0.3104 1.1120
C26 C -0.0365(4) -0.1779(3) 1.0371(3)
H32 H 0.0415 -0.1756 1.0252
C19? C 0.4514(13) 0.055(2) 0.7696(10)
H22? H 0.4928 0.1178 0.7635
H23? H 0.4123 0.0408 0.7119
H24? H 0.5038 0.0012 0.7835
loop_
_geom_bond_atom_site_label_1
_geom_bond_atom_site_label_2
_geom_bond_site_symmetry_1
_geom_bond_site_symmetry_2
O1 C3 1_555 1_555
O2 H1 1_555 1_555
O3 H2 1_555 1_555
O4 C7 1_555 1_555
C1 H3 1_555 1_555
C2 C1 1_555 1_555
H4 C2 1_555 1_555
C3 C2 1_555 1_555
C4 O2 1_555 1_555
C5 H5 1_555 1_555
H6 C5 1_555 1_555
C6 O3 1_555 1_555
C7 C6 1_555 1_555
C8 C7 1_555 1_555
H7 C8 1_555 1_555
C9 H8 1_555 1_555
C10 C9 1_555 1_555
H9 C10 1_555 1_555
H10 C10 1_555 1_555
C11 C1 1_555 1_555
C12 C4 1_555 1_555
C13 C5 1_555 1_555
C14 C8 1_555 1_555
H11 C14 1_555 1_555
C15 C13 1_555 1_555
H12 C15 1_555 1_555
H13 C15 1_555 1_555
C16 C15 1_555 1_555
H14 C16 1_555 1_555
H15 C16 1_555 1_555
N1 C9 1_555 1_555
C17 N1 1_555 1_555
H16 C17 1_555 1_555
H17 C17 1_555 1_555
H18 C17 1_555 1_555
C18 O4 1_555 1_555
H19 C18 1_555 1_555
H20 C18 1_555 1_555
H21 C18 1_555 1_555
C20 O1 1_555 1_555
H25 C20 1_555 1_555
H26 C20 1_555 1_555
H27 C20 1_555 1_555
C21 C6 1_555 1_555
C22 C21 1_555 1_555
H28 C22 1_555 1_555
C23 C22 1_555 1_555
H29 C23 1_555 1_555
C24 C23 1_555 1_555
H30 C24 1_555 1_555
C25 C24 1_555 1_555
H31 C25 1_555 1_555
C26 C21 1_555 1_555
H32 C26 1_555 1_555
C3 C4 1_555 1_555
C5 C6 1_555 1_555
C9 C14 1_555 1_555
C10 C11 1_555 1_555
C11 C12 1_555 1_555
C12 C13 1_555 1_555
C13 C14 1_555 1_555
C16 N1 1_555 1_555
C25 C26 1_555 1_555

#END
