
#######################################################################
#
#                 Cambridge Crystallographic Data Centre
#                                CCDC 
#
#######################################################################
#
# If this CIF has been generated from an entry in the Cambridge 
# Structural Database, then it will include bibliographic, chemical, 
# crystal, experimental, refinement or atomic coordinate data resulting 
# from the CCDC's data processing and validation procedures.
#
#######################################################################

data_HUZGEO
_chemical_formula_moiety         'C16 H19 N3 O3'
_chemical_name_systematic        
8-(N-(t-Butoxycarbonyl)-L-glycyl)quinolin-8-amine
_symmetry_cell_setting           triclinic
_symmetry_space_group_name_H-M   'P -1'
_symmetry_Int_Tables_number      2
_space_group_name_Hall           '-P 1'
loop_
_symmetry_equiv_pos_site_id
_symmetry_equiv_pos_as_xyz
1 x,y,z
2 -x,-y,-z
_cell_length_a                   11.430(2)
_cell_length_b                   12.240(2)
_cell_length_c                   12.960(3)
_cell_angle_alpha                65.33(3)
_cell_angle_beta                 80.60(3)
_cell_angle_gamma                69.44(3)
_cell_volume                     1542.41
_exptl_crystal_colour            brown
_exptl_crystal_description       block
_cell_formula_units_Z            4
_exptl_crystal_recrystallization_method THF/ethanol
loop_
_atom_site_label
_atom_site_type_symbol
_atom_site_fract_x
_atom_site_fract_y
_atom_site_fract_z
O1 O 0.36052(18) 0.2795(2) 0.06456(16)
O2 O 0.1324(2) 0.61749(19) -0.06096(15)
O3 O 0.22243(16) 0.67086(16) 0.04713(14)
N1 N 0.0626(2) 0.2917(2) -0.17444(17)
N2 N 0.20043(19) 0.2887(2) -0.02537(18)
H1 H 0.1203 0.3164 -0.0295
N3 N 0.1911(2) 0.48488(19) 0.11670(17)
H2 H 0.2218 0.4732 0.1782
C1 C -0.0064(3) 0.2960(3) -0.2491(2)
H3 H -0.0914 0.3398 -0.2497
C2 C 0.0399(3) 0.2392(3) -0.3272(2)
H4 H -0.0134 0.2452 -0.3777
C3 C 0.1634(3) 0.1754(3) -0.3288(2)
H5 H 0.1957 0.1373 -0.3807
C4 C 0.2427(2) 0.1669(2) -0.2512(2)
C5 C 0.3719(3) 0.1022(3) -0.2457(2)
H6 H 0.4095 0.0624 -0.2956
C6 C 0.4416(3) 0.0977(3) -0.1682(3)
H7 H 0.5267 0.0533 -0.1647
C7 C 0.3883(2) 0.1587(2) -0.0927(2)
H8 H 0.4385 0.1551 -0.0409
C8 C 0.2635(2) 0.2230(2) -0.0951(2)
C9 C 0.1869(2) 0.2280(2) -0.17500(19)
C10 C 0.2488(2) 0.3142(2) 0.0477(2)
C11 C 0.1538(2) 0.3866(2) 0.1114(2)
H9 H 0.0740 0.4242 0.0741
H10 H 0.1429 0.3282 0.1879
C12 C 0.1783(2) 0.5940(2) 0.0269(2)
C13 C 0.2193(2) 0.7969(2) -0.0400(2)
C14 C 0.2676(4) 0.8516(3) 0.0228(3)
H11 H 0.2110 0.8608 0.0842
H12 H 0.2741 0.9330 -0.0283
H13 H 0.3485 0.7958 0.0524
C15 C 0.3061(4) 0.7822(4) -0.1376(3)
H14 H 0.2744 0.7466 -0.1761
H15 H 0.3876 0.7271 -0.1092
H16 H 0.3116 0.8637 -0.1897
C16 C 0.0882(3) 0.8761(3) -0.0770(3)
H17 H 0.0364 0.8815 -0.0120
H18 H 0.0568 0.8380 -0.1132
H19 H 0.0872 0.9596 -0.1295
O4 O 0.24428(19) 0.3865(2) 0.35994(16)
O5 O 0.3242(2) 0.0671(2) 0.47763(17)
O6 O 0.30002(18) 0.06023(19) 0.30994(16)
N4 N 0.5007(2) 0.3764(2) 0.63094(18)
N5 N 0.3786(2) 0.3532(2) 0.48825(17)
H20 H 0.4550 0.3139 0.5090
N6 N 0.4049(2) 0.1789(2) 0.31330(18)
H21 H 0.4192 0.1938 0.2422
C17 C 0.5631(3) 0.3822(3) 0.7043(2)
H22 H 0.6494 0.3442 0.7065
C18 C 0.5073(3) 0.4422(3) 0.7790(2)
H23 H 0.5554 0.4426 0.8302
C19 C 0.3825(3) 0.4998(3) 0.7760(2)
H24 H 0.3439 0.5387 0.8264
C20 C 0.3105(3) 0.5011(2) 0.6965(2)
C21 C 0.1801(3) 0.5606(3) 0.6856(2)
H25 H 0.1364 0.6037 0.7316
C22 C 0.1187(3) 0.5548(3) 0.6081(2)
H26 H 0.0330 0.5952 0.6011
C23 C 0.1809(3) 0.4892(3) 0.5376(2)
H27 H 0.1365 0.4870 0.4849
C24 C 0.3071(2) 0.4287(2) 0.5472(2)
C25 C 0.3752(2) 0.4354(2) 0.62616(19)
C26 C 0.3465(2) 0.3325(2) 0.4042(2)
C27 C 0.4502(3) 0.2383(3) 0.3666(2)
H28 H 0.5055 0.2816 0.3136
H29 H 0.4986 0.1733 0.4321
C28 C 0.3403(3) 0.1002(3) 0.3762(2)
C29 C 0.2032(3) -0.0028(3) 0.3500(3)
C30 C 0.2455(4) -0.1258(3) 0.4523(3)
H30 H 0.2516 -0.1079 0.5163
H31 H 0.3257 -0.1771 0.4361
H32 H 0.1859 -0.1705 0.4695
C31 C 0.0849(3) 0.0882(3) 0.3736(3)
H33 H 0.0613 0.1642 0.3063
H34 H 0.0982 0.1085 0.4338
H35 H 0.0195 0.0501 0.3956
C32 C 0.1912(3) -0.0287(4) 0.2487(3)
H36 H 0.1642 0.0500 0.1845
H37 H 0.1311 -0.0727 0.2658
H38 H 0.2708 -0.0800 0.2313
loop_
_geom_bond_atom_site_label_1
_geom_bond_atom_site_label_2
_geom_bond_site_symmetry_1
_geom_bond_site_symmetry_2
O1 C10 1_555 1_555
O2 C12 1_555 1_555
O3 C12 1_555 1_555
N1 C1 1_555 1_555
N2 H1 1_555 1_555
N3 H2 1_555 1_555
C1 H3 1_555 1_555
C2 C1 1_555 1_555
H4 C2 1_555 1_555
C3 C2 1_555 1_555
H5 C3 1_555 1_555
C4 C3 1_555 1_555
C5 C4 1_555 1_555
H6 C5 1_555 1_555
C6 C5 1_555 1_555
H7 C6 1_555 1_555
C7 C6 1_555 1_555
H8 C7 1_555 1_555
C8 N2 1_555 1_555
C9 N1 1_555 1_555
C10 N2 1_555 1_555
C11 N3 1_555 1_555
H9 C11 1_555 1_555
H10 C11 1_555 1_555
C12 N3 1_555 1_555
C13 O3 1_555 1_555
C14 C13 1_555 1_555
H11 C14 1_555 1_555
H12 C14 1_555 1_555
H13 C14 1_555 1_555
C15 C13 1_555 1_555
H14 C15 1_555 1_555
H15 C15 1_555 1_555
H16 C15 1_555 1_555
C16 C13 1_555 1_555
H17 C16 1_555 1_555
H18 C16 1_555 1_555
H19 C16 1_555 1_555
O4 C26 1_555 1_555
O5 C28 1_555 1_555
O6 C28 1_555 1_555
N4 C17 1_555 1_555
N5 H20 1_555 1_555
N6 H21 1_555 1_555
C17 H22 1_555 1_555
C18 C17 1_555 1_555
H23 C18 1_555 1_555
C19 C18 1_555 1_555
H24 C19 1_555 1_555
C20 C19 1_555 1_555
C21 C20 1_555 1_555
H25 C21 1_555 1_555
C22 C21 1_555 1_555
H26 C22 1_555 1_555
C23 C22 1_555 1_555
H27 C23 1_555 1_555
C24 N5 1_555 1_555
C25 N4 1_555 1_555
C26 N5 1_555 1_555
C27 N6 1_555 1_555
H28 C27 1_555 1_555
H29 C27 1_555 1_555
C28 N6 1_555 1_555
C29 O6 1_555 1_555
C30 C29 1_555 1_555
H30 C30 1_555 1_555
H31 C30 1_555 1_555
H32 C30 1_555 1_555
C31 C29 1_555 1_555
H33 C31 1_555 1_555
H34 C31 1_555 1_555
H35 C31 1_555 1_555
C32 C29 1_555 1_555
H36 C32 1_555 1_555
H37 C32 1_555 1_555
H38 C32 1_555 1_555
C4 C9 1_555 1_555
C7 C8 1_555 1_555
C8 C9 1_555 1_555
C10 C11 1_555 1_555
C20 C25 1_555 1_555
C23 C24 1_555 1_555
C24 C25 1_555 1_555
C26 C27 1_555 1_555

#END
