
#######################################################################
#
#                 Cambridge Crystallographic Data Centre
#                                CCDC 
#
#######################################################################
#
# If this CIF has been generated from an entry in the Cambridge 
# Structural Database, then it will include bibliographic, chemical, 
# crystal, experimental, refinement or atomic coordinate data resulting 
# from the CCDC's data processing and validation procedures.
#
#######################################################################

data_HUZLIX
_chemical_formula_moiety         'C9 H7 N3 O1 S2'
_chemical_name_systematic        
5-((2-Hydroxyphenyl)methyleneamino)-1,3,4-thiadiazole-2(3H)-thione
_chemical_properties_biological  'possible biological activity'
_symmetry_cell_setting           monoclinic
_symmetry_space_group_name_H-M   'P 21/c'
_symmetry_Int_Tables_number      14
_space_group_name_Hall           '-P 2ybc'
loop_
_symmetry_equiv_pos_site_id
_symmetry_equiv_pos_as_xyz
1 x,y,z
2 x,1/2-y,1/2+z
3 -x,-y,-z
4 -x,1/2+y,1/2-z
_cell_length_a                   6.587(3)
_cell_length_b                   13.723(5)
_cell_length_c                   11.758(5)
_cell_angle_alpha                90
_cell_angle_beta                 99.183(6)
_cell_angle_gamma                90
_cell_volume                     1049.22
_exptl_crystal_colour            yellow
_exptl_crystal_description       block
_cell_formula_units_Z            4
_exptl_crystal_recrystallization_method 'hot ethanol'
loop_
_atom_site_label
_atom_site_type_symbol
_atom_site_fract_x
_atom_site_fract_y
_atom_site_fract_z
S1 S 0.02404(9) 0.41301(5) 0.69266(5)
S2 S -0.37268(10) 0.52545(5) 0.68937(5)
N1 N -0.1020(3) 0.36578(15) 0.48081(15)
N2 N 0.2126(3) 0.29468(14) 0.54584(15)
N3 N -0.2447(3) 0.42387(14) 0.51818(15)
H1 H -0.3548 0.4395 0.4721
C1 C 0.5334(3) 0.21686(16) 0.61021(17)
C2 C 0.6984(4) 0.20360(16) 0.70044(19)
H2 H 0.6946 0.2334 0.7711
C3 C 0.3638(3) 0.27793(16) 0.62733(18)
H3 H 0.3632 0.3061 0.6992
C4 C 0.0505(4) 0.35235(16) 0.56372(17)
C5 C -0.2142(3) 0.45686(16) 0.62677(18)
C6 C 0.5415(4) 0.16994(19) 0.50441(19)
C7 C 0.8644(4) 0.14782(18) 0.6865(2)
H4 H 0.9729 0.1402 0.7469
O1 O 0.3886(3) 0.17983(17) 0.41334(14)
H5 H 0.2950 0.2121 0.4326
C8 C 0.8696(5) 0.10311(19) 0.5824(2)
H6 H 0.9835 0.0658 0.5727
C9 C 0.7088(5) 0.1126(2) 0.4918(2)
H7 H 0.7134 0.0804 0.4226
loop_
_geom_bond_atom_site_label_1
_geom_bond_atom_site_label_2
_geom_bond_site_symmetry_1
_geom_bond_site_symmetry_2
S1 C4 1_555 1_555
S2 C5 1_555 1_555
N1 N3 1_555 1_555
N2 C3 1_555 1_555
N3 H1 1_555 1_555
C1 C2 1_555 1_555
C2 H2 1_555 1_555
C3 C1 1_555 1_555
H3 C3 1_555 1_555
C4 N1 1_555 1_555
C5 S1 1_555 1_555
C6 C1 1_555 1_555
C7 C2 1_555 1_555
H4 C7 1_555 1_555
O1 C6 1_555 1_555
H5 O1 1_555 1_555
C8 C7 1_555 1_555
H6 C8 1_555 1_555
C9 C6 1_555 1_555
H7 C9 1_555 1_555
N2 C4 1_555 1_555
N3 C5 1_555 1_555
C8 C9 1_555 1_555

#END
