
#######################################################################
#
#                 Cambridge Crystallographic Data Centre
#                                CCDC 
#
#######################################################################
#
# If this CIF has been generated from an entry in the Cambridge 
# Structural Database, then it will include bibliographic, chemical, 
# crystal, experimental, refinement or atomic coordinate data resulting 
# from the CCDC's data processing and validation procedures.
#
#######################################################################

data_HUZMUM
_chemical_formula_moiety         'C42 H30 S18'
_chemical_name_systematic        
2,9,16-tris(4,5-bis(ethylsulfanyl)-1,3-dithiol-2-ylidene)-4,5,6,7,11,12,13,14,18,19,20,21-dodecadehydrobis[1,3]dithiolo[13,14:7,8]cyclooctadeca[1,2-d][1,3]dithiole
_symmetry_cell_setting           triclinic
_symmetry_space_group_name_H-M   'P -1'
_symmetry_Int_Tables_number      2
_space_group_name_Hall           '-P 1'
loop_
_symmetry_equiv_pos_site_id
_symmetry_equiv_pos_as_xyz
1 x,y,z
2 -x,-y,-z
_cell_length_a                   10.5994(8)
_cell_length_b                   14.6173(14)
_cell_length_c                   16.0206(13)
_cell_angle_alpha                91.305(3)
_cell_angle_beta                 90.921(3)
_cell_angle_gamma                103.620(4)
_cell_volume                     2411.13
_exptl_crystal_colour            orange
_exptl_crystal_description       needle
_cell_formula_units_Z            2
loop_
_atom_site_label
_atom_site_type_symbol
_atom_site_fract_x
_atom_site_fract_y
_atom_site_fract_z
S1 S 0.17296(11) 0.37413(9) -0.14998(6)
S2 S 0.33544(11) 0.41427(9) 0.00590(6)
S3 S 0.33719(11) 0.32592(9) 0.26583(6)
S4 S 0.43455(11) 0.26844(9) 0.79033(6)
S5 S 0.37273(11) 0.16178(9) 0.97510(7)
S6 S 0.30997(12) 0.06710(10) 1.13833(7)
S7 S 1.77847(12) 1.01744(9) 0.39383(7)
S8 S 1.50938(11) 0.90057(9) 0.41675(7)
S9 S 1.55322(11) 0.86865(9) 0.59501(7)
S10 S 1.82641(12) 0.98800(9) 0.59698(7)
S11 S 1.22515(11) 0.76426(9) 0.42041(7)
S12 S 0.53616(11) 0.45817(9) 0.17099(6)
S13 S 1.26625(11) 0.72357(9) 0.59800(6)
S14 S 0.68444(11) 0.37472(9) 0.86573(6)
S15 S 0.59875(12) 0.20439(10) 1.20777(7)
S16 S 0.62558(12) 0.27663(10) 1.03498(7)
S17 S -0.05047(11) 0.23014(9) -0.02835(7)
S18 S 0.14802(11) 0.28418(9) 0.10841(6)
C1 C 0.0903(6) 0.5361(4) -0.1111(4)
H1 H 0.112(4) 0.5310(5) -0.0533(7)
H2 H 0.164(2) 0.5722(10) -0.1391(16)
H3 H 0.0198(14) 0.5668(11) -0.115(2)
C2 C 0.0505(5) 0.4404(4) -0.1507(3)
H4 H 0.0242(5) 0.4465(4) -0.2082(3)
H5 H -0.0247(5) 0.4050(4) -0.1222(3)
C3 C 0.1891(4) 0.3539(3) -0.0431(2)
C4 C 0.3013(4) 0.3628(3) 0.1042(2)
C5 C 0.3813(4) 0.3814(3) 0.1708(2)
C6 C 0.4679(4) 0.3954(3) 0.3233(2)
C7 C 0.4739(4) 0.3846(3) 0.4099(3)
C8 C 0.4785(4) 0.3729(3) 0.4844(3)
C9 C 0.4934(4) 0.3584(3) 0.5669(3)
C10 C 0.5122(4) 0.3456(3) 0.6395(3)
C11 C 0.5452(4) 0.3389(3) 0.7239(2)
C12 C 0.5394(4) 0.2889(3) 0.8782(2)
C13 C 0.5139(4) 0.2457(3) 0.9511(2)
C14 C 0.4212(4) 0.1464(3) 1.0787(2)
C15 C 0.3902(6) -0.0289(4) 1.1474(3)
H6 H 0.3966(6) -0.0566(4) 1.0925(3)
H7 H 0.4775(6) -0.0049(4) 1.1700(3)
C16 C 0.3167(5) -0.1027(4) 1.2031(3)
H8 H 0.300(3) -0.0738(5) 1.2549(8)
H9 H 0.2357(14) -0.1337(15) 1.1763(8)
H10 H 0.3670(13) -0.1480(12) 1.2138(15)
C17 C 1.8363(5) 0.8442(4) 0.3513(3)
H11 H 1.9159(14) 0.8649(4) 0.3831(14)
H12 H 1.7697(12) 0.8110(11) 0.3868(14)
H13 H 1.849(3) 0.8032(10) 0.3062(3)
C18 C 1.7961(5) 0.9289(4) 0.3165(3)
H14 H 1.7140(5) 0.9071(4) 0.2863(3)
H15 H 1.8601(5) 0.9582(4) 0.2767(3)
C19 C 1.6642(4) 0.9488(3) 0.4595(3)
C20 C 1.4488(4) 0.8414(3) 0.5075(2)
C21 C 1.6855(4) 0.9358(3) 0.5407(3)
C22 C 1.8612(5) 0.8887(4) 0.6500(3)
H16 H 1.9371(5) 0.9109(4) 0.6861(3)
H17 H 1.7887(5) 0.8621(4) 0.6851(3)
C23 C 1.8852(5) 0.8125(4) 0.5921(3)
H18 H 1.8089(11) 0.7878(15) 0.5580(13)
H19 H 1.9568(19) 0.8381(6) 0.5570(13)
H20 H 1.905(3) 0.7629(11) 0.6242(3)
C24 C 1.3303(4) 0.7848(3) 0.5084(2)
C25 C 1.0985(4) 0.6858(3) 0.4691(3)
C26 C 0.9840(4) 0.6456(3) 0.4241(3)
C27 C 0.8843(4) 0.6058(3) 0.3888(3)
C28 C 0.7729(4) 0.5558(3) 0.3506(3)
C29 C 0.6754(5) 0.5105(3) 0.3168(2)
C30 C 0.5624(4) 0.4558(3) 0.2800(2)
C31 C 0.6603(4) 0.3871(3) 0.7588(2)
C32 C 0.7581(4) 0.4474(3) 0.7157(2)
C33 C 0.8440(5) 0.5003(3) 0.6795(3)
C34 C 0.9398(4) 0.5587(3) 0.6376(3)
C35 C 1.0239(4) 0.6094(3) 0.5984(3)
C36 C 1.1173(4) 0.6682(3) 0.5515(2)
C37 C 0.5350(4) 0.1998(3) 1.1062(2)
C38 C 0.7632(5) 0.1937(4) 1.1874(3)
H21 H 0.8046(5) 0.2439(4) 1.1514(3)
H22 H 0.8124(5) 0.2015(4) 1.2397(3)
C39 C 0.7674(5) 0.1001(4) 1.1469(3)
H23 H 0.720(3) 0.0499(4) 1.1798(11)
H24 H 0.729(3) 0.0955(10) 1.0918(8)
H25 H 0.8560(6) 0.0954(10) 1.1432(18)
C40 C 0.1039(4) 0.2952(3) 0.0029(2)
C41 C -0.0196(5) 0.1143(4) -0.0409(3)
H26 H 0.0374(5) 0.1048(4) 0.0044(3)
H27 H -0.1009(5) 0.0676(4) -0.0366(3)
C42 C 0.0419(5) 0.0987(4) -0.1237(3)
H28 H -0.0147(15) 0.107(2) -0.1689(3)
H29 H 0.1237(15) 0.1436(15) -0.1278(9)
H30 H 0.056(3) 0.0361(8) -0.1265(9)
loop_
_geom_bond_atom_site_label_1
_geom_bond_atom_site_label_2
_geom_bond_site_symmetry_1
_geom_bond_site_symmetry_2
S1 C2 1_555 1_555
S2 C3 1_555 1_555
S3 C5 1_555 1_555
S4 C11 1_555 1_555
S5 C13 1_555 1_555
S6 C14 1_555 1_555
S7 C18 1_555 1_555
S8 C19 1_555 1_555
S9 C20 1_555 1_555
S10 C21 1_555 1_555
S11 C24 1_555 1_555
S12 C5 1_555 1_555
S13 C24 1_555 1_555
S14 C12 1_555 1_555
S15 C37 1_555 1_555
S16 C13 1_555 1_555
S17 C40 1_555 1_555
S18 C4 1_555 1_555
C1 H1 1_555 1_555
H2 C1 1_555 1_555
H3 C1 1_555 1_555
C2 C1 1_555 1_555
H4 C2 1_555 1_555
H5 C2 1_555 1_555
C3 S1 1_555 1_555
C4 S2 1_555 1_555
C5 C4 1_555 1_555
C6 S3 1_555 1_555
C7 C6 1_555 1_555
C8 C7 1_555 1_555
C9 C8 1_555 1_555
C10 C9 1_555 1_555
C11 C10 1_555 1_555
C12 S4 1_555 1_555
C13 C12 1_555 1_555
C14 S5 1_555 1_555
C15 S6 1_555 1_555
H6 C15 1_555 1_555
H7 C15 1_555 1_555
C16 C15 1_555 1_555
H8 C16 1_555 1_555
H9 C16 1_555 1_555
H10 C16 1_555 1_555
C17 H11 1_555 1_555
H12 C17 1_555 1_555
H13 C17 1_555 1_555
C18 C17 1_555 1_555
H14 C18 1_555 1_555
H15 C18 1_555 1_555
C19 S7 1_555 1_555
C20 S8 1_555 1_555
C21 S9 1_555 1_555
C22 S10 1_555 1_555
H16 C22 1_555 1_555
H17 C22 1_555 1_555
C23 C22 1_555 1_555
H18 C23 1_555 1_555
H19 C23 1_555 1_555
H20 C23 1_555 1_555
C24 C20 1_555 1_555
C25 S11 1_555 1_555
C26 C25 1_555 1_555
C27 C26 1_555 1_555
C28 C27 1_555 1_555
C29 C28 1_555 1_555
C30 S12 1_555 1_555
C31 S14 1_555 1_555
C32 C31 1_555 1_555
C33 C32 1_555 1_555
C34 C33 1_555 1_555
C35 C34 1_555 1_555
C36 S13 1_555 1_555
C37 S16 1_555 1_555
C38 S15 1_555 1_555
H21 C38 1_555 1_555
H22 C38 1_555 1_555
C39 C38 1_555 1_555
H23 C39 1_555 1_555
H24 C39 1_555 1_555
H25 C39 1_555 1_555
C40 S18 1_555 1_555
C41 S17 1_555 1_555
H26 C41 1_555 1_555
H27 C41 1_555 1_555
C42 C41 1_555 1_555
H28 C42 1_555 1_555
H29 C42 1_555 1_555
H30 C42 1_555 1_555
C3 C40 1_555 1_555
C6 C30 1_555 1_555
C11 C31 1_555 1_555
C14 C37 1_555 1_555
C19 C21 1_555 1_555
C25 C36 1_555 1_555
C29 C30 1_555 1_555
C35 C36 1_555 1_555

#END
