
#######################################################################
#
#                 Cambridge Crystallographic Data Centre
#                                CCDC 
#
#######################################################################
#
# If this CIF has been generated from an entry in the Cambridge 
# Structural Database, then it will include bibliographic, chemical, 
# crystal, experimental, refinement or atomic coordinate data resulting 
# from the CCDC's data processing and validation procedures.
#
#######################################################################

data_HXCHOC
_chemical_formula_moiety         'C24 H40 O4'
_chemical_name_systematic        '3\a,6\a-Dihydroxy-5\b-cholan-24-oic acid'
_symmetry_cell_setting           orthorhombic
_symmetry_space_group_name_H-M   'P 21 21 21'
_symmetry_Int_Tables_number      19
_space_group_name_Hall           'P 2ac 2ab'
loop_
_symmetry_equiv_pos_site_id
_symmetry_equiv_pos_as_xyz
1 x,y,z
2 1/2+x,1/2-y,-z
3 -x,1/2+y,1/2-z
4 1/2-x,-y,1/2+z
_cell_length_a                   11.574(2)
_cell_length_b                   29.921(4)
_cell_length_c                   6.443(2)
_cell_angle_alpha                90
_cell_angle_beta                 90
_cell_angle_gamma                90
_cell_volume                     2231.25
_cell_formula_units_Z            4
loop_
_atom_site_label
_atom_site_type_symbol
_atom_site_fract_x
_atom_site_fract_y
_atom_site_fract_z
C1 C -0.14360 0.03490 0.25260
C2 C -0.08320 0.06740 0.40310
C3 C -0.12080 0.13610 0.16590
C4 C -0.07150 0.17920 0.06840
C5 C -0.01370 0.20890 0.23130
C6 C 0.08160 0.18000 0.33220
C7 C 0.15360 0.21310 0.45830
C8 C 0.14790 0.25700 0.33250
C9 C 0.05850 0.24960 0.15490
C10 C -0.10320 0.22480 0.39140
C11 C -0.17390 0.08070 0.56760
C12 C -0.06290 0.01370 0.09240
C13 C -0.00210 0.29380 0.09900
C14 C -0.09830 0.28900 -0.05950
C15 C 0.08870 0.32760 0.02480
C16 C 0.04350 0.37570 0.00540
C17 C 0.00940 0.39090 -0.20740
C18 C 0.03430 -0.01110 0.20000
C19 C 0.09880 0.01850 0.35190
C20 C 0.01810 0.04140 0.50970
C21 C 0.08660 0.07180 0.65590
C22 C 0.13510 0.11270 0.54690
C23 C 0.03650 0.13910 0.44400
C24 C -0.03160 0.10920 0.29140
H1 H 0.18300 -0.04200 0.10600
H2 H -0.17900 0.01000 0.33800
H3 H -0.18800 0.14300 0.25200
H4 H -0.15600 0.11600 0.04400
H5 H -0.21000 0.05100 0.17800
H6 H -0.13000 0.19500 -0.01500
H7 H -0.00600 0.17200 -0.04800
H8 H 0.13400 0.17200 0.22300
H9 H 0.23300 0.20200 0.48100
H10 H 0.11700 0.21800 0.60600
H11 H 0.11600 0.28300 0.42400
H12 H 0.22300 0.26600 0.28100
H13 H 0.10100 0.23900 0.02900
H14 H -0.07000 0.24700 0.49100
H15 H -0.17000 0.24200 0.32000
H16 H -0.14500 0.20100 0.47400
H17 H -0.14400 0.10600 0.67600
H18 H -0.24700 0.09300 0.50500
H19 H -0.19600 0.05400 0.66500
H20 H 0.15200 0.02700 0.82700
H21 H -0.03700 0.30800 0.23700
H22 H -0.02700 0.03900 -0.00900
H23 H -0.06600 0.28100 -0.20800
H24 H -0.16100 0.27000 0.01200
H25 H -0.14300 0.32100 -0.08200
H26 H -0.10500 -0.00600 0.00800
H27 H 0.11700 0.31500 -0.12000
H28 H 0.16000 0.32900 0.13500
H29 H 0.10800 0.40100 0.05900
H30 H -0.04600 0.38000 0.10600
H31 H -0.07100 0.43700 -0.34000
H32 H 0.00000 -0.03800 0.27400
H33 H 0.15500 -0.00100 0.42000
H34 H 0.15300 0.03900 0.26800
H35 H -0.02100 0.01700 0.59600
H36 H 0.03300 0.08300 0.77800
H37 H 0.19800 0.10400 0.44800
H38 H 0.17500 0.13100 0.64600
H39 H -0.01700 0.14900 0.56600
H40 H 0.02800 0.09800 0.17600
O1 O 0.11410 -0.02670 0.04200
O2 O 0.18210 0.04840 0.75140
O3 O -0.05270 0.42690 -0.20320
O4 O 0.03410 0.37240 -0.36820
loop_
_geom_bond_atom_site_label_1
_geom_bond_atom_site_label_2
_geom_bond_site_symmetry_1
_geom_bond_site_symmetry_2
C1 C2 1_555 1_555
C2 C11 1_555 1_555
C3 C4 1_555 1_555
C4 C5 1_555 1_555
C5 C6 1_555 1_555
C6 C7 1_555 1_555
C7 C8 1_555 1_555
C8 C9 1_555 1_555
C9 C5 1_555 1_555
C10 C5 1_555 1_555
C11 H17 1_555 1_555
C12 C1 1_555 1_555
C13 C9 1_555 1_555
C14 C13 1_555 1_555
C15 C13 1_555 1_555
C16 C15 1_555 1_555
C17 C16 1_555 1_555
C18 C12 1_555 1_555
C19 C18 1_555 1_555
C20 C2 1_555 1_555
C21 C20 1_555 1_555
C22 C21 1_555 1_555
C23 C6 1_555 1_555
C24 C2 1_555 1_555
H1 O1 1_555 1_555
H2 C1 1_555 1_555
H3 C3 1_555 1_555
H4 C3 1_555 1_555
H5 C1 1_555 1_555
H6 C4 1_555 1_555
H7 C4 1_555 1_555
H8 C6 1_555 1_555
H9 C7 1_555 1_555
H10 C7 1_555 1_555
H11 C8 1_555 1_555
H12 C8 1_555 1_555
H13 C9 1_555 1_555
H14 C10 1_555 1_555
H15 C10 1_555 1_555
H16 C10 1_555 1_555
H18 C11 1_555 1_555
H19 C11 1_555 1_555
H20 O2 1_555 1_555
H21 C13 1_555 1_555
H22 C12 1_555 1_555
H23 C14 1_555 1_555
H24 C14 1_555 1_555
H25 C14 1_555 1_555
H26 C12 1_555 1_555
H27 C15 1_555 1_555
H28 C15 1_555 1_555
H29 C16 1_555 1_555
H30 C16 1_555 1_555
H31 O3 1_555 1_555
H32 C18 1_555 1_555
H33 C19 1_555 1_555
H34 C19 1_555 1_555
H35 C20 1_555 1_555
H36 C21 1_555 1_555
H37 C22 1_555 1_555
H38 C22 1_555 1_555
H39 C23 1_555 1_555
H40 C24 1_555 1_555
O1 C18 1_555 1_555
O2 C21 1_555 1_555
O3 C17 1_555 1_555
O4 C17 1_555 1_555
C3 C24 1_555 1_555
C19 C20 1_555 1_555
C22 C23 1_555 1_555
C23 C24 1_555 1_555

#END
