
#######################################################################
#
#                 Cambridge Crystallographic Data Centre
#                                CCDC 
#
#######################################################################
#
# If this CIF has been generated from an entry in the Cambridge 
# Structural Database, then it will include bibliographic, chemical, 
# crystal, experimental, refinement or atomic coordinate data resulting 
# from the CCDC's data processing and validation procedures.
#
#######################################################################

data_IBALUV
_chemical_formula_moiety         'C13 H9 N1 O1'
_chemical_name_systematic        9H-carbazole-9-carbaldehyde
_symmetry_cell_setting           monoclinic
_symmetry_space_group_name_H-M   'P 21'
_symmetry_Int_Tables_number      4
_space_group_name_Hall           'P 2yb'
loop_
_symmetry_equiv_pos_site_id
_symmetry_equiv_pos_as_xyz
1 x,y,z
2 -x,1/2+y,-z
_cell_length_a                   12.957(2)
_cell_length_b                   5.3621(10)
_cell_length_c                   14.440(3)
_cell_angle_alpha                90
_cell_angle_beta                 109.548(2)
_cell_angle_gamma                90
_cell_volume                     945.419
_exptl_crystal_colour            yellow
_exptl_crystal_description       rod
_cell_formula_units_Z            4
loop_
_atom_site_label
_atom_site_type_symbol
_atom_site_fract_x
_atom_site_fract_y
_atom_site_fract_z
O1 O -0.07452(11) 1.2319(3) 0.34069(11)
N1 N 0.04534(12) 1.0956(3) 0.26573(11)
C1 C 0.08756(14) 1.1098(4) 0.18707(13)
C2 C 0.06519(16) 1.2822(4) 0.11060(14)
H1 H 0.0155 1.4113 0.1048
C3 C 0.11964(17) 1.2538(4) 0.04364(14)
H2 H 0.1060 1.3655 -0.0084
C4 C 0.19488(16) 1.0603(5) 0.05256(14)
H3 H 0.2305 1.0458 0.0066
C5 C 0.21699(15) 0.8901(4) 0.12896(14)
H4 H 0.2670 0.7617 0.1346
C6 C 0.16291(15) 0.9149(4) 0.19725(14)
C7 C 0.16787(14) 0.7763(4) 0.28531(13)
C8 C 0.22834(15) 0.5698(4) 0.33153(14)
H5 H 0.2761 0.4913 0.3051
C9 C 0.21617(16) 0.4829(4) 0.41779(15)
H6 H 0.2561 0.3450 0.4494
C10 C 0.14431(16) 0.6008(5) 0.45775(14)
H7 H 0.1377 0.5400 0.5158
C11 C 0.08271(15) 0.8061(4) 0.41284(14)
H8 H 0.0349 0.8836 0.4396
C12 C 0.09520(15) 0.8919(4) 0.32609(14)
C13 C -0.03400(16) 1.2500(4) 0.27651(15)
H9 H -0.0587 1.3785 0.2312
O2 O 0.16975(11) 0.3158(3) 0.83309(10)
N2 N 0.29786(12) 0.3523(3) 0.75651(11)
C14 C 0.34916(14) 0.2512(4) 0.69175(12)
C15 C 0.31665(15) 0.0519(4) 0.62757(13)
H10 H 0.2526 -0.0358 0.6206
C16 C 0.38418(16) -0.0113(4) 0.57397(14)
H11 H 0.3648 -0.1440 0.5301
C17 C 0.48043(15) 0.1204(4) 0.58462(14)
H12 H 0.5244 0.0732 0.5482
C18 C 0.51149(15) 0.3209(4) 0.64885(14)
H13 H 0.5753 0.4092 0.6553
C19 C 0.44523(14) 0.3873(4) 0.70346(13)
C20 C 0.45419(14) 0.5768(4) 0.77753(13)
C21 C 0.53065(15) 0.7648(4) 0.81761(13)
H14 H 0.5916 0.7835 0.7979
C22 C 0.51438(17) 0.9228(4) 0.88710(14)
H15 H 0.5648 1.0488 0.9142
C23 C 0.42294(17) 0.8954(4) 0.91706(14)
H16 H 0.4138 1.0039 0.9640
C24 C 0.34560(16) 0.7107(4) 0.87868(14)
H17 H 0.2848 0.6934 0.8987
C25 C 0.36272(15) 0.5518(4) 0.80878(13)
C26 C 0.20807(15) 0.2484(4) 0.77125(14)
H18 H 0.1739 0.1164 0.7308
loop_
_geom_bond_atom_site_label_1
_geom_bond_atom_site_label_2
_geom_bond_site_symmetry_1
_geom_bond_site_symmetry_2
O1 C13 1_555 1_555
N1 C1 1_555 1_555
C1 C2 1_555 1_555
C2 H1 1_555 1_555
C3 C2 1_555 1_555
H2 C3 1_555 1_555
C4 C3 1_555 1_555
H3 C4 1_555 1_555
C5 C4 1_555 1_555
H4 C5 1_555 1_555
C6 C1 1_555 1_555
C7 C6 1_555 1_555
C8 C7 1_555 1_555
H5 C8 1_555 1_555
C9 C8 1_555 1_555
H6 C9 1_555 1_555
C10 C9 1_555 1_555
H7 C10 1_555 1_555
C11 C10 1_555 1_555
H8 C11 1_555 1_555
C12 N1 1_555 1_555
C13 N1 1_555 1_555
H9 C13 1_555 1_555
O2 C26 1_555 1_555
N2 C14 1_555 1_555
C14 C15 1_555 1_555
C15 H10 1_555 1_555
C16 C15 1_555 1_555
H11 C16 1_555 1_555
C17 C16 1_555 1_555
H12 C17 1_555 1_555
C18 C17 1_555 1_555
H13 C18 1_555 1_555
C19 C14 1_555 1_555
C20 C19 1_555 1_555
C21 C20 1_555 1_555
H14 C21 1_555 1_555
C22 C21 1_555 1_555
H15 C22 1_555 1_555
C23 C22 1_555 1_555
H16 C23 1_555 1_555
C24 C23 1_555 1_555
H17 C24 1_555 1_555
C25 N2 1_555 1_555
C26 N2 1_555 1_555
H18 C26 1_555 1_555
C5 C6 1_555 1_555
C7 C12 1_555 1_555
C11 C12 1_555 1_555
C18 C19 1_555 1_555
C20 C25 1_555 1_555
C24 C25 1_555 1_555

#END
