
#######################################################################
#
#                 Cambridge Crystallographic Data Centre
#                                CCDC 
#
#######################################################################
#
# If this CIF has been generated from an entry in the Cambridge 
# Structural Database, then it will include bibliographic, chemical, 
# crystal, experimental, refinement or atomic coordinate data resulting 
# from the CCDC's data processing and validation procedures.
#
#######################################################################

data_IBALEF
_chemical_formula_moiety         'C37 H49 B2 F4 N6 O1'
_chemical_name_systematic        
N,N-bis((5,5-difluoro-1,7,9,10-tetramethyl-5H-dipyrrolo[1,2-c:2',1'-f][1,3,2]diazaborinin-3-yl)methyl)-2,2,6,6-tetramethyl-1-oxylpiperidin-4-amine
_symmetry_cell_setting           triclinic
_symmetry_space_group_name_H-M   'P -1'
_symmetry_Int_Tables_number      2
_space_group_name_Hall           '-P 1'
loop_
_symmetry_equiv_pos_site_id
_symmetry_equiv_pos_as_xyz
1 x,y,z
2 -x,-y,-z
_cell_length_a                   7.6419(14)
_cell_length_b                   11.9999(17)
_cell_length_c                   20.698(3)
_cell_angle_alpha                82.674(11)
_cell_angle_beta                 87.513(11)
_cell_angle_gamma                89.454(10)
_cell_volume                     1880.77
_exptl_crystal_colour            red
_exptl_crystal_description       block
_cell_formula_units_Z            2
loop_
_atom_site_label
_atom_site_type_symbol
_atom_site_fract_x
_atom_site_fract_y
_atom_site_fract_z
F1 F 0.2667(2) 0.12255(12) 0.20077(7)
F2 F -0.0198(2) -0.44530(12) 0.15745(7)
F3 F 0.13206(17) 0.03273(13) 0.12793(8)
N1 N 0.4274(2) -0.02050(16) 0.15277(9)
F4 F -0.17516(19) -0.41432(13) 0.24897(8)
N2 N 0.3599(3) 0.16249(17) 0.08829(9)
N3 N 0.1000(3) -0.51173(16) 0.25993(9)
N4 N 0.2718(2) -0.23995(17) 0.28382(9)
N5 N -0.1571(3) -0.60273(17) 0.22233(10)
C1 C 0.5161(3) 0.1522(2) 0.05074(11)
C2 C 0.5811(3) -0.0279(2) 0.11367(11)
C3 C 0.6224(3) 0.0580(2) 0.06326(11)
C4 C 0.2231(3) -0.4349(2) 0.26762(12)
C5 C 0.1519(3) -0.6157(2) 0.29270(11)
C6 C 0.2794(3) -0.1244(2) 0.25113(12)
H1 H 0.2968 -0.0737 0.2832
H2 H 0.1687 -0.1053 0.2312
C7 C 0.4242(3) -0.1092(2) 0.19998(11)
C8 C 0.6706(3) -0.1276(2) 0.13870(12)
C9 C 0.3143(3) -0.5994(2) 0.32100(12)
C10 C 0.0479(4) -0.7112(2) 0.29100(11)
C11 C 0.5728(3) -0.1757(2) 0.19214(12)
H3 H 0.6007 -0.2414 0.2186
C12 C 0.1647(3) -0.2504(2) 0.34587(11)
H4 H 0.1458 -0.3308 0.3594
C13 C -0.1026(4) -0.7055(2) 0.25549(12)
C14 C 0.2827(4) 0.2612(2) 0.06749(13)
C15 C 0.2079(3) -0.3152(2) 0.23932(12)
H5 H 0.2753 -0.3031 0.1983
H6 H 0.0863 -0.2977 0.2306
C16 C 0.2589(3) -0.2058(3) 0.39964(12)
H7 H 0.2673 -0.1247 0.3899
H8 H 0.3772 -0.2359 0.4004
C17 C -0.0146(3) -0.1947(2) 0.34309(12)
H9 H -0.0758 -0.2181 0.3070
H10 H 0.0000 -0.1139 0.3349
C18 C 0.5308(4) 0.2512(2) 0.00508(12)
C19 C 0.1017(4) -0.8204(2) 0.32917(13)
H11 H 0.0194 -0.8779 0.3233
H12 H 0.1036 -0.8116 0.3746
H13 H 0.2163 -0.8414 0.3140
C20 C 0.3871(4) 0.3160(3) 0.01730(13)
H14 H 0.3633 0.3864 -0.0050
C21 C 0.3551(3) -0.4876(2) 0.30458(13)
H15 H 0.4550 -0.4528 0.3163
B1 B 0.2913(4) 0.0742(3) 0.14348(13)
C22 C -0.1255(3) -0.2238(3) 0.40563(13)
N6 N -0.0205(3) -0.2139(3) 0.46271(11)
C23 C -0.3028(4) -0.6200(3) 0.19060(13)
C24 C -0.2234(4) -0.7885(2) 0.24170(14)
C25 C 0.8385(3) -0.1766(2) 0.11430(14)
H16 H 0.8651 -0.2448 0.1418
H17 H 0.9317 -0.1238 0.1150
H18 H 0.8261 -0.1926 0.0705
C26 C 0.7880(3) 0.0482(3) 0.02237(13)
H19 H 0.7996 0.1129 -0.0099
H20 H 0.7834 -0.0183 0.0012
H21 H 0.8868 0.0437 0.0497
B2 B -0.0649(4) -0.4897(2) 0.22087(14)
O1 O -0.1081(3) -0.2175(3) 0.51702(11)
C27 C 0.4263(4) -0.6826(3) 0.36127(16)
H22 H 0.5287 -0.6456 0.3731
H23 H 0.4607 -0.7421 0.3364
H24 H 0.3609 -0.7133 0.4000
C28 C -0.3967(4) -0.5297(3) 0.15053(16)
H25 H -0.3389 -0.4593 0.1518
H26 H -0.5151 -0.5250 0.1675
H27 H -0.3970 -0.5460 0.1063
C29 C -0.3437(4) -0.7333(3) 0.20206(16)
H28 H -0.4383 -0.7666 0.1854
C30 C 0.6718(4) 0.2856(3) -0.04625(15)
H29 H 0.6430 0.3575 -0.0694
H30 H 0.6810 0.2308 -0.0762
H31 H 0.7816 0.2906 -0.0259
C31 C 0.1706(4) -0.2346(3) 0.46686(14)
C32 C 0.1132(4) 0.2992(3) 0.09685(16)
H32 H 0.0714 0.2427 0.1309
H33 H 0.0282 0.3113 0.0638
H34 H 0.1314 0.3681 0.1146
C33 C 0.2380(5) -0.1566(4) 0.51351(17)
H35 H 0.2171 -0.0798 0.4961
H36 H 0.3613 -0.1686 0.5183
H37 H 0.1775 -0.1726 0.5553
C34 C -0.2746(4) -0.1377(3) 0.40828(18)
H38 H -0.2262 -0.0636 0.4056
H39 H -0.3421 -0.1542 0.4485
H40 H -0.3487 -0.1413 0.3723
C35 C -0.2253(5) -0.9131(3) 0.26231(19)
H41 H -0.3245 -0.9453 0.2448
H42 H -0.2331 -0.9277 0.3090
H43 H -0.1196 -0.9459 0.2463
C36 C 0.2005(6) -0.3579(4) 0.49423(18)
H44 H 0.1570 -0.4057 0.4648
H45 H 0.1397 -0.3737 0.5359
H46 H 0.3235 -0.3713 0.4991
C37 C -0.2022(5) -0.3405(3) 0.41018(18)
H47 H -0.1092 -0.3945 0.4087
H48 H -0.2764 -0.3444 0.3743
H49 H -0.2696 -0.3565 0.4505
loop_
_geom_bond_atom_site_label_1
_geom_bond_atom_site_label_2
_geom_bond_site_symmetry_1
_geom_bond_site_symmetry_2
F1 B1 1_555 1_555
F2 B2 1_555 1_555
F3 B1 1_555 1_555
N1 C2 1_555 1_555
F4 B2 1_555 1_555
N2 C1 1_555 1_555
N3 C4 1_555 1_555
N4 C6 1_555 1_555
N5 C13 1_555 1_555
C1 C3 1_555 1_555
C2 C3 1_555 1_555
C3 C26 1_555 1_555
C4 C15 1_555 1_555
C5 N3 1_555 1_555
C6 H1 1_555 1_555
H2 C6 1_555 1_555
C7 N1 1_555 1_555
C8 C2 1_555 1_555
C9 C5 1_555 1_555
C10 C5 1_555 1_555
C11 C7 1_555 1_555
H3 C11 1_555 1_555
C12 N4 1_555 1_555
H4 C12 1_555 1_555
C13 C10 1_555 1_555
C14 N2 1_555 1_555
C15 N4 1_555 1_555
H5 C15 1_555 1_555
H6 C15 1_555 1_555
C16 C12 1_555 1_555
H7 C16 1_555 1_555
H8 C16 1_555 1_555
C17 C12 1_555 1_555
H9 C17 1_555 1_555
H10 C17 1_555 1_555
C18 C1 1_555 1_555
C19 C10 1_555 1_555
H11 C19 1_555 1_555
H12 C19 1_555 1_555
H13 C19 1_555 1_555
C20 C14 1_555 1_555
H14 C20 1_555 1_555
C21 C4 1_555 1_555
H15 C21 1_555 1_555
B1 N1 1_555 1_555
C22 C17 1_555 1_555
N6 C22 1_555 1_555
C23 N5 1_555 1_555
C24 C13 1_555 1_555
C25 C8 1_555 1_555
H16 C25 1_555 1_555
H17 C25 1_555 1_555
H18 C25 1_555 1_555
C26 H19 1_555 1_555
H20 C26 1_555 1_555
H21 C26 1_555 1_555
B2 N3 1_555 1_555
O1 N6 1_555 1_555
C27 C9 1_555 1_555
H22 C27 1_555 1_555
H23 C27 1_555 1_555
H24 C27 1_555 1_555
C28 C23 1_555 1_555
H25 C28 1_555 1_555
H26 C28 1_555 1_555
H27 C28 1_555 1_555
C29 C23 1_555 1_555
H28 C29 1_555 1_555
C30 C18 1_555 1_555
H29 C30 1_555 1_555
H30 C30 1_555 1_555
H31 C30 1_555 1_555
C31 C16 1_555 1_555
C32 C14 1_555 1_555
H32 C32 1_555 1_555
H33 C32 1_555 1_555
H34 C32 1_555 1_555
C33 C31 1_555 1_555
H35 C33 1_555 1_555
H36 C33 1_555 1_555
H37 C33 1_555 1_555
C34 C22 1_555 1_555
H38 C34 1_555 1_555
H39 C34 1_555 1_555
H40 C34 1_555 1_555
C35 C24 1_555 1_555
H41 C35 1_555 1_555
H42 C35 1_555 1_555
H43 C35 1_555 1_555
C36 C31 1_555 1_555
H44 C36 1_555 1_555
H45 C36 1_555 1_555
H46 C36 1_555 1_555
C37 C22 1_555 1_555
H47 C37 1_555 1_555
H48 C37 1_555 1_555
H49 C37 1_555 1_555
N2 B1 1_555 1_555
N5 B2 1_555 1_555
C6 C7 1_555 1_555
C8 C11 1_555 1_555
C9 C21 1_555 1_555
C18 C20 1_555 1_555
N6 C31 1_555 1_555
C24 C29 1_555 1_555

#END
