
#######################################################################
#
#                 Cambridge Crystallographic Data Centre
#                                CCDC 
#
#######################################################################
#
# If this CIF has been generated from an entry in the Cambridge 
# Structural Database, then it will include bibliographic, chemical, 
# crystal, experimental, refinement or atomic coordinate data resulting 
# from the CCDC's data processing and validation procedures.
#
#######################################################################

data_IBASEM
_chemical_formula_moiety         'C20 H30 O8 S1'
_chemical_name_systematic        
'6,13-dihydroxy-5-(hydroxymethyl)-5,9-dimethyl-15,20-dioxa-19-thiapentacyclo[10.5.3.0^1,10^.0^4,9^.0^13,17^]icosan-14-one 19,19-dioxide'
_symmetry_cell_setting           trigonal
_symmetry_space_group_name_H-M   'P 31'
_symmetry_Int_Tables_number      144
_space_group_name_Hall           'P 31'
loop_
_symmetry_equiv_pos_site_id
_symmetry_equiv_pos_as_xyz
1 x,y,z
2 -y,x-y,1/3+z
3 -x+y,-x,2/3+z
_cell_length_a                   7.3383(4)
_cell_length_b                   7.3383(4)
_cell_length_c                   31.3942(18)
_cell_angle_alpha                90
_cell_angle_beta                 90
_cell_angle_gamma                120
_cell_volume                     1464.1
_cell_formula_units_Z            3
loop_
_atom_site_label
_atom_site_type_symbol
_atom_site_fract_x
_atom_site_fract_y
_atom_site_fract_z
S1 S 0.1896(3) 0.9125(3) 0.0693(1)
O1 O 0.3382(10) 1.5422(10) 0.2911(2)
H1 H 0.4644 1.5941 0.2959
O2 O -0.0524(9) 1.3586(9) 0.0133(2)
H2 H -0.1484 1.3043 0.0307
O3 O 0.3321(10) 1.2879(10) -0.0314(2)
C1 C 0.2951(10) 1.341(1) 0.0860(2)
C2 C 0.0616(10) 1.2929(10) 0.1547(2)
O4 O -0.0018(12) 1.5730(12) 0.2703(2)
H3 H -0.0417 1.6585 0.2734
C3 C 0.4565(11) 1.5348(11) 0.1561(2)
H4 H 0.5699 1.6653 0.1675
H5 H 0.4712 1.4196 0.1672
C4 C 0.0777(10) 1.2885(10) 0.1052(2)
H6 H 0.0579 1.4045 0.0955
C5 C -0.1460(11) 1.2866(13) 0.1653(2)
H7 H -0.1580 1.3890 0.1478
H8 H -0.2627 1.1485 0.1582
O5 O 0.0621(10) 0.9450(9) 0.0332(2)
C6 C 0.2441(11) 1.5083(10) 0.1698(2)
H9 H 0.2292 1.6118 0.1527
C7 C 0.2843(12) 1.3922(11) 0.0381(2)
H10 H 0.3149 1.5383 0.0373
C8 C 0.0714(12) 1.2614(11) 0.0157(2)
O6 O 0.3245(12) 0.8582(10) 0.0482(2)
O7 O 0.0508(12) 0.7731(9) 0.1001(3)
C9 C 0.2374(12) 1.5742(11) 0.2173(2)
C10 C 0.1313(13) 1.2232(13) -0.0286(2)
C11 C 0.0163(13) 1.5426(13) 0.2256(2)
H11 H 0.0048 1.6521 0.2100
C12 C -0.1052(11) 1.0922(11) 0.0844(2)
H12 H -0.1350 0.9699 0.1013
H13 H -0.2297 1.1064 0.0848
O8 O 0.0122(12) 1.1427(13) -0.0578(2)
C13 C -0.1619(12) 1.3323(13) 0.2116(2)
H14 H -0.2941 1.3291 0.2162
H15 H -0.1624 1.2228 0.2290
C14 C 0.3499(12) 1.1661(11) 0.0923(2)
H16 H 0.3543 1.1460 0.1228
H17 H 0.4918 1.2193 0.0817
C15 C 0.4458(14) 1.3808(15) 0.0074(3)
H18 H 0.5637 1.5205 0.0020
H19 H 0.4986 1.2948 0.0196
C16 C 0.0617(13) 1.1030(11) 0.1766(2)
H20 H -0.0250 0.9772 0.1607
H21 H 0.0071 1.0872 0.2050
H22 H 0.2029 1.1275 0.1778
C17 C 0.4700(11) 1.5377(11) 0.1076(2)
H23 H 0.6047 1.5537 0.0994
H24 H 0.4653 1.6596 0.0970
C18 C 0.3962(15) 1.8088(13) 0.2214(3)
H25 H 0.5358 1.8292 0.2230
H26 H 0.3671 1.8627 0.2468
H27 H 0.3855 1.8821 0.1971
C19 C -0.0633(13) 1.0543(12) 0.0387(2)
H28 H -0.1977 0.9744 0.0237
C20 C 0.2922(13) 1.4528(13) 0.2493(2)
H29 H 0.1752 1.3097 0.2511
H30 H 0.4132 1.4462 0.2389
loop_
_geom_bond_atom_site_label_1
_geom_bond_atom_site_label_2
_geom_bond_site_symmetry_1
_geom_bond_site_symmetry_2
S1 O5 1_555 1_555
O1 H1 1_555 1_555
O2 H2 1_555 1_555
O3 C10 1_555 1_555
C1 C4 1_555 1_555
C2 C4 1_555 1_555
O4 H3 1_555 1_555
C3 H4 1_555 1_555
H5 C3 1_555 1_555
C4 H6 1_555 1_555
C5 C2 1_555 1_555
H7 C5 1_555 1_555
H8 C5 1_555 1_555
O5 C19 1_555 1_555
C6 C2 1_555 1_555
H9 C6 1_555 1_555
C7 C1 1_555 1_555
H10 C7 1_555 1_555
C8 O2 1_555 1_555
O6 S1 1_555 1_555
O7 S1 1_555 1_555
C9 C6 1_555 1_555
C10 C8 1_555 1_555
C11 O4 1_555 1_555
H11 C11 1_555 1_555
C12 C4 1_555 1_555
H12 C12 1_555 1_555
H13 C12 1_555 1_555
O8 C10 1_555 1_555
C13 C5 1_555 1_555
H14 C13 1_555 1_555
H15 C13 1_555 1_555
C14 S1 1_555 1_555
H16 C14 1_555 1_555
H17 C14 1_555 1_555
C15 O3 1_555 1_555
H18 C15 1_555 1_555
H19 C15 1_555 1_555
C16 C2 1_555 1_555
H20 C16 1_555 1_555
H21 C16 1_555 1_555
H22 C16 1_555 1_555
C17 C1 1_555 1_555
H23 C17 1_555 1_555
H24 C17 1_555 1_555
C18 C9 1_555 1_555
H25 C18 1_555 1_555
H26 C18 1_555 1_555
H27 C18 1_555 1_555
C19 C8 1_555 1_555
H28 C19 1_555 1_555
C20 O1 1_555 1_555
H29 C20 1_555 1_555
H30 C20 1_555 1_555
C1 C14 1_555 1_555
C3 C6 1_555 1_555
C3 C17 1_555 1_555
C7 C8 1_555 1_555
C7 C15 1_555 1_555
C9 C11 1_555 1_555
C9 C20 1_555 1_555
C11 C13 1_555 1_555
C12 C19 1_555 1_555

#END
