
#######################################################################
#
#                 Cambridge Crystallographic Data Centre
#                                CCDC 
#
#######################################################################
#
# If this CIF has been generated from an entry in the Cambridge 
# Structural Database, then it will include bibliographic, chemical, 
# crystal, experimental, refinement or atomic coordinate data resulting 
# from the CCDC's data processing and validation procedures.
#
#######################################################################

data_IBELOQ
_chemical_formula_moiety         '2(C1 H6 N3 1+),C12 H8 O6 S2 2-,C10 H7 I1'
_chemical_name_systematic        
"bis(Guanidinium) 4,4'-biphenyldisulfonate 1-iodonaphthalene clathrate"
_symmetry_cell_setting           orthorhombic
_symmetry_space_group_name_H-M   'P n a 21'
_symmetry_Int_Tables_number      33
_space_group_name_Hall           'P 2c -2n'
loop_
_symmetry_equiv_pos_site_id
_symmetry_equiv_pos_as_xyz
1 x,y,z
2 -x,-y,1/2+z
3 1/2-x,1/2+y,1/2+z
4 1/2+x,1/2-y,z
_cell_length_a                   16.0943(3)
_cell_length_b                   7.4787(2)
_cell_length_c                   23.3874(5)
_cell_angle_alpha                90
_cell_angle_beta                 90
_cell_angle_gamma                90
_cell_volume                     2815.01
_exptl_crystal_colour            colorless
_exptl_crystal_description       plate
_cell_formula_units_Z            4
loop_
_atom_site_label
_atom_site_type_symbol
_atom_site_fract_x
_atom_site_fract_y
_atom_site_fract_z
S1 S 0.8634(1) 0.7680(2) 0.4605(1)
O1 O 0.8264(3) 0.7620(5) 0.4034(2)
O2 O 0.9094(2) 0.6052(4) 0.4732(2)
O3 O 0.9146(2) 0.9276(4) 0.4684(2)
C1 C 0.7813(3) 0.7810(5) 0.5106(2)
C2 C 0.7983(3) 0.8421(6) 0.5656(2)
C3 C 0.7358(3) 0.8409(6) 0.6062(2)
C4 C 0.6557(3) 0.7829(6) 0.5932(2)
C5 C 0.6389(3) 0.7265(7) 0.5370(3)
C6 C 0.7017(4) 0.7249(7) 0.4962(2)
C7 C 0.5895(3) 0.7761(6) 0.6373(2)
C8 C 0.6082(4) 0.7338(7) 0.6936(3)
C9 C 0.5473(3) 0.7274(7) 0.7357(2)
C10 C 0.4650(3) 0.7645(6) 0.7205(2)
C11 C 0.4443(3) 0.8069(7) 0.6645(2)
C12 C 0.5058(3) 0.8133(7) 0.6232(2)
S2 S 0.3850(1) 0.7523(2) 0.7720(1)
O4 O 0.3388(2) 0.5872(4) 0.7613(2)
O5 O 0.4260(3) 0.7522(4) 0.8282(2)
O6 O 0.3321(2) 0.9099(4) 0.7637(2)
H1 H 0.8523(3) 0.8842(6) 0.5751(2)
H2 H 0.7478(3) 0.8805(6) 0.6439(2)
H3 H 0.5844(3) 0.6893(7) 0.5270(3)
H4 H 0.6901(4) 0.6855(7) 0.4584(2)
H5 H 0.6642(4) 0.7085(7) 0.7037(3)
H6 H 0.5613(3) 0.6984(7) 0.7740(2)
H7 H 0.3882(3) 0.8314(7) 0.6546(2)
H8 H 0.4917(3) 0.8430(7) 0.5849(2)
C13 C 0.8232(3) 0.2665(7) 0.3711(3)
N1 N 0.8003(3) 0.4170(6) 0.3472(2)
N2 N 0.8710(3) 0.2695(6) 0.4189(3)
N3 N 0.8041(3) 0.1105(6) 0.3478(2)
H9 H 0.7718(3) 0.4155(6) 0.3152(2)
H10 H 0.8135(3) 0.5196(6) 0.3633(2)
H11 H 0.8866(3) 0.3724(6) 0.4337(3)
H12 H 0.8865(3) 0.1686(6) 0.4351(3)
H13 H 0.7756(3) 0.1068(6) 0.3157(2)
H14 H 0.8199(3) 0.0105(6) 0.3644(2)
C14 C 0.4282(4) 0.2519(6) 0.8608(3)
N4 N 0.3830(3) 0.2493(6) 0.8133(2)
N5 N 0.4490(3) 0.4074(6) 0.8843(2)
N6 N 0.4520(3) 0.0996(6) 0.8852(2)
H15 H 0.3669(3) 0.3504(6) 0.7975(2)
H16 H 0.3691(3) 0.1466(6) 0.7976(2)
H17 H 0.4328(3) 0.5082(6) 0.8684(2)
H18 H 0.4790(3) 0.4095(6) 0.9158(2)
H19 H 0.4378(3) -0.0034(6) 0.8698(2)
H20 H 0.4819(3) 0.1019(6) 0.9166(2)
I1 I 0.5756(1) 0.2385(1) 0.5054(1)
C15 C 0.6639(5) 0.2722(3) 0.5709(3)
C16 C 0.7456(6) 0.2989(7) 0.5557(3)
C17 C 0.8067(5) 0.3219(8) 0.5969(4)
C18 C 0.7853(5) 0.3180(7) 0.6542(4)
C19 C 0.7032(5) 0.2913(5) 0.6703(3)
C20 C 0.6831(5) 0.2880(6) 0.7288(3)
C21 C 0.6074(6) 0.2637(8) 0.7496(5)
C22 C 0.5434(6) 0.2397(8) 0.7080(5)
C23 C 0.5597(5) 0.2418(6) 0.6506(4)
C24 C 0.6409(4) 0.2679(4) 0.6294(3)
H21 H 0.7604(6) 0.3015(7) 0.5164(3)
H22 H 0.8629(5) 0.3401(8) 0.5858(4)
H23 H 0.8269(5) 0.3337(7) 0.6826(4)
H24 H 0.7271(5) 0.3043(6) 0.7554(3)
H25 H 0.5964(6) 0.2624(8) 0.7895(5)
H26 H 0.4879(6) 0.2217(8) 0.7206(5)
H27 H 0.5153(5) 0.2254(6) 0.6244(4)
I2? I 0.5762(2) 0.2442(2) 0.7312(1)
C25? C 0.6616(8) 0.2649(6) 0.6635(5)
C26? C 0.7439(11) 0.2812(13) 0.6783(7)
C27? C 0.8040(8) 0.2954(17) 0.6366(9)
C28? C 0.7824(8) 0.2936(14) 0.5795(8)
C29? C 0.6997(8) 0.2772(10) 0.5649(5)
C30? C 0.6829(11) 0.2764(11) 0.5070(6)
C31? C 0.6028(12) 0.2607(14) 0.4889(7)
C32? C 0.5401(11) 0.2459(14) 0.5307(7)
C33? C 0.5556(7) 0.2465(10) 0.5881(6)
C34? C 0.6383(7) 0.2627(6) 0.6059(5)
H28? H 0.7594(11) 0.2826(13) 0.7175(7)
H29? H 0.8608(8) 0.3066(17) 0.6472(9)
H30? H 0.8238(8) 0.3034(14) 0.5507(8)
H31? H 0.7268(11) 0.2866(11) 0.4801(6)
H32? H 0.5896(12) 0.2598(14) 0.4493(7)
H33? H 0.4841(11) 0.2349(14) 0.5183(7)
H34? H 0.5117(7) 0.2363(10) 0.6151(6)
loop_
_geom_bond_atom_site_label_1
_geom_bond_atom_site_label_2
_geom_bond_site_symmetry_1
_geom_bond_site_symmetry_2
S1 O1 1_555 1_555
O2 S1 1_555 1_555
O3 S1 1_555 1_555
C1 S1 1_555 1_555
C2 C1 1_555 1_555
C3 C2 1_555 1_555
C4 C3 1_555 1_555
C5 C4 1_555 1_555
C6 C1 1_555 1_555
C7 C4 1_555 1_555
C8 C7 1_555 1_555
C9 C8 1_555 1_555
C10 C9 1_555 1_555
C11 C10 1_555 1_555
C12 C7 1_555 1_555
S2 C10 1_555 1_555
O4 S2 1_555 1_555
O5 S2 1_555 1_555
O6 S2 1_555 1_555
C13 N1 1_555 1_555
N1 H9 1_555 1_555
N2 C13 1_555 1_555
N3 C13 1_555 1_555
C14 N4 1_555 1_555
N4 H15 1_555 1_555
N5 C14 1_555 1_555
N6 C14 1_555 1_555
I1 C15 1_555 1_555
C15 C16 1_555 1_555
C16 C17 1_555 1_555
C17 C18 1_555 1_555
C18 C19 1_555 1_555
C19 C20 1_555 1_555
C20 C21 1_555 1_555
C21 C22 1_555 1_555
C22 C23 1_555 1_555
C23 C24 1_555 1_555
C24 C15 1_555 1_555
H1 C2 1_555 1_555
H2 C3 1_555 1_555
H3 C5 1_555 1_555
H4 C6 1_555 1_555
H5 C8 1_555 1_555
H6 C9 1_555 1_555
H7 C11 1_555 1_555
H8 C12 1_555 1_555
H10 N1 1_555 1_555
H11 N2 1_555 1_555
H12 N2 1_555 1_555
H13 N3 1_555 1_555
H14 N3 1_555 1_555
H16 N4 1_555 1_555
H17 N5 1_555 1_555
H18 N5 1_555 1_555
H19 N6 1_555 1_555
H20 N6 1_555 1_555
H21 C16 1_555 1_555
H22 C17 1_555 1_555
H23 C18 1_555 1_555
H24 C20 1_555 1_555
H25 C21 1_555 1_555
H26 C22 1_555 1_555
H27 C23 1_555 1_555
C5 C6 1_555 1_555
C11 C12 1_555 1_555
C19 C24 1_555 1_555

#END
