
#######################################################################
#
#                 Cambridge Crystallographic Data Centre
#                                CCDC 
#
#######################################################################
#
# If this CIF has been generated from an entry in the Cambridge 
# Structural Database, then it will include bibliographic, chemical, 
# crystal, experimental, refinement or atomic coordinate data resulting 
# from the CCDC's data processing and validation procedures.
#
#######################################################################

data_IBENOV01
_chemical_formula_moiety         'C29 H24 O1'
_chemical_name_systematic        2,7-bis(4-ethylphenyl)-9H-fluoren-9-one
_symmetry_cell_setting           monoclinic
_symmetry_space_group_name_H-M   'P 21/c'
_symmetry_Int_Tables_number      14
_space_group_name_Hall           '-P 2ybc'
loop_
_symmetry_equiv_pos_site_id
_symmetry_equiv_pos_as_xyz
1 x,y,z
2 -x,1/2+y,1/2-z
3 -x,-y,-z
4 x,1/2-y,1/2+z
_cell_length_a                   20.7401(18)
_cell_length_b                   5.8060(4)
_cell_length_c                   18.9202(15)
_cell_angle_alpha                90
_cell_angle_beta                 111.537(2)
_cell_angle_gamma                90
_cell_volume                     2119.24
_exptl_crystal_colour            yellow
_exptl_crystal_description       plate
_cell_formula_units_Z            4
loop_
_atom_site_label
_atom_site_type_symbol
_atom_site_fract_x
_atom_site_fract_y
_atom_site_fract_z
O1 O 0.44522(14) 0.8882(5) 0.54837(17)
C1 C 0.4657(2) 0.7092(7) 0.5803(2)
C2 C 0.4291(2) 0.5578(6) 0.6184(2)
C3 C 0.3687(2) 0.5929(7) 0.6275(2)
H1 H 0.3426 0.7233 0.6067
C4 C 0.3444(3) 0.4341(7) 0.6684(3)
C5 C 0.3859(3) 0.2392(7) 0.6961(3)
H2 H 0.3711 0.1286 0.7223
C6 C 0.4469(3) 0.2051(7) 0.6861(2)
H3 H 0.4728 0.0730 0.7055
C7 C 0.4709(2) 0.3646(6) 0.6475(2)
C8 C 0.5336(2) 0.3857(6) 0.6320(2)
C9 C 0.5914(3) 0.2491(7) 0.6499(2)
H4 H 0.5936 0.1107 0.6754
C10 C 0.6458(3) 0.3167(7) 0.6300(3)
H5 H 0.6847 0.2220 0.6431
C11 C 0.6457(2) 0.5220(7) 0.5910(2)
C12 C 0.5862(2) 0.6558(7) 0.5733(2)
H6 H 0.5834 0.7934 0.5472
C13 C 0.5324(2) 0.5917(6) 0.5931(2)
C14 C 0.2807(3) 0.4699(8) 0.6826(3)
C15 C 0.2384(3) 0.6513(11) 0.6568(4)
H7 H 0.2500 0.7590 0.6271
C16 C 0.1787(4) 0.6883(12) 0.6714(4)
H8 H 0.1526 0.8194 0.6514
C17 C 0.1571(4) 0.5481(13) 0.7120(4)
C18 C 0.1987(4) 0.3743(14) 0.7405(4)
H9 H 0.1866 0.2720 0.7714
C19 C 0.2601(3) 0.3310(10) 0.7278(4)
H10 H 0.2872 0.2046 0.7509
C20 C 0.0927(4) 0.5927(14) 0.7295(5)
H11 H 0.1063 0.6484 0.7812
H12 H 0.0656 0.7124 0.6959
C21 C 0.049(2) 0.383(6) 0.720(4)
H13 H 0.0363 0.3241 0.6697
H14 H 0.0075 0.4222 0.7295
H15 H 0.0741 0.2678 0.7562
C22 C 0.7050(3) 0.5896(8) 0.5719(3)
C23 C 0.7049(3) 0.7850(9) 0.5309(3)
H16 H 0.6653 0.8763 0.5139
C24 C 0.7611(3) 0.8496(10) 0.5143(3)
H17 H 0.7585 0.9865 0.4879
C25 C 0.8203(3) 0.7253(13) 0.5341(4)
C26 C 0.8214(3) 0.5303(12) 0.5760(4)
H18 H 0.8613 0.4405 0.5933
C27 C 0.7654(3) 0.4655(10) 0.5929(4)
H19 H 0.7683 0.3300 0.6202
C28 C 0.8741(18) 0.765(5) 0.4985(16)
H20 H 0.9005 0.6264 0.5001
H21 H 0.8523 0.8148 0.4460
C29 C 0.9198(14) 0.952(6) 0.5464(13)
H22 H 0.8915 1.0756 0.5526
H23 H 0.9497 1.0094 0.5218
H24 H 0.9474 0.8908 0.5953
H25? H 0.0815 0.7555 0.7235
H26? H 0.1002 0.5495 0.7814
C30? C 0.0355(16) 0.452(10) 0.675(4)
H27? H 0.0263 0.5029 0.6242
H28? H -0.0056 0.4688 0.6868
H29? H 0.0490 0.2924 0.6798
C31? C 0.885(3) 0.837(8) 0.532(2)
H30? H 0.9170 0.8681 0.5837
H31? H 0.8740 0.9818 0.5051
C32? C 0.920(3) 0.677(7) 0.4933(16)
H32? H 0.8855 0.5749 0.4602
H33? H 0.9550 0.5893 0.5308
H34? H 0.9400 0.7666 0.4642
loop_
_geom_bond_atom_site_label_1
_geom_bond_atom_site_label_2
_geom_bond_site_symmetry_1
_geom_bond_site_symmetry_2
O1 C1 1_555 1_555
C1 C2 1_555 1_555
C2 C3 1_555 1_555
C3 H1 1_555 1_555
C4 C3 1_555 1_555
C5 C4 1_555 1_555
H2 C5 1_555 1_555
C6 C5 1_555 1_555
H3 C6 1_555 1_555
C7 C2 1_555 1_555
C8 C7 1_555 1_555
C9 C8 1_555 1_555
H4 C9 1_555 1_555
C10 C9 1_555 1_555
H5 C10 1_555 1_555
C11 C10 1_555 1_555
C12 C11 1_555 1_555
H6 C12 1_555 1_555
C13 C1 1_555 1_555
C14 C4 1_555 1_555
C15 C14 1_555 1_555
H7 C15 1_555 1_555
C16 C15 1_555 1_555
H8 C16 1_555 1_555
C17 C16 1_555 1_555
C18 C17 1_555 1_555
H9 C18 1_555 1_555
C19 C14 1_555 1_555
H10 C19 1_555 1_555
C20 C17 1_555 1_555
H11 C20 1_555 1_555
H12 C20 1_555 1_555
C21 C20 1_555 1_555
H13 C21 1_555 1_555
H14 C21 1_555 1_555
H15 C21 1_555 1_555
C22 C11 1_555 1_555
C23 C22 1_555 1_555
H16 C23 1_555 1_555
C24 C23 1_555 1_555
H17 C24 1_555 1_555
C25 C24 1_555 1_555
C26 C25 1_555 1_555
H18 C26 1_555 1_555
C27 C22 1_555 1_555
H19 C27 1_555 1_555
C28 C25 1_555 1_555
H20 C28 1_555 1_555
H21 C28 1_555 1_555
C29 C28 1_555 1_555
H22 C29 1_555 1_555
H23 C29 1_555 1_555
H24 C29 1_555 1_555
C6 C7 1_555 1_555
C8 C13 1_555 1_555
C12 C13 1_555 1_555
C18 C19 1_555 1_555
C26 C27 1_555 1_555

#END
