
#######################################################################
#
#                 Cambridge Crystallographic Data Centre
#                                CCDC 
#
#######################################################################
#
# If this CIF has been generated from an entry in the Cambridge 
# Structural Database, then it will include bibliographic, chemical, 
# crystal, experimental, refinement or atomic coordinate data resulting 
# from the CCDC's data processing and validation procedures.
#
#######################################################################

data_IBEYAP
_chemical_name_common            'dendron G2'
_chemical_formula_moiety         'C96 H83 N1 O13'
_chemical_name_systematic        
N-(3,4,5-tris(3,4,5-tris(Benzyloxy)benzyloxy)phenyl)methylpyridone
_symmetry_cell_setting           triclinic
_symmetry_space_group_name_H-M   'P -1'
_symmetry_Int_Tables_number      2
_space_group_name_Hall           '-P 1'
loop_
_symmetry_equiv_pos_site_id
_symmetry_equiv_pos_as_xyz
1 x,y,z
2 -x,-y,-z
_cell_length_a                   10.9321(10)
_cell_length_b                   18.5767(17)
_cell_length_c                   20.6645(19)
_cell_angle_alpha                112.723(2)
_cell_angle_beta                 93.433(2)
_cell_angle_gamma                91.132(2)
_cell_volume                     3859.73
_exptl_crystal_colour            colorless
_exptl_crystal_description       'triangular prism'
_cell_formula_units_Z            2
_exptl_crystal_recrystallization_method acetone
loop_
_atom_site_label
_atom_site_type_symbol
_atom_site_fract_x
_atom_site_fract_y
_atom_site_fract_z
N1 N 0.09139(18) 0.54857(11) -0.17318(10)
O1 O -0.15616(18) 0.38947(12) -0.15795(10)
O2 O 0.24851(15) 0.85690(9) 0.03241(8)
O3 O 0.37856(14) 0.78609(9) 0.10350(8)
O4 O 0.43247(16) 0.63491(10) 0.04145(9)
O5 O 0.00522(15) 1.07136(9) 0.21559(8)
O6 O 0.01433(14) 1.18782(9) 0.17031(8)
O7 O 0.12644(15) 1.17542(9) 0.05573(8)
O8 O 0.39523(15) 0.72344(9) 0.34869(8)
O9 O 0.55136(14) 0.84683(9) 0.40818(8)
O10 O 0.56075(15) 0.96156(9) 0.36120(8)
O11 O 0.69946(15) 0.68151(9) 0.26015(8)
O12 O 0.65716(14) 0.55951(8) 0.29555(8)
O13 O 0.49976(15) 0.44213(9) 0.21793(8)
C1 C -0.0829(3) 0.43865(18) -0.16480(14)
C2 C 0.0153(2) 0.41798(15) -0.20966(14)
H1 H 0.0229 0.3646 -0.2388
C3 C 0.0979(2) 0.47133(14) -0.21233(13)
H2 H 0.1627 0.4542 -0.2426
C4 C -0.0890(3) 0.52086(19) -0.12743(15)
H3 H -0.1547 0.5404 -0.0983
C5 C -0.0040(3) 0.57153(17) -0.13240(14)
H4 H -0.0113 0.6258 -0.1061
C6 C 0.1849(2) 0.60633(13) -0.17449(12)
H5 H 0.1468 0.6409 -0.1956
H6 H 0.2504 0.5787 -0.2044
C7 C 0.2406(2) 0.65528(13) -0.10163(12)
C8 C 0.3099(2) 0.62044(14) -0.06393(12)
H7 H 0.3250 0.5664 -0.0846
C9 C 0.3566(2) 0.66512(14) 0.00377(13)
C10 C 0.3335(2) 0.74368(14) 0.03523(12)
C11 C 0.2664(2) 0.77897(13) -0.00350(12)
C12 C 0.2206(2) 0.73416(13) -0.07219(11)
H8 H 0.1757 0.7580 -0.0988
C13 C 0.1769(2) 0.89507(13) -0.00386(12)
H9 H 0.1006 0.8633 -0.0261
H10 H 0.2237 0.9008 -0.0413
C14 C 0.2846(2) 0.80584(15) 0.15361(12)
H11 H 0.2219 0.7624 0.1402
H12 H 0.2437 0.8533 0.1545
C15 C 0.3840(2) 0.57689(15) 0.06055(13)
H13 H 0.3819 0.5260 0.0201
H14 H 0.2988 0.5885 0.0737
C16 C 0.1459(2) 0.97386(14) 0.04711(12)
C17 C 0.1606(2) 1.03752(13) 0.02850(12)
H15 H 0.1987 1.0316 -0.0133
C18 C 0.1201(2) 1.10959(13) 0.07057(12)
C19 C 0.0638(2) 1.11794(13) 0.13184(12)
C20 C 0.0537(2) 1.05466(14) 0.15165(12)
C21 C 0.0928(2) 0.98246(14) 0.10900(12)
H16 H 0.0835 0.9389 0.1219
C22 C 0.3467(2) 0.82014(14) 0.22472(12)
C23 C 0.4170(2) 0.88823(14) 0.25992(12)
H17 H 0.4200 0.9278 0.2416
C24 C 0.4838(2) 0.89830(14) 0.32297(12)
C25 C 0.4753(2) 0.84119(14) 0.35060(12)
C26 C 0.3989(2) 0.77493(13) 0.31607(12)
C27 C 0.3359(2) 0.76307(14) 0.25230(12)
H18 H 0.2862 0.7168 0.2279
C28 C 0.4606(2) 0.57213(14) 0.12180(12)
C29 C 0.4440(2) 0.50790(14) 0.13871(12)
H19 H 0.3884 0.4662 0.1102
C30 C 0.5083(2) 0.50383(13) 0.19723(12)
C31 C 0.5889(2) 0.56521(14) 0.23907(12)
C32 C 0.6102(2) 0.62796(13) 0.21942(12)
C33 C 0.5438(2) 0.63221(13) 0.16163(12)
H20 H 0.5555 0.6762 0.1496
C34 C -0.0582(2) 1.01060(14) 0.22829(13)
H21 H -0.0673 1.0279 0.2794
H22 H -0.0082 0.9639 0.2138
C35 C -0.1832(2) 0.98852(15) 0.18955(12)
C36 C -0.2453(3) 1.04012(16) 0.16792(13)
H23 H -0.2084 1.0897 0.1755
C37 C -0.3639(3) 1.0184(2) 0.13452(15)
H24 H -0.4069 1.0533 0.1188
C38 C -0.4186(3) 0.9469(2) 0.12433(15)
H25 H -0.4989 0.9326 0.1018
C39 C -0.3565(3) 0.89670(18) 0.14685(14)
H26 H -0.3939 0.8476 0.1403
C40 C -0.2398(3) 0.91708(15) 0.17901(13)
H27 H -0.1975 0.8816 0.1942
C41 C 0.0919(2) 1.23785(14) 0.23008(13)
H28 H 0.1643 1.2575 0.2142
H29 H 0.1211 1.2083 0.2584
C42 C 0.0199(3) 1.30465(14) 0.27344(13)
C43 C 0.0673(3) 1.38057(15) 0.29559(13)
H30 H 0.1459 1.3899 0.2823
C44 C 0.0039(3) 1.44246(17) 0.33607(15)
H31 H 0.0388 1.4941 0.3513
C45 C -0.1088(4) 1.43005(19) 0.35449(15)
H32 H -0.1530 1.4732 0.3825
C46 C -0.1606(3) 1.3549(2) 0.33283(15)
H33 H -0.2404 1.3466 0.3452
C47 C -0.0944(3) 1.29178(16) 0.29272(14)
H34 H -0.1279 1.2400 0.2787
C48 C 0.1767(2) 1.16583(14) -0.01007(12)
H35 H 0.1327 1.1217 -0.0491
H36 H 0.2645 1.1541 -0.0083
C49 C 0.1631(2) 1.23961(14) -0.02245(12)
C50 C 0.2656(2) 1.28718(15) -0.01867(12)
H37 H 0.3443 1.2742 -0.0056
C51 C 0.2539(3) 1.35346(15) -0.03385(13)
H38 H 0.3246 1.3853 -0.0312
C52 C 0.1410(3) 1.37300(16) -0.05257(13)
H39 H 0.1334 1.4184 -0.0629
C53 C 0.0378(3) 1.32645(16) -0.05646(13)
H40 H -0.0406 1.3398 -0.0695
C54 C 0.0494(3) 1.26055(15) -0.04133(13)
H41 H -0.0217 1.2290 -0.0439
C55 C 0.3014(2) 0.66200(14) 0.32398(13)
H42 H 0.3171 0.6237 0.2767
H43 H 0.2199 0.6835 0.3214
C56 C 0.3062(2) 0.62426(15) 0.37628(14)
C57 C 0.3061(3) 0.66987(17) 0.44780(15)
H44 H 0.2969 0.7246 0.4629
C58 C 0.3191(3) 0.63712(19) 0.49679(17)
H45 H 0.3193 0.6691 0.5455
C59 C 0.3319(3) 0.5583(2) 0.4756(2)
H46 H 0.3421 0.5358 0.5097
C60 C 0.3301(3) 0.51211(19) 0.4058(2)
H47 H 0.3371 0.4573 0.3912
C61 C 0.3180(3) 0.54510(17) 0.35577(17)
H48 H 0.3179 0.5128 0.3072
C62 C 0.5016(3) 0.87927(18) 0.47488(13)
H49 H 0.4286 0.8475 0.4759
H50 H 0.4767 0.9332 0.4844
C63 C 0.5997(2) 0.87966(16) 0.52945(13)
C64 C 0.6761(2) 0.94499(16) 0.56430(14)
H51 H 0.6687 0.9896 0.5528
C65 C 0.7637(3) 0.94598(17) 0.61610(15)
H52 H 0.8152 0.9914 0.6404
C66 C 0.7757(3) 0.88183(18) 0.63200(14)
H53 H 0.8349 0.8828 0.6679
C67 C 0.7024(3) 0.81558(18) 0.59616(15)
H54 H 0.7124 0.7703 0.6064
C68 C 0.6148(3) 0.81501(17) 0.54563(15)
H55 H 0.5637 0.7693 0.5214
C69 C 0.5839(2) 1.01840(13) 0.33198(12)
H56 H 0.5148 1.0537 0.3391
H57 H 0.5929 0.9923 0.2808
C70 C 0.7005(2) 1.06427(14) 0.36873(12)
C71 C 0.7205(3) 1.13948(15) 0.37278(14)
H58 H 0.6582 1.1637 0.3554
C72 C 0.8314(3) 1.17974(16) 0.40223(14)
H59 H 0.8451 1.2312 0.4042
C73 C 0.9210(3) 1.14620(16) 0.42845(13)
H60 H 0.9962 1.1745 0.4493
C74 C 0.9018(3) 1.07120(15) 0.42438(13)
H61 H 0.9642 1.0473 0.4419
C75 C 0.7917(2) 1.03044(15) 0.39476(13)
H62 H 0.7788 0.9787 0.3924
C76 C 0.7322(2) 0.74530(13) 0.24027(12)
H63 H 0.6626 0.7798 0.2449
H64 H 0.7548 0.7253 0.1909
C77 C 0.8395(2) 0.78907(13) 0.28935(13)
C78 C 0.8290(2) 0.81832(14) 0.36131(13)
H65 H 0.7533 0.8115 0.3790
C79 C 0.9270(3) 0.85721(15) 0.40757(15)
H66 H 0.9189 0.8766 0.4568
C80 C 1.0370(3) 0.86795(16) 0.38224(17)
H67 H 1.1046 0.8948 0.4142
C81 C 1.0489(3) 0.84028(16) 0.31179(17)
H68 H 1.1244 0.8483 0.2945
C82 C 0.9497(3) 0.80001(14) 0.26472(15)
H69 H 0.9586 0.7801 0.2155
C83 C 0.6315(2) 0.61647(14) 0.36445(12)
H70 H 0.5586 0.5985 0.3812
H71 H 0.6146 0.6673 0.3615
C84 C 0.7411(2) 0.62530(13) 0.41424(12)
C85 C 0.7313(3) 0.61015(14) 0.47399(13)
H72 H 0.6537 0.5948 0.4841
C86 C 0.8330(3) 0.61698(16) 0.51932(15)
H73 H 0.8247 0.6065 0.5604
C87 C 0.9452(3) 0.63860(16) 0.50557(16)
H74 H 1.0151 0.6426 0.5366
C88 C 0.9566(3) 0.65455(15) 0.44642(15)
H75 H 1.0344 0.6701 0.4367
C89 C 0.8549(2) 0.64788(13) 0.40113(13)
H76 H 0.8634 0.6590 0.3604
C90 C 0.4301(2) 0.37425(13) 0.17159(13)
H77 H 0.4619 0.3557 0.1243
H78 H 0.3432 0.3867 0.1672
C91 C 0.4399(2) 0.31164(14) 0.20074(13)
C92 C 0.4053(2) 0.23571(15) 0.15786(15)
H79 H 0.3805 0.2236 0.1098
C93 C 0.4059(3) 0.17654(16) 0.18287(17)
H80 H 0.3809 0.1246 0.1524
C94 C 0.4424(3) 0.19343(18) 0.25126(19)
H81 H 0.4449 0.1529 0.2686
C95 C 0.4758(4) 0.2687(2) 0.29536(19)
H82 H 0.5001 0.2805 0.3434
C96 C 0.4742(3) 0.32777(17) 0.26986(16)
H83 H 0.4972 0.3799 0.3007
loop_
_geom_bond_atom_site_label_1
_geom_bond_atom_site_label_2
_geom_bond_site_symmetry_1
_geom_bond_site_symmetry_2
N1 C3 1_555 1_555
O1 C1 1_555 1_555
O2 C11 1_555 1_555
O3 C10 1_555 1_555
O4 C9 1_555 1_555
O5 C20 1_555 1_555
O6 C19 1_555 1_555
O7 C18 1_555 1_555
O8 C26 1_555 1_555
O9 C25 1_555 1_555
O10 C24 1_555 1_555
O11 C32 1_555 1_555
O12 C31 1_555 1_555
O13 C30 1_555 1_555
C1 C2 1_555 1_555
C2 H1 1_555 1_555
C3 C2 1_555 1_555
H2 C3 1_555 1_555
C4 C1 1_555 1_555
H3 C4 1_555 1_555
C5 N1 1_555 1_555
H4 C5 1_555 1_555
C6 N1 1_555 1_555
H5 C6 1_555 1_555
H6 C6 1_555 1_555
C7 C6 1_555 1_555
C8 C7 1_555 1_555
H7 C8 1_555 1_555
C9 C8 1_555 1_555
C10 C9 1_555 1_555
C11 C10 1_555 1_555
C12 C7 1_555 1_555
H8 C12 1_555 1_555
C13 O2 1_555 1_555
H9 C13 1_555 1_555
H10 C13 1_555 1_555
C14 O3 1_555 1_555
H11 C14 1_555 1_555
H12 C14 1_555 1_555
C15 O4 1_555 1_555
H13 C15 1_555 1_555
H14 C15 1_555 1_555
C16 C13 1_555 1_555
C17 C16 1_555 1_555
H15 C17 1_555 1_555
C18 C17 1_555 1_555
C19 C18 1_555 1_555
C20 C19 1_555 1_555
C21 C16 1_555 1_555
H16 C21 1_555 1_555
C22 C14 1_555 1_555
C23 C22 1_555 1_555
H17 C23 1_555 1_555
C24 C23 1_555 1_555
C25 C24 1_555 1_555
C26 C25 1_555 1_555
C27 C22 1_555 1_555
H18 C27 1_555 1_555
C28 C15 1_555 1_555
C29 C28 1_555 1_555
H19 C29 1_555 1_555
C30 C29 1_555 1_555
C31 C30 1_555 1_555
C32 C31 1_555 1_555
C33 C28 1_555 1_555
H20 C33 1_555 1_555
C34 O5 1_555 1_555
H21 C34 1_555 1_555
H22 C34 1_555 1_555
C35 C34 1_555 1_555
C36 C35 1_555 1_555
H23 C36 1_555 1_555
C37 C36 1_555 1_555
H24 C37 1_555 1_555
C38 C37 1_555 1_555
H25 C38 1_555 1_555
C39 C38 1_555 1_555
H26 C39 1_555 1_555
C40 C35 1_555 1_555
H27 C40 1_555 1_555
C41 O6 1_555 1_555
H28 C41 1_555 1_555
H29 C41 1_555 1_555
C42 C41 1_555 1_555
C43 C42 1_555 1_555
H30 C43 1_555 1_555
C44 C43 1_555 1_555
H31 C44 1_555 1_555
C45 C44 1_555 1_555
H32 C45 1_555 1_555
C46 C45 1_555 1_555
H33 C46 1_555 1_555
C47 C42 1_555 1_555
H34 C47 1_555 1_555
C48 O7 1_555 1_555
H35 C48 1_555 1_555
H36 C48 1_555 1_555
C49 C48 1_555 1_555
C50 C49 1_555 1_555
H37 C50 1_555 1_555
C51 C50 1_555 1_555
H38 C51 1_555 1_555
C52 C51 1_555 1_555
H39 C52 1_555 1_555
C53 C52 1_555 1_555
H40 C53 1_555 1_555
C54 C49 1_555 1_555
H41 C54 1_555 1_555
C55 O8 1_555 1_555
H42 C55 1_555 1_555
H43 C55 1_555 1_555
C56 C55 1_555 1_555
C57 C56 1_555 1_555
H44 C57 1_555 1_555
C58 C57 1_555 1_555
H45 C58 1_555 1_555
C59 C58 1_555 1_555
H46 C59 1_555 1_555
C60 C59 1_555 1_555
H47 C60 1_555 1_555
C61 C56 1_555 1_555
H48 C61 1_555 1_555
C62 O9 1_555 1_555
H49 C62 1_555 1_555
H50 C62 1_555 1_555
C63 C62 1_555 1_555
C64 C63 1_555 1_555
H51 C64 1_555 1_555
C65 C64 1_555 1_555
H52 C65 1_555 1_555
C66 C65 1_555 1_555
H53 C66 1_555 1_555
C67 C66 1_555 1_555
H54 C67 1_555 1_555
C68 C63 1_555 1_555
H55 C68 1_555 1_555
C69 O10 1_555 1_555
H56 C69 1_555 1_555
H57 C69 1_555 1_555
C70 C69 1_555 1_555
C71 C70 1_555 1_555
H58 C71 1_555 1_555
C72 C71 1_555 1_555
H59 C72 1_555 1_555
C73 C72 1_555 1_555
H60 C73 1_555 1_555
C74 C73 1_555 1_555
H61 C74 1_555 1_555
C75 C70 1_555 1_555
H62 C75 1_555 1_555
C76 O11 1_555 1_555
H63 C76 1_555 1_555
H64 C76 1_555 1_555
C77 C76 1_555 1_555
C78 C77 1_555 1_555
H65 C78 1_555 1_555
C79 C78 1_555 1_555
H66 C79 1_555 1_555
C80 C79 1_555 1_555
H67 C80 1_555 1_555
C81 C80 1_555 1_555
H68 C81 1_555 1_555
C82 C77 1_555 1_555
H69 C82 1_555 1_555
C83 O12 1_555 1_555
H70 C83 1_555 1_555
H71 C83 1_555 1_555
C84 C83 1_555 1_555
C85 C84 1_555 1_555
H72 C85 1_555 1_555
C86 C85 1_555 1_555
H73 C86 1_555 1_555
C87 C86 1_555 1_555
H74 C87 1_555 1_555
C88 C87 1_555 1_555
H75 C88 1_555 1_555
C89 C84 1_555 1_555
H76 C89 1_555 1_555
C90 O13 1_555 1_555
H77 C90 1_555 1_555
H78 C90 1_555 1_555
C91 C90 1_555 1_555
C92 C91 1_555 1_555
H79 C92 1_555 1_555
C93 C92 1_555 1_555
H80 C93 1_555 1_555
C94 C93 1_555 1_555
H81 C94 1_555 1_555
C95 C94 1_555 1_555
H82 C95 1_555 1_555
C96 C91 1_555 1_555
H83 C96 1_555 1_555
C4 C5 1_555 1_555
C11 C12 1_555 1_555
C20 C21 1_555 1_555
C26 C27 1_555 1_555
C32 C33 1_555 1_555
C39 C40 1_555 1_555
C46 C47 1_555 1_555
C53 C54 1_555 1_555
C60 C61 1_555 1_555
C67 C68 1_555 1_555
C74 C75 1_555 1_555
C81 C82 1_555 1_555
C88 C89 1_555 1_555
C95 C96 1_555 1_555

#END
