
#######################################################################
#
#                 Cambridge Crystallographic Data Centre
#                                CCDC 
#
#######################################################################
#
# If this CIF has been generated from an entry in the Cambridge 
# Structural Database, then it will include bibliographic, chemical, 
# crystal, experimental, refinement or atomic coordinate data resulting 
# from the CCDC's data processing and validation procedures.
#
#######################################################################

data_IBIDON
_chemical_name_common            'Isoquine ethanol solvate'
_chemical_formula_moiety         'C20 H22 Cl1 N3 O1,C2 H6 O1'
_chemical_name_systematic        
'5-(7-Chloroquinolin-4-ylamino)-2-(diethylaminomethyl)phenol ethanol solvate'
_chemical_properties_biological  'antimalarial activity'
_symmetry_cell_setting           triclinic
_symmetry_space_group_name_H-M   'P -1'
_symmetry_Int_Tables_number      2
_space_group_name_Hall           '-P 1'
loop_
_symmetry_equiv_pos_site_id
_symmetry_equiv_pos_as_xyz
1 x,y,z
2 -x,-y,-z
_cell_length_a                   8.7060(17)
_cell_length_b                   11.339(2)
_cell_length_c                   11.730(2)
_cell_angle_alpha                83.11(3)
_cell_angle_beta                 72.26(3)
_cell_angle_gamma                74.18(3)
_cell_volume                     1060.26
_exptl_crystal_colour            off-white
_chemical_melting_point          '134-135 deg.C'
_cell_formula_units_Z            2
loop_
_atom_site_label
_atom_site_type_symbol
_atom_site_fract_x
_atom_site_fract_y
_atom_site_fract_z
C1 C 0.2315(11) 1.1150(8) 0.5642(7)
C2 C 0.1613(11) 1.2235(8) 0.5146(7)
C3 C -0.0086(12) 1.2510(8) 0.5246(7)
C4 C -0.1040(11) 1.1735(8) 0.5817(7)
C5 C -0.0341(11) 1.0598(7) 0.6365(7)
C6 C 0.1367(11) 1.0312(8) 0.6265(7)
C7 C 0.2067(11) 0.9137(8) 0.6778(7)
C8 C 0.0999(11) 0.8404(8) 0.7296(7)
C9 C -0.0652(11) 0.8774(8) 0.7333(8)
C10 C 0.4537(10) 0.7664(8) 0.7147(8)
C11 C 0.4523(11) 0.6587(9) 0.6694(8)
C12 C 0.5319(11) 0.5455(9) 0.7117(9)
C13 C 0.6144(10) 0.5350(8) 0.7981(7)
C14 C 0.6190(10) 0.6451(8) 0.8401(8)
C15 C 0.5384(10) 0.7575(8) 0.7984(8)
C16 C 0.6820(11) 0.4124(8) 0.8517(8)
C17 C 0.8536(12) 0.3096(8) 0.9838(7)
C18 C 0.8679(15) 0.1799(8) 0.9510(9)
C19 C 0.9773(11) 0.4033(9) 0.7890(8)
C20 C 1.1105(13) 0.4458(10) 0.8161(9)
Cl1 Cl -0.1005(3) 1.3906(2) 0.4634(2)
N1 N -0.1364(9) 0.9865(7) 0.6894(6)
N2 N 0.3708(9) 0.8828(7) 0.6754(6)
N3 N 0.8295(9) 0.4079(6) 0.8898(6)
O1 O 0.6978(8) 0.6431(5) 0.9239(6)
H1 H 0.3461 1.0953 0.5570
H2 H 0.2258 1.2785 0.4747
H3 H -0.2176 1.1944 0.5855
H4 H 0.1408 0.7631 0.7633
H5 H -0.1326 0.8231 0.7688
H6 H 0.3979 0.6624 0.6106
H7 H 0.5296 0.4737 0.6804
H8 H 0.5418 0.8297 0.8283
H9 H 0.5950 0.3925 0.9210
H10 H 0.7114 0.3498 0.7926
H11 H 0.7598 0.3304 1.0560
H12 H 0.9548 0.3096 1.0040
H13 H 0.9652 0.1554 0.8833
H14 H 0.7690 0.1784 0.9301
H15 H 0.8785 0.1236 1.0189
H16 H 0.9452 0.4544 0.7224
H17 H 1.0230 0.3187 0.7628
H18 H 1.1373 0.3999 0.8858
H19 H 1.0713 0.5325 0.8321
H20 H 1.2093 0.4324 0.7480
H21 H 0.4276 0.9377 0.6481
H22 H 0.7413 0.5710 0.9407
O2 O 0.5390(8) 0.0617(6) 0.6924(7)
C21 C 0.4460(40) 0.1630(20) 0.7630(20)
C22 C 0.4370(50) 0.1090(30) 0.8820(20)
H23 H 0.3349 0.1941 0.7511
H24 H 0.5031 0.2291 0.7455
H25 H 0.3299 0.0903 0.9175
H26 H 0.4507 0.1666 0.9310
H27 H 0.5251 0.0342 0.8778
C23? C 0.4710(30) 0.1380(20) 0.7940(20)
C24? C 0.3330(30) 0.1120(20) 0.8910(18)
H28? H 0.4356 0.2226 0.7650
H29? H 0.5620 0.1346 0.8285
H30? H 0.2410 0.1151 0.8600
H31? H 0.2987 0.1731 0.9513
H32? H 0.3679 0.0313 0.9266
loop_
_geom_bond_atom_site_label_1
_geom_bond_atom_site_label_2
_geom_bond_site_symmetry_1
_geom_bond_site_symmetry_2
C1 C2 1_555 1_555
C2 C3 1_555 1_555
C3 C4 1_555 1_555
C4 C5 1_555 1_555
C5 C6 1_555 1_555
C6 C1 1_555 1_555
C7 C6 1_555 1_555
C8 C7 1_555 1_555
C9 C8 1_555 1_555
C10 C11 1_555 1_555
C11 C12 1_555 1_555
C12 C13 1_555 1_555
C13 C14 1_555 1_555
C14 C15 1_555 1_555
C15 C10 1_555 1_555
C16 C13 1_555 1_555
C17 C18 1_555 1_555
C18 H13 1_555 1_555
C19 C20 1_555 1_555
C20 H18 1_555 1_555
Cl1 C3 1_555 1_555
N1 C5 1_555 1_555
N2 C7 1_555 1_555
N3 C16 1_555 1_555
O1 C14 1_555 1_555
H1 C1 1_555 1_555
H2 C2 1_555 1_555
H3 C4 1_555 1_555
H4 C8 1_555 1_555
H5 C9 1_555 1_555
H6 C11 1_555 1_555
H7 C12 1_555 1_555
H8 C15 1_555 1_555
H9 C16 1_555 1_555
H10 C16 1_555 1_555
H11 C17 1_555 1_555
H12 C17 1_555 1_555
H14 C18 1_555 1_555
H15 C18 1_555 1_555
H16 C19 1_555 1_555
H17 C19 1_555 1_555
H19 C20 1_555 1_555
H20 C20 1_555 1_555
H21 N2 1_555 1_555
H22 O1 1_555 1_555
O2 C21 1_555 1_555
C21 C22 1_555 1_555
C22 H25 1_555 1_555
H23 C21 1_555 1_555
H24 C21 1_555 1_555
H26 C22 1_555 1_555
H27 C22 1_555 1_555
C9 N1 1_555 1_555
C10 N2 1_555 1_555
C17 N3 1_555 1_555
C19 N3 1_555 1_555

#END
