
#######################################################################
#
#                 Cambridge Crystallographic Data Centre
#                                CCDC 
#
#######################################################################
#
# If this CIF has been generated from an entry in the Cambridge 
# Structural Database, then it will include bibliographic, chemical, 
# crystal, experimental, refinement or atomic coordinate data resulting 
# from the CCDC's data processing and validation procedures.
#
#######################################################################

data_IBIMEO
_chemical_name_common            'lyonivalone F'
_chemical_formula_moiety         'C20 H30 O4'
_chemical_name_systematic        
1\a,7\b,14\a-trihydroxy-isopimara-8(9),15-dien-6-one
_symmetry_cell_setting           triclinic
_symmetry_space_group_name_H-M   'P 1'
_symmetry_Int_Tables_number      1
_space_group_name_Hall           'P 1'
loop_
_symmetry_equiv_pos_site_id
_symmetry_equiv_pos_as_xyz
1 x,y,z
_cell_length_a                   9.5443(10)
_cell_length_b                   9.6448(10)
_cell_length_c                   10.8445(11)
_cell_angle_alpha                102.540(9)
_cell_angle_beta                 109.711(9)
_cell_angle_gamma                90.785(8)
_cell_volume                     913.242
_exptl_crystal_colour            colorless
_exptl_crystal_description       plate
_chemical_melting_point          '442-443 K'
_cell_formula_units_Z            2
_exptl_crystal_recrystallization_method methanol/water
loop_
_atom_site_label
_atom_site_type_symbol
_atom_site_fract_x
_atom_site_fract_y
_atom_site_fract_z
O1 O -0.5817(2) -0.4672(2) -0.2547(2)
H1 H -0.6252 -0.5488 -0.2963
O2 O -0.6164(3) 0.0437(2) -0.2544(2)
H2 H -0.6311 -0.0409 -0.3003
O3 O -0.2447(3) 0.0866(2) -0.0550(2)
H3 H -0.1549 0.0842 -0.0080
C1 C -0.4047(3) -0.3218(3) -0.0505(3)
C2 C -0.2824(3) -0.3135(3) -0.1171(3)
H4 H -0.3402 -0.3223 -0.2148
C3 C -0.7781(4) 0.1602(4) -0.0865(4)
H5 H -0.7291 0.2517 -0.0723
C4 C -0.7621(3) -0.1049(3) -0.1023(3)
H6 H -0.8081 -0.1256 -0.2017
H7 H -0.8433 -0.1074 -0.0650
C5 C -0.4956(3) -0.4691(3) -0.1185(3)
H8 H -0.5658 -0.4826 -0.0704
C6 C -0.1769(3) -0.4360(3) -0.1142(3)
C7 C -0.6781(3) 0.0433(3) -0.0505(3)
C8 C -0.5061(3) -0.2001(3) -0.0754(3)
C9 C -0.3120(3) -0.0539(3) -0.1171(3)
H9 H -0.3332 -0.0694 -0.2161
C10 C -0.6036(4) 0.0791(4) 0.1041(3)
H10 H -0.6798 0.0716 0.1450
H11 H -0.5545 0.1766 0.1355
H12 H -0.5292 0.0120 0.1302
C11 C -0.6580(3) -0.2202(3) -0.0623(3)
H13 H -0.6431 -0.2215 0.0323
H14 H -0.7079 -0.3143 -0.1195
O4 O -0.0816(3) -0.1239(2) 0.0116(2)
C12 C -0.4599(3) -0.0785(3) -0.0961(3)
C13 C -0.9247(4) 0.1489(4) -0.1351(4)
H15 H -0.9796 0.0599 -0.1514
H16 H -0.9760 0.2298 -0.1541
C14 C -0.5556(3) 0.0447(3) -0.1133(3)
H17 H -0.4887 0.1350 -0.0660
C15 C -0.3382(3) -0.3040(3) 0.1036(3)
H18 H -0.2484 -0.2364 0.1410
H19 H -0.3119 -0.3965 0.1237
H20 H -0.4122 -0.2678 0.1440
C16 C -0.3967(4) -0.5929(3) -0.1151(3)
H21 H -0.3461 -0.5982 -0.0203
H22 H -0.4604 -0.6834 -0.1638
C17 C -0.0673(4) -0.4417(4) 0.0260(4)
H23 H -0.1234 -0.4674 0.0799
H24 H -0.0112 -0.3480 0.0712
H25 H 0.0024 -0.5133 0.0159
C18 C -0.0861(4) -0.4165(4) -0.2035(4)
H26 H -0.0245 -0.3249 -0.1653
H27 H -0.1545 -0.4180 -0.2946
H28 H -0.0215 -0.4942 -0.2075
C19 C -0.2788(4) -0.5763(3) -0.1789(3)
H29 H -0.3299 -0.5813 -0.2760
H30 H -0.2162 -0.6572 -0.1712
C20 C -0.2081(3) -0.1631(3) -0.0661(3)
C21 C -1.1015(4) -0.8118(3) -0.5678(3)
O5 O -0.6594(3) -0.2418(2) -0.3935(2)
H31 H -0.6251 -0.3025 -0.3487
O6 O -1.0274(3) -0.3092(2) -0.6056(3)
H32 H -1.1087 -0.3420 -0.6678
O7 O -0.7000(3) -0.7540(2) -0.4053(2)
H33 H -0.6709 -0.8153 -0.3601
C22 C -0.8762(4) -0.9560(3) -0.5560(3)
H34 H -0.8137 -1.0208 -0.5060
H35 H -0.9199 -1.0074 -0.6519
C23 C -0.5070(3) -0.4582(3) -0.5470(3)
H36 H -0.4248 -0.4749 -0.5832
H37 H -0.4623 -0.4332 -0.4474
C24 C -0.8107(3) -0.4448(3) -0.5580(3)
C25 C -0.5881(4) -0.3331(3) -0.5942(3)
C26 C -0.7150(3) -0.3101(3) -0.5350(3)
H38 H -0.7814 -0.2444 -0.5823
O8 O -1.1914(3) -0.5561(3) -0.6814(2)
C27 C -1.0023(4) -0.9191(3) -0.5013(3)
H39 H -0.9585 -0.8785 -0.4029
H40 H -1.0654 -1.0078 -0.5162
C28 C -0.9954(3) -0.6821(3) -0.5544(3)
H41 H -0.9431 -0.6458 -0.4551
C29 C -0.7772(3) -0.8247(3) -0.5443(3)
H42 H -0.7015 -0.8558 -0.5871
C30 C -1.0661(3) -0.5556(3) -0.6015(3)
C31 C -0.6116(3) -0.5950(3) -0.5925(3)
H43 H -0.6244 -0.6393 -0.6875
H44 H -0.5633 -0.6623 -0.5376
C32 C -0.6596(4) -0.3670(4) -0.7486(3)
H45 H -0.7377 -0.4465 -0.7790
H46 H -0.5829 -0.3935 -0.7886
H47 H -0.7037 -0.2828 -0.7766
C33 C -0.8657(3) -0.7127(3) -0.6129(3)
C34 C -0.4864(4) -0.1966(4) -0.5479(4)
H48 H -0.5335 -0.1120 -0.5602
C35 C -0.3397(4) -0.1817(4) -0.4924(4)
H49 H -0.2867 -0.2627 -0.4776
H50 H -0.2867 -0.0899 -0.4670
C36 C -0.9631(3) -0.4191(3) -0.5435(3)
H51 H -0.9476 -0.3883 -0.4453
C37 C -1.2037(4) -0.7603(4) -0.4870(4)
H52 H -1.1424 -0.7112 -0.3946
H53 H -1.2638 -0.8425 -0.4851
H54 H -1.2699 -0.6944 -0.5297
C38 C -1.2024(4) -0.8879(4) -0.7122(4)
H55 H -1.2787 -0.9540 -0.7081
H56 H -1.1415 -0.9412 -0.7596
H57 H -1.2510 -0.8170 -0.7607
C39 C -0.9248(3) -0.7685(3) -0.7691(3)
H58 H -1.0152 -0.7232 -0.8085
H59 H -0.9484 -0.8721 -0.7924
H60 H -0.8480 -0.7452 -0.8047
C40 C -0.7653(3) -0.5757(3) -0.5822(3)
loop_
_geom_bond_atom_site_label_1
_geom_bond_atom_site_label_2
_geom_bond_site_symmetry_1
_geom_bond_site_symmetry_2
O1 H1 1_555 1_555
O2 H2 1_555 1_555
O3 H3 1_555 1_555
C1 C2 1_555 1_555
C2 H4 1_555 1_555
C3 H5 1_555 1_555
C4 H6 1_555 1_555
H7 C4 1_555 1_555
C5 O1 1_555 1_555
H8 C5 1_555 1_555
C6 C2 1_555 1_555
C7 C3 1_555 1_555
C8 C1 1_555 1_555
C9 O3 1_555 1_555
H9 C9 1_555 1_555
C10 C7 1_555 1_555
H10 C10 1_555 1_555
H11 C10 1_555 1_555
H12 C10 1_555 1_555
C11 C4 1_555 1_555
H13 C11 1_555 1_555
H14 C11 1_555 1_555
O4 C20 1_555 1_555
C12 C8 1_555 1_555
C13 C3 1_555 1_555
H15 C13 1_555 1_555
H16 C13 1_555 1_555
C14 O2 1_555 1_555
H17 C14 1_555 1_555
C15 C1 1_555 1_555
H18 C15 1_555 1_555
H19 C15 1_555 1_555
H20 C15 1_555 1_555
C16 C5 1_555 1_555
H21 C16 1_555 1_555
H22 C16 1_555 1_555
C17 C6 1_555 1_555
H23 C17 1_555 1_555
H24 C17 1_555 1_555
H25 C17 1_555 1_555
C18 C6 1_555 1_555
H26 C18 1_555 1_555
H27 C18 1_555 1_555
H28 C18 1_555 1_555
C19 C6 1_555 1_555
H29 C19 1_555 1_555
H30 C19 1_555 1_555
C20 C2 1_555 1_555
C21 C27 1_555 1_555
O5 H31 1_555 1_555
O6 H32 1_555 1_555
O7 H33 1_555 1_555
C22 H34 1_555 1_555
H35 C22 1_555 1_555
C23 H36 1_555 1_555
H37 C23 1_555 1_555
C24 C26 1_555 1_555
C25 C23 1_555 1_555
C26 O5 1_555 1_555
H38 C26 1_555 1_555
O8 C30 1_555 1_555
C27 C22 1_555 1_555
H39 C27 1_555 1_555
H40 C27 1_555 1_555
C28 C21 1_555 1_555
H41 C28 1_555 1_555
C29 O7 1_555 1_555
H42 C29 1_555 1_555
C30 C28 1_555 1_555
C31 C23 1_555 1_555
H43 C31 1_555 1_555
H44 C31 1_555 1_555
C32 C25 1_555 1_555
H45 C32 1_555 1_555
H46 C32 1_555 1_555
H47 C32 1_555 1_555
C33 C28 1_555 1_555
C34 C25 1_555 1_555
H48 C34 1_555 1_555
C35 C34 1_555 1_555
H49 C35 1_555 1_555
H50 C35 1_555 1_555
C36 O6 1_555 1_555
H51 C36 1_555 1_555
C37 C21 1_555 1_555
H52 C37 1_555 1_555
H53 C37 1_555 1_555
H54 C37 1_555 1_555
C38 C21 1_555 1_555
H55 C38 1_555 1_555
H56 C38 1_555 1_555
H57 C38 1_555 1_555
C39 C33 1_555 1_555
H58 C39 1_555 1_555
H59 C39 1_555 1_555
H60 C39 1_555 1_555
C40 C24 1_555 1_555
C1 C5 1_555 1_555
C4 C7 1_555 1_555
C7 C14 1_555 1_555
C8 C11 1_555 1_555
C9 C12 1_555 1_555
C9 C20 1_555 1_555
C12 C14 1_555 1_555
C16 C19 1_555 1_555
C22 C29 1_555 1_555
C24 C36 1_555 1_555
C25 C26 1_555 1_555
C29 C33 1_555 1_555
C30 C36 1_555 1_555
C31 C40 1_555 1_555
C33 C40 1_555 1_555

#END
