
#######################################################################
#
#                 Cambridge Crystallographic Data Centre
#                                CCDC 
#
#######################################################################
#
# If this CIF has been generated from an entry in the Cambridge 
# Structural Database, then it will include bibliographic, chemical, 
# crystal, experimental, refinement or atomic coordinate data resulting 
# from the CCDC's data processing and validation procedures.
#
#######################################################################

data_IBISEU01
_chemical_formula_moiety         'C9 H15 N9 2+,C1 O3 2-,4(H2 O1)'
_chemical_name_systematic        
'(2,6-bis(((guanidin-2-ium-1-yl)imino)methyl)pyridine) carbonate tetrahydrate'
_symmetry_cell_setting           triclinic
_symmetry_space_group_name_H-M   'P -1'
_symmetry_Int_Tables_number      2
_space_group_name_Hall           '-P 1'
loop_
_symmetry_equiv_pos_site_id
_symmetry_equiv_pos_as_xyz
1 x,y,z
2 -x,-y,-z
_cell_length_a                   8.2090(2)
_cell_length_b                   8.5762(2)
_cell_length_c                   13.8676(4)
_cell_angle_alpha                72.591(2)
_cell_angle_beta                 78.815(2)
_cell_angle_gamma                71.0422(17)
_cell_volume                     875.974
_exptl_crystal_colour            colorless
_exptl_crystal_description       block
_cell_formula_units_Z            2
loop_
_atom_site_label
_atom_site_type_symbol
_atom_site_fract_x
_atom_site_fract_y
_atom_site_fract_z
C1 C -0.393854(16) 0.899037(17) -0.191931(13)
O1 O -0.469282(18) 0.991765(17) -0.271783(14)
O2 O -0.426140(19) 0.757127(18) -0.142588(14)
O3 O -0.285570(17) 0.948565(17) -0.160417(13)
O4 O 0.75846(2) 0.20366(2) 0.043522(17)
H1 H 0.8342(4) 0.1733(9) 0.0961(2)
H2 H 0.6446(3) 0.2041(8) 0.0817(4)
O5 O 0.26382(2) 0.09435(2) 0.450433(16)
H3 H 0.2445(9) 0.21635(17) 0.4389(5)
H4 H 0.3375(6) 0.0653(8) 0.3912(2)
O6 O 0.94352(2) 0.184288(19) 0.199156(16)
H5 H 0.8772(6) 0.1364(7) 0.2614(2)
H6 H 1.0662(2) 0.1184(7) 0.1974(6)
O7 O 0.699718(19) 0.098775(19) 0.350384(16)
H7 H 0.7081(10) 0.0295(7) 0.42101(17)
H8 H 0.6210(4) 0.0661(5) 0.3213(3)
N1 N -0.231140(18) 0.562701(19) 0.012676(15)
H9 H -0.2221(8) 0.43377(19) 0.0365(5)
H10 H -0.2973(6) 0.6390(7) -0.0461(2)
C2 C -0.176706(16) 0.633633(18) 0.068282(13)
N2 N -0.19616(2) 0.80022(2) 0.041425(16)
H11 H -0.1502(5) 0.8524(4) 0.0831(3)
H12 H -0.2424(7) 0.8700(7) -0.0272(2)
C3 C 0.036458(17) 0.505275(18) 0.284909(13)
H13 H 0.0605(9) 0.36685(13) 0.3040(5)
N3 N -0.100870(17) 0.533197(18) 0.152569(14)
H14 H -0.0836(9) 0.40022(16) 0.1731(6)
C4 C 0.091974(16) 0.576300(17) 0.352824(12)
N4 N -0.042925(17) 0.606717(19) 0.208424(14)
C5 C 0.043718(17) 0.752022(18) 0.342394(13)
H15 H -0.0362(5) 0.8382(6) 0.2832(3)
C6 C 0.097301(18) 0.812333(18) 0.409876(14)
H16 H 0.0605(9) 0.94795(17) 0.4049(5)
N5 N 0.187435(16) 0.462028(18) 0.425870(13)
C7 C 0.195735(17) 0.696026(17) 0.485430(13)
H17 H 0.2393(5) 0.7373(5) 0.5402(2)
N6 N 0.388563(17) 0.446817(18) 0.634204(14)
C8 C 0.238053(16) 0.521773(17) 0.490883(12)
N7 N 0.482825(17) 0.330366(17) 0.708170(13)
H18 H 0.5097(9) 0.20005(17) 0.7163(5)
C9 C 0.341477(16) 0.393592(17) 0.569772(13)
H19 H 0.3721(9) 0.2584(2) 0.5719(5)
N8 N 0.486444(18) 0.560531(18) 0.761509(14)
H20 H 0.4192(6) 0.6373(7) 0.7040(2)
H21 H 0.5296(5) 0.6166(4) 0.8038(3)
C10 C 0.532560(16) 0.393882(17) 0.772754(12)
N9 N 0.624964(18) 0.282319(18) 0.845606(14)
H22 H 0.6658(6) 0.3229(5) 0.8984(2)
H23 H 0.6615(9) 0.1565(2) 0.8475(5)
O8 O 0.9737(11) -0.0158(10) 0.0804(7)
loop_
_geom_bond_atom_site_label_1
_geom_bond_atom_site_label_2
_geom_bond_site_symmetry_1
_geom_bond_site_symmetry_2
C1 O1 1_555 1_555
O2 C1 1_555 1_555
O3 C1 1_555 1_555
O4 H1 1_555 1_555
H2 O4 1_555 1_555
O5 H3 1_555 1_555
H4 O5 1_555 1_555
O6 H5 1_555 1_555
H6 O6 1_555 1_555
O7 H7 1_555 1_555
H8 O7 1_555 1_555
N1 H9 1_555 1_555
H10 N1 1_555 1_555
C2 N1 1_555 1_555
N2 C2 1_555 1_555
H11 N2 1_555 1_555
H12 N2 1_555 1_555
C3 H13 1_555 1_555
N3 C2 1_555 1_555
H14 N3 1_555 1_555
C4 C3 1_555 1_555
N4 C3 1_555 1_555
C5 C4 1_555 1_555
H15 C5 1_555 1_555
C6 C5 1_555 1_555
H16 C6 1_555 1_555
N5 C4 1_555 1_555
C7 C6 1_555 1_555
H17 C7 1_555 1_555
N6 N7 1_555 1_555
C8 N5 1_555 1_555
N7 H18 1_555 1_555
C9 N6 1_555 1_555
H19 C9 1_555 1_555
N8 H20 1_555 1_555
H21 N8 1_555 1_555
C10 N7 1_555 1_555
N9 C10 1_555 1_555
H22 N9 1_555 1_555
H23 N9 1_555 1_555
N3 N4 1_555 1_555
C7 C8 1_555 1_555
C8 C9 1_555 1_555
N8 C10 1_555 1_555

#END
