
#######################################################################
#
#                 Cambridge Crystallographic Data Centre
#                                CCDC 
#
#######################################################################
#
# If this CIF has been generated from an entry in the Cambridge 
# Structural Database, then it will include bibliographic, chemical, 
# crystal, experimental, refinement or atomic coordinate data resulting 
# from the CCDC's data processing and validation procedures.
#
#######################################################################

data_IBODEJ
_chemical_name_common            
'Methyltriphenylphosphonium 2-phenyl-o-carboran-1-olate'
_chemical_formula_moiety         'C8 H15 B10 O1 1-,C19 H18 P1 1+'
_chemical_name_systematic        
'Methyltriphenylphosphonium 1-oxy-2-phenyl-1,2-dicarba-closo-dodecaborane'
_symmetry_cell_setting           triclinic
_symmetry_space_group_name_H-M   'P -1'
_symmetry_Int_Tables_number      2
_space_group_name_Hall           '-P 1'
loop_
_symmetry_equiv_pos_site_id
_symmetry_equiv_pos_as_xyz
1 x,y,z
2 -x,-y,-z
_cell_length_a                   10.845(1)
_cell_length_b                   11.260(1)
_cell_length_c                   11.511(1)
_cell_angle_alpha                84.97(1)
_cell_angle_beta                 86.27(1)
_cell_angle_gamma                86.21(1)
_cell_volume                     1394.7
_exptl_crystal_colour            colorless
_exptl_crystal_description       block
_cell_formula_units_Z            2
loop_
_atom_site_label
_atom_site_type_symbol
_atom_site_fract_x
_atom_site_fract_y
_atom_site_fract_z
O1 O 0.3968(4) 0.6431(3) 0.3812(3)
C1 C 0.3192(5) 0.6986(5) 0.3211(5)
C2 C 0.3523(5) 0.8708(5) 0.2562(5)
B1 B 0.2466(6) 0.8405(6) 0.3670(6)
H1 H 0.2649 0.8653 0.4561
B2 B 0.1654(6) 0.7136(6) 0.3436(6)
H2 H 0.1204 0.6575 0.4175
B3 B 0.2403(6) 0.6561(6) 0.2127(6)
H3 H 0.2478 0.5598 0.1941
B4 B 0.3612(6) 0.7542(6) 0.1696(6)
H4 H 0.4535 0.7231 0.1300
B5 B 0.2179(6) 0.9547(6) 0.2520(7)
H5 H 0.2091 1.0522 0.2655
B6 B 0.1001(7) 0.8587(6) 0.3046(7)
H6 H 0.0145 0.8938 0.3531
B7 B 0.0983(7) 0.7452(7) 0.2059(7)
H7 H 0.0105 0.7055 0.1870
B8 B 0.2202(7) 0.7684(7) 0.0968(7)
H8 H 0.2151 0.7434 0.0052
B9 B 0.2922(7) 0.8991(6) 0.1253(6)
H9 H 0.3342 0.9591 0.0527
B10 B 0.1291(7) 0.8929(7) 0.1511(7)
H10 H 0.0621 0.9492 0.0966
C3 C 0.4730(5) 0.9171(5) 0.2816(5)
C4 C 0.5224(6) 0.8900(6) 0.3902(5)
H11 H 0.4775 0.8445 0.4501
C5 C 0.6363(6) 0.9288(6) 0.4112(6)
H12 H 0.6691 0.9085 0.4854
C6 C 0.7036(6) 0.9965(6) 0.3268(6)
H13 H 0.7822 1.0223 0.3420
C7 C 0.6541(6) 1.0258(6) 0.2198(6)
H14 H 0.6983 1.0735 0.1612
C8 C 0.5408(6) 0.9864(6) 0.1972(5)
H15 H 0.5084 1.0069 0.1229
P1 P 0.72649(13) 0.49794(13) 0.27515(13)
C9 C 0.6833(5) 0.5808(5) 0.3978(5)
H16 H 0.6057 0.6281 0.3841
H17 H 0.7485 0.6343 0.4089
H18 H 0.6720 0.5257 0.4678
C10 C 0.7700(5) 0.5964(5) 0.1503(5)
C11 C 0.7472(5) 0.7193(5) 0.1500(5)
H19 H 0.7018 0.7524 0.2141
C12 C 0.7906(6) 0.7934(6) 0.0560(6)
H20 H 0.7759 0.8776 0.0559
C13 C 0.8553(6) 0.7448(6) -0.0372(5)
H21 H 0.8868 0.7962 -0.1006
C14 C 0.8752(6) 0.6228(6) -0.0402(5)
H22 H 0.9171 0.5902 -0.1063
C15 C 0.8332(5) 0.5478(5) 0.0549(5)
H23 H 0.8477 0.4637 0.0545
C16 C 0.5999(5) 0.4124(5) 0.2479(4)
C17 C 0.5631(6) 0.4054(5) 0.1351(5)
H24 H 0.6058 0.4456 0.0701
C18 C 0.4628(6) 0.3387(6) 0.1188(5)
H25 H 0.4366 0.3340 0.0423
C19 C 0.4020(6) 0.2802(6) 0.2119(6)
H26 H 0.3344 0.2340 0.2000
C20 C 0.4389(6) 0.2882(7) 0.3232(6)
H27 H 0.3945 0.2488 0.3876
C21 C 0.5377(6) 0.3513(6) 0.3431(5)
H28 H 0.5636 0.3537 0.4200
C22 C 0.8606(5) 0.4022(5) 0.3101(4)
C23 C 0.9651(5) 0.4559(5) 0.3398(5)
H29 H 0.9644 0.5404 0.3392
C24 C 1.0695(6) 0.3862(6) 0.3700(5)
H30 H 1.1404 0.4229 0.3906
C25 C 1.0715(6) 0.2631(6) 0.3705(6)
H31 H 1.1434 0.2154 0.3919
C26 C 0.9689(6) 0.2099(6) 0.3397(6)
H32 H 0.9705 0.1255 0.3393
C27 C 0.8631(6) 0.2790(5) 0.3093(6)
H33 H 0.7926 0.2419 0.2880
loop_
_geom_bond_atom_site_label_1
_geom_bond_atom_site_label_2
_geom_bond_site_symmetry_1
_geom_bond_site_symmetry_2
O1 C1 1_555 1_555
C1 C2 1_555 1_555
C2 B1 1_555 1_555
B1 C1 1_555 1_555
H1 B1 1_555 1_555
B2 C1 1_555 1_555
H2 B2 1_555 1_555
B3 C1 1_555 1_555
H3 B3 1_555 1_555
B4 C1 1_555 1_555
H4 B4 1_555 1_555
B5 C2 1_555 1_555
H5 B5 1_555 1_555
B6 B1 1_555 1_555
H6 B6 1_555 1_555
B7 B2 1_555 1_555
H7 B7 1_555 1_555
B8 B3 1_555 1_555
H8 B8 1_555 1_555
B9 C2 1_555 1_555
H9 B9 1_555 1_555
B10 B5 1_555 1_555
H10 B10 1_555 1_555
C3 C2 1_555 1_555
C4 C3 1_555 1_555
H11 C4 1_555 1_555
C5 C4 1_555 1_555
H12 C5 1_555 1_555
C6 C5 1_555 1_555
H13 C6 1_555 1_555
C7 C6 1_555 1_555
H14 C7 1_555 1_555
C8 C3 1_555 1_555
H15 C8 1_555 1_555
P1 C9 1_555 1_555
C9 H16 1_555 1_555
H17 C9 1_555 1_555
H18 C9 1_555 1_555
C10 P1 1_555 1_555
C11 C10 1_555 1_555
H19 C11 1_555 1_555
C12 C11 1_555 1_555
H20 C12 1_555 1_555
C13 C12 1_555 1_555
H21 C13 1_555 1_555
C14 C13 1_555 1_555
H22 C14 1_555 1_555
C15 C10 1_555 1_555
H23 C15 1_555 1_555
C16 P1 1_555 1_555
C17 C16 1_555 1_555
H24 C17 1_555 1_555
C18 C17 1_555 1_555
H25 C18 1_555 1_555
C19 C18 1_555 1_555
H26 C19 1_555 1_555
C20 C19 1_555 1_555
H27 C20 1_555 1_555
C21 C16 1_555 1_555
H28 C21 1_555 1_555
C22 P1 1_555 1_555
C23 C22 1_555 1_555
H29 C23 1_555 1_555
C24 C23 1_555 1_555
H30 C24 1_555 1_555
C25 C24 1_555 1_555
H31 C25 1_555 1_555
C26 C25 1_555 1_555
H32 C26 1_555 1_555
C27 C22 1_555 1_555
H33 C27 1_555 1_555
C2 B4 1_555 1_555
B1 B5 1_555 1_555
B1 B2 1_555 1_555
B2 B6 1_555 1_555
B2 B3 1_555 1_555
B3 B7 1_555 1_555
B3 B4 1_555 1_555
B4 B9 1_555 1_555
B4 B8 1_555 1_555
B5 B9 1_555 1_555
B5 B6 1_555 1_555
B6 B10 1_555 1_555
B6 B7 1_555 1_555
B7 B8 1_555 1_555
B7 B10 1_555 1_555
B8 B9 1_555 1_555
B8 B10 1_555 1_555
B9 B10 1_555 1_555
C7 C8 1_555 1_555
C14 C15 1_555 1_555
C20 C21 1_555 1_555
C26 C27 1_555 1_555

#END
