
#######################################################################
#
#                 Cambridge Crystallographic Data Centre
#                                CCDC 
#
#######################################################################
#
# If this CIF has been generated from an entry in the Cambridge 
# Structural Database, then it will include bibliographic, chemical, 
# crystal, experimental, refinement or atomic coordinate data resulting 
# from the CCDC's data processing and validation procedures.
#
#######################################################################

data_IBOWEC
_chemical_formula_moiety         'C20 H27 N2 1+,C7 H7 O3 S1 1-,H2 O1'
_chemical_name_systematic        
'4-(4-(N,N-Di-n-propylamino)styryl)-N-methylpyridinium p-toluenesulfonate monohydrate'
_symmetry_cell_setting           monoclinic
_symmetry_space_group_name_H-M   'P 21/c'
_symmetry_Int_Tables_number      14
_space_group_name_Hall           '-P 2ybc'
loop_
_symmetry_equiv_pos_site_id
_symmetry_equiv_pos_as_xyz
1 x,y,z
2 x,1/2-y,1/2+z
3 -x,-y,-z
4 -x,1/2+y,1/2-z
_cell_length_a                   9.836(2)
_cell_length_b                   8.108(3)
_cell_length_c                   33.016(7)
_cell_angle_alpha                90
_cell_angle_beta                 94.101(6)
_cell_angle_gamma                90
_cell_volume                     2626.29
_exptl_crystal_colour            red
_exptl_crystal_description       prism
_cell_formula_units_Z            4
loop_
_atom_site_label
_atom_site_type_symbol
_atom_site_fract_x
_atom_site_fract_y
_atom_site_fract_z
C1 C 0.3955(7) 0.3131(7) 0.48196(19)
H1 H 0.4811 0.3704 0.4832
H2 H 0.3669 0.2990 0.5089
H3 H 0.3283 0.3761 0.4661
C2 C 0.5294(6) 0.1012(7) 0.45025(16)
H4 H 0.6045 0.1707 0.4537
C3 C 0.5433(6) -0.0485(6) 0.43218(16)
H5 H 0.6280 -0.0785 0.4237
C4 C 0.4371(7) -0.1552(6) 0.42625(17)
C5 C 0.3150(7) -0.1033(8) 0.43979(19)
H6 H 0.2392 -0.1717 0.4366
C6 C 0.3033(6) 0.0481(8) 0.45804(18)
H7 H 0.2200 0.0805 0.4671
C7 C 0.4634(6) -0.3190(8) 0.40598(18)
H8 H 0.5521 -0.3447 0.4002
C8 C 0.3708(7) -0.4211(8) 0.39667(19)
H9 H 0.2838 -0.3924 0.4035
C9 C 0.3831(7) -0.5819(6) 0.37610(17)
C10 C 0.5067(7) -0.6430(7) 0.36270(18)
H10 H 0.5857 -0.5801 0.3664
C11 C 0.5111(6) -0.7966(7) 0.34406(17)
H11 H 0.5932 -0.8353 0.3354
C12 C 0.3933(5) -0.8939(7) 0.33808(17)
C13 C 0.2737(6) -0.8257(7) 0.35142(18)
H12 H 0.1933 -0.8858 0.3475
C14 C 0.2692(6) -0.6786(8) 0.36953(19)
H13 H 0.1866 -0.6407 0.3779
C15 C 0.2720(7) -1.1575(9) 0.3167(2)
H14 H 0.3016 -1.2716 0.3186
H15 H 0.2154 -1.1361 0.3390
C16 C 0.1946(9) -1.1340(11) 0.2800(3)
H16 H 0.2522 -1.1443 0.2575
H17 H 0.1550 -1.0244 0.2792
C17 C 0.0761(7) -1.2702(10) 0.2761(2)
H18 H 0.0222 -1.2549 0.2510
H19 H 0.0191 -1.2588 0.2984
H20 H 0.1159 -1.3783 0.2766
C18 C 0.5227(7) -1.1225(8) 0.3092(2)
H21 H 0.5125 -1.2414 0.3103
H22 H 0.5959 -1.0918 0.3290
C19 C 0.5620(8) -1.0764(10) 0.2682(2)
H23 H 0.5820 -0.9593 0.2674
H24 H 0.4871 -1.0989 0.2482
C20 C 0.6900(7) -1.1770(11) 0.2577(3)
H25 H 0.7153 -1.1466 0.2312
H26 H 0.6694 -1.2927 0.2582
H27 H 0.7641 -1.1537 0.2774
N1 N 0.4112(5) 0.1495(5) 0.46293(14)
N2 N 0.3960(5) -1.0456(6) 0.32067(16)
S1 S 0.06727(15) 0.22795(16) 0.06195(5)
C21 C 0.1054(7) 0.8670(8) 0.1587(2)
H28 H 0.0958 0.9591 0.1404
H29 H 0.1919 0.8734 0.1740
H30 H 0.0336 0.8694 0.1769
C22 C 0.0975(5) 0.7096(7) 0.13486(19)
C23 C 0.0789(5) 0.7120(6) 0.09375(19)
H31 H 0.0713 0.8134 0.0806
C24 C 0.0707(5) 0.5688(6) 0.07052(17)
H32 H 0.0592 0.5749 0.0424
C25 C 0.0799(5) 0.4162(6) 0.08987(18)
C26 C 0.0991(6) 0.4117(7) 0.1312(2)
H33 H 0.1060 0.3105 0.1445
C27 C 0.1084(6) 0.5550(7) 0.15341(19)
H34 H 0.1223 0.5489 0.1815
O1 O 0.0341(7) 0.2718(6) 0.02085(15)
O2 O 0.1972(4) 0.1472(5) 0.06977(14)
O3 O -0.0401(4) 0.1365(5) 0.07929(17)
O4 O 0.2440(4) -0.1280(4) 0.01372(13)
H35 H 0.2217 -0.0357 0.0316
H36 H 0.1599 -0.1268 -0.0063
loop_
_geom_bond_atom_site_label_1
_geom_bond_atom_site_label_2
_geom_bond_site_symmetry_1
_geom_bond_site_symmetry_2
C1 H1 1_555 1_555
H2 C1 1_555 1_555
H3 C1 1_555 1_555
C2 H4 1_555 1_555
C3 C2 1_555 1_555
H5 C3 1_555 1_555
C4 C3 1_555 1_555
C5 C4 1_555 1_555
H6 C5 1_555 1_555
C6 C5 1_555 1_555
H7 C6 1_555 1_555
C7 C4 1_555 1_555
H8 C7 1_555 1_555
C8 C7 1_555 1_555
H9 C8 1_555 1_555
C9 C8 1_555 1_555
C10 C9 1_555 1_555
H10 C10 1_555 1_555
C11 C10 1_555 1_555
H11 C11 1_555 1_555
C12 C11 1_555 1_555
C13 C12 1_555 1_555
H12 C13 1_555 1_555
C14 C9 1_555 1_555
H13 C14 1_555 1_555
C15 H14 1_555 1_555
H15 C15 1_555 1_555
C16 C15 1_555 1_555
H16 C16 1_555 1_555
H17 C16 1_555 1_555
C17 C16 1_555 1_555
H18 C17 1_555 1_555
H19 C17 1_555 1_555
H20 C17 1_555 1_555
C18 H21 1_555 1_555
H22 C18 1_555 1_555
C19 C18 1_555 1_555
H23 C19 1_555 1_555
H24 C19 1_555 1_555
C20 C19 1_555 1_555
H25 C20 1_555 1_555
H26 C20 1_555 1_555
H27 C20 1_555 1_555
N1 C1 1_555 1_555
N2 C12 1_555 1_555
S1 C25 1_555 1_555
C21 H28 1_555 1_555
H29 C21 1_555 1_555
H30 C21 1_555 1_555
C22 C21 1_555 1_555
C23 C22 1_555 1_555
H31 C23 1_555 1_555
C24 C23 1_555 1_555
H32 C24 1_555 1_555
C25 C24 1_555 1_555
C26 C25 1_555 1_555
H33 C26 1_555 1_555
C27 C22 1_555 1_555
H34 C27 1_555 1_555
O1 S1 1_555 1_555
O2 S1 1_555 1_555
O3 S1 1_555 1_555
O4 H35 1_555 1_555
H36 O4 1_555 1_555
C2 N1 1_555 1_555
C6 N1 1_555 1_555
C13 C14 1_555 1_555
C15 N2 1_555 1_555
C18 N2 1_555 1_555
C26 C27 1_555 1_555

#END
