
#######################################################################
#
#                 Cambridge Crystallographic Data Centre
#                                CCDC 
#
#######################################################################
#
# If this CIF has been generated from an entry in the Cambridge 
# Structural Database, then it will include bibliographic, chemical, 
# crystal, experimental, refinement or atomic coordinate data resulting 
# from the CCDC's data processing and validation procedures.
#
#######################################################################

data_IBUHUI
_chemical_formula_moiety         'C9 H8 Cl1 N1 O5'
_chemical_name_systematic        'rac-2-(2-Chloro-4-nitrophenoxy)propanoic acid'
_symmetry_cell_setting           triclinic
_symmetry_space_group_name_H-M   'P -1'
_symmetry_Int_Tables_number      2
_space_group_name_Hall           '-P 1'
loop_
_symmetry_equiv_pos_site_id
_symmetry_equiv_pos_as_xyz
1 x,y,z
2 -x,-y,-z
_cell_length_a                   4.5593(4)
_cell_length_b                   10.5561(10)
_cell_length_c                   11.4110(9)
_cell_angle_alpha                80.743(7)
_cell_angle_beta                 82.560(7)
_cell_angle_gamma                82.353(7)
_cell_volume                     533.931
_exptl_crystal_colour            'light yellow'
_exptl_crystal_description       block
_chemical_melting_point          '150-152 deg.C'
_cell_formula_units_Z            2
_exptl_crystal_recrystallization_method 'dilute formic acid solution'
loop_
_atom_site_label
_atom_site_type_symbol
_atom_site_fract_x
_atom_site_fract_y
_atom_site_fract_z
Cl1 Cl 0.3482(2) 0.83284(8) 0.95242(7)
N1 N -0.2761(8) 1.1437(3) 0.6608(3)
O1 O 0.1885(5) 0.4417(2) 0.60162(19)
H1 H 0.291(10) 0.433(4) 0.533(4)
O2 O 0.5129(5) 0.57774(18) 0.61488(17)
O3 O 0.2066(4) 0.64188(16) 0.82294(15)
O4 O -0.2361(7) 1.2287(2) 0.7170(3)
O5 O -0.4279(8) 1.1614(3) 0.5770(3)
C1 C 0.2997(6) 0.5212(2) 0.6551(2)
C2 C 0.1330(7) 0.5326(2) 0.7776(2)
H2 H -0.0820 0.5406 0.7730
C3 C 0.2246(9) 0.4137(3) 0.8658(3)
H3 H 0.1052 0.4176 0.9411
H4 H 0.4307 0.4114 0.8765
H5 H 0.1956 0.3372 0.8352
C4 C 0.0898(6) 0.7620(2) 0.7765(2)
C5 C 0.1426(6) 0.8646(3) 0.8319(2)
C6 C 0.0266(7) 0.9887(3) 0.7941(3)
H6 H 0.0616 1.0565 0.8314
C7 C -0.1433(7) 1.0111(3) 0.6996(3)
C8 C -0.1974(7) 0.9128(3) 0.6425(3)
H7 H -0.3112 0.9303 0.5786
C9 C -0.0811(7) 0.7882(3) 0.6810(2)
H8 H -0.1169 0.7211 0.6429
loop_
_geom_bond_atom_site_label_1
_geom_bond_atom_site_label_2
_geom_bond_site_symmetry_1
_geom_bond_site_symmetry_2
Cl1 C5 1_555 1_555
N1 O4 1_555 1_555
O1 H1 1_555 1_555
O2 C1 1_555 1_555
O3 C2 1_555 1_555
O5 N1 1_555 1_555
C1 O1 1_555 1_555
C2 C1 1_555 1_555
H2 C2 1_555 1_555
C3 C2 1_555 1_555
H3 C3 1_555 1_555
H4 C3 1_555 1_555
H5 C3 1_555 1_555
C4 O3 1_555 1_555
C5 C4 1_555 1_555
C6 C5 1_555 1_555
H6 C6 1_555 1_555
C7 N1 1_555 1_555
C8 C7 1_555 1_555
H7 C8 1_555 1_555
C9 C4 1_555 1_555
H8 C9 1_555 1_555
C6 C7 1_555 1_555
C8 C9 1_555 1_555

#END
