
#######################################################################
#
#                 Cambridge Crystallographic Data Centre
#                                CCDC 
#
#######################################################################
#
# If this CIF has been generated from an entry in the Cambridge 
# Structural Database, then it will include bibliographic, chemical, 
# crystal, experimental, refinement or atomic coordinate data resulting 
# from the CCDC's data processing and validation procedures.
#
#######################################################################

data_IBUNAV
_chemical_formula_moiety         'C13 H16 O2 S1'
_chemical_name_systematic        
(3S,5R)-3-Phenyl-1,6-dioxa-4-thiaspiro(4.5)decane
_symmetry_cell_setting           monoclinic
_symmetry_space_group_name_H-M   'P 21'
_symmetry_Int_Tables_number      4
_space_group_name_Hall           'P 2yb'
loop_
_symmetry_equiv_pos_site_id
_symmetry_equiv_pos_as_xyz
1 x,y,z
2 -x,1/2+y,-z
_cell_length_a                   5.7737(2)
_cell_length_b                   8.0009(3)
_cell_length_c                   12.9450(5)
_cell_angle_alpha                90
_cell_angle_beta                 96.369(2)
_cell_angle_gamma                90
_cell_volume                     594.301
_exptl_crystal_colour            colorless
_exptl_crystal_description       prism
_chemical_melting_point          '74.4-74.7 deg.C'
_cell_formula_units_Z            2
_exptl_crystal_recrystallization_method 'diethyl ether/hexane'
loop_
_atom_site_label
_atom_site_type_symbol
_atom_site_fract_x
_atom_site_fract_y
_atom_site_fract_z
S1 S 0.75758(8) 0.73289(6) 0.13574(3)
O1 O 0.5266(2) 0.99599(18) 0.18060(11)
O2 O 0.9276(2) 1.00297(16) 0.22580(10)
C1 C 0.4849(4) 0.8813(3) 0.26066(16)
H1 H 0.3211 0.8901 0.2760
H2 H 0.5879 0.9073 0.3250
C2 C 0.5340(3) 0.7039(3) 0.22382(14)
H3 H 0.3898 0.6598 0.1830
C3 C 0.7450(3) 0.9608(2) 0.14781(14)
C4 C 0.9448(4) 1.1815(2) 0.24563(16)
H4 H 1.0768 1.2035 0.2995
H5 H 0.8003 1.2209 0.2724
C5 C 0.9808(4) 1.2766(2) 0.14850(16)
H6 H 1.1304 1.2430 0.1239
H7 H 0.9877 1.3979 0.1636
C6 C 0.7811(3) 1.2404(3) 0.06448(14)
H8 H 0.8092 1.2973 -0.0009
H9 H 0.6331 1.2830 0.0863
C7 C 0.7642(3) 1.0522(2) 0.04684(14)
H10 H 0.6259 1.0270 -0.0030
H11 H 0.9041 1.0128 0.0163
C8 C 0.6023(3) 0.5868(2) 0.31361(14)
C9 C 0.4455(4) 0.4688(3) 0.34174(17)
H12 H 0.2975 0.4586 0.3022
C10 C 0.5013(4) 0.3654(3) 0.42685(17)
H13 H 0.3920 0.2846 0.4447
C11 C 0.7137(4) 0.3792(3) 0.48537(16)
H14 H 0.7519 0.3078 0.5434
C12 C 0.8719(4) 0.4978(3) 0.45920(16)
H15 H 1.0183 0.5091 0.5000
C13 C 0.8172(3) 0.5998(3) 0.37382(16)
H16 H 0.9275 0.6798 0.3559
loop_
_geom_bond_atom_site_label_1
_geom_bond_atom_site_label_2
_geom_bond_site_symmetry_1
_geom_bond_site_symmetry_2
S1 C2 1_555 1_555
O1 C1 1_555 1_555
O2 C3 1_555 1_555
C1 H1 1_555 1_555
H2 C1 1_555 1_555
C2 C1 1_555 1_555
H3 C2 1_555 1_555
C3 S1 1_555 1_555
C4 O2 1_555 1_555
H4 C4 1_555 1_555
H5 C4 1_555 1_555
C5 C4 1_555 1_555
H6 C5 1_555 1_555
H7 C5 1_555 1_555
C6 C5 1_555 1_555
H8 C6 1_555 1_555
H9 C6 1_555 1_555
C7 C3 1_555 1_555
H10 C7 1_555 1_555
H11 C7 1_555 1_555
C8 C2 1_555 1_555
C9 C8 1_555 1_555
H12 C9 1_555 1_555
C10 C9 1_555 1_555
H13 C10 1_555 1_555
C11 C10 1_555 1_555
H14 C11 1_555 1_555
C12 C11 1_555 1_555
H15 C12 1_555 1_555
C13 C8 1_555 1_555
H16 C13 1_555 1_555
O1 C3 1_555 1_555
C6 C7 1_555 1_555
C12 C13 1_555 1_555

#END
