
#######################################################################
#
#                 Cambridge Crystallographic Data Centre
#                                CCDC 
#
#######################################################################
#
# If this CIF has been generated from an entry in the Cambridge 
# Structural Database, then it will include bibliographic, chemical, 
# crystal, experimental, refinement or atomic coordinate data resulting 
# from the CCDC's data processing and validation procedures.
#
#######################################################################

data_IBUYOW
_chemical_formula_moiety         'C9 H5 I1 O1'
_chemical_name_systematic        4-(iodoethynyl)benzaldehyde
_symmetry_cell_setting           monoclinic
_symmetry_space_group_name_H-M   'P 21/c'
_symmetry_Int_Tables_number      14
_space_group_name_Hall           '-P 2ybc'
loop_
_symmetry_equiv_pos_site_id
_symmetry_equiv_pos_as_xyz
1 x,y,z
2 -x,1/2+y,1/2-z
3 -x,-y,-z
4 x,1/2-y,1/2+z
_cell_length_a                   10.0796(6)
_cell_length_b                   13.8673(8)
_cell_length_c                   6.0126(3)
_cell_angle_alpha                90
_cell_angle_beta                 97.907(2)
_cell_angle_gamma                90
_cell_volume                     832.432
_exptl_crystal_colour            colorless
_exptl_crystal_description       plate
_cell_formula_units_Z            4
loop_
_atom_site_label
_atom_site_type_symbol
_atom_site_fract_x
_atom_site_fract_y
_atom_site_fract_z
I1 I 0.91381(2) 0.64102(2) 0.01686(2)
O1 O 0.15526(12) 0.65847(9) 0.82916(19)
C1 C 0.52888(14) 0.61453(9) 0.3566(2)
C2 C 0.74853(15) 0.62339(10) 0.1642(2)
C3 C 0.52894(14) 0.65463(9) 0.5721(2)
H1 H 0.6097 0.6788 0.6527
C4 C 0.41127(14) 0.65869(9) 0.6661(2)
H2 H 0.4108 0.6866 0.8103
C5 C 0.29291(14) 0.62163(9) 0.5483(2)
C6 C 0.64909(15) 0.61628(10) 0.2532(2)
C7 C 0.41032(14) 0.57710(10) 0.2408(2)
H3 H 0.4101 0.5491 0.0966
C8 C 0.29319(14) 0.58096(10) 0.3366(2)
H4 H 0.2126 0.5557 0.2576
C9 C 0.16671(15) 0.62524(11) 0.6459(2)
H5 H 0.0887 0.5997 0.5593
loop_
_geom_bond_atom_site_label_1
_geom_bond_atom_site_label_2
_geom_bond_site_symmetry_1
_geom_bond_site_symmetry_2
I1 C2 1_555 1_555
O1 C9 1_555 1_555
C1 C3 1_555 1_555
C2 C6 1_555 1_555
C3 H1 1_555 1_555
C4 C3 1_555 1_555
H2 C4 1_555 1_555
C5 C4 1_555 1_555
C6 C1 1_555 1_555
C7 C1 1_555 1_555
H3 C7 1_555 1_555
C8 C5 1_555 1_555
H4 C8 1_555 1_555
C9 C5 1_555 1_555
H5 C9 1_555 1_555
C7 C8 1_555 1_555

#END
