
#######################################################################
#
#                 Cambridge Crystallographic Data Centre
#                                CCDC 
#
#######################################################################
#
# If this CIF has been generated from an entry in the Cambridge 
# Structural Database, then it will include bibliographic, chemical, 
# crystal, experimental, refinement or atomic coordinate data resulting 
# from the CCDC's data processing and validation procedures.
#
#######################################################################

data_ICAFOK
_chemical_formula_moiety         'C62 H64 N8 O5,C4 H8 O2'
_chemical_name_systematic        
"2,2'-[furan-2,5-diylbis(methylylideneazanylylidene)]bis[3',6'-bis(diethylamino)spiro[isoindole-1,9'-xanthen]-3(2H)-one] ethyl acetate solvate"
_symmetry_cell_setting           tetragonal
_symmetry_space_group_name_H-M   'P 43 21 2'
_symmetry_Int_Tables_number      96
_space_group_name_Hall           'P 4nw 2abw'
loop_
_symmetry_equiv_pos_site_id
_symmetry_equiv_pos_as_xyz
1 x,y,z
2 1/2-y,1/2+x,3/4+z
3 -x,-y,1/2+z
4 1/2+y,1/2-x,1/4+z
5 1/2+x,1/2-y,1/4-z
6 y,x,-z
7 1/2-x,1/2+y,3/4-z
8 -y,-x,1/2-z
_cell_length_a                   11.6334(3)
_cell_length_b                   11.6334(3)
_cell_length_c                   44.2715(13)
_cell_angle_alpha                90
_cell_angle_beta                 90
_cell_angle_gamma                90
_cell_volume                     5991.53
_exptl_crystal_colour            red
_exptl_crystal_description       block
_cell_formula_units_Z            4
loop_
_atom_site_label
_atom_site_type_symbol
_atom_site_fract_x
_atom_site_fract_y
_atom_site_fract_z
C1 C 0.4269(4) 0.4454(4) 0.02443(9)
C2 C 0.4999(4) 0.7037(4) 0.09748(9)
C3 C 0.6392(3) 0.5462(3) 0.10340(9)
C4 C 0.3511(4) 0.3647(4) 0.01571(10)
H1 H 0.2997 0.3254 0.0280
C5 C 0.4570(4) 0.4948(4) 0.05302(9)
H2 H 0.5136 0.5509 0.0546
C6 C 0.3695(4) 0.4585(4) 0.12835(10)
C7 C 0.4143(4) 0.5181(5) 0.15440(10)
C8 C 0.3825(6) 0.5083(7) 0.18445(12)
H3 H 0.3235 0.4593 0.1904
C9 C 0.4409(8) 0.5731(8) 0.20510(14)
H4 H 0.4219 0.5671 0.2254
C10 C 0.5281(8) 0.6479(7) 0.19640(14)
H5 H 0.5654 0.6922 0.2109
C11 C 0.5598(5) 0.6569(5) 0.16637(11)
H6 H 0.6188 0.7061 0.1605
C12 C 0.5023(4) 0.5918(4) 0.14560(9)
C13 C 0.5200(3) 0.5866(3) 0.11162(9)
C14 C 0.3912(4) 0.7506(4) 0.09428(12)
H7 H 0.3276 0.7058 0.0991
C15 C 0.3739(5) 0.8616(5) 0.08413(14)
H8 H 0.2993 0.8893 0.0820
C16 C 0.4663(5) 0.9326(5) 0.07696(13)
C17 C 0.5759(4) 0.8853(4) 0.07970(12)
H9 H 0.6400 0.9295 0.0749
C18 C 0.5905(4) 0.7736(4) 0.08951(10)
C19 C 0.7239(4) 0.6212(4) 0.09458(10)
C20 C 0.6729(4) 0.4316(4) 0.10643(10)
H10 H 0.6181 0.3776 0.1122
C21 C 0.7824(4) 0.3954(4) 0.10127(12)
H11 H 0.7999 0.3177 0.1030
C22 C 0.8687(4) 0.4727(4) 0.09339(12)
C23 C 0.8360(4) 0.5873(4) 0.08934(12)
H12 H 0.8901 0.6411 0.0831
C24 C 1.0725(5) 0.5216(6) 0.08571(17)
H13 H 1.1420 0.4921 0.0950
H14 H 1.0521 0.5921 0.0961
C25 C 1.0974(7) 0.5493(7) 0.05346(19)
H15 H 1.1580 0.6052 0.0524
H16 H 1.0295 0.5798 0.0441
H17 H 1.1208 0.4807 0.0431
C26 C 1.0152(6) 0.3203(6) 0.0929(2)
H18 H 1.0892 0.3163 0.1030
H19 H 0.9595 0.2814 0.1057
C27 C 1.0223(18) 0.2633(9) 0.0656(3)
H20 H 1.0574 0.1895 0.0687
H21 H 1.0679 0.3076 0.0518
H22 H 0.9465 0.2531 0.0575
C28 C 0.5520(9) 1.1339(7) 0.0685(2)
H23 H 0.5257 1.2101 0.0741
H24 H 0.6122 1.1102 0.0823
C29 C 0.5906(11) 1.1321(12) 0.0390(3)
H25 H 0.6392 1.1974 0.0355
H26 H 0.5260 1.1349 0.0255
H27 H 0.6333 1.0628 0.0355
C30 C 0.3357(7) 1.0912(6) 0.06422(18)
H28 H 0.3381 1.1743 0.0656
H29 H 0.2857 1.0629 0.0801
C31 C 0.2883(8) 1.0576(7) 0.0345(2)
H30 H 0.2100 1.0829 0.0331
H31 H 0.2914 0.9755 0.0324
H32 H 0.3329 1.0927 0.0188
N1 N 0.4031(3) 0.4588(3) 0.07626(8)
N2 N 0.4291(3) 0.5023(3) 0.10378(7)
N3 N 0.4499(5) 1.0456(5) 0.06859(16)
N4 N 0.9821(4) 0.4397(4) 0.09001(13)
O1 O 0.4850(3) 0.4850(3) 0.0000
O2 O 0.2943(3) 0.3863(4) 0.12725(9)
O3 O 0.7029(3) 0.7367(3) 0.09075(9)
C1E C 0.4454(4) 0.4269(4) -0.02443(9)
C2E C 0.7037(4) 0.4999(4) -0.09748(9)
C3E C 0.5462(3) 0.6392(3) -0.10340(9)
C4E C 0.3647(4) 0.3511(4) -0.01571(10)
H1E H 0.3254 0.2997 -0.0280
C5E C 0.4948(4) 0.4570(4) -0.05302(9)
H2E H 0.5509 0.5136 -0.0546
C6E C 0.4585(4) 0.3695(4) -0.12835(10)
C7E C 0.5181(5) 0.4143(4) -0.15440(10)
C8E C 0.5083(7) 0.3825(6) -0.18445(12)
H3E H 0.4593 0.3235 -0.1904
C9E C 0.5731(8) 0.4409(8) -0.20510(14)
H4E H 0.5671 0.4219 -0.2254
C10E C 0.6479(7) 0.5281(8) -0.19640(14)
H5E H 0.6922 0.5654 -0.2109
C11E C 0.6569(5) 0.5598(5) -0.16637(11)
H6E H 0.7061 0.6188 -0.1605
C12E C 0.5918(4) 0.5023(4) -0.14560(9)
C13E C 0.5866(3) 0.5200(3) -0.11162(9)
C14E C 0.7506(4) 0.3912(4) -0.09428(12)
H7E H 0.7058 0.3276 -0.0991
C15E C 0.8616(5) 0.3739(5) -0.08413(14)
H8E H 0.8893 0.2993 -0.0820
C16E C 0.9326(5) 0.4663(5) -0.07696(13)
C17E C 0.8853(4) 0.5759(4) -0.07970(12)
H9E H 0.9295 0.6400 -0.0749
C18E C 0.7736(4) 0.5905(4) -0.08951(10)
C19E C 0.6212(4) 0.7239(4) -0.09458(10)
C20E C 0.4316(4) 0.6729(4) -0.10643(10)
H10E H 0.3776 0.6181 -0.1122
C21E C 0.3954(4) 0.7824(4) -0.10127(12)
H11E H 0.3177 0.7999 -0.1030
C22E C 0.4727(4) 0.8687(4) -0.09339(12)
C23E C 0.5873(4) 0.8360(4) -0.08934(12)
H12E H 0.6411 0.8901 -0.0831
C24E C 0.5216(6) 1.0725(5) -0.08571(17)
H13E H 0.4921 1.1420 -0.0950
H14E H 0.5921 1.0521 -0.0961
C25E C 0.5493(7) 1.0974(7) -0.05346(19)
H15E H 0.6052 1.1580 -0.0524
H16E H 0.5798 1.0295 -0.0441
H17E H 0.4807 1.1208 -0.0431
C26E C 0.3203(6) 1.0152(6) -0.0929(2)
H18E H 0.3163 1.0892 -0.1030
H19E H 0.2814 0.9595 -0.1057
C27E C 0.2633(9) 1.0223(18) -0.0656(3)
H20E H 0.1895 1.0574 -0.0687
H21E H 0.3076 1.0679 -0.0518
H22E H 0.2531 0.9465 -0.0575
C28E C 1.1339(7) 0.5520(9) -0.0685(2)
H23E H 1.2101 0.5257 -0.0741
H24E H 1.1102 0.6122 -0.0823
C29E C 1.1321(12) 0.5906(11) -0.0390(3)
H25E H 1.1974 0.6392 -0.0355
H26E H 1.1349 0.5260 -0.0255
H27E H 1.0628 0.6333 -0.0355
C30E C 1.0912(6) 0.3357(7) -0.06422(18)
H28E H 1.1743 0.3381 -0.0656
H29E H 1.0629 0.2857 -0.0801
C31E C 1.0576(7) 0.2883(8) -0.0345(2)
H30E H 1.0829 0.2100 -0.0331
H31E H 0.9755 0.2914 -0.0324
H32E H 1.0927 0.3329 -0.0188
N1E N 0.4588(3) 0.4031(3) -0.07626(8)
N2E N 0.5023(3) 0.4291(3) -0.10378(7)
N3E N 1.0456(5) 0.4499(5) -0.06859(16)
N4E N 0.4397(4) 0.9821(4) -0.09001(13)
O2E O 0.3863(4) 0.2943(3) -0.12725(9)
O3E O 0.7367(3) 0.7029(3) -0.09075(9)
C32? C 0.7819(9) 0.6475(13) 0.0017(3)
C33? C 0.7958(11) 0.5118(13) 0.0039(3)
H33? H 0.7212 0.4765 0.0044
H34? H 0.8372 0.4924 0.0219
H35? H 0.8374 0.4844 -0.0134
O4? O 0.8637(11) 0.6984(12) 0.0010(3)
O5? O 0.6697(6) 0.6697(6) 0.0000
loop_
_geom_bond_atom_site_label_1
_geom_bond_atom_site_label_2
_geom_bond_site_symmetry_1
_geom_bond_site_symmetry_2
C1 C4 1_555 1_555
C2 C13 1_555 1_555
C3 C13 1_555 1_555
C4 H1 1_555 1_555
C5 C1 1_555 1_555
H2 C5 1_555 1_555
C6 C7 1_555 1_555
C7 C8 1_555 1_555
C8 H3 1_555 1_555
C9 C8 1_555 1_555
H4 C9 1_555 1_555
C10 C9 1_555 1_555
H5 C10 1_555 1_555
C11 C10 1_555 1_555
H6 C11 1_555 1_555
C12 C7 1_555 1_555
C13 C12 1_555 1_555
C14 C2 1_555 1_555
H7 C14 1_555 1_555
C15 C14 1_555 1_555
H8 C15 1_555 1_555
C16 C15 1_555 1_555
C17 C16 1_555 1_555
H9 C17 1_555 1_555
C18 C2 1_555 1_555
C19 C3 1_555 1_555
C20 C3 1_555 1_555
H10 C20 1_555 1_555
C21 C20 1_555 1_555
H11 C21 1_555 1_555
C22 C21 1_555 1_555
C23 C19 1_555 1_555
H12 C23 1_555 1_555
C24 H13 1_555 1_555
H14 C24 1_555 1_555
C25 C24 1_555 1_555
H15 C25 1_555 1_555
H16 C25 1_555 1_555
H17 C25 1_555 1_555
C26 H18 1_555 1_555
H19 C26 1_555 1_555
C27 C26 1_555 1_555
H20 C27 1_555 1_555
H21 C27 1_555 1_555
H22 C27 1_555 1_555
C28 H23 1_555 1_555
H24 C28 1_555 1_555
C29 C28 1_555 1_555
H25 C29 1_555 1_555
H26 C29 1_555 1_555
H27 C29 1_555 1_555
C30 H28 1_555 1_555
H29 C30 1_555 1_555
C31 C30 1_555 1_555
H30 C31 1_555 1_555
H31 C31 1_555 1_555
H32 C31 1_555 1_555
N1 C5 1_555 1_555
N2 C6 1_555 1_555
N3 C16 1_555 1_555
N4 C22 1_555 1_555
O1 C1 1_555 1_555
O2 C6 1_555 1_555
O3 C18 1_555 1_555
C1E O1 1_555 1_555
C2E C13E 1_555 1_555
C3E C13E 1_555 1_555
C4E C4 1_555 1_555
H1E C4E 1_555 1_555
C5E C1E 1_555 1_555
H2E C5E 1_555 1_555
C6E C7E 1_555 1_555
C7E C8E 1_555 1_555
C8E H3E 1_555 1_555
C9E C8E 1_555 1_555
H4E C9E 1_555 1_555
C10E C9E 1_555 1_555
H5E C10E 1_555 1_555
C11E C10E 1_555 1_555
H6E C11E 1_555 1_555
C12E C7E 1_555 1_555
C13E C12E 1_555 1_555
C14E C2E 1_555 1_555
H7E C14E 1_555 1_555
C15E C14E 1_555 1_555
H8E C15E 1_555 1_555
C16E C15E 1_555 1_555
C17E C16E 1_555 1_555
H9E C17E 1_555 1_555
C18E C2E 1_555 1_555
C19E C3E 1_555 1_555
C20E C3E 1_555 1_555
H10E C20E 1_555 1_555
C21E C20E 1_555 1_555
H11E C21E 1_555 1_555
C22E C21E 1_555 1_555
C23E C19E 1_555 1_555
H12E C23E 1_555 1_555
C24E H13E 1_555 1_555
H14E C24E 1_555 1_555
C25E C24E 1_555 1_555
H15E C25E 1_555 1_555
H16E C25E 1_555 1_555
H17E C25E 1_555 1_555
C26E H18E 1_555 1_555
H19E C26E 1_555 1_555
C27E C26E 1_555 1_555
H20E C27E 1_555 1_555
H21E C27E 1_555 1_555
H22E C27E 1_555 1_555
C28E H23E 1_555 1_555
H24E C28E 1_555 1_555
C29E C28E 1_555 1_555
H25E C29E 1_555 1_555
H26E C29E 1_555 1_555
H27E C29E 1_555 1_555
C30E H28E 1_555 1_555
H29E C30E 1_555 1_555
C31E C30E 1_555 1_555
H30E C31E 1_555 1_555
H31E C31E 1_555 1_555
H32E C31E 1_555 1_555
N1E C5E 1_555 1_555
N2E C6E 1_555 1_555
N3E C16E 1_555 1_555
N4E C22E 1_555 1_555
O2E C6E 1_555 1_555
O3E C18E 1_555 1_555
C11 C12 1_555 1_555
C13 N2 1_555 1_555
C17 C18 1_555 1_555
C19 O3 1_555 1_555
C22 C23 1_555 1_555
C24 N4 1_555 1_555
C26 N4 1_555 1_555
C28 N3 1_555 1_555
C30 N3 1_555 1_555
N1 N2 1_555 1_555
C1E C4E 1_555 1_555
C11E C12E 1_555 1_555
C13E N2E 1_555 1_555
C17E C18E 1_555 1_555
C19E O3E 1_555 1_555
C22E C23E 1_555 1_555
C24E N4E 1_555 1_555
C26E N4E 1_555 1_555
C28E N3E 1_555 1_555
C30E N3E 1_555 1_555
N1E N2E 1_555 1_555

#END
