
#######################################################################
#
#                 Cambridge Crystallographic Data Centre
#                                CCDC 
#
#######################################################################
#
# If this CIF has been generated from an entry in the Cambridge 
# Structural Database, then it will include bibliographic, chemical, 
# crystal, experimental, refinement or atomic coordinate data resulting 
# from the CCDC's data processing and validation procedures.
#
#######################################################################

data_ICALUT
_chemical_formula_moiety         'C17 H22 O3 S1'
_chemical_name_systematic        
3,5,5-Trimethyl-2-(2-(phenylsulfonyl)ethyl)-2-cyclohexen-1-one
_symmetry_cell_setting           orthorhombic
_symmetry_space_group_name_H-M   'P b c a'
_symmetry_Int_Tables_number      61
_space_group_name_Hall           '-P 2ac 2ab'
loop_
_symmetry_equiv_pos_site_id
_symmetry_equiv_pos_as_xyz
1 x,y,z
2 1/2-x,1/2+y,z
3 x,1/2-y,1/2+z
4 1/2+x,y,1/2-z
5 -x,-y,-z
6 1/2+x,1/2-y,-z
7 -x,1/2+y,1/2-z
8 1/2-x,-y,1/2+z
_cell_length_a                   16.560(5)
_cell_length_b                   20.690(10)
_cell_length_c                   9.453(2)
_cell_angle_alpha                90
_cell_angle_beta                 90
_cell_angle_gamma                90
_cell_volume                     3238.85
_exptl_crystal_colour            colorless
_exptl_crystal_description       plate
_cell_formula_units_Z            8
_exptl_crystal_recrystallization_method dichloromethane/hexane
loop_
_atom_site_label
_atom_site_type_symbol
_atom_site_fract_x
_atom_site_fract_y
_atom_site_fract_z
S1 S 0.02219(4) 0.19127(3) 0.22763(6)
O1 O -0.17361(11) 0.07827(9) 0.46796(19)
O2 O 0.02531(12) 0.13810(10) 0.12897(18)
O3 O -0.01250(10) 0.25137(10) 0.1810(2)
C1 C -0.13097(15) 0.06690(11) 0.5706(3)
C2 C -0.04303(14) 0.07756(11) 0.5646(2)
C3 C 0.00270(14) 0.06999(10) 0.6813(3)
C4 C 0.09270(15) 0.07808(14) 0.6813(3)
H1 H 0.1136 0.0704 0.7769
H2 H 0.1064 0.1221 0.6516
H3 H 0.1169 0.0470 0.6156
C5 C -0.03308(14) 0.05177(12) 0.8219(2)
H4 H -0.0038 0.0755 0.8970
H5 H -0.0238 0.0051 0.8377
C6 C -0.13756(17) 0.13810(13) 0.8524(3)
H6 H -0.1955 0.1464 0.8627
H7 H -0.1174 0.1603 0.7678
H8 H -0.1090 0.1543 0.9360
C7 C -0.12315(15) 0.06536(11) 0.8378(2)
C8 C -0.15537(18) 0.03051(15) 0.9694(3)
H9 H -0.2132 0.0394 0.9798
H10 H -0.1266 0.0460 1.0533
H11 H -0.1469 -0.0161 0.9592
C9 C -0.16562(15) 0.03995(13) 0.7052(2)
H12 H -0.1613 -0.0077 0.7031
H13 H -0.2237 0.0512 0.7104
C10 C -0.00986(16) 0.09645(11) 0.4215(3)
H14 H -0.0325 0.0672 0.3487
H15 H 0.0495 0.0908 0.4219
C11 C -0.02976(14) 0.16600(11) 0.3824(2)
H16 H -0.0149 0.1947 0.4620
H17 H -0.0887 0.1700 0.3668
C12 C 0.12096(13) 0.20705(11) 0.2865(2)
C13 C 0.13626(16) 0.26362(12) 0.3608(3)
H18 H 0.0938 0.2930 0.3816
C14 C 0.21442(18) 0.27655(16) 0.4038(3)
H19 H 0.2262 0.3152 0.4541
C15 C 0.27501(18) 0.23340(18) 0.3737(3)
H20 H 0.3287 0.2428 0.4022
C16 C 0.25936(17) 0.17729(16) 0.3036(3)
H21 H 0.3018 0.1474 0.2865
C17 C 0.18207(16) 0.16343(13) 0.2570(3)
H22 H 0.1712 0.1249 0.2059
loop_
_geom_bond_atom_site_label_1
_geom_bond_atom_site_label_2
_geom_bond_site_symmetry_1
_geom_bond_site_symmetry_2
S1 O2 1_555 1_555
O1 C1 1_555 1_555
O3 S1 1_555 1_555
C1 C2 1_555 1_555
C2 C3 1_555 1_555
C3 C4 1_555 1_555
C4 H1 1_555 1_555
H2 C4 1_555 1_555
H3 C4 1_555 1_555
C5 C3 1_555 1_555
H4 C5 1_555 1_555
H5 C5 1_555 1_555
C6 H6 1_555 1_555
H7 C6 1_555 1_555
H8 C6 1_555 1_555
C7 C5 1_555 1_555
C8 C7 1_555 1_555
H9 C8 1_555 1_555
H10 C8 1_555 1_555
H11 C8 1_555 1_555
C9 C1 1_555 1_555
H12 C9 1_555 1_555
H13 C9 1_555 1_555
C10 C2 1_555 1_555
H14 C10 1_555 1_555
H15 C10 1_555 1_555
C11 S1 1_555 1_555
H16 C11 1_555 1_555
H17 C11 1_555 1_555
C12 S1 1_555 1_555
C13 C12 1_555 1_555
H18 C13 1_555 1_555
C14 C13 1_555 1_555
H19 C14 1_555 1_555
C15 C14 1_555 1_555
H20 C15 1_555 1_555
C16 C15 1_555 1_555
H21 C16 1_555 1_555
C17 C12 1_555 1_555
H22 C17 1_555 1_555
C6 C7 1_555 1_555
C7 C9 1_555 1_555
C10 C11 1_555 1_555
C16 C17 1_555 1_555

#END
