
#######################################################################
#
#                 Cambridge Crystallographic Data Centre
#                                CCDC 
#
#######################################################################
#
# If this CIF has been generated from an entry in the Cambridge 
# Structural Database, then it will include bibliographic, chemical, 
# crystal, experimental, refinement or atomic coordinate data resulting 
# from the CCDC's data processing and validation procedures.
#
#######################################################################

data_ICARUA
_chemical_formula_moiety         'C22 H23 N1 O6'
_chemical_name_systematic        
'3a-ethyl-5,12b-epoxy-4,12-dioxo-2,3,3a,5,5a,11,12,12b-octahydro-1H,4H-6-oxa-12a-azaindeno[7,1-cd]fluorene-5-carboxylic acid ethyl ester'
_symmetry_cell_setting           monoclinic
_symmetry_space_group_name_H-M   'P 21/c'
_symmetry_Int_Tables_number      14
_space_group_name_Hall           '-P 2ybc'
loop_
_symmetry_equiv_pos_site_id
_symmetry_equiv_pos_as_xyz
1 x,y,z
2 x,1/2-y,1/2+z
3 -x,-y,-z
4 -x,1/2+y,1/2-z
_cell_length_a                   12.7476(2)
_cell_length_b                   9.1013(1)
_cell_length_c                   16.6545(3)
_cell_angle_alpha                90
_cell_angle_beta                 94.856(1)
_cell_angle_gamma                90
_cell_volume                     1925.32
_exptl_crystal_colour            colorless
_exptl_crystal_description       prism
_cell_formula_units_Z            4
loop_
_atom_site_label
_atom_site_type_symbol
_atom_site_fract_x
_atom_site_fract_y
_atom_site_fract_z
C1 C 0.50228(17) 0.3597(3) 0.57430(15)
C2 C 0.55383(18) 0.3788(3) 0.65985(16)
C3 C 0.66432(16) 0.3108(2) 0.65880(13)
C4 C 0.75335(16) 0.4197(2) 0.66636(13)
C5 C 0.76820(18) 0.5510(2) 0.62696(14)
C6 C 0.86293(19) 0.6239(3) 0.64363(16)
C7 C 0.9404(2) 0.5678(3) 0.69925(16)
C8 C 0.92534(18) 0.4386(3) 0.74096(15)
C9 C 0.83058(17) 0.3677(2) 0.72277(13)
C10 C 0.70228(17) 0.1945(2) 0.72303(13)
C11 C 0.70085(16) 0.0504(2) 0.67285(12)
C12 C 0.78938(17) 0.0556(2) 0.61350(13)
C13 C 0.74532(16) 0.1531(2) 0.54318(13)
C14 C 0.7009(2) 0.0604(3) 0.47011(15)
C15 C 0.6290(2) 0.1560(3) 0.41400(15)
C16 C 0.5356(2) 0.2136(3) 0.45213(15)
C17 C 0.64804(17) 0.2117(2) 0.58259(13)
C18 C 0.82664(18) 0.2670(3) 0.51923(15)
C19 C 0.9058(2) 0.2109(3) 0.46269(16)
H1 H 0.9405 0.1226 0.4858
H2 H 0.9586 0.2870 0.4557
H3 H 0.8690 0.1870 0.4103
C20 C 0.69387(16) -0.0901(2) 0.72027(12)
C21 C 0.77213(19) -0.2228(3) 0.83230(14)
H4 H 0.7835 -0.3138 0.8017
H5 H 0.7044 -0.2314 0.8569
C22 C 0.8597(3) -0.2006(4) 0.8958(2)
H6 H 0.9268 -0.1987 0.8710
H7 H 0.8604 -0.2814 0.9347
H8 H 0.8499 -0.1072 0.9234
H9 H 0.507(2) 0.326(3) 0.6992(17)
H10 H 0.556(2) 0.482(3) 0.6752(15)
H11 H 0.714(2) 0.589(3) 0.5859(16)
H12 H 0.8757(19) 0.710(3) 0.6162(15)
H13 H 1.002(2) 0.615(3) 0.7122(16)
H14 H 0.9778(19) 0.401(3) 0.7817(15)
H15 H 0.6538(17) 0.179(2) 0.7663(14)
H16 H 0.758(2) 0.028(3) 0.4414(16)
H17 H 0.657(2) -0.029(3) 0.4892(15)
H18 H 0.673(3) 0.237(4) 0.395(2)
H19 H 0.605(2) 0.099(3) 0.3678(18)
H20 H 0.502(2) 0.291(3) 0.4222(17)
H21 H 0.486(2) 0.136(3) 0.4580(15)
H22 H 0.8690(19) 0.301(3) 0.5682(15)
H23 H 0.7690(19) 0.369(3) 0.4917(15)
N1 N 0.56713(14) 0.2760(2) 0.53132(11)
O1 O 0.80387(12) 0.23702(16) 0.75850(9)
O2 O 0.60989(11) 0.07484(16) 0.61954(9)
O3 O 0.41666(12) 0.4067(2) 0.54824(11)
O4 O 0.87355(13) -0.00462(19) 0.62135(10)
O5 O 0.62644(12) -0.18161(18) 0.70673(10)
O6 O 0.77039(13) -0.09517(17) 0.77886(10)
loop_
_geom_bond_atom_site_label_1
_geom_bond_atom_site_label_2
_geom_bond_site_symmetry_1
_geom_bond_site_symmetry_2
C1 C2 1_555 1_555
C2 C3 1_555 1_555
C3 C4 1_555 1_555
C4 C5 1_555 1_555
C5 C6 1_555 1_555
C6 C7 1_555 1_555
C7 C8 1_555 1_555
C8 C9 1_555 1_555
C9 C4 1_555 1_555
C10 C3 1_555 1_555
C11 C10 1_555 1_555
C12 C11 1_555 1_555
C13 C12 1_555 1_555
C14 C13 1_555 1_555
C15 C14 1_555 1_555
C16 C15 1_555 1_555
C17 C3 1_555 1_555
C18 C13 1_555 1_555
C19 C18 1_555 1_555
H1 C19 1_555 1_555
H2 C19 1_555 1_555
H3 C19 1_555 1_555
C20 C11 1_555 1_555
C21 H4 1_555 1_555
H5 C21 1_555 1_555
C22 C21 1_555 1_555
H6 C22 1_555 1_555
H7 C22 1_555 1_555
H8 C22 1_555 1_555
H9 C2 1_555 1_555
H10 C2 1_555 1_555
H11 C5 1_555 1_555
H12 C6 1_555 1_555
H13 C7 1_555 1_555
H14 C8 1_555 1_555
H15 C10 1_555 1_555
H16 C14 1_555 1_555
H17 C14 1_555 1_555
H18 C15 1_555 1_555
H19 C15 1_555 1_555
H20 C16 1_555 1_555
H21 C16 1_555 1_555
H22 C18 1_555 1_555
H23 C18 1_555 1_555
N1 C1 1_555 1_555
O1 C9 1_555 1_555
O2 C11 1_555 1_555
O3 C1 1_555 1_555
O4 C12 1_555 1_555
O5 C20 1_555 1_555
O6 C20 1_555 1_555
C10 O1 1_555 1_555
C13 C17 1_555 1_555
C16 N1 1_555 1_555
C17 N1 1_555 1_555
C17 O2 1_555 1_555
C21 O6 1_555 1_555

#END
