
#######################################################################
#
#                 Cambridge Crystallographic Data Centre
#                                CCDC 
#
#######################################################################
#
# If this CIF has been generated from an entry in the Cambridge 
# Structural Database, then it will include bibliographic, chemical, 
# crystal, experimental, refinement or atomic coordinate data resulting 
# from the CCDC's data processing and validation procedures.
#
#######################################################################

data_ICAVEN
_chemical_formula_moiety         'C22 H26 N2'
_chemical_name_systematic        (E)-4,4'-Di(pyrrolidinyl)stilbene
_symmetry_cell_setting           monoclinic
_symmetry_space_group_name_H-M   'P n'
_symmetry_Int_Tables_number      7
_space_group_name_Hall           'P -2yac'
loop_
_symmetry_equiv_pos_site_id
_symmetry_equiv_pos_as_xyz
1 x,y,z
2 1/2+x,-y,1/2+z
_cell_length_a                   6.5813(6)
_cell_length_b                   7.7337(7)
_cell_length_c                   17.1635(15)
_cell_angle_alpha                90
_cell_angle_beta                 96.442(7)
_cell_angle_gamma                90
_cell_volume                     868.069
_exptl_crystal_colour            colorless
_exptl_crystal_description       plate
_chemical_melting_point          298.9deg.C
_cell_formula_units_Z            2
loop_
_atom_site_label
_atom_site_type_symbol
_atom_site_fract_x
_atom_site_fract_y
_atom_site_fract_z
C1 C 0.9458(12) 0.1839(10) 0.1666(4)
H1 H 0.9542 0.0587 0.1662
H2 H 1.0782 0.2314 0.1584
C2 C 0.7857(15) 0.2459(13) 0.1059(5)
H3 H 0.7426 0.1525 0.0701
H4 H 0.8391 0.3387 0.0761
C3 C 0.6086(12) 0.3094(12) 0.1446(5)
H5 H 0.5018 0.2225 0.1423
H6 H 0.5526 0.4139 0.1194
C4 C 0.6923(11) 0.3453(9) 0.2287(4)
H7 H 0.7193 0.4676 0.2369
H8 H 0.5977 0.3070 0.2646
C5 C 1.0057(10) 0.2478(9) 0.3097(4)
C6 C 0.9470(12) 0.3302(10) 0.3754(4)
H9 H 0.8219 0.3872 0.3717
C7 C 1.0712(14) 0.3296(10) 0.4468(4)
H10 H 1.0251 0.3805 0.4907
C8 C 1.2575(12) 0.2554(9) 0.4525(4)
C9 C 1.3235(11) 0.1677(9) 0.3889(4)
H11 H 1.4495 0.1120 0.3932
C10 C 1.1929(10) 0.1661(9) 0.3177(4)
H12 H 1.2347 0.1079 0.2749
C11 C 1.3959(14) 0.2665(10) 0.5280(4)
H13 H 1.3314 0.3048 0.5703
C12 C 1.5847(11) 0.2333(7) 0.5448(4)
H14 H 1.6532 0.1951 0.5035
C13 C 1.7066(11) 0.2475(9) 0.6201(4)
C14 C 1.6550(11) 0.3293(9) 0.6885(5)
H15 H 1.5281 0.3833 0.6854
C15 C 1.7722(10) 0.3368(9) 0.7581(5)
H16 H 1.7264 0.3972 0.7996
C16 C 1.9641(10) 0.2533(9) 0.7681(4)
C17 C 2.0234(11) 0.1704(10) 0.7012(4)
H17 H 2.1502 0.1162 0.7043
C18 C 1.9002(11) 0.1677(9) 0.6322(4)
H18 H 1.9466 0.1095 0.5902
C19 C 2.0216(11) 0.3123(10) 0.9102(4)
H19 H 1.8920 0.2593 0.9181
H20 H 2.0056 0.4369 0.9107
C20 C 2.1894(13) 0.2550(11) 0.9744(5)
H21 H 2.2285 0.3497 1.0101
H22 H 2.1428 0.1591 1.0042
C21 C 2.3652(12) 0.2014(11) 0.9316(5)
H23 H 2.4657 0.2934 0.9328
H24 H 2.4307 0.0992 0.9556
C22 C 2.2786(9) 0.1639(10) 0.8490(4)
H25 H 2.3714 0.2031 0.8126
H26 H 2.2565 0.0407 0.8417
N1 N 0.8812(8) 0.2456(7) 0.2394(3)
N2 N 2.0883(8) 0.2555(7) 0.8363(3)
loop_
_geom_bond_atom_site_label_1
_geom_bond_atom_site_label_2
_geom_bond_site_symmetry_1
_geom_bond_site_symmetry_2
C1 H1 1_555 1_555
H2 C1 1_555 1_555
C2 C1 1_555 1_555
H3 C2 1_555 1_555
H4 C2 1_555 1_555
C3 C2 1_555 1_555
H5 C3 1_555 1_555
H6 C3 1_555 1_555
C4 C3 1_555 1_555
H7 C4 1_555 1_555
H8 C4 1_555 1_555
C5 C6 1_555 1_555
C6 H9 1_555 1_555
C7 C6 1_555 1_555
H10 C7 1_555 1_555
C8 C7 1_555 1_555
C9 C8 1_555 1_555
H11 C9 1_555 1_555
C10 C5 1_555 1_555
H12 C10 1_555 1_555
C11 C8 1_555 1_555
H13 C11 1_555 1_555
C12 C11 1_555 1_555
H14 C12 1_555 1_555
C13 C12 1_555 1_555
C14 C13 1_555 1_555
H15 C14 1_555 1_555
C15 C14 1_555 1_555
H16 C15 1_555 1_555
C16 C15 1_555 1_555
C17 C16 1_555 1_555
H17 C17 1_555 1_555
C18 C13 1_555 1_555
H18 C18 1_555 1_555
C19 H19 1_555 1_555
H20 C19 1_555 1_555
C20 C19 1_555 1_555
H21 C20 1_555 1_555
H22 C20 1_555 1_555
C21 C20 1_555 1_555
H23 C21 1_555 1_555
H24 C21 1_555 1_555
C22 C21 1_555 1_555
H25 C22 1_555 1_555
H26 C22 1_555 1_555
N1 C1 1_555 1_555
N2 C16 1_555 1_555
C4 N1 1_555 1_555
C5 N1 1_555 1_555
C9 C10 1_555 1_555
C17 C18 1_555 1_555
C19 N2 1_555 1_555
C22 N2 1_555 1_555

#END
