
#######################################################################
#
#                 Cambridge Crystallographic Data Centre
#                                CCDC 
#
#######################################################################
#
# If this CIF has been generated from an entry in the Cambridge 
# Structural Database, then it will include bibliographic, chemical, 
# crystal, experimental, refinement or atomic coordinate data resulting 
# from the CCDC's data processing and validation procedures.
#
#######################################################################

data_ICEFON
_chemical_name_common            5,6,7,8-tetrafluoro-1,4-benzodioxane
_chemical_formula_moiety         'C8 H4 F4 O2'
_chemical_name_systematic        
5,6,7,8-Tetrafluoro-2,3-dihydro-1,4-benzodioxine
_symmetry_cell_setting           monoclinic
_symmetry_space_group_name_H-M   'C 2/c'
_symmetry_Int_Tables_number      15
_space_group_name_Hall           '-C 2yn'
loop_
_symmetry_equiv_pos_site_id
_symmetry_equiv_pos_as_xyz
1 x,y,z
2 -x,y,1/2-z
3 1/2+x,1/2+y,z
4 1/2-x,1/2+y,1/2-z
5 -x,-y,-z
6 x,-y,1/2+z
7 1/2-x,1/2-y,-z
8 1/2+x,1/2-y,1/2+z
_cell_length_a                   4.2660(2)
_cell_length_b                   17.3259(6)
_cell_length_c                   9.8660(4)
_cell_angle_alpha                90
_cell_angle_beta                 97.4230(10)
_cell_angle_gamma                90
_cell_volume                     723.107
_exptl_crystal_colour            colorless
_exptl_crystal_description       block
_cell_formula_units_Z            4
_exptl_crystal_recrystallization_method water
loop_
_atom_site_label
_atom_site_type_symbol
_atom_site_fract_x
_atom_site_fract_y
_atom_site_fract_z
C1 C 0.0065(2) 0.27618(5) 0.17377(10)
H1 H -0.2107 0.2751 0.1244
H2 H 0.1112 0.3239 0.1474
C2 C 0.08933(19) 0.14354(5) 0.19527(9)
C3 C 0.1838(2) 0.07334(4) 0.14494(9)
C4 C 0.0943(2) 0.00414(4) 0.19778(9)
O1 O 0.18021(16) 0.20946(4) 0.13625(7)
F1 F 0.36557(14) 0.07308(3) 0.04372(6)
F2 F 0.18970(15) -0.06310(3) 0.14924(6)
C1A C -0.0065(2) 0.27618(5) 0.32623(10)
H1A H 0.2107 0.2751 0.3756
H2A H -0.1112 0.3239 0.3526
C2A C -0.08933(19) 0.14354(5) 0.30473(9)
C3A C -0.1838(2) 0.07334(4) 0.35506(9)
C4A C -0.0943(2) 0.00414(4) 0.30222(9)
O1A O -0.18021(16) 0.20946(4) 0.36375(7)
F1A F -0.36557(14) 0.07308(3) 0.45628(6)
F2A F -0.18970(15) -0.06310(3) 0.35076(6)
loop_
_geom_bond_atom_site_label_1
_geom_bond_atom_site_label_2
_geom_bond_site_symmetry_1
_geom_bond_site_symmetry_2
C1 H1 1_555 1_555
H2 C1 1_555 1_555
C2 C3 1_555 1_555
C3 C4 1_555 1_555
C4 F2 1_555 1_555
O1 C1 1_555 1_555
F1 C3 1_555 1_555
C1A C1 1_555 1_555
H1A C1A 1_555 1_555
H2A C1A 1_555 1_555
C2A C2 1_555 1_555
C3A C2A 1_555 1_555
C4A C4 1_555 1_555
O1A C1A 1_555 1_555
F1A C3A 1_555 1_555
F2A C4A 1_555 1_555
C2 O1 1_555 1_555
C2A O1A 1_555 1_555
C3A C4A 1_555 1_555

#END
