
#######################################################################
#
#                 Cambridge Crystallographic Data Centre
#                                CCDC 
#
#######################################################################
#
# If this CIF has been generated from an entry in the Cambridge 
# Structural Database, then it will include bibliographic, chemical, 
# crystal, experimental, refinement or atomic coordinate data resulting 
# from the CCDC's data processing and validation procedures.
#
#######################################################################

data_ICEKEJ
_chemical_formula_moiety         'C52 H62 S8'
_chemical_name_systematic        
4,4'-dihexyl-5,5'-bis(5-(3-hexyl-2-thienyl)thieno[3,2-b]thiophen-2-yl)-2,2'-bithiophene
_symmetry_cell_setting           triclinic
_symmetry_space_group_name_H-M   'P -1'
_symmetry_Int_Tables_number      2
_space_group_name_Hall           '-P 1'
loop_
_symmetry_equiv_pos_site_id
_symmetry_equiv_pos_as_xyz
1 x,y,z
2 -x,-y,-z
_cell_length_a                   5.2285(3)
_cell_length_b                   21.9986(15)
_cell_length_c                   22.2284(14)
_cell_angle_alpha                110.465(4)
_cell_angle_beta                 94.335(4)
_cell_angle_gamma                93.072(4)
_cell_volume                     2379.71
_exptl_crystal_colour            orange
_exptl_crystal_description       'wedge-shaped shard'
_cell_formula_units_Z            2
loop_
_atom_site_label
_atom_site_type_symbol
_atom_site_fract_x
_atom_site_fract_y
_atom_site_fract_z
S1 S 2.1813(3) 0.62188(7) 0.52957(7)
C1 C 2.3566(11) 0.6951(3) 0.5533(3)
H1 H 2.5049 0.7070 0.5838
C2 C 2.2604(12) 0.7344(3) 0.5238(3)
H2 H 2.3341 0.7771 0.5312
C3 C 2.0371(11) 0.7050(3) 0.4806(3)
C4 C 1.9658(10) 0.6435(3) 0.4786(3)
C5 C 1.762(2) 0.5946(4) 0.4427(4)
S2 S 1.5327(3) 0.61004(8) 0.38776(7)
C6 C 1.713(2) 0.5344(5) 0.4430(6)
H3 H 1.8140 0.5169 0.4693
C7 C 1.4970(16) 0.4993(4) 0.4011(5)
C8 C 1.3756(14) 0.5340(5) 0.3681(5)
C9 C 1.1656(17) 0.4996(4) 0.3261(4)
H4 H 1.0636 0.5172 0.3001
C10 C 1.1189(18) 0.4373(4) 0.3257(5)
S3 S 1.3422(3) 0.42208(7) 0.38025(7)
C11 C 0.9163(10) 0.3880(3) 0.2876(3)
C12 C 0.8791(11) 0.3226(3) 0.2760(3)
C13 C 0.6660(11) 0.2924(3) 0.2303(3)
H5 H 0.6140 0.2472 0.2170
C14 C 0.5421(10) 0.3331(3) 0.2068(3)
S4 S 0.6831(3) 0.41172(7) 0.24215(7)
C15 C 0.3146(11) 0.3195(3) 0.1604(3)
C16 C 0.1878(11) 0.3618(3) 0.1385(3)
H6 H 0.2408 0.4069 0.1526
C17 C -0.0263(11) 0.3331(3) 0.0936(3)
C18 C -0.0643(12) 0.2669(3) 0.0808(3)
S5 S 0.1704(3) 0.24119(8) 0.12379(8)
C19 C -0.271(7) 0.2220(11) 0.0362(16)
S6 S -0.3051(14) 0.1442(3) 0.0445(4)
C20 C -0.420(4) 0.2212(9) -0.0171(11)
H7 H -0.3991 0.2515 -0.0383
C21 C -0.609(12) 0.1684(19) -0.036(4)
C22 C -0.551(14) 0.1172(19) -0.017(4)
C23 C -0.727(4) 0.0622(8) -0.0427(10)
H8 H -0.7136 0.0236 -0.0330
C24 C -0.923(5) 0.0703(10) -0.0840(14)
S7 S -0.8676(14) 0.1449(4) -0.0948(3)
C25 C 1.9055(12) 0.7390(3) 0.4397(3)
H9 H 1.9486 0.7866 0.4604
H10 H 1.7167 0.7305 0.4378
C26 C 1.9849(13) 0.7165(3) 0.3715(3)
H11 H 1.9665 0.6684 0.3532
H12 H 2.1688 0.7310 0.3731
C27 C 1.8261(14) 0.7427(4) 0.3271(4)
H13 H 1.6420 0.7297 0.3273
H14 H 1.8497 0.7908 0.3450
C28 C 1.8895(17) 0.7202(4) 0.2591(4)
H15 H 1.8672 0.6721 0.2408
H16 H 2.0725 0.7338 0.2583
C29 C 1.7204(18) 0.7475(4) 0.2163(4)
H17 H 1.5377 0.7341 0.2175
H18 H 1.7428 0.7957 0.2349
C30 C 1.777(2) 0.7263(6) 0.1481(5)
H19 H 1.9545 0.7418 0.1461
H20 H 1.6579 0.7443 0.1240
H21 H 1.7571 0.6786 0.1292
C31 C 1.0491(11) 0.2860(3) 0.3066(3)
H22 H 1.0775 0.3110 0.3535
H23 H 1.2185 0.2848 0.2892
C32 C 0.9500(12) 0.2161(3) 0.2968(3)
H24 H 0.7688 0.2155 0.3069
H25 H 0.9541 0.1884 0.2510
C33 C 1.1080(13) 0.1881(3) 0.3390(3)
H26 H 1.1253 0.2195 0.3839
H27 H 1.2829 0.1833 0.3246
C34 C 0.9977(13) 0.1229(3) 0.3384(3)
H28 H 1.0099 0.0897 0.2954
H29 H 0.8129 0.1255 0.3451
C35 C 1.1311(16) 0.1008(4) 0.3894(4)
H30 H 1.3088 0.0913 0.3789
H31 H 1.1424 0.1366 0.4318
C36 C 0.9928(18) 0.0410(4) 0.3943(5)
H32 H 0.8169 0.0501 0.4049
H33 H 1.0844 0.0292 0.4282
H34 H 0.9871 0.0049 0.3529
C37 C -0.1898(12) 0.3741(3) 0.0665(3)
H35 H -0.1770 0.4191 0.0984
H36 H -0.3719 0.3565 0.0603
C38 C -0.1125(13) 0.3765(4) 0.0022(3)
H37 H 0.0698 0.3941 0.0084
H38 H -0.1255 0.3315 -0.0296
C39 C -0.2760(14) 0.4176(4) -0.0249(4)
H39 H -0.2491 0.4636 0.0048
H40 H -0.4598 0.4029 -0.0270
C40 C -0.2123(14) 0.4138(4) -0.0929(4)
H41 H -0.0296 0.4298 -0.0902
H42 H -0.2324 0.3676 -0.1219
C41 C -0.3768(15) 0.4522(4) -0.1225(4)
H43 H -0.3493 0.4988 -0.0948
H44 H -0.5600 0.4378 -0.1231
C42 C -0.3230(17) 0.4454(4) -0.1907(4)
H45 H -0.1417 0.4591 -0.1908
H46 H -0.4325 0.4728 -0.2061
H47 H -0.3601 0.3998 -0.2192
C43 C -1.112(7) 0.0221(11) -0.131(2)
C44 C -1.296(5) 0.0282(9) -0.1753(13)
C45 C -1.472(5) -0.0285(10) -0.2012(14)
H48 H -1.6350 -0.0299 -0.2238
C46 C -1.381(4) -0.0804(10) -0.1896(11)
H49 H -1.4636 -0.1232 -0.2072
S8 S -1.0968(10) -0.0597(3) -0.1397(3)
C47 C -1.378(4) 0.0929(8) -0.1790(8)
H50 H -1.5686 0.0900 -0.1850
H51 H -1.3224 0.1278 -0.1370
C48 C -1.277(3) 0.1131(8) -0.2311(7)
H52 H -1.2881 0.1608 -0.2159
H53 H -1.0910 0.1070 -0.2279
C49 C -1.349(6) 0.093(2) -0.2958(12)
H54 H -1.4067 0.0477 -0.2996
H55 H -1.1706 0.0887 -0.3080
C50 C -1.463(3) 0.0856(9) -0.3603(7)
H56 H -1.6471 0.0931 -0.3561
H57 H -1.4588 0.0392 -0.3872
C51 C -1.371(4) 0.1242(9) -0.4006(8)
H58 H -1.3920 0.1707 -0.3768
H59 H -1.1844 0.1199 -0.4032
C52 C -1.489(7) 0.108(2) -0.4641(12)
H60 H -1.4107 0.1370 -0.4841
H61 H -1.4650 0.0629 -0.4894
H62 H -1.6736 0.1139 -0.4629
C53? C 1.75(3) 0.593(4) 0.431(6)
S9? S 1.721(8) 0.521(2) 0.451(2)
C54? C 1.597(11) 0.584(3) 0.376(3)
H63? H 1.6165 0.6095 0.3491
C55? C 1.409(19) 0.532(6) 0.363(7)
C56? C 1.456(19) 0.491(5) 0.396(6)
C57? C 1.259(12) 0.441(3) 0.383(3)
H64? H 1.2410 0.4140 0.4079
C58? C 1.09(2) 0.436(4) 0.330(7)
S10? S 1.120(6) 0.5090(17) 0.3142(17)
C59? C -0.263(7) 0.2144(11) 0.0423(18)
S11? S -0.4913(9) 0.2376(2) -0.0084(3)
C60? C -0.301(6) 0.1503(12) 0.0317(18)
H65? H -0.1862 0.1273 0.0494
C61? C -0.527(14) 0.1213(19) -0.008(4)
C62? C -0.637(13) 0.1598(17) -0.039(4)
C63? C -0.852(5) 0.1278(11) -0.0816(14)
H66? H -0.9694 0.1495 -0.1000
C64? C -0.876(5) 0.0615(10) -0.0947(14)
S12? S -0.6800(9) 0.04323(19) -0.0367(3)
C65? C -1.086(7) 0.0118(12) -0.127(2)
C66? C -1.275(5) 0.014(1) -0.1716(13)
C67? C -1.434(5) -0.0450(11) -0.2010(15)
H67? H -1.5511 -0.0539 -0.2384
C68? C -1.398(4) -0.0872(11) -0.1695(11)
H68? H -1.4939 -0.1282 -0.1803
S13? S -1.1569(11) -0.0562(3) -0.1072(3)
C69? C -1.267(4) 0.0686(9) -0.1998(9)
H69? H -1.3417 0.1069 -0.1702
H70? H -1.0852 0.0818 -0.2022
C70? C -1.409(4) 0.0494(8) -0.2652(8)
H71? H -1.3217 0.0137 -0.2946
H72? H -1.5834 0.0310 -0.2628
C71? C -1.438(6) 0.094(2) -0.2933(14)
H73? H -1.4186 0.1353 -0.2559
H74? H -1.6245 0.0870 -0.3082
C72? C -1.327(3) 0.1122(9) -0.3431(8)
H75? H -1.1534 0.0962 -0.3485
H76? H -1.3065 0.1603 -0.3292
C73? C -1.495(4) 0.0841(9) -0.4094(8)
H77? H -1.4949 0.0361 -0.4271
H78? H -1.6752 0.0951 -0.4036
C74? C -1.391(7) 0.112(2) -0.4534(14)
H79? H -1.4959 0.0944 -0.4952
H80? H -1.3935 0.1593 -0.4357
H81? H -1.2137 0.1005 -0.4591
loop_
_geom_bond_atom_site_label_1
_geom_bond_atom_site_label_2
_geom_bond_site_symmetry_1
_geom_bond_site_symmetry_2
S1 C1 1_555 1_555
C1 H1 1_555 1_555
C2 C1 1_555 1_555
H2 C2 1_555 1_555
C3 C2 1_555 1_555
C4 S1 1_555 1_555
C5 C4 1_555 1_555
S2 C5 1_555 1_555
C6 C5 1_555 1_555
H3 C6 1_555 1_555
C7 C6 1_555 1_555
C8 S2 1_555 1_555
C9 C8 1_555 1_555
H4 C9 1_555 1_555
C10 C9 1_555 1_555
S3 C7 1_555 1_555
C11 C10 1_555 1_555
C12 C11 1_555 1_555
C13 C12 1_555 1_555
H5 C13 1_555 1_555
C14 C13 1_555 1_555
S4 C11 1_555 1_555
C15 C14 1_555 1_555
C16 C15 1_555 1_555
H6 C16 1_555 1_555
C17 C16 1_555 1_555
C18 C17 1_555 1_555
S5 C15 1_555 1_555
C19 C18 1_555 1_555
S6 C19 1_555 1_555
C20 C19 1_555 1_555
H7 C20 1_555 1_555
C21 C20 1_555 1_555
C22 S6 1_555 1_555
C23 C22 1_555 1_555
H8 C23 1_555 1_555
C24 C23 1_555 1_555
S7 C21 1_555 1_555
C25 C3 1_555 1_555
H9 C25 1_555 1_555
H10 C25 1_555 1_555
C26 C25 1_555 1_555
H11 C26 1_555 1_555
H12 C26 1_555 1_555
C27 C26 1_555 1_555
H13 C27 1_555 1_555
H14 C27 1_555 1_555
C28 C27 1_555 1_555
H15 C28 1_555 1_555
H16 C28 1_555 1_555
C29 C28 1_555 1_555
H17 C29 1_555 1_555
H18 C29 1_555 1_555
C30 C29 1_555 1_555
H19 C30 1_555 1_555
H20 C30 1_555 1_555
H21 C30 1_555 1_555
C31 C12 1_555 1_555
H22 C31 1_555 1_555
H23 C31 1_555 1_555
C32 C31 1_555 1_555
H24 C32 1_555 1_555
H25 C32 1_555 1_555
C33 C32 1_555 1_555
H26 C33 1_555 1_555
H27 C33 1_555 1_555
C34 C33 1_555 1_555
H28 C34 1_555 1_555
H29 C34 1_555 1_555
C35 C34 1_555 1_555
H30 C35 1_555 1_555
H31 C35 1_555 1_555
C36 C35 1_555 1_555
H32 C36 1_555 1_555
H33 C36 1_555 1_555
H34 C36 1_555 1_555
C37 C17 1_555 1_555
H35 C37 1_555 1_555
H36 C37 1_555 1_555
C38 C37 1_555 1_555
H37 C38 1_555 1_555
H38 C38 1_555 1_555
C39 C38 1_555 1_555
H39 C39 1_555 1_555
H40 C39 1_555 1_555
C40 C39 1_555 1_555
H41 C40 1_555 1_555
H42 C40 1_555 1_555
C41 C40 1_555 1_555
H43 C41 1_555 1_555
H44 C41 1_555 1_555
C42 C41 1_555 1_555
H45 C42 1_555 1_555
H46 C42 1_555 1_555
H47 C42 1_555 1_555
C43 C24 1_555 1_555
C44 C43 1_555 1_555
C45 C44 1_555 1_555
H48 C45 1_555 1_555
C46 C45 1_555 1_555
H49 C46 1_555 1_555
S8 C43 1_555 1_555
C47 C44 1_555 1_555
H50 C47 1_555 1_555
H51 C47 1_555 1_555
C48 C47 1_555 1_555
H52 C48 1_555 1_555
H53 C48 1_555 1_555
C49 C48 1_555 1_555
H54 C49 1_555 1_555
H55 C49 1_555 1_555
C50 C49 1_555 1_555
H56 C50 1_555 1_555
H57 C50 1_555 1_555
C51 C50 1_555 1_555
H58 C51 1_555 1_555
H59 C51 1_555 1_555
C52 C51 1_555 1_555
H60 C52 1_555 1_555
H61 C52 1_555 1_555
H62 C52 1_555 1_555
C3 C4 1_555 1_555
C7 C8 1_555 1_555
C10 S3 1_555 1_555
C14 S4 1_555 1_555
C18 S5 1_555 1_555
C21 C22 1_555 1_555
C24 S7 1_555 1_555
C46 S8 1_555 1_555

#END
