
#######################################################################
#
#                 Cambridge Crystallographic Data Centre
#                                CCDC 
#
#######################################################################
#
# If this CIF has been generated from an entry in the Cambridge 
# Structural Database, then it will include bibliographic, chemical, 
# crystal, experimental, refinement or atomic coordinate data resulting 
# from the CCDC's data processing and validation procedures.
#
#######################################################################

data_ICERUF
_chemical_name_common            
N-(2-(4-Chlorophenyl)-1-(1-methylcarbamoyl-2-phenylethylcarbamoyl)-3-phenylcyclopropyl)benzamide
_chemical_formula_moiety         'C33 H30 Cl1 N3 O3'
_chemical_name_systematic        
N'-((1-(Benzoylamino)-2-(4-chlorophenyl)-3-phenylcyclopropyl)carbonyl)-N-methylphenylalaninamide
_symmetry_cell_setting           triclinic
_symmetry_space_group_name_H-M   'P 1'
_symmetry_Int_Tables_number      1
_space_group_name_Hall           'P 1'
loop_
_symmetry_equiv_pos_site_id
_symmetry_equiv_pos_as_xyz
1 x,y,z
_cell_length_a                   11.646(2)
_cell_length_b                   13.795(3)
_cell_length_c                   14.559(3)
_cell_angle_alpha                76.422(4)
_cell_angle_beta                 78.028(4)
_cell_angle_gamma                74.500(4)
_cell_volume                     2164.64
_exptl_crystal_colour            colorless
_exptl_crystal_description       block
_cell_formula_units_Z            3
loop_
_atom_site_label
_atom_site_type_symbol
_atom_site_fract_x
_atom_site_fract_y
_atom_site_fract_z
Cl1 Cl -0.1622(2) 0.59816(18) 0.0344(2)
O1 O 0.3875(4) 0.2477(4) -0.0234(3)
O2 O 0.3363(4) 0.0104(4) 0.0257(3)
O3 O 0.5795(5) -0.2151(4) 0.0465(4)
N1 N 0.3170(5) 0.2191(4) 0.1351(4)
H1 H 0.315(5) 0.237(5) 0.189(5)
N2 N 0.4626(5) 0.0256(4) 0.1169(4)
H2 H 0.472(5) 0.049(5) 0.163(4)
N3 N 0.4968(7) -0.1877(5) 0.1939(5)
H3 H 0.482(7) -0.141(6) 0.229(6)
C1 C -0.0033(6) 0.3166(6) 0.1566(6)
H10 H -0.0047 0.2781 0.2183
C2 C -0.0795(7) 0.4145(7) 0.1420(6)
H11 H -0.1350 0.4378 0.1925
C3 C -0.0722(6) 0.4752(6) 0.0540(7)
C4 C 0.0076(7) 0.4373(6) -0.0193(6)
H12 H 0.0154 0.4780 -0.0799
C5 C 0.0773(6) 0.3376(6) -0.0029(5)
H13 H 0.1295 0.3121 -0.0539
C6 C 0.0716(6) 0.2763(5) 0.0849(5)
C7 C 0.1407(6) 0.1682(5) 0.1028(5)
H14 H 0.1249 0.1255 0.0639
C8 C 0.1658(5) 0.1123(5) 0.1997(4)
H15 H 0.1413 0.1561 0.2478
C9 C 0.2686(5) 0.1390(5) 0.1235(4)
C10 C 0.3775(5) 0.2704(5) 0.0555(5)
C11 C 0.4308(6) 0.3532(5) 0.0670(5)
C12 C 0.4068(6) 0.3915(5) 0.1502(5)
H16 H 0.3568 0.3647 0.2031
C13 C 0.4575(7) 0.4699(6) 0.1544(6)
H17 H 0.4410 0.4956 0.2105
C14 C 0.5310(7) 0.5101(7) 0.0780(7)
H18 H 0.5650 0.5626 0.0819
C15 C 0.5543(7) 0.4730(7) -0.0038(7)
H19 H 0.6046 0.5003 -0.0563
C16 C 0.5045(7) 0.3958(6) -0.0104(6)
H20 H 0.5205 0.3718 -0.0674
C17 C 0.1482(6) 0.0066(5) 0.2380(5)
C18 C 0.2177(7) -0.0597(6) 0.3027(5)
H21 H 0.2807 -0.0399 0.3180
C19 C 0.1958(8) -0.1550(7) 0.3454(6)
H22 H 0.2429 -0.1980 0.3899
C20 C 0.1043(9) -0.1868(7) 0.3223(7)
H23 H 0.0913 -0.2519 0.3490
C21 C 0.0335(9) -0.1211(8) 0.2597(7)
H24 H -0.0302 -0.1408 0.2455
C22 C 0.0549(6) -0.0250(6) 0.2168(5)
H25 H 0.0063 0.0184 0.1735
C23 C 0.3584(6) 0.0530(5) 0.0826(4)
C24 C 0.5656(5) -0.0497(5) 0.0796(5)
H26 H 0.5800 -0.0296 0.0098
C25 C 0.6796(6) -0.0506(6) 0.1177(6)
H27 H 0.6667 -0.0724 0.1867
H28 H 0.7460 -0.1012 0.0919
C26 C 0.7156(6) 0.0495(7) 0.0946(6)
C27 C 0.7178(7) 0.0979(8) 0.1667(7)
H29 H 0.6948 0.0686 0.2300
C28 C 0.7534(9) 0.1888(10) 0.1465(9)
H30 H 0.7557 0.2195 0.1963
C29 C 0.7852(8) 0.2347(8) 0.0550(10)
H31 H 0.8072 0.2971 0.0420
C30 C 0.7844(7) 0.1881(8) -0.0182(7)
H32 H 0.8068 0.2181 -0.0814
C31 C 0.7501(7) 0.0968(7) 0.0031(7)
H33 H 0.7504 0.0655 -0.0470
C32 C 0.5448(6) -0.1568(6) 0.1044(6)
C33 C 0.4865(9) -0.2907(7) 0.2348(7)
H34 H 0.4129 -0.3005 0.2225
H35 H 0.4859 -0.3029 0.3025
H36 H 0.5538 -0.3376 0.2066
Cl2 Cl 0.8351(3) 0.4254(2) 0.7543(2)
O4 O 0.3291(4) 0.8125(4) 0.7815(4)
O5 O 0.4135(4) 1.0469(4) 0.6682(3)
O6 O 0.1648(6) 1.2893(5) 0.6852(5)
N4 N 0.4354(5) 0.8483(5) 0.8751(4)
H4 H 0.466(5) 0.835(5) 0.927(3)
N5 N 0.3024(6) 1.0462(5) 0.8135(4)
H5 H 0.302(6) 1.010(5) 0.869(3)
N6 N 0.2909(6) 1.2587(5) 0.7889(5)
H6 H 0.323(6) 1.211(5) 0.828(5)
C34 C 0.7598(9) 0.7192(7) 0.7692(7)
H37 H 0.7971 0.7616 0.7880
C35 C 0.8165(10) 0.6164(8) 0.7738(8)
H38 H 0.8913 0.5909 0.7941
C36 C 0.7623(10) 0.5539(7) 0.7484(7)
C37 C 0.6547(9) 0.5907(8) 0.7168(7)
H39 H 0.6178 0.5473 0.6991
C38 C 0.5995(7) 0.6954(7) 0.7109(6)
H40 H 0.5263 0.7214 0.6880
C39 C 0.6522(7) 0.7598(6) 0.7384(5)
C40 C 0.5974(6) 0.8719(6) 0.7284(5)
H41 H 0.6013 0.9096 0.6622
C41 C 0.6087(5) 0.9314(5) 0.7989(5)
H42 H 0.6461 0.8887 0.8537
C42 C 0.4860(6) 0.9159(6) 0.7967(5)
C43 C 0.3555(6) 0.7993(6) 0.8613(6)
C44 C 0.3023(6) 0.7321(6) 0.9459(6)
C45 C 0.2849(7) 0.7505(7) 1.0377(6)
H43 H 0.3101 0.8045 1.0492
C46 C 0.2299(8) 0.6881(9) 1.1118(7)
H44 H 0.2177 0.7002 1.1737
C47 C 0.1927(10) 0.6083(10) 1.0954(12)
H45 H 0.1546 0.5670 1.1459
C48 C 0.2109(10) 0.5899(9) 1.0075(12)
H46 H 0.1867 0.5348 0.9972
C49 C 0.2652(7) 0.6513(7) 0.9309(8)
H47 H 0.2765 0.6380 0.8695
C50 C 0.6397(6) 1.0328(5) 0.7674(5)
C51 C 0.5854(6) 1.1097(6) 0.8196(5)
H48 H 0.5254 1.0995 0.8715
C52 C 0.6211(7) 1.2015(6) 0.7940(6)
H49 H 0.5855 1.2523 0.8300
C53 C 0.7070(8) 1.2190(7) 0.7174(7)
H50 H 0.7292 1.2815 0.7007
C54 C 0.7605(7) 1.1444(8) 0.6649(7)
H51 H 0.8202 1.1555 0.6129
C55 C 0.7256(7) 1.0521(7) 0.6892(6)
H52 H 0.7609 1.0023 0.6521
C56 C 0.3978(6) 1.0066(6) 0.7536(5)
C57 C 0.2015(6) 1.1218(6) 0.7764(5)
H53 H 0.1903 1.1016 0.7193
C58 C 0.0854(6) 1.1205(6) 0.8470(5)
H54 H 0.0965 1.1336 0.9068
H55 H 0.0217 1.1756 0.8222
C59 C 0.0462(6) 1.0221(7) 0.8667(6)
C60 C 0.0479(7) 0.9562(8) 0.9532(7)
H56 H 0.0757 0.9727 1.0016
C61 C 0.0095(8) 0.8660(9) 0.9708(8)
H57 H 0.0121 0.8231 1.0304
C62 C -0.0314(9) 0.8400(9) 0.9021(10)
H58 H -0.0574 0.7795 0.9137
C63 C -0.0340(11) 0.9046(10) 0.8143(10)
H59 H -0.0617 0.8874 0.7661
C64 C 0.0041(8) 0.9942(8) 0.7973(7)
H60 H 0.0014 1.0369 0.7376
C65 C 0.2200(7) 1.2294(7) 0.7460(5)
C66 C 0.3108(8) 1.3615(7) 0.7671(6)
H61 H 0.3628 1.3713 0.7069
H62 H 0.3479 1.3709 0.8165
H63 H 0.2350 1.4104 0.7636
Cl3 Cl -0.2806(3) 0.8365(2) 0.3908(2)
O7 O 0.2441(5) 0.5154(4) 0.3757(4)
O8 O 0.2234(4) 0.2628(4) 0.3246(3)
O9 O 0.4585(4) 0.0423(4) 0.3236(4)
N7 N 0.1599(5) 0.4171(5) 0.5049(4)
H7 H 0.165(6) 0.389(5) 0.563(3)
N8 N 0.3327(5) 0.2520(4) 0.4380(4)
H8 H 0.336(6) 0.268(5) 0.491(3)
N9 N 0.3933(6) 0.0288(5) 0.4816(4)
H9 H 0.384(6) 0.055(6) 0.529(4)
C67 C -0.0996(6) 0.5535(7) 0.4818(6)
H64 H -0.0854 0.5123 0.5407
C68 C -0.1685(7) 0.6517(7) 0.4789(6)
H65 H -0.2001 0.6763 0.5353
C69 C -0.1904(7) 0.7131(7) 0.3930(7)
C70 C -0.1430(7) 0.6776(7) 0.3090(6)
H66 H -0.1573 0.7195 0.2505
C71 C -0.0744(6) 0.5795(6) 0.3133(6)
H67 H -0.0425 0.5557 0.2565
C72 C -0.0506(6) 0.5141(6) 0.3993(5)
C73 C 0.0198(6) 0.4070(6) 0.3984(5)
H68 H 0.0268 0.3853 0.3376
C74 C 0.0142(5) 0.3221(5) 0.4836(5)
H69 H -0.0318 0.3451 0.5422
C75 C 0.1300(5) 0.3587(5) 0.4484(4)
C76 C 0.2123(6) 0.4969(6) 0.4618(6)
C77 C 0.2297(7) 0.5597(6) 0.5265(6)
C78 C 0.1453(8) 0.5819(7) 0.6049(7)
H70 H 0.0770 0.5550 0.6210
C79 C 0.1636(11) 0.6450(8) 0.6597(8)
H71 H 0.1061 0.6622 0.7116
C80 C 0.2670(13) 0.6823(8) 0.6369(9)
H72 H 0.2790 0.7251 0.6731
C81 C 0.3502(10) 0.6565(8) 0.5624(8)
H73 H 0.4214 0.6791 0.5489
C82 C 0.3312(7) 0.5970(6) 0.5058(6)
H74 H 0.3881 0.5820 0.4530
C83 C 0.0032(6) 0.2194(6) 0.4756(5)
C84 C 0.0680(7) 0.1309(7) 0.5245(5)
H75 H 0.1233 0.1347 0.5607
C85 C 0.0520(7) 0.0365(7) 0.5205(6)
H76 H 0.0960 -0.0226 0.5545
C86 C -0.0290(8) 0.0290(8) 0.4662(7)
H77 H -0.0395 -0.0347 0.4633
C87 C -0.0925(8) 0.1159(8) 0.4177(6)
H78 H -0.1471 0.1117 0.3812
C88 C -0.0776(6) 0.2103(7) 0.4213(5)
H79 H -0.1220 0.2690 0.3871
C89 C 0.2324(6) 0.2886(5) 0.3977(5)
C90 C 0.4411(5) 0.1883(5) 0.3931(5)
H80 H 0.4576 0.2213 0.3260
C91 C 0.5484(6) 0.1833(6) 0.4412(6)
H81 H 0.5328 0.1508 0.5078
H82 H 0.6195 0.1399 0.4113
C92 C 0.5760(6) 0.2846(6) 0.4369(6)
C93 C 0.5730(8) 0.3175(8) 0.5176(7)
H83 H 0.5482 0.2789 0.5764
C94 C 0.6057(12) 0.4068(10) 0.5152(10)
H84 H 0.6057 0.4264 0.5722
C95 C 0.6380(9) 0.4664(9) 0.4308(13)
H85 H 0.6586 0.5274 0.4295
C96 C 0.6402(8) 0.4366(8) 0.3475(10)
H86 H 0.6626 0.4769 0.2891
C97 C 0.6093(7) 0.3469(7) 0.3507(7)
H87 H 0.6107 0.3269 0.2937
C98 C 0.4298(6) 0.0797(6) 0.3957(6)
C99 C 0.3908(7) -0.0787(6) 0.5021(6)
H88 H 0.3220 -0.0866 0.4805
H89 H 0.3859 -0.1040 0.5698
H90 H 0.4631 -0.1166 0.4696
loop_
_geom_bond_atom_site_label_1
_geom_bond_atom_site_label_2
_geom_bond_site_symmetry_1
_geom_bond_site_symmetry_2
Cl1 C3 1_555 1_555
Cl2 C36 1_555 1_555
Cl3 C69 1_555 1_555
O1 C10 1_555 1_555
O2 C23 1_555 1_555
O3 C32 1_555 1_555
O4 C43 1_555 1_555
O5 C56 1_555 1_555
O6 C65 1_555 1_555
O7 C76 1_555 1_555
O8 C89 1_555 1_555
O9 C98 1_555 1_555
N1 H1 1_555 1_555
N2 H2 1_555 1_555
N3 H3 1_555 1_555
N4 H4 1_555 1_555
N5 H5 1_555 1_555
N6 H6 1_555 1_555
N7 H7 1_555 1_555
N8 H8 1_555 1_555
N9 H9 1_555 1_555
C1 H10 1_555 1_555
C2 C1 1_555 1_555
H11 C2 1_555 1_555
C3 C2 1_555 1_555
C4 C3 1_555 1_555
H12 C4 1_555 1_555
C5 C4 1_555 1_555
H13 C5 1_555 1_555
C6 C1 1_555 1_555
C7 C6 1_555 1_555
H14 C7 1_555 1_555
C8 C7 1_555 1_555
H15 C8 1_555 1_555
C9 N1 1_555 1_555
C10 N1 1_555 1_555
C11 C10 1_555 1_555
C12 C11 1_555 1_555
H16 C12 1_555 1_555
C13 C12 1_555 1_555
H17 C13 1_555 1_555
C14 C13 1_555 1_555
H18 C14 1_555 1_555
C15 C14 1_555 1_555
H19 C15 1_555 1_555
C16 C11 1_555 1_555
H20 C16 1_555 1_555
C17 C8 1_555 1_555
C18 C17 1_555 1_555
H21 C18 1_555 1_555
C19 C18 1_555 1_555
H22 C19 1_555 1_555
C20 C19 1_555 1_555
H23 C20 1_555 1_555
C21 C20 1_555 1_555
H24 C21 1_555 1_555
C22 C17 1_555 1_555
H25 C22 1_555 1_555
C23 N2 1_555 1_555
C24 N2 1_555 1_555
H26 C24 1_555 1_555
C25 C24 1_555 1_555
H27 C25 1_555 1_555
H28 C25 1_555 1_555
C26 C25 1_555 1_555
C27 C26 1_555 1_555
H29 C27 1_555 1_555
C28 C27 1_555 1_555
H30 C28 1_555 1_555
C29 C28 1_555 1_555
H31 C29 1_555 1_555
C30 C29 1_555 1_555
H32 C30 1_555 1_555
C31 C26 1_555 1_555
H33 C31 1_555 1_555
C32 N3 1_555 1_555
C33 N3 1_555 1_555
H34 C33 1_555 1_555
H35 C33 1_555 1_555
H36 C33 1_555 1_555
C34 H37 1_555 1_555
C35 C34 1_555 1_555
H38 C35 1_555 1_555
C36 C35 1_555 1_555
C37 C36 1_555 1_555
H39 C37 1_555 1_555
C38 C37 1_555 1_555
H40 C38 1_555 1_555
C39 C34 1_555 1_555
C40 C39 1_555 1_555
H41 C40 1_555 1_555
C41 C40 1_555 1_555
H42 C41 1_555 1_555
C42 N4 1_555 1_555
C43 N4 1_555 1_555
C44 C43 1_555 1_555
C45 C44 1_555 1_555
H43 C45 1_555 1_555
C46 C45 1_555 1_555
H44 C46 1_555 1_555
C47 C46 1_555 1_555
H45 C47 1_555 1_555
C48 C47 1_555 1_555
H46 C48 1_555 1_555
C49 C44 1_555 1_555
H47 C49 1_555 1_555
C50 C41 1_555 1_555
C51 C50 1_555 1_555
H48 C51 1_555 1_555
C52 C51 1_555 1_555
H49 C52 1_555 1_555
C53 C52 1_555 1_555
H50 C53 1_555 1_555
C54 C53 1_555 1_555
H51 C54 1_555 1_555
C55 C50 1_555 1_555
H52 C55 1_555 1_555
C56 N5 1_555 1_555
C57 N5 1_555 1_555
H53 C57 1_555 1_555
C58 C57 1_555 1_555
H54 C58 1_555 1_555
H55 C58 1_555 1_555
C59 C58 1_555 1_555
C60 C59 1_555 1_555
H56 C60 1_555 1_555
C61 C60 1_555 1_555
H57 C61 1_555 1_555
C62 C61 1_555 1_555
H58 C62 1_555 1_555
C63 C62 1_555 1_555
H59 C63 1_555 1_555
C64 C59 1_555 1_555
H60 C64 1_555 1_555
C65 N6 1_555 1_555
C66 N6 1_555 1_555
H61 C66 1_555 1_555
H62 C66 1_555 1_555
H63 C66 1_555 1_555
C67 H64 1_555 1_555
C68 C67 1_555 1_555
H65 C68 1_555 1_555
C69 C68 1_555 1_555
C70 C69 1_555 1_555
H66 C70 1_555 1_555
C71 C70 1_555 1_555
H67 C71 1_555 1_555
C72 C67 1_555 1_555
C73 C72 1_555 1_555
H68 C73 1_555 1_555
C74 C73 1_555 1_555
H69 C74 1_555 1_555
C75 N7 1_555 1_555
C76 N7 1_555 1_555
C77 C76 1_555 1_555
C78 C77 1_555 1_555
H70 C78 1_555 1_555
C79 C78 1_555 1_555
H71 C79 1_555 1_555
C80 C79 1_555 1_555
H72 C80 1_555 1_555
C81 C80 1_555 1_555
H73 C81 1_555 1_555
C82 C77 1_555 1_555
H74 C82 1_555 1_555
C83 C74 1_555 1_555
C84 C83 1_555 1_555
H75 C84 1_555 1_555
C85 C84 1_555 1_555
H76 C85 1_555 1_555
C86 C85 1_555 1_555
H77 C86 1_555 1_555
C87 C86 1_555 1_555
H78 C87 1_555 1_555
C88 C83 1_555 1_555
H79 C88 1_555 1_555
C89 N8 1_555 1_555
C90 N8 1_555 1_555
H80 C90 1_555 1_555
C91 C90 1_555 1_555
H81 C91 1_555 1_555
H82 C91 1_555 1_555
C92 C91 1_555 1_555
C93 C92 1_555 1_555
H83 C93 1_555 1_555
C94 C93 1_555 1_555
H84 C94 1_555 1_555
C95 C94 1_555 1_555
H85 C95 1_555 1_555
C96 C95 1_555 1_555
H86 C96 1_555 1_555
C97 C92 1_555 1_555
H87 C97 1_555 1_555
C98 N9 1_555 1_555
C99 N9 1_555 1_555
H88 C99 1_555 1_555
H89 C99 1_555 1_555
H90 C99 1_555 1_555
C5 C6 1_555 1_555
C7 C9 1_555 1_555
C8 C9 1_555 1_555
C9 C23 1_555 1_555
C15 C16 1_555 1_555
C21 C22 1_555 1_555
C24 C32 1_555 1_555
C30 C31 1_555 1_555
C38 C39 1_555 1_555
C40 C42 1_555 1_555
C41 C42 1_555 1_555
C42 C56 1_555 1_555
C48 C49 1_555 1_555
C54 C55 1_555 1_555
C57 C65 1_555 1_555
C63 C64 1_555 1_555
C71 C72 1_555 1_555
C73 C75 1_555 1_555
C74 C75 1_555 1_555
C75 C89 1_555 1_555
C81 C82 1_555 1_555
C87 C88 1_555 1_555
C90 C98 1_555 1_555
C96 C97 1_555 1_555

#END
