
#######################################################################
#
#                 Cambridge Crystallographic Data Centre
#                                CCDC 
#
#######################################################################
#
# If this CIF has been generated from an entry in the Cambridge 
# Structural Database, then it will include bibliographic, chemical, 
# crystal, experimental, refinement or atomic coordinate data resulting 
# from the CCDC's data processing and validation procedures.
#
#######################################################################

data_ICERAL
_chemical_name_common            
'2-(2-Ethyl-1H-imidazol-1-yl)-1-hydroxyethane-1,1-diyldiphosphonic acid'
_chemical_formula_moiety         'C7 H14 N2 O7 P2'
_chemical_name_systematic        
'Hydrogen (2-(2-ethyl-1H-imidazol-3-ium-1-yl)-1-hydroxy-1-phosphonoethyl)phosphonate'
_symmetry_cell_setting           triclinic
_symmetry_space_group_name_H-M   'P -1'
_symmetry_Int_Tables_number      2
_space_group_name_Hall           '-P 1'
loop_
_symmetry_equiv_pos_site_id
_symmetry_equiv_pos_as_xyz
1 x,y,z
2 -x,-y,-z
_cell_length_a                   8.258(3)
_cell_length_b                   8.886(3)
_cell_length_c                   9.275(3)
_cell_angle_alpha                96.669(3)
_cell_angle_beta                 115.706(3)
_cell_angle_gamma                104.467(2)
_cell_volume                     573.807
_exptl_crystal_colour            colorless
_exptl_crystal_description       block
_chemical_melting_point          '253-254 deg.C'
_cell_formula_units_Z            2
_exptl_crystal_recrystallization_method 'ethyl acetate'
loop_
_atom_site_label
_atom_site_type_symbol
_atom_site_fract_x
_atom_site_fract_y
_atom_site_fract_z
P1 P 0.23609(7) -0.03093(6) 0.68955(6)
P2 P 0.65034(7) 0.09609(6) 0.77002(6)
O1 O 0.36720(19) 0.20530(17) 0.57752(17)
O2 O 0.14884(18) -0.12917(16) 0.51480(16)
O3 O 0.0910(2) 0.03434(17) 0.71956(17)
O4 O 0.31767(19) -0.11381(17) 0.82515(16)
O5 O 0.59290(18) -0.07136(16) 0.67031(16)
O6 O 0.77255(19) 0.22325(16) 0.72117(17)
O7 O 0.76629(18) 0.12735(17) 0.95647(16)
N1 N 0.6274(2) 0.6737(2) 0.8065(2)
N2 N 0.5663(2) 0.44360(19) 0.86147(19)
C1 C 0.7995(3) 0.6656(2) 0.9193(2)
H1 H 0.9212 0.7460 0.9641
C2 C 0.7624(3) 0.5221(2) 0.9540(2)
H2 H 0.8530 0.4818 1.0278
C3 C 0.4865(3) 0.5387(2) 0.7710(2)
C4 C 0.4629(3) 0.2843(2) 0.8621(2)
H3 H 0.3372 0.2831 0.8493
H4 H 0.5349 0.2631 0.9704
C5 C 0.4324(3) 0.1492(2) 0.7236(2)
C6 C 0.2811(3) 0.5091(2) 0.6568(2)
H5 H 0.2444 0.5985 0.6928
H6 H 0.2029 0.4087 0.6639
C7 C 0.2379(3) 0.4950(3) 0.4768(2)
H7 H 0.3291 0.5861 0.4717
H8 H 0.1081 0.4958 0.4103
H9 H 0.2487 0.3943 0.4333
H10 H 0.614(4) 0.753(3) 0.764(3)
H11 H 0.368(4) 0.150(3) 0.503(3)
H12 H 0.018(4) 0.060(4) 0.643(4)
H13 H 0.289(4) -0.113(4) 0.901(3)
H14 H 0.772(4) 0.191(3) 0.636(2)
loop_
_geom_bond_atom_site_label_1
_geom_bond_atom_site_label_2
_geom_bond_site_symmetry_1
_geom_bond_site_symmetry_2
P1 O2 1_555 1_555
P2 O5 1_555 1_555
O1 C5 1_555 1_555
O3 P1 1_555 1_555
O4 P1 1_555 1_555
O6 P2 1_555 1_555
O7 P2 1_555 1_555
N1 C1 1_555 1_555
N2 C2 1_555 1_555
C1 H1 1_555 1_555
C2 C1 1_555 1_555
H2 C2 1_555 1_555
C3 N1 1_555 1_555
C4 N2 1_555 1_555
H3 C4 1_555 1_555
H4 C4 1_555 1_555
C5 P1 1_555 1_555
C6 C3 1_555 1_555
H5 C6 1_555 1_555
H6 C6 1_555 1_555
C7 C6 1_555 1_555
H7 C7 1_555 1_555
H8 C7 1_555 1_555
H9 C7 1_555 1_555
H10 N1 1_555 1_555
H11 O1 1_555 1_555
H12 O3 1_555 1_555
H13 O4 1_555 1_555
H14 O6 1_555 1_555
P2 C5 1_555 1_555
N2 C3 1_555 1_555
C4 C5 1_555 1_555

#END
