
#######################################################################
#
#                 Cambridge Crystallographic Data Centre
#                                CCDC 
#
#######################################################################
#
# If this CIF has been generated from an entry in the Cambridge 
# Structural Database, then it will include bibliographic, chemical, 
# crystal, experimental, refinement or atomic coordinate data resulting 
# from the CCDC's data processing and validation procedures.
#
#######################################################################

data_ICILAI
_chemical_name_common            1,2,3,4,5,6,7,8-Octa-n-propylsemibullvalene
_chemical_formula_moiety         'C32 H56'
_chemical_name_systematic        
1,2,2a,2b,3,4,4a,4b-Octa-n-propyl-2a,2b,4a,4b-tetrahydrocyclopropa(cd)pentalene
_symmetry_cell_setting           monoclinic
_symmetry_space_group_name_H-M   'C 2/c'
_symmetry_Int_Tables_number      15
_space_group_name_Hall           '-C 2yn'
loop_
_symmetry_equiv_pos_site_id
_symmetry_equiv_pos_as_xyz
1 x,y,z
2 1/2+x,1/2+y,z
3 -x,y,1/2-z
4 1/2-x,1/2+y,1/2-z
5 -x,-y,-z
6 1/2-x,1/2-y,-z
7 x,-y,1/2+z
8 1/2+x,1/2-y,1/2+z
_cell_length_a                   35.708(7)
_cell_length_b                   19.298(4)
_cell_length_c                   21.697(4)
_cell_angle_alpha                90
_cell_angle_beta                 122.34(3)
_cell_angle_gamma                90
_cell_volume                     12632.1
_exptl_crystal_colour            colorless
_exptl_crystal_description       block
_cell_formula_units_Z            16
loop_
_atom_site_label
_atom_site_type_symbol
_atom_site_fract_x
_atom_site_fract_y
_atom_site_fract_z
C1 C 0.37357(7) 0.34162(10) 0.98128(11)
C2 C 0.38607(7) 0.32900(11) 1.05906(12)
C3 C 0.35983(7) 0.27597(11) 1.06157(12)
C4 C 0.33020(8) 0.25046(12) 0.99153(13)
C5 C 0.33519(6) 0.28854(10) 0.93479(11)
C6 C 0.35886(7) 0.22516(11) 0.93232(12)
C7 C 0.40439(7) 0.23264(11) 0.97764(12)
C8 C 0.41530(7) 0.29966(12) 1.01006(14)
C9 C 0.37185(7) 0.41418(10) 0.95099(11)
H1 H 0.3934 0.4434 0.9905
H2 H 0.3428 0.4339 0.9327
C10 C 0.38124(7) 0.41527(11) 0.88905(12)
H3 H 0.4109 0.3977 0.9078
H4 H 0.3605 0.3846 0.8502
C11 C 0.37736(9) 0.48690(11) 0.85799(13)
H5 H 0.3832 0.4846 0.8197
H6 H 0.3985 0.5172 0.8958
H7 H 0.3480 0.5044 0.8387
C12 C 0.40932(7) 0.38289(11) 1.12003(11)
H8 H 0.4251 0.3594 1.1668
H9 H 0.4309 0.4078 1.1144
C13 C 0.37677(8) 0.43447(12) 1.11939(13)
H10 H 0.3615 0.4584 1.0729
H11 H 0.3547 0.4091 1.1233
C14 C 0.39814(9) 0.48789(12) 1.18013(14)
H12 H 0.3758 0.5183 1.1764
H13 H 0.4194 0.5143 1.1759
H14 H 0.4127 0.4648 1.2265
C15 C 0.36597(7) 0.24840(11) 1.13183(12)
H15 H 0.3388 0.2258 1.1207
H16 H 0.3710 0.2872 1.1638
C16 C 0.40431(8) 0.19703(12) 1.17270(12)
H17 H 0.4003 0.1595 1.1399
H18 H 0.4318 0.2204 1.1866
C17 C 0.40844(9) 0.16650(12) 1.24057(13)
H19 H 0.4331 0.1350 1.2634
H20 H 0.3817 0.1420 1.2272
H21 H 0.4131 0.2031 1.2739
C18 C 0.29211(7) 0.20220(11) 0.97256(11)
H22 H 0.2715 0.2035 0.9201
H23 H 0.2767 0.2202 0.9948
C19 C 0.30401(8) 0.12616(11) 0.99574(12)
H24 H 0.3233 0.1095 0.9801
H25 H 0.3203 0.1233 1.0485
C20 C 0.26339(8) 0.07962(12) 0.96384(14)
H26 H 0.2725 0.0329 0.9801
H27 H 0.2476 0.0812 0.9115
H28 H 0.2444 0.0954 0.9798
C21 C 0.29224(6) 0.31517(10) 0.86647(10)
H29 H 0.3001 0.3433 0.8380
H30 H 0.2754 0.2758 0.8368
C22 C 0.26259(7) 0.35815(10) 0.88342(12)
H31 H 0.2511 0.3283 0.9055
H32 H 0.2804 0.3938 0.9186
C23 C 0.22401(7) 0.39215(12) 0.81596(13)
H33 H 0.2068 0.4188 0.8296
H34 H 0.2056 0.3570 0.7816
H35 H 0.2352 0.4221 0.7941
C24 C 0.33604(7) 0.16861(10) 0.87498(12)
H36 H 0.3059 0.1630 0.8634
H37 H 0.3515 0.1251 0.8950
C25 C 0.33483(8) 0.18459(12) 0.80448(14)
H38 H 0.3213 0.2297 0.7864
H39 H 0.3650 0.1869 0.8156
C26 C 0.30927(8) 0.13097(13) 0.74502(14)
H40 H 0.3095 0.1437 0.7024
H41 H 0.2792 0.1289 0.7331
H42 H 0.3230 0.0864 0.7620
C27 C 0.43734(7) 0.17609(11) 0.99280(12)
H43 H 0.4654 0.1973 1.0068
H44 H 0.4271 0.1504 0.9481
C28 C 0.44506(8) 0.12501(12) 1.05274(13)
H45 H 0.4534 0.1508 1.0967
H46 H 0.4175 0.1010 1.0373
C29 C 0.48072(8) 0.07203(12) 1.07030(14)
H47 H 0.4842 0.0417 1.1081
H48 H 0.5082 0.0954 1.0865
H49 H 0.4723 0.0454 1.0274
C30 C 0.46104(7) 0.33064(11) 1.04084(12)
H50 H 0.4584 0.3807 1.0410
H51 H 0.4707 0.3194 1.0079
C31 C 0.49752(7) 0.30749(12) 1.11822(13)
H52 H 0.4881 0.3172 1.1517
H53 H 0.5019 0.2579 1.1184
C32 C 0.54116(7) 0.34438(13) 1.14416(14)
H54 H 0.5630 0.3291 1.1926
H55 H 0.5370 0.3935 1.1445
H56 H 0.5510 0.3338 1.1118
C33 C 0.13693(6) 0.20382(10) 0.50052(11)
C34 C 0.08766(7) 0.21713(12) 0.45363(12)
C35 C 0.07625(7) 0.27360(11) 0.48043(12)
C36 C 0.11324(8) 0.29954(12) 0.54472(13)
C37 C 0.15402(7) 0.25697(11) 0.56448(11)
C38 C 0.16695(7) 0.31904(11) 0.53808(13)
C39 C 0.15544(7) 0.30960(11) 0.46603(13)
C40 C 0.13713(9) 0.24365(12) 0.44064(13)
C41 C 0.15659(6) 0.13033(10) 0.51763(11)
H57 H 0.1377 0.1006 0.4763
H58 H 0.1564 0.1125 0.5592
C42 C 0.20415(7) 0.12648(10) 0.53429(11)
H59 H 0.2039 0.1390 0.4908
H60 H 0.2224 0.1599 0.5720
C43 C 0.22436(7) 0.05540(10) 0.55909(14)
H61 H 0.2541 0.0558 0.5694
H62 H 0.2070 0.0223 0.5213
H63 H 0.2249 0.0428 0.6024
C44 C 0.05420(7) 0.16334(11) 0.40194(12)
H64 H 0.0669 0.1372 0.3792
H65 H 0.0279 0.1867 0.3637
C45 C 0.04121(8) 0.11315(12) 0.44274(14)
H66 H 0.0679 0.0921 0.4827
H67 H 0.0274 0.1394 0.4636
C46 C 0.00973(8) 0.05630(13) 0.39480(16)
H68 H 0.0028 0.0272 0.4233
H69 H 0.0235 0.0291 0.3752
H70 H -0.0170 0.0767 0.3556
C47 C 0.02992(6) 0.30405(11) 0.44311(12)
H71 H 0.0272 0.3301 0.4788
H72 H 0.0086 0.2664 0.4259
C48 C 0.01806(7) 0.35191(11) 0.37843(12)
H73 H 0.0404 0.3878 0.3949
H74 H 0.0187 0.3252 0.3412
C49 C -0.02733(7) 0.38597(11) 0.34464(12)
H75 H -0.0326 0.4152 0.3050
H76 H -0.0281 0.4133 0.3809
H77 H -0.0498 0.3508 0.3268
C50 C 0.11061(7) 0.34930(10) 0.59654(11)
H78 H 0.1383 0.3469 0.6435
H79 H 0.0873 0.3335 0.6035
C51 C 0.10162(7) 0.42543(11) 0.57244(12)
H80 H 0.1222 0.4400 0.5587
H81 H 0.0718 0.4296 0.5298
C52 C 0.10636(8) 0.47359(10) 0.63233(13)
H82 H 0.1004 0.5204 0.6147
H83 H 0.1360 0.4706 0.6743
H84 H 0.0857 0.4600 0.6455
C53 C 0.18251(6) 0.23168(10) 0.64430(11)
H85 H 0.1965 0.2715 0.6758
H86 H 0.2058 0.2019 0.6492
C54 C 0.15612(7) 0.19164(11) 0.67060(12)
H87 H 0.1349 0.2229 0.6708
H88 H 0.1396 0.1547 0.6362
C55 C 0.18522(7) 0.16050(12) 0.74649(12)
H89 H 0.1670 0.1362 0.7595
H90 H 0.2010 0.1969 0.7811
H91 H 0.2060 0.1289 0.7466
C56 C 0.19990(7) 0.37348(10) 0.58877(11)
H92 H 0.1960 0.3810 0.6292
H93 H 0.1938 0.4169 0.5625
C57 C 0.24804(7) 0.35218(12) 0.61870(13)
H94 H 0.2543 0.3095 0.6462
H95 H 0.2517 0.3432 0.5782
C58 C 0.28127(7) 0.40736(12) 0.66778(13)
H96 H 0.3108 0.3916 0.6850
H97 H 0.2783 0.4157 0.7086
H98 H 0.2756 0.4495 0.6406
C59 C 0.16056(7) 0.36495(11) 0.42130(12)
H99 H 0.1619 0.3426 0.3825
H100 H 0.1885 0.3887 0.4523
C60 C 0.12322(8) 0.41881(11) 0.38743(13)
H101 H 0.0953 0.3951 0.3562
H102 H 0.1218 0.4412 0.4262
C61 C 0.12877(8) 0.47440(12) 0.34273(14)
H103 H 0.1043 0.5062 0.3232
H104 H 0.1295 0.4529 0.3035
H105 H 0.1560 0.4990 0.3735
C62 C 0.13277(8) 0.21026(11) 0.37308(12)
H106 H 0.1300 0.1606 0.3762
H107 H 0.1601 0.2184 0.3748
C63 C 0.09411(8) 0.23483(12) 0.29875(12)
H108 H 0.0667 0.2303 0.2977
H109 H 0.0982 0.2835 0.2927
C64 C 0.09003(8) 0.19410(11) 0.23504(12)
H110 H 0.0653 0.2114 0.1900
H111 H 0.0855 0.1459 0.2401
H112 H 0.1167 0.1994 0.2349
loop_
_geom_bond_atom_site_label_1
_geom_bond_atom_site_label_2
_geom_bond_site_symmetry_1
_geom_bond_site_symmetry_2
C1 C2 1_555 1_555
C2 C3 1_555 1_555
C3 C4 1_555 1_555
C4 C5 1_555 1_555
C5 C1 1_555 1_555
C6 C5 1_555 1_555
C7 C6 1_555 1_555
C8 C1 1_555 1_555
C9 C1 1_555 1_555
H1 C9 1_555 1_555
H2 C9 1_555 1_555
C10 C9 1_555 1_555
H3 C10 1_555 1_555
H4 C10 1_555 1_555
C11 C10 1_555 1_555
H5 C11 1_555 1_555
H6 C11 1_555 1_555
H7 C11 1_555 1_555
C12 C2 1_555 1_555
H8 C12 1_555 1_555
H9 C12 1_555 1_555
C13 C12 1_555 1_555
H10 C13 1_555 1_555
H11 C13 1_555 1_555
C14 C13 1_555 1_555
H12 C14 1_555 1_555
H13 C14 1_555 1_555
H14 C14 1_555 1_555
C15 C3 1_555 1_555
H15 C15 1_555 1_555
H16 C15 1_555 1_555
C16 C15 1_555 1_555
H17 C16 1_555 1_555
H18 C16 1_555 1_555
C17 C16 1_555 1_555
H19 C17 1_555 1_555
H20 C17 1_555 1_555
H21 C17 1_555 1_555
C18 C4 1_555 1_555
H22 C18 1_555 1_555
H23 C18 1_555 1_555
C19 C18 1_555 1_555
H24 C19 1_555 1_555
H25 C19 1_555 1_555
C20 C19 1_555 1_555
H26 C20 1_555 1_555
H27 C20 1_555 1_555
H28 C20 1_555 1_555
C21 C5 1_555 1_555
H29 C21 1_555 1_555
H30 C21 1_555 1_555
C22 C21 1_555 1_555
H31 C22 1_555 1_555
H32 C22 1_555 1_555
C23 C22 1_555 1_555
H33 C23 1_555 1_555
H34 C23 1_555 1_555
H35 C23 1_555 1_555
C24 C6 1_555 1_555
H36 C24 1_555 1_555
H37 C24 1_555 1_555
C25 C24 1_555 1_555
H38 C25 1_555 1_555
H39 C25 1_555 1_555
C26 C25 1_555 1_555
H40 C26 1_555 1_555
H41 C26 1_555 1_555
H42 C26 1_555 1_555
C27 C7 1_555 1_555
H43 C27 1_555 1_555
H44 C27 1_555 1_555
C28 C27 1_555 1_555
H45 C28 1_555 1_555
H46 C28 1_555 1_555
C29 C28 1_555 1_555
H47 C29 1_555 1_555
H48 C29 1_555 1_555
H49 C29 1_555 1_555
C30 C8 1_555 1_555
H50 C30 1_555 1_555
H51 C30 1_555 1_555
C31 C30 1_555 1_555
H52 C31 1_555 1_555
H53 C31 1_555 1_555
C32 C31 1_555 1_555
H54 C32 1_555 1_555
H55 C32 1_555 1_555
H56 C32 1_555 1_555
C33 C34 1_555 1_555
C34 C35 1_555 1_555
C35 C36 1_555 1_555
C36 C37 1_555 1_555
C37 C33 1_555 1_555
C38 C37 1_555 1_555
C39 C38 1_555 1_555
C40 C33 1_555 1_555
C41 C33 1_555 1_555
H57 C41 1_555 1_555
H58 C41 1_555 1_555
C42 C41 1_555 1_555
H59 C42 1_555 1_555
H60 C42 1_555 1_555
C43 C42 1_555 1_555
H61 C43 1_555 1_555
H62 C43 1_555 1_555
H63 C43 1_555 1_555
C44 C34 1_555 1_555
H64 C44 1_555 1_555
H65 C44 1_555 1_555
C45 C44 1_555 1_555
H66 C45 1_555 1_555
H67 C45 1_555 1_555
C46 C45 1_555 1_555
H68 C46 1_555 1_555
H69 C46 1_555 1_555
H70 C46 1_555 1_555
C47 C35 1_555 1_555
H71 C47 1_555 1_555
H72 C47 1_555 1_555
C48 C47 1_555 1_555
H73 C48 1_555 1_555
H74 C48 1_555 1_555
C49 C48 1_555 1_555
H75 C49 1_555 1_555
H76 C49 1_555 1_555
H77 C49 1_555 1_555
C50 C36 1_555 1_555
H78 C50 1_555 1_555
H79 C50 1_555 1_555
C51 C50 1_555 1_555
H80 C51 1_555 1_555
H81 C51 1_555 1_555
C52 C51 1_555 1_555
H82 C52 1_555 1_555
H83 C52 1_555 1_555
H84 C52 1_555 1_555
C53 C37 1_555 1_555
H85 C53 1_555 1_555
H86 C53 1_555 1_555
C54 C53 1_555 1_555
H87 C54 1_555 1_555
H88 C54 1_555 1_555
C55 C54 1_555 1_555
H89 C55 1_555 1_555
H90 C55 1_555 1_555
H91 C55 1_555 1_555
C56 C38 1_555 1_555
H92 C56 1_555 1_555
H93 C56 1_555 1_555
C57 C56 1_555 1_555
H94 C57 1_555 1_555
H95 C57 1_555 1_555
C58 C57 1_555 1_555
H96 C58 1_555 1_555
H97 C58 1_555 1_555
H98 C58 1_555 1_555
C59 C39 1_555 1_555
H99 C59 1_555 1_555
H100 C59 1_555 1_555
C60 C59 1_555 1_555
H101 C60 1_555 1_555
H102 C60 1_555 1_555
C61 C60 1_555 1_555
H103 C61 1_555 1_555
H104 C61 1_555 1_555
H105 C61 1_555 1_555
C62 C40 1_555 1_555
H106 C62 1_555 1_555
H107 C62 1_555 1_555
C63 C62 1_555 1_555
H108 C63 1_555 1_555
H109 C63 1_555 1_555
C64 C63 1_555 1_555
H110 C64 1_555 1_555
H111 C64 1_555 1_555
H112 C64 1_555 1_555
C2 C8 1_555 1_555
C7 C8 1_555 1_555
C34 C40 1_555 1_555
C39 C40 1_555 1_555

#END
