
#######################################################################
#
#                 Cambridge Crystallographic Data Centre
#                                CCDC 
#
#######################################################################
#
# If this CIF has been generated from an entry in the Cambridge 
# Structural Database, then it will include bibliographic, chemical, 
# crystal, experimental, refinement or atomic coordinate data resulting 
# from the CCDC's data processing and validation procedures.
#
#######################################################################

data_ICILIP
_chemical_formula_moiety         'C9 H9 I1 S4'
_chemical_name_systematic        4-Iodo-4',5,5'-trimethyltetrathiafulvalene
_symmetry_cell_setting           monoclinic
_symmetry_space_group_name_H-M   'P 21'
_symmetry_Int_Tables_number      4
_space_group_name_Hall           'P 2yb'
loop_
_symmetry_equiv_pos_site_id
_symmetry_equiv_pos_as_xyz
1 x,y,z
2 -x,1/2+y,-z
_cell_length_a                   6.225(1)
_cell_length_b                   15.209(2)
_cell_length_c                   6.766(1)
_cell_angle_alpha                90
_cell_angle_beta                 96.65(1)
_cell_angle_gamma                90
_cell_volume                     636.268
_exptl_crystal_colour            orange
_exptl_crystal_description       prism
_cell_formula_units_Z            2
loop_
_atom_site_label
_atom_site_type_symbol
_atom_site_fract_x
_atom_site_fract_y
_atom_site_fract_z
S1 S 0.4310(7) 0.3787(3) 0.3937(6)
S2 S 0.4391(6) 0.4643(2) 0.0021(6)
S3 S 0.0387(6) 0.5068(3) 0.4898(7)
S4 S 0.0484(7) 0.5949(3) 0.1042(6)
C1 C 0.3205(20) 0.4587(9) 0.2260(19)
C2 C 0.6345(19) 0.3469(8) 0.2464(20)
C3 C 0.6374(18) 0.3843(9) 0.0709(18)
C4 C 0.1580(20) 0.5125(9) 0.2691(21)
C5 C -0.1610(20) 0.5856(9) 0.4301(20)
C6 C -0.1525(20) 0.6260(9) 0.2503(22)
C7 C -0.3288(22) 0.6005(10) 0.5813(21)
H1 H -0.2566(25) 0.6192(57) 0.7079(42)
H2 H -0.410(10) 0.5477(20) 0.599(11)
H3 H -0.4259(88) 0.6462(43) 0.5288(65)
I1 I 0.8385(2) 0.25302(9) 0.3681(2)
C8 C 0.7961(34) 0.3652(16) -0.0759(33)
H4 H 0.817(16) 0.4163(30) -0.155(14)
H5 H 0.740(10) 0.3182(60) -0.162(13)
H6 H 0.9321(72) 0.3476(83) -0.0053(34)
C9 C -0.3164(44) 0.6959(18) 0.1512(45)
H7 H -0.382(15) 0.6727(38) 0.0263(93)
H8 H -0.2364(52) 0.7482(33) 0.128(17)
H9 H -0.428(12) 0.7103(59) 0.2334(88)
I2? I 0.8501(44) 0.3620(19) -0.1050(40)
I3? I -0.3342(12) 0.7174(6) 0.1307(14)
I4? I -0.363(13) 0.6375(62) 0.617(12)
loop_
_geom_bond_atom_site_label_1
_geom_bond_atom_site_label_2
_geom_bond_site_symmetry_1
_geom_bond_site_symmetry_2
S1 C1 1_555 1_555
S2 C1 1_555 1_555
S3 C4 1_555 1_555
S4 C4 1_555 1_555
C1 C4 1_555 1_555
C2 S1 1_555 1_555
C3 S2 1_555 1_555
C5 S3 1_555 1_555
C6 S4 1_555 1_555
C7 C5 1_555 1_555
H1 C7 1_555 1_555
H2 C7 1_555 1_555
H3 C7 1_555 1_555
I1 C2 1_555 1_555
C8 C3 1_555 1_555
H4 C8 1_555 1_555
H5 C8 1_555 1_555
H6 C8 1_555 1_555
C9 C6 1_555 1_555
H7 C9 1_555 1_555
H8 C9 1_555 1_555
H9 C9 1_555 1_555
C2 C3 1_555 1_555
C5 C6 1_555 1_555

#END
