
#######################################################################
#
#                 Cambridge Crystallographic Data Centre
#                                CCDC 
#
#######################################################################
#
# If this CIF has been generated from an entry in the Cambridge 
# Structural Database, then it will include bibliographic, chemical, 
# crystal, experimental, refinement or atomic coordinate data resulting 
# from the CCDC's data processing and validation procedures.
#
#######################################################################

data_ICIPAN
_chemical_formula_moiety         'C8 H14 N2 O2 S1'
_chemical_name_systematic        
'3-Vinylhexahydro-2H-pyrrolo[1,2-b][1,2,6]thiadiazine 1,1-dioxide'
_symmetry_cell_setting           orthorhombic
_symmetry_space_group_name_H-M   'P 21 21 21'
_symmetry_Int_Tables_number      19
_space_group_name_Hall           'P 2ac 2ab'
loop_
_symmetry_equiv_pos_site_id
_symmetry_equiv_pos_as_xyz
1 x,y,z
2 1/2-x,-y,1/2+z
3 1/2+x,1/2-y,-z
4 -x,1/2+y,1/2-z
_cell_length_a                   5.20710(10)
_cell_length_b                   12.8881(3)
_cell_length_c                   14.6972(4)
_cell_angle_alpha                90
_cell_angle_beta                 90
_cell_angle_gamma                90
_cell_volume                     986.324
_exptl_crystal_colour            colorless
_exptl_crystal_description       rod
_cell_formula_units_Z            4
loop_
_atom_site_label
_atom_site_type_symbol
_atom_site_fract_x
_atom_site_fract_y
_atom_site_fract_z
S1 S 0.87142(9) 0.31724(4) 0.73867(4)
C1 C 0.5999(6) 0.2524(2) 0.88136(17)
H1 H 0.4519 0.2714 0.8449
H2 H 0.6299 0.3060 0.9264
N1 N 0.8290(4) 0.23695(15) 0.82358(13)
O1 O 1.1270(3) 0.30051(14) 0.70666(14)
C2 C 0.5606(7) 0.1485(3) 0.9260(2)
H3 H 0.3863 0.1244 0.9161
H4 H 0.5900 0.1537 0.9910
N2 N 0.6814(3) 0.28066(13) 0.65704(12)
H5 H 0.5060 0.3019 0.6620
O2 O 0.7949(4) 0.41788(13) 0.76738(16)
C3 C 0.7518(7) 0.0732(3) 0.8834(2)
H6 H 0.8968 0.0617 0.9236
H7 H 0.6707 0.0070 0.8707
C4 C 0.8373(5) 0.12526(18) 0.79617(16)
H8 H 1.0142 0.1051 0.7819
C5 C 0.6615(5) 0.09993(16) 0.71576(15)
H9 H 0.6873 0.0281 0.6984
H10 H 0.4842 0.1075 0.7349
C6 C 0.7083(4) 0.16894(17) 0.63296(14)
H11 H 0.8858 0.1577 0.6131
C7 C 0.5374(5) 0.1487(2) 0.55299(16)
H12 H 0.5628 0.1898 0.5018
C8 C 0.3562(7) 0.0788(2) 0.54804(18)
H13 H 0.3236 0.0357 0.5975
H14 H 0.2599 0.0721 0.4951
loop_
_geom_bond_atom_site_label_1
_geom_bond_atom_site_label_2
_geom_bond_site_symmetry_1
_geom_bond_site_symmetry_2
S1 N1 1_555 1_555
C1 H1 1_555 1_555
H2 C1 1_555 1_555
N1 C1 1_555 1_555
O1 S1 1_555 1_555
C2 C1 1_555 1_555
H3 C2 1_555 1_555
H4 C2 1_555 1_555
N2 S1 1_555 1_555
H5 N2 1_555 1_555
O2 S1 1_555 1_555
C3 C2 1_555 1_555
H6 C3 1_555 1_555
H7 C3 1_555 1_555
C4 N1 1_555 1_555
H8 C4 1_555 1_555
C5 C4 1_555 1_555
H9 C5 1_555 1_555
H10 C5 1_555 1_555
C6 N2 1_555 1_555
H11 C6 1_555 1_555
C7 C6 1_555 1_555
H12 C7 1_555 1_555
C8 C7 1_555 1_555
H13 C8 1_555 1_555
H14 C8 1_555 1_555
C3 C4 1_555 1_555
C5 C6 1_555 1_555

#END
