
#######################################################################
#
#                 Cambridge Crystallographic Data Centre
#                                CCDC 
#
#######################################################################
#
# If this CIF has been generated from an entry in the Cambridge 
# Structural Database, then it will include bibliographic, chemical, 
# crystal, experimental, refinement or atomic coordinate data resulting 
# from the CCDC's data processing and validation procedures.
#
#######################################################################

data_ICOQAT
_chemical_compound_source        'leaves and stems of Schisandra rubriflora'
_chemical_name_common            'Rubriflorilactone B'
_chemical_formula_moiety         'C28 H30 O6'
_chemical_name_systematic        
1,1,9-Trimethyl-10-(4-methyl-5-oxo-2,5-dihydrofuran-2-yl)-1,2a,3,6,8b,9,10,11a,12,14a-decahydro-4H-furo(3,2-b)furo-(3'',2'':1',2')indeno(4',5':5,6)cyclohepta(1,2-c)furan-4-one
_chemical_properties_biological  
'no inhibitory activity against K562; anti-HIV activity'
_symmetry_cell_setting           orthorhombic
_symmetry_space_group_name_H-M   'P 21 21 21'
_symmetry_Int_Tables_number      19
_space_group_name_Hall           'P 2ac 2ab'
loop_
_symmetry_equiv_pos_site_id
_symmetry_equiv_pos_as_xyz
1 x,y,z
2 1/2-x,-y,1/2+z
3 -x,1/2+y,1/2-z
4 1/2+x,1/2-y,-z
_cell_length_a                   10.299(2)
_cell_length_b                   10.771(2)
_cell_length_c                   21.683(4)
_cell_angle_alpha                90
_cell_angle_beta                 90
_cell_angle_gamma                90
_cell_volume                     2405.31
_exptl_crystal_colour            colorless
_exptl_crystal_description       sheet
_chemical_melting_point          201-202deg.C
_cell_formula_units_Z            4
loop_
_atom_site_label
_atom_site_type_symbol
_atom_site_fract_x
_atom_site_fract_y
_atom_site_fract_z
C1 C 0.3204(6) 0.8212(6) 1.0442(3)
H1 H 0.4124 0.7981 1.0459
C2 C 0.2975(7) 0.9386(6) 1.0093(3)
H2 H 0.2908 1.0088 1.0372
H3 H 0.3673 0.9539 0.9803
C3 C 0.1715(7) 0.9170(6) 0.9762(4)
C4 C 0.2276(7) 0.7113(6) 1.1246(3)
C5 C 0.1684(6) 0.6531(5) 1.0654(3)
H4 H 0.0774 0.6798 1.0643
C6 C 0.1659(7) 0.5135(5) 1.0647(3)
H5 H 0.1745 0.4751 1.1029
C7 C 0.1529(7) 0.4375(5) 1.0166(3)
H6 H 0.1464 0.3534 1.0258
C8 C 0.1477(6) 0.4700(5) 0.9507(3)
C9 C 0.2211(6) 0.5667(5) 0.9258(3)
C10 C 0.2368(6) 0.7228(5) 1.0130(3)
C11 C 0.2156(7) 0.5894(6) 0.8627(3)
H7 H 0.2648 0.6538 0.8463
C12 C 0.1382(8) 0.5180(7) 0.8232(3)
H8 H 0.1350 0.5349 0.7812
C13 C 0.0664(6) 0.4215(6) 0.8484(3)
C14 C 0.0717(6) 0.3977(5) 0.9115(3)
C15 C -0.0049(7) 0.2821(5) 0.9265(3)
H9 H -0.0642 0.2971 0.9605
H10 H 0.0525 0.2142 0.9375
C16 C -0.0794(7) 0.2523(6) 0.8675(3)
H11 H -0.0787 0.1630 0.8588
C17 C -0.0162(7) 0.3274(6) 0.8143(3)
H12 H 0.0388 0.2731 0.7892
C18 C 0.3094(6) 0.6432(6) 0.9662(3)
H13 H 0.3616 0.6968 0.9402
H14 H 0.3678 0.5880 0.9881
C19 C -0.1337(7) 0.3718(6) 0.7767(3)
H15 H -0.1590 0.3043 0.7489
C20 C -0.1209(9) 0.4905(8) 0.7382(4)
H16 H -0.2010 0.5061 0.7170
H17 H -0.0522 0.4805 0.7087
H18 H -0.1013 0.5592 0.7648
C21 C -0.2388(7) 0.3842(7) 0.8255(3)
H19 H -0.2356 0.4685 0.8425
C22 C -0.3754(8) 0.3591(6) 0.8024(3)
H20 H -0.3969 0.4199 0.7704
C23 C -0.4798(8) 0.3584(8) 0.8490(4)
H21 H -0.5013 0.4261 0.8737
C24 C -0.5388(7) 0.2497(7) 0.8514(4)
C25 C -0.4764(7) 0.1701(7) 0.8052(3)
C26 C -0.6491(8) 0.2038(10) 0.8892(4)
H22 H -0.6775 0.2685 0.9166
H23 H -0.6215 0.1333 0.9130
H24 H -0.7194 0.1801 0.8627
C27 C 0.3470(10) 0.6428(8) 1.1471(4)
H25 H 0.3799 0.6827 1.1835
H26 H 0.4123 0.6439 1.1155
H27 H 0.3245 0.5585 1.1566
C28 C 0.1286(10) 0.7287(8) 1.1760(4)
H28 H 0.1703 0.7651 1.2112
H29 H 0.0927 0.6495 1.1872
H30 H 0.0604 0.7824 1.1620
O1 O 0.1040(6) 0.9899(5) 0.9512(4)
O2 O 0.1388(4) 0.7954(4) 0.9792(2)
O3 O 0.2634(5) 0.8340(4) 1.1045(2)
O4 O -0.2102(5) 0.2986(6) 0.8734(2)
O5 O -0.4999(7) 0.0649(5) 0.7924(3)
O6 O -0.3818(5) 0.2356(4) 0.7762(2)
loop_
_geom_bond_atom_site_label_1
_geom_bond_atom_site_label_2
_geom_bond_site_symmetry_1
_geom_bond_site_symmetry_2
C1 H1 1_555 1_555
C2 C1 1_555 1_555
H2 C2 1_555 1_555
H3 C2 1_555 1_555
C3 C2 1_555 1_555
C4 C5 1_555 1_555
C5 H4 1_555 1_555
C6 C5 1_555 1_555
H5 C6 1_555 1_555
C7 C6 1_555 1_555
H6 C7 1_555 1_555
C8 C7 1_555 1_555
C9 C8 1_555 1_555
C10 C1 1_555 1_555
C11 C9 1_555 1_555
H7 C11 1_555 1_555
C12 C11 1_555 1_555
H8 C12 1_555 1_555
C13 C12 1_555 1_555
C14 C8 1_555 1_555
C15 C14 1_555 1_555
H9 C15 1_555 1_555
H10 C15 1_555 1_555
C16 C15 1_555 1_555
H11 C16 1_555 1_555
C17 C13 1_555 1_555
H12 C17 1_555 1_555
C18 C9 1_555 1_555
H13 C18 1_555 1_555
H14 C18 1_555 1_555
C19 C17 1_555 1_555
H15 C19 1_555 1_555
C20 C19 1_555 1_555
H16 C20 1_555 1_555
H17 C20 1_555 1_555
H18 C20 1_555 1_555
C21 C19 1_555 1_555
H19 C21 1_555 1_555
C22 C21 1_555 1_555
H20 C22 1_555 1_555
C23 C22 1_555 1_555
H21 C23 1_555 1_555
C24 C23 1_555 1_555
C25 C24 1_555 1_555
C26 C24 1_555 1_555
H22 C26 1_555 1_555
H23 C26 1_555 1_555
H24 C26 1_555 1_555
C27 C4 1_555 1_555
H25 C27 1_555 1_555
H26 C27 1_555 1_555
H27 C27 1_555 1_555
C28 C4 1_555 1_555
H28 C28 1_555 1_555
H29 C28 1_555 1_555
H30 C28 1_555 1_555
O1 C3 1_555 1_555
O2 C3 1_555 1_555
O3 C1 1_555 1_555
O4 C16 1_555 1_555
O5 C25 1_555 1_555
O6 C22 1_555 1_555
C4 O3 1_555 1_555
C5 C10 1_555 1_555
C10 C18 1_555 1_555
C10 O2 1_555 1_555
C13 C14 1_555 1_555
C16 C17 1_555 1_555
C21 O4 1_555 1_555
C25 O6 1_555 1_555

#END
