
#######################################################################
#
#                 Cambridge Crystallographic Data Centre
#                                CCDC 
#
#######################################################################
#
# If this CIF has been generated from an entry in the Cambridge 
# Structural Database, then it will include bibliographic, chemical, 
# crystal, experimental, refinement or atomic coordinate data resulting 
# from the CCDC's data processing and validation procedures.
#
#######################################################################

data_ICUFEU
_chemical_formula_moiety         'C12 H12 N5 1+,C2 Cl3 O2 1-'
_chemical_name_systematic        
'N-benzyl-3,7-dihydro-6H-purin-6-iminium trichloroacetate'
_symmetry_cell_setting           triclinic
_symmetry_space_group_name_H-M   'P -1'
_symmetry_Int_Tables_number      2
_space_group_name_Hall           '-P 1'
loop_
_symmetry_equiv_pos_site_id
_symmetry_equiv_pos_as_xyz
1 x,y,z
2 -x,-y,-z
_cell_length_a                   5.4634(4)
_cell_length_b                   9.7180(7)
_cell_length_c                   15.9707(12)
_cell_angle_alpha                84.2100(10)
_cell_angle_beta                 86.633(2)
_cell_angle_gamma                78.0640(10)
_cell_volume                     824.747
_exptl_crystal_colour            colorless
_exptl_crystal_description       block
_cell_formula_units_Z            2
loop_
_atom_site_label
_atom_site_type_symbol
_atom_site_fract_x
_atom_site_fract_y
_atom_site_fract_z
Cl1 Cl 1.16016(18) 0.58184(9) 0.40914(5)
Cl2 Cl 0.79773(19) 0.69800(9) 0.28346(6)
Cl3 Cl 1.2774(2) 0.53080(13) 0.23615(7)
O1 O 0.7875(5) 0.4101(3) 0.39606(16)
O2 O 0.9386(6) 0.3385(3) 0.27192(19)
C1 C 0.9108(6) 0.4174(3) 0.3288(2)
C2 C 1.0383(6) 0.5488(3) 0.3145(2)
N1 N 0.4962(5) 0.2257(3) 0.41896(16)
H1 H 0.6032 0.2787 0.4060
N2 N 0.2085(5) 0.1254(3) 0.49422(16)
N3 N 0.1500(5) -0.0285(3) 0.38850(17)
H2 H 0.0402 -0.0664 0.4179
N4 N 0.3933(6) -0.0130(3) 0.26139(17)
N5 N 0.6758(5) 0.1358(3) 0.23867(16)
H3 H 0.7447 0.1990 0.2562
C3 C 0.3586(6) 0.2187(3) 0.4902(2)
H4 H 0.3662 0.2743 0.5337
C4 C 0.2559(6) 0.0716(3) 0.41820(19)
C5 C 0.4322(6) 0.1306(3) 0.37023(19)
C6 C 0.5059(6) 0.0866(3) 0.28866(19)
C7 C 0.2269(7) -0.0644(3) 0.3108(2)
H5 H 0.1553 -0.1323 0.2900
C8 C 0.7541(8) 0.0885(4) 0.1544(2)
H6 H 0.7499 -0.0110 0.1554
H7 H 0.9258 0.0985 0.1418
C9 C 0.5914(8) 0.1697(4) 0.0844(2)
C10 C 0.670(3) 0.1547(13) 0.0015(8)
H8 H 0.8260 0.0996 -0.0108
C11 C 0.518(10) 0.221(5) -0.064(4)
H9 H 0.5743 0.2103 -0.1196
C12 C 0.290(2) 0.3018(12) -0.0475(6)
H10 H 0.1903 0.3459 -0.0916
C13 C 0.2087(15) 0.3179(7) 0.0332(4)
H11 H 0.0533 0.3745 0.0445
C14 C 0.3553(13) 0.2503(6) 0.0993(3)
H12 H 0.2938 0.2594 0.1545
C15? C 0.593(10) 0.113(6) 0.009(3)
H13? H 0.6553 0.0165 0.0058
C16? C 0.50(4) 0.20(2) -0.062(15)
H14? H 0.5039 0.1594 -0.1130
C17? C 0.413(9) 0.340(5) -0.056(2)
H15? H 0.3531 0.3983 -0.1038
C18? C 0.412(6) 0.396(3) 0.0187(15)
H16? H 0.3495 0.4919 0.0222
C19? C 0.502(6) 0.312(3) 0.0896(15)
H17? H 0.5027 0.3511 0.1404
loop_
_geom_bond_atom_site_label_1
_geom_bond_atom_site_label_2
_geom_bond_site_symmetry_1
_geom_bond_site_symmetry_2
Cl1 C2 1_555 1_555
Cl2 C2 1_555 1_555
Cl3 C2 1_555 1_555
O1 C1 1_555 1_555
O2 C1 1_555 1_555
C1 C2 1_555 1_555
N1 H1 1_555 1_555
N2 C3 1_555 1_555
N3 H2 1_555 1_555
N4 C6 1_555 1_555
N5 H3 1_555 1_555
C3 N1 1_555 1_555
H4 C3 1_555 1_555
C4 N2 1_555 1_555
C5 N1 1_555 1_555
C6 N5 1_555 1_555
C7 N3 1_555 1_555
H5 C7 1_555 1_555
C8 N5 1_555 1_555
H6 C8 1_555 1_555
H7 C8 1_555 1_555
C9 C8 1_555 1_555
C10 C9 1_555 1_555
H8 C10 1_555 1_555
C11 C10 1_555 1_555
H9 C11 1_555 1_555
C12 C11 1_555 1_555
H10 C12 1_555 1_555
C13 C12 1_555 1_555
H11 C13 1_555 1_555
C14 C9 1_555 1_555
H12 C14 1_555 1_555
N3 C4 1_555 1_555
N4 C7 1_555 1_555
C4 C5 1_555 1_555
C5 C6 1_555 1_555
C13 C14 1_555 1_555

#END
