
#######################################################################
#
#                 Cambridge Crystallographic Data Centre
#                                CCDC 
#
#######################################################################
#
# If this CIF has been generated from an entry in the Cambridge 
# Structural Database, then it will include bibliographic, chemical, 
# crystal, experimental, refinement or atomic coordinate data resulting 
# from the CCDC's data processing and validation procedures.
#
#######################################################################

data_ICUFIY
_chemical_formula_moiety         'C12 H11 N5,C8 H5 N1 O6,H2 O1'
_chemical_name_systematic        
'3-nitrophthalic acid N-benzyl-9H-purin-6-amine monohydrate'
_symmetry_cell_setting           triclinic
_symmetry_space_group_name_H-M   'P -1'
_symmetry_Int_Tables_number      2
_space_group_name_Hall           '-P 1'
loop_
_symmetry_equiv_pos_site_id
_symmetry_equiv_pos_as_xyz
1 x,y,z
2 -x,-y,-z
_cell_length_a                   7.4065(7)
_cell_length_b                   8.1151(8)
_cell_length_c                   18.4782(15)
_cell_angle_alpha                95.3190(10)
_cell_angle_beta                 90.7750(10)
_cell_angle_gamma                115.063(2)
_cell_volume                     1000
_exptl_crystal_colour            colorless
_exptl_crystal_description       block
_cell_formula_units_Z            2
loop_
_atom_site_label
_atom_site_type_symbol
_atom_site_fract_x
_atom_site_fract_y
_atom_site_fract_z
N1 N 0.0848(6) 0.2863(6) 0.4156(2)
H1 H 0.0802 0.2662 0.3690
N2 N 0.0095(6) 0.2383(5) 0.5311(2)
N3 N 0.3512(6) 0.5952(6) 0.4362(2)
N4 N 0.4171(6) 0.7066(5) 0.5634(2)
N5 N 0.2495(7) 0.5351(6) 0.6544(2)
H2 H 0.1595 0.4346 0.6668
C1 C -0.0307(8) 0.1714(7) 0.4621(3)
H3 H -0.1297 0.0554 0.4467
C2 C 0.1630(7) 0.4104(7) 0.5293(2)
C3 C 0.2120(7) 0.4430(7) 0.4588(3)
C4 C 0.4435(8) 0.7187(7) 0.4925(3)
H4 H 0.5404 0.8296 0.4808
C5 C 0.2754(7) 0.5496(6) 0.5840(2)
C6 C 0.3642(9) 0.6790(7) 0.7122(3)
H5 H 0.3355 0.7840 0.7083
H6 H 0.5055 0.7172 0.7058
C7 C 0.3177(9) 0.6181(7) 0.7861(3)
C8 C 0.1316(10) 0.5760(8) 0.8116(3)
H7 H 0.0333 0.5851 0.7827
C9 C 0.0900(11) 0.5196(8) 0.8808(4)
H8 H -0.0372 0.4877 0.8973
C10 C 0.2346(13) 0.5111(8) 0.9241(4)
H9 H 0.2066 0.4745 0.9705
C11 C 0.4208(12) 0.5560(9) 0.8998(3)
H10 H 0.5204 0.5512 0.9295
C12 C 0.4602(10) 0.6088(8) 0.8306(3)
H11 H 0.5871 0.6386 0.8140
N6 N 1.0085(9) 1.0665(7) 0.0920(3)
O1 O 0.4055(6) 0.6571(5) 0.29862(19)
H12 H 0.3970 0.6373 0.3414
O2 O 0.6957(6) 0.8859(5) 0.34126(19)
O3 O 1.0199(6) 0.8676(5) 0.2598(2)
H13 H 1.1194 0.9103 0.2879
O4 O 1.0657(6) 1.1584(5) 0.26584(19)
O5 O 1.1411(8) 1.0291(7) 0.1152(2)
O6 O 1.0293(8) 1.1676(6) 0.0442(2)
C13 C 0.5742(9) 0.8001(7) 0.2911(3)
C14 C 0.9756(9) 0.9987(8) 0.2429(3)
C15 C 0.6001(8) 0.8473(7) 0.2151(3)
C16 C 0.7936(8) 0.9349(7) 0.1911(3)
C17 C 0.8094(9) 0.9795(7) 0.1203(3)
C18 C 0.6462(10) 0.9367(8) 0.0732(3)
H14 H 0.6633 0.9656 0.0255
C19 C 0.4591(10) 0.8514(9) 0.0974(3)
H15 H 0.3474 0.8235 0.0666
C20 C 0.4367(9) 0.8064(7) 0.1685(3)
H16 H 0.3092 0.7477 0.1849
O7 O 0.2713(6) 0.9547(5) 0.36753(19)
H17 H 0.1898 0.8997 0.3986
H18 H 0.3610 1.0534 0.3889
loop_
_geom_bond_atom_site_label_1
_geom_bond_atom_site_label_2
_geom_bond_site_symmetry_1
_geom_bond_site_symmetry_2
N1 H1 1_555 1_555
N2 C1 1_555 1_555
N3 C3 1_555 1_555
N4 C4 1_555 1_555
N5 H2 1_555 1_555
C1 N1 1_555 1_555
H3 C1 1_555 1_555
C2 N2 1_555 1_555
C3 N1 1_555 1_555
C4 N3 1_555 1_555
H4 C4 1_555 1_555
C5 N4 1_555 1_555
C6 N5 1_555 1_555
H5 C6 1_555 1_555
H6 C6 1_555 1_555
C7 C6 1_555 1_555
C8 C7 1_555 1_555
H7 C8 1_555 1_555
C9 C8 1_555 1_555
H8 C9 1_555 1_555
C10 C9 1_555 1_555
H9 C10 1_555 1_555
C11 C10 1_555 1_555
H10 C11 1_555 1_555
C12 C7 1_555 1_555
H11 C12 1_555 1_555
N6 O5 1_555 1_555
O1 H12 1_555 1_555
O2 C13 1_555 1_555
O3 H13 1_555 1_555
O4 C14 1_555 1_555
O6 N6 1_555 1_555
C13 O1 1_555 1_555
C14 O3 1_555 1_555
C15 C13 1_555 1_555
C16 C14 1_555 1_555
C17 N6 1_555 1_555
C18 C17 1_555 1_555
H14 C18 1_555 1_555
C19 C18 1_555 1_555
H15 C19 1_555 1_555
C20 C15 1_555 1_555
H16 C20 1_555 1_555
O7 H17 1_555 1_555
H18 O7 1_555 1_555
N5 C5 1_555 1_555
C2 C3 1_555 1_555
C2 C5 1_555 1_555
C11 C12 1_555 1_555
C15 C16 1_555 1_555
C16 C17 1_555 1_555
C19 C20 1_555 1_555

#END
