
#######################################################################
#
#                 Cambridge Crystallographic Data Centre
#                                CCDC 
#
#######################################################################
#
# If this CIF has been generated from an entry in the Cambridge 
# Structural Database, then it will include bibliographic, chemical, 
# crystal, experimental, refinement or atomic coordinate data resulting 
# from the CCDC's data processing and validation procedures.
#
#######################################################################

data_ICURAA
_chemical_formula_moiety         'C14 H16 O2'
_chemical_name_systematic        
2,3,5,6-Tetramethyl-trans-1,4-diethynylcyclohexa-2,5-diene-1,4-diol
_symmetry_cell_setting           orthorhombic
_symmetry_space_group_name_H-M   'F d d 2'
_symmetry_Int_Tables_number      43
_space_group_name_Hall           'F 2 -2d'
loop_
_symmetry_equiv_pos_site_id
_symmetry_equiv_pos_as_xyz
1 x,y,z
2 -x,-y,z
3 1/4+x,1/4-y,1/4+z
4 1/4-x,1/4+y,1/4+z
5 x,1/2+y,1/2+z
6 -x,1/2-y,1/2+z
7 1/4+x,3/4-y,3/4+z
8 1/4-x,3/4+y,3/4+z
9 1/2+x,y,1/2+z
10 1/2-x,-y,1/2+z
11 3/4+x,1/4-y,3/4+z
12 3/4-x,1/4+y,3/4+z
13 1/2+x,1/2+y,z
14 1/2-x,1/2-y,z
15 3/4+x,3/4-y,1/4+z
16 3/4-x,3/4+y,1/4+z
_cell_length_a                   32.5783(12)
_cell_length_b                   18.3051(6)
_cell_length_c                   25.6653(10)
_cell_angle_alpha                90
_cell_angle_beta                 90
_cell_angle_gamma                90
_cell_volume                     15305.5
_exptl_crystal_colour            colorless
_exptl_crystal_description       cube
_chemical_melting_point          '459 K'
_cell_formula_units_Z            48
loop_
_atom_site_label
_atom_site_type_symbol
_atom_site_fract_x
_atom_site_fract_y
_atom_site_fract_z
O1 O 0.10426(4) 0.38008(6) 0.22046(6)
O2 O 0.06229(4) 0.12284(6) 0.29635(5)
C1 C 0.09160(4) 0.17531(8) 0.27694(6)
C2 C 0.08202(4) 0.19238(8) 0.22018(6)
C3 C 0.07585(5) 0.32574(8) 0.23955(7)
C4 C 0.00067(5) 0.38447(10) 0.23614(7)
C5 C 0.03448(5) 0.36044(9) 0.23703(7)
C6 C 0.13265(5) 0.13932(9) 0.27816(6)
C7 C 0.08515(5) 0.30887(9) 0.29649(7)
C8 C 0.09247(5) 0.24086(9) 0.31332(6)
C9 C 0.07553(5) 0.26029(9) 0.20313(6)
C10 C 0.16615(6) 0.11430(10) 0.27560(8)
C11 C 0.07931(6) 0.12595(10) 0.18572(7)
C12 C 0.10187(6) 0.22251(11) 0.36966(7)
C13 C 0.08513(7) 0.37463(11) 0.33195(10)
C14 C 0.06720(6) 0.27758(11) 0.14649(7)
H1 H 0.1265(8) 0.3631(13) 0.2181(10)
H2 H 0.0619(8) 0.3303(15) 0.1415(11)
H3 H 0.0906(9) 0.2669(16) 0.1224(13)
H4 H 0.0423(10) 0.2585(18) 0.1338(14)
H5 H 0.0397(7) 0.1395(14) 0.2925(10)
H6 H 0.1273(9) 0.2369(15) 0.3786(11)
H7 H 0.0811(11) 0.240(2) 0.3917(17)
H8 H 0.1000(9) 0.1692(19) 0.3759(13)
H9 H 0.0849(11) 0.363(2) 0.3673(17)
H10 H 0.1132(10) 0.400(2) 0.3277(14)
H11 H 0.0718(10) 0.4158(18) 0.3163(13)
H12 H 0.0787(8) 0.1391(15) 0.1499(13)
H13 H 0.0562(9) 0.0977(17) 0.1958(12)
H14 H 0.1018(9) 0.0912(17) 0.1935(12)
H15 H -0.0271(7) 0.4019(12) 0.2360(9)
H16 H 0.1936(9) 0.0962(16) 0.2729(12)
O3 O 0.09060(3) 0.95776(7) 0.47523(5)
O4 O 0.23989(3) 1.04255(7) 0.52350(6)
C15 C 0.14038(5) 0.86723(9) 0.47949(7)
C16 C 0.13377(5) 0.94763(8) 0.48594(7)
C17 C 0.14277(5) 0.96859(9) 0.54201(7)
C18 C 0.19253(5) 1.13782(9) 0.52174(7)
C19 C 0.14766(7) 0.97017(11) 0.38917(8)
C20 C 0.19661(5) 1.05746(9) 0.51409(7)
C21 C 0.15821(5) 0.98880(9) 0.44498(6)
C22 C 0.17104(5) 1.01806(9) 0.55480(7)
C23 C 0.18628(5) 1.03904(9) 0.45774(7)
C24 C 0.18920(5) 1.20217(10) 0.52790(8)
C25 C 0.14519(6) 0.80281(10) 0.47545(9)
C26 C 0.18064(7) 1.03831(12) 0.61065(8)
C27 C 0.11617(6) 0.93017(12) 0.58178(8)
C28 C 0.21034(6) 1.08132(12) 0.41717(8)
H17 H 0.2406(7) 0.9933(16) 0.5150(10)
H18 H 0.0881(8) 1.0086(16) 0.4803(12)
H19 H 0.2354(9) 1.1059(17) 0.4302(13)
H20 H 0.1954(10) 1.1207(18) 0.3944(14)
H21 H 0.2195(13) 1.059(2) 0.3883(18)
H22 H 0.1369(9) 1.013(2) 0.3704(14)
H23 H 0.1304(12) 0.930(2) 0.3822(17)
H24 H 0.1764(11) 0.958(2) 0.3676(17)
H25 H 0.2100(11) 1.0382(18) 0.6153(13)
H26 H 0.1765(12) 1.083(2) 0.6191(16)
H27 H 0.1687(12) 1.009(2) 0.6313(19)
H28 H 0.1260(10) 0.9276(19) 0.6163(14)
H29 H 0.0933(11) 0.954(2) 0.5882(16)
H30 H 0.1028(10) 0.8882(19) 0.5657(14)
H31 H 0.1890(8) 1.2551(15) 0.5340(12)
H32 H 0.1491(7) 0.7521(13) 0.4764(10)
C29 C -0.00803(4) 0.92040(8) 0.50152(6)
O5 O 0.02327(4) 0.86428(6) 0.50096(6)
C30 C -0.04835(5) 0.88204(8) 0.50236(7)
C31 C -0.08158(5) 0.85573(11) 0.50319(8)
C32 C -0.00471(4) 0.96436(9) 0.45187(6)
C33 C -0.00406(5) 0.96442(9) 0.55161(6)
C34 C -0.00927(6) 0.92145(12) 0.60141(8)
C35 C -0.01128(6) 0.92258(11) 0.40198(7)
H33 H -0.0391(9) 0.9302(16) 0.3859(12)
H34 H 0.0108(8) 0.9321(15) 0.3766(12)
H35 H -0.0139(8) 0.8656(15) 0.4075(11)
H36 H 0.0471(8) 0.8817(14) 0.4952(11)
H37 H 0.0109(8) 0.9353(14) 0.6268(11)
H38 H -0.0374(8) 0.9311(15) 0.6195(11)
H39 H -0.0078(8) 0.8659(17) 0.5939(12)
H40 H -0.1094(8) 0.8363(15) 0.5048(11)
C29A C 0.00803(4) 1.07960(8) 0.50152(6)
O5A O -0.02327(4) 1.13572(6) 0.50096(6)
C30A C 0.04835(5) 1.11796(8) 0.50236(7)
C31A C 0.08158(5) 1.14427(11) 0.50319(8)
C32A C 0.00471(4) 1.03564(9) 0.45187(6)
C33A C 0.00406(5) 1.03558(9) 0.55161(6)
C34A C 0.00927(6) 1.07855(12) 0.60141(8)
C35A C 0.01128(6) 1.07742(11) 0.40198(7)
H33A H 0.0391(9) 1.0698(16) 0.3859(12)
H34A H -0.0108(8) 1.0679(15) 0.3766(12)
H35A H 0.0139(8) 1.1344(15) 0.4075(11)
H36A H -0.0471(8) 1.1183(14) 0.4952(11)
H37A H -0.0109(8) 1.0647(14) 0.6268(11)
H38A H 0.0374(8) 1.0689(15) 0.6195(11)
H39A H 0.0078(8) 1.1341(17) 0.5939(12)
H40A H 0.1094(8) 1.1637(15) 0.5048(11)
O6 O 0.07692(3) 0.54024(7) 0.46778(6)
C36 C 0.01457(5) 0.52542(8) 0.41872(6)
C37 C 0.03305(4) 0.55468(8) 0.46898(7)
C38 C 0.02883(5) 0.63537(9) 0.47099(8)
C39 C 0.01526(5) 0.52410(9) 0.51907(6)
C40 C 0.02445(6) 0.69967(10) 0.47558(9)
C41 C 0.03437(8) 0.55307(13) 0.56851(8)
C42 C 0.03296(7) 0.55830(12) 0.36978(8)
H41 H 0.0786(8) 0.4947(16) 0.4759(12)
H42 H 0.0397(11) 0.518(2) 0.5895(16)
H43 H 0.0600(11) 0.579(2) 0.5636(15)
H44 H 0.0158(12) 0.577(2) 0.5847(17)
H45 H 0.0618(11) 0.5549(19) 0.3678(15)
H46 H 0.0269(10) 0.610(2) 0.3666(14)
H47 H 0.0230(9) 0.5303(19) 0.3362(14)
H48 H 0.0199(8) 0.7535(16) 0.4781(12)
O6A O -0.07692(3) 0.45976(7) 0.46778(6)
C36A C -0.01457(5) 0.47458(8) 0.41872(6)
C37A C -0.03305(4) 0.44532(8) 0.46898(7)
C38A C -0.02883(5) 0.36463(9) 0.47099(8)
C39A C -0.01526(5) 0.47590(9) 0.51907(6)
C40A C -0.02445(6) 0.30033(10) 0.47558(9)
C41A C -0.03437(8) 0.44693(13) 0.56851(8)
C42A C -0.03296(7) 0.44170(12) 0.36978(8)
H41A H -0.0786(8) 0.5053(16) 0.4759(12)
H42A H -0.0397(11) 0.482(2) 0.5895(16)
H43A H -0.0600(11) 0.421(2) 0.5636(15)
H44A H -0.0158(12) 0.423(2) 0.5847(17)
H45A H -0.0618(11) 0.4451(19) 0.3678(15)
H46A H -0.0269(10) 0.390(2) 0.3666(14)
H47A H -0.0230(9) 0.4697(19) 0.3362(14)
H48A H -0.0199(8) 0.2465(16) 0.4781(12)
loop_
_geom_bond_atom_site_label_1
_geom_bond_atom_site_label_2
_geom_bond_site_symmetry_1
_geom_bond_site_symmetry_2
O1 C3 1_555 1_555
O2 C1 1_555 1_555
C1 C2 1_555 1_555
C2 C9 1_555 1_555
C3 C5 1_555 1_555
C4 C5 1_555 1_555
C6 C1 1_555 1_555
C7 C3 1_555 1_555
C8 C1 1_555 1_555
C9 C3 1_555 1_555
C10 C6 1_555 1_555
C11 C2 1_555 1_555
C12 C8 1_555 1_555
C13 C7 1_555 1_555
C14 C9 1_555 1_555
H1 O1 1_555 1_555
H2 C14 1_555 1_555
H3 C14 1_555 1_555
H4 C14 1_555 1_555
H5 O2 1_555 1_555
H6 C12 1_555 1_555
H7 C12 1_555 1_555
H8 C12 1_555 1_555
H9 C13 1_555 1_555
H10 C13 1_555 1_555
H11 C13 1_555 1_555
H12 C11 1_555 1_555
H13 C11 1_555 1_555
H14 C11 1_555 1_555
H15 C4 1_555 1_555
H16 C10 1_555 1_555
O3 C16 1_555 1_555
O4 C20 1_555 1_555
C15 C16 1_555 1_555
C16 C17 1_555 1_555
C17 C22 1_555 1_555
C18 C20 1_555 1_555
C19 C21 1_555 1_555
C20 C22 1_555 1_555
C21 C16 1_555 1_555
C22 C26 1_555 1_555
C23 C20 1_555 1_555
C24 C18 1_555 1_555
C25 C15 1_555 1_555
C26 H25 1_555 1_555
C27 C17 1_555 1_555
C28 C23 1_555 1_555
H17 O4 1_555 1_555
H18 O3 1_555 1_555
H19 C28 1_555 1_555
H20 C28 1_555 1_555
H21 C28 1_555 1_555
H22 C19 1_555 1_555
H23 C19 1_555 1_555
H24 C19 1_555 1_555
H26 C26 1_555 1_555
H27 C26 1_555 1_555
H28 C27 1_555 1_555
H29 C27 1_555 1_555
H30 C27 1_555 1_555
H31 C24 1_555 1_555
H32 C25 1_555 1_555
C29 O5 1_555 1_555
O5 H36 1_555 1_555
C30 C29 1_555 1_555
C31 C30 1_555 1_555
C32 C29 1_555 1_555
C33 C29 1_555 1_555
C34 C33 1_555 1_555
C35 C32 1_555 1_555
H33 C35 1_555 1_555
H34 C35 1_555 1_555
H35 C35 1_555 1_555
H37 C34 1_555 1_555
H38 C34 1_555 1_555
H39 C34 1_555 1_555
H40 C31 1_555 1_555
O6 C37 1_555 1_555
C36 C37 1_555 1_555
C37 C38 1_555 1_555
C38 C40 1_555 1_555
C39 C37 1_555 1_555
C40 H48 1_555 1_555
C41 C39 1_555 1_555
C42 C36 1_555 1_555
H41 O6 1_555 1_555
H42 C41 1_555 1_555
H43 C41 1_555 1_555
H44 C41 1_555 1_555
H45 C42 1_555 1_555
H46 C42 1_555 1_555
H47 C42 1_555 1_555
C29A O5A 1_555 1_555
O5A H36A 1_555 1_555
C30A C29A 1_555 1_555
C31A C30A 1_555 1_555
C32A C32 1_555 1_555
C33A C33 1_555 1_555
C34A C33A 1_555 1_555
C35A C32A 1_555 1_555
H33A C35A 1_555 1_555
H34A C35A 1_555 1_555
H35A C35A 1_555 1_555
H37A C34A 1_555 1_555
H38A C34A 1_555 1_555
H39A C34A 1_555 1_555
H40A C31A 1_555 1_555
O6A C37A 1_555 1_555
C36A C36 1_555 1_555
C37A C36A 1_555 1_555
C38A C37A 1_555 1_555
C39A C39 1_555 1_555
C40A C38A 1_555 1_555
C41A C39A 1_555 1_555
C42A C36A 1_555 1_555
H41A O6A 1_555 1_555
H42A C41A 1_555 1_555
H43A C41A 1_555 1_555
H44A C41A 1_555 1_555
H45A C42A 1_555 1_555
H46A C42A 1_555 1_555
H47A C42A 1_555 1_555
H48A C40A 1_555 1_555
C7 C8 1_555 1_555
C21 C23 1_555 1_555
C29A C32A 1_555 1_555
C29A C33A 1_555 1_555
C37A C39A 1_555 1_555

#END
