
#######################################################################
#
#                 Cambridge Crystallographic Data Centre
#                                CCDC 
#
#######################################################################
#
# If this CIF has been generated from an entry in the Cambridge 
# Structural Database, then it will include bibliographic, chemical, 
# crystal, experimental, refinement or atomic coordinate data resulting 
# from the CCDC's data processing and validation procedures.
#
#######################################################################

data_IDALEF
_chemical_formula_moiety         'C17 H14 F6 O2 S2'
_chemical_name_systematic        
1-(2,5-Dimethylthiene-1,1-dioxide-3-yl)-2-(2,5-dimethylthien-3-yl)hexafluorocyclopentene
_symmetry_cell_setting           monoclinic
_symmetry_space_group_name_H-M   'P 21/c'
_symmetry_Int_Tables_number      14
_space_group_name_Hall           '-P 2ybc'
loop_
_symmetry_equiv_pos_site_id
_symmetry_equiv_pos_as_xyz
1 x,y,z
2 -x,1/2+y,1/2-z
3 -x,-y,-z
4 x,1/2-y,1/2+z
_cell_length_a                   13.078(3)
_cell_length_b                   6.433(2)
_cell_length_c                   22.410(6)
_cell_angle_alpha                90
_cell_angle_beta                 105.828(17)
_cell_angle_gamma                90
_cell_volume                     1813.89
_exptl_crystal_colour            'dark red'
_exptl_crystal_description       block
_chemical_melting_point          91deg.C
_cell_formula_units_Z            4
_exptl_crystal_recrystallization_method 'hexane/ethyl acetate'
loop_
_atom_site_label
_atom_site_type_symbol
_atom_site_fract_x
_atom_site_fract_y
_atom_site_fract_z
S1 S 0.05757(12) 0.9676(3) 0.38796(7)
S2 S 0.19497(13) 0.9981(3) 0.15296(7)
F1 F 0.3846(5) 0.5453(12) 0.4479(3)
F2 F 0.4573(6) 0.8305(12) 0.4662(3)
F3 F 0.5228(17) 0.443(2) 0.4096(5)
F4 F 0.5892(4) 0.702(4) 0.4158(4)
F5 F 0.5332(3) 0.7403(12) 0.3027(3)
F6 F 0.4550(5) 0.4542(9) 0.3027(3)
O1 O 0.0113(4) 0.8446(8) 0.4269(2)
O2 O -0.0117(4) 1.0855(10) 0.3394(2)
C1 C 0.1333(7) 1.3015(11) 0.4703(3)
H1 H 0.1976 1.3719 0.4916
H2 H 0.0995 1.2472 0.5000
H3 H 0.0863 1.3976 0.4433
C2 C 0.1592(5) 1.1252(9) 0.4323(3)
C3 C 0.2499(5) 1.0625(9) 0.4243(3)
H4 H 0.3143 1.1252 0.4441
C4 C 0.2423(4) 0.8831(9) 0.3810(2)
C5 C 0.1435(4) 0.8120(9) 0.3573(2)
C6 C 0.0985(5) 0.6446(11) 0.3137(3)
H5 H 0.1545 0.5752 0.3014
H6 H 0.0488 0.7020 0.2777
H7 H 0.0625 0.5469 0.3333
C7 C 0.3371(4) 0.7938(9) 0.3684(2)
C8 C 0.4233(5) 0.7097(12) 0.4215(3)
C9 C 0.5026(6) 0.6230(16) 0.3937(3)
C10 C 0.4649(5) 0.6458(11) 0.3261(3)
C11 C 0.3605(4) 0.7589(8) 0.3137(2)
C12 C 0.3018(4) 0.8141(8) 0.2500(2)
C13 C 0.3032(4) 0.6830(9) 0.1982(3)
H8 H 0.3392 0.5568 0.2022
C14 C 0.2474(5) 0.7611(10) 0.1433(3)
C15 C 0.2268(6) 0.6655(14) 0.0799(3)
H9 H 0.2619 0.5333 0.0831
H10 H 0.2536 0.7556 0.0535
H11 H 0.1517 0.6466 0.0626
C16 C 0.2463(4) 0.9937(9) 0.2318(3)
C17 C 0.2289(7) 1.1765(10) 0.2685(3)
H12 H 0.2622 1.1522 0.3117
H13 H 0.1541 1.1973 0.2623
H14 H 0.2593 1.2980 0.2552
loop_
_geom_bond_atom_site_label_1
_geom_bond_atom_site_label_2
_geom_bond_site_symmetry_1
_geom_bond_site_symmetry_2
S1 O1 1_555 1_555
S2 C14 1_555 1_555
F1 C8 1_555 1_555
F2 C8 1_555 1_555
F3 C9 1_555 1_555
F4 C9 1_555 1_555
F5 C10 1_555 1_555
F6 C10 1_555 1_555
O2 S1 1_555 1_555
C1 H1 1_555 1_555
H2 C1 1_555 1_555
H3 C1 1_555 1_555
C2 S1 1_555 1_555
C3 C2 1_555 1_555
H4 C3 1_555 1_555
C4 C3 1_555 1_555
C5 S1 1_555 1_555
C6 C5 1_555 1_555
H5 C6 1_555 1_555
H6 C6 1_555 1_555
H7 C6 1_555 1_555
C7 C4 1_555 1_555
C8 C7 1_555 1_555
C9 C8 1_555 1_555
C10 C9 1_555 1_555
C11 C7 1_555 1_555
C12 C11 1_555 1_555
C13 C12 1_555 1_555
H8 C13 1_555 1_555
C14 C13 1_555 1_555
C15 C14 1_555 1_555
H9 C15 1_555 1_555
H10 C15 1_555 1_555
H11 C15 1_555 1_555
C16 S2 1_555 1_555
C17 C16 1_555 1_555
H12 C17 1_555 1_555
H13 C17 1_555 1_555
H14 C17 1_555 1_555
C1 C2 1_555 1_555
C4 C5 1_555 1_555
C10 C11 1_555 1_555
C12 C16 1_555 1_555

#END
