
#######################################################################
#
#                 Cambridge Crystallographic Data Centre
#                                CCDC 
#
#######################################################################
#
# If this CIF has been generated from an entry in the Cambridge 
# Structural Database, then it will include bibliographic, chemical, 
# crystal, experimental, refinement or atomic coordinate data resulting 
# from the CCDC's data processing and validation procedures.
#
#######################################################################

data_IDAQUA
_chemical_formula_moiety         'C22 H20'
_chemical_name_systematic        (E)-1,2-Diphenyl-1-p-tolylpropene
_symmetry_cell_setting           monoclinic
_symmetry_space_group_name_H-M   'P 21/c'
_symmetry_Int_Tables_number      14
_space_group_name_Hall           '-P 2ybc'
loop_
_symmetry_equiv_pos_site_id
_symmetry_equiv_pos_as_xyz
1 x,y,z
2 -x,1/2+y,1/2-z
3 -x,-y,-z
4 x,1/2-y,1/2+z
_cell_length_a                   8.674(9)
_cell_length_b                   9.156(9)
_cell_length_c                   20.18(3)
_cell_angle_alpha                90
_cell_angle_beta                 90.30(4)
_cell_angle_gamma                90
_cell_volume                     1602.66
_exptl_crystal_colour            colorless
_exptl_crystal_description       prism
_cell_formula_units_Z            4
loop_
_atom_site_label
_atom_site_type_symbol
_atom_site_fract_x
_atom_site_fract_y
_atom_site_fract_z
C1 C 0.77974(12) 0.11187(11) 0.59429(5)
C2 C 0.88567(12) 0.00127(11) 0.70008(5)
C3 C 0.74001(12) 0.16340(11) 0.47377(5)
C4 C 0.73557(12) -0.16663(11) 0.76657(5)
C5 C 0.92670(12) 0.50331(11) 0.59034(5)
C6 C 0.76737(12) 0.01223(10) 0.65284(5)
C7 C 0.61706(12) -0.15463(11) 0.71991(5)
C8 C 0.90981(12) 0.35543(11) 0.57583(5)
C9 C 0.73569(12) 0.48281(12) 0.67538(5)
C10 C 0.80439(12) 0.26920(11) 0.61060(5)
C11 C 0.87111(12) -0.08840(11) 0.75518(5)
C12 C 0.76328(12) 0.06308(11) 0.53133(5)
C13 C 0.63254(12) -0.06780(11) 0.66367(5)
C14 C 0.71686(13) -0.25714(12) 0.82855(5)
C15 C 0.83837(12) 0.56790(11) 0.63947(5)
C16 C 0.59858(13) 0.36300(12) 0.42232(6)
C17 C 0.78955(13) 0.23322(12) 0.35982(6)
C18 C 0.81925(12) 0.14359(12) 0.41418(5)
C19 C 0.62914(12) 0.27408(12) 0.47677(5)
C20 C 0.72052(12) 0.33448(12) 0.66165(5)
C21 C 0.75873(14) -0.09711(12) 0.51377(6)
C22 C 0.67963(13) 0.34287(12) 0.36387(6)
H1 H 0.9821(16) 0.0563(15) 0.6934(6)
H2 H 1.0024(17) 0.5610(15) 0.5654(6)
H3 H 0.5175(16) -0.2070(14) 0.7270(6)
H4 H 0.9727(15) 0.3090(14) 0.5399(6)
H5 H 0.6721(16) 0.5260(15) 0.7113(7)
H6 H 0.9549(16) -0.0970(14) 0.7875(6)
H7 H 0.5458(15) -0.0594(14) 0.6320(6)
H8 H 0.817(2) -0.274(2) 0.8510(9)
H9 H 0.656(2) -0.206(2) 0.8632(10)
H10 H 0.667(2) -0.352(2) 0.8212(10)
H11 H 0.8501(16) 0.6700(15) 0.6505(6)
H12 H 0.5192(18) 0.4373(17) 0.4246(7)
H13 H 0.8480(16) 0.2205(15) 0.3190(7)
H14 H 0.9006(16) 0.0677(15) 0.4103(6)
H15 H 0.5733(15) 0.2859(14) 0.5192(6)
H16 H 0.6495(15) 0.2722(14) 0.6877(6)
H17 H 0.7816(17) -0.1606(16) 0.5522(7)
H18 H 0.835(2) -0.1199(18) 0.4806(8)
H19 H 0.657(2) -0.1233(18) 0.4941(8)
H20 H 0.6534(17) 0.4052(16) 0.3255(7)
loop_
_geom_bond_atom_site_label_1
_geom_bond_atom_site_label_2
_geom_bond_site_symmetry_1
_geom_bond_site_symmetry_2
C1 C6 1_555 1_555
C2 C6 1_555 1_555
C3 C12 1_555 1_555
C4 C7 1_555 1_555
C5 C8 1_555 1_555
C6 C13 1_555 1_555
C7 C13 1_555 1_555
C8 C10 1_555 1_555
C9 C15 1_555 1_555
C10 C1 1_555 1_555
C11 C2 1_555 1_555
C12 C1 1_555 1_555
C13 H7 1_555 1_555
C14 C4 1_555 1_555
C15 C5 1_555 1_555
C16 C19 1_555 1_555
C17 C18 1_555 1_555
C18 C3 1_555 1_555
C19 C3 1_555 1_555
C20 C9 1_555 1_555
C21 C12 1_555 1_555
C22 C16 1_555 1_555
H1 C2 1_555 1_555
H2 C5 1_555 1_555
H3 C7 1_555 1_555
H4 C8 1_555 1_555
H5 C9 1_555 1_555
H6 C11 1_555 1_555
H8 C14 1_555 1_555
H9 C14 1_555 1_555
H10 C14 1_555 1_555
H11 C15 1_555 1_555
H12 C16 1_555 1_555
H13 C17 1_555 1_555
H14 C18 1_555 1_555
H15 C19 1_555 1_555
H16 C20 1_555 1_555
H17 C21 1_555 1_555
H18 C21 1_555 1_555
H19 C21 1_555 1_555
H20 C22 1_555 1_555
C4 C11 1_555 1_555
C10 C20 1_555 1_555
C17 C22 1_555 1_555

#END
