
#######################################################################
#
#                 Cambridge Crystallographic Data Centre
#                                CCDC 
#
#######################################################################
#
# If this CIF has been generated from an entry in the Cambridge 
# Structural Database, then it will include bibliographic, chemical, 
# crystal, experimental, refinement or atomic coordinate data resulting 
# from the CCDC's data processing and validation procedures.
#
#######################################################################

data_IDAZOD
_chemical_formula_moiety         'C22 H16 Cl2 N4 O2 S2,C3 H7 N1 O1'
_chemical_name_systematic        
"N,N'-bis((4-Chloroanilino)thiocarbonyl)isophthalamide dimethylformamide solvate"
_symmetry_cell_setting           monoclinic
_symmetry_space_group_name_H-M   'P 21/c'
_symmetry_Int_Tables_number      14
_space_group_name_Hall           '-P 2ybc'
loop_
_symmetry_equiv_pos_site_id
_symmetry_equiv_pos_as_xyz
1 x,y,z
2 -x,1/2+y,1/2-z
3 -x,-y,-z
4 x,1/2-y,1/2+z
_cell_length_a                   14.703(3)
_cell_length_b                   8.4790(10)
_cell_length_c                   21.223(4)
_cell_angle_alpha                90
_cell_angle_beta                 99.25(2)
_cell_angle_gamma                90
_cell_volume                     2611.4
_exptl_crystal_colour            colorless
_exptl_crystal_description       block
_cell_formula_units_Z            4
loop_
_atom_site_label
_atom_site_type_symbol
_atom_site_fract_x
_atom_site_fract_y
_atom_site_fract_z
Cl1 Cl 1.18465(4) 0.92520(8) 0.59524(3)
Cl2 Cl -0.12768(4) 0.23655(9) 0.73115(3)
S1 S 0.75306(4) 0.68526(9) 0.64358(3)
S2 S 0.32065(4) 0.53547(9) 0.71124(3)
O1 O 0.63982(10) 0.8399(2) 0.44179(7)
O2 O 0.20390(9) 0.5765(2) 0.50030(6)
N1 N 0.78318(11) 0.8117(2) 0.53348(8)
N2 N 0.63281(11) 0.7476(2) 0.54148(8)
N3 N 0.31539(11) 0.5917(2) 0.58846(8)
N4 N 0.18218(11) 0.4852(2) 0.61446(8)
C1 C 0.93633(13) 0.7912(3) 0.50802(9)
H1 H 0.9108 0.7456 0.4694
C2 C 1.03061(13) 0.8168(3) 0.52152(10)
H2 H 1.0687 0.7876 0.4925
C3 C 1.06661(13) 0.8860(3) 0.57855(10)
C4 C 1.01173(14) 0.9305(3) 0.62207(10)
H3 H 1.0376 0.9772 0.6604
C5 C 0.91767(14) 0.9053(3) 0.60831(10)
H4 H 0.8798 0.9367 0.6371
C6 C 0.87999(13) 0.8330(3) 0.55145(9)
C7 C 0.72575(13) 0.7518(3) 0.56976(9)
C8 C 0.59422(14) 0.7956(3) 0.48162(10)
C9 C 0.49105(13) 0.7917(3) 0.46714(9)
C10 C 0.44824(14) 0.8840(3) 0.41691(9)
H5 H 0.4834 0.9456 0.3937
C11 C 0.35283(14) 0.8840(3) 0.40137(10)
H6 H 0.3242 0.9440 0.3672
C12 C 0.30055(14) 0.7954(3) 0.43644(10)
H7 H 0.2367 0.7959 0.4258
C13 C 0.34249(13) 0.7055(3) 0.48749(9)
C14 C 0.43806(13) 0.7014(3) 0.50205(9)
H8 H 0.4666 0.6382 0.5352
C15 C 0.28174(13) 0.6173(3) 0.52550(9)
C16 C 0.26808(13) 0.5329(3) 0.63630(9)
C17 C 0.11228(13) 0.4279(3) 0.64726(9)
C18 C 0.02238(14) 0.4613(3) 0.61952(10)
H9 H 0.0117 0.5232 0.5829
C19 C -0.05127(14) 0.4043(3) 0.64535(10)
H10 H -0.1113 0.4276 0.6265
C20 C -0.03484(14) 0.3126(3) 0.69931(10)
C21 C 0.05404(15) 0.2781(3) 0.72745(10)
H11 H 0.0644 0.2159 0.7640
C22 C 0.12784(14) 0.3358(3) 0.70151(10)
H12 H 0.1878 0.3127 0.7206
H20 H 0.7585(13) 0.830(2) 0.4949(5)
H21 H 0.5962(11) 0.728(2) 0.5678(7)
H22 H 0.3669(9) 0.635(2) 0.6034(9)
H23 H 0.1639(13) 0.505(3) 0.5751(5)
O3 O 0.50664(10) 0.7138(2) 0.64092(7)
N5 N 0.57773(12) 0.5612(2) 0.72202(8)
C23 C 0.54634(14) 0.6952(3) 0.69648(10)
H13 H 0.5546 0.7843 0.7224
C24 C 0.57123(19) 0.4215(3) 0.68313(12)
H14 H 0.5093 0.4102 0.6610
H15 H 0.5874 0.3310 0.7098
H16 H 0.6127 0.4301 0.6527
C25 C 0.63067(19) 0.5539(4) 0.78586(11)
H17 H 0.6929 0.5236 0.7834
H18 H 0.6036 0.4777 0.8107
H19 H 0.6306 0.6556 0.8057
loop_
_geom_bond_atom_site_label_1
_geom_bond_atom_site_label_2
_geom_bond_site_symmetry_1
_geom_bond_site_symmetry_2
Cl1 C3 1_555 1_555
Cl2 C20 1_555 1_555
S1 C7 1_555 1_555
S2 C16 1_555 1_555
O1 C8 1_555 1_555
O2 C15 1_555 1_555
O3 C23 1_555 1_555
N1 C6 1_555 1_555
N2 C7 1_555 1_555
N3 C15 1_555 1_555
N4 C16 1_555 1_555
N5 C23 1_555 1_555
C1 H1 1_555 1_555
C2 C1 1_555 1_555
H2 C2 1_555 1_555
C3 C2 1_555 1_555
C4 C3 1_555 1_555
H3 C4 1_555 1_555
C5 C4 1_555 1_555
H4 C5 1_555 1_555
C6 C1 1_555 1_555
C7 N1 1_555 1_555
C8 N2 1_555 1_555
C9 C8 1_555 1_555
C10 C9 1_555 1_555
H5 C10 1_555 1_555
C11 C10 1_555 1_555
H6 C11 1_555 1_555
C12 C11 1_555 1_555
H7 C12 1_555 1_555
C13 C12 1_555 1_555
C14 C9 1_555 1_555
H8 C14 1_555 1_555
C15 C13 1_555 1_555
C16 N3 1_555 1_555
C17 N4 1_555 1_555
C18 C17 1_555 1_555
H9 C18 1_555 1_555
C19 C18 1_555 1_555
H10 C19 1_555 1_555
C20 C19 1_555 1_555
C21 C20 1_555 1_555
H11 C21 1_555 1_555
C22 C17 1_555 1_555
H12 C22 1_555 1_555
C23 H13 1_555 1_555
C24 N5 1_555 1_555
H14 C24 1_555 1_555
H15 C24 1_555 1_555
H16 C24 1_555 1_555
C25 N5 1_555 1_555
H17 C25 1_555 1_555
H18 C25 1_555 1_555
H19 C25 1_555 1_555
H20 N1 1_555 1_555
H21 N2 1_555 1_555
H22 N3 1_555 1_555
H23 N4 1_555 1_555
C5 C6 1_555 1_555
C13 C14 1_555 1_555
C21 C22 1_555 1_555

#END
