
#######################################################################
#
#                 Cambridge Crystallographic Data Centre
#                                CCDC 
#
#######################################################################
#
# If this CIF has been generated from an entry in the Cambridge 
# Structural Database, then it will include bibliographic, chemical, 
# crystal, experimental, refinement or atomic coordinate data resulting 
# from the CCDC's data processing and validation procedures.
#
#######################################################################

data_IDESES
_chemical_formula_moiety         'C13 H13 N3 O2'
_chemical_name_systematic        
4-methoxy-1-(pyrimidin-2-yl)-2,3-dihydro-1H-indol-7-ol
_symmetry_cell_setting           monoclinic
_symmetry_space_group_name_H-M   'P 21/c'
_symmetry_Int_Tables_number      14
_space_group_name_Hall           '-P 2ybc'
loop_
_symmetry_equiv_pos_site_id
_symmetry_equiv_pos_as_xyz
1 x,y,z
2 -x,1/2+y,1/2-z
3 -x,-y,-z
4 x,1/2-y,1/2+z
_cell_length_a                   8.5272(18)
_cell_length_b                   9.6903(18)
_cell_length_c                   13.668(3)
_cell_angle_alpha                90
_cell_angle_beta                 102.882(5)
_cell_angle_gamma                90
_cell_volume                     1100.98
_exptl_crystal_colour            colorless
_exptl_crystal_description       Prism
_cell_formula_units_Z            4
loop_
_atom_site_label
_atom_site_type_symbol
_atom_site_fract_x
_atom_site_fract_y
_atom_site_fract_z
O1 O 0.24589(9) 0.64152(7) 0.65430(7)
H1 H 0.1566 0.6011 0.6404
O2 O 0.18624(9) 1.21101(7) 0.61456(6)
N1 N -0.07803(10) 0.80279(8) 0.64199(7)
N2 N -0.05305(10) 0.56718(8) 0.61110(7)
N3 N -0.29732(10) 0.66425(9) 0.63853(6)
C1 C 0.07728(11) 0.85057(10) 0.63533(7)
C2 C 0.22311(12) 0.77963(10) 0.63972(7)
C3 C 0.35655(12) 0.85832(10) 0.63249(8)
H2 H 0.4551 0.8123 0.6330
C4 C 0.35195(12) 1.00169(10) 0.62452(8)
H3 H 0.4461 1.0518 0.6207
C5 C 0.20820(12) 1.07060(10) 0.62219(7)
C6 C 0.07279(11) 0.99425(10) 0.62794(7)
C7 C -0.09126(11) 1.04968(10) 0.62829(7)
H4 H -0.1419 1.0908 0.5625
H5 H -0.0860 1.1203 0.6813
C8 C -0.18374(12) 0.92200(10) 0.64971(8)
H6 H -0.2058 0.9272 0.7177
H7 H -0.2873 0.9138 0.6000
C9 C 0.32672(13) 1.29156(11) 0.61770(9)
H8 H 0.4041 1.2751 0.6813
H9 H 0.2978 1.3896 0.6123
H10 H 0.3751 1.2655 0.5617
C10 C -0.14314(11) 0.67376(10) 0.63019(7)
C11 C -0.12318(13) 0.44302(11) 0.59872(9)
H11 H -0.0623 0.3660 0.5853
C12 C -0.28073(14) 0.42308(11) 0.60482(9)
H12 H -0.3303 0.3348 0.5953
C13 C -0.36264(12) 0.53875(11) 0.62563(8)
H13 H -0.4712 0.5282 0.6310
loop_
_geom_bond_atom_site_label_1
_geom_bond_atom_site_label_2
_geom_bond_site_symmetry_1
_geom_bond_site_symmetry_2
O1 H1 1_555 1_555
O2 C5 1_555 1_555
N1 C1 1_555 1_555
N2 C10 1_555 1_555
N3 C10 1_555 1_555
C1 C2 1_555 1_555
C2 O1 1_555 1_555
C3 C2 1_555 1_555
H2 C3 1_555 1_555
C4 C3 1_555 1_555
H3 C4 1_555 1_555
C5 C4 1_555 1_555
C6 C1 1_555 1_555
C7 C6 1_555 1_555
H4 C7 1_555 1_555
H5 C7 1_555 1_555
C8 N1 1_555 1_555
H6 C8 1_555 1_555
H7 C8 1_555 1_555
C9 O2 1_555 1_555
H8 C9 1_555 1_555
H9 C9 1_555 1_555
H10 C9 1_555 1_555
C10 N1 1_555 1_555
C11 N2 1_555 1_555
H11 C11 1_555 1_555
C12 C11 1_555 1_555
H12 C12 1_555 1_555
C13 N3 1_555 1_555
H13 C13 1_555 1_555
C5 C6 1_555 1_555
C7 C8 1_555 1_555
C12 C13 1_555 1_555

#END
