
#######################################################################
#
#                 Cambridge Crystallographic Data Centre
#                                CCDC 
#
#######################################################################
#
# If this CIF has been generated from an entry in the Cambridge 
# Structural Database, then it will include bibliographic, chemical, 
# crystal, experimental, refinement or atomic coordinate data resulting 
# from the CCDC's data processing and validation procedures.
#
#######################################################################

data_IDEXOF
_chemical_formula_moiety         'C8 H13 F3 N2 O1 S1'
_chemical_name_systematic        
(S)-1,1,1-Trifluoro-2-(N-(R)-t-butylsulfinyl)amino-2-cyanopropane
_symmetry_cell_setting           monoclinic
_symmetry_space_group_name_H-M   'P 21'
_symmetry_Int_Tables_number      4
_space_group_name_Hall           'P 2yb'
loop_
_symmetry_equiv_pos_site_id
_symmetry_equiv_pos_as_xyz
1 x,y,z
2 -x,1/2+y,-z
_cell_length_a                   9.969(2)
_cell_length_b                   10.816(2)
_cell_length_c                   11.889(3)
_cell_angle_alpha                90
_cell_angle_beta                 112.100(4)
_cell_angle_gamma                90
_cell_volume                     1187.74
_exptl_crystal_colour            colorless
_chemical_melting_point          '94-95 deg.C'
_cell_formula_units_Z            4
loop_
_atom_site_label
_atom_site_type_symbol
_atom_site_fract_x
_atom_site_fract_y
_atom_site_fract_z
S1 S 0.25708(11) 0.47006(10) -0.01705(9)
O1 O 0.2727(4) 0.5296(3) -0.1244(3)
N1 N 0.4044(4) 0.4914(4) 0.1079(3)
N2 N 0.7297(6) 0.5200(6) 0.0800(5)
F1 F 0.4899(5) 0.3206(3) 0.3007(3)
F2 F 0.6181(4) 0.4842(3) 0.3364(2)
F3 F 0.7058(5) 0.3131(4) 0.3047(3)
C1 C 0.5271(5) 0.4076(4) 0.1332(4)
C2 C 0.5872(7) 0.3825(5) 0.2707(4)
C3 C 0.6428(5) 0.4696(6) 0.1048(4)
C4 C 0.4884(6) 0.2862(5) 0.0647(4)
H1 H 0.4142 0.2454 0.0839
H2 H 0.5727 0.2344 0.0878
H3 H 0.4539 0.3019 -0.0210
C5 C 0.1304(5) 0.5660(5) 0.0228(4)
C6 C -0.0154(6) 0.5474(7) -0.0825(6)
H4 H -0.0877 0.5978 -0.0697
H5 H -0.0433 0.4621 -0.0864
H6 H -0.0066 0.5707 -0.1573
C7 C 0.1258(8) 0.5152(9) 0.1420(6)
H7 H 0.2051 0.5487 0.2094
H8 H 0.1334 0.4267 0.1426
H9 H 0.0361 0.5384 0.1486
C8 C 0.1718(7) 0.7027(6) 0.0272(7)
H10 H 0.1816 0.7252 -0.0474
H11 H 0.2620 0.7163 0.0938
H12 H 0.0977 0.7523 0.0380
H25 H 0.429(5) 0.563(4) 0.136(4)
S2 S 0.60105(12) 0.79983(10) 0.34097(9)
O2 O 0.5207(4) 0.7418(3) 0.2207(3)
N3 N 0.7377(4) 0.8811(4) 0.3333(3)
N4 N 0.9178(8) 0.7747(8) 0.6217(5)
F4 F 0.8650(4) 0.6419(3) 0.3351(3)
F5 F 0.9308(5) 0.7762(4) 0.2348(3)
F6 F 1.0801(4) 0.7155(4) 0.4094(4)
C9 C 0.8886(5) 0.8487(5) 0.4050(4)
C10 C 0.9395(6) 0.7448(5) 0.3442(4)
C11 C 0.9018(6) 0.8054(6) 0.5268(5)
C12 C 0.9819(6) 0.9637(6) 0.4155(6)
H13 H 0.9634 0.9964 0.3360
H14 H 1.0823 0.9419 0.4535
H15 H 0.9585 1.0249 0.4637
C13 C 0.4872(5) 0.9273(5) 0.3539(4)
C14 C 0.4372(7) 1.0045(6) 0.2391(6)
H16 H 0.3669 1.0638 0.2420
H17 H 0.3944 0.9517 0.1699
H18 H 0.5186 1.0470 0.2328
C15 C 0.3551(6) 0.8632(6) 0.3660(5)
H19 H 0.3856 0.8174 0.4406
H20 H 0.3120 0.8079 0.2989
H21 H 0.2855 0.9245 0.3661
C16 C 0.5707(7) 1.0034(6) 0.4649(6)
H22 H 0.6474 1.0468 0.4515
H23 H 0.6110 0.9499 0.5339
H24 H 0.5068 1.0619 0.4797
H26 H 0.735(5) 0.938(3) 0.290(4)
loop_
_geom_bond_atom_site_label_1
_geom_bond_atom_site_label_2
_geom_bond_site_symmetry_1
_geom_bond_site_symmetry_2
S1 O1 1_555 1_555
S2 O2 1_555 1_555
N1 S1 1_555 1_555
N2 C3 1_555 1_555
N3 S2 1_555 1_555
N4 C11 1_555 1_555
F1 C2 1_555 1_555
F2 C2 1_555 1_555
F3 C2 1_555 1_555
F4 C10 1_555 1_555
F5 C10 1_555 1_555
F6 C10 1_555 1_555
C1 N1 1_555 1_555
C2 C1 1_555 1_555
C3 C1 1_555 1_555
C4 C1 1_555 1_555
H1 C4 1_555 1_555
H2 C4 1_555 1_555
H3 C4 1_555 1_555
C5 S1 1_555 1_555
C6 C5 1_555 1_555
H4 C6 1_555 1_555
H5 C6 1_555 1_555
H6 C6 1_555 1_555
C7 C5 1_555 1_555
H7 C7 1_555 1_555
H8 C7 1_555 1_555
H9 C7 1_555 1_555
C8 C5 1_555 1_555
H10 C8 1_555 1_555
H11 C8 1_555 1_555
H12 C8 1_555 1_555
C9 N3 1_555 1_555
C10 C9 1_555 1_555
C11 C9 1_555 1_555
C12 C9 1_555 1_555
H13 C12 1_555 1_555
H14 C12 1_555 1_555
H15 C12 1_555 1_555
C13 S2 1_555 1_555
C14 C13 1_555 1_555
H16 C14 1_555 1_555
H17 C14 1_555 1_555
H18 C14 1_555 1_555
C15 C13 1_555 1_555
H19 C15 1_555 1_555
H20 C15 1_555 1_555
H21 C15 1_555 1_555
C16 C13 1_555 1_555
H22 C16 1_555 1_555
H23 C16 1_555 1_555
H24 C16 1_555 1_555
H25 N1 1_555 1_555
H26 N3 1_555 1_555

#END
