
#######################################################################
#
#                 Cambridge Crystallographic Data Centre
#                                CCDC 
#
#######################################################################
#
# If this CIF has been generated from an entry in the Cambridge 
# Structural Database, then it will include bibliographic, chemical, 
# crystal, experimental, refinement or atomic coordinate data resulting 
# from the CCDC's data processing and validation procedures.
#
#######################################################################

data_IDICEE
_chemical_formula_moiety         'C37 H54 N4 O2 S2'
_chemical_name_systematic        
(4S,5S)-4,5-bis(1-(2,6-Di-isopropylphenyl)-2-thioxoimidazolidin-3-ylmethyl)-2,2-dimethyl-1,3-dioxolane
_symmetry_cell_setting           monoclinic
_symmetry_space_group_name_H-M   'P 21'
_symmetry_Int_Tables_number      4
_space_group_name_Hall           'P 2yb'
loop_
_symmetry_equiv_pos_site_id
_symmetry_equiv_pos_as_xyz
1 x,y,z
2 -x,1/2+y,-z
_cell_length_a                   13.5162(13)
_cell_length_b                   6.9703(6)
_cell_length_c                   21.051(2)
_cell_angle_alpha                90
_cell_angle_beta                 102.897(2)
_cell_angle_gamma                90
_cell_volume                     1933.22
_exptl_crystal_colour            colorless
_exptl_crystal_description       needle
_cell_formula_units_Z            2
_exptl_crystal_recrystallization_method 'diethyl ether/petroleum'
loop_
_atom_site_label
_atom_site_type_symbol
_atom_site_fract_x
_atom_site_fract_y
_atom_site_fract_z
C1 C 0.3372(5) -0.0815(7) 0.8929(2)
C2 C 0.2863(5) -0.1284(8) 0.9417(3)
C3 C 0.3301(6) -0.2728(9) 0.9858(3)
H1 H 0.2984 -0.3100 1.0188
C4 C 0.4203(6) -0.3601(8) 0.9805(3)
H2 H 0.4500 -0.4524 1.0107
C5 C 0.4645(5) -0.3104(7) 0.9315(3)
H3 H 0.5232 -0.3741 0.9274
C6 C 0.4259(5) -0.1685(7) 0.8872(3)
C7 C 0.1900(5) -0.0337(10) 0.9497(3)
H4 H 0.1676 0.0494 0.9116
C8 C 0.1046(5) -0.1762(12) 0.9493(4)
H5 H 0.0862 -0.2369 0.9074
H6 H 0.0468 -0.1099 0.9581
H7 H 0.1269 -0.2717 0.9823
C9 C 0.2059(5) 0.0960(10) 1.0096(3)
H8 H 0.1432 0.1587 1.0111
H9 H 0.2565 0.1908 1.0072
H10 H 0.2280 0.0202 1.0482
C10 C 0.4789(4) -0.1165(8) 0.8330(3)
H11 H 0.4650 0.0199 0.8238
C11 C 0.5926(4) -0.1377(10) 0.8485(3)
H12 H 0.6228 -0.0358 0.8770
H13 H 0.6165 -0.1318 0.8088
H14 H 0.6111 -0.2589 0.8694
C12 C 0.4339(5) -0.2226(9) 0.7701(3)
H15 H 0.4490 -0.3569 0.7757
H16 H 0.4627 -0.1732 0.7356
H17 H 0.3617 -0.2046 0.7591
N1 N 0.2982(3) 0.0760(5) 0.85004(18)
C13 C 0.2159(4) 0.0724(6) 0.8009(2)
S1 S 0.14535(11) -0.12061(17) 0.77297(6)
N2 N 0.1985(3) 0.2522(5) 0.77697(17)
C14 C 0.2785(4) 0.3851(7) 0.8082(2)
H18 H 0.2502 0.5035 0.8207
H19 H 0.3240 0.4146 0.7798
C15 C 0.3331(4) 0.2711(6) 0.8683(2)
H20 H 0.4062 0.2816 0.8749
H21 H 0.3125 0.3130 0.9073
C16 C 0.1218(3) 0.3104(6) 0.7217(2)
H22 H 0.1037 0.4424 0.7283
H23 H 0.0618 0.2327 0.7205
C17 C 0.1491(4) 0.2961(6) 0.6559(3)
H24 H 0.1641 0.1626 0.6470
O1 O 0.2348(3) 0.4129(5) 0.65587(16)
C18 C 0.2258(5) 0.4896(9) 0.5921(3)
C19 C 0.2396(5) 0.7034(8) 0.6000(3)
H25 H 0.2394 0.7603 0.5584
H26 H 0.3031 0.7300 0.6296
H27 H 0.1851 0.7561 0.6169
C20 C 0.2973(5) 0.3961(14) 0.5581(3)
H28 H 0.2890 0.2594 0.5591
H29 H 0.3656 0.4292 0.5793
H30 H 0.2838 0.4388 0.5136
O2 O 0.1258(3) 0.4474(5) 0.55627(16)
C21 C 0.0697(4) 0.3768(7) 0.5996(2)
H31 H 0.0339 0.4830 0.6153
C22 C -0.0078(4) 0.2340(7) 0.5622(2)
H32 H -0.0507 0.2987 0.5253
H33 H 0.0278 0.1316 0.5454
N3 N -0.0710(3) 0.1521(5) 0.6028(2)
C23 C -0.1514(5) 0.2381(7) 0.6185(3)
S2 S -0.19439(12) 0.45497(18) 0.59274(8)
N4 N -0.1907(4) 0.1207(5) 0.6570(2)
C24 C -0.1312(4) -0.0560(7) 0.6713(2)
H34 H -0.1747 -0.1683 0.6648
H35 H -0.0910 -0.0560 0.7157
C25 C -0.0646(4) -0.0501(7) 0.6227(2)
H36 H 0.0047 -0.0862 0.6427
H37 H -0.0902 -0.1340 0.5860
C26 C -0.2691(6) 0.1752(8) 0.6886(3)
C27 C -0.3664(6) 0.1141(8) 0.6623(4)
C28 C -0.4424(6) 0.1788(11) 0.6917(5)
H38 H -0.5097 0.1489 0.6732
C29 C -0.4191(8) 0.2888(12) 0.7490(5)
H39 H -0.4704 0.3284 0.7690
C30 C -0.3210(8) 0.3368(10) 0.7750(4)
H40 H -0.3064 0.4083 0.8133
C31 C -0.2433(7) 0.2846(8) 0.7473(4)
C32 C -0.3911(5) -0.0145(10) 0.6027(3)
H41 H -0.3296 -0.0270 0.5857
C33 C -0.4217(5) -0.2127(10) 0.6197(3)
H42 H -0.3799 -0.2513 0.6608
H43 H -0.4131 -0.3014 0.5865
H44 H -0.4916 -0.2116 0.6226
C34 C -0.4741(7) 0.0688(13) 0.5487(4)
H45 H -0.5366 0.0750 0.5632
H46 H -0.4831 -0.0115 0.5108
H47 H -0.4551 0.1955 0.5381
C35 C -0.1359(7) 0.3355(10) 0.7781(4)
H48 H -0.0939 0.3060 0.7470
C36 C -0.1230(7) 0.5481(11) 0.7956(4)
H49 H -0.1551 0.6241 0.7587
H50 H -0.0520 0.5788 0.8075
H51 H -0.1538 0.5750 0.8316
C37 C -0.0956(7) 0.2192(12) 0.8404(4)
H52 H -0.1367 0.2444 0.8713
H53 H -0.0267 0.2555 0.8589
H54 H -0.0984 0.0848 0.8301
loop_
_geom_bond_atom_site_label_1
_geom_bond_atom_site_label_2
_geom_bond_site_symmetry_1
_geom_bond_site_symmetry_2
C1 C2 1_555 1_555
C2 C3 1_555 1_555
C3 H1 1_555 1_555
C4 C3 1_555 1_555
H2 C4 1_555 1_555
C5 C4 1_555 1_555
H3 C5 1_555 1_555
C6 C1 1_555 1_555
C7 C2 1_555 1_555
H4 C7 1_555 1_555
C8 C7 1_555 1_555
H5 C8 1_555 1_555
H6 C8 1_555 1_555
H7 C8 1_555 1_555
C9 C7 1_555 1_555
H8 C9 1_555 1_555
H9 C9 1_555 1_555
H10 C9 1_555 1_555
C10 C6 1_555 1_555
H11 C10 1_555 1_555
C11 C10 1_555 1_555
H12 C11 1_555 1_555
H13 C11 1_555 1_555
H14 C11 1_555 1_555
C12 C10 1_555 1_555
H15 C12 1_555 1_555
H16 C12 1_555 1_555
H17 C12 1_555 1_555
N1 C1 1_555 1_555
C13 N1 1_555 1_555
S1 C13 1_555 1_555
N2 C13 1_555 1_555
C14 N2 1_555 1_555
H18 C14 1_555 1_555
H19 C14 1_555 1_555
C15 N1 1_555 1_555
H20 C15 1_555 1_555
H21 C15 1_555 1_555
C16 N2 1_555 1_555
H22 C16 1_555 1_555
H23 C16 1_555 1_555
C17 C16 1_555 1_555
H24 C17 1_555 1_555
O1 C17 1_555 1_555
C18 O1 1_555 1_555
C19 C18 1_555 1_555
H25 C19 1_555 1_555
H26 C19 1_555 1_555
H27 C19 1_555 1_555
C20 C18 1_555 1_555
H28 C20 1_555 1_555
H29 C20 1_555 1_555
H30 C20 1_555 1_555
O2 C18 1_555 1_555
C21 C17 1_555 1_555
H31 C21 1_555 1_555
C22 C21 1_555 1_555
H32 C22 1_555 1_555
H33 C22 1_555 1_555
N3 C22 1_555 1_555
C23 N3 1_555 1_555
S2 C23 1_555 1_555
N4 C23 1_555 1_555
C24 N4 1_555 1_555
H34 C24 1_555 1_555
H35 C24 1_555 1_555
C25 N3 1_555 1_555
H36 C25 1_555 1_555
H37 C25 1_555 1_555
C26 N4 1_555 1_555
C27 C26 1_555 1_555
C28 C27 1_555 1_555
H38 C28 1_555 1_555
C29 C28 1_555 1_555
H39 C29 1_555 1_555
C30 C29 1_555 1_555
H40 C30 1_555 1_555
C31 C26 1_555 1_555
C32 C27 1_555 1_555
H41 C32 1_555 1_555
C33 C32 1_555 1_555
H42 C33 1_555 1_555
H43 C33 1_555 1_555
H44 C33 1_555 1_555
C34 C32 1_555 1_555
H45 C34 1_555 1_555
H46 C34 1_555 1_555
H47 C34 1_555 1_555
C35 C31 1_555 1_555
H48 C35 1_555 1_555
C36 C35 1_555 1_555
H49 C36 1_555 1_555
H50 C36 1_555 1_555
H51 C36 1_555 1_555
C37 C35 1_555 1_555
H52 C37 1_555 1_555
H53 C37 1_555 1_555
H54 C37 1_555 1_555
C5 C6 1_555 1_555
C14 C15 1_555 1_555
O2 C21 1_555 1_555
C24 C25 1_555 1_555
C30 C31 1_555 1_555

#END
