
#######################################################################
#
#                 Cambridge Crystallographic Data Centre
#                                CCDC 
#
#######################################################################
#
# If this CIF has been generated from an entry in the Cambridge 
# Structural Database, then it will include bibliographic, chemical, 
# crystal, experimental, refinement or atomic coordinate data resulting 
# from the CCDC's data processing and validation procedures.
#
#######################################################################

data_IDIHOT
_chemical_formula_moiety         '2(C6 H19 N4 P1),C2 H12 B10'
_chemical_name_systematic        
'bis(tris(Dimethylamino)iminophosphorane) 1,12-dicarba-closo-dodecaborane'
_symmetry_cell_setting           monoclinic
_symmetry_space_group_name_H-M   'P 21/c'
_symmetry_Int_Tables_number      14
_space_group_name_Hall           '-P 2ybc'
loop_
_symmetry_equiv_pos_site_id
_symmetry_equiv_pos_as_xyz
1 x,y,z
2 -x,1/2+y,1/2-z
3 -x,-y,-z
4 x,1/2-y,1/2+z
_cell_length_a                   6.871(1)
_cell_length_b                   18.635(2)
_cell_length_c                   12.144(1)
_cell_angle_alpha                90
_cell_angle_beta                 105.89(1)
_cell_angle_gamma                90
_cell_volume                     1495.52
_exptl_crystal_colour            colorless
_exptl_crystal_description       block
_cell_formula_units_Z            2
loop_
_atom_site_label
_atom_site_type_symbol
_atom_site_fract_x
_atom_site_fract_y
_atom_site_fract_z
P1 P 0.31311(5) 0.370249(18) 0.44904(3)
N1 N 0.3433(2) 0.44378(7) 0.39358(11)
H1 H 0.457(3) 0.4582(11) 0.4205(17)
N2 N 0.40235(19) 0.35852(6) 0.59141(10)
N3 N 0.41933(19) 0.30017(6) 0.40242(10)
N4 N 0.06631(19) 0.35721(7) 0.41850(11)
C2 C 0.6228(2) 0.36228(8) 0.64014(13)
H3 H 0.687(3) 0.3324(10) 0.5962(15)
H4 H 0.657(3) 0.3431(10) 0.7172(17)
H5 H 0.674(3) 0.4109(11) 0.6455(16)
C3 C 0.2966(3) 0.39858(9) 0.66208(14)
H6 H 0.328(3) 0.3779(10) 0.7394(16)
H7 H 0.151(3) 0.3932(10) 0.6284(16)
H8 H 0.333(3) 0.4480(12) 0.6713(18)
C4 C 0.4518(3) 0.22934(8) 0.45695(14)
H9 H 0.345(3) 0.1949(10) 0.4160(15)
H10 H 0.448(3) 0.2333(10) 0.5373(17)
H11 H 0.574(3) 0.2098(10) 0.4513(17)
C5 C 0.3995(3) 0.29702(9) 0.27941(14)
H12 H 0.515(3) 0.2743(10) 0.2647(16)
H13 H 0.387(3) 0.3450(12) 0.2488(18)
H14 H 0.278(3) 0.2687(12) 0.2389(19)
C6 C -0.0808(3) 0.41560(12) 0.3924(2)
H15 H -0.016(3) 0.4565(11) 0.3772(16)
H16 H -0.172(4) 0.4025(13) 0.326(2)
H17 H -0.139(4) 0.4210(12) 0.462(2)
C7 C -0.0143(3) 0.28812(10) 0.4415(2)
H18 H 0.0963 0.2570 0.4801
H19 H -0.0886 0.2663 0.3701
H20 H -0.1041 0.2952 0.4897
C1 C 0.1000(2) 0.48676(8) 0.12835(12)
H2 H 0.161(3) 0.4775(9) 0.2020(16)
B1 B -0.1589(3) 0.49121(9) 0.08428(14)
H24 H -0.251(3) 0.4852(10) 0.1450(16)
B2 B -0.0064(3) 0.56916(9) 0.08920(14)
H25 H -0.002(3) 0.6075(10) 0.1521(15)
B3 B 0.2221(3) 0.54286(9) 0.05743(14)
H26 H 0.367(3) 0.5658(10) 0.1006(15)
B4 B 0.2111(3) 0.44836(9) 0.03259(14)
H27 H 0.347(3) 0.4158(9) 0.0601(15)
B5 B -0.0246(3) 0.41635(9) 0.04942(14)
H28 H -0.033(3) 0.3644(10) 0.0913(16)
C1B C -0.1000(2) 0.51324(8) -0.12835(12)
H2B H -0.161(3) 0.5225(9) -0.2020(16)
B1B B 0.1589(3) 0.50879(9) -0.08428(14)
H24B H 0.251(3) 0.5148(10) -0.1450(16)
B2B B 0.0064(3) 0.43084(9) -0.08920(14)
H25B H 0.002(3) 0.3925(10) -0.1521(15)
B3B B -0.2221(3) 0.45714(9) -0.05743(14)
H26B H -0.367(3) 0.4342(10) -0.1006(15)
B4B B -0.2111(3) 0.55164(9) -0.03259(14)
H27B H -0.347(3) 0.5842(9) -0.0601(15)
B5B B 0.0246(3) 0.58365(9) -0.04942(14)
H28B H 0.033(3) 0.6356(10) -0.0913(16)
H21? H 0.0714 0.2500 0.4273
H22? H -0.1502 0.2821 0.3919
H23? H -0.0177 0.2863 0.5206
loop_
_geom_bond_atom_site_label_1
_geom_bond_atom_site_label_2
_geom_bond_site_symmetry_1
_geom_bond_site_symmetry_2
P1 N1 1_555 1_555
N1 H1 1_555 1_555
N2 P1 1_555 1_555
N3 P1 1_555 1_555
N4 P1 1_555 1_555
C1 H2 1_555 1_555
C2 N2 1_555 1_555
H3 C2 1_555 1_555
H4 C2 1_555 1_555
H5 C2 1_555 1_555
C3 N2 1_555 1_555
H6 C3 1_555 1_555
H7 C3 1_555 1_555
H8 C3 1_555 1_555
C4 N3 1_555 1_555
H9 C4 1_555 1_555
H10 C4 1_555 1_555
H11 C4 1_555 1_555
C5 N3 1_555 1_555
H12 C5 1_555 1_555
H13 C5 1_555 1_555
H14 C5 1_555 1_555
C6 N4 1_555 1_555
H15 C6 1_555 1_555
H16 C6 1_555 1_555
H17 C6 1_555 1_555
C7 N4 1_555 1_555
H18 C7 1_555 1_555
H19 C7 1_555 1_555
H20 C7 1_555 1_555
B1 C1 1_555 1_555
H24 B1 1_555 1_555
B2 C1 1_555 1_555
H25 B2 1_555 1_555
B3 C1 1_555 1_555
H26 B3 1_555 1_555
B4 C1 1_555 1_555
H27 B4 1_555 1_555
B5 C1 1_555 1_555
H28 B5 1_555 1_555
C1B H2B 1_555 1_555
B1B B3 1_555 1_555
H24B B1B 1_555 1_555
B2B B4 1_555 1_555
H25B B2B 1_555 1_555
B3B B1 1_555 1_555
H26B B3B 1_555 1_555
B4B B1 1_555 1_555
H27B B4B 1_555 1_555
B5B B2 1_555 1_555
H28B B5B 1_555 1_555
B1 B2 1_555 1_555
B1 B5 1_555 1_555
B2 B3 1_555 1_555
B2 B4B 1_555 1_555
B3 B4 1_555 1_555
B3 B5B 1_555 1_555
B4 B5 1_555 1_555
B4 B1B 1_555 1_555
B5 B2B 1_555 1_555
B5 B3B 1_555 1_555
C1B B1B 1_555 1_555
C1B B2B 1_555 1_555
C1B B3B 1_555 1_555
C1B B4B 1_555 1_555
C1B B5B 1_555 1_555
B1B B2B 1_555 1_555
B1B B5B 1_555 1_555
B2B B3B 1_555 1_555
B3B B4B 1_555 1_555
B4B B5B 1_555 1_555

#END
