
#######################################################################
#
#                 Cambridge Crystallographic Data Centre
#                                CCDC 
#
#######################################################################
#
# If this CIF has been generated from an entry in the Cambridge 
# Structural Database, then it will include bibliographic, chemical, 
# crystal, experimental, refinement or atomic coordinate data resulting 
# from the CCDC's data processing and validation procedures.
#
#######################################################################

data_IDOCAG
_chemical_formula_moiety         'C26 H21 Cl1 N4 O2'
_chemical_name_systematic        
N-(4-(4-Chlorophenyl)-3-methyl-6-oxo-1-phenyl-4,5,6,7-tetrahydro-1H-pyrazolo(3,4-b)pyridin-5-yl)benzamide
_symmetry_cell_setting           monoclinic
_symmetry_space_group_name_H-M   'P 21/n'
_symmetry_Int_Tables_number      14
_space_group_name_Hall           '-P 2yn'
loop_
_symmetry_equiv_pos_site_id
_symmetry_equiv_pos_as_xyz
1 x,y,z
2 1/2-x,1/2+y,1/2-z
3 -x,-y,-z
4 1/2+x,1/2-y,1/2+z
_cell_length_a                   9.785(5)
_cell_length_b                   9.658(5)
_cell_length_c                   24.932(12)
_cell_angle_alpha                90
_cell_angle_beta                 101.283(8)
_cell_angle_gamma                90
_cell_volume                     2310.62
_exptl_crystal_colour            colorless
_exptl_crystal_description       block
_chemical_melting_point          '255-257 deg.C'
_cell_formula_units_Z            4
_exptl_crystal_recrystallization_method 'aqueous ethanol'
loop_
_atom_site_label
_atom_site_type_symbol
_atom_site_fract_x
_atom_site_fract_y
_atom_site_fract_z
Cl1 Cl 0.87379(13) 1.38910(13) 0.08673(5)
N1 N 0.8527(3) 0.9168(3) 0.30592(12)
H1 H 0.8580 0.9567 0.3371
N2 N 1.0812(3) 0.8033(3) 0.32980(12)
N3 N 1.1702(3) 0.7341(3) 0.30214(13)
N4 N 0.5969(3) 0.8560(3) 0.18212(12)
H2 H 0.5572 0.9340 0.1856
O1 O 0.6384(3) 1.0020(3) 0.27145(10)
O2 O 0.5926(3) 0.6626(3) 0.13146(10)
C1 C 0.7336(4) 0.9230(4) 0.26742(15)
C2 C 0.7265(4) 0.8250(4) 0.21908(15)
H3 H 0.7193 0.7306 0.2327
C3 C 0.8609(4) 0.8319(4) 0.19451(15)
H4 H 0.8580 0.7574 0.1677
C4 C 0.9767(4) 0.8027(4) 0.24263(15)
C5 C 0.9663(4) 0.8443(4) 0.29389(15)
C6 C 1.1050(4) 0.7330(4) 0.25002(16)
C7 C 1.1678(4) 0.6612(5) 0.20758(17)
H5 H 1.2560 0.6220 0.2244
H6 H 1.1813 0.7266 0.1801
H7 H 1.1066 0.5888 0.1910
C8 C 1.1170(4) 0.8179(4) 0.38740(15)
C9 C 1.0167(4) 0.8094(5) 0.41906(18)
H8 H 0.9241 0.7946 0.4026
C10 C 1.0532(5) 0.8227(5) 0.47506(19)
H9 H 0.9846 0.8193 0.4961
C11 C 1.1892(6) 0.8407(5) 0.49988(19)
H10 H 1.2138 0.8488 0.5377
C12 C 1.2888(5) 0.8468(5) 0.46842(19)
H11 H 1.3818 0.8581 0.4852
C13 C 1.2538(4) 0.8365(4) 0.41229(17)
H12 H 1.3226 0.8422 0.3914
C14 C 0.8739(4) 0.9694(4) 0.16652(15)
C15 C 0.8043(4) 0.9919(5) 0.11279(15)
H13 H 0.7554 0.9191 0.0935
C16 C 0.8059(4) 1.1179(5) 0.08754(17)
H14 H 0.7594 1.1303 0.0516
C17 C 0.8777(4) 1.2260(4) 0.11635(17)
C18 C 0.9522(4) 1.2066(4) 0.16911(17)
H15 H 1.0035 1.2787 0.1879
C19 C 0.9489(4) 1.0784(4) 0.19319(16)
H16 H 0.9990 1.0652 0.2286
C20 C 0.5351(4) 0.7689(4) 0.14256(15)
C21 C 0.3912(4) 0.8066(4) 0.11346(15)
C22 C 0.3140(4) 0.7063(4) 0.08182(15)
H17 H 0.3539 0.6206 0.0776
C23 C 0.1785(5) 0.7315(5) 0.05642(17)
H18 H 0.1272 0.6623 0.0357
C24 C 0.1189(5) 0.8576(6) 0.06150(19)
H19 H 0.0276 0.8745 0.0439
C25 C 0.1935(5) 0.9582(5) 0.0924(2)
H20 H 0.1526 1.0437 0.0961
C26 C 0.3299(4) 0.9342(5) 0.11845(19)
H21 H 0.3805 1.0038 0.1393
loop_
_geom_bond_atom_site_label_1
_geom_bond_atom_site_label_2
_geom_bond_site_symmetry_1
_geom_bond_site_symmetry_2
Cl1 C17 1_555 1_555
N1 H1 1_555 1_555
N2 N3 1_555 1_555
N3 C6 1_555 1_555
N4 H2 1_555 1_555
O1 C1 1_555 1_555
O2 C20 1_555 1_555
C1 N1 1_555 1_555
C2 N4 1_555 1_555
H3 C2 1_555 1_555
C3 C2 1_555 1_555
H4 C3 1_555 1_555
C4 C3 1_555 1_555
C5 N1 1_555 1_555
C6 C4 1_555 1_555
C7 C6 1_555 1_555
H5 C7 1_555 1_555
H6 C7 1_555 1_555
H7 C7 1_555 1_555
C8 N2 1_555 1_555
C9 C8 1_555 1_555
H8 C9 1_555 1_555
C10 C9 1_555 1_555
H9 C10 1_555 1_555
C11 C10 1_555 1_555
H10 C11 1_555 1_555
C12 C11 1_555 1_555
H11 C12 1_555 1_555
C13 C8 1_555 1_555
H12 C13 1_555 1_555
C14 C3 1_555 1_555
C15 C14 1_555 1_555
H13 C15 1_555 1_555
C16 C15 1_555 1_555
H14 C16 1_555 1_555
C17 C16 1_555 1_555
C18 C17 1_555 1_555
H15 C18 1_555 1_555
C19 C14 1_555 1_555
H16 C19 1_555 1_555
C20 N4 1_555 1_555
C21 C20 1_555 1_555
C22 C21 1_555 1_555
H17 C22 1_555 1_555
C23 C22 1_555 1_555
H18 C23 1_555 1_555
C24 C23 1_555 1_555
H19 C24 1_555 1_555
C25 C24 1_555 1_555
H20 C25 1_555 1_555
C26 C21 1_555 1_555
H21 C26 1_555 1_555
N2 C5 1_555 1_555
C1 C2 1_555 1_555
C4 C5 1_555 1_555
C12 C13 1_555 1_555
C18 C19 1_555 1_555
C25 C26 1_555 1_555

#END
