
#######################################################################
#
#                 Cambridge Crystallographic Data Centre
#                                CCDC 
#
#######################################################################
#
# If this CIF has been generated from an entry in the Cambridge 
# Structural Database, then it will include bibliographic, chemical, 
# crystal, experimental, refinement or atomic coordinate data resulting 
# from the CCDC's data processing and validation procedures.
#
#######################################################################

data_IDOKEU
_chemical_formula_moiety         'C40 H40 N4 O4,2(C2 H3 N1),1.1(H2 O1)'
_chemical_name_systematic        
"4,4'-(5,10,10,15,20,20-hexamethyl-5,10,15,20,22,24-hexahydroporphyrin-5,15-diyl)dibenzoic acid acetonitrile solvate hydrate"
_symmetry_cell_setting           triclinic
_symmetry_space_group_name_H-M   'P -1'
_symmetry_Int_Tables_number      2
_space_group_name_Hall           '-P 1'
loop_
_symmetry_equiv_pos_site_id
_symmetry_equiv_pos_as_xyz
1 x,y,z
2 -x,-y,-z
_cell_length_a                   11.1805(4)
_cell_length_b                   12.0077(6)
_cell_length_c                   16.8416(6)
_cell_angle_alpha                71.554(4)
_cell_angle_beta                 78.981(3)
_cell_angle_gamma                68.315(4)
_cell_volume                     1985.98
_exptl_crystal_colour            colorless
_exptl_crystal_description       lath
_cell_formula_units_Z            2
loop_
_atom_site_label
_atom_site_type_symbol
_atom_site_fract_x
_atom_site_fract_y
_atom_site_fract_z
O1 O 0.73886(17) 0.94213(18) 0.18629(10)
H1 H 0.795485 0.961023 0.149347
O2 O -0.10592(15) 0.04739(16) 1.07723(10)
O3 O 0.06623(16) -0.05892(16) 1.15136(11)
H2 H 0.017979 -0.099754 1.179346
O4 O 0.91021(16) 0.83256(16) 0.26108(11)
N1 N 0.45345(18) 0.42918(17) 0.84776(11)
H3 H 0.442820 0.497680 0.861024
N2 N 0.54555(18) 0.59757(18) 0.65762(11)
H4 H 0.526496 0.548690 0.636275
N3 N 0.15975(18) 0.51649(18) 0.76904(11)
H5 H 0.221386 0.461720 0.746503
N4 N 0.23706(18) 0.72499(17) 0.59799(12)
H6 H 0.206040 0.769710 0.634413
C1 C 0.0148(2) 0.2153(2) 0.97477(14)
H7 H -0.062548 0.217170 0.957978
C2 C 0.0626(2) 0.6131(2) 0.72664(14)
C3 C 0.0716(2) 0.1218(2) 1.04299(14)
C4 C 0.1811(2) 0.3065(2) 0.95591(13)
C5 C 0.2406(2) 0.2088(2) 1.02246(14)
H8 H 0.319543 0.205190 1.038038
C6 C 0.4846(2) 0.8637(2) 0.39328(14)
H9 H 0.394252 0.893014 0.388121
C7 C 0.6202(2) 0.5569(2) 0.72383(14)
C8 C 0.0404(2) 0.6155(2) 0.86216(14)
H10 H 0.007890 0.639261 0.912899
C9 C 0.7926(2) 0.8709(2) 0.25522(14)
C10 C 0.6712(2) 0.4196(2) 0.76913(14)
C11 C 0.7011(2) 0.8416(2) 0.32906(14)
C12 C 0.2358(2) 0.4143(2) 0.91513(13)
C13 C 0.1869(2) 0.1168(2) 1.06642(14)
H11 H 0.228215 0.051405 1.111856
C14 C 0.3667(2) 0.3650(2) 0.87089(13)
C15 C 0.4177(2) 0.2651(2) 0.83764(15)
H12 H 0.378900 0.204454 0.843058
C16 C 0.5313(2) 0.8003(2) 0.47237(13)
C17 C 0.3476(2) 0.7231(2) 0.54461(13)
C18 C 0.0699(2) 0.3064(2) 0.93056(14)
H13 H 0.031327 0.368719 0.882959
C19 C 0.0035(2) 0.0327(2) 1.09243(13)
C20 C 0.1824(2) 0.6465(2) 0.58580(13)
C21 C 0.5591(2) 0.3704(2) 0.80089(13)
C22 C -0.0145(2) 0.6767(2) 0.78310(14)
H14 H -0.089850 0.747793 0.771790
C23 C 0.3518(2) 0.9265(2) 0.55479(15)
H15 H 0.408830 0.970973 0.556404
H16 H 0.291746 0.923516 0.605477
H17 H 0.302926 0.969844 0.505047
C24 C 0.5687(2) 0.8845(2) 0.32195(14)
H18 H 0.535801 0.927941 0.268616
C25 C 0.4336(2) 0.7927(2) 0.55075(14)
C26 C 0.1474(2) 0.5171(2) 0.85199(13)
C27 C 0.5049(2) 0.7249(2) 0.62947(14)
C28 C 0.7490(2) 0.7745(2) 0.40724(14)
H19 H 0.839532 0.742607 0.412093
C29 C 0.0555(2) 0.6361(2) 0.63374(14)
C30 C 0.2443(2) 0.4676(2) 0.98554(14)
H20 H 0.159280 0.491578 1.016458
H21 H 0.271848 0.540746 0.960688
H22 H 0.307007 0.404153 1.024115
C31 C 0.5394(2) 0.2682(2) 0.79334(15)
H23 H 0.596271 0.210180 0.764078
C32 C 0.7425(2) 0.4024(3) 0.84374(16)
H24 H 0.814573 0.434785 0.823310
H25 H 0.775770 0.313648 0.872947
H26 H 0.682728 0.447625 0.882619
C33 C 0.0292(3) 0.5271(3) 0.61956(16)
H27 H 0.098854 0.449383 0.640381
H28 H 0.025144 0.541171 0.559403
H29 H -0.053265 0.521174 0.649871
C34 C 0.7643(2) 0.3454(2) 0.70986(16)
H30 H 0.719902 0.358135 0.661222
H31 H 0.793261 0.256669 0.739705
H32 H 0.839132 0.373895 0.690807
C35 C 0.2589(3) 0.5947(2) 0.52446(15)
H33 H 0.245221 0.536525 0.503004
C36 C -0.0561(2) 0.7565(2) 0.60200(15)
H34 H -0.137049 0.749974 0.634408
H35 H -0.063030 0.768964 0.542458
H36 H -0.039179 0.827241 0.608914
C37 C 0.6640(2) 0.7545(2) 0.47817(14)
H37 H 0.697153 0.708831 0.531210
C38 C 0.5559(2) 0.7663(2) 0.67784(15)
H38 H 0.544711 0.850553 0.672769
C39 C 0.3632(3) 0.6435(2) 0.49817(15)
H39 H 0.430954 0.623946 0.455983
C40 C 0.6289(2) 0.6598(2) 0.73710(14)
H40 H 0.675441 0.660355 0.778553
O5 O 0.1968(2) 0.8144(2) 0.75115(13)
H41 H 0.139339 0.881397 0.758079
H42 H 0.247212 0.783684 0.790255
N5 N 0.4008(3) 0.6843(3) 0.8996(2)
C41 C 0.3882(3) 0.8366(3) 0.98346(18)
H43 H 0.443788 0.792461 1.029956
H44 H 0.298692 0.870259 1.005845
H45 H 0.416813 0.904851 0.946145
C42 C 0.3960(3) 0.7516(3) 0.93709(19)
N6 N 0.2255(2) 1.0012(2) 0.27995(15)
C43 C 0.1518(3) 0.9622(3) 0.32587(17)
C44 C 0.0597(3) 0.9112(3) 0.3861(2)
H46 H 0.017292 0.877713 0.357861
H47 H -0.005451 0.977198 0.408618
H48 H 0.105467 0.844530 0.432135
O6 O 0.392(2) 0.423(2) 0.6565(14)
loop_
_geom_bond_atom_site_label_1
_geom_bond_atom_site_label_2
_geom_bond_site_symmetry_1
_geom_bond_site_symmetry_2
O1 H1 1_555 1_555
O2 C19 1_555 1_555
O3 H2 1_555 1_555
O4 C9 1_555 1_555
N1 H3 1_555 1_555
N2 H4 1_555 1_555
N3 H5 1_555 1_555
N4 H6 1_555 1_555
C1 H7 1_555 1_555
C2 N3 1_555 1_555
C3 C1 1_555 1_555
C4 C5 1_555 1_555
C5 H8 1_555 1_555
C6 H9 1_555 1_555
C7 N2 1_555 1_555
C8 H10 1_555 1_555
C9 O1 1_555 1_555
C10 C7 1_555 1_555
C11 C9 1_555 1_555
C12 C4 1_555 1_555
C13 C3 1_555 1_555
H11 C13 1_555 1_555
C14 N1 1_555 1_555
C15 C14 1_555 1_555
H12 C15 1_555 1_555
C16 C6 1_555 1_555
C17 N4 1_555 1_555
C18 C1 1_555 1_555
H13 C18 1_555 1_555
C19 O3 1_555 1_555
C20 N4 1_555 1_555
C21 N1 1_555 1_555
C22 C2 1_555 1_555
H14 C22 1_555 1_555
C23 H15 1_555 1_555
H16 C23 1_555 1_555
H17 C23 1_555 1_555
C24 C6 1_555 1_555
H18 C24 1_555 1_555
C25 C16 1_555 1_555
C26 N3 1_555 1_555
C27 N2 1_555 1_555
C28 C11 1_555 1_555
H19 C28 1_555 1_555
C29 C2 1_555 1_555
C30 C12 1_555 1_555
H20 C30 1_555 1_555
H21 C30 1_555 1_555
H22 C30 1_555 1_555
C31 C15 1_555 1_555
H23 C31 1_555 1_555
C32 C10 1_555 1_555
H24 C32 1_555 1_555
H25 C32 1_555 1_555
H26 C32 1_555 1_555
C33 C29 1_555 1_555
H27 C33 1_555 1_555
H28 C33 1_555 1_555
H29 C33 1_555 1_555
C34 C10 1_555 1_555
H30 C34 1_555 1_555
H31 C34 1_555 1_555
H32 C34 1_555 1_555
C35 C20 1_555 1_555
H33 C35 1_555 1_555
C36 C29 1_555 1_555
H34 C36 1_555 1_555
H35 C36 1_555 1_555
H36 C36 1_555 1_555
C37 C16 1_555 1_555
H37 C37 1_555 1_555
C38 C27 1_555 1_555
H38 C38 1_555 1_555
C39 C17 1_555 1_555
H39 C39 1_555 1_555
C40 C7 1_555 1_555
H40 C40 1_555 1_555
O5 H41 1_555 1_555
H42 O5 1_555 1_555
N5 C42 1_555 1_555
C41 H43 1_555 1_555
H44 C41 1_555 1_555
H45 C41 1_555 1_555
C42 C41 1_555 1_555
N6 C43 1_555 1_555
C43 C44 1_555 1_555
C44 H46 1_555 1_555
H47 C44 1_555 1_555
H48 C44 1_555 1_555
C3 C19 1_555 1_555
C4 C18 1_555 1_555
C5 C13 1_555 1_555
C8 C22 1_555 1_555
C8 C26 1_555 1_555
C10 C21 1_555 1_555
C11 C24 1_555 1_555
C12 C14 1_555 1_555
C12 C26 1_555 1_555
C17 C25 1_555 1_555
C20 C29 1_555 1_555
C21 C31 1_555 1_555
C23 C25 1_555 1_555
C25 C27 1_555 1_555
C28 C37 1_555 1_555
C35 C39 1_555 1_555
C38 C40 1_555 1_555

#END
