
#######################################################################
#
#                 Cambridge Crystallographic Data Centre
#                                CCDC 
#
#######################################################################
#
# If this CIF has been generated from an entry in the Cambridge 
# Structural Database, then it will include bibliographic, chemical, 
# crystal, experimental, refinement or atomic coordinate data resulting 
# from the CCDC's data processing and validation procedures.
#
#######################################################################

data_IDOPAT
_chemical_formula_moiety         'C17 H22 N1 O2 1+,Cl1 1-,C4 H8 O2'
_chemical_name_systematic        
'N-((S)-1-(5-Methyl-2-hydroxyphenyl)ethyl)-N-((R)-2-hydroxy-1-phenylethyl)amine chloride ethyl acetate solvate'
_symmetry_cell_setting           monoclinic
_symmetry_space_group_name_H-M   'P 21'
_symmetry_Int_Tables_number      4
_space_group_name_Hall           'P 2yb'
loop_
_symmetry_equiv_pos_site_id
_symmetry_equiv_pos_as_xyz
1 x,y,z
2 -x,1/2+y,-z
_cell_length_a                   12.043(2)
_cell_length_b                   7.7441(16)
_cell_length_c                   12.043(2)
_cell_angle_alpha                90
_cell_angle_beta                 103.07(2)
_cell_angle_gamma                90
_cell_volume                     1094.06
_exptl_crystal_colour            colorless
_exptl_crystal_description       block
_cell_formula_units_Z            2
_exptl_crystal_recrystallization_method '2-propanol/ethyl acetate(1:20)'
loop_
_atom_site_label
_atom_site_type_symbol
_atom_site_fract_x
_atom_site_fract_y
_atom_site_fract_z
C1 C 0.2637(3) -0.0013(5) 0.7310(3)
H1 H 0.3309 -0.0010 0.7872
C2 C 0.2609(4) -0.0814(6) 0.6285(4)
H2 H 0.3254 -0.1370 0.6159
C3 C 0.1609(5) -0.0787(6) 0.5437(3)
H3 H 0.1592 -0.1292 0.4732
C4 C 0.0663(4) -0.0029(6) 0.5637(3)
H4 H -0.0007 -0.0037 0.5074
C5 C 0.0681(3) 0.0758(5) 0.6668(3)
H5 H 0.0023 0.1272 0.6795
C6 C 0.1672(2) 0.0790(4) 0.7514(2)
C7 C 0.1726(2) 0.1551(4) 0.8672(2)
H6 H 0.2529 0.1721 0.9048
C8 C 0.1193(3) 0.0372(4) 0.9420(3)
H7 H 0.0407 0.0125 0.9049
H8 H 0.1607 -0.0711 0.9550
C9 C 0.1625(2) 0.4678(4) 0.8003(2)
H9 H 0.1809 0.4181 0.7318
C10 C 0.0717(2) 0.6066(4) 0.7627(3)
H10 H 0.0520 0.6566 0.8286
H11 H 0.0051 0.5556 0.7149
H12 H 0.1009 0.6948 0.7210
C11 C 0.2707(2) 0.5407(4) 0.8735(2)
C12 C 0.3636(2) 0.5700(4) 0.8266(3)
H13 H 0.3613 0.5303 0.7532
C13 C 0.4603(3) 0.6567(5) 0.8852(3)
C14 C 0.5599(3) 0.6900(7) 0.8299(4)
H14 H 0.5842 0.8079 0.8426
H15 H 0.5367 0.6687 0.7494
H16 H 0.6219 0.6145 0.8627
C15 C 0.4619(3) 0.7109(5) 0.9941(3)
H17 H 0.5254 0.7700 1.0349
C16 C 0.3719(3) 0.6800(5) 1.0446(3)
H18 H 0.3759 0.7161 1.1191
C17 C 0.2761(2) 0.5958(4) 0.9850(2)
N1 N 0.11353(17) 0.3263(3) 0.86111(17)
H19 H 0.1153 0.3618 0.9326
H20 H 0.0399 0.3114 0.8257
O1 O 0.1831(2) 0.5626(4) 1.02948(19)
H21 H 0.1828 0.6291 1.0824
O2 O 0.1245(3) 0.1230(4) 1.0469(2)
H22 H 0.1428 0.0540 1.0995
C18 C 0.2151(4) 0.3088(12) 0.3504(5)
H23 H 0.1362 0.3288 0.3492
H24 H 0.2253 0.1914 0.3293
H25 H 0.2389 0.3853 0.2975
C19 C 0.2845(5) 0.3413(10) 0.4665(5)
C20 C 0.4620(7) 0.3021(15) 0.5910(6)
H26 H 0.4786 0.4246 0.6000
H27 H 0.4269 0.2651 0.6520
C21 C 0.5616(7) 0.209(2) 0.5941(7)
H28 H 0.5501 0.0908 0.6120
H29 H 0.6224 0.2572 0.6514
H30 H 0.5809 0.2160 0.5212
O3 O 0.2635(5) 0.4201(8) 0.5468(4)
O4 O 0.3851(3) 0.2682(8) 0.4793(3)
Cl1 Cl 0.84321(5) 0.30827(11) 0.78328(5)
loop_
_geom_bond_atom_site_label_1
_geom_bond_atom_site_label_2
_geom_bond_site_symmetry_1
_geom_bond_site_symmetry_2
C1 H1 1_555 1_555
C2 C1 1_555 1_555
H2 C2 1_555 1_555
C3 C2 1_555 1_555
H3 C3 1_555 1_555
C4 C3 1_555 1_555
H4 C4 1_555 1_555
C5 C4 1_555 1_555
H5 C5 1_555 1_555
C6 C1 1_555 1_555
C7 C6 1_555 1_555
H6 C7 1_555 1_555
C8 C7 1_555 1_555
H7 C8 1_555 1_555
H8 C8 1_555 1_555
C9 H9 1_555 1_555
C10 C9 1_555 1_555
H10 C10 1_555 1_555
H11 C10 1_555 1_555
H12 C10 1_555 1_555
C11 C9 1_555 1_555
C12 C11 1_555 1_555
H13 C12 1_555 1_555
C13 C12 1_555 1_555
C14 C13 1_555 1_555
H14 C14 1_555 1_555
H15 C14 1_555 1_555
H16 C14 1_555 1_555
C15 C13 1_555 1_555
H17 C15 1_555 1_555
C16 C15 1_555 1_555
H18 C16 1_555 1_555
C17 C11 1_555 1_555
N1 C7 1_555 1_555
H19 N1 1_555 1_555
H20 N1 1_555 1_555
O1 C17 1_555 1_555
H21 O1 1_555 1_555
O2 C8 1_555 1_555
H22 O2 1_555 1_555
C18 H23 1_555 1_555
H24 C18 1_555 1_555
H25 C18 1_555 1_555
C19 C18 1_555 1_555
C20 H26 1_555 1_555
H27 C20 1_555 1_555
C21 C20 1_555 1_555
H28 C21 1_555 1_555
H29 C21 1_555 1_555
H30 C21 1_555 1_555
O3 C19 1_555 1_555
O4 C19 1_555 1_555
C5 C6 1_555 1_555
C9 N1 1_555 1_555
C16 C17 1_555 1_555
C20 O4 1_555 1_555

#END
