
#######################################################################
#
#                 Cambridge Crystallographic Data Centre
#                                CCDC 
#
#######################################################################
#
# If this CIF has been generated from an entry in the Cambridge 
# Structural Database, then it will include bibliographic, chemical, 
# crystal, experimental, refinement or atomic coordinate data resulting 
# from the CCDC's data processing and validation procedures.
#
#######################################################################

data_IDOSIE01
_chemical_name_common            N-(benzoyl)-N,N'-dicyclohexylurea
_chemical_formula_moiety         'C20 H28 N2 O2'
_chemical_name_systematic        N-Cyclohexyl-N-(cyclohexylcarbamoyl)benzamide
_symmetry_cell_setting           triclinic
_symmetry_space_group_name_H-M   'P -1'
_symmetry_Int_Tables_number      2
_space_group_name_Hall           '-P 1'
loop_
_symmetry_equiv_pos_site_id
_symmetry_equiv_pos_as_xyz
1 x,y,z
2 -x,-y,-z
_cell_length_a                   9.5195(3)
_cell_length_b                   12.9870(6)
_cell_length_c                   15.7077(8)
_cell_angle_alpha                68.413(2)
_cell_angle_beta                 85.344(3)
_cell_angle_gamma                83.299(3)
_cell_volume                     1791.86
_exptl_crystal_colour            colorless
_exptl_crystal_description       rod
_cell_formula_units_Z            4
loop_
_atom_site_label
_atom_site_type_symbol
_atom_site_fract_x
_atom_site_fract_y
_atom_site_fract_z
O1 O 0.83321(16) 0.54083(13) 0.42913(11)
O3 O 1.18087(15) 0.73220(13) 0.24901(12)
N2 N 0.98520(18) 0.63536(15) 0.31502(13)
N3 N 0.96413(19) 0.82751(15) 0.24883(13)
H1 H 0.874(3) 0.818(2) 0.2553(16)
C2 C 0.7982(2) 0.7489(2) 0.47096(17)
H4 H 0.7080 0.7362 0.4570
C4 C 0.9204(2) 0.69612(18) 0.44465(15)
C6 C 0.8080(3) 0.8197(2) 0.51735(18)
H6 H 0.7246 0.8566 0.5343
C8 C 0.9387(3) 0.8369(2) 0.53903(17)
H8 H 0.9450 0.8864 0.5702
C10 C 1.0603(3) 0.7826(2) 0.51561(17)
H10 H 1.1498 0.7931 0.5322
C12 C 1.0518(2) 0.71259(19) 0.46797(15)
H12 H 1.1356 0.6759 0.4512
C14 C 0.9073(2) 0.61798(18) 0.39580(15)
C16 C 1.0534(2) 0.73589(18) 0.26880(15)
C18 C 0.9931(2) 0.55365(18) 0.26911(16)
H14 H 0.9151 0.5046 0.2966
C20 C 0.9673(2) 0.6119(2) 0.16715(16)
H17 H 1.0382 0.6661 0.1389
H18 H 0.8723 0.6534 0.1593
C21 C 0.9774(3) 0.5285(2) 0.11827(18)
H19 H 0.8985 0.4805 0.1407
H20 H 0.9683 0.5692 0.0516
C22 C 1.1176(3) 0.4566(2) 0.13541(19)
H21 H 1.1960 0.5039 0.1078
H22 H 1.1199 0.4012 0.1056
C27 C 1.1388(3) 0.3966(2) 0.23752(18)
H31 H 1.0643 0.3453 0.2644
H32 H 1.2317 0.3519 0.2467
C28 C 1.1328(2) 0.47927(19) 0.28618(17)
H33 H 1.2129 0.5259 0.2635
H34 H 1.1418 0.4384 0.3528
C30 C 1.0095(2) 0.94041(18) 0.21193(15)
H36 H 1.1153 0.9343 0.2097
C32 C 0.9603(3) 1.00074(19) 0.11460(16)
H39 H 1.0042 0.9608 0.0748
H40 H 0.8563 1.0011 0.1143
C34 C 1.0005(3) 1.1200(2) 0.07688(18)
H43 H 1.1048 1.1195 0.0725
H44 H 0.9647 1.1584 0.0145
C36 C 0.9388(3) 1.1826(2) 0.13826(18)
H47 H 0.8341 1.1870 0.1397
H48 H 0.9673 1.2593 0.1131
C38 C 0.9902(3) 1.1243(2) 0.23513(19)
H51 H 0.9449 1.1640 0.2748
H52 H 1.0939 1.1267 0.2345
C40 C 0.9553(3) 1.00357(19) 0.27451(16)
H55 H 0.8514 1.0017 0.2841
H56 H 0.9982 0.9661 0.3349
O2 O 1.30912(16) 0.95652(13) 0.07025(11)
O4 O 1.67469(15) 0.76987(13) 0.24682(12)
N1 N 1.46320(18) 0.86446(15) 0.18304(13)
N4 N 1.48923(19) 0.67231(15) 0.25117(13)
H2 H 1.397(3) 0.679(2) 0.2464(17)
C1 C 1.5968(2) 0.79341(19) 0.02731(16)
H3 H 1.6622 0.8328 0.0430
C3 C 1.4547(2) 0.80292(18) 0.05393(15)
C5 C 1.3593(2) 0.74558(19) 0.03015(16)
H5 H 1.2617 0.7535 0.0470
C7 C 1.4065(3) 0.6771(2) -0.01799(17)
H7 H 1.3416 0.6369 -0.0330
C9 C 1.5479(3) 0.6671(2) -0.04424(17)
H9 H 1.5802 0.6200 -0.0773
C11 C 1.6426(2) 0.7262(2) -0.02227(17)
H11 H 1.7395 0.7204 -0.0414
C13 C 1.4006(2) 0.88055(18) 0.10330(16)
C15 C 1.5534(2) 0.76469(18) 0.22928(15)
C17 C 1.5631(2) 0.56104(18) 0.28907(16)
H13 H 1.6640 0.5692 0.2965
C19 C 1.4990(3) 0.49742(19) 0.38290(16)
H15 H 1.3969 0.4935 0.3780
H16 H 1.5085 0.5372 0.4248
C23 C 1.5729(3) 0.3796(2) 0.42218(18)
H23 H 1.6727 0.3836 0.4330
H24 H 1.5262 0.3384 0.4818
C24 C 1.5680(3) 0.3174(2) 0.35767(18)
H25 H 1.4684 0.3070 0.3514
H26 H 1.6204 0.2429 0.3835
C25 C 1.6330(3) 0.3810(2) 0.26402(18)
H27 H 1.6238 0.3412 0.2221
H28 H 1.7351 0.3843 0.2695
C26 C 1.5608(3) 0.49963(19) 0.22342(17)
H29 H 1.6103 0.5406 0.1648
H30 H 1.4616 0.4966 0.2106
C29 C 1.4318(2) 0.94556(18) 0.22973(16)
H35 H 1.3452 0.9945 0.2027
C31 C 1.3983(2) 0.88549(19) 0.33164(16)
H37 H 1.4786 0.8304 0.3589
H38 H 1.3136 0.8449 0.3393
C33 C 1.3713(2) 0.9671(2) 0.38201(17)
H41 H 1.2844 1.0169 0.3597
H42 H 1.3563 0.9254 0.4484
C35 C 1.4960(3) 1.0365(2) 0.36657(17)
H45 H 1.4755 1.0900 0.3985
H46 H 1.5816 0.9873 0.3926
C37 C 1.5233(3) 1.09926(19) 0.26516(17)
H49 H 1.6057 1.1427 0.2564
H50 H 1.4400 1.1521 0.2402
C39 C 1.5523(2) 1.01985(19) 0.21295(17)
H53 H 1.6420 0.9728 0.2329
H54 H 1.5633 1.0633 0.1466
loop_
_geom_bond_atom_site_label_1
_geom_bond_atom_site_label_2
_geom_bond_site_symmetry_1
_geom_bond_site_symmetry_2
O1 C14 1_555 1_555
O2 C13 1_555 1_555
O3 C16 1_555 1_555
O4 C15 1_555 1_555
N1 C13 1_555 1_555
N2 C14 1_555 1_555
N3 H1 1_555 1_555
N4 H2 1_555 1_555
C1 H3 1_555 1_555
C2 H4 1_555 1_555
C3 C1 1_555 1_555
C4 C2 1_555 1_555
C5 C3 1_555 1_555
H5 C5 1_555 1_555
C6 C2 1_555 1_555
H6 C6 1_555 1_555
C7 C5 1_555 1_555
H7 C7 1_555 1_555
C8 C6 1_555 1_555
H8 C8 1_555 1_555
C9 C7 1_555 1_555
H9 C9 1_555 1_555
C10 C8 1_555 1_555
H10 C10 1_555 1_555
C11 C1 1_555 1_555
H11 C11 1_555 1_555
C12 C4 1_555 1_555
H12 C12 1_555 1_555
C13 C3 1_555 1_555
C14 C4 1_555 1_555
C15 N1 1_555 1_555
C16 N2 1_555 1_555
C17 N4 1_555 1_555
H13 C17 1_555 1_555
C18 N2 1_555 1_555
H14 C18 1_555 1_555
C19 C17 1_555 1_555
H15 C19 1_555 1_555
H16 C19 1_555 1_555
C20 C18 1_555 1_555
H17 C20 1_555 1_555
H18 C20 1_555 1_555
C21 C20 1_555 1_555
H19 C21 1_555 1_555
H20 C21 1_555 1_555
C22 C21 1_555 1_555
H21 C22 1_555 1_555
H22 C22 1_555 1_555
C23 C19 1_555 1_555
H23 C23 1_555 1_555
H24 C23 1_555 1_555
C24 C23 1_555 1_555
H25 C24 1_555 1_555
H26 C24 1_555 1_555
C25 C24 1_555 1_555
H27 C25 1_555 1_555
H28 C25 1_555 1_555
C26 C17 1_555 1_555
H29 C26 1_555 1_555
H30 C26 1_555 1_555
C27 C22 1_555 1_555
H31 C27 1_555 1_555
H32 C27 1_555 1_555
C28 C18 1_555 1_555
H33 C28 1_555 1_555
H34 C28 1_555 1_555
C29 N1 1_555 1_555
H35 C29 1_555 1_555
C30 N3 1_555 1_555
H36 C30 1_555 1_555
C31 C29 1_555 1_555
H37 C31 1_555 1_555
H38 C31 1_555 1_555
C32 C30 1_555 1_555
H39 C32 1_555 1_555
H40 C32 1_555 1_555
C33 C31 1_555 1_555
H41 C33 1_555 1_555
H42 C33 1_555 1_555
C34 C32 1_555 1_555
H43 C34 1_555 1_555
H44 C34 1_555 1_555
C35 C33 1_555 1_555
H45 C35 1_555 1_555
H46 C35 1_555 1_555
C36 C34 1_555 1_555
H47 C36 1_555 1_555
H48 C36 1_555 1_555
C37 C35 1_555 1_555
H49 C37 1_555 1_555
H50 C37 1_555 1_555
C38 C36 1_555 1_555
H51 C38 1_555 1_555
H52 C38 1_555 1_555
C39 C29 1_555 1_555
H53 C39 1_555 1_555
H54 C39 1_555 1_555
C40 C30 1_555 1_555
H55 C40 1_555 1_555
H56 C40 1_555 1_555
N3 C16 1_555 1_555
N4 C15 1_555 1_555
C9 C11 1_555 1_555
C10 C12 1_555 1_555
C25 C26 1_555 1_555
C27 C28 1_555 1_555
C37 C39 1_555 1_555
C38 C40 1_555 1_555

#END
