
#######################################################################
#
#                 Cambridge Crystallographic Data Centre
#                                CCDC 
#
#######################################################################
#
# If this CIF has been generated from an entry in the Cambridge 
# Structural Database, then it will include bibliographic, chemical, 
# crystal, experimental, refinement or atomic coordinate data resulting 
# from the CCDC's data processing and validation procedures.
#
#######################################################################

data_IDOTON
_chemical_formula_moiety         'C26 H20 F1 N5 O2'
_chemical_name_systematic        
7-(3,5-dimethyl-1,2-oxazol-4-yl)-4-(6-fluoroquinolin-4-yl)-6-methoxy-2-methyl-9H-pyrimido[4,5-b]indole
_symmetry_cell_setting           triclinic
_symmetry_space_group_name_H-M   'P -1'
_symmetry_Int_Tables_number      2
_space_group_name_Hall           '-P 1'
loop_
_symmetry_equiv_pos_site_id
_symmetry_equiv_pos_as_xyz
1 x,y,z
2 -x,-y,-z
_cell_length_a                   7.7758(3)
_cell_length_b                   10.3458(2)
_cell_length_c                   14.6505(4)
_cell_angle_alpha                71.053(2)
_cell_angle_beta                 75.006(3)
_cell_angle_gamma                80.624(2)
_cell_volume                     1072.75
_exptl_crystal_colour            yellow
_exptl_crystal_description       plate
_cell_formula_units_Z            2
_exptl_crystal_recrystallization_method methanol/dichloromethane
loop_
_atom_site_label
_atom_site_type_symbol
_atom_site_fract_x
_atom_site_fract_y
_atom_site_fract_z
F1 F 0.08541(14) 0.93671(9) 0.19094(7)
O1 O 0.67386(15) 0.78525(10) 0.14935(8)
O2 O 0.78756(16) 0.47953(11) -0.02746(8)
N1 N 0.27253(18) 1.09460(12) 0.47229(10)
N2 N 0.09358(17) 0.61137(12) 0.63263(9)
N3 N 0.12418(17) 0.39197(11) 0.60449(9)
N4 N 0.30421(17) 0.38211(12) 0.44719(9)
H1 H 0.290(3) 0.293(2) 0.4555(15)
N5 N 0.6816(2) 0.60035(13) -0.06495(10)
C1 C 0.1337(2) 0.97055(15) 0.26273(12)
C2 C 0.1803(2) 1.10448(15) 0.23866(12)
H2 H 0.182030 1.166672 0.174441
C3 C 0.2233(2) 1.14344(14) 0.31019(12)
H3 H 0.249110 1.235307 0.296717
C4 C 0.2296(2) 1.04888(14) 0.40347(11)
C5 C 0.1917(2) 0.91048(14) 0.42395(11)
C6 C 0.1340(2) 0.87527(14) 0.35144(11)
H4 H 0.096431 0.786776 0.364894
C7 C 0.2816(2) 1.00540(15) 0.55850(12)
H5 H 0.306851 1.037377 0.607159
C8 C 0.2565(2) 0.86542(15) 0.58361(11)
H6 H 0.268371 0.805454 0.646782
C9 C 0.2147(2) 0.81581(14) 0.51625(11)
C10 C 0.1945(2) 0.66623(14) 0.54279(10)
C11 C 0.0647(2) 0.47783(14) 0.66015(11)
C12 C 0.2280(2) 0.44775(14) 0.51710(11)
C13 C 0.2760(2) 0.58517(14) 0.48092(11)
C14 C 0.3928(2) 0.59995(13) 0.38474(11)
C15 C 0.4876(2) 0.70593(14) 0.31383(11)
H7 H 0.490909 0.788918 0.327704
C16 C 0.5761(2) 0.68866(14) 0.22348(11)
C17 C 0.5710(2) 0.56570(14) 0.20107(11)
C18 C 0.4883(2) 0.45711(14) 0.27388(11)
H8 H 0.491002 0.372285 0.261234
C19 C 0.4014(2) 0.47327(14) 0.36563(11)
C20 C 0.6464(2) 0.55626(14) 0.10019(11)
C21 C 0.5997(2) 0.64401(15) 0.01108(12)
C22 C 0.7626(2) 0.45613(15) 0.07096(11)
C23 C -0.0432(2) 0.42023(15) 0.76208(11)
H9 H -0.107881 0.345700 0.763334
H10 H -0.128859 0.492497 0.781394
H11 H 0.036312 0.384658 0.808478
C24 C 0.6966(2) 0.90436(16) 0.17191(13)
H12 H 0.579905 0.954786 0.186910
H13 H 0.774247 0.963177 0.114977
H14 H 0.751152 0.877141 0.229375
C25 C 0.4722(3) 0.76946(16) -0.00316(13)
H15 H 0.525382 0.845123 0.002807
H16 H 0.361118 0.751289 0.047351
H17 H 0.446130 0.794416 -0.069005
C26 C 0.8626(2) 0.33243(16) 0.12439(12)
H18 H 0.791494 0.253599 0.145704
H19 H 0.886386 0.347691 0.182427
H20 H 0.976043 0.314169 0.080356
loop_
_geom_bond_atom_site_label_1
_geom_bond_atom_site_label_2
_geom_bond_site_symmetry_1
_geom_bond_site_symmetry_2
F1 C1 1_555 1_555
O1 C16 1_555 1_555
O2 N5 1_555 1_555
N1 C4 1_555 1_555
N2 C10 1_555 1_555
N3 C11 1_555 1_555
N4 H1 1_555 1_555
N5 C21 1_555 1_555
C1 C2 1_555 1_555
C2 H2 1_555 1_555
C3 C2 1_555 1_555
H3 C3 1_555 1_555
C4 C3 1_555 1_555
C5 C4 1_555 1_555
C6 C1 1_555 1_555
H4 C6 1_555 1_555
C7 N1 1_555 1_555
H5 C7 1_555 1_555
C8 C7 1_555 1_555
H6 C8 1_555 1_555
C9 C5 1_555 1_555
C10 C9 1_555 1_555
C11 N2 1_555 1_555
C12 N3 1_555 1_555
C13 C10 1_555 1_555
C14 C13 1_555 1_555
C15 C14 1_555 1_555
H7 C15 1_555 1_555
C16 C15 1_555 1_555
C17 C16 1_555 1_555
C18 C17 1_555 1_555
H8 C18 1_555 1_555
C19 N4 1_555 1_555
C20 C17 1_555 1_555
C21 C20 1_555 1_555
C22 O2 1_555 1_555
C23 C11 1_555 1_555
H9 C23 1_555 1_555
H10 C23 1_555 1_555
H11 C23 1_555 1_555
C24 O1 1_555 1_555
H12 C24 1_555 1_555
H13 C24 1_555 1_555
H14 C24 1_555 1_555
C25 C21 1_555 1_555
H15 C25 1_555 1_555
H16 C25 1_555 1_555
H17 C25 1_555 1_555
C26 C22 1_555 1_555
H18 C26 1_555 1_555
H19 C26 1_555 1_555
H20 C26 1_555 1_555
N4 C12 1_555 1_555
C5 C6 1_555 1_555
C8 C9 1_555 1_555
C12 C13 1_555 1_555
C14 C19 1_555 1_555
C18 C19 1_555 1_555
C20 C22 1_555 1_555

#END
