
#######################################################################
#
#                 Cambridge Crystallographic Data Centre
#                                CCDC 
#
#######################################################################
#
# If this CIF has been generated from an entry in the Cambridge 
# Structural Database, then it will include bibliographic, chemical, 
# crystal, experimental, refinement or atomic coordinate data resulting 
# from the CCDC's data processing and validation procedures.
#
#######################################################################

data_IDOWUU
_chemical_formula_moiety         'C19 H17 N3'
_chemical_name_systematic        
2-amino-5,6,7,8-tetrahydro-4-p-tolylnaphthalene-1,3-dicarbonitrile
_symmetry_cell_setting           monoclinic
_symmetry_space_group_name_H-M   'C 2/c'
_symmetry_Int_Tables_number      15
_space_group_name_Hall           '-C 2yn'
loop_
_symmetry_equiv_pos_site_id
_symmetry_equiv_pos_as_xyz
1 x,y,z
2 1/2+x,1/2+y,z
3 -x,y,1/2-z
4 1/2-x,1/2+y,1/2-z
5 -x,-y,-z
6 1/2-x,1/2-y,-z
7 x,-y,1/2+z
8 1/2+x,1/2-y,1/2+z
_cell_length_a                   22.837(6)
_cell_length_b                   7.906(2)
_cell_length_c                   17.920(4)
_cell_angle_alpha                90
_cell_angle_beta                 105.955(5)
_cell_angle_gamma                90
_cell_volume                     3110.81
_exptl_crystal_colour            colorless
_exptl_crystal_description       plate
_chemical_melting_point          '189-191 deg.C'
_cell_formula_units_Z            8
_exptl_crystal_recrystallization_method ethanol
loop_
_atom_site_label
_atom_site_type_symbol
_atom_site_fract_x
_atom_site_fract_y
_atom_site_fract_z
N1 N 0.23869(12) 0.3183(4) 0.07116(14)
N2 N 0.11484(13) 0.2528(3) -0.10063(15)
N3 N -0.04379(11) 0.2146(3) -0.19567(14)
C1 C 0.09492(11) 0.2774(3) 0.09710(13)
C2 C 0.12202(11) 0.2754(3) 0.03559(14)
C3 C 0.08756(11) 0.2571(3) -0.04203(14)
C4 C 0.02418(11) 0.2435(3) -0.05495(14)
C5 C -0.00350(11) 0.2471(3) 0.00609(14)
C6 C -0.07189(11) 0.2307(4) -0.01321(14)
H1 H -0.0828 0.1162 -0.0288
H2 H -0.0900 0.3027 -0.0566
C7 C -0.0985(3) 0.2749(13) 0.0529(4)
H3 H -0.1399 0.2332 0.0412
H4 H -0.0996 0.3969 0.0581
C8 C -0.0611(3) 0.1983(14) 0.1292(3)
H5 H -0.0600 0.0762 0.1244
H6 H -0.0798 0.2252 0.1702
C9 C 0.00368(11) 0.2690(4) 0.14959(15)
H7 H 0.0031 0.3853 0.1666
H8 H 0.0289 0.2045 0.1925
C10 C 0.03186(11) 0.2633(3) 0.08256(13)
C11 C 0.18703(13) 0.2987(4) 0.05462(15)
C12 C -0.01342(12) 0.2273(4) -0.13334(17)
C13 C 0.13542(11) 0.2928(4) 0.17762(14)
C14 C 0.15436(12) 0.4482(4) 0.20935(15)
H9 H 0.1402 0.5457 0.1811
C15 C 0.19417(12) 0.4616(4) 0.28271(15)
H10 H 0.2066 0.5681 0.3030
C16 C 0.21563(12) 0.3209(5) 0.32594(15)
C17 C 0.19562(13) 0.1659(5) 0.29469(17)
H11 H 0.2092 0.0687 0.3235
C18 C 0.15580(12) 0.1509(4) 0.22148(16)
H12 H 0.1427 0.0445 0.2018
C19 C 0.26099(14) 0.3362(5) 0.40513(16)
H13 H 0.2694 0.2259 0.4281
H14 H 0.2443 0.4068 0.4378
H15 H 0.2980 0.3854 0.3998
H16 H 0.0927(12) 0.237(3) -0.1470(15)
H17 H 0.1591(19) 0.246(4) -0.091(2)
H18? H -0.0847 0.1388 -0.0499
H19? H -0.0902 0.3340 -0.0384
C20? C -0.0959(4) 0.1977(13) 0.0569(4)
H20? H -0.0894 0.0800 0.0722
H21? H -0.1393 0.2200 0.0433
C21? C -0.0632(3) 0.3113(12) 0.1251(4)
H22? H -0.0687 0.4291 0.1096
H23? H -0.0804 0.2941 0.1683
H24? H 0.0092 0.1600 0.1754
H25? H 0.0249 0.3529 0.1868
loop_
_geom_bond_atom_site_label_1
_geom_bond_atom_site_label_2
_geom_bond_site_symmetry_1
_geom_bond_site_symmetry_2
N1 C11 1_555 1_555
N2 C3 1_555 1_555
N3 C12 1_555 1_555
C1 C2 1_555 1_555
C2 C3 1_555 1_555
C3 C4 1_555 1_555
C4 C5 1_555 1_555
C5 C6 1_555 1_555
C6 H1 1_555 1_555
H2 C6 1_555 1_555
C7 C6 1_555 1_555
H3 C7 1_555 1_555
H4 C7 1_555 1_555
C8 C7 1_555 1_555
H5 C8 1_555 1_555
H6 C8 1_555 1_555
C9 C8 1_555 1_555
H7 C9 1_555 1_555
H8 C9 1_555 1_555
C10 C1 1_555 1_555
C11 C2 1_555 1_555
C12 C4 1_555 1_555
C13 C1 1_555 1_555
C14 C13 1_555 1_555
H9 C14 1_555 1_555
C15 C14 1_555 1_555
H10 C15 1_555 1_555
C16 C15 1_555 1_555
C17 C16 1_555 1_555
H11 C17 1_555 1_555
C18 C13 1_555 1_555
H12 C18 1_555 1_555
C19 C16 1_555 1_555
H13 C19 1_555 1_555
H14 C19 1_555 1_555
H15 C19 1_555 1_555
H16 N2 1_555 1_555
H17 N2 1_555 1_555
C5 C10 1_555 1_555
C9 C10 1_555 1_555
C17 C18 1_555 1_555

#END
