
#######################################################################
#
#                 Cambridge Crystallographic Data Centre
#                                CCDC 
#
#######################################################################
#
# If this CIF has been generated from an entry in the Cambridge 
# Structural Database, then it will include bibliographic, chemical, 
# crystal, experimental, refinement or atomic coordinate data resulting 
# from the CCDC's data processing and validation procedures.
#
#######################################################################

data_IDURII
_chemical_formula_moiety         'C14 H25 Cl1 O1'
_chemical_name_systematic        
3-Chloro-1-hydroxy-3,5,5,9-tetramethylbicyclo[4.4.0]decane
_symmetry_cell_setting           monoclinic
_symmetry_space_group_name_H-M   'P 21'
_symmetry_Int_Tables_number      4
_space_group_name_Hall           'P 2yb'
loop_
_symmetry_equiv_pos_site_id
_symmetry_equiv_pos_as_xyz
1 x,y,z
2 -x,1/2+y,-z
_cell_length_a                   6.1310(8)
_cell_length_b                   12.8273(16)
_cell_length_c                   8.7690(11)
_cell_angle_alpha                90
_cell_angle_beta                 92.129(2)
_cell_angle_gamma                90
_cell_volume                     689.155
_exptl_crystal_colour            colorless
_exptl_crystal_description       tabular
_cell_formula_units_Z            2
loop_
_atom_site_label
_atom_site_type_symbol
_atom_site_fract_x
_atom_site_fract_y
_atom_site_fract_z
C1 C 0.7234(3) 0.24351(14) 0.98766(18)
C2 C 0.7111(3) 0.33163(13) 0.87105(19)
H1 H 0.856(4) 0.3503(16) 0.842(2)
H2 H 0.656(4) 0.394(2) 0.921(3)
C3 C 0.5903(3) 0.30760(17) 0.71981(18)
C4 C 0.6583(3) 0.20316(15) 0.6559(2)
H3 H 0.804(4) 0.2194(19) 0.620(3)
H4 H 0.572(4) 0.1847(18) 0.566(3)
C5 C 0.6744(3) 0.10858(14) 0.76343(19)
C6 C 0.7987(3) 0.14064(13) 0.91349(18)
H5 H 0.937(4) 0.1573(16) 0.885(2)
C7 C 0.8128(3) 0.05439(15) 1.0350(2)
H6 H 0.851(4) -0.016(2) 0.989(3)
H7 H 0.658(4) 0.044(2) 1.074(3)
C8 C 0.9750(4) 0.08453(15) 1.1644(2)
H8 H 1.119(4) 0.0906(18) 1.120(3)
H9 H 0.979(4) 0.031(2) 1.242(3)
C9 C 0.9197(3) 0.18842(16) 1.23823(19)
H10 H 0.787(3) 0.1771(16) 1.290(2)
C10 C 0.8880(3) 0.27308(14) 1.11669(19)
H11 H 1.025(3) 0.2826(14) 1.0742(19)
H12 H 0.843(3) 0.3386(16) 1.164(2)
C11 C 0.6212(4) 0.39457(19) 0.6038(3)
H13 H 0.776(5) 0.403(2) 0.574(3)
H14 H 0.576(5) 0.460(3) 0.648(4)
H15 H 0.538(5) 0.376(3) 0.506(4)
C12 C 0.8111(3) 0.02699(18) 0.6804(2)
H16 H 0.810(4) -0.039(3) 0.732(3)
H17 H 0.958(4) 0.0552(19) 0.670(3)
H18 H 0.746(5) 0.014(2) 0.575(3)
C13 C 0.4514(3) 0.05770(19) 0.7893(3)
H19 H 0.374(4) 0.050(2) 0.692(3)
H20 H 0.342(4) 0.101(2) 0.846(3)
H21 H 0.477(5) -0.011(2) 0.837(4)
C14 C 1.0975(4) 0.22030(19) 1.3560(2)
H22 H 1.113(4) 0.164(2) 1.429(3)
H23 H 1.063(5) 0.282(2) 1.416(3)
H24 H 1.231(5) 0.235(3) 1.310(3)
O1 O 0.5184(2) 0.23022(13) 1.06089(17)
H25 H 0.439(5) 0.243(3) 1.013(3)
Cl1 Cl 0.29293(7) 0.30637(5) 0.75052(5)
loop_
_geom_bond_atom_site_label_1
_geom_bond_atom_site_label_2
_geom_bond_site_symmetry_1
_geom_bond_site_symmetry_2
C1 C2 1_555 1_555
C2 H1 1_555 1_555
H2 C2 1_555 1_555
C3 C2 1_555 1_555
C4 C3 1_555 1_555
H3 C4 1_555 1_555
H4 C4 1_555 1_555
C5 C4 1_555 1_555
C6 C1 1_555 1_555
H5 C6 1_555 1_555
C7 C6 1_555 1_555
H6 C7 1_555 1_555
H7 C7 1_555 1_555
C8 C7 1_555 1_555
H8 C8 1_555 1_555
H9 C8 1_555 1_555
C9 C8 1_555 1_555
H10 C9 1_555 1_555
C10 C1 1_555 1_555
H11 C10 1_555 1_555
H12 C10 1_555 1_555
C11 C3 1_555 1_555
H13 C11 1_555 1_555
H14 C11 1_555 1_555
H15 C11 1_555 1_555
C12 C5 1_555 1_555
H16 C12 1_555 1_555
H17 C12 1_555 1_555
H18 C12 1_555 1_555
C13 C5 1_555 1_555
H19 C13 1_555 1_555
H20 C13 1_555 1_555
H21 C13 1_555 1_555
C14 C9 1_555 1_555
H22 C14 1_555 1_555
H23 C14 1_555 1_555
H24 C14 1_555 1_555
O1 C1 1_555 1_555
H25 O1 1_555 1_555
Cl1 C3 1_555 1_555
C5 C6 1_555 1_555
C9 C10 1_555 1_555

#END
