
#######################################################################
#
#                 Cambridge Crystallographic Data Centre
#                                CCDC 
#
#######################################################################
#
# If this CIF has been generated from an entry in the Cambridge 
# Structural Database, then it will include bibliographic, chemical, 
# crystal, experimental, refinement or atomic coordinate data resulting 
# from the CCDC's data processing and validation procedures.
#
#######################################################################

data_IDUWEM
_chemical_formula_moiety         'C36 H36 N1 O2 P1'
_chemical_name_systematic        
N,N-bis(1-phenylethyl)-1,2,3,4,15,15a-hexahydro-10H-4,5-methanobenzo[g]fluoreno[5,4a-de][1,3,2]dioxaphosphocin-10-amine
_symmetry_cell_setting           orthorhombic
_symmetry_space_group_name_H-M   'P 21 21 21'
_symmetry_Int_Tables_number      19
_space_group_name_Hall           'P 2ac 2ab'
loop_
_symmetry_equiv_pos_site_id
_symmetry_equiv_pos_as_xyz
1 x,y,z
2 1/2-x,-y,1/2+z
3 -x,1/2+y,1/2-z
4 1/2+x,1/2-y,-z
_cell_length_a                   11.5285(15)
_cell_length_b                   14.1892(18)
_cell_length_c                   18.146(2)
_cell_angle_alpha                90
_cell_angle_beta                 90
_cell_angle_gamma                90
_cell_volume                     2968.33
_exptl_crystal_colour            colorless
_exptl_crystal_description       prismatic
_cell_formula_units_Z            4
loop_
_atom_site_label
_atom_site_type_symbol
_atom_site_fract_x
_atom_site_fract_y
_atom_site_fract_z
P1 P 0.49695(8) 0.12244(6) 0.06924(6)
N1 N 0.6232(3) 0.06670(19) 0.06965(19)
O1 O 0.4445(2) 0.12568(17) -0.01628(14)
O2 O 0.4202(2) 0.03295(18) 0.10137(14)
C1 C 0.4467(3) 0.0466(3) -0.0614(2)
C2 C 0.5352(3) 0.0378(3) -0.1118(2)
H1 H 0.5861 0.0878 -0.1194
C3 C 0.5489(5) -0.0441(4) -0.1508(2)
H2 H 0.6059 -0.0480 -0.1869
C4 C 0.4790(4) -0.1207(4) -0.1370(2)
H3 H 0.4932 -0.1782 -0.1598
C5 C 0.3870(4) -0.1105(3) -0.0885(2)
C6 C 0.3641(3) -0.0245(3) -0.05460(19)
C7 C 0.2463(3) -0.0258(3) -0.0170(2)
C8 C 0.2317(4) -0.1336(3) -0.0022(3)
H4 H 0.2657 -0.1479 0.0460
C9 C 0.3044(4) -0.1839(3) -0.0619(3)
H5 H 0.3458 -0.2372 -0.0412
H6 H 0.2554 -0.2059 -0.1018
C10 C 0.1046(4) -0.1626(3) -0.0007(3)
H7 H 0.0995 -0.2287 0.0126
H8 H 0.0648 -0.1265 0.0369
C11 C 0.0443(5) -0.1478(4) -0.0735(4)
H9 H -0.0372 -0.1351 -0.0646
H10 H 0.0496 -0.2052 -0.1024
C12 C 0.0973(5) -0.0653(4) -0.1180(3)
H11 H 0.1584 -0.0893 -0.1495
H12 H 0.0379 -0.0380 -0.1492
C13 C 0.1469(4) 0.0112(3) -0.0679(3)
H13 H 0.1786 0.0612 -0.0992
C14 C 0.0542(4) 0.0548(4) -0.0178(3)
H14 H 0.0268 0.1143 -0.0377
H15 H -0.0113 0.0125 -0.0119
C15 C 0.1159(3) 0.0692(3) 0.0535(3)
C16 C 0.2271(3) 0.0329(3) 0.0515(2)
C17 C 0.3022(3) 0.0533(3) 0.1080(2)
C18 C 0.2627(5) 0.0993(4) 0.1702(3)
H16 H 0.3127 0.1111 0.2093
C19 C 0.1492(5) 0.1272(5) 0.1735(3)
H17 H 0.1214 0.1549 0.2164
C20 C 0.0763(4) 0.1153(4) 0.1157(4)
H18 H 0.0006 0.1379 0.1178
C21 C 0.6418(3) -0.0372(2) 0.0632(2)
H19 H 0.5680 -0.0640 0.0465
C22 C 0.7309(4) -0.0625(3) 0.0048(3)
H20 H 0.7130 -0.0298 -0.0401
H21 H 0.7293 -0.1292 -0.0038
H22 H 0.8067 -0.0443 0.0214
C23 C 0.6665(4) -0.0808(3) 0.1375(3)
C24 C 0.7790(5) -0.0898(3) 0.1642(3)
H23 H 0.8413 -0.0690 0.1360
C25 C 0.7983(8) -0.1292(5) 0.2323(4)
H24 H 0.8741 -0.1356 0.2490
C26 C 0.7098(10) -0.1591(5) 0.2758(4)
H25 H 0.7246 -0.1836 0.3224
C27 C 0.5966(9) -0.1526(4) 0.2494(4)
H26 H 0.5346 -0.1732 0.2780
C28 C 0.5776(6) -0.1148(3) 0.1797(3)
H27 H 0.5023 -0.1125 0.1613
C29 C 0.7277(3) 0.1265(3) 0.0796(2)
H28 H 0.7932 0.0826 0.0828
C30 C 0.7497(4) 0.1855(3) 0.0110(2)
H29 H 0.7478 0.1457 -0.0317
H30 H 0.8244 0.2151 0.0147
H31 H 0.6908 0.2330 0.0068
C31 C 0.7299(3) 0.1820(3) 0.1507(2)
C32 C 0.7889(5) 0.2663(3) 0.1562(3)
H32 H 0.8255 0.2903 0.1145
C33 C 0.7955(6) 0.3155(4) 0.2203(3)
H33 H 0.8328 0.3736 0.2212
C34 C 0.7479(6) 0.2804(5) 0.2828(3)
H34 H 0.7544 0.3129 0.3270
C35 C 0.6898(5) 0.1956(5) 0.2797(3)
H35 H 0.6567 0.1707 0.3222
C36 C 0.6806(4) 0.1477(3) 0.2143(3)
H36 H 0.6402 0.0910 0.2129
loop_
_geom_bond_atom_site_label_1
_geom_bond_atom_site_label_2
_geom_bond_site_symmetry_1
_geom_bond_site_symmetry_2
P1 N1 1_555 1_555
N1 C21 1_555 1_555
O1 P1 1_555 1_555
O2 P1 1_555 1_555
C1 O1 1_555 1_555
C2 C1 1_555 1_555
H1 C2 1_555 1_555
C3 C2 1_555 1_555
H2 C3 1_555 1_555
C4 C3 1_555 1_555
H3 C4 1_555 1_555
C5 C4 1_555 1_555
C6 C1 1_555 1_555
C7 C6 1_555 1_555
C8 C7 1_555 1_555
H4 C8 1_555 1_555
C9 C5 1_555 1_555
H5 C9 1_555 1_555
H6 C9 1_555 1_555
C10 C8 1_555 1_555
H7 C10 1_555 1_555
H8 C10 1_555 1_555
C11 C10 1_555 1_555
H9 C11 1_555 1_555
H10 C11 1_555 1_555
C12 C11 1_555 1_555
H11 C12 1_555 1_555
H12 C12 1_555 1_555
C13 C7 1_555 1_555
H13 C13 1_555 1_555
C14 C13 1_555 1_555
H14 C14 1_555 1_555
H15 C14 1_555 1_555
C15 C14 1_555 1_555
C16 C7 1_555 1_555
C17 O2 1_555 1_555
C18 C17 1_555 1_555
H16 C18 1_555 1_555
C19 C18 1_555 1_555
H17 C19 1_555 1_555
C20 C15 1_555 1_555
H18 C20 1_555 1_555
C21 H19 1_555 1_555
C22 C21 1_555 1_555
H20 C22 1_555 1_555
H21 C22 1_555 1_555
H22 C22 1_555 1_555
C23 C21 1_555 1_555
C24 C23 1_555 1_555
H23 C24 1_555 1_555
C25 C24 1_555 1_555
H24 C25 1_555 1_555
C26 C25 1_555 1_555
H25 C26 1_555 1_555
C27 C26 1_555 1_555
H26 C27 1_555 1_555
C28 C23 1_555 1_555
H27 C28 1_555 1_555
C29 N1 1_555 1_555
H28 C29 1_555 1_555
C30 C29 1_555 1_555
H29 C30 1_555 1_555
H30 C30 1_555 1_555
H31 C30 1_555 1_555
C31 C29 1_555 1_555
C32 C31 1_555 1_555
H32 C32 1_555 1_555
C33 C32 1_555 1_555
H33 C33 1_555 1_555
C34 C33 1_555 1_555
H34 C34 1_555 1_555
C35 C34 1_555 1_555
H35 C35 1_555 1_555
C36 C31 1_555 1_555
H36 C36 1_555 1_555
C5 C6 1_555 1_555
C8 C9 1_555 1_555
C12 C13 1_555 1_555
C15 C16 1_555 1_555
C16 C17 1_555 1_555
C19 C20 1_555 1_555
C27 C28 1_555 1_555
C35 C36 1_555 1_555

#END
