
#######################################################################
#
#                 Cambridge Crystallographic Data Centre
#                                CCDC 
#
#######################################################################
#
# If this CIF has been generated from an entry in the Cambridge 
# Structural Database, then it will include bibliographic, chemical, 
# crystal, experimental, refinement or atomic coordinate data resulting 
# from the CCDC's data processing and validation procedures.
#
#######################################################################

data_IDUXAJ
_chemical_name_common            
"triethylammonium (1S,2S,2'S)-7,7'-dihydroxy-2,2'-propylene-1,1'-spirobiindane (1S,2S,2'S)-7-oxy-7'-hydroxy-2,2'-propylene-1,1'-spirobiindane"
_chemical_formula_moiety         'C20 H20 O2,C20 H19 O2 1-,C6 H16 N1 1+'
_chemical_name_systematic        
'triethylammonium 5-hydroxy-9a,10,11,12,12a,13-hexahydro-9H-indeno[2,1-d]fluoren-4-olate 9a,10,11,12,12a,13-hexahydro-9H-indeno[2,1-d]fluorene-4,5-diol'
_symmetry_cell_setting           orthorhombic
_symmetry_space_group_name_H-M   'P 21 21 21'
_symmetry_Int_Tables_number      19
_space_group_name_Hall           'P 2ac 2ab'
loop_
_symmetry_equiv_pos_site_id
_symmetry_equiv_pos_as_xyz
1 x,y,z
2 1/2+x,1/2-y,-z
3 -x,1/2+y,1/2-z
4 1/2-x,-y,1/2+z
_cell_length_a                   8.1187(5)
_cell_length_b                   17.3795(11)
_cell_length_c                   26.7272(17)
_cell_angle_alpha                90
_cell_angle_beta                 90
_cell_angle_gamma                90
_cell_volume                     3771.18
_exptl_crystal_colour            colorless
_exptl_crystal_description       block
_cell_formula_units_Z            4
loop_
_atom_site_label
_atom_site_type_symbol
_atom_site_fract_x
_atom_site_fract_y
_atom_site_fract_z
O1 O 0.00485(18) -0.02385(8) -0.23338(5)
O2 O -0.26766(19) 0.04739(9) -0.36124(6)
H1 H -0.2470 0.0046 -0.3481
C1 C -0.0639(2) -0.07282(10) -0.26539(7)
C2 C -0.1748(3) -0.12960(11) -0.24859(8)
H2 H -0.1979 -0.1338 -0.2138
C3 C -0.2512(3) -0.17967(12) -0.28194(9)
H3 H -0.3255 -0.2174 -0.2696
C4 C -0.2205(3) -0.17521(12) -0.33273(8)
H4 H -0.2737 -0.2091 -0.3555
C5 C -0.1103(2) -0.12025(10) -0.34971(7)
C6 C -0.0287(2) -0.07072(10) -0.31694(7)
C7 C 0.0900(2) -0.01797(10) -0.34462(6)
C8 C 0.2591(2) -0.00358(11) -0.31851(7)
H5 H 0.2371 0.0020 -0.2819
C9 C 0.3865(3) -0.06731(13) -0.32460(8)
H6 H 0.4940 -0.0492 -0.3117
H7 H 0.3526 -0.1125 -0.3046
C10 C 0.4056(3) -0.09105(15) -0.37912(9)
H8 H 0.4429 -0.0465 -0.3993
H9 H 0.4893 -0.1322 -0.3820
C11 C 0.2410(3) -0.11980(12) -0.39863(8)
H10 H 0.2071 -0.1651 -0.3787
H11 H 0.2552 -0.1369 -0.4337
C12 C 0.1035(3) -0.05987(11) -0.39674(7)
H12 H 0.1182 -0.0213 -0.4241
C13 C -0.0624(3) -0.10196(12) -0.40280(7)
H13 H -0.1453 -0.0684 -0.4190
H14 H -0.0495 -0.1495 -0.4228
C14 C 0.0284(2) 0.06477(11) -0.35097(7)
C15 C -0.1295(3) 0.09298(11) -0.35951(7)
C16 C -0.1535(3) 0.17186(13) -0.36581(8)
H15 H -0.2610 0.1911 -0.3723
C17 C -0.0224(3) 0.22225(12) -0.36266(8)
H16 H -0.0405 0.2758 -0.3670
C18 C 0.1349(3) 0.19556(12) -0.35320(8)
H17 H 0.2247 0.2303 -0.3505
C19 C 0.1590(3) 0.11708(11) -0.34772(7)
C20 C 0.3171(3) 0.07524(12) -0.33770(8)
H18 H 0.3837 0.1023 -0.3121
H19 H 0.3831 0.0698 -0.3687
N1 N -0.1115(2) 0.10454(10) -0.19522(6)
C21 C -0.2648(3) 0.08438(14) -0.16657(9)
H20 H -0.3067 0.1311 -0.1496
H21 H -0.2369 0.0462 -0.1404
C22 C -0.3984(3) 0.05200(17) -0.19953(13)
H22 H -0.4882 0.0322 -0.1786
H23 H -0.3533 0.0101 -0.2199
H24 H -0.4407 0.0926 -0.2215
C23 C -0.1390(3) 0.15768(12) -0.23819(8)
H25 H -0.2159 0.1328 -0.2619
H26 H -0.0329 0.1652 -0.2558
C24 C -0.2073(4) 0.23565(14) -0.22432(10)
H27 H -0.1324 0.2610 -0.2008
H28 H -0.3157 0.2293 -0.2087
H29 H -0.2182 0.2672 -0.2545
C25 C 0.0216(3) 0.13109(13) -0.16029(8)
H30 H 0.0029 0.1858 -0.1517
H31 H 0.0158 0.1008 -0.1290
C26 C 0.1902(3) 0.12248(14) -0.18273(10)
H32 H 0.2734 0.1387 -0.1583
H33 H 0.1985 0.1546 -0.2128
H34 H 0.2087 0.0685 -0.1917
H35 H -0.067(3) 0.0598(16) -0.2085(10)
O3 O 0.03188(18) -0.05838(8) -0.14370(5)
H36 H 0.0291 -0.0531 -0.1749
O4 O 0.4039(2) 0.06707(10) -0.06755(7)
H37 H 0.4022 0.0201 -0.0750
C27 C 0.1820(2) -0.08354(10) -0.12983(7)
C28 C 0.2978(3) -0.11027(12) -0.16455(7)
H38 H 0.2713 -0.1107 -0.1992
C29 C 0.4510(3) -0.13606(13) -0.14877(8)
H39 H 0.5277 -0.1543 -0.1728
C30 C 0.4943(3) -0.13573(13) -0.09855(8)
H40 H 0.5999 -0.1530 -0.0881
C31 C 0.3792(2) -0.10947(11) -0.06396(7)
C32 C 0.2235(2) -0.08415(10) -0.07908(7)
C33 C 0.1263(2) -0.05237(10) -0.03507(7)
C34 C -0.0640(2) -0.06630(11) -0.03414(7)
H41 H -0.1058 -0.0592 -0.0690
C35 C -0.1187(2) -0.14544(11) -0.01642(7)
H42 H -0.2391 -0.1448 -0.0106
H43 H -0.0958 -0.1836 -0.0430
C36 C -0.0323(3) -0.17022(12) 0.03131(7)
H44 H -0.0600 -0.1343 0.0588
H45 H -0.0693 -0.2224 0.0410
C37 C 0.1521(2) -0.17026(11) 0.02244(7)
H46 H 0.1778 -0.2060 -0.0053
H47 H 0.2081 -0.1896 0.0528
C38 C 0.2193(2) -0.09068(11) 0.00971(7)
H48 H 0.2142 -0.0566 0.0398
C39 C 0.3987(2) -0.09884(13) -0.00814(7)
H49 H 0.4635 -0.0521 -0.0004
H50 H 0.4527 -0.1440 0.0074
C40 C 0.1324(3) 0.03586(10) -0.03262(7)
C41 C 0.2552(3) 0.08765(12) -0.04693(7)
C42 C 0.2291(3) 0.16641(13) -0.04093(8)
H51 H 0.3127 0.2018 -0.0505
C43 C 0.0827(4) 0.19356(13) -0.02121(9)
H52 H 0.0671 0.2474 -0.0170
C44 C -0.0408(3) 0.14335(13) -0.00752(8)
H53 H -0.1416 0.1621 0.0058
C45 C -0.0151(3) 0.06507(11) -0.01354(7)
C46 C -0.1318(3) 0.00023(11) -0.00227(7)
H54 H -0.2458 0.0135 -0.0122
H55 H -0.1303 -0.0129 0.0338
loop_
_geom_bond_atom_site_label_1
_geom_bond_atom_site_label_2
_geom_bond_site_symmetry_1
_geom_bond_site_symmetry_2
O1 C1 1_555 1_555
O2 H1 1_555 1_555
C1 C2 1_555 1_555
C2 H2 1_555 1_555
C3 C2 1_555 1_555
H3 C3 1_555 1_555
C4 C3 1_555 1_555
H4 C4 1_555 1_555
C5 C4 1_555 1_555
C6 C1 1_555 1_555
C7 C6 1_555 1_555
C8 C7 1_555 1_555
H5 C8 1_555 1_555
C9 C8 1_555 1_555
H6 C9 1_555 1_555
H7 C9 1_555 1_555
C10 C9 1_555 1_555
H8 C10 1_555 1_555
H9 C10 1_555 1_555
C11 C10 1_555 1_555
H10 C11 1_555 1_555
H11 C11 1_555 1_555
C12 C7 1_555 1_555
H12 C12 1_555 1_555
C13 C5 1_555 1_555
H13 C13 1_555 1_555
H14 C13 1_555 1_555
C14 C7 1_555 1_555
C15 O2 1_555 1_555
C16 C15 1_555 1_555
H15 C16 1_555 1_555
C17 C16 1_555 1_555
H16 C17 1_555 1_555
C18 C17 1_555 1_555
H17 C18 1_555 1_555
C19 C14 1_555 1_555
C20 C8 1_555 1_555
H18 C20 1_555 1_555
H19 C20 1_555 1_555
N1 C21 1_555 1_555
C21 H20 1_555 1_555
H21 C21 1_555 1_555
C22 C21 1_555 1_555
H22 C22 1_555 1_555
H23 C22 1_555 1_555
H24 C22 1_555 1_555
C23 N1 1_555 1_555
H25 C23 1_555 1_555
H26 C23 1_555 1_555
C24 C23 1_555 1_555
H27 C24 1_555 1_555
H28 C24 1_555 1_555
H29 C24 1_555 1_555
C25 N1 1_555 1_555
H30 C25 1_555 1_555
H31 C25 1_555 1_555
C26 C25 1_555 1_555
H32 C26 1_555 1_555
H33 C26 1_555 1_555
H34 C26 1_555 1_555
H35 N1 1_555 1_555
O3 H36 1_555 1_555
O4 H37 1_555 1_555
C27 O3 1_555 1_555
C28 C27 1_555 1_555
H38 C28 1_555 1_555
C29 C28 1_555 1_555
H39 C29 1_555 1_555
C30 C29 1_555 1_555
H40 C30 1_555 1_555
C31 C30 1_555 1_555
C32 C27 1_555 1_555
C33 C32 1_555 1_555
C34 C33 1_555 1_555
H41 C34 1_555 1_555
C35 C34 1_555 1_555
H42 C35 1_555 1_555
H43 C35 1_555 1_555
C36 C35 1_555 1_555
H44 C36 1_555 1_555
H45 C36 1_555 1_555
C37 C36 1_555 1_555
H46 C37 1_555 1_555
H47 C37 1_555 1_555
C38 C33 1_555 1_555
H48 C38 1_555 1_555
C39 C31 1_555 1_555
H49 C39 1_555 1_555
H50 C39 1_555 1_555
C40 C33 1_555 1_555
C41 O4 1_555 1_555
C42 C41 1_555 1_555
H51 C42 1_555 1_555
C43 C42 1_555 1_555
H52 C43 1_555 1_555
C44 C43 1_555 1_555
H53 C44 1_555 1_555
C45 C40 1_555 1_555
C46 C34 1_555 1_555
H54 C46 1_555 1_555
H55 C46 1_555 1_555
C5 C6 1_555 1_555
C11 C12 1_555 1_555
C12 C13 1_555 1_555
C14 C15 1_555 1_555
C18 C19 1_555 1_555
C19 C20 1_555 1_555
C31 C32 1_555 1_555
C37 C38 1_555 1_555
C38 C39 1_555 1_555
C40 C41 1_555 1_555
C44 C45 1_555 1_555
C45 C46 1_555 1_555

#END
