
#######################################################################
#
#                 Cambridge Crystallographic Data Centre
#                                CCDC 
#
#######################################################################
#
# If this CIF has been generated from an entry in the Cambridge 
# Structural Database, then it will include bibliographic, chemical, 
# crystal, experimental, refinement or atomic coordinate data resulting 
# from the CCDC's data processing and validation procedures.
#
#######################################################################

data_IFABUN
_chemical_formula_moiety         'C10 H18 O4,C10 H8 N2'
_chemical_name_systematic        "Sebacic acid 4,4'-bipyridine"
_symmetry_cell_setting           triclinic
_symmetry_space_group_name_H-M   'P -1'
_symmetry_Int_Tables_number      2
_space_group_name_Hall           '-P 1'
loop_
_symmetry_equiv_pos_site_id
_symmetry_equiv_pos_as_xyz
1 x,y,z
2 -x,-y,-z
_cell_length_a                   8.9652(18)
_cell_length_b                   9.5699(19)
_cell_length_c                   11.700(2)
_cell_angle_alpha                90.67(3)
_cell_angle_beta                 95.82(3)
_cell_angle_gamma                113.71(3)
_cell_volume                     912.829
_exptl_crystal_colour            colorless
_exptl_crystal_description       plate
_cell_formula_units_Z            2
loop_
_atom_site_label
_atom_site_type_symbol
_atom_site_fract_x
_atom_site_fract_y
_atom_site_fract_z
O1 O -0.23605(13) 0.40547(13) 0.33005(9)
O2 O 0.00917(12) 0.52801(13) 0.27041(9)
H1 H 0.0344 0.4734 0.3149
O3 O -1.01584(12) 0.99001(13) -0.23106(9)
O4 O -1.25312(12) 0.87988(13) -0.15660(9)
H2 H -1.2820 0.9308 -0.2025
C1 C -0.14710(16) 0.49952(16) 0.27191(11)
C2 C -0.19907(16) 0.59802(17) 0.19054(12)
H3 H -0.1816 0.5757 0.1132
H4 H -0.1289 0.7045 0.2113
C3 C -0.37658(16) 0.57635(16) 0.18988(11)
H5 H -0.3952 0.5997 0.2667
H6 H -0.4481 0.4704 0.1684
C4 C -0.41883(16) 0.67963(17) 0.10547(12)
H7 H -0.3471 0.7853 0.1278
H8 H -0.3975 0.6571 0.0293
C5 C -0.59591(16) 0.66136(17) 0.09992(12)
H9 H -0.6163 0.6869 0.1756
H10 H -0.6677 0.5551 0.0798
C6 C -0.63871(17) 0.76071(17) 0.01347(12)
H11 H -0.6179 0.7357 -0.0622
H12 H -0.5676 0.8671 0.0338
C7 C -0.81647(16) 0.74076(17) 0.00814(12)
H13 H -0.8360 0.7688 0.0833
H14 H -0.8872 0.6337 -0.0095
C8 C -0.86349(17) 0.83593(17) -0.08112(12)
H15 H -0.7933 0.9433 -0.0641
H16 H -0.8462 0.8073 -0.1569
C9 C -1.04109(17) 0.81223(17) -0.08147(12)
H17 H -1.1097 0.7047 -0.0993
H18 H -1.0575 0.8374 -0.0045
C10 C -1.09890(17) 0.90456(17) -0.16516(11)
N1 N 0.86381(15) 0.63752(15) 0.60884(10)
N2 N 0.39378(14) 0.98012(15) 0.29460(10)
C11 C 0.71598(17) 0.61773(17) 0.63405(12)
H19 H 0.6740 0.5550 0.6934
C12 C 0.62015(17) 0.68425(17) 0.57779(12)
H20 H 0.5174 0.6670 0.5993
C13 C 0.68085(16) 0.77772(16) 0.48813(11)
C14 C 0.83722(17) 0.80091(17) 0.46248(12)
H21 H 0.8836 0.8643 0.4045
C15 C 0.92300(17) 0.72856(18) 0.52431(12)
H22 H 1.0269 0.7443 0.5059
C16 C 0.58143(16) 0.84878(16) 0.42150(11)
C17 C 0.41292(17) 0.79719(17) 0.42667(11)
H23 H 0.3602 0.7181 0.4731
C18 C 0.32511(17) 0.86537(18) 0.36177(12)
H24 H 0.2127 0.8292 0.3653
C19 C 0.55369(18) 1.02954(18) 0.29048(12)
H25 H 0.6031 1.1107 0.2448
C20 C 0.65223(17) 0.96742(17) 0.35029(12)
H26 H 0.7637 1.0045 0.3428
loop_
_geom_bond_atom_site_label_1
_geom_bond_atom_site_label_2
_geom_bond_site_symmetry_1
_geom_bond_site_symmetry_2
O1 C1 1_555 1_555
O2 H1 1_555 1_555
O3 C10 1_555 1_555
O4 H2 1_555 1_555
C1 O2 1_555 1_555
C2 C1 1_555 1_555
H3 C2 1_555 1_555
H4 C2 1_555 1_555
C3 C2 1_555 1_555
H5 C3 1_555 1_555
H6 C3 1_555 1_555
C4 C3 1_555 1_555
H7 C4 1_555 1_555
H8 C4 1_555 1_555
C5 C4 1_555 1_555
H9 C5 1_555 1_555
H10 C5 1_555 1_555
C6 C5 1_555 1_555
H11 C6 1_555 1_555
H12 C6 1_555 1_555
C7 C6 1_555 1_555
H13 C7 1_555 1_555
H14 C7 1_555 1_555
C8 C7 1_555 1_555
H15 C8 1_555 1_555
H16 C8 1_555 1_555
C9 C8 1_555 1_555
H17 C9 1_555 1_555
H18 C9 1_555 1_555
C10 O4 1_555 1_555
N1 C11 1_555 1_555
N2 C18 1_555 1_555
C11 H19 1_555 1_555
C12 C11 1_555 1_555
H20 C12 1_555 1_555
C13 C12 1_555 1_555
C14 C13 1_555 1_555
H21 C14 1_555 1_555
C15 N1 1_555 1_555
H22 C15 1_555 1_555
C16 C13 1_555 1_555
C17 C16 1_555 1_555
H23 C17 1_555 1_555
C18 C17 1_555 1_555
H24 C18 1_555 1_555
C19 N2 1_555 1_555
H25 C19 1_555 1_555
C20 C16 1_555 1_555
H26 C20 1_555 1_555
C9 C10 1_555 1_555
C14 C15 1_555 1_555
C19 C20 1_555 1_555

#END
