
#######################################################################
#
#                 Cambridge Crystallographic Data Centre
#                                CCDC 
#
#######################################################################
#
# If this CIF has been generated from an entry in the Cambridge 
# Structural Database, then it will include bibliographic, chemical, 
# crystal, experimental, refinement or atomic coordinate data resulting 
# from the CCDC's data processing and validation procedures.
#
#######################################################################

data_IFAGAA
_chemical_formula_moiety         'C16 H14 Cl1 N1 O2'
_chemical_name_systematic        
(2-chlorophenyl)(2-{[(propan-2-ylidene)amino]oxy}phenyl)methanone
_symmetry_cell_setting           tetragonal
_symmetry_space_group_name_H-M   'P 41'
_symmetry_Int_Tables_number      76
_space_group_name_Hall           'P 4w'
loop_
_symmetry_equiv_pos_site_id
_symmetry_equiv_pos_as_xyz
1 x,y,z
2 -x,-y,1/2+z
3 -y,x,1/4+z
4 y,-x,3/4+z
_cell_length_a                   10.1392(4)
_cell_length_b                   10.1392(4)
_cell_length_c                   28.1205(16)
_cell_angle_alpha                90
_cell_angle_beta                 90
_cell_angle_gamma                90
_cell_volume                     2890.88
_exptl_crystal_colour            colorless
_exptl_crystal_description       block
_cell_formula_units_Z            8
loop_
_atom_site_label
_atom_site_type_symbol
_atom_site_fract_x
_atom_site_fract_y
_atom_site_fract_z
Cl1 Cl 1.21437(10) 0.38451(11) 0.58117(4)
C1 C 1.1519(4) 0.3300(4) 0.52700(13)
N1 N 0.9473(3) -0.0865(3) 0.56389(12)
O1 O 0.9212(3) 0.4292(3) 0.58216(15)
C2 C 1.2422(5) 0.3088(4) 0.49127(16)
H1 H 1.331265 0.325272 0.496447
O2 O 0.9401(3) 0.0541(2) 0.55734(11)
C3 C 1.1993(6) 0.2628(5) 0.44752(18)
H2 H 1.259300 0.250224 0.422908
C4 C 1.0685(6) 0.2359(4) 0.44069(16)
H3 H 1.039815 0.204982 0.411319
C5 C 0.8137(4) 0.1012(4) 0.56109(13)
C6 C 0.8018(4) 0.2388(4) 0.56215(12)
C7 C 0.9159(4) 0.3295(4) 0.55790(14)
C8 C 1.0188(4) 0.3035(3) 0.52113(12)
C9 C 0.9783(5) 0.2542(4) 0.47706(15)
H4 H 0.889940 0.233560 0.472123
C10 C 0.7033(4) 0.0214(4) 0.56548(13)
H5 H 0.711612 -0.069936 0.564333
C11 C 0.5813(4) 0.0786(5) 0.57157(16)
H6 H 0.506899 0.025431 0.574096
C12 C 0.5680(4) 0.2145(5) 0.57396(16)
H7 H 0.485538 0.252178 0.578952
C13 C 0.6764(4) 0.2926(5) 0.56897(15)
H8 H 0.666692 0.383730 0.570138
C14 C 1.0659(4) -0.1243(4) 0.55895(13)
C15 C 1.0889(5) -0.2685(4) 0.56573(18)
H9 H 1.113201 -0.307672 0.535905
H10 H 1.009572 -0.309198 0.577275
H11 H 1.158549 -0.281511 0.588361
C16 C 1.1808(4) -0.0377(5) 0.5475(2)
H12 H 1.155933 0.024426 0.523362
H13 H 1.252664 -0.090790 0.536232
H14 H 1.207608 0.008957 0.575608
Cl2 Cl 0.47727(10) 0.53185(12) 0.41769(4)
N2 N 0.7399(3) 0.9951(3) 0.43736(12)
O3 O 0.7701(3) 0.4743(3) 0.42193(13)
O4 O 0.7472(2) 0.8541(2) 0.44353(11)
C17 C 0.5352(4) 0.5841(3) 0.47311(13)
C18 C 0.4426(4) 0.6053(4) 0.50817(15)
H15 H 0.353587 0.590402 0.502218
C19 C 0.4837(5) 0.6489(4) 0.55215(15)
H16 H 0.421912 0.663093 0.576051
C20 C 0.6144(5) 0.6715(4) 0.56104(15)
H17 H 0.641442 0.699460 0.590990
C21 C 0.7064(4) 0.6526(4) 0.52513(14)
H18 H 0.794800 0.671036 0.530941
C22 C 0.6685(3) 0.6064(3) 0.48061(12)
C23 C 0.7732(4) 0.5767(4) 0.44429(14)
C24 C 0.8855(3) 0.6695(4) 0.43837(13)
C25 C 0.8726(3) 0.8064(4) 0.43823(13)
C26 C 0.9820(4) 0.8860(4) 0.43142(16)
H19 H 0.973393 0.977308 0.431513
C27 C 1.1034(4) 0.8287(5) 0.42450(18)
H20 H 1.176686 0.882481 0.420042
C28 C 1.1193(4) 0.6942(5) 0.42401(18)
H21 H 1.202117 0.656932 0.419316
C29 C 1.0097(4) 0.6154(4) 0.43063(15)
H22 H 1.019140 0.524186 0.429886
C30 C 0.6199(4) 1.0328(3) 0.44070(13)
C31 C 0.5057(4) 0.9472(5) 0.44990(19)
H23 H 0.488866 0.893465 0.422452
H24 H 0.429644 1.000612 0.456502
H25 H 0.523874 0.891646 0.476749
C32 C 0.5987(5) 1.1772(4) 0.43436(18)
H26 H 0.680712 1.218538 0.426054
H27 H 0.566220 1.214371 0.463490
H28 H 0.535571 1.191644 0.409466
loop_
_geom_bond_atom_site_label_1
_geom_bond_atom_site_label_2
_geom_bond_site_symmetry_1
_geom_bond_site_symmetry_2
Cl1 C1 1_555 1_555
C1 C2 1_555 1_555
N1 O2 1_555 1_555
O1 C7 1_555 1_555
C2 H1 1_555 1_555
O2 C5 1_555 1_555
C3 C2 1_555 1_555
H2 C3 1_555 1_555
C4 C3 1_555 1_555
H3 C4 1_555 1_555
C5 C6 1_555 1_555
C6 C7 1_555 1_555
C7 C8 1_555 1_555
C8 C1 1_555 1_555
C9 C4 1_555 1_555
H4 C9 1_555 1_555
C10 C5 1_555 1_555
H5 C10 1_555 1_555
C11 C10 1_555 1_555
H6 C11 1_555 1_555
C12 C11 1_555 1_555
H7 C12 1_555 1_555
C13 C6 1_555 1_555
H8 C13 1_555 1_555
C14 N1 1_555 1_555
C15 C14 1_555 1_555
H9 C15 1_555 1_555
H10 C15 1_555 1_555
H11 C15 1_555 1_555
C16 C14 1_555 1_555
H12 C16 1_555 1_555
H13 C16 1_555 1_555
H14 C16 1_555 1_555
Cl2 C17 1_555 1_555
N2 O4 1_555 1_555
O3 C23 1_555 1_555
O4 C25 1_555 1_555
C17 C18 1_555 1_555
C18 H15 1_555 1_555
C19 C18 1_555 1_555
H16 C19 1_555 1_555
C20 C19 1_555 1_555
H17 C20 1_555 1_555
C21 C20 1_555 1_555
H18 C21 1_555 1_555
C22 C17 1_555 1_555
C23 C22 1_555 1_555
C24 C23 1_555 1_555
C25 C24 1_555 1_555
C26 C25 1_555 1_555
H19 C26 1_555 1_555
C27 C26 1_555 1_555
H20 C27 1_555 1_555
C28 C27 1_555 1_555
H21 C28 1_555 1_555
C29 C24 1_555 1_555
H22 C29 1_555 1_555
C30 N2 1_555 1_555
C31 C30 1_555 1_555
H23 C31 1_555 1_555
H24 C31 1_555 1_555
H25 C31 1_555 1_555
C32 C30 1_555 1_555
H26 C32 1_555 1_555
H27 C32 1_555 1_555
H28 C32 1_555 1_555
C8 C9 1_555 1_555
C12 C13 1_555 1_555
C21 C22 1_555 1_555
C28 C29 1_555 1_555

#END
