
#######################################################################
#
#                 Cambridge Crystallographic Data Centre
#                                CCDC 
#
#######################################################################
#
# If this CIF has been generated from an entry in the Cambridge 
# Structural Database, then it will include bibliographic, chemical, 
# crystal, experimental, refinement or atomic coordinate data resulting 
# from the CCDC's data processing and validation procedures.
#
#######################################################################

data_IFARIQ
_chemical_formula_moiety         'C38 H30 N4 O8,2(C5 H5 N1)'
_chemical_name_systematic        
"P-trans-(2R,2'R)-bis(2-Phthalimidecyclohexyl)pyromellitic di-imide bis(pyridine) clathrate"
_symmetry_cell_setting           monoclinic
_symmetry_space_group_name_H-M   'C 2'
_symmetry_Int_Tables_number      5
_space_group_name_Hall           'C 2y'
loop_
_symmetry_equiv_pos_site_id
_symmetry_equiv_pos_as_xyz
1 x,y,z
2 -x,y,-z
3 1/2+x,1/2+y,z
4 1/2-x,1/2+y,-z
_cell_length_a                   18.283(4)
_cell_length_b                   11.023(2)
_cell_length_c                   11.901(2)
_cell_angle_alpha                90
_cell_angle_beta                 121.77(3)
_cell_angle_gamma                90
_cell_volume                     2039.09
_exptl_crystal_colour            colorless
_exptl_crystal_description       prism
_cell_formula_units_Z            2
loop_
_atom_site_label
_atom_site_type_symbol
_atom_site_fract_x
_atom_site_fract_y
_atom_site_fract_z
C1 C 0.1603(3) 0.2351(4) 0.5689(4)
C2 C 0.0724(3) 0.2751(4) 0.5312(4)
C3 C 0.0000 0.2084(5) 0.5000
H1 H 0.0000 0.1213 0.5000
C4 C 0.0000 0.4695(5) 0.5000
H2 H 0.0000 0.5566 0.5000
C5 C 0.0719(3) 0.4012(4) 0.5318(4)
C6 C 0.1598(3) 0.4442(4) 0.5733(4)
C7 C 0.3004(2) 0.3476(4) 0.6356(4)
H3 H 0.3192 0.4292 0.6648
C8 C 0.3574(2) 0.2641(4) 0.7522(4)
H4 H 0.3415 0.1820 0.7222
C9 C 0.4519(2) 0.2801(4) 0.7951(4)
H5 H 0.4880 0.2269 0.8674
H6 H 0.4692 0.3622 0.8239
C10 C 0.4633(3) 0.2539(4) 0.6796(4)
H7 H 0.4475 0.1710 0.6529
H8 H 0.5223 0.2643 0.7057
C11 C 0.4062(2) 0.3360(5) 0.5624(4)
H9 H 0.4126 0.3167 0.4894
H10 H 0.4242 0.4185 0.5877
C12 C 0.3117(2) 0.3234(4) 0.5193(4)
H11 H 0.2775 0.3798 0.4494
H12 H 0.2921 0.2429 0.4863
C13 C 0.3297(3) 0.1872(4) 0.9255(4)
C14 C 0.3183(3) 0.2427(4) 1.0288(4)
C15 C 0.2982(3) 0.1908(4) 1.1140(4)
H13 H 0.2893 0.1050 1.1147
C16 C 0.2929(3) 0.2670(4) 1.2028(4)
H14 H 0.2788 0.2336 1.2637
C17 C 0.3092(3) 0.3901(5) 1.2068(4)
H15 H 0.3049 0.4390 1.2699
C18 C 0.3291(3) 0.4428(4) 1.1195(4)
H16 H 0.3402 0.5282 1.1225
C19 C 0.3322(2) 0.3661(4) 1.0302(4)
C20 C 0.3495(3) 0.3944(4) 0.9229(4)
N1 N 0.20948(18) 0.3401(3) 0.5953(3)
N2 N 0.3441(2) 0.2827(3) 0.8621(3)
O1 O 0.18531(19) 0.1323(3) 0.5743(3)
O2 O 0.18572(19) 0.5471(3) 0.5883(3)
O3 O 0.3293(2) 0.0813(3) 0.8981(3)
O4 O 0.3653(2) 0.4913(3) 0.8933(3)
C2A C -0.0724(3) 0.2751(4) 0.4688(4)
C1A C -0.1603(3) 0.2351(4) 0.4311(4)
N1A N -0.20948(18) 0.3401(3) 0.4047(3)
C6A C -0.1598(3) 0.4442(4) 0.4267(4)
C5A C -0.0719(3) 0.4012(4) 0.4682(4)
O2A O -0.18572(19) 0.5471(3) 0.4117(3)
C7A C -0.3004(2) 0.3476(4) 0.3644(4)
H3A H -0.3192 0.4292 0.3352
C8A C -0.3574(2) 0.2641(4) 0.2478(4)
H4A H -0.3415 0.1820 0.2778
C9A C -0.4519(2) 0.2801(4) 0.2049(4)
H5A H -0.4880 0.2269 0.1326
H6A H -0.4692 0.3622 0.1761
C10A C -0.4633(3) 0.2539(4) 0.3204(4)
H7A H -0.4475 0.1710 0.3471
H8A H -0.5223 0.2643 0.2943
C11A C -0.4062(2) 0.3360(5) 0.4376(4)
H9A H -0.4126 0.3167 0.5106
H10A H -0.4242 0.4185 0.4123
C12A C -0.3117(2) 0.3234(4) 0.4807(4)
H11A H -0.2775 0.3798 0.5506
H12A H -0.2921 0.2429 0.5137
N2A N -0.3441(2) 0.2827(3) 0.1379(3)
C13A C -0.3297(3) 0.1872(4) 0.0745(4)
C14A C -0.3183(3) 0.2427(4) -0.0288(4)
C15A C -0.2982(3) 0.1908(4) -0.1140(4)
H13A H -0.2893 0.1050 -0.1147
C16A C -0.2929(3) 0.2670(4) -0.2028(4)
H14A H -0.2788 0.2336 -0.2637
C17A C -0.3092(3) 0.3901(5) -0.2068(4)
H15A H -0.3049 0.4390 -0.2699
C18A C -0.3291(3) 0.4428(4) -0.1195(4)
H16A H -0.3402 0.5282 -0.1225
C19A C -0.3322(2) 0.3661(4) -0.0302(4)
C20A C -0.3495(3) 0.3944(4) 0.0771(4)
O4A O -0.3653(2) 0.4913(3) 0.1067(3)
O3A O -0.3293(2) 0.0813(3) 0.1019(3)
O1A O -0.18531(19) 0.1323(3) 0.4257(3)
C21 C 0.0753(3) 0.3440(6) 0.8520(5)
H17 H 0.1286 0.3823 0.8752
C22 C 0.0101(5) 0.4157(5) 0.8374(6)
H18 H 0.0165 0.5023 0.8453
C23 C -0.0652(4) 0.3617(6) 0.8122(5)
H19 H -0.1120 0.4084 0.8042
C24 C -0.0698(4) 0.2383(6) 0.7993(6)
H20 H -0.1205 0.1961 0.7826
C25 C -0.0028(4) 0.1768(6) 0.8109(7)
H21 H -0.0077 0.0902 0.8013
N3 N 0.0702(3) 0.2265(4) 0.8343(5)
loop_
_geom_bond_atom_site_label_1
_geom_bond_atom_site_label_2
_geom_bond_site_symmetry_1
_geom_bond_site_symmetry_2
C1 C2 1_555 1_555
C2 C3 1_555 1_555
C3 H1 1_555 1_555
C4 H2 1_555 1_555
C5 C2 1_555 1_555
C6 C5 1_555 1_555
C7 H3 1_555 1_555
C8 C7 1_555 1_555
H4 C8 1_555 1_555
C9 C8 1_555 1_555
H5 C9 1_555 1_555
H6 C9 1_555 1_555
C10 C9 1_555 1_555
H7 C10 1_555 1_555
H8 C10 1_555 1_555
C11 C10 1_555 1_555
H9 C11 1_555 1_555
H10 C11 1_555 1_555
C12 C7 1_555 1_555
H11 C12 1_555 1_555
H12 C12 1_555 1_555
C13 C14 1_555 1_555
C14 C15 1_555 1_555
C15 H13 1_555 1_555
C16 C15 1_555 1_555
H14 C16 1_555 1_555
C17 C16 1_555 1_555
H15 C17 1_555 1_555
C18 C17 1_555 1_555
H16 C18 1_555 1_555
C19 C14 1_555 1_555
C20 C19 1_555 1_555
N1 C1 1_555 1_555
N2 C8 1_555 1_555
O1 C1 1_555 1_555
O2 C6 1_555 1_555
O3 C13 1_555 1_555
O4 C20 1_555 1_555
C21 H17 1_555 1_555
C22 C21 1_555 1_555
H18 C22 1_555 1_555
C23 C22 1_555 1_555
H19 C23 1_555 1_555
C24 C23 1_555 1_555
H20 C24 1_555 1_555
C25 C24 1_555 1_555
H21 C25 1_555 1_555
N3 C21 1_555 1_555
C2A C3 1_555 1_555
C1A C2A 1_555 1_555
N1A C1A 1_555 1_555
C6A N1A 1_555 1_555
C5A C4 1_555 1_555
O2A C6A 1_555 1_555
C7A N1A 1_555 1_555
H3A C7A 1_555 1_555
C8A C7A 1_555 1_555
H4A C8A 1_555 1_555
C9A C8A 1_555 1_555
H5A C9A 1_555 1_555
H6A C9A 1_555 1_555
C10A C9A 1_555 1_555
H7A C10A 1_555 1_555
H8A C10A 1_555 1_555
C11A C10A 1_555 1_555
H9A C11A 1_555 1_555
H10A C11A 1_555 1_555
C12A C7A 1_555 1_555
H11A C12A 1_555 1_555
H12A C12A 1_555 1_555
N2A C8A 1_555 1_555
C13A N2A 1_555 1_555
C14A C13A 1_555 1_555
C15A C14A 1_555 1_555
H13A C15A 1_555 1_555
C16A C15A 1_555 1_555
H14A C16A 1_555 1_555
C17A C16A 1_555 1_555
H15A C17A 1_555 1_555
C18A C17A 1_555 1_555
H16A C18A 1_555 1_555
C19A C14A 1_555 1_555
C20A N2A 1_555 1_555
O4A C20A 1_555 1_555
O3A C13A 1_555 1_555
O1A C1A 1_555 1_555
C4 C5 1_555 1_555
C6 N1 1_555 1_555
C7 N1 1_555 1_555
C11 C12 1_555 1_555
C13 N2 1_555 1_555
C18 C19 1_555 1_555
C20 N2 1_555 1_555
C25 N3 1_555 1_555
C2A C5A 1_555 1_555
C6A C5A 1_555 1_555
C11A C12A 1_555 1_555
C18A C19A 1_555 1_555
C19A C20A 1_555 1_555

#END
