
#######################################################################
#
#                 Cambridge Crystallographic Data Centre
#                                CCDC 
#
#######################################################################
#
# If this CIF has been generated from an entry in the Cambridge 
# Structural Database, then it will include bibliographic, chemical, 
# crystal, experimental, refinement or atomic coordinate data resulting 
# from the CCDC's data processing and validation procedures.
#
#######################################################################

data_IFAWIW
_chemical_formula_moiety         'C27 H29 N5 O2,C2 H6 O1'
_chemical_name_systematic        
'8-(N-Methoxyethanimidoyl)-2-methyl-11-(2-methylpropyl)-2,5,6,11,12,13-hexahydro-4H-indazolo(5,4-a)pyrrolo(3,4-c)carbazol-4-one ethanol solvate'
_chemical_properties_biological  
'potent, selective dual TIE-2/VEGF-R2 inhibitor with favourable pharmacokinetic properties; orally active in tumour models with no observed toxicity'
_symmetry_cell_setting           triclinic
_symmetry_space_group_name_H-M   'P -1'
_symmetry_Int_Tables_number      2
_space_group_name_Hall           '-P 1'
loop_
_symmetry_equiv_pos_site_id
_symmetry_equiv_pos_as_xyz
1 x,y,z
2 -x,-y,-z
_cell_length_a                   10.8639(14)
_cell_length_b                   11.0125(14)
_cell_length_c                   12.3386(15)
_cell_angle_alpha                98.129(2)
_cell_angle_beta                 115.816(2)
_cell_angle_gamma                93.933(2)
_cell_volume                     1301.39
_exptl_crystal_colour            colorless
_exptl_crystal_description       Block
_cell_formula_units_Z            2
loop_
_atom_site_label
_atom_site_type_symbol
_atom_site_fract_x
_atom_site_fract_y
_atom_site_fract_z
N1 N 0.74778(16) 0.24559(14) 0.04663(14)
N2 N 0.87751(16) 0.21508(13) 0.10385(14)
C1 C 0.9602(2) 0.29756(16) 0.20675(17)
H1 H 1.055(2) 0.2889(16) 0.2544(16)
C2 C 0.88248(18) 0.38794(15) 0.22027(16)
C3 C 0.91017(18) 0.50240(15) 0.30946(16)
C4 C 1.04437(17) 0.56538(15) 0.39247(15)
C5 C 1.18507(18) 0.53510(16) 0.41956(16)
N3 N 1.27623(17) 0.62933(14) 0.50566(14)
H2 H 1.365(2) 0.6291(19) 0.538(2)
C6 C 1.21271(18) 0.72542(18) 0.54573(18)
H3 H 1.2402(19) 0.8085(17) 0.5302(16)
H4 H 1.238(2) 0.7350(16) 0.6364(18)
C7 C 1.06238(18) 0.67744(15) 0.46832(15)
C8 C 0.95013(18) 0.72913(15) 0.46944(15)
C9 C 0.93760(18) 0.83743(15) 0.54104(15)
C10 C 1.03395(19) 0.93410(16) 0.63045(16)
H5 H 1.132(2) 0.9366(16) 0.6549(16)
C11 C 0.98989(19) 1.02576(16) 0.68832(16)
C12 C 0.8472(2) 1.01839(18) 0.65624(17)
H6 H 0.812(2) 1.0783(18) 0.6959(18)
C13 C 0.7507(2) 0.92352(18) 0.56777(17)
H7 H 0.654(2) 0.9232(16) 0.5523(17)
C14 C 0.79615(18) 0.83322(16) 0.50825(16)
C15 C 0.81529(17) 0.66400(15) 0.39165(15)
C16 C 0.79317(18) 0.55428(15) 0.30707(16)
N4 N 0.72124(14) 0.73052(13) 0.41641(13)
C17 C 0.64903(19) 0.48900(18) 0.21623(17)
H8 H 0.624(2) 0.4288(18) 0.2528(17)
H9 H 0.581(2) 0.5508(17) 0.2011(17)
C18 C 0.6379(2) 0.42479(19) 0.09414(18)
H10 H 0.547(2) 0.368(2) 0.042(2)
H11 H 0.646(2) 0.4907(19) 0.0478(19)
C19 C 0.75248(19) 0.34964(16) 0.11844(16)
C20 C 0.9143(3) 0.1092(2) 0.0467(2)
H12 H 0.921(2) 0.127(2) -0.026(2)
H13 H 0.847(3) 0.037(2) 0.027(2)
H14 H 1.002(3) 0.093(2) 0.099(2)
C21 C 0.57526(18) 0.68895(17) 0.38119(17)
H15 H 0.5622(16) 0.7198(14) 0.4548(15)
H16 H 0.5605(18) 0.5952(17) 0.3684(15)
O1 O 1.21875(13) 0.44299(11) 0.37524(12)
C22 C 0.47057(18) 0.73301(17) 0.26848(17)
H17 H 0.493(2) 0.7063(17) 0.2003(18)
C23 C 0.4717(2) 0.87221(19) 0.2874(2)
H18 H 0.405(2) 0.8940(18) 0.213(2)
H19 H 0.568(2) 0.9189(17) 0.3123(17)
H20 H 0.444(2) 0.9014(18) 0.3547(19)
C24 C 0.3273(2) 0.6664(2) 0.2340(2)
H21 H 0.308(3) 0.693(2) 0.305(2)
H22 H 0.323(2) 0.572(2) 0.2170(19)
H23 H 0.261(3) 0.691(2) 0.157(2)
C25 C 1.09072(19) 1.12921(16) 0.78326(16)
N5 N 1.03818(17) 1.21079(14) 0.82932(14)
O2 O 1.14069(14) 1.30485(12) 0.91927(13)
C26 C 1.2407(2) 1.1336(2) 0.8198(2)
H24 H 1.288(3) 1.195(3) 0.885(3)
H25 H 1.257(3) 1.135(2) 0.748(2)
H26 H 1.279(2) 1.053(2) 0.8549(19)
C27 C 1.0712(3) 1.3951(2) 0.9562(2)
H27 H 1.013(2) 1.4331(18) 0.886(2)
H28 H 1.148(3) 1.464(2) 1.017(2)
H29 H 1.022(3) 1.360(2) 1.004(2)
O3 O 0.57143(14) 0.64397(13) 0.65694(13)
H30 H 0.632(3) 0.609(2) 0.635(2)
C28 C 0.6495(2) 0.7182(3) 0.7743(2)
H31 H 0.7376 0.7530 0.7810
H32 H 0.6680 0.6666 0.8356
C29 C 0.5798(4) 0.8190(3) 0.7999(3)
H33 H 0.5619 0.8710 0.7400
H34 H 0.6375 0.8672 0.8802
H35 H 0.4939 0.7852 0.7963
loop_
_geom_bond_atom_site_label_1
_geom_bond_atom_site_label_2
_geom_bond_site_symmetry_1
_geom_bond_site_symmetry_2
N1 N2 1_555 1_555
N2 C1 1_555 1_555
C1 H1 1_555 1_555
C2 C1 1_555 1_555
C3 C2 1_555 1_555
C4 C3 1_555 1_555
C5 C4 1_555 1_555
N3 C5 1_555 1_555
H2 N3 1_555 1_555
C6 N3 1_555 1_555
H3 C6 1_555 1_555
H4 C6 1_555 1_555
C7 C4 1_555 1_555
C8 C7 1_555 1_555
C9 C8 1_555 1_555
C10 C9 1_555 1_555
H5 C10 1_555 1_555
C11 C10 1_555 1_555
C12 C11 1_555 1_555
H6 C12 1_555 1_555
C13 C12 1_555 1_555
H7 C13 1_555 1_555
C14 C9 1_555 1_555
C15 C8 1_555 1_555
C16 C3 1_555 1_555
N4 C14 1_555 1_555
C17 C16 1_555 1_555
H8 C17 1_555 1_555
H9 C17 1_555 1_555
C18 C17 1_555 1_555
H10 C18 1_555 1_555
H11 C18 1_555 1_555
C19 N1 1_555 1_555
C20 N2 1_555 1_555
H12 C20 1_555 1_555
H13 C20 1_555 1_555
H14 C20 1_555 1_555
C21 N4 1_555 1_555
H15 C21 1_555 1_555
H16 C21 1_555 1_555
O1 C5 1_555 1_555
C22 C21 1_555 1_555
H17 C22 1_555 1_555
C23 C22 1_555 1_555
H18 C23 1_555 1_555
H19 C23 1_555 1_555
H20 C23 1_555 1_555
C24 C22 1_555 1_555
H21 C24 1_555 1_555
H22 C24 1_555 1_555
H23 C24 1_555 1_555
C25 C11 1_555 1_555
N5 C25 1_555 1_555
O2 N5 1_555 1_555
C26 C25 1_555 1_555
H24 C26 1_555 1_555
H25 C26 1_555 1_555
H26 C26 1_555 1_555
C27 O2 1_555 1_555
H27 C27 1_555 1_555
H28 C27 1_555 1_555
H29 C27 1_555 1_555
O3 H30 1_555 1_555
C28 O3 1_555 1_555
H31 C28 1_555 1_555
H32 C28 1_555 1_555
C29 C28 1_555 1_555
H33 C29 1_555 1_555
H34 C29 1_555 1_555
H35 C29 1_555 1_555
C2 C19 1_555 1_555
C6 C7 1_555 1_555
C13 C14 1_555 1_555
C15 C16 1_555 1_555
C15 N4 1_555 1_555
C18 C19 1_555 1_555

#END
