
#######################################################################
#
#                 Cambridge Crystallographic Data Centre
#                                CCDC 
#
#######################################################################
#
# If this CIF has been generated from an entry in the Cambridge 
# Structural Database, then it will include bibliographic, chemical, 
# crystal, experimental, refinement or atomic coordinate data resulting 
# from the CCDC's data processing and validation procedures.
#
#######################################################################

data_IFAXUK
_chemical_formula_moiety         'C15 H24 N4 O1,0.5(C1 H2 Cl2)'
_chemical_name_systematic        
'1,3-Dicyclohexyl-N-nitroso-1,3-dihydro-2H-imidazol-2-imine dichloromethane solvate'
_symmetry_cell_setting           monoclinic
_symmetry_space_group_name_H-M   'C 2/c'
_symmetry_Int_Tables_number      15
_space_group_name_Hall           '-C 2yn'
loop_
_symmetry_equiv_pos_site_id
_symmetry_equiv_pos_as_xyz
1 x,y,z
2 -x,y,1/2-z
3 1/2+x,1/2+y,z
4 1/2-x,1/2+y,1/2-z
5 -x,-y,-z
6 x,-y,1/2+z
7 1/2-x,1/2-y,-z
8 1/2+x,1/2-y,1/2+z
_cell_length_a                   53.221(11)
_cell_length_b                   10.995(2)
_cell_length_c                   11.983(2)
_cell_angle_alpha                90
_cell_angle_beta                 98.86(3)
_cell_angle_gamma                90
_cell_volume                     6928.36
_exptl_crystal_colour            yellow
_exptl_crystal_description       plate
_cell_formula_units_Z            16
loop_
_atom_site_label
_atom_site_type_symbol
_atom_site_fract_x
_atom_site_fract_y
_atom_site_fract_z
O1 O 0.08260(4) 0.23498(18) 0.05702(17)
N1 N 0.09704(4) 0.5141(2) 0.29195(19)
N2 N 0.13106(4) 0.5447(2) 0.21331(19)
N3 N 0.10522(4) 0.3865(2) 0.1263(2)
N4 N 0.08658(5) 0.3137(2) 0.1356(2)
C1 C 0.10987(5) 0.4746(3) 0.2084(2)
C2 C 0.11115(5) 0.6079(3) 0.3506(2)
H1 H 0.1067 0.6509 0.4135
C3 C 0.13197(6) 0.6267(3) 0.3025(2)
H2 H 0.1449 0.6850 0.3250
C4 C 0.07259(5) 0.4666(3) 0.3219(2)
H3 H 0.0646 0.4123 0.2594
C5 C 0.07843(6) 0.3903(3) 0.4302(3)
H4 H 0.0891 0.3197 0.4164
H5 H 0.0881 0.4401 0.4909
C6 C 0.05383(6) 0.3450(3) 0.4683(3)
H6 H 0.0453 0.2863 0.4123
H7 H 0.0580 0.3024 0.5416
C7 C 0.03579(6) 0.4505(3) 0.4806(3)
H8 H 0.0437 0.5056 0.5414
H9 H 0.0198 0.4185 0.5020
C8 C 0.02986(6) 0.5212(3) 0.3698(3)
H10 H 0.0182 0.5894 0.3795
H11 H 0.0212 0.4670 0.3100
C9 C 0.05424(6) 0.5713(3) 0.3336(3)
H12 H 0.0501 0.6143 0.2605
H13 H 0.0624 0.6301 0.3905
C10 C 0.14926(5) 0.5401(3) 0.1301(2)
H14 H 0.1424 0.4814 0.0693
C11 C 0.15083(6) 0.6650(3) 0.0754(3)
H15 H 0.1574 0.7255 0.1338
H16 H 0.1337 0.6910 0.0396
C12 C 0.16861(6) 0.6586(3) -0.0141(3)
H17 H 0.1612 0.6036 -0.0759
H18 H 0.1702 0.7405 -0.0466
C13 C 0.19484(6) 0.6124(3) 0.0377(3)
H19 H 0.2029 0.6721 0.0939
H20 H 0.2056 0.6049 -0.0222
C14 C 0.19321(6) 0.4882(3) 0.0954(3)
H21 H 0.1868 0.4265 0.0378
H22 H 0.2104 0.4631 0.1317
C15 C 0.17538(6) 0.4942(3) 0.1848(3)
H23 H 0.1737 0.4124 0.2174
H24 H 0.1826 0.5497 0.2466
O2 O 0.19430(4) 0.7490(2) 0.39853(19)
N5 N 0.14048(5) 1.0258(2) 0.2241(2)
N6 N 0.17944(5) 1.0484(2) 0.1888(2)
N7 N 0.16995(5) 0.8969(2) 0.3345(2)
N8 N 0.18966(5) 0.8292(2) 0.3225(2)
C16 C 0.16469(6) 0.9845(3) 0.2522(3)
C17 C 0.13999(6) 1.1139(3) 0.1410(3)
H25 H 0.1254 1.1571 0.1063
C18 C 0.16385(6) 1.1278(3) 0.1180(3)
H26 H 0.1691 1.1814 0.0638
C19 C 0.11828(6) 0.9808(3) 0.2740(3)
H27 H 0.1239 0.9100 0.3239
C20 C 0.09763(6) 0.9375(3) 0.1798(3)
H28 H 0.0935 1.0037 0.1241
H29 H 0.1041 0.8677 0.1405
C21 C 0.07356(6) 0.8993(3) 0.2245(3)
H30 H 0.0771 0.8267 0.2732
H31 H 0.0603 0.8773 0.1604
C22 C 0.06387(6) 1.0026(3) 0.2923(3)
H32 H 0.0593 1.0736 0.2426
H33 H 0.0485 0.9757 0.3225
C23 C 0.08435(6) 1.0382(3) 0.3887(3)
H34 H 0.0883 0.9677 0.4398
H35 H 0.0780 1.1046 0.4325
C24 C 0.10877(6) 1.0804(3) 0.3462(3)
H36 H 0.1053 1.1555 0.3008
H37 H 0.1220 1.0990 0.4113
C25 C 0.20732(5) 1.0377(3) 0.1895(3)
H38 H 0.2148 0.9932 0.2596
C26 C 0.21979(6) 1.1632(3) 0.1917(3)
H39 H 0.2168 1.2078 0.2603
H40 H 0.2121 1.2106 0.1249
C27 C 0.24844(6) 1.1493(3) 0.1913(3)
H41 H 0.2563 1.2308 0.1905
H42 H 0.2562 1.1071 0.2611
C28 C 0.25374(6) 1.0769(3) 0.0884(3)
H43 H 0.2723 1.0668 0.0916
H44 H 0.2472 1.1222 0.0186
C29 C 0.24103(6) 0.9512(3) 0.0850(3)
H45 H 0.2438 0.9079 0.0155
H46 H 0.2490 0.9026 0.1507
C30 C 0.21236(6) 0.9628(3) 0.0875(3)
H47 H 0.2041 1.0024 0.0172
H48 H 0.2049 0.8807 0.0912
C31 C -0.02466(7) 0.8532(4) -0.0252(3)
H49 H -0.0413 0.8256 -0.0074
H50 H -0.0266 0.9384 -0.0518
Cl1 Cl -0.001846(19) 0.84768(10) 0.09924(9)
Cl2 Cl -0.01613(2) 0.76268(16) -0.13291(10)
loop_
_geom_bond_atom_site_label_1
_geom_bond_atom_site_label_2
_geom_bond_site_symmetry_1
_geom_bond_site_symmetry_2
O1 N4 1_555 1_555
N1 C1 1_555 1_555
N2 C1 1_555 1_555
N3 N4 1_555 1_555
C1 N3 1_555 1_555
C2 N1 1_555 1_555
H1 C2 1_555 1_555
C3 N2 1_555 1_555
H2 C3 1_555 1_555
C4 N1 1_555 1_555
H3 C4 1_555 1_555
C5 C4 1_555 1_555
H4 C5 1_555 1_555
H5 C5 1_555 1_555
C6 C5 1_555 1_555
H6 C6 1_555 1_555
H7 C6 1_555 1_555
C7 C6 1_555 1_555
H8 C7 1_555 1_555
H9 C7 1_555 1_555
C8 C7 1_555 1_555
H10 C8 1_555 1_555
H11 C8 1_555 1_555
C9 C4 1_555 1_555
H12 C9 1_555 1_555
H13 C9 1_555 1_555
C10 N2 1_555 1_555
H14 C10 1_555 1_555
C11 C10 1_555 1_555
H15 C11 1_555 1_555
H16 C11 1_555 1_555
C12 C11 1_555 1_555
H17 C12 1_555 1_555
H18 C12 1_555 1_555
C13 C12 1_555 1_555
H19 C13 1_555 1_555
H20 C13 1_555 1_555
C14 C13 1_555 1_555
H21 C14 1_555 1_555
H22 C14 1_555 1_555
C15 C10 1_555 1_555
H23 C15 1_555 1_555
H24 C15 1_555 1_555
O2 N8 1_555 1_555
N5 C16 1_555 1_555
N6 C16 1_555 1_555
N7 N8 1_555 1_555
C16 N7 1_555 1_555
C17 N5 1_555 1_555
H25 C17 1_555 1_555
C18 N6 1_555 1_555
H26 C18 1_555 1_555
C19 N5 1_555 1_555
H27 C19 1_555 1_555
C20 C19 1_555 1_555
H28 C20 1_555 1_555
H29 C20 1_555 1_555
C21 C20 1_555 1_555
H30 C21 1_555 1_555
H31 C21 1_555 1_555
C22 C21 1_555 1_555
H32 C22 1_555 1_555
H33 C22 1_555 1_555
C23 C22 1_555 1_555
H34 C23 1_555 1_555
H35 C23 1_555 1_555
C24 C19 1_555 1_555
H36 C24 1_555 1_555
H37 C24 1_555 1_555
C25 N6 1_555 1_555
H38 C25 1_555 1_555
C26 C25 1_555 1_555
H39 C26 1_555 1_555
H40 C26 1_555 1_555
C27 C26 1_555 1_555
H41 C27 1_555 1_555
H42 C27 1_555 1_555
C28 C27 1_555 1_555
H43 C28 1_555 1_555
H44 C28 1_555 1_555
C29 C28 1_555 1_555
H45 C29 1_555 1_555
H46 C29 1_555 1_555
C30 C25 1_555 1_555
H47 C30 1_555 1_555
H48 C30 1_555 1_555
C31 H49 1_555 1_555
H50 C31 1_555 1_555
Cl1 C31 1_555 1_555
Cl2 C31 1_555 1_555
C2 C3 1_555 1_555
C8 C9 1_555 1_555
C14 C15 1_555 1_555
C17 C18 1_555 1_555
C23 C24 1_555 1_555
C29 C30 1_555 1_555

#END
