
#######################################################################
#
#                 Cambridge Crystallographic Data Centre
#                                CCDC 
#
#######################################################################
#
# If this CIF has been generated from an entry in the Cambridge 
# Structural Database, then it will include bibliographic, chemical, 
# crystal, experimental, refinement or atomic coordinate data resulting 
# from the CCDC's data processing and validation procedures.
#
#######################################################################

data_IFAZAS
_chemical_formula_moiety         'C21 H26 N3 1+,C7 H7 O3 S1 1-'
_chemical_name_systematic        
'1,3-Dimesityl-1,3-dihydro-2H-imidazol-2-iminium 4-methylbenzenesulfonate'
_symmetry_cell_setting           monoclinic
_symmetry_space_group_name_H-M   'P 21/n'
_symmetry_Int_Tables_number      14
_space_group_name_Hall           '-P 2yn'
loop_
_symmetry_equiv_pos_site_id
_symmetry_equiv_pos_as_xyz
1 x,y,z
2 1/2-x,1/2+y,1/2-z
3 -x,-y,-z
4 1/2+x,1/2-y,1/2+z
_cell_length_a                   12.9921(19)
_cell_length_b                   15.555(2)
_cell_length_c                   13.6282(10)
_cell_angle_alpha                90
_cell_angle_beta                 107.073(9)
_cell_angle_gamma                90
_cell_volume                     2632.78
_exptl_crystal_colour            colorless
_exptl_crystal_description       prismatic
_cell_formula_units_Z            4
loop_
_atom_site_label
_atom_site_type_symbol
_atom_site_fract_x
_atom_site_fract_y
_atom_site_fract_z
N1 N 0.16981(19) 0.47535(15) 0.72634(17)
N2 N 0.22393(19) 0.53523(14) 0.87764(17)
N3 N 0.1390(2) 0.39662(16) 0.86602(19)
H1 H 0.150(3) 0.396(2) 0.9346(19)
H2 H 0.149(3) 0.3429(17) 0.844(2)
C1 C 0.1768(2) 0.46473(17) 0.8265(2)
C2 C 0.2154(2) 0.55515(18) 0.7147(2)
H3 H 0.2218 0.5786 0.6524
C3 C 0.2483(2) 0.59216(19) 0.8075(2)
H4 H 0.2820 0.6468 0.8230
C4 C 0.1245(2) 0.41449(17) 0.6437(2)
C5 C 0.0130(2) 0.40451(18) 0.6066(2)
C6 C -0.0273(2) 0.34768(18) 0.5249(2)
H5 H -0.1028 0.3386 0.4998
C7 C 0.0404(2) 0.30383(18) 0.4791(2)
C8 C 0.1513(2) 0.31610(18) 0.5187(2)
H6 H 0.1979 0.2861 0.4883
C9 C 0.1964(2) 0.37085(18) 0.6014(2)
C10 C -0.0629(2) 0.4553(2) 0.6500(2)
H7 H -0.1372 0.4458 0.6076
H8 H -0.0456 0.5167 0.6500
H9 H -0.0550 0.4365 0.7204
C11 C -0.0065(3) 0.24579(19) 0.3873(2)
H10 H 0.0090 0.2700 0.3267
H11 H -0.0846 0.2413 0.3744
H12 H 0.0259 0.1885 0.4014
C12 C 0.3171(2) 0.3853(2) 0.6412(2)
H13 H 0.3540 0.3439 0.6091
H14 H 0.3411 0.3774 0.7159
H15 H 0.3340 0.4439 0.6245
C13 C 0.2558(2) 0.54783(17) 0.98855(19)
C14 C 0.3435(2) 0.50198(17) 1.0502(2)
C15 C 0.3791(2) 0.52295(18) 1.1544(2)
H16 H 0.4389 0.4931 1.1980
C16 C 0.3288(2) 0.58674(18) 1.1960(2)
C17 C 0.2386(2) 0.62773(18) 1.1325(2)
H17 H 0.2022 0.6693 1.1612
C18 C 0.2000(2) 0.60953(18) 1.0277(2)
C19 C 0.3985(3) 0.43106(19) 1.0069(2)
H18 H 0.3538 0.3791 0.9958
H19 H 0.4690 0.4185 1.0556
H20 H 0.4080 0.4500 0.9416
C20 C 0.3732(3) 0.6118(2) 1.3083(2)
H21 H 0.3964 0.6720 1.3134
H22 H 0.4347 0.5749 1.3416
H23 H 0.3170 0.6045 1.3425
C21 C 0.1001(3) 0.6534(2) 0.9598(3)
H24 H 0.0696 0.6910 1.0018
H25 H 0.0469 0.6098 0.9264
H26 H 0.1193 0.6876 0.9074
S1 S 0.14186(5) 0.18784(4) 0.92251(5)
O1 O 0.18646(15) 0.22251(12) 0.84256(14)
O2 O 0.18834(16) 0.10518(13) 0.96313(15)
O3 O 0.14443(16) 0.25148(13) 1.00206(15)
C22 C 0.0032(2) 0.16885(17) 0.8589(2)
C23 C -0.0577(2) 0.11992(18) 0.9080(2)
H27 H -0.0244 0.0956 0.9736
C24 C -0.1657(2) 0.10708(19) 0.8610(2)
H28 H -0.2064 0.0736 0.8946
C25 C -0.2170(2) 0.14254(17) 0.7642(2)
C26 C -0.1560(2) 0.19219(18) 0.7166(2)
H29 H -0.1898 0.2174 0.6516
C27 C -0.0463(2) 0.20530(17) 0.7628(2)
H30 H -0.0055 0.2387 0.7292
C28 C -0.3346(2) 0.1251(2) 0.7111(2)
H31 H -0.3609 0.1652 0.6537
H32 H -0.3761 0.1328 0.7600
H33 H -0.3432 0.0660 0.6852
loop_
_geom_bond_atom_site_label_1
_geom_bond_atom_site_label_2
_geom_bond_site_symmetry_1
_geom_bond_site_symmetry_2
N1 C1 1_555 1_555
N2 C1 1_555 1_555
N3 H1 1_555 1_555
H2 N3 1_555 1_555
C1 N3 1_555 1_555
C2 N1 1_555 1_555
H3 C2 1_555 1_555
C3 N2 1_555 1_555
H4 C3 1_555 1_555
C4 N1 1_555 1_555
C5 C4 1_555 1_555
C6 C5 1_555 1_555
H5 C6 1_555 1_555
C7 C6 1_555 1_555
C8 C7 1_555 1_555
H6 C8 1_555 1_555
C9 C4 1_555 1_555
C10 C5 1_555 1_555
H7 C10 1_555 1_555
H8 C10 1_555 1_555
H9 C10 1_555 1_555
C11 C7 1_555 1_555
H10 C11 1_555 1_555
H11 C11 1_555 1_555
H12 C11 1_555 1_555
C12 C9 1_555 1_555
H13 C12 1_555 1_555
H14 C12 1_555 1_555
H15 C12 1_555 1_555
C13 N2 1_555 1_555
C14 C13 1_555 1_555
C15 C14 1_555 1_555
H16 C15 1_555 1_555
C16 C15 1_555 1_555
C17 C16 1_555 1_555
H17 C17 1_555 1_555
C18 C13 1_555 1_555
C19 C14 1_555 1_555
H18 C19 1_555 1_555
H19 C19 1_555 1_555
H20 C19 1_555 1_555
C20 C16 1_555 1_555
H21 C20 1_555 1_555
H22 C20 1_555 1_555
H23 C20 1_555 1_555
C21 C18 1_555 1_555
H24 C21 1_555 1_555
H25 C21 1_555 1_555
H26 C21 1_555 1_555
S1 O1 1_555 1_555
O2 S1 1_555 1_555
O3 S1 1_555 1_555
C22 S1 1_555 1_555
C23 C22 1_555 1_555
H27 C23 1_555 1_555
C24 C23 1_555 1_555
H28 C24 1_555 1_555
C25 C24 1_555 1_555
C26 C25 1_555 1_555
H29 C26 1_555 1_555
C27 C22 1_555 1_555
H30 C27 1_555 1_555
C28 C25 1_555 1_555
H31 C28 1_555 1_555
H32 C28 1_555 1_555
H33 C28 1_555 1_555
C2 C3 1_555 1_555
C8 C9 1_555 1_555
C17 C18 1_555 1_555
C26 C27 1_555 1_555

#END
