
#######################################################################
#
#                 Cambridge Crystallographic Data Centre
#                                CCDC 
#
#######################################################################
#
# If this CIF has been generated from an entry in the Cambridge 
# Structural Database, then it will include bibliographic, chemical, 
# crystal, experimental, refinement or atomic coordinate data resulting 
# from the CCDC's data processing and validation procedures.
#
#######################################################################

data_IFERIX
_chemical_formula_moiety         'C18 H12 F2 S1'
_chemical_name_systematic        2-[2,2-bis(4-fluorophenyl)ethenyl]thiophene
_symmetry_cell_setting           orthorhombic
_symmetry_space_group_name_H-M   'P b c a'
_symmetry_Int_Tables_number      61
_space_group_name_Hall           '-P 2ac 2ab'
loop_
_symmetry_equiv_pos_site_id
_symmetry_equiv_pos_as_xyz
1 x,y,z
2 1/2-x,-y,1/2+z
3 -x,1/2+y,1/2-z
4 1/2+x,1/2-y,-z
5 -x,-y,-z
6 1/2+x,y,1/2-z
7 x,1/2-y,1/2+z
8 1/2-x,1/2+y,z
_cell_length_a                   9.2899(3)
_cell_length_b                   19.4917(7)
_cell_length_c                   31.1683(11)
_cell_angle_alpha                90
_cell_angle_beta                 90
_cell_angle_gamma                90
_cell_volume                     5643.83
_exptl_crystal_colour            colorless
_exptl_crystal_description       block
_cell_formula_units_Z            16
loop_
_atom_site_label
_atom_site_type_symbol
_atom_site_fract_x
_atom_site_fract_y
_atom_site_fract_z
S1 S 0.84807(9) 0.34368(5) 0.27839(3)
F1 F 0.9153(2) 0.61165(12) 0.24873(8)
F2 F 0.0446(2) 0.51497(15) 0.39623(7)
C1 C 0.5825(3) 0.34654(19) 0.32348(10)
H1 H 0.5128 0.3195 0.3367
C2 C 0.5542(3) 0.41507(18) 0.32258(9)
C3 C 0.4180(3) 0.44128(18) 0.34118(10)
C4 C 0.6551(3) 0.46558(19) 0.30319(10)
C5 C 0.2898(3) 0.4042(2) 0.33868(11)
H2 H 0.2888 0.3622 0.3246
C6 C 0.7052(3) 0.31001(18) 0.30685(10)
C7 C 0.6379(3) 0.4841(2) 0.26016(10)
H3 H 0.5664 0.4633 0.2438
C8 C 0.7641(4) 0.4959(2) 0.32713(11)
H4 H 0.7778 0.4830 0.3556
C9 C 0.7261(4) 0.5329(2) 0.24165(11)
H5 H 0.7149 0.5453 0.2130
C10 C 0.8306(4) 0.56251(19) 0.26665(12)
C11 C 0.4157(4) 0.50502(19) 0.36167(11)
H6 H 0.4992 0.5313 0.3628
C12 C 0.7200(3) 0.2392(2) 0.30963(12)
H7 H 0.6547 0.2112 0.3240
C13 C 0.1629(4) 0.4291(2) 0.35701(12)
H8 H 0.0775 0.4044 0.3550
C14 C 0.8523(3) 0.54506(19) 0.30907(12)
H9 H 0.9245 0.5659 0.3251
C15 C 0.1672(4) 0.4905(2) 0.37787(11)
C16 C 0.2902(4) 0.5297(2) 0.38045(11)
H10 H 0.2893 0.5719 0.3945
C17 C 0.9229(4) 0.2641(2) 0.27039(13)
H11 H 1.0078 0.2566 0.2553
C18 C 0.8440(4) 0.2137(2) 0.28856(14)
H12 H 0.8683 0.1675 0.2874
S2 S 1.21673(9) 0.61255(6) 0.49038(3)
F3 F 0.6094(3) 0.83453(14) 0.66470(8)
F4 F 0.7037(3) 0.60217(16) 0.40353(9)
C19 C 1.3537(4) 0.61181(18) 0.56327(11)
H13 H 1.3767 0.6155 0.5922
C20 C 0.9065(3) 0.65716(18) 0.51541(11)
C21 C 0.9689(4) 0.67778(18) 0.55795(11)
C22 C 0.8750(4) 0.7194(2) 0.58667(11)
C23 C 0.7257(4) 0.7247(2) 0.57832(12)
H14 H 0.6865 0.7019 0.5548
C24 C 0.8684(4) 0.7071(2) 0.48554(11)
H15 H 0.8889 0.7530 0.4910
C25 C 1.2169(4) 0.6278(2) 0.54504(11)
C26 C 1.1022(4) 0.65852(19) 0.56984(11)
H16 H 1.1240 0.6662 0.5986
C27 C 0.6963(4) 0.7966(2) 0.63909(13)
C28 C 0.7720(4) 0.6194(2) 0.44064(12)
C29 C 1.4509(4) 0.5891(2) 0.53027(13)
H17 H 1.5459 0.5768 0.5357
C30 C 0.6378(4) 0.7631(2) 0.60464(12)
H18 H 0.5398 0.7663 0.5990
C31 C 0.8770(4) 0.5888(2) 0.50696(12)
H19 H 0.9026 0.5553 0.5267
C32 C 0.7998(4) 0.6887(2) 0.44758(12)
H20 H 0.7734 0.7216 0.4275
C33 C 0.8089(4) 0.5703(2) 0.46893(13)
H21 H 0.7892 0.5245 0.4631
C34 C 1.3922(4) 0.5872(2) 0.49066(12)
H22 H 1.4420 0.5735 0.4662
C35 C 0.8408(4) 0.7933(2) 0.64856(15)
H23 H 0.8781 0.8166 0.6721
C36 C 0.9296(4) 0.7546(2) 0.62216(14)
H24 H 1.0274 0.7520 0.6282
loop_
_geom_bond_atom_site_label_1
_geom_bond_atom_site_label_2
_geom_bond_site_symmetry_1
_geom_bond_site_symmetry_2
S1 C6 1_555 1_555
F1 C10 1_555 1_555
F2 C15 1_555 1_555
C1 H1 1_555 1_555
C2 C1 1_555 1_555
C3 C2 1_555 1_555
C4 C2 1_555 1_555
C5 C3 1_555 1_555
H2 C5 1_555 1_555
C6 C1 1_555 1_555
C7 C4 1_555 1_555
H3 C7 1_555 1_555
C8 C4 1_555 1_555
H4 C8 1_555 1_555
C9 C7 1_555 1_555
H5 C9 1_555 1_555
C10 C9 1_555 1_555
C11 C3 1_555 1_555
H6 C11 1_555 1_555
C12 C6 1_555 1_555
H7 C12 1_555 1_555
C13 C5 1_555 1_555
H8 C13 1_555 1_555
C14 C8 1_555 1_555
H9 C14 1_555 1_555
C15 C13 1_555 1_555
C16 C11 1_555 1_555
H10 C16 1_555 1_555
C17 S1 1_555 1_555
H11 C17 1_555 1_555
C18 C12 1_555 1_555
H12 C18 1_555 1_555
S2 C25 1_555 1_555
F3 C27 1_555 1_555
F4 C28 1_555 1_555
C19 H13 1_555 1_555
C20 C21 1_555 1_555
C21 C22 1_555 1_555
C22 C23 1_555 1_555
C23 H14 1_555 1_555
C24 C20 1_555 1_555
H15 C24 1_555 1_555
C25 C19 1_555 1_555
C26 C21 1_555 1_555
H16 C26 1_555 1_555
C27 C30 1_555 1_555
C28 C32 1_555 1_555
C29 C19 1_555 1_555
H17 C29 1_555 1_555
C30 C23 1_555 1_555
H18 C30 1_555 1_555
C31 C20 1_555 1_555
H19 C31 1_555 1_555
C32 C24 1_555 1_555
H20 C32 1_555 1_555
C33 C28 1_555 1_555
H21 C33 1_555 1_555
C34 S2 1_555 1_555
H22 C34 1_555 1_555
C35 C27 1_555 1_555
H23 C35 1_555 1_555
C36 C22 1_555 1_555
H24 C36 1_555 1_555
C10 C14 1_555 1_555
C15 C16 1_555 1_555
C17 C18 1_555 1_555
C25 C26 1_555 1_555
C29 C34 1_555 1_555
C31 C33 1_555 1_555
C35 C36 1_555 1_555

#END
