
#######################################################################
#
#                 Cambridge Crystallographic Data Centre
#                                CCDC 
#
#######################################################################
#
# If this CIF has been generated from an entry in the Cambridge 
# Structural Database, then it will include bibliographic, chemical, 
# crystal, experimental, refinement or atomic coordinate data resulting 
# from the CCDC's data processing and validation procedures.
#
#######################################################################

data_IFIBIL
_chemical_formula_moiety         'C29 H20 N2 O1'
_chemical_name_systematic        
(2-methyl-11-phenylindolo[1,2-b]cinnolin-12-yl)(phenyl)methanone
_symmetry_cell_setting           triclinic
_symmetry_space_group_name_H-M   'P -1'
_symmetry_Int_Tables_number      2
_space_group_name_Hall           '-P 1'
loop_
_symmetry_equiv_pos_site_id
_symmetry_equiv_pos_as_xyz
1 x,y,z
2 -x,-y,-z
_cell_length_a                   7.567(8)
_cell_length_b                   11.087(9)
_cell_length_c                   13.547(16)
_cell_angle_alpha                96.83(4)
_cell_angle_beta                 100.35(7)
_cell_angle_gamma                106.71(3)
_cell_volume                     1053.13
_exptl_crystal_colour            'dark purple'
_exptl_crystal_description       block
_cell_formula_units_Z            2
loop_
_atom_site_label
_atom_site_type_symbol
_atom_site_fract_x
_atom_site_fract_y
_atom_site_fract_z
C1 C 0.1844(4) 0.4307(3) 0.51297(19)
C2 C 0.1889(4) 0.4629(3) 0.6168(2)
H1 H 0.2475 0.5461 0.6526
C3 C 0.1027(4) 0.3655(3) 0.6633(2)
H2 H 0.1026 0.3843 0.7321
C4 C 0.0141(4) 0.2379(3) 0.6105(2)
C5 C -0.0723(5) 0.1349(3) 0.6674(3)
H3 H -0.1465 0.0583 0.6195
H4 H -0.1519 0.1636 0.7060
H5 H 0.0266 0.1175 0.7128
C6 C 0.0098(4) 0.2089(3) 0.5084(2)
H6 H -0.0490 0.1254 0.4731
C7 C 0.0949(4) 0.3064(3) 0.45687(19)
C8 C 0.1225(4) 0.3061(2) 0.35497(19)
C9 C 0.0712(4) 0.1884(2) 0.27880(19)
C10 C 0.2182(4) 0.1635(2) 0.22592(19)
C11 C 0.4084(4) 0.2152(3) 0.2721(2)
H7 H 0.4463 0.2708 0.3346
C12 C 0.5432(5) 0.1848(3) 0.2259(3)
H8 H 0.6709 0.2188 0.2577
C13 C 0.4876(6) 0.1043(4) 0.1329(3)
H9 H 0.5778 0.0854 0.1010
C14 C 0.2992(6) 0.0521(4) 0.0871(3)
H10 H 0.2621 -0.0025 0.0243
C15 C 0.1638(5) 0.0797(3) 0.1335(2)
H11 H 0.0360 0.0421 0.1027
C16 C 0.2247(4) 0.4323(2) 0.35005(19)
C17 C 0.2782(4) 0.4985(3) 0.2717(2)
C18 C 0.3802(4) 0.6292(3) 0.2980(2)
C19 C 0.4435(5) 0.7079(3) 0.2261(3)
H12 H 0.4160 0.6713 0.1574
C20 C 0.5417(5) 0.8335(3) 0.2559(3)
H13 H 0.5823 0.8818 0.2079
C21 C 0.5837(5) 0.8927(3) 0.3599(3)
H14 H 0.6515 0.9794 0.3791
C22 C 0.5266(5) 0.8249(3) 0.4312(3)
H15 H 0.5554 0.8653 0.4990
C23 C 0.4216(4) 0.6907(3) 0.4031(2)
C24 C 0.2111(6) 0.4313(3) 0.1641(3)
C25 C 0.0150(7) 0.3822(4) 0.1239(3)
H16 H -0.0677 0.3917 0.1652
C26 C -0.0560(7) 0.3205(4) 0.0247(3)
H17 H -0.1860 0.2879 -0.0016
C27 C 0.0654(7) 0.3077(4) -0.0346(3)
H18 H 0.0160 0.2670 -0.1022
C28 C 0.2558(7) 0.3515(4) 0.0000(3)
H19 H 0.3347 0.3394 -0.0430
C29 C 0.3342(7) 0.4162(4) 0.1028(3)
H20 H 0.4646 0.4475 0.1281
N1 N 0.2635(3) 0.5064(2) 0.44828(16)
N2 N 0.3607(3) 0.6320(2) 0.47670(18)
O1 O -0.0833(3) 0.1061(2) 0.26473(17)
loop_
_geom_bond_atom_site_label_1
_geom_bond_atom_site_label_2
_geom_bond_site_symmetry_1
_geom_bond_site_symmetry_2
C1 C2 1_555 1_555
C2 H1 1_555 1_555
C3 C2 1_555 1_555
H2 C3 1_555 1_555
C4 C3 1_555 1_555
C5 C4 1_555 1_555
H3 C5 1_555 1_555
H4 C5 1_555 1_555
H5 C5 1_555 1_555
C6 C4 1_555 1_555
H6 C6 1_555 1_555
C7 C1 1_555 1_555
C8 C7 1_555 1_555
C9 C8 1_555 1_555
C10 C9 1_555 1_555
C11 C10 1_555 1_555
H7 C11 1_555 1_555
C12 C11 1_555 1_555
H8 C12 1_555 1_555
C13 C12 1_555 1_555
H9 C13 1_555 1_555
C14 C13 1_555 1_555
H10 C14 1_555 1_555
C15 C10 1_555 1_555
H11 C15 1_555 1_555
C16 C8 1_555 1_555
C17 C16 1_555 1_555
C18 C17 1_555 1_555
C19 C18 1_555 1_555
H12 C19 1_555 1_555
C20 C19 1_555 1_555
H13 C20 1_555 1_555
C21 C20 1_555 1_555
H14 C21 1_555 1_555
C22 C21 1_555 1_555
H15 C22 1_555 1_555
C23 C18 1_555 1_555
C24 C17 1_555 1_555
C25 C24 1_555 1_555
H16 C25 1_555 1_555
C26 C25 1_555 1_555
H17 C26 1_555 1_555
C27 C26 1_555 1_555
H18 C27 1_555 1_555
C28 C27 1_555 1_555
H19 C28 1_555 1_555
C29 C24 1_555 1_555
H20 C29 1_555 1_555
N1 C1 1_555 1_555
N2 C23 1_555 1_555
O1 C9 1_555 1_555
C6 C7 1_555 1_555
C14 C15 1_555 1_555
C16 N1 1_555 1_555
C22 C23 1_555 1_555
C28 C29 1_555 1_555
N1 N2 1_555 1_555

#END
