
#######################################################################
#
#                 Cambridge Crystallographic Data Centre
#                                CCDC 
#
#######################################################################
#
# If this CIF has been generated from an entry in the Cambridge 
# Structural Database, then it will include bibliographic, chemical, 
# crystal, experimental, refinement or atomic coordinate data resulting 
# from the CCDC's data processing and validation procedures.
#
#######################################################################

data_IFICAE
_chemical_formula_moiety         'C12 H10 N2 O2'
_chemical_name_systematic        '6-(phenylamino)pyridine-3-carboxylic acid'
_symmetry_cell_setting           orthorhombic
_symmetry_space_group_name_H-M   'P b c a'
_symmetry_Int_Tables_number      61
_space_group_name_Hall           '-P 2ac 2ab'
loop_
_symmetry_equiv_pos_site_id
_symmetry_equiv_pos_as_xyz
1 x,y,z
2 1/2-x,-y,1/2+z
3 1/2+x,1/2-y,-z
4 -x,1/2+y,1/2-z
5 -x,-y,-z
6 1/2+x,y,1/2-z
7 1/2-x,1/2+y,z
8 x,1/2-y,1/2+z
_cell_length_a                   13.8359(2)
_cell_length_b                   7.1891(4)
_cell_length_c                   20.9809(6)
_cell_angle_alpha                90
_cell_angle_beta                 90
_cell_angle_gamma                90
_cell_volume                     2086.92
_exptl_crystal_colour            colorless
_exptl_crystal_description       plate
_cell_formula_units_Z            8
loop_
_atom_site_label
_atom_site_type_symbol
_atom_site_fract_x
_atom_site_fract_y
_atom_site_fract_z
N1 N 0.27580(16) 0.2289(3) 0.45445(10)
C1 C 0.19593(18) 0.2578(4) 0.48968(13)
H1 H 0.203791 0.304026 0.531784
C2 C 0.10340(19) 0.2244(4) 0.46823(12)
C3 C 0.09425(19) 0.1511(4) 0.40701(12)
H2 H 0.031905 0.121853 0.390909
C4 C 0.17398(18) 0.1207(4) 0.36982(12)
H3 H 0.167320 0.071244 0.328059
C5 C 0.26578(19) 0.1636(4) 0.39430(12)
N2 N 0.34984(17) 0.1387(3) 0.36148(10)
H4 H 0.4056(19) 0.145(4) 0.3850(12)
C6 C 0.3579(2) 0.0923(4) 0.29627(12)
C7 C 0.4291(2) -0.0320(4) 0.27729(13)
H5 H 0.471871 -0.084214 0.307867
C8 C 0.4375(2) -0.0794(4) 0.21360(13)
H6 H 0.486732 -0.163433 0.200706
C9 C 0.3755(2) -0.0065(4) 0.16852(13)
H7 H 0.380197 -0.044140 0.125227
C10 C 0.3070(2) 0.1211(4) 0.18690(13)
H8 H 0.265269 0.174503 0.155967
C11 C 0.2986(2) 0.1722(4) 0.25023(13)
H9 H 0.252053 0.262583 0.262364
C12 C 0.0186(2) 0.2579(4) 0.50913(13)
O1 O 0.02404(13) 0.3227(3) 0.56299(9)
O2 O -0.06398(13) 0.2086(3) 0.48223(8)
H10 H -0.123(2) 0.245(4) 0.5136(13)
loop_
_geom_bond_atom_site_label_1
_geom_bond_atom_site_label_2
_geom_bond_site_symmetry_1
_geom_bond_site_symmetry_2
N1 C1 1_555 1_555
C1 H1 1_555 1_555
C2 C1 1_555 1_555
C3 C2 1_555 1_555
H2 C3 1_555 1_555
C4 C3 1_555 1_555
H3 C4 1_555 1_555
C5 N1 1_555 1_555
N2 C5 1_555 1_555
H4 N2 1_555 1_555
C6 N2 1_555 1_555
C7 C6 1_555 1_555
H5 C7 1_555 1_555
C8 C7 1_555 1_555
H6 C8 1_555 1_555
C9 C8 1_555 1_555
H7 C9 1_555 1_555
C10 C9 1_555 1_555
H8 C10 1_555 1_555
C11 C6 1_555 1_555
H9 C11 1_555 1_555
C12 C2 1_555 1_555
O1 C12 1_555 1_555
O2 C12 1_555 1_555
H10 O2 1_555 1_555
C4 C5 1_555 1_555
C10 C11 1_555 1_555

#END
