
#######################################################################
#
#                 Cambridge Crystallographic Data Centre
#                                CCDC 
#
#######################################################################
#
# If this CIF has been generated from an entry in the Cambridge 
# Structural Database, then it will include bibliographic, chemical, 
# crystal, experimental, refinement or atomic coordinate data resulting 
# from the CCDC's data processing and validation procedures.
#
#######################################################################

data_IFICEI
_chemical_formula_moiety         'C13 H12 N2 O2'
_chemical_name_systematic        
'6-[(2-methylphenyl)amino]pyridine-3-carboxylic acid'
_symmetry_cell_setting           orthorhombic
_symmetry_space_group_name_H-M   'P b c a'
_symmetry_Int_Tables_number      61
_space_group_name_Hall           '-P 2ac 2ab'
loop_
_symmetry_equiv_pos_site_id
_symmetry_equiv_pos_as_xyz
1 x,y,z
2 1/2-x,-y,1/2+z
3 -x,1/2+y,1/2-z
4 1/2+x,1/2-y,-z
5 -x,-y,-z
6 1/2+x,y,1/2-z
7 x,1/2-y,1/2+z
8 1/2-x,1/2+y,z
_cell_length_a                   13.7049(3)
_cell_length_b                   7.6401(2)
_cell_length_c                   21.0500(5)
_cell_angle_alpha                90
_cell_angle_beta                 90
_cell_angle_gamma                90
_cell_volume                     2204.08
_exptl_crystal_colour            colorless
_exptl_crystal_description       rod
_cell_formula_units_Z            8
loop_
_atom_site_label
_atom_site_type_symbol
_atom_site_fract_x
_atom_site_fract_y
_atom_site_fract_z
N1 N 0.22213(10) 0.2765(2) 0.54820(6)
C1 C 0.30136(12) 0.2524(2) 0.51179(8)
H1 H 0.292623 0.202411 0.470868
C2 C 0.39472(12) 0.2960(2) 0.53035(8)
C3 C 0.40503(12) 0.3791(2) 0.58939(8)
H2 H 0.467612 0.416910 0.603109
C4 C 0.32527(12) 0.4058(2) 0.62734(8)
H3 H 0.331949 0.462724 0.667233
C5 C 0.23342(11) 0.3480(2) 0.60644(8)
N2 N 0.14985(10) 0.3638(2) 0.64154(6)
H4 H 0.0917(14) 0.345(3) 0.6188(9)
C6 C 0.14498(11) 0.4147(2) 0.70650(8)
C7 C 0.06693(12) 0.5180(2) 0.72660(8)
C8 C 0.06539(13) 0.5701(2) 0.79066(8)
H5 H 0.013398 0.641909 0.805179
C9 C 0.13701(12) 0.5202(2) 0.83323(8)
H6 H 0.135582 0.561145 0.875833
C10 C 0.21107(12) 0.4095(3) 0.81290(8)
H7 H 0.259379 0.370884 0.842076
C11 C 0.21464(12) 0.3552(2) 0.75011(8)
H8 H 0.264529 0.277293 0.736613
C12 C 0.47987(12) 0.2601(2) 0.48892(8)
O1 O 0.47234(9) 0.20184(18) 0.43532(6)
O2 O 0.56391(8) 0.29850(18) 0.51612(6)
H9 H 0.6211(16) 0.264(3) 0.4828(9)
C13 C -0.01521(12) 0.5694(3) 0.68333(8)
H10 H 0.010944 0.599012 0.641346
H11 H -0.049157 0.671268 0.701020
H12 H -0.061068 0.471632 0.679350
loop_
_geom_bond_atom_site_label_1
_geom_bond_atom_site_label_2
_geom_bond_site_symmetry_1
_geom_bond_site_symmetry_2
N1 C1 1_555 1_555
C1 H1 1_555 1_555
C2 C1 1_555 1_555
C3 C2 1_555 1_555
H2 C3 1_555 1_555
C4 C3 1_555 1_555
H3 C4 1_555 1_555
C5 N1 1_555 1_555
N2 C5 1_555 1_555
H4 N2 1_555 1_555
C6 N2 1_555 1_555
C7 C6 1_555 1_555
C8 C7 1_555 1_555
H5 C8 1_555 1_555
C9 C8 1_555 1_555
H6 C9 1_555 1_555
C10 C9 1_555 1_555
H7 C10 1_555 1_555
C11 C6 1_555 1_555
H8 C11 1_555 1_555
C12 C2 1_555 1_555
O1 C12 1_555 1_555
O2 C12 1_555 1_555
H9 O2 1_555 1_555
C13 C7 1_555 1_555
H10 C13 1_555 1_555
H11 C13 1_555 1_555
H12 C13 1_555 1_555
C4 C5 1_555 1_555
C10 C11 1_555 1_555

#END
