
#######################################################################
#
#                 Cambridge Crystallographic Data Centre
#                                CCDC 
#
#######################################################################
#
# If this CIF has been generated from an entry in the Cambridge 
# Structural Database, then it will include bibliographic, chemical, 
# crystal, experimental, refinement or atomic coordinate data resulting 
# from the CCDC's data processing and validation procedures.
#
#######################################################################

data_IFOGES
_chemical_name_common            
(aR)-2-chloro-2'-iodo-6-((SS)-p-tolylsulfinyl)-1,1'-biphenyl
_chemical_formula_moiety         'C19 H14 Cl1 I1 O1 S1'
_chemical_name_systematic        
2-chloro-2'-iodo-6-[(4-methylphenyl)sulfinyl]-1,1'-biphenyl
_symmetry_cell_setting           orthorhombic
_symmetry_space_group_name_H-M   'P 21 21 21'
_symmetry_Int_Tables_number      19
_space_group_name_Hall           'P 2ac 2ab'
loop_
_symmetry_equiv_pos_site_id
_symmetry_equiv_pos_as_xyz
1 x,y,z
2 1/2-x,-y,1/2+z
3 1/2+x,1/2-y,-z
4 -x,1/2+y,1/2-z
_cell_length_a                   7.6988(2)
_cell_length_b                   14.3742(5)
_cell_length_c                   15.9878(6)
_cell_angle_alpha                90
_cell_angle_beta                 90
_cell_angle_gamma                90
_cell_volume                     1769.28
_exptl_crystal_colour            colorless
_exptl_crystal_description       block
_cell_formula_units_Z            4
loop_
_atom_site_label
_atom_site_type_symbol
_atom_site_fract_x
_atom_site_fract_y
_atom_site_fract_z
C1 C 0.3498(7) 1.0425(4) 0.2357(3)
C2 C 0.4290(8) 1.1004(4) 0.2923(4)
H1 H 0.3664 1.1510 0.3158
C3 C 0.6014(8) 1.0850(5) 0.3153(4)
H2 H 0.6581 1.1261 0.3530
C4 C 0.6889(7) 1.0092(5) 0.2827(4)
H3 H 0.8046 0.9961 0.2998
C5 C 0.6063(7) 0.9522(4) 0.2246(3)
C6 C 0.4352(7) 0.9678(4) 0.1980(3)
C7 C 0.3510(6) 0.9074(4) 0.1334(3)
C8 C 0.3914(7) 0.9136(4) 0.0485(3)
C9 C 0.3089(6) 0.8598(4) -0.0111(4)
H4 H 0.3386 0.8657 -0.0685
C10 C 0.1824(8) 0.7973(4) 0.0138(4)
H5 H 0.1261 0.7592 -0.0266
C11 C 0.1381(8) 0.7901(4) 0.0971(4)
H6 H 0.0504 0.7475 0.1140
C12 C 0.2211(7) 0.8446(4) 0.1563(4)
H7 H 0.1890 0.8392 0.2135
C13 C 0.1385(7) 1.1137(4) 0.1142(4)
C14 C 0.2117(8) 1.2022(5) 0.1047(4)
H8 H 0.2523 1.2360 0.1519
C15 C 0.2238(8) 1.2398(4) 0.0246(4)
H9 H 0.2739 1.2998 0.0180
C16 C 0.1651(8) 1.1927(5) -0.0460(4)
C17 C 0.0902(8) 1.1031(5) -0.0342(4)
H10 H 0.0491 1.0693 -0.0813
C18 C 0.0763(8) 1.0641(4) 0.0454(4)
H11 H 0.0251 1.0046 0.0528
C19 C 0.1808(10) 1.2357(6) -0.1325(5)
H12 H 0.1355 1.2994 -0.1313
H13 H 0.1140 1.1986 -0.1727
H14 H 0.3032 1.2367 -0.1494
O1 O 0.0698(6) 1.1395(3) 0.2747(3)
S1 S 0.11941(19) 1.06367(11) 0.21524(10)
Cl1 Cl 0.7213(2) 0.85693(12) 0.18717(11)
I1 I 0.57394(5) 1.01199(3) 0.00568(2)
loop_
_geom_bond_atom_site_label_1
_geom_bond_atom_site_label_2
_geom_bond_site_symmetry_1
_geom_bond_site_symmetry_2
C1 C2 1_555 1_555
C2 H1 1_555 1_555
C3 C2 1_555 1_555
H2 C3 1_555 1_555
C4 C3 1_555 1_555
H3 C4 1_555 1_555
C5 C4 1_555 1_555
C6 C1 1_555 1_555
C7 C6 1_555 1_555
C8 C7 1_555 1_555
C9 C8 1_555 1_555
H4 C9 1_555 1_555
C10 C9 1_555 1_555
H5 C10 1_555 1_555
C11 C10 1_555 1_555
H6 C11 1_555 1_555
C12 C7 1_555 1_555
H7 C12 1_555 1_555
C13 C14 1_555 1_555
C14 H8 1_555 1_555
C15 C14 1_555 1_555
H9 C15 1_555 1_555
C16 C15 1_555 1_555
C17 C16 1_555 1_555
H10 C17 1_555 1_555
C18 C13 1_555 1_555
H11 C18 1_555 1_555
C19 C16 1_555 1_555
H12 C19 1_555 1_555
H13 C19 1_555 1_555
H14 C19 1_555 1_555
O1 S1 1_555 1_555
S1 C1 1_555 1_555
Cl1 C5 1_555 1_555
I1 C8 1_555 1_555
C5 C6 1_555 1_555
C11 C12 1_555 1_555
C13 S1 1_555 1_555
C17 C18 1_555 1_555

#END
