
#######################################################################
#
#                 Cambridge Crystallographic Data Centre
#                                CCDC 
#
#######################################################################
#
# If this CIF has been generated from an entry in the Cambridge 
# Structural Database, then it will include bibliographic, chemical, 
# crystal, experimental, refinement or atomic coordinate data resulting 
# from the CCDC's data processing and validation procedures.
#
#######################################################################

data_IFOSUU
_chemical_formula_moiety         'C72 H96 N6 Si6,2.5(C4 H10 O1)'
_chemical_name_systematic        
'13,27,41,43,45,47-hexakis[(trimethylsilyl)ethynyl]-3,10,17,24,31,38-hexaazaheptacyclo[38.2.2.2^12,15^.2^26,29^.0^4,9^.0^18,23^.0^32,37^]octatetraconta-1(42),2,10,12,14,16,24,26,28,30,38,40,43,45,47-pentadecaene diethyl ether solvate'
_symmetry_cell_setting           monoclinic
_symmetry_space_group_name_H-M   'C 2'
_symmetry_Int_Tables_number      5
_space_group_name_Hall           'C 2y'
loop_
_symmetry_equiv_pos_site_id
_symmetry_equiv_pos_as_xyz
1 x,y,z
2 -x,y,-z
3 1/2+x,1/2+y,z
4 1/2-x,1/2+y,-z
_cell_length_a                   28.4282(4)
_cell_length_b                   15.8930(2)
_cell_length_c                   20.5469(3)
_cell_angle_alpha                90
_cell_angle_beta                 95.5830(10)
_cell_angle_gamma                90
_cell_volume                     9239.25
_exptl_crystal_colour            colorless
_exptl_crystal_description       block
_cell_formula_units_Z            4
loop_
_atom_site_label
_atom_site_type_symbol
_atom_site_fract_x
_atom_site_fract_y
_atom_site_fract_z
Si1 Si 0.87290(6) 0.55774(10) -0.01123(5)
Si2 Si 0.91677(5) 0.47233(8) 0.55552(5)
Si3 Si 0.78207(4) 0.22159(10) -0.01807(5)
Si4 Si 0.69596(3) 0.21519(6) 0.52457(4)
Si5 Si 0.59417(10) 0.47412(13) -0.05346(8)
Si6 Si 0.63147(3) 0.60788(7) 0.50912(4)
N1 N 0.71066(9) 0.72371(17) 0.23396(12)
N2 N 0.81303(9) 0.71115(16) 0.26448(12)
N3 N 0.92645(9) 0.29285(17) 0.27739(12)
N4 N 0.86618(8) 0.14804(16) 0.28040(12)
N5 N 0.60588(8) 0.18809(18) 0.22130(12)
N6 N 0.55733(8) 0.34678(17) 0.22635(12)
C1 C 0.74011(11) 0.79301(19) 0.26140(15)
H1 H 0.7428 0.7894 0.3102
C2 C 0.78947(11) 0.78705(18) 0.23787(15)
H2 H 0.7867 0.7847 0.1890
C3 C 0.81947(13) 0.8632(2) 0.26137(18)
H3 H 0.8253 0.8617 0.3097
H4 H 0.8505 0.8600 0.2433
C4 C 0.79556(15) 0.9456(2) 0.2406(2)
H5 H 0.8150 0.9930 0.2592
H6 H 0.7932 0.9502 0.1924
C5 C 0.74666(15) 0.9514(2) 0.2633(2)
H7 H 0.7313 1.0040 0.2465
H8 H 0.7492 0.9535 0.3117
C6 C 0.71629(13) 0.8764(2) 0.23968(19)
H9 H 0.7108 0.8777 0.1914
H10 H 0.6852 0.8803 0.2574
C7 C 0.82948(10) 0.66080(18) 0.22460(14)
H11 H 0.8258 0.6733 0.1792
C8 C 0.85435(10) 0.58262(18) 0.24766(14)
C9 C 0.86715(10) 0.52123(19) 0.20303(14)
C10 C 0.88670(10) 0.44528(18) 0.22706(14)
H12 H 0.8939 0.4028 0.1970
C11 C 0.89582(9) 0.43046(18) 0.29324(14)
C12 C 0.88593(10) 0.49421(19) 0.33812(13)
C13 C 0.86497(10) 0.56901(19) 0.31442(14)
H13 H 0.8578 0.6115 0.3445
C14 C 0.86304(11) 0.5353(2) 0.13330(15)
C15 C 0.86387(14) 0.5449(2) 0.07557(15)
C16 C 0.8233(3) 0.5114(4) -0.0643(3)
H14 H 0.7937 0.5391 -0.0558
H15 H 0.8211 0.4511 -0.0551
H16 H 0.8287 0.5195 -0.1103
C17 C 0.8768(2) 0.6725(4) -0.0278(2)
H17 H 0.8462 0.6990 -0.0230
H18 H 0.8852 0.6811 -0.0724
H19 H 0.9011 0.6977 0.0033
C18 C 0.9286(4) 0.5005(9) -0.0222(4)
H20 H 0.9300 0.4877 -0.0686
H21 H 0.9296 0.4480 0.0029
H22 H 0.9557 0.5357 -0.0066
C19 C 0.89687(12) 0.4842(2) 0.40785(15)
C20 C 0.90560(14) 0.4791(2) 0.46619(16)
C21 C 0.9449(4) 0.5710(5) 0.5860(3)
H23 H 0.9752 0.5778 0.5677
H24 H 0.9501 0.5691 0.6338
H25 H 0.9242 0.6185 0.5726
C22 C 0.8587(3) 0.4592(5) 0.5894(3)
H26 H 0.8396 0.5100 0.5806
H27 H 0.8639 0.4502 0.6368
H28 H 0.8421 0.4106 0.5688
C23 C 0.9572(3) 0.3820(4) 0.5760(2)
H29 H 0.9429 0.3303 0.5573
H30 H 0.9628 0.3763 0.6236
H31 H 0.9874 0.3920 0.5579
C24 C 0.91472(9) 0.34814(19) 0.31693(13)
H32 H 0.9181 0.3367 0.3625
C25 C 0.94356(9) 0.2120(2) 0.30372(13)
H33 H 0.9389 0.2084 0.3513
C26 C 0.91543(9) 0.14227(19) 0.26595(13)
H34 H 0.9170 0.1512 0.2180
C27 C 0.93481(12) 0.0555(2) 0.28438(17)
H35 H 0.9172 0.0126 0.2568
H36 H 0.9301 0.0436 0.3306
C28 C 0.98766(13) 0.0493(3) 0.2752(2)
H37 H 0.9997 -0.0069 0.2891
H38 H 0.9923 0.0566 0.2284
C29 C 1.01492(12) 0.1169(3) 0.3154(2)
H39 H 1.0489 0.1131 0.3090
H40 H 1.0115 0.1081 0.3624
C30 C 0.99602(10) 0.2042(3) 0.29443(18)
H41 H 1.0140 0.2479 0.3207
H42 H 1.0007 0.2137 0.2479
C31 C 0.83558(9) 0.16803(18) 0.23377(13)
H43 H 0.8455 0.1796 0.1919
C32 C 0.78485(9) 0.17364(17) 0.24341(13)
C33 C 0.75097(10) 0.18023(19) 0.18882(13)
C34 C 0.70310(10) 0.1836(2) 0.19881(14)
H44 H 0.6803 0.1867 0.1619
C35 C 0.68785(9) 0.18254(18) 0.26091(14)
C36 C 0.72187(9) 0.17756(17) 0.31559(13)
C37 C 0.76975(9) 0.17199(17) 0.30576(13)
H45 H 0.7925 0.1670 0.3426
C38 C 0.76442(10) 0.1871(2) 0.12311(15)
C39 C 0.77359(12) 0.1958(3) 0.06787(16)
C40 C 0.7632(2) 0.1290(4) -0.0698(2)
H46 H 0.7828 0.0804 -0.0559
H47 H 0.7667 0.1418 -0.1157
H48 H 0.7300 0.1161 -0.0648
C41 C 0.7424(3) 0.3124(5) -0.0407(3)
H49 H 0.7094 0.2948 -0.0401
H50 H 0.7476 0.3320 -0.0847
H51 H 0.7493 0.3582 -0.0093
C42 C 0.84581(19) 0.2455(4) -0.0234(3)
H52 H 0.8555 0.2922 0.0061
H53 H 0.8507 0.2612 -0.0684
H54 H 0.8648 0.1957 -0.0106
C43 C 0.70906(10) 0.18266(19) 0.38148(15)
C44 C 0.70092(10) 0.1908(2) 0.43727(14)
C45 C 0.72905(18) 0.3148(3) 0.5415(2)
H55 H 0.7630 0.3040 0.5421
H56 H 0.7222 0.3370 0.5841
H57 H 0.7194 0.3560 0.5073
C46 C 0.72244(12) 0.1261(3) 0.57435(16)
H58 H 0.7047 0.0745 0.5629
H59 H 0.7211 0.1383 0.6209
H60 H 0.7554 0.1186 0.5655
C47 C 0.63299(14) 0.2300(3) 0.5390(2)
H61 H 0.6191 0.2743 0.5101
H62 H 0.6310 0.2463 0.5846
H63 H 0.6157 0.1773 0.5299
C48 C 0.63718(9) 0.18914(18) 0.27002(14)
H64 H 0.6277 0.1943 0.3129
C49 C 0.55665(10) 0.1937(2) 0.23524(15)
H65 H 0.5552 0.1996 0.2835
C50 C 0.53359(10) 0.2707(2) 0.20014(15)
H66 H 0.5369 0.2666 0.1522
C51 C 0.48111(11) 0.2742(3) 0.2109(2)
H67 H 0.4778 0.2808 0.2582
H68 H 0.4664 0.3237 0.1878
C52 C 0.45581(13) 0.1949(3) 0.1859(3)
H69 H 0.4572 0.1902 0.1381
H70 H 0.4221 0.1980 0.1943
C53 C 0.47854(13) 0.1170(3) 0.2198(3)
H71 H 0.4742 0.1188 0.2670
H72 H 0.4627 0.0657 0.2010
C54 C 0.53098(13) 0.1130(3) 0.2112(2)
H73 H 0.5352 0.1044 0.1644
H74 H 0.5452 0.0643 0.2359
C55 C 0.57661(9) 0.3933(2) 0.18671(13)
H75 H 0.5744 0.3784 0.1417
C56 C 0.60249(9) 0.4704(2) 0.20867(13)
C57 C 0.61849(12) 0.5272(2) 0.16280(14)
C58 C 0.64580(12) 0.5965(2) 0.18474(15)
H76 H 0.6570 0.6342 0.1538
C59 C 0.65674(10) 0.6111(2) 0.25119(14)
C60 C 0.63817(9) 0.5574(2) 0.29690(14)
C61 C 0.61210(9) 0.4869(2) 0.27441(13)
H77 H 0.6007 0.4493 0.3053
C62 C 0.60779(15) 0.5143(3) 0.09397(17)
C63 C 0.5985(2) 0.5018(3) 0.03595(18)
C64 C 0.5323(4) 0.4763(15) -0.0815(5)
H78 H 0.5207 0.5343 -0.0807
H79 H 0.5148 0.4413 -0.0527
H80 H 0.5276 0.4543 -0.1262
C65 C 0.6320(7) 0.5447(11) -0.0949(5)
H81 H 0.6333 0.5260 -0.1401
H82 H 0.6639 0.5443 -0.0721
H83 H 0.6192 0.6020 -0.0948
C66 C 0.6132(7) 0.3640(8) -0.0698(6)
H84 H 0.6041 0.3498 -0.1157
H85 H 0.5980 0.3249 -0.0416
H86 H 0.6476 0.3596 -0.0607
C67 C 0.64298(10) 0.5748(2) 0.36560(15)
C68 C 0.64196(11) 0.5879(3) 0.42302(16)
C69 C 0.66312(19) 0.5284(3) 0.5626(2)
H87 H 0.6524 0.4720 0.5488
H88 H 0.6565 0.5379 0.6080
H89 H 0.6972 0.5333 0.5595
C70 C 0.56605(13) 0.6007(4) 0.51128(19)
H90 H 0.5504 0.6388 0.4785
H91 H 0.5578 0.6166 0.5548
H92 H 0.5557 0.5428 0.5016
C71 C 0.65226(14) 0.7152(3) 0.53262(18)
H93 H 0.6867 0.7180 0.5323
H94 H 0.6437 0.7283 0.5766
H95 H 0.6374 0.7561 0.5014
C72 C 0.68816(10) 0.6824(2) 0.27357(15)
H96 H 0.6914 0.6973 0.3186
O1 O 0.7299(2) 0.3969(4) 0.2481(3)
C76 C 0.7557(4) 0.4345(8) 0.3023(6)
H106 H 0.7896 0.4204 0.3026
H107 H 0.7523 0.4964 0.2998
C77 C 0.7386(4) 0.4051(8) 0.3582(5)
H108 H 0.7218 0.4504 0.3786
H109 H 0.7649 0.3856 0.3888
H110 H 0.7168 0.3582 0.3473
C78 C 0.7455(5) 0.4276(9) 0.1839(6)
H111 H 0.7448 0.4898 0.1822
H112 H 0.7782 0.4086 0.1791
C79 C 0.7128(5) 0.3924(10) 0.1316(6)
H113 H 0.7109 0.3313 0.1370
H114 H 0.7242 0.4053 0.0891
H115 H 0.6814 0.4172 0.1335
Si7? Si 0.5696(2) 0.4922(4) -0.0472(2)
C73? C 0.5363(11) 0.568(3) -0.0809(8)
H97? H 0.5182 0.5462 -0.1205
H98? H 0.5564 0.6144 -0.0924
H99? H 0.5145 0.5872 -0.0500
C74? C 0.5404(9) 0.3903(19) -0.0479(13)
H100? H 0.5424 0.3632 -0.0904
H101? H 0.5072 0.3980 -0.0404
H102? H 0.5560 0.3548 -0.0132
C75? C 0.6271(13) 0.487(2) -0.0912(9)
H103? H 0.6476 0.4421 -0.0717
H104? H 0.6190 0.4751 -0.1377
H105? H 0.6437 0.5409 -0.0862
O2? O 0.7634(3) 0.3998(6) 0.2612(5)
C80? C 0.7502(6) 0.4085(11) 0.1486(8)
H116? H 0.7648 0.3530 0.1555
H117? H 0.7717 0.4457 0.1275
H118? H 0.7204 0.4029 0.1206
C81? C 0.7408(6) 0.4439(11) 0.2109(8)
H119? H 0.7516 0.5032 0.2134
H120? H 0.7064 0.4432 0.2146
C82? C 0.7530(11) 0.428(2) 0.3270(10)
H121? H 0.7600 0.4894 0.3312
H122? H 0.7190 0.4205 0.3314
C83? C 0.7782(3) 0.3871(6) 0.3754(5)
H123? H 0.7751 0.3264 0.3678
H124? H 0.7663 0.4014 0.4172
H125? H 0.8115 0.4033 0.3765
loop_
_geom_bond_atom_site_label_1
_geom_bond_atom_site_label_2
_geom_bond_site_symmetry_1
_geom_bond_site_symmetry_2
Si1 C15 1_555 1_555
Si2 C20 1_555 1_555
Si3 C39 1_555 1_555
Si4 C44 1_555 1_555
Si5 C63 1_555 1_555
Si6 C68 1_555 1_555
N1 C1 1_555 1_555
N2 C2 1_555 1_555
N3 C24 1_555 1_555
N4 C26 1_555 1_555
N5 C48 1_555 1_555
N6 C50 1_555 1_555
C1 H1 1_555 1_555
C2 C1 1_555 1_555
H2 C2 1_555 1_555
C3 C2 1_555 1_555
H3 C3 1_555 1_555
H4 C3 1_555 1_555
C4 C3 1_555 1_555
H5 C4 1_555 1_555
H6 C4 1_555 1_555
C5 C4 1_555 1_555
H7 C5 1_555 1_555
H8 C5 1_555 1_555
C6 C1 1_555 1_555
H9 C6 1_555 1_555
H10 C6 1_555 1_555
C7 N2 1_555 1_555
H11 C7 1_555 1_555
C8 C7 1_555 1_555
C9 C8 1_555 1_555
C10 C9 1_555 1_555
H12 C10 1_555 1_555
C11 C10 1_555 1_555
C12 C11 1_555 1_555
C13 C8 1_555 1_555
H13 C13 1_555 1_555
C14 C9 1_555 1_555
C15 C14 1_555 1_555
C16 Si1 1_555 1_555
H14 C16 1_555 1_555
H15 C16 1_555 1_555
H16 C16 1_555 1_555
C17 Si1 1_555 1_555
H17 C17 1_555 1_555
H18 C17 1_555 1_555
H19 C17 1_555 1_555
C18 Si1 1_555 1_555
H20 C18 1_555 1_555
H21 C18 1_555 1_555
H22 C18 1_555 1_555
C19 C12 1_555 1_555
C20 C19 1_555 1_555
C21 Si2 1_555 1_555
H23 C21 1_555 1_555
H24 C21 1_555 1_555
H25 C21 1_555 1_555
C22 Si2 1_555 1_555
H26 C22 1_555 1_555
H27 C22 1_555 1_555
H28 C22 1_555 1_555
C23 Si2 1_555 1_555
H29 C23 1_555 1_555
H30 C23 1_555 1_555
H31 C23 1_555 1_555
C24 C11 1_555 1_555
H32 C24 1_555 1_555
C25 N3 1_555 1_555
H33 C25 1_555 1_555
C26 C25 1_555 1_555
H34 C26 1_555 1_555
C27 C26 1_555 1_555
H35 C27 1_555 1_555
H36 C27 1_555 1_555
C28 C27 1_555 1_555
H37 C28 1_555 1_555
H38 C28 1_555 1_555
C29 C28 1_555 1_555
H39 C29 1_555 1_555
H40 C29 1_555 1_555
C30 C25 1_555 1_555
H41 C30 1_555 1_555
H42 C30 1_555 1_555
C31 N4 1_555 1_555
H43 C31 1_555 1_555
C32 C31 1_555 1_555
C33 C32 1_555 1_555
C34 C33 1_555 1_555
H44 C34 1_555 1_555
C35 C34 1_555 1_555
C36 C35 1_555 1_555
C37 C32 1_555 1_555
H45 C37 1_555 1_555
C38 C33 1_555 1_555
C39 C38 1_555 1_555
C40 Si3 1_555 1_555
H46 C40 1_555 1_555
H47 C40 1_555 1_555
H48 C40 1_555 1_555
C41 Si3 1_555 1_555
H49 C41 1_555 1_555
H50 C41 1_555 1_555
H51 C41 1_555 1_555
C42 Si3 1_555 1_555
H52 C42 1_555 1_555
H53 C42 1_555 1_555
H54 C42 1_555 1_555
C43 C36 1_555 1_555
C44 C43 1_555 1_555
C45 Si4 1_555 1_555
H55 C45 1_555 1_555
H56 C45 1_555 1_555
H57 C45 1_555 1_555
C46 Si4 1_555 1_555
H58 C46 1_555 1_555
H59 C46 1_555 1_555
H60 C46 1_555 1_555
C47 Si4 1_555 1_555
H61 C47 1_555 1_555
H62 C47 1_555 1_555
H63 C47 1_555 1_555
C48 C35 1_555 1_555
H64 C48 1_555 1_555
C49 N5 1_555 1_555
H65 C49 1_555 1_555
C50 C49 1_555 1_555
H66 C50 1_555 1_555
C51 C50 1_555 1_555
H67 C51 1_555 1_555
H68 C51 1_555 1_555
C52 C51 1_555 1_555
H69 C52 1_555 1_555
H70 C52 1_555 1_555
C53 C52 1_555 1_555
H71 C53 1_555 1_555
H72 C53 1_555 1_555
C54 C49 1_555 1_555
H73 C54 1_555 1_555
H74 C54 1_555 1_555
C55 N6 1_555 1_555
H75 C55 1_555 1_555
C56 C55 1_555 1_555
C57 C56 1_555 1_555
C58 C57 1_555 1_555
H76 C58 1_555 1_555
C59 C58 1_555 1_555
C60 C59 1_555 1_555
C61 C56 1_555 1_555
H77 C61 1_555 1_555
C62 C57 1_555 1_555
C63 C62 1_555 1_555
C64 Si5 1_555 1_555
H78 C64 1_555 1_555
H79 C64 1_555 1_555
H80 C64 1_555 1_555
C65 Si5 1_555 1_555
H81 C65 1_555 1_555
H82 C65 1_555 1_555
H83 C65 1_555 1_555
C66 Si5 1_555 1_555
H84 C66 1_555 1_555
H85 C66 1_555 1_555
H86 C66 1_555 1_555
C67 C60 1_555 1_555
C68 C67 1_555 1_555
C69 Si6 1_555 1_555
H87 C69 1_555 1_555
H88 C69 1_555 1_555
H89 C69 1_555 1_555
C70 Si6 1_555 1_555
H90 C70 1_555 1_555
H91 C70 1_555 1_555
H92 C70 1_555 1_555
C71 Si6 1_555 1_555
H93 C71 1_555 1_555
H94 C71 1_555 1_555
H95 C71 1_555 1_555
C72 N1 1_555 1_555
H96 C72 1_555 1_555
O1 C76 1_555 1_555
C76 H106 1_555 1_555
H107 C76 1_555 1_555
C77 C76 1_555 1_555
H108 C77 1_555 1_555
H109 C77 1_555 1_555
H110 C77 1_555 1_555
C78 O1 1_555 1_555
H111 C78 1_555 1_555
H112 C78 1_555 1_555
C79 C78 1_555 1_555
H113 C79 1_555 1_555
H114 C79 1_555 1_555
H115 C79 1_555 1_555
C5 C6 1_555 1_555
C12 C13 1_555 1_555
C29 C30 1_555 1_555
C36 C37 1_555 1_555
C53 C54 1_555 1_555
C59 C72 1_555 1_555
C60 C61 1_555 1_555

#END
