
#######################################################################
#
#                 Cambridge Crystallographic Data Centre
#                                CCDC 
#
#######################################################################
#
# If this CIF has been generated from an entry in the Cambridge 
# Structural Database, then it will include bibliographic, chemical, 
# crystal, experimental, refinement or atomic coordinate data resulting 
# from the CCDC's data processing and validation procedures.
#
#######################################################################

data_IFOTOP
_chemical_formula_moiety         'C6 H2 N18 O4 2-,C1 H4 O1,2(H4 N1 1+),H2 O1'
_chemical_name_systematic        
"diammonium 5,5'-{hydrazine-1,2-diylbis[(3-nitro-1H-1,2,4-triazole-5,1-diyl)]}bis(tetrazol-1-ide) methanol solvate monohydrate"
_symmetry_cell_setting           monoclinic
_symmetry_space_group_name_H-M   'P 21/c'
_symmetry_Int_Tables_number      14
_space_group_name_Hall           '-P 2ybc'
loop_
_symmetry_equiv_pos_site_id
_symmetry_equiv_pos_as_xyz
1 x,y,z
2 -x,1/2+y,1/2-z
3 -x,-y,-z
4 x,1/2-y,1/2+z
_cell_length_a                   15.406(3)
_cell_length_b                   8.9944(18)
_cell_length_c                   15.496(3)
_cell_angle_alpha                90
_cell_angle_beta                 119.61(3)
_cell_angle_gamma                90
_cell_volume                     1866.83
_exptl_crystal_colour            yellow
_exptl_crystal_description       block
_cell_formula_units_Z            4
loop_
_atom_site_label
_atom_site_type_symbol
_atom_site_fract_x
_atom_site_fract_y
_atom_site_fract_z
O1 O -0.00934(15) 0.9476(3) 0.11887(15)
O2 O -0.03386(15) 0.9414(2) 0.24610(16)
O3 O 0.57523(15) 0.7892(2) 0.29478(14)
O4 O 0.57828(16) 0.7764(3) 0.15686(16)
N1 N 0.00891(17) 0.9026(3) 0.20117(17)
N2 N 0.12697(16) 0.7204(3) 0.19936(16)
N3 N 0.12966(17) 0.7730(3) 0.34460(16)
N4 N 0.20293(16) 0.6718(3) 0.35980(16)
N5 N 0.24641(18) 0.6263(3) 0.52859(17)
N6 N 0.3248(2) 0.5539(3) 0.60351(18)
N7 N 0.3834(2) 0.4998(3) 0.57204(18)
N8 N 0.34712(18) 0.5363(3) 0.47517(17)
N9 N 0.26058(17) 0.5437(3) 0.26404(16)
H1 H 0.2930 0.4834 0.3116
N10 N 0.24702(16) 0.5184(3) 0.16979(15)
H2 H 0.2095 0.4495 0.1325
N11 N 0.40181(16) 0.6420(3) 0.21965(16)
N12 N 0.54086(17) 0.7488(3) 0.20894(17)
N13 N 0.41080(17) 0.6048(3) 0.07778(17)
N14 N 0.32659(15) 0.5393(3) 0.07062(16)
N15 N 0.28327(18) 0.4050(3) -0.07989(17)
N16 N 0.19817(19) 0.3307(3) -0.14415(18)
N17 N 0.13249(18) 0.3382(3) -0.11395(17)
N18 N 0.17094(17) 0.4177(3) -0.02890(16)
C1 C 0.08980(19) 0.7955(3) 0.2498(2)
C2 C 0.19861(18) 0.6412(3) 0.27167(18)
C3 C 0.2648(2) 0.6116(3) 0.45381(19)
C4 C 0.32337(19) 0.5644(3) 0.15622(18)
C5 C 0.44945(19) 0.6616(3) 0.1673(2)
C6 C 0.26090(19) 0.4548(3) -0.01242(19)
O5 O 0.13478(16) 0.2423(3) -0.34461(15)
H3 H 0.1497 0.2493 -0.2848
C7 C 0.1757(2) 0.3557(4) -0.3724(2)
H4 H 0.1411 0.3629 -0.4449
H5 H 0.2467 0.3354 -0.3475
H6 H 0.1687 0.4497 -0.3445
N19 N 0.06336(17) 0.7015(3) -0.00956(17)
H7 H 0.0026 0.7204 -0.0509
H8 H 0.0624 0.6989 0.0448
H9 H 0.0725 0.6159 -0.0268
H10 H 0.1000 0.7710 -0.0111
O6 O 0.3571(2) 0.9252(3) 0.30875(17)
H11 H 0.3441 0.9460 0.2508
H12 H 0.3275 0.9815 0.3291
N20 N 0.50043(17) 0.7434(3) 0.44147(17)
H13 H 0.4509 0.7960 0.4016
H14 H 0.5486 0.7786 0.4944
H15 H 0.5329 0.6836 0.4255
H16 H 0.4684 0.6978 0.4650
loop_
_geom_bond_atom_site_label_1
_geom_bond_atom_site_label_2
_geom_bond_site_symmetry_1
_geom_bond_site_symmetry_2
O1 N1 1_555 1_555
O2 N1 1_555 1_555
O3 N12 1_555 1_555
O4 N12 1_555 1_555
N1 C1 1_555 1_555
N2 C1 1_555 1_555
N3 N4 1_555 1_555
N4 C2 1_555 1_555
N5 N6 1_555 1_555
N6 N7 1_555 1_555
N7 N8 1_555 1_555
N8 C3 1_555 1_555
N9 H1 1_555 1_555
N10 N9 1_555 1_555
H2 N10 1_555 1_555
N11 C4 1_555 1_555
N12 C5 1_555 1_555
N13 N14 1_555 1_555
N14 C4 1_555 1_555
N15 N16 1_555 1_555
N16 N17 1_555 1_555
N17 N18 1_555 1_555
N18 C6 1_555 1_555
C1 N3 1_555 1_555
C2 N2 1_555 1_555
C3 N4 1_555 1_555
C4 N10 1_555 1_555
C5 N11 1_555 1_555
C6 N14 1_555 1_555
O5 H3 1_555 1_555
C7 O5 1_555 1_555
H4 C7 1_555 1_555
H5 C7 1_555 1_555
H6 C7 1_555 1_555
N19 H7 1_555 1_555
H8 N19 1_555 1_555
H9 N19 1_555 1_555
H10 N19 1_555 1_555
O6 H11 1_555 1_555
H12 O6 1_555 1_555
N20 H13 1_555 1_555
H14 N20 1_555 1_555
H15 N20 1_555 1_555
H16 N20 1_555 1_555
N5 C3 1_555 1_555
N9 C2 1_555 1_555
N13 C5 1_555 1_555
N15 C6 1_555 1_555

#END
