
#######################################################################
#
#                 Cambridge Crystallographic Data Centre
#                                CCDC 
#
#######################################################################
#
# If this CIF has been generated from an entry in the Cambridge 
# Structural Database, then it will include bibliographic, chemical, 
# crystal, experimental, refinement or atomic coordinate data resulting 
# from the CCDC's data processing and validation procedures.
#
#######################################################################

data_IFOVOQ
_chemical_formula_moiety         'C8 H7 N3 O2 S1'
_chemical_name_systematic        
5-Methyl-N-(1,3-thiazol-2-yl)isoxazole-4-carboxamide
_symmetry_cell_setting           monoclinic
_symmetry_space_group_name_H-M   'P 21/c'
_symmetry_Int_Tables_number      14
_space_group_name_Hall           '-P 2ybc'
loop_
_symmetry_equiv_pos_site_id
_symmetry_equiv_pos_as_xyz
1 x,y,z
2 -x,1/2+y,1/2-z
3 -x,-y,-z
4 x,1/2-y,1/2+z
_cell_length_a                   8.8460(18)
_cell_length_b                   10.742(2)
_cell_length_c                   10.024(2)
_cell_angle_alpha                90
_cell_angle_beta                 107.27(3)
_cell_angle_gamma                90
_cell_volume                     909.575
_exptl_crystal_colour            yellow
_exptl_crystal_description       block
_cell_formula_units_Z            4
loop_
_atom_site_label
_atom_site_type_symbol
_atom_site_fract_x
_atom_site_fract_y
_atom_site_fract_z
S1 S 0.27245(9) 0.30807(7) 0.46506(9)
O1 O 0.5024(2) 0.36916(17) 0.3546(2)
N1 N 0.3255(3) 0.0745(2) 0.5154(2)
C1 C 0.1512(4) 0.2266(3) 0.5378(4)
H1 H 0.0654 0.2605 0.5607
O2 O 0.8730(2) 0.2660(2) 0.1941(2)
N2 N 0.5011(2) 0.16438(19) 0.4088(2)
H2 H 0.5475 0.0938 0.4106
C2 C 0.1958(3) 0.1078(3) 0.5573(3)
H3 H 0.1426 0.0507 0.5969
N3 N 0.8148(3) 0.1439(3) 0.1552(3)
C3 C 0.3761(3) 0.1719(2) 0.4640(3)
C4 C 0.5547(3) 0.2644(2) 0.3512(3)
C5 C 0.6762(3) 0.2373(2) 0.2825(2)
C6 C 0.6993(3) 0.1306(3) 0.2088(3)
H4 H 0.6384 0.0587 0.1998
C7 C 0.7873(3) 0.3192(2) 0.2679(3)
C8 C 0.8309(4) 0.4479(3) 0.3178(3)
H5 H 0.9169 0.4761 0.2855
H6 H 0.8626 0.4493 0.4180
H7 H 0.7413 0.5018 0.2821
loop_
_geom_bond_atom_site_label_1
_geom_bond_atom_site_label_2
_geom_bond_site_symmetry_1
_geom_bond_site_symmetry_2
S1 C1 1_555 1_555
O1 C4 1_555 1_555
N1 C2 1_555 1_555
C1 H1 1_555 1_555
O2 N3 1_555 1_555
N2 H2 1_555 1_555
C2 C1 1_555 1_555
H3 C2 1_555 1_555
N3 C6 1_555 1_555
C3 S1 1_555 1_555
C4 N2 1_555 1_555
C5 C4 1_555 1_555
C6 C5 1_555 1_555
H4 C6 1_555 1_555
C7 O2 1_555 1_555
C8 C7 1_555 1_555
H5 C8 1_555 1_555
H6 C8 1_555 1_555
H7 C8 1_555 1_555
N1 C3 1_555 1_555
N2 C3 1_555 1_555
C5 C7 1_555 1_555

#END
