
#######################################################################
#
#                 Cambridge Crystallographic Data Centre
#                                CCDC 
#
#######################################################################
#
# If this CIF has been generated from an entry in the Cambridge 
# Structural Database, then it will include bibliographic, chemical, 
# crystal, experimental, refinement or atomic coordinate data resulting 
# from the CCDC's data processing and validation procedures.
#
#######################################################################

data_IFUNIJ
_chemical_formula_moiety         'C25 H42 N1 O4 1+,2(C1 H4 O1),I1 1-'
_chemical_name_systematic        
'2-[(6-ethenyl-5-hydroxy-4,6,9,10-tetramethyl-1-oxodecahydro-3a,9-propanocyclopenta[8]annulen-8-yl)oxy]-N,N,N-trimethyl-2-oxoethan-1-aminium iodide methanol solvate'
_symmetry_cell_setting           orthorhombic
_symmetry_space_group_name_H-M   'P 21 21 21'
_symmetry_Int_Tables_number      19
_space_group_name_Hall           'P 2ac 2ab'
loop_
_symmetry_equiv_pos_site_id
_symmetry_equiv_pos_as_xyz
1 x,y,z
2 1/2-x,-y,1/2+z
3 -x,1/2+y,1/2-z
4 1/2+x,1/2-y,-z
_cell_length_a                   9.7208(7)
_cell_length_b                   13.5637(9)
_cell_length_c                   22.8663(15)
_cell_angle_alpha                90
_cell_angle_beta                 90
_cell_angle_gamma                90
_cell_volume                     3014.92
_exptl_crystal_colour            colorless
_exptl_crystal_description       block
_cell_formula_units_Z            4
loop_
_atom_site_label
_atom_site_type_symbol
_atom_site_fract_x
_atom_site_fract_y
_atom_site_fract_z
I1 I 0.35558(2) 0.92034(1) 0.43526(1)
O1 O 0.23976(19) 0.12721(15) 0.25626(7)
O2 O 0.7754(2) 0.01974(15) 0.41302(9)
O3 O 0.49595(17) 0.35536(11) 0.44731(6)
O4 O 0.4934(2) 0.48224(12) 0.38357(7)
N1 N 0.4640(2) 0.61773(13) 0.47939(8)
C1 C 0.3488(2) 0.23362(15) 0.40317(8)
C2 C 0.2628(2) 0.22051(16) 0.34708(9)
C3 C 0.3348(2) 0.15249(16) 0.30185(9)
C4 C 0.4701(2) 0.19535(17) 0.27597(9)
C5 C 0.5972(2) 0.13993(18) 0.29980(10)
C6 C 0.7334(3) 0.1945(2) 0.28585(11)
C7 C 0.7592(3) 0.2845(2) 0.32408(11)
C8 C 0.7545(2) 0.26132(19) 0.38943(10)
C9 C 0.6168(2) 0.21277(15) 0.40755(9)
C10 C 0.4916(2) 0.28241(14) 0.39930(8)
C11 C 0.5964(2) 0.12234(16) 0.36706(9)
C12 C 0.2271(3) 0.3176(2) 0.31809(11)
C13 C 0.1912(3) 0.3986(2) 0.34454(15)
C14 C 0.1298(3) 0.1699(2) 0.36664(11)
C15 C 0.4694(3) 0.1955(2) 0.20850(10)
C16 C 0.6030(3) 0.0336(2) 0.27536(12)
C17 C 0.6868(4) -0.0262(2) 0.31893(14)
C18 C 0.6982(3) 0.0373(2) 0.37299(12)
C19 C 0.6207(3) 0.17716(16) 0.47148(9)
C20 C 0.7986(3) 0.3519(2) 0.42481(12)
C21 C 0.4947(2) 0.45044(15) 0.43258(10)
C22 C 0.4987(3) 0.51124(15) 0.48820(9)
C23 C 0.4606(3) 0.66598(17) 0.53856(11)
C24 C 0.3256(3) 0.62886(19) 0.45156(13)
C25 C 0.5727(3) 0.66926(16) 0.44418(10)
H1 H 0.18680 0.08250 0.26810
H2 H 0.29300 0.27270 0.43100
H3 H 0.36140 0.16750 0.42070
H4 H 0.35930 0.09000 0.32260
H5 H 0.47730 0.26550 0.28910
H6 H 0.81090 0.14780 0.29080
H7 H 0.73190 0.21540 0.24440
H8 H 0.68910 0.33520 0.31510
H9 H 0.85050 0.31240 0.31440
H10 H 0.82700 0.21040 0.39630
H11 H 0.50030 0.31740 0.36100
H12 H 0.50380 0.09470 0.37670
H13 H 0.23130 0.31960 0.27660
H14 H 0.18550 0.40030 0.38600
H15 H 0.17070 0.45600 0.32240
H16 H 0.08530 0.20970 0.39700
H17 H 0.15130 0.10450 0.38230
H18 H 0.06770 0.16320 0.33310
H19 H 0.55800 0.21980 0.19410
H20 H 0.39550 0.23840 0.19440
H21 H 0.45430 0.12820 0.19420
H22 H 0.50910 0.00610 0.27160
H23 H 0.64750 0.03290 0.23640
H24 H 0.63990 -0.08910 0.32810
H25 H 0.77910 -0.04110 0.30290
H26 H 0.70980 0.14620 0.47950
H27 H 0.54690 0.12910 0.47790
H28 H 0.60790 0.23350 0.49770
H29 H 0.89830 0.36100 0.42120
H30 H 0.77460 0.34220 0.46600
H31 H 0.75120 0.41050 0.40980
H32 H 0.43310 0.48260 0.51660
H33 H 0.59190 0.50660 0.50540
H34 H 0.38750 0.63620 0.56220
H35 H 0.44270 0.73670 0.53400
H36 H 0.54940 0.65650 0.55810
H37 H 0.25700 0.59290 0.47460
H38 H 0.32840 0.60210 0.41180
H39 H 0.30090 0.69890 0.45010
H40 H 0.54760 0.73870 0.43930
H41 H 0.58040 0.63790 0.40570
H42 H 0.66120 0.66470 0.46460
O5 O 0.2057(2) 0.93387(18) 0.29411(9)
C26 C 0.0706(4) 0.8990(4) 0.30373(16)
H43 H 0.25170 0.92830 0.32500
H44 H 0.07440 0.83310 0.32120
H45 H 0.02140 0.89570 0.26640
H46 H 0.02230 0.94400 0.33020
O6 O 0.1335(3) 0.19183(19) 0.14748(11)
C27 C 0.0490(6) 0.1142(3) 0.1372(2)
H47 H 0.16860 0.18620 0.18090
H48 H 0.09960 0.05260 0.14320
H49 H 0.01560 0.11710 0.09680
H50 H -0.02940 0.11690 0.16410
loop_
_geom_bond_atom_site_label_1
_geom_bond_atom_site_label_2
_geom_bond_site_symmetry_1
_geom_bond_site_symmetry_2
O1 C3 1_555 1_555
O2 C18 1_555 1_555
O3 C10 1_555 1_555
O4 C21 1_555 1_555
N1 C22 1_555 1_555
C1 C2 1_555 1_555
C2 C3 1_555 1_555
C3 C4 1_555 1_555
C4 C5 1_555 1_555
C5 C6 1_555 1_555
C6 C7 1_555 1_555
C7 C8 1_555 1_555
C8 C9 1_555 1_555
C9 C10 1_555 1_555
C10 C1 1_555 1_555
C11 C5 1_555 1_555
C12 C2 1_555 1_555
C13 C12 1_555 1_555
C14 C2 1_555 1_555
C15 C4 1_555 1_555
C16 C5 1_555 1_555
C17 C16 1_555 1_555
C18 C11 1_555 1_555
C19 C9 1_555 1_555
C20 C8 1_555 1_555
C21 O3 1_555 1_555
C22 C21 1_555 1_555
C23 N1 1_555 1_555
C24 N1 1_555 1_555
C25 N1 1_555 1_555
H1 O1 1_555 1_555
H2 C1 1_555 1_555
H3 C1 1_555 1_555
H4 C3 1_555 1_555
H5 C4 1_555 1_555
H6 C6 1_555 1_555
H7 C6 1_555 1_555
H8 C7 1_555 1_555
H9 C7 1_555 1_555
H10 C8 1_555 1_555
H11 C10 1_555 1_555
H12 C11 1_555 1_555
H13 C12 1_555 1_555
H14 C13 1_555 1_555
H15 C13 1_555 1_555
H16 C14 1_555 1_555
H17 C14 1_555 1_555
H18 C14 1_555 1_555
H19 C15 1_555 1_555
H20 C15 1_555 1_555
H21 C15 1_555 1_555
H22 C16 1_555 1_555
H23 C16 1_555 1_555
H24 C17 1_555 1_555
H25 C17 1_555 1_555
H26 C19 1_555 1_555
H27 C19 1_555 1_555
H28 C19 1_555 1_555
H29 C20 1_555 1_555
H30 C20 1_555 1_555
H31 C20 1_555 1_555
H32 C22 1_555 1_555
H33 C22 1_555 1_555
H34 C23 1_555 1_555
H35 C23 1_555 1_555
H36 C23 1_555 1_555
H37 C24 1_555 1_555
H38 C24 1_555 1_555
H39 C24 1_555 1_555
H40 C25 1_555 1_555
H41 C25 1_555 1_555
H42 C25 1_555 1_555
O5 C26 1_555 1_555
C26 H44 1_555 1_555
H43 O5 1_555 1_555
H45 C26 1_555 1_555
H46 C26 1_555 1_555
O6 C27 1_555 1_555
C27 H48 1_555 1_555
H47 O6 1_555 1_555
H49 C27 1_555 1_555
H50 C27 1_555 1_555
C9 C11 1_555 1_555
C17 C18 1_555 1_555

#END
