
#######################################################################
#
#                 Cambridge Crystallographic Data Centre
#                                CCDC 
#
#######################################################################
#
# If this CIF has been generated from an entry in the Cambridge 
# Structural Database, then it will include bibliographic, chemical, 
# crystal, experimental, refinement or atomic coordinate data resulting 
# from the CCDC's data processing and validation procedures.
#
#######################################################################

data_IFURUX
_chemical_formula_moiety         'C28 H30 N2 O1 S2'
_chemical_name_systematic        
3',6'-bis(Diethylamino)-3H-spiro(2-benzothiophene-1,9'-xanthene)-3-thione
_symmetry_cell_setting           orthorhombic
_symmetry_space_group_name_H-M   'P 21 21 21'
_symmetry_Int_Tables_number      19
_space_group_name_Hall           'P 2ac 2ab'
loop_
_symmetry_equiv_pos_site_id
_symmetry_equiv_pos_as_xyz
1 x,y,z
2 1/2-x,-y,1/2+z
3 -x,1/2+y,1/2-z
4 1/2+x,1/2-y,-z
_cell_length_a                   12.181(4)
_cell_length_b                   13.455(5)
_cell_length_c                   15.254(5)
_cell_angle_alpha                90
_cell_angle_beta                 90
_cell_angle_gamma                90
_cell_volume                     2500.06
_exptl_crystal_colour            colorless
_exptl_crystal_description       block
_cell_formula_units_Z            4
_exptl_crystal_recrystallization_method dichloromethane/acetonitrile
loop_
_atom_site_label
_atom_site_type_symbol
_atom_site_fract_x
_atom_site_fract_y
_atom_site_fract_z
S1 S 0.18097(9) 0.90100(7) 0.96568(7)
O1 O 0.3456(2) 0.65755(17) 0.94489(16)
C1 C 0.3709(3) 0.7217(2) 0.8770(2)
N1 N 0.0836(3) 0.4480(2) 1.0842(2)
S2 S 0.03347(14) 1.07464(9) 0.95303(13)
N2 N 0.6222(2) 0.7794(2) 0.75337(19)
C2 C 0.4781(3) 0.7178(2) 0.8483(2)
H1 H 0.5268 0.6732 0.8739
C3 C 0.5144(3) 0.7802(2) 0.7811(2)
C4 C 0.4354(3) 0.8420(3) 0.7425(2)
H2 H 0.4551 0.8815 0.6951
C5 C 0.3288(3) 0.8455(2) 0.7733(2)
H3 H 0.2793 0.8886 0.7469
C6 C 0.2932(3) 0.7864(2) 0.8429(2)
C7 C 0.1800(3) 0.7946(2) 0.8827(2)
C8 C 0.1525(3) 0.7008(2) 0.9302(2)
C9 C 0.0457(3) 0.6738(2) 0.9530(2)
H4 H -0.0120 0.7138 0.9343
C10 C 0.0219(3) 0.5917(2) 1.0014(2)
H5 H -0.0508 0.5765 1.0140
C11 C 0.1058(3) 0.5296(2) 1.0326(2)
C12 C 0.2144(3) 0.5551(2) 1.0098(2)
H6 H 0.2725 0.5152 1.0281
C13 C 0.2346(3) 0.6388(2) 0.9605(2)
C14 C 0.0954(3) 0.8293(3) 0.8183(2)
C15 C 0.0682(3) 0.7754(3) 0.7464(2)
H7 H 0.0963 0.7117 0.7387
C16 C -0.0025(4) 0.8164(4) 0.6842(3)
H8 H -0.0217 0.7797 0.6349
C17 C -0.0449(4) 0.9130(4) 0.6952(3)
H9 H -0.0889 0.9414 0.6522
C18 C -0.0212(4) 0.9629(3) 0.7680(4)
H10 H -0.0519 1.0254 0.7770
C19 C 0.0501(3) 0.9223(3) 0.8319(3)
C20 C 0.0808(4) 0.9700(3) 0.9130(3)
C21 C -0.0282(3) 0.4250(3) 1.1101(3)
H11 H -0.0645 0.4864 1.1264
H12 H -0.0257 0.3831 1.1618
C22 C -0.0970(4) 0.3734(3) 1.0412(4)
H13 H -0.1692 0.3612 1.0641
H14 H -0.0633 0.3114 1.0256
H15 H -0.1022 0.4149 0.9901
C23 C 0.1720(4) 0.3817(3) 1.1151(3)
H16 H 0.2359 0.4214 1.1297
H17 H 0.1480 0.3484 1.1682
C24 C 0.2028(5) 0.3077(4) 1.0508(3)
H18 H 0.2603 0.2667 1.0741
H19 H 0.2283 0.3402 0.9986
H20 H 0.1403 0.2672 1.0370
C25 C 0.6586(4) 0.8446(3) 0.6825(3)
H21 H 0.6055 0.8415 0.6351
H22 H 0.7280 0.8203 0.6600
C26 C 0.6723(4) 0.9514(3) 0.7101(3)
H23 H 0.6962 0.9901 0.6608
H24 H 0.7261 0.9554 0.7559
H25 H 0.6035 0.9766 0.7310
C27 C 0.7102(3) 0.7392(3) 0.8084(3)
H26 H 0.6856 0.7392 0.8689
H27 H 0.7732 0.7832 0.8046
C28 C 0.7463(5) 0.6358(4) 0.7846(4)
H28 H 0.8038 0.6151 0.8236
H29 H 0.7729 0.6353 0.7254
H30 H 0.6852 0.5912 0.7898
loop_
_geom_bond_atom_site_label_1
_geom_bond_atom_site_label_2
_geom_bond_site_symmetry_1
_geom_bond_site_symmetry_2
S1 C7 1_555 1_555
O1 C1 1_555 1_555
C1 C2 1_555 1_555
N1 C11 1_555 1_555
S2 C20 1_555 1_555
N2 C3 1_555 1_555
C2 H1 1_555 1_555
C3 C2 1_555 1_555
C4 C3 1_555 1_555
H2 C4 1_555 1_555
C5 C4 1_555 1_555
H3 C5 1_555 1_555
C6 C1 1_555 1_555
C7 C6 1_555 1_555
C8 C7 1_555 1_555
C9 C8 1_555 1_555
H4 C9 1_555 1_555
C10 C9 1_555 1_555
H5 C10 1_555 1_555
C11 C10 1_555 1_555
C12 C11 1_555 1_555
H6 C12 1_555 1_555
C13 O1 1_555 1_555
C14 C7 1_555 1_555
C15 C14 1_555 1_555
H7 C15 1_555 1_555
C16 C15 1_555 1_555
H8 C16 1_555 1_555
C17 C16 1_555 1_555
H9 C17 1_555 1_555
C18 C17 1_555 1_555
H10 C18 1_555 1_555
C19 C14 1_555 1_555
C20 S1 1_555 1_555
C21 N1 1_555 1_555
H11 C21 1_555 1_555
H12 C21 1_555 1_555
C22 C21 1_555 1_555
H13 C22 1_555 1_555
H14 C22 1_555 1_555
H15 C22 1_555 1_555
C23 N1 1_555 1_555
H16 C23 1_555 1_555
H17 C23 1_555 1_555
C24 C23 1_555 1_555
H18 C24 1_555 1_555
H19 C24 1_555 1_555
H20 C24 1_555 1_555
C25 N2 1_555 1_555
H21 C25 1_555 1_555
H22 C25 1_555 1_555
C26 C25 1_555 1_555
H23 C26 1_555 1_555
H24 C26 1_555 1_555
H25 C26 1_555 1_555
C27 N2 1_555 1_555
H26 C27 1_555 1_555
H27 C27 1_555 1_555
C28 C27 1_555 1_555
H28 C28 1_555 1_555
H29 C28 1_555 1_555
H30 C28 1_555 1_555
C5 C6 1_555 1_555
C8 C13 1_555 1_555
C12 C13 1_555 1_555
C18 C19 1_555 1_555
C19 C20 1_555 1_555

#END
