
#######################################################################
#
#                 Cambridge Crystallographic Data Centre
#                                CCDC 
#
#######################################################################
#
# If this CIF has been generated from an entry in the Cambridge 
# Structural Database, then it will include bibliographic, chemical, 
# crystal, experimental, refinement or atomic coordinate data resulting 
# from the CCDC's data processing and validation procedures.
#
#######################################################################

data_IGADIF
_chemical_formula_moiety         'C34 H46 Cl2 N2 Si2'
_chemical_name_systematic        
2,3-Dichloro-5,10-bis((triisopropylsilyl)ethynyl)benzo[g]quinoxaline
_symmetry_cell_setting           monoclinic
_symmetry_space_group_name_H-M   'P 21/c'
_symmetry_Int_Tables_number      14
_space_group_name_Hall           '-P 2ybc'
loop_
_symmetry_equiv_pos_site_id
_symmetry_equiv_pos_as_xyz
1 x,y,z
2 -x,1/2+y,1/2-z
3 -x,-y,-z
4 x,1/2-y,1/2+z
_cell_length_a                   14.5958(11)
_cell_length_b                   14.9387(10)
_cell_length_c                   16.2175(11)
_cell_angle_alpha                90
_cell_angle_beta                 98.656(2)
_cell_angle_gamma                90
_cell_volume                     3495.82
_exptl_crystal_colour            orange
_exptl_crystal_description       polyhedron
_cell_formula_units_Z            4
loop_
_atom_site_label
_atom_site_type_symbol
_atom_site_fract_x
_atom_site_fract_y
_atom_site_fract_z
Si1 Si 0.95661(9) 0.12903(9) 0.29322(8)
Si2 Si 1.58058(8) -0.32738(8) 0.17013(8)
Cl1 Cl 1.16611(10) 0.08974(9) -0.03118(8)
Cl2 Cl 1.33978(9) -0.02614(9) -0.06187(7)
C1 C 1.1177(3) 0.0099(3) 0.2657(3)
C2 C 1.0549(3) 0.0556(3) 0.2797(3)
C3 C 1.4177(3) -0.2120(3) 0.2029(2)
C4 C 1.4826(3) -0.2569(3) 0.1902(3)
C5 C 1.1929(3) -0.0463(3) 0.2515(3)
C6 C 1.2244(3) -0.0444(3) 0.1738(3)
N1 N 1.1828(2) 0.0128(2) 0.1125(2)
C7 C 1.2168(3) 0.0156(3) 0.0440(3)
C8 C 1.2941(3) -0.0379(3) 0.0296(3)
N2 N 1.3331(2) -0.0946(2) 0.0837(2)
C9 C 1.2990(3) -0.0992(3) 0.1585(3)
C10 C 1.3418(3) -0.1583(3) 0.2200(3)
C11 C 1.3112(3) -0.1611(3) 0.2987(3)
C12 C 1.3535(3) -0.2180(3) 0.3634(3)
H1 H 1.4022 -0.2568 0.3534
C13 C 1.3253(3) -0.2177(3) 0.4396(3)
H2 H 1.3543 -0.2562 0.4823
C14 C 1.2534(3) -0.1606(3) 0.4551(3)
H3 H 1.2347 -0.1607 0.5087
C15 C 1.2105(3) -0.1056(3) 0.3954(3)
H4 H 1.1618 -0.0678 0.4074
C16 C 1.2378(3) -0.1039(3) 0.3141(3)
C17 C 1.0089(9) 0.2140(7) 0.3782(5)
H5 H 1.0616 0.2442 0.3567
C18 C 0.9388(11) 0.2864(10) 0.3894(15)
H6 H 0.8798 0.2587 0.3968
H7 H 0.9296 0.3250 0.3399
H8 H 0.9619 0.3224 0.4387
C19 C 1.0489(10) 0.1693(8) 0.4604(6)
H9 H 1.0773 0.2148 0.4997
H10 H 1.0959 0.1254 0.4504
H11 H 0.9992 0.1390 0.4839
C20 C 0.9298(3) 0.1951(3) 0.1955(3)
H12 H 0.8741 0.2325 0.2005
C21 C 1.0082(4) 0.2592(4) 0.1817(4)
H13 H 1.0648 0.2249 0.1789
H14 H 1.0192 0.3018 0.2281
H15 H 0.9905 0.2919 0.1293
C22 C 0.9050(4) 0.1355(4) 0.1190(3)
H16 H 0.8892 0.1730 0.0693
H17 H 0.8519 0.0978 0.1262
H18 H 0.9581 0.0975 0.1123
C23 C 0.8576(3) 0.0509(4) 0.3049(4)
H19 H 0.8529 0.0108 0.2550
C24 C 0.7644(3) 0.0981(4) 0.2961(3)
H20 H 0.7152 0.0538 0.2981
H21 H 0.7533 0.1299 0.2426
H22 H 0.7644 0.1410 0.3418
C25 C 0.8720(4) -0.0105(5) 0.3766(4)
H23 H 0.8754 0.0240 0.4284
H24 H 0.9300 -0.0435 0.3765
H25 H 0.8202 -0.0528 0.3727
C26 C 1.6908(3) -0.2810(3) 0.2305(3)
H26 H 1.7423 -0.3205 0.2179
C27 C 1.6940(4) -0.2824(4) 0.3230(3)
H27 H 1.7546 -0.2608 0.3500
H28 H 1.6843 -0.3437 0.3414
H29 H 1.6452 -0.2435 0.3384
C28 C 1.7130(5) -0.1879(5) 0.2041(4)
H30 H 1.6637 -0.1469 0.2147
H31 H 1.7176 -0.1878 0.1444
H32 H 1.7721 -0.1685 0.2359
C29 C 1.5811(3) -0.3247(3) 0.0553(3)
H33 H 1.5248 -0.3584 0.0295
C30 C 1.6649(4) -0.3751(4) 0.0304(3)
H34 H 1.6614 -0.3742 -0.0304
H35 H 1.6643 -0.4372 0.0498
H36 H 1.7223 -0.3459 0.0561
C31 C 1.5730(3) -0.2307(3) 0.0160(3)
H37 H 1.6308 -0.1977 0.0329
H38 H 1.5215 -0.1984 0.0350
H39 H 1.5614 -0.2360 -0.0449
C32 C 1.5564(3) -0.4438(3) 0.2060(3)
H40 H 1.6174 -0.4754 0.2176
C33 C 1.4949(4) -0.4986(3) 0.1392(3)
H41 H 1.4821 -0.5572 0.1622
H42 H 1.5270 -0.5069 0.0909
H43 H 1.4365 -0.4668 0.1220
C34 C 1.5140(3) -0.4457(3) 0.2876(3)
H44 H 1.4533 -0.4162 0.2786
H45 H 1.5551 -0.4141 0.3315
H46 H 1.5067 -0.5079 0.3046
C35? C 0.9699(11) 0.1814(12) 0.3945(10)
H47? H 0.9439 0.1386 0.4325
C36? C 0.9174(19) 0.2697(17) 0.399(3)
H48? H 0.8986 0.2760 0.4539
H49? H 0.8623 0.2698 0.3559
H50? H 0.9578 0.3197 0.3889
C37? C 1.0730(10) 0.1927(14) 0.4294(15)
H51? H 1.1040 0.2254 0.3890
H52? H 1.1017 0.1337 0.4397
H53? H 1.0792 0.2264 0.4819
loop_
_geom_bond_atom_site_label_1
_geom_bond_atom_site_label_2
_geom_bond_site_symmetry_1
_geom_bond_site_symmetry_2
Si1 C2 1_555 1_555
Si2 C4 1_555 1_555
Cl1 C7 1_555 1_555
Cl2 C8 1_555 1_555
C1 C2 1_555 1_555
C3 C4 1_555 1_555
C5 C1 1_555 1_555
C6 C5 1_555 1_555
N1 C6 1_555 1_555
C7 N1 1_555 1_555
C8 C7 1_555 1_555
N2 C8 1_555 1_555
C9 C6 1_555 1_555
C10 C3 1_555 1_555
C11 C10 1_555 1_555
C12 C11 1_555 1_555
H1 C12 1_555 1_555
C13 C12 1_555 1_555
H2 C13 1_555 1_555
C14 C13 1_555 1_555
H3 C14 1_555 1_555
C15 C14 1_555 1_555
H4 C15 1_555 1_555
C16 C5 1_555 1_555
C17 Si1 1_555 1_555
H5 C17 1_555 1_555
C18 C17 1_555 1_555
H6 C18 1_555 1_555
H7 C18 1_555 1_555
H8 C18 1_555 1_555
C19 C17 1_555 1_555
H9 C19 1_555 1_555
H10 C19 1_555 1_555
H11 C19 1_555 1_555
C20 Si1 1_555 1_555
H12 C20 1_555 1_555
C21 C20 1_555 1_555
H13 C21 1_555 1_555
H14 C21 1_555 1_555
H15 C21 1_555 1_555
C22 C20 1_555 1_555
H16 C22 1_555 1_555
H17 C22 1_555 1_555
H18 C22 1_555 1_555
C23 Si1 1_555 1_555
H19 C23 1_555 1_555
C24 C23 1_555 1_555
H20 C24 1_555 1_555
H21 C24 1_555 1_555
H22 C24 1_555 1_555
C25 C23 1_555 1_555
H23 C25 1_555 1_555
H24 C25 1_555 1_555
H25 C25 1_555 1_555
C26 Si2 1_555 1_555
H26 C26 1_555 1_555
C27 C26 1_555 1_555
H27 C27 1_555 1_555
H28 C27 1_555 1_555
H29 C27 1_555 1_555
C28 C26 1_555 1_555
H30 C28 1_555 1_555
H31 C28 1_555 1_555
H32 C28 1_555 1_555
C29 Si2 1_555 1_555
H33 C29 1_555 1_555
C30 C29 1_555 1_555
H34 C30 1_555 1_555
H35 C30 1_555 1_555
H36 C30 1_555 1_555
C31 C29 1_555 1_555
H37 C31 1_555 1_555
H38 C31 1_555 1_555
H39 C31 1_555 1_555
C32 Si2 1_555 1_555
H40 C32 1_555 1_555
C33 C32 1_555 1_555
H41 C33 1_555 1_555
H42 C33 1_555 1_555
H43 C33 1_555 1_555
C34 C32 1_555 1_555
H44 C34 1_555 1_555
H45 C34 1_555 1_555
H46 C34 1_555 1_555
N2 C9 1_555 1_555
C9 C10 1_555 1_555
C11 C16 1_555 1_555
C15 C16 1_555 1_555

#END
