
#######################################################################
#
#                 Cambridge Crystallographic Data Centre
#                                CCDC 
#
#######################################################################
#
# If this CIF has been generated from an entry in the Cambridge 
# Structural Database, then it will include bibliographic, chemical, 
# crystal, experimental, refinement or atomic coordinate data resulting 
# from the CCDC's data processing and validation procedures.
#
#######################################################################

data_IGAHUW
_chemical_formula_moiety         'C40 H42 N2 O4'
_chemical_name_systematic        
3-[2,6-bis(propan-2-yl)phenyl]-4-{3-[2,6-bis(propan-2-yl)phenyl]-2-oxo-2,3-dihydro-4H-1,3-benzoxazin-4-ylidene}-3,4-dihydro-2H-1,3-benzoxazin-2-one
_symmetry_cell_setting           orthorhombic
_symmetry_space_group_name_H-M   'P 21 21 21'
_symmetry_Int_Tables_number      19
_space_group_name_Hall           'P 2ac 2ab'
loop_
_symmetry_equiv_pos_site_id
_symmetry_equiv_pos_as_xyz
1 x,y,z
2 1/2-x,-y,1/2+z
3 -x,1/2+y,1/2-z
4 1/2+x,1/2-y,-z
_cell_length_a                   10.358(2)
_cell_length_b                   11.724(2)
_cell_length_c                   26.612(5)
_cell_angle_alpha                90
_cell_angle_beta                 90
_cell_angle_gamma                90
_cell_volume                     3231.69
_exptl_crystal_colour            colorless
_exptl_crystal_description       block
_cell_formula_units_Z            4
_exptl_crystal_recrystallization_method toluene
_exptl_crystal_preparation       Luminescent
loop_
_atom_site_label
_atom_site_type_symbol
_atom_site_fract_x
_atom_site_fract_y
_atom_site_fract_z
O1 O 0.2210(3) 0.1967(2) 0.68999(10)
O2 O 0.3337(2) 0.1794(2) 0.61939(10)
O3 O 0.2113(3) 0.5770(2) 0.52090(9)
O4 O 0.3701(3) 0.5957(2) 0.46512(9)
N1 N 0.3186(3) 0.3569(2) 0.65824(11)
N2 N 0.4213(3) 0.5284(2) 0.54370(11)
C1 C 0.3393(4) 0.5687(3) 0.50711(14)
C2 C 0.5578(4) 0.5323(3) 0.53146(13)
C3 C 0.3659(4) 0.4980(3) 0.59235(13)
C4 C 0.6370(4) 0.6097(3) 0.55815(13)
C5 C 0.1937(4) 0.6263(3) 0.56810(15)
C6 C 0.3834(4) 0.4532(3) 0.73606(13)
C7 C 0.2866(4) 0.2429(3) 0.65878(14)
C8 C 0.4609(4) 0.2034(3) 0.60549(13)
C9 C 0.4989(4) 0.3168(3) 0.60407(13)
C10 C 0.3952(4) 0.4008(3) 0.61664(13)
C11 C 0.2838(4) 0.4196(3) 0.70325(13)
C12 C 0.6312(4) 0.3383(3) 0.59841(13)
H1 H 0.6627 0.4143 0.6000
C13 C 0.5428(4) 0.1128(3) 0.59647(14)
H2 H 0.5117 0.0366 0.5960
C14 C 0.2669(4) 0.6475(3) 0.65248(14)
H3 H 0.3223 0.6263 0.6794
C15 C 0.2708(4) 0.5871(3) 0.60724(13)
C16 C 0.5828(4) 0.6901(3) 0.59793(14)
H4 H 0.5210 0.6451 0.6189
C17 C 0.5257(4) 0.3764(3) 0.46341(14)
H5 H 0.4350 0.3792 0.4763
C18 C 0.6065(3) 0.4597(3) 0.49399(13)
C19 C 0.7683(4) 0.6095(3) 0.54733(14)
H6 H 0.8240 0.6599 0.5650
C20 C 0.6725(4) 0.1370(3) 0.58817(14)
H7 H 0.7313 0.0770 0.5809
C21 C 0.7161(4) 0.2484(3) 0.59043(14)
H8 H 0.8056 0.2637 0.5865
C22 C 0.5241(4) 0.4113(3) 0.40773(14)
H9 H 0.4794 0.4846 0.4041
H10 H 0.4788 0.3530 0.3881
H11 H 0.6129 0.4187 0.3955
C23 C 0.7397(4) 0.4643(3) 0.48516(14)
H12 H 0.7761 0.4156 0.4604
C24 C 0.3488(4) 0.5132(3) 0.77903(15)
H13 H 0.4143 0.5387 0.8014
C25 C 0.1082(4) 0.7164(3) 0.57290(16)
H14 H 0.0562 0.7402 0.5454
C26 C 0.1532(4) 0.4403(3) 0.71370(14)
C27 C 0.8193(4) 0.5370(3) 0.51123(15)
H15 H 0.9093 0.5376 0.5045
C28 C 0.1240(4) 0.4991(3) 0.75748(14)
H16 H 0.0362 0.5142 0.7655
C29 C 0.2208(4) 0.5364(3) 0.78993(14)
H17 H 0.1990 0.5777 0.8194
C30 C 0.5244(4) 0.4253(3) 0.72481(15)
H18 H 0.5370 0.4335 0.6877
C31 C 0.1010(4) 0.7707(3) 0.61905(16)
H19 H 0.0402 0.8303 0.6240
C32 C 0.0425(4) 0.4006(3) 0.68040(14)
H20 H 0.0801 0.3609 0.6505
C33 C 0.5749(4) 0.2527(3) 0.46851(14)
H21 H 0.6648 0.2486 0.4572
H22 H 0.5216 0.2021 0.4478
H23 H 0.5697 0.2289 0.5037
C34 C -0.0403(4) 0.5000(4) 0.66148(16)
H24 H -0.0741 0.5428 0.6902
H25 H -0.1124 0.4702 0.6416
H26 H 0.0125 0.5505 0.6405
C35 C 0.6849(4) 0.7396(4) 0.63338(16)
H27 H 0.7367 0.6774 0.6476
H28 H 0.6423 0.7814 0.6606
H29 H 0.7412 0.7916 0.6146
C36 C 0.1823(4) 0.7383(3) 0.65821(16)
H30 H 0.1799 0.7788 0.6891
C37 C 0.5061(4) 0.7873(3) 0.57340(16)
H31 H 0.5655 0.8381 0.5555
H32 H 0.4604 0.8305 0.5994
H33 H 0.4434 0.7554 0.5497
C38 C -0.0436(4) 0.3156(3) 0.70855(16)
H34 H 0.0087 0.2511 0.7201
H35 H -0.1115 0.2879 0.6860
H36 H -0.0830 0.3534 0.7376
C39 C 0.5542(5) 0.3034(4) 0.7382(2)
H37 H 0.5543 0.2948 0.7748
H38 H 0.6392 0.2827 0.7248
H39 H 0.4883 0.2533 0.7236
C40 C 0.6217(5) 0.5057(4) 0.7508(2)
H40 H 0.5991 0.5851 0.7433
H41 H 0.7089 0.4898 0.7383
H42 H 0.6190 0.4933 0.7872
loop_
_geom_bond_atom_site_label_1
_geom_bond_atom_site_label_2
_geom_bond_site_symmetry_1
_geom_bond_site_symmetry_2
O1 C7 1_555 1_555
O2 C7 1_555 1_555
O3 C1 1_555 1_555
O4 C1 1_555 1_555
N1 C7 1_555 1_555
N2 C1 1_555 1_555
C2 N2 1_555 1_555
C3 N2 1_555 1_555
C4 C2 1_555 1_555
C5 O3 1_555 1_555
C6 C11 1_555 1_555
C8 O2 1_555 1_555
C9 C8 1_555 1_555
C10 N1 1_555 1_555
C11 N1 1_555 1_555
C12 C9 1_555 1_555
H1 C12 1_555 1_555
C13 C8 1_555 1_555
H2 C13 1_555 1_555
C14 H3 1_555 1_555
C15 C3 1_555 1_555
C16 C4 1_555 1_555
H4 C16 1_555 1_555
C17 H5 1_555 1_555
C18 C2 1_555 1_555
C19 C4 1_555 1_555
H6 C19 1_555 1_555
C20 C13 1_555 1_555
H7 C20 1_555 1_555
C21 C12 1_555 1_555
H8 C21 1_555 1_555
C22 C17 1_555 1_555
H9 C22 1_555 1_555
H10 C22 1_555 1_555
H11 C22 1_555 1_555
C23 C18 1_555 1_555
H12 C23 1_555 1_555
C24 C6 1_555 1_555
H13 C24 1_555 1_555
C25 C5 1_555 1_555
H14 C25 1_555 1_555
C26 C11 1_555 1_555
C27 C19 1_555 1_555
H15 C27 1_555 1_555
C28 C26 1_555 1_555
H16 C28 1_555 1_555
C29 C24 1_555 1_555
H17 C29 1_555 1_555
C30 C6 1_555 1_555
H18 C30 1_555 1_555
C31 C25 1_555 1_555
H19 C31 1_555 1_555
C32 C26 1_555 1_555
H20 C32 1_555 1_555
C33 C17 1_555 1_555
H21 C33 1_555 1_555
H22 C33 1_555 1_555
H23 C33 1_555 1_555
C34 C32 1_555 1_555
H24 C34 1_555 1_555
H25 C34 1_555 1_555
H26 C34 1_555 1_555
C35 C16 1_555 1_555
H27 C35 1_555 1_555
H28 C35 1_555 1_555
H29 C35 1_555 1_555
C36 C14 1_555 1_555
H30 C36 1_555 1_555
C37 C16 1_555 1_555
H31 C37 1_555 1_555
H32 C37 1_555 1_555
H33 C37 1_555 1_555
C38 C32 1_555 1_555
H34 C38 1_555 1_555
H35 C38 1_555 1_555
H36 C38 1_555 1_555
C39 C30 1_555 1_555
H37 C39 1_555 1_555
H38 C39 1_555 1_555
H39 C39 1_555 1_555
C40 C30 1_555 1_555
H40 C40 1_555 1_555
H41 C40 1_555 1_555
H42 C40 1_555 1_555
C3 C10 1_555 1_555
C5 C15 1_555 1_555
C9 C10 1_555 1_555
C14 C15 1_555 1_555
C17 C18 1_555 1_555
C20 C21 1_555 1_555
C23 C27 1_555 1_555
C28 C29 1_555 1_555
C31 C36 1_555 1_555

#END
