
#######################################################################
#
#                 Cambridge Crystallographic Data Centre
#                                CCDC 
#
#######################################################################
#
# If this CIF has been generated from an entry in the Cambridge 
# Structural Database, then it will include bibliographic, chemical, 
# crystal, experimental, refinement or atomic coordinate data resulting 
# from the CCDC's data processing and validation procedures.
#
#######################################################################

data_IGAHOQ
_chemical_formula_moiety         'C20 H22 N1 O2 1+,C1 F3 O3 S1 1-'
_chemical_name_systematic        
'3-[2,6-bis(propan-2-yl)phenyl]-2-oxo-2H-1,3-benzoxazin-3-ium trifluoromethanesulfonate'
_symmetry_cell_setting           monoclinic
_symmetry_space_group_name_H-M   'P 21/c'
_symmetry_Int_Tables_number      14
_space_group_name_Hall           '-P 2ybc'
loop_
_symmetry_equiv_pos_site_id
_symmetry_equiv_pos_as_xyz
1 x,y,z
2 -x,1/2+y,1/2-z
3 -x,-y,-z
4 x,1/2-y,1/2+z
_cell_length_a                   11.673(2)
_cell_length_b                   20.278(4)
_cell_length_c                   9.5180(19)
_cell_angle_alpha                90
_cell_angle_beta                 111.84(3)
_cell_angle_gamma                90
_cell_volume                     2091.26
_exptl_crystal_colour            'light yellow'
_exptl_crystal_description       block
_cell_formula_units_Z            4
_chemical_properties_physical    Air-sensitive,Moisture-sensitive,Hygroscopic
_exptl_crystal_recrystallization_method toluene
loop_
_atom_site_label
_atom_site_type_symbol
_atom_site_fract_x
_atom_site_fract_y
_atom_site_fract_z
S1 S 0.32809(3) 0.57753(2) 0.18880(3)
C1 C 0.21629(12) 0.57758(7) 0.28125(15)
F1 F 0.26800(10) 0.55314(6) 0.42168(10)
F2 F 0.17605(9) 0.63785(5) 0.29203(12)
F3 F 0.11815(8) 0.54050(5) 0.20835(11)
O1 O 0.42587(9) 0.61828(6) 0.28849(11)
O2 O 0.35628(10) 0.50837(5) 0.18879(12)
O3 O 0.26255(9) 0.60573(5) 0.04197(10)
C2 C 0.63116(10) 0.62286(5) 0.61892(12)
H1 H 0.6653 0.5824 0.6667
C3 C 0.52536(10) 0.64818(5) 0.63621(12)
C4 C 0.47013(10) 0.61822(6) 0.72869(13)
H2 H 0.5016 0.5779 0.7792
C5 C 0.36968(11) 0.64823(6) 0.74495(14)
H3 H 0.3308 0.6284 0.8061
C6 C 0.32503(11) 0.70811(6) 0.67102(14)
H4 H 0.2561 0.7283 0.6838
C7 C 0.37814(11) 0.73881(6) 0.57994(13)
H5 H 0.3472 0.7794 0.5306
C8 C 0.47797(10) 0.70780(5) 0.56399(12)
C9 C 0.63352(10) 0.71334(5) 0.45674(13)
C10 C 0.80437(10) 0.63267(5) 0.53714(12)
C11 C 0.90796(11) 0.64354(6) 0.66953(13)
C12 C 1.02080(11) 0.62012(6) 0.67087(14)
H6 H 1.0928 0.6252 0.7596
C13 C 1.02948(11) 0.58965(6) 0.54493(14)
H7 H 1.1071 0.5740 0.5481
C14 C 0.92541(11) 0.58195(6) 0.41430(14)
H8 H 0.9332 0.5619 0.3280
C15 C 0.80971(10) 0.60293(6) 0.40703(13)
C16 C 0.69762(11) 0.59380(6) 0.26270(13)
H9 H 0.6236 0.6103 0.2808
C17 C 0.67728(14) 0.52124(7) 0.21946(16)
H10 H 0.6044 0.5166 0.1260
H11 H 0.7498 0.5038 0.2036
H12 H 0.6645 0.4966 0.3010
C18 C 0.71056(15) 0.63365(8) 0.13341(16)
H13 H 0.6372 0.6271 0.0413
H14 H 0.7187 0.6805 0.1602
H15 H 0.7840 0.6189 0.1157
C19 C 0.90362(11) 0.67861(7) 0.80823(14)
H16 H 0.8180 0.6957 0.7841
C20 C 0.93361(16) 0.63025(9) 0.93969(17)
H17 H 0.9306 0.6532 1.0288
H18 H 0.8730 0.5944 0.9118
H19 H 1.0164 0.6121 0.9629
C21 C 0.99307(15) 0.73708(8) 0.85246(19)
H20 H 0.9883 0.7588 0.9422
H21 H 1.0774 0.7213 0.8750
H22 H 0.9707 0.7686 0.7685
N1 N 0.68432(8) 0.65422(5) 0.53722(10)
O4 O 0.53295(8) 0.73760(4) 0.47600(9)
O5 O 0.67803(8) 0.74067(4) 0.37872(11)
loop_
_geom_bond_atom_site_label_1
_geom_bond_atom_site_label_2
_geom_bond_site_symmetry_1
_geom_bond_site_symmetry_2
S1 C1 1_555 1_555
C1 F1 1_555 1_555
F2 C1 1_555 1_555
F3 C1 1_555 1_555
O1 S1 1_555 1_555
O2 S1 1_555 1_555
O3 S1 1_555 1_555
C2 H1 1_555 1_555
C3 C2 1_555 1_555
C4 C3 1_555 1_555
H2 C4 1_555 1_555
C5 C4 1_555 1_555
H3 C5 1_555 1_555
C6 C5 1_555 1_555
H4 C6 1_555 1_555
C7 C6 1_555 1_555
H5 C7 1_555 1_555
C8 C3 1_555 1_555
C9 N1 1_555 1_555
C10 C11 1_555 1_555
C11 C12 1_555 1_555
C12 H6 1_555 1_555
C13 C12 1_555 1_555
H7 C13 1_555 1_555
C14 C13 1_555 1_555
H8 C14 1_555 1_555
C15 C10 1_555 1_555
C16 C15 1_555 1_555
H9 C16 1_555 1_555
C17 C16 1_555 1_555
H10 C17 1_555 1_555
H11 C17 1_555 1_555
H12 C17 1_555 1_555
C18 C16 1_555 1_555
H13 C18 1_555 1_555
H14 C18 1_555 1_555
H15 C18 1_555 1_555
C19 C11 1_555 1_555
H16 C19 1_555 1_555
C20 C19 1_555 1_555
H17 C20 1_555 1_555
H18 C20 1_555 1_555
H19 C20 1_555 1_555
C21 C19 1_555 1_555
H20 C21 1_555 1_555
H21 C21 1_555 1_555
H22 C21 1_555 1_555
N1 C2 1_555 1_555
O4 C8 1_555 1_555
O5 C9 1_555 1_555
C7 C8 1_555 1_555
C9 O4 1_555 1_555
C10 N1 1_555 1_555
C14 C15 1_555 1_555

#END
