
#######################################################################
#
#                 Cambridge Crystallographic Data Centre
#                                CCDC 
#
#######################################################################
#
# If this CIF has been generated from an entry in the Cambridge 
# Structural Database, then it will include bibliographic, chemical, 
# crystal, experimental, refinement or atomic coordinate data resulting 
# from the CCDC's data processing and validation procedures.
#
#######################################################################

data_IGAKAD
_chemical_formula_moiety         'C20 H23 Cl2 N1 O1'
_chemical_name_systematic        
4-Chloro-2-((1R)-1-(((R)-(2-chlorophenyl)(cyclopentyl)methyl)amino)ethyl)phenol
_symmetry_cell_setting           orthorhombic
_symmetry_space_group_name_H-M   'P 21 21 21'
_symmetry_Int_Tables_number      19
_space_group_name_Hall           'P 2ac 2ab'
loop_
_symmetry_equiv_pos_site_id
_symmetry_equiv_pos_as_xyz
1 x,y,z
2 1/2-x,-y,1/2+z
3 -x,1/2+y,1/2-z
4 1/2+x,1/2-y,-z
_cell_length_a                   11.286(2)
_cell_length_b                   11.539(2)
_cell_length_c                   14.740(3)
_cell_angle_alpha                90
_cell_angle_beta                 90
_cell_angle_gamma                90
_cell_volume                     1919.58
_exptl_crystal_colour            colorless
_exptl_crystal_description       block
_cell_formula_units_Z            4
_exptl_crystal_recrystallization_method n-hexane
loop_
_atom_site_label
_atom_site_type_symbol
_atom_site_fract_x
_atom_site_fract_y
_atom_site_fract_z
C1 C 0.4448(2) 0.9053(2) 0.71545(19)
C2 C 0.5587(2) 0.9243(2) 0.68485(16)
C3 C 0.5716(3) 1.0086(2) 0.61779(19)
H1 H 0.6468 1.0242 0.5952
C4 C 0.4774(3) 1.0688(3) 0.5843(2)
H2 H 0.4891 1.1245 0.5395
C5 C 0.3652(3) 1.0476(3) 0.6164(2)
H3 H 0.3007 1.0886 0.5939
C6 C 0.3501(3) 0.9649(3) 0.6822(2)
H4 H 0.2746 0.9494 0.7043
C7 C 0.6676(2) 0.8606(2) 0.71942(18)
H5 H 0.6412 0.8068 0.7667
C8 C 0.7239(3) 0.7890(3) 0.6445(2)
H6 H 0.7496 0.8417 0.5963
C9 C 0.8298(3) 0.7153(3) 0.6731(3)
H7 H 0.9015 0.7616 0.6749
H8 H 0.8168 0.6814 0.7324
C10 C 0.8389(4) 0.6226(4) 0.6016(3)
H9 H 0.8922 0.6467 0.5536
H10 H 0.8687 0.5512 0.6278
C11 C 0.7165(4) 0.6053(4) 0.5653(3)
H11 H 0.7171 0.6091 0.4995
H12 H 0.6863 0.5301 0.5834
C12 C 0.6404(3) 0.6996(3) 0.6033(2)
H13 H 0.5877 0.6688 0.6493
H14 H 0.5930 0.7345 0.5557
C13 C 0.7159(3) 1.0138(3) 0.83381(19)
H15 H 0.6433 1.0529 0.8140
C14 C 0.8106(4) 1.1051(3) 0.8523(2)
H16 H 0.8828 1.0677 0.8705
H17 H 0.7842 1.1557 0.8999
H18 H 0.8245 1.1494 0.7983
C15 C 0.6889(3) 0.9446(3) 0.91861(19)
C16 C 0.6008(3) 0.9804(3) 0.9767(2)
H19 H 0.5558 1.0452 0.9620
C17 C 0.5781(3) 0.9215(4) 1.0566(2)
C18 C 0.6416(5) 0.8248(4) 1.0777(3)
H20 H 0.6254 0.7844 1.1308
C19 C 0.7279(4) 0.7875(3) 1.0216(3)
H21 H 0.7700 0.7207 1.0362
C20 C 0.7551(3) 0.8472(3) 0.9425(2)
Cl1 Cl 0.41737(8) 0.79949(9) 0.79694(7)
Cl2 Cl 0.47184(9) 0.97355(14) 1.13076(7)
N1 N 0.75723(19) 0.9378(2) 0.76056(16)
O1 O 0.8465(2) 0.8094(2) 0.89205(18)
H22 H 0.8471 0.8437 0.8433
H23 H 0.7853 0.9784 0.7146
loop_
_geom_bond_atom_site_label_1
_geom_bond_atom_site_label_2
_geom_bond_site_symmetry_1
_geom_bond_site_symmetry_2
C1 C2 1_555 1_555
C2 C3 1_555 1_555
C3 H1 1_555 1_555
C4 C3 1_555 1_555
H2 C4 1_555 1_555
C5 C4 1_555 1_555
H3 C5 1_555 1_555
C6 C1 1_555 1_555
H4 C6 1_555 1_555
C7 C2 1_555 1_555
H5 C7 1_555 1_555
C8 C7 1_555 1_555
H6 C8 1_555 1_555
C9 C8 1_555 1_555
H7 C9 1_555 1_555
H8 C9 1_555 1_555
C10 C9 1_555 1_555
H9 C10 1_555 1_555
H10 C10 1_555 1_555
C11 C10 1_555 1_555
H11 C11 1_555 1_555
H12 C11 1_555 1_555
C12 C8 1_555 1_555
H13 C12 1_555 1_555
H14 C12 1_555 1_555
C13 H15 1_555 1_555
C14 C13 1_555 1_555
H16 C14 1_555 1_555
H17 C14 1_555 1_555
H18 C14 1_555 1_555
C15 C13 1_555 1_555
C16 C15 1_555 1_555
H19 C16 1_555 1_555
C17 C16 1_555 1_555
C18 C17 1_555 1_555
H20 C18 1_555 1_555
C19 C18 1_555 1_555
H21 C19 1_555 1_555
C20 C15 1_555 1_555
Cl1 C1 1_555 1_555
Cl2 C17 1_555 1_555
N1 C7 1_555 1_555
O1 C20 1_555 1_555
H22 O1 1_555 1_555
H23 N1 1_555 1_555
C5 C6 1_555 1_555
C11 C12 1_555 1_555
C13 N1 1_555 1_555
C19 C20 1_555 1_555

#END
