
#######################################################################
#
#                 Cambridge Crystallographic Data Centre
#                                CCDC 
#
#######################################################################
#
# If this CIF has been generated from an entry in the Cambridge 
# Structural Database, then it will include bibliographic, chemical, 
# crystal, experimental, refinement or atomic coordinate data resulting 
# from the CCDC's data processing and validation procedures.
#
#######################################################################

data_IGALOU
_chemical_formula_moiety         'C12 H16 O3'
_chemical_name_systematic        
(2,3-dihydro-1H-indene-1,1,2-triyl)trimethanol
_symmetry_cell_setting           monoclinic
_symmetry_space_group_name_H-M   'P 21'
_symmetry_Int_Tables_number      4
_space_group_name_Hall           'P 2yb'
loop_
_symmetry_equiv_pos_site_id
_symmetry_equiv_pos_as_xyz
1 x,y,z
2 -x,1/2+y,-z
_cell_length_a                   12.8484(12)
_cell_length_b                   6.1584(6)
_cell_length_c                   13.6137(13)
_cell_angle_alpha                90
_cell_angle_beta                 97.415(4)
_cell_angle_gamma                90
_cell_volume                     1068.18
_exptl_crystal_colour            colorless
_exptl_crystal_description       prism
_cell_formula_units_Z            4
loop_
_atom_site_label
_atom_site_type_symbol
_atom_site_fract_x
_atom_site_fract_y
_atom_site_fract_z
O1 O -0.13288(17) 1.1396(3) 0.30656(15)
H1 H -0.0950 1.2473 0.3106
O2 O -0.07958(16) 0.5023(3) 0.01371(16)
H2 H -0.1121 0.3883 0.0163
O3 O -0.13283(16) 1.0690(3) -0.01015(16)
H3 H -0.0736 1.0180 -0.0071
C1 C -0.2086(2) 0.9083(5) 0.17544(19)
H4 H -0.2551 1.0295 0.1531
C2 C -0.2666(2) 0.7659(6) 0.2434(2)
H5 H -0.2174 0.6876 0.2907
H6 H -0.3122 0.8528 0.2792
C3 C -0.3289(2) 0.6129(5) 0.1734(2)
C4 C -0.4134(2) 0.4831(6) 0.1884(2)
H7 H -0.4396 0.4854 0.2490
C5 C -0.4585(3) 0.3504(5) 0.1133(3)
H8 H -0.5152 0.2632 0.1234
C6 C -0.4202(2) 0.3453(5) 0.0230(3)
H9 H -0.4510 0.2544 -0.0271
C7 C -0.3357(2) 0.4760(5) 0.0068(2)
H10 H -0.3102 0.4738 -0.0541
C8 C -0.28972(19) 0.6096(4) 0.08236(19)
C9 C -0.19751(19) 0.7641(4) 0.08315(18)
C10 C -0.0942(2) 0.6342(5) 0.0969(2)
H11 H -0.0359 0.7349 0.1093
H12 H -0.0932 0.5421 0.1548
C11 C -0.2073(2) 0.8972(4) -0.0122(2)
H13 H -0.1985 0.8013 -0.0670
H14 H -0.2774 0.9581 -0.0241
C12 C -0.1080(2) 1.0039(5) 0.2271(2)
H15 H -0.0608 0.8887 0.2531
H16 H -0.0735 1.0889 0.1807
O4 O 0.02477(15) 0.4473(4) 0.32721(14)
H17 H 0.0305 0.4679 0.3872
O5 O 0.14896(15) 0.4737(3) 0.51377(13)
H18 H 0.1316 0.5111 0.5671
O6 O 0.12463(17) 1.0095(3) 0.52679(15)
H19 H 0.1400 1.1376 0.5209
C13 C 0.1784(2) 0.6713(5) 0.3035(2)
H20 H 0.1322 0.7726 0.2632
C14 C 0.2838(2) 0.6663(6) 0.2608(2)
H21 H 0.3185 0.5273 0.2732
H22 H 0.2736 0.6936 0.1901
C15 C 0.3459(2) 0.8450(5) 0.3153(2)
C16 C 0.4381(2) 0.9419(6) 0.2948(2)
H23 H 0.4676 0.9026 0.2384
C17 C 0.4856(2) 1.0967(6) 0.3584(3)
H24 H 0.5471 1.1627 0.3444
C18 C 0.4432(2) 1.1552(5) 0.4427(3)
H25 H 0.4763 1.2593 0.4853
C19 C 0.3508(2) 1.0585(5) 0.4640(2)
H26 H 0.3225 1.0962 0.5211
C20 C 0.3014(2) 0.9059(4) 0.3995(2)
C21 C 0.2032(2) 0.7723(4) 0.40920(18)
C22 C 0.2346(2) 0.6058(4) 0.49136(19)
H27 H 0.2889 0.5124 0.4714
H28 H 0.2639 0.6820 0.5509
C23 C 0.1096(2) 0.9099(4) 0.4320(2)
H29 H 0.0963 1.0220 0.3820
H30 H 0.0478 0.8180 0.4277
C24 C 0.1265(2) 0.4505(5) 0.2952(2)
H31 H 0.1202 0.4034 0.2267
H32 H 0.1712 0.3474 0.3344
loop_
_geom_bond_atom_site_label_1
_geom_bond_atom_site_label_2
_geom_bond_site_symmetry_1
_geom_bond_site_symmetry_2
O1 H1 1_555 1_555
O2 H2 1_555 1_555
O3 H3 1_555 1_555
C1 H4 1_555 1_555
C2 C1 1_555 1_555
H5 C2 1_555 1_555
H6 C2 1_555 1_555
C3 C2 1_555 1_555
C4 C3 1_555 1_555
H7 C4 1_555 1_555
C5 C4 1_555 1_555
H8 C5 1_555 1_555
C6 C5 1_555 1_555
H9 C6 1_555 1_555
C7 C6 1_555 1_555
H10 C7 1_555 1_555
C8 C3 1_555 1_555
C9 C1 1_555 1_555
C10 O2 1_555 1_555
H11 C10 1_555 1_555
H12 C10 1_555 1_555
C11 O3 1_555 1_555
H13 C11 1_555 1_555
H14 C11 1_555 1_555
C12 O1 1_555 1_555
H15 C12 1_555 1_555
H16 C12 1_555 1_555
O4 H17 1_555 1_555
O5 H18 1_555 1_555
O6 H19 1_555 1_555
C13 H20 1_555 1_555
C14 C13 1_555 1_555
H21 C14 1_555 1_555
H22 C14 1_555 1_555
C15 C14 1_555 1_555
C16 C15 1_555 1_555
H23 C16 1_555 1_555
C17 C16 1_555 1_555
H24 C17 1_555 1_555
C18 C17 1_555 1_555
H25 C18 1_555 1_555
C19 C18 1_555 1_555
H26 C19 1_555 1_555
C20 C15 1_555 1_555
C21 C13 1_555 1_555
C22 O5 1_555 1_555
H27 C22 1_555 1_555
H28 C22 1_555 1_555
C23 O6 1_555 1_555
H29 C23 1_555 1_555
H30 C23 1_555 1_555
C24 O4 1_555 1_555
H31 C24 1_555 1_555
H32 C24 1_555 1_555
C1 C12 1_555 1_555
C7 C8 1_555 1_555
C8 C9 1_555 1_555
C9 C10 1_555 1_555
C9 C11 1_555 1_555
C13 C24 1_555 1_555
C19 C20 1_555 1_555
C20 C21 1_555 1_555
C21 C22 1_555 1_555
C21 C23 1_555 1_555

#END
