
#######################################################################
#
#                 Cambridge Crystallographic Data Centre
#                                CCDC 
#
#######################################################################
#
# If this CIF has been generated from an entry in the Cambridge 
# Structural Database, then it will include bibliographic, chemical, 
# crystal, experimental, refinement or atomic coordinate data resulting 
# from the CCDC's data processing and validation procedures.
#
#######################################################################

data_IGAMEJ
_chemical_compound_source        
'metabolite of the fungus Arthrinium phaeospermum'
_chemical_name_common            Bostrycin
_chemical_formula_moiety         'C16 H16 O8'
_chemical_name_systematic        
5,6,7,9,10-Pentahydroxy-2-methoxy-7-methyl-1,4,5,6,7,8-hexahydroanthracene-1,4-dione
_chemical_properties_biological  
'nonspecific phytotoxin; active against Bacillus subtilis, inactive against the fungus Geotrichum candidum'
_symmetry_cell_setting           monoclinic
_symmetry_space_group_name_H-M   'P 21'
_symmetry_Int_Tables_number      4
_space_group_name_Hall           'P 2yb'
loop_
_symmetry_equiv_pos_site_id
_symmetry_equiv_pos_as_xyz
1 x,y,z
2 -x,1/2+y,-z
_cell_length_a                   8.280(2)
_cell_length_b                   6.644(2)
_cell_length_c                   13.1535(12)
_cell_angle_alpha                90
_cell_angle_beta                 102.12(2)
_cell_angle_gamma                90
_cell_volume                     707.475
_exptl_crystal_colour            red
_exptl_crystal_description       chunk
_cell_formula_units_Z            2
_exptl_crystal_recrystallization_method ethanol
loop_
_atom_site_label
_atom_site_type_symbol
_atom_site_fract_x
_atom_site_fract_y
_atom_site_fract_z
O1 O 0.4354(2) 0.3424(4) 0.34450(13)
O2 O 0.1814(2) 0.3555(4) 0.19361(12)
O3 O -0.1725(2) 0.3863(4) 0.43528(13)
O4 O -0.0420(2) 0.3933(4) 0.63061(13)
H3 H -0.1226 0.4012 0.5725
O5 O 0.1000(3) 0.2810(5) 0.82507(17)
H4 H 0.0233 0.2963 0.7644
O6 O 0.3619(2) 0.4004(4) 0.97960(12)
H5 H 0.4364 0.3205 1.0303
O7 O 0.5068(2) 0.6526(3) 0.84879(13)
H6 H 0.5511 0.7105 0.7990
O8 O 0.5671(2) 0.3429(4) 0.54013(13)
H7 H 0.5559 0.3636 0.4666
C1 C 0.2943(3) 0.3552(4) 0.37142(18)
C2 C 0.1464(3) 0.3632(4) 0.28875(18)
C3 C -0.0063(3) 0.3742(5) 0.31216(18)
H8 H -0.0996 0.3781 0.2587
C4 C -0.0247(3) 0.3798(4) 0.41735(18)
C5 C 0.1177(3) 0.3742(4) 0.50050(17)
C6 C 0.1023(3) 0.3820(4) 0.60602(17)
C7 C 0.2492(3) 0.3761(5) 0.68900(17)
C8 C 0.2301(3) 0.3980(5) 0.80142(17)
H9 H 0.2063 0.5396 0.8130
C9 C 0.3863(3) 0.3403(4) 0.87974(18)
H10 H 0.3996 0.1938 0.8790
C10 C 0.5382(3) 0.4387(4) 0.85300(17)
C11 C 0.5585(3) 0.3595(5) 0.74721(17)
H11 H 0.6425 0.4383 0.7240
H12 H 0.5970 0.2213 0.7552
C12 C 0.4022(3) 0.3671(4) 0.66537(17)
C13 C 0.4195(3) 0.3563(4) 0.55826(18)
C14 C 0.2770(3) 0.3626(4) 0.47627(17)
C15 C 0.0456(3) 0.3549(6) 0.10420(18)
H13 H -0.0220 0.2384 0.1068
H14 H 0.0881 0.3517 0.0417
H15 H -0.0196 0.4743 0.1048
C16 C 0.6936(3) 0.3933(6) 0.93488(19)
H16 H 0.7885 0.4434 0.9117
H17 H 0.7039 0.2505 0.9453
H18 H 0.6861 0.4575 0.9991
H1? H 0.5153 0.3341 0.3968
H2? H -0.1659 0.3844 0.4995
loop_
_geom_bond_atom_site_label_1
_geom_bond_atom_site_label_2
_geom_bond_site_symmetry_1
_geom_bond_site_symmetry_2
O1 C1 1_555 1_555
O2 C2 1_555 1_555
O3 C4 1_555 1_555
O4 H3 1_555 1_555
O5 H4 1_555 1_555
O6 H5 1_555 1_555
O7 H6 1_555 1_555
O8 H7 1_555 1_555
C1 C2 1_555 1_555
C2 C3 1_555 1_555
C3 H8 1_555 1_555
C4 C3 1_555 1_555
C5 C4 1_555 1_555
C6 O4 1_555 1_555
C7 C6 1_555 1_555
C8 O5 1_555 1_555
H9 C8 1_555 1_555
C9 O6 1_555 1_555
H10 C9 1_555 1_555
C10 O7 1_555 1_555
C11 C10 1_555 1_555
H11 C11 1_555 1_555
H12 C11 1_555 1_555
C12 C7 1_555 1_555
C13 O8 1_555 1_555
C14 C1 1_555 1_555
C15 O2 1_555 1_555
H13 C15 1_555 1_555
H14 C15 1_555 1_555
H15 C15 1_555 1_555
C16 C10 1_555 1_555
H16 C16 1_555 1_555
H17 C16 1_555 1_555
H18 C16 1_555 1_555
C5 C6 1_555 1_555
C5 C14 1_555 1_555
C7 C8 1_555 1_555
C8 C9 1_555 1_555
C9 C10 1_555 1_555
C11 C12 1_555 1_555
C12 C13 1_555 1_555
C13 C14 1_555 1_555

#END
