
#######################################################################
#
#                 Cambridge Crystallographic Data Centre
#                                CCDC 
#
#######################################################################
#
# If this CIF has been generated from an entry in the Cambridge 
# Structural Database, then it will include bibliographic, chemical, 
# crystal, experimental, refinement or atomic coordinate data resulting 
# from the CCDC's data processing and validation procedures.
#
#######################################################################

data_IGAMIN
_chemical_formula_moiety         'C23 H17 F2 N1 O1'
_chemical_name_systematic        
1,1-bis(4-Fluorophenyl)-3,4-dihydro-1H-1,3-oxazino(3,4-a)indole
_symmetry_cell_setting           triclinic
_symmetry_space_group_name_H-M   'P -1'
_symmetry_Int_Tables_number      2
_space_group_name_Hall           '-P 1'
loop_
_symmetry_equiv_pos_site_id
_symmetry_equiv_pos_as_xyz
1 x,y,z
2 -x,-y,-z
_cell_length_a                   10.9845(11)
_cell_length_b                   11.2002(11)
_cell_length_c                   15.1964(16)
_cell_angle_alpha                87.6150(10)
_cell_angle_beta                 80.7510(10)
_cell_angle_gamma                76.9900(10)
_cell_volume                     1797.89
_exptl_crystal_colour            yellow
_exptl_crystal_description       block
_cell_formula_units_Z            4
_exptl_crystal_recrystallization_method 'petroleum ether'
loop_
_atom_site_label
_atom_site_type_symbol
_atom_site_fract_x
_atom_site_fract_y
_atom_site_fract_z
F1 F 0.15332(10) 0.20474(12) 0.53431(8)
F2 F 0.62785(13) 0.67584(11) 0.14682(8)
O1 O 0.66525(11) 0.33741(11) 0.48340(7)
N1 N 0.72344(12) 0.18387(13) 0.37478(9)
C1 C 0.84755(16) 0.15765(18) 0.39117(12)
C2 C 0.91322(18) 0.05810(19) 0.34339(14)
H1 H 0.9981 0.0217 0.3433
C3 C 0.83131(16) 0.01843(16) 0.29349(12)
C4 C 0.8460(2) -0.07701(18) 0.23367(15)
H2 H 0.9241 -0.1311 0.2196
C5 C 0.7454(2) -0.09050(19) 0.19602(14)
H3 H 0.7551 -0.1540 0.1561
C6 C 0.6289(2) -0.01063(18) 0.21662(13)
H4 H 0.5613 -0.0222 0.1906
C7 C 0.61015(17) 0.08564(16) 0.27459(12)
H5 H 0.5319 0.1397 0.2872
C8 C 0.71239(15) 0.09884(15) 0.31342(11)
C9 C 0.8840(2) 0.2312(2) 0.45833(15)
H6 H 0.9683 0.2442 0.4376
H7 H 0.8858 0.1860 0.5141
C10 C 0.79304(19) 0.3529(2) 0.47394(13)
H8 H 0.8057 0.3896 0.5275
H9 H 0.8085 0.4074 0.4242
C11 C 0.63226(15) 0.29876(15) 0.40412(10)
C12 C 0.50071(15) 0.27351(15) 0.43494(10)
C13 C 0.48805(17) 0.18616(16) 0.50129(11)
H10 H 0.5596 0.1425 0.5232
C14 C 0.37155(18) 0.16283(17) 0.53536(12)
H11 H 0.3637 0.1042 0.5798
C15 C 0.26817(17) 0.22808(17) 0.50214(12)
C16 C 0.27549(17) 0.31452(17) 0.43676(12)
H12 H 0.2033 0.3574 0.4153
C17 C 0.39377(16) 0.33680(16) 0.40305(11)
H13 H 0.4008 0.3953 0.3583
C18 C 0.63506(15) 0.39877(15) 0.33247(10)
C19 C 0.57976(17) 0.51909(17) 0.35633(12)
H14 H 0.5432 0.5370 0.4152
C20 C 0.57780(18) 0.61303(17) 0.29443(13)
H15 H 0.5407 0.6937 0.3109
C21 C 0.63185(18) 0.58419(18) 0.20835(12)
C22 C 0.68926(18) 0.46804(17) 0.18220(12)
H16 H 0.7267 0.4515 0.1233
C23 C 0.69101(16) 0.37452(16) 0.24493(11)
H17 H 0.7303 0.2945 0.2280
F3 F 0.30250(12) -0.18113(10) 0.34221(7)
F4 F -0.23605(11) 0.27910(12) -0.03884(8)
O2 O 0.31522(11) 0.17610(11) 0.01727(7)
N2 N 0.24016(12) 0.32408(12) 0.12899(9)
C24 C 0.35721(16) 0.35631(18) 0.11829(12)
C25 C 0.34808(19) 0.45452(19) 0.16917(13)
H18 H 0.4132 0.4935 0.1736
C26 C 0.22186(17) 0.48855(16) 0.21507(11)
C27 C 0.1581(2) 0.58283(18) 0.27414(13)
H19 H 0.2007 0.6382 0.2921
C28 C 0.0323(2) 0.59277(19) 0.30526(13)
H20 H -0.0109 0.6558 0.3440
C29 C -0.0313(2) 0.50920(18) 0.27940(13)
H21 H -0.1169 0.5180 0.3010
C30 C 0.02879(16) 0.41391(16) 0.22286(12)
H22 H -0.0143 0.3574 0.2073
C31 C 0.15591(15) 0.40480(14) 0.18968(10)
C32 C 0.46405(18) 0.2895(2) 0.05241(14)
H23 H 0.5423 0.2783 0.0767
H24 H 0.4719 0.3381 -0.0017
C33 C 0.44347(17) 0.1671(2) 0.03051(13)
H25 H 0.5004 0.1358 -0.0232
H26 H 0.4625 0.1100 0.0787
C34 C 0.22400(15) 0.20732(15) 0.09558(10)
C35 C 0.24538(14) 0.10483(15) 0.16475(10)
C36 C 0.25806(17) -0.01527(16) 0.13810(12)
H27 H 0.2531 -0.0308 0.0793
C37 C 0.27782(18) -0.11157(17) 0.19745(12)
H28 H 0.2865 -0.1917 0.1793
C38 C 0.28430(17) -0.08643(17) 0.28335(12)
C39 C 0.27395(17) 0.02883(17) 0.31220(12)
H29 H 0.2799 0.0429 0.3711
C40 C 0.25431(16) 0.12532(16) 0.25213(11)
H30 H 0.2471 0.2049 0.2710
C41 C 0.09707(15) 0.22610(15) 0.06247(10)
C42 C 0.07212(17) 0.31129(16) -0.00514(11)
H31 H 0.1315 0.3569 -0.0274
C43 C -0.03962(18) 0.32917(17) -0.03970(12)
H32 H -0.0562 0.3861 -0.0850
C44 C -0.12525(17) 0.26093(18) -0.00561(12)
C45 C -0.10527(17) 0.17695(17) 0.06081(12)
H33 H -0.1654 0.1320 0.0827
C46 C 0.00684(16) 0.16015(16) 0.09501(11)
H34 H 0.0218 0.1035 0.1407
loop_
_geom_bond_atom_site_label_1
_geom_bond_atom_site_label_2
_geom_bond_site_symmetry_1
_geom_bond_site_symmetry_2
F1 C15 1_555 1_555
F2 C21 1_555 1_555
O1 C10 1_555 1_555
N1 C1 1_555 1_555
C1 C2 1_555 1_555
C2 H1 1_555 1_555
C3 C2 1_555 1_555
C4 C3 1_555 1_555
H2 C4 1_555 1_555
C5 C4 1_555 1_555
H3 C5 1_555 1_555
C6 C5 1_555 1_555
H4 C6 1_555 1_555
C7 C6 1_555 1_555
H5 C7 1_555 1_555
C8 N1 1_555 1_555
C9 C1 1_555 1_555
H6 C9 1_555 1_555
H7 C9 1_555 1_555
C10 C9 1_555 1_555
H8 C10 1_555 1_555
H9 C10 1_555 1_555
C11 O1 1_555 1_555
C12 C11 1_555 1_555
C13 C12 1_555 1_555
H10 C13 1_555 1_555
C14 C13 1_555 1_555
H11 C14 1_555 1_555
C15 C14 1_555 1_555
C16 C15 1_555 1_555
H12 C16 1_555 1_555
C17 C12 1_555 1_555
H13 C17 1_555 1_555
C18 C11 1_555 1_555
C19 C18 1_555 1_555
H14 C19 1_555 1_555
C20 C19 1_555 1_555
H15 C20 1_555 1_555
C21 C20 1_555 1_555
C22 C21 1_555 1_555
H16 C22 1_555 1_555
C23 C18 1_555 1_555
H17 C23 1_555 1_555
F3 C38 1_555 1_555
F4 C44 1_555 1_555
O2 C33 1_555 1_555
N2 C24 1_555 1_555
C24 C25 1_555 1_555
C25 H18 1_555 1_555
C26 C25 1_555 1_555
C27 C26 1_555 1_555
H19 C27 1_555 1_555
C28 C27 1_555 1_555
H20 C28 1_555 1_555
C29 C28 1_555 1_555
H21 C29 1_555 1_555
C30 C29 1_555 1_555
H22 C30 1_555 1_555
C31 N2 1_555 1_555
C32 C24 1_555 1_555
H23 C32 1_555 1_555
H24 C32 1_555 1_555
C33 C32 1_555 1_555
H25 C33 1_555 1_555
H26 C33 1_555 1_555
C34 O2 1_555 1_555
C35 C34 1_555 1_555
C36 C35 1_555 1_555
H27 C36 1_555 1_555
C37 C36 1_555 1_555
H28 C37 1_555 1_555
C38 C37 1_555 1_555
C39 C38 1_555 1_555
H29 C39 1_555 1_555
C40 C35 1_555 1_555
H30 C40 1_555 1_555
C41 C34 1_555 1_555
C42 C41 1_555 1_555
H31 C42 1_555 1_555
C43 C42 1_555 1_555
H32 C43 1_555 1_555
C44 C43 1_555 1_555
C45 C44 1_555 1_555
H33 C45 1_555 1_555
C46 C41 1_555 1_555
H34 C46 1_555 1_555
N1 C11 1_555 1_555
C3 C8 1_555 1_555
C7 C8 1_555 1_555
C16 C17 1_555 1_555
C22 C23 1_555 1_555
N2 C34 1_555 1_555
C26 C31 1_555 1_555
C30 C31 1_555 1_555
C39 C40 1_555 1_555
C45 C46 1_555 1_555

#END
