
#######################################################################
#
#                 Cambridge Crystallographic Data Centre
#                                CCDC 
#
#######################################################################
#
# If this CIF has been generated from an entry in the Cambridge 
# Structural Database, then it will include bibliographic, chemical, 
# crystal, experimental, refinement or atomic coordinate data resulting 
# from the CCDC's data processing and validation procedures.
#
#######################################################################

data_IGASIT
_chemical_name_common            
3,4-bis(n-Butoxy)-2,5-bis(5-(4-t-butylphenyl)-1,3,4-oxadiaxol-2-yl)thiophene
_chemical_formula_moiety         'C36 H44 N4 O4 S1'
_chemical_name_systematic        
2-(4-t-Butylphenyl)-5-(3,4-dibutoxy-5-(5-(4-t-butylphenyl)-1,3,4-oxadiazol-2-yl)-2-thienyl)-1,3,4-oxadiazole
_symmetry_cell_setting           monoclinic
_symmetry_space_group_name_H-M   'P 21/c'
_symmetry_Int_Tables_number      14
_space_group_name_Hall           '-P 2ybc'
loop_
_symmetry_equiv_pos_site_id
_symmetry_equiv_pos_as_xyz
1 x,y,z
2 -x,1/2+y,1/2-z
3 -x,-y,-z
4 x,1/2-y,1/2+z
_cell_length_a                   19.421(4)
_cell_length_b                   17.387(4)
_cell_length_c                   10.424(2)
_cell_angle_alpha                90
_cell_angle_beta                 94.24(3)
_cell_angle_gamma                90
_cell_volume                     3510.27
_exptl_crystal_colour            yellow
_exptl_crystal_description       block
_chemical_melting_point          '421 K'
_cell_formula_units_Z            4
_exptl_crystal_recrystallization_method chloroform
loop_
_atom_site_label
_atom_site_type_symbol
_atom_site_fract_x
_atom_site_fract_y
_atom_site_fract_z
S1 S 0.21507(6) 0.13771(7) 0.42321(11)
O1 O 0.10436(14) 0.25970(16) 0.6562(2)
O2 O 0.36725(13) 0.19395(15) 0.2071(2)
O3 O 0.21365(18) 0.3469(2) 0.5488(3)
O4 O 0.32043(16) 0.32198(19) 0.3699(3)
N1 N 0.1172(2) 0.1352(2) 0.6394(4)
N2 N 0.0679(2) 0.1487(2) 0.7245(4)
N3 N 0.3300(2) 0.0804(2) 0.2671(4)
N4 N 0.3820(2) 0.0680(2) 0.1858(4)
C1 C -0.15814(18) 0.3412(2) 1.1340(4)
H1 H -0.1926 0.3703 1.1743
H2 H -0.1222 0.3265 1.1974
H3 H -0.1788 0.2959 1.0951
C2 C -0.18704(18) 0.4193(2) 0.9408(4)
H4 H -0.2195 0.4461 0.9898
H5 H -0.2096 0.3766 0.8970
H6 H -0.1696 0.4538 0.8789
C3 C -0.0929(2) 0.4586(3) 1.0956(5)
H7 H -0.1263 0.4876 1.1389
H8 H -0.0733 0.4905 1.0326
H9 H -0.0571 0.4412 1.1571
C4 C -0.1275(2) 0.3906(3) 1.0304(5)
C5 C -0.0756(2) 0.3445(3) 0.9573(4)
C6 C -0.0359(2) 0.3824(3) 0.8756(4)
H10 H -0.0387 0.4357 0.8684
C7 C 0.0083(2) 0.3422(3) 0.8037(4)
H11 H 0.0339 0.3694 0.7469
C8 C 0.0163(2) 0.2667(3) 0.8112(4)
C9 C -0.0241(2) 0.2255(3) 0.8991(4)
H12 H -0.0211 0.1724 0.9071
C10 C -0.0676(3) 0.2678(3) 0.9712(4)
H13 H -0.0922 0.2424 1.0315
C11 C 0.0613(2) 0.2196(3) 0.7351(4)
C12 C 0.1359(2) 0.1992(3) 0.5977(4)
C13 C 0.6959(3) 0.1763(3) -0.0922(5)
H14 H 0.7334 0.1850 -0.1454
H15 H 0.6959 0.1233 -0.0659
H16 H 0.7013 0.2087 -0.0176
C14 C 0.62126(18) 0.1443(2) -0.2875(3)
H17 H 0.6589 0.1547 -0.3397
H18 H 0.5783 0.1550 -0.3359
H19 H 0.6224 0.0912 -0.2623
C15 C 0.63464(18) 0.2763(2) -0.2131(3)
H20 H 0.6726 0.2798 -0.2668
H21 H 0.6429 0.3095 -0.1401
H22 H 0.5928 0.2916 -0.2613
C16 C 0.6278(2) 0.1950(3) -0.1681(4)
C17 C 0.5690(2) 0.1827(3) -0.0836(4)
C18 C 0.5604(2) 0.1117(3) -0.0274(4)
H23 H 0.5914 0.0725 -0.0422
C19 C 0.5093(2) 0.0977(3) 0.0467(4)
H24 H 0.5057 0.0493 0.0834
C20 C 0.4595(2) 0.1557(3) 0.0719(4)
C21 C 0.4679(2) 0.2243(3) 0.0192(4)
H25 H 0.4371 0.2635 0.0357
C22 C 0.5210(2) 0.2397(3) -0.0600(4)
H26 H 0.5244 0.2880 -0.0972
C23 C 0.4030(2) 0.1344(3) 0.1547(4)
C24 C 0.3240(2) 0.1546(3) 0.2765(4)
C25 C 0.2752(2) 0.1947(3) 0.3536(4)
C26 C 0.2736(2) 0.2678(3) 0.3940(4)
C27 C 0.2228(2) 0.2800(3) 0.4822(4)
C28 C 0.1870(2) 0.2153(3) 0.5084(4)
C29 C 0.1698(4) 0.5589(4) 0.4059(7)
H27 H 0.1491 0.6006 0.3566
H28 H 0.1763 0.5159 0.3502
H29 H 0.2137 0.5749 0.4454
C30 C 0.1233(4) 0.5356(4) 0.5085(7)
H30 H 0.1163 0.5762 0.5700
H31 H 0.0793 0.5151 0.4740
C31 C 0.1722(3) 0.4753(3) 0.5594(6)
H32 H 0.2154 0.5013 0.5839
H33 H 0.1547 0.4566 0.6383
C32 C 0.1891(3) 0.4099(4) 0.4886(6)
H34 H 0.1479 0.3950 0.4364
H35 H 0.2229 0.4258 0.4298
C33 C 0.4367(3) 0.5060(4) 0.1190(6)
H36 H 0.4471 0.5140 0.0314
H37 H 0.4774 0.4888 0.1686
H38 H 0.4211 0.5534 0.1541
C34 C 0.3837(3) 0.4491(4) 0.1234(6)
H39 H 0.3964 0.4057 0.0715
H40 H 0.3415 0.4705 0.0826
C35 C 0.3683(3) 0.4197(3) 0.2492(5)
H41 H 0.3565 0.4634 0.3011
H42 H 0.4107 0.3981 0.2893
C36 C 0.3132(3) 0.3612(3) 0.2580(5)
H43 H 0.2685 0.3865 0.2510
H44 H 0.3146 0.3254 0.1868
loop_
_geom_bond_atom_site_label_1
_geom_bond_atom_site_label_2
_geom_bond_site_symmetry_1
_geom_bond_site_symmetry_2
S1 C25 1_555 1_555
O1 C11 1_555 1_555
O2 C23 1_555 1_555
O3 C27 1_555 1_555
O4 C26 1_555 1_555
N1 N2 1_555 1_555
N2 C11 1_555 1_555
N3 N4 1_555 1_555
N4 C23 1_555 1_555
C1 H1 1_555 1_555
H2 C1 1_555 1_555
H3 C1 1_555 1_555
C2 H4 1_555 1_555
H5 C2 1_555 1_555
H6 C2 1_555 1_555
C3 H7 1_555 1_555
H8 C3 1_555 1_555
H9 C3 1_555 1_555
C4 C1 1_555 1_555
C5 C4 1_555 1_555
C6 C5 1_555 1_555
H10 C6 1_555 1_555
C7 C6 1_555 1_555
H11 C7 1_555 1_555
C8 C7 1_555 1_555
C9 C8 1_555 1_555
H12 C9 1_555 1_555
C10 C5 1_555 1_555
H13 C10 1_555 1_555
C11 C8 1_555 1_555
C12 O1 1_555 1_555
C13 H14 1_555 1_555
H15 C13 1_555 1_555
H16 C13 1_555 1_555
C14 H17 1_555 1_555
H18 C14 1_555 1_555
H19 C14 1_555 1_555
C15 H20 1_555 1_555
H21 C15 1_555 1_555
H22 C15 1_555 1_555
C16 C13 1_555 1_555
C17 C16 1_555 1_555
C18 C17 1_555 1_555
H23 C18 1_555 1_555
C19 C18 1_555 1_555
H24 C19 1_555 1_555
C20 C19 1_555 1_555
C21 C20 1_555 1_555
H25 C21 1_555 1_555
C22 C17 1_555 1_555
H26 C22 1_555 1_555
C23 C20 1_555 1_555
C24 O2 1_555 1_555
C25 C24 1_555 1_555
C26 C25 1_555 1_555
C27 C26 1_555 1_555
C28 S1 1_555 1_555
C29 H27 1_555 1_555
H28 C29 1_555 1_555
H29 C29 1_555 1_555
C30 C29 1_555 1_555
H30 C30 1_555 1_555
H31 C30 1_555 1_555
C31 C30 1_555 1_555
H32 C31 1_555 1_555
H33 C31 1_555 1_555
C32 O3 1_555 1_555
H34 C32 1_555 1_555
H35 C32 1_555 1_555
C33 H36 1_555 1_555
H37 C33 1_555 1_555
H38 C33 1_555 1_555
C34 C33 1_555 1_555
H39 C34 1_555 1_555
H40 C34 1_555 1_555
C35 C34 1_555 1_555
H41 C35 1_555 1_555
H42 C35 1_555 1_555
C36 O4 1_555 1_555
H43 C36 1_555 1_555
H44 C36 1_555 1_555
N1 C12 1_555 1_555
N3 C24 1_555 1_555
C2 C4 1_555 1_555
C3 C4 1_555 1_555
C9 C10 1_555 1_555
C12 C28 1_555 1_555
C14 C16 1_555 1_555
C15 C16 1_555 1_555
C21 C22 1_555 1_555
C27 C28 1_555 1_555
C31 C32 1_555 1_555
C35 C36 1_555 1_555

#END
