
#######################################################################
#
#                 Cambridge Crystallographic Data Centre
#                                CCDC 
#
#######################################################################
#
# If this CIF has been generated from an entry in the Cambridge 
# Structural Database, then it will include bibliographic, chemical, 
# crystal, experimental, refinement or atomic coordinate data resulting 
# from the CCDC's data processing and validation procedures.
#
#######################################################################

data_IGATEQ
_chemical_formula_moiety         'C32 H28 N4 O5'
_chemical_name_systematic        
N,N'-Dibenzyl-2,2'-((1,3,4-oxadiazole-2,5-diyl)bis(o-phenyleneoxy))diacetamide
_symmetry_cell_setting           monoclinic
_symmetry_space_group_name_H-M   'C 2/c'
_symmetry_Int_Tables_number      15
_space_group_name_Hall           '-C 2yn'
loop_
_symmetry_equiv_pos_site_id
_symmetry_equiv_pos_as_xyz
1 x,y,z
2 1/2+x,1/2+y,z
3 -x,y,1/2-z
4 1/2-x,1/2+y,1/2-z
5 -x,-y,-z
6 1/2-x,1/2-y,-z
7 x,-y,1/2+z
8 1/2+x,1/2-y,1/2+z
_cell_length_a                   17.0619(15)
_cell_length_b                   15.2601(15)
_cell_length_c                   10.6555(9)
_cell_angle_alpha                90
_cell_angle_beta                 90.611(5)
_cell_angle_gamma                90
_cell_volume                     2774.18
_exptl_crystal_colour            colorless
_exptl_crystal_description       block
_chemical_melting_point          '462-464 K'
_cell_formula_units_Z            4
_exptl_crystal_recrystallization_method methanol
loop_
_atom_site_label
_atom_site_type_symbol
_atom_site_fract_x
_atom_site_fract_y
_atom_site_fract_z
N1 N -0.02694(7) 0.56844(7) 0.19951(11)
N2 N -0.08491(7) 0.74198(8) 0.02940(12)
H1 H -0.0683 0.6974 0.0713
O1 O 0.0000 0.43170(8) 0.2500
O2 O -0.12834(7) 0.58284(7) 0.00429(11)
O3 O -0.17196(7) 0.79141(8) -0.11560(12)
C1 C -0.04108(7) 0.48689(8) 0.17324(11)
C2 C -0.09273(7) 0.44510(9) 0.08049(11)
C3 C -0.09864(9) 0.35441(10) 0.07516(13)
H2 H -0.0694 0.3204 0.1308
C4 C -0.14721(9) 0.31405(10) -0.01132(15)
H3 H -0.1507 0.2532 -0.0135
C5 C -0.19047(9) 0.36362(11) -0.09432(15)
H4 H -0.2228 0.3361 -0.1530
C6 C -0.18630(9) 0.45397(10) -0.09131(14)
H5 H -0.2161 0.4873 -0.1472
C7 C -0.13744(7) 0.49465(9) -0.00448(12)
C8 C -0.17265(8) 0.63995(9) -0.07347(13)
H6 H -0.2277 0.6367 -0.0519
H7 H -0.1673 0.6231 -0.1607
C9 C -0.14291(8) 0.73146(9) -0.05436(14)
C10 C -0.04939(9) 0.82696(10) 0.05107(16)
H8 H -0.0466 0.8576 -0.0285
H9 H 0.0039 0.8181 0.0809
C11 C -0.09146(8) 0.88538(9) 0.14415(12)
C12 C -0.08084(10) 0.97494(10) 0.13936(16)
H10 H -0.0500 0.9987 0.0764
C13 C -0.11477(10) 1.03006(11) 0.22549(16)
H11 H -0.1063 1.0902 0.2209
C14 C -0.16085(10) 0.99640(12) 0.31752(14)
H12 H -0.1832 1.0332 0.3768
C15 C -0.17395(11) 0.90771(12) 0.32173(16)
H13 H -0.2063 0.8845 0.3830
C16 C -0.13925(10) 0.85264(10) 0.23517(14)
H14 H -0.1486 0.7927 0.2390
N1B N 0.02694(7) 0.56844(7) 0.30049(11)
N2B N 0.08491(7) 0.74198(8) 0.47060(12)
H1B H 0.0683 0.6974 0.4287
O2B O 0.12834(7) 0.58284(7) 0.49571(11)
O3B O 0.17196(7) 0.79141(8) 0.61560(12)
C1B C 0.04108(7) 0.48689(8) 0.32676(11)
C2B C 0.09273(7) 0.44510(9) 0.41951(11)
C3B C 0.09864(9) 0.35441(10) 0.42484(13)
H2B H 0.0694 0.3204 0.3692
C4B C 0.14721(9) 0.31405(10) 0.51132(15)
H3B H 0.1507 0.2532 0.5135
C5B C 0.19047(9) 0.36362(11) 0.59432(15)
H4B H 0.2228 0.3361 0.6530
C6B C 0.18630(9) 0.45397(10) 0.59131(14)
H5B H 0.2161 0.4873 0.6472
C7B C 0.13744(7) 0.49465(9) 0.50448(12)
C8B C 0.17265(8) 0.63995(9) 0.57347(13)
H6B H 0.2277 0.6367 0.5519
H7B H 0.1673 0.6231 0.6607
C9B C 0.14291(8) 0.73146(9) 0.55436(14)
C10B C 0.04939(9) 0.82696(10) 0.44893(16)
H8B H 0.0466 0.8576 0.5285
H9B H -0.0039 0.8181 0.4191
C11B C 0.09146(8) 0.88538(9) 0.35585(12)
C12B C 0.08084(10) 0.97494(10) 0.36064(16)
H10B H 0.0500 0.9987 0.4236
C13B C 0.11477(10) 1.03006(11) 0.27451(16)
H11B H 0.1063 1.0902 0.2791
C14B C 0.16085(10) 0.99640(12) 0.18248(14)
H12B H 0.1832 1.0332 0.1232
C15B C 0.17395(11) 0.90771(12) 0.17827(16)
H13B H 0.2063 0.8845 0.1170
C16B C 0.13925(10) 0.85264(10) 0.26483(14)
H14B H 0.1486 0.7927 0.2610
loop_
_geom_bond_atom_site_label_1
_geom_bond_atom_site_label_2
_geom_bond_site_symmetry_1
_geom_bond_site_symmetry_2
N1 C1 1_555 1_555
N2 H1 1_555 1_555
O1 C1 1_555 1_555
O2 C7 1_555 1_555
O3 C9 1_555 1_555
C1 C2 1_555 1_555
C2 C3 1_555 1_555
C3 H2 1_555 1_555
C4 C3 1_555 1_555
H3 C4 1_555 1_555
C5 C4 1_555 1_555
H4 C5 1_555 1_555
C6 C5 1_555 1_555
H5 C6 1_555 1_555
C7 C2 1_555 1_555
C8 O2 1_555 1_555
H6 C8 1_555 1_555
H7 C8 1_555 1_555
C9 N2 1_555 1_555
C10 N2 1_555 1_555
H8 C10 1_555 1_555
H9 C10 1_555 1_555
C11 C10 1_555 1_555
C12 C11 1_555 1_555
H10 C12 1_555 1_555
C13 C12 1_555 1_555
H11 C13 1_555 1_555
C14 C13 1_555 1_555
H12 C14 1_555 1_555
C15 C14 1_555 1_555
H13 C15 1_555 1_555
C16 C11 1_555 1_555
H14 C16 1_555 1_555
N1B N1 1_555 1_555
N2B H1B 1_555 1_555
O2B C7B 1_555 1_555
O3B C9B 1_555 1_555
C1B O1 1_555 1_555
C2B C1B 1_555 1_555
C3B C2B 1_555 1_555
H2B C3B 1_555 1_555
C4B C3B 1_555 1_555
H3B C4B 1_555 1_555
C5B C4B 1_555 1_555
H4B C5B 1_555 1_555
C6B C5B 1_555 1_555
H5B C6B 1_555 1_555
C7B C2B 1_555 1_555
C8B O2B 1_555 1_555
H6B C8B 1_555 1_555
H7B C8B 1_555 1_555
C9B N2B 1_555 1_555
C10B N2B 1_555 1_555
H8B C10B 1_555 1_555
H9B C10B 1_555 1_555
C11B C10B 1_555 1_555
C12B C11B 1_555 1_555
H10B C12B 1_555 1_555
C13B C12B 1_555 1_555
H11B C13B 1_555 1_555
C14B C13B 1_555 1_555
H12B C14B 1_555 1_555
C15B C14B 1_555 1_555
H13B C15B 1_555 1_555
C16B C11B 1_555 1_555
H14B C16B 1_555 1_555
C6 C7 1_555 1_555
C8 C9 1_555 1_555
C15 C16 1_555 1_555
N1B C1B 1_555 1_555
C6B C7B 1_555 1_555
C8B C9B 1_555 1_555
C15B C16B 1_555 1_555

#END
