
#######################################################################
#
#                 Cambridge Crystallographic Data Centre
#                                CCDC 
#
#######################################################################
#
# If this CIF has been generated from an entry in the Cambridge 
# Structural Database, then it will include bibliographic, chemical, 
# crystal, experimental, refinement or atomic coordinate data resulting 
# from the CCDC's data processing and validation procedures.
#
#######################################################################

data_IGATUG
_chemical_formula_moiety         'C13 H23 N1 O4'
_chemical_name_systematic        
(3aS,9aR,10S,10aR)-10-(Hydroxymethyl)-2,2-dimethyloctahydro-4H-[1,3]dioxolo[4,5-b]quinolizin-10-ol
_symmetry_cell_setting           orthorhombic
_symmetry_space_group_name_H-M   'P 21 21 21'
_symmetry_Int_Tables_number      19
_space_group_name_Hall           'P 2ac 2ab'
loop_
_symmetry_equiv_pos_site_id
_symmetry_equiv_pos_as_xyz
1 x,y,z
2 1/2-x,-y,1/2+z
3 -x,1/2+y,1/2-z
4 1/2+x,1/2-y,-z
_cell_length_a                   5.3743(4)
_cell_length_b                   10.2506(7)
_cell_length_c                   24.3106(17)
_cell_angle_alpha                90
_cell_angle_beta                 90
_cell_angle_gamma                90
_cell_volume                     1339.27
_exptl_crystal_colour            colorless
_exptl_crystal_description       needle
_chemical_melting_point          '135-136 deg.C'
_cell_formula_units_Z            4
_exptl_crystal_recrystallization_method 'ethyl acetate/hexanes'
loop_
_atom_site_label
_atom_site_type_symbol
_atom_site_fract_x
_atom_site_fract_y
_atom_site_fract_z
O1 O 0.7933(2) -0.16402(12) 0.07612(6)
C1 C 0.6961(4) -0.28757(18) 0.09738(8)
O2 O 0.5145(2) -0.25258(12) 0.13955(5)
C2 C 0.4512(3) -0.11843(16) 0.12911(8)
H1 H 0.3316 -0.1121 0.0988
C3 C 0.3598(3) -0.04334(18) 0.17843(7)
H2 H 0.2035 -0.0793 0.1914
H3 H 0.4803 -0.0482 0.2081
N1 N 0.3254(3) 0.09389(14) 0.16083(6)
C4 C 0.2430(4) 0.1704(2) 0.20986(7)
H4 H 0.3708 0.1660 0.2380
H5 H 0.0930 0.1314 0.2247
C5 C 0.1918(4) 0.3132(2) 0.19610(8)
H6 H 0.0527 0.3186 0.1708
H7 H 0.1469 0.3597 0.2294
C6 C 0.4190(4) 0.3769(2) 0.17034(8)
H8 H 0.5517 0.3825 0.1973
H9 H 0.3779 0.4647 0.1585
C7 C 0.5058(3) 0.29610(17) 0.12083(7)
H10 H 0.6554 0.3346 0.1056
H11 H 0.3782 0.2974 0.0926
C8 C 0.5591(3) 0.15412(17) 0.13763(7)
H12 H 0.6804 0.1574 0.1677
C9 C 0.6833(3) 0.07373(17) 0.08952(7)
C10 C 0.7008(3) -0.06430(17) 0.11190(7)
H13 H 0.8078 -0.0621 0.1445
O3 O 0.9261(2) 0.12660(12) 0.07924(5)
H14 H 1.0172 0.1108 0.1055
O4 O 0.6106(2) 0.19303(14) 0.00335(5)
H15 H 0.4836 0.2299 -0.0070
C11 C 0.5456(3) 0.07945(17) 0.03395(7)
H16 H 0.5864 0.0025 0.0126
H17 H 0.3676 0.0791 0.0405
C12 C 0.5718(5) -0.3589(2) 0.05020(9)
H18 H 0.4303 -0.3098 0.0378
H19 H 0.5184 -0.4435 0.0624
H20 H 0.6878 -0.3686 0.0205
C13 C 0.9007(4) -0.3640(2) 0.12507(10)
H21 H 1.0163 -0.3944 0.0979
H22 H 0.8301 -0.4372 0.1441
H23 H 0.9857 -0.3089 0.1509
loop_
_geom_bond_atom_site_label_1
_geom_bond_atom_site_label_2
_geom_bond_site_symmetry_1
_geom_bond_site_symmetry_2
O1 C1 1_555 1_555
C1 O2 1_555 1_555
O2 C2 1_555 1_555
C2 H1 1_555 1_555
C3 C2 1_555 1_555
H2 C3 1_555 1_555
H3 C3 1_555 1_555
N1 C3 1_555 1_555
C4 N1 1_555 1_555
H4 C4 1_555 1_555
H5 C4 1_555 1_555
C5 C4 1_555 1_555
H6 C5 1_555 1_555
H7 C5 1_555 1_555
C6 C5 1_555 1_555
H8 C6 1_555 1_555
H9 C6 1_555 1_555
C7 C6 1_555 1_555
H10 C7 1_555 1_555
H11 C7 1_555 1_555
C8 N1 1_555 1_555
H12 C8 1_555 1_555
C9 C8 1_555 1_555
C10 O1 1_555 1_555
H13 C10 1_555 1_555
O3 C9 1_555 1_555
H14 O3 1_555 1_555
O4 H15 1_555 1_555
C11 C9 1_555 1_555
H16 C11 1_555 1_555
H17 C11 1_555 1_555
C12 C1 1_555 1_555
H18 C12 1_555 1_555
H19 C12 1_555 1_555
H20 C12 1_555 1_555
C13 C1 1_555 1_555
H21 C13 1_555 1_555
H22 C13 1_555 1_555
H23 C13 1_555 1_555
C2 C10 1_555 1_555
C7 C8 1_555 1_555
C9 C10 1_555 1_555
O4 C11 1_555 1_555

#END
