
#######################################################################
#
#                 Cambridge Crystallographic Data Centre
#                                CCDC 
#
#######################################################################
#
# If this CIF has been generated from an entry in the Cambridge 
# Structural Database, then it will include bibliographic, chemical, 
# crystal, experimental, refinement or atomic coordinate data resulting 
# from the CCDC's data processing and validation procedures.
#
#######################################################################

data_IGAVIY
_chemical_formula_moiety         'C18 H15 N1 O1'
_chemical_name_systematic        2-[(1E)-2-(4-methoxyphenyl)ethenyl]quinoline
_symmetry_cell_setting           monoclinic
_symmetry_space_group_name_H-M   'P 21/c'
_symmetry_Int_Tables_number      14
_space_group_name_Hall           '-P 2ybc'
loop_
_symmetry_equiv_pos_site_id
_symmetry_equiv_pos_as_xyz
1 x,y,z
2 -x,1/2+y,1/2-z
3 -x,-y,-z
4 x,1/2-y,1/2+z
_cell_length_a                   9.491(5)
_cell_length_b                   15.111(5)
_cell_length_c                   18.989(5)
_cell_angle_alpha                90
_cell_angle_beta                 97.803(5)
_cell_angle_gamma                90
_cell_volume                     2698.16
_exptl_crystal_colour            colorless
_exptl_crystal_description       block
_cell_formula_units_Z            8
loop_
_atom_site_label
_atom_site_type_symbol
_atom_site_fract_x
_atom_site_fract_y
_atom_site_fract_z
C1 C -0.5287(2) 0.78878(15) 0.51657(13)
H1 H -0.527089 0.754936 0.472667
H2 H -0.541022 0.851784 0.505117
H3 H -0.607881 0.768371 0.540585
C2 C -0.3569(2) 0.69110(14) 0.57801(11)
C3 C -0.2182(2) 0.68045(14) 0.61157(11)
H4 H -0.157672 0.730432 0.620351
C4 C -0.1689(2) 0.59749(14) 0.63202(12)
H5 H -0.073704 0.591076 0.654381
C5 C -0.3936(2) 0.53443(14) 0.58623(12)
H6 H -0.454232 0.484476 0.577377
C6 C -0.4445(2) 0.61740(14) 0.56461(12)
H7 H -0.538599 0.623967 0.540790
C7 C -0.2548(2) 0.52250(13) 0.62087(12)
C8 C -0.1942(2) 0.43639(14) 0.64260(12)
H8 H -0.095671 0.435811 0.660443
C9 C -0.2601(2) 0.35882(14) 0.64042(12)
H9 H -0.360296 0.358813 0.627304
C10 C -0.1906(2) 0.27295(14) 0.65665(11)
C11 C -0.0454(2) 0.26625(14) 0.68738(12)
H10 H 0.008345 0.318110 0.700556
C12 C 0.0154(2) 0.18518(14) 0.69764(12)
H11 H 0.111972 0.180146 0.718348
C13 C -0.0649(2) 0.10805(14) 0.67749(11)
C14 C -0.0090(2) 0.02169(14) 0.68451(12)
H12 H 0.087680 0.012966 0.703769
C15 C -0.0931(2) -0.04966(15) 0.66377(13)
H13 H -0.054416 -0.107677 0.668519
C16 C -0.2365(2) -0.03764(15) 0.63546(12)
H14 H -0.294180 -0.087637 0.621357
C17 C -0.2934(2) 0.04521(14) 0.62808(12)
H15 H -0.390569 0.052381 0.608952
C18 C -0.2095(2) 0.12059(14) 0.64861(11)
N1 N -0.27058(17) 0.20246(11) 0.63905(10)
O1 O -0.39784(15) 0.77603(9) 0.56226(8)
C19 C 0.0400(3) 0.81312(17) 0.51319(15)
H16 H 0.103932 0.803986 0.477441
H17 H 0.016950 0.876162 0.515679
H18 H -0.047674 0.779224 0.499990
C20 C 0.1442(2) 0.69659(15) 0.58757(12)
C21 C 0.2075(2) 0.66927(18) 0.65477(13)
H19 H 0.224947 0.710703 0.692569
C22 C 0.1611(2) 0.54808(16) 0.54650(15)
H20 H 0.145250 0.506823 0.508499
C23 C 0.1216(2) 0.63510(15) 0.53325(12)
H21 H 0.079115 0.652596 0.487153
C24 C 0.3411(3) 0.28267(17) 0.6704(2)
C25 C 0.3982(3) 0.2518(2) 0.7369(2)
H22 H 0.423495 0.292109 0.774919
C26 C 0.4172(2) 0.1660(2) 0.74720(15)
H23 H 0.456863 0.144987 0.792759
C27 C 0.3797(2) 0.10525(15) 0.69171(12)
C28 C 0.3900(2) 0.01215(16) 0.70090(14)
H24 H 0.424428 -0.011955 0.746178
C29 C 0.3501(3) -0.04282(16) 0.64446(18)
H25 H 0.355165 -0.105172 0.650723
C30 C 0.3020(2) -0.0072(2) 0.57755(17)
H26 H 0.276654 -0.045824 0.538409
C31 C 0.2909(2) 0.08090(19) 0.56760(14)
H27 H 0.258512 0.103556 0.521580
C32 C 0.3268(2) 0.13954(15) 0.62445(12)
N2 N 0.3064(2) 0.22908(15) 0.61302(13)
O2 O 0.10800(16) 0.78394(10) 0.58089(9)
C33 C 0.2211(2) 0.51874(18) 0.61081(17)
C34 C 0.2546(4) 0.4222(3) 0.6129(2)
H28 H 0.230353 0.389665 0.570150
C35 C 0.3172(3) 0.3762(2) 0.6712(2)
H29 H 0.345971 0.407866 0.714018
C36 C 0.2448(2) 0.5804(2) 0.66587(16)
H30 H 0.287021 0.561635 0.711665
C37? C 0.2854(9) 0.4333(6) 0.6631(5)
C38? C 0.2776(7) 0.3766(6) 0.6175(4)
H31? H 0.246729 0.380692 0.567835
H32? H 0.317535 0.430530 0.712639
loop_
_geom_bond_atom_site_label_1
_geom_bond_atom_site_label_2
_geom_bond_site_symmetry_1
_geom_bond_site_symmetry_2
C1 H1 1_555 1_555
H2 C1 1_555 1_555
H3 C1 1_555 1_555
C2 C3 1_555 1_555
C3 H4 1_555 1_555
C4 C3 1_555 1_555
H5 C4 1_555 1_555
C5 H6 1_555 1_555
C6 C2 1_555 1_555
H7 C6 1_555 1_555
C7 C4 1_555 1_555
C8 C7 1_555 1_555
H8 C8 1_555 1_555
C9 C8 1_555 1_555
H9 C9 1_555 1_555
C10 C9 1_555 1_555
C11 C10 1_555 1_555
H10 C11 1_555 1_555
C12 C11 1_555 1_555
H11 C12 1_555 1_555
C13 C12 1_555 1_555
C14 C13 1_555 1_555
H12 C14 1_555 1_555
C15 C14 1_555 1_555
H13 C15 1_555 1_555
C16 C15 1_555 1_555
H14 C16 1_555 1_555
C17 C16 1_555 1_555
H15 C17 1_555 1_555
C18 C13 1_555 1_555
N1 C10 1_555 1_555
O1 C1 1_555 1_555
C19 H16 1_555 1_555
H17 C19 1_555 1_555
H18 C19 1_555 1_555
C20 C21 1_555 1_555
C21 H19 1_555 1_555
C22 H20 1_555 1_555
C23 C20 1_555 1_555
H21 C23 1_555 1_555
C24 C25 1_555 1_555
C25 H22 1_555 1_555
C26 C25 1_555 1_555
H23 C26 1_555 1_555
C27 C26 1_555 1_555
C28 C27 1_555 1_555
H24 C28 1_555 1_555
C29 C28 1_555 1_555
H25 C29 1_555 1_555
C30 C29 1_555 1_555
H26 C30 1_555 1_555
C31 C30 1_555 1_555
H27 C31 1_555 1_555
C32 C27 1_555 1_555
N2 C24 1_555 1_555
O2 C19 1_555 1_555
C33 C22 1_555 1_555
C34 C33 1_555 1_555
H28 C34 1_555 1_555
C35 C24 1_555 1_555
H29 C35 1_555 1_555
C36 C21 1_555 1_555
H30 C36 1_555 1_555
C2 O1 1_555 1_555
C5 C6 1_555 1_555
C5 C7 1_555 1_555
C17 C18 1_555 1_555
C18 N1 1_555 1_555
C20 O2 1_555 1_555
C22 C23 1_555 1_555
C31 C32 1_555 1_555
C32 N2 1_555 1_555
C33 C36 1_555 1_555
C34 C35 1_555 1_555

#END
