
#######################################################################
#
#                 Cambridge Crystallographic Data Centre
#                                CCDC 
#
#######################################################################
#
# If this CIF has been generated from an entry in the Cambridge 
# Structural Database, then it will include bibliographic, chemical, 
# crystal, experimental, refinement or atomic coordinate data resulting 
# from the CCDC's data processing and validation procedures.
#
#######################################################################

data_IGAWUI
_chemical_formula_moiety         'C32 H78 B8 Na2 O2 Si4'
_chemical_name_systematic        
bis((\m~2~-\h^5^-nido-5-isobutyl-2,3-bis(trimethylsilyl)-2,3-dicarbahexaborane)-(tetrahydrofuran)-sodium)
_symmetry_cell_setting           triclinic
_symmetry_space_group_name_H-M   'P -1'
_symmetry_Int_Tables_number      2
_space_group_name_Hall           '-P 1'
loop_
_symmetry_equiv_pos_site_id
_symmetry_equiv_pos_as_xyz
1 x,y,z
2 -x,-y,-z
_cell_length_a                   10.1250(6)
_cell_length_b                   11.7064(9)
_cell_length_c                   12.6942(7)
_cell_angle_alpha                103.6390(10)
_cell_angle_beta                 104.0330(10)
_cell_angle_gamma                115.5860(10)
_cell_volume                     1212.78
_exptl_crystal_colour            colorless
_cell_formula_units_Z            1
loop_
_atom_site_label
_atom_site_type_symbol
_atom_site_fract_x
_atom_site_fract_y
_atom_site_fract_z
Si1 Si 0.22118(8) 0.19586(7) 0.31106(5)
Si2 Si -0.19805(7) 0.14583(6) 0.19009(5)
Na1 Na 0.14009(12) 0.52434(9) 0.41456(8)
C1 C 0.1189(2) 0.2679(2) 0.38545(16)
C2 C -0.0407(2) 0.2534(2) 0.34370(16)
B1 B -0.0854(3) 0.3033(3) 0.44554(19)
B2 B 0.0577(3) 0.3488(3) 0.57281(19)
B3 B 0.1990(3) 0.3279(3) 0.5217(2)
B4 B -0.0004(3) 0.1965(3) 0.4544(2)
O1 O 0.3034(2) 0.6490(2) 0.33828(17)
C3 C 0.3959(5) 0.7961(4) 0.3892(4)
H1 H 0.4725 0.8288 0.4683
H2 H 0.3277 0.8336 0.3930
C4 C 0.4768(12) 0.8369(7) 0.3129(8)
H3 H 0.4611 0.9063 0.2928
H4 H 0.5902 0.8758 0.3533
C5 C 0.4141(9) 0.7189(6) 0.2078(6)
H5 H 0.4996 0.7100 0.1932
H6 H 0.3541 0.7265 0.1404
C6 C 0.3103(7) 0.6003(5) 0.2284(4)
H7 H 0.2045 0.5489 0.1663
H8 H 0.3523 0.5399 0.2285
C7 C 0.0638(3) 0.3725(3) 0.70428(18)
H9 H 0.0714 0.4600 0.7365
H10 H -0.0376 0.3018 0.6981
C8 C 0.1951(3) 0.3726(3) 0.7948(2)
C9 C 0.3549(4) 0.5015(4) 0.8355(3)
H11 H 0.3818 0.5088 0.7689
H12 H 0.4347 0.4975 0.8909
H13 H 0.3499 0.5803 0.8726
C10 C 0.1547(5) 0.3589(4) 0.9013(3)
H14 H 0.2366 0.3565 0.9560
H15 H 0.0546 0.2755 0.8757
H16 H 0.1474 0.4361 0.9390
C11 C 0.1741(5) 0.1679(5) 0.1520(3)
H17 H 0.1923 0.2516 0.1424
H18 H 0.0646 0.0970 0.1061
H19 H 0.2413 0.1406 0.1259
C12 C 0.1854(4) 0.0326(3) 0.3280(4)
H20 H 0.0735 -0.0345 0.2909
H21 H 0.2231 0.0491 0.4103
H22 H 0.2413 -0.0010 0.2917
C13 C 0.4397(3) 0.3248(3) 0.3856(3)
H23 H 0.4603 0.4093 0.3767
H24 H 0.4958 0.2902 0.3506
H25 H 0.4752 0.3412 0.4679
C14 C -0.3900(3) 0.1337(3) 0.1853(2)
H26 H -0.4245 0.0919 0.2376
H27 H -0.4694 0.0788 0.1064
H28 H -0.3746 0.2242 0.2093
C15 C -0.2371(4) -0.0335(3) 0.1394(2)
H29 H -0.2644 -0.0730 0.1948
H30 H -0.1434 -0.0317 0.1338
H31 H -0.3237 -0.0880 0.0634
C16 C -0.1438(4) 0.2280(4) 0.0848(2)
H32 H -0.1244 0.3197 0.1130
H33 H -0.2298 0.1751 0.0086
H34 H -0.0495 0.2313 0.0791
H35 H -0.203(3) 0.276(3) 0.427(2)
H36 H 0.307(3) 0.334(2) 0.573(2)
H37 H -0.058(3) 0.090(3) 0.441(2)
H38 H 0.199(3) 0.291(3) 0.759(2)
H39 H 0.187(3) 0.429(3) 0.565(2)
Na1A Na -0.14009(12) 0.47566(9) 0.58544(8)
C1A C -0.1189(2) 0.7321(2) 0.61455(16)
Si1A Si -0.22118(8) 0.80414(7) 0.68894(5)
C11A C -0.1741(5) 0.8321(5) 0.8480(3)
H17A H -0.1923 0.7484 0.8576
H18A H -0.0646 0.9030 0.8939
H19A H -0.2413 0.8594 0.8741
C12A C -0.1854(4) 0.9674(3) 0.6720(4)
H20A H -0.0735 1.0345 0.7091
H21A H -0.2231 0.9509 0.5897
H22A H -0.2413 1.0010 0.7083
C13A C -0.4397(3) 0.6752(3) 0.6144(3)
H23A H -0.4603 0.5907 0.6233
H24A H -0.4958 0.7098 0.6494
H25A H -0.4752 0.6588 0.5321
C2A C 0.0407(2) 0.7466(2) 0.65630(16)
Si2A Si 0.19805(7) 0.85417(6) 0.80991(5)
C14A C 0.3900(3) 0.8663(3) 0.8147(2)
H26A H 0.4245 0.9081 0.7624
H27A H 0.4694 0.9212 0.8936
H28A H 0.3746 0.7758 0.7907
C15A C 0.2371(4) 1.0335(3) 0.8606(2)
H29A H 0.2644 1.0730 0.8052
H30A H 0.1434 1.0317 0.8662
H31A H 0.3237 1.0880 0.9366
C16A C 0.1438(4) 0.7720(4) 0.9152(2)
H32A H 0.1244 0.6803 0.8870
H33A H 0.2298 0.8249 0.9914
H34A H 0.0495 0.7687 0.9209
B1A B 0.0854(3) 0.6967(3) 0.55446(19)
B2A B -0.0577(3) 0.6512(3) 0.42719(19)
B4A B 0.0004(3) 0.8035(3) 0.5456(2)
B3A B -0.1990(3) 0.6721(3) 0.4783(2)
O1A O -0.3034(2) 0.3510(2) 0.66172(17)
C3A C -0.3959(5) 0.2039(4) 0.6108(4)
H1A H -0.4725 0.1712 0.5317
H2A H -0.3277 0.1664 0.6070
C4A C -0.4768(12) 0.1631(7) 0.6871(8)
H3A H -0.4611 0.0937 0.7072
H4A H -0.5902 0.1242 0.6467
C5A C -0.4141(9) 0.2811(6) 0.7922(6)
H5A H -0.4996 0.2900 0.8068
H6A H -0.3541 0.2735 0.8596
C6A C -0.3103(7) 0.3997(5) 0.7716(4)
H7A H -0.2045 0.4511 0.8337
H8A H -0.3523 0.4601 0.7715
H35A H 0.203(3) 0.724(3) 0.573(2)
H36A H -0.307(3) 0.666(2) 0.427(2)
H39A H -0.187(3) 0.571(3) 0.435(2)
C7A C -0.0638(3) 0.6275(3) 0.29572(18)
H9A H -0.0714 0.5400 0.2635
H10A H 0.0376 0.6982 0.3019
C8A C -0.1951(3) 0.6274(3) 0.2052(2)
C9A C -0.3549(4) 0.4985(4) 0.1645(3)
H11A H -0.3818 0.4912 0.2311
H12A H -0.4347 0.5025 0.1091
H13A H -0.3499 0.4197 0.1274
C10A C -0.1547(5) 0.6411(4) 0.0987(3)
H14A H -0.2366 0.6435 0.0440
H15A H -0.0546 0.7245 0.1243
H16A H -0.1474 0.5639 0.0610
H38A H -0.199(3) 0.709(3) 0.241(2)
H37A H 0.058(3) 0.910(3) 0.559(2)
loop_
_geom_bond_atom_site_label_1
_geom_bond_atom_site_label_2
_geom_bond_site_symmetry_1
_geom_bond_site_symmetry_2
Si1 C1 1_555 1_555
Si2 C2 1_555 1_555
Na1 C1 1_555 1_555
C1 C2 1_555 1_555
C2 Na1 1_555 1_555
B1 Na1 1_555 1_555
B2 Na1 1_555 1_555
B3 Na1 1_555 1_555
B4 C1 1_555 1_555
O1 Na1 1_555 1_555
C3 O1 1_555 1_555
H1 C3 1_555 1_555
H2 C3 1_555 1_555
C4 C3 1_555 1_555
H3 C4 1_555 1_555
H4 C4 1_555 1_555
C5 C4 1_555 1_555
H5 C5 1_555 1_555
H6 C5 1_555 1_555
C6 O1 1_555 1_555
H7 C6 1_555 1_555
H8 C6 1_555 1_555
C7 B2 1_555 1_555
H9 C7 1_555 1_555
H10 C7 1_555 1_555
C8 C7 1_555 1_555
C9 C8 1_555 1_555
H11 C9 1_555 1_555
H12 C9 1_555 1_555
H13 C9 1_555 1_555
C10 C8 1_555 1_555
H14 C10 1_555 1_555
H15 C10 1_555 1_555
H16 C10 1_555 1_555
C11 Si1 1_555 1_555
H17 C11 1_555 1_555
H18 C11 1_555 1_555
H19 C11 1_555 1_555
C12 Si1 1_555 1_555
H20 C12 1_555 1_555
H21 C12 1_555 1_555
H22 C12 1_555 1_555
C13 Si1 1_555 1_555
H23 C13 1_555 1_555
H24 C13 1_555 1_555
H25 C13 1_555 1_555
C14 Si2 1_555 1_555
H26 C14 1_555 1_555
H27 C14 1_555 1_555
H28 C14 1_555 1_555
C15 Si2 1_555 1_555
H29 C15 1_555 1_555
H30 C15 1_555 1_555
H31 C15 1_555 1_555
C16 Si2 1_555 1_555
H32 C16 1_555 1_555
H33 C16 1_555 1_555
H34 C16 1_555 1_555
H35 B1 1_555 1_555
H36 B3 1_555 1_555
H37 B4 1_555 1_555
H38 C8 1_555 1_555
H39 B2 1_555 1_555
Na1A B1 1_555 1_555
C1A Na1A 1_555 1_555
Si1A C1A 1_555 1_555
C11A Si1A 1_555 1_555
H17A C11A 1_555 1_555
H18A C11A 1_555 1_555
H19A C11A 1_555 1_555
C12A Si1A 1_555 1_555
H20A C12A 1_555 1_555
H21A C12A 1_555 1_555
H22A C12A 1_555 1_555
C13A Si1A 1_555 1_555
H23A C13A 1_555 1_555
H24A C13A 1_555 1_555
H25A C13A 1_555 1_555
C2A Na1A 1_555 1_555
Si2A C2A 1_555 1_555
C14A Si2A 1_555 1_555
H26A C14A 1_555 1_555
H27A C14A 1_555 1_555
H28A C14A 1_555 1_555
C15A Si2A 1_555 1_555
H29A C15A 1_555 1_555
H30A C15A 1_555 1_555
H31A C15A 1_555 1_555
C16A Si2A 1_555 1_555
H32A C16A 1_555 1_555
H33A C16A 1_555 1_555
H34A C16A 1_555 1_555
B1A Na1 1_555 1_555
B2A Na1 1_555 1_555
B4A C1A 1_555 1_555
B3A Na1A 1_555 1_555
O1A Na1A 1_555 1_555
C3A O1A 1_555 1_555
H1A C3A 1_555 1_555
H2A C3A 1_555 1_555
C4A C3A 1_555 1_555
H3A C4A 1_555 1_555
H4A C4A 1_555 1_555
C5A C4A 1_555 1_555
H5A C5A 1_555 1_555
H6A C5A 1_555 1_555
C6A O1A 1_555 1_555
H7A C6A 1_555 1_555
H8A C6A 1_555 1_555
H35A B1A 1_555 1_555
H36A B3A 1_555 1_555
H39A B2A 1_555 1_555
C7A B2A 1_555 1_555
H9A C7A 1_555 1_555
H10A C7A 1_555 1_555
C8A C7A 1_555 1_555
C9A C8A 1_555 1_555
H11A C9A 1_555 1_555
H12A C9A 1_555 1_555
H13A C9A 1_555 1_555
C10A C8A 1_555 1_555
H14A C10A 1_555 1_555
H15A C10A 1_555 1_555
H16A C10A 1_555 1_555
H38A C8A 1_555 1_555
H37A B4A 1_555 1_555
C1 B3 1_555 1_555
C2 B4 1_555 1_555
C2 B1 1_555 1_555
B1 B2 1_555 1_555
B1 B4 1_555 1_555
B2 Na1A 1_555 1_555
B2 B4 1_555 1_555
B2 B3 1_555 1_555
B3 H39 1_555 1_555
B3 B4 1_555 1_555
C5 C6 1_555 1_555
Na1A B1A 1_555 1_555
Na1A B2A 1_555 1_555
C1A C2A 1_555 1_555
C1A B3A 1_555 1_555
C2A B4A 1_555 1_555
C2A B1A 1_555 1_555
B1A B2A 1_555 1_555
B1A B4A 1_555 1_555
B2A B3A 1_555 1_555
B2A B4A 1_555 1_555
B4A B3A 1_555 1_555
B3A H39A 1_555 1_555
C5A C6A 1_555 1_555

#END
