
#######################################################################
#
#                 Cambridge Crystallographic Data Centre
#                                CCDC 
#
#######################################################################
#
# If this CIF has been generated from an entry in the Cambridge 
# Structural Database, then it will include bibliographic, chemical, 
# crystal, experimental, refinement or atomic coordinate data resulting 
# from the CCDC's data processing and validation procedures.
#
#######################################################################

data_IGEBUT
_chemical_formula_moiety         'C28 H28 B1 N1 O1'
_chemical_name_systematic        
3-t-butyl-1-((4-methoxyphenyl)ethynyl)-6-methyl-2-phenyl-1,2-dihydro-2,1-benzazaborinine
_symmetry_cell_setting           triclinic
_symmetry_space_group_name_H-M   'P -1'
_symmetry_Int_Tables_number      2
_space_group_name_Hall           '-P 1'
loop_
_symmetry_equiv_pos_site_id
_symmetry_equiv_pos_as_xyz
1 x,y,z
2 -x,-y,-z
_cell_length_a                   10.199(2)
_cell_length_b                   10.769(2)
_cell_length_c                   12.368(3)
_cell_angle_alpha                98.32(3)
_cell_angle_beta                 106.48(3)
_cell_angle_gamma                111.72(3)
_cell_volume                     1161.63
_exptl_crystal_colour            colorless
_exptl_crystal_description       Prism
_cell_formula_units_Z            2
loop_
_atom_site_label
_atom_site_type_symbol
_atom_site_fract_x
_atom_site_fract_y
_atom_site_fract_z
N1 N -0.0280(2) 0.29842(18) 0.08537(15)
C1 C 0.2512(3) 0.4273(2) 0.21253(19)
C2 C 0.0494(3) 0.4333(2) 0.2794(2)
H1 H 0.0234 0.4658 0.3421
C3 C -0.0659(3) 0.3504(2) 0.1774(2)
C4 C -0.1386(2) 0.2130(2) -0.02938(19)
C5 C 0.2072(3) 0.4764(2) 0.30108(19)
O1 O 0.1819(2) -0.1040(2) -0.48368(16)
C6 C 0.3192(3) 0.5713(2) 0.4080(2)
H2 H 0.2890 0.6035 0.4681
B1 B 0.1259(3) 0.3285(3) 0.0985(2)
C7 C 0.1747(3) 0.1212(2) -0.18615(19)
C8 C 0.5134(3) 0.5688(3) 0.3392(2)
H3 H 0.6181 0.6003 0.3514
C9 C 0.1717(3) 0.2009(2) -0.0844(2)
C10 C 0.1550(3) 0.2595(2) -0.0035(2)
C11 C -0.1791(3) 0.2741(2) -0.1152(2)
H4 H -0.1388 0.3727 -0.0980
C12 C 0.4707(3) 0.6182(2) 0.4272(2)
C13 C 0.4060(3) 0.4747(3) 0.2346(2)
H5 H 0.4379 0.4414 0.1762
C14 C -0.2302(3) 0.3212(3) 0.1624(2)
C15 C -0.1905(3) 0.0705(2) -0.0569(2)
H6 H -0.1582 0.0284 0.0013
C16 C 0.2995(3) 0.0812(3) -0.3158(2)
H7 H 0.3875 0.1090 -0.3356
C17 C 0.3014(3) 0.1587(3) -0.2164(2)
H8 H 0.3913 0.2392 -0.1677
C18 C 0.1713(3) -0.0360(3) -0.3867(2)
C19 C 0.0451(3) -0.0762(3) -0.3582(2)
H9 H -0.0437 -0.1578 -0.4065
C20 C 0.5890(3) 0.7234(3) 0.5404(2)
H10 H 0.6342 0.8139 0.5259
H11 H 0.6682 0.6929 0.5707
H12 H 0.5417 0.7316 0.5981
C21 C 0.0475(3) 0.0027(3) -0.2586(2)
H13 H -0.0411 -0.0255 -0.2395
C22 C -0.2783(3) 0.1920(3) -0.2261(2)
H14 H -0.3086 0.2342 -0.2849
C23 C -0.3339(3) 0.0498(3) -0.2528(2)
H15 H -0.4034 -0.0063 -0.3294
C24 C -0.2887(3) -0.0112(3) -0.1683(2)
H16 H -0.3253 -0.1096 -0.1867
C25 C -0.2430(3) 0.3597(3) 0.2820(3)
H17 H -0.1832 0.4601 0.3187
H18 H -0.2044 0.3091 0.3326
H19 H -0.3495 0.3344 0.2711
C26 C -0.3437(3) 0.1682(3) 0.1059(3)
H20 H -0.4391 0.1535 0.1173
H21 H -0.3021 0.1094 0.1426
H22 H -0.3628 0.1438 0.0217
C27 C 0.0502(4) -0.2215(3) -0.5636(3)
H23 H 0.0221 -0.2952 -0.5249
H24 H 0.0707 -0.2554 -0.6320
H25 H -0.0334 -0.1950 -0.5891
C28 C -0.2793(4) 0.4117(4) 0.0912(3)
H26 H -0.2131 0.5102 0.1328
H27 H -0.3844 0.3924 0.0810
H28 H -0.2718 0.3905 0.0140
loop_
_geom_bond_atom_site_label_1
_geom_bond_atom_site_label_2
_geom_bond_site_symmetry_1
_geom_bond_site_symmetry_2
N1 C3 1_555 1_555
C1 C5 1_555 1_555
C2 H1 1_555 1_555
C3 C2 1_555 1_555
C4 N1 1_555 1_555
C5 C2 1_555 1_555
O1 C18 1_555 1_555
C6 C5 1_555 1_555
H2 C6 1_555 1_555
B1 N1 1_555 1_555
C7 C9 1_555 1_555
C8 H3 1_555 1_555
C9 C10 1_555 1_555
C10 B1 1_555 1_555
C11 C4 1_555 1_555
H4 C11 1_555 1_555
C12 C6 1_555 1_555
C13 C1 1_555 1_555
H5 C13 1_555 1_555
C14 C3 1_555 1_555
C15 C4 1_555 1_555
H6 C15 1_555 1_555
C16 H7 1_555 1_555
C17 C7 1_555 1_555
H8 C17 1_555 1_555
C18 C16 1_555 1_555
C19 C18 1_555 1_555
H9 C19 1_555 1_555
C20 C12 1_555 1_555
H10 C20 1_555 1_555
H11 C20 1_555 1_555
H12 C20 1_555 1_555
C21 C7 1_555 1_555
H13 C21 1_555 1_555
C22 C11 1_555 1_555
H14 C22 1_555 1_555
C23 C22 1_555 1_555
H15 C23 1_555 1_555
C24 C15 1_555 1_555
H16 C24 1_555 1_555
C25 C14 1_555 1_555
H17 C25 1_555 1_555
H18 C25 1_555 1_555
H19 C25 1_555 1_555
C26 C14 1_555 1_555
H20 C26 1_555 1_555
H21 C26 1_555 1_555
H22 C26 1_555 1_555
C27 O1 1_555 1_555
H23 C27 1_555 1_555
H24 C27 1_555 1_555
H25 C27 1_555 1_555
C28 C14 1_555 1_555
H26 C28 1_555 1_555
H27 C28 1_555 1_555
H28 C28 1_555 1_555
C1 B1 1_555 1_555
C8 C12 1_555 1_555
C8 C13 1_555 1_555
C16 C17 1_555 1_555
C19 C21 1_555 1_555
C23 C24 1_555 1_555

#END
