
#######################################################################
#
#                 Cambridge Crystallographic Data Centre
#                                CCDC 
#
#######################################################################
#
# If this CIF has been generated from an entry in the Cambridge 
# Structural Database, then it will include bibliographic, chemical, 
# crystal, experimental, refinement or atomic coordinate data resulting 
# from the CCDC's data processing and validation procedures.
#
#######################################################################

data_IGELOX
_chemical_formula_moiety         'C13 H14 N2 O3'
_chemical_name_systematic        
(E)-5-(4-methoxybenzylidene)-1,3-dimethylimidazolidine-2,4-dione
_symmetry_cell_setting           orthorhombic
_symmetry_space_group_name_H-M   'P 21 21 21'
_symmetry_Int_Tables_number      19
_space_group_name_Hall           'P 2ac 2ab'
loop_
_symmetry_equiv_pos_site_id
_symmetry_equiv_pos_as_xyz
1 x,y,z
2 1/2+x,1/2-y,-z
3 -x,1/2+y,1/2-z
4 1/2-x,-y,1/2+z
_cell_length_a                   5.2854(7)
_cell_length_b                   12.3146(17)
_cell_length_c                   18.426(3)
_cell_angle_alpha                90
_cell_angle_beta                 90
_cell_angle_gamma                90
_cell_volume                     1199.3
_exptl_crystal_colour            'pale yellow'
_exptl_crystal_description       block
_cell_formula_units_Z            4
loop_
_atom_site_label
_atom_site_type_symbol
_atom_site_fract_x
_atom_site_fract_y
_atom_site_fract_z
O1 O 0.0860(4) 0.71739(15) 0.58382(10)
O2 O 1.0048(4) 0.83514(15) 0.80983(11)
O3 O 1.4395(4) 0.62084(18) 0.96974(11)
N1 N 1.2594(4) 0.74983(18) 0.89303(11)
N2 N 1.1034(5) 0.58348(18) 0.89244(12)
C1 C -0.0931(6) 0.6404(2) 0.55704(15)
H1 H -0.1898 0.6730 0.5172
H2 H -0.2088 0.6196 0.5962
H3 H -0.0037 0.5759 0.5393
C2 C 0.2454(6) 0.6847(2) 0.63773(14)
C3 C 0.4184(6) 0.7614(2) 0.66240(14)
H4 H 0.4177 0.8321 0.6418
C4 C 0.5901(6) 0.7370(2) 0.71592(14)
H5 H 0.7064 0.7909 0.7317
C5 C 0.5954(5) 0.6326(2) 0.74766(13)
C6 C 0.4191(5) 0.5579(2) 0.72204(15)
H6 H 0.4176 0.4872 0.7427
C7 C 0.2467(6) 0.5812(2) 0.66818(14)
H7 H 0.1305 0.5275 0.6521
C8 C 0.7702(5) 0.5955(2) 0.80337(14)
H8 H 0.7452 0.5214 0.8158
C9 C 0.9594(5) 0.6417(2) 0.84149(14)
C10 C 1.0670(6) 0.7545(2) 0.84322(14)
C11 C 1.2855(6) 0.6464(2) 0.92388(15)
C12 C 1.4147(6) 0.8426(3) 0.91389(17)
H9 H 1.4098 0.8974 0.8753
H10 H 1.5896 0.8188 0.9214
H11 H 1.3489 0.8741 0.9590
C13 C 1.0623(7) 0.4703(2) 0.91209(18)
H12 H 1.1824 0.4493 0.9501
H13 H 1.0878 0.4242 0.8693
H14 H 0.8891 0.4611 0.9300
loop_
_geom_bond_atom_site_label_1
_geom_bond_atom_site_label_2
_geom_bond_site_symmetry_1
_geom_bond_site_symmetry_2
O1 C1 1_555 1_555
O2 C10 1_555 1_555
O3 C11 1_555 1_555
N1 C10 1_555 1_555
N2 C9 1_555 1_555
C1 H1 1_555 1_555
H2 C1 1_555 1_555
H3 C1 1_555 1_555
C2 O1 1_555 1_555
C3 C2 1_555 1_555
H4 C3 1_555 1_555
C4 C3 1_555 1_555
H5 C4 1_555 1_555
C5 C4 1_555 1_555
C6 C5 1_555 1_555
H6 C6 1_555 1_555
C7 C2 1_555 1_555
H7 C7 1_555 1_555
C8 C5 1_555 1_555
H8 C8 1_555 1_555
C9 C8 1_555 1_555
C10 C9 1_555 1_555
C11 N1 1_555 1_555
C12 N1 1_555 1_555
H9 C12 1_555 1_555
H10 C12 1_555 1_555
H11 C12 1_555 1_555
C13 N2 1_555 1_555
H12 C13 1_555 1_555
H13 C13 1_555 1_555
H14 C13 1_555 1_555
N2 C11 1_555 1_555
C6 C7 1_555 1_555

#END
