
#######################################################################
#
#                 Cambridge Crystallographic Data Centre
#                                CCDC 
#
#######################################################################
#
# If this CIF has been generated from an entry in the Cambridge 
# Structural Database, then it will include bibliographic, chemical, 
# crystal, experimental, refinement or atomic coordinate data resulting 
# from the CCDC's data processing and validation procedures.
#
#######################################################################

data_IGERUJ
_chemical_formula_moiety         'C11 H7 O3 1-,C5 H6 N1 O1 1+'
_chemical_name_systematic        '3-hydroxypyridinium 3-hydroxy-2-naphthoate'
_symmetry_cell_setting           monoclinic
_symmetry_space_group_name_H-M   'P 21/n'
_symmetry_Int_Tables_number      14
_space_group_name_Hall           '-P 2yn'
loop_
_symmetry_equiv_pos_site_id
_symmetry_equiv_pos_as_xyz
1 x,y,z
2 1/2-x,1/2+y,1/2-z
3 -x,-y,-z
4 1/2+x,1/2-y,1/2+z
_cell_length_a                   6.970(4)
_cell_length_b                   16.371(8)
_cell_length_c                   11.719(6)
_cell_angle_alpha                90
_cell_angle_beta                 100.000(8)
_cell_angle_gamma                90
_cell_volume                     1316.89
_exptl_crystal_colour            colorless
_exptl_crystal_description       block
_cell_formula_units_Z            4
loop_
_atom_site_label
_atom_site_type_symbol
_atom_site_fract_x
_atom_site_fract_y
_atom_site_fract_z
O1 O 0.84400(15) 0.01570(7) 0.17089(9)
O2 O 0.64699(14) 0.07029(7) -0.01605(9)
C1 C 0.98868(18) 0.09908(8) 0.04683(11)
O3 O 1.15152(16) 0.05156(7) 0.22662(9)
C2 C 1.15169(18) 0.18416(9) -0.07554(11)
C3 C 0.97315(18) 0.19522(9) -0.15195(11)
C4 C 0.81131(18) 0.10805(9) -0.03277(11)
C5 C 0.9968(2) 0.05172(9) 0.15618(11)
C6 C 1.15260(19) 0.13559(9) 0.02267(11)
C7 C 0.80609(19) 0.15585(9) -0.12862(11)
C8 C 1.3190(2) 0.22382(10) -0.09978(13)
C9 C 1.1329(2) 0.28521(12) -0.26757(14)
C10 C 0.9697(2) 0.24697(10) -0.24824(13)
C11 C 1.3104(2) 0.27334(12) -0.19278(15)
H1 H 0.681(2) 0.1635(9) -0.1793(13)
H2 H 1.2784(19) 0.1267(9) 0.0747(13)
H3 H 1.446(2) 0.2120(11) -0.0463(15)
H4 H 0.845(2) 0.2538(11) -0.2986(16)
H5 H 1.132(2) 0.3220(12) -0.3317(17)
H6 H 1.427(3) 0.2995(13) -0.2060(17)
H7 H 0.688(3) 0.0371(14) 0.053(2)
O4 O 0.77231(15) 0.05299(8) 0.61419(10)
N1 N 0.28095(18) 0.05955(9) 0.65974(11)
C12 C 0.58602(19) 0.07113(9) 0.60325(11)
C13 C 0.5007(2) 0.12239(10) 0.51521(13)
C14 C 0.4678(2) 0.04084(10) 0.67655(13)
C15 C 0.1962(2) 0.10752(12) 0.57513(15)
C16 C 0.3083(2) 0.13986(12) 0.50127(16)
H8 H 0.517(2) 0.0087(11) 0.7342(16)
H9 H 0.057(2) 0.1151(12) 0.5677(16)
H10 H 0.583(2) 0.1445(12) 0.4661(16)
H11 H 0.249(2) 0.1738(13) 0.4447(18)
H12 H 0.203(3) 0.0298(13) 0.708(2)
H13 H 0.814(3) 0.0133(16) 0.677(2)
loop_
_geom_bond_atom_site_label_1
_geom_bond_atom_site_label_2
_geom_bond_site_symmetry_1
_geom_bond_site_symmetry_2
O1 C5 1_555 1_555
O2 C4 1_555 1_555
C1 C4 1_555 1_555
O3 C5 1_555 1_555
C2 C3 1_555 1_555
C3 C7 1_555 1_555
C4 C7 1_555 1_555
C5 C1 1_555 1_555
C6 C1 1_555 1_555
C7 H1 1_555 1_555
C8 C2 1_555 1_555
C9 C10 1_555 1_555
C10 C3 1_555 1_555
C11 C8 1_555 1_555
H2 C6 1_555 1_555
H3 C8 1_555 1_555
H4 C10 1_555 1_555
H5 C9 1_555 1_555
H6 C11 1_555 1_555
H7 O2 1_555 1_555
O4 C12 1_555 1_555
N1 C14 1_555 1_555
C12 C13 1_555 1_555
C13 C16 1_555 1_555
C14 C12 1_555 1_555
C15 N1 1_555 1_555
C16 C15 1_555 1_555
H8 C14 1_555 1_555
H9 C15 1_555 1_555
H10 C13 1_555 1_555
H11 C16 1_555 1_555
H12 N1 1_555 1_555
H13 O4 1_555 1_555
C2 C6 1_555 1_555
C9 C11 1_555 1_555

#END
