
#######################################################################
#
#                 Cambridge Crystallographic Data Centre
#                                CCDC 
#
#######################################################################
#
# If this CIF has been generated from an entry in the Cambridge 
# Structural Database, then it will include bibliographic, chemical, 
# crystal, experimental, refinement or atomic coordinate data resulting 
# from the CCDC's data processing and validation procedures.
#
#######################################################################

data_IGEXAT
_chemical_formula_moiety         'C16 H18 O5'
_chemical_name_systematic        
(4S,5R,6R,7S)-5,6-O-Isopropylidene-7-C-phenyl-L-aldol-heptalactone
_symmetry_cell_setting           monoclinic
_symmetry_space_group_name_H-M   'P 21'
_symmetry_Int_Tables_number      4
_space_group_name_Hall           'P 2yb'
loop_
_symmetry_equiv_pos_site_id
_symmetry_equiv_pos_as_xyz
1 x,y,z
2 -x,1/2+y,-z
_cell_length_a                   5.612(2)
_cell_length_b                   18.667(5)
_cell_length_c                   14.424(2)
_cell_angle_alpha                90
_cell_angle_beta                 97.10(2)
_cell_angle_gamma                90
_cell_volume                     1499.46
_cell_formula_units_Z            4
loop_
_atom_site_label
_atom_site_type_symbol
_atom_site_fract_x
_atom_site_fract_y
_atom_site_fract_z
O1 O 0.868(1) 0.2417 0.1275(5)
O2 O 0.9823(9) 0.3159(4) 0.2457(4)
O3 O 1.299(1) 0.2542(5) 0.4002(4)
O4 O 1.078(1) 0.2837(4) 0.5163(4)
O5 O 0.839(1) 0.4140(5) 0.5507(4)
C1 C 1.030(2) 0.2725(7) 0.1729(7)
C2 C 1.286(2) 0.2741(6) 0.1693(6)
C3 C 1.385(1) 0.3178(7) 0.2340(6)
C4 C 1.206(1) 0.3477(5) 0.2882(5)
C5 C 1.248(1) 0.3288(5) 0.3918(5)
C6 C 1.039(1) 0.3407(6) 0.4490(6)
C7 C 1.178(2) 0.2251(6) 0.4722(7)
C8 C 0.983(2) 0.1749(8) 0.4279(9)
C9 C 1.351(2) 0.1870(7) 0.5412(7)
C10 C 1.041(2) 0.4118(6) 0.4984(6)
C11 C 1.023(2) 0.4716(5) 0.4275(6)
C12 C 1.214(2) 0.5158(6) 0.4199(6)
C13 C 1.202(2) 0.5666(6) 0.3488(7)
C14 C 0.994(2) 0.5746(6) 0.2883(6)
C15 C 0.800(2) 0.5312(6) 0.2955(6)
C16 C 0.815(1) 0.4810(6) 0.3676(7)
O6 O 0.329(1) 0.4750 0.1231(5)
O7 O 0.3492(9) 0.4036(4) 0.0018(4)
O8 O 0.528(1) 0.4705(5) -0.1571(4)
O9 O 0.224(1) 0.4376(5) -0.2694(4)
O10 O -0.023(1) 0.3054(5) -0.2959(4)
C17 C 0.449(2) 0.4453(6) 0.0730(6)
C18 C 0.714(2) 0.4440(6) 0.0740(7)
C19 C 0.763(1) 0.4022(6) 0.0061(6)
C20 C 0.542(1) 0.3736(6) -0.0477(6)
C21 C 0.498(1) 0.3944(6) -0.1494(6)
C22 C 0.249(1) 0.3803(6) -0.2015(6)
C23 C 0.349(2) 0.4983(7) -0.2246(7)
C24 C 0.181(2) 0.5439(7) -0.1797(8)
C25 C 0.464(2) 0.5365(7) -0.3022(8)
C26 C 0.222(2) 0.3101(6) -0.2515(5)
C27 C 0.267(1) 0.2488(6) -0.1842(6)
C28 C 0.473(2) 0.2083(6) -0.1829(6)
C29 C 0.520(2) 0.1513(7) -0.1196(7)
C30 C 0.368(2) 0.1396(7) -0.0533(7)
C31 C 0.164(2) 0.1803(7) -0.0527(6)
C32 C 0.110(2) 0.2341(6) -0.1163(6)
loop_
_geom_bond_atom_site_label_1
_geom_bond_atom_site_label_2
_geom_bond_site_symmetry_1
_geom_bond_site_symmetry_2
O1 C1 1_555 1_555
O2 C1 1_555 1_555
O3 C5 1_555 1_555
O4 C6 1_555 1_555
O5 C10 1_555 1_555
O6 C17 1_555 1_555
O7 C17 1_555 1_555
O8 C21 1_555 1_555
O9 C22 1_555 1_555
O10 C26 1_555 1_555
C1 C2 1_555 1_555
C2 C3 1_555 1_555
C3 C4 1_555 1_555
C4 O2 1_555 1_555
C5 C4 1_555 1_555
C6 C5 1_555 1_555
C7 O3 1_555 1_555
C8 C7 1_555 1_555
C9 C7 1_555 1_555
C10 C6 1_555 1_555
C11 C10 1_555 1_555
C12 C11 1_555 1_555
C13 C12 1_555 1_555
C14 C13 1_555 1_555
C15 C14 1_555 1_555
C16 C11 1_555 1_555
C17 C18 1_555 1_555
C18 C19 1_555 1_555
C19 C20 1_555 1_555
C20 O7 1_555 1_555
C21 C20 1_555 1_555
C22 C21 1_555 1_555
C23 O8 1_555 1_555
C24 C23 1_555 1_555
C25 C23 1_555 1_555
C26 C22 1_555 1_555
C27 C26 1_555 1_555
C28 C27 1_555 1_555
C29 C28 1_555 1_555
C30 C29 1_555 1_555
C31 C30 1_555 1_555
C32 C27 1_555 1_555
O4 C7 1_555 1_555
O9 C23 1_555 1_555
C15 C16 1_555 1_555
C31 C32 1_555 1_555

#END
