
#######################################################################
#
#                 Cambridge Crystallographic Data Centre
#                                CCDC 
#
#######################################################################
#
# If this CIF has been generated from an entry in the Cambridge 
# Structural Database, then it will include bibliographic, chemical, 
# crystal, experimental, refinement or atomic coordinate data resulting 
# from the CCDC's data processing and validation procedures.
#
#######################################################################

data_IGOCIS
_chemical_formula_moiety         'C19 H14 B1 F2 N3 S1'
_chemical_name_systematic        
difluoro(2-(methylsulfanyl)-3-((1H-pyrrol-2-yl)(2H-pyrrol-2-ylidene)methyl)quinolinato)borate
_symmetry_cell_setting           monoclinic
_symmetry_space_group_name_H-M   'P 21/c'
_symmetry_Int_Tables_number      14
_space_group_name_Hall           '-P 2ybc'
loop_
_symmetry_equiv_pos_site_id
_symmetry_equiv_pos_as_xyz
1 x,y,z
2 -x,1/2+y,1/2-z
3 -x,-y,-z
4 x,1/2-y,1/2+z
_cell_length_a                   13.4997(9)
_cell_length_b                   13.9995(7)
_cell_length_c                   10.1052(6)
_cell_angle_alpha                90
_cell_angle_beta                 111.458(8)
_cell_angle_gamma                90
_cell_volume                     1777.4
_exptl_crystal_colour            orange
_exptl_crystal_description       block
_cell_formula_units_Z            4
loop_
_atom_site_label
_atom_site_type_symbol
_atom_site_fract_x
_atom_site_fract_y
_atom_site_fract_z
S1 S 0.55398(5) 0.41660(5) 0.12845(6)
F1 F 0.88433(16) 0.57325(10) 0.00221(16)
F2 F 1.01855(12) 0.56916(12) 0.2139(2)
N1 N 0.88357(15) 0.44937(13) 0.16579(19)
C1 C 0.68555(19) 0.42462(15) 0.6070(2)
C2 C 0.78727(18) 0.58475(15) 0.2861(2)
C3 C 0.6589(2) 0.38808(19) 0.8240(3)
H1 H 0.6837 0.3867 0.9228
C4 C 0.82187(18) 0.42042(15) 0.2435(2)
C5 C 0.5572(2) 0.35486(19) 0.7463(3)
H2 H 0.5148 0.3313 0.7936
C6 C 0.7227(2) 0.42272(18) 0.7574(3)
H3 H 0.7905 0.4451 0.8105
N2 N 0.84641(15) 0.61683(12) 0.20788(19)
N3 N 0.54301(16) 0.38786(14) 0.38264(19)
C7 C 0.8813(2) 0.28889(18) 0.1687(3)
H4 H 0.8944 0.2258 0.1514
C8 C 0.60382(19) 0.41760(15) 0.3158(2)
C9 C 0.70895(18) 0.45396(15) 0.3855(2)
C10 C 0.5189(2) 0.35641(19) 0.6009(3)
H5 H 0.4503 0.3351 0.5498
C11 C 0.7782(2) 0.74490(18) 0.2783(3)
H6 H 0.7622 0.8081 0.2908
C12 C 0.8400(2) 0.71307(17) 0.2037(3)
H7 H 0.8724 0.7525 0.1574
C13 C 0.7451(2) 0.66510(17) 0.3302(3)
H8 H 0.7026 0.6645 0.3847
C14 C 0.74815(19) 0.45799(17) 0.5300(2)
H9 H 0.8158 0.4826 0.5784
C15 C 0.58330(19) 0.39023(15) 0.5285(2)
C16 C 0.77437(16) 0.48676(15) 0.3031(2)
B1 B 0.9111(2) 0.55390(18) 0.1440(3)
C17 C 0.9189(2) 0.37044(17) 0.1224(3)
H10 H 0.9624 0.3700 0.0690
C18 C 0.4188(2) 0.38245(19) 0.0880(3)
H11 H 0.3827 0.3794 -0.0133
H12 H 0.3844 0.4287 0.1268
H13 H 0.4165 0.3209 0.1286
C19 C 0.8213(2) 0.31959(17) 0.2445(3)
H14 H 0.7865 0.2809 0.2886
loop_
_geom_bond_atom_site_label_1
_geom_bond_atom_site_label_2
_geom_bond_site_symmetry_1
_geom_bond_site_symmetry_2
S1 C8 1_555 1_555
F1 B1 1_555 1_555
F2 B1 1_555 1_555
N1 C4 1_555 1_555
C1 C6 1_555 1_555
C2 N2 1_555 1_555
C3 H1 1_555 1_555
C4 C16 1_555 1_555
C5 C3 1_555 1_555
H2 C5 1_555 1_555
C6 C3 1_555 1_555
H3 C6 1_555 1_555
N2 C12 1_555 1_555
N3 C8 1_555 1_555
C7 H4 1_555 1_555
C8 C9 1_555 1_555
C9 C14 1_555 1_555
C10 C5 1_555 1_555
H5 C10 1_555 1_555
C11 H6 1_555 1_555
C12 C11 1_555 1_555
H7 C12 1_555 1_555
C13 C2 1_555 1_555
H8 C13 1_555 1_555
C14 C1 1_555 1_555
H9 C14 1_555 1_555
C15 C1 1_555 1_555
C16 C2 1_555 1_555
B1 N1 1_555 1_555
C17 N1 1_555 1_555
H10 C17 1_555 1_555
C18 S1 1_555 1_555
H11 C18 1_555 1_555
H12 C18 1_555 1_555
H13 C18 1_555 1_555
C19 C4 1_555 1_555
H14 C19 1_555 1_555
N2 B1 1_555 1_555
N3 C15 1_555 1_555
C7 C17 1_555 1_555
C7 C19 1_555 1_555
C9 C16 1_555 1_555
C10 C15 1_555 1_555
C11 C13 1_555 1_555

#END
