
#######################################################################
#
#                 Cambridge Crystallographic Data Centre
#                                CCDC 
#
#######################################################################
#
# If this CIF has been generated from an entry in the Cambridge 
# Structural Database, then it will include bibliographic, chemical, 
# crystal, experimental, refinement or atomic coordinate data resulting 
# from the CCDC's data processing and validation procedures.
#
#######################################################################

data_IHADOL
_chemical_formula_moiety         'C23 H18 Cl2 N4 O2 S1'
_chemical_name_systematic        
2-((5-((4-Chlorophenoxy)methyl)-4-phenyl-4H-1,2,4-triazol-3-yl)sulfanyl)-N-(4-chlorophenyl)acetamide
_symmetry_cell_setting           triclinic
_symmetry_space_group_name_H-M   'P -1'
_symmetry_Int_Tables_number      2
_space_group_name_Hall           '-P 1'
loop_
_symmetry_equiv_pos_site_id
_symmetry_equiv_pos_as_xyz
1 x,y,z
2 -x,-y,-z
_cell_length_a                   7.5420(15)
_cell_length_b                   10.688(2)
_cell_length_c                   14.390(3)
_cell_angle_alpha                79.387(6)
_cell_angle_beta                 86.131(9)
_cell_angle_gamma                81.500(9)
_cell_volume                     1126.63
_exptl_crystal_colour            colorless
_exptl_crystal_description       block
_chemical_melting_point          188-189deg.C
_cell_formula_units_Z            2
loop_
_atom_site_label
_atom_site_type_symbol
_atom_site_fract_x
_atom_site_fract_y
_atom_site_fract_z
S1 S 0.13952(11) 0.36983(6) 0.63327(6)
Cl1 Cl 0.34654(11) -0.25465(7) 0.23790(5)
Cl2 Cl 0.22622(11) 1.21073(7) 1.02568(6)
C1 C 0.1814(3) 0.8986(2) 0.86138(15)
C2 C 0.2060(3) 1.0897(2) 0.96204(17)
C3 C 0.1113(4) 1.1179(3) 0.8814(2)
C4 C 0.2858(4) 0.9664(3) 0.99400(19)
C5 C 0.0974(3) 1.0212(2) 0.83001(18)
C6 C 0.2744(3) 0.8711(2) 0.94331(17)
O1 O 0.1817(2) 0.79665(13) 0.81480(11)
N1 N 0.0903(2) 0.59641(16) 0.69708(12)
N2 N 0.3769(3) 0.16938(17) 0.44719(13)
C7 C 0.3605(3) 0.06733(19) 0.39919(15)
C8 C 0.1614(3) 0.7092(2) 0.67917(15)
C9 C -0.0521(3) 0.56099(19) 0.76414(15)
N3 N 0.3145(3) 0.58309(19) 0.59085(14)
N4 N 0.2944(3) 0.70365(17) 0.61691(13)
C10 C 0.2501(3) -0.1258(2) 0.38227(18)
C11 C 0.3499(3) -0.1286(2) 0.29908(16)
O2 O 0.1394(3) 0.1584(2) 0.5502(2)
C12 C 0.2663(3) 0.2109(2) 0.51508(19)
C13 C 0.4532(3) -0.0337(2) 0.26379(18)
C14 C 0.4574(3) 0.0639(2) 0.31370(17)
C15 C 0.0982(4) 0.8218(2) 0.72575(17)
C16 C 0.2547(3) -0.0279(2) 0.43177(17)
C17 C 0.1901(3) 0.5216(2) 0.63901(16)
C18 C 0.3090(4) 0.3301(3) 0.5458(2)
C19 C -0.3192(4) 0.4904(3) 0.8931(2)
C20 C -0.0094(4) 0.4883(3) 0.85031(18)
C21 C -0.1445(5) 0.4515(3) 0.9150(2)
C22 C -0.2259(4) 0.5984(3) 0.7423(2)
C23 C -0.3604(5) 0.5628(3) 0.8083(3)
H1 H 0.139(3) 0.893(2) 0.6868(15)
H2 H -0.043(4) 0.837(2) 0.7360(18)
H3 H 0.335(3) 0.778(3) 0.9637(17)
H4 H 0.027(4) 1.047(2) 0.7720(19)
H5 H 0.052(4) 1.199(3) 0.8598(19)
H6 H 0.181(4) -0.191(2) 0.4058(18)
H7 H 0.191(3) -0.028(2) 0.4867(17)
H8 H 0.524(3) 0.125(2) 0.2895(17)
H9 H 0.523(3) -0.036(2) 0.2005(17)
H10 H 0.342(3) 0.946(2) 1.0488(17)
H11 H 0.113(4) 0.458(2) 0.8685(18)
H12 H -0.420(4) 0.466(3) 0.937(2)
H13 H -0.250(4) 0.651(3) 0.680(2)
H14 H -0.461(4) 0.588(3) 0.7972(19)
H15 H -0.102(4) 0.392(3) 0.978(2)
H16 H 0.474(3) 0.208(2) 0.4292(16)
H17 H 0.303(4) 0.404(3) 0.492(2)
H18 H 0.427(4) 0.322(3) 0.5688(19)
loop_
_geom_bond_atom_site_label_1
_geom_bond_atom_site_label_2
_geom_bond_site_symmetry_1
_geom_bond_site_symmetry_2
S1 C17 1_555 1_555
Cl1 C11 1_555 1_555
Cl2 C2 1_555 1_555
C1 C5 1_555 1_555
C2 C3 1_555 1_555
C3 C5 1_555 1_555
C4 C2 1_555 1_555
C5 H4 1_555 1_555
C6 C1 1_555 1_555
O1 C1 1_555 1_555
N1 C8 1_555 1_555
N2 C7 1_555 1_555
C7 C14 1_555 1_555
C8 N4 1_555 1_555
C9 N1 1_555 1_555
N3 N4 1_555 1_555
C10 C11 1_555 1_555
C11 C13 1_555 1_555
O2 C12 1_555 1_555
C12 N2 1_555 1_555
C13 C14 1_555 1_555
C14 H8 1_555 1_555
C15 O1 1_555 1_555
C16 C7 1_555 1_555
C17 N1 1_555 1_555
C18 S1 1_555 1_555
C19 C21 1_555 1_555
C20 C9 1_555 1_555
C21 C20 1_555 1_555
C22 C9 1_555 1_555
C23 C19 1_555 1_555
H1 C15 1_555 1_555
H2 C15 1_555 1_555
H3 C6 1_555 1_555
H5 C3 1_555 1_555
H6 C10 1_555 1_555
H7 C16 1_555 1_555
H9 C13 1_555 1_555
H10 C4 1_555 1_555
H11 C20 1_555 1_555
H12 C19 1_555 1_555
H13 C22 1_555 1_555
H14 C23 1_555 1_555
H15 C21 1_555 1_555
H16 N2 1_555 1_555
H17 C18 1_555 1_555
H18 C18 1_555 1_555
C4 C6 1_555 1_555
C8 C15 1_555 1_555
N3 C17 1_555 1_555
C10 C16 1_555 1_555
C12 C18 1_555 1_555
C22 C23 1_555 1_555

#END
