
#######################################################################
#
#                 Cambridge Crystallographic Data Centre
#                                CCDC 
#
#######################################################################
#
# If this CIF has been generated from an entry in the Cambridge 
# Structural Database, then it will include bibliographic, chemical, 
# crystal, experimental, refinement or atomic coordinate data resulting 
# from the CCDC's data processing and validation procedures.
#
#######################################################################

data_IHANOW
_chemical_formula_moiety         'C37 H32 N3 P1 S1'
_chemical_name_systematic        
'syn-N-(1-cyano-1-(9H-fluoren-9-ylideneamino)-2-methyl-4-phenylbutan-2-yl)-P,P-diphenylphosphinothioic amide'
_symmetry_cell_setting           orthorhombic
_symmetry_space_group_name_H-M   'P 21 21 21'
_symmetry_Int_Tables_number      19
_space_group_name_Hall           'P 2ac 2ab'
loop_
_symmetry_equiv_pos_site_id
_symmetry_equiv_pos_as_xyz
1 x,y,z
2 1/2+x,1/2-y,-z
3 -x,1/2+y,1/2-z
4 1/2-x,-y,1/2+z
_cell_length_a                   12.4436(2)
_cell_length_b                   13.3486(2)
_cell_length_c                   17.8979(3)
_cell_angle_alpha                90
_cell_angle_beta                 90
_cell_angle_gamma                90
_cell_volume                     2972.92
_exptl_crystal_colour            colorless
_exptl_crystal_description       block
_cell_formula_units_Z            4
loop_
_atom_site_label
_atom_site_type_symbol
_atom_site_fract_x
_atom_site_fract_y
_atom_site_fract_z
S1 S 0.12921(9) -0.07931(8) 0.93171(6)
P1 P 0.17879(9) 0.05269(8) 0.96431(6)
N1 N -0.1090(3) 0.1314(3) 0.79567(18)
N2 N 0.1026(2) 0.1523(2) 0.94458(17)
N3 N -0.1728(3) 0.1125(2) 0.9796(2)
C1 C -0.1173(3) 0.1085(3) 0.9285(3)
C2 C -0.0476(3) 0.1056(3) 0.8629(2)
C3 C 0.2116(3) 0.1564(3) 1.0979(2)
C4 C -0.1809(3) 0.0734(3) 0.7708(2)
C5 C -0.3093(3) -0.0527(3) 0.7470(2)
C6 C 0.3470(3) 0.1799(3) 0.9236(2)
C7 C -0.2474(3) 0.1016(3) 0.7049(2)
C8 C 0.1859(3) 0.0644(3) 1.0650(2)
C9 C 0.3112(3) 0.0812(3) 0.9286(2)
C10 C -0.3225(4) 0.0258(3) 0.6902(2)
C11 C 0.0494(3) 0.1776(3) 0.8742(2)
C12 C -0.3143(4) 0.1956(3) 0.6027(2)
C13 C 0.1947(3) 0.0851(4) 1.2195(2)
C14 C 0.0933(3) 0.3659(3) 0.8899(2)
C15 C -0.3931(3) 0.0350(3) 0.6311(2)
C16 C -0.0394(3) 0.5079(3) 0.8717(2)
C17 C 0.4836(3) 0.0259(4) 0.8845(2)
C18 C 0.3808(3) 0.0047(3) 0.9093(2)
C19 C 0.4504(3) 0.2005(3) 0.8996(2)
C20 C -0.3680(3) -0.1403(3) 0.7578(3)
C21 C -0.1965(3) -0.0912(3) 0.8534(2)
C22 C 0.5186(3) 0.1242(4) 0.8794(2)
C23 C -0.2422(3) 0.1866(3) 0.6609(2)
C24 C -0.3413(3) -0.2019(3) 0.8174(3)
C25 C -0.2243(3) -0.0275(3) 0.7950(2)
C26 C -0.0757(3) 0.6042(3) 0.8863(2)
C27 C 0.0073(3) 0.2857(3) 0.8810(2)
C28 C -0.2560(4) -0.1791(3) 0.8640(3)
C29 C 0.1040(3) 0.5317(3) 0.9565(2)
C30 C 0.0512(3) 0.4714(3) 0.9068(2)
C31 C 0.2158(3) 0.1661(3) 1.1744(2)
C32 C -0.0207(3) 0.6639(4) 0.9355(2)
C33 C 0.1240(3) 0.1653(3) 0.8077(2)
C34 C 0.1649(3) -0.0158(3) 1.1108(2)
C35 C 0.1692(4) -0.0066(3) 1.1880(3)
C36 C 0.0684(3) 0.6284(3) 0.9706(3)
C37 C -0.3883(4) 0.1206(4) 0.5875(3)
H1 H 0.09323 0.19521 0.98135
H2 H -0.01944 0.0359 0.85704
H3 H 0.22622 0.21276 1.06709
H4 H 0.30019 0.23332 0.93669
H5 H -0.31319 0.25411 0.57248
H6 H 0.19755 0.09211 1.27226
H7 H 0.13618 0.36861 0.84341
H8 H 0.14218 0.34554 0.93084
H9 H -0.44383 -0.01625 0.62058
H10 H -0.07713 0.4668 0.83722
H11 H 0.53039 -0.02727 0.87092
H12 H 0.35785 -0.06294 0.9132
H13 H 0.4744 0.268 0.89704
H14 H -0.42511 -0.15757 0.72504
H15 H -0.13823 -0.07527 0.8855
H16 H 0.58912 0.13865 0.8621
H17 H -0.19039 0.23734 0.67039
H18 H -0.38233 -0.26067 0.82636
H19 H -0.13855 0.62865 0.8623
H20 H -0.03557 0.30129 0.8359
H21 H -0.04163 0.2892 0.92455
H22 H -0.23753 -0.22353 0.90343
H23 H 0.16586 0.50706 0.98168
H24 H 0.23334 0.22892 1.19615
H25 H -0.0448 0.7302 0.94509
H26 H 0.0855 0.18286 0.7618
H27 H 0.18623 0.20954 0.8137
H28 H 0.14833 0.0956 0.80482
H29 H 0.14716 -0.07869 1.08928
H30 H 0.15468 -0.06274 1.21902
H31 H 0.10633 0.66985 1.00482
H32 H -0.43643 0.1281 0.54662
loop_
_geom_bond_atom_site_label_1
_geom_bond_atom_site_label_2
_geom_bond_site_symmetry_1
_geom_bond_site_symmetry_2
S1 P1 1_555 1_555
P1 N2 1_555 1_555
N1 C2 1_555 1_555
N2 C11 1_555 1_555
N3 C1 1_555 1_555
C1 C2 1_555 1_555
C2 C11 1_555 1_555
C3 C8 1_555 1_555
C4 N1 1_555 1_555
C5 C10 1_555 1_555
C6 C9 1_555 1_555
C7 C4 1_555 1_555
C8 P1 1_555 1_555
C9 P1 1_555 1_555
C10 C7 1_555 1_555
C11 C27 1_555 1_555
C12 C23 1_555 1_555
C13 C31 1_555 1_555
C14 C27 1_555 1_555
C15 C10 1_555 1_555
C16 C26 1_555 1_555
C17 C18 1_555 1_555
C18 C9 1_555 1_555
C19 C6 1_555 1_555
C20 C5 1_555 1_555
C21 C25 1_555 1_555
C22 C17 1_555 1_555
C23 C7 1_555 1_555
C24 C20 1_555 1_555
C25 C4 1_555 1_555
C26 C32 1_555 1_555
C27 H20 1_555 1_555
C28 C21 1_555 1_555
C29 C30 1_555 1_555
C30 C14 1_555 1_555
C31 C3 1_555 1_555
C32 C36 1_555 1_555
C33 C11 1_555 1_555
C34 C8 1_555 1_555
C35 C13 1_555 1_555
C36 C29 1_555 1_555
C37 C12 1_555 1_555
H1 N2 1_555 1_555
H2 C2 1_555 1_555
H3 C3 1_555 1_555
H4 C6 1_555 1_555
H5 C12 1_555 1_555
H6 C13 1_555 1_555
H7 C14 1_555 1_555
H8 C14 1_555 1_555
H9 C15 1_555 1_555
H10 C16 1_555 1_555
H11 C17 1_555 1_555
H12 C18 1_555 1_555
H13 C19 1_555 1_555
H14 C20 1_555 1_555
H15 C21 1_555 1_555
H16 C22 1_555 1_555
H17 C23 1_555 1_555
H18 C24 1_555 1_555
H19 C26 1_555 1_555
H21 C27 1_555 1_555
H22 C28 1_555 1_555
H23 C29 1_555 1_555
H24 C31 1_555 1_555
H25 C32 1_555 1_555
H26 C33 1_555 1_555
H27 C33 1_555 1_555
H28 C33 1_555 1_555
H29 C34 1_555 1_555
H30 C35 1_555 1_555
H31 C36 1_555 1_555
H32 C37 1_555 1_555
C5 C25 1_555 1_555
C15 C37 1_555 1_555
C16 C30 1_555 1_555
C19 C22 1_555 1_555
C24 C28 1_555 1_555
C34 C35 1_555 1_555

#END
