
#######################################################################
#
#                 Cambridge Crystallographic Data Centre
#                                CCDC 
#
#######################################################################
#
# If this CIF has been generated from an entry in the Cambridge 
# Structural Database, then it will include bibliographic, chemical, 
# crystal, experimental, refinement or atomic coordinate data resulting 
# from the CCDC's data processing and validation procedures.
#
#######################################################################

data_IHAPEO03
_chemical_formula_moiety         'C44 H36'
_chemical_name_systematic        
9,10-bis(bis(4-methylphenyl)methylene)-9,10-dihydroanthracene
_symmetry_cell_setting           monoclinic
_symmetry_space_group_name_H-M   'P 21/c'
_symmetry_Int_Tables_number      14
_space_group_name_Hall           '-P 2ybc'
loop_
_symmetry_equiv_pos_site_id
_symmetry_equiv_pos_as_xyz
1 x,y,z
2 -x,1/2+y,1/2-z
3 -x,-y,-z
4 x,1/2-y,1/2+z
_cell_length_a                   10.4082(13)
_cell_length_b                   10.5164(14)
_cell_length_c                   29.494(4)
_cell_angle_alpha                90
_cell_angle_beta                 93.522(2)
_cell_angle_gamma                90
_cell_volume                     3222.22
_cell_formula_units_Z            4
loop_
_atom_site_label
_atom_site_type_symbol
_atom_site_fract_x
_atom_site_fract_y
_atom_site_fract_z
C1 C 0.38895(14) 0.35850(13) 0.11135(5)
C2 C 0.44490(14) 0.41438(13) 0.14873(5)
C3 C 0.52409(13) 0.65434(14) 0.17595(4)
C4 C 0.53047(13) 0.77441(14) 0.16022(4)
C5 C 0.24923(14) 0.37332(14) 0.09726(5)
C6 C 0.17319(15) 0.27061(15) 0.08240(5)
H1 H 0.2091 0.1875 0.0825
C7 C 0.04541(16) 0.28870(17) 0.06737(6)
H2 H -0.0051 0.2170 0.0580
C8 C -0.01046(15) 0.40814(17) 0.06559(5)
C9 C 0.06591(16) 0.51113(16) 0.07996(6)
H3 H 0.0303 0.5943 0.0791
C10 C 0.19293(15) 0.49386(15) 0.09546(5)
H4 H 0.2429 0.5656 0.1051
C11 C -0.14852(17) 0.4271(2) 0.04814(7)
H5 H -0.1915 0.4845 0.0685
H6 H -0.1930 0.3449 0.0470
H7 H -0.1507 0.4640 0.0176
C12 C 0.46399(13) 0.28930(14) 0.07727(5)
C13 C 0.49887(14) 0.35221(15) 0.03844(5)
H8 H 0.4744 0.4385 0.0337
C14 C 0.56872(15) 0.29080(16) 0.00656(5)
H9 H 0.5927 0.3360 -0.0195
C15 C 0.60450(14) 0.16417(16) 0.01199(5)
C16 C 0.56602(16) 0.10020(16) 0.04984(5)
H10 H 0.5875 0.0129 0.0538
C17 C 0.49622(15) 0.16183(15) 0.08223(5)
H11 H 0.4705 0.1161 0.1079
C18 C 0.68481(17) 0.1000(2) -0.02224(6)
H12 H 0.6968 0.0103 -0.0141
H13 H 0.7689 0.1419 -0.0224
H14 H 0.6409 0.1063 -0.0525
C19 C 0.42470(13) 0.86808(13) 0.16703(5)
C20 C 0.30320(14) 0.84928(14) 0.14533(5)
H15 H 0.2906 0.7818 0.1241
C21 C 0.20094(14) 0.92748(15) 0.15429(5)
H16 H 0.1189 0.9121 0.1393
C22 C 0.21587(14) 1.02831(14) 0.18478(5)
C23 C 0.33824(14) 1.04977(14) 0.20505(5)
H17 H 0.3518 1.1199 0.2251
C24 C 0.44098(14) 0.97082(14) 0.19657(5)
H18 H 0.5233 0.9871 0.2111
C25 C 0.10149(15) 1.10909(15) 0.19552(6)
H19 H 0.0836 1.1707 0.1710
H20 H 0.1206 1.1545 0.2242
H21 H 0.0261 1.0545 0.1984
C26 C 0.63604(13) 0.81534(14) 0.13120(5)
C27 C 0.71685(14) 0.91777(15) 0.14215(5)
H22 H 0.7031 0.9676 0.1683
C28 C 0.81749(15) 0.94767(15) 0.11519(5)
H23 H 0.8728 1.0167 0.1236
C29 C 0.83896(15) 0.87887(16) 0.07626(5)
C30 C 0.75478(15) 0.78009(15) 0.06411(5)
H24 H 0.7654 0.7338 0.0369
C31 C 0.65532(14) 0.74853(14) 0.09135(5)
H25 H 0.5994 0.6802 0.0827
C32 C 0.94926(17) 0.91041(19) 0.04730(6)
H26 H 1.0039 0.9753 0.0626
H27 H 0.9153 0.9428 0.0178
H28 H 1.0002 0.8336 0.0427
C33 C 0.37016(13) 0.47994(14) 0.18327(5)
C34 C 0.26478(14) 0.42245(14) 0.20222(5)
H29 H 0.2385 0.3397 0.1927
C35 C 0.19853(14) 0.48541(15) 0.23479(5)
H30 H 0.1263 0.4464 0.2472
C36 C 0.23795(14) 0.60587(14) 0.24925(5)
H31 H 0.1922 0.6491 0.2715
C37 C 0.34358(13) 0.66319(14) 0.23139(5)
H32 H 0.3707 0.7449 0.2418
C38 C 0.41036(13) 0.60127(14) 0.19809(5)
C39 C 0.62559(13) 0.55587(14) 0.17046(5)
C40 C 0.75646(14) 0.58148(15) 0.17938(5)
H33 H 0.7833 0.6649 0.1879
C41 C 0.84734(15) 0.48662(17) 0.17586(5)
H34 H 0.9362 0.5051 0.1816
C42 C 0.80832(15) 0.36434(16) 0.16394(5)
H35 H 0.8707 0.2991 0.1618
C43 C 0.67918(15) 0.33671(15) 0.15519(5)
H36 H 0.6535 0.2525 0.1473
C44 C 0.58615(14) 0.43216(14) 0.15796(5)
loop_
_geom_bond_atom_site_label_1
_geom_bond_atom_site_label_2
_geom_bond_site_symmetry_1
_geom_bond_site_symmetry_2
C1 C2 1_555 1_555
C2 C33 1_555 1_555
C3 C4 1_555 1_555
C4 C19 1_555 1_555
C5 C1 1_555 1_555
C6 C5 1_555 1_555
H1 C6 1_555 1_555
C7 C6 1_555 1_555
H2 C7 1_555 1_555
C8 C7 1_555 1_555
C9 C8 1_555 1_555
H3 C9 1_555 1_555
C10 C5 1_555 1_555
H4 C10 1_555 1_555
C11 C8 1_555 1_555
H5 C11 1_555 1_555
H6 C11 1_555 1_555
H7 C11 1_555 1_555
C12 C1 1_555 1_555
C13 C12 1_555 1_555
H8 C13 1_555 1_555
C14 C13 1_555 1_555
H9 C14 1_555 1_555
C15 C14 1_555 1_555
C16 C15 1_555 1_555
H10 C16 1_555 1_555
C17 C12 1_555 1_555
H11 C17 1_555 1_555
C18 C15 1_555 1_555
H12 C18 1_555 1_555
H13 C18 1_555 1_555
H14 C18 1_555 1_555
C19 C20 1_555 1_555
C20 H15 1_555 1_555
C21 C20 1_555 1_555
H16 C21 1_555 1_555
C22 C21 1_555 1_555
C23 C22 1_555 1_555
H17 C23 1_555 1_555
C24 C19 1_555 1_555
H18 C24 1_555 1_555
C25 C22 1_555 1_555
H19 C25 1_555 1_555
H20 C25 1_555 1_555
H21 C25 1_555 1_555
C26 C4 1_555 1_555
C27 C26 1_555 1_555
H22 C27 1_555 1_555
C28 C27 1_555 1_555
H23 C28 1_555 1_555
C29 C28 1_555 1_555
C30 C29 1_555 1_555
H24 C30 1_555 1_555
C31 C26 1_555 1_555
H25 C31 1_555 1_555
C32 C29 1_555 1_555
H26 C32 1_555 1_555
H27 C32 1_555 1_555
H28 C32 1_555 1_555
C33 C34 1_555 1_555
C34 H29 1_555 1_555
C35 C34 1_555 1_555
H30 C35 1_555 1_555
C36 C35 1_555 1_555
H31 C36 1_555 1_555
C37 C36 1_555 1_555
H32 C37 1_555 1_555
C38 C3 1_555 1_555
C39 C3 1_555 1_555
C40 C39 1_555 1_555
H33 C40 1_555 1_555
C41 C40 1_555 1_555
H34 C41 1_555 1_555
C42 C41 1_555 1_555
H35 C42 1_555 1_555
C43 C42 1_555 1_555
H36 C43 1_555 1_555
C44 C2 1_555 1_555
C9 C10 1_555 1_555
C16 C17 1_555 1_555
C23 C24 1_555 1_555
C30 C31 1_555 1_555
C33 C38 1_555 1_555
C37 C38 1_555 1_555
C39 C44 1_555 1_555
C43 C44 1_555 1_555

#END
