
#######################################################################
#
#                 Cambridge Crystallographic Data Centre
#                                CCDC 
#
#######################################################################
#
# If this CIF has been generated from an entry in the Cambridge 
# Structural Database, then it will include bibliographic, chemical, 
# crystal, experimental, refinement or atomic coordinate data resulting 
# from the CCDC's data processing and validation procedures.
#
#######################################################################

data_IHECOP
_chemical_formula_moiety         'C16 H22 Br1 N1 O4'
_chemical_name_systematic        
'10-bromo-3-(2-cyanopropyl)-2,7-dioxatricyclo[6.3.1.0^1,6^]dodec-9-yl acetate'
_symmetry_cell_setting           orthorhombic
_symmetry_space_group_name_H-M   'P 21 21 21'
_symmetry_Int_Tables_number      19
_space_group_name_Hall           'P 2ac 2ab'
loop_
_symmetry_equiv_pos_site_id
_symmetry_equiv_pos_as_xyz
1 x,y,z
2 1/2+x,1/2-y,-z
3 -x,1/2+y,1/2-z
4 1/2-x,-y,1/2+z
_cell_length_a                   8.44470(10)
_cell_length_b                   11.1320(2)
_cell_length_c                   18.2612(3)
_cell_angle_alpha                90
_cell_angle_beta                 90
_cell_angle_gamma                90
_cell_volume                     1716.67
_exptl_crystal_colour            colorless
_exptl_crystal_description       block
_cell_formula_units_Z            4
loop_
_atom_site_label
_atom_site_type_symbol
_atom_site_fract_x
_atom_site_fract_y
_atom_site_fract_z
Br1 Br -0.08182(5) 0.32790(4) 0.62471(2)
O1 O 0.1505(3) 0.4343(2) 0.43873(13)
O2 O 0.3746(2) 0.31149(18) 0.78553(10)
O3 O 0.2262(2) 0.13886(16) 0.63046(11)
O4 O 0.3362(2) 0.4022(2) 0.52304(11)
N1 N 0.8774(4) 0.2258(3) 0.8568(2)
C1 C 0.3149(4) 0.2869(2) 0.71406(16)
C2 C 0.2147(4) 0.3973(2) 0.69597(16)
C3 C 0.2217(4) 0.1669(3) 0.70838(16)
C4 C 0.1379(3) 0.3935(2) 0.61920(18)
C5 C 0.2299(4) 0.3216(2) 0.56008(14)
C6 C 0.4395(4) 0.2698(2) 0.65488(14)
C7 C 0.6305(4) 0.3439(3) 0.90349(17)
C8 C 0.3308(4) 0.2207(2) 0.59398(17)
C9 C 0.2804(5) 0.4504(2) 0.46008(19)
C10 C 0.4039(5) 0.5239(2) 0.42395(17)
C11 C 0.2923(5) 0.0647(2) 0.75101(18)
C12 C 0.4893(4) 0.2581(2) 0.90140(16)
C13 C 0.4424(4) 0.2109(2) 0.82367(16)
C14 C 0.3245(4) 0.1049(2) 0.82887(17)
C15 C 0.6588(4) 0.3908(3) 0.98104(17)
C16 C 0.7711(5) 0.2790(3) 0.8763(2)
H1 H 0.2291 0.1362 0.8488
H2 H 0.359(3) 0.021(2) 0.8613(16)
H3 H 0.229(3) 0.000(2) 0.7519(13)
H4 H 0.123(2) 0.182(2) 0.7240(11)
H5 H 0.5113 0.1920 0.9326
H6 H 0.3991 0.3001 0.9191
H7 H 0.621(3) 0.420(2) 0.8733(14)
H8 H 0.1323 0.4015 0.7313
H9 H 0.4890 0.3432 0.6413
H10 H 0.5180 0.2135 0.6694
H11 H 0.2793 0.4669 0.6996
H12 H 0.1567 0.2883 0.5263
H13 H 0.3900 0.1800 0.5574
H14 H 0.3905 0.0424 0.7296
H15 H 0.5348 0.1836 0.7991
H16 H 0.6003 0.4625 0.9890
H17 H 0.7685 0.4066 0.9872
H18 H 0.6261 0.3314 1.0152
H19 H 0.4641 0.4742 0.3921
H20 H 0.4719 0.5586 0.4596
H21 H 0.3544 0.5858 0.3964
H22 H 0.1300 0.4740 0.6023
loop_
_geom_bond_atom_site_label_1
_geom_bond_atom_site_label_2
_geom_bond_site_symmetry_1
_geom_bond_site_symmetry_2
Br1 C4 1_555 1_555
O1 C9 1_555 1_555
O2 C1 1_555 1_555
O3 C3 1_555 1_555
O4 C5 1_555 1_555
N1 C16 1_555 1_555
C1 C2 1_555 1_555
C2 C4 1_555 1_555
C3 C1 1_555 1_555
C4 C5 1_555 1_555
C5 C8 1_555 1_555
C6 C1 1_555 1_555
C7 C12 1_555 1_555
C8 O3 1_555 1_555
C9 O4 1_555 1_555
C10 C9 1_555 1_555
C11 C3 1_555 1_555
C12 C13 1_555 1_555
C13 O2 1_555 1_555
C14 C11 1_555 1_555
C15 C7 1_555 1_555
C16 C7 1_555 1_555
H1 C14 1_555 1_555
H2 C14 1_555 1_555
H3 C11 1_555 1_555
H4 C3 1_555 1_555
H5 C12 1_555 1_555
H6 C12 1_555 1_555
H7 C7 1_555 1_555
H8 C2 1_555 1_555
H9 C6 1_555 1_555
H10 C6 1_555 1_555
H11 C2 1_555 1_555
H12 C5 1_555 1_555
H13 C8 1_555 1_555
H14 C11 1_555 1_555
H15 C13 1_555 1_555
H16 C15 1_555 1_555
H17 C15 1_555 1_555
H18 C15 1_555 1_555
H19 C10 1_555 1_555
H20 C10 1_555 1_555
H21 C10 1_555 1_555
H22 C4 1_555 1_555
C6 C8 1_555 1_555
C13 C14 1_555 1_555

#END
