
#######################################################################
#
#                 Cambridge Crystallographic Data Centre
#                                CCDC 
#
#######################################################################
#
# If this CIF has been generated from an entry in the Cambridge 
# Structural Database, then it will include bibliographic, chemical, 
# crystal, experimental, refinement or atomic coordinate data resulting 
# from the CCDC's data processing and validation procedures.
#
#######################################################################

data_IHECUV
_chemical_formula_moiety         'C14 H21 N1 O4'
_chemical_name_systematic        
3-(9,10-dihydroxy-2,7-dioxatricyclo[6.3.1.0^1,6^]dodec-3-yl)-2-methylpropanenitrile
_symmetry_cell_setting           orthorhombic
_symmetry_space_group_name_H-M   'P 21 21 21'
_symmetry_Int_Tables_number      19
_space_group_name_Hall           'P 2ac 2ab'
loop_
_symmetry_equiv_pos_site_id
_symmetry_equiv_pos_as_xyz
1 x,y,z
2 1/2-x,-y,1/2+z
3 -x,1/2+y,1/2-z
4 1/2+x,1/2-y,-z
_cell_length_a                   6.3018(18)
_cell_length_b                   10.643(3)
_cell_length_c                   20.440(6)
_cell_angle_alpha                90
_cell_angle_beta                 90
_cell_angle_gamma                90
_cell_volume                     1370.91
_exptl_crystal_colour            colorless
_exptl_crystal_description       plate
_cell_formula_units_Z            4
loop_
_atom_site_label
_atom_site_type_symbol
_atom_site_fract_x
_atom_site_fract_y
_atom_site_fract_z
O1 O -0.23061(18) 0.19559(10) 0.08866(5)
H1 H -0.267(3) 0.2236(19) 0.0516(10)
O2 O 0.1723(2) 0.24994(10) 0.03822(5)
H2 H 0.089(3) 0.3017(18) 0.0546(9)
O3 O 0.04020(16) -0.10411(8) 0.11339(5)
O4 O 0.25782(16) 0.07178(8) 0.25099(4)
N1 N -0.0760(3) 0.02914(18) 0.44042(10)
C1 C -0.0903(2) 0.09492(12) 0.07302(6)
H3 H -0.114(2) 0.0655(13) 0.0311(7)
C2 C 0.1405(2) 0.13848(13) 0.07573(6)
H4 H 0.227(2) 0.0763(13) 0.0548(6)
C3 C 0.2175(2) 0.15716(12) 0.14585(6)
H5 H 0.372(3) 0.1644(13) 0.1461(7)
H6 H 0.159(3) 0.2335(16) 0.1636(8)
C4 C 0.1551(2) 0.04775(11) 0.18999(6)
C5 C -0.0874(2) 0.03786(13) 0.19194(6)
H7 H -0.159(3) 0.1173(16) 0.1996(7)
H8 H -0.130(3) -0.0196(14) 0.2246(7)
C6 C -0.1235(2) -0.00978(12) 0.12281(6)
H9 H -0.264(3) -0.0490(14) 0.1167(7)
C7 C 0.2125(2) -0.07910(12) 0.15808(6)
H10 H 0.344(3) -0.0692(15) 0.1330(7)
C8 C 0.2342(3) -0.18557(12) 0.20693(7)
H11 H 0.289(3) -0.2632(16) 0.1836(8)
H12 H 0.092(3) -0.2107(15) 0.2221(7)
C9 C 0.3686(2) -0.14422(13) 0.26493(7)
H13 H 0.511(3) -0.1201(15) 0.2517(8)
H14 H 0.374(3) -0.2088(15) 0.2968(8)
C10 C 0.2663(2) -0.03061(12) 0.29659(6)
H15 H 0.116(3) -0.0543(14) 0.3098(7)
C11 C 0.3861(2) 0.01851(13) 0.35546(7)
H16 H 0.521(3) 0.0514(15) 0.3419(8)
H17 H 0.408(2) -0.0501(14) 0.3858(7)
C12 C 0.2689(2) 0.12532(13) 0.39114(7)
H18 H 0.232(3) 0.1865(15) 0.3604(8)
C13 C 0.0711(3) 0.07482(15) 0.41883(9)
C14 C 0.4012(3) 0.18653(17) 0.44517(8)
H19 H 0.532(3) 0.2176(19) 0.4267(9)
H20 H 0.428(3) 0.1263(18) 0.4772(10)
H21 H 0.329(4) 0.259(2) 0.4660(10)
loop_
_geom_bond_atom_site_label_1
_geom_bond_atom_site_label_2
_geom_bond_site_symmetry_1
_geom_bond_site_symmetry_2
O1 H1 1_555 1_555
O2 H2 1_555 1_555
O3 C6 1_555 1_555
O4 C4 1_555 1_555
N1 C13 1_555 1_555
C1 O1 1_555 1_555
H3 C1 1_555 1_555
C2 O2 1_555 1_555
H4 C2 1_555 1_555
C3 C2 1_555 1_555
H5 C3 1_555 1_555
H6 C3 1_555 1_555
C4 C3 1_555 1_555
C5 C4 1_555 1_555
H7 C5 1_555 1_555
H8 C5 1_555 1_555
C6 C1 1_555 1_555
H9 C6 1_555 1_555
C7 O3 1_555 1_555
H10 C7 1_555 1_555
C8 C7 1_555 1_555
H11 C8 1_555 1_555
H12 C8 1_555 1_555
C9 C8 1_555 1_555
H13 C9 1_555 1_555
H14 C9 1_555 1_555
C10 O4 1_555 1_555
H15 C10 1_555 1_555
C11 C10 1_555 1_555
H16 C11 1_555 1_555
H17 C11 1_555 1_555
C12 C11 1_555 1_555
H18 C12 1_555 1_555
C13 C12 1_555 1_555
C14 C12 1_555 1_555
H19 C14 1_555 1_555
H20 C14 1_555 1_555
H21 C14 1_555 1_555
C1 C2 1_555 1_555
C4 C7 1_555 1_555
C5 C6 1_555 1_555
C9 C10 1_555 1_555

#END
