
#######################################################################
#
#                 Cambridge Crystallographic Data Centre
#                                CCDC 
#
#######################################################################
#
# If this CIF has been generated from an entry in the Cambridge 
# Structural Database, then it will include bibliographic, chemical, 
# crystal, experimental, refinement or atomic coordinate data resulting 
# from the CCDC's data processing and validation procedures.
#
#######################################################################

data_IHOLUO
_chemical_name_common            'asperlicin E'
_chemical_formula_moiety         'C25 H18 N4 O3'
_chemical_name_systematic        
17b-hydroxy-13,17b,18,18a-tetrahydro-11H-indolo[3',2':4,5]pyrrolo[2,1-c]quinazolino[3,2-a][1,4]benzodiazepine-5,11(12aH)-dione
_symmetry_cell_setting           monoclinic
_symmetry_space_group_name_H-M   'P 21/c'
_symmetry_Int_Tables_number      14
_space_group_name_Hall           '-P 2ybc'
loop_
_symmetry_equiv_pos_site_id
_symmetry_equiv_pos_as_xyz
1 x,y,z
2 -x,1/2+y,1/2-z
3 -x,-y,-z
4 x,1/2-y,1/2+z
_cell_length_a                   12.437(3)
_cell_length_b                   8.036(2)
_cell_length_c                   19.887(5)
_cell_angle_alpha                90
_cell_angle_beta                 103.671(5)
_cell_angle_gamma                90
_cell_volume                     1931.27
_cell_formula_units_Z            4
loop_
_atom_site_label
_atom_site_type_symbol
_atom_site_fract_x
_atom_site_fract_y
_atom_site_fract_z
N1 N 0.8875(2) 0.8009(3) 0.22463(13)
O1 O 1.0836(2) 0.5970(3) 0.10398(14)
N2 N 0.7279(2) 0.8748(3) 0.13995(13)
N3 N 0.9525(2) 0.7936(3) 0.09165(13)
O2 O 0.8758(2) 0.6632(3) 0.32242(12)
C1 C 0.9049(2) 0.9374(4) 0.11861(15)
H1 H 0.9638(2) 1.0061(4) 0.14674(15)
C2 C 0.6636(3) 0.8007(4) 0.17919(17)
C3 C 0.7092(3) 0.7317(4) 0.24325(17)
O3 O 0.8477(2) 1.0029(3) -0.06265(12)
H2 H 0.9075(2) 1.0509(3) -0.05161(12)
C4 C 0.8285(3) 0.7271(4) 0.26868(16)
C5 C 1.0538(3) 0.8604(4) 0.31183(17)
H3 H 1.0089(3) 0.8951(4) 0.34045(17)
C6 C 1.0740(3) 0.7522(4) 0.20312(17)
C7 C 1.0067(3) 0.8051(4) 0.24596(16)
C8 C 0.8315(3) 0.8718(4) 0.16225(15)
N4 N 0.8509(3) 0.6161(4) 0.00085(16)
H4 H 0.8787(3) 0.5176(4) 0.00485(16)
C9 C 1.0366(3) 0.7063(4) 0.12904(18)
C10 C 0.7213(3) 0.8224(5) -0.02289(16)
C11 C 0.5295(3) 0.6581(6) 0.2549(2)
H5 H 0.4835(3) 0.6120(6) 0.2806(2)
C12 C 0.9122(3) 0.7688(4) 0.01757(17)
H6 H 0.9730(3) 0.7749(4) -0.00601(17)
C13 C 0.6407(3) 0.6609(6) 0.2812(2)
H7 H 0.6708(3) 0.6154(6) 0.3246(2)
C14 C 1.2329(3) 0.8075(6) 0.2945(2)
H8 H 1.3094(3) 0.8063(6) 0.3111(2)
C15 C 0.8457(3) 1.0322(4) 0.05537(15)
H9 H 0.7748(3) 1.0720(4) 0.06107(15)
H10 H 0.8895(3) 1.1271(4) 0.04767(15)
C16 C 0.7401(3) 0.6542(5) -0.02264(18)
C17 C 1.1666(3) 0.8648(5) 0.3355(2)
H11 H 1.1980(3) 0.9066(5) 0.3793(2)
C18 C 0.5505(3) 0.7938(5) 0.1528(2)
H12 H 0.5195(3) 0.8376(5) 0.1093(2)
C19 C 0.8295(3) 0.9122(4) -0.00522(16)
C20 C 1.1869(3) 0.7526(5) 0.2296(2)
H13 H 1.2328(3) 0.7141(5) 0.2023(2)
C21 C 0.6167(3) 0.8829(6) -0.04017(19)
H14 H 0.6046(3) 0.9969(6) -0.03890(19)
C22 C 0.6523(4) 0.5448(6) -0.0428(2)
H15 H 0.6640(4) 0.4306(6) -0.0435(2)
C23 C 0.4847(3) 0.7229(6) 0.1905(2)
H16 H 0.4086(3) 0.7183(6) 0.1725(2)
C24 C 0.5289(4) 0.7768(7) -0.0595(2)
H17 H 0.4569(4) 0.8177(7) -0.0711(2)
C25 C 0.5484(4) 0.6098(7) -0.0615(2)
H18 H 0.4887(4) 0.5381(7) -0.0762(2)
loop_
_geom_bond_atom_site_label_1
_geom_bond_atom_site_label_2
_geom_bond_site_symmetry_1
_geom_bond_site_symmetry_2
N1 C4 1_555 1_555
O1 C9 1_555 1_555
N2 C2 1_555 1_555
N3 C1 1_555 1_555
O2 C4 1_555 1_555
C1 H1 1_555 1_555
C2 C3 1_555 1_555
C3 C4 1_555 1_555
O3 H2 1_555 1_555
C5 H3 1_555 1_555
C6 C7 1_555 1_555
C7 N1 1_555 1_555
C8 N1 1_555 1_555
N4 H4 1_555 1_555
C9 N3 1_555 1_555
C10 C16 1_555 1_555
C11 H5 1_555 1_555
C12 N3 1_555 1_555
H6 C12 1_555 1_555
C13 C3 1_555 1_555
H7 C13 1_555 1_555
C14 H8 1_555 1_555
C15 C1 1_555 1_555
H9 C15 1_555 1_555
H10 C15 1_555 1_555
C16 N4 1_555 1_555
C17 C5 1_555 1_555
H11 C17 1_555 1_555
C18 C2 1_555 1_555
H12 C18 1_555 1_555
C19 O3 1_555 1_555
C20 C6 1_555 1_555
H13 C20 1_555 1_555
C21 C10 1_555 1_555
H14 C21 1_555 1_555
C22 C16 1_555 1_555
H15 C22 1_555 1_555
C23 C11 1_555 1_555
H16 C23 1_555 1_555
C24 C21 1_555 1_555
H17 C24 1_555 1_555
C25 C22 1_555 1_555
H18 C25 1_555 1_555
N2 C8 1_555 1_555
C1 C8 1_555 1_555
C5 C7 1_555 1_555
C6 C9 1_555 1_555
N4 C12 1_555 1_555
C10 C19 1_555 1_555
C11 C13 1_555 1_555
C12 C19 1_555 1_555
C14 C17 1_555 1_555
C14 C20 1_555 1_555
C15 C19 1_555 1_555
C18 C23 1_555 1_555
C24 C25 1_555 1_555

#END
