
#######################################################################
#
#                 Cambridge Crystallographic Data Centre
#                                CCDC 
#
#######################################################################
#
# If this CIF has been generated from an entry in the Cambridge 
# Structural Database, then it will include bibliographic, chemical, 
# crystal, experimental, refinement or atomic coordinate data resulting 
# from the CCDC's data processing and validation procedures.
#
#######################################################################

data_IHOSEE
_chemical_formula_moiety         'C42 H32 Br2 N4 O4,2(C1 H2 Cl2)'
_chemical_name_systematic        
'2,8-Dibromo-5,11-bis(4-(1,3-dioxoisoindol-2-yl)butyl)indolo[3,2-b]carbazole dichloromethane solvate'
_symmetry_cell_setting           monoclinic
_symmetry_space_group_name_H-M   'P 21/n'
_symmetry_Int_Tables_number      14
_space_group_name_Hall           '-P 2yn'
loop_
_symmetry_equiv_pos_site_id
_symmetry_equiv_pos_as_xyz
1 x,y,z
2 1/2-x,1/2+y,1/2-z
3 -x,-y,-z
4 1/2+x,1/2-y,1/2+z
_cell_length_a                   11.6847(2)
_cell_length_b                   12.6942(2)
_cell_length_c                   13.7899(2)
_cell_angle_alpha                90
_cell_angle_beta                 91.8220(10)
_cell_angle_gamma                90
_cell_volume                     2044.39
_exptl_crystal_colour            orange
_exptl_crystal_description       prism
_cell_formula_units_Z            2
_exptl_crystal_recrystallization_method dichloromethane
loop_
_atom_site_label
_atom_site_type_symbol
_atom_site_fract_x
_atom_site_fract_y
_atom_site_fract_z
Br1 Br 0.89401(3) 0.39669(3) 1.01977(3)
C1 C -0.1434(3) 0.6099(2) 0.7438(3)
H1 H -0.1664 0.6797 0.7370
C2 C -0.2249(3) 0.5328(3) 0.7552(2)
H2 H -0.3018 0.5514 0.7561
C3 C -0.1935(3) 0.4265(3) 0.7654(3)
H3 H -0.2481 0.3742 0.7734
C4 C -0.0789(3) 0.4031(2) 0.7631(2)
C5 C 0.0019(2) 0.4812(2) 0.75211(19)
C6 C -0.0275(3) 0.5855(2) 0.7423(2)
H4 H 0.0276 0.6375 0.7350
C7 C -0.0186(2) 0.3006(2) 0.7744(2)
C8 C 0.1172(2) 0.4309(2) 0.7558(2)
C9 C 0.1885(3) 0.2437(2) 0.7761(2)
H5 H 0.2569 0.2734 0.7487
H6 H 0.1650 0.1842 0.7361
C10 C 0.2178(2) 0.2047(2) 0.8776(2)
H7 H 0.2779 0.1523 0.8739
H8 H 0.1510 0.1701 0.9028
C11 C 0.2569(2) 0.2897(2) 0.9488(2)
H9 H 0.1914 0.3328 0.9645
H10 H 0.3117 0.3348 0.9176
C12 C 0.3115(2) 0.2471(2) 1.0428(2)
H11 H 0.3168 0.3037 1.0900
H12 H 0.2621 0.1932 1.0685
C13 C 0.4509(2) 0.09674(17) 1.01510(19)
C14 C 0.3780(2) 0.0113(2) 1.01150(18)
H13 H 0.2995 0.0183 1.0188
C15 C 0.5707(2) 0.08661(18) 1.00374(19)
C16 C 0.6175(2) 0.19275(19) 1.01192(19)
C17 C 0.5255(2) 0.26001(19) 1.02942(19)
C18 C 0.5428(3) 0.3674(2) 1.0441(2)
H14 H 0.4816 0.4121 1.0555
C19 C 0.6528(3) 0.4055(2) 1.0414(2)
H15 H 0.6664 0.4767 1.0529
C20 C 0.7447(3) 0.3389(2) 1.0217(2)
C21 C 0.7292(2) 0.2320(2) 1.0065(2)
H16 H 0.7904 0.1880 0.9932
N1 N 0.09748(19) 0.32331(17) 0.77190(17)
N2 N 0.42506(19) 0.20283(16) 1.03079(17)
O1 O -0.05834(19) 0.21315(16) 0.78386(18)
O2 O 0.21009(17) 0.47073(17) 0.74786(17)
Br1B Br 0.10599(3) -0.39669(3) 0.98023(3)
C1B C 1.1434(3) -0.6099(2) 1.2562(3)
H1B H 1.1664 -0.6797 1.2630
C2B C 1.2249(3) -0.5328(3) 1.2448(2)
H2B H 1.3018 -0.5514 1.2439
C3B C 1.1935(3) -0.4265(3) 1.2346(3)
H3B H 1.2481 -0.3742 1.2266
C4B C 1.0789(3) -0.4031(2) 1.2369(2)
C5B C 0.9981(2) -0.4812(2) 1.24789(19)
C6B C 1.0275(3) -0.5855(2) 1.2577(2)
H4B H 0.9724 -0.6375 1.2650
C7B C 1.0186(2) -0.3006(2) 1.2256(2)
C8B C 0.8828(2) -0.4309(2) 1.2442(2)
C9B C 0.8115(3) -0.2437(2) 1.2239(2)
H5B H 0.7431 -0.2734 1.2513
H6B H 0.8350 -0.1842 1.2639
C10B C 0.7822(2) -0.2047(2) 1.1224(2)
H7B H 0.7221 -0.1523 1.1261
H8B H 0.8490 -0.1701 1.0972
C11B C 0.7431(2) -0.2897(2) 1.0512(2)
H9B H 0.8086 -0.3328 1.0355
H10B H 0.6883 -0.3348 1.0824
C12B C 0.6885(2) -0.2471(2) 0.9572(2)
H11B H 0.6832 -0.3037 0.9100
H12B H 0.7379 -0.1932 0.9315
C13B C 0.5491(2) -0.09674(17) 0.98490(19)
C14B C 0.6220(2) -0.0113(2) 0.98850(18)
H13B H 0.7005 -0.0183 0.9812
C15B C 0.4293(2) -0.08661(18) 0.99626(19)
C16B C 0.3825(2) -0.19275(19) 0.98808(19)
C17B C 0.4745(2) -0.26001(19) 0.97058(19)
C18B C 0.4572(3) -0.3674(2) 0.9559(2)
H14B H 0.5184 -0.4121 0.9445
C19B C 0.3472(3) -0.4055(2) 0.9586(2)
H15B H 0.3336 -0.4767 0.9471
C20B C 0.2553(3) -0.3389(2) 0.9783(2)
C21B C 0.2708(2) -0.2320(2) 0.9935(2)
H16B H 0.2096 -0.1880 1.0068
N1B N 0.90252(19) -0.32331(17) 1.22810(17)
N2B N 0.57494(19) -0.20283(16) 0.96921(17)
O1B O 1.05834(19) -0.21315(16) 1.21614(18)
O2B O 0.78991(17) -0.47073(17) 1.25214(17)
C22 C 0.4654(3) 0.4540(3) 0.6817(3)
H17 H 0.3828 0.4546 0.6722
H18 H 0.4919 0.5264 0.6822
Cl1 Cl 0.50203(9) 0.39411(9) 0.79385(10)
Cl2 Cl 0.52596(15) 0.38719(16) 0.58729(13)
loop_
_geom_bond_atom_site_label_1
_geom_bond_atom_site_label_2
_geom_bond_site_symmetry_1
_geom_bond_site_symmetry_2
Br1 C20 1_555 1_555
C1 H1 1_555 1_555
C2 C1 1_555 1_555
H2 C2 1_555 1_555
C3 C2 1_555 1_555
H3 C3 1_555 1_555
C4 C3 1_555 1_555
C5 C4 1_555 1_555
C6 C1 1_555 1_555
H4 C6 1_555 1_555
C7 C4 1_555 1_555
C8 C5 1_555 1_555
C9 H5 1_555 1_555
H6 C9 1_555 1_555
C10 C9 1_555 1_555
H7 C10 1_555 1_555
H8 C10 1_555 1_555
C11 C10 1_555 1_555
H9 C11 1_555 1_555
H10 C11 1_555 1_555
C12 C11 1_555 1_555
H11 C12 1_555 1_555
H12 C12 1_555 1_555
C13 C14 1_555 1_555
C14 H13 1_555 1_555
C15 C13 1_555 1_555
C16 C15 1_555 1_555
C17 C16 1_555 1_555
C18 C17 1_555 1_555
H14 C18 1_555 1_555
C19 C18 1_555 1_555
H15 C19 1_555 1_555
C20 C19 1_555 1_555
C21 C16 1_555 1_555
H16 C21 1_555 1_555
C22 H17 1_555 1_555
H18 C22 1_555 1_555
Cl1 C22 1_555 1_555
Cl2 C22 1_555 1_555
N1 C7 1_555 1_555
N2 C12 1_555 1_555
O1 C7 1_555 1_555
O2 C8 1_555 1_555
Br1B C20B 1_555 1_555
C1B H1B 1_555 1_555
C2B C1B 1_555 1_555
H2B C2B 1_555 1_555
C3B C2B 1_555 1_555
H3B C3B 1_555 1_555
C4B C3B 1_555 1_555
C5B C4B 1_555 1_555
C6B C1B 1_555 1_555
H4B C6B 1_555 1_555
C7B C4B 1_555 1_555
C8B C5B 1_555 1_555
C9B H5B 1_555 1_555
H6B C9B 1_555 1_555
C10B C9B 1_555 1_555
H7B C10B 1_555 1_555
H8B C10B 1_555 1_555
C11B C10B 1_555 1_555
H9B C11B 1_555 1_555
H10B C11B 1_555 1_555
C12B C11B 1_555 1_555
H11B C12B 1_555 1_555
H12B C12B 1_555 1_555
C13B C14B 1_555 1_555
C14B C15 1_555 1_555
H13B C14B 1_555 1_555
C15B C14 1_555 1_555
C16B C15B 1_555 1_555
C17B C16B 1_555 1_555
C18B C17B 1_555 1_555
H14B C18B 1_555 1_555
C19B C18B 1_555 1_555
H15B C19B 1_555 1_555
C20B C19B 1_555 1_555
C21B C16B 1_555 1_555
H16B C21B 1_555 1_555
N1B C7B 1_555 1_555
N2B C12B 1_555 1_555
O1B C7B 1_555 1_555
O2B C8B 1_555 1_555
C5 C6 1_555 1_555
C8 N1 1_555 1_555
C9 N1 1_555 1_555
C13 N2 1_555 1_555
C17 N2 1_555 1_555
C20 C21 1_555 1_555
C5B C6B 1_555 1_555
C8B N1B 1_555 1_555
C9B N1B 1_555 1_555
C13B C15B 1_555 1_555
C13B N2B 1_555 1_555
C17B N2B 1_555 1_555
C20B C21B 1_555 1_555

#END
