
#######################################################################
#
#                 Cambridge Crystallographic Data Centre
#                                CCDC 
#
#######################################################################
#
# If this CIF has been generated from an entry in the Cambridge 
# Structural Database, then it will include bibliographic, chemical, 
# crystal, experimental, refinement or atomic coordinate data resulting 
# from the CCDC's data processing and validation procedures.
#
#######################################################################

data_IHUFAU
_chemical_name_common            
'8-methoxy-1,1,4a-trimethyl-2,3,4,4a,9,9a-hexahydro-1H-fluoren-9-yl 4-bromobenzoate'
_chemical_formula_moiety         'C24 H27 Br1 O3'
_chemical_name_systematic        
'(4aS, 9S)-8-methoxy-1,1,4a-trimethyl-2,3,4,4a,9,9a-hexahydro-1H-fluoren-9-yl 4-bromobenzoate'
_symmetry_cell_setting           orthorhombic
_symmetry_space_group_name_H-M   'P 21 21 21'
_symmetry_Int_Tables_number      19
_space_group_name_Hall           'P 2ac 2ab'
loop_
_symmetry_equiv_pos_site_id
_symmetry_equiv_pos_as_xyz
1 x,y,z
2 1/2+x,1/2-y,-z
3 -x,1/2+y,1/2-z
4 1/2-x,-y,1/2+z
_cell_length_a                   6.13190(10)
_cell_length_b                   14.1679(3)
_cell_length_c                   24.4063(4)
_cell_angle_alpha                90
_cell_angle_beta                 90
_cell_angle_gamma                90
_cell_volume                     2120.33
_exptl_crystal_colour            colorless
_exptl_crystal_description       needle
_chemical_melting_point          '405-407 K'
_cell_formula_units_Z            4
_exptl_crystal_recrystallization_method 'hexane/ethyl acetate'
loop_
_atom_site_label
_atom_site_type_symbol
_atom_site_fract_x
_atom_site_fract_y
_atom_site_fract_z
Br1 Br 0.04844(4) 0.16456(2) 1.007860(10)
O1 O 0.0673(2) 0.16145(10) 0.73022(5)
O2 O 0.4119(2) 0.10946(11) 0.74456(6)
O3 O 0.3752(3) 0.31072(11) 0.70010(7)
C1 C -0.1617(3) 0.16258(16) 0.59256(8)
C2 C -0.0582(4) 0.25798(14) 0.60401(8)
C3 C -0.0807(4) 0.34188(16) 0.57424(9)
C4 C 0.0516(5) 0.41700(16) 0.58828(10)
C5 C 0.2058(4) 0.41030(17) 0.63022(11)
C6 C 0.2272(3) 0.32694(17) 0.65911(9)
C7 C 0.0907(3) 0.25147(14) 0.64611(8)
C8 C 0.0889(3) 0.15420(14) 0.67092(7)
C9 C -0.1217(3) 0.10883(14) 0.64768(8)
C10 C -0.1200(3) -0.00056(16) 0.64502(9)
C11 C 0.0127(3) -0.03431(15) 0.59534(9)
C12 C -0.0556(4) 0.01102(16) 0.54160(8)
C13 C -0.0320(4) 0.11770(15) 0.54496(8)
C14 C -0.4034(3) 0.17187(18) 0.57721(9)
C15 C -0.3545(3) -0.03862(17) 0.64094(10)
C16 C -0.0217(4) -0.04225(15) 0.69737(9)
C17 C 0.2395(3) 0.13895(14) 0.76123(8)
C18 C 0.1894(3) 0.15137(14) 0.82076(8)
C19 C 0.3543(3) 0.13254(15) 0.85821(8)
C20 C 0.3147(3) 0.13851(15) 0.91391(8)
C21 C 0.1082(3) 0.16361(15) 0.93178(8)
C22 C -0.0556(4) 0.18451(14) 0.89517(8)
C23 C -0.0161(3) 0.17822(14) 0.83930(8)
C24 C 0.5421(5) 0.37897(18) 0.70804(11)
H1 H -0.1803 0.3463 0.5445
H2 H 0.0340 0.4751 0.5694
H3 H 0.2960 0.4629 0.6386
H4 H 0.2143 0.1190 0.6607
H5 H -0.2359 0.1263 0.6719
H6 H -0.0029 -0.1008 0.5924
H7 H 0.1616 -0.0191 0.6014
H8 H -0.2045 -0.0037 0.5351
H9 H 0.0308 -0.0127 0.5124
H10 H -0.0798 0.1448 0.5114
H11 H 0.1181 0.1315 0.5503
H12 H -0.4201 0.2177 0.5491
H13 H -0.4847 0.1905 0.6085
H14 H -0.4551 0.1126 0.5645
H15 H -0.3520 -0.1057 0.6413
H16 H -0.4368 -0.0164 0.6713
H17 H -0.4194 -0.0172 0.6079
H18 H 0.1310 -0.0311 0.6976
H19 H -0.0862 -0.0132 0.7285
H20 H -0.0483 -0.1083 0.6985
H21 H 0.4949 0.1153 0.8452
H22 H 0.4274 0.1266 0.9397
H23 H -0.1949 0.2034 0.9082
H24 H -0.1281 0.1917 0.8136
H25 H 0.6212 0.3870 0.6749
H26 H 0.4798 0.4376 0.7187
H27 H 0.6379 0.3574 0.7359
loop_
_geom_bond_atom_site_label_1
_geom_bond_atom_site_label_2
_geom_bond_site_symmetry_1
_geom_bond_site_symmetry_2
Br1 C21 1_555 1_555
O1 C8 1_555 1_555
O2 C17 1_555 1_555
O3 C6 1_555 1_555
C1 C2 1_555 1_555
C2 C3 1_555 1_555
C3 C4 1_555 1_555
C4 C5 1_555 1_555
C5 C6 1_555 1_555
C6 C7 1_555 1_555
C7 C2 1_555 1_555
C8 C7 1_555 1_555
C9 C1 1_555 1_555
C10 C9 1_555 1_555
C11 C10 1_555 1_555
C12 C11 1_555 1_555
C13 C1 1_555 1_555
C14 C1 1_555 1_555
C15 C10 1_555 1_555
C16 C10 1_555 1_555
C17 O1 1_555 1_555
C18 C17 1_555 1_555
C19 C18 1_555 1_555
C20 C19 1_555 1_555
C21 C20 1_555 1_555
C22 C21 1_555 1_555
C23 C18 1_555 1_555
C24 O3 1_555 1_555
H1 C3 1_555 1_555
H2 C4 1_555 1_555
H3 C5 1_555 1_555
H4 C8 1_555 1_555
H5 C9 1_555 1_555
H6 C11 1_555 1_555
H7 C11 1_555 1_555
H8 C12 1_555 1_555
H9 C12 1_555 1_555
H10 C13 1_555 1_555
H11 C13 1_555 1_555
H12 C14 1_555 1_555
H13 C14 1_555 1_555
H14 C14 1_555 1_555
H15 C15 1_555 1_555
H16 C15 1_555 1_555
H17 C15 1_555 1_555
H18 C16 1_555 1_555
H19 C16 1_555 1_555
H20 C16 1_555 1_555
H21 C19 1_555 1_555
H22 C20 1_555 1_555
H23 C22 1_555 1_555
H24 C23 1_555 1_555
H25 C24 1_555 1_555
H26 C24 1_555 1_555
H27 C24 1_555 1_555
C8 C9 1_555 1_555
C12 C13 1_555 1_555
C22 C23 1_555 1_555

#END
