
#######################################################################
#
#                 Cambridge Crystallographic Data Centre
#                                CCDC 
#
#######################################################################
#
# If this CIF has been generated from an entry in the Cambridge 
# Structural Database, then it will include bibliographic, chemical, 
# crystal, experimental, refinement or atomic coordinate data resulting 
# from the CCDC's data processing and validation procedures.
#
#######################################################################

data_IHUHUO
_chemical_formula_moiety         'C22 H24 O4'
_chemical_name_systematic        
(+-)-(2R)-2-((3S,4S,5S)-4-Benzoyl-5-hydroxymethyl-4-methyltetrahydro-3-furanyl)-1-phenylpropan-1-one
_symmetry_cell_setting           triclinic
_symmetry_space_group_name_H-M   'P -1'
_symmetry_Int_Tables_number      2
_space_group_name_Hall           '-P 1'
loop_
_symmetry_equiv_pos_site_id
_symmetry_equiv_pos_as_xyz
1 x,y,z
2 -x,-y,-z
_cell_length_a                   6.1275(6)
_cell_length_b                   11.2476(11)
_cell_length_c                   13.4535(13)
_cell_angle_alpha                88.393(2)
_cell_angle_beta                 81.420(2)
_cell_angle_gamma                79.313(2)
_cell_volume                     900.931
_exptl_crystal_colour            colorless
_exptl_crystal_description       block
_chemical_melting_point          '373-375 K'
_cell_formula_units_Z            2
_exptl_crystal_recrystallization_method dichloromethane/hexane
loop_
_atom_site_label
_atom_site_type_symbol
_atom_site_fract_x
_atom_site_fract_y
_atom_site_fract_z
O1 O -0.18805(17) -0.07548(9) 0.43028(7)
O2 O -0.41578(18) 0.15619(10) 0.51813(8)
H1 H -0.5292 0.1280 0.5436
O3 O 0.21526(16) 0.12843(9) 0.25837(8)
O4 O 0.55675(19) -0.28452(11) 0.20321(11)
C1 C -0.0260(2) -0.16840(12) 0.37416(10)
H2 H -0.1025 -0.2286 0.3482
H3 H 0.0811 -0.2106 0.4176
C2 C 0.0980(2) -0.10491(11) 0.28671(9)
H4 H 0.2314 -0.0813 0.3101
C3 C -0.0755(2) 0.01255(11) 0.27443(9)
C4 C -0.1577(2) 0.03971(12) 0.38767(10)
H5 H -0.0350 0.0670 0.4173
C5 C -0.3709(2) 0.13164(13) 0.41357(10)
H6 H -0.3563 0.2075 0.3762
H7 H -0.4981 0.1006 0.3927
C6 C 0.0412(2) 0.11575(12) 0.23059(10)
C7 C -0.0522(2) 0.20421(12) 0.15527(10)
C8 C 0.1012(3) 0.23692(13) 0.07676(11)
H8 H 0.2540 0.1978 0.0696
C9 C 0.0325(3) 0.32601(15) 0.00916(12)
H9 H 0.1367 0.3461 -0.0454
C10 C -0.1887(3) 0.38580(15) 0.02131(12)
H10 H -0.2350 0.4482 -0.0242
C11 C -0.3421(3) 0.35531(14) 0.09916(12)
H11 H -0.4931 0.3975 0.1077
C12 C -0.2757(2) 0.26268(13) 0.16512(11)
H12 H -0.3828 0.2393 0.2169
C13 C -0.2610(2) -0.01383(13) 0.21833(10)
H13 H -0.3257 -0.0807 0.2514
H14 H -0.1976 -0.0362 0.1487
H15 H -0.3784 0.0585 0.2190
C14 C 0.3583(2) -0.28959(13) 0.22079(11)
C15 C 0.1819(2) -0.18495(12) 0.19232(10)
H16 H 0.0533 -0.2182 0.1735
C16 C 0.2812(3) -0.11596(14) 0.10272(10)
H17 H 0.1664 -0.0490 0.0852
H18 H 0.3324 -0.1708 0.0452
H19 H 0.4086 -0.0838 0.1202
C17 C 0.2881(2) -0.39733(12) 0.27527(11)
C18 C 0.4203(3) -0.45476(14) 0.34449(13)
H20 H 0.5487 -0.4242 0.3563
C19 C 0.3664(3) -0.55575(16) 0.39621(14)
H21 H 0.4554 -0.5932 0.4445
C20 C 0.1837(4) -0.60195(15) 0.37762(15)
H22 H 0.1483 -0.6722 0.4123
C21 C 0.0510(3) -0.54648(15) 0.30858(14)
H23 H -0.0739 -0.5793 0.2954
C22 C 0.1005(3) -0.44292(13) 0.25866(12)
H24 H 0.0063 -0.4032 0.2131
loop_
_geom_bond_atom_site_label_1
_geom_bond_atom_site_label_2
_geom_bond_site_symmetry_1
_geom_bond_site_symmetry_2
O1 C1 1_555 1_555
O2 H1 1_555 1_555
O3 C6 1_555 1_555
O4 C14 1_555 1_555
C1 H2 1_555 1_555
H3 C1 1_555 1_555
C2 C1 1_555 1_555
H4 C2 1_555 1_555
C3 C2 1_555 1_555
C4 O1 1_555 1_555
H5 C4 1_555 1_555
C5 O2 1_555 1_555
H6 C5 1_555 1_555
H7 C5 1_555 1_555
C6 C3 1_555 1_555
C7 C6 1_555 1_555
C8 C7 1_555 1_555
H8 C8 1_555 1_555
C9 C8 1_555 1_555
H9 C9 1_555 1_555
C10 C9 1_555 1_555
H10 C10 1_555 1_555
C11 C10 1_555 1_555
H11 C11 1_555 1_555
C12 C7 1_555 1_555
H12 C12 1_555 1_555
C13 C3 1_555 1_555
H13 C13 1_555 1_555
H14 C13 1_555 1_555
H15 C13 1_555 1_555
C14 C15 1_555 1_555
C15 C2 1_555 1_555
H16 C15 1_555 1_555
C16 C15 1_555 1_555
H17 C16 1_555 1_555
H18 C16 1_555 1_555
H19 C16 1_555 1_555
C17 C14 1_555 1_555
C18 C17 1_555 1_555
H20 C18 1_555 1_555
C19 C18 1_555 1_555
H21 C19 1_555 1_555
C20 C19 1_555 1_555
H22 C20 1_555 1_555
C21 C20 1_555 1_555
H23 C21 1_555 1_555
C22 C17 1_555 1_555
H24 C22 1_555 1_555
C3 C4 1_555 1_555
C4 C5 1_555 1_555
C11 C12 1_555 1_555
C21 C22 1_555 1_555

#END
