
#######################################################################
#
#                 Cambridge Crystallographic Data Centre
#                                CCDC 
#
#######################################################################
#
# If this CIF has been generated from an entry in the Cambridge 
# Structural Database, then it will include bibliographic, chemical, 
# crystal, experimental, refinement or atomic coordinate data resulting 
# from the CCDC's data processing and validation procedures.
#
#######################################################################

data_IHUMIJ
_chemical_formula_moiety         'C8 H11 O4 1-,C5 H8 N3 1+'
_chemical_name_systematic        
'2,6-diaminopyridin-1-ium 4-carboxycyclohexane-1-carboxylate'
_symmetry_cell_setting           monoclinic
_symmetry_space_group_name_H-M   'P 21/n'
_symmetry_Int_Tables_number      14
_space_group_name_Hall           '-P 2yn'
loop_
_symmetry_equiv_pos_site_id
_symmetry_equiv_pos_as_xyz
1 x,y,z
2 1/2-x,1/2+y,1/2-z
3 -x,-y,-z
4 1/2+x,1/2-y,1/2+z
_cell_length_a                   8.5003(7)
_cell_length_b                   6.5213(5)
_cell_length_c                   25.229(2)
_cell_angle_alpha                90
_cell_angle_beta                 95.5020(10)
_cell_angle_gamma                90
_cell_volume                     1392.08
_exptl_crystal_colour            colorless
_exptl_crystal_description       block
_cell_formula_units_Z            4
loop_
_atom_site_label
_atom_site_type_symbol
_atom_site_fract_x
_atom_site_fract_y
_atom_site_fract_z
N1 N 0.7881(2) 1.0712(3) 0.54661(7)
H1 H 0.7852 1.1654 0.5703
N2 N 0.9329(2) 0.8832(3) 0.61098(8)
H2 H 0.9234 0.9833 0.6326
H3 H 0.9844 0.7750 0.6216
N3 N 0.6409(2) 1.2875(3) 0.49019(8)
H4 H 0.6438 1.3740 0.5160
H5 H 0.5916 1.3178 0.4598
C1 C 0.8670(2) 0.8961(4) 0.56019(9)
C2 C 0.8727(3) 0.7453(4) 0.52267(11)
H6 H 0.9255 0.6229 0.5309
C3 C 0.7985(4) 0.7786(4) 0.47238(11)
H7 H 0.8025 0.6769 0.4467
C4 C 0.7197(3) 0.9558(4) 0.45914(10)
H8 H 0.6712 0.9751 0.4249
C5 C 0.7128(3) 1.1062(4) 0.49725(9)
O1 O 0.04297(18) 0.4928(3) 0.67448(8)
H9 H -0.0390 0.4329 0.6641
O2 O 0.1397(2) 0.1807(3) 0.67152(8)
O3 O 0.58043(19) 0.5116(3) 0.58476(6)
O4 O 0.79102(16) 0.3584(3) 0.62409(6)
C6 C 0.1596(2) 0.3603(4) 0.68057(8)
C7 C 0.6707(2) 0.4765(4) 0.62506(8)
C8 C 0.3163(2) 0.4568(3) 0.69927(8)
H10 H 0.3098 0.5066 0.7356
C9 C 0.4492(2) 0.2997(4) 0.70101(9)
H11 H 0.4504 0.2369 0.6662
H12 H 0.4298 0.1927 0.7263
C10 C 0.6093(2) 0.3977(4) 0.71706(9)
H13 H 0.6912 0.2941 0.7174
H14 H 0.6104 0.4535 0.7527
C11 C 0.6436(2) 0.5682(3) 0.67852(8)
H15 H 0.7423 0.6345 0.6926
C12 C 0.5139(2) 0.7291(4) 0.67663(10)
H16 H 0.5325 0.8297 0.6496
H17 H 0.5198 0.7994 0.7106
C13 C 0.3478(2) 0.6415(3) 0.66454(9)
H18 H 0.3332 0.6009 0.6274
H19 H 0.2711 0.7478 0.6699
loop_
_geom_bond_atom_site_label_1
_geom_bond_atom_site_label_2
_geom_bond_site_symmetry_1
_geom_bond_site_symmetry_2
N1 H1 1_555 1_555
N2 H2 1_555 1_555
H3 N2 1_555 1_555
N3 H4 1_555 1_555
H5 N3 1_555 1_555
C1 N1 1_555 1_555
C2 C1 1_555 1_555
H6 C2 1_555 1_555
C3 C2 1_555 1_555
H7 C3 1_555 1_555
C4 C3 1_555 1_555
H8 C4 1_555 1_555
C5 N1 1_555 1_555
O1 H9 1_555 1_555
O2 C6 1_555 1_555
O3 C7 1_555 1_555
O4 C7 1_555 1_555
C6 O1 1_555 1_555
C7 C11 1_555 1_555
C8 C6 1_555 1_555
H10 C8 1_555 1_555
C9 C8 1_555 1_555
H11 C9 1_555 1_555
H12 C9 1_555 1_555
C10 C9 1_555 1_555
H13 C10 1_555 1_555
H14 C10 1_555 1_555
C11 C10 1_555 1_555
H15 C11 1_555 1_555
C12 C11 1_555 1_555
H16 C12 1_555 1_555
H17 C12 1_555 1_555
C13 C8 1_555 1_555
H18 C13 1_555 1_555
H19 C13 1_555 1_555
N2 C1 1_555 1_555
N3 C5 1_555 1_555
C4 C5 1_555 1_555
C12 C13 1_555 1_555

#END
