
#######################################################################
#
#                 Cambridge Crystallographic Data Centre
#                                CCDC 
#
#######################################################################
#
# If this CIF has been generated from an entry in the Cambridge 
# Structural Database, then it will include bibliographic, chemical, 
# crystal, experimental, refinement or atomic coordinate data resulting 
# from the CCDC's data processing and validation procedures.
#
#######################################################################

data_IHUNEF
_chemical_compound_source        'leaves of Cipadessa cinerascens'
_chemical_name_common            
'Methyl (6-(1-(3-furyl)-8a-methyl-5-methylene-3-oxo-3,5,6,7,8,8a-hexahydro-1H-isochromen-6-yl)-2,2,6-trimethyl-5-oxocyclohex-3-en-1-yl)acetate'
_chemical_formula_moiety         'C27 H32 O6'
_chemical_name_systematic        'Cipadonoid B'
_chemical_properties_biological  
'tested for activity at the insect nicotinic acetylcholine receptor (nAChR)'
_symmetry_cell_setting           tetragonal
_symmetry_space_group_name_H-M   'P 41'
_symmetry_Int_Tables_number      76
_space_group_name_Hall           'P 4w'
loop_
_symmetry_equiv_pos_site_id
_symmetry_equiv_pos_as_xyz
1 x,y,z
2 -x,-y,1/2+z
3 -y,x,1/4+z
4 y,-x,3/4+z
_cell_length_a                   10.556(4)
_cell_length_b                   10.556(4)
_cell_length_c                   21.818(8)
_cell_angle_alpha                90
_cell_angle_beta                 90
_cell_angle_gamma                90
_cell_volume                     2431.16
_exptl_crystal_colour            colorless
_exptl_crystal_description       block
_chemical_melting_point          '143-144 deg.C'
_cell_formula_units_Z            4
_exptl_crystal_recrystallization_method methanol
loop_
_atom_site_label
_atom_site_type_symbol
_atom_site_fract_x
_atom_site_fract_y
_atom_site_fract_z
O1 O 0.65852(16) 0.56033(19) 0.36714(12)
O2 O 1.2143(2) 0.7139(3) 0.39112(11)
O3 O 1.29299(19) 0.7823(2) 0.30217(10)
O4 O 0.53347(19) 0.07475(18) 0.39340(10)
O5 O 0.60151(15) 0.19037(15) 0.47106(8)
O6 O 0.6017(3) 0.3969(2) 0.64828(11)
C1 C 0.7423(2) 0.6392(2) 0.36709(11)
C2 C 0.7220(3) 0.7607(3) 0.39727(16)
H1 H 0.6587 0.7679 0.4267
C3 C 0.7915(3) 0.8607(3) 0.38364(17)
H2 H 0.7718 0.9369 0.4028
C4 C 0.8996(3) 0.8599(2) 0.33949(12)
C5 C 0.9606(2) 0.72568(19) 0.34196(10)
H3 H 0.9925 0.7179 0.3840
C6 C 1.0795(2) 0.7150(2) 0.30148(12)
H4 H 1.0819 0.6315 0.2829
H5 H 1.0745 0.7770 0.2688
C7 C 1.2007(2) 0.7360(3) 0.33746(12)
C8 C 0.8706(2) 0.36520(19) 0.34908(10)
C9 C 0.93196(18) 0.49157(18) 0.36480(10)
H6 H 1.0170 0.4877 0.3469
C10 C 0.8670(2) 0.61219(19) 0.33451(10)
C11 C 0.9530(2) 0.4987(2) 0.43485(10)
H7 H 1.0243 0.4448 0.4453
H8 H 0.9761 0.5849 0.4454
C12 C 0.8403(2) 0.45978(19) 0.47434(10)
H9 H 0.7723 0.5204 0.4685
H10 H 0.8650 0.4627 0.5171
C13 C 0.79084(19) 0.32630(18) 0.45935(10)
C14 C 0.7745(2) 0.30941(18) 0.39050(10)
C15 C 0.6794(2) 0.2368(2) 0.36946(11)
H11 H 0.6649 0.2334 0.3275
C16 C 0.5982(2) 0.1630(2) 0.41014(11)
C17 C 0.6586(2) 0.31184(19) 0.48798(10)
H12 H 0.6049 0.3790 0.4710
C18 C 0.8855(2) 0.2253(2) 0.48205(11)
H13 H 0.8479 0.1429 0.4786
H14 H 0.9065 0.2416 0.5241
H15 H 0.9610 0.2287 0.4576
C19 C 0.8356(3) 0.5842(2) 0.26684(11)
H16 H 0.8056 0.6601 0.2474
H17 H 0.7712 0.5201 0.2647
H18 H 0.9104 0.5550 0.2462
C20 C 0.6506(2) 0.3201(2) 0.55589(11)
C21 C 0.5908(3) 0.4133(3) 0.58645(14)
H19 H 0.5479 0.4800 0.5679
C22 C 0.7014(3) 0.2384(3) 0.60208(14)
H20 H 0.7479 0.1647 0.5958
C23 C 0.6686(4) 0.2893(4) 0.65616(14)
H21 H 0.6893 0.2548 0.6941
C24 C 0.9990(3) 0.9581(2) 0.36002(15)
H22 H 0.9593 1.0394 0.3645
H23 H 1.0649 0.9634 0.3298
H24 H 1.0347 0.9326 0.3986
C25 C 0.8474(5) 0.9006(3) 0.27654(18)
H25 H 0.7787 0.8458 0.2651
H26 H 0.9134 0.8949 0.2464
H27 H 0.8175 0.9863 0.2789
C26 C 0.9094(2) 0.2997(2) 0.30017(12)
H28 H 0.8761 0.2198 0.2924
H29 H 0.9697 0.3340 0.2739
C27 C 1.4150(3) 0.8022(5) 0.3313(2)
H30 H 1.4774 0.8205 0.3006
H31 H 1.4390 0.7272 0.3533
H32 H 1.4092 0.8721 0.3593
loop_
_geom_bond_atom_site_label_1
_geom_bond_atom_site_label_2
_geom_bond_site_symmetry_1
_geom_bond_site_symmetry_2
O1 C1 1_555 1_555
O2 C7 1_555 1_555
O3 C7 1_555 1_555
O4 C16 1_555 1_555
O5 C16 1_555 1_555
O6 C21 1_555 1_555
C1 C2 1_555 1_555
C2 H1 1_555 1_555
C3 C2 1_555 1_555
H2 C3 1_555 1_555
C4 C3 1_555 1_555
C5 C4 1_555 1_555
H3 C5 1_555 1_555
C6 C5 1_555 1_555
H4 C6 1_555 1_555
H5 C6 1_555 1_555
C7 C6 1_555 1_555
C8 C9 1_555 1_555
C9 H6 1_555 1_555
C10 C1 1_555 1_555
C11 C9 1_555 1_555
H7 C11 1_555 1_555
H8 C11 1_555 1_555
C12 C11 1_555 1_555
H9 C12 1_555 1_555
H10 C12 1_555 1_555
C13 C12 1_555 1_555
C14 C8 1_555 1_555
C15 C14 1_555 1_555
H11 C15 1_555 1_555
C16 C15 1_555 1_555
C17 O5 1_555 1_555
H12 C17 1_555 1_555
C18 C13 1_555 1_555
H13 C18 1_555 1_555
H14 C18 1_555 1_555
H15 C18 1_555 1_555
C19 C10 1_555 1_555
H16 C19 1_555 1_555
H17 C19 1_555 1_555
H18 C19 1_555 1_555
C20 C17 1_555 1_555
C21 C20 1_555 1_555
H19 C21 1_555 1_555
C22 C20 1_555 1_555
H20 C22 1_555 1_555
C23 O6 1_555 1_555
H21 C23 1_555 1_555
C24 C4 1_555 1_555
H22 C24 1_555 1_555
H23 C24 1_555 1_555
H24 C24 1_555 1_555
C25 C4 1_555 1_555
H25 C25 1_555 1_555
H26 C25 1_555 1_555
H27 C25 1_555 1_555
C26 C8 1_555 1_555
H28 C26 1_555 1_555
H29 C26 1_555 1_555
C27 O3 1_555 1_555
H30 C27 1_555 1_555
H31 C27 1_555 1_555
H32 C27 1_555 1_555
C5 C10 1_555 1_555
C9 C10 1_555 1_555
C13 C14 1_555 1_555
C13 C17 1_555 1_555
C22 C23 1_555 1_555

#END
