
#######################################################################
#
#                 Cambridge Crystallographic Data Centre
#                                CCDC 
#
#######################################################################
#
# If this CIF has been generated from an entry in the Cambridge 
# Structural Database, then it will include bibliographic, chemical, 
# crystal, experimental, refinement or atomic coordinate data resulting 
# from the CCDC's data processing and validation procedures.
#
#######################################################################

data_IHUQOT
_chemical_formula_moiety         'C21 H14 B1 F2 N5'
_chemical_name_systematic        
difluoro(3-(pyridin-2-yl)-1-((1H-pyrrol-2-yl)(2H-pyrrol-2-ylidene)methyl)imidazo[1,5-a]pyridinato)borate
_symmetry_cell_setting           triclinic
_symmetry_space_group_name_H-M   'P -1'
_symmetry_Int_Tables_number      2
_space_group_name_Hall           '-P 1'
loop_
_symmetry_equiv_pos_site_id
_symmetry_equiv_pos_as_xyz
1 x,y,z
2 -x,-y,-z
_cell_length_a                   11.668(2)
_cell_length_b                   12.359(3)
_cell_length_c                   14.865(3)
_cell_angle_alpha                68.17(3)
_cell_angle_beta                 84.09(3)
_cell_angle_gamma                62.77(3)
_cell_volume                     1763.49
_cell_formula_units_Z            4
loop_
_atom_site_label
_atom_site_type_symbol
_atom_site_fract_x
_atom_site_fract_y
_atom_site_fract_z
F1 F 0.1788(4) 0.2008(4) 0.0527(3)
N1 N 0.3451(5) 0.2233(5) -0.0506(4)
F2 F 0.1283(4) 0.3958(4) -0.0693(3)
N2 N 0.2700(4) 0.3312(5) 0.0685(4)
N3 N 0.8175(5) 0.1661(5) 0.1194(3)
N4 N 0.7330(5) 0.0567(5) 0.0832(4)
C1 C 0.8418(5) 0.0515(6) 0.1071(4)
C2 C 0.4731(5) 0.1824(6) -0.0208(4)
C3 C 0.5007(5) 0.2120(6) 0.0544(4)
N5 N 1.0672(5) -0.0726(5) 0.1671(4)
C4 C 0.6836(6) 0.2463(6) 0.1034(4)
C5 C 0.6339(6) 0.1735(6) 0.0819(4)
C6 C 0.3977(5) 0.2825(6) 0.1011(4)
C7 C 0.3972(6) 0.3157(6) 0.1817(4)
H1 H 0.4694 0.2935 0.2190
C8 C 0.1937(6) 0.3950(6) 0.1251(5)
H2 H 0.1037 0.4375 0.1181
C9 C 0.9012(6) 0.2088(7) 0.1362(5)
H3 H 0.9899 0.1550 0.1455
C10 C 0.9792(6) -0.1587(6) 0.0880(5)
H4 H 0.9085 -0.1494 0.0566
C11 C 0.9679(5) -0.0630(6) 0.1210(4)
C12 C 0.2696(6) 0.3876(7) 0.1954(5)
H5 H 0.2400 0.4242 0.2429
C13 C 1.1804(6) -0.1798(7) 0.1801(5)
H6 H 1.2499 -0.1878 0.2120
C14 C 0.3478(6) 0.1885(7) -0.1265(5)
H7 H 0.2752 0.2045 -0.1600
C15 C 0.5537(6) 0.1199(7) -0.0823(5)
H8 H 0.6435 0.0824 -0.0788
C16 C 1.2003(7) -0.2785(7) 0.1496(5)
H9 H 1.2810 -0.3507 0.1600
B1 B 0.2249(7) 0.2896(7) -0.0009(5)
C17 C 0.6352(6) 0.3729(6) 0.1054(5)
H10 H 0.5468 0.4287 0.0942
C18 C 0.7180(7) 0.4130(7) 0.1239(5)
H11 H 0.6860 0.4958 0.1265
C19 C 0.4755(7) 0.1245(7) -0.1479(5)
H12 H 0.5023 0.0914 -0.1974
C20 C 1.0968(7) -0.2674(7) 0.1027(5)
H13 H 1.1066 -0.3328 0.0813
C21 C 0.8524(7) 0.3293(7) 0.1390(5)
H14 H 0.9082 0.3581 0.1511
N6 N 0.1648(5) 0.6360(5) 0.4185(4)
N7 N -0.0409(5) 0.7852(5) 0.3730(3)
N8 N 0.4569(5) 0.6623(5) 0.5558(4)
N9 N 0.3729(5) 0.8889(5) 0.4378(4)
F3 F 0.4992(5) 0.8191(5) 0.5852(3)
C22 C 0.0210(6) 0.8466(6) 0.3957(4)
F4 F 0.5993(4) 0.7471(5) 0.4660(4)
C23 C 0.2596(6) 0.7600(6) 0.4527(4)
C24 C 0.0514(6) 0.6579(6) 0.3876(4)
C25 C 0.2742(6) 0.8753(6) 0.4057(4)
C26 C 0.1502(6) 0.7509(6) 0.4225(4)
C27 C 0.0294(6) 0.5570(7) 0.3733(4)
C28 C 0.3518(6) 0.6543(6) 0.5269(4)
C29 C 0.1185(6) 0.4271(7) 0.4175(5)
H15 H 0.1900 0.4047 0.4558
N10 N -0.0754(5) 0.5951(6) 0.3174(4)
C30 C -0.0556(6) 0.9753(7) 0.3944(5)
H16 H -0.0175 1.0179 0.4106
C31 C -0.1725(6) 0.8479(7) 0.3476(5)
H17 H -0.2116 0.8057 0.3320
C32 C 0.2086(6) 0.9860(6) 0.3227(5)
H18 H 0.1393 1.0018 0.2855
C33 C 0.5274(7) 0.5485(7) 0.6278(5)
H19 H 0.6030 0.5284 0.6598
C34 C 0.3619(6) 0.5303(7) 0.5853(5)
H20 H 0.3048 0.4983 0.5822
C35 C 0.2656(7) 1.0672(7) 0.3060(5)
H21 H 0.2413 1.1482 0.2561
C36 C 0.3658(7) 1.0049(7) 0.3777(5)
H22 H 0.4205 1.0383 0.3836
C37 C -0.0074(8) 0.3686(8) 0.3474(5)
H23 H -0.0233 0.3066 0.3374
C38 C -0.1848(7) 1.0361(7) 0.3696(5)
H24 H -0.2349 1.1208 0.3682
C39 C 0.0999(7) 0.3312(7) 0.4040(5)
H25 H 0.1587 0.2434 0.4325
C40 C -0.0909(8) 0.4997(8) 0.3059(5)
H26 H -0.1629 0.5240 0.2673
C41 C -0.2436(7) 0.9714(8) 0.3457(5)
H27 H -0.3321 1.0141 0.3286
B2 B 0.4863(7) 0.7801(8) 0.5123(6)
C42 C 0.4713(7) 0.4650(7) 0.6476(5)
H28 H 0.5021 0.3809 0.6943
loop_
_geom_bond_atom_site_label_1
_geom_bond_atom_site_label_2
_geom_bond_site_symmetry_1
_geom_bond_site_symmetry_2
F1 B1 1_555 1_555
N1 C2 1_555 1_555
F2 B1 1_555 1_555
N2 C6 1_555 1_555
N3 C1 1_555 1_555
N4 C1 1_555 1_555
C1 C11 1_555 1_555
C2 C3 1_555 1_555
C3 C5 1_555 1_555
N5 C11 1_555 1_555
C4 N3 1_555 1_555
C5 N4 1_555 1_555
C6 C3 1_555 1_555
C7 C6 1_555 1_555
H1 C7 1_555 1_555
C8 N2 1_555 1_555
H2 C8 1_555 1_555
C9 N3 1_555 1_555
H3 C9 1_555 1_555
C10 H4 1_555 1_555
C11 C10 1_555 1_555
C12 C7 1_555 1_555
H5 C12 1_555 1_555
C13 N5 1_555 1_555
H6 C13 1_555 1_555
C14 N1 1_555 1_555
H7 C14 1_555 1_555
C15 C2 1_555 1_555
H8 C15 1_555 1_555
C16 C13 1_555 1_555
H9 C16 1_555 1_555
B1 N1 1_555 1_555
C17 C4 1_555 1_555
H10 C17 1_555 1_555
C18 C17 1_555 1_555
H11 C18 1_555 1_555
C19 C14 1_555 1_555
H12 C19 1_555 1_555
C20 C10 1_555 1_555
H13 C20 1_555 1_555
C21 C9 1_555 1_555
H14 C21 1_555 1_555
N6 C24 1_555 1_555
N7 C22 1_555 1_555
N8 C28 1_555 1_555
N9 C25 1_555 1_555
F3 B2 1_555 1_555
C22 C26 1_555 1_555
F4 B2 1_555 1_555
C23 C25 1_555 1_555
C24 N7 1_555 1_555
C25 C32 1_555 1_555
C26 N6 1_555 1_555
C27 C24 1_555 1_555
C28 C23 1_555 1_555
C29 C27 1_555 1_555
H15 C29 1_555 1_555
N10 C27 1_555 1_555
C30 C22 1_555 1_555
H16 C30 1_555 1_555
C31 N7 1_555 1_555
H17 C31 1_555 1_555
C32 H18 1_555 1_555
C33 N8 1_555 1_555
H19 C33 1_555 1_555
C34 C28 1_555 1_555
H20 C34 1_555 1_555
C35 C32 1_555 1_555
H21 C35 1_555 1_555
C36 N9 1_555 1_555
H22 C36 1_555 1_555
C37 H23 1_555 1_555
C38 C30 1_555 1_555
H24 C38 1_555 1_555
C39 C29 1_555 1_555
H25 C39 1_555 1_555
C40 N10 1_555 1_555
H26 C40 1_555 1_555
C41 C31 1_555 1_555
H27 C41 1_555 1_555
B2 N8 1_555 1_555
C42 C33 1_555 1_555
H28 C42 1_555 1_555
N2 B1 1_555 1_555
C4 C5 1_555 1_555
C8 C12 1_555 1_555
C15 C19 1_555 1_555
C16 C20 1_555 1_555
C18 C21 1_555 1_555
N9 B2 1_555 1_555
C23 C26 1_555 1_555
C34 C42 1_555 1_555
C35 C36 1_555 1_555
C37 C39 1_555 1_555
C37 C40 1_555 1_555
C38 C41 1_555 1_555

#END
