
#######################################################################
#
#                 Cambridge Crystallographic Data Centre
#                                CCDC 
#
#######################################################################
#
# If this CIF has been generated from an entry in the Cambridge 
# Structural Database, then it will include bibliographic, chemical, 
# crystal, experimental, refinement or atomic coordinate data resulting 
# from the CCDC's data processing and validation procedures.
#
#######################################################################

data_IJATUK03
_chemical_formula_moiety         'C16 H11 Br1 N2 O1'
_chemical_name_systematic        N-(5-bromoquinolin-8-yl)benzamide
_symmetry_cell_setting           monoclinic
_symmetry_space_group_name_H-M   'C 2/c'
_symmetry_Int_Tables_number      15
_space_group_name_Hall           '-C 2yn'
loop_
_symmetry_equiv_pos_site_id
_symmetry_equiv_pos_as_xyz
1 x,y,z
2 -x,y,1/2-z
3 1/2+x,1/2+y,z
4 1/2-x,1/2+y,1/2-z
5 -x,-y,-z
6 x,-y,1/2+z
7 1/2-x,1/2-y,-z
8 1/2+x,1/2-y,1/2+z
_cell_length_a                   18.5320(10)
_cell_length_b                   9.3194(4)
_cell_length_c                   16.5329(10)
_cell_angle_alpha                90
_cell_angle_beta                 107.446(6)
_cell_angle_gamma                90
_cell_volume                     2724
_exptl_crystal_colour            colorless
_exptl_crystal_description       block
_cell_formula_units_Z            8
loop_
_atom_site_label
_atom_site_type_symbol
_atom_site_fract_x
_atom_site_fract_y
_atom_site_fract_z
Br1 Br 0.40051(2) -0.05130(4) 0.29226(2)
C1 C 0.61216(19) 0.4768(4) 0.7477(2)
H1 H 0.5798 0.3989 0.7432
C2 C 0.6365(2) 0.5514(4) 0.8225(2)
H2 H 0.6217 0.5220 0.8689
C3 C 0.6827(2) 0.6694(4) 0.8296(3)
H3 H 0.6977 0.7218 0.8797
C4 C 0.70610(19) 0.7086(4) 0.7616(3)
H4 H 0.7376 0.7878 0.7661
C5 C 0.68384(17) 0.6328(4) 0.6869(2)
H5 H 0.7012 0.6595 0.6419
C6 C 0.63555(17) 0.5168(3) 0.6787(2)
C7 C 0.61402(18) 0.4375(3) 0.5964(2)
C8 C 0.51545(17) 0.2731(3) 0.5094(2)
C9 C 0.54667(19) 0.2404(4) 0.4469(2)
H6 H 0.5920 0.2833 0.4469
C10 C 0.51148(19) 0.1430(4) 0.3827(2)
H7 H 0.5334 0.1226 0.3402
C11 C 0.44589(19) 0.0785(3) 0.3818(2)
C12 C 0.41072(17) 0.1068(3) 0.4450(2)
C13 C 0.44570(17) 0.2069(3) 0.5090(2)
C14 C 0.34279(19) 0.0444(4) 0.4491(2)
H8 H 0.3175 -0.0219 0.4084
C15 C 0.31436(19) 0.0819(4) 0.5129(3)
H9 H 0.2698 0.0407 0.5168
C16 C 0.35297(18) 0.1830(4) 0.5727(2)
H10 H 0.3321 0.2087 0.6152
N1 N 0.54660(16) 0.3670(3) 0.57624(19)
H11 H 0.5219(16) 0.375(3) 0.6072(19)
N2 N 0.41649(14) 0.2439(3) 0.57275(17)
O1 O 0.65470(14) 0.4359(3) 0.55078(16)
loop_
_geom_bond_atom_site_label_1
_geom_bond_atom_site_label_2
_geom_bond_site_symmetry_1
_geom_bond_site_symmetry_2
Br1 C11 1_555 1_555
C1 H1 1_555 1_555
C2 C1 1_555 1_555
H2 C2 1_555 1_555
C3 C2 1_555 1_555
H3 C3 1_555 1_555
C4 C3 1_555 1_555
H4 C4 1_555 1_555
C5 C4 1_555 1_555
H5 C5 1_555 1_555
C6 C1 1_555 1_555
C7 C6 1_555 1_555
C8 C9 1_555 1_555
C9 H6 1_555 1_555
C10 C9 1_555 1_555
H7 C10 1_555 1_555
C11 C10 1_555 1_555
C12 C11 1_555 1_555
C13 C8 1_555 1_555
C14 C12 1_555 1_555
H8 C14 1_555 1_555
C15 C14 1_555 1_555
H9 C15 1_555 1_555
C16 C15 1_555 1_555
H10 C16 1_555 1_555
N1 C7 1_555 1_555
H11 N1 1_555 1_555
N2 C13 1_555 1_555
O1 C7 1_555 1_555
C5 C6 1_555 1_555
C8 N1 1_555 1_555
C12 C13 1_555 1_555
C16 N2 1_555 1_555

#END
