
#######################################################################
#
#                 Cambridge Crystallographic Data Centre
#                                CCDC 
#
#######################################################################
#
# If this CIF has been generated from an entry in the Cambridge 
# Structural Database, then it will include bibliographic, chemical, 
# crystal, experimental, refinement or atomic coordinate data resulting 
# from the CCDC's data processing and validation procedures.
#
#######################################################################

data_IJETUO
_chemical_formula_moiety         
'C87 H75 N7 O3,Cl1 1-,C8 H20 N1 1+,C1 H2 Cl2,C4 H10 O1'
_chemical_name_systematic        
"1,1',1''-(Nitrilotriethane-2,1-diyl)tris(3-(4-(triphenylvinyl)phenyl)urea) tetraethylammonium chloride dichloromethane diethyl ether solvate"
_symmetry_cell_setting           monoclinic
_symmetry_space_group_name_H-M   'P 21/n'
_symmetry_Int_Tables_number      14
_space_group_name_Hall           '-P 2yn'
loop_
_symmetry_equiv_pos_site_id
_symmetry_equiv_pos_as_xyz
1 x,y,z
2 1/2-x,1/2+y,1/2-z
3 -x,-y,-z
4 1/2+x,1/2-y,1/2+z
_cell_length_a                   23.826(5)
_cell_length_b                   14.975(3)
_cell_length_c                   26.604(5)
_cell_angle_alpha                90
_cell_angle_beta                 111.883(2)
_cell_angle_gamma                90
_cell_volume                     8808.22
_exptl_crystal_colour            yellow
_exptl_crystal_description       block
_cell_formula_units_Z            4
loop_
_atom_site_label
_atom_site_type_symbol
_atom_site_fract_x
_atom_site_fract_y
_atom_site_fract_z
C1 C 1.0073(2) 0.1688(4) 0.4018(2)
H1 H 0.9888 0.2153 0.3741
H2 H 1.0455 0.1503 0.3981
C2 C 1.02251(19) 0.2096(3) 0.4553(2)
H3 H 1.0470 0.1669 0.4833
H4 H 1.0476 0.2633 0.4576
C3 C 0.95481(17) 0.3205(3) 0.47369(16)
C4 C 0.87838(17) 0.3990(3) 0.50171(15)
C5 C 0.90852(17) 0.4793(3) 0.51921(15)
H5 H 0.9466 0.4895 0.5164
C6 C 0.88283(17) 0.5446(3) 0.54082(15)
H6 H 0.9035 0.5998 0.5516
C7 C 0.82785(17) 0.5325(3) 0.54733(15)
C8 C 0.79707(18) 0.4527(3) 0.52779(17)
H7 H 0.7585 0.4432 0.5298
C9 C 0.82182(18) 0.3872(3) 0.50547(17)
H8 H 0.8000 0.3335 0.4925
C10 C 0.80340(17) 0.6016(3) 0.57451(15)
C11 C 0.78428(17) 0.5812(3) 0.61503(16)
C12 C 0.80300(17) 0.6953(3) 0.55451(16)
C13 C 0.7868(2) 0.7106(3) 0.49861(18)
H9 H 0.7744 0.6619 0.4741
C14 C 0.7885(3) 0.7952(4) 0.4789(2)
H10 H 0.7769 0.8038 0.4410
C15 C 0.8067(2) 0.8675(3) 0.5132(2)
H11 H 0.8081 0.9254 0.4993
C16 C 0.8229(2) 0.8544(3) 0.56816(19)
H12 H 0.8352 0.9039 0.5922
C17 C 0.82120(17) 0.7697(3) 0.58867(16)
H13 H 0.8326 0.7621 0.6266
C18 C 0.75626(19) 0.6486(3) 0.64013(16)
C19 C 0.7001(2) 0.6845(3) 0.61215(19)
H14 H 0.6779 0.6665 0.5759
C20 C 0.6756(2) 0.7480(4) 0.6372(2)
H15 H 0.6365 0.7722 0.6180
C21 C 0.7082(3) 0.7749(3) 0.6894(2)
H16 H 0.6920 0.8188 0.7060
C22 C 0.7635(2) 0.7389(3) 0.7174(2)
H17 H 0.7857 0.7578 0.7535
C23 C 0.7878(2) 0.6751(3) 0.69376(17)
H18 H 0.8260 0.6493 0.7140
C24 C 0.78787(18) 0.4897(3) 0.63822(16)
C25 C 0.7362(2) 0.4534(3) 0.64321(18)
H19 H 0.7003 0.4880 0.6336
C26 C 0.7373(2) 0.3665(3) 0.6623(2)
H20 H 0.7015 0.3415 0.6644
C27 C 0.7893(3) 0.3167(3) 0.6781(2)
H21 H 0.7894 0.2570 0.6903
C28 C 0.8414(2) 0.3538(3) 0.6762(2)
H22 H 0.8780 0.3206 0.6888
C29 C 0.8409(2) 0.4388(3) 0.65620(19)
H23 H 0.8770 0.4632 0.6546
C30 C 1.0001(2) 0.0121(3) 0.4178(2)
H24 H 1.0190 0.0258 0.4569
H25 H 1.0330 -0.0015 0.4047
C31 C 0.96055(17) -0.0700(3) 0.41035(18)
H26 H 0.9504 -0.0938 0.3733
H27 H 0.9831 -0.1167 0.4364
C32 C 0.85005(18) -0.0802(3) 0.38378(16)
C33 C 0.74158(17) -0.0548(3) 0.37190(15)
C34 C 0.70687(17) 0.0010(3) 0.39126(15)
H28 H 0.7251 0.0519 0.4123
C35 C 0.64734(17) -0.0169(3) 0.38032(15)
H29 H 0.6250 0.0213 0.3945
C36 C 0.61854(17) -0.0902(3) 0.34879(15)
C37 C 0.65246(17) -0.1431(3) 0.32704(15)
H30 H 0.6334 -0.1919 0.3043
C38 C 0.71348(17) -0.1261(3) 0.33788(15)
H31 H 0.7356 -0.1624 0.3224
C39 C 0.55384(17) -0.1104(3) 0.33800(16)
C40 C 0.52975(17) -0.1068(3) 0.37672(16)
C41 C 0.56811(17) -0.0985(3) 0.43563(16)
C42 C 0.55392(19) -0.0350(3) 0.46773(18)
H32 H 0.5186 0.0006 0.4524
C43 C 0.5912(2) -0.0237(3) 0.52197(19)
H33 H 0.5819 0.0210 0.5430
C44 C 0.6409(2) -0.0762(4) 0.54491(18)
H34 H 0.6659 -0.0684 0.5820
C45 C 0.6552(2) -0.1411(3) 0.51439(18)
H35 H 0.6897 -0.1780 0.5305
C46 C 0.61873(19) -0.1519(3) 0.46018(17)
H36 H 0.6286 -0.1965 0.4395
C47 C 0.46290(18) -0.1081(3) 0.36300(17)
C48 C 0.4369(2) -0.1654(4) 0.38916(19)
H37 H 0.4613 -0.2071 0.4150
C49 C 0.3746(2) -0.1617(5) 0.3774(2)
H38 H 0.3571 -0.2015 0.3953
C50 C 0.3384(2) -0.1019(5) 0.3407(2)
H39 H 0.2962 -0.1000 0.3331
C51 C 0.3637(2) -0.0453(4) 0.3151(2)
H40 H 0.3387 -0.0036 0.2897
C52 C 0.4254(2) -0.0471(4) 0.32559(19)
H41 H 0.4421 -0.0070 0.3073
C53 C 0.51667(16) -0.1310(3) 0.28026(15)
C54 C 0.48634(18) -0.2112(3) 0.26479(16)
H42 H 0.4879 -0.2546 0.2913
C55 C 0.4538(2) -0.2280(3) 0.21053(17)
H43 H 0.4333 -0.2835 0.2001
C56 C 0.45046(18) -0.1660(3) 0.17148(16)
H44 H 0.4276 -0.1782 0.1344
C57 C 0.48061(19) -0.0858(3) 0.18666(17)
H45 H 0.4782 -0.0421 0.1601
C58 C 0.51414(19) -0.0693(3) 0.24052(17)
H46 H 0.5359 -0.0148 0.2506
C59 C 0.9367(2) 0.0764(4) 0.33115(19)
H47 H 0.9166 0.0174 0.3257
H48 H 0.9676 0.0741 0.3145
C60 C 0.8903(2) 0.1464(4) 0.30215(17)
H49 H 0.9111 0.2023 0.2992
H50 H 0.8661 0.1255 0.2650
C61 C 0.79853(17) 0.2128(3) 0.30678(16)
C62 C 0.71396(17) 0.2802(3) 0.32773(15)
C63 C 0.68263(18) 0.3209(3) 0.27772(16)
H51 H 0.6988 0.3200 0.2501
C64 C 0.62761(18) 0.3627(3) 0.26881(17)
H52 H 0.6064 0.3890 0.2344
C65 C 0.60244(18) 0.3674(3) 0.30810(17)
C66 C 0.63521(19) 0.3293(3) 0.35819(17)
H53 H 0.6200 0.3332 0.3864
C67 C 0.68924(19) 0.2860(3) 0.36773(16)
H54 H 0.7101 0.2596 0.4021
C68 C 0.54235(19) 0.4106(3) 0.29890(17)
C69 C 0.48996(18) 0.3883(3) 0.25800(17)
C70 C 0.48449(18) 0.3171(3) 0.21730(16)
C71 C 0.51208(18) 0.2338(3) 0.23056(18)
H55 H 0.5357 0.2200 0.2672
C72 C 0.5051(2) 0.1710(3) 0.1904(2)
H56 H 0.5243 0.1145 0.2000
C73 C 0.4711(2) 0.1886(4) 0.13708(19)
H57 H 0.4673 0.1452 0.1100
C74 C 0.4426(2) 0.2701(4) 0.12333(18)
H58 H 0.4186 0.2828 0.0866
C75 C 0.44856(19) 0.3328(3) 0.16254(17)
H59 H 0.4280 0.3881 0.1525
C76 C 0.43195(18) 0.4355(3) 0.25075(17)
C77 C 0.38478(19) 0.3887(3) 0.25759(19)
H60 H 0.3891 0.3266 0.2655
C78 C 0.3318(2) 0.4319(3) 0.2530(2)
H61 H 0.3005 0.3997 0.2592
C79 C 0.3239(2) 0.5210(3) 0.2396(2)
H62 H 0.2870 0.5501 0.2358
C80 C 0.3698(2) 0.5679(3) 0.2318(2)
H63 H 0.3646 0.6296 0.2229
C81 C 0.4233(2) 0.5255(3) 0.2371(2)
H64 H 0.4545 0.5583 0.2313
C82 C 0.5443(2) 0.4830(3) 0.3382(2)
C83 C 0.5069(3) 0.4833(4) 0.3681(2)
H65 H 0.4802 0.4348 0.3651
C84 C 0.5090(3) 0.5549(5) 0.4024(3)
H66 H 0.4829 0.5557 0.4221
C85 C 0.5493(3) 0.6251(5) 0.4078(3)
H67 H 0.5517 0.6728 0.4321
C86 C 0.5854(3) 0.6255(4) 0.3782(3)
H68 H 0.6121 0.6741 0.3816
C87 C 0.5833(2) 0.5557(4) 0.3434(2)
H69 H 0.6084 0.5571 0.3228
N1 N 0.96687(14) 0.0920(2) 0.38894(13)
N2 N 0.96980(15) 0.2348(2) 0.46668(15)
H70 H 0.9458 0.1918 0.4693
N3 N 0.90117(14) 0.3265(2) 0.48172(14)
H71 H 0.8781 0.2786 0.4732
N4 N 0.90478(14) -0.0491(2) 0.41882(13)
N5 N 0.80299(14) -0.0329(2) 0.38862(13)
H72 H 0.8130 0.0192 0.4048
N6 N 0.85036(15) 0.1640(2) 0.33114(14)
N7 N 0.76890(15) 0.2338(2) 0.34079(13)
H73 H 0.7863 0.2161 0.3746
O1 O 0.78082(13) 0.2344(2) 0.25911(11)
O2 O 0.84434(13) -0.1425(2) 0.35272(12)
O3 O 0.98607(13) 0.3851(2) 0.47198(13)
C88 C 0.7015(2) 0.0217(4) 0.12464(19)
H74 H 0.7129 -0.0413 0.1346
H75 H 0.6765 0.0232 0.0854
C89 C 0.7580(2) 0.0743(6) 0.1341(2)
H76 H 0.7477 0.1373 0.1259
H77 H 0.7781 0.0516 0.1106
H78 H 0.7852 0.0682 0.1721
C90 C 0.6432(2) 0.1502(3) 0.14215(17)
H79 H 0.6175 0.1676 0.1624
H80 H 0.6796 0.1887 0.1549
C91 C 0.6089(2) 0.1684(3) 0.08274(18)
H81 H 0.6343 0.1532 0.0623
H82 H 0.5980 0.2318 0.0776
H83 H 0.5720 0.1321 0.0698
C92 C 0.6073(2) -0.0049(3) 0.14022(19)
H84 H 0.5869 -0.0038 0.1003
H85 H 0.5792 0.0216 0.1556
C93 C 0.6182(3) -0.1013(3) 0.1582(2)
H86 H 0.6419 -0.1308 0.1398
H87 H 0.5793 -0.1319 0.1491
H88 H 0.6404 -0.1037 0.1975
C94 C 0.7007(2) 0.0490(3) 0.21619(16)
H89 H 0.7181 -0.0117 0.2248
H90 H 0.7348 0.0916 0.2245
C95 C 0.6666(2) 0.0695(4) 0.25272(18)
H91 H 0.6469 0.1279 0.2431
H92 H 0.6949 0.0705 0.2905
H93 H 0.6359 0.0235 0.2482
N8 N 0.66287(15) 0.0537(2) 0.15571(13)
C96 C 0.5022(3) 0.1914(4) 0.3873(2)
H94 H 0.4903 0.2370 0.3589
H95 H 0.4708 0.1453 0.3786
H96 H 0.5405 0.1643 0.3897
C97 C 0.5097(4) 0.2330(8) 0.4397(5)
H97 H 0.4725 0.2652 0.4375
H98 H 0.5196 0.1877 0.4688
C98 C 0.5643(9) 0.3454(11) 0.4935(4)
H99 H 0.5645 0.3080 0.5242
H100 H 0.5319 0.3908 0.4850
C99 C 0.6325(4) 0.3910(8) 0.5043(3)
H101 H 0.6471 0.3702 0.4764
H102 H 0.6612 0.3731 0.5400
H103 H 0.6289 0.4562 0.5027
O4 O 0.5603(3) 0.2953(4) 0.4490(2)
C100 C 0.2573(3) 0.9075(5) 0.4692(3)
H104 H 0.2786 0.9656 0.4779
H105 H 0.2279 0.9061 0.4873
Cl1 Cl 0.30959(11) 0.82437(17) 0.49650(9)
Cl2 Cl 0.21678(8) 0.90299(16) 0.39862(7)
Cl3 Cl 0.84823(5) 0.13159(7) 0.46609(4)
loop_
_geom_bond_atom_site_label_1
_geom_bond_atom_site_label_2
_geom_bond_site_symmetry_1
_geom_bond_site_symmetry_2
C1 H1 1_555 1_555
H2 C1 1_555 1_555
C2 C1 1_555 1_555
H3 C2 1_555 1_555
H4 C2 1_555 1_555
C3 N2 1_555 1_555
C4 C5 1_555 1_555
C5 H5 1_555 1_555
C6 C5 1_555 1_555
H6 C6 1_555 1_555
C7 C6 1_555 1_555
C8 C7 1_555 1_555
H7 C8 1_555 1_555
C9 C4 1_555 1_555
H8 C9 1_555 1_555
C10 C7 1_555 1_555
C11 C10 1_555 1_555
C12 C10 1_555 1_555
C13 C12 1_555 1_555
H9 C13 1_555 1_555
C14 C13 1_555 1_555
H10 C14 1_555 1_555
C15 C14 1_555 1_555
H11 C15 1_555 1_555
C16 C15 1_555 1_555
H12 C16 1_555 1_555
C17 C12 1_555 1_555
H13 C17 1_555 1_555
C18 C11 1_555 1_555
C19 C18 1_555 1_555
H14 C19 1_555 1_555
C20 C19 1_555 1_555
H15 C20 1_555 1_555
C21 C20 1_555 1_555
H16 C21 1_555 1_555
C22 C21 1_555 1_555
H17 C22 1_555 1_555
C23 C18 1_555 1_555
H18 C23 1_555 1_555
C24 C11 1_555 1_555
C25 C24 1_555 1_555
H19 C25 1_555 1_555
C26 C25 1_555 1_555
H20 C26 1_555 1_555
C27 C26 1_555 1_555
H21 C27 1_555 1_555
C28 C27 1_555 1_555
H22 C28 1_555 1_555
C29 C24 1_555 1_555
H23 C29 1_555 1_555
C30 H24 1_555 1_555
H25 C30 1_555 1_555
C31 C30 1_555 1_555
H26 C31 1_555 1_555
H27 C31 1_555 1_555
C32 N4 1_555 1_555
C33 C34 1_555 1_555
C34 H28 1_555 1_555
C35 C34 1_555 1_555
H29 C35 1_555 1_555
C36 C35 1_555 1_555
C37 C36 1_555 1_555
H30 C37 1_555 1_555
C38 C33 1_555 1_555
H31 C38 1_555 1_555
C39 C36 1_555 1_555
C40 C39 1_555 1_555
C41 C40 1_555 1_555
C42 C41 1_555 1_555
H32 C42 1_555 1_555
C43 C42 1_555 1_555
H33 C43 1_555 1_555
C44 C43 1_555 1_555
H34 C44 1_555 1_555
C45 C44 1_555 1_555
H35 C45 1_555 1_555
C46 C41 1_555 1_555
H36 C46 1_555 1_555
C47 C40 1_555 1_555
C48 C47 1_555 1_555
H37 C48 1_555 1_555
C49 C48 1_555 1_555
H38 C49 1_555 1_555
C50 C49 1_555 1_555
H39 C50 1_555 1_555
C51 C50 1_555 1_555
H40 C51 1_555 1_555
C52 C47 1_555 1_555
H41 C52 1_555 1_555
C53 C39 1_555 1_555
C54 C53 1_555 1_555
H42 C54 1_555 1_555
C55 C54 1_555 1_555
H43 C55 1_555 1_555
C56 C55 1_555 1_555
H44 C56 1_555 1_555
C57 C56 1_555 1_555
H45 C57 1_555 1_555
C58 C53 1_555 1_555
H46 C58 1_555 1_555
C59 H47 1_555 1_555
H48 C59 1_555 1_555
C60 C59 1_555 1_555
H49 C60 1_555 1_555
H50 C60 1_555 1_555
C61 N6 1_555 1_555
C62 C63 1_555 1_555
C63 H51 1_555 1_555
C64 C63 1_555 1_555
H52 C64 1_555 1_555
C65 C64 1_555 1_555
C66 C65 1_555 1_555
H53 C66 1_555 1_555
C67 C62 1_555 1_555
H54 C67 1_555 1_555
C68 C65 1_555 1_555
C69 C68 1_555 1_555
C70 C69 1_555 1_555
C71 C70 1_555 1_555
H55 C71 1_555 1_555
C72 C71 1_555 1_555
H56 C72 1_555 1_555
C73 C72 1_555 1_555
H57 C73 1_555 1_555
C74 C73 1_555 1_555
H58 C74 1_555 1_555
C75 C70 1_555 1_555
H59 C75 1_555 1_555
C76 C69 1_555 1_555
C77 C76 1_555 1_555
H60 C77 1_555 1_555
C78 C77 1_555 1_555
H61 C78 1_555 1_555
C79 C78 1_555 1_555
H62 C79 1_555 1_555
C80 C79 1_555 1_555
H63 C80 1_555 1_555
C81 C76 1_555 1_555
H64 C81 1_555 1_555
C82 C68 1_555 1_555
C83 C82 1_555 1_555
H65 C83 1_555 1_555
C84 C83 1_555 1_555
H66 C84 1_555 1_555
C85 C84 1_555 1_555
H67 C85 1_555 1_555
C86 C85 1_555 1_555
H68 C86 1_555 1_555
C87 C82 1_555 1_555
H69 C87 1_555 1_555
N1 C1 1_555 1_555
N2 C2 1_555 1_555
H70 N2 1_555 1_555
N3 C3 1_555 1_555
H71 N3 1_555 1_555
N4 C31 1_555 1_555
N5 C32 1_555 1_555
H72 N5 1_555 1_555
N6 C60 1_555 1_555
N7 C61 1_555 1_555
H73 N7 1_555 1_555
O1 C61 1_555 1_555
O2 C32 1_555 1_555
O3 C3 1_555 1_555
C88 H74 1_555 1_555
H75 C88 1_555 1_555
C89 C88 1_555 1_555
H76 C89 1_555 1_555
H77 C89 1_555 1_555
H78 C89 1_555 1_555
C90 H79 1_555 1_555
H80 C90 1_555 1_555
C91 C90 1_555 1_555
H81 C91 1_555 1_555
H82 C91 1_555 1_555
H83 C91 1_555 1_555
C92 H84 1_555 1_555
H85 C92 1_555 1_555
C93 C92 1_555 1_555
H86 C93 1_555 1_555
H87 C93 1_555 1_555
H88 C93 1_555 1_555
C94 H89 1_555 1_555
H90 C94 1_555 1_555
C95 C94 1_555 1_555
H91 C95 1_555 1_555
H92 C95 1_555 1_555
H93 C95 1_555 1_555
N8 C88 1_555 1_555
C96 H94 1_555 1_555
H95 C96 1_555 1_555
H96 C96 1_555 1_555
C97 C96 1_555 1_555
H97 C97 1_555 1_555
H98 C97 1_555 1_555
C98 H99 1_555 1_555
H100 C98 1_555 1_555
C99 C98 1_555 1_555
H101 C99 1_555 1_555
H102 C99 1_555 1_555
H103 C99 1_555 1_555
O4 C97 1_555 1_555
C100 H104 1_555 1_555
H105 C100 1_555 1_555
Cl1 C100 1_555 1_555
Cl2 C100 1_555 1_555
C4 N3 1_555 1_555
C8 C9 1_555 1_555
C16 C17 1_555 1_555
C22 C23 1_555 1_555
C28 C29 1_555 1_555
C30 N1 1_555 1_555
C33 N5 1_555 1_555
C37 C38 1_555 1_555
C45 C46 1_555 1_555
C51 C52 1_555 1_555
C57 C58 1_555 1_555
C59 N1 1_555 1_555
C62 N7 1_555 1_555
C66 C67 1_555 1_555
C74 C75 1_555 1_555
C80 C81 1_555 1_555
C86 C87 1_555 1_555
C90 N8 1_555 1_555
C92 N8 1_555 1_555
C94 N8 1_555 1_555
C98 O4 1_555 1_555

#END
