
#######################################################################
#
#                 Cambridge Crystallographic Data Centre
#                                CCDC 
#
#######################################################################
#
# If this CIF has been generated from an entry in the Cambridge 
# Structural Database, then it will include bibliographic, chemical, 
# crystal, experimental, refinement or atomic coordinate data resulting 
# from the CCDC's data processing and validation procedures.
#
#######################################################################

data_IJOKAT
_chemical_formula_moiety         'C48 H50 N6 O8 2+,2(Cl1 O4 1-),C2 H3 N1'
_chemical_name_systematic        
"N,N,N',N'-tetrakis(3-(1,3-dioxo-1,3-dihydroisoindol-2-yl)propyl)-1,4-butanediammonium diperchlorate acetonitrile solvate"
_symmetry_cell_setting           orthorhombic
_symmetry_space_group_name_H-M   'P n n a'
_symmetry_Int_Tables_number      52
_space_group_name_Hall           '-P 2a 2bc'
loop_
_symmetry_equiv_pos_site_id
_symmetry_equiv_pos_as_xyz
1 x,y,z
2 1/2-x,-y,z
3 1/2-x,1/2+y,1/2-z
4 x,1/2-y,1/2-z
5 -x,-y,-z
6 1/2+x,y,-z
7 1/2+x,1/2-y,1/2+z
8 -x,1/2+y,1/2+z
_cell_length_a                   24.886(5)
_cell_length_b                   25.703(4)
_cell_length_c                   7.8245(11)
_cell_angle_alpha                90
_cell_angle_beta                 90
_cell_angle_gamma                90
_cell_volume                     5004.9
_exptl_crystal_description       'platy needles'
_cell_formula_units_Z            4
loop_
_atom_site_label
_atom_site_type_symbol
_atom_site_fract_x
_atom_site_fract_y
_atom_site_fract_z
C1 C 0.5244(3) 0.0145(3) 0.9619(10)
H1 H 0.5455(3) 0.0300(3) 1.0544(10)
H2 H 0.5474(3) -0.0103(3) 0.9013(10)
C2 C 0.5066(3) 0.0566(3) 0.8397(11)
H3 H 0.4860(3) 0.0407(3) 0.7468(11)
H4 H 0.4827(3) 0.0807(3) 0.9004(11)
N1 N 0.5525(2) 0.0872(2) 0.7638(9)
H5 H 0.5386(2) 0.1079(2) 0.6788(9)
C3 C 0.5925(3) 0.0497(3) 0.6807(11)
H6 H 0.5727(3) 0.0205(3) 0.6304(11)
H7 H 0.6164(3) 0.0357(3) 0.7689(11)
C4 C 0.6264(3) 0.0757(3) 0.5414(11)
H8 H 0.6034(3) 0.0942(3) 0.4598(11)
H9 H 0.6517(3) 0.1005(3) 0.5918(11)
C5 C 0.6560(3) 0.0318(3) 0.4546(11)
H10 H 0.6721(3) 0.0094(3) 0.5422(11)
H11 H 0.6301(3) 0.0107(3) 0.3902(11)
N2 N 0.6980(3) 0.0494(3) 0.3388(8)
C6 C 0.6940(3) 0.0488(3) 0.1590(12)
O5 O 0.6542(2) 0.0358(2) 0.0807(7)
C7 C 0.7475(3) 0.0659(3) 0.0974(11)
C8 C 0.7654(3) 0.0696(4) -0.0691(12)
H12 H 0.7433(3) 0.0611(4) -0.1624(12)
C9 C 0.8177(4) 0.0865(4) -0.0911(16)
H13 H 0.8309(4) 0.0904(4) -0.2030(16)
C10 C 0.8512(4) 0.0978(4) 0.0426(14)
H14 H 0.8866(4) 0.1087(4) 0.0217(14)
C11 C 0.8323(3) 0.0929(3) 0.2136(15)
H15 H 0.8546(3) 0.1004(3) 0.3074(15)
C12 C 0.7793(3) 0.0765(3) 0.2362(12)
C13 C 0.7481(3) 0.0665(3) 0.3918(13)
O6 O 0.7612(3) 0.0704(2) 0.5400(8)
C14 C 0.5794(3) 0.1227(3) 0.8941(12)
H16 H 0.5849(3) 0.1037(3) 1.0012(12)
H17 H 0.6146(3) 0.1337(3) 0.8511(12)
C15 C 0.5447(4) 0.1702(3) 0.9272(14)
H18 H 0.5083(4) 0.1589(3) 0.9575(14)
H19 H 0.5424(4) 0.1910(3) 0.8225(14)
C16 C 0.5674(4) 0.2040(4) 1.0716(13)
H20 H 0.5448(4) 0.2350(4) 1.0832(13)
H21 H 0.5649(4) 0.1845(4) 1.1789(13)
N3 N 0.6220(4) 0.2204(3) 1.0486(10)
C17 C 0.6377(4) 0.2666(3) 0.9563(11)
O7 O 0.6059(3) 0.2971(2) 0.9039(11)
C18 C 0.6965(5) 0.2679(3) 0.9600(13)
C19 C 0.7317(5) 0.3043(4) 0.9009(15)
H22 H 0.7193(5) 0.3350(4) 0.8483(15)
C20 C 0.7862(6) 0.2951(4) 0.9201(16)
H23 H 0.8113(6) 0.3182(4) 0.8725(16)
C21 C 0.8044(5) 0.2501(5) 1.0129(20)
H24 H 0.8413(5) 0.2448(5) 1.0309(20)
C22 C 0.7669(5) 0.2141(4) 1.0765(15)
H25 H 0.7783(5) 0.1840(4) 1.1341(15)
C23 C 0.7150(4) 0.2239(3) 1.0529(14)
C24 C 0.6671(5) 0.1943(3) 1.1044(13)
O8 O 0.6647(4) 0.1545(3) 1.1902(10)
C1D C 0.4756(3) -0.0145(3) 1.0381(10)
H1D H 0.4545(3) -0.0300(3) 0.9456(10)
H2D H 0.4526(3) 0.0103(3) 1.0987(10)
C2D C 0.4934(3) -0.0566(3) 1.1603(11)
H3D H 0.5140(3) -0.0407(3) 1.2532(11)
H4D H 0.5173(3) -0.0807(3) 1.0996(11)
N1D N 0.4475(2) -0.0872(2) 1.2362(9)
H5D H 0.4614(2) -0.1079(2) 1.3212(9)
C3D C 0.4075(3) -0.0497(3) 1.3193(11)
H6D H 0.4273(3) -0.0205(3) 1.3696(11)
H7D H 0.3836(3) -0.0357(3) 1.2311(11)
C4D C 0.3736(3) -0.0757(3) 1.4586(11)
H8D H 0.3966(3) -0.0942(3) 1.5402(11)
H9D H 0.3483(3) -0.1005(3) 1.4082(11)
C5D C 0.3440(3) -0.0318(3) 1.5454(11)
H10D H 0.3279(3) -0.0094(3) 1.4578(11)
H11D H 0.3699(3) -0.0107(3) 1.6098(11)
N2D N 0.3020(3) -0.0494(3) 1.6612(8)
C6D C 0.3060(3) -0.0488(3) 1.8410(12)
O5D O 0.3458(2) -0.0358(2) 1.9193(7)
C7D C 0.2525(3) -0.0659(3) 1.9026(11)
C8D C 0.2346(3) -0.0696(4) 2.0691(12)
H12D H 0.2567(3) -0.0611(4) 2.1624(12)
C9D C 0.1823(4) -0.0865(4) 2.0911(16)
H13D H 0.1691(4) -0.0904(4) 2.2030(16)
C10D C 0.1488(4) -0.0978(4) 1.9574(14)
H14D H 0.1134(4) -0.1087(4) 1.9783(14)
C11D C 0.1677(3) -0.0929(3) 1.7864(15)
H15D H 0.1454(3) -0.1004(3) 1.6926(15)
C12D C 0.2207(3) -0.0765(3) 1.7638(12)
C13D C 0.2519(3) -0.0665(3) 1.6082(13)
O6D O 0.2388(3) -0.0704(2) 1.4600(8)
C14D C 0.4206(3) -0.1227(3) 1.1059(12)
H16D H 0.4151(3) -0.1037(3) 0.9988(12)
H17D H 0.3854(3) -0.1337(3) 1.1489(12)
C15D C 0.4553(4) -0.1702(3) 1.0728(14)
H18D H 0.4917(4) -0.1589(3) 1.0425(14)
H19D H 0.4576(4) -0.1910(3) 1.1775(14)
C16D C 0.4326(4) -0.2040(4) 0.9284(13)
H20D H 0.4552(4) -0.2350(4) 0.9168(13)
H21D H 0.4351(4) -0.1845(4) 0.8211(13)
N3D N 0.3780(4) -0.2204(3) 0.9514(10)
C17D C 0.3623(4) -0.2666(3) 1.0437(11)
O7D O 0.3941(3) -0.2971(2) 1.0961(11)
C18D C 0.3035(5) -0.2679(3) 1.0400(13)
C19D C 0.2683(5) -0.3043(4) 1.0991(15)
H22D H 0.2807(5) -0.3350(4) 1.1517(15)
C20D C 0.2138(6) -0.2951(4) 1.0799(16)
H23D H 0.1887(6) -0.3182(4) 1.1275(16)
C21D C 0.1956(5) -0.2501(5) 0.9871(20)
H24D H 0.1587(5) -0.2448(5) 0.9691(20)
C22D C 0.2331(5) -0.2141(4) 0.9235(15)
H25D H 0.2217(5) -0.1840(4) 0.8659(15)
C23D C 0.2850(4) -0.2239(3) 0.9471(14)
C24D C 0.3329(5) -0.1943(3) 0.8956(13)
O8D O 0.3353(4) -0.1545(3) 0.8098(10)
Cl1 Cl 0.46562(11) 0.10482(12) 1.3887(3)
O1 O 0.4906(4) 0.1390(3) 1.5009(12)
O2 O 0.4123(5) 0.0948(9) 1.4183(21)
O3 O 0.4718(7) 0.1185(6) 1.2184(14)
O4 O 0.4959(6) 0.0546(4) 1.4080(18)
O9? O 0.4427(13) 0.1366(11) 1.2575(33)
O10? O 0.5055(11) 0.0732(12) 1.3133(45)
O11? O 0.4262(9) 0.0759(9) 1.4676(33)
N4? N 0.4379(27) 0.2551(26) 0.9728(90)
C25? C 0.4230(35) 0.3041(36) 0.759(12)
C26? C 0.4391(33) 0.2500 0.7500
C27? C 0.3762(55) 0.2500 1.2500
C28? C 0.4299(56) 0.2247(50) 1.246(22)
loop_
_geom_bond_atom_site_label_1
_geom_bond_atom_site_label_2
_geom_bond_site_symmetry_1
_geom_bond_site_symmetry_2
Cl1 O1 1_555 1_555
O2 Cl1 1_555 1_555
O3 Cl1 1_555 1_555
O4 Cl1 1_555 1_555
C1 H1 1_555 1_555
H2 C1 1_555 1_555
C2 C1 1_555 1_555
H3 C2 1_555 1_555
H4 C2 1_555 1_555
N1 C2 1_555 1_555
H5 N1 1_555 1_555
C3 N1 1_555 1_555
H6 C3 1_555 1_555
H7 C3 1_555 1_555
C4 C3 1_555 1_555
H8 C4 1_555 1_555
H9 C4 1_555 1_555
C5 C4 1_555 1_555
H10 C5 1_555 1_555
H11 C5 1_555 1_555
N2 C5 1_555 1_555
C6 N2 1_555 1_555
O5 C6 1_555 1_555
C7 C6 1_555 1_555
C8 C7 1_555 1_555
H12 C8 1_555 1_555
C9 C8 1_555 1_555
H13 C9 1_555 1_555
C10 C9 1_555 1_555
H14 C10 1_555 1_555
C11 C10 1_555 1_555
H15 C11 1_555 1_555
C12 C7 1_555 1_555
C13 N2 1_555 1_555
O6 C13 1_555 1_555
C14 N1 1_555 1_555
H16 C14 1_555 1_555
H17 C14 1_555 1_555
C15 C14 1_555 1_555
H18 C15 1_555 1_555
H19 C15 1_555 1_555
C16 C15 1_555 1_555
H20 C16 1_555 1_555
H21 C16 1_555 1_555
N3 C16 1_555 1_555
C17 N3 1_555 1_555
O7 C17 1_555 1_555
C18 C17 1_555 1_555
C19 C18 1_555 1_555
H22 C19 1_555 1_555
C20 C19 1_555 1_555
H23 C20 1_555 1_555
C21 C20 1_555 1_555
H24 C21 1_555 1_555
C22 C21 1_555 1_555
H25 C22 1_555 1_555
C23 C18 1_555 1_555
C24 N3 1_555 1_555
O8 C24 1_555 1_555
C1D C1 1_555 1_555
H1D C1D 1_555 1_555
H2D C1D 1_555 1_555
C2D C1D 1_555 1_555
H3D C2D 1_555 1_555
H4D C2D 1_555 1_555
N1D C2D 1_555 1_555
H5D N1D 1_555 1_555
C3D N1D 1_555 1_555
H6D C3D 1_555 1_555
H7D C3D 1_555 1_555
C4D C3D 1_555 1_555
H8D C4D 1_555 1_555
H9D C4D 1_555 1_555
C5D C4D 1_555 1_555
H10D C5D 1_555 1_555
H11D C5D 1_555 1_555
N2D C5D 1_555 1_555
C6D N2D 1_555 1_555
O5D C6D 1_555 1_555
C7D C6D 1_555 1_555
C8D C7D 1_555 1_555
H12D C8D 1_555 1_555
C9D C8D 1_555 1_555
H13D C9D 1_555 1_555
C10D C9D 1_555 1_555
H14D C10D 1_555 1_555
C11D C10D 1_555 1_555
H15D C11D 1_555 1_555
C12D C7D 1_555 1_555
C13D N2D 1_555 1_555
O6D C13D 1_555 1_555
C14D N1D 1_555 1_555
H16D C14D 1_555 1_555
H17D C14D 1_555 1_555
C15D C14D 1_555 1_555
H18D C15D 1_555 1_555
H19D C15D 1_555 1_555
C16D C15D 1_555 1_555
H20D C16D 1_555 1_555
H21D C16D 1_555 1_555
N3D C16D 1_555 1_555
C17D N3D 1_555 1_555
O7D C17D 1_555 1_555
C18D C17D 1_555 1_555
C19D C18D 1_555 1_555
H22D C19D 1_555 1_555
C20D C19D 1_555 1_555
H23D C20D 1_555 1_555
C21D C20D 1_555 1_555
H24D C21D 1_555 1_555
C22D C21D 1_555 1_555
H25D C22D 1_555 1_555
C23D C18D 1_555 1_555
C24D N3D 1_555 1_555
O8D C24D 1_555 1_555
C11 C12 1_555 1_555
C12 C13 1_555 1_555
C22 C23 1_555 1_555
C23 C24 1_555 1_555
C11D C12D 1_555 1_555
C12D C13D 1_555 1_555
C22D C23D 1_555 1_555
C23D C24D 1_555 1_555

#END
