
#######################################################################
#
#                 Cambridge Crystallographic Data Centre
#                                CCDC 
#
#######################################################################
#
# If this CIF has been generated from an entry in the Cambridge 
# Structural Database, then it will include bibliographic, chemical, 
# crystal, experimental, refinement or atomic coordinate data resulting 
# from the CCDC's data processing and validation procedures.
#
#######################################################################

data_IJOKEX
_chemical_formula_moiety         'C6 H14 N3 O1 1+,C8 H5 N2 O2 1-,H2 O1'
_chemical_name_systematic        
'4-(2-Ammonioethyl)piperazin-2-one 1,4-dioxo-2-hydrophthalazinate monohydrate'
_symmetry_cell_setting           monoclinic
_symmetry_space_group_name_H-M   'P 21/c'
_symmetry_Int_Tables_number      14
_space_group_name_Hall           '-P 2ybc'
loop_
_symmetry_equiv_pos_site_id
_symmetry_equiv_pos_as_xyz
1 x,y,z
2 -x,1/2+y,1/2-z
3 -x,-y,-z
4 x,1/2-y,1/2+z
_cell_length_a                   15.118(2)
_cell_length_b                   7.5899(15)
_cell_length_c                   14.969(3)
_cell_angle_alpha                90
_cell_angle_beta                 113.894(10)
_cell_angle_gamma                90
_cell_volume                     1570.4
_exptl_crystal_colour            yellow
_exptl_crystal_description       prisms
_cell_formula_units_Z            4
loop_
_atom_site_label
_atom_site_type_symbol
_atom_site_fract_x
_atom_site_fract_y
_atom_site_fract_z
N1 N 0.90465(12) 0.1587(2) 0.44955(13)
H1 H 0.91585(12) 0.0522(2) 0.47081(13)
N2 N 0.81908(12) 0.2323(2) 0.44532(13)
C1 C 0.79869(14) 0.3935(3) 0.41073(15)
O1 O 0.72078(11) 0.4667(2) 0.40717(13)
C2 C 0.86420(14) 0.4889(3) 0.37731(13)
C3 C 0.8432(2) 0.6603(3) 0.3397(2)
H2 H 0.7862(2) 0.7149(3) 0.3341(2)
C4 C 0.9068(2) 0.7473(3) 0.3111(2)
H3 H 0.8924(2) 0.8608(3) 0.2860(2)
C5 C 0.9927(2) 0.6681(3) 0.3192(2)
H4 H 1.0353(2) 0.7288(3) 0.2997(2)
C6 C 1.0147(2) 0.5007(3) 0.35590(15)
H5 H 1.0723(2) 0.4480(3) 0.36162(15)
C7 C 0.95022(13) 0.4094(3) 0.38473(13)
C8 C 0.97192(14) 0.2320(3) 0.42483(14)
O2 O 1.04808(10) 0.1493(2) 0.43627(12)
N3 N 0.47268(13) -0.0297(3) 0.13032(15)
H6 H 0.41771(13) -0.0737(3) 0.12285(15)
C9 C 0.53527(15) -0.1359(3) 0.1169(2)
O3 O 0.51754(12) -0.2933(2) 0.09317(13)
C10 C 0.63307(15) -0.0612(3) 0.1338(2)
H7 H 0.67979(15) -0.1021(3) 0.1966(2)
H8 H 0.65260(15) -0.1063(3) 0.0839(2)
N4 N 0.63557(12) 0.1300(2) 0.13227(12)
C11 C 0.5949(2) 0.1995(4) 0.1984(2)
H9 H 0.6042(2) 0.3261(4) 0.2049(2)
H10 H 0.6270(2) 0.1467(4) 0.2625(2)
C12 C 0.4889(2) 0.1566(4) 0.1568(2)
H11 H 0.4627(2) 0.1840(4) 0.2046(2)
H12 H 0.4553(2) 0.2285(4) 0.0993(2)
C13 C 0.73300(15) 0.1948(3) 0.1533(2)
H13 H 0.76199(15) 0.1229(3) 0.1188(2)
H14 H 0.77240(15) 0.1835(3) 0.2228(2)
C14 C 0.7325(2) 0.3852(3) 0.1234(2)
H15 H 0.7011(2) 0.4569(3) 0.1557(2)
H16 H 0.7985(2) 0.4264(3) 0.1440(2)
N5 N 0.68091(13) 0.4057(2) 0.01621(14)
H17 H 0.68149(13) 0.5185(2) 0.00025(14)
H18 H 0.62002(13) 0.3695(2) -0.00258(14)
H19 H 0.71023(13) 0.3413(2) -0.01347(14)
O4 O 0.75669(13) 0.7348(2) 0.0139(2)
H20 H 0.7410(24) 0.8286(27) -0.0264(19)
H21 H 0.8203(5) 0.7161(42) 0.0315(22)
loop_
_geom_bond_atom_site_label_1
_geom_bond_atom_site_label_2
_geom_bond_site_symmetry_1
_geom_bond_site_symmetry_2
N1 H1 1_555 1_555
N2 N1 1_555 1_555
C1 N2 1_555 1_555
O1 C1 1_555 1_555
C2 C1 1_555 1_555
C3 C2 1_555 1_555
H2 C3 1_555 1_555
C4 C3 1_555 1_555
H3 C4 1_555 1_555
C5 C4 1_555 1_555
H4 C5 1_555 1_555
C6 C5 1_555 1_555
H5 C6 1_555 1_555
C7 C2 1_555 1_555
C8 N1 1_555 1_555
O2 C8 1_555 1_555
N3 H6 1_555 1_555
C9 N3 1_555 1_555
O3 C9 1_555 1_555
C10 C9 1_555 1_555
H7 C10 1_555 1_555
H8 C10 1_555 1_555
N4 C10 1_555 1_555
C11 N4 1_555 1_555
H9 C11 1_555 1_555
H10 C11 1_555 1_555
C12 N3 1_555 1_555
H11 C12 1_555 1_555
H12 C12 1_555 1_555
C13 N4 1_555 1_555
H13 C13 1_555 1_555
H14 C13 1_555 1_555
C14 C13 1_555 1_555
H15 C14 1_555 1_555
H16 C14 1_555 1_555
N5 C14 1_555 1_555
H17 N5 1_555 1_555
H18 N5 1_555 1_555
H19 N5 1_555 1_555
O4 H20 1_555 1_555
H21 O4 1_555 1_555
C6 C7 1_555 1_555
C7 C8 1_555 1_555
C11 C12 1_555 1_555

#END
