
#######################################################################
#
#                 Cambridge Crystallographic Data Centre
#                                CCDC 
#
#######################################################################
#
# If this CIF has been generated from an entry in the Cambridge 
# Structural Database, then it will include bibliographic, chemical, 
# crystal, experimental, refinement or atomic coordinate data resulting 
# from the CCDC's data processing and validation procedures.
#
#######################################################################

data_IJUFID
_chemical_formula_moiety         'C16 H12 N2 O2 S1'
_chemical_name_systematic        
3-Hydroxy-N'-(2-thienylmethylene)-2-naphthohydrazide
_symmetry_cell_setting           orthorhombic
_symmetry_space_group_name_H-M   'P n a 21'
_symmetry_Int_Tables_number      33
_space_group_name_Hall           'P 2c -2n'
loop_
_symmetry_equiv_pos_site_id
_symmetry_equiv_pos_as_xyz
1 x,y,z
2 -x,-y,1/2+z
3 1/2+x,1/2-y,z
4 1/2-x,1/2+y,1/2+z
_cell_length_a                   19.8191(16)
_cell_length_b                   6.2487(5)
_cell_length_c                   33.947(3)
_cell_angle_alpha                90
_cell_angle_beta                 90
_cell_angle_gamma                90
_cell_volume                     4204.12
_exptl_crystal_colour            yellow
_exptl_crystal_description       block
_cell_formula_units_Z            12
loop_
_atom_site_label
_atom_site_type_symbol
_atom_site_fract_x
_atom_site_fract_y
_atom_site_fract_z
C1 C 0.1250(3) 1.3649(9) 0.3320(2)
H1 H 0.1041 1.4728 0.3465
C2 C 0.1214(3) 1.3474(9) 0.2938(2)
H2 H 0.0986 1.4477 0.2785
C3 C 0.1535(2) 1.1707(8) 0.27682(17)
H3 H 0.1533 1.1341 0.2503
C4 C 0.1862(3) 1.0582(9) 0.30730(18)
C5 C 0.2286(3) 0.8714(9) 0.30409(19)
H4 H 0.2388 0.8180 0.2792
C6 C 0.3225(3) 0.4907(9) 0.35439(19)
C7 C 0.3623(3) 0.2970(8) 0.34149(16)
C8 C 0.3623(3) 0.2105(8) 0.30317(18)
C9 C 0.3998(3) 0.0317(8) 0.29514(19)
H5 H 0.3989 -0.0254 0.2698
C10 C 0.4393(3) -0.0666(9) 0.32362(19)
C11 C 0.4776(3) -0.2522(10) 0.3153(2)
H6 H 0.4769 -0.3107 0.2901
C12 C 0.5149(3) -0.3436(11) 0.3434(2)
H7 H 0.5397 -0.4657 0.3375
C13 C 0.5173(3) -0.2589(13) 0.3819(2)
H8 H 0.5430 -0.3244 0.4014
C14 C 0.4813(3) -0.0799(11) 0.3897(2)
H9 H 0.4836 -0.0205 0.4148
C15 C 0.4410(3) 0.0179(10) 0.36158(19)
C16 C 0.4021(3) 0.1999(9) 0.36920(17)
H10 H 0.4032 0.2579 0.3944
N1 N 0.2524(2) 0.7774(8) 0.33437(14)
N2 N 0.2909(2) 0.5966(7) 0.32609(14)
H21 H 0.2943 0.5528 0.3022
O1 O 0.31792(19) 0.5390(6) 0.38926(11)
O3 O 0.32458(17) 0.3078(5) 0.27397(10)
H23 H 0.3139 0.2188 0.2574
S1 S 0.17219(9) 1.1672(3) 0.35224(5)
C17 C 0.4184(3) 1.8592(9) 0.5359(2)
H11 H 0.4346 1.9553 0.5545
C18 C 0.4305(3) 1.8749(10) 0.4964(2)
H12 H 0.4572 1.9798 0.4848
C19 C 0.3980(2) 1.7149(9) 0.47596(17)
H13 H 0.3994 1.7044 0.4486
C20 C 0.3635(2) 1.5730(8) 0.49900(16)
C21 C 0.3271(3) 1.3905(8) 0.48448(16)
H14 H 0.3261 1.3596 0.4577
C22 C 0.2277(3) 0.9641(9) 0.51485(17)
C23 C 0.1955(2) 0.7777(8) 0.49573(14)
C24 C 0.2039(2) 0.7167(8) 0.45615(16)
C25 C 0.1721(3) 0.5405(9) 0.44212(16)
H15 H 0.1794 0.5006 0.4161
C26 C 0.1280(3) 0.4142(8) 0.46550(17)
C27 C 0.0939(3) 0.2328(9) 0.45136(18)
H16 H 0.0990 0.1920 0.4252
C28 C 0.0541(3) 0.1183(9) 0.47519(19)
H17 H 0.0310 0.0003 0.4654
C29 C 0.0470(2) 0.1750(9) 0.51481(19)
H18 H 0.0196 0.0923 0.5311
C30 C 0.0790(3) 0.3478(8) 0.53006(16)
H19 H 0.0735 0.3849 0.5564
C31 C 0.1208(2) 0.4700(8) 0.50523(16)
C32 C 0.1555(2) 0.6543(8) 0.51967(15)
H20 H 0.1508 0.6918 0.5460
N3 N 0.2959(2) 1.2714(7) 0.50920(13)
N4 N 0.2642(2) 1.0966(7) 0.49271(13)
H22 H 0.2680 1.0729 0.4679
O2 O 0.21923(17) 1.0000(5) 0.55059(11)
O4 O 0.2452(2) 0.8363(6) 0.43242(11)
H24 H 0.2565 0.7649 0.4133
S2 S 0.36965(8) 1.6406(3) 0.54683(5)
C33 C 0.1105(3) 0.8520(9) 0.1823(2)
H25 H 0.0887 0.9485 0.1988
C34 C 0.1095(3) 0.8610(10) 0.1431(2)
H26 H 0.0854 0.9638 0.1291
C35 C 0.1482(2) 0.7003(8) 0.12479(16)
H27 H 0.1535 0.6864 0.0977
C36 C 0.1772(2) 0.5665(8) 0.15220(17)
C37 C 0.2184(2) 0.3795(8) 0.14311(17)
H28 H 0.2278 0.3432 0.1171
C38 C 0.3083(3) -0.0401(8) 0.18524(19)
C39 C 0.3449(2) -0.2287(8) 0.16877(15)
C40 C 0.3466(2) -0.2926(8) 0.12870(17)
C41 C 0.3838(3) -0.4635(8) 0.11708(17)
H29 H 0.3842 -0.5012 0.0906
C42 C 0.4212(3) -0.5836(8) 0.14371(19)
C43 C 0.4587(3) -0.7676(10) 0.13163(19)
H30 H 0.4596 -0.8079 0.1053
C44 C 0.4926(3) -0.8815(9) 0.1585(2)
H31 H 0.5179 -0.9994 0.1506
C45 C 0.4904(3) -0.8241(10) 0.1989(2)
H32 H 0.5135 -0.9056 0.2174
C46 C 0.4548(3) -0.6509(9) 0.21041(18)
H33 H 0.4543 -0.6134 0.2369
C47 C 0.4193(2) -0.5292(8) 0.18397(18)
C48 C 0.3803(2) -0.3475(8) 0.19406(16)
H34 H 0.3792 -0.3078 0.2205
N5 N 0.27772(19) 0.0878(6) 0.15848(14)
H35 H 0.2806 0.0598 0.1337
O5 O 0.30712(18) -0.0019(6) 0.22020(12)
S3 S 0.15723(9) 0.6402(2) 0.19813(5)
N6 N 0.2415(2) 0.2660(7) 0.17149(14)
O6 O 0.31007(17) -0.1791(5) 0.10045(10)
H36 H 0.2714 -0.2252 0.0995
loop_
_geom_bond_atom_site_label_1
_geom_bond_atom_site_label_2
_geom_bond_site_symmetry_1
_geom_bond_site_symmetry_2
C1 H1 1_555 1_555
C2 C1 1_555 1_555
H2 C2 1_555 1_555
C3 C2 1_555 1_555
H3 C3 1_555 1_555
C4 C3 1_555 1_555
C5 C4 1_555 1_555
H4 C5 1_555 1_555
C6 C7 1_555 1_555
C7 C8 1_555 1_555
C8 C9 1_555 1_555
C9 H5 1_555 1_555
C10 C9 1_555 1_555
C11 C10 1_555 1_555
H6 C11 1_555 1_555
C12 C11 1_555 1_555
H7 C12 1_555 1_555
C13 C12 1_555 1_555
H8 C13 1_555 1_555
C14 C13 1_555 1_555
H9 C14 1_555 1_555
C15 C10 1_555 1_555
C16 C7 1_555 1_555
H10 C16 1_555 1_555
C17 H11 1_555 1_555
C18 C17 1_555 1_555
H12 C18 1_555 1_555
C19 C18 1_555 1_555
H13 C19 1_555 1_555
C20 C19 1_555 1_555
C21 C20 1_555 1_555
H14 C21 1_555 1_555
C22 C23 1_555 1_555
C23 C24 1_555 1_555
C24 C25 1_555 1_555
C25 H15 1_555 1_555
C26 C25 1_555 1_555
C27 C26 1_555 1_555
H16 C27 1_555 1_555
C28 C27 1_555 1_555
H17 C28 1_555 1_555
C29 C28 1_555 1_555
H18 C29 1_555 1_555
C30 C29 1_555 1_555
H19 C30 1_555 1_555
C31 C26 1_555 1_555
C32 C23 1_555 1_555
H20 C32 1_555 1_555
N1 C5 1_555 1_555
N2 C6 1_555 1_555
H21 N2 1_555 1_555
N3 C21 1_555 1_555
N4 C22 1_555 1_555
H22 N4 1_555 1_555
O1 C6 1_555 1_555
O2 C22 1_555 1_555
O3 C8 1_555 1_555
H23 O3 1_555 1_555
O4 C24 1_555 1_555
H24 O4 1_555 1_555
S1 C1 1_555 1_555
S2 C17 1_555 1_555
C33 H25 1_555 1_555
C34 C33 1_555 1_555
H26 C34 1_555 1_555
C35 C34 1_555 1_555
H27 C35 1_555 1_555
C36 C35 1_555 1_555
C37 C36 1_555 1_555
H28 C37 1_555 1_555
C38 C39 1_555 1_555
C39 C40 1_555 1_555
C40 C41 1_555 1_555
C41 H29 1_555 1_555
C42 C41 1_555 1_555
C43 C42 1_555 1_555
H30 C43 1_555 1_555
C44 C43 1_555 1_555
H31 C44 1_555 1_555
C45 C44 1_555 1_555
H32 C45 1_555 1_555
C46 C45 1_555 1_555
H33 C46 1_555 1_555
C47 C42 1_555 1_555
C48 C39 1_555 1_555
H34 C48 1_555 1_555
N5 C38 1_555 1_555
H35 N5 1_555 1_555
O5 C38 1_555 1_555
S3 C33 1_555 1_555
N6 C37 1_555 1_555
O6 C40 1_555 1_555
H36 O6 1_555 1_555
C4 S1 1_555 1_555
C14 C15 1_555 1_555
C15 C16 1_555 1_555
C20 S2 1_555 1_555
C30 C31 1_555 1_555
C31 C32 1_555 1_555
N1 N2 1_555 1_555
N3 N4 1_555 1_555
C36 S3 1_555 1_555
C46 C47 1_555 1_555
C47 C48 1_555 1_555
N5 N6 1_555 1_555

#END
