
#######################################################################
#
#                 Cambridge Crystallographic Data Centre
#                                CCDC 
#
#######################################################################
#
# If this CIF has been generated from an entry in the Cambridge 
# Structural Database, then it will include bibliographic, chemical, 
# crystal, experimental, refinement or atomic coordinate data resulting 
# from the CCDC's data processing and validation procedures.
#
#######################################################################

data_IJUGUQ
_chemical_formula_moiety         'C19 H17 N1 O2'
_chemical_name_systematic        
N-(2,3-Dimethoxybenzylidene)naphthalen-1-amine
_symmetry_cell_setting           orthorhombic
_symmetry_space_group_name_H-M   'P b c a'
_symmetry_Int_Tables_number      61
_space_group_name_Hall           '-P 2ac 2ab'
loop_
_symmetry_equiv_pos_site_id
_symmetry_equiv_pos_as_xyz
1 x,y,z
2 1/2-x,-y,1/2+z
3 -x,1/2+y,1/2-z
4 1/2+x,1/2-y,-z
5 -x,-y,-z
6 1/2+x,y,1/2-z
7 x,1/2-y,1/2+z
8 1/2-x,1/2+y,z
_cell_length_a                   7.7163(7)
_cell_length_b                   17.0786(16)
_cell_length_c                   23.427(2)
_cell_angle_alpha                90
_cell_angle_beta                 90
_cell_angle_gamma                90
_cell_volume                     3087.29
_exptl_crystal_colour            colorless
_exptl_crystal_description       block
_cell_formula_units_Z            8
loop_
_atom_site_label
_atom_site_type_symbol
_atom_site_fract_x
_atom_site_fract_y
_atom_site_fract_z
N1 N 0.3928(4) 0.08249(16) 0.55054(11)
O1 O 0.4329(3) 0.18230(12) 0.70513(9)
O2 O 0.4198(3) 0.10066(14) 0.80315(9)
C1 C 0.4312(4) 0.11133(19) 0.59845(13)
H1 H 0.4599 0.1641 0.6006
C2 C 0.4323(4) 0.06453(19) 0.65073(13)
C3 C 0.4280(4) 0.10162(18) 0.70328(13)
C4 C 0.4265(4) 0.05837(19) 0.75393(14)
C5 C 0.4328(5) -0.0221(2) 0.75084(16)
H2 H 0.4311 -0.0517 0.7842
C6 C 0.4417(5) -0.0591(2) 0.69855(17)
H3 H 0.4489 -0.1134 0.6971
C7 C 0.4402(4) -0.0173(2) 0.64880(16)
H4 H 0.4443 -0.0430 0.6139
C8 C 0.2786(5) 0.2204(2) 0.72204(17)
H5 H 0.1901 0.2114 0.6940
H6 H 0.2996 0.2756 0.7254
H7 H 0.2414 0.2001 0.7582
C9 C 0.4279(6) 0.0592(2) 0.85555(14)
H8 H 0.3322 0.0235 0.8579
H9 H 0.4222 0.0956 0.8867
H10 H 0.5347 0.0306 0.8575
C10 C 0.4014(4) 0.13165(18) 0.50188(13)
C11 C 0.5459(5) 0.1750(2) 0.48899(15)
H11 H 0.6406 0.1746 0.5136
C12 C 0.5514(5) 0.2198(2) 0.43916(16)
H12 H 0.6505 0.2486 0.4308
C13 C 0.4152(5) 0.2221(2) 0.40291(15)
H13 H 0.4217 0.2522 0.3699
C14 C 0.2641(5) 0.17926(18) 0.41459(13)
C15 C 0.2558(4) 0.13319(17) 0.46482(12)
C16 C 0.1014(5) 0.09268(19) 0.47708(14)
H14 H 0.0948 0.0620 0.5098
C17 C -0.0383(5) 0.0976(2) 0.44183(15)
H15 H -0.1399 0.0711 0.4509
C18 C -0.0290(5) 0.1425(2) 0.39210(16)
H16 H -0.1246 0.1454 0.3680
C19 C 0.1173(5) 0.1817(2) 0.37866(15)
H17 H 0.1215 0.2108 0.3451
loop_
_geom_bond_atom_site_label_1
_geom_bond_atom_site_label_2
_geom_bond_site_symmetry_1
_geom_bond_site_symmetry_2
N1 C1 1_555 1_555
O1 C3 1_555 1_555
O2 C4 1_555 1_555
C1 H1 1_555 1_555
C2 C1 1_555 1_555
C3 C2 1_555 1_555
C4 C3 1_555 1_555
C5 C4 1_555 1_555
H2 C5 1_555 1_555
C6 C5 1_555 1_555
H3 C6 1_555 1_555
C7 C2 1_555 1_555
H4 C7 1_555 1_555
C8 O1 1_555 1_555
H5 C8 1_555 1_555
H6 C8 1_555 1_555
H7 C8 1_555 1_555
C9 O2 1_555 1_555
H8 C9 1_555 1_555
H9 C9 1_555 1_555
H10 C9 1_555 1_555
C10 N1 1_555 1_555
C11 C10 1_555 1_555
H11 C11 1_555 1_555
C12 C11 1_555 1_555
H12 C12 1_555 1_555
C13 C12 1_555 1_555
H13 C13 1_555 1_555
C14 C13 1_555 1_555
C15 C10 1_555 1_555
C16 C15 1_555 1_555
H14 C16 1_555 1_555
C17 C16 1_555 1_555
H15 C17 1_555 1_555
C18 C17 1_555 1_555
H16 C18 1_555 1_555
C19 C14 1_555 1_555
H17 C19 1_555 1_555
C6 C7 1_555 1_555
C14 C15 1_555 1_555
C18 C19 1_555 1_555

#END
