
#######################################################################
#
#                 Cambridge Crystallographic Data Centre
#                                CCDC 
#
#######################################################################
#
# If this CIF has been generated from an entry in the Cambridge 
# Structural Database, then it will include bibliographic, chemical, 
# crystal, experimental, refinement or atomic coordinate data resulting 
# from the CCDC's data processing and validation procedures.
#
#######################################################################

data_IJUHIF
_chemical_formula_moiety         'C17 H20 N2 O3'
_chemical_name_systematic        
N-Cyclohexyl-2-(5-methoxy-1H-indol-3-yl)-2-oxoacetamide
_symmetry_cell_setting           monoclinic
_symmetry_space_group_name_H-M   'P 21'
_symmetry_Int_Tables_number      4
_space_group_name_Hall           'P 2yb'
loop_
_symmetry_equiv_pos_site_id
_symmetry_equiv_pos_as_xyz
1 x,y,z
2 -x,1/2+y,-z
_cell_length_a                   5.083(3)
_cell_length_b                   27.336(13)
_cell_length_c                   5.220(3)
_cell_angle_alpha                90
_cell_angle_beta                 91.977(12)
_cell_angle_gamma                90
_cell_volume                     724.881
_exptl_crystal_colour            colorless
_exptl_crystal_description       prism
_cell_formula_units_Z            2
loop_
_atom_site_label
_atom_site_type_symbol
_atom_site_fract_x
_atom_site_fract_y
_atom_site_fract_z
O1 O -0.1844(3) 0.03318(6) 0.3071(3)
O2 O -0.1506(3) 0.20016(5) 0.8241(3)
O3 O 0.3519(3) 0.28545(6) 0.8311(3)
N1 N 0.4663(4) 0.19176(7) 0.2050(3)
N2 N -0.0791(4) 0.29907(6) 0.8997(3)
C1 C -0.3621(4) 0.03287(9) 0.5127(5)
H1 H -0.2627 0.0360 0.6761
H2 H -0.4607 0.0021 0.5106
H3 H -0.4851 0.0603 0.4927
C2 C -0.0281(4) 0.07411(8) 0.2854(4)
C3 C 0.1505(4) 0.07156(8) 0.0851(4)
H4 H 0.1508 0.0435 -0.0223
C4 C 0.3242(4) 0.10905(8) 0.0430(4)
H5 H 0.4446 0.1075 -0.0920
C5 C 0.3169(4) 0.14924(7) 0.2052(4)
C6 C 0.3895(4) 0.22142(8) 0.3936(4)
H6 H 0.4632 0.2526 0.4319
C7 C 0.1850(4) 0.19958(8) 0.5251(4)
C8 C 0.1372(4) 0.15268(8) 0.4031(4)
C9 C -0.0386(4) 0.11418(8) 0.4453(4)
H7 H -0.1603 0.1156 0.5792
C10 C 0.0403(4) 0.22048(7) 0.7283(4)
C11 C 0.1203(4) 0.27147(7) 0.8258(4)
C12 C -0.0360(4) 0.35000(7) 0.9780(4)
H8 H 0.1085 0.3636 0.8739
C13 C -0.2834(4) 0.38039(8) 0.9209(4)
H9 H -0.4302 0.3675 1.0208
H10 H -0.3340 0.3777 0.7366
C14 C -0.2356(5) 0.43413(8) 0.9899(4)
H11 H -0.4000 0.4529 0.9587
H12 H -0.0995 0.4478 0.8793
C15 C -0.1453(4) 0.43918(8) 1.2721(4)
H13 H -0.1048 0.4739 1.3106
H14 H -0.2888 0.4287 1.3832
C16 C 0.0984(4) 0.40803(8) 1.3293(4)
H15 H 0.1486 0.4106 1.5137
H16 H 0.2466 0.4206 1.2301
C17 C 0.0493(4) 0.35425(8) 1.2602(4)
H17 H 0.2123 0.3351 1.2934
H18 H -0.0897 0.3408 1.3682
H19 H 0.603(6) 0.2006(11) 0.090(6)
H20 H -0.240(5) 0.2875(10) 0.891(5)
loop_
_geom_bond_atom_site_label_1
_geom_bond_atom_site_label_2
_geom_bond_site_symmetry_1
_geom_bond_site_symmetry_2
O1 C1 1_555 1_555
O2 C10 1_555 1_555
O3 C11 1_555 1_555
N1 C5 1_555 1_555
N2 C11 1_555 1_555
C1 H1 1_555 1_555
H2 C1 1_555 1_555
H3 C1 1_555 1_555
C2 O1 1_555 1_555
C3 C2 1_555 1_555
H4 C3 1_555 1_555
C4 C3 1_555 1_555
H5 C4 1_555 1_555
C5 C4 1_555 1_555
C6 N1 1_555 1_555
H6 C6 1_555 1_555
C7 C6 1_555 1_555
C8 C5 1_555 1_555
C9 C2 1_555 1_555
H7 C9 1_555 1_555
C10 C7 1_555 1_555
C11 C10 1_555 1_555
C12 N2 1_555 1_555
H8 C12 1_555 1_555
C13 C12 1_555 1_555
H9 C13 1_555 1_555
H10 C13 1_555 1_555
C14 C13 1_555 1_555
H11 C14 1_555 1_555
H12 C14 1_555 1_555
C15 C14 1_555 1_555
H13 C15 1_555 1_555
H14 C15 1_555 1_555
C16 C15 1_555 1_555
H15 C16 1_555 1_555
H16 C16 1_555 1_555
C17 C12 1_555 1_555
H17 C17 1_555 1_555
H18 C17 1_555 1_555
H19 N1 1_555 1_555
H20 N2 1_555 1_555
C7 C8 1_555 1_555
C8 C9 1_555 1_555
C16 C17 1_555 1_555

#END
