
#######################################################################
#
#                 Cambridge Crystallographic Data Centre
#                                CCDC 
#
#######################################################################
#
# If this CIF has been generated from an entry in the Cambridge 
# Structural Database, then it will include bibliographic, chemical, 
# crystal, experimental, refinement or atomic coordinate data resulting 
# from the CCDC's data processing and validation procedures.
#
#######################################################################

data_IJULEG
_chemical_formula_moiety         'C15 H23 N1 Si2'
_chemical_name_systematic        
1-Methyl-2,5-bis((trimethylsilyl)ethynyl)-1H-pyrrole
_symmetry_cell_setting           orthorhombic
_symmetry_space_group_name_H-M   'P b c a'
_symmetry_Int_Tables_number      61
_space_group_name_Hall           '-P 2ac 2ab'
loop_
_symmetry_equiv_pos_site_id
_symmetry_equiv_pos_as_xyz
1 x,y,z
2 1/2-x,-y,1/2+z
3 1/2+x,1/2-y,-z
4 -x,1/2+y,1/2-z
5 -x,-y,-z
6 1/2+x,y,1/2-z
7 1/2-x,1/2+y,z
8 x,1/2-y,1/2+z
_cell_length_a                   14.247(5)
_cell_length_b                   10.234(5)
_cell_length_c                   24.150(5)
_cell_angle_alpha                90
_cell_angle_beta                 90
_cell_angle_gamma                90
_cell_volume                     3521.16
_exptl_crystal_colour            colorless
_exptl_crystal_description       block
_cell_formula_units_Z            8
loop_
_atom_site_label
_atom_site_type_symbol
_atom_site_fract_x
_atom_site_fract_y
_atom_site_fract_z
Si1 Si 0.67195(4) 0.10330(5) 0.47252(2)
Si2 Si 0.11545(4) 0.43779(5) 0.24834(2)
N1 N 0.40609(10) 0.38161(14) 0.37856(6)
C1 C 0.38748(14) 0.25093(18) 0.35763(8)
H1 H 0.3253 0.2247 0.3682
H2 H 0.4323 0.1909 0.3729
H3 H 0.3925 0.2509 0.3180
C2 C 0.47532(12) 0.41556(17) 0.41560(7)
C3 C 0.27613(13) 0.48151(17) 0.32974(7)
C4 C 0.46566(13) 0.54746(18) 0.42688(7)
H4 H 0.5033 0.5965 0.4505
C5 C 0.35334(13) 0.49012(17) 0.36673(7)
C6 C 0.54032(13) 0.32138(18) 0.43573(7)
C7 C 0.38933(13) 0.59357(18) 0.39644(7)
H5 H 0.3668 0.6788 0.3962
C8 C 0.59327(13) 0.23726(19) 0.45161(8)
C9 C 0.21134(14) 0.46635(19) 0.29810(8)
C10 C 0.62469(16) 0.0248(2) 0.53598(8)
H6 H 0.6072 0.0910 0.5622
H7 H 0.6719 -0.0305 0.5520
H8 H 0.5706 -0.0266 0.5266
C11 C 0.6766(2) -0.0125(2) 0.41320(9)
H9 H 0.6179 -0.0581 0.4104
H10 H 0.7263 -0.0743 0.4190
H11 H 0.6879 0.0351 0.3796
C12 C 0.00347(16) 0.4257(3) 0.28731(11)
H12 H 0.0060 0.3520 0.3119
H13 H -0.0476 0.4148 0.2618
H14 H -0.0059 0.5041 0.3084
C13 C 0.11188(18) 0.5772(2) 0.20013(10)
H15 H 0.1057 0.6569 0.2207
H16 H 0.0592 0.5678 0.1756
H17 H 0.1688 0.5795 0.1789
C14 C 0.79031(15) 0.1693(2) 0.48792(11)
H18 H 0.8182 0.2016 0.4544
H19 H 0.8289 0.1012 0.5031
H20 H 0.7851 0.2392 0.5142
C15 C 0.14337(19) 0.2830(2) 0.21201(10)
H21 H 0.2036 0.2903 0.1945
H22 H 0.0964 0.2660 0.1845
H23 H 0.1446 0.2125 0.2382
loop_
_geom_bond_atom_site_label_1
_geom_bond_atom_site_label_2
_geom_bond_site_symmetry_1
_geom_bond_site_symmetry_2
Si1 C8 1_555 1_555
Si2 C9 1_555 1_555
N1 C1 1_555 1_555
C1 H1 1_555 1_555
H2 C1 1_555 1_555
H3 C1 1_555 1_555
C2 N1 1_555 1_555
C3 C5 1_555 1_555
C4 C2 1_555 1_555
H4 C4 1_555 1_555
C5 N1 1_555 1_555
C6 C2 1_555 1_555
C7 C4 1_555 1_555
H5 C7 1_555 1_555
C8 C6 1_555 1_555
C9 C3 1_555 1_555
C10 Si1 1_555 1_555
H6 C10 1_555 1_555
H7 C10 1_555 1_555
H8 C10 1_555 1_555
C11 Si1 1_555 1_555
H9 C11 1_555 1_555
H10 C11 1_555 1_555
H11 C11 1_555 1_555
C12 Si2 1_555 1_555
H12 C12 1_555 1_555
H13 C12 1_555 1_555
H14 C12 1_555 1_555
C13 Si2 1_555 1_555
H15 C13 1_555 1_555
H16 C13 1_555 1_555
H17 C13 1_555 1_555
C14 Si1 1_555 1_555
H18 C14 1_555 1_555
H19 C14 1_555 1_555
H20 C14 1_555 1_555
C15 Si2 1_555 1_555
H21 C15 1_555 1_555
H22 C15 1_555 1_555
H23 C15 1_555 1_555
C5 C7 1_555 1_555

#END
