
#######################################################################
#
#                 Cambridge Crystallographic Data Centre
#                                CCDC 
#
#######################################################################
#
# If this CIF has been generated from an entry in the Cambridge 
# Structural Database, then it will include bibliographic, chemical, 
# crystal, experimental, refinement or atomic coordinate data resulting 
# from the CCDC's data processing and validation procedures.
#
#######################################################################

data_IJUREL
_chemical_formula_moiety         'C23 H20 N4 O1 S1'
_chemical_name_systematic        
3-(4-Amino-3-phenyl-5-thioxo-4,5-dihydro-1H-1,2,4-triazol-1-yl)-1,3-diphenylpropan-1-one
_symmetry_cell_setting           triclinic
_symmetry_space_group_name_H-M   'P -1'
_symmetry_Int_Tables_number      2
_space_group_name_Hall           '-P 1'
loop_
_symmetry_equiv_pos_site_id
_symmetry_equiv_pos_as_xyz
1 x,y,z
2 -x,-y,-z
_cell_length_a                   9.4625(19)
_cell_length_b                   11.340(2)
_cell_length_c                   11.655(2)
_cell_angle_alpha                111.80(3)
_cell_angle_beta                 111.01(3)
_cell_angle_gamma                98.91(3)
_cell_volume                     1022.4
_exptl_crystal_colour            colorless
_exptl_crystal_description       prism
_cell_formula_units_Z            2
_exptl_crystal_recrystallization_method chloroform/ethanol
loop_
_atom_site_label
_atom_site_type_symbol
_atom_site_fract_x
_atom_site_fract_y
_atom_site_fract_z
S1 S 0.54562(6) -0.11721(5) 0.13685(5)
O1 O 0.45937(17) 0.25822(14) 0.24735(14)
N1 N 0.82240(19) 0.25821(16) 0.32190(16)
N2 N 0.72008(19) 0.15086(16) 0.31246(16)
N3 N 0.75632(19) 0.07328(15) 0.13230(15)
N4 N 0.7447(2) -0.01242(17) 0.00269(17)
H1 H 0.703(2) -0.0962(13) -0.010(2)
H2 H 0.675(2) 0.005(2) -0.062(2)
C1 C 0.9302(2) 0.4216(2) 0.2059(2)
H3 H 0.8614 0.4514 0.2443
C2 C 1.0231(3) 0.5072(2) 0.1812(2)
H4 H 1.0168 0.5949 0.2010
C3 C 1.1260(2) 0.4637(2) 0.1269(2)
H5 H 1.1913 0.5223 0.1111
C4 C 1.1330(3) 0.3347(2) 0.0962(2)
H6 H 1.2038 0.3059 0.0600
C5 C 1.0376(2) 0.2475(2) 0.1179(2)
H7 H 1.0408 0.1586 0.0943
C6 C 0.9371(2) 0.2915(2) 0.17470(19)
C7 C 0.8422(2) 0.20849(19) 0.21041(19)
C8 C 0.6737(2) 0.03559(19) 0.19571(19)
C9 C 0.6600(2) 0.17172(19) 0.41591(19)
H8 H 0.5473 0.1088 0.3687
C10 C 0.7610(2) 0.14453(18) 0.53269(19)
C11 C 0.9151(2) 0.1418(2) 0.5597(2)
H9 H 0.9606 0.1555 0.5032
C12 C 1.0040(3) 0.1191(2) 0.6688(2)
H10 H 1.1093 0.1169 0.6861
C13 C 0.9392(3) 0.0995(2) 0.7523(2)
H11 H 0.9991 0.0824 0.8259
C14 C 0.7863(3) 0.1051(2) 0.7281(2)
H12 H 0.7426 0.0939 0.7866
C15 C 0.6970(2) 0.1268(2) 0.6188(2)
H13 H 0.5921 0.1297 0.6023
C16 C 0.6580(2) 0.31677(19) 0.47288(19)
H14 H 0.6083 0.3303 0.5364
H15 H 0.7697 0.3799 0.5269
C17 C 0.5659(2) 0.3486(2) 0.35832(19)
C18 C 0.6095(2) 0.4905(2) 0.3827(2)
C19 C 0.6976(2) 0.5982(2) 0.5161(2)
H16 H 0.7328 0.5816 0.5941
C20 C 0.7336(3) 0.7291(2) 0.5348(2)
H17 H 0.7929 0.8020 0.6258
C21 C 0.6842(3) 0.7544(2) 0.4223(3)
H18 H 0.7084 0.8445 0.4361
C22 C 0.5990(3) 0.6483(2) 0.2889(2)
H19 H 0.5672 0.6657 0.2114
C23 C 0.5603(3) 0.5168(2) 0.2688(2)
H20 H 0.5003 0.4443 0.1775
loop_
_geom_bond_atom_site_label_1
_geom_bond_atom_site_label_2
_geom_bond_site_symmetry_1
_geom_bond_site_symmetry_2
S1 C8 1_555 1_555
O1 C17 1_555 1_555
N1 N2 1_555 1_555
N2 C8 1_555 1_555
N3 N4 1_555 1_555
N4 H1 1_555 1_555
H2 N4 1_555 1_555
C1 H3 1_555 1_555
C2 C1 1_555 1_555
H4 C2 1_555 1_555
C3 C2 1_555 1_555
H5 C3 1_555 1_555
C4 C3 1_555 1_555
H6 C4 1_555 1_555
C5 C4 1_555 1_555
H7 C5 1_555 1_555
C6 C1 1_555 1_555
C7 N1 1_555 1_555
C8 N3 1_555 1_555
C9 N2 1_555 1_555
H8 C9 1_555 1_555
C10 C9 1_555 1_555
C11 C10 1_555 1_555
H9 C11 1_555 1_555
C12 C11 1_555 1_555
H10 C12 1_555 1_555
C13 C12 1_555 1_555
H11 C13 1_555 1_555
C14 C13 1_555 1_555
H12 C14 1_555 1_555
C15 C10 1_555 1_555
H13 C15 1_555 1_555
C16 C9 1_555 1_555
H14 C16 1_555 1_555
H15 C16 1_555 1_555
C17 C16 1_555 1_555
C18 C17 1_555 1_555
C19 C18 1_555 1_555
H16 C19 1_555 1_555
C20 C19 1_555 1_555
H17 C20 1_555 1_555
C21 C20 1_555 1_555
H18 C21 1_555 1_555
C22 C21 1_555 1_555
H19 C22 1_555 1_555
C23 C18 1_555 1_555
H20 C23 1_555 1_555
N3 C7 1_555 1_555
C5 C6 1_555 1_555
C6 C7 1_555 1_555
C14 C15 1_555 1_555
C22 C23 1_555 1_555

#END
