
#######################################################################
#
#                 Cambridge Crystallographic Data Centre
#                                CCDC 
#
#######################################################################
#
# If this CIF has been generated from an entry in the Cambridge 
# Structural Database, then it will include bibliographic, chemical, 
# crystal, experimental, refinement or atomic coordinate data resulting 
# from the CCDC's data processing and validation procedures.
#
#######################################################################

data_IKABED
_chemical_formula_moiety         'C4 Cl4 N6'
_chemical_name_systematic        3,3',5,5'-tetrachloro-4,4'-bi-1,2,4-triazole
_symmetry_cell_setting           monoclinic
_symmetry_space_group_name_H-M   'C 2/c'
_symmetry_Int_Tables_number      15
_space_group_name_Hall           '-C 2yn'
loop_
_symmetry_equiv_pos_site_id
_symmetry_equiv_pos_as_xyz
1 x,y,z
2 -x,y,1/2-z
3 1/2+x,1/2+y,z
4 1/2-x,1/2+y,1/2-z
5 -x,-y,-z
6 x,-y,1/2+z
7 1/2-x,1/2-y,-z
8 1/2+x,1/2-y,1/2+z
_cell_length_a                   11.791(2)
_cell_length_b                   7.617(6)
_cell_length_c                   11.2773(17)
_cell_angle_alpha                90
_cell_angle_beta                 104.601(9)
_cell_angle_gamma                90
_cell_volume                     980.128
_exptl_crystal_colour            colorless
_exptl_crystal_description       prism
_cell_formula_units_Z            4
loop_
_atom_site_label
_atom_site_type_symbol
_atom_site_fract_x
_atom_site_fract_y
_atom_site_fract_z
Cl1 Cl 0.38975(6) 0.12116(8) 0.57793(6)
Cl2 Cl 0.67953(7) 0.62867(9) 0.78969(6)
N1 N 0.52550(14) 0.37535(18) 0.70201(12)
N2 N 0.56905(15) 0.3000(2) 0.53170(14)
N3 N 0.64503(14) 0.4345(2) 0.58720(14)
C1 C 0.50025(17) 0.2679(2) 0.60070(17)
C2 C 0.61754(17) 0.4756(2) 0.68686(17)
Cl1A Cl 0.61025(6) 0.12116(8) 0.92207(6)
Cl2A Cl 0.32047(7) 0.62867(9) 0.71031(6)
N1A N 0.47450(14) 0.37535(18) 0.79799(12)
N2A N 0.43095(15) 0.3000(2) 0.96830(14)
N3A N 0.35497(14) 0.4345(2) 0.91280(14)
C1A C 0.49975(17) 0.2679(2) 0.89930(17)
C2A C 0.38246(17) 0.4756(2) 0.81314(17)
loop_
_geom_bond_atom_site_label_1
_geom_bond_atom_site_label_2
_geom_bond_site_symmetry_1
_geom_bond_site_symmetry_2
Cl1 C1 1_555 1_555
Cl2 C2 1_555 1_555
N1 C1 1_555 1_555
N2 N3 1_555 1_555
N3 C2 1_555 1_555
C1 N2 1_555 1_555
C2 N1 1_555 1_555
Cl1A C1A 1_555 1_555
Cl2A C2A 1_555 1_555
N1A N1 1_555 1_555
N2A N3A 1_555 1_555
N3A C2A 1_555 1_555
C1A N1A 1_555 1_555
C2A N1A 1_555 1_555
N2A C1A 1_555 1_555

#END
