
#######################################################################
#
#                 Cambridge Crystallographic Data Centre
#                                CCDC 
#
#######################################################################
#
# If this CIF has been generated from an entry in the Cambridge 
# Structural Database, then it will include bibliographic, chemical, 
# crystal, experimental, refinement or atomic coordinate data resulting 
# from the CCDC's data processing and validation procedures.
#
#######################################################################

data_IKARAP
_chemical_formula_moiety         'C23 H18 N2 O1'
_chemical_name_systematic        
(1-(4-methylphenyl)-5-phenyl-1H-imidazol-2-yl)(phenyl)methanone
_symmetry_cell_setting           triclinic
_symmetry_space_group_name_H-M   'P -1'
_symmetry_Int_Tables_number      2
_space_group_name_Hall           '-P 1'
loop_
_symmetry_equiv_pos_site_id
_symmetry_equiv_pos_as_xyz
1 x,y,z
2 -x,-y,-z
_cell_length_a                   9.556(9)
_cell_length_b                   10.061(10)
_cell_length_c                   10.958(10)
_cell_angle_alpha                73.61(2)
_cell_angle_beta                 65.525(16)
_cell_angle_gamma                68.71(2)
_cell_volume                     882.58
_exptl_crystal_colour            yellow
_exptl_crystal_description       block
_cell_formula_units_Z            2
loop_
_atom_site_label
_atom_site_type_symbol
_atom_site_fract_x
_atom_site_fract_y
_atom_site_fract_z
C1 C 0.57819(18) 0.16951(17) 0.84358(15)
H1 H 0.6332 0.0726 0.8384
C2 C 0.5263(2) 0.2209(2) 0.96401(17)
H2 H 0.5478 0.1592 1.0392
C3 C 0.4424(2) 0.3640(2) 0.97201(19)
H3 H 0.4058 0.3987 1.0532
C4 C 0.4125(2) 0.4563(2) 0.8595(2)
H4 H 0.3559 0.5528 0.8655
C5 C 0.46600(18) 0.40608(17) 0.73913(17)
H5 H 0.4468 0.4688 0.6636
C6 C 0.54881(16) 0.26149(15) 0.73018(14)
C7 C 0.60841(16) 0.21477(15) 0.59564(14)
C8 C 0.64627(16) 0.06064(15) 0.58943(13)
C9 C 0.64052(18) -0.15812(16) 0.63575(15)
H6 H 0.6129 -0.2430 0.6824
C10 C 0.74967(16) -0.14440(14) 0.50657(14)
C11 C 0.85475(17) -0.25673(14) 0.42201(14)
C12 C 0.79718(19) -0.36849(16) 0.42883(16)
H7 H 0.6910 -0.3660 0.4807
C13 C 0.8956(2) -0.48234(16) 0.35968(18)
H8 H 0.8559 -0.5564 0.3651
C14 C 1.0529(2) -0.48704(18) 0.2825(2)
H9 H 1.1195 -0.5642 0.2358
C15 C 1.11131(19) -0.37705(18) 0.27456(18)
H10 H 1.2175 -0.3801 0.2221
C16 C 1.01420(17) -0.26338(16) 0.34336(16)
H11 H 1.0551 -0.1899 0.3375
C17 C 0.84001(15) 0.06551(14) 0.34739(13)
C18 C 0.96515(16) 0.11292(14) 0.33462(14)
H12 H 0.9877 0.1082 0.4108
C19 C 1.05613(17) 0.16723(15) 0.20778(15)
H13 H 1.1405 0.1987 0.1993
C20 C 1.02466(18) 0.17600(16) 0.09298(14)
C21 C 0.89617(18) 0.13096(17) 0.10911(15)
H14 H 0.8713 0.1385 0.0334
C22 C 0.80441(16) 0.07517(16) 0.23500(14)
H15 H 0.7194 0.0444 0.2439
C23 C 1.1289(3) 0.2302(3) -0.04545(18)
H16 H 1.0943 0.2225 -0.1132
H17 H 1.2383 0.1733 -0.0613
H18 H 1.1206 0.3294 -0.0501
N1 N 0.75129(13) -0.00223(12) 0.47676(11)
N2 N 0.57781(14) -0.03274(13) 0.68701(12)
O1 O 0.62621(15) 0.30174(12) 0.49149(11)
loop_
_geom_bond_atom_site_label_1
_geom_bond_atom_site_label_2
_geom_bond_site_symmetry_1
_geom_bond_site_symmetry_2
C1 H1 1_555 1_555
C2 C1 1_555 1_555
H2 C2 1_555 1_555
C3 C2 1_555 1_555
H3 C3 1_555 1_555
C4 C3 1_555 1_555
H4 C4 1_555 1_555
C5 C4 1_555 1_555
H5 C5 1_555 1_555
C6 C1 1_555 1_555
C7 C6 1_555 1_555
C8 C7 1_555 1_555
C9 H6 1_555 1_555
C10 C9 1_555 1_555
C11 C10 1_555 1_555
C12 C11 1_555 1_555
H7 C12 1_555 1_555
C13 C12 1_555 1_555
H8 C13 1_555 1_555
C14 C13 1_555 1_555
H9 C14 1_555 1_555
C15 C14 1_555 1_555
H10 C15 1_555 1_555
C16 C11 1_555 1_555
H11 C16 1_555 1_555
C17 C18 1_555 1_555
C18 H12 1_555 1_555
C19 C18 1_555 1_555
H13 C19 1_555 1_555
C20 C19 1_555 1_555
C21 C20 1_555 1_555
H14 C21 1_555 1_555
C22 C17 1_555 1_555
H15 C22 1_555 1_555
C23 C20 1_555 1_555
H16 C23 1_555 1_555
H17 C23 1_555 1_555
H18 C23 1_555 1_555
N1 C8 1_555 1_555
N2 C8 1_555 1_555
O1 C7 1_555 1_555
C5 C6 1_555 1_555
C9 N2 1_555 1_555
C10 N1 1_555 1_555
C15 C16 1_555 1_555
C17 N1 1_555 1_555
C21 C22 1_555 1_555

#END
