
#######################################################################
#
#                 Cambridge Crystallographic Data Centre
#                                CCDC 
#
#######################################################################
#
# If this CIF has been generated from an entry in the Cambridge 
# Structural Database, then it will include bibliographic, chemical, 
# crystal, experimental, refinement or atomic coordinate data resulting 
# from the CCDC's data processing and validation procedures.
#
#######################################################################

data_IKATOF
_chemical_formula_moiety         'C53 H50 N4 O8 S1'
_chemical_name_systematic        
'N-Benzyl-2-(3-(2-(benzylcarbamoyl)phenoxy)-2-((2-(benzylcarbamoyl)phenoxy)methyl)-2-(((4-methylphenyl)sulfonyl)amino)propoxy)benzamide unknown solvate'
_symmetry_cell_setting           triclinic
_symmetry_space_group_name_H-M   'P -1'
_symmetry_Int_Tables_number      2
_space_group_name_Hall           '-P 1'
loop_
_symmetry_equiv_pos_site_id
_symmetry_equiv_pos_as_xyz
1 x,y,z
2 -x,-y,-z
_cell_length_a                   10.877(4)
_cell_length_b                   13.454(4)
_cell_length_c                   18.261(6)
_cell_angle_alpha                83.658(6)
_cell_angle_beta                 73.614(6)
_cell_angle_gamma                73.795(6)
_cell_volume                     2460.44
_cell_formula_units_Z            2
loop_
_atom_site_label
_atom_site_type_symbol
_atom_site_fract_x
_atom_site_fract_y
_atom_site_fract_z
N1 N 1.3082(2) 0.89818(16) 0.25894(11)
H1 H 1.3765 0.8543 0.2333
C1 C 1.3032(6) 0.9244(4) 0.3358(3)
H2 H 1.2128 0.9558 0.3621
H3 H 1.3543 0.9732 0.3330
C2 C 1.3518(5) 0.8282(3) 0.3820(2)
C3 C 1.3121(6) 0.7387(5) 0.3846(3)
H4 H 1.2537 0.7352 0.3547
C4 C 1.3625(10) 0.6512(7) 0.4336(5)
H5 H 1.3295 0.5907 0.4405
C5 C 1.4472(8) 0.6657(5) 0.4696(4)
H6 H 1.4833 0.6056 0.4980
C6 C 1.4888(7) 0.7435(5) 0.4688(4)
H7 H 1.5522 0.7449 0.4958
C7 C 1.4400(5) 0.8286(4) 0.4235(3)
H8 H 1.4656 0.8914 0.4235
C8 C 0.7866(3) 0.93128(18) 0.24967(14)
C9 C 0.7995(3) 0.9587(2) 0.44311(14)
C10 C 0.9295(3) 0.9319(3) 0.44460(17)
H9 H 0.9909 0.9581 0.4068
C11 C 0.9703(4) 0.8667(3) 0.5015(2)
H10 H 1.0597 0.8478 0.5005
C12 C 0.8825(4) 0.8290(3) 0.55952(18)
C13 C 0.7525(4) 0.8562(3) 0.55797(19)
H11 H 0.6910 0.8311 0.5966
C14 C 0.7101(3) 0.9202(3) 0.50020(18)
H12 H 0.6212 0.9371 0.5000
C15 C 0.9280(5) 0.7637(3) 0.6243(2)
H13 H 1.0197 0.7271 0.6065
H14 H 0.8755 0.7150 0.6429
H15 H 0.9178 0.8076 0.6648
C16 C 0.7878(3) 0.83023(19) 0.29566(15)
H16 H 0.8762 0.7969 0.3012
H17 H 0.7274 0.8428 0.3462
C17 C 0.7327(3) 0.6716(2) 0.28702(15)
C18 C 0.6641(3) 0.62092(18) 0.25625(14)
C19 C 0.6511(4) 0.5240(2) 0.28753(16)
H18 H 0.6033 0.4902 0.2686
C20 C 0.7068(5) 0.4769(3) 0.3455(2)
H19 H 0.6970 0.4121 0.3656
C21 C 0.7768(5) 0.5271(3) 0.3728(2)
H20 H 0.8169 0.4948 0.4111
C22 C 0.7899(4) 0.6245(3) 0.34539(19)
H21 H 0.8362 0.6581 0.3657
C23 C 0.6004(3) 0.66902(19) 0.19444(14)
C24 C 0.5289(3) 0.6358(2) 0.08505(16)
H22 H 0.5814 0.5975 0.0397
H23 H 0.5235 0.7086 0.0724
C25 C 0.3921(3) 0.62105(19) 0.10471(19)
C26 C 0.3135(4) 0.6209(3) 0.1787(2)
H24 H 0.3472 0.6274 0.2189
C27 C 0.1853(4) 0.6111(3) 0.1940(3)
H25 H 0.1335 0.6106 0.2441
C28 C 0.1348(5) 0.6019(3) 0.1344(4)
H26 H 0.0484 0.5960 0.1443
C29 C 0.2101(5) 0.6017(3) 0.0624(4)
H27 H 0.1760 0.5952 0.0224
C30 C 0.3376(4) 0.6109(2) 0.0473(2)
H28 H 0.3885 0.6104 -0.0031
C31 C 0.6511(3) 0.98061(19) 0.23416(15)
H29 H 0.6356 0.9403 0.1984
H30 H 0.5808 0.9845 0.2812
C32 C 0.5421(2) 1.15080(19) 0.19175(13)
C33 C 0.5476(2) 1.25345(19) 0.17442(13)
C34 C 0.4365(3) 1.3236(2) 0.15930(17)
H31 H 0.4380 1.3923 0.1476
C35 C 0.3236(3) 1.2943(3) 0.1611(2)
H32 H 0.2507 1.3427 0.1502
C36 C 0.3198(3) 1.1931(3) 0.17924(18)
H33 H 0.2438 1.1730 0.1811
C37 C 0.4289(3) 1.1212(2) 0.19467(15)
H34 H 0.4261 1.0528 0.2070
C38 C 0.6630(3) 1.2962(2) 0.17097(15)
C39 C 0.8748(3) 1.2767(2) 0.20011(17)
H35 H 0.9172 1.2358 0.2377
H36 H 0.8429 1.3479 0.2161
C40 C 0.9761(3) 1.2720(2) 0.12474(16)
C41 C 1.0453(3) 1.1784(2) 0.09146(19)
H37 H 1.0274 1.1176 0.1160
C42 C 1.1400(4) 1.1730(3) 0.0228(2)
H38 H 1.1852 1.1088 0.0019
C43 C 1.1685(4) 1.2592(4) -0.0146(2)
H39 H 1.2317 1.2550 -0.0614
C44 C 1.1024(4) 1.3536(3) 0.0177(2)
H40 H 1.1229 1.4135 -0.0069
C45 C 1.0057(3) 1.3601(2) 0.0865(2)
H41 H 0.9603 1.4246 0.1071
C46 C 0.8891(2) 0.91283(19) 0.17253(14)
H42 H 0.8757 0.8597 0.1461
H43 H 0.8813 0.9760 0.1410
C47 C 1.1228(3) 0.89119(18) 0.12827(14)
C48 C 1.2260(3) 0.91562(18) 0.14830(13)
C49 C 1.3407(3) 0.9184(2) 0.09193(15)
H44 H 1.4109 0.9330 0.1045
C50 C 1.3520(3) 0.8998(2) 0.01683(16)
H45 H 1.4296 0.9014 -0.0208
C51 C 1.2476(4) 0.8789(2) -0.00185(16)
H46 H 1.2545 0.8678 -0.0524
C52 C 1.1332(3) 0.8743(2) 0.05372(15)
H47 H 1.0634 0.8597 0.0408
C53 C 1.2071(3) 0.94230(19) 0.22913(14)
N2 N 0.8252(2) 1.00243(15) 0.28969(11)
H48 H 0.8960 1.0212 0.2662
N3 N 0.5976(2) 0.60336(15) 0.14478(12)
H49 H 0.6385 0.5391 0.1486
N4 N 0.7614(2) 1.23941(17) 0.19940(12)
H50 H 0.7581 1.1784 0.2181
O1 O 0.60942(18) 1.05938(16) 0.38472(10)
O2 O 0.7943(2) 1.13689(14) 0.37661(11)
O3 O 0.7466(2) 0.76606(13) 0.25497(10)
O4 O 0.55363(18) 0.76312(13) 0.18816(10)
O5 O 0.65497(17) 1.08160(12) 0.20276(10)
O6 O 0.6654(2) 1.38323(14) 0.14257(12)
O7 O 1.01610(17) 0.88082(13) 0.18707(9)
O8 O 1.10483(18) 1.00239(13) 0.26446(10)
S1 S 0.74759(7) 1.04877(5) 0.37362(4)
H51? H 1.3811 0.8671 0.2278
C54? C 1.3095(10) 0.8966(7) 0.3370(4)
H52? H 1.2391 0.9507 0.3645
H53? H 1.3926 0.9085 0.3368
C55? C 1.3030(8) 0.7943(7) 0.3744(4)
C56? C 1.2322(10) 0.7386(6) 0.3571(5)
H54? H 1.1844 0.7663 0.3193
C57? C 1.2187(15) 0.6395(9) 0.3948(8)
H55? H 1.1721 0.5960 0.3817
C58? C 1.2944(16) 0.6186(12) 0.4392(9)
H56? H 1.2742 0.5619 0.4730
C59? C 1.3691(17) 0.6554(9) 0.4631(8)
H57? H 1.4285 0.6177 0.4927
C60? C 1.3709(11) 0.7601(8) 0.4304(6)
H58? H 1.4148 0.8017 0.4481
loop_
_geom_bond_atom_site_label_1
_geom_bond_atom_site_label_2
_geom_bond_site_symmetry_1
_geom_bond_site_symmetry_2
N1 H1 1_555 1_555
C1 N1 1_555 1_555
H2 C1 1_555 1_555
H3 C1 1_555 1_555
C2 C1 1_555 1_555
C3 C2 1_555 1_555
H4 C3 1_555 1_555
C4 C3 1_555 1_555
H5 C4 1_555 1_555
C5 C4 1_555 1_555
H6 C5 1_555 1_555
C6 C5 1_555 1_555
H7 C6 1_555 1_555
C7 C2 1_555 1_555
H8 C7 1_555 1_555
C8 C16 1_555 1_555
C9 C10 1_555 1_555
C10 H9 1_555 1_555
C11 C10 1_555 1_555
H10 C11 1_555 1_555
C12 C11 1_555 1_555
C13 C12 1_555 1_555
H11 C13 1_555 1_555
C14 C9 1_555 1_555
H12 C14 1_555 1_555
C15 C12 1_555 1_555
H13 C15 1_555 1_555
H14 C15 1_555 1_555
H15 C15 1_555 1_555
C16 H16 1_555 1_555
H17 C16 1_555 1_555
C17 C18 1_555 1_555
C18 C19 1_555 1_555
C19 H18 1_555 1_555
C20 C19 1_555 1_555
H19 C20 1_555 1_555
C21 C20 1_555 1_555
H20 C21 1_555 1_555
C22 C17 1_555 1_555
H21 C22 1_555 1_555
C23 C18 1_555 1_555
C24 H22 1_555 1_555
H23 C24 1_555 1_555
C25 C24 1_555 1_555
C26 C25 1_555 1_555
H24 C26 1_555 1_555
C27 C26 1_555 1_555
H25 C27 1_555 1_555
C28 C27 1_555 1_555
H26 C28 1_555 1_555
C29 C28 1_555 1_555
H27 C29 1_555 1_555
C30 C25 1_555 1_555
H28 C30 1_555 1_555
C31 C8 1_555 1_555
H29 C31 1_555 1_555
H30 C31 1_555 1_555
C32 C33 1_555 1_555
C33 C34 1_555 1_555
C34 H31 1_555 1_555
C35 C34 1_555 1_555
H32 C35 1_555 1_555
C36 C35 1_555 1_555
H33 C36 1_555 1_555
C37 C32 1_555 1_555
H34 C37 1_555 1_555
C38 C33 1_555 1_555
C39 H35 1_555 1_555
H36 C39 1_555 1_555
C40 C39 1_555 1_555
C41 C40 1_555 1_555
H37 C41 1_555 1_555
C42 C41 1_555 1_555
H38 C42 1_555 1_555
C43 C42 1_555 1_555
H39 C43 1_555 1_555
C44 C43 1_555 1_555
H40 C44 1_555 1_555
C45 C40 1_555 1_555
H41 C45 1_555 1_555
C46 C8 1_555 1_555
H42 C46 1_555 1_555
H43 C46 1_555 1_555
C47 C48 1_555 1_555
C48 C49 1_555 1_555
C49 H44 1_555 1_555
C50 C49 1_555 1_555
H45 C50 1_555 1_555
C51 C50 1_555 1_555
H46 C51 1_555 1_555
C52 C47 1_555 1_555
H47 C52 1_555 1_555
C53 N1 1_555 1_555
N2 C8 1_555 1_555
H48 N2 1_555 1_555
N3 C23 1_555 1_555
H49 N3 1_555 1_555
N4 C38 1_555 1_555
H50 N4 1_555 1_555
O1 S1 1_555 1_555
O2 S1 1_555 1_555
O3 C16 1_555 1_555
O4 C23 1_555 1_555
O5 C31 1_555 1_555
O6 C38 1_555 1_555
O7 C46 1_555 1_555
O8 C53 1_555 1_555
S1 C9 1_555 1_555
C6 C7 1_555 1_555
C13 C14 1_555 1_555
C17 O3 1_555 1_555
C21 C22 1_555 1_555
C24 N3 1_555 1_555
C29 C30 1_555 1_555
C32 O5 1_555 1_555
C36 C37 1_555 1_555
C39 N4 1_555 1_555
C44 C45 1_555 1_555
C47 O7 1_555 1_555
C48 C53 1_555 1_555
C51 C52 1_555 1_555
N2 S1 1_555 1_555

#END
