
#######################################################################
#
#                 Cambridge Crystallographic Data Centre
#                                CCDC 
#
#######################################################################
#
# If this CIF has been generated from an entry in the Cambridge 
# Structural Database, then it will include bibliographic, chemical, 
# crystal, experimental, refinement or atomic coordinate data resulting 
# from the CCDC's data processing and validation procedures.
#
#######################################################################

data_IKAYOK
_chemical_formula_moiety         'C19 H13 F3 O4'
_chemical_name_systematic        
6-(2-oxopropoxy)-2-(3-(trifluoromethyl)benzylidene)-1-benzofuran-3(2H)-one
_chemical_properties_biological  'antiproliferative activity'
_symmetry_cell_setting           triclinic
_symmetry_space_group_name_H-M   'P -1'
_symmetry_Int_Tables_number      2
_space_group_name_Hall           '-P 1'
loop_
_symmetry_equiv_pos_site_id
_symmetry_equiv_pos_as_xyz
1 x,y,z
2 -x,-y,-z
_cell_length_a                   7.0560(3)
_cell_length_b                   9.3078(4)
_cell_length_c                   13.3881(7)
_cell_angle_alpha                73.346(5)
_cell_angle_beta                 77.622(6)
_cell_angle_gamma                73.813(5)
_cell_volume                     800.31
_exptl_crystal_colour            yellow
_exptl_crystal_description       Prism
_cell_formula_units_Z            2
loop_
_atom_site_label
_atom_site_type_symbol
_atom_site_fract_x
_atom_site_fract_y
_atom_site_fract_z
F1 F 0.0784(2) 0.44415(12) 0.89495(9)
O1 O 1.13939(17) -0.26345(12) 0.28504(9)
O2 O 0.69846(16) 0.01694(12) 0.53199(8)
O3 O 0.6825(2) 0.40185(13) 0.38915(10)
F2 F -0.04154(19) 0.25881(15) 0.99693(10)
O4 O 1.2505(3) -0.66868(15) 0.35017(12)
C1 C 1.0342(2) -0.13574(18) 0.31953(12)
F3 F 0.2279(2) 0.29203(17) 1.02240(11)
C2 C 0.4341(2) 0.16011(18) 0.70782(12)
C3 C 0.3194(2) 0.25557(18) 0.77325(12)
H1 H 0.2921 0.3620 0.7470
C4 C 0.8338(2) 0.14120(18) 0.36809(12)
C5 C 0.7123(3) 0.26052(18) 0.41956(12)
C6 C 0.6284(2) 0.17387(17) 0.52386(12)
C7 C 0.4723(3) -0.00018(19) 0.74878(13)
H2 H 0.5480 -0.0659 0.7066
C8 C 0.2842(3) 0.0349(2) 0.91665(13)
H3 H 0.2347 -0.0069 0.9860
C9 C 1.0529(3) 0.00453(19) 0.24648(12)
H4 H 1.1329 0.0034 0.1816
C10 C 1.1310(3) -0.41054(18) 0.35437(13)
H5 H 0.9936 -0.4198 0.3733
H6 H 1.1816 -0.4202 0.4185
C11 C 1.2539(3) -0.53801(19) 0.30205(14)
C12 C 0.8202(2) 0.00101(18) 0.43807(12)
C13 C 0.9179(2) -0.14042(18) 0.41825(12)
H7 H 0.9070 -0.2326 0.4672
C14 C 0.2461(3) 0.19386(19) 0.87637(13)
C15 C 0.3969(3) -0.06015(19) 0.85203(13)
H8 H 0.4225 -0.1665 0.8785
C16 C 0.1291(3) 0.2973(2) 0.94621(13)
C17 C 0.5102(2) 0.23520(18) 0.60090(12)
H9 H 0.4702 0.3422 0.5837
C18 C 0.9543(3) 0.14251(18) 0.27024(12)
H10 H 0.9671 0.2352 0.2223
C19 C 1.3736(3) -0.5008(2) 0.19562(15)
H11 H 1.4415 -0.5945 0.1744
H12 H 1.4697 -0.4469 0.1982
H13 H 1.2866 -0.4369 0.1457
loop_
_geom_bond_atom_site_label_1
_geom_bond_atom_site_label_2
_geom_bond_site_symmetry_1
_geom_bond_site_symmetry_2
F1 C16 1_555 1_555
O1 C1 1_555 1_555
O2 C6 1_555 1_555
O3 C5 1_555 1_555
F2 C16 1_555 1_555
O4 C11 1_555 1_555
C1 C9 1_555 1_555
F3 C16 1_555 1_555
C2 C3 1_555 1_555
C3 H1 1_555 1_555
C4 C5 1_555 1_555
C5 C6 1_555 1_555
C6 C17 1_555 1_555
C7 C2 1_555 1_555
H2 C7 1_555 1_555
C8 H3 1_555 1_555
C9 H4 1_555 1_555
C10 O1 1_555 1_555
H5 C10 1_555 1_555
H6 C10 1_555 1_555
C11 C10 1_555 1_555
C12 O2 1_555 1_555
C13 C1 1_555 1_555
H7 C13 1_555 1_555
C14 C3 1_555 1_555
C15 C7 1_555 1_555
H8 C15 1_555 1_555
C16 C14 1_555 1_555
C17 C2 1_555 1_555
H9 C17 1_555 1_555
C18 C4 1_555 1_555
H10 C18 1_555 1_555
C19 C11 1_555 1_555
H11 C19 1_555 1_555
H12 C19 1_555 1_555
H13 C19 1_555 1_555
C4 C12 1_555 1_555
C8 C14 1_555 1_555
C8 C15 1_555 1_555
C9 C18 1_555 1_555
C12 C13 1_555 1_555

#END
