
#######################################################################
#
#                 Cambridge Crystallographic Data Centre
#                                CCDC 
#
#######################################################################
#
# If this CIF has been generated from an entry in the Cambridge 
# Structural Database, then it will include bibliographic, chemical, 
# crystal, experimental, refinement or atomic coordinate data resulting 
# from the CCDC's data processing and validation procedures.
#
#######################################################################

data_IKEFIO01
_chemical_formula_moiety         'C10 H9 N2 O2 1+,2(H2 O1),Cl1 1-'
_chemical_name_systematic        
'1-(4-carboxyphenyl)-1H-imidazol-3-ium chloride dihydrate'
_symmetry_cell_setting           orthorhombic
_symmetry_space_group_name_H-M   'P b c a'
_symmetry_Int_Tables_number      61
_space_group_name_Hall           '-P 2ac 2ab'
loop_
_symmetry_equiv_pos_site_id
_symmetry_equiv_pos_as_xyz
1 x,y,z
2 1/2-x,-y,1/2+z
3 -x,1/2+y,1/2-z
4 1/2+x,1/2-y,-z
5 -x,-y,-z
6 1/2+x,y,1/2-z
7 x,1/2-y,1/2+z
8 1/2-x,1/2+y,z
_cell_length_a                   7.404(2)
_cell_length_b                   17.690(5)
_cell_length_c                   18.731(5)
_cell_angle_alpha                90
_cell_angle_beta                 90
_cell_angle_gamma                90
_cell_volume                     2453.33
_exptl_crystal_colour            colorless
_exptl_crystal_description       block
_cell_formula_units_Z            8
loop_
_atom_site_label
_atom_site_type_symbol
_atom_site_fract_x
_atom_site_fract_y
_atom_site_fract_z
Cl1 Cl 0.99590(8) 0.14240(4) 0.35013(3)
N1 N 1.1558(2) 0.13525(9) 0.62446(8)
N2 N 1.1423(3) 0.12035(11) 0.51100(9)
H1 H 1.1442 0.0993 0.4696
O1 O 1.1031(2) 0.11858(9) 0.96106(7)
H2 H 1.1128 0.1057 1.0029
O2 O 1.2747(2) 0.01824(9) 0.94407(8)
C1 C 1.1695(3) 0.08572(12) 0.57171(11)
H3 H 1.1945 0.0345 0.5770
C2 C 1.1111(5) 0.19381(14) 0.52323(12)
H4 H 1.0880 0.2307 0.4891
C3 C 1.1196(5) 0.20400(14) 0.59381(12)
H5 H 1.1038 0.2495 0.6178
C4 C 1.1691(3) 0.12008(11) 0.69948(9)
C5 C 1.1111(3) 0.17367(11) 0.74752(11)
H6 H 1.0664 0.2198 0.7315
C6 C 1.1196(3) 0.15852(11) 0.81949(10)
H7 H 1.0803 0.1945 0.8522
C7 C 1.1864(3) 0.09005(10) 0.84347(10)
C8 C 1.2476(3) 0.03749(11) 0.79448(10)
H8 H 1.2954 -0.0081 0.8104
C9 C 1.2383(3) 0.05192(11) 0.72253(10)
H9 H 1.2782 0.0161 0.6897
C10 C 1.1937(3) 0.07139(12) 0.92037(11)
O3 O 0.9078(2) 0.15687(9) 0.18626(8)
H10 H 0.7974 0.1561 0.1833
H11 H 0.9243 0.1424 0.2273
O4 O 1.1325(2) 0.08429(9) 1.09517(7)
H12 H 1.2304 0.1016 1.1075
H13 H 1.0505 0.1012 1.1199
loop_
_geom_bond_atom_site_label_1
_geom_bond_atom_site_label_2
_geom_bond_site_symmetry_1
_geom_bond_site_symmetry_2
N1 C1 1_555 1_555
N2 H1 1_555 1_555
O1 H2 1_555 1_555
O2 C10 1_555 1_555
C1 N2 1_555 1_555
H3 C1 1_555 1_555
C2 N2 1_555 1_555
H4 C2 1_555 1_555
C3 N1 1_555 1_555
H5 C3 1_555 1_555
C4 N1 1_555 1_555
C5 C4 1_555 1_555
H6 C5 1_555 1_555
C6 C5 1_555 1_555
H7 C6 1_555 1_555
C7 C6 1_555 1_555
C8 C7 1_555 1_555
H8 C8 1_555 1_555
C9 C4 1_555 1_555
H9 C9 1_555 1_555
C10 O1 1_555 1_555
O3 H10 1_555 1_555
H11 O3 1_555 1_555
O4 H12 1_555 1_555
H13 O4 1_555 1_555
C2 C3 1_555 1_555
C7 C10 1_555 1_555
C8 C9 1_555 1_555

#END
