
#######################################################################
#
#                 Cambridge Crystallographic Data Centre
#                                CCDC 
#
#######################################################################
#
# If this CIF has been generated from an entry in the Cambridge 
# Structural Database, then it will include bibliographic, chemical, 
# crystal, experimental, refinement or atomic coordinate data resulting 
# from the CCDC's data processing and validation procedures.
#
#######################################################################

data_IKELIV
_chemical_formula_moiety         'C31 H31 N1 O4'
_chemical_name_systematic        
'ethyl 3-benzyl-2-(4-methoxybenzyl)-4-methyl-1-oxo-2,3,3a,4-tetrahydro-1H-benzo[f]isoindole-4-carboxylate'
_symmetry_cell_setting           orthorhombic
_symmetry_space_group_name_H-M   'P 21 21 21'
_symmetry_Int_Tables_number      19
_space_group_name_Hall           'P 2ac 2ab'
loop_
_symmetry_equiv_pos_site_id
_symmetry_equiv_pos_as_xyz
1 x,y,z
2 1/2-x,-y,1/2+z
3 1/2+x,1/2-y,-z
4 -x,1/2+y,1/2-z
_cell_length_a                   8.1913(3)
_cell_length_b                   11.0177(4)
_cell_length_c                   28.1244(11)
_cell_angle_alpha                90
_cell_angle_beta                 90
_cell_angle_gamma                90
_cell_volume                     2538.21
_exptl_crystal_colour            colorless
_exptl_crystal_description       block
_cell_formula_units_Z            4
loop_
_atom_site_label
_atom_site_type_symbol
_atom_site_fract_x
_atom_site_fract_y
_atom_site_fract_z
O1 O 0.6092(3) 0.3053(2) 0.06820(8)
O2 O 0.2077(3) 0.8222(2) -0.07276(8)
O3 O -0.0101(3) 0.4509(2) 0.19617(9)
O4 O 0.0284(3) 0.6454(2) 0.18389(12)
N1 N 0.3393(3) 0.3617(2) 0.06302(8)
C1 C 0.3173(4) 0.5577(3) 0.26052(10)
H1 H 0.2232 0.6048 0.2615
C2 C 0.4124(5) 0.5466(4) 0.30120(12)
H2 H 0.3802 0.5841 0.3293
C3 C 0.5534(5) 0.4803(4) 0.29975(12)
H3 H 0.6175 0.4731 0.3269
C4 C 0.6011(4) 0.4236(3) 0.25802(12)
H4 H 0.6975 0.3791 0.2573
C5 C 0.5057(3) 0.4328(3) 0.21700(10)
C6 C 0.3601(3) 0.4999(2) 0.21849(9)
C7 C 0.2590(3) 0.5166(2) 0.17267(8)
C8 C 0.2743(3) 0.3985(2) 0.14385(9)
H5 H 0.2225 0.3332 0.1621
C9 C 0.4492(3) 0.3667(2) 0.13701(9)
C10 C 0.5573(3) 0.3792(3) 0.17172(10)
H6 H 0.6647 0.3542 0.1674
C11 C 0.4803(3) 0.3381(2) 0.08642(10)
C12 C 0.2017(3) 0.3976(2) 0.09308(9)
H7 H 0.1699 0.4806 0.0847
C13 C 0.3287(5) 0.3635(3) 0.01122(10)
H8 H 0.2439 0.3077 0.0012
H9 H 0.4313 0.3351 -0.0019
C14 C 0.2919(4) 0.4882(3) -0.00866(9)
C15 C 0.3719(4) 0.5897(3) 0.00740(11)
H10 H 0.4449 0.5820 0.0325
C16 C 0.3474(4) 0.7032(3) -0.01254(11)
H11 H 0.4028 0.7706 -0.0008
C17 C 0.2400(4) 0.7149(3) -0.04993(10)
C18 C 0.1565(4) 0.6150(3) -0.06600(11)
H12 H 0.0816 0.6230 -0.0907
C19 C 0.1835(4) 0.5023(3) -0.04556(10)
H13 H 0.1272 0.4350 -0.0570
C20 C 0.3069(5) 0.9233(3) -0.06161(16)
H14 H 0.2788 0.9901 -0.0820
H15 H 0.4196 0.9024 -0.0662
H16 H 0.2897 0.9462 -0.0291
C21 C 0.0536(3) 0.3146(2) 0.08646(11)
H17 H -0.0356 0.3471 0.1052
H18 H 0.0207 0.3186 0.0534
C22 C 0.0751(3) 0.1822(2) 0.09960(10)
C23 C 0.1659(4) 0.1023(3) 0.07193(11)
H19 H 0.2209 0.1311 0.0453
C24 C 0.1755(4) -0.0192(3) 0.08342(12)
H20 H 0.2368 -0.0714 0.0645
C25 C 0.0954(4) -0.0637(3) 0.12253(13)
H21 H 0.0990 -0.1461 0.1296
C26 C 0.0105(5) 0.0141(3) 0.15085(15)
H22 H -0.0407 -0.0150 0.1781
C27 C -0.0003(4) 0.1361(3) 0.13951(13)
H23 H -0.0593 0.1879 0.1592
C28 C 0.3284(4) 0.6275(2) 0.14617(10)
H24 H 0.4386 0.6110 0.1365
H25 H 0.3271 0.6968 0.1669
H26 H 0.2629 0.6439 0.1186
C29 C 0.0781(3) 0.5323(3) 0.18588(10)
C30 C -0.1606(7) 0.6705(6) 0.1893(2)
H27 H -0.1995 0.7307 0.1669
H28 H -0.2250 0.5970 0.1865
C31 C -0.1577(10) 0.7104(7) 0.2314(3)
H29 H -0.1522 0.6435 0.2532
H30 H -0.2550 0.7566 0.2374
H31 H -0.0638 0.7614 0.2356
loop_
_geom_bond_atom_site_label_1
_geom_bond_atom_site_label_2
_geom_bond_site_symmetry_1
_geom_bond_site_symmetry_2
O1 C11 1_555 1_555
O2 C17 1_555 1_555
O3 C29 1_555 1_555
O4 C29 1_555 1_555
N1 C11 1_555 1_555
C1 H1 1_555 1_555
C2 C1 1_555 1_555
H2 C2 1_555 1_555
C3 C2 1_555 1_555
H3 C3 1_555 1_555
C4 C3 1_555 1_555
H4 C4 1_555 1_555
C5 C4 1_555 1_555
C6 C1 1_555 1_555
C7 C6 1_555 1_555
C8 C7 1_555 1_555
H5 C8 1_555 1_555
C9 C8 1_555 1_555
C10 C5 1_555 1_555
H6 C10 1_555 1_555
C11 C9 1_555 1_555
C12 N1 1_555 1_555
H7 C12 1_555 1_555
C13 N1 1_555 1_555
H8 C13 1_555 1_555
H9 C13 1_555 1_555
C14 C13 1_555 1_555
C15 C14 1_555 1_555
H10 C15 1_555 1_555
C16 C15 1_555 1_555
H11 C16 1_555 1_555
C17 C16 1_555 1_555
C18 C17 1_555 1_555
H12 C18 1_555 1_555
C19 C14 1_555 1_555
H13 C19 1_555 1_555
C20 O2 1_555 1_555
H14 C20 1_555 1_555
H15 C20 1_555 1_555
H16 C20 1_555 1_555
C21 C12 1_555 1_555
H17 C21 1_555 1_555
H18 C21 1_555 1_555
C22 C21 1_555 1_555
C23 C22 1_555 1_555
H19 C23 1_555 1_555
C24 C23 1_555 1_555
H20 C24 1_555 1_555
C25 C24 1_555 1_555
H21 C25 1_555 1_555
C26 C25 1_555 1_555
H22 C26 1_555 1_555
C27 C22 1_555 1_555
H23 C27 1_555 1_555
C28 C7 1_555 1_555
H24 C28 1_555 1_555
H25 C28 1_555 1_555
H26 C28 1_555 1_555
C29 C7 1_555 1_555
C30 O4 1_555 1_555
H27 C30 1_555 1_555
H28 C30 1_555 1_555
C31 C30 1_555 1_555
H29 C31 1_555 1_555
H30 C31 1_555 1_555
H31 C31 1_555 1_555
C5 C6 1_555 1_555
C8 C12 1_555 1_555
C9 C10 1_555 1_555
C18 C19 1_555 1_555
C26 C27 1_555 1_555

#END
