
#######################################################################
#
#                 Cambridge Crystallographic Data Centre
#                                CCDC 
#
#######################################################################
#
# If this CIF has been generated from an entry in the Cambridge 
# Structural Database, then it will include bibliographic, chemical, 
# crystal, experimental, refinement or atomic coordinate data resulting 
# from the CCDC's data processing and validation procedures.
#
#######################################################################

data_IKIDEL
_chemical_formula_moiety         'C18 H18 N4'
_chemical_name_systematic        1,4-bis(Pyridine-2-aminomethyl)benzene
_symmetry_cell_setting           monoclinic
_symmetry_space_group_name_H-M   'C 2/c'
_symmetry_Int_Tables_number      15
_space_group_name_Hall           '-C 2yn'
loop_
_symmetry_equiv_pos_site_id
_symmetry_equiv_pos_as_xyz
1 x,y,z
2 1/2+x,1/2+y,z
3 x,-y,1/2+z
4 1/2+x,1/2-y,1/2+z
5 -x,-y,-z
6 1/2-x,1/2-y,-z
7 -x,y,1/2-z
8 1/2-x,1/2+y,1/2-z
_cell_length_a                   18.547(11)
_cell_length_b                   5.539(3)
_cell_length_c                   15.303(9)
_cell_angle_alpha                90
_cell_angle_beta                 105.328(8)
_cell_angle_gamma                90
_cell_volume                     1516.18
_exptl_crystal_colour            colorless
_exptl_crystal_description       block
_chemical_melting_point          465-467K
_cell_formula_units_Z            4
_exptl_crystal_recrystallization_method methanol
loop_
_atom_site_label
_atom_site_type_symbol
_atom_site_fract_x
_atom_site_fract_y
_atom_site_fract_z
C1 C 0.28908(10) 0.5376(3) 0.69349(11)
H1 H 0.2546 0.4138 0.6900
C2 C 0.34709(11) 0.5526(4) 0.76984(12)
H2 H 0.3520 0.4426 0.8170
C3 C 0.39798(11) 0.7361(4) 0.77459(12)
H3 H 0.4383 0.7512 0.8255
C4 C 0.38954(9) 0.8959(3) 0.70480(11)
H4 H 0.4238 1.0202 0.7074
C5 C 0.32818(8) 0.8686(3) 0.62903(10)
C6 C 0.36767(8) 1.1973(3) 0.54305(11)
H5 H 0.3834 1.2968 0.5969
H6 H 0.3432 1.3021 0.4933
C7 C 0.43661(8) 1.0906(3) 0.52261(9)
C8 C 0.50399(9) 1.2093(3) 0.54765(12)
H7 H 0.5076 1.3522 0.5804
C9 C 0.43337(9) 0.8784(3) 0.47466(11)
H8 H 0.3886 0.7934 0.4571
N1 N 0.31354(7) 1.0241(3) 0.55711(9)
H9 H 0.2818(10) 0.960(3) 0.5087(13)
N2 N 0.27875(7) 0.6894(2) 0.62341(9)
C9D C 0.56663(9) 1.1216(3) 0.52534(11)
C7D C 0.56339(8) 0.9094(3) 0.47739(9)
C6D C 0.63233(8) 0.8027(3) 0.45695(11)
H5D H 0.6166 0.7032 0.4031
H6D H 0.6568 0.6979 0.5067
N1D N 0.68646(7) 0.9759(3) 0.44289(9)
C5D C 0.67182(8) 1.1314(3) 0.37097(10)
C4D C 0.61046(9) 1.1041(3) 0.29520(11)
C3D C 0.60202(11) 1.2639(4) 0.22541(12)
C2D C 0.65291(11) 1.4474(4) 0.23016(12)
C1D C 0.71092(10) 1.4624(3) 0.30651(11)
H1D H 0.7454 1.5862 0.3100
N2D N 0.72125(7) 1.3106(2) 0.37659(9)
H2D H 0.6480 1.5574 0.1830
H3D H 0.5617 1.2488 0.1745
H4D H 0.5762 0.9798 0.2926
H9D H 0.7182(10) 1.040(3) 0.4913(13)
C8D C 0.49601(9) 0.7907(3) 0.45235(12)
H7D H 0.4924 0.6478 0.4196
H8D H 0.6114 1.2066 0.5429
loop_
_geom_bond_atom_site_label_1
_geom_bond_atom_site_label_2
_geom_bond_site_symmetry_1
_geom_bond_site_symmetry_2
C1 H1 1_555 1_555
C2 C1 1_555 1_555
H2 C2 1_555 1_555
C3 C2 1_555 1_555
H3 C3 1_555 1_555
C4 C3 1_555 1_555
H4 C4 1_555 1_555
C5 C4 1_555 1_555
C6 H5 1_555 1_555
H6 C6 1_555 1_555
C7 C6 1_555 1_555
C8 C7 1_555 1_555
H7 C8 1_555 1_555
C9 C7 1_555 1_555
H8 C9 1_555 1_555
N1 C5 1_555 1_555
H9 N1 1_555 1_555
N2 C1 1_555 1_555
C9D C8 1_555 1_555
C7D C9D 1_555 1_555
C6D C7D 1_555 1_555
H5D C6D 1_555 1_555
H6D C6D 1_555 1_555
N1D C6D 1_555 1_555
C5D N1D 1_555 1_555
C4D C5D 1_555 1_555
C3D C4D 1_555 1_555
C2D C3D 1_555 1_555
C1D C2D 1_555 1_555
H1D C1D 1_555 1_555
N2D C5D 1_555 1_555
H2D C2D 1_555 1_555
H3D C3D 1_555 1_555
H4D C4D 1_555 1_555
H9D N1D 1_555 1_555
C8D C9 1_555 1_555
H7D C8D 1_555 1_555
H8D C9D 1_555 1_555
C5 N2 1_555 1_555
C6 N1 1_555 1_555
C7D C8D 1_555 1_555
C1D N2D 1_555 1_555

#END
