
#######################################################################
#
#                 Cambridge Crystallographic Data Centre
#                                CCDC 
#
#######################################################################
#
# If this CIF has been generated from an entry in the Cambridge 
# Structural Database, then it will include bibliographic, chemical, 
# crystal, experimental, refinement or atomic coordinate data resulting 
# from the CCDC's data processing and validation procedures.
#
#######################################################################

data_IKIGOA
_chemical_formula_moiety         'C23 H18 N2 O3'
_chemical_name_systematic        
3a,8b-Dihydroxy-3-(4-methylphenyl)-1-phenyl-3a,8b-dihydroindeno[1,2-c]pyrazol-4(1H)-one
_symmetry_cell_setting           monoclinic
_symmetry_space_group_name_H-M   'P 21/c'
_symmetry_Int_Tables_number      14
_space_group_name_Hall           '-P 2ybc'
loop_
_symmetry_equiv_pos_site_id
_symmetry_equiv_pos_as_xyz
1 x,y,z
2 -x,1/2+y,1/2-z
3 -x,-y,-z
4 x,1/2-y,1/2+z
_cell_length_a                   9.1431(18)
_cell_length_b                   9.1296(18)
_cell_length_c                   22.025(4)
_cell_angle_alpha                90
_cell_angle_beta                 91.986(2)
_cell_angle_gamma                90
_cell_volume                     1837.39
_exptl_crystal_colour            yellow
_exptl_crystal_description       Needle
_cell_formula_units_Z            4
loop_
_atom_site_label
_atom_site_type_symbol
_atom_site_fract_x
_atom_site_fract_y
_atom_site_fract_z
O1 O 1.08535(15) 0.24628(16) 0.08107(6)
H1 H 1.1344 0.3092 0.0989
O2 O 1.06887(15) 0.34116(15) 0.19442(7)
H2 H 1.0559 0.4245 0.2070
O3 O 0.92037(19) 0.11254(15) 0.25500(6)
N1 N 0.85124(18) 0.36228(17) 0.07417(7)
N2 N 0.76377(18) 0.42514(18) 0.11595(7)
C1 C 0.7358(3) 0.3938(3) -0.11105(11)
H3 H 0.7101 0.4026 -0.1521
C2 C 0.6354(4) 0.4175(5) -0.06762(13)
H4 H 0.5401 0.4425 -0.0796
C3 C 0.6714(3) 0.4056(4) -0.00633(12)
H5 H 0.6004 0.4206 0.0223
C4 C 0.8110(2) 0.3718(2) 0.01204(9)
C5 C 0.8061(2) 0.3880(2) 0.17062(9)
C6 C 0.7370(2) 0.4495(2) 0.22403(9)
C7 C 0.6151(3) 0.5394(3) 0.21743(10)
H6 H 0.5749 0.5574 0.1788
C8 C 0.5525(3) 0.6026(3) 0.26724(11)
H7 H 0.4713 0.6630 0.2615
C9 C 0.6081(2) 0.5778(3) 0.32556(10)
C10 C 0.5418(3) 0.6483(3) 0.37980(12)
H8 H 0.4969 0.5745 0.4040
H9 H 0.4692 0.7181 0.3664
H10 H 0.6169 0.6972 0.4036
C11 C 0.9438(2) 0.2472(2) 0.10237(8)
C12 C 0.9360(2) 0.2843(2) 0.17111(8)
C13 C 0.9027(2) 0.1372(2) 0.20114(9)
C14 C 0.8524(2) 0.0363(2) 0.15315(9)
C15 C 0.7915(3) -0.1022(2) 0.15949(11)
H11 H 0.7771 -0.1422 0.1977
C16 C 0.7532(3) -0.1779(3) 0.10730(11)
H12 H 0.7129 -0.2711 0.1102
C17 C 0.7738(3) -0.1175(2) 0.05075(11)
H13 H 0.7457 -0.1706 0.0163
C18 C 0.8349(2) 0.0192(2) 0.04405(10)
H14 H 0.8488 0.0584 0.0057
C19 C 0.8752(2) 0.0967(2) 0.09636(9)
C20 C 0.7275(3) 0.4865(2) 0.33204(10)
H15 H 0.7663 0.4669 0.3708
C21 C 0.7915(2) 0.4230(2) 0.28247(9)
H16 H 0.8720 0.3619 0.2885
C22 C 0.9125(3) 0.3476(2) -0.03184(9)
H17 H 1.0085 0.3245 -0.0201
C23 C 0.8737(3) 0.3571(3) -0.09261(10)
H18 H 0.9432 0.3381 -0.1214
loop_
_geom_bond_atom_site_label_1
_geom_bond_atom_site_label_2
_geom_bond_site_symmetry_1
_geom_bond_site_symmetry_2
O1 H1 1_555 1_555
O2 H2 1_555 1_555
O3 C13 1_555 1_555
N1 N2 1_555 1_555
N2 C5 1_555 1_555
C1 H3 1_555 1_555
C2 C1 1_555 1_555
H4 C2 1_555 1_555
C3 C2 1_555 1_555
H5 C3 1_555 1_555
C4 N1 1_555 1_555
C5 C6 1_555 1_555
C6 C7 1_555 1_555
C7 H6 1_555 1_555
C8 C7 1_555 1_555
H7 C8 1_555 1_555
C9 C8 1_555 1_555
C10 C9 1_555 1_555
H8 C10 1_555 1_555
H9 C10 1_555 1_555
H10 C10 1_555 1_555
C11 O1 1_555 1_555
C12 O2 1_555 1_555
C13 C12 1_555 1_555
C14 C13 1_555 1_555
C15 C14 1_555 1_555
H11 C15 1_555 1_555
C16 C15 1_555 1_555
H12 C16 1_555 1_555
C17 C16 1_555 1_555
H13 C17 1_555 1_555
C18 C17 1_555 1_555
H14 C18 1_555 1_555
C19 C11 1_555 1_555
C20 C9 1_555 1_555
H15 C20 1_555 1_555
C21 C6 1_555 1_555
H16 C21 1_555 1_555
C22 C4 1_555 1_555
H17 C22 1_555 1_555
C23 C1 1_555 1_555
H18 C23 1_555 1_555
N1 C11 1_555 1_555
C3 C4 1_555 1_555
C5 C12 1_555 1_555
C11 C12 1_555 1_555
C14 C19 1_555 1_555
C18 C19 1_555 1_555
C20 C21 1_555 1_555
C22 C23 1_555 1_555

#END
