
#######################################################################
#
#                 Cambridge Crystallographic Data Centre
#                                CCDC 
#
#######################################################################
#
# If this CIF has been generated from an entry in the Cambridge 
# Structural Database, then it will include bibliographic, chemical, 
# crystal, experimental, refinement or atomic coordinate data resulting 
# from the CCDC's data processing and validation procedures.
#
#######################################################################

data_IKIZIL
_chemical_formula_moiety         'C88 H112 N4 O8,2.31(C1 H4 O1)'
_chemical_name_systematic        
"5,11,17,23-tetrakis(N-t-Butylaminoxyl)-25,26,27,28-tetrakis(4'-t-butylbenzyloxy)calix(4)arene methanol solvate"
_symmetry_cell_setting           triclinic
_symmetry_space_group_name_H-M   'P -1'
_symmetry_Int_Tables_number      2
_space_group_name_Hall           '-P 1'
loop_
_symmetry_equiv_pos_site_id
_symmetry_equiv_pos_as_xyz
1 x,y,z
2 -x,-y,-z
_cell_length_a                   10.2842(7)
_cell_length_b                   13.0555(8)
_cell_length_c                   33.167(2)
_cell_angle_alpha                95.7790(10)
_cell_angle_beta                 96.7330(10)
_cell_angle_gamma                100.2600(10)
_cell_volume                     4317.94
_exptl_crystal_colour            red
_exptl_crystal_description       plate
_chemical_melting_point          130deg.C
_cell_formula_units_Z            2
loop_
_atom_site_label
_atom_site_type_symbol
_atom_site_fract_x
_atom_site_fract_y
_atom_site_fract_z
O1 O -0.2353(2) -0.38288(15) 0.25669(6)
O2 O -0.1404(3) -0.2765(3) 0.08190(10)
N1 N -0.1552(3) -0.3870(2) 0.09194(7)
C1 C -0.2143(3) -0.3844(2) 0.21605(9)
C2 C -0.2479(3) -0.3039(2) 0.19451(9)
C3 C -0.2297(3) -0.3069(2) 0.15359(9)
H1 H -0.2540 -0.2535 0.1385
C4 C -0.1773(3) -0.3856(2) 0.13443(9)
C5 C -0.1348(3) -0.4597(2) 0.15737(9)
H2 H -0.0932 -0.5114 0.1447
C6 C -0.1516(3) -0.4601(2) 0.19838(9)
C7 C -0.0899(3) -0.5351(2) 0.22378(9)
H3 H -0.0875 -0.5121 0.2533
H4 H -0.1447 -0.6067 0.2173
C8 C -0.2666(3) -0.4493(3) 0.06063(10)
C9 C -0.3919(4) -0.4035(3) 0.06216(13)
H5 H -0.3731 -0.3300 0.0571
H6 H -0.4206 -0.4078 0.0892
H7 H -0.4628 -0.4433 0.0411
C10 C -0.2193(4) -0.4424(3) 0.01924(10)
H8 H -0.2052 -0.3692 0.0136
H9 H -0.2867 -0.4855 -0.0020
H10 H -0.1352 -0.4679 0.0193
C11 C -0.2919(4) -0.5627(3) 0.06914(12)
H11 H -0.3227 -0.5667 0.0959
H12 H -0.2091 -0.5900 0.0691
H13 H -0.3602 -0.6047 0.0479
C12 C -0.3456(3) -0.4629(2) 0.26242(9)
H14 H -0.3210 -0.5328 0.2583
H15 H -0.4238 -0.4621 0.2421
C13 C -0.3800(3) -0.4429(2) 0.30469(9)
C14 C -0.3956(3) -0.3458(3) 0.32116(10)
H16 H -0.3804 -0.2885 0.3057
C15 C -0.4328(3) -0.3291(3) 0.35975(10)
H17 H -0.4425 -0.2606 0.3699
C16 C -0.4561(4) -0.4083(3) 0.38369(10)
C17 C -0.4368(6) -0.5053(3) 0.36741(13)
H18 H -0.4486 -0.5620 0.3833
C18 C -0.4005(5) -0.5230(3) 0.32857(12)
H19 H -0.3897 -0.5912 0.3184
C19 C -0.5008(4) -0.3923(3) 0.42600(10)
C20 C -0.5083(5) -0.2783(3) 0.43878(11)
H20 H -0.5729 -0.2561 0.4190
H21 H -0.4203 -0.2339 0.4396
H22 H -0.5366 -0.2715 0.4660
C21 C -0.4005(5) -0.4265(4) 0.45763(11)
H23 H -0.3967 -0.5003 0.4501
H24 H -0.4290 -0.4178 0.4847
H25 H -0.3120 -0.3831 0.4582
C22 C -0.6381(5) -0.4593(4) 0.42556(13)
H26 H -0.7017 -0.4395 0.4048
H27 H -0.6671 -0.4481 0.4525
H28 H -0.6339 -0.5335 0.4191
O4 O 0.1297(2) -0.37665(15) 0.25951(6)
O5 O 0.3121(3) -0.7423(2) 0.16204(8)
N2 N 0.2292(3) -0.6896(2) 0.14689(8)
C23 C 0.1524(3) -0.4505(2) 0.22909(9)
C24 C 0.0499(3) -0.5361(2) 0.21425(9)
C25 C 0.0765(3) -0.6143(2) 0.18681(9)
H29 H 0.0092 -0.6741 0.1767
C26 C 0.2010(3) -0.6054(2) 0.17406(9)
C27 C 0.2979(3) -0.5159(2) 0.18643(9)
H30 H 0.3813 -0.5094 0.1763
C28 C 0.2734(3) -0.4352(2) 0.21366(9)
C29 C 0.3642(3) -0.3292(2) 0.22136(10)
H31 H 0.4526 -0.3350 0.2134
H32 H 0.3767 -0.3026 0.2509
C30 C 0.1992(4) -0.7008(3) 0.10140(10)
C31 C 0.0836(4) -0.6489(3) 0.08929(11)
H33 H 0.1058 -0.5745 0.1005
H34 H 0.0046 -0.6831 0.1001
H35 H 0.0651 -0.6552 0.0594
C32 C 0.1608(5) -0.8181(3) 0.08624(13)
H36 H 0.0825 -0.8490 0.0982
H37 H 0.2355 -0.8523 0.0945
H38 H 0.1400 -0.8282 0.0563
C33 C 0.3235(5) -0.6504(4) 0.08626(13)
H39 H 0.3388 -0.5743 0.0939
H40 H 0.3136 -0.6662 0.0564
H41 H 0.3995 -0.6778 0.0986
C34 C 0.1758(4) -0.4044(3) 0.29922(9)
H42 H 0.2744 -0.3939 0.3031
H43 H 0.1399 -0.4794 0.3004
C35 C 0.1319(3) -0.3390(3) 0.33262(9)
C36 C 0.0087(4) -0.3668(3) 0.34487(10)
H44 H -0.0492 -0.4291 0.3317
C37 C -0.0338(4) -0.3071(3) 0.37572(11)
H45 H -0.1197 -0.3290 0.3834
C38 C 0.0480(4) -0.2153(3) 0.39566(10)
C39 C 0.1714(4) -0.1867(3) 0.38299(10)
H46 H 0.2291 -0.1239 0.3959
C40 C 0.2130(3) -0.2467(3) 0.35219(10)
H47 H 0.2984 -0.2246 0.3443
C41 C 0.0016(4) -0.1504(3) 0.43059(11)
C42 C -0.0175(7) -0.2152(5) 0.46576(15)
H48 H 0.0643 -0.2413 0.4736
H49 H -0.0917 -0.2747 0.4571
H50 H -0.0374 -0.1715 0.4892
C43 C -0.1360(6) -0.1250(5) 0.41527(18)
H51 H -0.1676 -0.0857 0.4377
H52 H -0.2001 -0.1906 0.4059
H53 H -0.1273 -0.0829 0.3926
C44 C 0.0977(6) -0.0484(5) 0.44534(19)
H54 H 0.1118 -0.0085 0.4222
H55 H 0.1830 -0.0630 0.4574
H56 H 0.0607 -0.0073 0.4660
O6 O 0.3302(2) -0.12406(16) 0.25562(6)
O7 O 0.1132(3) -0.3736(2) 0.08307(9)
N3 N 0.1297(3) -0.2573(2) 0.09029(8)
C48 C 0.2822(3) -0.1570(2) 0.21438(9)
C49 C 0.3029(3) -0.2538(2) 0.19658(9)
C50 C 0.2551(3) -0.2840(2) 0.15544(9)
H66 H 0.2700 -0.3484 0.1426
C51 C 0.1864(3) -0.2228(2) 0.13277(9)
C52 C 0.1609(3) -0.1308(3) 0.15161(9)
H67 H 0.1097 -0.0904 0.1363
C53 C 0.2084(3) -0.0960(2) 0.19254(9)
C54 C 0.1676(3) 0.0008(2) 0.21298(10)
H68 H 0.1967 0.0084 0.2428
H69 H 0.2122 0.0640 0.2023
C55 C 0.2126(4) -0.2197(3) 0.05893(10)
C56 C 0.1331(4) -0.2607(3) 0.01695(10)
H70 H 0.0492 -0.2345 0.0145
H71 H 0.1136 -0.3375 0.0136
H72 H 0.1852 -0.2363 -0.0043
C57 C 0.3427(4) -0.2609(4) 0.06307(14)
H73 H 0.3954 -0.2317 0.0896
H74 H 0.3936 -0.2398 0.0411
H75 H 0.3228 -0.3376 0.0612
C58 C 0.2405(5) -0.0998(3) 0.06353(12)
H76 H 0.1559 -0.0749 0.0620
H77 H 0.2891 -0.0755 0.0415
H78 H 0.2943 -0.0723 0.0900
C59 C 0.4534(3) -0.0487(3) 0.26088(9)
H79 H 0.4462 0.0052 0.2422
H80 H 0.5272 -0.0841 0.2543
C60 C 0.4809(3) 0.0017(2) 0.30444(9)
C61 C 0.5138(3) -0.0548(3) 0.33590(10)
H81 H 0.5240 -0.1253 0.3297
C62 C 0.5321(4) -0.0104(3) 0.37612(10)
H82 H 0.5524 -0.0517 0.3971
C63 C 0.5215(3) 0.0936(3) 0.38681(10)
C64 C 0.4929(3) 0.1495(3) 0.35490(10)
H83 H 0.4867 0.2210 0.3608
C65 C 0.4727(3) 0.1047(3) 0.31453(10)
H84 H 0.4529 0.1460 0.2934
C66 C 0.5367(4) 0.1419(3) 0.43133(10)
C67 C 0.6604(8) 0.1097(6) 0.4554(2)
H85 H 0.7409 0.1367 0.4437
H86 H 0.6472 0.0330 0.4534
H87 H 0.6705 0.1391 0.4842
C68 C 0.4176(8) 0.0886(6) 0.45020(19)
H88 H 0.4030 0.0125 0.4425
H89 H 0.3377 0.1146 0.4401
H90 H 0.4358 0.1045 0.4801
C69 C 0.5531(11) 0.2562(4) 0.43664(18)
H91 H 0.6306 0.2866 0.4242
H92 H 0.5668 0.2821 0.4659
H93 H 0.4729 0.2765 0.4234
O9 O -0.0034(2) -0.15435(16) 0.24144(6)
C73 C -0.0652(3) -0.0888(2) 0.21881(9)
C74 C -0.2026(3) -0.1084(2) 0.20757(9)
C75 C -0.2569(3) -0.0391(2) 0.18470(10)
H103 H -0.3510 -0.0495 0.1776
C76 C -0.0385(3) 0.0601(2) 0.18198(10)
H104 H 0.0169 0.1171 0.1730
C77 C 0.0181(3) -0.0077(2) 0.20500(9)
C78 C -0.2915(3) -0.2090(2) 0.21504(10)
H105 H -0.2867 -0.2128 0.2448
H106 H -0.3852 -0.2088 0.2041
C79 C -0.1764(3) 0.0450(2) 0.17207(9)
N4 N -0.2311(3) 0.1168(2) 0.14973(8)
O12 O -0.1596(5) 0.2030(5) 0.1461(3)
C85 C -0.3494(7) 0.0724(5) 0.1116(2)
C86 C -0.4767(5) 0.0792(11) 0.1280(4)
H120 H -0.5135 0.0116 0.1365
H121 H -0.5406 0.0966 0.1066
H122 H -0.4599 0.1339 0.1515
C87 C -0.3563(11) -0.0386(6) 0.0919(3)
H123 H -0.4079 -0.0882 0.1071
H124 H -0.2658 -0.0529 0.0923
H125 H -0.3997 -0.0466 0.0635
C88 C -0.3348(14) 0.1470(8) 0.0789(3)
H126 H -0.3519 0.2154 0.0895
H127 H -0.3991 0.1178 0.0545
H128 H -0.2440 0.1555 0.0717
C90 C -0.0238(4) -0.1547(3) 0.28383(10)
H133 H 0.0456 -0.1867 0.2983
H134 H -0.1116 -0.1990 0.2851
C91 C -0.0191(3) -0.0471(3) 0.30567(10)
C92 C 0.1017(3) 0.0180(3) 0.32135(10)
H135 H 0.1826 -0.0062 0.3191
C93 C 0.1055(4) 0.1178(3) 0.34022(11)
H136 H 0.1897 0.1613 0.3503
C94 C -0.0096(4) 0.1567(3) 0.34504(11)
C95 C -0.1294(4) 0.0899(3) 0.32983(12)
H137 H -0.2106 0.1132 0.3328
C96 C -0.1338(4) -0.0093(3) 0.31055(11)
H138 H -0.2180 -0.0528 0.3004
C97 C -0.0005(5) 0.2672(3) 0.36664(15)
C98 C 0.0536(8) 0.2710(5) 0.41248(17)
H139 H 0.0613 0.3422 0.4263
H140 H 0.1416 0.2514 0.4150
H141 H -0.0079 0.2218 0.4251
C99 C 0.0990(6) 0.3451(3) 0.35055(18)
H142 H 0.0715 0.3460 0.3213
H143 H 0.1868 0.3253 0.3545
H144 H 0.1041 0.4149 0.3653
C100 C -0.1325(6) 0.3006(4) 0.3645(3)
H145 H -0.1223 0.3694 0.3806
H146 H -0.1960 0.2491 0.3755
H147 H -0.1658 0.3051 0.3359
O11 O -0.2397(11) 0.0456(9) 0.0561(2)
H116 H -0.2458 0.0698 0.0801
C84 C -0.196(2) -0.0570(12) 0.0564(6)
H117 H -0.1000 -0.0450 0.0661
H118 H -0.2138 -0.0947 0.0287
H119 H -0.2449 -0.0989 0.0747
O13 O -0.3126(8) 0.2796(6) 0.2675(2)
H129 H -0.3838 0.2896 0.2547
C89 C -0.2646(13) 0.1971(9) 0.2445(4)
H130 H -0.2647 0.2111 0.2161
H131 H -0.3231 0.1296 0.2454
H132 H -0.1736 0.1948 0.2566
O14 O 0.4019(3) -0.7182(3) 0.24605(10)
H148 H 0.3753 -0.7207 0.2210
C101 C 0.3007(5) -0.6958(4) 0.26877(14)
H149 H 0.3302 -0.6959 0.2980
H150 H 0.2197 -0.7494 0.2601
H151 H 0.2817 -0.6267 0.2641
O15 O -0.4873(11) 0.0562(9) 0.0103(3)
H152 H -0.4184 0.0492 0.0252
C102 C -0.5283(14) 0.1402(10) 0.0252(4)
H153 H -0.5842 0.1222 0.0464
H154 H -0.5804 0.1665 0.0032
H155 H -0.4510 0.1945 0.0371
O3? O -0.0403(7) -0.4407(6) 0.08513(19)
C45? C 0.1072(16) -0.1497(18) 0.4668(4)
H57? H 0.1955 -0.1213 0.4599
H58? H 0.1048 -0.2214 0.4734
H59? H 0.0894 -0.1058 0.4905
C46? C -0.1350(12) -0.1977(16) 0.4430(6)
H60? H -0.1624 -0.1459 0.4621
H61? H -0.1270 -0.2606 0.4562
H62? H -0.2018 -0.2165 0.4185
C47? C -0.002(2) -0.0398(8) 0.4216(6)
H63? H -0.0229 0.0009 0.4455
H64? H -0.0696 -0.0413 0.3981
H65? H 0.0859 -0.0073 0.4152
O8? O -0.0009(9) -0.2065(7) 0.0815(2)
C70? C 0.5394(12) 0.0590(7) 0.4622(3)
H94? H 0.6209 0.0300 0.4616
H95? H 0.4613 0.0024 0.4545
H96? H 0.5379 0.0927 0.4899
C71? C 0.4092(8) 0.1843(9) 0.4366(3)
H97? H 0.4054 0.2430 0.4205
H98? H 0.4094 0.2084 0.4655
H99? H 0.3313 0.1284 0.4270
C72? C 0.6567(9) 0.2236(9) 0.4418(3)
H100? H 0.7348 0.1943 0.4358
H101? H 0.6673 0.2497 0.4709
H102? H 0.6486 0.2814 0.4255
O10? O -0.1597(3) 0.1762(3) 0.13023(14)
C80? C -0.3565(5) 0.1624(4) 0.16542(18)
C81? C -0.4785(4) 0.0854(7) 0.1467(3)
H107? H -0.4895 0.0253 0.1623
H108? H -0.4698 0.0615 0.1184
H109? H -0.5565 0.1188 0.1472
C82? C -0.3557(7) 0.1798(5) 0.2114(2)
H110? H -0.4314 0.2119 0.2174
H111? H -0.2723 0.2263 0.2241
H112? H -0.3627 0.1123 0.2223
C83? C -0.3623(6) 0.2660(4) 0.1480(2)
H113? H -0.3758 0.2534 0.1181
H114? H -0.2783 0.3157 0.1575
H115? H -0.4364 0.2953 0.1575
N5? N -0.2311(3) 0.1168(2) 0.14973(8)
loop_
_geom_bond_atom_site_label_1
_geom_bond_atom_site_label_2
_geom_bond_site_symmetry_1
_geom_bond_site_symmetry_2
O1 C1 1_555 1_555
O2 N1 1_555 1_555
N1 C4 1_555 1_555
C1 C2 1_555 1_555
C2 C3 1_555 1_555
C3 H1 1_555 1_555
C4 C3 1_555 1_555
C5 C4 1_555 1_555
H2 C5 1_555 1_555
C6 C1 1_555 1_555
C7 C6 1_555 1_555
H3 C7 1_555 1_555
H4 C7 1_555 1_555
C8 N1 1_555 1_555
C9 C8 1_555 1_555
H5 C9 1_555 1_555
H6 C9 1_555 1_555
H7 C9 1_555 1_555
C10 C8 1_555 1_555
H8 C10 1_555 1_555
H9 C10 1_555 1_555
H10 C10 1_555 1_555
C11 C8 1_555 1_555
H11 C11 1_555 1_555
H12 C11 1_555 1_555
H13 C11 1_555 1_555
C12 O1 1_555 1_555
H14 C12 1_555 1_555
H15 C12 1_555 1_555
C13 C12 1_555 1_555
C14 C13 1_555 1_555
H16 C14 1_555 1_555
C15 C14 1_555 1_555
H17 C15 1_555 1_555
C16 C15 1_555 1_555
C17 C16 1_555 1_555
H18 C17 1_555 1_555
C18 C13 1_555 1_555
H19 C18 1_555 1_555
C19 C16 1_555 1_555
C20 C19 1_555 1_555
H20 C20 1_555 1_555
H21 C20 1_555 1_555
H22 C20 1_555 1_555
C21 C19 1_555 1_555
H23 C21 1_555 1_555
H24 C21 1_555 1_555
H25 C21 1_555 1_555
C22 C19 1_555 1_555
H26 C22 1_555 1_555
H27 C22 1_555 1_555
H28 C22 1_555 1_555
O4 C23 1_555 1_555
O5 N2 1_555 1_555
N2 C26 1_555 1_555
C23 C24 1_555 1_555
C24 C7 1_555 1_555
C25 C24 1_555 1_555
H29 C25 1_555 1_555
C26 C25 1_555 1_555
C27 C26 1_555 1_555
H30 C27 1_555 1_555
C28 C23 1_555 1_555
C29 C28 1_555 1_555
H31 C29 1_555 1_555
H32 C29 1_555 1_555
C30 N2 1_555 1_555
C31 C30 1_555 1_555
H33 C31 1_555 1_555
H34 C31 1_555 1_555
H35 C31 1_555 1_555
C32 C30 1_555 1_555
H36 C32 1_555 1_555
H37 C32 1_555 1_555
H38 C32 1_555 1_555
C33 C30 1_555 1_555
H39 C33 1_555 1_555
H40 C33 1_555 1_555
H41 C33 1_555 1_555
C34 O4 1_555 1_555
H42 C34 1_555 1_555
H43 C34 1_555 1_555
C35 C34 1_555 1_555
C36 C35 1_555 1_555
H44 C36 1_555 1_555
C37 C36 1_555 1_555
H45 C37 1_555 1_555
C38 C37 1_555 1_555
C39 C38 1_555 1_555
H46 C39 1_555 1_555
C40 C35 1_555 1_555
H47 C40 1_555 1_555
C41 C38 1_555 1_555
C42 C41 1_555 1_555
H48 C42 1_555 1_555
H49 C42 1_555 1_555
H50 C42 1_555 1_555
C43 C41 1_555 1_555
H51 C43 1_555 1_555
H52 C43 1_555 1_555
H53 C43 1_555 1_555
C44 C41 1_555 1_555
H54 C44 1_555 1_555
H55 C44 1_555 1_555
H56 C44 1_555 1_555
O6 C48 1_555 1_555
O7 N3 1_555 1_555
N3 C51 1_555 1_555
C48 C49 1_555 1_555
C49 C29 1_555 1_555
C50 C49 1_555 1_555
H66 C50 1_555 1_555
C51 C50 1_555 1_555
C52 C51 1_555 1_555
H67 C52 1_555 1_555
C53 C48 1_555 1_555
C54 C53 1_555 1_555
H68 C54 1_555 1_555
H69 C54 1_555 1_555
C55 N3 1_555 1_555
C56 C55 1_555 1_555
H70 C56 1_555 1_555
H71 C56 1_555 1_555
H72 C56 1_555 1_555
C57 C55 1_555 1_555
H73 C57 1_555 1_555
H74 C57 1_555 1_555
H75 C57 1_555 1_555
C58 C55 1_555 1_555
H76 C58 1_555 1_555
H77 C58 1_555 1_555
H78 C58 1_555 1_555
C59 O6 1_555 1_555
H79 C59 1_555 1_555
H80 C59 1_555 1_555
C60 C59 1_555 1_555
C61 C60 1_555 1_555
H81 C61 1_555 1_555
C62 C61 1_555 1_555
H82 C62 1_555 1_555
C63 C62 1_555 1_555
C64 C63 1_555 1_555
H83 C64 1_555 1_555
C65 C60 1_555 1_555
H84 C65 1_555 1_555
C66 C63 1_555 1_555
C67 C66 1_555 1_555
H85 C67 1_555 1_555
H86 C67 1_555 1_555
H87 C67 1_555 1_555
C68 C66 1_555 1_555
H88 C68 1_555 1_555
H89 C68 1_555 1_555
H90 C68 1_555 1_555
C69 C66 1_555 1_555
H91 C69 1_555 1_555
H92 C69 1_555 1_555
H93 C69 1_555 1_555
O9 C73 1_555 1_555
C73 C74 1_555 1_555
C74 C75 1_555 1_555
C75 H103 1_555 1_555
C76 H104 1_555 1_555
C77 C54 1_555 1_555
C78 C2 1_555 1_555
H105 C78 1_555 1_555
H106 C78 1_555 1_555
C79 C75 1_555 1_555
N4 C79 1_555 1_555
O11 H116 1_555 1_555
C84 O11 1_555 1_555
H117 C84 1_555 1_555
H118 C84 1_555 1_555
H119 C84 1_555 1_555
O12 N4 1_555 1_555
C85 N4 1_555 1_555
C86 C85 1_555 1_555
H120 C86 1_555 1_555
H121 C86 1_555 1_555
H122 C86 1_555 1_555
C87 C85 1_555 1_555
H123 C87 1_555 1_555
H124 C87 1_555 1_555
H125 C87 1_555 1_555
C88 C85 1_555 1_555
H126 C88 1_555 1_555
H127 C88 1_555 1_555
H128 C88 1_555 1_555
O13 H129 1_555 1_555
C89 O13 1_555 1_555
H130 C89 1_555 1_555
H131 C89 1_555 1_555
H132 C89 1_555 1_555
C90 O9 1_555 1_555
H133 C90 1_555 1_555
H134 C90 1_555 1_555
C91 C90 1_555 1_555
C92 C91 1_555 1_555
H135 C92 1_555 1_555
C93 C92 1_555 1_555
H136 C93 1_555 1_555
C94 C93 1_555 1_555
C95 C94 1_555 1_555
H137 C95 1_555 1_555
C96 C91 1_555 1_555
H138 C96 1_555 1_555
C97 C94 1_555 1_555
C98 C97 1_555 1_555
H139 C98 1_555 1_555
H140 C98 1_555 1_555
H141 C98 1_555 1_555
C99 C97 1_555 1_555
H142 C99 1_555 1_555
H143 C99 1_555 1_555
H144 C99 1_555 1_555
C100 C97 1_555 1_555
H145 C100 1_555 1_555
H146 C100 1_555 1_555
H147 C100 1_555 1_555
O14 H148 1_555 1_555
C101 O14 1_555 1_555
H149 C101 1_555 1_555
H150 C101 1_555 1_555
H151 C101 1_555 1_555
O15 H152 1_555 1_555
C102 O15 1_555 1_555
H153 C102 1_555 1_555
H154 C102 1_555 1_555
H155 C102 1_555 1_555
C5 C6 1_555 1_555
C17 C18 1_555 1_555
C27 C28 1_555 1_555
C39 C40 1_555 1_555
C52 C53 1_555 1_555
C64 C65 1_555 1_555
C73 C77 1_555 1_555
C74 C78 1_555 1_555
C76 C79 1_555 1_555
C76 C77 1_555 1_555
C95 C96 1_555 1_555

#END
