
#######################################################################
#
#                 Cambridge Crystallographic Data Centre
#                                CCDC 
#
#######################################################################
#
# If this CIF has been generated from an entry in the Cambridge 
# Structural Database, then it will include bibliographic, chemical, 
# crystal, experimental, refinement or atomic coordinate data resulting 
# from the CCDC's data processing and validation procedures.
#
#######################################################################

data_IKODUH
_chemical_formula_moiety         'C17 H26 O2'
_chemical_name_systematic        12-Hydroxy-16-methoxy-(10)paracyclophane
_symmetry_cell_setting           orthorhombic
_symmetry_space_group_name_H-M   'P n a 21'
_symmetry_Int_Tables_number      33
_space_group_name_Hall           'P 2c -2n'
loop_
_symmetry_equiv_pos_site_id
_symmetry_equiv_pos_as_xyz
1 x,y,z
2 -x,-y,1/2+z
3 1/2+x,1/2-y,z
4 1/2-x,1/2+y,1/2+z
_cell_length_a                   15.3076(9)
_cell_length_b                   14.6049(9)
_cell_length_c                   27.4736(18)
_cell_angle_alpha                90
_cell_angle_beta                 90
_cell_angle_gamma                90
_cell_volume                     6142.16
_cell_formula_units_Z            16
loop_
_atom_site_label
_atom_site_type_symbol
_atom_site_fract_x
_atom_site_fract_y
_atom_site_fract_z
C1 C 0.2672(5) 1.1198(4) 0.1150(3)
C2 C 0.1998(5) 1.1746(4) 0.1311(3)
C3 C 0.1951(5) 1.2602(5) 0.1097(3)
C4 C 0.2470(6) 1.2866(5) 0.0694(3)
C5 C 0.3089(6) 1.2238(5) 0.0527(3)
C6 C 0.3201(6) 1.1377(5) 0.0748(3)
C7 C 0.1329(6) 1.1433(6) 0.1665(4)
C8 C 0.0508(12) 1.1046(11) 0.1434(6)
C9 C 0.0404(14) 1.0497(14) 0.0961(9)
O1 O 0.2746(3) 1.0349(4) 0.1396(2)
O2 O 0.1320(3) 1.3221(3) 0.12829(19)
C37 C 0.024(2) 1.082(2) 0.0525(16)
C38 C 0.044(2) 1.0540(19) 0.0025(12)
C39 C 0.1485(16) 1.0768(16) -0.0192(10)
C40 C 0.198(3) 1.168(3) -0.0504(18)
C41 C 0.276(3) 1.100(4) -0.040(2)
C42 C 0.296(2) 1.229(2) -0.0400(12)
C43 C 0.3596(9) 1.2438(9) 0.0037(6)
C44 C 0.3467(6) 0.9789(6) 0.1281(4)
C10 C 0.2288(5) 0.4937(4) -0.0268(3)
C11 C 0.1642(5) 0.5140(4) 0.0507(3)
C12 C 0.2358(5) 0.5682(4) 0.0641(3)
C13 C 0.2987(5) 0.5878(5) 0.0320(3)
C14 C 0.2988(5) 0.5478(5) -0.0139(3)
C15 C 0.0768(6) 0.4263(5) -0.0131(3)
C16 C -0.0021(11) 0.5029(12) -0.0271(7)
C17 C 0.0278(10) 0.5758(10) -0.0565(6)
O3 O 0.2213(4) 0.4508(4) -0.0728(2)
O4 O 0.0975(3) 0.4928(3) 0.0828(2)
C36 C 0.1582(5) 0.4772(5) 0.0035(3)
C45 C 0.0535(11) 0.6614(11) -0.0364(6)
C46 C 0.1125(13) 0.7270(13) -0.0605(8)
C47 C 0.1398(9) 0.8072(10) -0.0384(5)
C48 C 0.1906(8) 0.7948(8) 0.0121(5)
C49 C 0.2901(7) 0.7839(7) 0.0029(4)
C50 C 0.3379(6) 0.7539(6) 0.0489(4)
C51 C 0.3722(6) 0.6561(5) 0.0442(3)
C52 C 0.2997(7) 0.4557(7) -0.1037(4)
C18 C -0.0587(4) 0.7516(4) 0.1913(3)
C19 C 0.0140(4) 0.7068(4) 0.1692(2)
C20 C 0.0415(4) 0.6261(4) 0.1924(2)
C21 C 0.0042(5) 0.5959(4) 0.2364(3)
C22 C -0.0610(5) 0.6456(4) 0.2569(3)
C23 C -0.0959(5) 0.7222(4) 0.2330(3)
C24 C 0.0665(5) 0.7483(5) 0.1295(3)
C25 C 0.1383(10) 0.8113(9) 0.1521(6)
C26 C 0.1141(17) 0.8719(18) 0.1911(10)
O5 O -0.0847(3) 0.8280(3) 0.16669(19)
O6 O 0.1091(3) 0.5796(3) 0.17177(17)
C53 C 0.1893(7) 0.8797(6) 0.2291(4)
C54 C 0.1165(14) 0.8781(14) 0.2657(8)
C55 C 0.0976(7) 0.8009(6) 0.2954(4)
C56 C 0.0270(14) 0.8164(14) 0.3300(8)
C57 C 0.0021(7) 0.7222(7) 0.3641(4)
C58 C -0.0948(7) 0.6961(7) 0.3446(4)
C59 C -0.0947(6) 0.6147(6) 0.3079(4)
C60 C -0.1391(5) 0.8920(5) 0.1918(3)
C27 C 0.3659(5) 0.4336(5) 0.2948(3)
C28 C 0.2853(5) 0.4562(5) 0.2734(3)
C29 C 0.2605(5) 0.4044(4) 0.2333(3)
C30 C 0.3110(5) 0.3337(5) 0.2147(3)
C31 C 0.3893(5) 0.3122(5) 0.2387(3)
C32 C 0.4173(5) 0.3630(5) 0.2778(3)
C33 C 0.2254(5) 0.5280(5) 0.2956(3)
C34 C 0.1763(8) 0.4937(7) 0.3411(4)
C35 C 0.1312(7) 0.3977(7) 0.3328(4)
O7 O 0.3860(4) 0.4867(3) 0.3338(2)
O8 O 0.1804(3) 0.4250(3) 0.20992(18)
C61 C 0.1714(8) 0.3304(8) 0.3638(5)
C62 C 0.1370(9) 0.2336(8) 0.3561(5)
C63 C 0.1728(9) 0.1885(8) 0.3098(5)
C64 C 0.2733(8) 0.1752(8) 0.3096(5)
C65 C 0.3059(8) 0.1289(8) 0.2637(5)
C66 C 0.4036(8) 0.1404(8) 0.2572(5)
C67 C 0.4366(6) 0.2240(6) 0.2238(4)
C68 C 0.4655(6) 0.4626(6) 0.3603(4)
loop_
_geom_bond_atom_site_label_1
_geom_bond_atom_site_label_2
_geom_bond_site_symmetry_1
_geom_bond_site_symmetry_2
C1 C2 1_555 1_555
C2 C3 1_555 1_555
C3 C4 1_555 1_555
C4 C5 1_555 1_555
C5 C6 1_555 1_555
C6 C1 1_555 1_555
C7 C2 1_555 1_555
C8 C7 1_555 1_555
C9 C8 1_555 1_555
O1 C1 1_555 1_555
O2 C3 1_555 1_555
C10 C14 1_555 1_555
C11 C12 1_555 1_555
C12 C13 1_555 1_555
C13 C14 1_555 1_555
C15 C16 1_555 1_555
C16 C17 1_555 1_555
C17 C45 1_555 1_555
O3 C10 1_555 1_555
O4 C11 1_555 1_555
C18 C19 1_555 1_555
C19 C20 1_555 1_555
C20 C21 1_555 1_555
C21 C22 1_555 1_555
C22 C23 1_555 1_555
C23 C18 1_555 1_555
C24 C19 1_555 1_555
C25 C24 1_555 1_555
C26 C25 1_555 1_555
O5 C18 1_555 1_555
O6 C20 1_555 1_555
C27 C28 1_555 1_555
C28 C29 1_555 1_555
C29 C30 1_555 1_555
C30 C31 1_555 1_555
C31 C32 1_555 1_555
C32 C27 1_555 1_555
C33 C28 1_555 1_555
C34 C33 1_555 1_555
C35 C34 1_555 1_555
O7 C27 1_555 1_555
O8 C29 1_555 1_555
C36 C10 1_555 1_555
C37 C9 1_555 1_555
C38 C37 1_555 1_555
C39 C38 1_555 1_555
C40 C39 1_555 1_555
C41 C40 1_555 1_555
C42 C41 1_555 1_555
C43 C5 1_555 1_555
C44 O1 1_555 1_555
C45 C46 1_555 1_555
C46 C47 1_555 1_555
C47 C48 1_555 1_555
C48 C49 1_555 1_555
C49 C50 1_555 1_555
C50 C51 1_555 1_555
C51 C13 1_555 1_555
C52 O3 1_555 1_555
C53 C26 1_555 1_555
C54 C53 1_555 1_555
C55 C54 1_555 1_555
C56 C55 1_555 1_555
C57 C56 1_555 1_555
C58 C57 1_555 1_555
C59 C22 1_555 1_555
C60 O5 1_555 1_555
C61 C35 1_555 1_555
C62 C61 1_555 1_555
C63 C62 1_555 1_555
C64 C63 1_555 1_555
C65 C64 1_555 1_555
C66 C65 1_555 1_555
C67 C31 1_555 1_555
C68 O7 1_555 1_555
C11 C36 1_555 1_555
C15 C36 1_555 1_555
C42 C43 1_555 1_555
C58 C59 1_555 1_555
C66 C67 1_555 1_555

#END
