
#######################################################################
#
#                 Cambridge Crystallographic Data Centre
#                                CCDC 
#
#######################################################################
#
# If this CIF has been generated from an entry in the Cambridge 
# Structural Database, then it will include bibliographic, chemical, 
# crystal, experimental, refinement or atomic coordinate data resulting 
# from the CCDC's data processing and validation procedures.
#
#######################################################################

data_IKOVEK
_chemical_formula_moiety         'C39 H40 N2 Si1,3.5(C4 H8 O1)'
_chemical_name_systematic        
'1-(4,5-dimethyl-1,3-diisopropylimidazol-2-ylidene)-2,3,4,5-tetraphenyl-1-silacyclopenta-2,4-diene tetrahydrofuran solvate'
_symmetry_cell_setting           triclinic
_symmetry_space_group_name_H-M   'P -1'
_symmetry_Int_Tables_number      2
_space_group_name_Hall           '-P 1'
loop_
_symmetry_equiv_pos_site_id
_symmetry_equiv_pos_as_xyz
1 x,y,z
2 -x,-y,-z
_cell_length_a                   13.436(7)
_cell_length_b                   13.620(7)
_cell_length_c                   15.581(7)
_cell_angle_alpha                92.464(5)
_cell_angle_beta                 111.247(4)
_cell_angle_gamma                113.704(6)
_cell_volume                     2373.07
_exptl_crystal_colour            colorless
_exptl_crystal_description       prism
_cell_formula_units_Z            2
loop_
_atom_site_label
_atom_site_type_symbol
_atom_site_fract_x
_atom_site_fract_y
_atom_site_fract_z
Si1 Si 0.5136(13) 0.0047(12) 0.3546(10)
N1 N 0.396(4) 0.104(4) 0.209(3)
N2 N 0.316(4) 0.063(4) 0.309(3)
C1 C 0.663(5) 0.123(5) 0.387(4)
C2 C 0.727(5) 0.088(5) 0.351(4)
C3 C 0.657(5) -0.021(4) 0.288(4)
C4 C 0.536(5) -0.072(4) 0.268(4)
C5 C 0.446(5) -0.177(4) 0.201(4)
C6 C 0.450(5) -0.213(5) 0.117(4)
H1 H 0.5161 -0.1701 0.1031
C7 C 0.360(6) -0.310(5) 0.053(5)
H2 H 0.3659 -0.3321 -0.0028
C8 C 0.262(6) -0.375(5) 0.070(5)
H3 H 0.2005 -0.4415 0.0262
C9 C 0.254(5) -0.340(5) 0.151(5)
H4 H 0.1868 -0.3825 0.1634
C10 C 0.344(5) -0.243(5) 0.215(4)
H5 H 0.3370 -0.2212 0.2703
C11 C 0.720(5) -0.073(5) 0.255(4)
C12 C 0.776(5) -0.030(6) 0.196(4)
H6 H 0.7755 0.0342 0.1762
C13 C 0.834(6) -0.080(7) 0.167(5)
H7 H 0.8713 -0.0503 0.1264
C14 C 0.836(6) -0.174(8) 0.196(6)
H8 H 0.8755 -0.2085 0.1759
C15 C 0.781(7) -0.218(7) 0.254(5)
H9 H 0.7827 -0.2823 0.2744
C16 C 0.722(6) -0.168(5) 0.284(5)
H10 H 0.6839 -0.1992 0.3231
C17 C 0.859(5) 0.149(5) 0.379(4)
C18 C 0.939(5) 0.130(5) 0.454(4)
H11 H 0.9101 0.0777 0.4878
C19 C 1.062(6) 0.186(6) 0.480(5)
H12 H 1.1155 0.1723 0.5315
C20 C 1.106(6) 0.262(5) 0.431(5)
H13 H 1.1897 0.3007 0.4490
C21 C 1.028(6) 0.281(5) 0.355(5)
H14 H 1.0575 0.3318 0.3207
C22 C 0.905(5) 0.225(5) 0.330(5)
H15 H 0.8524 0.2390 0.2778
C23 C 0.701(5) 0.229(5) 0.447(4)
C24 C 0.649(5) 0.232(5) 0.511(4)
H16 H 0.5983 0.1649 0.5194
C25 C 0.670(6) 0.330(5) 0.560(5)
H17 H 0.6331 0.3292 0.6018
C26 C 0.746(6) 0.430(5) 0.550(5)
H18 H 0.7601 0.4973 0.5842
C27 C 0.800(6) 0.429(5) 0.489(5)
H19 H 0.8516 0.4972 0.4820
C28 C 0.779(6) 0.331(5) 0.439(4)
H20 H 0.8177 0.3333 0.3985
C29 C 0.404(5) 0.060(4) 0.287(4)
C30 C 0.482(6) 0.122(5) 0.166(4)
H21 H 0.5372 0.0917 0.2029
C31 C 0.421(8) 0.056(7) 0.065(5)
H22 H 0.3722 -0.0215 0.0621
H23 H 0.4814 0.0610 0.0417
H24 H 0.3694 0.0853 0.0245
C32 C 0.559(7) 0.244(6) 0.177(6)
H25 H 0.5111 0.2748 0.1353
H26 H 0.6260 0.2530 0.1606
H27 H 0.5910 0.2824 0.2428
C33 C 0.294(5) 0.021(5) 0.390(4)
H28 H 0.3614 0.0036 0.4254
C34 C 0.180(6) -0.087(5) 0.356(5)
H29 H 0.1106 -0.0734 0.3270
H30 H 0.1761 -0.1212 0.4094
H31 H 0.1813 -0.1369 0.3091
C35 C 0.300(6) 0.107(5) 0.459(4)
H32 H 0.3713 0.1764 0.4733
H33 H 0.3035 0.0819 0.5179
H34 H 0.2285 0.1190 0.4316
C36 C 0.303(5) 0.134(5) 0.183(4)
C37 C 0.253(5) 0.108(5) 0.245(4)
C38 C 0.268(7) 0.186(6) 0.101(5)
H35 H 0.2022 0.2012 0.0985
H36 H 0.2431 0.1356 0.0418
H37 H 0.3369 0.2547 0.1083
C39 C 0.151(6) 0.126(6) 0.249(5)
H38 H 0.1826 0.1950 0.2930
H39 H 0.1025 0.0648 0.2693
H40 H 0.1015 0.1289 0.1856
O1 O 0.350(6) 0.399(5) 0.333(6)
C40 C 0.466(9) 0.405(8) 0.373(8)
H41 H 0.4643 0.3355 0.3495
H42 H 0.4968 0.4190 0.4424
C41 C 0.546(9) 0.499(9) 0.344(9)
H43 H 0.6194 0.5500 0.3995
H44 H 0.5699 0.4711 0.2985
C42 C 0.474(8) 0.554(8) 0.300(8)
H45 H 0.4885 0.5796 0.2451
H46 H 0.4915 0.6180 0.3455
C43 C 0.349(8) 0.470(7) 0.269(6)
H47 H 0.2972 0.5049 0.2705
H48 H 0.3175 0.4284 0.2036
O2 O 0.917(7) 0.118(6) 0.024(6)
C44 C 0.912(8) 0.209(7) 0.069(7)
H49 H 0.9259 0.2076 0.1354
H50 H 0.8329 0.2082 0.0352
C45 C 1.009(8) 0.308(7) 0.062(8)
H51 H 0.9859 0.3685 0.0516
H52 H 1.0840 0.3343 0.1195
C46 C 1.023(11) 0.268(12) -0.021(10)
H53 H 1.0038 0.3085 -0.0708
H54 H 1.1054 0.2786 -0.0025
C47 C 0.939(12) 0.152(9) -0.053(7)
H55 H 0.8635 0.1412 -0.1053
H56 H 0.9730 0.1100 -0.0751
O3 O 1.024(13) 0.620(12) 0.283(14)
C48 C 0.952(19) 0.60(2) 0.337(15)
H57 H 0.9551 0.6638 0.3664
H58 H 0.9788 0.5585 0.3876
C49 C 0.823(13) 0.518(14) 0.262(12)
H59 H 0.7778 0.4638 0.2909
H60 H 0.7793 0.5611 0.2354
C50 C 0.841(14) 0.462(15) 0.187(12)
H61 H 0.7937 0.4676 0.1235
H62 H 0.8156 0.3828 0.1877
C51 C 0.976(15) 0.520(18) 0.209(15)
H63 H 1.0151 0.4725 0.2331
H64 H 0.9890 0.5402 0.1523
O4? O 0.484(13) 0.427(10) 1.075(8)
C52? C 0.58(3) 0.54(2) 1.107(12)
H65? H 0.5527 0.5805 1.1376
H66? H 0.6528 0.5445 1.1497
C53? C 0.577(16) 0.578(19) 1.014(15)
H67? H 0.5829 0.6512 1.0154
H68? H 0.6440 0.5773 1.0063
C54? C 0.46(2) 0.491(16) 0.932(11)
H69? H 0.4203 0.5267 0.8900
H70? H 0.4728 0.4423 0.8958
C55? C 0.39(2) 0.43(2) 0.987(16)
H71? H 0.3288 0.3542 0.9517
H72? H 0.3471 0.4660 1.0025
C56? C 0.99(3) 0.648(12) 0.219(16)
C57? C 0.98(2) 0.631(14) 0.314(13)
C58? C 0.91(2) 0.503(13) 0.299(13)
C59? C 0.91(3) 0.455(12) 0.209(13)
H73? H 0.9349 0.6822 0.1857
H74? H 1.0693 0.6965 0.2305
H75? H 0.9329 0.6684 0.3283
H76? H 1.0571 0.6597 0.3666
H77? H 0.9448 0.4772 0.3541
H78? H 0.8227 0.4816 0.2895
H79? H 0.9694 0.4246 0.2267
H80? H 0.8318 0.3959 0.1668
O5? O 0.946(16) 0.540(12) 0.163(10)
loop_
_geom_bond_atom_site_label_1
_geom_bond_atom_site_label_2
_geom_bond_site_symmetry_1
_geom_bond_site_symmetry_2
Si1 C1 1_555 1_555
N1 C29 1_555 1_555
N2 C29 1_555 1_555
C1 C2 1_555 1_555
C2 C3 1_555 1_555
C3 C4 1_555 1_555
C4 Si1 1_555 1_555
C5 C4 1_555 1_555
C6 C5 1_555 1_555
H1 C6 1_555 1_555
C7 C6 1_555 1_555
H2 C7 1_555 1_555
C8 C7 1_555 1_555
H3 C8 1_555 1_555
C9 C8 1_555 1_555
H4 C9 1_555 1_555
C10 C5 1_555 1_555
H5 C10 1_555 1_555
C11 C3 1_555 1_555
C12 C11 1_555 1_555
H6 C12 1_555 1_555
C13 C12 1_555 1_555
H7 C13 1_555 1_555
C14 C13 1_555 1_555
H8 C14 1_555 1_555
C15 C14 1_555 1_555
H9 C15 1_555 1_555
C16 C11 1_555 1_555
H10 C16 1_555 1_555
C17 C2 1_555 1_555
C18 C17 1_555 1_555
H11 C18 1_555 1_555
C19 C18 1_555 1_555
H12 C19 1_555 1_555
C20 C19 1_555 1_555
H13 C20 1_555 1_555
C21 C20 1_555 1_555
H14 C21 1_555 1_555
C22 C17 1_555 1_555
H15 C22 1_555 1_555
C23 C1 1_555 1_555
C24 C23 1_555 1_555
H16 C24 1_555 1_555
C25 C24 1_555 1_555
H17 C25 1_555 1_555
C26 C25 1_555 1_555
H18 C26 1_555 1_555
C27 C26 1_555 1_555
H19 C27 1_555 1_555
C28 C23 1_555 1_555
H20 C28 1_555 1_555
C29 Si1 1_555 1_555
C30 N1 1_555 1_555
H21 C30 1_555 1_555
C31 C30 1_555 1_555
H22 C31 1_555 1_555
H23 C31 1_555 1_555
H24 C31 1_555 1_555
C32 C30 1_555 1_555
H25 C32 1_555 1_555
H26 C32 1_555 1_555
H27 C32 1_555 1_555
C33 N2 1_555 1_555
H28 C33 1_555 1_555
C34 C33 1_555 1_555
H29 C34 1_555 1_555
H30 C34 1_555 1_555
H31 C34 1_555 1_555
C35 C33 1_555 1_555
H32 C35 1_555 1_555
H33 C35 1_555 1_555
H34 C35 1_555 1_555
C36 N1 1_555 1_555
C37 N2 1_555 1_555
C38 C36 1_555 1_555
H35 C38 1_555 1_555
H36 C38 1_555 1_555
H37 C38 1_555 1_555
C39 C37 1_555 1_555
H38 C39 1_555 1_555
H39 C39 1_555 1_555
H40 C39 1_555 1_555
O1 C40 1_555 1_555
C40 H41 1_555 1_555
H42 C40 1_555 1_555
C41 C40 1_555 1_555
H43 C41 1_555 1_555
H44 C41 1_555 1_555
C42 C41 1_555 1_555
H45 C42 1_555 1_555
H46 C42 1_555 1_555
C43 O1 1_555 1_555
H47 C43 1_555 1_555
H48 C43 1_555 1_555
O2 C44 1_555 1_555
C44 H49 1_555 1_555
H50 C44 1_555 1_555
C45 C44 1_555 1_555
H51 C45 1_555 1_555
H52 C45 1_555 1_555
C46 C45 1_555 1_555
H53 C46 1_555 1_555
H54 C46 1_555 1_555
C47 O2 1_555 1_555
H55 C47 1_555 1_555
H56 C47 1_555 1_555
O3 C48 1_555 1_555
C48 H57 1_555 1_555
H58 C48 1_555 1_555
C49 C48 1_555 1_555
H59 C49 1_555 1_555
H60 C49 1_555 1_555
C50 C49 1_555 1_555
H61 C50 1_555 1_555
H62 C50 1_555 1_555
C51 O3 1_555 1_555
H63 C51 1_555 1_555
H64 C51 1_555 1_555
C9 C10 1_555 1_555
C15 C16 1_555 1_555
C21 C22 1_555 1_555
C27 C28 1_555 1_555
C36 C37 1_555 1_555
C42 C43 1_555 1_555
C46 C47 1_555 1_555
C50 C51 1_555 1_555

#END
