
#######################################################################
#
#                 Cambridge Crystallographic Data Centre
#                                CCDC 
#
#######################################################################
#
# If this CIF has been generated from an entry in the Cambridge 
# Structural Database, then it will include bibliographic, chemical, 
# crystal, experimental, refinement or atomic coordinate data resulting 
# from the CCDC's data processing and validation procedures.
#
#######################################################################

data_IKULIL
_chemical_formula_moiety         'C24 H22 N2 O6 S1'
_chemical_name_systematic        
'4,6-dimethyl-2-phenyl-3,4,4a,7-tetrahydro-2H-thiochromen-4-yl 3,5-dinitrobenzoate'
_symmetry_cell_setting           monoclinic
_symmetry_space_group_name_H-M   'P 21/c'
_symmetry_Int_Tables_number      14
_space_group_name_Hall           '-P 2ybc'
loop_
_symmetry_equiv_pos_site_id
_symmetry_equiv_pos_as_xyz
1 x,y,z
2 -x,1/2+y,1/2-z
3 -x,-y,-z
4 x,1/2-y,1/2+z
_cell_length_a                   10.478(2)
_cell_length_b                   12.291(2)
_cell_length_c                   17.574(3)
_cell_angle_alpha                90
_cell_angle_beta                 93.197(2)
_cell_angle_gamma                90
_cell_volume                     2259.75
_exptl_crystal_colour            yellow
_exptl_crystal_description       block
_cell_formula_units_Z            4
loop_
_atom_site_label
_atom_site_type_symbol
_atom_site_fract_x
_atom_site_fract_y
_atom_site_fract_z
S1 S 0.22696(6) 0.14107(5) 0.03299(3)
O1 O 0.40964(17) -0.04984(14) 0.31814(10)
O2 O 0.42725(14) 0.11594(12) 0.26446(8)
C1 C 0.34610(19) 0.02258(17) 0.15120(11)
H1 H 0.3565 -0.0476 0.1761
H2 H 0.4273 0.0417 0.1309
C2 C 0.6177(2) 0.00170(18) 0.42042(11)
H3 H 0.5650 -0.0542 0.4356
C3 C 0.2460(2) 0.01193(17) 0.08523(11)
H4 H 0.1641 -0.0058 0.1065
C4 C 0.2746(2) -0.07471(17) 0.02737(12)
C5 C 0.31349(19) 0.10714(17) 0.21057(11)
C6 C 0.6642(2) 0.14653(17) 0.33391(12)
H5 H 0.6418 0.1892 0.2915
C7 C 0.2076(2) 0.22897(16) 0.11130(11)
C8 C 0.5839(2) 0.06384(16) 0.35651(11)
C9 C 0.30865(19) 0.22323(16) 0.17602(11)
H6 H 0.3915 0.2372 0.1546
C10 C 0.7307(2) 0.02442(17) 0.46086(11)
C11 C 0.7776(2) 0.16397(17) 0.37562(13)
C12 C 0.4632(2) 0.03574(18) 0.31146(12)
C13 C 0.8135(2) 0.10458(18) 0.43980(12)
H7 H 0.8900 0.1180 0.4676
C14 C 0.1789(2) -0.10612(19) -0.02589(13)
H8 H 0.0983 -0.0748 -0.0247
C15 C 0.0883(2) 0.3761(2) 0.17354(15)
H9 H 0.0082 0.3576 0.1954
H10 H 0.0797 0.4488 0.1524
C16 C 0.1109(2) 0.29854(18) 0.11075(13)
H11 H 0.0535 0.2989 0.0684
C17 C 0.1916(3) 0.37704(18) 0.23559(14)
C18 C 0.1942(2) 0.08183(19) 0.25248(12)
H12 H 0.2000 0.0094 0.2728
H13 H 0.1204 0.0872 0.2178
H14 H 0.1866 0.1328 0.2934
C19 C 0.3930(2) -0.1248(2) 0.02499(15)
H15 H 0.4587 -0.1051 0.0600
C20 C 0.2018(3) -0.1832(2) -0.08069(15)
H16 H 0.1373 -0.2019 -0.1168
C21 C 0.4143(3) -0.2038(2) -0.02903(17)
H17 H 0.4936 -0.2377 -0.0293
C22 C 0.3196(3) -0.2326(2) -0.08212(15)
H18 H 0.3348 -0.2850 -0.1187
C23 C 0.1769(3) 0.4578(2) 0.29856(17)
H19 H 0.2482 0.4518 0.3351
H20 H 0.0991 0.4433 0.3231
H21 H 0.1739 0.5300 0.2778
C24 C 0.2891(2) 0.30904(18) 0.23520(13)
H22 H 0.3510 0.3147 0.2750
O3 O 0.69030(19) -0.10937(17) 0.54915(10)
O4 O 0.8343(2) 0.29686(18) 0.29170(14)
N1 N 0.7669(2) -0.04175(18) 0.52875(10)
N2 N 0.8664(2) 0.24661(17) 0.34930(14)
O5 O 0.87168(19) -0.0258(2) 0.56039(11)
O6 O 0.96582(19) 0.26156(19) 0.38669(14)
loop_
_geom_bond_atom_site_label_1
_geom_bond_atom_site_label_2
_geom_bond_site_symmetry_1
_geom_bond_site_symmetry_2
S1 C3 1_555 1_555
O1 C12 1_555 1_555
O2 C5 1_555 1_555
C1 H1 1_555 1_555
H2 C1 1_555 1_555
C2 H3 1_555 1_555
C3 C1 1_555 1_555
H4 C3 1_555 1_555
C4 C3 1_555 1_555
C5 C1 1_555 1_555
C6 H5 1_555 1_555
C7 S1 1_555 1_555
C8 C2 1_555 1_555
C9 C5 1_555 1_555
H6 C9 1_555 1_555
C10 C2 1_555 1_555
C11 C6 1_555 1_555
C12 O2 1_555 1_555
C13 C10 1_555 1_555
H7 C13 1_555 1_555
C14 C4 1_555 1_555
H8 C14 1_555 1_555
C15 H9 1_555 1_555
H10 C15 1_555 1_555
C16 C7 1_555 1_555
H11 C16 1_555 1_555
C17 C15 1_555 1_555
C18 C5 1_555 1_555
H12 C18 1_555 1_555
H13 C18 1_555 1_555
H14 C18 1_555 1_555
C19 C4 1_555 1_555
H15 C19 1_555 1_555
C20 C14 1_555 1_555
H16 C20 1_555 1_555
C21 C19 1_555 1_555
H17 C21 1_555 1_555
C22 C20 1_555 1_555
H18 C22 1_555 1_555
C23 C17 1_555 1_555
H19 C23 1_555 1_555
H20 C23 1_555 1_555
H21 C23 1_555 1_555
C24 C9 1_555 1_555
H22 C24 1_555 1_555
O3 N1 1_555 1_555
O4 N2 1_555 1_555
N1 C10 1_555 1_555
N2 C11 1_555 1_555
O5 N1 1_555 1_555
O6 N2 1_555 1_555
C6 C8 1_555 1_555
C7 C9 1_555 1_555
C8 C12 1_555 1_555
C11 C13 1_555 1_555
C15 C16 1_555 1_555
C17 C24 1_555 1_555
C21 C22 1_555 1_555

#END
