
#######################################################################
#
#                 Cambridge Crystallographic Data Centre
#                                CCDC 
#
#######################################################################
#
# If this CIF has been generated from an entry in the Cambridge 
# Structural Database, then it will include bibliographic, chemical, 
# crystal, experimental, refinement or atomic coordinate data resulting 
# from the CCDC's data processing and validation procedures.
#
#######################################################################

data_ILABUS
_chemical_formula_moiety         'C16 H35 B10 N1 Si1'
_chemical_name_systematic        
2-(2,6-diisopropylphenylamino(dimethyl)silyl)-1,2-dicarba-closo-dodecaborane(11)
_symmetry_cell_setting           monoclinic
_symmetry_space_group_name_H-M   'P 21/c'
_symmetry_Int_Tables_number      14
_space_group_name_Hall           '-P 2ybc'
loop_
_symmetry_equiv_pos_site_id
_symmetry_equiv_pos_as_xyz
1 x,y,z
2 x,1/2-y,1/2+z
3 -x,-y,-z
4 -x,1/2+y,1/2-z
_cell_length_a                   8.2357(19)
_cell_length_b                   28.686(7)
_cell_length_c                   9.921(2)
_cell_angle_alpha                90
_cell_angle_beta                 93.482(4)
_cell_angle_gamma                90
_cell_volume                     2339.5
_exptl_crystal_colour            colorless
_cell_formula_units_Z            4
_exptl_crystal_recrystallization_method hexane/benzene
loop_
_atom_site_label
_atom_site_type_symbol
_atom_site_fract_x
_atom_site_fract_y
_atom_site_fract_z
Si1 Si 0.75236(11) 0.10226(3) 0.73996(8)
B1 B 1.0496(5) 0.13787(15) 0.9143(4)
H1 H 1.1324 0.1185 0.8484
B2 B 0.9302(5) 0.10944(15) 1.0310(4)
H2 H 0.9353 0.0707 1.0443
B3 B 0.7451(5) 0.14075(16) 1.0401(4)
H3 H 0.6279 0.1228 1.0593
B4 B 0.7504(5) 0.18894(14) 0.9292(4)
H4 H 0.6386 0.2028 0.8732
B5 B 0.9140(6) 0.22581(15) 0.9892(4)
H5 H 0.9096 0.2645 0.9735
B6 B 1.0973(6) 0.19419(16) 0.9795(4)
H6 H 1.2136 0.2121 0.9575
B7 B 1.0932(6) 0.14575(17) 1.0900(4)
H7 H 1.2064 0.1314 1.1428
B8 B 0.9033(6) 0.14771(17) 1.1680(4)
H8 H 0.8911 0.1345 1.2731
B9 B 0.7927(6) 0.19723(17) 1.1047(4)
H9 H 0.7073 0.2169 1.1675
B10 B 1.0070(6) 0.20031(17) 1.1363(4)
H10 H 1.0636 0.2220 1.2204
N1 N 0.5463(3) 0.10480(10) 0.7564(2)
H11 H 0.5130 0.1158 0.8328
C1 C 0.9387(4) 0.18568(12) 0.8669(3)
H12 H 0.9505 0.1988 0.7616
C2 C 0.8407(4) 0.13648(11) 0.8926(3)
C3 C 0.8181(4) 0.12991(14) 0.5836(3)
H13 H 0.7737 0.1616 0.5761
H14 H 0.7783 0.1115 0.5052
H15 H 0.9372 0.1313 0.5868
C4 C 0.8375(4) 0.04265(12) 0.7493(4)
H16 H 0.8047 0.0273 0.8317
H17 H 0.9564 0.0442 0.7509
H18 H 0.7964 0.0247 0.6703
C5 C 0.4232(4) 0.09051(11) 0.6556(3)
C6 C 0.3583(4) 0.04536(11) 0.6594(3)
C7 C 0.2356(4) 0.03326(12) 0.5634(3)
H19 H 0.1896 0.0029 0.5650
C8 C 0.1794(4) 0.06474(13) 0.4656(3)
H20 H 0.0959 0.0559 0.4004
C9 C 0.2443(4) 0.10873(13) 0.4629(3)
H21 H 0.2048 0.1301 0.3954
C10 C 0.3666(4) 0.12276(11) 0.5569(3)
C11 C 0.4142(4) 0.01087(12) 0.7679(3)
H22 H 0.5268 0.0200 0.8011
C12 C 0.4220(6) -0.03942(14) 0.7168(5)
H23 H 0.4596 -0.0599 0.7913
H24 H 0.4979 -0.0412 0.6446
H25 H 0.3136 -0.0493 0.6817
C13 C 0.3075(5) 0.01345(16) 0.8873(4)
H26 H 0.3458 -0.0092 0.9560
H27 H 0.1948 0.0063 0.8570
H28 H 0.3131 0.0449 0.9258
C14 C 0.4260(4) 0.17270(11) 0.5574(3)
H29 H 0.5346 0.1734 0.6083
C15 C 0.4483(6) 0.19207(16) 0.4170(4)
H30 H 0.4870 0.2243 0.4243
H31 H 0.3440 0.1912 0.3638
H32 H 0.5282 0.1731 0.3723
C16 C 0.3117(5) 0.20335(13) 0.6329(4)
H33 H 0.2991 0.1904 0.7230
H34 H 0.2053 0.2045 0.5830
H35 H 0.3568 0.2349 0.6413
loop_
_geom_bond_atom_site_label_1
_geom_bond_atom_site_label_2
_geom_bond_site_symmetry_1
_geom_bond_site_symmetry_2
Si1 N1 1_555 1_555
B1 H1 1_555 1_555
B2 B1 1_555 1_555
H2 B2 1_555 1_555
B3 B2 1_555 1_555
H3 B3 1_555 1_555
B4 B3 1_555 1_555
H4 B4 1_555 1_555
B5 B4 1_555 1_555
H5 B5 1_555 1_555
B6 B1 1_555 1_555
H6 B6 1_555 1_555
B7 B1 1_555 1_555
H7 B7 1_555 1_555
B8 B2 1_555 1_555
H8 B8 1_555 1_555
B9 B3 1_555 1_555
H9 B9 1_555 1_555
B10 B5 1_555 1_555
H10 B10 1_555 1_555
N1 H11 1_555 1_555
C1 B1 1_555 1_555
H12 C1 1_555 1_555
C2 Si1 1_555 1_555
C3 Si1 1_555 1_555
H13 C3 1_555 1_555
H14 C3 1_555 1_555
H15 C3 1_555 1_555
C4 Si1 1_555 1_555
H16 C4 1_555 1_555
H17 C4 1_555 1_555
H18 C4 1_555 1_555
C5 N1 1_555 1_555
C6 C5 1_555 1_555
C7 C6 1_555 1_555
H19 C7 1_555 1_555
C8 C7 1_555 1_555
H20 C8 1_555 1_555
C9 C8 1_555 1_555
H21 C9 1_555 1_555
C10 C5 1_555 1_555
C11 C6 1_555 1_555
H22 C11 1_555 1_555
C12 C11 1_555 1_555
H23 C12 1_555 1_555
H24 C12 1_555 1_555
H25 C12 1_555 1_555
C13 C11 1_555 1_555
H26 C13 1_555 1_555
H27 C13 1_555 1_555
H28 C13 1_555 1_555
C14 C10 1_555 1_555
H29 C14 1_555 1_555
C15 C14 1_555 1_555
H30 C15 1_555 1_555
H31 C15 1_555 1_555
H32 C15 1_555 1_555
C16 C14 1_555 1_555
H33 C16 1_555 1_555
H34 C16 1_555 1_555
H35 C16 1_555 1_555
B1 C2 1_555 1_555
B2 B7 1_555 1_555
B2 C2 1_555 1_555
B3 B8 1_555 1_555
B3 C2 1_555 1_555
B4 C1 1_555 1_555
B4 B9 1_555 1_555
B4 C2 1_555 1_555
B5 B6 1_555 1_555
B5 C1 1_555 1_555
B5 B9 1_555 1_555
B6 B10 1_555 1_555
B6 B7 1_555 1_555
B6 C1 1_555 1_555
B7 B8 1_555 1_555
B7 B10 1_555 1_555
B8 B9 1_555 1_555
B8 B10 1_555 1_555
B9 B10 1_555 1_555
C1 C2 1_555 1_555
C9 C10 1_555 1_555

#END
