
#######################################################################
#
#                 Cambridge Crystallographic Data Centre
#                                CCDC 
#
#######################################################################
#
# If this CIF has been generated from an entry in the Cambridge 
# Structural Database, then it will include bibliographic, chemical, 
# crystal, experimental, refinement or atomic coordinate data resulting 
# from the CCDC's data processing and validation procedures.
#
#######################################################################

data_ILAXUQ
_chemical_formula_moiety         'C13 H17 Cl1 O3,0.5(H2 O1)'
_chemical_name_systematic        
'(2-(2-chlorophenyl)-5-ethyl-1,3-dioxan-5-yl)methanol hemihydrate'
_symmetry_cell_setting           orthorhombic
_symmetry_space_group_name_H-M   'P c c n'
_symmetry_Int_Tables_number      56
_space_group_name_Hall           '-P 2ab 2ac'
loop_
_symmetry_equiv_pos_site_id
_symmetry_equiv_pos_as_xyz
1 x,y,z
2 1/2-x,1/2-y,z
3 -x,1/2+y,1/2-z
4 1/2+x,-y,1/2-z
5 -x,-y,-z
6 1/2+x,1/2+y,-z
7 x,1/2-y,1/2+z
8 1/2-x,y,1/2+z
_cell_length_a                   14.2010(8)
_cell_length_b                   24.4565(15)
_cell_length_c                   7.8551(5)
_cell_angle_alpha                90
_cell_angle_beta                 90
_cell_angle_gamma                90
_cell_volume                     2728.13
_exptl_crystal_colour            colorless
_exptl_crystal_description       block
_cell_formula_units_Z            8
loop_
_atom_site_label
_atom_site_type_symbol
_atom_site_fract_x
_atom_site_fract_y
_atom_site_fract_z
Cl1 Cl 1.16020(4) 0.53938(2) 1.07988(8)
O1 O 0.92981(7) 0.63994(5) 0.88448(14)
O2 O 1.06598(8) 0.61321(5) 0.74605(14)
O3 O 0.83893(11) 0.69035(6) 0.46787(17)
H1 H 0.8188 0.7070 0.5508
C1 C 1.07412(11) 0.63775(6) 1.0355(2)
C2 C 0.91743(10) 0.60975(6) 0.58678(19)
C3 C 1.14193(12) 0.60841(7) 1.1245(2)
C4 C 1.01498(11) 0.61154(6) 0.89964(19)
H2 H 1.0023 0.5734 0.9304
C5 C 0.87064(11) 0.61354(7) 0.7615(2)
H3 H 0.8122 0.6338 0.7512
H4 H 0.8555 0.5770 0.8011
C6 C 1.01536(12) 0.58532(8) 0.6138(2)
H5 H 1.0093 0.5470 0.6435
H6 H 1.0508 0.5876 0.5085
C7 C 0.85711(13) 0.57183(8) 0.4761(2)
H7 H 0.8580 0.5356 0.5265
H8 H 0.7926 0.5848 0.4798
C8 C 1.11874(15) 0.71732(8) 1.1977(3)
H9 H 1.1115 0.7543 1.2213
C9 C 0.92729(13) 0.66651(7) 0.5086(2)
H10 H 0.9602 0.6901 0.5880
H11 H 0.9650 0.6640 0.4060
C10 C 1.06391(14) 0.69282(7) 1.0751(2)
H12 H 1.0191 0.7135 1.0176
C11 C 1.18462(15) 0.68680(9) 1.2858(3)
H13 H 1.2207 0.7032 1.3705
C12 C 1.19707(14) 0.63230(9) 1.2487(3)
H14 H 1.2420 0.6118 1.3066
C13 C 0.88616(17) 0.56673(10) 0.2912(3)
H15 H 0.8795 0.6015 0.2360
H16 H 0.8468 0.5403 0.2355
H17 H 0.9506 0.5551 0.2849
O4 O 0.7500 0.7500 0.2195(2)
H18? H 0.718(4) 0.7635(18) 0.303(4)
H19? H 0.787(3) 0.7254(18) 0.263(4)
loop_
_geom_bond_atom_site_label_1
_geom_bond_atom_site_label_2
_geom_bond_site_symmetry_1
_geom_bond_site_symmetry_2
Cl1 C3 1_555 1_555
O1 C4 1_555 1_555
O2 C4 1_555 1_555
O3 H1 1_555 1_555
C1 C3 1_555 1_555
C2 C5 1_555 1_555
C3 C12 1_555 1_555
C4 C1 1_555 1_555
H2 C4 1_555 1_555
C5 O1 1_555 1_555
H3 C5 1_555 1_555
H4 C5 1_555 1_555
C6 O2 1_555 1_555
H5 C6 1_555 1_555
H6 C6 1_555 1_555
C7 C2 1_555 1_555
H7 C7 1_555 1_555
H8 C7 1_555 1_555
C8 H9 1_555 1_555
C9 O3 1_555 1_555
H10 C9 1_555 1_555
H11 C9 1_555 1_555
C10 C1 1_555 1_555
H12 C10 1_555 1_555
C11 C8 1_555 1_555
H13 C11 1_555 1_555
C12 C11 1_555 1_555
H14 C12 1_555 1_555
C13 C7 1_555 1_555
H15 C13 1_555 1_555
H16 C13 1_555 1_555
H17 C13 1_555 1_555
C2 C6 1_555 1_555
C2 C9 1_555 1_555
C8 C10 1_555 1_555

#END
