
#######################################################################
#
#                 Cambridge Crystallographic Data Centre
#                                CCDC 
#
#######################################################################
#
# If this CIF has been generated from an entry in the Cambridge 
# Structural Database, then it will include bibliographic, chemical, 
# crystal, experimental, refinement or atomic coordinate data resulting 
# from the CCDC's data processing and validation procedures.
#
#######################################################################

data_ILEQUM
_chemical_name_common            
"(N-(diphenylphosphanyl)-P-phenyl-N,N'-dipropan-2-ylphosphonous diamidato)-(N,N,N',N'-tetramethylethane-1,2-diamine)-lithium"
_chemical_formula_moiety         'C30 H45 Li1 N4 P2'
_chemical_name_systematic        
(1,3-diisopropyl-2,4,4-triphenyl-1,3-diaza-2,4-diphosphabutan-1-yl)-(N,N,N',N'-tetramethylethane-1,2-diamine)-lithium
_symmetry_cell_setting           monoclinic
_symmetry_space_group_name_H-M   'P 21/c'
_symmetry_Int_Tables_number      14
_space_group_name_Hall           '-P 2ybc'
loop_
_symmetry_equiv_pos_site_id
_symmetry_equiv_pos_as_xyz
1 x,y,z
2 -x,1/2+y,1/2-z
3 -x,-y,-z
4 x,1/2-y,1/2+z
_cell_length_a                   10.2842(3)
_cell_length_b                   18.2568(7)
_cell_length_c                   17.3893(6)
_cell_angle_alpha                90
_cell_angle_beta                 105.178(3)
_cell_angle_gamma                90
_cell_volume                     3151.06
_exptl_crystal_colour            colorless
_exptl_crystal_description       prism
_cell_formula_units_Z            4
loop_
_atom_site_label
_atom_site_type_symbol
_atom_site_fract_x
_atom_site_fract_y
_atom_site_fract_z
C1 C 0.26560(17) 0.35505(9) 0.67358(10)
H1 H 0.2577 0.3340 0.6194
C2 C 0.3678(2) 0.41702(11) 0.68675(13)
H2 H 0.3778 0.4382 0.7398
H3 H 0.3367 0.4549 0.6461
H4 H 0.4549 0.3979 0.6829
C3 C 0.1278(2) 0.38420(13) 0.67576(16)
H5 H 0.0612 0.3447 0.6623
H6 H 0.1016 0.4241 0.6371
H7 H 0.1320 0.4026 0.7293
C4 C 0.30451(15) 0.14658(8) 0.73182(9)
C5 C 0.36973(17) 0.08287(9) 0.76530(10)
H8 H 0.4654 0.0814 0.7800
C6 C 0.29862(19) 0.02185(10) 0.77762(11)
H9 H 0.3458 -0.0207 0.8012
C7 C 0.15909(19) 0.02203(10) 0.75590(11)
H10 H 0.1101 -0.0198 0.7648
C8 C 0.09281(18) 0.08381(10) 0.72121(11)
H11 H -0.0029 0.0845 0.7053
C9 C 0.16405(16) 0.14495(9) 0.70928(10)
H12 H 0.1161 0.1871 0.6851
C10 C 0.66871(15) 0.21488(9) 0.74293(9)
H13 H 0.7486 0.2217 0.7896
C11 C 0.68082(18) 0.13886(11) 0.70926(11)
H14 H 0.6847 0.1020 0.7508
H15 H 0.7632 0.1362 0.6910
H16 H 0.6024 0.1294 0.6643
C12 C 0.67639(19) 0.27400(12) 0.68254(11)
H17 H 0.6014 0.2680 0.6348
H18 H 0.7619 0.2697 0.6680
H19 H 0.6708 0.3224 0.7059
C13 C 0.64106(15) 0.14683(8) 0.92400(9)
C14 C 0.76876(17) 0.12342(9) 0.92202(10)
H20 H 0.8131 0.1472 0.8874
C15 C 0.8325(2) 0.06654(9) 0.96904(10)
H21 H 0.9195 0.0514 0.9662
C16 C 0.77108(19) 0.03158(11) 1.02003(12)
H22 H 0.8157 -0.0070 1.0533
C17 C 0.6443(2) 0.05324(11) 1.02216(13)
H23 H 0.6004 0.0292 1.0568
C18 C 0.58021(19) 0.10966(11) 0.97429(12)
H24 H 0.4918 0.1233 0.9760
C19 C 0.68035(14) 0.29724(8) 0.91176(8)
C20 C 0.67990(17) 0.36323(9) 0.87191(9)
H25 H 0.6208 0.3693 0.8203
C21 C 0.7641(2) 0.42023(10) 0.90611(11)
H26 H 0.7629 0.4648 0.8777
C22 C 0.84968(17) 0.41255(10) 0.98134(11)
H27 H 0.9076 0.4516 1.0048
C23 C 0.85055(16) 0.34814(10) 1.02200(10)
H28 H 0.9090 0.3428 1.0739
C24 C 0.76711(14) 0.29084(9) 0.98813(9)
H29 H 0.7688 0.2466 1.0171
C25 C 0.17596(17) 0.29794(9) 0.97408(10)
H30 H 0.2529 0.2800 1.0169
H31 H 0.0933 0.2927 0.9927
C26 C 0.19728(17) 0.37779(9) 0.95855(11)
H32 H 0.1178 0.3966 0.9181
H33 H 0.2059 0.4060 1.0082
C27 C 0.1765(2) 0.17532(10) 0.92478(12)
H34 H 0.1047 0.1617 0.9496
H35 H 0.2643 0.1670 0.9627
H36 H 0.1695 0.1454 0.8771
C28 C 0.03144(16) 0.26532(11) 0.84595(12)
H37 H 0.0201 0.2315 0.8009
H38 H 0.0261 0.3159 0.8265
H39 H -0.0399 0.2568 0.8728
C29 C 0.3201(2) 0.46344(10) 0.89940(13)
H40 H 0.3207 0.4987 0.9420
H41 H 0.2396 0.4711 0.8553
H42 H 0.4008 0.4704 0.8803
C30 C 0.43921(17) 0.37926(11) 0.99694(11)
H43 H 0.5200 0.3895 0.9788
H44 H 0.4428 0.3288 1.0166
H45 H 0.4352 0.4132 1.0400
Li1 Li 0.3057(2) 0.29729(14) 0.84591(15)
N1 N 0.30500(12) 0.29566(7) 0.73236(7)
N2 N 0.54682(11) 0.22115(7) 0.77322(7)
N3 N 0.16323(12) 0.25301(7) 0.90236(8)
N4 N 0.31903(13) 0.38875(7) 0.93030(8)
P1 P 0.38734(4) 0.22852(2) 0.70352(2)
P2 P 0.55257(4) 0.22725(2) 0.87074(2)
loop_
_geom_bond_atom_site_label_1
_geom_bond_atom_site_label_2
_geom_bond_site_symmetry_1
_geom_bond_site_symmetry_2
C1 H1 1_555 1_555
C2 C1 1_555 1_555
H2 C2 1_555 1_555
H3 C2 1_555 1_555
H4 C2 1_555 1_555
C3 C1 1_555 1_555
H5 C3 1_555 1_555
H6 C3 1_555 1_555
H7 C3 1_555 1_555
C4 C5 1_555 1_555
C5 H8 1_555 1_555
C6 C5 1_555 1_555
H9 C6 1_555 1_555
C7 C6 1_555 1_555
H10 C7 1_555 1_555
C8 C7 1_555 1_555
H11 C8 1_555 1_555
C9 C4 1_555 1_555
H12 C9 1_555 1_555
C10 H13 1_555 1_555
C11 C10 1_555 1_555
H14 C11 1_555 1_555
H15 C11 1_555 1_555
H16 C11 1_555 1_555
C12 C10 1_555 1_555
H17 C12 1_555 1_555
H18 C12 1_555 1_555
H19 C12 1_555 1_555
C13 C14 1_555 1_555
C14 H20 1_555 1_555
C15 C14 1_555 1_555
H21 C15 1_555 1_555
C16 C15 1_555 1_555
H22 C16 1_555 1_555
C17 C16 1_555 1_555
H23 C17 1_555 1_555
C18 C13 1_555 1_555
H24 C18 1_555 1_555
C19 C20 1_555 1_555
C20 H25 1_555 1_555
C21 C20 1_555 1_555
H26 C21 1_555 1_555
C22 C21 1_555 1_555
H27 C22 1_555 1_555
C23 C22 1_555 1_555
H28 C23 1_555 1_555
C24 C19 1_555 1_555
H29 C24 1_555 1_555
C25 H30 1_555 1_555
H31 C25 1_555 1_555
C26 C25 1_555 1_555
H32 C26 1_555 1_555
H33 C26 1_555 1_555
C27 H34 1_555 1_555
H35 C27 1_555 1_555
H36 C27 1_555 1_555
C28 H37 1_555 1_555
H38 C28 1_555 1_555
H39 C28 1_555 1_555
C29 H40 1_555 1_555
H41 C29 1_555 1_555
H42 C29 1_555 1_555
C30 H43 1_555 1_555
H44 C30 1_555 1_555
H45 C30 1_555 1_555
Li1 N1 1_555 1_555
N1 C1 1_555 1_555
N2 C10 1_555 1_555
N3 C25 1_555 1_555
N4 C26 1_555 1_555
P1 C4 1_555 1_555
P2 C13 1_555 1_555
C8 C9 1_555 1_555
C17 C18 1_555 1_555
C19 P2 1_555 1_555
C23 C24 1_555 1_555
C27 N3 1_555 1_555
C28 N3 1_555 1_555
C29 N4 1_555 1_555
C30 N4 1_555 1_555
Li1 N3 1_555 1_555
Li1 N4 1_555 1_555
Li1 P2 1_555 1_555
N1 P1 1_555 1_555
N2 P1 1_555 1_555
N2 P2 1_555 1_555

#END
