
#######################################################################
#
#                 Cambridge Crystallographic Data Centre
#                                CCDC 
#
#######################################################################
#
# If this CIF has been generated from an entry in the Cambridge 
# Structural Database, then it will include bibliographic, chemical, 
# crystal, experimental, refinement or atomic coordinate data resulting 
# from the CCDC's data processing and validation procedures.
#
#######################################################################

data_ILEWON
_chemical_formula_moiety         'C13 H12 N4 O2'
_chemical_name_systematic        2-Isonicotinoyl-N-phenylhydrazinecarboxamide
_symmetry_cell_setting           orthorhombic
_symmetry_space_group_name_H-M   'P b c a'
_symmetry_Int_Tables_number      61
_space_group_name_Hall           '-P 2ac 2ab'
loop_
_symmetry_equiv_pos_site_id
_symmetry_equiv_pos_as_xyz
1 x,y,z
2 1/2-x,-y,1/2+z
3 1/2+x,1/2-y,-z
4 -x,1/2+y,1/2-z
5 -x,-y,-z
6 1/2+x,y,1/2-z
7 1/2-x,1/2+y,z
8 x,1/2-y,1/2+z
_cell_length_a                   16.2353(11)
_cell_length_b                   16.8474(12)
_cell_length_c                   36.028(2)
_cell_angle_alpha                90
_cell_angle_beta                 90
_cell_angle_gamma                90
_cell_volume                     9854.47
_exptl_crystal_colour            colorless
_exptl_crystal_description       block
_cell_formula_units_Z            32
loop_
_atom_site_label
_atom_site_type_symbol
_atom_site_fract_x
_atom_site_fract_y
_atom_site_fract_z
O1 O 0.01718(14) 0.09019(13) 0.30136(6)
O2 O 0.09788(13) 0.19241(13) 0.22651(6)
N1 N -0.0088(2) 0.2697(2) 0.40905(9)
N2 N -0.03382(15) 0.19856(15) 0.27255(7)
H1 H -0.0495 0.2472 0.2743
N3 N -0.03566(15) 0.16005(15) 0.23874(7)
H2 H -0.0810 0.1438 0.2291
N4 N 0.03786(15) 0.08732(15) 0.19679(7)
H3 H -0.0022 0.0543 0.1991
C1 C 0.0557(3) 0.2322(3) 0.39584(11)
H4 H 0.1027 0.2295 0.4106
C2 C 0.0580(2) 0.1969(2) 0.36169(9)
H5 H 0.1044 0.1687 0.3543
C3 C -0.00867(19) 0.20332(18) 0.33840(9)
C4 C -0.0773(2) 0.2451(2) 0.35046(10)
H6 H -0.1231 0.2524 0.3354
C5 C -0.0737(3) 0.2758(2) 0.38688(12)
H7 H -0.1199 0.3020 0.3959
C6 C -0.00751(18) 0.15949(18) 0.30228(9)
C7 C 0.03928(18) 0.14899(18) 0.22125(8)
C8 C 0.09456(18) 0.07144(19) 0.16811(8)
C9 C 0.16561(19) 0.1153(2) 0.16180(10)
H8 H 0.1793 0.1572 0.1775
C10 C 0.2158(2) 0.0963(2) 0.13203(10)
H9 H 0.2630 0.1262 0.1277
C11 C 0.1976(3) 0.0347(3) 0.10886(12)
H10 H 0.2321 0.0226 0.0891
C12 C 0.1269(3) -0.0097(2) 0.11513(11)
H11 H 0.1136 -0.0514 0.0993
C13 C 0.0762(2) 0.0081(2) 0.14493(10)
H12 H 0.0297 -0.0226 0.1494
O3 O 0.38815(13) 0.35445(13) 0.22614(6)
O4 O 0.56436(13) 0.44633(13) 0.20838(6)
N5 N 0.18250(17) 0.57093(17) 0.24826(9)
N6 N 0.45656(15) 0.43647(16) 0.26515(7)
H13 H 0.4552 0.4780 0.2790
N7 N 0.52688(15) 0.38998(16) 0.26331(7)
H14 H 0.5423 0.3611 0.2817
N8 N 0.62343(15) 0.32982(15) 0.22731(7)
H15 H 0.6188 0.2915 0.2429
C14 C 0.2392(2) 0.5730(2) 0.27468(11)
H16 H 0.2327 0.6096 0.2938
C15 C 0.3073(2) 0.5241(2) 0.27544(10)
H17 H 0.3450 0.5272 0.2948
C16 C 0.31856(18) 0.47060(17) 0.24693(9)
C17 C 0.26016(19) 0.4682(2) 0.21911(10)
H18 H 0.2654 0.4327 0.1995
C18 C 0.1942(2) 0.5191(2) 0.22099(11)
H19 H 0.1553 0.5171 0.2020
C19 C 0.39023(18) 0.41533(19) 0.24480(8)
C20 C 0.57092(17) 0.39207(18) 0.23075(9)
C21 C 0.68515(18) 0.32373(18) 0.19991(9)
C22 C 0.76093(19) 0.2919(2) 0.21013(10)
H20 H 0.7691 0.2742 0.2343
C23 C 0.8237(2) 0.2864(2) 0.18472(11)
H21 H 0.8742 0.2653 0.1918
C24 C 0.8121(2) 0.3120(2) 0.14903(11)
H22 H 0.8553 0.3096 0.1321
C25 C 0.7369(2) 0.3410(2) 0.13825(10)
H23 H 0.7286 0.3568 0.1138
C26 C 0.6731(2) 0.3469(2) 0.16371(10)
H24 H 0.6222 0.3665 0.1563
O5 O 0.25677(14) 0.18445(15) 0.55918(7)
O6 O 0.14443(14) 0.14188(15) 0.47860(7)
N9 N 0.05019(17) 0.18702(18) 0.66175(8)
N10 N 0.15424(17) 0.25356(17) 0.53258(7)
H25 H 0.1061 0.2746 0.5344
N11 N 0.19934(18) 0.25911(17) 0.49961(7)
H26 H 0.2299 0.2996 0.4948
N12 N 0.24947(17) 0.20211(17) 0.44789(7)
H27 H 0.2783 0.2450 0.4477
C27 C 0.1148(2) 0.1436(3) 0.65347(10)
H28 H 0.1310 0.1053 0.6705
C28 C 0.1603(2) 0.1507(3) 0.62130(10)
H29 H 0.2058 0.1184 0.6171
C29 C 0.13657(19) 0.2074(2) 0.59525(9)
C30 C 0.06918(19) 0.2531(2) 0.60387(9)
H30 H 0.0512 0.2920 0.5874
C31 C 0.0282(2) 0.2411(2) 0.63697(9)
H31 H -0.0173 0.2727 0.6422
C32 C 0.1871(2) 0.2154(2) 0.56083(9)
C33 C 0.1924(2) 0.1958(2) 0.47485(9)
C34 C 0.26728(19) 0.14582(19) 0.41977(8)
C35 C 0.3445(2) 0.1517(2) 0.40354(9)
H32 H 0.3813 0.1905 0.4114
C36 C 0.3667(2) 0.0994(2) 0.37551(10)
H33 H 0.4181 0.1036 0.3643
C37 C 0.3129(3) 0.0414(2) 0.36425(11)
H34 H 0.3279 0.0061 0.3456
C38 C 0.2372(2) 0.0359(3) 0.38053(11)
H35 H 0.2007 -0.0031 0.3726
C39 C 0.2137(2) 0.0871(2) 0.40854(10)
H36 H 0.1623 0.0820 0.4197
O7 O 0.00267(14) 0.16073(15) 0.02567(7)
O8 O -0.11764(15) 0.31324(16) 0.04439(7)
N13 N -0.1753(2) -0.0818(2) 0.02407(10)
N14 N -0.10339(18) 0.20146(18) -0.00988(8)
H37 H -0.1502 0.1918 -0.0201
N15 N -0.06712(19) 0.27529(17) -0.01266(8)
H38 H -0.0461 0.2922 -0.0331
N16 N -0.00592(18) 0.37430(17) 0.02054(8)
H39 H 0.0276 0.3729 0.0021
C40 C -0.1059(3) -0.0607(2) 0.04240(12)
H40 H -0.0825 -0.0966 0.0589
C41 C -0.0680(2) 0.0135(2) 0.03734(10)
H41 H -0.0199 0.0269 0.0499
C42 C -0.1047(2) 0.06567(19) 0.01311(9)
C43 C -0.1763(2) 0.0437(2) -0.00475(11)
H42 H -0.2024 0.0785 -0.0209
C44 C -0.2077(3) -0.0292(2) 0.00162(14)
H43 H -0.2557 -0.0431 -0.0108
C45 C -0.0640(2) 0.1463(2) 0.00897(10)
C46 C -0.0666(2) 0.3215(2) 0.02007(10)
C47 C 0.0100(2) 0.43248(19) 0.04775(10)
C48 C -0.0295(2) 0.4387(2) 0.08184(10)
H44 H -0.0725 0.4044 0.0877
C49 C -0.0054(2) 0.4953(3) 0.10677(12)
H45 H -0.0318 0.4986 0.1296
C50 C 0.0570(2) 0.5470(2) 0.09859(12)
H46 H 0.0731 0.5850 0.1159
C51 C 0.0950(2) 0.5427(2) 0.06546(12)
H47 H 0.1365 0.5788 0.0598
C52 C 0.0731(2) 0.4851(2) 0.03955(11)
H48 H 0.1007 0.4819 0.0170
loop_
_geom_bond_atom_site_label_1
_geom_bond_atom_site_label_2
_geom_bond_site_symmetry_1
_geom_bond_site_symmetry_2
O1 C6 1_555 1_555
O2 C7 1_555 1_555
N1 C1 1_555 1_555
N2 H1 1_555 1_555
N3 N2 1_555 1_555
H2 N3 1_555 1_555
N4 H3 1_555 1_555
C1 H4 1_555 1_555
C2 C1 1_555 1_555
H5 C2 1_555 1_555
C3 C2 1_555 1_555
C4 C3 1_555 1_555
H6 C4 1_555 1_555
C5 N1 1_555 1_555
H7 C5 1_555 1_555
C6 N2 1_555 1_555
C7 N3 1_555 1_555
C8 N4 1_555 1_555
C9 C8 1_555 1_555
H8 C9 1_555 1_555
C10 C9 1_555 1_555
H9 C10 1_555 1_555
C11 C10 1_555 1_555
H10 C11 1_555 1_555
C12 C11 1_555 1_555
H11 C12 1_555 1_555
C13 C8 1_555 1_555
H12 C13 1_555 1_555
O3 C19 1_555 1_555
O4 C20 1_555 1_555
N5 C14 1_555 1_555
N6 H13 1_555 1_555
N7 N6 1_555 1_555
H14 N7 1_555 1_555
N8 H15 1_555 1_555
C14 H16 1_555 1_555
C15 C14 1_555 1_555
H17 C15 1_555 1_555
C16 C15 1_555 1_555
C17 C16 1_555 1_555
H18 C17 1_555 1_555
C18 N5 1_555 1_555
H19 C18 1_555 1_555
C19 N6 1_555 1_555
C20 N7 1_555 1_555
C21 N8 1_555 1_555
C22 C21 1_555 1_555
H20 C22 1_555 1_555
C23 C22 1_555 1_555
H21 C23 1_555 1_555
C24 C23 1_555 1_555
H22 C24 1_555 1_555
C25 C24 1_555 1_555
H23 C25 1_555 1_555
C26 C21 1_555 1_555
H24 C26 1_555 1_555
O5 C32 1_555 1_555
O6 C33 1_555 1_555
N9 C27 1_555 1_555
N10 H25 1_555 1_555
N11 N10 1_555 1_555
H26 N11 1_555 1_555
N12 H27 1_555 1_555
C27 H28 1_555 1_555
C28 C27 1_555 1_555
H29 C28 1_555 1_555
C29 C28 1_555 1_555
C30 C29 1_555 1_555
H30 C30 1_555 1_555
C31 N9 1_555 1_555
H31 C31 1_555 1_555
C32 N10 1_555 1_555
C33 N11 1_555 1_555
C34 N12 1_555 1_555
C35 C34 1_555 1_555
H32 C35 1_555 1_555
C36 C35 1_555 1_555
H33 C36 1_555 1_555
C37 C36 1_555 1_555
H34 C37 1_555 1_555
C38 C37 1_555 1_555
H35 C38 1_555 1_555
C39 C34 1_555 1_555
H36 C39 1_555 1_555
O7 C45 1_555 1_555
O8 C46 1_555 1_555
N13 C40 1_555 1_555
N14 H37 1_555 1_555
N15 N14 1_555 1_555
H38 N15 1_555 1_555
N16 H39 1_555 1_555
C40 H40 1_555 1_555
C41 C40 1_555 1_555
H41 C41 1_555 1_555
C42 C41 1_555 1_555
C43 C42 1_555 1_555
H42 C43 1_555 1_555
C44 N13 1_555 1_555
H43 C44 1_555 1_555
C45 N14 1_555 1_555
C46 N15 1_555 1_555
C47 N16 1_555 1_555
C48 C47 1_555 1_555
H44 C48 1_555 1_555
C49 C48 1_555 1_555
H45 C49 1_555 1_555
C50 C49 1_555 1_555
H46 C50 1_555 1_555
C51 C50 1_555 1_555
H47 C51 1_555 1_555
C52 C47 1_555 1_555
H48 C52 1_555 1_555
N4 C7 1_555 1_555
C3 C6 1_555 1_555
C4 C5 1_555 1_555
C12 C13 1_555 1_555
N8 C20 1_555 1_555
C16 C19 1_555 1_555
C17 C18 1_555 1_555
C25 C26 1_555 1_555
N12 C33 1_555 1_555
C29 C32 1_555 1_555
C30 C31 1_555 1_555
C38 C39 1_555 1_555
N16 C46 1_555 1_555
C42 C45 1_555 1_555
C43 C44 1_555 1_555
C51 C52 1_555 1_555

#END
