
#######################################################################
#
#                 Cambridge Crystallographic Data Centre
#                                CCDC 
#
#######################################################################
#
# If this CIF has been generated from an entry in the Cambridge 
# Structural Database, then it will include bibliographic, chemical, 
# crystal, experimental, refinement or atomic coordinate data resulting 
# from the CCDC's data processing and validation procedures.
#
#######################################################################

data_ILIDOY
_chemical_formula_moiety         'C23 H15 F1 N4 O1,2(C3 H7 N1 O1),H2 O1'
_chemical_name_systematic        
'13-(4-fluorophenyl)-1,6,11,13-tetrahydro-12H-benzo[h]indazolo[6,7-b][1,6]naphthyridin-12-one N,N-dimethylformamide solvate monohydrate'
_symmetry_cell_setting           monoclinic
_symmetry_space_group_name_H-M   'P 21/n'
_symmetry_Int_Tables_number      14
_space_group_name_Hall           '-P 2yn'
loop_
_symmetry_equiv_pos_site_id
_symmetry_equiv_pos_as_xyz
1 x,y,z
2 1/2-x,1/2+y,1/2-z
3 -x,-y,-z
4 1/2+x,1/2-y,1/2+z
_cell_length_a                   12.405(2)
_cell_length_b                   11.5703(18)
_cell_length_c                   19.459(3)
_cell_angle_alpha                90
_cell_angle_beta                 96.358(2)
_cell_angle_gamma                90
_cell_volume                     2775.76
_exptl_crystal_colour            colorless
_exptl_crystal_description       block
_cell_formula_units_Z            4
loop_
_atom_site_label
_atom_site_type_symbol
_atom_site_fract_x
_atom_site_fract_y
_atom_site_fract_z
F1 F 0.36607(13) 0.41357(12) 0.24148(7)
O1 O -0.07062(9) 0.61902(11) 0.06957(7)
N1 N 0.23291(11) 0.52786(13) -0.09868(7)
H1 H 0.1850(15) 0.4731(15) -0.0858(10)
N2 N 0.29183(12) 0.49860(15) -0.15147(8)
N3 N 0.19473(12) 0.89228(13) 0.02349(8)
H2 H 0.2123(16) 0.9652(14) 0.0226(11)
N4 N -0.08274(12) 0.80231(13) 0.10895(7)
H3 H -0.1406(14) 0.7815(16) 0.1317(9)
C1 C 0.34708(15) 0.59203(19) -0.16405(10)
H4 H 0.3950 0.5961 -0.1975
C2 C 0.32532(14) 0.68459(17) -0.12114(9)
C3 C 0.35886(16) 0.79993(18) -0.11178(11)
H5 H 0.4098 0.8311 -0.1382
C4 C 0.31602(15) 0.86530(17) -0.06377(10)
H6 H 0.3373 0.9420 -0.0578
C5 C 0.23922(13) 0.81863(15) -0.02246(8)
C6 C 0.10322(13) 0.86251(14) 0.05282(8)
C7 C 0.04605(13) 0.94937(14) 0.08799(8)
C8 C 0.07796(17) 1.06568(16) 0.09590(10)
H7 H 0.1388 1.0915 0.0765
C9 C 0.02042(19) 1.14146(17) 0.13186(11)
H8 H 0.0427 1.2181 0.1364
C10 C -0.07016(19) 1.10559(18) 0.16139(11)
H9 H -0.1077 1.1575 0.1864
C11 C -0.10443(16) 0.99350(16) 0.15382(10)
H10 H -0.1660 0.9695 0.1731
C12 C -0.04705(14) 0.91506(14) 0.11712(8)
C13 C -0.03191(12) 0.71910(14) 0.07549(8)
C14 C 0.06725(12) 0.75009(13) 0.04901(7)
C15 C 0.13215(12) 0.65418(13) 0.02074(7)
H11 H 0.0818 0.6007 -0.0053
C16 C 0.20663(12) 0.70435(14) -0.02801(7)
C17 C 0.25009(12) 0.63928(15) -0.07932(8)
C18 C 0.19540(12) 0.58768(13) 0.08018(8)
C19 C 0.28424(14) 0.63715(16) 0.11841(9)
H12 H 0.3056 0.7112 0.1072
C20 C 0.34209(16) 0.57972(17) 0.17275(10)
H13 H 0.4020 0.6139 0.1977
C21 C 0.30930(17) 0.47266(17) 0.18866(10)
C22 C 0.22076(19) 0.42092(17) 0.15406(11)
H14 H 0.1988 0.3480 0.1670
C23 C 0.16398(15) 0.47899(15) 0.09920(9)
H15 H 0.1038 0.4442 0.0749
O2 O -0.0602(2) 0.3565(2) 0.28024(18)
N5 N 0.03960(13) 0.51701(15) 0.27893(8)
C24 C -0.0442(2) 0.4536(3) 0.25962(15)
H16 H -0.0968 0.4849 0.2272
C25 C 0.1235(2) 0.4726(3) 0.32832(16)
H17 H 0.1180 0.3899 0.3302
H18 H 0.1158 0.5044 0.3731
H19 H 0.1930 0.4937 0.3148
C26 C 0.0542(3) 0.6295(2) 0.25108(15)
H20 H -0.0100 0.6514 0.2218
H21 H 0.1149 0.6285 0.2245
H22 H 0.0674 0.6842 0.2882
O3 O 0.75101(15) 0.73588(17) 0.19233(10)
H23 H 0.6959(17) 0.773(2) 0.2044(13)
H24 H 0.728(2) 0.6661(16) 0.1816(13)
O4 O 0.7147(5) 0.8750(4) -0.0096(3)
N6 N 0.5953(19) 0.7363(10) 0.0113(12)
C27 C 0.6764(4) 0.7787(3) -0.0176(2)
H25 H 0.7083 0.7301 -0.0475
C28 C 0.5581(4) 0.6205(3) 0.0020(3)
H26 H 0.6064 0.5783 -0.0240
H27 H 0.4866 0.6205 -0.0226
H28 H 0.5561 0.5846 0.0463
C29 C 0.5447(4) 0.8057(5) 0.0582(3)
H29 H 0.5903 0.8706 0.0720
H30 H 0.5331 0.7609 0.0983
H31 H 0.4762 0.8329 0.0363
O5? O 0.6781(7) 0.8943(6) -0.0175(5)
N7? N 0.596(3) 0.7325(12) 0.0141(16)
C30? C 0.6271(5) 0.8397(4) 0.0215(3)
H32? H 0.6085 0.8783 0.0603
C31? C 0.5179(4) 0.6836(5) 0.0536(3)
H33? H 0.4929 0.7415 0.0834
H34? H 0.5502 0.6210 0.0810
H35? H 0.4577 0.6550 0.0231
C32? C 0.6350(6) 0.6660(5) -0.0390(3)
H36? H 0.6521 0.7162 -0.0755
H37? H 0.5803 0.6118 -0.0568
H38? H 0.6990 0.6248 -0.0207
loop_
_geom_bond_atom_site_label_1
_geom_bond_atom_site_label_2
_geom_bond_site_symmetry_1
_geom_bond_site_symmetry_2
F1 C21 1_555 1_555
O1 C13 1_555 1_555
N1 H1 1_555 1_555
N2 N1 1_555 1_555
N3 H2 1_555 1_555
N4 H3 1_555 1_555
C1 N2 1_555 1_555
H4 C1 1_555 1_555
C2 C1 1_555 1_555
C3 C2 1_555 1_555
H5 C3 1_555 1_555
C4 C3 1_555 1_555
H6 C4 1_555 1_555
C5 N3 1_555 1_555
C6 N3 1_555 1_555
C7 C6 1_555 1_555
C8 C7 1_555 1_555
H7 C8 1_555 1_555
C9 C8 1_555 1_555
H8 C9 1_555 1_555
C10 C9 1_555 1_555
H9 C10 1_555 1_555
C11 C10 1_555 1_555
H10 C11 1_555 1_555
C12 N4 1_555 1_555
C13 N4 1_555 1_555
C14 C6 1_555 1_555
C15 C14 1_555 1_555
H11 C15 1_555 1_555
C16 C5 1_555 1_555
C17 N1 1_555 1_555
C18 C15 1_555 1_555
C19 C18 1_555 1_555
H12 C19 1_555 1_555
C20 C19 1_555 1_555
H13 C20 1_555 1_555
C21 C20 1_555 1_555
C22 C21 1_555 1_555
H14 C22 1_555 1_555
C23 C18 1_555 1_555
H15 C23 1_555 1_555
O2 C24 1_555 1_555
N5 C24 1_555 1_555
C24 H16 1_555 1_555
C25 N5 1_555 1_555
H17 C25 1_555 1_555
H18 C25 1_555 1_555
H19 C25 1_555 1_555
C26 N5 1_555 1_555
H20 C26 1_555 1_555
H21 C26 1_555 1_555
H22 C26 1_555 1_555
O3 H23 1_555 1_555
H24 O3 1_555 1_555
O4 C27 1_555 1_555
N6 C27 1_555 1_555
C27 H25 1_555 1_555
C28 N6 1_555 1_555
H26 C28 1_555 1_555
H27 C28 1_555 1_555
H28 C28 1_555 1_555
C29 N6 1_555 1_555
H29 C29 1_555 1_555
H30 C29 1_555 1_555
H31 C29 1_555 1_555
C2 C17 1_555 1_555
C4 C5 1_555 1_555
C7 C12 1_555 1_555
C11 C12 1_555 1_555
C13 C14 1_555 1_555
C15 C16 1_555 1_555
C16 C17 1_555 1_555
C22 C23 1_555 1_555

#END
