
#######################################################################
#
#                 Cambridge Crystallographic Data Centre
#                                CCDC 
#
#######################################################################
#
# If this CIF has been generated from an entry in the Cambridge 
# Structural Database, then it will include bibliographic, chemical, 
# crystal, experimental, refinement or atomic coordinate data resulting 
# from the CCDC's data processing and validation procedures.
#
#######################################################################

data_ILIPOI
_chemical_formula_moiety         'C13 H11 N3 S1'
_chemical_name_systematic        N,N-(2-Benzothiazole)(2-pyridylmethyl)amine
_symmetry_cell_setting           orthorhombic
_symmetry_space_group_name_H-M   'I b a 2'
_symmetry_Int_Tables_number      45
_space_group_name_Hall           'I 2 -2c'
loop_
_symmetry_equiv_pos_site_id
_symmetry_equiv_pos_as_xyz
1 x,y,z
2 -x,-y,z
3 1/2+x,1/2-y,z
4 1/2-x,1/2+y,z
5 1/2+x,1/2+y,1/2+z
6 1/2-x,1/2-y,1/2+z
7 x,-y,1/2+z
8 -x,y,1/2+z
_cell_length_a                   20.144(4)
_cell_length_b                   9.774(2)
_cell_length_c                   11.5860(10)
_cell_angle_alpha                90
_cell_angle_beta                 90
_cell_angle_gamma                90
_cell_volume                     2281.14
_exptl_crystal_colour            'pale yellow'
_exptl_crystal_description       prism
_cell_formula_units_Z            8
_exptl_crystal_recrystallization_method chloroform
loop_
_atom_site_label
_atom_site_type_symbol
_atom_site_fract_x
_atom_site_fract_y
_atom_site_fract_z
S1 S 0.40656(3) 0.55154(7) 0.40899(6)
N1 N 0.38746(11) 0.5360(2) 0.63259(18)
N2 N 0.47127(10) 0.6876(2) 0.57604(18)
H1 H 0.4904 0.7294 0.5198
N3 N 0.45966(11) 0.8253(2) 0.87048(19)
C1 C 0.34629(12) 0.4379(3) 0.4600(2)
C2 C 0.30604(13) 0.3503(3) 0.3974(3)
H2 H 0.3081 0.3476 0.3172
C3 C 0.26279(15) 0.2673(3) 0.4574(3)
H3 H 0.2355 0.2072 0.4171
C4 C 0.25943(15) 0.2718(4) 0.5759(3)
H4 H 0.2298 0.2153 0.6147
C5 C 0.29973(14) 0.3598(3) 0.6381(2)
H5 H 0.2970 0.3625 0.7182
C6 C 0.34423(12) 0.4438(3) 0.5805(2)
C7 C 0.42297(12) 0.5963(3) 0.5538(2)
C8 C 0.49156(15) 0.7167(3) 0.6939(2)
H6 H 0.5366 0.7516 0.6926
H7 H 0.4920 0.6315 0.7369
C9 C 0.44832(13) 0.8177(2) 0.7572(2)
C10 C 0.40108(15) 0.8963(3) 0.7032(3)
H8 H 0.3937 0.8868 0.6243
C11 C 0.36489(15) 0.9889(4) 0.7661(4)
H9 H 0.3332 1.0436 0.7304
C12 C 0.37597(17) 0.9995(4) 0.8820(4)
H10 H 0.3524 1.0615 0.9270
C13 C 0.42350(17) 0.9149(3) 0.9303(3)
H11 H 0.4307 0.9210 1.0094
loop_
_geom_bond_atom_site_label_1
_geom_bond_atom_site_label_2
_geom_bond_site_symmetry_1
_geom_bond_site_symmetry_2
S1 C1 1_555 1_555
N1 C6 1_555 1_555
N2 H1 1_555 1_555
N3 C9 1_555 1_555
C1 C2 1_555 1_555
C2 H2 1_555 1_555
C3 C2 1_555 1_555
H3 C3 1_555 1_555
C4 C3 1_555 1_555
H4 C4 1_555 1_555
C5 C4 1_555 1_555
H5 C5 1_555 1_555
C6 C1 1_555 1_555
C7 S1 1_555 1_555
C8 N2 1_555 1_555
H6 C8 1_555 1_555
H7 C8 1_555 1_555
C9 C8 1_555 1_555
C10 C9 1_555 1_555
H8 C10 1_555 1_555
C11 C10 1_555 1_555
H9 C11 1_555 1_555
C12 C11 1_555 1_555
H10 C12 1_555 1_555
C13 N3 1_555 1_555
H11 C13 1_555 1_555
N1 C7 1_555 1_555
N2 C7 1_555 1_555
C5 C6 1_555 1_555
C12 C13 1_555 1_555

#END
