
#######################################################################
#
#                 Cambridge Crystallographic Data Centre
#                                CCDC 
#
#######################################################################
#
# If this CIF has been generated from an entry in the Cambridge 
# Structural Database, then it will include bibliographic, chemical, 
# crystal, experimental, refinement or atomic coordinate data resulting 
# from the CCDC's data processing and validation procedures.
#
#######################################################################

data_ILIROM
_chemical_formula_moiety         'C27 H29 N3 O2 P2'
_chemical_name_systematic        
"N'-(2-methoxyphenyl)-N-(((2-methoxyphenyl)amino)(phenyl)phosphino)-N-methyl-P-phenylphosphonous diamide"
_symmetry_cell_setting           monoclinic
_symmetry_space_group_name_H-M   'P 21/c'
_symmetry_Int_Tables_number      14
_space_group_name_Hall           '-P 2ybc'
loop_
_symmetry_equiv_pos_site_id
_symmetry_equiv_pos_as_xyz
1 x,y,z
2 -x,1/2+y,1/2-z
3 -x,-y,-z
4 x,1/2-y,1/2+z
_cell_length_a                   14.6955(6)
_cell_length_b                   11.8223(5)
_cell_length_c                   14.3639(5)
_cell_angle_alpha                90
_cell_angle_beta                 94.7107(7)
_cell_angle_gamma                90
_cell_volume                     2487.08
_exptl_crystal_colour            colorless
_exptl_crystal_description       prism
_cell_formula_units_Z            4
_chemical_properties_physical    'Air-sensitive, Moisture-sensitive'
loop_
_atom_site_label
_atom_site_type_symbol
_atom_site_fract_x
_atom_site_fract_y
_atom_site_fract_z
C1 C 0.14812(11) -0.00880(13) 0.07817(11)
C2 C 0.16722(11) -0.09589(14) 0.14329(11)
C3 C 0.15901(12) -0.20761(14) 0.11689(13)
H1 H 0.1729 -0.2658 0.1614
C4 C 0.13044(13) -0.23523(15) 0.02528(14)
H2 H 0.1244 -0.3123 0.0071
C5 C 0.11084(14) -0.15095(16) -0.03908(13)
H3 H 0.0909 -0.1699 -0.1017
C6 C 0.12013(13) -0.03814(15) -0.01290(12)
H4 H 0.1071 0.0195 -0.0581
C7 C 0.19891(14) -0.13963(17) 0.30500(14)
H5 H 0.1404 -0.1796 0.3042
H6 H 0.2113 -0.1013 0.3652
H7 H 0.2477 -0.1941 0.2961
C8 C 0.10015(10) 0.31712(13) 0.12906(11)
C9 C 0.08057(12) 0.42756(14) 0.09814(12)
H8 H 0.0924 0.4488 0.0365
C10 C 0.04414(12) 0.50647(15) 0.15630(13)
H9 H 0.0314 0.5811 0.1344
C11 C 0.02645(12) 0.47650(15) 0.24615(13)
H10 H 0.0018 0.5305 0.2861
C12 C 0.04488(11) 0.36759(15) 0.27760(12)
H11 H 0.0329 0.3469 0.3393
C13 C 0.08072(11) 0.28862(14) 0.21943(11)
H12 H 0.0922 0.2138 0.2415
C14 C 0.31677(11) 0.27082(15) 0.11759(12)
H13 H 0.3292 0.1927 0.1376
H14 H 0.2917 0.3129 0.1684
H15 H 0.3736 0.3066 0.1018
C15 C 0.33945(11) 0.43634(14) -0.05733(11)
C16 C 0.39994(12) 0.47067(15) -0.12163(12)
H16 H 0.4152 0.4198 -0.1691
C17 C 0.43821(12) 0.57787(16) -0.11734(13)
H17 H 0.4791 0.6001 -0.1618
C18 C 0.41679(12) 0.65256(15) -0.04824(13)
H18 H 0.4425 0.7263 -0.0455
C19 C 0.35786(12) 0.61955(15) 0.01678(13)
H19 H 0.3441 0.6703 0.0649
C20 C 0.31865(12) 0.51260(14) 0.01220(12)
H20 H 0.2774 0.4911 0.0566
C21 C 0.37412(11) 0.11470(13) -0.13065(10)
C22 C 0.45767(11) 0.05698(14) -0.13130(11)
C23 C 0.46135(12) -0.04926(15) -0.17082(12)
H21 H 0.5181 -0.0877 -0.1709
C24 C 0.38201(14) -0.09995(15) -0.21044(13)
H22 H 0.3846 -0.1726 -0.2384
C25 C 0.29979(13) -0.04484(15) -0.20911(13)
H23 H 0.2456 -0.0798 -0.2358
C26 C 0.29546(12) 0.06181(14) -0.16893(12)
H24 H 0.2382 0.0988 -0.1677
C27 C 0.61760(12) 0.05946(17) -0.08224(14)
H25 H 0.6123 -0.0137 -0.0510
H26 H 0.6623 0.1067 -0.0458
H27 H 0.6377 0.0474 -0.1449
N1 N 0.15605(10) 0.10324(12) 0.10992(10)
N2 N 0.25049(9) 0.27109(11) 0.03516(9)
N3 N 0.37432(10) 0.22267(12) -0.09083(11)
O1 O 0.19490(8) -0.05812(10) 0.23149(8)
O2 O 0.53086(8) 0.11476(10) -0.08948(9)
P1 P 0.14213(3) 0.22020(3) 0.04245(3)
P2 P 0.27976(3) 0.30102(3) -0.07441(3)
H28 H 0.1779(13) 0.1055(17) 0.1698(14)
H29 H 0.4237(14) 0.2436(18) -0.0670(14)
loop_
_geom_bond_atom_site_label_1
_geom_bond_atom_site_label_2
_geom_bond_site_symmetry_1
_geom_bond_site_symmetry_2
C1 C2 1_555 1_555
C2 C3 1_555 1_555
C3 H1 1_555 1_555
C4 C3 1_555 1_555
H2 C4 1_555 1_555
C5 C4 1_555 1_555
H3 C5 1_555 1_555
C6 C1 1_555 1_555
H4 C6 1_555 1_555
C7 H5 1_555 1_555
H6 C7 1_555 1_555
H7 C7 1_555 1_555
C8 C9 1_555 1_555
C9 H8 1_555 1_555
C10 C9 1_555 1_555
H9 C10 1_555 1_555
C11 C10 1_555 1_555
H10 C11 1_555 1_555
C12 C11 1_555 1_555
H11 C12 1_555 1_555
C13 C8 1_555 1_555
H12 C13 1_555 1_555
C14 H13 1_555 1_555
H14 C14 1_555 1_555
H15 C14 1_555 1_555
C15 C16 1_555 1_555
C16 H16 1_555 1_555
C17 C16 1_555 1_555
H17 C17 1_555 1_555
C18 C17 1_555 1_555
H18 C18 1_555 1_555
C19 C18 1_555 1_555
H19 C19 1_555 1_555
C20 C15 1_555 1_555
H20 C20 1_555 1_555
C21 C22 1_555 1_555
C22 C23 1_555 1_555
C23 H21 1_555 1_555
C24 C23 1_555 1_555
H22 C24 1_555 1_555
C25 C24 1_555 1_555
H23 C25 1_555 1_555
C26 C21 1_555 1_555
H24 C26 1_555 1_555
C27 H25 1_555 1_555
H26 C27 1_555 1_555
H27 C27 1_555 1_555
N1 C1 1_555 1_555
N2 C14 1_555 1_555
N3 C21 1_555 1_555
O1 C2 1_555 1_555
O2 C22 1_555 1_555
P1 C8 1_555 1_555
P2 C15 1_555 1_555
H28 N1 1_555 1_555
H29 N3 1_555 1_555
C5 C6 1_555 1_555
C7 O1 1_555 1_555
C12 C13 1_555 1_555
C19 C20 1_555 1_555
C25 C26 1_555 1_555
C27 O2 1_555 1_555
N1 P1 1_555 1_555
N2 P1 1_555 1_555
N2 P2 1_555 1_555
N3 P2 1_555 1_555

#END
