
#######################################################################
#
#                 Cambridge Crystallographic Data Centre
#                                CCDC 
#
#######################################################################
#
# If this CIF has been generated from an entry in the Cambridge 
# Structural Database, then it will include bibliographic, chemical, 
# crystal, experimental, refinement or atomic coordinate data resulting 
# from the CCDC's data processing and validation procedures.
#
#######################################################################

data_ILISOL
_chemical_formula_moiety         'C28 H24 N2 O2'
_chemical_name_systematic        
N,N'-bis(Salicylidene)-1,2-(1S,2S)-(-)-diphenyl-1,2-ethanediamine
_symmetry_cell_setting           orthorhombic
_symmetry_space_group_name_H-M   'P 21 21 2'
_symmetry_Int_Tables_number      18
_space_group_name_Hall           'P 2 2ab'
loop_
_symmetry_equiv_pos_site_id
_symmetry_equiv_pos_as_xyz
1 x,y,z
2 -x,-y,z
3 1/2-x,1/2+y,-z
4 1/2+x,1/2-y,-z
_cell_length_a                   10.1341(13)
_cell_length_b                   16.168(2)
_cell_length_c                   6.9249(9)
_cell_angle_alpha                90
_cell_angle_beta                 90
_cell_angle_gamma                90
_cell_volume                     1134.63
_exptl_crystal_colour            yellow
_exptl_crystal_description       block
_cell_formula_units_Z            2
_exptl_crystal_recrystallization_method ethanol
loop_
_atom_site_label
_atom_site_type_symbol
_atom_site_fract_x
_atom_site_fract_y
_atom_site_fract_z
O1 O -0.13431(14) 0.42496(9) -0.00663(19)
H1 H -0.086(3) 0.437(2) 0.121(5)
N1 N -0.06098(14) 0.41791(8) 0.3462(2)
C1 C 0.15636(17) 0.43146(10) 0.5005(2)
C2 C 0.2159(2) 0.40430(13) 0.3321(3)
H2 H 0.1651 0.3976 0.2179
C3 C 0.3511(2) 0.38684(17) 0.3302(4)
H3 H 0.3918 0.3681 0.2147
C4 C 0.4249(2) 0.39666(17) 0.4942(4)
H4 H 0.5168 0.3850 0.4921
C5 C 0.3662(2) 0.42336(15) 0.6618(4)
H5 H 0.4175 0.4301 0.7756
C6 C 0.2321(2) 0.44054(11) 0.6650(3)
H6 H 0.1919 0.4587 0.7815
C7 C 0.01050(17) 0.45225(9) 0.5096(2)
H7 H -0.0271 0.4289 0.6314
C8 C -0.22819(17) 0.32986(10) 0.2213(3)
C9 C -0.22396(18) 0.36620(10) 0.0362(2)
C10 C -0.3125(2) 0.34079(12) -0.1047(3)
H8 H -0.3115 0.3661 -0.2285
C11 C -0.4019(2) 0.27880(14) -0.0651(4)
H9 H -0.4622 0.2617 -0.1623
C12 C -0.4051(2) 0.24115(13) 0.1140(4)
H10 H -0.4657 0.1976 0.1389
C13 C -0.3195(2) 0.26728(11) 0.2563(3)
H11 H -0.3229 0.2422 0.3802
C14 C -0.14444(17) 0.36060(10) 0.3749(2)
H12 H -0.1522 0.3373 0.5003
O1A O 0.13431(14) 0.57504(9) -0.00663(19)
H1A H 0.086(3) 0.563(2) 0.121(5)
N1A N 0.06098(14) 0.58209(8) 0.3462(2)
C1A C -0.15636(17) 0.56854(10) 0.5005(2)
C2A C -0.2159(2) 0.59570(13) 0.3321(3)
H2A H -0.1651 0.6024 0.2179
C3A C -0.3511(2) 0.61316(17) 0.3302(4)
H3A H -0.3918 0.6319 0.2147
C4A C -0.4249(2) 0.60334(17) 0.4942(4)
H4A H -0.5168 0.6150 0.4921
C5A C -0.3662(2) 0.57664(15) 0.6618(4)
H5A H -0.4175 0.5699 0.7756
C6A C -0.2321(2) 0.55946(11) 0.6650(3)
H6A H -0.1919 0.5413 0.7815
C7A C -0.01050(17) 0.54775(9) 0.5096(2)
H7A H 0.0271 0.5711 0.6314
C8A C 0.22819(17) 0.67014(10) 0.2213(3)
C9A C 0.22396(18) 0.63380(10) 0.0362(2)
C10A C 0.3125(2) 0.65921(12) -0.1047(3)
H8A H 0.3115 0.6339 -0.2285
C11A C 0.4019(2) 0.72120(14) -0.0651(4)
H9A H 0.4622 0.7383 -0.1623
C12A C 0.4051(2) 0.75885(13) 0.1140(4)
H10A H 0.4657 0.8024 0.1389
C13A C 0.3195(2) 0.73272(11) 0.2563(3)
H11A H 0.3229 0.7578 0.3802
C14A C 0.14444(17) 0.63940(10) 0.3749(2)
H12A H 0.1522 0.6627 0.5003
loop_
_geom_bond_atom_site_label_1
_geom_bond_atom_site_label_2
_geom_bond_site_symmetry_1
_geom_bond_site_symmetry_2
O1 H1 1_555 1_555
N1 C7 1_555 1_555
C1 C2 1_555 1_555
C2 H2 1_555 1_555
C3 C2 1_555 1_555
H3 C3 1_555 1_555
C4 C3 1_555 1_555
H4 C4 1_555 1_555
C5 C4 1_555 1_555
H5 C5 1_555 1_555
C6 C1 1_555 1_555
H6 C6 1_555 1_555
C7 C1 1_555 1_555
H7 C7 1_555 1_555
C8 C9 1_555 1_555
C9 O1 1_555 1_555
C10 C9 1_555 1_555
H8 C10 1_555 1_555
C11 C10 1_555 1_555
H9 C11 1_555 1_555
C12 C11 1_555 1_555
H10 C12 1_555 1_555
C13 C8 1_555 1_555
H11 C13 1_555 1_555
C14 N1 1_555 1_555
H12 C14 1_555 1_555
O1A H1A 1_555 1_555
N1A C7A 1_555 1_555
C1A C2A 1_555 1_555
C2A H2A 1_555 1_555
C3A C2A 1_555 1_555
H3A C3A 1_555 1_555
C4A C3A 1_555 1_555
H4A C4A 1_555 1_555
C5A C4A 1_555 1_555
H5A C5A 1_555 1_555
C6A C1A 1_555 1_555
H6A C6A 1_555 1_555
C7A C7 1_555 1_555
H7A C7A 1_555 1_555
C8A C9A 1_555 1_555
C9A O1A 1_555 1_555
C10A C9A 1_555 1_555
H8A C10A 1_555 1_555
C11A C10A 1_555 1_555
H9A C11A 1_555 1_555
C12A C11A 1_555 1_555
H10A C12A 1_555 1_555
C13A C8A 1_555 1_555
H11A C13A 1_555 1_555
C14A N1A 1_555 1_555
H12A C14A 1_555 1_555
C5 C6 1_555 1_555
C8 C14 1_555 1_555
C12 C13 1_555 1_555
C1A C7A 1_555 1_555
C5A C6A 1_555 1_555
C8A C14A 1_555 1_555
C12A C13A 1_555 1_555

#END
