
#######################################################################
#
#                 Cambridge Crystallographic Data Centre
#                                CCDC 
#
#######################################################################
#
# If this CIF has been generated from an entry in the Cambridge 
# Structural Database, then it will include bibliographic, chemical, 
# crystal, experimental, refinement or atomic coordinate data resulting 
# from the CCDC's data processing and validation procedures.
#
#######################################################################

data_ILOGIA
_chemical_formula_moiety         'C8 H10 O4'
_chemical_name_systematic        
4-Acetyl-2-hydroxy-2,5-dimethylfuran-3(2H)-one
_symmetry_cell_setting           monoclinic
_symmetry_space_group_name_H-M   'P 21/c'
_symmetry_Int_Tables_number      14
_space_group_name_Hall           '-P 2ybc'
loop_
_symmetry_equiv_pos_site_id
_symmetry_equiv_pos_as_xyz
1 x,y,z
2 -x,1/2+y,1/2-z
3 -x,-y,-z
4 x,1/2-y,1/2+z
_cell_length_a                   8.1260(12)
_cell_length_b                   13.048(2)
_cell_length_c                   8.6210(15)
_cell_angle_alpha                90
_cell_angle_beta                 113.676(15)
_cell_angle_gamma                90
_cell_volume                     837.132
_exptl_crystal_colour            colorless
_exptl_crystal_description       block
_cell_formula_units_Z            4
loop_
_atom_site_label
_atom_site_type_symbol
_atom_site_fract_x
_atom_site_fract_y
_atom_site_fract_z
O1 O 0.6449(2) 0.66359(13) 0.1102(2)
O2 O 0.8476(2) 0.52941(14) 0.1633(2)
H1 H 0.9402 0.5570 0.1681
C1 C 0.3416(3) 0.7156(2) -0.0284(4)
H2 H 0.3994 0.7620 -0.0769
H3 H 0.2801 0.7539 0.0272
H4 H 0.2566 0.6742 -0.1163
O3 O 0.6806(2) 0.45379(14) 0.3791(3)
O4 O 0.1591(2) 0.59858(14) 0.1576(3)
C2 C 0.7653(3) 0.59106(18) 0.2396(3)
C3 C 0.6330(3) 0.52690(18) 0.2830(3)
C4 C 0.4579(3) 0.57242(16) 0.1943(3)
C5 C 0.4776(3) 0.64889(17) 0.0958(3)
C6 C 0.2870(3) 0.53940(19) 0.2000(3)
C7 C 0.2753(4) 0.4324(2) 0.2558(4)
H5 H 0.1580 0.4209 0.2543
H6 H 0.3644 0.4225 0.3686
H7 H 0.2961 0.3850 0.1803
C8 C 0.8902(3) 0.6542(2) 0.3846(4)
H8 H 0.9703 0.6919 0.3489
H9 H 0.9586 0.6099 0.4770
H10 H 0.8216 0.7011 0.4206
loop_
_geom_bond_atom_site_label_1
_geom_bond_atom_site_label_2
_geom_bond_site_symmetry_1
_geom_bond_site_symmetry_2
O1 C2 1_555 1_555
O2 H1 1_555 1_555
C1 H2 1_555 1_555
H3 C1 1_555 1_555
H4 C1 1_555 1_555
O3 C3 1_555 1_555
O4 C6 1_555 1_555
C2 O2 1_555 1_555
C3 C2 1_555 1_555
C4 C3 1_555 1_555
C5 O1 1_555 1_555
C6 C4 1_555 1_555
C7 C6 1_555 1_555
H5 C7 1_555 1_555
H6 C7 1_555 1_555
H7 C7 1_555 1_555
C8 C2 1_555 1_555
H8 C8 1_555 1_555
H9 C8 1_555 1_555
H10 C8 1_555 1_555
C1 C5 1_555 1_555
C4 C5 1_555 1_555

#END
