
#######################################################################
#
#                 Cambridge Crystallographic Data Centre
#                                CCDC 
#
#######################################################################
#
# If this CIF has been generated from an entry in the Cambridge 
# Structural Database, then it will include bibliographic, chemical, 
# crystal, experimental, refinement or atomic coordinate data resulting 
# from the CCDC's data processing and validation procedures.
#
#######################################################################

data_ILOZUG
_chemical_formula_moiety         'C34 H22 S4,C12 H2 N6 S1'
_chemical_name_systematic        
"2,2'-(2,1,3-Benzothiadiazole-4,7-diylidene)dimalononitrile 2,13-diphenyl-23,24,25,26-tetrathiapentacyclo[18.2.1.1^3,6^.1^9,12^.1^14,17^]hexacosa-1,3,5,7,9,11,13,15,17,19,21-undecaene"
_symmetry_cell_setting           triclinic
_symmetry_space_group_name_H-M   'P -1'
_symmetry_Int_Tables_number      2
_space_group_name_Hall           '-P 1'
loop_
_symmetry_equiv_pos_site_id
_symmetry_equiv_pos_as_xyz
1 x,y,z
2 -x,-y,-z
_cell_length_a                   7.7712(16)
_cell_length_b                   11.266(2)
_cell_length_c                   11.337(2)
_cell_angle_alpha                74.094(8)
_cell_angle_beta                 78.856(9)
_cell_angle_gamma                80.050(9)
_cell_volume                     928.975
_exptl_crystal_colour            black
_exptl_crystal_description       rod
_cell_formula_units_Z            1
loop_
_atom_site_label
_atom_site_type_symbol
_atom_site_fract_x
_atom_site_fract_y
_atom_site_fract_z
S3 S 0.07027(14) 0.89429(9) 0.73502(9)
N1 N 0.1129(4) 1.0206(3) 0.7599(3)
N2 N -0.0161(4) 0.8261(3) 0.8722(3)
N3 N -0.1887(4) 0.6130(3) 1.0202(3)
N4 N -0.2733(3) 0.7289(2) 1.3602(3)
C18 C 0.0642(3) 1.02052(19) 0.8722(2)
C19 C -0.0096(3) 0.9122(2) 0.9346(2)
C20 C -0.0785(3) 0.88595(19) 1.0664(2)
C21 C -0.1540(3) 0.7802(2) 1.1268(2)
C22 C -0.1716(3) 0.6880(2) 1.0654(3)
C23 C -0.2205(3) 0.7530(2) 1.2570(3)
S3A S -0.07027(14) 1.10571(9) 1.26498(9)
N1A N -0.1129(4) 0.9794(3) 1.2401(3)
N2A N 0.0161(4) 1.1739(3) 1.1278(3)
N3A N 0.1887(4) 1.3870(3) 0.9798(3)
N4A N 0.2733(3) 1.2711(2) 0.6398(3)
C18A C -0.0642(3) 0.97948(19) 1.1278(2)
C19A C 0.0096(3) 1.0878(2) 1.0654(2)
C20A C 0.0785(3) 1.11405(19) 0.9336(2)
C21A C 0.1540(3) 1.2198(2) 0.8732(2)
C22A C 0.1716(3) 1.3120(2) 0.9346(3)
C23A C 0.2205(3) 1.2470(2) 0.7430(3)
S1 S 0.43249(7) 1.02898(4) 0.18205(4)
S2 S 0.39412(6) 0.82026(4) 0.07670(4)
C1 C 0.5190(3) 1.2552(2) 0.2088(2)
H1 H 0.5108 1.2981 0.2715
C2 C 0.4508(3) 1.14125(18) 0.25736(18)
C3 C 0.3845(3) 1.0992(2) 0.38504(19)
H2 H 0.3818 1.1463 0.4434
C4 C 0.3248(3) 0.98567(19) 0.41796(18)
H3 H 0.2771 0.9477 0.5008
C5 C 0.3397(2) 0.92949(18) 0.31910(17)
C6 C 0.2926(2) 0.81202(18) 0.32851(17)
C7 C 0.3071(2) 0.75440(17) 0.23126(17)
C8 C 0.2558(3) 0.63832(19) 0.23891(19)
H4 H 0.2048 0.5869 0.3145
C9 C 0.2859(3) 0.60575(19) 0.1279(2)
H5 H 0.2572 0.5298 0.1202
C10 C 0.3627(3) 0.69414(18) 0.02612(19)
C11 C 0.4052(3) 0.67758(19) -0.0950(2)
H6 H 0.3741 0.6013 -0.0999
C12 C 0.2247(3) 0.73813(19) 0.45654(18)
C13 C 0.3360(3) 0.64619(19) 0.5235(2)
H7 H 0.4557 0.6288 0.4877
C14 C 0.2756(3) 0.5790(2) 0.6419(2)
H8 H 0.3547 0.5167 0.6866
C15 C 0.1044(4) 0.6010(2) 0.6953(2)
H9 H 0.0684 0.5688 0.7816
C16 C -0.0198(9) 0.6744(6) 0.6168(8)
H10 H -0.1434 0.6755 0.6447
C17 C 0.0434(9) 0.7443(7) 0.4990(8)
H11 H -0.0373 0.7961 0.4475
S1A S 0.56751(7) 0.97102(4) -0.18205(4)
S2A S 0.60588(6) 1.17974(4) -0.07670(4)
C1A C 0.4810(3) 0.7448(2) -0.2088(2)
H1A H 0.4892 0.7019 -0.2715
C2A C 0.5492(3) 0.85875(18) -0.25736(18)
C3A C 0.6155(3) 0.9008(2) -0.38504(19)
H2A H 0.6182 0.8537 -0.4434
C4A C 0.6752(3) 1.01433(19) -0.41796(18)
H3A H 0.7229 1.0523 -0.5008
C5A C 0.6603(2) 1.07051(18) -0.31910(17)
C6A C 0.7074(2) 1.18798(18) -0.32851(17)
C7A C 0.6929(2) 1.24560(17) -0.23126(17)
C8A C 0.7442(3) 1.36168(19) -0.23891(19)
H4A H 0.7952 1.4131 -0.3145
C9A C 0.7141(3) 1.39425(19) -0.1279(2)
H5A H 0.7428 1.4702 -0.1202
C10A C 0.6373(3) 1.30586(18) -0.02612(19)
C11A C 0.5948(3) 1.32242(19) 0.0950(2)
H6A H 0.6259 1.3987 0.0999
C12A C 0.7753(3) 1.26187(19) -0.45654(18)
C13A C 0.6640(3) 1.35381(19) -0.5235(2)
H7A H 0.5443 1.3712 -0.4877
C14A C 0.7244(3) 1.4210(2) -0.6419(2)
H8A H 0.6453 1.4833 -0.6866
C15A C 0.8956(4) 1.3990(2) -0.6953(2)
H9A H 0.9316 1.4312 -0.7816
C16A C 1.0198(9) 1.3256(6) -0.6168(8)
H10A H 1.1434 1.3245 -0.6447
C17A C 0.9566(9) 1.2557(7) -0.4990(8)
H11A H 1.0373 1.2039 -0.4475
H12? H 0.0509 0.5417 0.7632
C24? C 0.0130(12) 0.7147(14) 0.6449(7)
H13? H -0.0882 0.7475 0.6935
C25? C 0.0663(12) 0.7820(14) 0.5244(8)
H14? H -0.0032 0.8564 0.4884
H15? H 0.1071 1.0337 0.7849
H16? H -0.0153 0.8528 0.8893
loop_
_geom_bond_atom_site_label_1
_geom_bond_atom_site_label_2
_geom_bond_site_symmetry_1
_geom_bond_site_symmetry_2
S1 C2 1_555 1_555
S2 C7 1_555 1_555
C1 H1 1_555 1_555
C2 C1 1_555 1_555
C3 C2 1_555 1_555
H2 C3 1_555 1_555
C4 C3 1_555 1_555
H3 C4 1_555 1_555
C5 S1 1_555 1_555
C6 C5 1_555 1_555
C7 C6 1_555 1_555
C8 C7 1_555 1_555
H4 C8 1_555 1_555
C9 C8 1_555 1_555
H5 C9 1_555 1_555
C10 S2 1_555 1_555
C11 C10 1_555 1_555
H6 C11 1_555 1_555
C12 C6 1_555 1_555
C13 C12 1_555 1_555
H7 C13 1_555 1_555
C14 C13 1_555 1_555
H8 C14 1_555 1_555
C15 C14 1_555 1_555
H9 C15 1_555 1_555
C16 C15 1_555 1_555
H10 C16 1_555 1_555
C17 C12 1_555 1_555
H11 C17 1_555 1_555
S3 N1 1_555 1_555
N1 C18 1_555 1_555
N2 S3 1_555 1_555
N3 C22 1_555 1_555
N4 C23 1_555 1_555
C18 C19 1_555 1_555
C19 N2 1_555 1_555
C20 C19 1_555 1_555
C21 C20 1_555 1_555
C22 C21 1_555 1_555
C23 C21 1_555 1_555
S1A C2A 1_555 1_555
S2A C7A 1_555 1_555
C1A C11 1_555 1_555
H1A C1A 1_555 1_555
C2A C1A 1_555 1_555
C3A C2A 1_555 1_555
H2A C3A 1_555 1_555
C4A C3A 1_555 1_555
H3A C4A 1_555 1_555
C5A S1A 1_555 1_555
C6A C5A 1_555 1_555
C7A C6A 1_555 1_555
C8A C7A 1_555 1_555
H4A C8A 1_555 1_555
C9A C8A 1_555 1_555
H5A C9A 1_555 1_555
C10A S2A 1_555 1_555
C11A C1 1_555 1_555
H6A C11A 1_555 1_555
C12A C6A 1_555 1_555
C13A C12A 1_555 1_555
H7A C13A 1_555 1_555
C14A C13A 1_555 1_555
H8A C14A 1_555 1_555
C15A C14A 1_555 1_555
H9A C15A 1_555 1_555
C16A C15A 1_555 1_555
H10A C16A 1_555 1_555
C17A C12A 1_555 1_555
H11A C17A 1_555 1_555
S3A N1A 1_555 1_555
N1A C18A 1_555 1_555
N2A S3A 1_555 1_555
N3A C22A 1_555 1_555
N4A C23A 1_555 1_555
C18A C20 1_555 1_555
C19A N2A 1_555 1_555
C20A C18 1_555 1_555
C21A C20A 1_555 1_555
C22A C21A 1_555 1_555
C23A C21A 1_555 1_555
C4 C5 1_555 1_555
C9 C10 1_555 1_555
C16 C17 1_555 1_555
C4A C5A 1_555 1_555
C9A C10A 1_555 1_555
C10A C11A 1_555 1_555
C16A C17A 1_555 1_555
C18A C19A 1_555 1_555
C19A C20A 1_555 1_555

#END
