
#######################################################################
#
#                 Cambridge Crystallographic Data Centre
#                                CCDC 
#
#######################################################################
#
# If this CIF has been generated from an entry in the Cambridge 
# Structural Database, then it will include bibliographic, chemical, 
# crystal, experimental, refinement or atomic coordinate data resulting 
# from the CCDC's data processing and validation procedures.
#
#######################################################################

data_ILUCEZ
_chemical_formula_moiety         'C36 H24 B2 F20 N1 O1 1-,C12 H24 N1 O1 1+'
_chemical_name_systematic        
'6,6,10,10-Tetramethyl-1-oxa-5-azoniaspiro[4.5]decane (bis(pentafluorophenyl)borinato)(bis(pentafluorophenyl))(3-(2,2,6,6-tetramethylpiperidin-1-yl)propyl)borate'
_symmetry_cell_setting           monoclinic
_symmetry_space_group_name_H-M   'P 21/n'
_symmetry_Int_Tables_number      14
_space_group_name_Hall           '-P 2yn'
loop_
_symmetry_equiv_pos_site_id
_symmetry_equiv_pos_as_xyz
1 x,y,z
2 1/2-x,1/2+y,1/2-z
3 -x,-y,-z
4 1/2+x,1/2-y,1/2+z
_cell_length_a                   12.6330(4)
_cell_length_b                   22.0052(7)
_cell_length_c                   17.6449(5)
_cell_angle_alpha                90
_cell_angle_beta                 104.1350(10)
_cell_angle_gamma                90
_cell_volume                     4756.62
_exptl_crystal_colour            colorless
_exptl_crystal_description       prism
_cell_formula_units_Z            4
loop_
_atom_site_label
_atom_site_type_symbol
_atom_site_fract_x
_atom_site_fract_y
_atom_site_fract_z
B1 B 0.32139(12) 0.71429(7) 0.53829(9)
C1 C 0.28439(11) 0.66689(6) 0.74861(8)
H1 H 0.3105 0.7045 0.778
H2 H 0.2037 0.6686 0.7327
N1 N 0.31763(9) 0.61417(5) 0.80068(6)
O1 O 0.43881(8) 0.69428(4) 0.54448(5)
B2 B 0.53194(13) 0.72179(7) 0.57335(9)
C2 C 0.32821(12) 0.66509(6) 0.67531(8)
H3 H 0.2971 0.6294 0.6435
H4 H 0.4085 0.66 0.6909
C3 C 0.30085(11) 0.72266(6) 0.62515(8)
H5 H 0.3463 0.7567 0.6519
H6 H 0.2234 0.7335 0.6203
C4 C 0.39971(12) 0.62998(6) 0.87394(8)
C5 C 0.43903(13) 0.57151(7) 0.91962(8)
H7 H 0.4829 0.5477 0.8907
H8 H 0.4872 0.5825 0.9709
C6 C 0.34691(14) 0.53210(7) 0.93282(9)
H9 H 0.3053 0.5542 0.965
H10 H 0.3768 0.4945 0.9608
C7 C 0.27257(13) 0.51632(7) 0.85394(9)
H11 H 0.2111 0.4915 0.8623
H12 H 0.3139 0.4913 0.8244
C8 C 0.22625(12) 0.57230(6) 0.80440(8)
C9 C 0.49928(12) 0.65791(7) 0.85218(9)
H13 H 0.525 0.6305 0.8167
H14 H 0.5576 0.6641 0.8996
H15 H 0.479 0.6971 0.8262
C10 C 0.35968(14) 0.67524(7) 0.92787(8)
H16 H 0.3266 0.7106 0.8974
H17 H 0.4217 0.6884 0.9697
H18 H 0.3053 0.6554 0.9507
C11 C 0.17565(13) 0.54879(7) 0.72148(9)
H19 H 0.1432 0.5828 0.6879
H20 H 0.119 0.5188 0.7233
H21 H 0.2325 0.5298 0.7003
C12 C 0.13401(13) 0.60089(7) 0.83642(10)
H22 H 0.1621 0.6109 0.8918
H23 H 0.0736 0.5719 0.8306
H24 H 0.1078 0.638 0.8071
C13 C 0.23698(11) 0.65946(6) 0.49759(7)
C14 C 0.26161(11) 0.59823(6) 0.49453(8)
F1 F 0.36677(7) 0.57854(4) 0.51626(5)
C15 C 0.18465(13) 0.55270(6) 0.47243(8)
F2 F 0.21587(8) 0.49384(4) 0.47576(5)
C16 C 0.07564(13) 0.56743(7) 0.44872(9)
F3 F -0.00053(8) 0.52433(5) 0.42487(6)
C17 C 0.04618(12) 0.62751(7) 0.44935(9)
F4 F -0.05992(8) 0.64304(5) 0.42594(7)
C18 C 0.12540(12) 0.67117(7) 0.47419(8)
F5 F 0.08885(7) 0.72893(4) 0.47610(6)
C19 C 0.30069(11) 0.77459(6) 0.48026(8)
C20 C 0.30026(11) 0.76755(6) 0.40197(8)
F6 F 0.31193(7) 0.71107(4) 0.37384(5)
C21 C 0.29070(12) 0.81424(7) 0.34863(8)
F7 F 0.29208(8) 0.80316(4) 0.27370(5)
C22 C 0.28109(13) 0.87300(7) 0.37300(9)
F8 F 0.27088(9) 0.91944(4) 0.32238(6)
C23 C 0.28086(12) 0.88334(6) 0.44999(9)
F9 F 0.27166(9) 0.94054(4) 0.47452(6)
C24 C 0.28981(11) 0.83471(6) 0.50113(8)
F10 F 0.28973(7) 0.84966(4) 0.57565(5)
C25 C 0.54359(11) 0.79219(6) 0.59861(8)
C26 C 0.54531(12) 0.83833(7) 0.54555(9)
F11 F 0.53762(7) 0.82389(4) 0.47002(5)
C27 C 0.55369(13) 0.89908(7) 0.56551(10)
F12 F 0.55489(9) 0.94194(4) 0.51170(7)
C28 C 0.56113(13) 0.91529(7) 0.64223(11)
F13 F 0.56964(10) 0.97395(5) 0.66308(8)
C29 C 0.56151(13) 0.87100(8) 0.69739(10)
F14 F 0.57176(10) 0.88660(5) 0.77243(6)
C30 C 0.55392(12) 0.81062(7) 0.67500(9)
F15 F 0.55684(8) 0.76827(4) 0.73084(5)
C31 C 0.64281(11) 0.68361(6) 0.58796(8)
C32 C 0.65104(12) 0.62590(6) 0.62087(8)
F16 F 0.56314(7) 0.60053(4) 0.63859(6)
C33 C 0.74646(13) 0.59270(7) 0.63933(8)
F17 F 0.74896(8) 0.53711(4) 0.67098(5)
C34 C 0.84001(12) 0.61741(7) 0.62527(9)
F18 F 0.93351(8) 0.58633(5) 0.64362(7)
C35 C 0.83668(12) 0.67443(7) 0.59284(9)
F19 F 0.92787(8) 0.69884(5) 0.57935(7)
C36 C 0.73943(12) 0.70607(6) 0.57482(8)
F20 F 0.74012(7) 0.76128(4) 0.54146(5)
N2 N 0.48756(10) 0.39280(5) 0.71403(7)
C37 C 0.53760(13) 0.40117(7) 0.64426(9)
H25 H 0.6177 0.4067 0.6617
H26 H 0.5219 0.3657 0.6087
O2 O 0.42518(9) 0.44744(4) 0.71870(6)
C38 C 0.4828(8) 0.4583(3) 0.6040(5)
H27 H 0.4161 0.4481 0.5633
H28 H 0.5331 0.4816 0.5798
C39 C 0.4548(6) 0.4941(2) 0.6709(4)
H29 H 0.5186 0.5175 0.7003
H30 H 0.3932 0.5223 0.6511
C40 C 0.57589(12) 0.39091(7) 0.79445(8)
C41 C 0.51478(14) 0.38607(8) 0.85923(9)
H31 H 0.5689 0.3811 0.9099
H32 H 0.4755 0.4247 0.8614
C42 C 0.43402(15) 0.33452(8) 0.84961(11)
H33 H 0.3969 0.3353 0.893
H34 H 0.473 0.2953 0.8517
C43 C 0.35003(13) 0.34006(7) 0.77218(10)
H35 H 0.3081 0.378 0.7724
H36 H 0.2982 0.3057 0.7671
C44 C 0.39885(12) 0.34053(7) 0.70087(9)
C45 C 0.65495(12) 0.33791(7) 0.79704(9)
H37 H 0.7177 0.3429 0.8419
H38 H 0.6801 0.3373 0.7487
H39 H 0.6177 0.2996 0.8022
C46 C 0.64053(15) 0.45021(8) 0.80496(12)
H40 H 0.5902 0.4846 0.8011
H41 H 0.6807 0.4536 0.7641
H42 H 0.6922 0.4505 0.8564
C47 C 0.44856(14) 0.27864(7) 0.68870(11)
H43 H 0.4902 0.2629 0.7392
H44 H 0.4972 0.2835 0.6535
H45 H 0.39 0.2501 0.6657
C48 C 0.31030(15) 0.35597(9) 0.62780(12)
H46 H 0.2517 0.3258 0.6206
H47 H 0.3416 0.3557 0.5822
H48 H 0.2807 0.3964 0.6336
H49? H 0.618 0.3972 0.6613
H50? H 0.5097 0.3696 0.6045
C49? C 0.5075(10) 0.4632(5) 0.6100(6)
H51? H 0.4827 0.4611 0.5524
H52? H 0.5705 0.4912 0.6243
C50? C 0.4146(6) 0.4843(3) 0.6458(4)
H53? H 0.4217 0.5282 0.6584
H54? H 0.3429 0.4771 0.609
loop_
_geom_bond_atom_site_label_1
_geom_bond_atom_site_label_2
_geom_bond_site_symmetry_1
_geom_bond_site_symmetry_2
B1 O1 1_555 1_555
C1 H1 1_555 1_555
H2 C1 1_555 1_555
N1 C1 1_555 1_555
O1 B2 1_555 1_555
B2 C25 1_555 1_555
C2 C1 1_555 1_555
H3 C2 1_555 1_555
H4 C2 1_555 1_555
C3 B1 1_555 1_555
H5 C3 1_555 1_555
H6 C3 1_555 1_555
C4 N1 1_555 1_555
C5 C4 1_555 1_555
H7 C5 1_555 1_555
H8 C5 1_555 1_555
C6 C5 1_555 1_555
H9 C6 1_555 1_555
H10 C6 1_555 1_555
C7 C6 1_555 1_555
H11 C7 1_555 1_555
H12 C7 1_555 1_555
C8 N1 1_555 1_555
C9 C4 1_555 1_555
H13 C9 1_555 1_555
H14 C9 1_555 1_555
H15 C9 1_555 1_555
C10 C4 1_555 1_555
H16 C10 1_555 1_555
H17 C10 1_555 1_555
H18 C10 1_555 1_555
C11 C8 1_555 1_555
H19 C11 1_555 1_555
H20 C11 1_555 1_555
H21 C11 1_555 1_555
C12 C8 1_555 1_555
H22 C12 1_555 1_555
H23 C12 1_555 1_555
H24 C12 1_555 1_555
C13 B1 1_555 1_555
C14 C13 1_555 1_555
F1 C14 1_555 1_555
C15 C14 1_555 1_555
F2 C15 1_555 1_555
C16 C15 1_555 1_555
F3 C16 1_555 1_555
C17 C16 1_555 1_555
F4 C17 1_555 1_555
C18 C13 1_555 1_555
F5 C18 1_555 1_555
C19 B1 1_555 1_555
C20 C19 1_555 1_555
F6 C20 1_555 1_555
C21 C20 1_555 1_555
F7 C21 1_555 1_555
C22 C21 1_555 1_555
F8 C22 1_555 1_555
C23 C22 1_555 1_555
F9 C23 1_555 1_555
C24 C19 1_555 1_555
F10 C24 1_555 1_555
C25 C26 1_555 1_555
C26 F11 1_555 1_555
C27 C26 1_555 1_555
F12 C27 1_555 1_555
C28 C27 1_555 1_555
F13 C28 1_555 1_555
C29 C28 1_555 1_555
F14 C29 1_555 1_555
C30 C25 1_555 1_555
F15 C30 1_555 1_555
C31 B2 1_555 1_555
C32 C31 1_555 1_555
F16 C32 1_555 1_555
C33 C32 1_555 1_555
F17 C33 1_555 1_555
C34 C33 1_555 1_555
F18 C34 1_555 1_555
C35 C34 1_555 1_555
F19 C35 1_555 1_555
C36 C31 1_555 1_555
F20 C36 1_555 1_555
N2 C37 1_555 1_555
C37 H25 1_555 1_555
H26 C37 1_555 1_555
O2 N2 1_555 1_555
C38 C37 1_555 1_555
H27 C38 1_555 1_555
H28 C38 1_555 1_555
C39 O2 1_555 1_555
H29 C39 1_555 1_555
H30 C39 1_555 1_555
C40 N2 1_555 1_555
C41 C40 1_555 1_555
H31 C41 1_555 1_555
H32 C41 1_555 1_555
C42 C41 1_555 1_555
H33 C42 1_555 1_555
H34 C42 1_555 1_555
C43 C42 1_555 1_555
H35 C43 1_555 1_555
H36 C43 1_555 1_555
C44 N2 1_555 1_555
C45 C40 1_555 1_555
H37 C45 1_555 1_555
H38 C45 1_555 1_555
H39 C45 1_555 1_555
C46 C40 1_555 1_555
H40 C46 1_555 1_555
H41 C46 1_555 1_555
H42 C46 1_555 1_555
C47 C44 1_555 1_555
H43 C47 1_555 1_555
H44 C47 1_555 1_555
H45 C47 1_555 1_555
C48 C44 1_555 1_555
H46 C48 1_555 1_555
H47 C48 1_555 1_555
H48 C48 1_555 1_555
C2 C3 1_555 1_555
C7 C8 1_555 1_555
C17 C18 1_555 1_555
C23 C24 1_555 1_555
C29 C30 1_555 1_555
C35 C36 1_555 1_555
C38 C39 1_555 1_555
C43 C44 1_555 1_555

#END
