
#######################################################################
#
#                 Cambridge Crystallographic Data Centre
#                                CCDC 
#
#######################################################################
#
# If this CIF has been generated from an entry in the Cambridge 
# Structural Database, then it will include bibliographic, chemical, 
# crystal, experimental, refinement or atomic coordinate data resulting 
# from the CCDC's data processing and validation procedures.
#
#######################################################################

data_ILUWOD
_chemical_formula_moiety         'C20 H18 B1 F2 N3'
_chemical_name_systematic        
5,5-Difluoro-1,3-dimethyl-7-(5-methyl-1H-pyrrol-2-yl)-5H-6\l^5^,5\l^5^-pyrrolo[1',2':3,4][1,3,2]diazaborinino[6,1-a]isoindole
_symmetry_cell_setting           triclinic
_symmetry_space_group_name_H-M   'P -1'
_symmetry_Int_Tables_number      2
_space_group_name_Hall           '-P 1'
loop_
_symmetry_equiv_pos_site_id
_symmetry_equiv_pos_as_xyz
1 x,y,z
2 -x,-y,-z
_cell_length_a                   8.767(3)
_cell_length_b                   10.130(4)
_cell_length_c                   10.958(4)
_cell_angle_alpha                113.466(4)
_cell_angle_beta                 90.443(4)
_cell_angle_gamma                102.176(4)
_cell_volume                     868.033
_exptl_crystal_colour            purple
_exptl_crystal_description       block
_cell_formula_units_Z            2
_exptl_crystal_preparation       Luminescent
loop_
_atom_site_label
_atom_site_type_symbol
_atom_site_fract_x
_atom_site_fract_y
_atom_site_fract_z
B1 B 0.5130(2) 0.2379(2) 0.77525(19)
C1 C 0.9017(2) 0.63271(19) 0.97592(17)
C2 C 1.0007(2) 0.6624(2) 0.88854(19)
H1 H 1.1008 0.7242 0.9116
C3 C 0.9249(2) 0.5840(2) 0.75978(19)
H2 H 0.9652 0.5847 0.6817
C4 C 0.77838(19) 0.50430(19) 0.76804(16)
C5 C 0.66405(18) 0.40333(18) 0.65983(16)
C6 C 0.65629(19) 0.40432(19) 0.52842(17)
C7 C 0.7345(2) 0.5032(2) 0.47743(19)
H3 H 0.8108 0.5863 0.5311
C8 C 0.6962(2) 0.4750(3) 0.3462(2)
H4 H 0.7482 0.5394 0.3106
C9 C 0.5806(3) 0.3513(3) 0.26538(19)
H5 H 0.5584 0.3338 0.1764
C10 C 0.4990(2) 0.2551(2) 0.31422(18)
H6 H 0.4211 0.1736 0.2601
C11 C 0.5363(2) 0.2830(2) 0.44786(17)
C12 C 0.46946(19) 0.21112(19) 0.53009(16)
C13 C 0.34817(19) 0.09067(19) 0.50145(17)
H7 H 0.2988 0.0418 0.4147
C14 C 0.29522(19) 0.03791(18) 0.59652(17)
C15 C 0.1698(2) -0.07665(19) 0.58917(19)
C16 C 0.1700(2) -0.0768(2) 0.7158(2)
H8 H 0.0993 -0.1412 0.7412
C17 C 0.2934(2) 0.03513(19) 0.79806(19)
C18 C 0.9257(2) 0.6870(2) 1.12331(18)
H9 H 0.8381 0.7257 1.1619
H10 H 1.0202 0.7638 1.1569
H11 H 0.9343 0.6069 1.1467
C19 C 0.0596(2) -0.1774(2) 0.4676(2)
H12 H 0.0636 -0.2780 0.4465
H13 H 0.0896 -0.1529 0.3937
H14 H -0.0452 -0.1660 0.4843
C20 C 0.3395(3) 0.0781(2) 0.9419(2)
H15 H 0.4506 0.0894 0.9558
H16 H 0.2851 0.0026 0.9684
H17 H 0.3127 0.1700 0.9944
F1 F 0.47756(13) 0.35494(11) 0.88394(10)
F2 F 0.64308(12) 0.20144(13) 0.81426(11)
N1 N 0.76916(16) 0.53659(15) 0.90184(13)
H18 H 0.6899 0.5006 0.9341
N2 N 0.55051(15) 0.28891(15) 0.65886(13)
N3 N 0.37055(16) 0.10576(15) 0.72579(14)
loop_
_geom_bond_atom_site_label_1
_geom_bond_atom_site_label_2
_geom_bond_site_symmetry_1
_geom_bond_site_symmetry_2
B1 F1 1_555 1_555
C1 C2 1_555 1_555
C2 H1 1_555 1_555
C3 C2 1_555 1_555
H2 C3 1_555 1_555
C4 C3 1_555 1_555
C5 C4 1_555 1_555
C6 C5 1_555 1_555
C7 C6 1_555 1_555
H3 C7 1_555 1_555
C8 C7 1_555 1_555
H4 C8 1_555 1_555
C9 C8 1_555 1_555
H5 C9 1_555 1_555
C10 C9 1_555 1_555
H6 C10 1_555 1_555
C11 C6 1_555 1_555
C12 C11 1_555 1_555
C13 C12 1_555 1_555
H7 C13 1_555 1_555
C14 C13 1_555 1_555
C15 C14 1_555 1_555
C16 C15 1_555 1_555
H8 C16 1_555 1_555
C17 C16 1_555 1_555
C18 C1 1_555 1_555
H9 C18 1_555 1_555
H10 C18 1_555 1_555
H11 C18 1_555 1_555
C19 C15 1_555 1_555
H12 C19 1_555 1_555
H13 C19 1_555 1_555
H14 C19 1_555 1_555
C20 C17 1_555 1_555
H15 C20 1_555 1_555
H16 C20 1_555 1_555
H17 C20 1_555 1_555
F2 B1 1_555 1_555
N1 C1 1_555 1_555
H18 N1 1_555 1_555
N2 B1 1_555 1_555
N3 B1 1_555 1_555
C4 N1 1_555 1_555
C5 N2 1_555 1_555
C10 C11 1_555 1_555
C12 N2 1_555 1_555
C14 N3 1_555 1_555
C17 N3 1_555 1_555

#END
