
#######################################################################
#
#                 Cambridge Crystallographic Data Centre
#                                CCDC 
#
#######################################################################
#
# If this CIF has been generated from an entry in the Cambridge 
# Structural Database, then it will include bibliographic, chemical, 
# crystal, experimental, refinement or atomic coordinate data resulting 
# from the CCDC's data processing and validation procedures.
#
#######################################################################

data_IMEFIR
_chemical_formula_moiety         'C13 H15 Br1 Cl1 N1 O2'
_chemical_name_systematic        
7-(4-Bromobutoxy)-6-chloro-3,4-dihydroquinolin-2(1H)-one
_symmetry_cell_setting           monoclinic
_symmetry_space_group_name_H-M   'P 21/c'
_symmetry_Int_Tables_number      14
_space_group_name_Hall           '-P 2ybc'
loop_
_symmetry_equiv_pos_site_id
_symmetry_equiv_pos_as_xyz
1 x,y,z
2 -x,1/2+y,1/2-z
3 -x,-y,-z
4 x,1/2-y,1/2+z
_cell_length_a                   10.4382(6)
_cell_length_b                   24.2507(11)
_cell_length_c                   10.9589(5)
_cell_angle_alpha                90
_cell_angle_beta                 95.0262(18)
_cell_angle_gamma                90
_cell_volume                     2763.4
_exptl_crystal_colour            'light yellow'
_exptl_crystal_description       block
_cell_formula_units_Z            8
loop_
_atom_site_label
_atom_site_type_symbol
_atom_site_fract_x
_atom_site_fract_y
_atom_site_fract_z
Br1 Br 0.08364(4) 0.76143(2) 0.65907(3)
Cl1 Cl 0.52125(8) 0.52955(3) 0.21608(7)
C1 C 0.5468(2) 0.64051(10) 0.2038(2)
O1 O 0.8456(2) 0.77975(8) -0.1126(2)
C2 C 0.2647(3) 0.72296(11) 0.4914(2)
H1 H 0.3307 0.7376 0.5504
H2 H 0.2391 0.7518 0.4330
C3 C 0.6586(3) 0.58659(11) 0.0613(2)
H3 H 0.6797 0.5523 0.0310
N1 N 0.7196(2) 0.73327(9) 0.0083(2)
H4 H 0.6895 0.7640 0.0325
C4 C 0.5805(2) 0.58965(10) 0.1566(2)
C5 C 0.1514(3) 0.70482(12) 0.5556(3)
H5 H 0.1760 0.6730 0.6059
H6 H 0.0836 0.6934 0.4947
O2 O 0.4660(2) 0.63890(8) 0.29519(18)
C6 C 0.8063(3) 0.73547(11) -0.0754(3)
C7 C 0.3178(3) 0.67365(11) 0.4247(3)
H7 H 0.3553 0.6476 0.4849
H8 H 0.2474 0.6552 0.3775
C8 C 0.5957(2) 0.68823(10) 0.1551(2)
H9 H 0.5760 0.7225 0.1865
C9 C 0.7058(3) 0.63382(10) 0.0102(2)
C10 C 0.6745(2) 0.68451(10) 0.0590(2)
C11 C 0.4183(3) 0.68968(11) 0.3400(2)
H10 H 0.3805 0.7121 0.2729
H11 H 0.4871 0.7104 0.3840
C12 C 0.7783(4) 0.63304(12) -0.1027(3)
H12 H 0.8318 0.6003 -0.1009
H13 H 0.7170 0.6306 -0.1744
C13 C 0.8586(4) 0.68094(13) -0.1147(4)
H14 H 0.8763 0.6841 -0.1999
H15 H 0.9401 0.6745 -0.0672
Br2 Br -0.39113(3) 0.35639(2) 1.18231(3)
Cl2 Cl 0.01610(7) 0.58605(3) 0.70956(7)
O3 O 0.3757(2) 0.33628(7) 0.41484(18)
O4 O -0.0247(2) 0.47766(7) 0.80329(18)
N2 N 0.2398(2) 0.38202(8) 0.52752(19)
H16 H 0.2081 0.3512 0.5495
C14 C 0.1624(2) 0.52841(10) 0.5632(2)
H17 H 0.1805 0.5624 0.5293
C15 C 0.0548(2) 0.47555(10) 0.7105(2)
C16 C -0.3167(3) 0.41508(12) 1.0906(3)
H18 H -0.3855 0.4358 1.0465
H19 H -0.2702 0.4401 1.1477
C17 C -0.2264(3) 0.39429(11) 1.0004(3)
H20 H -0.2735 0.3722 0.9378
H21 H -0.1603 0.3714 1.0423
C18 C 0.3356(3) 0.38021(10) 0.4526(2)
C19 C 0.1086(2) 0.42763(10) 0.6679(2)
H22 H 0.0918 0.3937 0.7028
C20 C 0.3940(3) 0.43493(11) 0.4227(3)
H23 H 0.4342 0.4316 0.3466
H24 H 0.4605 0.4443 0.4868
C21 C -0.1648(3) 0.44360(11) 0.9416(3)
H25 H -0.2321 0.4665 0.9014
H26 H -0.1190 0.4655 1.0053
C22 C 0.2957(3) 0.48089(11) 0.4106(3)
H27 H 0.3394 0.5160 0.4062
H28 H 0.2405 0.4761 0.3354
C23 C 0.2150(2) 0.48107(10) 0.5183(2)
C24 C 0.1882(2) 0.43092(9) 0.5721(2)
C25 C 0.0829(2) 0.52597(10) 0.6579(2)
C26 C -0.0726(3) 0.42729(11) 0.8491(3)
H29 H -0.0027 0.4053 0.8876
H30 H -0.1166 0.4060 0.7831
loop_
_geom_bond_atom_site_label_1
_geom_bond_atom_site_label_2
_geom_bond_site_symmetry_1
_geom_bond_site_symmetry_2
Br1 C5 1_555 1_555
Cl1 C4 1_555 1_555
C1 C4 1_555 1_555
O1 C6 1_555 1_555
C2 H1 1_555 1_555
H2 C2 1_555 1_555
C3 H3 1_555 1_555
N1 H4 1_555 1_555
C4 C3 1_555 1_555
C5 C2 1_555 1_555
H5 C5 1_555 1_555
H6 C5 1_555 1_555
O2 C1 1_555 1_555
C6 N1 1_555 1_555
C7 C2 1_555 1_555
H7 C7 1_555 1_555
H8 C7 1_555 1_555
C8 C1 1_555 1_555
H9 C8 1_555 1_555
C9 C3 1_555 1_555
C10 N1 1_555 1_555
C11 O2 1_555 1_555
H10 C11 1_555 1_555
H11 C11 1_555 1_555
C12 C9 1_555 1_555
H12 C12 1_555 1_555
H13 C12 1_555 1_555
C13 C6 1_555 1_555
H14 C13 1_555 1_555
H15 C13 1_555 1_555
Br2 C16 1_555 1_555
Cl2 C25 1_555 1_555
O3 C18 1_555 1_555
O4 C15 1_555 1_555
N2 H16 1_555 1_555
C14 H17 1_555 1_555
C15 C19 1_555 1_555
C16 H18 1_555 1_555
H19 C16 1_555 1_555
C17 C16 1_555 1_555
H20 C17 1_555 1_555
H21 C17 1_555 1_555
C18 N2 1_555 1_555
C19 H22 1_555 1_555
C20 C18 1_555 1_555
H23 C20 1_555 1_555
H24 C20 1_555 1_555
C21 C17 1_555 1_555
H25 C21 1_555 1_555
H26 C21 1_555 1_555
C22 C20 1_555 1_555
H27 C22 1_555 1_555
H28 C22 1_555 1_555
C23 C14 1_555 1_555
C24 N2 1_555 1_555
C25 C14 1_555 1_555
C26 O4 1_555 1_555
H29 C26 1_555 1_555
H30 C26 1_555 1_555
C7 C11 1_555 1_555
C8 C10 1_555 1_555
C9 C10 1_555 1_555
C12 C13 1_555 1_555
C15 C25 1_555 1_555
C19 C24 1_555 1_555
C21 C26 1_555 1_555
C22 C23 1_555 1_555
C23 C24 1_555 1_555

#END
