
#######################################################################
#
#                 Cambridge Crystallographic Data Centre
#                                CCDC 
#
#######################################################################
#
# If this CIF has been generated from an entry in the Cambridge 
# Structural Database, then it will include bibliographic, chemical, 
# crystal, experimental, refinement or atomic coordinate data resulting 
# from the CCDC's data processing and validation procedures.
#
#######################################################################

data_IMENET
_chemical_formula_moiety         'C28 H26 N2 O3 S1'
_chemical_name_systematic        
'(1R,3R,4S)-Toluene-4-sulfonic acid 2,2-dicyano-3-ethyl-3,4-diphenylcyclopentyl ester'
_symmetry_cell_setting           triclinic
_symmetry_space_group_name_H-M   'P 1'
_symmetry_Int_Tables_number      1
_space_group_name_Hall           'P 1'
loop_
_symmetry_equiv_pos_site_id
_symmetry_equiv_pos_as_xyz
1 x,y,z
_cell_length_a                   8.058(3)
_cell_length_b                   10.510(4)
_cell_length_c                   15.705(7)
_cell_angle_alpha                72.190(7)
_cell_angle_beta                 76.159(7)
_cell_angle_gamma                73.244(7)
_cell_volume                     1195.78
_exptl_crystal_colour            colorless
_exptl_crystal_description       columnar
_chemical_melting_point          136-140deg.C
_cell_formula_units_Z            2
_exptl_crystal_recrystallization_method dichloromethane/pentane
loop_
_atom_site_label
_atom_site_type_symbol
_atom_site_fract_x
_atom_site_fract_y
_atom_site_fract_z
C1 C 0.7285(4) 0.8030(3) 0.1209(2)
C2 C 0.6254(4) 0.9370(3) 0.0564(2)
C3 C 0.4386(4) 0.9039(3) 0.0782(2)
H1 H 0.4385 0.8528 0.0341
C4 C 0.4251(4) 0.8025(4) 0.1729(2)
H2 H 0.3206 0.8394 0.2140
H3 H 0.4151 0.7130 0.1687
C5 C 0.5926(4) 0.7856(3) 0.2081(2)
H4 H 0.5789 0.8593 0.2389
C6 C 0.7632(4) 0.6820(4) 0.0842(2)
C7 C 0.8986(5) 0.8109(4) 0.1358(2)
C8 C 0.7203(5) 0.9460(3) -0.0421(2)
C9 C 0.8813(5) 0.9814(4) -0.0679(3)
H5 H 0.9292 1.0003 -0.0246
C10 C 0.9737(6) 0.9899(4) -0.1546(3)
H6 H 1.0853 1.0120 -0.1701
C11 C 0.9045(6) 0.9665(4) -0.2186(3)
H7 H 0.9665 0.9746 -0.2790
C12 C 0.7459(6) 0.9313(5) -0.1952(3)
H8 H 0.6985 0.9143 -0.2395
C13 C 0.6534(5) 0.9200(4) -0.1078(3)
H9 H 0.5440 0.8945 -0.0924
C14 C 0.6239(5) 1.0635(3) 0.0873(2)
H10 H 0.5403 1.0633 0.1448
H11 H 0.7422 1.0520 0.1006
C15 C 0.5755(5) 1.2043(4) 0.0217(3)
H12 H 0.4552 1.2209 0.0110
H13 H 0.6569 1.2070 -0.0359
H14 H 0.5833 1.2755 0.0479
C16 C 0.2861(4) 1.0299(3) 0.0663(2)
C17 C 0.2378(5) 1.0910(4) -0.0187(3)
H15 H 0.2986 1.0523 -0.0680
C18 C 0.1034(7) 1.2066(5) -0.0327(5)
H16 H 0.0742 1.2485 -0.0917
C19 C 0.0114(7) 1.2617(5) 0.0382(6)
H17 H -0.0815 1.3416 0.0284
C20 C 0.0535(6) 1.2016(5) 0.1226(5)
H18 H -0.0117 1.2389 0.1720
C21 C 0.1912(5) 1.0861(4) 0.1373(3)
H19 H 0.2202 1.0456 0.1964
C22 C 0.9381(4) 0.5511(3) 0.3296(2)
C23 C 1.0615(5) 0.5861(4) 0.3594(3)
H20 H 1.0272 0.6516 0.3945
C24 C 1.2371(5) 0.5242(4) 0.3374(3)
H21 H 1.3229 0.5462 0.3592
C25 C 1.2907(5) 0.4316(4) 0.2847(3)
C26 C 1.1625(5) 0.3976(4) 0.2554(3)
H22 H 1.1967 0.3327 0.2200
C27 C 0.9873(5) 0.4569(4) 0.2773(3)
H23 H 0.9008 0.4337 0.2568
C28 C 1.4831(5) 0.3684(4) 0.2579(3)
H24 H 1.5203 0.4072 0.1932
H25 H 1.5007 0.2687 0.2697
H26 H 1.5529 0.3884 0.2933
N1 N 0.7880(4) 0.5869(3) 0.0584(2)
N2 N 1.0303(5) 0.8130(4) 0.1482(3)
O1 O 0.6357(3) 0.6517(2) 0.26953(15)
O2 O 0.7025(3) 0.7593(2) 0.37213(17)
O3 O 0.6282(3) 0.5355(3) 0.42564(17)
S1 S 0.71432(9) 0.63059(8) 0.35845(5)
C29 C 0.4316(4) 0.7440(3) 0.6326(2)
C30 C 0.3641(4) 0.6162(3) 0.7027(2)
C31 C 0.1670(4) 0.6476(3) 0.6852(2)
H27 H 0.0878 0.6833 0.7366
C32 C 0.1491(4) 0.7667(3) 0.5982(2)
H28 H 0.0852 0.7483 0.5584
H29 H 0.0848 0.8545 0.6137
C33 C 0.3349(4) 0.7727(3) 0.5522(2)
H30 H 0.3860 0.6988 0.5192
C34 C 0.3771(4) 0.8655(4) 0.6698(2)
C35 C 0.6225(5) 0.7222(3) 0.6010(2)
C36 C 0.3769(4) 0.6100(3) 0.7995(2)
C37 C 0.5340(5) 0.6139(4) 0.8185(2)
H31 H 0.6300 0.6244 0.7703
C38 C 0.5562(5) 0.6032(4) 0.9050(3)
H32 H 0.6662 0.6059 0.9157
C39 C 0.4189(5) 0.5886(4) 0.9756(3)
H33 H 0.4325 0.5831 1.0351
C40 C 0.2631(6) 0.5819(5) 0.9597(3)
H34 H 0.1684 0.5702 1.0086
C41 C 0.2419(5) 0.5923(4) 0.8719(3)
H35 H 0.1326 0.5872 0.8618
C42 C 0.4854(4) 0.4824(3) 0.6782(2)
H36 H 0.4657 0.4813 0.6187
H37 H 0.6091 0.4873 0.6710
C43 C 0.4622(5) 0.3479(4) 0.7451(3)
H38 H 0.3463 0.3343 0.7462
H39 H 0.4717 0.3499 0.8057
H40 H 0.5537 0.2722 0.7266
C44 C 0.1049(4) 0.5282(3) 0.6802(2)
C45 C -0.0076(4) 0.4664(4) 0.7523(2)
H41 H -0.0425 0.4978 0.8060
C46 C -0.0699(5) 0.3595(4) 0.7470(3)
H42 H -0.1462 0.3178 0.7972
C47 C -0.0215(5) 0.3134(4) 0.6693(3)
H43 H -0.0634 0.2397 0.6659
C48 C 0.0865(5) 0.3742(4) 0.5977(3)
H44 H 0.1192 0.3431 0.5439
C49 C 0.1493(4) 0.4806(3) 0.6022(2)
H45 H 0.2241 0.5222 0.5513
C50 C 0.0580(4) 1.0293(3) 0.4275(2)
C51 C 0.0150(5) 1.1370(4) 0.4675(3)
H46 H 0.1044 1.1690 0.4789
C52 C -0.1602(5) 1.1976(4) 0.4908(3)
H47 H -0.1906 1.2722 0.5181
C53 C -0.2920(5) 1.1519(4) 0.4752(3)
C54 C -0.2456(5) 1.0464(4) 0.4327(3)
H48 H -0.3348 1.0162 0.4196
C55 C -0.0707(5) 0.9840(4) 0.4088(3)
H49 H -0.0399 0.9110 0.3800
C56 C -0.4829(5) 1.2171(4) 0.5044(3)
H50 H -0.5117 1.1914 0.5707
H51 H -0.5580 1.1848 0.4788
H52 H -0.5026 1.3173 0.4825
N3 N 0.3388(5) 0.9618(4) 0.6957(2)
N4 N 0.7690(4) 0.7116(3) 0.5734(2)
O4 O 0.3540(3) 0.9044(2) 0.49177(15)
O5 O 0.3728(3) 1.0474(3) 0.34160(17)
O6 O 0.2874(3) 0.8278(2) 0.37337(16)
S2 S 0.27961(9) 0.94872(8) 0.39927(5)
loop_
_geom_bond_atom_site_label_1
_geom_bond_atom_site_label_2
_geom_bond_site_symmetry_1
_geom_bond_site_symmetry_2
C1 C2 1_555 1_555
C2 C3 1_555 1_555
C3 H1 1_555 1_555
C4 C3 1_555 1_555
H2 C4 1_555 1_555
H3 C4 1_555 1_555
C5 C1 1_555 1_555
H4 C5 1_555 1_555
C6 C1 1_555 1_555
C7 C1 1_555 1_555
C8 C2 1_555 1_555
C9 C8 1_555 1_555
H5 C9 1_555 1_555
C10 C9 1_555 1_555
H6 C10 1_555 1_555
C11 C10 1_555 1_555
H7 C11 1_555 1_555
C12 C11 1_555 1_555
H8 C12 1_555 1_555
C13 C8 1_555 1_555
H9 C13 1_555 1_555
C14 C2 1_555 1_555
H10 C14 1_555 1_555
H11 C14 1_555 1_555
C15 C14 1_555 1_555
H12 C15 1_555 1_555
H13 C15 1_555 1_555
H14 C15 1_555 1_555
C16 C3 1_555 1_555
C17 C16 1_555 1_555
H15 C17 1_555 1_555
C18 C17 1_555 1_555
H16 C18 1_555 1_555
C19 C18 1_555 1_555
H17 C19 1_555 1_555
C20 C19 1_555 1_555
H18 C20 1_555 1_555
C21 C16 1_555 1_555
H19 C21 1_555 1_555
C22 C23 1_555 1_555
C23 H20 1_555 1_555
C24 C23 1_555 1_555
H21 C24 1_555 1_555
C25 C24 1_555 1_555
C26 C25 1_555 1_555
H22 C26 1_555 1_555
C27 C22 1_555 1_555
H23 C27 1_555 1_555
C28 C25 1_555 1_555
H24 C28 1_555 1_555
H25 C28 1_555 1_555
H26 C28 1_555 1_555
N1 C6 1_555 1_555
N2 C7 1_555 1_555
O1 C5 1_555 1_555
O2 S1 1_555 1_555
O3 S1 1_555 1_555
S1 C22 1_555 1_555
C29 C30 1_555 1_555
C30 C31 1_555 1_555
C31 H27 1_555 1_555
C32 C31 1_555 1_555
H28 C32 1_555 1_555
H29 C32 1_555 1_555
C33 C29 1_555 1_555
H30 C33 1_555 1_555
C34 C29 1_555 1_555
C35 C29 1_555 1_555
C36 C30 1_555 1_555
C37 C36 1_555 1_555
H31 C37 1_555 1_555
C38 C37 1_555 1_555
H32 C38 1_555 1_555
C39 C38 1_555 1_555
H33 C39 1_555 1_555
C40 C39 1_555 1_555
H34 C40 1_555 1_555
C41 C36 1_555 1_555
H35 C41 1_555 1_555
C42 C30 1_555 1_555
H36 C42 1_555 1_555
H37 C42 1_555 1_555
C43 C42 1_555 1_555
H38 C43 1_555 1_555
H39 C43 1_555 1_555
H40 C43 1_555 1_555
C44 C31 1_555 1_555
C45 C44 1_555 1_555
H41 C45 1_555 1_555
C46 C45 1_555 1_555
H42 C46 1_555 1_555
C47 C46 1_555 1_555
H43 C47 1_555 1_555
C48 C47 1_555 1_555
H44 C48 1_555 1_555
C49 C44 1_555 1_555
H45 C49 1_555 1_555
C50 C51 1_555 1_555
C51 H46 1_555 1_555
C52 C51 1_555 1_555
H47 C52 1_555 1_555
C53 C52 1_555 1_555
C54 C53 1_555 1_555
H48 C54 1_555 1_555
C55 C50 1_555 1_555
H49 C55 1_555 1_555
C56 C53 1_555 1_555
H50 C56 1_555 1_555
H51 C56 1_555 1_555
H52 C56 1_555 1_555
N3 C34 1_555 1_555
N4 C35 1_555 1_555
O4 C33 1_555 1_555
O5 S2 1_555 1_555
O6 S2 1_555 1_555
S2 C50 1_555 1_555
C4 C5 1_555 1_555
C12 C13 1_555 1_555
C20 C21 1_555 1_555
C26 C27 1_555 1_555
O1 S1 1_555 1_555
C32 C33 1_555 1_555
C40 C41 1_555 1_555
C48 C49 1_555 1_555
C54 C55 1_555 1_555
O4 S2 1_555 1_555

#END
