
#######################################################################
#
#                 Cambridge Crystallographic Data Centre
#                                CCDC 
#
#######################################################################
#
# If this CIF has been generated from an entry in the Cambridge 
# Structural Database, then it will include bibliographic, chemical, 
# crystal, experimental, refinement or atomic coordinate data resulting 
# from the CCDC's data processing and validation procedures.
#
#######################################################################

data_IMESEY01
_chemical_formula_moiety         
'3(C10 H8 S8 1+),2(C10 H8 S8),3(Cl1 1-),5(H2 O1)'
_chemical_name_systematic        
'pentakis(bis(Ethylenedithio)tetrathiafulvalenium) trichloride pentahydrate'
_symmetry_cell_setting           triclinic
_symmetry_space_group_name_H-M   'P -1'
_symmetry_Int_Tables_number      2
_space_group_name_Hall           '-P 1'
loop_
_symmetry_equiv_pos_site_id
_symmetry_equiv_pos_as_xyz
1 x,y,z
2 -x,-y,-z
_cell_length_a                   6.6963(2)
_cell_length_b                   17.1214(7)
_cell_length_c                   18.3650(8)
_cell_angle_alpha                105.666(5)
_cell_angle_beta                 99.877(2)
_cell_angle_gamma                90.019(2)
_cell_volume                     1994.87
_exptl_crystal_colour            black
_exptl_crystal_description       plate
_cell_formula_units_Z            1
loop_
_atom_site_label
_atom_site_type_symbol
_atom_site_fract_x
_atom_site_fract_y
_atom_site_fract_z
Cl1 Cl -0.1717(7) 0.0337(3) 0.5265(3)
Cl2 Cl 0.4798(5) 0.01433(18) 0.38369(19)
Cl3 Cl 0.5098(7) 0.0211(3) 0.2344(3)
O1 O 0.0814(5) 0.05316(16) 0.13746(15)
O2 O -0.3187(8) -0.0417(3) 0.0074(5)
O3 O -0.191(2) 0.0200(14) 0.1344(14)
H21 H -0.118(10) 0.040(4) 0.146(3)
H22 H -0.269(14) 0.001(6) 0.119(5)
S1 S -0.4670(2) 0.54557(8) 0.40635(9)
S2 S -0.0450(2) 0.58875(8) 0.40261(8)
S3 S -0.3392(2) 0.36315(8) 0.40642(9)
S4 S 0.0759(2) 0.40527(8) 0.39403(8)
S5 S -0.6204(2) 0.70634(9) 0.40784(11)
S6 S -0.1124(2) 0.76037(8) 0.40833(9)
S7 S -0.2744(2) 0.19129(8) 0.39556(9)
S8 S 0.2244(2) 0.24127(9) 0.38303(9)
C1 C -0.2201(8) 0.5147(3) 0.4041(3)
C2 C -0.1677(8) 0.4374(3) 0.4026(3)
C3 C -0.4120(8) 0.6454(3) 0.4066(3)
C4 C -0.2172(8) 0.6657(3) 0.4051(3)
C5 C -0.1661(8) 0.2860(3) 0.4006(3)
C6 C 0.0240(8) 0.3059(3) 0.3958(3)
C7 C -0.4969(9) 0.8058(3) 0.4397(4)
H1 H -0.5985 0.8457 0.4364
H2 H -0.4342 0.8161 0.4933
C8 C -0.3365(8) 0.8173(4) 0.3940(4)
H3 H -0.2960 0.8745 0.4079
H4 H -0.3960 0.8012 0.3398
C9 C -0.0612(9) 0.1273(4) 0.3863(4)
H5 H 0.0153 0.1319 0.4372
H6 H -0.1125 0.0714 0.3646
C10 C 0.0802(9) 0.1456(4) 0.3380(4)
H7 H 0.0028 0.1476 0.2888
H8 H 0.1733 0.1022 0.3284
S9 S -0.5230(2) 0.48522(9) 0.18735(9)
S10 S -0.0972(2) 0.44149(9) 0.19702(9)
S11 S -0.3876(2) 0.66801(9) 0.19160(9)
S12 S 0.0387(2) 0.62608(9) 0.21012(9)
S13 S -0.6836(2) 0.32831(11) 0.19259(13)
S14 S -0.1783(2) 0.27213(9) 0.20045(9)
S15 S -0.3038(2) 0.84198(9) 0.20702(9)
S16 S 0.2067(2) 0.79032(10) 0.23004(10)
C11 C -0.2708(8) 0.5159(4) 0.1938(3)
C12 C -0.2143(8) 0.5938(4) 0.1968(3)
C13 C -0.4684(9) 0.3865(4) 0.1938(3)
C14 C -0.2748(8) 0.3663(4) 0.1973(3)
C15 C -0.2066(8) 0.7466(4) 0.2032(3)
C16 C -0.0097(8) 0.7268(4) 0.2119(3)
C17 C -0.5788(10) 0.2345(4) 0.2051(4)
H9 H -0.5309 0.2413 0.2595
H10 H -0.6863 0.1922 0.1879
C18 C -0.4080(10) 0.2071(4) 0.1629(4)
H11 H -0.4516 0.2051 0.1093
H12 H -0.3772 0.1525 0.1655
C19 C -0.0822(13) 0.9052(6) 0.2490(10)
H13 H -0.1084 0.9561 0.2362
H14 H -0.0745 0.9170 0.3041
C20 C 0.1012(12) 0.8872(5) 0.2362(7)
H15 H 0.1931 0.9261 0.2761
H16 H 0.1111 0.8994 0.1883
S17 S -0.2749(2) 0.42628(8) -0.01049(8)
S18 S 0.1545(2) 0.38766(8) -0.00065(9)
S19 S -0.4273(2) 0.26242(9) -0.02129(9)
S20 S 0.0862(2) 0.21338(9) -0.01412(10)
C21 C -0.0254(8) 0.4607(3) -0.0018(3)
C22 C -0.2157(8) 0.3259(3) -0.0129(3)
C23 C -0.0198(8) 0.3079(3) -0.0093(3)
C24 C -0.3234(8) 0.1629(3) -0.0475(3)
H17 H -0.4195 0.1229 -0.0428
H18 H -0.3083 0.1500 -0.1009
C25 C -0.1215(8) 0.1558(4) 0.0005(3)
H19 H -0.0894 0.0990 -0.0110
H20 H -0.1337 0.1736 0.0543
C21A C 0.0254(8) 0.5393(3) 0.0018(3)
S17A S 0.2749(2) 0.57372(8) 0.01049(8)
C22A C 0.2157(8) 0.6741(3) 0.0129(3)
S19A S 0.4273(2) 0.73758(9) 0.02129(9)
C24A C 0.3234(8) 0.8371(3) 0.0475(3)
H17A H 0.4195 0.8771 0.0428
H18A H 0.3083 0.8500 0.1009
C25A C 0.1215(8) 0.8442(4) -0.0005(3)
S20A S -0.0862(2) 0.78662(9) 0.01412(10)
C23A C 0.0198(8) 0.6921(3) 0.0093(3)
S18A S -0.1545(2) 0.61234(8) 0.00065(9)
H19A H 0.0894 0.9010 0.0110
H20A H 0.1337 0.8264 -0.0543
loop_
_geom_bond_atom_site_label_1
_geom_bond_atom_site_label_2
_geom_bond_site_symmetry_1
_geom_bond_site_symmetry_2
O3 H21 1_555 1_555
S1 C1 1_555 1_555
S2 C1 1_555 1_555
S3 C2 1_555 1_555
S4 C2 1_555 1_555
S5 C3 1_555 1_555
S6 C4 1_555 1_555
S7 C5 1_555 1_555
S8 C6 1_555 1_555
S9 C11 1_555 1_555
S10 C11 1_555 1_555
S11 C12 1_555 1_555
S12 C12 1_555 1_555
S13 C13 1_555 1_555
S14 C14 1_555 1_555
S15 C15 1_555 1_555
S16 C16 1_555 1_555
S17 C21 1_555 1_555
S18 C21 1_555 1_555
S19 C22 1_555 1_555
S20 C23 1_555 1_555
C1 C2 1_555 1_555
C3 S1 1_555 1_555
C4 S2 1_555 1_555
C5 S3 1_555 1_555
C6 S4 1_555 1_555
C7 S5 1_555 1_555
H1 C7 1_555 1_555
H2 C7 1_555 1_555
C8 S6 1_555 1_555
H3 C8 1_555 1_555
H4 C8 1_555 1_555
C9 S7 1_555 1_555
H5 C9 1_555 1_555
H6 C9 1_555 1_555
C10 S8 1_555 1_555
H7 C10 1_555 1_555
H8 C10 1_555 1_555
C11 C12 1_555 1_555
C13 S9 1_555 1_555
C14 S10 1_555 1_555
C15 S11 1_555 1_555
C16 S12 1_555 1_555
C17 S13 1_555 1_555
H9 C17 1_555 1_555
H10 C17 1_555 1_555
C18 S14 1_555 1_555
H11 C18 1_555 1_555
H12 C18 1_555 1_555
C19 S15 1_555 1_555
H13 C19 1_555 1_555
H14 C19 1_555 1_555
C20 S16 1_555 1_555
H15 C20 1_555 1_555
H16 C20 1_555 1_555
C21 C21A 1_555 1_555
C22 S17 1_555 1_555
C23 S18 1_555 1_555
C24 S19 1_555 1_555
H17 C24 1_555 1_555
H18 C24 1_555 1_555
C25 S20 1_555 1_555
H19 C25 1_555 1_555
H20 C25 1_555 1_555
H22 O3 1_555 1_555
C21A S17A 1_555 1_555
S17A C22A 1_555 1_555
C22A S19A 1_555 1_555
S19A C24A 1_555 1_555
C24A H17A 1_555 1_555
H18A C24A 1_555 1_555
C25A C24A 1_555 1_555
S20A C25A 1_555 1_555
C23A C22A 1_555 1_555
S18A C21A 1_555 1_555
H19A C25A 1_555 1_555
H20A C25A 1_555 1_555
C3 C4 1_555 1_555
C5 C6 1_555 1_555
C7 C8 1_555 1_555
C9 C10 1_555 1_555
C13 C14 1_555 1_555
C15 C16 1_555 1_555
C17 C18 1_555 1_555
C19 C20 1_555 1_555
C22 C23 1_555 1_555
C24 C25 1_555 1_555
S20A C23A 1_555 1_555
C23A S18A 1_555 1_555

#END
