
#######################################################################
#
#                 Cambridge Crystallographic Data Centre
#                                CCDC 
#
#######################################################################
#
# If this CIF has been generated from an entry in the Cambridge 
# Structural Database, then it will include bibliographic, chemical, 
# crystal, experimental, refinement or atomic coordinate data resulting 
# from the CCDC's data processing and validation procedures.
#
#######################################################################

data_IMIJUJ
_chemical_formula_moiety         'C10 H8 N2'
_chemical_name_systematic        1,4-bis(Isocyano)-2,5-dimethylbenzene
_symmetry_cell_setting           monoclinic
_symmetry_space_group_name_H-M   'P 21/c'
_symmetry_Int_Tables_number      14
_space_group_name_Hall           '-P 2ybc'
loop_
_symmetry_equiv_pos_site_id
_symmetry_equiv_pos_as_xyz
1 x,y,z
2 x,1/2-y,1/2+z
3 -x,-y,-z
4 -x,1/2+y,1/2-z
_cell_length_a                   3.9754(9)
_cell_length_b                   9.263(2)
_cell_length_c                   11.591(3)
_cell_angle_alpha                90
_cell_angle_beta                 91.690(4)
_cell_angle_gamma                90
_cell_volume                     426.643
_exptl_crystal_colour            colorless
_exptl_crystal_description       block
_cell_formula_units_Z            2
_exptl_crystal_recrystallization_method sublimation
loop_
_atom_site_label
_atom_site_type_symbol
_atom_site_fract_x
_atom_site_fract_y
_atom_site_fract_z
N1 N 0.1955(3) 0.57034(12) 0.70445(9)
C1 C 0.3709(3) 0.39095(14) 0.56848(11)
H1 H 0.271(4) 0.3194(16) 0.6174(13)
C2 C 0.3513(3) 0.53568(14) 0.60064(10)
C3 C 0.4542(4) 0.80353(15) 0.57048(14)
H2 H 0.584(5) 0.863(2) 0.5193(17)
H3 H 0.224(5) 0.837(2) 0.5700(16)
H4 H 0.560(5) 0.819(2) 0.6512(19)
C4 C 0.4785(3) 0.64822(14) 0.53369(11)
C5 C 0.0666(4) 0.60272(16) 0.78962(13)
C4B C 0.5215(3) 0.35178(14) 0.46631(11)
C2B C 0.6487(3) 0.46432(14) 0.39936(10)
N1B N 0.8045(3) 0.42966(12) 0.29555(9)
C5B C 0.9334(4) 0.39728(16) 0.21038(13)
C1B C 0.6291(3) 0.60905(14) 0.43152(11)
H1B H 0.729(4) 0.6806(16) 0.3826(13)
C3B C 0.5458(4) 0.19647(15) 0.42952(14)
H2B H 0.416(5) 0.137(2) 0.4807(17)
H3B H 0.776(5) 0.163(2) 0.4300(16)
H4B H 0.440(5) 0.181(2) 0.3488(19)
loop_
_geom_bond_atom_site_label_1
_geom_bond_atom_site_label_2
_geom_bond_site_symmetry_1
_geom_bond_site_symmetry_2
N1 C2 1_555 1_555
C1 H1 1_555 1_555
C2 C1 1_555 1_555
C3 H2 1_555 1_555
H3 C3 1_555 1_555
H4 C3 1_555 1_555
C4 C2 1_555 1_555
C5 N1 1_555 1_555
C4B C1 1_555 1_555
C2B C4B 1_555 1_555
N1B C2B 1_555 1_555
C5B N1B 1_555 1_555
C1B C4 1_555 1_555
H1B C1B 1_555 1_555
C3B C4B 1_555 1_555
H2B C3B 1_555 1_555
H3B C3B 1_555 1_555
H4B C3B 1_555 1_555
C3 C4 1_555 1_555
C2B C1B 1_555 1_555

#END
