
#######################################################################
#
#                 Cambridge Crystallographic Data Centre
#                                CCDC 
#
#######################################################################
#
# If this CIF has been generated from an entry in the Cambridge 
# Structural Database, then it will include bibliographic, chemical, 
# crystal, experimental, refinement or atomic coordinate data resulting 
# from the CCDC's data processing and validation procedures.
#
#######################################################################

data_IMIJIZ
_chemical_formula_moiety         'C14 H16 N8,0.5(H2 O1)'
_chemical_name_systematic        
'6-(4-benzylpiperazin-1-yl)[1,2,4]triazolo[4,3-b][1,2,4,5]tetrazine hemihydrate'
_chemical_properties_biological  'antiproliferative activity'
_symmetry_cell_setting           orthorhombic
_symmetry_space_group_name_H-M   'F d d 2'
_symmetry_Int_Tables_number      43
_space_group_name_Hall           'F 2 -2d'
loop_
_symmetry_equiv_pos_site_id
_symmetry_equiv_pos_as_xyz
1 x,y,z
2 -x,-y,z
3 1/4+x,1/4-y,1/4+z
4 1/4-x,1/4+y,1/4+z
5 x,1/2+y,1/2+z
6 -x,1/2-y,1/2+z
7 1/4+x,3/4-y,3/4+z
8 1/4-x,3/4+y,3/4+z
9 1/2+x,y,1/2+z
10 1/2-x,-y,1/2+z
11 3/4+x,1/4-y,3/4+z
12 3/4-x,1/4+y,3/4+z
13 1/2+x,1/2+y,z
14 1/2-x,1/2-y,z
15 3/4+x,3/4-y,1/4+z
16 3/4-x,3/4+y,1/4+z
_cell_length_a                   25.944(6)
_cell_length_b                   37.970(9)
_cell_length_c                   5.8794(13)
_cell_angle_alpha                90
_cell_angle_beta                 90
_cell_angle_gamma                90
_cell_volume                     5791.76
_exptl_crystal_colour            red
_exptl_crystal_description       Prism
_cell_formula_units_Z            16
loop_
_atom_site_label
_atom_site_type_symbol
_atom_site_fract_x
_atom_site_fract_y
_atom_site_fract_z
O1 O 0.2500 0.2500 0.8864(4)
H1 H 0.2239(4) 0.2438(7) 0.803(3)
H1M H 0.2761(4) 0.2562(7) 0.803(3)
N1 N 0.26645(6) 0.10502(4) 0.0632(3)
N2 N 0.24910(6) 0.13388(4) 0.1483(3)
N3 N 0.22731(6) 0.10668(4) 0.5139(3)
N4 N 0.24616(5) 0.07702(4) 0.4134(3)
N5 N 0.27187(7) 0.02360(4) 0.3345(4)
N6 N 0.28029(7) 0.04342(4) 0.1438(4)
N7 N 0.20983(6) 0.16503(4) 0.4420(3)
N8 N 0.16227(6) 0.22874(4) 0.5928(3)
C1 C 0.22922(6) 0.13383(4) 0.3728(3)
C2 C 0.25123(7) 0.04398(5) 0.4957(4)
H2 H 0.2417 0.0365 0.6440
C3 C 0.26454(7) 0.07581(5) 0.1955(3)
C4 C 0.19412(8) 0.16913(5) 0.6797(3)
H3 H 0.2234 0.1782 0.7705
H4 H 0.1838 0.1460 0.7428
C5 C 0.14929(8) 0.19455(4) 0.6936(3)
H5 H 0.1193 0.1844 0.6129
H6 H 0.1395 0.1979 0.8549
C6 C 0.17580(7) 0.22329(4) 0.3524(3)
H7 H 0.1842 0.2462 0.2817
H8 H 0.1459 0.2132 0.2708
C7 C 0.22153(7) 0.19865(4) 0.3296(3)
H9 H 0.2291 0.1945 0.1667
H10 H 0.2523 0.2095 0.4003
C8 C 0.11725(7) 0.25226(4) 0.6158(4)
H11 H 0.1061 0.2523 0.7768
H12 H 0.0886 0.2426 0.5238
C9 C 0.12698(6) 0.28972(5) 0.5431(3)
C10 C 0.15257(7) 0.31319(5) 0.6863(4)
H13 H 0.1662 0.3051 0.8268
C11 C 0.15836(7) 0.34839(5) 0.6258(4)
H14 H 0.1756 0.3642 0.7251
C12 C 0.13888(8) 0.36029(5) 0.4206(4)
H15 H 0.1425 0.3844 0.3797
C13 C 0.11423(9) 0.33721(6) 0.2748(4)
H16 H 0.1015 0.3453 0.1327
C14 C 0.10808(7) 0.30213(5) 0.3362(4)
H17 H 0.0908 0.2864 0.2361
loop_
_geom_bond_atom_site_label_1
_geom_bond_atom_site_label_2
_geom_bond_site_symmetry_1
_geom_bond_site_symmetry_2
O1 H1 1_555 1_555
N1 N2 1_555 1_555
N2 C1 1_555 1_555
N3 N4 1_555 1_555
N4 C2 1_555 1_555
N5 N6 1_555 1_555
N6 C3 1_555 1_555
N7 C1 1_555 1_555
N8 C5 1_555 1_555
C1 N3 1_555 1_555
C2 N5 1_555 1_555
H2 C2 1_555 1_555
C3 N1 1_555 1_555
C4 N7 1_555 1_555
H3 C4 1_555 1_555
H4 C4 1_555 1_555
C5 C4 1_555 1_555
H5 C5 1_555 1_555
H6 C5 1_555 1_555
C6 N8 1_555 1_555
H7 C6 1_555 1_555
H8 C6 1_555 1_555
C7 N7 1_555 1_555
H9 C7 1_555 1_555
H10 C7 1_555 1_555
C8 N8 1_555 1_555
H11 C8 1_555 1_555
H12 C8 1_555 1_555
C9 C8 1_555 1_555
C10 C9 1_555 1_555
H13 C10 1_555 1_555
C11 C10 1_555 1_555
H14 C11 1_555 1_555
C12 C11 1_555 1_555
H15 C12 1_555 1_555
C13 C12 1_555 1_555
H16 C13 1_555 1_555
C14 C9 1_555 1_555
H17 C14 1_555 1_555
H1M O1 1_555 1_555
N4 C3 1_555 1_555
C6 C7 1_555 1_555
C13 C14 1_555 1_555

#END
