
#######################################################################
#
#                 Cambridge Crystallographic Data Centre
#                                CCDC 
#
#######################################################################
#
# If this CIF has been generated from an entry in the Cambridge 
# Structural Database, then it will include bibliographic, chemical, 
# crystal, experimental, refinement or atomic coordinate data resulting 
# from the CCDC's data processing and validation procedures.
#
#######################################################################

data_IMINOH
_chemical_formula_moiety         'C11 H13 N4 1+,Cl1 O4 1-'
_chemical_name_systematic        
'4-(N,N-bis(2-Cyanoethyl)amino)pyridinium perchlorate'
_symmetry_cell_setting           monoclinic
_symmetry_space_group_name_H-M   'P 21/c'
_symmetry_Int_Tables_number      14
_space_group_name_Hall           '-P 2ybc'
loop_
_symmetry_equiv_pos_site_id
_symmetry_equiv_pos_as_xyz
1 x,y,z
2 x,1/2-y,1/2+z
3 -x,-y,-z
4 -x,1/2+y,1/2-z
_cell_length_a                   5.4030(10)
_cell_length_b                   30.252(5)
_cell_length_c                   8.293(2)
_cell_angle_alpha                90
_cell_angle_beta                 99.240(10)
_cell_angle_gamma                90
_cell_volume                     1337.92
_exptl_crystal_colour            colorless
_exptl_crystal_description       needle
_cell_formula_units_Z            4
_exptl_crystal_recrystallization_method ethanol
loop_
_atom_site_label
_atom_site_type_symbol
_atom_site_fract_x
_atom_site_fract_y
_atom_site_fract_z
Cl1 Cl -0.29800(12) 0.67181(2) 0.89840(9)
O1 O -0.3531(5) 0.63189(6) 0.9712(3)
O2 O -0.0382(4) 0.67343(6) 0.8831(3)
O3 O -0.4441(6) 0.67699(11) 0.7432(4)
O4 O -0.3501(5) 0.70762(7) 0.9995(4)
N1 N 0.1321(5) 0.76466(9) 0.8764(3)
N2 N 0.2172(4) 0.89903(6) 0.8803(2)
N3 N -0.2007(4) 0.97220(8) 0.6239(3)
N4 N 0.6700(5) 0.96439(9) 1.1714(3)
C1 C 0.2853(6) 0.78309(9) 0.7850(3)
H1 H 0.3739 0.7652 0.7232
C2 C 0.3144(5) 0.82742(7) 0.7806(3)
H2 H 0.4181 0.8398 0.7134
C3 C 0.1880(4) 0.85505(7) 0.8777(3)
C4 C 0.0295(5) 0.83360(9) 0.9730(3)
H3 H -0.0578 0.8501 1.0400
C5 C 0.0048(6) 0.78943(10) 0.9670(4)
H4 H -0.1042 0.7758 1.0278
C6 C 0.3622(4) 0.92171(7) 0.7706(3)
H5 H 0.5084 0.9041 0.7594
H6 H 0.4206 0.9498 0.8186
C7 C 0.2105(5) 0.92984(8) 0.6018(3)
H7 H 0.3108 0.9468 0.5368
H8 H 0.1709 0.9017 0.5477
C8 C -0.0223(5) 0.95373(8) 0.6110(3)
C9 C 0.0956(5) 0.92687(8) 0.9883(3)
H9 H -0.0738 0.9162 0.9881
H10 H 0.0843 0.9568 0.9459
C10 C 0.2345(5) 0.92756(9) 1.1639(3)
H11 H 0.1374 0.9441 1.2321
H12 H 0.2530 0.8976 1.2056
C11 C 0.4820(6) 0.94776(9) 1.1721(3)
H13 H 0.113(6) 0.7370(11) 0.878(4)
loop_
_geom_bond_atom_site_label_1
_geom_bond_atom_site_label_2
_geom_bond_site_symmetry_1
_geom_bond_site_symmetry_2
Cl1 O1 1_555 1_555
O2 Cl1 1_555 1_555
O3 Cl1 1_555 1_555
O4 Cl1 1_555 1_555
N1 C1 1_555 1_555
N2 C3 1_555 1_555
N3 C8 1_555 1_555
N4 C11 1_555 1_555
C1 H1 1_555 1_555
C2 C1 1_555 1_555
H2 C2 1_555 1_555
C3 C2 1_555 1_555
C4 C3 1_555 1_555
H3 C4 1_555 1_555
C5 N1 1_555 1_555
H4 C5 1_555 1_555
C6 N2 1_555 1_555
H5 C6 1_555 1_555
H6 C6 1_555 1_555
C7 C6 1_555 1_555
H7 C7 1_555 1_555
H8 C7 1_555 1_555
C8 C7 1_555 1_555
C9 N2 1_555 1_555
H9 C9 1_555 1_555
H10 C9 1_555 1_555
C10 C9 1_555 1_555
H11 C10 1_555 1_555
H12 C10 1_555 1_555
C11 C10 1_555 1_555
H13 N1 1_555 1_555
C4 C5 1_555 1_555

#END
