
#######################################################################
#
#                 Cambridge Crystallographic Data Centre
#                                CCDC 
#
#######################################################################
#
# If this CIF has been generated from an entry in the Cambridge 
# Structural Database, then it will include bibliographic, chemical, 
# crystal, experimental, refinement or atomic coordinate data resulting 
# from the CCDC's data processing and validation procedures.
#
#######################################################################

data_IMINAT
_chemical_formula_moiety         'C17 H18 N2 O1'
_chemical_name_systematic        
2,2-Dimethyl-3-(4-methylphenyl)-1,2-dihydroquinazolin-4(3H)-one
_chemical_properties_biological  'potential pharmacological activity'
_symmetry_cell_setting           monoclinic
_symmetry_space_group_name_H-M   'P 21/n'
_symmetry_Int_Tables_number      14
_space_group_name_Hall           '-P 2yn'
loop_
_symmetry_equiv_pos_site_id
_symmetry_equiv_pos_as_xyz
1 x,y,z
2 1/2-x,1/2+y,1/2-z
3 -x,-y,-z
4 1/2+x,1/2-y,1/2+z
_cell_length_a                   11.917(2)
_cell_length_b                   6.9110(10)
_cell_length_c                   17.821(4)
_cell_angle_alpha                90
_cell_angle_beta                 98.810(10)
_cell_angle_gamma                90
_cell_volume                     1450.39
_exptl_crystal_colour            colorless
_exptl_crystal_description       block
_chemical_melting_point          '528-529 K'
_cell_formula_units_Z            4
_exptl_crystal_recrystallization_method ethanol
loop_
_atom_site_label
_atom_site_type_symbol
_atom_site_fract_x
_atom_site_fract_y
_atom_site_fract_z
O1 O 0.92395(11) -0.12250(17) 0.85118(7)
N1 N 0.85382(12) 0.14967(19) 0.89666(8)
N2 N 0.93832(15) 0.4519(3) 0.87692(10)
C1 C 0.5770(2) -0.2901(3) 1.07181(13)
H1 H 0.5935 -0.4251 1.0672
H2 H 0.4980 -0.2674 1.0535
H3 H 0.5938 -0.2521 1.1241
C2 C 0.64816(17) -0.1738(3) 1.02572(12)
C3 C 0.75384(18) -0.1044(3) 1.05778(11)
H4 H 0.7799 -0.1285 1.1088
C4 C 0.82154(16) 0.0001(3) 1.01565(10)
H5 H 0.8921 0.0453 1.0385
C5 C 0.78435(14) 0.0370(3) 0.94000(10)
C6 C 0.67973(16) -0.0331(3) 0.90644(10)
H6 H 0.6545 -0.0109 0.8552
C7 C 0.61282(16) -0.1362(3) 0.94943(11)
H7 H 0.5423 -0.1812 0.9265
C8 C 0.83310(16) 0.3637(2) 0.89070(11)
C9 C 0.91829(14) 0.0557(2) 0.85184(9)
C10 C 0.98537(14) 0.1768(2) 0.80757(10)
C11 C 0.99583(15) 0.3749(3) 0.82327(10)
C12 C 1.06927(17) 0.4847(3) 0.78692(12)
H8 H 1.0781 0.6161 0.7975
C13 C 1.12861(17) 0.4000(3) 0.73564(12)
H9 H 1.1779 0.4746 0.7120
C14 C 1.11638(17) 0.2054(3) 0.71847(11)
H10 H 1.1556 0.1500 0.6826
C15 C 1.04579(15) 0.0949(3) 0.75495(11)
H11 H 1.0383 -0.0366 0.7443
C16 C 0.73707(19) 0.4039(3) 0.82640(12)
H12 H 0.7258 0.5410 0.8211
H13 H 0.6687 0.3443 0.8374
H14 H 0.7559 0.3517 0.7800
C17 C 0.8075(2) 0.4442(3) 0.96496(13)
H15 H 0.8664 0.4065 1.0053
H16 H 0.7360 0.3945 0.9748
H17 H 0.8039 0.5828 0.9620
H18 H 0.9378(17) 0.574(3) 0.8748(11)
loop_
_geom_bond_atom_site_label_1
_geom_bond_atom_site_label_2
_geom_bond_site_symmetry_1
_geom_bond_site_symmetry_2
O1 C9 1_555 1_555
N1 C5 1_555 1_555
N2 C8 1_555 1_555
C1 H1 1_555 1_555
H2 C1 1_555 1_555
H3 C1 1_555 1_555
C2 C1 1_555 1_555
C3 C2 1_555 1_555
H4 C3 1_555 1_555
C4 C3 1_555 1_555
H5 C4 1_555 1_555
C5 C4 1_555 1_555
C6 C5 1_555 1_555
H6 C6 1_555 1_555
C7 C2 1_555 1_555
H7 C7 1_555 1_555
C8 N1 1_555 1_555
C9 N1 1_555 1_555
C10 C9 1_555 1_555
C11 N2 1_555 1_555
C12 C11 1_555 1_555
H8 C12 1_555 1_555
C13 C12 1_555 1_555
H9 C13 1_555 1_555
C14 C13 1_555 1_555
H10 C14 1_555 1_555
C15 C10 1_555 1_555
H11 C15 1_555 1_555
C16 C8 1_555 1_555
H12 C16 1_555 1_555
H13 C16 1_555 1_555
H14 C16 1_555 1_555
C17 C8 1_555 1_555
H15 C17 1_555 1_555
H16 C17 1_555 1_555
H17 C17 1_555 1_555
H18 N2 1_555 1_555
C6 C7 1_555 1_555
C10 C11 1_555 1_555
C14 C15 1_555 1_555

#END
