
#######################################################################
#
#                 Cambridge Crystallographic Data Centre
#                                CCDC 
#
#######################################################################
#
# If this CIF has been generated from an entry in the Cambridge 
# Structural Database, then it will include bibliographic, chemical, 
# crystal, experimental, refinement or atomic coordinate data resulting 
# from the CCDC's data processing and validation procedures.
#
#######################################################################

data_IMODIZ
_chemical_formula_moiety         'C20 H23 N3 O4 S1'
_chemical_name_systematic        
'diethyl (5-amino-4-cyano-3-(4-(dimethylamino)phenyl)-2-thienyl)malonate'
_symmetry_cell_setting           monoclinic
_symmetry_space_group_name_H-M   'P 21'
_symmetry_Int_Tables_number      4
_space_group_name_Hall           'P 2yb'
loop_
_symmetry_equiv_pos_site_id
_symmetry_equiv_pos_as_xyz
1 x,y,z
2 -x,1/2+y,-z
_cell_length_a                   8.5140(3)
_cell_length_b                   22.5000(7)
_cell_length_c                   11.0395(4)
_cell_angle_alpha                90
_cell_angle_beta                 107.1540(10)
_cell_angle_gamma                90
_cell_volume                     2020.71
_exptl_crystal_colour            'dark yellow'
_exptl_crystal_description       block
_cell_formula_units_Z            4
loop_
_atom_site_label
_atom_site_type_symbol
_atom_site_fract_x
_atom_site_fract_y
_atom_site_fract_z
S1 S 0.66087(8) 0.69384(3) 0.42205(5)
O1 O 0.3304(3) 0.53004(10) 0.3400(2)
O2 O 0.5405(3) 0.55295(10) 0.5105(2)
O3 O 0.2628(3) 0.62714(10) 0.57501(18)
O4 O 0.4194(3) 0.70561(11) 0.56352(18)
N1 N -0.1097(3) 0.57334(12) -0.1678(2)
C1 C 0.3619(3) 0.63121(13) 0.3981(2)
H1 H 0.2484 0.6304 0.3376
N2 N 0.8571(3) 0.73704(12) 0.2905(2)
H2 H 0.918(4) 0.7519(14) 0.3610(19)
H3 H 0.870(4) 0.7515(15) 0.223(2)
N3 N 0.5975(3) 0.71565(12) -0.0470(2)
C2 C -0.2551(4) 0.61003(15) -0.2111(3)
H4 H -0.2989 0.6182 -0.1400
H5 H -0.3383 0.5892 -0.2781
H6 H -0.2266 0.6476 -0.2444
C3 C 0.0268(3) 0.59549(13) -0.0763(2)
C4 C 0.1789(4) 0.56633(13) -0.0455(2)
H7 H 0.1890 0.5303 -0.0873
C5 C 0.3151(3) 0.58923(13) 0.0452(2)
H8 H 0.4170 0.5687 0.0638
C6 C 0.3050(3) 0.64211(12) 0.1099(2)
C7 C 0.4500(3) 0.66569(12) 0.2084(2)
C8 C 0.4725(3) 0.66304(12) 0.3353(2)
C9 C 0.4221(3) 0.56671(13) 0.4258(2)
C10 C 0.3769(5) 0.46697(15) 0.3497(3)
H9 H 0.3002 0.4438 0.3836
H10 H 0.4894 0.4621 0.4081
C11 C 0.3702(5) 0.44521(17) 0.2218(3)
H11 H 0.2605 0.4525 0.1634
H12 H 0.3935 0.4025 0.2256
H13 H 0.4523 0.4663 0.1917
C12 C 0.3536(3) 0.65968(13) 0.5212(2)
C13 C 0.2478(4) 0.64845(15) 0.6964(3)
H14 H 0.3519 0.6677 0.7450
H15 H 0.2277 0.6143 0.7465
C14 C 0.1097(4) 0.69196(18) 0.6760(3)
H16 H 0.1356 0.7277 0.6348
H17 H 0.0947 0.7027 0.7578
H18 H 0.0084 0.6740 0.6218
C15 C 0.7115(3) 0.71118(12) 0.2856(2)
C16 C 0.5866(3) 0.69388(13) 0.1789(2)
C17 C -0.0884(4) 0.52587(15) -0.2501(3)
H19 H -0.0076 0.5379 -0.2928
H20 H -0.1938 0.5175 -0.3136
H21 H -0.0495 0.4901 -0.1996
C18 C 0.0170(4) 0.64858(14) -0.0108(2)
H22 H -0.0843 0.6694 -0.0293
C19 C 0.1535(3) 0.67051(13) 0.0799(2)
H23 H 0.1433 0.7061 0.1232
C20 C 0.5914(3) 0.70528(12) 0.0537(2)
S2 S 1.14213(8) 0.32683(3) 0.40282(5)
O5 O 0.7889(3) 0.49077(10) 0.3321(2)
O6 O 0.7526(3) 0.39491(9) 0.56181(17)
O7 O 0.8987(3) 0.31403(10) 0.54457(18)
O8 O 1.0281(3) 0.46925(11) 0.4780(2)
N4 N 0.3642(3) 0.44319(11) -0.1868(2)
N5 N 1.3313(3) 0.28024(12) 0.2691(2)
H24 H 1.346(4) 0.2640(15) 0.202(2)
H25 H 1.383(4) 0.2636(14) 0.3392(19)
C21 C 0.2253(4) 0.40386(15) -0.2379(3)
H26 H 0.2619 0.3683 -0.2733
H27 H 0.1414 0.4245 -0.3049
H28 H 0.1787 0.3922 -0.1702
C22 C 0.5002(3) 0.42187(13) -0.0943(2)
C23 C 0.6511(3) 0.45259(13) -0.0599(2)
H29 H 0.6596 0.4894 -0.0998
C24 C 0.7870(3) 0.43014(13) 0.0310(2)
H30 H 0.8876 0.4516 0.0516
C25 C 0.7794(3) 0.37655(13) 0.0930(2)
C26 C 0.9271(3) 0.35297(12) 0.1904(2)
C27 C 0.9525(3) 0.35737(13) 0.3174(2)
C28 C 0.8442(3) 0.38962(13) 0.3814(2)
H31 H 0.7300 0.3896 0.3219
C29 C 0.8996(4) 0.45466(14) 0.4055(2)
C30 C 0.8277(5) 0.55430(15) 0.3390(3)
H32 H 0.9072 0.5636 0.4223
H33 H 0.7265 0.5777 0.3307
C31 C 0.8997(4) 0.57088(17) 0.2347(3)
H34 H 1.0044 0.5500 0.2471
H35 H 0.9185 0.6139 0.2362
H36 H 0.8233 0.5595 0.1527
C32 C 0.5964(4) 0.32910(18) 0.6591(3)
H37 H 0.4941 0.3488 0.6117
H38 H 0.5865 0.3149 0.7404
H39 H 0.6174 0.2953 0.6100
C33 C 0.7357(4) 0.37220(15) 0.6821(3)
H40 H 0.7160 0.4058 0.7338
H41 H 0.8390 0.3523 0.7303
C34 C 0.8376(3) 0.36105(13) 0.5046(2)
C35 C 1.1878(3) 0.30710(12) 0.2653(2)
C36 C 1.0609(3) 0.32370(14) 0.1598(2)
C37 C 0.3884(4) 0.49007(14) -0.2709(3)
H42 H 0.4288 0.5260 -0.2214
H43 H 0.2837 0.4987 -0.3350
H44 H 0.4690 0.4769 -0.3130
C38 C 0.4931(3) 0.36773(13) -0.0312(2)
H45 H 0.3932 0.3459 -0.0514
C39 C 0.6306(3) 0.34620(13) 0.0600(2)
H46 H 0.6228 0.3097 0.1010
C40 C 1.0638(3) 0.31140(12) 0.0336(2)
N6 N 1.0697(3) 0.30093(12) -0.0663(2)
loop_
_geom_bond_atom_site_label_1
_geom_bond_atom_site_label_2
_geom_bond_site_symmetry_1
_geom_bond_site_symmetry_2
S1 C8 1_555 1_555
O1 C9 1_555 1_555
O2 C9 1_555 1_555
O3 C12 1_555 1_555
O4 C12 1_555 1_555
N1 C2 1_555 1_555
C1 H1 1_555 1_555
N2 H2 1_555 1_555
H3 N2 1_555 1_555
N3 C20 1_555 1_555
C2 H4 1_555 1_555
H5 C2 1_555 1_555
H6 C2 1_555 1_555
C3 N1 1_555 1_555
C4 C3 1_555 1_555
H7 C4 1_555 1_555
C5 C4 1_555 1_555
H8 C5 1_555 1_555
C6 C5 1_555 1_555
C7 C6 1_555 1_555
C8 C1 1_555 1_555
C9 C1 1_555 1_555
C10 O1 1_555 1_555
H9 C10 1_555 1_555
H10 C10 1_555 1_555
C11 C10 1_555 1_555
H11 C11 1_555 1_555
H12 C11 1_555 1_555
H13 C11 1_555 1_555
C12 C1 1_555 1_555
C13 O3 1_555 1_555
H14 C13 1_555 1_555
H15 C13 1_555 1_555
C14 C13 1_555 1_555
H16 C14 1_555 1_555
H17 C14 1_555 1_555
H18 C14 1_555 1_555
C15 S1 1_555 1_555
C16 C7 1_555 1_555
C17 N1 1_555 1_555
H19 C17 1_555 1_555
H20 C17 1_555 1_555
H21 C17 1_555 1_555
C18 C3 1_555 1_555
H22 C18 1_555 1_555
C19 C6 1_555 1_555
H23 C19 1_555 1_555
C20 C16 1_555 1_555
S2 C27 1_555 1_555
O5 C29 1_555 1_555
O6 C33 1_555 1_555
O7 C34 1_555 1_555
O8 C29 1_555 1_555
N4 C21 1_555 1_555
N5 H24 1_555 1_555
H25 N5 1_555 1_555
C21 H26 1_555 1_555
H27 C21 1_555 1_555
H28 C21 1_555 1_555
C22 N4 1_555 1_555
C23 C22 1_555 1_555
H29 C23 1_555 1_555
C24 C23 1_555 1_555
H30 C24 1_555 1_555
C25 C24 1_555 1_555
C26 C25 1_555 1_555
C27 C26 1_555 1_555
C28 C27 1_555 1_555
H31 C28 1_555 1_555
C29 C28 1_555 1_555
C30 O5 1_555 1_555
H32 C30 1_555 1_555
H33 C30 1_555 1_555
C31 C30 1_555 1_555
H34 C31 1_555 1_555
H35 C31 1_555 1_555
H36 C31 1_555 1_555
C32 H37 1_555 1_555
H38 C32 1_555 1_555
H39 C32 1_555 1_555
C33 C32 1_555 1_555
H40 C33 1_555 1_555
H41 C33 1_555 1_555
C34 O6 1_555 1_555
C35 S2 1_555 1_555
C36 C26 1_555 1_555
C37 N4 1_555 1_555
H42 C37 1_555 1_555
H43 C37 1_555 1_555
H44 C37 1_555 1_555
C38 C22 1_555 1_555
H45 C38 1_555 1_555
C39 C25 1_555 1_555
H46 C39 1_555 1_555
C40 C36 1_555 1_555
N6 C40 1_555 1_555
N2 C15 1_555 1_555
C7 C8 1_555 1_555
C15 C16 1_555 1_555
C18 C19 1_555 1_555
N5 C35 1_555 1_555
C28 C34 1_555 1_555
C35 C36 1_555 1_555
C38 C39 1_555 1_555

#END
