
#######################################################################
#
#                 Cambridge Crystallographic Data Centre
#                                CCDC 
#
#######################################################################
#
# If this CIF has been generated from an entry in the Cambridge 
# Structural Database, then it will include bibliographic, chemical, 
# crystal, experimental, refinement or atomic coordinate data resulting 
# from the CCDC's data processing and validation procedures.
#
#######################################################################

data_IMOMAA
_chemical_formula_moiety         'C40 H38 N2 O8 S2,2(C4 H8 O2)'
_chemical_name_systematic        
'N-(3-(2,3-Dihydroxy-4-(2-hydroxy-3,6-dimethyl-5-(((4-methylphenyl)sulfonyl)amino)phenyl)-1-naphthyl)-4-hydroxy-2,5-dimethylphenyl)-4-methylbenzenesulfonamide ethyl acetate solvate'
_symmetry_cell_setting           triclinic
_symmetry_space_group_name_H-M   'P 1'
_symmetry_Int_Tables_number      1
_space_group_name_Hall           'P 1'
loop_
_symmetry_equiv_pos_site_id
_symmetry_equiv_pos_as_xyz
1 x,y,z
_cell_length_a                   8.2876(5)
_cell_length_b                   9.3557(6)
_cell_length_c                   15.1595(10)
_cell_angle_alpha                87.080(5)
_cell_angle_beta                 81.883(5)
_cell_angle_gamma                73.572(5)
_cell_volume                     1116.06
_exptl_crystal_colour            colorless
_exptl_crystal_description       prism
_cell_formula_units_Z            1
loop_
_atom_site_label
_atom_site_type_symbol
_atom_site_fract_x
_atom_site_fract_y
_atom_site_fract_z
S1 S 0.32307(7) 0.73598(7) 0.04302(4)
S2 S 0.68407(8) 0.27292(7) 0.95756(4)
O1 O 0.1554(3) 0.8356(3) 0.05037(15)
O2 O 0.4034(3) 0.6723(2) -0.04242(14)
O3 O 0.0329(3) 0.6213(3) 0.46516(15)
H1 H 0.0627 0.5356 0.4878
O4 O 0.3753(3) 0.7761(2) 0.45047(15)
H2 H 0.4114 0.8279 0.4824
O5 O 0.5659(3) 0.7133(2) 0.57761(16)
H3 H 0.6426 0.6852 0.6106
O6 O 0.9663(3) 0.3390(3) 0.53330(15)
H4 H 0.8922 0.3511 0.4989
O7 O 0.8526(3) 0.1748(3) 0.95003(15)
O8 O 0.6039(3) 0.3380(3) 1.04268(14)
N1 N 0.3174(3) 0.5934(3) 0.10841(17)
H5 H 0.3566 0.5031 0.0864
N2 N 0.6853(3) 0.4152(3) 0.88994(17)
H6 H 0.6459 0.5065 0.9105
C1 C 0.7830(5) 1.0463(4) 0.1835(3)
H7 H 0.9018 0.9882 0.1695
H8 H 0.7537 1.0562 0.2483
H9 H 0.7669 1.1455 0.1559
C2 C 0.6699(4) 0.9680(4) 0.1481(2)
C3 C 0.7297(4) 0.8721(4) 0.0760(2)
H10 H 0.8435 0.8560 0.0484
C4 C 0.6248(4) 0.7996(4) 0.0440(2)
H11 H 0.6676 0.7322 -0.0041
C5 C 0.4568(4) 0.8267(3) 0.0829(2)
C6 C 0.3934(4) 0.9226(4) 0.1548(2)
H12 H 0.2785 0.9407 0.1811
C7 C 0.5008(5) 0.9916(4) 0.1875(2)
H13 H 0.4591 1.0557 0.2372
C8 C 0.5472(4) 0.5039(4) 0.2411(2)
H14 H 0.5726 0.4099 0.2093
H15 H 0.6029 0.4867 0.2951
H16 H 0.5890 0.5766 0.2025
C9 C -0.1887(4) 0.7233(4) 0.3388(2)
H17 H -0.2443 0.7509 0.2850
H18 H -0.2177 0.8099 0.3777
H19 H -0.2275 0.6425 0.3705
C10 C 0.3575(4) 0.5633(3) 0.2664(2)
C11 C 0.2497(4) 0.6117(3) 0.2015(2)
C12 C 0.0745(4) 0.6669(3) 0.2246(2)
H20 H 0.0044 0.7017 0.1791
C13 C 0.0012(4) 0.6716(3) 0.3130(2)
C14 C 0.1083(4) 0.6189(3) 0.3781(2)
C15 C 0.2844(4) 0.5676(3) 0.3562(2)
C16 C 0.3929(4) 0.5220(4) 0.4298(2)
C17 C 0.4338(4) 0.6290(3) 0.4732(2)
C18 C 0.5397(4) 0.5915(3) 0.5420(2)
C19 C 0.6027(4) 0.4471(3) 0.56911(19)
C20 C 0.5610(4) 0.3321(3) 0.52585(19)
C21 C 0.6172(4) 0.1809(3) 0.5521(2)
H21 H 0.6830 0.1547 0.6000
C22 C 0.5778(4) 0.0708(3) 0.5093(2)
H22 H 0.6171 -0.0303 0.5277
C23 C 0.4800(4) 0.1077(3) 0.4387(2)
H23 H 0.4553 0.0312 0.4087
C24 C 0.4198(4) 0.2537(4) 0.4128(2)
H24 H 0.3524 0.2772 0.3655
C25 C 0.4567(4) 0.3703(3) 0.45539(19)
C26 C 0.7126(4) 0.4112(3) 0.6417(2)
C27 C 0.8889(4) 0.3559(3) 0.6201(2)
C28 C 0.9974(4) 0.3180(4) 0.6850(2)
C29 C 0.9262(4) 0.3362(4) 0.7743(2)
H25 H 0.9976 0.3108 0.8199
C30 C 0.7506(4) 0.3915(3) 0.7973(2)
C31 C 0.6411(4) 0.4289(3) 0.7319(2)
C32 C 0.4521(4) 0.4876(4) 0.7577(2)
H26 H 0.4156 0.4287 0.8079
H27 H 0.3939 0.4800 0.7069
H28 H 0.4240 0.5921 0.7751
C33 C 1.1867(4) 0.2643(5) 0.6582(2)
H29 H 1.2148 0.1707 0.6256
H30 H 1.2441 0.2477 0.7116
H31 H 1.2243 0.3395 0.6199
C34 C 0.5527(4) 0.1779(4) 0.9190(2)
C35 C 0.6158(4) 0.0828(4) 0.8474(2)
H32 H 0.7303 0.0657 0.8206
C36 C 0.5083(5) 0.0122(4) 0.8151(2)
H33 H 0.5506 -0.0522 0.7656
C37 C 0.3411(5) 0.0345(4) 0.8540(3)
C38 C 0.2804(5) 0.1307(4) 0.9263(2)
H34 H 0.1664 0.1468 0.9537
C39 C 0.3845(4) 0.2030(4) 0.9585(2)
H35 H 0.3416 0.2693 1.0072
C40 C 0.2276(5) -0.0447(4) 0.8202(3)
H36 H 0.2963 -0.1244 0.7800
H37 H 0.1442 0.0264 0.7880
H38 H 0.1685 -0.0876 0.8707
O9 O 1.1122(3) 0.1716(2) 0.26427(15)
O10 O 0.9065(3) 0.3123(3) 0.36211(15)
C41 C 1.0131(5) 0.0489(4) 0.3896(2)
H39 H 1.0802 0.0440 0.4386
H40 H 1.0682 -0.0348 0.3494
H41 H 0.8990 0.0432 0.4138
C42 C 1.0009(4) 0.1923(4) 0.3394(2)
C43 C 1.0108(5) 0.3387(4) 0.1419(3)
H42 H 1.0332 0.2520 0.1037
H43 H 1.0304 0.4236 0.1058
H44 H 0.8927 0.3639 0.1704
C44 C 1.1284(5) 0.3024(4) 0.2127(2)
H45 H 1.2471 0.2853 0.1840
H46 H 1.1018 0.3884 0.2530
O11 O 0.8026(3) 0.7517(4) 0.67677(19)
O12 O 1.0000(3) 0.7555(3) 0.76226(17)
C45 C 1.0334(6) 0.8529(6) 0.6188(3)
H47 H 1.0063 0.8401 0.5593
H48 H 1.1546 0.8063 0.6210
H49 H 1.0061 0.9594 0.6314
C46 C 0.9314(5) 0.7807(4) 0.6870(2)
C47 C 0.9060(5) 0.6984(4) 0.8376(3)
H50 H 0.8403 0.6368 0.8161
H51 H 0.8254 0.7822 0.8720
C48 C 1.0279(5) 0.6068(5) 0.8954(3)
H52 H 1.1037 0.5213 0.8618
H53 H 0.9654 0.5712 0.9476
H54 H 1.0949 0.6675 0.9149
loop_
_geom_bond_atom_site_label_1
_geom_bond_atom_site_label_2
_geom_bond_site_symmetry_1
_geom_bond_site_symmetry_2
S1 O1 1_555 1_555
S2 O7 1_555 1_555
O2 S1 1_555 1_555
O3 H1 1_555 1_555
O4 H2 1_555 1_555
O5 H3 1_555 1_555
O6 H4 1_555 1_555
O8 S2 1_555 1_555
N1 S1 1_555 1_555
H5 N1 1_555 1_555
N2 S2 1_555 1_555
H6 N2 1_555 1_555
C1 H7 1_555 1_555
H8 C1 1_555 1_555
H9 C1 1_555 1_555
C2 C1 1_555 1_555
C3 C2 1_555 1_555
H10 C3 1_555 1_555
C4 C3 1_555 1_555
H11 C4 1_555 1_555
C5 S1 1_555 1_555
C6 C5 1_555 1_555
H12 C6 1_555 1_555
C7 C2 1_555 1_555
H13 C7 1_555 1_555
C8 H14 1_555 1_555
H15 C8 1_555 1_555
H16 C8 1_555 1_555
C9 H17 1_555 1_555
H18 C9 1_555 1_555
H19 C9 1_555 1_555
C10 C8 1_555 1_555
C11 N1 1_555 1_555
C12 C11 1_555 1_555
H20 C12 1_555 1_555
C13 C9 1_555 1_555
C14 O3 1_555 1_555
C15 C10 1_555 1_555
C16 C15 1_555 1_555
C17 O4 1_555 1_555
C18 O5 1_555 1_555
C19 C18 1_555 1_555
C20 C19 1_555 1_555
C21 C20 1_555 1_555
H21 C21 1_555 1_555
C22 C21 1_555 1_555
H22 C22 1_555 1_555
C23 C22 1_555 1_555
H23 C23 1_555 1_555
C24 C23 1_555 1_555
H24 C24 1_555 1_555
C25 C16 1_555 1_555
C26 C19 1_555 1_555
C27 O6 1_555 1_555
C28 C27 1_555 1_555
C29 C28 1_555 1_555
H25 C29 1_555 1_555
C30 N2 1_555 1_555
C31 C26 1_555 1_555
C32 C31 1_555 1_555
H26 C32 1_555 1_555
H27 C32 1_555 1_555
H28 C32 1_555 1_555
C33 C28 1_555 1_555
H29 C33 1_555 1_555
H30 C33 1_555 1_555
H31 C33 1_555 1_555
C34 S2 1_555 1_555
C35 C34 1_555 1_555
H32 C35 1_555 1_555
C36 C35 1_555 1_555
H33 C36 1_555 1_555
C37 C36 1_555 1_555
C38 C37 1_555 1_555
H34 C38 1_555 1_555
C39 C34 1_555 1_555
H35 C39 1_555 1_555
C40 C37 1_555 1_555
H36 C40 1_555 1_555
H37 C40 1_555 1_555
H38 C40 1_555 1_555
O9 C42 1_555 1_555
O10 C42 1_555 1_555
C41 H39 1_555 1_555
H40 C41 1_555 1_555
H41 C41 1_555 1_555
C42 C41 1_555 1_555
C43 H42 1_555 1_555
H43 C43 1_555 1_555
H44 C43 1_555 1_555
C44 O9 1_555 1_555
H45 C44 1_555 1_555
H46 C44 1_555 1_555
O11 C46 1_555 1_555
O12 C46 1_555 1_555
C45 H47 1_555 1_555
H48 C45 1_555 1_555
H49 C45 1_555 1_555
C46 C45 1_555 1_555
C47 O12 1_555 1_555
H50 C47 1_555 1_555
H51 C47 1_555 1_555
C48 C47 1_555 1_555
H52 C48 1_555 1_555
H53 C48 1_555 1_555
H54 C48 1_555 1_555
C4 C5 1_555 1_555
C6 C7 1_555 1_555
C10 C11 1_555 1_555
C12 C13 1_555 1_555
C13 C14 1_555 1_555
C14 C15 1_555 1_555
C16 C17 1_555 1_555
C17 C18 1_555 1_555
C20 C25 1_555 1_555
C24 C25 1_555 1_555
C26 C27 1_555 1_555
C29 C30 1_555 1_555
C30 C31 1_555 1_555
C38 C39 1_555 1_555
C43 C44 1_555 1_555

#END
