
#######################################################################
#
#                 Cambridge Crystallographic Data Centre
#                                CCDC 
#
#######################################################################
#
# If this CIF has been generated from an entry in the Cambridge 
# Structural Database, then it will include bibliographic, chemical, 
# crystal, experimental, refinement or atomic coordinate data resulting 
# from the CCDC's data processing and validation procedures.
#
#######################################################################

data_IMUHUU
_chemical_formula_moiety         'C13 H11 N1 O1 S1'
_chemical_name_systematic        'S-Phenyl phenylcarbamothioate'
_symmetry_cell_setting           orthorhombic
_symmetry_space_group_name_H-M   'P b c a'
_symmetry_Int_Tables_number      61
_space_group_name_Hall           '-P 2ac 2ab'
loop_
_symmetry_equiv_pos_site_id
_symmetry_equiv_pos_as_xyz
1 x,y,z
2 1/2-x,-y,1/2+z
3 -x,1/2+y,1/2-z
4 1/2+x,1/2-y,-z
5 -x,-y,-z
6 1/2+x,y,1/2-z
7 x,1/2-y,1/2+z
8 1/2-x,1/2+y,z
_cell_length_a                   9.4051(19)
_cell_length_b                   9.6160(19)
_cell_length_c                   26.246(5)
_cell_angle_alpha                90
_cell_angle_beta                 90
_cell_angle_gamma                90
_cell_volume                     2373.67
_exptl_crystal_colour            yellow
_exptl_crystal_description       prism
_chemical_melting_point          '125.0-125.5 deg.C'
_cell_formula_units_Z            8
loop_
_atom_site_label
_atom_site_type_symbol
_atom_site_fract_x
_atom_site_fract_y
_atom_site_fract_z
S1 S 0.08808(7) 0.03625(6) 0.41254(3)
O1 O 0.23045(18) 0.24618(16) 0.37073(8)
N1 N 0.3295(2) 0.03188(18) 0.36295(8)
H1 H 0.3229 -0.0539 0.3733
C1 C 0.2286(2) 0.1225(2) 0.37860(8)
C2 C 0.4456(2) 0.0671(2) 0.33085(8)
C3 C 0.5149(2) 0.1939(2) 0.33409(9)
H2 H 0.4862 0.2600 0.3584
C4 C 0.6266(3) 0.2228(3) 0.30140(10)
H3 H 0.6735 0.3089 0.3036
C5 C 0.6700(3) 0.1264(3) 0.26544(10)
H4 H 0.7452 0.1469 0.2431
C6 C 0.6013(3) -0.0004(3) 0.26293(11)
H5 H 0.6312 -0.0670 0.2390
C7 C 0.4895(3) -0.0308(2) 0.29503(10)
H6 H 0.4432 -0.1171 0.2928
C8 C -0.0138(2) 0.1831(2) 0.43130(10)
C9 C -0.0078(3) 0.2277(3) 0.48142(11)
H7 H 0.0502 0.1811 0.5051
C10 C -0.0877(3) 0.3413(4) 0.49655(13)
H8 H -0.0843 0.3718 0.5306
C11 C -0.1718(3) 0.4095(4) 0.46196(14)
H9 H -0.2251 0.4872 0.4723
C12 C -0.1789(3) 0.3653(3) 0.41260(12)
H10 H -0.2369 0.4125 0.3891
C13 C -0.1003(3) 0.2507(3) 0.39702(12)
H11 H -0.1063 0.2193 0.3632
loop_
_geom_bond_atom_site_label_1
_geom_bond_atom_site_label_2
_geom_bond_site_symmetry_1
_geom_bond_site_symmetry_2
S1 C1 1_555 1_555
O1 C1 1_555 1_555
N1 H1 1_555 1_555
C1 N1 1_555 1_555
C2 N1 1_555 1_555
C3 C2 1_555 1_555
H2 C3 1_555 1_555
C4 C3 1_555 1_555
H3 C4 1_555 1_555
C5 C4 1_555 1_555
H4 C5 1_555 1_555
C6 C5 1_555 1_555
H5 C6 1_555 1_555
C7 C2 1_555 1_555
H6 C7 1_555 1_555
C8 S1 1_555 1_555
C9 C8 1_555 1_555
H7 C9 1_555 1_555
C10 C9 1_555 1_555
H8 C10 1_555 1_555
C11 C10 1_555 1_555
H9 C11 1_555 1_555
C12 C11 1_555 1_555
H10 C12 1_555 1_555
C13 C8 1_555 1_555
H11 C13 1_555 1_555
C6 C7 1_555 1_555
C12 C13 1_555 1_555

#END
