
#######################################################################
#
#                 Cambridge Crystallographic Data Centre
#                                CCDC 
#
#######################################################################
#
# If this CIF has been generated from an entry in the Cambridge 
# Structural Database, then it will include bibliographic, chemical, 
# crystal, experimental, refinement or atomic coordinate data resulting 
# from the CCDC's data processing and validation procedures.
#
#######################################################################

data_IMURIR
_chemical_formula_moiety         'C21 H25 N3 O6'
_chemical_name_systematic        
4-(2-(3,4-Dimethoxyphenyl)ethyl)-7-(tetrahydropyran-2-yl)-pyridazino(4,5-b)(1,4)oxazin-3,8-dione
_symmetry_cell_setting           monoclinic
_symmetry_space_group_name_H-M   'P 21/n'
_symmetry_Int_Tables_number      14
_space_group_name_Hall           '-P 2yn'
loop_
_symmetry_equiv_pos_site_id
_symmetry_equiv_pos_as_xyz
1 x,y,z
2 1/2+x,1/2-y,1/2+z
3 -x,-y,-z
4 1/2-x,1/2+y,1/2-z
_cell_length_a                   16.03(2)
_cell_length_b                   8.37(1)
_cell_length_c                   16.75(2)
_cell_angle_alpha                90
_cell_angle_beta                 120.0(1)
_cell_angle_gamma                90
_cell_volume                     1946.28
_exptl_crystal_colour            colorless
_exptl_crystal_description       block
_chemical_melting_point          '134-135 deg.C'
_cell_formula_units_Z            4
loop_
_atom_site_label
_atom_site_type_symbol
_atom_site_fract_x
_atom_site_fract_y
_atom_site_fract_z
O1 O 0.40522(8) 0.4892(1) 0.04608(7)
O2 O 0.44893(8) 0.6112(1) 0.26797(8)
O3 O 0.34350(9) 0.2869(1) -0.10276(8)
O4 O 0.22831(8) -0.0957(1) -0.09651(8)
O5 O 0.68427(8) 0.0010(1) 0.70507(7)
O6 O 0.60638(8) -0.1952(1) 0.56636(7)
N1 N 0.45297(9) 0.3596(1) 0.21682(8)
N2 N 0.35884(9) 0.0708(2) -0.01175(9)
N3 N 0.38410(9) 0.0007(2) 0.07036(9)
C1 C 0.4331(1) 0.5206(2) 0.2049(1)
C2 C 0.3855(1) 0.5813(2) 0.1068(1)
C3 C 0.3989(1) 0.3286(2) 0.0560(1)
C4 C 0.3654(1) 0.2334(2) -0.0266(1)
C5 C 0.4153(1) 0.0933(2) 0.1419(1)
C6 C 0.4228(1) 0.2626(2) 0.1386(1)
C7 C 0.4912(1) 0.2891(2) 0.3095(1)
C8 C 0.5933(1) 0.2232(2) 0.3499(1)
C9 C 0.6259(1) 0.1626(2) 0.4462(1)
C10 C 0.6722(1) 0.2624(2) 0.5214(1)
C11 C 0.6939(1) 0.2115(2) 0.6098(1)
C12 C 0.6689(1) 0.0596(2) 0.6223(1)
C13 C 0.6245(1) -0.0453(2) 0.5467(1)
C14 C 0.6030(1) 0.0071(2) 0.4597(1)
C15 C 0.7345(1) 0.1068(2) 0.7823(1)
C16 C 0.5690(1) -0.3096(2) 0.4930(1)
C17 C 0.3154(1) -0.0388(2) -0.0909(1)
C18 C 0.3829(1) -0.1713(2) -0.0802(1)
C19 C 0.3324(1) -0.2907(2) -0.1594(1)
C20 C 0.2380(1) -0.3442(2) -0.1674(1)
C21 C 0.1773(1) -0.2002(2) -0.1762(1)
H1 H 0.4075 0.6873 0.1082
H2 H 0.3180 0.5819 0.0827
H3 H 0.4341 0.0454 0.1998
H4 H 0.4916 0.3693 0.3499
H5 H 0.4499 0.2045 0.3056
H6 H 0.5936 0.1381 0.3125
H7 H 0.6354 0.3054 0.3523
H8 H 0.6895 0.3668 0.5133
H9 H 0.7257 0.2816 0.6608
H10 H 0.5724 -0.0633 0.4088
H11 H 0.7396 0.0583 0.8358
H12 H 0.7971 0.1274 0.7918
H13 H 0.6998 0.2041 0.7701
H14 H 0.5099 -0.2714 0.4433
H15 H 0.6139 -0.3252 0.4725
H16 H 0.5580 -0.4082 0.5144
H17 H 0.2998 0.0194 -0.1453
H18 H 0.4375 -0.1282 -0.0806
H19 H 0.4030 -0.2243 -0.0233
H20 H 0.3201 -0.2416 -0.2152
H21 H 0.3731 -0.3809 -0.1474
H22 H 0.2041 -0.4097 -0.2204
H23 H 0.2509 -0.4032 -0.1140
H24 H 0.1189 -0.2351 -0.1799
H25 H 0.1630 -0.1432 -0.2305
loop_
_geom_bond_atom_site_label_1
_geom_bond_atom_site_label_2
_geom_bond_site_symmetry_1
_geom_bond_site_symmetry_2
O1 C2 1_555 1_555
O2 C1 1_555 1_555
O3 C4 1_555 1_555
O4 C17 1_555 1_555
O5 C12 1_555 1_555
O6 C13 1_555 1_555
N1 C1 1_555 1_555
N2 N3 1_555 1_555
N3 C5 1_555 1_555
C1 C2 1_555 1_555
C2 H1 1_555 1_555
C3 O1 1_555 1_555
C4 N2 1_555 1_555
C5 C6 1_555 1_555
C6 N1 1_555 1_555
C7 N1 1_555 1_555
C8 C7 1_555 1_555
C9 C8 1_555 1_555
C10 C9 1_555 1_555
C11 C10 1_555 1_555
C12 C11 1_555 1_555
C13 C12 1_555 1_555
C14 C9 1_555 1_555
C15 O5 1_555 1_555
C16 O6 1_555 1_555
C17 N2 1_555 1_555
C18 C17 1_555 1_555
C19 C18 1_555 1_555
C20 C19 1_555 1_555
C21 O4 1_555 1_555
H2 C2 1_555 1_555
H3 C5 1_555 1_555
H4 C7 1_555 1_555
H5 C7 1_555 1_555
H6 C8 1_555 1_555
H7 C8 1_555 1_555
H8 C10 1_555 1_555
H9 C11 1_555 1_555
H10 C14 1_555 1_555
H11 C15 1_555 1_555
H12 C15 1_555 1_555
H13 C15 1_555 1_555
H14 C16 1_555 1_555
H15 C16 1_555 1_555
H16 C16 1_555 1_555
H17 C17 1_555 1_555
H18 C18 1_555 1_555
H19 C18 1_555 1_555
H20 C19 1_555 1_555
H21 C19 1_555 1_555
H22 C20 1_555 1_555
H23 C20 1_555 1_555
H24 C21 1_555 1_555
H25 C21 1_555 1_555
C3 C6 1_555 1_555
C3 C4 1_555 1_555
C13 C14 1_555 1_555
C20 C21 1_555 1_555

#END
