
#######################################################################
#
#                 Cambridge Crystallographic Data Centre
#                                CCDC 
#
#######################################################################
#
# If this CIF has been generated from an entry in the Cambridge 
# Structural Database, then it will include bibliographic, chemical, 
# crystal, experimental, refinement or atomic coordinate data resulting 
# from the CCDC's data processing and validation procedures.
#
#######################################################################

data_INAQOD
_chemical_formula_moiety         'C10 H18 S4'
_chemical_name_systematic        2,2'-Dimethyl-2,2'-bi-1,3-dithianyl
_symmetry_cell_setting           monoclinic
_symmetry_space_group_name_H-M   'P 21/c'
_symmetry_Int_Tables_number      14
_space_group_name_Hall           '-P 2ybc'
loop_
_symmetry_equiv_pos_site_id
_symmetry_equiv_pos_as_xyz
1 x,y,z
2 x,1/2-y,1/2+z
3 -x,-y,-z
4 -x,1/2+y,1/2-z
_cell_length_a                   10.1273(6)
_cell_length_b                   11.6016(7)
_cell_length_c                   10.6862(7)
_cell_angle_alpha                90
_cell_angle_beta                 94.2600(10)
_cell_angle_gamma                90
_cell_volume                     1252.08
_exptl_crystal_colour            colorless
_exptl_crystal_description       block
_chemical_melting_point          '455 K'
_cell_formula_units_Z            4
_exptl_crystal_recrystallization_method hexane
loop_
_atom_site_label
_atom_site_type_symbol
_atom_site_fract_x
_atom_site_fract_y
_atom_site_fract_z
S1 S -0.13309(4) 1.04619(4) 0.14581(4)
S2 S 0.05807(4) 0.84969(3) 0.11678(4)
C1 C 0.01748(15) 0.99944(13) 0.07230(15)
C2 C -0.0822(2) 1.02762(16) 0.31046(17)
H1 H -0.0072 1.0776 0.3321
H2 H -0.1540 1.0517 0.3597
C3 C -0.0442(2) 0.90482(17) 0.34585(17)
H3 H -0.0285 0.8999 0.4363
H4 H -0.1178 0.8543 0.3208
C4 C 0.0775(2) 0.86306(16) 0.28607(18)
H5 H 0.1025 0.7885 0.3214
H6 H 0.1497 0.9161 0.3079
C5 C 0.13389(17) 1.07871(15) 0.11233(16)
H7 H 0.2116 1.0529 0.0743
H8 H 0.1498 1.0768 0.2020
H9 H 0.1133 1.1561 0.0858
C1B C -0.01748(15) 1.00056(13) -0.07230(15)
S1B S 0.13309(4) 0.95381(4) -0.14581(4)
C2B C 0.0822(2) 0.97238(16) -0.31046(17)
H1B H 0.0072 0.9224 -0.3321
H2B H 0.1540 0.9483 -0.3597
C3B C 0.0442(2) 1.09518(17) -0.34585(17)
H3B H 0.0285 1.1001 -0.4363
H4B H 0.1178 1.1457 -0.3208
C4B C -0.0775(2) 1.13694(16) -0.28607(18)
S2B S -0.05807(4) 1.15031(3) -0.11678(4)
C5B C -0.13389(17) 0.92129(15) -0.11233(16)
H7B H -0.2116 0.9471 -0.0743
H8B H -0.1498 0.9232 -0.2020
H9B H -0.1133 0.8439 -0.0858
H5B H -0.1025 1.2115 -0.3214
H6B H -0.1497 1.0839 -0.3079
S3 S 0.38023(4) 0.65749(4) -0.02030(5)
S4 S 0.67501(4) 0.61210(4) 0.02924(4)
C6 C 0.50699(15) 0.55528(14) 0.04317(15)
C7 C 0.66745(18) 0.74898(15) 0.10992(18)
H10 H 0.6500 0.7348 0.1966
H11 H 0.7531 0.7864 0.1098
C8 C 0.56236(19) 0.83000(16) 0.05200(19)
H12 H 0.5734 0.9052 0.0911
H13 H 0.5748 0.8389 -0.0366
C9 C 0.42320(19) 0.78764(17) 0.0668(2)
H14 H 0.3612 0.8479 0.0395
H15 H 0.4133 0.7735 0.1551
C10 C 0.48753(19) 0.52877(16) 0.18088(17)
H16 H 0.4046 0.4898 0.1868
H17 H 0.4874 0.5995 0.2276
H18 H 0.5584 0.4804 0.2147
C6B C 0.49301(15) 0.44472(14) -0.04317(15)
S3B S 0.61977(4) 0.34251(4) 0.02030(5)
C9B C 0.57680(19) 0.21236(17) -0.0668(2)
C8B C 0.43764(19) 0.17000(16) -0.05200(19)
C7B C 0.33255(18) 0.25102(15) -0.10992(18)
S4B S 0.32499(4) 0.38790(4) -0.02924(4)
C10B C 0.51247(19) 0.47123(16) -0.18088(17)
H16B H 0.5954 0.5102 -0.1868
H17B H 0.5126 0.4005 -0.2276
H18B H 0.4416 0.5196 -0.2147
H10B H 0.3500 0.2652 -0.1966
H11B H 0.2469 0.2136 -0.1098
H12B H 0.4266 0.0948 -0.0911
H13B H 0.4252 0.1611 0.0366
H14B H 0.6388 0.1521 -0.0395
H15B H 0.5867 0.2265 -0.1551
loop_
_geom_bond_atom_site_label_1
_geom_bond_atom_site_label_2
_geom_bond_site_symmetry_1
_geom_bond_site_symmetry_2
S1 C1 1_555 1_555
S2 C1 1_555 1_555
S3 C6 1_555 1_555
S4 C6 1_555 1_555
C1 C5 1_555 1_555
C2 S1 1_555 1_555
H1 C2 1_555 1_555
H2 C2 1_555 1_555
C3 C2 1_555 1_555
H3 C3 1_555 1_555
H4 C3 1_555 1_555
C4 S2 1_555 1_555
H5 C4 1_555 1_555
H6 C4 1_555 1_555
C5 H7 1_555 1_555
H8 C5 1_555 1_555
H9 C5 1_555 1_555
C6 C10 1_555 1_555
C7 S4 1_555 1_555
H10 C7 1_555 1_555
H11 C7 1_555 1_555
C8 C7 1_555 1_555
H12 C8 1_555 1_555
H13 C8 1_555 1_555
C9 S3 1_555 1_555
H14 C9 1_555 1_555
H15 C9 1_555 1_555
C10 H16 1_555 1_555
H17 C10 1_555 1_555
H18 C10 1_555 1_555
C1B C1 1_555 1_555
S1B C1B 1_555 1_555
C2B S1B 1_555 1_555
H1B C2B 1_555 1_555
H2B C2B 1_555 1_555
C3B C2B 1_555 1_555
H3B C3B 1_555 1_555
H4B C3B 1_555 1_555
C4B C3B 1_555 1_555
S2B C1B 1_555 1_555
C5B C1B 1_555 1_555
H7B C5B 1_555 1_555
H8B C5B 1_555 1_555
H9B C5B 1_555 1_555
H5B C4B 1_555 1_555
H6B C4B 1_555 1_555
C6B C6 1_555 1_555
S3B C6B 1_555 1_555
C9B S3B 1_555 1_555
C8B C9B 1_555 1_555
C7B C8B 1_555 1_555
S4B C6B 1_555 1_555
C10B C6B 1_555 1_555
H16B C10B 1_555 1_555
H17B C10B 1_555 1_555
H18B C10B 1_555 1_555
H10B C7B 1_555 1_555
H11B C7B 1_555 1_555
H12B C8B 1_555 1_555
H13B C8B 1_555 1_555
H14B C9B 1_555 1_555
H15B C9B 1_555 1_555
C3 C4 1_555 1_555
C8 C9 1_555 1_555
C4B S2B 1_555 1_555
C7B S4B 1_555 1_555

#END
