
#######################################################################
#
#                 Cambridge Crystallographic Data Centre
#                                CCDC 
#
#######################################################################
#
# If this CIF has been generated from an entry in the Cambridge 
# Structural Database, then it will include bibliographic, chemical, 
# crystal, experimental, refinement or atomic coordinate data resulting 
# from the CCDC's data processing and validation procedures.
#
#######################################################################

data_INARAQ
_chemical_formula_moiety         'C8 H14 S4'
_chemical_name_systematic        2,2'-Bi-1,3-dithianyl
_symmetry_cell_setting           monoclinic
_symmetry_space_group_name_H-M   'P 21/n'
_symmetry_Int_Tables_number      14
_space_group_name_Hall           '-P 2yn'
loop_
_symmetry_equiv_pos_site_id
_symmetry_equiv_pos_as_xyz
1 x,y,z
2 1/2+x,1/2-y,1/2+z
3 -x,-y,-z
4 1/2-x,1/2+y,1/2-z
_cell_length_a                   4.7989(8)
_cell_length_b                   9.0110(15)
_cell_length_c                   12.772(2)
_cell_angle_alpha                90
_cell_angle_beta                 90.490(4)
_cell_angle_gamma                90
_cell_volume                     552.278
_exptl_crystal_colour            colorless
_exptl_crystal_description       block
_chemical_melting_point          '414 K'
_cell_formula_units_Z            2
_exptl_crystal_recrystallization_method hexane
loop_
_atom_site_label
_atom_site_type_symbol
_atom_site_fract_x
_atom_site_fract_y
_atom_site_fract_z
S1 S 1.12121(10) 0.42548(5) 0.15659(3)
S2 S 0.94307(10) 0.26564(5) -0.04022(4)
C1 C 0.9346(3) 0.43879(16) 0.03255(12)
H1 H 0.7401 0.4648 0.0463
C2 C 0.9247(5) 0.2782(2) 0.21760(16)
H2 H 1.0047 0.2589 0.2863
H3 H 0.7352 0.3124 0.2277
C3 C 0.7675(4) 0.1482(2) 0.05313(17)
H4 H 0.5822 0.1876 0.0648
H5 H 0.7464 0.0500 0.0230
C4 C 0.9150(5) 0.1339(2) 0.15740(17)
H6 H 1.1039 0.0997 0.1459
H7 H 0.8205 0.0597 0.1991
C1B C 1.0654(3) 0.56121(16) -0.03255(12)
S1B S 0.87879(10) 0.57452(5) -0.15659(3)
C2B C 1.0753(5) 0.7218(2) -0.21760(16)
H2B H 0.9953 0.7411 -0.2863
H3B H 1.2648 0.6876 -0.2277
C4B C 1.0850(5) 0.8661(2) -0.15740(17)
C3B C 1.2325(4) 0.8518(2) -0.05313(17)
S2B S 1.05693(10) 0.73436(5) 0.04022(4)
H1B H 1.2599 0.5352 -0.0463
H4B H 1.4178 0.8124 -0.0648
H5B H 1.2536 0.9500 -0.0230
H6B H 0.8961 0.9003 -0.1459
H7B H 1.1795 0.9403 -0.1991
loop_
_geom_bond_atom_site_label_1
_geom_bond_atom_site_label_2
_geom_bond_site_symmetry_1
_geom_bond_site_symmetry_2
S1 C1 1_555 1_555
S2 C1 1_555 1_555
C1 H1 1_555 1_555
C2 S1 1_555 1_555
H2 C2 1_555 1_555
H3 C2 1_555 1_555
C3 S2 1_555 1_555
H4 C3 1_555 1_555
H5 C3 1_555 1_555
C4 C2 1_555 1_555
H6 C4 1_555 1_555
H7 C4 1_555 1_555
C1B C1 1_555 1_555
S1B C1B 1_555 1_555
C2B S1B 1_555 1_555
H2B C2B 1_555 1_555
H3B C2B 1_555 1_555
C4B C2B 1_555 1_555
C3B C4B 1_555 1_555
S2B C1B 1_555 1_555
H1B C1B 1_555 1_555
H4B C3B 1_555 1_555
H5B C3B 1_555 1_555
H6B C4B 1_555 1_555
H7B C4B 1_555 1_555
C3 C4 1_555 1_555
C3B S2B 1_555 1_555

#END
