
#######################################################################
#
#                 Cambridge Crystallographic Data Centre
#                                CCDC 
#
#######################################################################
#
# If this CIF has been generated from an entry in the Cambridge 
# Structural Database, then it will include bibliographic, chemical, 
# crystal, experimental, refinement or atomic coordinate data resulting 
# from the CCDC's data processing and validation procedures.
#
#######################################################################

data_INATAS
_chemical_formula_moiety         'C33 H20 O2'
_chemical_name_systematic        
'(8-Phenyl-13H-benzo(ghi)indeno(2,1-a)fluoranthen-13-yl)acetic acid'
_symmetry_cell_setting           monoclinic
_symmetry_space_group_name_H-M   'P 21/c'
_symmetry_Int_Tables_number      14
_space_group_name_Hall           '-P 2ybc'
loop_
_symmetry_equiv_pos_site_id
_symmetry_equiv_pos_as_xyz
1 x,y,z
2 x,1/2-y,1/2+z
3 -x,-y,-z
4 -x,1/2+y,1/2-z
_cell_length_a                   21.478(2)
_cell_length_b                   6.8291(7)
_cell_length_c                   15.8755(15)
_cell_angle_alpha                90
_cell_angle_beta                 104.651(2)
_cell_angle_gamma                90
_cell_volume                     2252.83
_exptl_crystal_colour            yellow
_chemical_melting_point          228-231deg.C
_cell_formula_units_Z            4
_exptl_crystal_recrystallization_method dichloromethane/2-propanol
loop_
_atom_site_label
_atom_site_type_symbol
_atom_site_fract_x
_atom_site_fract_y
_atom_site_fract_z
O1 O 0.03375(11) 1.2979(4) 1.06702(13)
H1 H 0.0084 1.3899 1.0599
O2 O 0.04461(10) 1.4028(4) 0.94069(13)
C1 C 0.17073(11) 1.2352(3) 0.98338(14)
H2 H 0.1560 1.3017 0.9271
C2 C 0.20896(12) 1.3765(3) 1.04987(14)
C3 C 0.18896(14) 1.5512(4) 1.07949(17)
H3 H 0.1472 1.5960 1.0570
C4 C 0.23174(16) 1.6585(4) 1.14286(18)
H4 H 0.2184 1.7742 1.1639
C5 C 0.29343(15) 1.5939(3) 1.17434(16)
H5 H 0.3216 1.6665 1.2171
C6 C 0.31508(12) 1.4229(3) 1.14429(15)
H6 H 0.3576 1.3834 1.1652
C7 C 0.27234(12) 1.3110(3) 1.08237(14)
C8 C 0.28105(12) 1.1246(3) 1.03865(14)
C9 C 0.33563(12) 1.0055(3) 1.04855(16)
C10 C 0.32971(14) 0.8351(3) 0.99372(17)
C11 C 0.37574(15) 0.6815(4) 0.99267(18)
H7 H 0.4169 0.6918 1.0294
C12 C 0.3609(2) 0.5195(4) 0.9391(2)
H8 H 0.3925 0.4250 0.9412
C13 C 0.2988(2) 0.4915(4) 0.8803(2)
C14 C 0.2707(3) 0.3349(5) 0.8216(2)
H9 H 0.2962 0.2278 0.8161
C15 C 0.2083(3) 0.3389(6) 0.7741(3)
H10 H 0.1927 0.2346 0.7371
C16 C 0.1651(3) 0.4995(6) 0.7790(2)
C17 C 0.0990(3) 0.5322(7) 0.7369(2)
H11 H 0.0764 0.4399 0.6979
C18 C 0.0687(2) 0.6985(7) 0.7535(2)
H12 H 0.0257 0.7160 0.7245
C19 C 0.09921(18) 0.8454(5) 0.81249(18)
H13 H 0.0769 0.9571 0.8213
C20 C 0.16274(17) 0.8196(4) 0.85659(17)
C21 C 0.1923(2) 0.6483(4) 0.83564(18)
C22 C 0.2565(2) 0.6415(4) 0.88218(19)
C23 C 0.27048(16) 0.8068(3) 0.93631(17)
C24 C 0.21382(14) 0.9223(4) 0.92435(15)
C25 C 0.22021(12) 1.0832(3) 0.97759(14)
C26 C 0.11286(11) 1.1466(4) 1.00953(15)
H14 H 0.0964 1.0372 0.9714
H15 H 0.1268 1.0969 1.0685
C27 C 0.06016(12) 1.2915(4) 1.00461(17)
C28 C 0.39707(12) 1.0425(3) 1.11435(17)
C29 C 0.39982(13) 1.0410(3) 1.20296(17)
H16 H 0.3623 1.0203 1.2209
C30 C 0.45686(15) 1.0696(4) 1.2643(2)
H17 H 0.4575 1.0693 1.3231
C31 C 0.51316(15) 1.0987(4) 1.2395(2)
H18 H 0.5517 1.1177 1.2812
C32 C 0.51174(15) 1.0994(4) 1.1524(3)
H19 H 0.5496 1.1180 1.1353
C33 C 0.45423(14) 1.0727(4) 1.0900(2)
H20 H 0.4538 1.0748 1.0313
loop_
_geom_bond_atom_site_label_1
_geom_bond_atom_site_label_2
_geom_bond_site_symmetry_1
_geom_bond_site_symmetry_2
O1 H1 1_555 1_555
O2 C27 1_555 1_555
C1 H2 1_555 1_555
C2 C1 1_555 1_555
C3 C2 1_555 1_555
H3 C3 1_555 1_555
C4 C3 1_555 1_555
H4 C4 1_555 1_555
C5 C4 1_555 1_555
H5 C5 1_555 1_555
C6 C5 1_555 1_555
H6 C6 1_555 1_555
C7 C2 1_555 1_555
C8 C7 1_555 1_555
C9 C8 1_555 1_555
C10 C9 1_555 1_555
C11 C10 1_555 1_555
H7 C11 1_555 1_555
C12 C11 1_555 1_555
H8 C12 1_555 1_555
C13 C12 1_555 1_555
C14 C13 1_555 1_555
H9 C14 1_555 1_555
C15 C14 1_555 1_555
H10 C15 1_555 1_555
C16 C15 1_555 1_555
C17 C16 1_555 1_555
H11 C17 1_555 1_555
C18 C17 1_555 1_555
H12 C18 1_555 1_555
C19 C18 1_555 1_555
H13 C19 1_555 1_555
C20 C19 1_555 1_555
C21 C16 1_555 1_555
C22 C13 1_555 1_555
C23 C10 1_555 1_555
C24 C20 1_555 1_555
C25 C1 1_555 1_555
C26 C1 1_555 1_555
H14 C26 1_555 1_555
H15 C26 1_555 1_555
C27 O1 1_555 1_555
C28 C9 1_555 1_555
C29 C28 1_555 1_555
H16 C29 1_555 1_555
C30 C29 1_555 1_555
H17 C30 1_555 1_555
C31 C30 1_555 1_555
H18 C31 1_555 1_555
C32 C31 1_555 1_555
H19 C32 1_555 1_555
C33 C28 1_555 1_555
H20 C33 1_555 1_555
C6 C7 1_555 1_555
C8 C25 1_555 1_555
C20 C21 1_555 1_555
C21 C22 1_555 1_555
C22 C23 1_555 1_555
C23 C24 1_555 1_555
C24 C25 1_555 1_555
C26 C27 1_555 1_555
C32 C33 1_555 1_555

#END
