
#######################################################################
#
#                 Cambridge Crystallographic Data Centre
#                                CCDC 
#
#######################################################################
#
# If this CIF has been generated from an entry in the Cambridge 
# Structural Database, then it will include bibliographic, chemical, 
# crystal, experimental, refinement or atomic coordinate data resulting 
# from the CCDC's data processing and validation procedures.
#
#######################################################################

data_INEDOU
_chemical_formula_moiety         'C30 H25 N1 O4'
_chemical_name_systematic        
1,3-Dibenzoyl-5,8-dimethoxy-2-phenyl-5,8-dihydroindolizine
_symmetry_cell_setting           orthorhombic
_symmetry_space_group_name_H-M   'P b c a'
_symmetry_Int_Tables_number      61
_space_group_name_Hall           '-P 2ac 2ab'
loop_
_symmetry_equiv_pos_site_id
_symmetry_equiv_pos_as_xyz
1 x,y,z
2 1/2+x,y,1/2-z
3 x,1/2-y,1/2+z
4 1/2-x,1/2+y,z
5 -x,-y,-z
6 1/2-x,-y,1/2+z
7 -x,1/2+y,1/2-z
8 1/2+x,1/2-y,-z
_cell_length_a                   12.8820(6)
_cell_length_b                   12.1160(5)
_cell_length_c                   30.7987(13)
_cell_angle_alpha                90
_cell_angle_beta                 90
_cell_angle_gamma                90
_cell_volume                     4807.01
_exptl_crystal_colour            colorless
_exptl_crystal_description       block
_cell_formula_units_Z            8
_exptl_crystal_recrystallization_method 'petroleum ether/acetone'
loop_
_atom_site_label
_atom_site_type_symbol
_atom_site_fract_x
_atom_site_fract_y
_atom_site_fract_z
O1 O 0.05967(7) 0.23263(9) 0.28804(3)
O2 O -0.30455(7) 0.04121(8) 0.27863(4)
O3 O -0.39286(8) 0.24816(9) 0.33925(4)
O4 O 0.06556(9) 0.19108(10) 0.41633(4)
N1 N -0.18939(8) 0.15765(8) 0.31750(3)
C1 C -0.16152(9) 0.14574(10) 0.38935(4)
C2 C -0.23749(9) 0.15821(10) 0.35777(4)
C3 C -0.24492(10) 0.13968(10) 0.27646(4)
H1 H -0.2959(12) 0.1985(13) 0.2730(5)
C4 C -0.17053(12) 0.13960(12) 0.23912(4)
C5 C -0.06838(11) 0.14112(12) 0.24264(4)
C6 C -0.01161(10) 0.14183(11) 0.28517(4)
C7 C -0.08504(8) 0.14010(9) 0.32304(4)
C8 C -0.06492(9) 0.13496(10) 0.36713(4)
C9 C 0.04017(9) 0.12887(10) 0.38725(4)
C10 C 0.11280(9) 0.04131(10) 0.37151(4)
C11 C 0.07496(10) -0.05860(11) 0.35575(5)
C12 C 0.14303(13) -0.14157(13) 0.34376(5)
C13 C 0.24883(13) -0.12467(14) 0.34643(5)
C14 C 0.28716(11) -0.02524(14) 0.36184(5)
C15 C 0.21972(10) 0.05748(12) 0.37495(4)
C16 C -0.17746(10) 0.14214(12) 0.43686(4)
C17 C -0.23827(12) 0.22114(14) 0.45786(5)
C18 C -0.25442(16) 0.2141(2) 0.50272(6)
C19 C -0.20995(18) 0.1307(2) 0.52623(6)
H2 H -0.2206 0.1269 0.5561
C20 C -0.14976(17) 0.0527(2) 0.50602(6)
H3 H -0.1201 -0.0039 0.5222
C21 C -0.13292(14) 0.05794(16) 0.46146(5)
C22 C -0.35064(9) 0.17835(10) 0.36178(4)
C23 C -0.41095(9) 0.11140(11) 0.39338(4)
C24 C -0.38820(12) 0.00089(13) 0.39995(5)
C25 C -0.45009(14) -0.06275(16) 0.42718(7)
C26 C -0.53163(13) -0.01439(18) 0.44887(6)
H4 H -0.5724 -0.0566 0.4674
C27 C -0.55329(13) 0.0953(2) 0.44335(6)
C28 C -0.49457(11) 0.15898(15) 0.41507(5)
C29 C 0.01103(14) 0.33777(14) 0.28699(7)
H5 H 0.0631 0.3945 0.2876
H6 H -0.0335 0.3455 0.3118
H7 H -0.0293 0.3444 0.2609
C30 C -0.24484(14) -0.05671(13) 0.28423(7)
H8 H -0.2904 -0.1179 0.2896
H9 H -0.1987 -0.0477 0.3085
H10 H -0.2051 -0.0706 0.2584
H11 H -0.0042(14) -0.0701(14) 0.3541(5)
H12 H 0.0324(13) 0.0776(14) 0.2859(5)
H13 H -0.2693(14) 0.2799(15) 0.4410(6)
H14 H -0.2060(14) 0.1345(15) 0.2113(6)
H15 H 0.2953(15) -0.1832(17) 0.3376(6)
H16 H -0.5090(15) 0.2391(16) 0.4093(6)
H17 H 0.2444(13) 0.1271(14) 0.3863(5)
H18 H -0.0936(16) -0.0012(17) 0.4466(6)
H19 H -0.3288(15) -0.0302(16) 0.3849(6)
H20 H -0.0256(14) 0.1404(14) 0.2174(6)
H21 H 0.3584(16) -0.0134(16) 0.3636(6)
H22 H -0.608(2) 0.132(2) 0.4594(8)
H23 H 0.1149(16) -0.2147(18) 0.3342(7)
H24 H -0.2974(19) 0.269(2) 0.5146(8)
H25 H -0.4393(18) -0.141(2) 0.4304(8)
loop_
_geom_bond_atom_site_label_1
_geom_bond_atom_site_label_2
_geom_bond_site_symmetry_1
_geom_bond_site_symmetry_2
O1 C6 1_555 1_555
O2 C3 1_555 1_555
O3 C22 1_555 1_555
O4 C9 1_555 1_555
N1 C2 1_555 1_555
C1 C2 1_555 1_555
C2 C22 1_555 1_555
C3 N1 1_555 1_555
H1 C3 1_555 1_555
C4 C3 1_555 1_555
C5 C4 1_555 1_555
C6 C5 1_555 1_555
C7 N1 1_555 1_555
C8 C1 1_555 1_555
C9 C8 1_555 1_555
C10 C9 1_555 1_555
C11 C10 1_555 1_555
C12 C11 1_555 1_555
C13 C12 1_555 1_555
C14 C13 1_555 1_555
C15 C10 1_555 1_555
C16 C1 1_555 1_555
C17 C16 1_555 1_555
C18 C17 1_555 1_555
C19 C18 1_555 1_555
H2 C19 1_555 1_555
C20 C19 1_555 1_555
H3 C20 1_555 1_555
C21 C16 1_555 1_555
C22 C23 1_555 1_555
C23 C24 1_555 1_555
C24 C25 1_555 1_555
C25 C26 1_555 1_555
C26 H4 1_555 1_555
C27 C26 1_555 1_555
C28 C23 1_555 1_555
C29 O1 1_555 1_555
H5 C29 1_555 1_555
H6 C29 1_555 1_555
H7 C29 1_555 1_555
C30 O2 1_555 1_555
H8 C30 1_555 1_555
H9 C30 1_555 1_555
H10 C30 1_555 1_555
H11 C11 1_555 1_555
H12 C6 1_555 1_555
H13 C17 1_555 1_555
H14 C4 1_555 1_555
H15 C13 1_555 1_555
H16 C28 1_555 1_555
H17 C15 1_555 1_555
H18 C21 1_555 1_555
H19 C24 1_555 1_555
H20 C5 1_555 1_555
H21 C14 1_555 1_555
H22 C27 1_555 1_555
H23 C12 1_555 1_555
H24 C18 1_555 1_555
H25 C25 1_555 1_555
C6 C7 1_555 1_555
C7 C8 1_555 1_555
C14 C15 1_555 1_555
C20 C21 1_555 1_555
C27 C28 1_555 1_555

#END
