
#######################################################################
#
#                 Cambridge Crystallographic Data Centre
#                                CCDC 
#
#######################################################################
#
# If this CIF has been generated from an entry in the Cambridge 
# Structural Database, then it will include bibliographic, chemical, 
# crystal, experimental, refinement or atomic coordinate data resulting 
# from the CCDC's data processing and validation procedures.
#
#######################################################################

data_INEFIQ01
_chemical_name_common            'L-Argininium bis(trifluoroacetate)'
_chemical_formula_moiety         'C6 H16 N4 O2 2+,2(C2 F3 O2 1-)'
_chemical_name_systematic        
'(Amino((4-ammonio-4-carboxybutyl)amino)methylene)ammonium bis(trifluoroacetate)'
_symmetry_cell_setting           monoclinic
_symmetry_space_group_name_H-M   'P 21'
_symmetry_Int_Tables_number      4
_space_group_name_Hall           'P 2yb'
loop_
_symmetry_equiv_pos_site_id
_symmetry_equiv_pos_as_xyz
1 x,y,z
2 -x,1/2+y,-z
_cell_length_a                   9.6785(19)
_cell_length_b                   5.7853(12)
_cell_length_c                   14.329(3)
_cell_angle_alpha                90
_cell_angle_beta                 96.86(3)
_cell_angle_gamma                90
_cell_volume                     796.58
_exptl_crystal_colour            colorless
_exptl_crystal_description       prism
_cell_formula_units_Z            2
loop_
_atom_site_label
_atom_site_type_symbol
_atom_site_fract_x
_atom_site_fract_y
_atom_site_fract_z
O1 O 0.54398(11) 0.88708(19) 0.20172(7)
H1 H 0.586(2) 0.808(4) 0.1658(17)
O2 O 0.53003(12) 0.55755(19) 0.28290(8)
N1 N 0.47662(12) 1.1262(2) 0.35431(9)
H2 H 0.5648 1.1045 0.3784
H3 H 0.4308 1.1960 0.3966
H4 H 0.4738 1.2141 0.3031
N2 N -0.04915(12) 0.9379(2) 0.24285(8)
H5 H -0.0672 0.9341 0.3002
N3 N -0.19928(13) 1.2462(2) 0.22151(9)
H6 H -0.2330 1.3624 0.1889
H7 H -0.2288 1.2144 0.2743
N4 N -0.05668(13) 1.1672(2) 0.10835(9)
H8 H 0.0075 1.0858 0.0876
H9 H -0.0923 1.2826 0.0762
C1 C 0.50273(14) 0.7602(2) 0.26897(10)
C2 C 0.41024(14) 0.8975(2) 0.32876(9)
H10 H 0.4009 0.8109 0.3865
C3 C 0.26528(14) 0.9367(2) 0.27547(10)
H11 H 0.2201 1.0625 0.3048
H12 H 0.2746 0.9816 0.2113
C4 C 0.17463(15) 0.7210(2) 0.27452(10)
H13 H 0.1562 0.6870 0.3382
H14 H 0.2249 0.5910 0.2523
C5 C 0.03572(14) 0.7491(2) 0.21160(10)
H15 H 0.0541 0.7792 0.1476
H16 H -0.0162 0.6058 0.2116
C6 C -0.10065(13) 1.1147(2) 0.19002(10)
O3 O 0.17569(12) 0.0388(2) 0.01072(8)
O4 O 0.29276(11) 0.14881(19) -0.10776(7)
F1 F 0.41496(11) 0.29157(19) 0.10278(7)
F2 F 0.22125(10) 0.47696(17) 0.07761(7)
F3 F 0.37942(11) 0.52879(17) -0.01416(7)
C7 C 0.31908(15) 0.3697(3) 0.03474(10)
C8 C 0.25584(14) 0.1665(3) -0.02711(10)
O5 O 0.75497(10) 0.95794(19) 0.38764(7)
O6 O 0.65626(11) 0.8700(2) 0.51707(8)
F4 F 0.91143(14) 0.5862(2) 0.40535(9)
F5 F 0.76466(11) 0.43599(18) 0.48899(8)
F6 F 0.92721(11) 0.6543(2) 0.55381(9)
C9 C 0.83759(16) 0.6277(3) 0.47640(11)
C10 C 0.74031(14) 0.8408(2) 0.45858(10)
loop_
_geom_bond_atom_site_label_1
_geom_bond_atom_site_label_2
_geom_bond_site_symmetry_1
_geom_bond_site_symmetry_2
O1 H1 1_555 1_555
O2 C1 1_555 1_555
N1 H2 1_555 1_555
H3 N1 1_555 1_555
H4 N1 1_555 1_555
N2 H5 1_555 1_555
N3 H6 1_555 1_555
H7 N3 1_555 1_555
N4 H8 1_555 1_555
H9 N4 1_555 1_555
C1 O1 1_555 1_555
C2 N1 1_555 1_555
H10 C2 1_555 1_555
C3 C2 1_555 1_555
H11 C3 1_555 1_555
H12 C3 1_555 1_555
C4 C3 1_555 1_555
H13 C4 1_555 1_555
H14 C4 1_555 1_555
C5 N2 1_555 1_555
H15 C5 1_555 1_555
H16 C5 1_555 1_555
C6 N2 1_555 1_555
O3 C8 1_555 1_555
O4 C8 1_555 1_555
F1 C7 1_555 1_555
F2 C7 1_555 1_555
F3 C7 1_555 1_555
C7 C8 1_555 1_555
O5 C10 1_555 1_555
O6 C10 1_555 1_555
F4 C9 1_555 1_555
F5 C9 1_555 1_555
F6 C9 1_555 1_555
C9 C10 1_555 1_555
N3 C6 1_555 1_555
N4 C6 1_555 1_555
C1 C2 1_555 1_555
C4 C5 1_555 1_555

#END
