
#######################################################################
#
#                 Cambridge Crystallographic Data Centre
#                                CCDC 
#
#######################################################################
#
# If this CIF has been generated from an entry in the Cambridge 
# Structural Database, then it will include bibliographic, chemical, 
# crystal, experimental, refinement or atomic coordinate data resulting 
# from the CCDC's data processing and validation procedures.
#
#######################################################################

data_INEJIW
_chemical_formula_moiety         'C40 H29 O5 P1'
_chemical_name_systematic        
"methyl 2-(3-methylphenyl)-1',3',5-trioxo-4-(triphenylphosphoranylidene)-1',3'-dihydrospiro[cyclopent-2-ene-1,2'-indene]-3-carboxylate"
_symmetry_cell_setting           orthorhombic
_symmetry_space_group_name_H-M   'P c a 21'
_symmetry_Int_Tables_number      29
_space_group_name_Hall           'P 2c -2ac'
loop_
_symmetry_equiv_pos_site_id
_symmetry_equiv_pos_as_xyz
1 x,y,z
2 -x,-y,1/2+z
3 1/2+x,-y,z
4 1/2-x,y,1/2+z
_cell_length_a                   18.1713(19)
_cell_length_b                   11.4848(12)
_cell_length_c                   15.3796(17)
_cell_angle_alpha                90
_cell_angle_beta                 90
_cell_angle_gamma                90
_cell_volume                     3209.63
_exptl_crystal_colour            red
_exptl_crystal_description       block
_cell_formula_units_Z            4
loop_
_atom_site_label
_atom_site_type_symbol
_atom_site_fract_x
_atom_site_fract_y
_atom_site_fract_z
C1 C 0.08569(11) 0.74114(16) 0.45689(13)
C2 C 0.05454(12) 0.68301(18) 0.53424(13)
C3 C 0.05881(16) 0.7150(2) 0.62111(15)
H1 H 0.0832 0.7827 0.6376
C4 C 0.02628(17) 0.6446(3) 0.68212(16)
H2 H 0.0288 0.6644 0.7407
C5 C -0.01034(17) 0.5440(2) 0.65702(17)
H3 H -0.0323 0.4977 0.6992
C6 C -0.01485(14) 0.5112(2) 0.57126(16)
H4 H -0.0394 0.4436 0.5550
C7 C 0.01836(11) 0.58236(18) 0.50967(14)
C8 C 0.02395(11) 0.56513(18) 0.41470(14)
C9 C 0.05805(10) 0.67585(15) 0.37655(13)
C10 C 0.11291(10) 0.66585(18) 0.30372(13)
C11 C 0.17572(11) 0.58462(19) 0.30588(15)
C12 C 0.21059(12) 0.5579(2) 0.38316(17)
H5 H 0.1933 0.5906 0.4346
C13 C 0.27141(13) 0.4827(2) 0.38618(19)
C14 C 0.30931(19) 0.4587(4) 0.4702(3)
H6 H 0.3394 0.3904 0.4644
H7 H 0.2733 0.4464 0.5149
H8 H 0.3397 0.5240 0.4854
C15 C 0.29494(17) 0.4333(3) 0.3099(2)
H9 H 0.3353 0.3836 0.3108
C16 C 0.2605(2) 0.4555(3) 0.2329(2)
H10 H 0.2768 0.4197 0.1822
C17 C 0.20148(16) 0.5311(3) 0.23010(19)
H11 H 0.1786 0.5466 0.1773
C18 C -0.00534(11) 0.75463(17) 0.33742(14)
C19 C 0.02321(10) 0.79804(17) 0.25858(13)
C20 C 0.09302(10) 0.74023(16) 0.24005(13)
C21 C 0.13182(11) 0.75887(18) 0.15596(14)
C22 C 0.24256(17) 0.8144(4) 0.0896(2)
H12 H 0.2478 0.7429 0.0579
H13 H 0.2903 0.8437 0.1047
H14 H 0.2174 0.8705 0.0542
C23 C 0.05629(12) 1.00505(19) 0.16080(15)
C24 C 0.06328(15) 1.0421(3) 0.0768(2)
H15 H 0.0308 1.0159 0.0344
C25 C 0.1198(2) 1.1200(4) 0.0548(3)
H16 H 0.1247 1.1458 -0.0022
C26 C 0.1671(2) 1.1574(3) 0.1164(4)
H17 H 0.2030 1.2117 0.1018
C27 C 0.1633(2) 1.1173(4) 0.1994(3)
H18 H 0.1979 1.1405 0.2404
C28 C 0.10744(17) 1.0417(3) 0.2221(2)
H19 H 0.1040 1.0149 0.2790
C29 C -0.07132(11) 0.86110(19) 0.10870(14)
C30 C -0.10585(13) 0.9381(2) 0.05217(15)
H20 H -0.1014 1.0179 0.0609
C31 C -0.14656(15) 0.8968(3) -0.01650(17)
H21 H -0.1687 0.9488 -0.0548
C32 C -0.15473(17) 0.7793(3) -0.0288(2)
H22 H -0.1823 0.7517 -0.0754
C33 C -0.12216(18) 0.7024(3) 0.0278(2)
H23 H -0.1281 0.6227 0.0195
C34 C -0.08071(15) 0.7424(2) 0.0968(2)
H24 H -0.0592 0.6899 0.1352
C35 C -0.07543(13) 0.99891(19) 0.26770(15)
C36 C -0.0473(2) 1.0731(4) 0.3273(3)
H25 H 0.0034 1.0750 0.3355
C37 C -0.0904(4) 1.1452(4) 0.3760(4)
H26 H -0.0688 1.1931 0.4177
C38 C -0.1621(4) 1.1479(5) 0.3647(3)
H27 H -0.1912 1.2001 0.3955
C39 C -0.1930(3) 1.0720(7) 0.3065(3)
H28 H -0.2438 1.0711 0.2993
C40 C -0.14968(17) 0.9963(4) 0.2579(2)
H29 H -0.1713 0.9444 0.2192
O1 O 0.00497(11) 0.48009(15) 0.37440(11)
O2 O 0.12568(10) 0.82508(14) 0.45616(11)
O3 O -0.06354(8) 0.77009(14) 0.37522(11)
O4 O 0.10409(9) 0.74611(16) 0.08630(11)
O5 O 0.20039(8) 0.79334(18) 0.16843(12)
P1 P -0.01641(3) 0.91033(4) 0.19971(3)
loop_
_geom_bond_atom_site_label_1
_geom_bond_atom_site_label_2
_geom_bond_site_symmetry_1
_geom_bond_site_symmetry_2
C1 C2 1_555 1_555
C2 C3 1_555 1_555
C3 H1 1_555 1_555
C4 C3 1_555 1_555
H2 C4 1_555 1_555
C5 C4 1_555 1_555
H3 C5 1_555 1_555
C6 C5 1_555 1_555
H4 C6 1_555 1_555
C7 C2 1_555 1_555
C8 C7 1_555 1_555
C9 C1 1_555 1_555
C10 C9 1_555 1_555
C11 C10 1_555 1_555
C12 C11 1_555 1_555
H5 C12 1_555 1_555
C13 C12 1_555 1_555
C14 C13 1_555 1_555
H6 C14 1_555 1_555
H7 C14 1_555 1_555
H8 C14 1_555 1_555
C15 C13 1_555 1_555
H9 C15 1_555 1_555
C16 C15 1_555 1_555
H10 C16 1_555 1_555
C17 C11 1_555 1_555
H11 C17 1_555 1_555
C18 C9 1_555 1_555
C19 C18 1_555 1_555
C20 C10 1_555 1_555
C21 C20 1_555 1_555
C22 H12 1_555 1_555
H13 C22 1_555 1_555
H14 C22 1_555 1_555
C23 C24 1_555 1_555
C24 H15 1_555 1_555
C25 C24 1_555 1_555
H16 C25 1_555 1_555
C26 C25 1_555 1_555
H17 C26 1_555 1_555
C27 C26 1_555 1_555
H18 C27 1_555 1_555
C28 C23 1_555 1_555
H19 C28 1_555 1_555
C29 C30 1_555 1_555
C30 H20 1_555 1_555
C31 C30 1_555 1_555
H21 C31 1_555 1_555
C32 C31 1_555 1_555
H22 C32 1_555 1_555
C33 C32 1_555 1_555
H23 C33 1_555 1_555
C34 C29 1_555 1_555
H24 C34 1_555 1_555
C35 C36 1_555 1_555
C36 H25 1_555 1_555
C37 C36 1_555 1_555
H26 C37 1_555 1_555
C38 C37 1_555 1_555
H27 C38 1_555 1_555
C39 C38 1_555 1_555
H28 C39 1_555 1_555
C40 C35 1_555 1_555
H29 C40 1_555 1_555
O1 C8 1_555 1_555
O2 C1 1_555 1_555
O3 C18 1_555 1_555
O4 C21 1_555 1_555
O5 C21 1_555 1_555
P1 C19 1_555 1_555
C6 C7 1_555 1_555
C8 C9 1_555 1_555
C16 C17 1_555 1_555
C19 C20 1_555 1_555
C22 O5 1_555 1_555
C23 P1 1_555 1_555
C27 C28 1_555 1_555
C29 P1 1_555 1_555
C33 C34 1_555 1_555
C35 P1 1_555 1_555
C39 C40 1_555 1_555

#END
