
#######################################################################
#
#                 Cambridge Crystallographic Data Centre
#                                CCDC 
#
#######################################################################
#
# If this CIF has been generated from an entry in the Cambridge 
# Structural Database, then it will include bibliographic, chemical, 
# crystal, experimental, refinement or atomic coordinate data resulting 
# from the CCDC's data processing and validation procedures.
#
#######################################################################

data_INESEZ
_chemical_formula_moiety         'C38 H50 N4 O6,C1 H6 N1 1+,Cl1 1-,C1 H4 O1'
_chemical_name_systematic        
'(6^5^-t-Butyl-14,17,22,25-tetraoxa-1,4,8,11-tetra-aza-3,6,9(1,3)-tribenzenabicyclo(9.8.8)heptacontaphane-5,7-dione) methylammonium chloride clathrate methanol solvent'
_symmetry_cell_setting           monoclinic
_symmetry_space_group_name_H-M   'P 21/c'
_symmetry_Int_Tables_number      14
_space_group_name_Hall           '-P 2ybc'
loop_
_symmetry_equiv_pos_site_id
_symmetry_equiv_pos_as_xyz
1 x,y,z
2 x,1/2-y,1/2+z
3 -x,-y,-z
4 -x,1/2+y,1/2-z
_cell_length_a                   17.8490(6)
_cell_length_b                   15.2803(5)
_cell_length_c                   16.9591(6)
_cell_angle_alpha                90
_cell_angle_beta                 117.3370(10)
_cell_angle_gamma                90
_cell_volume                     4108.83
_exptl_crystal_colour            colorless
_exptl_crystal_description       prism
_cell_formula_units_Z            4
loop_
_atom_site_label
_atom_site_type_symbol
_atom_site_fract_x
_atom_site_fract_y
_atom_site_fract_z
Cl1 Cl 0.21789(3) 0.51764(3) 0.49517(3)
O1 O 0.22649(10) 0.15271(10) 0.58703(10)
N1 N 0.30292(9) 0.30537(10) 0.72334(10)
C1 C 0.25788(12) 0.22457(13) 0.72414(13)
H2 H 0.2789 0.2080 0.7875
H3 H 0.1995 0.2364 0.6962
O3 O 0.14754(8) 0.13194(8) 0.40075(9)
N2 N 0.01407(9) 0.25750(9) 0.32562(9)
C3 C 0.27400(12) 0.14721(13) 0.67965(13)
H7 H 0.3323 0.1400 0.6949
H8 H 0.2610 0.0902 0.6976
O4 O 0.00652(8) 0.32136(9) 0.47702(8)
N3 N 0.43777(9) 0.52280(9) 0.59678(9)
H9 H 0.3823 0.5219 0.5634
C4 C 0.24726(16) 0.08286(15) 0.54496(17)
H10 H 0.2856 0.1064 0.5303
H11 H 0.2684 0.0332 0.5794
O5 O 0.13043(8) 0.37836(8) 0.65029(8)
N4 N 0.18602(9) 0.52840(9) 0.28524(9)
H12 H 0.2007 0.5285 0.3412
C5 C 0.17399(15) 0.05898(13) 0.45941(15)
H13 H 0.1965 0.0119 0.4388
H14 H 0.1262 0.0345 0.4723
O6 O 0.55308(8) 0.60034(9) 0.61060(9)
C6 C 0.07553(12) 0.11130(12) 0.32008(12)
H15 H 0.0392 0.0762 0.3317
H16 H 0.0890 0.0763 0.2832
O7 O 0.21429(8) 0.59743(9) 0.18197(8)
C7 C 0.03385(12) 0.19455(12) 0.27163(11)
H17 H 0.0692 0.2215 0.2525
H18 H -0.0161 0.1778 0.2176
C8 C -0.03359(12) 0.21251(12) 0.36560(12)
H19 H 0.0087 0.1692 0.4102
H20 H -0.0810 0.1835 0.3207
C9 C -0.06335(11) 0.27161(13) 0.41651(12)
H21 H -0.0896 0.2359 0.4438
H22 H -0.1059 0.3088 0.3761
C10 C -0.01192(11) 0.36688(12) 0.53898(12)
H23 H -0.0198 0.3273 0.5798
H24 H -0.0606 0.4001 0.5106
C11 C 0.05942(12) 0.42757(12) 0.59092(13)
H25 H 0.0722 0.4645 0.5523
H26 H 0.0484 0.4678 0.6283
C12 C 0.20354(12) 0.43148(13) 0.69357(13)
H27 H 0.1900 0.4805 0.7220
H28 H 0.2200 0.4562 0.6518
C13 C 0.27556(12) 0.37851(14) 0.76063(12)
H29 H 0.3211 0.4191 0.7878
H30 H 0.2618 0.3573 0.8018
C14 C 0.39359(11) 0.29332(14) 0.77747(14)
H31 H 0.4094 0.2418 0.7634
H32 H 0.4089 0.2963 0.8417
C15 C 0.44858(10) 0.35815(12) 0.76059(11)
C16 C 0.41861(10) 0.41346(11) 0.68780(11)
H33 H 0.3633 0.4188 0.6470
C17 C 0.47354(10) 0.46883(10) 0.67288(11)
C18 C 0.55948(10) 0.46740(11) 0.73172(12)
H34 H 0.5914 0.5078 0.7222
C19 C 0.58894(11) 0.41155(13) 0.80425(12)
H35 H 0.6465 0.4102 0.8462
C20 C 0.53480(11) 0.35785(12) 0.81962(12)
H36 H 0.5525 0.3211 0.8711
C21 C 0.47811(10) 0.58159(11) 0.56862(11)
C22 C 0.42376(10) 0.62366(11) 0.48069(11)
C23 C 0.35273(10) 0.58304(10) 0.41512(11)
H37 H 0.3375 0.5261 0.4241
C24 C 0.30610(10) 0.62501(11) 0.33447(11)
C25 C 0.33111(11) 0.70704(11) 0.31916(12)
H38 H 0.2997 0.7315 0.2629
C26 C 0.40205(12) 0.74891(11) 0.38316(12)
C27 C 0.44820(11) 0.70559(11) 0.46386(12)
H39 H 0.4997 0.7307 0.5090
C28 C 0.23175(10) 0.58292(11) 0.25972(11)
C29 C 0.11616(10) 0.47662(10) 0.23042(10)
C30 C 0.07481(10) 0.43202(11) 0.27144(10)
H40 H 0.0953 0.4408 0.3349
C31 C 0.00644(10) 0.37791(11) 0.22275(11)
C32 C -0.02231(11) 0.36915(11) 0.13175(11)
H41 H -0.0705 0.3302 0.0997
C33 C 0.01837(11) 0.41382(11) 0.09115(11)
H42 H -0.0005 0.4081 0.0290
C34 C 0.08703(11) 0.46745(11) 0.13902(11)
H43 H 0.1132 0.4993 0.1084
C35 C -0.03690(10) 0.33050(11) 0.26846(11)
H44 H -0.0471 0.3702 0.3068
H45 H -0.0873 0.3050 0.2261
C36 C 0.42981(15) 0.83947(13) 0.36685(14)
C37 C 0.3789(3) 0.86797(19) 0.26981(19)
H46 H 0.3978 0.9221 0.2655
H47 H 0.4072 0.8188 0.2422
H48 H 0.3070 0.8730 0.2536
C38 C 0.4120(3) 0.90631(17) 0.4215(2)
H49 H 0.4338 0.9630 0.4097
H50 H 0.4556 0.8886 0.4934
H51 H 0.3476 0.9005 0.4094
C39 C 0.5217(2) 0.8380(3) 0.3900(4)
H52 H 0.5354 0.8917 0.3724
H53 H 0.5573 0.8089 0.4485
H54 H 0.5348 0.7744 0.3639
O2 O 0.18173(10) 0.71943(11) 0.44475(13)
H1 H 0.1892 0.6635 0.4545
C2 C 0.25232(16) 0.76482(19) 0.5055(2)
H4 H 0.3019 0.7538 0.4944
H5 H 0.2371 0.8229 0.5079
H6 H 0.2565 0.7597 0.5703
N5 N 0.17607(10) 0.30902(10) 0.47918(11)
H55 H 0.1734 0.3577 0.4965
H56 H 0.1324 0.3016 0.4365
H57 H 0.1908 0.2689 0.5273
C40 C 0.24708(14) 0.30517(15) 0.45700(17)
H58 H 0.2509 0.2444 0.4368
H59 H 0.3046 0.3172 0.5108
H60 H 0.2387 0.3518 0.4131
loop_
_geom_bond_atom_site_label_1
_geom_bond_atom_site_label_2
_geom_bond_site_symmetry_1
_geom_bond_site_symmetry_2
O1 C3 1_555 1_555
O2 H1 1_555 1_555
N1 C1 1_555 1_555
C1 H2 1_555 1_555
H3 C1 1_555 1_555
C2 O2 1_555 1_555
H4 C2 1_555 1_555
H5 C2 1_555 1_555
H6 C2 1_555 1_555
O3 C5 1_555 1_555
N2 C7 1_555 1_555
C3 C1 1_555 1_555
H7 C3 1_555 1_555
H8 C3 1_555 1_555
O4 C9 1_555 1_555
N3 H9 1_555 1_555
C4 O1 1_555 1_555
H10 C4 1_555 1_555
H11 C4 1_555 1_555
O5 C11 1_555 1_555
N4 H12 1_555 1_555
C5 C4 1_555 1_555
H13 C5 1_555 1_555
H14 C5 1_555 1_555
O6 C21 1_555 1_555
C6 O3 1_555 1_555
H15 C6 1_555 1_555
H16 C6 1_555 1_555
O7 C28 1_555 1_555
C7 C6 1_555 1_555
H17 C7 1_555 1_555
H18 C7 1_555 1_555
C8 N2 1_555 1_555
H19 C8 1_555 1_555
H20 C8 1_555 1_555
C9 C8 1_555 1_555
H21 C9 1_555 1_555
H22 C9 1_555 1_555
C10 O4 1_555 1_555
H23 C10 1_555 1_555
H24 C10 1_555 1_555
C11 C10 1_555 1_555
H25 C11 1_555 1_555
H26 C11 1_555 1_555
C12 O5 1_555 1_555
H27 C12 1_555 1_555
H28 C12 1_555 1_555
C13 N1 1_555 1_555
H29 C13 1_555 1_555
H30 C13 1_555 1_555
C14 N1 1_555 1_555
H31 C14 1_555 1_555
H32 C14 1_555 1_555
C15 C14 1_555 1_555
C16 C15 1_555 1_555
H33 C16 1_555 1_555
C17 N3 1_555 1_555
C18 C17 1_555 1_555
H34 C18 1_555 1_555
C19 C18 1_555 1_555
H35 C19 1_555 1_555
C20 C15 1_555 1_555
H36 C20 1_555 1_555
C21 N3 1_555 1_555
C22 C21 1_555 1_555
C23 C22 1_555 1_555
H37 C23 1_555 1_555
C24 C23 1_555 1_555
C25 C24 1_555 1_555
H38 C25 1_555 1_555
C26 C25 1_555 1_555
C27 C22 1_555 1_555
H39 C27 1_555 1_555
C28 N4 1_555 1_555
C29 N4 1_555 1_555
C30 C29 1_555 1_555
H40 C30 1_555 1_555
C31 C30 1_555 1_555
C32 C31 1_555 1_555
H41 C32 1_555 1_555
C33 C32 1_555 1_555
H42 C33 1_555 1_555
C34 C29 1_555 1_555
H43 C34 1_555 1_555
C35 N2 1_555 1_555
H44 C35 1_555 1_555
H45 C35 1_555 1_555
C36 C26 1_555 1_555
C37 C36 1_555 1_555
H46 C37 1_555 1_555
H47 C37 1_555 1_555
H48 C37 1_555 1_555
C38 C36 1_555 1_555
H49 C38 1_555 1_555
H50 C38 1_555 1_555
H51 C38 1_555 1_555
C39 C36 1_555 1_555
H52 C39 1_555 1_555
H53 C39 1_555 1_555
H54 C39 1_555 1_555
N5 H55 1_555 1_555
H56 N5 1_555 1_555
H57 N5 1_555 1_555
C40 N5 1_555 1_555
H58 C40 1_555 1_555
H59 C40 1_555 1_555
H60 C40 1_555 1_555
C12 C13 1_555 1_555
C16 C17 1_555 1_555
C19 C20 1_555 1_555
C24 C28 1_555 1_555
C26 C27 1_555 1_555
C31 C35 1_555 1_555
C33 C34 1_555 1_555

#END
