
#######################################################################
#
#                 Cambridge Crystallographic Data Centre
#                                CCDC 
#
#######################################################################
#
# If this CIF has been generated from an entry in the Cambridge 
# Structural Database, then it will include bibliographic, chemical, 
# crystal, experimental, refinement or atomic coordinate data resulting 
# from the CCDC's data processing and validation procedures.
#
#######################################################################

data_INEXEF
_chemical_formula_moiety         'C10 H16 N4 2+,2(C8 H5 O4 1-)'
_chemical_name_systematic        
"N,N'-Butylenebis(imidazole) bis(hydrogen terephthalate)"
_symmetry_cell_setting           triclinic
_symmetry_space_group_name_H-M   'P -1'
_symmetry_Int_Tables_number      2
_space_group_name_Hall           '-P 1'
loop_
_symmetry_equiv_pos_site_id
_symmetry_equiv_pos_as_xyz
1 x,y,z
2 -x,-y,-z
_cell_length_a                   7.7092(15)
_cell_length_b                   9.2570(19)
_cell_length_c                   9.6377(19)
_cell_angle_alpha                72.98(3)
_cell_angle_beta                 66.96(3)
_cell_angle_gamma                72.43(3)
_cell_volume                     591.33
_exptl_crystal_colour            colorless
_exptl_crystal_description       block
_cell_formula_units_Z            1
loop_
_atom_site_label
_atom_site_type_symbol
_atom_site_fract_x
_atom_site_fract_y
_atom_site_fract_z
C1 C 0.04390(19) 0.82397(14) 0.20523(15)
H1 H -0.0390 0.7595 0.2725
C2 C 0.2755(2) 0.91329(15) 0.01052(15)
H2 H 0.3804 0.9203 -0.0800
C3 C 0.1820(2) 1.02250(15) 0.09717(15)
H3 H 0.2104 1.1187 0.0779
C4 C -0.11150(18) 1.04876(14) 0.33713(14)
H4 H -0.2129 0.9914 0.3954
H5 H -0.1684 1.1484 0.2866
C5 C -0.03091(18) 1.07362(13) 0.44725(14)
H6 H 0.0792 1.1212 0.3879
H7 H -0.1283 1.1450 0.5096
H12 H 0.215(3) 0.700(2) 0.043(2)
N1 N 0.18737(17) 0.79073(12) 0.08054(13)
N2 N 0.03640(14) 0.96429(11) 0.21956(11)
C1A C -0.04390(19) 1.17603(14) 0.79477(15)
H1A H 0.0390 1.2405 0.7275
C2A C -0.2755(2) 1.08671(15) 0.98948(15)
H2A H -0.3804 1.0797 1.0800
C3A C -0.1820(2) 0.97750(15) 0.90283(15)
H3A H -0.2104 0.8813 0.9221
C4A C 0.11150(18) 0.95124(14) 0.66287(14)
H4A H 0.2129 1.0086 0.6046
H5A H 0.1684 0.8516 0.7134
C5A C 0.03091(18) 0.92638(13) 0.55275(14)
H6A H -0.0792 0.8788 0.6121
H7A H 0.1283 0.8550 0.4904
H12A H -0.215(3) 1.300(2) 0.957(2)
N1A N -0.18737(17) 1.20927(12) 0.91946(13)
N2A N -0.03640(14) 1.03571(11) 0.78044(11)
C6 C 0.36502(18) 0.29805(14) 0.34878(13)
C7 C 0.27830(19) 0.45093(14) 0.91742(13)
C8 C 0.34448(17) 0.33900(13) 0.49483(13)
C9 C 0.43188(17) 0.23167(13) 0.59638(13)
H8 H 0.5040 0.1362 0.5725
C10 C 0.41139(18) 0.26702(13) 0.73296(13)
H9 H 0.4720 0.1960 0.7995
C11 C 0.30031(18) 0.40861(13) 0.77089(13)
C12 C 0.2105(2) 0.51315(13) 0.67087(15)
H10 H 0.1338 0.6068 0.6968
C13 C 0.2334(2) 0.48006(14) 0.53280(14)
H11 H 0.1745 0.5521 0.4656
O1 O 0.43516(16) 0.16702(11) 0.32556(11)
O2 O 0.29692(17) 0.41349(11) 0.25579(11)
O3 O 0.32798(17) 0.34176(10) 1.01791(10)
O4 O 0.21288(18) 0.58864(11) 0.92846(12)
H13 H 0.309(4) 0.380(3) 0.156(3)
loop_
_geom_bond_atom_site_label_1
_geom_bond_atom_site_label_2
_geom_bond_site_symmetry_1
_geom_bond_site_symmetry_2
C1 H1 1_555 1_555
C2 H2 1_555 1_555
C3 C2 1_555 1_555
H3 C3 1_555 1_555
C4 H4 1_555 1_555
H5 C4 1_555 1_555
C5 C4 1_555 1_555
H6 C5 1_555 1_555
H7 C5 1_555 1_555
C6 C8 1_555 1_555
C7 C11 1_555 1_555
C8 C9 1_555 1_555
C9 H8 1_555 1_555
C10 C9 1_555 1_555
H9 C10 1_555 1_555
C11 C10 1_555 1_555
C12 C11 1_555 1_555
H10 C12 1_555 1_555
C13 C8 1_555 1_555
H11 C13 1_555 1_555
H12 N1 1_555 1_555
N1 C1 1_555 1_555
N2 C1 1_555 1_555
O1 C6 1_555 1_555
O2 C6 1_555 1_555
O3 C7 1_555 1_555
O4 C7 1_555 1_555
H13 O2 1_555 1_555
C1A H1A 1_555 1_555
C2A H2A 1_555 1_555
C3A C2A 1_555 1_555
H3A C3A 1_555 1_555
C4A H4A 1_555 1_555
H5A C4A 1_555 1_555
C5A C5 1_555 1_555
H6A C5A 1_555 1_555
H7A C5A 1_555 1_555
H12A N1A 1_555 1_555
N1A C1A 1_555 1_555
N2A C1A 1_555 1_555
C2 N1 1_555 1_555
C3 N2 1_555 1_555
C4 N2 1_555 1_555
C12 C13 1_555 1_555
C2A N1A 1_555 1_555
C3A N2A 1_555 1_555
C4A C5A 1_555 1_555
C4A N2A 1_555 1_555

#END
