
#######################################################################
#
#                 Cambridge Crystallographic Data Centre
#                                CCDC 
#
#######################################################################
#
# If this CIF has been generated from an entry in the Cambridge 
# Structural Database, then it will include bibliographic, chemical, 
# crystal, experimental, refinement or atomic coordinate data resulting 
# from the CCDC's data processing and validation procedures.
#
#######################################################################

data_INILEX
_chemical_formula_moiety         'C26 H28 N4 2+,2(F6 P1 1-)'
_chemical_name_systematic        
"3,3'-(Anthracene-9,10-diylbis(methylene))bis(1-ethyl-1H-imidazol-3-ium) bis(hexafluorophosphate)"
_symmetry_cell_setting           monoclinic
_symmetry_space_group_name_H-M   'P 21/c'
_symmetry_Int_Tables_number      14
_space_group_name_Hall           '-P 2ybc'
loop_
_symmetry_equiv_pos_site_id
_symmetry_equiv_pos_as_xyz
1 x,y,z
2 -x,1/2+y,1/2-z
3 -x,-y,-z
4 x,1/2-y,1/2+z
_cell_length_a                   11.3189(15)
_cell_length_b                   12.8557(18)
_cell_length_c                   10.0508(14)
_cell_angle_alpha                90
_cell_angle_beta                 93.108(2)
_cell_angle_gamma                90
_cell_volume                     1460.36
_cell_formula_units_Z            2
loop_
_atom_site_label
_atom_site_type_symbol
_atom_site_fract_x
_atom_site_fract_y
_atom_site_fract_z
N1 N 0.76092(19) 0.09689(18) 0.7072(2)
N2 N 0.9222(2) 0.1340(2) 0.6127(3)
C1 C 0.5025(2) -0.1084(2) 0.4739(3)
C2 C 0.5072(3) -0.2189(2) 0.4551(3)
H1 H 0.4645 -0.2485 0.3830
C3 C 0.5718(3) -0.2810(3) 0.5389(4)
H2 H 0.5730 -0.3524 0.5238
C4 C 0.6370(3) -0.2394(3) 0.6485(4)
H3 H 0.6809 -0.2832 0.7057
C5 C 0.6365(3) -0.1354(3) 0.6720(3)
H4 H 0.6809 -0.1090 0.7449
C6 C 0.5690(2) -0.0654(2) 0.5868(3)
C7 C 0.5651(2) 0.0422(2) 0.6112(3)
C8 C 0.6339(2) 0.0857(2) 0.7318(3)
H5 H 0.6018 0.1530 0.7540
H6 H 0.6252 0.0397 0.8072
C9 C 0.8050(2) 0.1304(2) 0.5967(3)
H7 H 0.7610 0.1487 0.5194
C10 C 0.9527(3) 0.1011(3) 0.7392(4)
H8 H 1.0290 0.0960 0.7777
C11 C 0.8533(3) 0.0777(3) 0.7972(3)
H9 H 0.8476 0.0527 0.8834
C12 C 1.0053(4) 0.1677(4) 0.5128(4)
H10 H 1.0532 0.1087 0.4888
H11 H 0.9604 0.1904 0.4332
C13 C 1.0831(4) 0.2517(4) 0.5597(6)
H12 H 1.0366 0.3116 0.5793
H13 H 1.1364 0.2689 0.4918
H14 H 1.1277 0.2299 0.6388
N1B N 0.23908(19) -0.09689(18) 0.2928(2)
N2B N 0.0778(2) -0.1340(2) 0.3873(3)
C1B C 0.4975(2) 0.1084(2) 0.5261(3)
C2B C 0.4928(3) 0.2189(2) 0.5449(3)
H1B H 0.5355 0.2485 0.6170
C3B C 0.4282(3) 0.2810(3) 0.4611(4)
H2B H 0.4270 0.3524 0.4762
C4B C 0.3630(3) 0.2394(3) 0.3515(4)
H3B H 0.3191 0.2832 0.2943
C5B C 0.3635(3) 0.1354(3) 0.3280(3)
H4B H 0.3191 0.1090 0.2551
C6B C 0.4310(2) 0.0654(2) 0.4132(3)
C7B C 0.4349(2) -0.0422(2) 0.3888(3)
C8B C 0.3661(2) -0.0857(2) 0.2682(3)
H5B H 0.3982 -0.1530 0.2460
H6B H 0.3748 -0.0397 0.1928
C9B C 0.1950(2) -0.1304(2) 0.4033(3)
H7B H 0.2390 -0.1487 0.4806
C10B C 0.0473(3) -0.1011(3) 0.2608(4)
H8B H -0.0290 -0.0960 0.2223
C11B C 0.1467(3) -0.0777(3) 0.2028(3)
H9B H 0.1524 -0.0527 0.1166
C12B C -0.0053(4) -0.1677(4) 0.4872(4)
H10B H -0.0532 -0.1087 0.5112
H11B H 0.0396 -0.1904 0.5668
C13B C -0.0831(4) -0.2517(4) 0.4403(6)
H12B H -0.0366 -0.3116 0.4207
H13B H -0.1364 -0.2689 0.5082
H14B H -0.1277 -0.2299 0.3612
P1 P 0.74554(7) 0.06586(6) 0.19027(8)
F1 F 0.7922(2) -0.02570(17) 0.0994(2)
F2 F 0.7005(2) 0.15722(17) 0.2812(2)
F3 F 0.7586(3) -0.0080(2) 0.3135(2)
F4 F 0.6144(2) 0.0320(2) 0.1593(3)
F5 F 0.7352(3) 0.14123(19) 0.0649(2)
F6 F 0.8770(2) 0.1021(2) 0.2183(4)
loop_
_geom_bond_atom_site_label_1
_geom_bond_atom_site_label_2
_geom_bond_site_symmetry_1
_geom_bond_site_symmetry_2
N1 C8 1_555 1_555
N2 C9 1_555 1_555
C1 C2 1_555 1_555
C2 H1 1_555 1_555
C3 C2 1_555 1_555
H2 C3 1_555 1_555
C4 C3 1_555 1_555
H3 C4 1_555 1_555
C5 C4 1_555 1_555
H4 C5 1_555 1_555
C6 C1 1_555 1_555
C7 C6 1_555 1_555
C8 C7 1_555 1_555
H5 C8 1_555 1_555
H6 C8 1_555 1_555
C9 N1 1_555 1_555
H7 C9 1_555 1_555
C10 N2 1_555 1_555
H8 C10 1_555 1_555
C11 N1 1_555 1_555
H9 C11 1_555 1_555
C12 N2 1_555 1_555
H10 C12 1_555 1_555
H11 C12 1_555 1_555
C13 C12 1_555 1_555
H12 C13 1_555 1_555
H13 C13 1_555 1_555
H14 C13 1_555 1_555
P1 F1 1_555 1_555
F2 P1 1_555 1_555
F3 P1 1_555 1_555
F4 P1 1_555 1_555
F5 P1 1_555 1_555
F6 P1 1_555 1_555
N1B C8B 1_555 1_555
N2B C9B 1_555 1_555
C1B C7 1_555 1_555
C2B C1B 1_555 1_555
H1B C2B 1_555 1_555
C3B C2B 1_555 1_555
H2B C3B 1_555 1_555
C4B C3B 1_555 1_555
H3B C4B 1_555 1_555
C5B C4B 1_555 1_555
H4B C5B 1_555 1_555
C6B C1B 1_555 1_555
C7B C1 1_555 1_555
C8B C7B 1_555 1_555
H5B C8B 1_555 1_555
H6B C8B 1_555 1_555
C9B N1B 1_555 1_555
H7B C9B 1_555 1_555
C10B N2B 1_555 1_555
H8B C10B 1_555 1_555
C11B N1B 1_555 1_555
H9B C11B 1_555 1_555
C12B N2B 1_555 1_555
H10B C12B 1_555 1_555
H11B C12B 1_555 1_555
C13B C12B 1_555 1_555
H12B C13B 1_555 1_555
H13B C13B 1_555 1_555
H14B C13B 1_555 1_555
C5 C6 1_555 1_555
C10 C11 1_555 1_555
C5B C6B 1_555 1_555
C6B C7B 1_555 1_555
C10B C11B 1_555 1_555

#END
