
#######################################################################
#
#                 Cambridge Crystallographic Data Centre
#                                CCDC 
#
#######################################################################
#
# If this CIF has been generated from an entry in the Cambridge 
# Structural Database, then it will include bibliographic, chemical, 
# crystal, experimental, refinement or atomic coordinate data resulting 
# from the CCDC's data processing and validation procedures.
#
#######################################################################

data_INITOQ
_chemical_name_common            
1$2!,1$5!-dimethyl-3,6,9-trithia-1(1,4)-benzenacyclodecaphane
_chemical_formula_moiety         'C14 H20 S3'
_chemical_name_systematic        
12,14-dimethyl-3,6,9-trithiabicyclo[9.2.2]pentadeca-1(13),11,14-triene
_symmetry_cell_setting           monoclinic
_symmetry_space_group_name_H-M   'P 21/c'
_symmetry_Int_Tables_number      14
_space_group_name_Hall           '-P 2ybc'
loop_
_symmetry_equiv_pos_site_id
_symmetry_equiv_pos_as_xyz
1 x,y,z
2 -x,1/2+y,1/2-z
3 -x,-y,-z
4 x,1/2-y,1/2+z
_cell_length_a                   8.1123(4)
_cell_length_b                   15.4498(4)
_cell_length_c                   45.729(2)
_cell_angle_alpha                90
_cell_angle_beta                 90.954(2)
_cell_angle_gamma                90
_cell_volume                     5730.58
_exptl_crystal_colour            colorless
_exptl_crystal_description       blocks
_cell_formula_units_Z            16
loop_
_atom_site_label
_atom_site_type_symbol
_atom_site_fract_x
_atom_site_fract_y
_atom_site_fract_z
C1 C 0.1253(3) 0.72099(17) -0.02119(8)
H1 H 0.2097 0.6769 -0.0257
H2 H 0.1640 0.7771 -0.0289
S1 S -0.06960(10) 0.69155(5) -0.03987(2)
C2 C -0.1409(3) 0.60131(15) -0.01805(7)
H3 H -0.1784 0.5542 -0.0312
H4 H -0.0479 0.5790 -0.0060
C3 C -0.2821(3) 0.62689(15) 0.00192(7)
H5 H -0.3754 0.6484 -0.0103
H6 H -0.2449 0.6749 0.0148
S2 S -0.35359(9) 0.53851(4) 0.02449(2)
C4 C -0.2157(3) 0.54865(14) 0.05600(7)
H7 H -0.2121 0.4928 0.0666
H8 H -0.1030 0.5612 0.0492
C5 C -0.2675(3) 0.61909(15) 0.07682(6)
H9 H -0.3832 0.6091 0.0825
H10 H -0.2625 0.6756 0.0667
S3 S -0.13784(9) 0.62331(4) 0.10971(2)
C6 C 0.0010(3) 0.71457(14) 0.10285(8)
H11 H -0.0554 0.7689 0.1083
H12 H 0.0999 0.7087 0.1157
C7 C 0.0548(3) 0.72136(16) 0.07183(8)
C8 C -0.0057(3) 0.78900(16) 0.05430(8)
H13 H -0.0686 0.8333 0.0632
C9 C 0.0218(3) 0.79419(17) 0.02465(9)
C10 C 0.1093(3) 0.72792(17) 0.01133(8)
C11 C 0.1809(3) 0.66381(16) 0.02935(8)
H14 H 0.2483 0.6211 0.0206
C12 C 0.1579(3) 0.66026(16) 0.05889(8)
C13 C 0.2364(3) 0.58828(14) 0.07689(7)
H15 H 0.1514 0.5468 0.0826
H16 H 0.2889 0.6129 0.0945
H17 H 0.3196 0.5587 0.0652
C14 C -0.0447(3) 0.87066(15) 0.00734(7)
H18 H -0.1292 0.8506 -0.0066
H19 H 0.0454 0.8981 -0.0033
H20 H -0.0932 0.9127 0.0207
C15 C -0.1174(3) 0.59753(14) 0.19435(7)
H21 H -0.1882 0.6293 0.2081
H22 H -0.1844 0.5850 0.1766
S4 S 0.05634(8) 0.66748(4) 0.18430(2)
C16 C 0.2008(3) 0.65363(14) 0.21535(6)
H23 H 0.2502 0.7103 0.2206
H24 H 0.1403 0.6321 0.2325
C17 C 0.3377(3) 0.58962(15) 0.20780(7)
H25 H 0.3985 0.6116 0.1907
H26 H 0.2877 0.5334 0.2023
S5 S 0.48207(9) 0.57324(4) 0.23827(2)
C18 C 0.3780(3) 0.49201(13) 0.25989(7)
H27 H 0.4051 0.5017 0.2808
H28 H 0.2574 0.4992 0.2572
C19 C 0.4248(3) 0.39929(14) 0.25180(7)
H29 H 0.5457 0.3923 0.2541
H30 H 0.3955 0.3890 0.2310
S6 S 0.32268(9) 0.31889(4) 0.27414(2)
C20 C 0.1404(3) 0.29025(14) 0.25186(7)
H31 H 0.1738 0.2485 0.2366
H32 H 0.0598 0.2609 0.2645
C21 C 0.0569(3) 0.36620(17) 0.23718(8)
C22 C 0.0739(3) 0.37688(16) 0.20749(8)
H33 H 0.1320 0.3338 0.1970
C23 C 0.0103(3) 0.44751(17) 0.19195(8)
C24 C -0.0651(3) 0.51269(16) 0.20831(8)
C25 C -0.0882(3) 0.50106(17) 0.23776(8)
H34 H -0.1448 0.5445 0.2483
C26 C -0.0318(3) 0.42815(17) 0.25263(8)
C27 C -0.0611(3) 0.41983(16) 0.28495(8)
H35 H -0.1056 0.3623 0.2891
H36 H -0.1400 0.4641 0.2910
H37 H 0.0433 0.4278 0.2957
C28 C 0.0273(3) 0.45326(14) 0.15958(8)
H38 H -0.0813 0.4628 0.1505
H39 H 0.0742 0.3992 0.1522
H40 H 0.1004 0.5016 0.1548
C29 C 0.3126(3) 0.36729(15) 0.10680(7)
H41 H 0.2562 0.4239 0.1082
H42 H 0.2281 0.3232 0.1018
S7 S 0.46174(9) 0.37237(4) 0.07715(2)
C30 C 0.5926(3) 0.27921(14) 0.08471(7)
H43 H 0.5348 0.2395 0.0981
H44 H 0.6120 0.2477 0.0662
C31 C 0.7581(3) 0.30456(13) 0.09847(7)
H45 H 0.7387 0.3353 0.1171
H46 H 0.8151 0.3449 0.0852
S8 S 0.89032(9) 0.21151(4) 0.10561(2)
C32 C 0.8061(3) 0.17334(14) 0.13966(7)
H47 H 0.6863 0.1855 0.1397
H48 H 0.8209 0.1098 0.1409
C33 C 0.8867(3) 0.21528(15) 0.16649(7)
H49 H 0.8670 0.2785 0.1658
H50 H 1.0073 0.2058 0.1659
S9 S 0.80968(8) 0.17317(4) 0.20068(2)
C34 C 0.6633(3) 0.25772(14) 0.21159(7)
H51 H 0.5934 0.2349 0.2274
H52 H 0.7259 0.3076 0.2196
C35 C 0.5537(3) 0.28860(16) 0.18670(7)
C36 C 0.5757(3) 0.37180(16) 0.17584(7)
H53 H 0.6508 0.4093 0.1857
C37 C 0.4931(3) 0.40229(15) 0.15126(7)
C38 C 0.3879(3) 0.34552(16) 0.13609(7)
C39 C 0.3580(3) 0.26433(15) 0.14830(7)
H54 H 0.2806 0.2274 0.1387
C40 C 0.4347(3) 0.23503(15) 0.17344(7)
C41 C 0.3926(3) 0.14690(13) 0.18563(7)
H55 H 0.4781 0.1053 0.1803
H56 H 0.2860 0.1279 0.1775
H57 H 0.3863 0.1504 0.2070
C42 C 0.5203(3) 0.49368(13) 0.14067(7)
H58 H 0.5902 0.5248 0.1548
H59 H 0.4138 0.5233 0.1386
H60 H 0.5744 0.4923 0.1217
C43 C 1.6349(3) 0.02147(15) 0.04814(7)
H61 H 1.6733 -0.0024 0.0294
H62 H 1.7190 0.0632 0.0552
S10 S 1.44067(9) 0.07988(5) 0.04142(2)
C44 C 1.3506(3) 0.08764(15) 0.07730(7)
H63 H 1.4391 0.0819 0.0923
H64 H 1.3005 0.1456 0.0795
C45 C 1.2204(3) 0.01941(16) 0.08263(7)
H65 H 1.2696 -0.0387 0.0800
H66 H 1.1302 0.0261 0.0680
S11 S 1.13561(9) 0.02689(4) 0.11904(2)
C46 C 1.2811(3) -0.03774(13) 0.14024(7)
H67 H 1.3928 -0.0289 0.1324
H68 H 1.2823 -0.0168 0.1607
C47 C 1.2430(3) -0.13418(14) 0.14017(7)
H69 H 1.2504 -0.1568 0.1200
H70 H 1.1290 -0.1435 0.1469
S12 S 1.38561(9) -0.19314(4) 0.16384(2)
C48 C 1.5357(3) -0.23637(15) 0.13815(7)
H71 H 1.6373 -0.2523 0.1492
H72 H 1.4902 -0.2898 0.1292
C49 C 1.5800(3) -0.17455(16) 0.11418(8)
C50 C 1.5169(3) -0.18617(17) 0.08609(8)
H73 H 1.4557 -0.2374 0.0822
C51 C 1.5370(3) -0.12857(17) 0.06360(8)
C52 C 1.6236(3) -0.05138(16) 0.06994(8)
C53 C 1.6943(3) -0.04138(16) 0.09736(8)
H74 H 1.7577 0.0092 0.1011
C54 C 1.6780(3) -0.10136(17) 0.11991(8)
C55 C 1.7568(3) -0.08680(15) 0.14975(7)
H75 H 1.8412 -0.0416 0.1484
H76 H 1.8080 -0.1407 0.1566
H77 H 1.6724 -0.0687 0.1635
C56 C 1.4675(3) -0.14659(16) 0.03351(7)
H78 H 1.4140 -0.2035 0.0333
H79 H 1.5568 -0.1461 0.0193
H80 H 1.3863 -0.1020 0.0283
loop_
_geom_bond_atom_site_label_1
_geom_bond_atom_site_label_2
_geom_bond_site_symmetry_1
_geom_bond_site_symmetry_2
C1 H1 1_555 1_555
H2 C1 1_555 1_555
S1 C1 1_555 1_555
C2 S1 1_555 1_555
H3 C2 1_555 1_555
H4 C2 1_555 1_555
C3 C2 1_555 1_555
H5 C3 1_555 1_555
H6 C3 1_555 1_555
S2 C3 1_555 1_555
C4 S2 1_555 1_555
H7 C4 1_555 1_555
H8 C4 1_555 1_555
C5 C4 1_555 1_555
H9 C5 1_555 1_555
H10 C5 1_555 1_555
S3 C5 1_555 1_555
C6 S3 1_555 1_555
H11 C6 1_555 1_555
H12 C6 1_555 1_555
C7 C6 1_555 1_555
C8 C7 1_555 1_555
H13 C8 1_555 1_555
C9 C8 1_555 1_555
C10 C1 1_555 1_555
C11 C10 1_555 1_555
H14 C11 1_555 1_555
C12 C7 1_555 1_555
C13 C12 1_555 1_555
H15 C13 1_555 1_555
H16 C13 1_555 1_555
H17 C13 1_555 1_555
C14 C9 1_555 1_555
H18 C14 1_555 1_555
H19 C14 1_555 1_555
H20 C14 1_555 1_555
C15 H21 1_555 1_555
H22 C15 1_555 1_555
S4 C15 1_555 1_555
C16 S4 1_555 1_555
H23 C16 1_555 1_555
H24 C16 1_555 1_555
C17 C16 1_555 1_555
H25 C17 1_555 1_555
H26 C17 1_555 1_555
S5 C17 1_555 1_555
C18 S5 1_555 1_555
H27 C18 1_555 1_555
H28 C18 1_555 1_555
C19 C18 1_555 1_555
H29 C19 1_555 1_555
H30 C19 1_555 1_555
S6 C19 1_555 1_555
C20 S6 1_555 1_555
H31 C20 1_555 1_555
H32 C20 1_555 1_555
C21 C20 1_555 1_555
C22 C21 1_555 1_555
H33 C22 1_555 1_555
C23 C22 1_555 1_555
C24 C15 1_555 1_555
C25 C24 1_555 1_555
H34 C25 1_555 1_555
C26 C21 1_555 1_555
C27 C26 1_555 1_555
H35 C27 1_555 1_555
H36 C27 1_555 1_555
H37 C27 1_555 1_555
C28 C23 1_555 1_555
H38 C28 1_555 1_555
H39 C28 1_555 1_555
H40 C28 1_555 1_555
C29 H41 1_555 1_555
H42 C29 1_555 1_555
S7 C29 1_555 1_555
C30 S7 1_555 1_555
H43 C30 1_555 1_555
H44 C30 1_555 1_555
C31 C30 1_555 1_555
H45 C31 1_555 1_555
H46 C31 1_555 1_555
S8 C31 1_555 1_555
C32 S8 1_555 1_555
H47 C32 1_555 1_555
H48 C32 1_555 1_555
C33 C32 1_555 1_555
H49 C33 1_555 1_555
H50 C33 1_555 1_555
S9 C33 1_555 1_555
C34 S9 1_555 1_555
H51 C34 1_555 1_555
H52 C34 1_555 1_555
C35 C34 1_555 1_555
C36 C35 1_555 1_555
H53 C36 1_555 1_555
C37 C36 1_555 1_555
C38 C29 1_555 1_555
C39 C38 1_555 1_555
H54 C39 1_555 1_555
C40 C35 1_555 1_555
C41 C40 1_555 1_555
H55 C41 1_555 1_555
H56 C41 1_555 1_555
H57 C41 1_555 1_555
C42 C37 1_555 1_555
H58 C42 1_555 1_555
H59 C42 1_555 1_555
H60 C42 1_555 1_555
C43 H61 1_555 1_555
H62 C43 1_555 1_555
S10 C43 1_555 1_555
C44 S10 1_555 1_555
H63 C44 1_555 1_555
H64 C44 1_555 1_555
C45 C44 1_555 1_555
H65 C45 1_555 1_555
H66 C45 1_555 1_555
S11 C45 1_555 1_555
C46 S11 1_555 1_555
H67 C46 1_555 1_555
H68 C46 1_555 1_555
C47 C46 1_555 1_555
H69 C47 1_555 1_555
H70 C47 1_555 1_555
S12 C47 1_555 1_555
C48 S12 1_555 1_555
H71 C48 1_555 1_555
H72 C48 1_555 1_555
C49 C48 1_555 1_555
C50 C49 1_555 1_555
H73 C50 1_555 1_555
C51 C50 1_555 1_555
C52 C43 1_555 1_555
C53 C52 1_555 1_555
H74 C53 1_555 1_555
C54 C49 1_555 1_555
C55 C54 1_555 1_555
H75 C55 1_555 1_555
H76 C55 1_555 1_555
H77 C55 1_555 1_555
C56 C51 1_555 1_555
H78 C56 1_555 1_555
H79 C56 1_555 1_555
H80 C56 1_555 1_555
C9 C10 1_555 1_555
C11 C12 1_555 1_555
C23 C24 1_555 1_555
C25 C26 1_555 1_555
C37 C38 1_555 1_555
C39 C40 1_555 1_555
C51 C52 1_555 1_555
C53 C54 1_555 1_555

#END
