
#######################################################################
#
#                 Cambridge Crystallographic Data Centre
#                                CCDC 
#
#######################################################################
#
# If this CIF has been generated from an entry in the Cambridge 
# Structural Database, then it will include bibliographic, chemical, 
# crystal, experimental, refinement or atomic coordinate data resulting 
# from the CCDC's data processing and validation procedures.
#
#######################################################################

data_INOBOE
_chemical_formula_moiety         'C25 H19 N1 O2 S1'
_chemical_name_systematic        
2,7,8-triphenyl-7,8-dihydrooxepino[2,3-d][1,3]thiazol-5(6H)-one
_symmetry_cell_setting           monoclinic
_symmetry_space_group_name_H-M   'C 2'
_symmetry_Int_Tables_number      5
_space_group_name_Hall           'C 2y'
loop_
_symmetry_equiv_pos_site_id
_symmetry_equiv_pos_as_xyz
1 x,y,z
2 -x,y,-z
3 1/2+x,1/2+y,z
4 1/2-x,1/2+y,-z
_cell_length_a                   18.199(5)
_cell_length_b                   7.930(2)
_cell_length_c                   13.983(4)
_cell_angle_alpha                90
_cell_angle_beta                 102.149(3)
_cell_angle_gamma                90
_cell_volume                     1972.8
_exptl_crystal_colour            colorless
_exptl_crystal_description       plate
_cell_formula_units_Z            4
loop_
_atom_site_label
_atom_site_type_symbol
_atom_site_fract_x
_atom_site_fract_y
_atom_site_fract_z
S1 S 0.59201(2) 0.69525(6) 0.45731(3)
O1 O 0.63093(8) 0.21573(18) 0.45084(10)
O2 O 0.70999(9) 0.01671(19) 0.51344(11)
N1 N 0.61443(9) 0.4465(2) 0.35019(12)
C1 C 0.59776(10) 0.4753(3) 0.61623(14)
H1 H 0.5441 0.4813 0.6170
C2 C 0.62498(10) 0.2958(3) 0.65435(14)
H2 H 0.5859 0.2156 0.6245
C3 C 0.69851(10) 0.2430(2) 0.62300(14)
H3 H 0.7279 0.3430 0.6168
H4 H 0.7280 0.1723 0.6734
C4 C 0.68323(11) 0.1493(2) 0.52800(15)
C5 C 0.61657(11) 0.3876(3) 0.44226(14)
C6 C 0.60408(10) 0.4982(3) 0.51130(14)
C7 C 0.63576(10) 0.6169(2) 0.68186(14)
C8 C 0.70658(11) 0.6784(3) 0.67794(14)
H5 H 0.7318 0.6353 0.6320
C9 C 0.74005(13) 0.8040(3) 0.74222(15)
H6 H 0.7877 0.8431 0.7395
C10 C 0.70281(15) 0.8709(3) 0.81005(16)
H7 H 0.7253 0.9549 0.8528
C11 C 0.63204(14) 0.8122(3) 0.81392(16)
H8 H 0.6065 0.8578 0.8589
C12 C 0.59896(11) 0.6855(3) 0.75086(14)
H9 H 0.5516 0.6458 0.7546
C13 C 0.63094(11) 0.2883(2) 0.76387(14)
C14 C 0.69769(12) 0.3229(3) 0.83026(15)
H10 H 0.7412 0.3448 0.8074
C15 C 0.70012(14) 0.3250(3) 0.92993(16)
H11 H 0.7453 0.3462 0.9736
C16 C 0.63551(15) 0.2955(3) 0.96451(17)
H12 H 0.6370 0.2986 1.0314
C17 C 0.56899(15) 0.2616(3) 0.89972(17)
H13 H 0.5255 0.2418 0.9230
C18 C 0.56640(13) 0.2567(3) 0.79980(16)
H14 H 0.5214 0.2323 0.7566
C19 C 0.60256(10) 0.6096(3) 0.34727(14)
C20 C 0.59999(9) 0.7120(3) 0.25925(13)
C21 C 0.59367(12) 0.6321(3) 0.16890(15)
H15 H 0.5908 0.5151 0.1651
C22 C 0.59159(13) 0.7262(3) 0.08513(16)
H16 H 0.5875 0.6723 0.0252
C23 C 0.59551(13) 0.9007(3) 0.09023(17)
H17 H 0.5938 0.9638 0.0338
C24 C 0.60197(13) 0.9803(3) 0.17918(17)
H18 H 0.6048 1.0973 0.1824
C25 C 0.60424(11) 0.8877(3) 0.26423(16)
H19 H 0.6086 0.9424 0.3240
loop_
_geom_bond_atom_site_label_1
_geom_bond_atom_site_label_2
_geom_bond_site_symmetry_1
_geom_bond_site_symmetry_2
S1 C6 1_555 1_555
O1 C4 1_555 1_555
O2 C4 1_555 1_555
N1 C5 1_555 1_555
C1 H1 1_555 1_555
C2 C1 1_555 1_555
H2 C2 1_555 1_555
C3 C2 1_555 1_555
H3 C3 1_555 1_555
H4 C3 1_555 1_555
C4 C3 1_555 1_555
C5 O1 1_555 1_555
C6 C1 1_555 1_555
C7 C1 1_555 1_555
C8 C7 1_555 1_555
H5 C8 1_555 1_555
C9 C8 1_555 1_555
H6 C9 1_555 1_555
C10 C9 1_555 1_555
H7 C10 1_555 1_555
C11 C10 1_555 1_555
H8 C11 1_555 1_555
C12 C7 1_555 1_555
H9 C12 1_555 1_555
C13 C2 1_555 1_555
C14 C13 1_555 1_555
H10 C14 1_555 1_555
C15 C14 1_555 1_555
H11 C15 1_555 1_555
C16 C15 1_555 1_555
H12 C16 1_555 1_555
C17 C16 1_555 1_555
H13 C17 1_555 1_555
C18 C13 1_555 1_555
H14 C18 1_555 1_555
C19 S1 1_555 1_555
C20 C19 1_555 1_555
C21 C20 1_555 1_555
H15 C21 1_555 1_555
C22 C21 1_555 1_555
H16 C22 1_555 1_555
C23 C22 1_555 1_555
H17 C23 1_555 1_555
C24 C23 1_555 1_555
H18 C24 1_555 1_555
C25 C20 1_555 1_555
H19 C25 1_555 1_555
N1 C19 1_555 1_555
C5 C6 1_555 1_555
C11 C12 1_555 1_555
C17 C18 1_555 1_555
C24 C25 1_555 1_555

#END
