
#######################################################################
#
#                 Cambridge Crystallographic Data Centre
#                                CCDC 
#
#######################################################################
#
# If this CIF has been generated from an entry in the Cambridge 
# Structural Database, then it will include bibliographic, chemical, 
# crystal, experimental, refinement or atomic coordinate data resulting 
# from the CCDC's data processing and validation procedures.
#
#######################################################################

data_INOGEY
_chemical_formula_moiety         'C29 H30 N2 O4 S1'
_chemical_name_systematic        
'4-((1,3-Benzothiazol-2-ylimino)methyl)-3-hydroxyphenyl 4-(n-octyloxy)benzoate'
_symmetry_cell_setting           monoclinic
_symmetry_space_group_name_H-M   'C 2/c'
_symmetry_Int_Tables_number      15
_space_group_name_Hall           '-C 2yn'
loop_
_symmetry_equiv_pos_site_id
_symmetry_equiv_pos_as_xyz
1 x,y,z
2 -x,y,1/2-z
3 1/2+x,1/2+y,z
4 1/2-x,1/2+y,1/2-z
5 -x,-y,-z
6 x,-y,1/2+z
7 1/2-x,1/2-y,-z
8 1/2+x,1/2-y,1/2+z
_cell_length_a                   30.733(8)
_cell_length_b                   5.727(2)
_cell_length_c                   29.448(8)
_cell_angle_alpha                90
_cell_angle_beta                 99.41(2)
_cell_angle_gamma                90
_cell_volume                     5113.33
_exptl_crystal_colour            yellow
_exptl_crystal_description       block
_cell_formula_units_Z            8
loop_
_atom_site_label
_atom_site_type_symbol
_atom_site_fract_x
_atom_site_fract_y
_atom_site_fract_z
C1 C 0.58324(13) -0.0967(7) 0.55952(11)
C2 C 0.60059(13) -0.1164(7) 0.60643(11)
H1 H 0.5937 -0.2454 0.6242
C3 C 0.62796(14) 0.0586(7) 0.62547(12)
H2 H 0.6403 0.0496 0.6572
C4 C 0.63824(13) 0.2484(7) 0.60010(12)
H3 H 0.6567 0.3683 0.6149
C5 C 0.62200(13) 0.2660(7) 0.55358(12)
H4 H 0.6300 0.3929 0.5359
C6 C 0.59318(13) 0.0900(7) 0.53321(11)
C7 C 0.54945(13) -0.0977(7) 0.47977(11)
C8 C 0.51948(13) -0.0150(7) 0.40427(11)
H5 H 0.5343 0.1308 0.4088
C9 C 0.49301(13) -0.0643(6) 0.36005(11)
C10 C 0.46992(13) -0.2741(7) 0.35160(11)
C11 C 0.44363(14) -0.3128(7) 0.30903(11)
H6 H 0.4278 -0.4549 0.3029
C12 C 0.44108(13) -0.1438(7) 0.27651(11)
C13 C 0.46237(14) 0.0661(7) 0.28360(12)
H7 H 0.4592 0.1822 0.2603
C14 C 0.48851(14) 0.1040(7) 0.32539(11)
H8 H 0.5038 0.2479 0.3308
C15 C 0.42475(14) -0.3328(7) 0.20447(12)
C16 C 0.39920(13) -0.3118(6) 0.15680(11)
C17 C 0.40448(13) -0.4875(7) 0.12637(11)
H9 H 0.4226 -0.6177 0.1366
C18 C 0.38366(13) -0.4767(7) 0.08105(11)
H10 H 0.3873 -0.5983 0.0601
C19 C 0.35737(13) -0.2854(7) 0.06681(11)
C20 C 0.35146(13) -0.1114(7) 0.09680(11)
H11 H 0.3329 0.0173 0.0867
C21 C 0.37270(13) -0.1227(7) 0.14224(12)
H12 H 0.3690 -0.0008 0.1632
C22 C 0.30923(13) -0.1088(7) 0.00288(11)
H13 H 0.3247 0.0434 0.0060
H14 H 0.2836 -0.1005 0.0192
C23 C 0.29453(13) -0.1685(7) -0.04734(11)
H15 H 0.2813 -0.3265 -0.0495
H16 H 0.3208 -0.1733 -0.0629
C24 C 0.26125(13) 0.0032(7) -0.07280(11)
H17 H 0.2341 0.0022 -0.0588
H18 H 0.2737 0.1629 -0.0699
C25 C 0.25003(14) -0.0623(8) -0.12323(11)
H19 H 0.2377 -0.2224 -0.1254
H20 H 0.2777 -0.0655 -0.1364
C26 C 0.21754(15) 0.0984(8) -0.15247(12)
H21 H 0.2292 0.2599 -0.1502
H22 H 0.1893 0.0979 -0.1405
C27 C 0.20922(18) 0.0230(9) -0.20316(14)
H23 H 0.2378 0.0214 -0.2145
H24 H 0.1979 -0.1391 -0.2048
C28 C 0.17794(19) 0.1700(9) -0.23472(16)
H25 H 0.1889 0.3327 -0.2337
H26 H 0.1489 0.1705 -0.2243
C29 C 0.1726(2) 0.0797(11) -0.28375(14)
H27 H 0.2012 0.0814 -0.2942
H28 H 0.1518 0.1797 -0.3038
H29 H 0.1612 -0.0804 -0.2849
N1 N 0.57372(11) 0.0864(6) 0.48708(9)
N2 N 0.52355(10) -0.1628(5) 0.43760(9)
O1 O 0.41338(9) -0.1666(5) 0.23305(8)
O2 O 0.33835(9) -0.2923(5) 0.02119(7)
O3 O 0.47158(10) -0.4431(5) 0.38369(8)
O4 O 0.45186(10) -0.4782(5) 0.21577(8)
S1 S 0.54756(3) -0.28490(18) 0.52559(3)
H30 H 0.4866(13) -0.392(6) 0.4059(12)
loop_
_geom_bond_atom_site_label_1
_geom_bond_atom_site_label_2
_geom_bond_site_symmetry_1
_geom_bond_site_symmetry_2
C1 C2 1_555 1_555
C2 H1 1_555 1_555
C3 C2 1_555 1_555
H2 C3 1_555 1_555
C4 C3 1_555 1_555
H3 C4 1_555 1_555
C5 C4 1_555 1_555
H4 C5 1_555 1_555
C6 C1 1_555 1_555
C7 N1 1_555 1_555
C8 H5 1_555 1_555
C9 C8 1_555 1_555
C10 C9 1_555 1_555
C11 C10 1_555 1_555
H6 C11 1_555 1_555
C12 C11 1_555 1_555
C13 C12 1_555 1_555
H7 C13 1_555 1_555
C14 C9 1_555 1_555
H8 C14 1_555 1_555
C15 C16 1_555 1_555
C16 C17 1_555 1_555
C17 H9 1_555 1_555
C18 C17 1_555 1_555
H10 C18 1_555 1_555
C19 C18 1_555 1_555
C20 C19 1_555 1_555
H11 C20 1_555 1_555
C21 C16 1_555 1_555
H12 C21 1_555 1_555
C22 H13 1_555 1_555
H14 C22 1_555 1_555
C23 C22 1_555 1_555
H15 C23 1_555 1_555
H16 C23 1_555 1_555
C24 C23 1_555 1_555
H17 C24 1_555 1_555
H18 C24 1_555 1_555
C25 C24 1_555 1_555
H19 C25 1_555 1_555
H20 C25 1_555 1_555
C26 C25 1_555 1_555
H21 C26 1_555 1_555
H22 C26 1_555 1_555
C27 C26 1_555 1_555
H23 C27 1_555 1_555
H24 C27 1_555 1_555
C28 C27 1_555 1_555
H25 C28 1_555 1_555
H26 C28 1_555 1_555
C29 C28 1_555 1_555
H27 C29 1_555 1_555
H28 C29 1_555 1_555
H29 C29 1_555 1_555
N1 C6 1_555 1_555
N2 C7 1_555 1_555
O1 C12 1_555 1_555
O2 C19 1_555 1_555
O3 C10 1_555 1_555
O4 C15 1_555 1_555
S1 C1 1_555 1_555
H30 O3 1_555 1_555
C5 C6 1_555 1_555
C7 S1 1_555 1_555
C8 N2 1_555 1_555
C13 C14 1_555 1_555
C15 O1 1_555 1_555
C20 C21 1_555 1_555
C22 O2 1_555 1_555

#END
