
#######################################################################
#
#                 Cambridge Crystallographic Data Centre
#                                CCDC 
#
#######################################################################
#
# If this CIF has been generated from an entry in the Cambridge 
# Structural Database, then it will include bibliographic, chemical, 
# crystal, experimental, refinement or atomic coordinate data resulting 
# from the CCDC's data processing and validation procedures.
#
#######################################################################

data_INOLED
_chemical_name_common            
'1$2!,1$5!,3$2!,3$5!,5$2!,5$5!,7$2!,7$5!,9$2!,9$5!,11$2!,11$5!-Dodeca-isobutoxy-1,3,5,7,9,11(1,4)-hexabenzenacyclododecaphane acetonitrile solvate'
_chemical_formula_moiety         'C90 H132 O12,2(C2 H3 N1)'
_chemical_name_systematic        
'4,9,14,19,24,29,31,33,35,37,39,41-Dodeca-isobutoxypillar[6]arene acetonitrile solvate'
_symmetry_cell_setting           triclinic
_symmetry_space_group_name_H-M   'P -1'
_symmetry_Int_Tables_number      2
_space_group_name_Hall           '-P 1'
loop_
_symmetry_equiv_pos_site_id
_symmetry_equiv_pos_as_xyz
1 x,y,z
2 -x,-y,-z
_cell_length_a                   13.7506(3)
_cell_length_b                   18.3037(4)
_cell_length_c                   19.5207(4)
_cell_angle_alpha                78.890(2)
_cell_angle_beta                 78.460(2)
_cell_angle_gamma                78.098(2)
_cell_volume                     4651.17
_exptl_crystal_colour            colorless
_exptl_crystal_description       platelet
_chemical_melting_point          '142 deg.C'
_cell_formula_units_Z            2
_exptl_crystal_recrystallization_method acetonitrile/dichloromethane
loop_
_atom_site_label
_atom_site_type_symbol
_atom_site_fract_x
_atom_site_fract_y
_atom_site_fract_z
O1 O 0.4055(2) 0.97580(18) 0.20568(14)
O2 O -0.00732(19) 0.71729(13) 0.46916(16)
O3 O -0.1745(2) 0.90285(13) 0.27393(13)
O4 O 0.38451(18) 0.91585(13) -0.05735(12)
O5 O 0.03084(17) 0.77811(12) 0.06626(13)
O6 O 0.52937(18) 0.54805(14) 0.26729(12)
O7 O -0.08608(18) 0.59375(12) 0.27605(12)
O8 O 0.63769(18) 0.76275(13) 0.08552(12)
O9 O 0.17530(17) 0.43144(12) 0.41297(12)
C8 C 0.2505(13) 1.0365(13) 0.3692(9)
H1 H 0.2655 1.0430 0.4134
H2 H 0.2061 1.0004 0.3778
H3 H 0.2184 1.0841 0.3464
C9 C 0.428(3) 1.038(4) 0.323(3)
H4 H 0.4347 1.0357 0.3718
H5 H 0.4182 1.0903 0.3011
H6 H 0.4887 1.0114 0.2990
O10 O 0.04684(17) 1.06738(12) 0.10362(13)
O11 O 0.37198(17) 0.59339(12) 0.54288(11)
O12 O 0.57992(18) 0.76320(12) 0.37450(11)
C10 C 0.4898(6) 0.4601(4) 0.1206(3)
H7 H 0.4197 0.4820 0.1228
H8 H 0.4961 0.4083 0.1432
H9 H 0.5218 0.4624 0.0719
C11 C -0.0133(4) 0.8396(3) 0.4965(3)
H10 H -0.0064 0.8613 0.4461
C12 C -0.1202(5) 0.8442(4) 0.5270(4)
H11 H -0.1536 0.8959 0.5199
H12 H -0.1269 0.8253 0.5768
H13 H -0.1503 0.8145 0.5044
C13 C -0.2185(5) 1.0484(3) 0.3911(4)
H14 H -0.1514 1.0393 0.4017
H15 H -0.2616 1.0241 0.4299
H16 H -0.2434 1.1018 0.3837
C14 C 0.7219(5) 0.6318(3) -0.0476(3)
H17 H 0.6803 0.5956 -0.0228
H18 H 0.7900 0.6136 -0.0396
H19 H 0.7201 0.6388 -0.0973
C15 C 0.1907(5) 0.6084(3) -0.0005(3)
H20 H 0.1804 0.5571 0.0048
H21 H 0.2485 0.6092 0.0197
H22 H 0.2015 0.6293 -0.0499
C16 C 0.3503(13) 1.0076(9) 0.3205(10)
H23 H 0.3687 0.9550 0.3426
C17 C 0.3134(5) 0.9996(4) 0.2500(3)
H24 H 0.2697 0.9623 0.2595
H25 H 0.2782 1.0476 0.2289
C18 C 0.3401(4) 0.8140(4) -0.1352(3)
H26 H 0.2863 0.8502 -0.1151
H27 H 0.3488 0.7684 -0.1015
H28 H 0.3239 0.8029 -0.1773
C19 C 0.0752(4) 1.1584(3) 0.2021(3)
H29 H 0.1329 1.1281 0.1785
H30 H 0.0516 1.1308 0.2473
H31 H 0.0935 1.2041 0.2087
C20 C 0.5220(4) 0.7902(4) -0.1868(3)
H32 H 0.5045 0.7782 -0.2281
H33 H 0.5338 0.7448 -0.1532
H34 H 0.5820 0.8122 -0.2001
C21 C 0.0391(6) 0.8808(5) 0.5341(4)
H35 H 0.0092 0.9334 0.5291
H36 H 0.1093 0.8757 0.5138
H37 H 0.0323 0.8595 0.5834
C22 C 0.5220(4) 0.8940(2) 0.5067(2)
H38 H 0.4658 0.9255 0.4873
H39 H 0.5797 0.9187 0.4924
H40 H 0.5057 0.8855 0.5574
C23 C 0.6514(4) 0.4732(3) 0.1567(3)
H41 H 0.6794 0.5029 0.1807
H42 H 0.6851 0.4756 0.1085
H43 H 0.6601 0.4216 0.1799
C24 C 0.7429(4) 0.7671(3) -0.0577(2)
H44 H 0.7157 0.8133 -0.0391
H45 H 0.7403 0.7753 -0.1074
H46 H 0.8117 0.7508 -0.0506
C25 C 0.0038(4) 0.6504(2) 0.0110(2)
H47 H -0.0050 0.5987 0.0181
H48 H 0.0097 0.6706 -0.0386
H49 H -0.0533 0.6793 0.0366
C26 C -0.0251(4) 0.4510(2) 0.1543(2)
H50 H -0.0026 0.3973 0.1621
H51 H 0.0252 0.4747 0.1212
H52 H -0.0869 0.4621 0.1355
C27 C 0.1647(4) 0.2969(2) 0.2948(3)
H53 H 0.1001 0.2846 0.3175
H54 H 0.2095 0.2519 0.2826
H55 H 0.1570 0.3330 0.2526
C28 C 0.3105(3) 0.3496(3) 0.3115(3)
H56 H 0.3370 0.3700 0.3442
H57 H 0.3044 0.3862 0.2695
H58 H 0.3553 0.3046 0.2993
C29 C 0.6328(3) 0.7664(3) 0.5094(2)
H59 H 0.6455 0.7196 0.4911
H60 H 0.6166 0.7567 0.5601
H61 H 0.6918 0.7896 0.4957
C30 C -0.1004(4) 1.2267(3) 0.1926(3)
H62 H -0.1511 1.2386 0.1629
H63 H -0.0827 1.2726 0.1993
H64 H -0.1259 1.1997 0.2377
C31 C 0.0411(3) 0.7563(2) 0.5049(3)
H65 H 0.1119 0.7531 0.4843
H66 H 0.0360 0.7344 0.5546
C32 C 0.0985(3) 0.6548(2) 0.0373(2)
H67 H 0.0908 0.6340 0.0879
C33 C -0.1153(4) 0.4410(2) 0.2807(2)
H68 H -0.0900 0.3876 0.2874
H69 H -0.1800 0.4503 0.2661
H70 H -0.1218 0.4597 0.3243
C34 C 0.3939(3) 0.7096(2) 0.6749(2)
H71 H 0.4579 0.6817 0.6851
H72 H 0.3510 0.7210 0.7181
H73 H 0.4035 0.7557 0.6435
C35 C -0.2170(4) 1.0165(2) 0.3245(2)
H74 H -0.1728 1.0403 0.2844
C36 C 0.5403(3) 0.5039(3) 0.1582(2)
H75 H 0.5335 0.5563 0.1337
C37 C 0.4360(3) 0.8461(3) -0.1535(2)
H76 H 0.4261 0.8926 -0.1878
C38 C 0.2432(3) 0.7043(2) 0.6231(2)
H77 H 0.2134 0.6736 0.6013
H78 H 0.2519 0.7504 0.5914
H79 H 0.1999 0.7157 0.6662
C39 C 0.6825(3) 0.7075(2) -0.02028(19)
H80 H 0.6132 0.7249 -0.0294
C40 C -0.0075(3) 1.1779(2) 0.1577(2)
H81 H 0.0177 1.2063 0.1119
C41 C 0.2084(3) 0.33063(19) 0.3452(2)
H82 H 0.2158 0.2932 0.3880
C42 C 0.4839(3) 0.5045(2) 0.23352(19)
H83 H 0.4135 0.5266 0.2331
H84 H 0.4875 0.4532 0.2590
C43 C 0.4655(3) 0.8644(2) -0.08922(19)
H85 H 0.4795 0.8186 -0.0558
H86 H 0.5258 0.8870 -0.1030
C44 C 0.2096(2) 0.99771(18) 0.01267(17)
H87 H 0.2238 0.9900 -0.0364
H88 H 0.1900 1.0517 0.0132
C45 C 0.1352(3) 0.39949(19) 0.36584(18)
H89 H 0.1244 0.4363 0.3239
H90 H 0.0708 0.3854 0.3888
C46 C 0.1164(3) 0.7357(2) 0.0286(2)
H91 H 0.1765 0.7364 0.0471
H92 H 0.1258 0.7575 -0.0212
C47 C 0.5455(3) 0.81875(18) 0.47970(17)
H93 H 0.4859 0.7945 0.4957
C48 C -0.0428(3) 0.48096(18) 0.22415(19)
H94 H 0.0221 0.4714 0.2408
C49 C -0.1824(3) 0.9322(2) 0.3374(2)
H95 H -0.1174 0.9207 0.3529
H96 H -0.2302 0.9089 0.3743
C50 C -0.0370(3) 1.10711(19) 0.14435(19)
H97 H -0.0565 1.0756 0.1890
H98 H -0.0937 1.1206 0.1191
C51 C 0.6786(3) 0.6934(2) 0.05933(18)
H99 H 0.6368 0.6557 0.0813
H100 H 0.7459 0.6747 0.0705
C52 C 0.4886(2) 0.55647(17) 0.33647(16)
C53 C 0.6216(2) 0.69559(17) 0.27870(16)
C54 C 0.2776(2) 0.50265(17) 0.48520(16)
H101 H 0.2912 0.4496 0.4801
H102 H 0.2721 0.5053 0.5350
C55 C 0.3981(3) 0.96238(19) 0.13994(17)
C56 C 0.4804(2) 0.91047(17) 0.03614(16)
H103 H 0.5379 0.8859 0.0101
C57 C 0.5849(2) 0.90479(17) 0.12984(17)
H104 H 0.5914 0.9453 0.1532
H105 H 0.6395 0.9014 0.0899
C58 C 0.1326(2) 0.61129(17) 0.47565(17)
H106 H 0.1655 0.6368 0.4983
C59 C 0.5632(3) 0.83342(18) 0.39957(17)
H107 H 0.5050 0.8664 0.3828
H108 H 0.6214 0.8581 0.3819
C60 C 0.3447(3) 0.66183(19) 0.63957(18)
H109 H 0.3349 0.6149 0.6721
C61 C 0.6368(2) 0.62252(17) 0.33034(16)
H110 H 0.6740 0.6294 0.3652
H111 H 0.6778 0.5833 0.3048
C62 C -0.1496(2) 0.82566(17) 0.27587(17)
C63 C 0.3107(2) 0.9851(2) 0.11073(17)
H112 H 0.2539 1.0110 0.1361
C64 C -0.1416(2) 0.85464(17) 0.14262(16)
H113 H -0.1987 0.8949 0.1508
H114 H -0.1549 0.8280 0.1080
C65 C -0.0478(2) 0.88955(17) 0.11187(16)
C66 C -0.0781(3) 0.56593(18) 0.21136(17)
H115 H -0.0302 0.5897 0.1748
H116 H -0.1430 0.5775 0.1958
C67 C 0.1279(2) 0.50216(16) 0.42702(15)
C68 C 0.1191(2) 0.88611(18) 0.04172(16)
H117 H 0.1739 0.8600 0.0146
C69 C 0.0401(2) 0.64625(17) 0.45664(17)
C70 C 0.4038(2) 0.52835(17) 0.37417(16)
H118 H 0.3713 0.5017 0.3523
C71 C 0.6364(2) 0.69458(17) 0.20624(17)
H119 H 0.6547 0.6485 0.1897
C72 C 0.4147(2) 0.64215(18) 0.57268(17)
H120 H 0.4231 0.6878 0.5391
H121 H 0.4804 0.6171 0.5837
C73 C 0.5944(2) 0.76516(17) 0.30201(16)
C74 C -0.1203(2) 0.69669(16) 0.33825(16)
C75 C -0.1069(2) 0.67124(16) 0.27373(16)
C76 C 0.3918(2) 0.93087(17) 0.00756(16)
C77 C 0.6243(2) 0.76132(18) 0.15781(16)
C78 C 0.3054(2) 0.96997(17) 0.04407(16)
C79 C 0.0364(2) 0.85096(17) 0.07254(17)
C80 C 0.5398(2) 0.59554(16) 0.36880(16)
C81 C -0.1164(2) 0.64185(17) 0.40754(16)
H122 H -0.1538 0.6681 0.4460
H123 H -0.1507 0.6009 0.4063
C82 C 0.5828(2) 0.83185(18) 0.25378(17)
H124 H 0.5653 0.8779 0.2704
C83 C 0.5009(2) 0.60748(16) 0.43751(16)
H125 H 0.5335 0.6339 0.4594
C84 C -0.1341(2) 0.80020(16) 0.21126(16)
C85 C 0.4857(2) 0.92555(16) 0.10202(16)
C86 C 0.3661(2) 0.53900(16) 0.44402(16)
C87 C 0.1776(2) 0.53911(17) 0.46171(15)
C88 C -0.1134(2) 0.72238(17) 0.21152(17)
H126 H -0.1036 0.7042 0.1689
C89 C 0.5969(2) 0.83110(17) 0.18126(17)
C90 C 0.0393(2) 0.99629(17) 0.09280(16)
C91 C 0.0338(2) 0.53652(17) 0.40952(16)
H127 H 0.0006 0.5106 0.3875
C92 C -0.0446(2) 0.96218(17) 0.12143(16)
H128 H -0.1000 0.9887 0.1476
C93 C -0.0119(2) 0.60807(17) 0.42396(15)
C94 C 0.1214(2) 0.95935(17) 0.05065(16)
C95 C 0.4142(2) 0.58103(16) 0.47485(15)
C96 C -0.1420(2) 0.77436(17) 0.33819(17)
H129 H -0.1517 0.7925 0.3808
C97 C -0.3281(5) 1.0335(4) 0.3104(4)
H130 H -0.3305 1.0153 0.2680
H131 H -0.3522 1.0871 0.3050
H132 H -0.3699 1.0086 0.3497
N1 N 0.2996(6) 0.8125(6) 0.4487(6)
C6 C 0.3298(6) 0.7490(5) 0.3457(6)
C7 C 0.3141(6) 0.7853(5) 0.4042(7)
N2 N 0.2098(6) 0.5333(6) 0.1888(5)
C4 C 0.1655(7) 0.6438(8) 0.2569(6)
C5 C 0.1917(6) 0.5785(7) 0.2181(5)
C2 C 0.0953(10) 0.882(2) 0.2634(10)
N4 N 0.071(3) 0.9594(19) 0.2880(15)
C3 C 0.143(2) 0.8481(10) 0.2347(11)
C1? C 0.3966(7) 0.7051(7) 0.0725(11)
N3? N 0.059(3) 0.9771(18) 0.3067(15)
N5? N 0.4161(6) 0.6720(5) 0.0420(4)
C98? C 0.3879(8) 0.7039(7) 0.1916(8)
C99? C 0.378(3) 1.041(4) 0.334(3)
C100? C 0.3222(12) 0.9847(9) 0.3267(10)
C101? C 0.3800(9) 0.7465(8) 0.1336(9)
C102? C 0.3041(8) 0.7743(7) 0.1372(8)
C103? C 0.2138(14) 0.9920(13) 0.3737(9)
H133? H 0.4443 1.0331 0.3060
H134? H 0.3841 1.0376 0.3827
H135? H 0.3434 1.0909 0.3177
H136? H 0.3606 0.9340 0.3387
H137? H 0.1784 0.9558 0.3645
H138? H 0.2202 0.9825 0.4229
H139? H 0.1770 1.0421 0.3623
loop_
_geom_bond_atom_site_label_1
_geom_bond_atom_site_label_2
_geom_bond_site_symmetry_1
_geom_bond_site_symmetry_2
O1 C17 1_555 1_555
N1 C7 1_555 1_555
O2 C31 1_555 1_555
N2 C5 1_555 1_555
C2 N4 1_555 1_555
O3 C49 1_555 1_555
C3 C2 1_555 1_555
O4 C43 1_555 1_555
O5 C46 1_555 1_555
C4 C5 1_555 1_555
O6 C42 1_555 1_555
O7 C66 1_555 1_555
C6 C7 1_555 1_555
O8 C51 1_555 1_555
O9 C45 1_555 1_555
C8 H1 1_555 1_555
H2 C8 1_555 1_555
H3 C8 1_555 1_555
C9 H4 1_555 1_555
H5 C9 1_555 1_555
H6 C9 1_555 1_555
O10 C50 1_555 1_555
O11 C72 1_555 1_555
O12 C59 1_555 1_555
C10 H7 1_555 1_555
H8 C10 1_555 1_555
H9 C10 1_555 1_555
C11 H10 1_555 1_555
C12 C11 1_555 1_555
H11 C12 1_555 1_555
H12 C12 1_555 1_555
H13 C12 1_555 1_555
C13 H14 1_555 1_555
H15 C13 1_555 1_555
H16 C13 1_555 1_555
C14 H17 1_555 1_555
H18 C14 1_555 1_555
H19 C14 1_555 1_555
C15 H20 1_555 1_555
H21 C15 1_555 1_555
H22 C15 1_555 1_555
C16 C8 1_555 1_555
H23 C16 1_555 1_555
C17 C16 1_555 1_555
H24 C17 1_555 1_555
H25 C17 1_555 1_555
C18 H26 1_555 1_555
H27 C18 1_555 1_555
H28 C18 1_555 1_555
C19 H29 1_555 1_555
H30 C19 1_555 1_555
H31 C19 1_555 1_555
C20 H32 1_555 1_555
H33 C20 1_555 1_555
H34 C20 1_555 1_555
C21 C11 1_555 1_555
H35 C21 1_555 1_555
H36 C21 1_555 1_555
H37 C21 1_555 1_555
C22 H38 1_555 1_555
H39 C22 1_555 1_555
H40 C22 1_555 1_555
C23 H41 1_555 1_555
H42 C23 1_555 1_555
H43 C23 1_555 1_555
C24 H44 1_555 1_555
H45 C24 1_555 1_555
H46 C24 1_555 1_555
C25 H47 1_555 1_555
H48 C25 1_555 1_555
H49 C25 1_555 1_555
C26 H50 1_555 1_555
H51 C26 1_555 1_555
H52 C26 1_555 1_555
C27 H53 1_555 1_555
H54 C27 1_555 1_555
H55 C27 1_555 1_555
C28 H56 1_555 1_555
H57 C28 1_555 1_555
H58 C28 1_555 1_555
C29 H59 1_555 1_555
H60 C29 1_555 1_555
H61 C29 1_555 1_555
C30 H62 1_555 1_555
H63 C30 1_555 1_555
H64 C30 1_555 1_555
C31 C11 1_555 1_555
H65 C31 1_555 1_555
H66 C31 1_555 1_555
C32 C15 1_555 1_555
H67 C32 1_555 1_555
C33 H68 1_555 1_555
H69 C33 1_555 1_555
H70 C33 1_555 1_555
C34 H71 1_555 1_555
H72 C34 1_555 1_555
H73 C34 1_555 1_555
C35 C13 1_555 1_555
H74 C35 1_555 1_555
C36 C10 1_555 1_555
H75 C36 1_555 1_555
C37 C18 1_555 1_555
H76 C37 1_555 1_555
C38 H77 1_555 1_555
H78 C38 1_555 1_555
H79 C38 1_555 1_555
C39 C14 1_555 1_555
H80 C39 1_555 1_555
C40 C19 1_555 1_555
H81 C40 1_555 1_555
C41 C27 1_555 1_555
H82 C41 1_555 1_555
C42 C36 1_555 1_555
H83 C42 1_555 1_555
H84 C42 1_555 1_555
C43 C37 1_555 1_555
H85 C43 1_555 1_555
H86 C43 1_555 1_555
C44 H87 1_555 1_555
H88 C44 1_555 1_555
C45 C41 1_555 1_555
H89 C45 1_555 1_555
H90 C45 1_555 1_555
C46 C32 1_555 1_555
H91 C46 1_555 1_555
H92 C46 1_555 1_555
C47 C22 1_555 1_555
H93 C47 1_555 1_555
C48 C26 1_555 1_555
H94 C48 1_555 1_555
C49 C35 1_555 1_555
H95 C49 1_555 1_555
H96 C49 1_555 1_555
C50 C40 1_555 1_555
H97 C50 1_555 1_555
H98 C50 1_555 1_555
C51 C39 1_555 1_555
H99 C51 1_555 1_555
H100 C51 1_555 1_555
C52 O6 1_555 1_555
C53 C61 1_555 1_555
C54 H101 1_555 1_555
H102 C54 1_555 1_555
C55 O1 1_555 1_555
C56 H103 1_555 1_555
C57 H104 1_555 1_555
H105 C57 1_555 1_555
C58 H106 1_555 1_555
C59 C47 1_555 1_555
H107 C59 1_555 1_555
H108 C59 1_555 1_555
C60 C34 1_555 1_555
H109 C60 1_555 1_555
C61 H110 1_555 1_555
H111 C61 1_555 1_555
C62 O3 1_555 1_555
C63 C55 1_555 1_555
H112 C63 1_555 1_555
C64 H113 1_555 1_555
H114 C64 1_555 1_555
C65 C64 1_555 1_555
C66 C48 1_555 1_555
H115 C66 1_555 1_555
H116 C66 1_555 1_555
C67 O9 1_555 1_555
C68 H117 1_555 1_555
C69 O2 1_555 1_555
C70 C52 1_555 1_555
H118 C70 1_555 1_555
C71 C53 1_555 1_555
H119 C71 1_555 1_555
C72 C60 1_555 1_555
H120 C72 1_555 1_555
H121 C72 1_555 1_555
C73 O12 1_555 1_555
C74 C75 1_555 1_555
C75 O7 1_555 1_555
C76 O4 1_555 1_555
C77 O8 1_555 1_555
C78 C44 1_555 1_555
C79 O5 1_555 1_555
C80 C52 1_555 1_555
C81 C74 1_555 1_555
H122 C81 1_555 1_555
H123 C81 1_555 1_555
C82 C73 1_555 1_555
H124 C82 1_555 1_555
C83 C80 1_555 1_555
H125 C83 1_555 1_555
C84 C62 1_555 1_555
C85 C55 1_555 1_555
C86 C54 1_555 1_555
C87 C54 1_555 1_555
C88 C75 1_555 1_555
H126 C88 1_555 1_555
C89 C57 1_555 1_555
C90 O10 1_555 1_555
C91 C67 1_555 1_555
H127 C91 1_555 1_555
C92 C65 1_555 1_555
H128 C92 1_555 1_555
C93 C69 1_555 1_555
C94 C44 1_555 1_555
C95 O11 1_555 1_555
C96 C62 1_555 1_555
H129 C96 1_555 1_555
C97 C35 1_555 1_555
H130 C97 1_555 1_555
H131 C97 1_555 1_555
H132 C97 1_555 1_555
C9 C16 1_555 1_555
C20 C37 1_555 1_555
C23 C36 1_555 1_555
C24 C39 1_555 1_555
C25 C32 1_555 1_555
C28 C41 1_555 1_555
C29 C47 1_555 1_555
C30 C40 1_555 1_555
C33 C48 1_555 1_555
C38 C60 1_555 1_555
C53 C73 1_555 1_555
C56 C76 1_555 1_555
C56 C85 1_555 1_555
C57 C85 1_555 1_555
C58 C69 1_555 1_555
C58 C87 1_555 1_555
C61 C80 1_555 1_555
C63 C78 1_555 1_555
C64 C84 1_555 1_555
C65 C79 1_555 1_555
C67 C87 1_555 1_555
C68 C79 1_555 1_555
C68 C94 1_555 1_555
C70 C86 1_555 1_555
C71 C77 1_555 1_555
C74 C96 1_555 1_555
C76 C78 1_555 1_555
C77 C89 1_555 1_555
C81 C93 1_555 1_555
C82 C89 1_555 1_555
C83 C95 1_555 1_555
C84 C88 1_555 1_555
C86 C95 1_555 1_555
C90 C92 1_555 1_555
C90 C94 1_555 1_555
C91 C93 1_555 1_555

#END
