
#######################################################################
#
#                 Cambridge Crystallographic Data Centre
#                                CCDC 
#
#######################################################################
#
# If this CIF has been generated from an entry in the Cambridge 
# Structural Database, then it will include bibliographic, chemical, 
# crystal, experimental, refinement or atomic coordinate data resulting 
# from the CCDC's data processing and validation procedures.
#
#######################################################################

data_INOPIM
_chemical_formula_moiety         'C8 H1 F4 O4 1-,C6 H5 N2 1+'
_chemical_name_systematic        
'3-cyanopyridin-1-ium 4-carboxy-2,3,5,6-tetrafluorobenzoate'
_symmetry_cell_setting           orthorhombic
_symmetry_space_group_name_H-M   'P 21 21 21'
_symmetry_Int_Tables_number      19
_space_group_name_Hall           'P 2ac 2ab'
loop_
_symmetry_equiv_pos_site_id
_symmetry_equiv_pos_as_xyz
1 x,y,z
2 1/2-x,-y,1/2+z
3 1/2+x,1/2-y,-z
4 -x,1/2+y,1/2-z
_cell_length_a                   7.1720(4)
_cell_length_b                   9.7204(4)
_cell_length_c                   19.2500(9)
_cell_angle_alpha                90
_cell_angle_beta                 90
_cell_angle_gamma                90
_cell_volume                     1342.01
_exptl_crystal_colour            colorless
_exptl_crystal_description       block
_cell_formula_units_Z            4
loop_
_atom_site_label
_atom_site_type_symbol
_atom_site_fract_x
_atom_site_fract_y
_atom_site_fract_z
F1 F 0.5933(3) 0.60196(17) 0.62998(9)
F2 F 0.7936(3) 0.41135(16) 0.37617(8)
F3 F 0.5395(3) 0.33885(16) 0.59951(9)
F4 F 0.8381(3) 0.67552(17) 0.40564(9)
O1 O 0.8065(3) 0.8360(2) 0.59030(12)
O2 O 0.5621(3) 0.1810(2) 0.41525(11)
O3 O 0.6802(3) 0.87859(19) 0.48600(11)
H1 H 0.6953 0.9592 0.4972
O4 O 0.7021(3) 0.13251(19) 0.51553(11)
C1 C 0.7615(4) 0.5950(3) 0.45409(14)
C2 C 0.6390(4) 0.2138(3) 0.47087(15)
C3 C 0.7403(4) 0.7986(3) 0.53579(15)
C4 C 0.6432(4) 0.5572(3) 0.56668(15)
C5 C 0.6178(4) 0.4202(3) 0.55079(15)
C6 C 0.7151(4) 0.6484(3) 0.51847(15)
C7 C 0.7381(4) 0.4572(3) 0.43916(14)
C8 C 0.6642(4) 0.3662(3) 0.48687(15)
C9 C 0.1994(5) 0.4730(3) 0.25792(15)
N1 N 0.4072(4) 0.3289(3) 0.31703(16)
C10 C 0.0398(7) 0.5620(4) 0.25842(18)
C11 C 0.4488(5) 0.3660(4) 0.1972(2)
H2 H 0.5146 0.3485 0.1565
C12 C 0.2566(5) 0.4088(3) 0.31842(16)
H3 H 0.1905 0.4212 0.3595
C13 C 0.2969(5) 0.4503(3) 0.19675(17)
H4 H 0.2589 0.4924 0.1557
C14 C 0.5027(6) 0.3073(4) 0.2588(2)
H5 H 0.6080 0.2515 0.2599
N2 N -0.0845(7) 0.6345(4) 0.25637(17)
H6 H 0.445(7) 0.278(5) 0.362(3)
loop_
_geom_bond_atom_site_label_1
_geom_bond_atom_site_label_2
_geom_bond_site_symmetry_1
_geom_bond_site_symmetry_2
F1 C4 1_555 1_555
F2 C7 1_555 1_555
F3 C5 1_555 1_555
F4 C1 1_555 1_555
O1 C3 1_555 1_555
O2 C2 1_555 1_555
O3 H1 1_555 1_555
O4 C2 1_555 1_555
C1 C6 1_555 1_555
C2 C8 1_555 1_555
C3 O3 1_555 1_555
C4 C5 1_555 1_555
C5 C8 1_555 1_555
C6 C3 1_555 1_555
C7 C1 1_555 1_555
C8 C7 1_555 1_555
C9 C10 1_555 1_555
N1 C12 1_555 1_555
C10 N2 1_555 1_555
C11 H2 1_555 1_555
C12 C9 1_555 1_555
H3 C12 1_555 1_555
C13 C9 1_555 1_555
H4 C13 1_555 1_555
C14 N1 1_555 1_555
H5 C14 1_555 1_555
H6 N1 1_555 1_555
C4 C6 1_555 1_555
C11 C13 1_555 1_555
C11 C14 1_555 1_555

#END
