
#######################################################################
#
#                 Cambridge Crystallographic Data Centre
#                                CCDC 
#
#######################################################################
#
# If this CIF has been generated from an entry in the Cambridge 
# Structural Database, then it will include bibliographic, chemical, 
# crystal, experimental, refinement or atomic coordinate data resulting 
# from the CCDC's data processing and validation procedures.
#
#######################################################################

data_INOZAO
_chemical_formula_moiety         'C22 H19 N1 O1'
_chemical_name_systematic        
11-methoxy-8,12b-dimethyl-8,12b-dihydroindeno[1,2,3-kl]acridine
_symmetry_cell_setting           orthorhombic
_symmetry_space_group_name_H-M   'P b c a'
_symmetry_Int_Tables_number      61
_space_group_name_Hall           '-P 2ac 2ab'
loop_
_symmetry_equiv_pos_site_id
_symmetry_equiv_pos_as_xyz
1 x,y,z
2 1/2-x,-y,1/2+z
3 1/2+x,1/2-y,-z
4 -x,1/2+y,1/2-z
5 -x,-y,-z
6 1/2+x,y,1/2-z
7 1/2-x,1/2+y,z
8 x,1/2-y,1/2+z
_cell_length_a                   14.2222(6)
_cell_length_b                   12.0292(4)
_cell_length_c                   19.1416(8)
_cell_angle_alpha                90
_cell_angle_beta                 90
_cell_angle_gamma                90
_cell_volume                     3274.78
_exptl_crystal_colour            'light yellow'
_exptl_crystal_description       block
_cell_formula_units_Z            8
loop_
_atom_site_label
_atom_site_type_symbol
_atom_site_fract_x
_atom_site_fract_y
_atom_site_fract_z
C1 C 0.37251(10) 0.71103(13) 0.86373(8)
C2 C 0.32608(11) 0.81252(14) 0.85427(10)
H1 H 0.3160 0.8596 0.8921
C3 C 0.29533(12) 0.84230(15) 0.78822(10)
H2 H 0.2679 0.9118 0.7822
C4 C 0.30364(11) 0.77314(14) 0.73083(10)
H3 H 0.2785 0.7929 0.6877
C5 C 0.35098(10) 0.67279(12) 0.73995(8)
C6 C 0.36867(10) 0.57596(13) 0.69507(8)
C7 C 0.34199(12) 0.55571(16) 0.62618(9)
H4 H 0.3068 0.6077 0.6015
C8 C 0.36874(13) 0.45704(17) 0.59517(9)
H5 H 0.3505 0.4422 0.5495
C9 C 0.42207(12) 0.38023(15) 0.63097(9)
H6 H 0.4403 0.3148 0.6089
C10 C 0.44887(11) 0.39951(13) 0.69989(8)
H7 H 0.4854 0.3478 0.7237
C11 C 0.42044(10) 0.49661(12) 0.73253(7)
C12 C 0.44438(10) 0.54130(12) 0.80530(7)
C13 C 0.38986(10) 0.64888(12) 0.80462(8)
C14 C 0.55165(10) 0.56330(14) 0.81016(8)
H8 H 0.5850 0.4942 0.8064
H9 H 0.5659 0.5976 0.8542
H10 H 0.5705 0.6118 0.7729
C15 C 0.41359(9) 0.48036(13) 0.87110(7)
C16 C 0.40803(10) 0.36528(12) 0.87494(8)
H11 H 0.4205 0.3228 0.8354
C17 C 0.38413(11) 0.31295(13) 0.93681(8)
C18 C 0.36687(11) 0.37636(14) 0.99571(8)
H12 H 0.3516 0.3416 1.0376
C19 C 0.37208(11) 0.49038(15) 0.99284(8)
H13 H 0.3600 0.5317 1.0329
C20 C 0.39512(10) 0.54512(13) 0.93099(8)
C21 C 0.38631(16) 0.13145(15) 0.88542(11)
H14 H 0.3413 0.1526 0.8504
H15 H 0.3765 0.0551 0.8981
H16 H 0.4487 0.1404 0.8672
C22 C 0.38458(13) 0.72729(15) 0.99138(9)
H17 H 0.4034 0.8030 0.9838
H18 H 0.4216 0.6957 1.0284
H19 H 0.3193 0.7251 1.0040
N1 N 0.39899(9) 0.66371(11) 0.92765(6)
O1 O 0.37495(10) 0.19989(10) 0.94527(6)
loop_
_geom_bond_atom_site_label_1
_geom_bond_atom_site_label_2
_geom_bond_site_symmetry_1
_geom_bond_site_symmetry_2
C1 C2 1_555 1_555
C2 H1 1_555 1_555
C3 C2 1_555 1_555
H2 C3 1_555 1_555
C4 C3 1_555 1_555
H3 C4 1_555 1_555
C5 C4 1_555 1_555
C6 C5 1_555 1_555
C7 C6 1_555 1_555
H4 C7 1_555 1_555
C8 C7 1_555 1_555
H5 C8 1_555 1_555
C9 C8 1_555 1_555
H6 C9 1_555 1_555
C10 C9 1_555 1_555
H7 C10 1_555 1_555
C11 C6 1_555 1_555
C12 C11 1_555 1_555
C13 C1 1_555 1_555
C14 C12 1_555 1_555
H8 C14 1_555 1_555
H9 C14 1_555 1_555
H10 C14 1_555 1_555
C15 C12 1_555 1_555
C16 C15 1_555 1_555
H11 C16 1_555 1_555
C17 C16 1_555 1_555
C18 C17 1_555 1_555
H12 C18 1_555 1_555
C19 C18 1_555 1_555
H13 C19 1_555 1_555
C20 C15 1_555 1_555
C21 H14 1_555 1_555
H15 C21 1_555 1_555
H16 C21 1_555 1_555
C22 H17 1_555 1_555
H18 C22 1_555 1_555
H19 C22 1_555 1_555
N1 C1 1_555 1_555
O1 C17 1_555 1_555
C5 C13 1_555 1_555
C10 C11 1_555 1_555
C12 C13 1_555 1_555
C19 C20 1_555 1_555
C20 N1 1_555 1_555
C21 O1 1_555 1_555
C22 N1 1_555 1_555

#END
