
#######################################################################
#
#                 Cambridge Crystallographic Data Centre
#                                CCDC 
#
#######################################################################
#
# If this CIF has been generated from an entry in the Cambridge 
# Structural Database, then it will include bibliographic, chemical, 
# crystal, experimental, refinement or atomic coordinate data resulting 
# from the CCDC's data processing and validation procedures.
#
#######################################################################

data_INUGON
_chemical_formula_moiety         'C6 H4 I2 O2 S1'
_chemical_name_systematic        2,5-bis(Iodo)-3,4-ethylenedioxythiophene
_symmetry_cell_setting           monoclinic
_symmetry_space_group_name_H-M   'P 21/c'
_symmetry_Int_Tables_number      14
_space_group_name_Hall           '-P 2ybc'
loop_
_symmetry_equiv_pos_site_id
_symmetry_equiv_pos_as_xyz
1 x,y,z
2 x,1/2-y,1/2+z
3 -x,-y,-z
4 -x,1/2+y,1/2-z
_cell_length_a                   11.432(3)
_cell_length_b                   4.9022(14)
_cell_length_c                   15.932(5)
_cell_angle_alpha                90
_cell_angle_beta                 96.396(6)
_cell_angle_gamma                90
_cell_volume                     887.303
_exptl_crystal_colour            colorless
_exptl_crystal_description       platelet
_chemical_melting_point          185-188deg.C.(dec.)
_cell_formula_units_Z            4
loop_
_atom_site_label
_atom_site_type_symbol
_atom_site_fract_x
_atom_site_fract_y
_atom_site_fract_z
I1 I 0.82426(3) 0.06109(5) 0.561099(18)
I2 I 0.84410(3) 0.90450(6) 0.247181(18)
S1 S 0.90046(10) 0.4740(2) 0.40924(7)
O1 O 0.5788(3) 0.3025(6) 0.44786(18)
O2 O 0.5881(3) 0.6939(6) 0.31154(18)
C1 C 0.6814(4) 0.3922(8) 0.4226(3)
C2 C 0.7913(4) 0.3166(9) 0.4570(3)
C3 C 0.7981(4) 0.6462(9) 0.3408(3)
C4 C 0.6867(4) 0.5860(8) 0.3551(3)
C5 C 0.4857(4) 0.6588(10) 0.3569(3)
H1 H 0.4149 0.7026 0.3199
H2 H 0.4907 0.7822 0.4047
C6 C 0.4791(4) 0.3672(10) 0.3875(3)
H3 H 0.4070 0.3420 0.4135
H4 H 0.4772 0.2439 0.3398
loop_
_geom_bond_atom_site_label_1
_geom_bond_atom_site_label_2
_geom_bond_site_symmetry_1
_geom_bond_site_symmetry_2
I1 C2 1_555 1_555
I2 C3 1_555 1_555
S1 C2 1_555 1_555
O1 C1 1_555 1_555
O2 C4 1_555 1_555
C1 C2 1_555 1_555
C3 S1 1_555 1_555
C4 C1 1_555 1_555
C5 O2 1_555 1_555
H1 C5 1_555 1_555
H2 C5 1_555 1_555
C6 O1 1_555 1_555
H3 C6 1_555 1_555
H4 C6 1_555 1_555
C3 C4 1_555 1_555
C5 C6 1_555 1_555

#END
