
#######################################################################
#
#                 Cambridge Crystallographic Data Centre
#                                CCDC 
#
#######################################################################
#
# If this CIF has been generated from an entry in the Cambridge 
# Structural Database, then it will include bibliographic, chemical, 
# crystal, experimental, refinement or atomic coordinate data resulting 
# from the CCDC's data processing and validation procedures.
#
#######################################################################

data_INUGAZ
_chemical_formula_moiety         'C31 H46 N4 O5'
_chemical_name_systematic        
"N',N'-(2-Octyloxybenzoyl) carbonic dihydrazide"
_symmetry_cell_setting           triclinic
_symmetry_space_group_name_H-M   'P -1'
_symmetry_Int_Tables_number      2
_space_group_name_Hall           '-P 1'
loop_
_symmetry_equiv_pos_site_id
_symmetry_equiv_pos_as_xyz
1 x,y,z
2 -x,-y,-z
_cell_length_a                   9.3928(13)
_cell_length_b                   9.5527(14)
_cell_length_c                   18.941(3)
_cell_angle_alpha                76.966(3)
_cell_angle_beta                 78.834(3)
_cell_angle_gamma                74.785(3)
_cell_volume                     1581.26
_exptl_crystal_colour            colorless
_chemical_melting_point          108-109deg.C
_cell_formula_units_Z            2
_exptl_crystal_recrystallization_method chloroform
loop_
_atom_site_label
_atom_site_type_symbol
_atom_site_fract_x
_atom_site_fract_y
_atom_site_fract_z
N1 N 0.9272(4) 0.2779(4) 0.4344(2)
N2 N 0.8333(3) 0.1823(4) 0.44805(16)
H1 H 0.8380 0.1086 0.4839
N3 N 0.6503(3) 0.1078(4) 0.41289(17)
H2 H 0.6684 0.0272 0.4443
N4 N 0.5357(4) 0.1420(5) 0.3707(2)
O1 O 0.9862(3) 0.5343(3) 0.37193(14)
O2 O 1.0723(3) 0.1323(3) 0.51487(15)
O3 O 0.7145(3) 0.3235(3) 0.35249(15)
O4 O 0.4557(3) -0.0592(3) 0.42887(16)
O5 O 0.3867(3) 0.3193(3) 0.26962(14)
C1 C 1.1102(4) 0.4966(5) 0.4058(2)
C2 C 1.2072(5) 0.5891(6) 0.3952(3)
C3 C 1.3327(6) 0.5445(7) 0.4290(3)
C4 C 1.3636(5) 0.4113(6) 0.4736(3)
C5 C 1.2656(5) 0.3207(6) 0.4851(3)
C6 C 1.1373(4) 0.3601(5) 0.4516(2)
C7 C 1.0441(4) 0.2475(5) 0.4699(2)
C8 C 0.7325(4) 0.2135(5) 0.4004(2)
C9 C 0.4397(4) 0.0552(5) 0.3825(2)
C10 C 0.3153(4) 0.1025(5) 0.3374(2)
C11 C 0.2170(5) 0.0092(5) 0.3520(3)
C12 C 0.0943(5) 0.0413(6) 0.3166(3)
C13 C 0.0652(5) 0.1697(6) 0.2664(3)
C14 C 0.1603(5) 0.2663(6) 0.2491(3)
C15 C 0.2858(4) 0.2307(5) 0.2850(2)
C16 C 0.9401(5) 0.6829(5) 0.3328(3)
C17 C 0.8017(6) 0.6956(6) 0.3032(4)
C18 C 0.7509(6) 0.8470(6) 0.2566(3)
C19 C 0.6199(6) 0.8552(6) 0.2179(3)
C20 C 0.5764(7) 1.0010(7) 0.1664(3)
C21 C 0.4416(8) 1.0082(7) 0.1316(4)
C22 C 0.3999(6) 1.1446(6) 0.0766(3)
H3 H 0.4833 1.1503 0.0377
H4 H 0.3822 1.2295 0.0999
C23 C 0.2634(6) 1.1531(7) 0.0434(3)
H5 H 0.2799 1.0700 0.0199
H6 H 0.2443 1.2427 0.0080
H7 H 0.1791 1.1520 0.0813
C24 C 0.3568(6) 0.4566(6) 0.2196(3)
C25 C 0.4893(7) 0.5245(6) 0.2124(4)
C26 C 0.6349(6) 0.4404(6) 0.1773(3)
H8 H 0.7147 0.4808 0.1843
H9 H 0.6518 0.3385 0.2025
C27 C 0.6440(8) 0.4432(8) 0.0983(4)
H10 H 0.6261 0.5455 0.0735
H11 H 0.5639 0.4029 0.0917
C28 C 0.7912(10) 0.3592(12) 0.0602(6)
C29 C 0.7919(10) 0.3786(13) -0.0188(5)
H12 H 0.7084 0.3431 -0.0252
H13 H 0.7703 0.4840 -0.0375
C30 C 0.9212(13) 0.3124(14) -0.0666(8)
H14 H 0.9366 0.3839 -0.1110
H15 H 1.0087 0.2896 -0.0424
C31 C 0.9076(13) 0.1833(14) -0.0856(9)
H16 H 0.8188 0.2037 -0.1077
H17 H 0.9017 0.1086 -0.0424
H18 H 0.9928 0.1492 -0.1196
H19 H 1.194(4) 0.680(4) 0.3594(19)
H20 H 1.404(4) 0.597(4) 0.412(2)
H21 H 1.447(4) 0.374(4) 0.4965(18)
H22 H 1.278(4) 0.234(4) 0.5159(18)
H23 H 0.237(3) -0.077(4) 0.3902(17)
H24 H 0.026(4) -0.030(4) 0.3305(19)
H25 H -0.028(4) 0.204(4) 0.2407(19)
H26 H 0.140(4) 0.369(5) 0.210(2)
H27 H 0.919(4) 0.750(4) 0.3660(18)
H28 H 1.025(3) 0.698(3) 0.2883(17)
H29 H 0.728(4) 0.670(4) 0.346(2)
H30 H 0.820(4) 0.625(5) 0.275(2)
H31 H 0.731(4) 0.921(4) 0.289(2)
H32 H 0.841(4) 0.858(4) 0.218(2)
H33 H 0.535(5) 0.846(5) 0.264(2)
H34 H 0.688(7) 0.780(7) 0.177(3)
H35 H 0.546(4) 1.109(5) 0.196(2)
H36 H 0.652(4) 1.014(5) 0.129(2)
H37 H 0.350(6) 1.008(6) 0.177(3)
H38 H 0.470(4) 0.920(4) 0.1103(18)
H39 H 0.254(5) 0.525(5) 0.240(2)
H40 H 0.341(4) 0.437(4) 0.1695(19)
H41 H 0.500(5) 0.532(6) 0.265(3)
H42 H 0.459(4) 0.635(5) 0.179(2)
H43 H 0.886(5) 0.383(5) 0.080(3)
H44 H 0.826(4) 0.266(4) 0.103(2)
H45 H 0.909(4) 0.359(5) 0.405(2)
H46 H 0.529(4) 0.221(4) 0.341(2)
loop_
_geom_bond_atom_site_label_1
_geom_bond_atom_site_label_2
_geom_bond_site_symmetry_1
_geom_bond_site_symmetry_2
N1 N2 1_555 1_555
N2 H1 1_555 1_555
N3 H2 1_555 1_555
N4 N3 1_555 1_555
O1 C1 1_555 1_555
O2 C7 1_555 1_555
O3 C8 1_555 1_555
O4 C9 1_555 1_555
O5 C15 1_555 1_555
C1 C2 1_555 1_555
C2 C3 1_555 1_555
C3 C4 1_555 1_555
C4 C5 1_555 1_555
C5 C6 1_555 1_555
C6 C1 1_555 1_555
C7 N1 1_555 1_555
C8 N2 1_555 1_555
C9 N4 1_555 1_555
C10 C9 1_555 1_555
C11 C10 1_555 1_555
C12 C11 1_555 1_555
C13 C12 1_555 1_555
C14 C13 1_555 1_555
C15 C10 1_555 1_555
C16 O1 1_555 1_555
C17 C16 1_555 1_555
C18 C17 1_555 1_555
C19 C18 1_555 1_555
C20 C19 1_555 1_555
C21 C20 1_555 1_555
C22 C21 1_555 1_555
H3 C22 1_555 1_555
H4 C22 1_555 1_555
C23 C22 1_555 1_555
H5 C23 1_555 1_555
H6 C23 1_555 1_555
H7 C23 1_555 1_555
C24 O5 1_555 1_555
C25 C24 1_555 1_555
C26 C25 1_555 1_555
H8 C26 1_555 1_555
H9 C26 1_555 1_555
C27 C26 1_555 1_555
H10 C27 1_555 1_555
H11 C27 1_555 1_555
C28 C27 1_555 1_555
C29 C28 1_555 1_555
H12 C29 1_555 1_555
H13 C29 1_555 1_555
C30 C29 1_555 1_555
H14 C30 1_555 1_555
H15 C30 1_555 1_555
C31 C30 1_555 1_555
H16 C31 1_555 1_555
H17 C31 1_555 1_555
H18 C31 1_555 1_555
H19 C2 1_555 1_555
H20 C3 1_555 1_555
H21 C4 1_555 1_555
H22 C5 1_555 1_555
H23 C11 1_555 1_555
H24 C12 1_555 1_555
H25 C13 1_555 1_555
H26 C14 1_555 1_555
H27 C16 1_555 1_555
H28 C16 1_555 1_555
H29 C17 1_555 1_555
H30 C17 1_555 1_555
H31 C18 1_555 1_555
H32 C18 1_555 1_555
H33 C19 1_555 1_555
H34 C19 1_555 1_555
H35 C20 1_555 1_555
H36 C20 1_555 1_555
H37 C21 1_555 1_555
H38 C21 1_555 1_555
H39 C24 1_555 1_555
H40 C24 1_555 1_555
H41 C25 1_555 1_555
H42 C25 1_555 1_555
H43 C28 1_555 1_555
H44 C28 1_555 1_555
H45 N1 1_555 1_555
H46 N4 1_555 1_555
N3 C8 1_555 1_555
C6 C7 1_555 1_555
C14 C15 1_555 1_555

#END
