
#######################################################################
#
#                 Cambridge Crystallographic Data Centre
#                                CCDC 
#
#######################################################################
#
# If this CIF has been generated from an entry in the Cambridge 
# Structural Database, then it will include bibliographic, chemical, 
# crystal, experimental, refinement or atomic coordinate data resulting 
# from the CCDC's data processing and validation procedures.
#
#######################################################################

data_INULAF
_chemical_formula_moiety         'C34 H36 N2 O5 S1'
_chemical_name_systematic        
5-Ethoxy-8-isopropyl-7-p-tosyl-2,6-diphenyl-4,6,7,8,8a,8b-hexahydropyrrolo[3,4-e]isoindole-1,3(2H,3aH)-dione
_symmetry_cell_setting           triclinic
_symmetry_space_group_name_H-M   'P -1'
_symmetry_Int_Tables_number      2
_space_group_name_Hall           '-P 1'
loop_
_symmetry_equiv_pos_site_id
_symmetry_equiv_pos_as_xyz
1 x,y,z
2 -x,-y,-z
_cell_length_a                   9.4195(18)
_cell_length_b                   10.807(2)
_cell_length_c                   16.502(3)
_cell_angle_alpha                100.707(2)
_cell_angle_beta                 90.549(2)
_cell_angle_gamma                113.410(3)
_cell_volume                     1508.24
_exptl_crystal_colour            colorless
_exptl_crystal_description       platelet
_cell_formula_units_Z            2
loop_
_atom_site_label
_atom_site_type_symbol
_atom_site_fract_x
_atom_site_fract_y
_atom_site_fract_z
S1 S 0.52343(6) 0.74177(6) 0.18614(4)
O1 O 0.9661(3) 0.7081(2) 0.28137(13)
O2 O 1.3693(3) 1.1243(2) 0.35940(13)
O3 O 1.0338(2) 1.23579(16) 0.26196(11)
O4 O 0.4552(2) 0.83728(19) 0.21329(14)
O5 O 0.4408(2) 0.62321(19) 0.12267(13)
N1 N 1.1709(2) 0.9093(2) 0.33749(12)
N2 N 0.69174(19) 0.82896(17) 0.15408(11)
C1 C 1.0599(4) 0.8678(5) 0.4673(2)
H1 H 0.9728 0.8781 0.4483
C2 C 1.0687(6) 0.8386(5) 0.5447(2)
H2 H 0.9876 0.8302 0.5779
C3 C 1.1936(5) 0.8222(4) 0.5726(2)
H3 H 1.1980 0.8012 0.6244
C4 C 1.3112(5) 0.8363(4) 0.5252(2)
H4 H 1.3977 0.8254 0.5446
C5 C 1.3054(4) 0.8670(4) 0.4473(2)
H5 H 1.3882 0.8777 0.4151
C6 C 1.1788(3) 0.8814(3) 0.41877(15)
C7 C 1.0646(3) 0.8157(2) 0.27287(15)
C8 C 1.1015(2) 0.8710(2) 0.19426(13)
H6 H 1.1359 0.8094 0.1563
C9 C 1.2413(2) 1.0102(2) 0.22148(14)
H7 H 1.3312 1.0045 0.1943
C10 C 1.2727(3) 1.0264(3) 0.31319(15)
C11 C 1.2205(3) 1.1375(2) 0.20449(15)
H8 H 1.2951 1.2197 0.2408
H9 H 1.2401 1.1458 0.1477
C12 C 1.0580(2) 1.1261(2) 0.21862(13)
C13 C 0.9391(2) 1.0070(2) 0.19070(12)
C14 C 0.9637(2) 0.8826(2) 0.14795(12)
H10 H 0.9918 0.8952 0.0921
C15 C 0.8037(2) 0.7604(2) 0.13915(13)
H11 H 0.8011 0.7121 0.1842
C16 C 0.7629(3) 0.6551(2) 0.05681(15)
H12 H 0.6619 0.5814 0.0604
C17 C 0.7461(4) 0.7127(3) -0.01853(16)
H13 H 0.8439 0.7841 -0.0249
H14 H 0.6690 0.7499 -0.0111
H15 H 0.7150 0.6402 -0.0671
C18 C 0.8795(3) 0.5900(3) 0.04560(19)
H16 H 0.9785 0.6577 0.0374
H17 H 0.8442 0.5152 -0.0018
H18 H 0.8895 0.5559 0.0941
C19 C 0.7690(2) 0.9786(2) 0.19204(13)
H19 H 0.7436 0.9945 0.2494
C20 C 0.7215(2) 1.0651(2) 0.14383(13)
C21 C 0.6595(3) 1.1532(3) 0.18157(18)
H20 H 0.6434 1.1594 0.2374
C22 C 0.6202(4) 1.2341(3) 0.1362(2)
H21 H 0.5794 1.2948 0.1625
C23 C 0.6407(3) 1.2255(3) 0.0539(2)
H22 H 0.6151 1.2803 0.0243
C24 C 0.6989(4) 1.1364(3) 0.01617(19)
H23 H 0.7110 1.1281 -0.0402
C25 C 0.7407(4) 1.0572(3) 0.06026(16)
H24 H 0.7825 0.9976 0.0333
C26 C 1.1159(6) 1.3667(4) 0.2437(4)
H25 H 1.1767 1.3819 0.1994
C27 C 1.0953(7) 1.4719(4) 0.3002(3)
H26 H 0.9864 1.4477 0.3045
H27 H 1.1401 1.5568 0.2811
H28 H 1.1455 1.4828 0.3536
C28 C 0.5640(3) 0.6828(2) 0.27268(16)
C29 C 0.6069(3) 0.7686(3) 0.34972(18)
H29 H 0.6104 0.8572 0.3573
C30 C 0.6448(4) 0.7215(4) 0.4158(2)
H30 H 0.6720 0.7785 0.4682
C31 C 0.6428(4) 0.5906(4) 0.4050(2)
C32 C 0.5991(4) 0.5070(4) 0.3279(2)
H31 H 0.5967 0.4187 0.3200
C33 C 0.5585(3) 0.5514(3) 0.2618(2)
H32 H 0.5274 0.4928 0.2099
C34 C 0.6934(7) 0.5444(4) 0.4761(3)
H33 H 0.6298 0.4485 0.4731
H34 H 0.6828 0.5974 0.5273
H35 H 0.8001 0.5575 0.4732
loop_
_geom_bond_atom_site_label_1
_geom_bond_atom_site_label_2
_geom_bond_site_symmetry_1
_geom_bond_site_symmetry_2
S1 O4 1_555 1_555
O1 C7 1_555 1_555
O2 C10 1_555 1_555
O3 C12 1_555 1_555
O5 S1 1_555 1_555
N1 C6 1_555 1_555
N2 S1 1_555 1_555
C1 H1 1_555 1_555
C2 C1 1_555 1_555
H2 C2 1_555 1_555
C3 C2 1_555 1_555
H3 C3 1_555 1_555
C4 C3 1_555 1_555
H4 C4 1_555 1_555
C5 C4 1_555 1_555
H5 C5 1_555 1_555
C6 C1 1_555 1_555
C7 N1 1_555 1_555
C8 C7 1_555 1_555
H6 C8 1_555 1_555
C9 C8 1_555 1_555
H7 C9 1_555 1_555
C10 N1 1_555 1_555
C11 C9 1_555 1_555
H8 C11 1_555 1_555
H9 C11 1_555 1_555
C12 C11 1_555 1_555
C13 C12 1_555 1_555
C14 C8 1_555 1_555
H10 C14 1_555 1_555
C15 N2 1_555 1_555
H11 C15 1_555 1_555
C16 C15 1_555 1_555
H12 C16 1_555 1_555
C17 C16 1_555 1_555
H13 C17 1_555 1_555
H14 C17 1_555 1_555
H15 C17 1_555 1_555
C18 C16 1_555 1_555
H16 C18 1_555 1_555
H17 C18 1_555 1_555
H18 C18 1_555 1_555
C19 N2 1_555 1_555
H19 C19 1_555 1_555
C20 C19 1_555 1_555
C21 C20 1_555 1_555
H20 C21 1_555 1_555
C22 C21 1_555 1_555
H21 C22 1_555 1_555
C23 C22 1_555 1_555
H22 C23 1_555 1_555
C24 C23 1_555 1_555
H23 C24 1_555 1_555
C25 C20 1_555 1_555
H24 C25 1_555 1_555
C26 O3 1_555 1_555
H25 C26 1_555 1_555
C27 C26 1_555 1_555
H26 C27 1_555 1_555
H27 C27 1_555 1_555
H28 C27 1_555 1_555
C28 S1 1_555 1_555
C29 C28 1_555 1_555
H29 C29 1_555 1_555
C30 C29 1_555 1_555
H30 C30 1_555 1_555
C31 C30 1_555 1_555
C32 C31 1_555 1_555
H31 C32 1_555 1_555
C33 C28 1_555 1_555
H32 C33 1_555 1_555
C34 C31 1_555 1_555
H33 C34 1_555 1_555
H34 C34 1_555 1_555
H35 C34 1_555 1_555
C5 C6 1_555 1_555
C9 C10 1_555 1_555
C13 C14 1_555 1_555
C13 C19 1_555 1_555
C14 C15 1_555 1_555
C24 C25 1_555 1_555
C32 C33 1_555 1_555

#END
