
#######################################################################
#
#                 Cambridge Crystallographic Data Centre
#                                CCDC 
#
#######################################################################
#
# If this CIF has been generated from an entry in the Cambridge 
# Structural Database, then it will include bibliographic, chemical, 
# crystal, experimental, refinement or atomic coordinate data resulting 
# from the CCDC's data processing and validation procedures.
#
#######################################################################

data_INUPAI
_chemical_formula_moiety         'C36 H60 O30,C28 H20 N8 O14'
_chemical_name_systematic        
"[2]-[(E)-4,4'-bis(2,4,6-trinitrophenylamino)-3,3'-dimethoxysilbene]-[\a-cyclodextrin]-rotaxane unknown solvate"
_symmetry_cell_setting           monoclinic
_symmetry_space_group_name_H-M   'P 21'
_symmetry_Int_Tables_number      4
_space_group_name_Hall           'P 2yb'
loop_
_symmetry_equiv_pos_site_id
_symmetry_equiv_pos_as_xyz
1 x,y,z
2 -x,1/2+y,-z
_cell_length_a                   13.4266(5)
_cell_length_b                   17.8128(8)
_cell_length_c                   18.4482(7)
_cell_angle_alpha                90
_cell_angle_beta                 107.410(3)
_cell_angle_gamma                90
_cell_volume                     4210.04
_exptl_crystal_colour            red
_exptl_crystal_description       tetrahedron
_cell_formula_units_Z            2
_exptl_crystal_recrystallization_method methanol/water
loop_
_atom_site_label
_atom_site_type_symbol
_atom_site_fract_x
_atom_site_fract_y
_atom_site_fract_z
O1 O 0.7575(6) 0.0908(3) 0.2650(4)
O2 O 0.7390(5) 0.1211(4) 0.4524(4)
O3 O 0.9592(6) 0.1603(4) 0.4687(5)
O4 O 0.9289(8) 0.0693(6) 0.2032(7)
O5 O 1.0709(5) 0.2580(3) 0.2545(4)
O6 O 1.1397(5) 0.2374(4) 0.4613(4)
O7 O 1.1787(6) 0.3972(4) 0.4405(4)
O8 O 1.1270(5) 0.3578(5) 0.1503(4)
O9 O 1.0898(4) 0.5438(4) 0.2121(4)
O10 O 1.1829(5) 0.5474(4) 0.4194(4)
O11 O 1.0322(7) 0.6694(4) 0.3838(5)
O12 O 0.9662(8) 0.5541(6) 0.0579(6)
O13 O 0.7418(7) 0.6922(6) 0.1484(6)
O14 O 0.8340(6) 0.7367(6) 0.3494(7)
O15 O 0.6114(6) 0.6974(6) 0.3219(6)
O16 O 0.4230(5) 0.5168(3) 0.1237(3)
O17 O 0.4159(6) 0.6152(4) 0.2957(5)
O18 O 0.3806(5) 0.4589(5) 0.3292(4)
O19 O 0.3304(7) 0.3926(5) 0.0432(5)
O20 O 0.4045(5) 0.2373(5) 0.1909(5)
O21 O 0.3886(7) 0.3072(6) 0.3740(7)
O22 O 0.5366(6) 0.1838(5) 0.4149(6)
O37 O 0.6579(5) 0.1751(3) 0.3104(4)
O38 O 0.9693(5) 0.2260(3) 0.3317(4)
O39 O 1.0661(5) 0.4573(3) 0.3007(4)
O40 O 0.8646(5) 0.6364(3) 0.2454(5)
O41 O 0.5519(5) 0.5833(4) 0.2111(4)
O42 O 0.4524(4) 0.3525(4) 0.2483(4)
O43 O 0.6586(13) 0.637(1) 0.0135(9)
O45 O 0.4703(17) 0.1890(12) 0.0761(12)
C1 C 0.7076(7) 0.1050(5) 0.3207(6)
C2 C 0.7918(8) 0.1068(6) 0.3969(6)
C3 C 0.8736(8) 0.1639(6) 0.4001(6)
C4 C 0.9164(7) 0.1568(6) 0.3314(6)
C5 C 0.8287(7) 0.1495(5) 0.2572(6)
C6 C 0.8694(11) 0.1301(7) 0.1964(6)
C7 C 1.0706(7) 0.2256(5) 0.3239(5)
C8 C 1.1389(9) 0.2702(6) 0.3906(5)
C9 C 1.1080(8) 0.3531(6) 0.3861(6)
C10 C 1.1064(7) 0.3824(5) 0.3073(5)
C11 C 1.0312(7) 0.3339(4) 0.2431(5)
C12 C 1.0304(6) 0.3563(6) 0.1684(5)
C13 C 1.1309(6) 0.5153(5) 0.2861(5)
C14 C 1.1364(8) 0.5765(6) 0.3451(5)
C15 C 1.0281(8) 0.6072(6) 0.3353(6)
C16 C 0.9736(8) 0.6286(6) 0.2523(6)
C17 C 0.9854(6) 0.5719(5) 0.1949(5)
C18 C 0.961(1) 0.6023(4) 0.1175(7)
C19 C 0.8154(11) 0.7032(9) 0.2202(8)
C20 C 0.7592(11) 0.7294(9) 0.2775(7)
C21 C 0.6759(8) 0.6701(6) 0.2782(6)
C22 C 0.6051(8) 0.6482(6) 0.2016(6)
C23 C 0.663(1) 0.6364(8) 0.1470(8)
C24 C 0.6076(9) 0.6498(9) 0.0676(8)
C25 C 0.4439(8) 0.5740(4) 0.1785(5)
C26 C 0.3947(9) 0.5572(6) 0.2408(6)
C27 C 0.4332(8) 0.4817(6) 0.2743(6)
C28 C 0.4081(8) 0.4208(6) 0.2117(6)
C29 C 0.4624(7) 0.4442(4) 0.1526(5)
C30 C 0.4316(7) 0.3954(6) 0.0848(7)
C31 C 0.3857(8) 0.2906(6) 0.2413(6)
C32 C 0.4074(11) 0.2552(8) 0.3220(7)
C33 C 0.5185(9) 0.2287(7) 0.3478(7)
C34 C 0.5449(9) 0.1795(7) 0.2906(7)
C35 C 0.5084(7) 0.2090(6) 0.2121(6)
C36 C 0.5276(18) 0.1730(12) 0.1355(15)
H1 H 0.6543(7) 0.0650(5) 0.3179(6)
H2 H 0.8302(8) 0.0579(6) 0.4059(6)
H3 H 0.8362(8) 0.2126(6) 0.3992(6)
H4 H 0.9628(7) 0.1122(6) 0.3348(6)
H5 H 0.7942(7) 0.1998(5) 0.2490(6)
H6 H 0.9064(11) 0.1738(7) 0.1824(6)
H7 H 0.8078(11) 0.1165(7) 0.1524(6)
H8 H 1.0990(7) 0.1738(5) 0.3233(5)
H9 H 1.2124(9) 0.2690(6) 0.3884(5)
H10 H 1.0378(8) 0.3567(6) 0.3942(6)
H11 H 1.1783(7) 0.3808(5) 0.3019(5)
H12 H 0.9601(7) 0.3406(4) 0.2491(5)
H13 H 0.9859(6) 0.3191(6) 0.1324(5)
H14 H 0.9982(6) 0.4073(6) 0.1576(5)
H15 H 1.2024(6) 0.4964(5) 0.2898(5)
H16 H 1.1820(8) 0.6183(6) 0.3376(5)
H17 H 0.9869(8) 0.5665(6) 0.3502(6)
H18 H 1.0087(8) 0.6750(6) 0.2415(6)
H19 H 0.9368(6) 0.5293(5) 0.1948(5)
H20 H 1.011(1) 0.6441(4) 0.1195(7)
H21 H 0.888(1) 0.6227(4) 0.1030(7)
H22 H 0.8648(11) 0.7421(9) 0.2121(8)
H23 H 0.7159(8) 0.6239(6) 0.3003(6)
H24 H 0.5567(8) 0.6908(6) 0.1802(6)
H25 H 0.690(1) 0.5841(8) 0.1587(8)
H26 H 0.5891(9) 0.7040(9) 0.0695(8)
H27 H 0.4115(8) 0.6202(4) 0.1502(5)
H28 H 0.3170(9) 0.5538(6) 0.2200(6)
H29 H 0.5099(8) 0.4868(6) 0.2995(6)
H30 H 0.3313(8) 0.4147(6) 0.1874(6)
H31 H 0.5392(7) 0.4425(4) 0.1788(5)
H32 H 0.4545(7) 0.3431(6) 0.1017(7)
H33 H 0.4699(7) 0.4134(6) 0.0493(7)
H34 H 0.3128(8) 0.3101(6) 0.2208(6)
H35 H 0.3598(11) 0.2115(8) 0.3198(7)
H36 H 0.5620(9) 0.2752(7) 0.3543(7)
H37 H 0.5117(9) 0.1296(7) 0.2929(7)
H38 H 0.5603(7) 0.2497(6) 0.2136(6)
H57 H 1.1758(5) 0.4892(4) 0.4138(4)
H58 H 0.7220(5) 0.1588(4) 0.4477(4)
O23 O 0.7567(5) 0.3687(4) 0.5275(4)
O24 O 1.0214(6) 0.4688(4) 0.5510(5)
O25 O 1.0007(6) 0.3493(4) 0.5571(4)
O26 O 1.0255(7) 0.3081(5) 0.8309(5)
O27 O 0.9010(8) 0.3605(6) 0.8681(5)
O28 O 0.6866(6) 0.5458(4) 0.7251(4)
O29 O 0.7310(5) 0.6047(3) 0.6340(4)
O30 O 0.7343(6) 0.4280(4) -0.0731(4)
O31 O 0.4757(8) 0.3218(6) -0.0889(5)
O32 O 0.4844(7) 0.4406(6) -0.1033(6)
O33 O 0.4452(6) 0.4786(5) -0.3764(5)
O34 O 0.5759(6) 0.4413(5) -0.4116(4)
O35 O 0.7940(6) 0.2465(5) -0.2771(5)
O36 O 0.7717(6) 0.1968(4) -0.1780(4)
N1 N 0.8124(6) 0.5144(4) 0.5501(4)
N2 N 0.9890(6) 0.4148(4) 0.5747(5)
N3 N 0.9539(8) 0.3537(5) 0.8235(5)
N4 N 0.7390(6) 0.5524(4) 0.6799(5)
N5 N 0.6823(7) 0.2796(5) -0.0949(5)
N6 N 0.5027(7) 0.3765(6) -0.1187(6)
N7 N 0.5233(7) 0.4410(5) -0.3672(5)
N8 N 0.7504(7) 0.2423(5) -0.2283(5)
C37 C 0.7508(6) 0.3779(5) 0.2610(5)
C38 C 0.7698(7) 0.4149(5) 0.3347(5)
C39 C 0.7563(6) 0.3735(5) 0.3961(5)
C40 C 0.7703(6) 0.4040(5) 0.4666(5)
C41 C 0.8037(7) 0.4804(5) 0.4793(5)
C42 C 0.8213(8) 0.5206(6) 0.4210(6)
C43 C 0.8038(8) 0.4877(6) 0.3483(6)
C44 C 0.7452(11) 0.2886(8) 0.5243(8)
C45 C 0.8545(6) 0.4828(5) 0.6191(5)
C46 C 0.9329(7) 0.4277(5) 0.6319(5)
C47 C 0.9693(6) 0.3860(5) 0.6986(5)
C48 C 0.9239(8) 0.4001(6) 0.7559(6)
C49 C 0.8515(7) 0.4550(6) 0.7488(6)
C50 C 0.8188(7) 0.4956(5) 0.6834(5)
C51 C 0.7551(7) 0.4100(5) 0.1970(5)
C52 C 0.7367(6) 0.3760(5) 0.1221(5)
C53 C 0.7433(7) 0.4182(6) 0.0601(5)
C54 C 0.7252(7) 0.3887(6) -0.0120(5)
C55 C 0.6963(8) 0.3139(6) -0.0229(6)
C56 C 0.6870(9) 0.2689(7) 0.0370(7)
C57 C 0.7071(8) 0.3012(6) 0.1079(7)
C58 C 0.7408(11) 0.5054(8) -0.0701(9)
C59 C 0.6365(8) 0.3118(6) -0.1641(6)
C60 C 0.5564(7) 0.3659(6) -0.1757(6)
C61 C 0.5165(8) 0.4066(6) -0.2404(6)
C62 C 0.5597(7) 0.3950(6) -0.3012(6)
C63 C 0.6319(8) 0.3388(6) -0.2963(6)
C64 C 0.6690(8) 0.2971(6) -0.2305(6)
H39 H 0.7308(6) 0.3237(5) 0.2569(5)
H40 H 0.7349(6) 0.3197(5) 0.3872(5)
H41 H 0.8471(8) 0.5734(6) 0.4301(6)
H42 H 0.8166(8) 0.5177(6) 0.3061(6)
H43 H 0.7354(11) 0.2685(8) 0.5723(8)
H44 H 0.8094(11) 0.2661(8) 0.5164(8)
H45 H 0.6832(11) 0.2753(8) 0.4804(8)
H46 H 1.0237(6) 0.3462(5) 0.7047(5)
H47 H 0.8233(7) 0.4661(6) 0.7920(6)
H48 H 0.7760(7) 0.4641(5) 0.2018(5)
H49 H 0.7649(7) 0.4720(6) 0.0682(5)
H50 H 0.6573(9) 0.2171(7) 0.0267(7)
H51 H 0.7047(8) 0.2683(6) 0.1512(7)
H52 H 0.7437(11) 0.5246(8) -0.1204(9)
H53 H 0.8075(11) 0.5179(8) -0.0301(9)
H54 H 0.6811(11) 0.5294(8) -0.0571(9)
H55 H 0.4603(8) 0.4448(6) -0.2455(6)
H56 H 0.6577(8) 0.3289(6) -0.3410(6)
H59 H 0.7857(6) 0.5670(4) 0.5490(4)
H60 H 0.7100(7) 0.2275(5) -0.0948(5)
O44? O 0.5008(13) 0.623(1) 0.0375(9)
O46? O 0.504(2) 0.1023(15) 0.1191(13)
loop_
_geom_bond_atom_site_label_1
_geom_bond_atom_site_label_2
_geom_bond_site_symmetry_1
_geom_bond_site_symmetry_2
O1 C1 1_555 1_555
O2 C2 1_555 1_555
O3 C3 1_555 1_555
O4 C6 1_555 1_555
O5 C7 1_555 1_555
O6 C8 1_555 1_555
O7 C9 1_555 1_555
O8 C12 1_555 1_555
O9 C13 1_555 1_555
O10 C14 1_555 1_555
O11 C15 1_555 1_555
O12 C18 1_555 1_555
O13 C19 1_555 1_555
O14 C20 1_555 1_555
O15 C21 1_555 1_555
O16 C25 1_555 1_555
O17 C26 1_555 1_555
O18 C27 1_555 1_555
O19 C30 1_555 1_555
O20 C31 1_555 1_555
O21 C32 1_555 1_555
O22 C33 1_555 1_555
O23 C40 1_555 1_555
O24 N2 1_555 1_555
O25 N2 1_555 1_555
O26 N3 1_555 1_555
O27 N3 1_555 1_555
O28 N4 1_555 1_555
O29 N4 1_555 1_555
O30 C54 1_555 1_555
O31 N6 1_555 1_555
O32 N6 1_555 1_555
O33 N7 1_555 1_555
O34 N7 1_555 1_555
O35 N8 1_555 1_555
O36 N8 1_555 1_555
N1 C41 1_555 1_555
N2 C46 1_555 1_555
N3 C48 1_555 1_555
N4 C50 1_555 1_555
N5 C55 1_555 1_555
N6 C60 1_555 1_555
N7 C62 1_555 1_555
N8 C64 1_555 1_555
O37 C1 1_555 1_555
O38 C4 1_555 1_555
O39 C10 1_555 1_555
O40 C16 1_555 1_555
O41 C22 1_555 1_555
O42 C28 1_555 1_555
O43 C24 1_555 1_555
O45 C36 1_555 1_555
C1 C2 1_555 1_555
C2 C3 1_555 1_555
C3 C4 1_555 1_555
C4 C5 1_555 1_555
C5 O1 1_555 1_555
C6 C5 1_555 1_555
C7 O38 1_555 1_555
C8 C7 1_555 1_555
C9 C8 1_555 1_555
C10 C9 1_555 1_555
C11 O5 1_555 1_555
C12 C11 1_555 1_555
C13 O39 1_555 1_555
C14 C13 1_555 1_555
C15 C14 1_555 1_555
C16 C15 1_555 1_555
C17 O9 1_555 1_555
C18 C17 1_555 1_555
C19 O40 1_555 1_555
C20 C19 1_555 1_555
C21 C20 1_555 1_555
C22 C21 1_555 1_555
C23 O13 1_555 1_555
C24 C23 1_555 1_555
C25 O41 1_555 1_555
C26 C25 1_555 1_555
C27 C26 1_555 1_555
C28 C27 1_555 1_555
C29 O16 1_555 1_555
C30 C29 1_555 1_555
C31 O42 1_555 1_555
C32 C31 1_555 1_555
C33 C32 1_555 1_555
C34 O37 1_555 1_555
C35 O20 1_555 1_555
C36 C35 1_555 1_555
C37 C38 1_555 1_555
C38 C39 1_555 1_555
C39 C40 1_555 1_555
C40 C41 1_555 1_555
C41 C42 1_555 1_555
C42 C43 1_555 1_555
C43 C38 1_555 1_555
C44 O23 1_555 1_555
C45 N1 1_555 1_555
C46 C45 1_555 1_555
C47 C46 1_555 1_555
C48 C47 1_555 1_555
C49 C48 1_555 1_555
C50 C45 1_555 1_555
C51 C37 1_555 1_555
C52 C51 1_555 1_555
C53 C52 1_555 1_555
C54 C53 1_555 1_555
C55 C54 1_555 1_555
C56 C55 1_555 1_555
C57 C52 1_555 1_555
C58 O30 1_555 1_555
C59 N5 1_555 1_555
C60 C59 1_555 1_555
C61 C60 1_555 1_555
C62 C61 1_555 1_555
C63 C62 1_555 1_555
C64 C59 1_555 1_555
H1 C1 1_555 1_555
H2 C2 1_555 1_555
H3 C3 1_555 1_555
H4 C4 1_555 1_555
H5 C5 1_555 1_555
H6 C6 1_555 1_555
H7 C6 1_555 1_555
H8 C7 1_555 1_555
H9 C8 1_555 1_555
H10 C9 1_555 1_555
H11 C10 1_555 1_555
H12 C11 1_555 1_555
H13 C12 1_555 1_555
H14 C12 1_555 1_555
H15 C13 1_555 1_555
H16 C14 1_555 1_555
H17 C15 1_555 1_555
H18 C16 1_555 1_555
H19 C17 1_555 1_555
H20 C18 1_555 1_555
H21 C18 1_555 1_555
H22 C19 1_555 1_555
H23 C21 1_555 1_555
H24 C22 1_555 1_555
H25 C23 1_555 1_555
H26 C24 1_555 1_555
H27 C25 1_555 1_555
H28 C26 1_555 1_555
H29 C27 1_555 1_555
H30 C28 1_555 1_555
H31 C29 1_555 1_555
H32 C30 1_555 1_555
H33 C30 1_555 1_555
H34 C31 1_555 1_555
H35 C32 1_555 1_555
H36 C33 1_555 1_555
H37 C34 1_555 1_555
H38 C35 1_555 1_555
H39 C37 1_555 1_555
H40 C39 1_555 1_555
H41 C42 1_555 1_555
H42 C43 1_555 1_555
H43 C44 1_555 1_555
H44 C44 1_555 1_555
H45 C44 1_555 1_555
H46 C47 1_555 1_555
H47 C49 1_555 1_555
H48 C51 1_555 1_555
H49 C53 1_555 1_555
H50 C56 1_555 1_555
H51 C57 1_555 1_555
H52 C58 1_555 1_555
H53 C58 1_555 1_555
H54 C58 1_555 1_555
H55 C61 1_555 1_555
H56 C63 1_555 1_555
H57 O10 1_555 1_555
H58 O2 1_555 1_555
H59 N1 1_555 1_555
H60 N5 1_555 1_555
C10 C11 1_555 1_555
C16 C17 1_555 1_555
C22 C23 1_555 1_555
C28 C29 1_555 1_555
C33 C34 1_555 1_555
C34 C35 1_555 1_555
C49 C50 1_555 1_555
C56 C57 1_555 1_555
C63 C64 1_555 1_555

#END
