
#######################################################################
#
#                 Cambridge Crystallographic Data Centre
#                                CCDC 
#
#######################################################################
#
# If this CIF has been generated from an entry in the Cambridge 
# Structural Database, then it will include bibliographic, chemical, 
# crystal, experimental, refinement or atomic coordinate data resulting 
# from the CCDC's data processing and validation procedures.
#
#######################################################################

data_INUQAJ
_chemical_formula_moiety         'C12 H18 N2 O7'
_chemical_name_systematic        
(2R,6R,9S,10S)-2,6-[1',9'-(2',8'-diaza-3',7'-dioxo-5'-oxanona-1,9-diyl)]-cis-1,3,5,7-tetraoxadecalin
_symmetry_cell_setting           orthorhombic
_symmetry_space_group_name_H-M   'P 21 21 21'
_symmetry_Int_Tables_number      19
_space_group_name_Hall           'P 2ac 2ab'
loop_
_symmetry_equiv_pos_site_id
_symmetry_equiv_pos_as_xyz
1 x,y,z
2 1/2+x,1/2-y,-z
3 -x,1/2+y,1/2-z
4 1/2-x,-y,1/2+z
_cell_length_a                   7.603(3)
_cell_length_b                   12.982(2)
_cell_length_c                   13.846(2)
_cell_angle_alpha                90
_cell_angle_beta                 90
_cell_angle_gamma                90
_cell_volume                     1366.63
_exptl_crystal_colour            colorless
_exptl_crystal_description       prisms
_chemical_melting_point          '225-227 deg.C'
_cell_formula_units_Z            4
_exptl_crystal_recrystallization_method 'methanol/ethyl acetate'
loop_
_atom_site_label
_atom_site_type_symbol
_atom_site_fract_x
_atom_site_fract_y
_atom_site_fract_z
O1 O 0.3140(4) 0.3706(2) 0.2623(2)
C1 C 0.1525(6) 0.4234(2) 0.2532(2)
H1 H 0.1385 0.4743 0.3049
O2 O 0.0099(4) 0.3530(2) 0.2525(2)
C2 C 0.0033(6) 0.2933(3) 0.3397(3)
H2 H -0.0927 0.2442 0.3358
H3 H -0.0186 0.3384 0.3942
O3 O 0.1843(4) 0.1609(2) 0.2794(2)
C3 C 0.3464(5) 0.1082(2) 0.2774(3)
H4 H 0.3613 0.0680 0.3368
O4 O 0.4886(4) 0.1768(2) 0.2658(2)
C4 C 0.4974(6) 0.2506(3) 0.3416(3)
H5 H 0.5937 0.2979 0.3295
H6 H 0.5200 0.2158 0.4023
C5 C 0.3274(6) 0.3097(3) 0.3484(2)
H7 H 0.3295 0.3547 0.4052
C6 C 0.1737(6) 0.2366(3) 0.3548(2)
H8 H 0.1730 0.2026 0.4180
C7 C 0.1535(6) 0.4748(2) 0.1557(3)
H9 H 0.0470 0.5150 0.1474
H10 H 0.2535 0.5209 0.1508
N1 N 0.1641(5) 0.3966(2) 0.0818(2)
H11 H 0.1269 0.3296 0.1010
C8 C 0.2443(5) 0.4075(3) -0.0020(3)
O5 O 0.3155(6) 0.4882(2) -0.0274(2)
C9 C 0.2518(6) 0.3136(3) -0.0656(3)
H12 H 0.1909 0.3272 -0.1258
H13 H 0.3733 0.2972 -0.0804
O6 O 0.1727(5) 0.2301(2) -0.0183(2)
C10 C 0.2028(6) 0.1306(3) -0.0569(3)
H14 H 0.2912 0.1347 -0.1073
H15 H 0.0951 0.1048 -0.0856
C11 C 0.2645(6) 0.0561(3) 0.0210(3)
O7 O 0.2836(5) -0.0355(2) 0.0033(2)
N2 N 0.2982(5) 0.0973(2) 0.1063(2)
H16 H 0.2882 0.1718 0.1200
C12 C 0.3426(6) 0.0380(3) 0.1916(3)
H17 H 0.4568 0.0058 0.1832
H18 H 0.2561 -0.0159 0.2014
loop_
_geom_bond_atom_site_label_1
_geom_bond_atom_site_label_2
_geom_bond_site_symmetry_1
_geom_bond_site_symmetry_2
O1 C1 1_555 1_555
C1 H1 1_555 1_555
O2 C1 1_555 1_555
C2 O2 1_555 1_555
H2 C2 1_555 1_555
H3 C2 1_555 1_555
O3 C3 1_555 1_555
C3 H4 1_555 1_555
O4 C3 1_555 1_555
C4 O4 1_555 1_555
H5 C4 1_555 1_555
H6 C4 1_555 1_555
C5 O1 1_555 1_555
H7 C5 1_555 1_555
C6 C2 1_555 1_555
H8 C6 1_555 1_555
C7 C1 1_555 1_555
H9 C7 1_555 1_555
H10 C7 1_555 1_555
N1 C7 1_555 1_555
H11 N1 1_555 1_555
C8 N1 1_555 1_555
O5 C8 1_555 1_555
C9 C8 1_555 1_555
H12 C9 1_555 1_555
H13 C9 1_555 1_555
O6 C9 1_555 1_555
C10 O6 1_555 1_555
H14 C10 1_555 1_555
H15 C10 1_555 1_555
C11 C10 1_555 1_555
O7 C11 1_555 1_555
N2 C11 1_555 1_555
H16 N2 1_555 1_555
C12 C3 1_555 1_555
H17 C12 1_555 1_555
H18 C12 1_555 1_555
O3 C6 1_555 1_555
C4 C5 1_555 1_555
C5 C6 1_555 1_555
N2 C12 1_555 1_555

#END
