
#######################################################################
#
#                 Cambridge Crystallographic Data Centre
#                                CCDC 
#
#######################################################################
#
# If this CIF has been generated from an entry in the Cambridge 
# Structural Database, then it will include bibliographic, chemical, 
# crystal, experimental, refinement or atomic coordinate data resulting 
# from the CCDC's data processing and validation procedures.
#
#######################################################################

data_INURAM
_chemical_formula_moiety         'C23 H21 F3 O4'
_chemical_name_systematic        
2,2'',4,4''-tetramethoxy-4'-(trifluoromethyl)-1,1':3',1''-terphenyl
_symmetry_cell_setting           monoclinic
_symmetry_space_group_name_H-M   'P 21/c'
_symmetry_Int_Tables_number      14
_space_group_name_Hall           '-P 2ybc'
loop_
_symmetry_equiv_pos_site_id
_symmetry_equiv_pos_as_xyz
1 x,y,z
2 -x,1/2+y,1/2-z
3 -x,-y,-z
4 x,1/2-y,1/2+z
_cell_length_a                   12.573(2)
_cell_length_b                   21.245(4)
_cell_length_c                   7.8281(14)
_cell_angle_alpha                90
_cell_angle_beta                 99.599(4)
_cell_angle_gamma                90
_cell_volume                     2061.71
_exptl_crystal_colour            colorless
_exptl_crystal_description       bulk
_cell_formula_units_Z            4
loop_
_atom_site_label
_atom_site_type_symbol
_atom_site_fract_x
_atom_site_fract_y
_atom_site_fract_z
C1 C 0.7481(4) 0.0753(2) 0.7052(5)
C2 C 0.7284(3) 0.04009(18) 0.5372(5)
C3 C 0.6495(3) -0.00484(19) 0.5149(5)
H1 H 0.6105 -0.0127 0.6036
C4 C 0.6272(3) -0.03844(17) 0.3637(5)
H2 H 0.5741 -0.0693 0.3530
C5 C 0.6809(3) -0.02776(17) 0.2278(5)
C6 C 0.7638(3) 0.01757(16) 0.2519(4)
H3 H 0.8021 0.0251 0.1622
C7 C 0.7904(3) 0.05152(16) 0.4051(4)
C8 C 0.8819(3) 0.09661(16) 0.4251(4)
C9 C 0.9765(3) 0.08408(17) 0.5407(5)
H4 H 0.9806 0.0474 0.6062
C10 C 1.0641(3) 0.12413(19) 0.5615(5)
H5 H 1.1261 0.1147 0.6400
C11 C 1.0580(3) 0.17808(18) 0.4642(5)
C12 C 0.9664(3) 0.19209(16) 0.3455(5)
H6 H 0.9633 0.2287 0.2797
C13 C 0.8795(3) 0.15115(17) 0.3257(5)
C14 C 1.2331(4) 0.2111(2) 0.6011(6)
H7 H 1.2842 0.2442 0.5944
H8 H 1.2651 0.1714 0.5808
H9 H 1.2130 0.2111 0.7141
C15 C 0.7834(4) 0.2084(2) 0.0851(6)
H10 H 0.7128 0.2102 0.0158
H11 H 0.8356 0.1986 0.0125
H12 H 0.8004 0.2484 0.1400
C16 C 0.6532(3) -0.06491(16) 0.0658(5)
C17 C 0.5471(3) -0.07855(17) 0.0008(5)
H13 H 0.4942 -0.0624 0.0586
C18 C 0.5146(3) -0.11475(19) -0.1450(5)
H14 H 0.4418 -0.1223 -0.1843
C19 C 0.5905(3) -0.13899(18) -0.2295(5)
C20 C 0.6995(3) -0.12582(17) -0.1737(5)
H15 H 0.7510 -0.1417 -0.2347
C21 C 0.7311(3) -0.08932(17) -0.0284(5)
C22 C 0.9165(3) -0.1020(2) -0.0504(6)
H16 H 0.9864 -0.0889 0.0075
H17 H 0.9058 -0.0877 -0.1684
H18 H 0.9120 -0.1471 -0.0483
C23 C 0.4652(4) -0.1962(3) -0.4329(7)
H19 H 0.4634 -0.2216 -0.5347
H20 H 0.4195 -0.1601 -0.4603
H21 H 0.4402 -0.2204 -0.3441
O1 O 1.1398(2) 0.22113(13) 0.4735(4)
O2 O 0.7852(2) 0.16124(13) 0.2131(4)
O3 O 0.83544(19) -0.07577(12) 0.0354(3)
O4 O 0.5711(2) -0.17623(15) -0.3741(4)
F1 F 0.8338(2) 0.05290(14) 0.8159(3)
F2 F 0.6677(2) 0.07252(14) 0.7902(3)
F3 F 0.7703(2) 0.13622(12) 0.6889(3)
loop_
_geom_bond_atom_site_label_1
_geom_bond_atom_site_label_2
_geom_bond_site_symmetry_1
_geom_bond_site_symmetry_2
C1 C2 1_555 1_555
C2 C3 1_555 1_555
C3 H1 1_555 1_555
C4 C3 1_555 1_555
H2 C4 1_555 1_555
C5 C4 1_555 1_555
C6 C5 1_555 1_555
H3 C6 1_555 1_555
C7 C2 1_555 1_555
C8 C7 1_555 1_555
C9 C8 1_555 1_555
H4 C9 1_555 1_555
C10 C9 1_555 1_555
H5 C10 1_555 1_555
C11 C10 1_555 1_555
C12 C11 1_555 1_555
H6 C12 1_555 1_555
C13 C8 1_555 1_555
C14 H7 1_555 1_555
H8 C14 1_555 1_555
H9 C14 1_555 1_555
C15 H10 1_555 1_555
H11 C15 1_555 1_555
H12 C15 1_555 1_555
C16 C5 1_555 1_555
C17 C16 1_555 1_555
H13 C17 1_555 1_555
C18 C17 1_555 1_555
H14 C18 1_555 1_555
C19 C18 1_555 1_555
C20 C19 1_555 1_555
H15 C20 1_555 1_555
C21 C16 1_555 1_555
C22 H16 1_555 1_555
H17 C22 1_555 1_555
H18 C22 1_555 1_555
C23 H19 1_555 1_555
H20 C23 1_555 1_555
H21 C23 1_555 1_555
O1 C11 1_555 1_555
O2 C13 1_555 1_555
O3 C21 1_555 1_555
O4 C19 1_555 1_555
F1 C1 1_555 1_555
F2 C1 1_555 1_555
F3 C1 1_555 1_555
C6 C7 1_555 1_555
C12 C13 1_555 1_555
C14 O1 1_555 1_555
C15 O2 1_555 1_555
C20 C21 1_555 1_555
C22 O3 1_555 1_555
C23 O4 1_555 1_555

#END
