
#######################################################################
#
#                 Cambridge Crystallographic Data Centre
#                                CCDC 
#
#######################################################################
#
# If this CIF has been generated from an entry in the Cambridge 
# Structural Database, then it will include bibliographic, chemical, 
# crystal, experimental, refinement or atomic coordinate data resulting 
# from the CCDC's data processing and validation procedures.
#
#######################################################################

data_INUWEV
_chemical_formula_moiety         'C23 H26 Cl1 N1 O3 S1'
_chemical_name_systematic        
4-chloro-1-((4-methylphenyl)sulfonyl)-3-(2-phenylethyl)octahydro-2H-indol-2-one
_symmetry_cell_setting           monoclinic
_symmetry_space_group_name_H-M   'P 21'
_symmetry_Int_Tables_number      4
_space_group_name_Hall           'P 2yb'
loop_
_symmetry_equiv_pos_site_id
_symmetry_equiv_pos_as_xyz
1 x,y,z
2 -x,1/2+y,-z
_cell_length_a                   8.1254(7)
_cell_length_b                   14.0815(11)
_cell_length_c                   10.0099(8)
_cell_angle_alpha                90
_cell_angle_beta                 110.328(4)
_cell_angle_gamma                90
_cell_volume                     1073.98
_exptl_crystal_colour            colorless
_exptl_crystal_description       prism
_cell_formula_units_Z            2
loop_
_atom_site_label
_atom_site_type_symbol
_atom_site_fract_x
_atom_site_fract_y
_atom_site_fract_z
C1 C 0.5838(10) 0.2781(5) 0.6591(7)
C2 C 0.4335(10) 0.2471(6) 0.6792(8)
H1 H 0.4313 0.1871 0.7221
C3 C 0.2877(10) 0.3031(6) 0.6371(8)
H2 H 0.1838 0.2814 0.6504
C4 C 0.2879(10) 0.3928(6) 0.5740(8)
C5 C 0.1236(12) 0.4504(8) 0.5271(11)
H3 H 0.0316 0.4164 0.5501
H4 H 0.0856 0.4609 0.4241
H5 H 0.1457 0.5117 0.5765
C6 C 0.4386(10) 0.4209(6) 0.5565(9)
H6 H 0.4407 0.4814 0.5153
C7 C 0.5920(11) 0.3655(6) 0.5959(8)
H7 H 0.6952 0.3863 0.5804
C8 C 0.9655(10) 0.3286(6) 0.9084(8)
C9 C 1.0449(9) 0.3358(5) 1.0691(7)
H8 H 0.9578 0.3673 1.1047
C10 C 1.2118(9) 0.3962(6) 1.1132(8)
H9 H 1.1839 0.4580 1.0632
H10 H 1.2484 0.4091 1.2167
C11 C 1.3652(10) 0.3518(6) 1.0823(10)
H11 H 1.4128 0.2987 1.1495
H12 H 1.3227 0.3253 0.9846
C12 C 1.5107(9) 0.4221(5) 1.0954(8)
C13 C 1.5446(12) 0.4539(6) 0.9771(9)
H13 H 1.4777 0.4296 0.8858
C14 C 1.6752(13) 0.5209(7) 0.9888(10)
H14 H 1.6974 0.5414 0.9063
C15 C 1.7729(13) 0.5576(7) 1.1222(12)
H15 H 1.8616 0.6037 1.1312
C16 C 1.7392(10) 0.5262(6) 1.2420(9)
H16 H 1.8045 0.5510 1.3334
C17 C 1.6124(12) 0.4598(6) 1.2278(8)
H17 H 1.5922 0.4382 1.3108
C18 C 1.0641(9) 0.2318(5) 1.1179(7)
H18 H 1.1721 0.2055 1.1053
C19 C 1.0815(11) 0.2181(5) 1.2747(7)
H19 H 1.1600 0.2690 1.3324
C20 C 0.9078(12) 0.2236(7) 1.2988(8)
H20 H 0.8632 0.2896 1.2830
H21 H 0.9254 0.2063 1.3987
C21 C 0.7725(12) 0.1568(7) 1.1980(9)
H22 H 0.6624 0.1585 1.2194
H23 H 0.8177 0.0909 1.2118
C22 C 0.7359(10) 0.1879(6) 1.0424(8)
H24 H 0.6453 0.1463 0.9769
H25 H 0.6914 0.2540 1.0289
C23 C 0.9023(9) 0.1817(4) 1.0091(7)
H26 H 0.9307 0.1138 0.9977
N1 N 0.8894(8) 0.2375(4) 0.8755(6)
O1 O 0.7183(7) 0.1079(4) 0.7260(6)
O2 O 0.8748(7) 0.2231(4) 0.6255(6)
O3 O 0.9638(9) 0.3879(4) 0.8219(6)
S1 S 0.7717(2) 0.20357(12) 0.71127(18)
Cl1 Cl 1.1859(3) 0.10408(15) 1.3342(2)
loop_
_geom_bond_atom_site_label_1
_geom_bond_atom_site_label_2
_geom_bond_site_symmetry_1
_geom_bond_site_symmetry_2
C1 C2 1_555 1_555
C2 H1 1_555 1_555
C3 C2 1_555 1_555
H2 C3 1_555 1_555
C4 C3 1_555 1_555
C5 C4 1_555 1_555
H3 C5 1_555 1_555
H4 C5 1_555 1_555
H5 C5 1_555 1_555
C6 C4 1_555 1_555
H6 C6 1_555 1_555
C7 C1 1_555 1_555
H7 C7 1_555 1_555
C8 C9 1_555 1_555
C9 H8 1_555 1_555
C10 C9 1_555 1_555
H9 C10 1_555 1_555
H10 C10 1_555 1_555
C11 C10 1_555 1_555
H11 C11 1_555 1_555
H12 C11 1_555 1_555
C12 C11 1_555 1_555
C13 C12 1_555 1_555
H13 C13 1_555 1_555
C14 C13 1_555 1_555
H14 C14 1_555 1_555
C15 C14 1_555 1_555
H15 C15 1_555 1_555
C16 C15 1_555 1_555
H16 C16 1_555 1_555
C17 C12 1_555 1_555
H17 C17 1_555 1_555
C18 C9 1_555 1_555
H18 C18 1_555 1_555
C19 C18 1_555 1_555
H19 C19 1_555 1_555
C20 C19 1_555 1_555
H20 C20 1_555 1_555
H21 C20 1_555 1_555
C21 C20 1_555 1_555
H22 C21 1_555 1_555
H23 C21 1_555 1_555
C22 C21 1_555 1_555
H24 C22 1_555 1_555
H25 C22 1_555 1_555
C23 C18 1_555 1_555
H26 C23 1_555 1_555
N1 C8 1_555 1_555
O1 S1 1_555 1_555
O2 S1 1_555 1_555
O3 C8 1_555 1_555
S1 C1 1_555 1_555
Cl1 C19 1_555 1_555
C6 C7 1_555 1_555
C16 C17 1_555 1_555
C22 C23 1_555 1_555
C23 N1 1_555 1_555
N1 S1 1_555 1_555

#END
