
#######################################################################
#
#                 Cambridge Crystallographic Data Centre
#                                CCDC 
#
#######################################################################
#
# If this CIF has been generated from an entry in the Cambridge 
# Structural Database, then it will include bibliographic, chemical, 
# crystal, experimental, refinement or atomic coordinate data resulting 
# from the CCDC's data processing and validation procedures.
#
#######################################################################

data_INUWOF
_chemical_formula_moiety         'C20 H20 Cl1 N1 O3 S1'
_chemical_name_systematic        
(3S*,3aR*,4S*,6aR*)-4-chloro-1-((4-methylphenyl)sulfonyl)-3-phenylhexahydrocyclopenta[b]pyrrol-2(1H)-one
_symmetry_cell_setting           triclinic
_symmetry_space_group_name_H-M   'P 1'
_symmetry_Int_Tables_number      1
_space_group_name_Hall           'P 1'
loop_
_symmetry_equiv_pos_site_id
_symmetry_equiv_pos_as_xyz
1 x,y,z
_cell_length_a                   6.2690(15)
_cell_length_b                   8.088(2)
_cell_length_c                   9.868(2)
_cell_angle_alpha                68.658(4)
_cell_angle_beta                 78.278(4)
_cell_angle_gamma                87.800(5)
_cell_volume                     455.967
_exptl_crystal_colour            'pale yellow'
_exptl_crystal_description       prism
_cell_formula_units_Z            1
loop_
_atom_site_label
_atom_site_type_symbol
_atom_site_fract_x
_atom_site_fract_y
_atom_site_fract_z
C1 C 0.4637(4) -0.1654(4) 1.0446(3)
C2 C 0.2605(4) -0.2426(4) 1.0663(3)
H1 H 0.1751 -0.2960 1.1637
C3 C 0.1832(5) -0.2410(4) 0.9437(4)
H2 H 0.0447 -0.2956 0.9581
C4 C 0.3035(5) -0.1614(4) 0.8007(4)
C5 C 0.2155(6) -0.1553(5) 0.6674(4)
H3 H 0.0708 -0.2150 0.7009
H4 H 0.3141 -0.2157 0.6115
H5 H 0.2044 -0.0313 0.6035
C6 C 0.5075(5) -0.0855(5) 0.7827(4)
H6 H 0.5927 -0.0315 0.6854
C7 C 0.5898(5) -0.0868(4) 0.9030(3)
H7 H 0.7298 -0.0348 0.8889
C8 C 0.5402(4) 0.1875(4) 1.0875(3)
C9 C 0.6984(4) 0.3479(4) 1.0355(3)
H8 H 0.6207 0.4518 1.0511
C10 C 0.7941(4) 0.3913(4) 0.8704(3)
C11 C 0.6629(5) 0.4760(4) 0.7678(4)
H9 H 0.5187 0.5048 0.8020
C12 C 0.7408(7) 0.5182(5) 0.6175(4)
H10 H 0.6495 0.5750 0.5493
C13 C 0.9513(7) 0.4781(5) 0.5652(4)
H11 H 1.0061 0.5105 0.4615
C14 C 1.0804(6) 0.3905(5) 0.6657(4)
H12 H 1.2235 0.3599 0.6312
C15 C 1.0017(5) 0.3472(5) 0.8170(4)
H13 H 1.0916 0.2863 0.8850
C16 C 0.8623(4) 0.2826(4) 1.1378(3)
H14 H 1.0104 0.3341 1.0806
C17 C 0.8181(4) 0.3138(4) 1.2846(3)
H15 H 0.8814 0.4318 1.2708
C18 C 0.9333(5) 0.1637(4) 1.3834(3)
H16 H 0.8780 0.1451 1.4895
H17 H 1.0926 0.1894 1.3589
C19 C 0.8801(5) 0.0002(4) 1.3505(3)
H18 H 0.7403 -0.0590 1.4139
H19 H 0.9971 -0.0863 1.3671
C20 C 0.8644(4) 0.0771(4) 1.1842(3)
H20 H 0.9885 0.0402 1.1214
N1 N 0.6513(3) 0.0379(3) 1.1562(3)
O1 O 0.7533(3) -0.2712(3) 1.2150(2)
O2 O 0.3824(3) -0.2152(3) 1.3263(2)
O3 O 0.3568(3) 0.1851(3) 1.0680(2)
S1 S 0.56049(8) -0.17018(7) 1.20178(6)
Cl1 Cl 0.52667(10) 0.29473(9) 1.36543(8)
loop_
_geom_bond_atom_site_label_1
_geom_bond_atom_site_label_2
_geom_bond_site_symmetry_1
_geom_bond_site_symmetry_2
C1 C2 1_555 1_555
C2 H1 1_555 1_555
C3 C2 1_555 1_555
H2 C3 1_555 1_555
C4 C3 1_555 1_555
C5 C4 1_555 1_555
H3 C5 1_555 1_555
H4 C5 1_555 1_555
H5 C5 1_555 1_555
C6 C4 1_555 1_555
H6 C6 1_555 1_555
C7 C1 1_555 1_555
H7 C7 1_555 1_555
C8 C9 1_555 1_555
C9 H8 1_555 1_555
C10 C9 1_555 1_555
C11 C10 1_555 1_555
H9 C11 1_555 1_555
C12 C11 1_555 1_555
H10 C12 1_555 1_555
C13 C12 1_555 1_555
H11 C13 1_555 1_555
C14 C13 1_555 1_555
H12 C14 1_555 1_555
C15 C10 1_555 1_555
H13 C15 1_555 1_555
C16 C9 1_555 1_555
H14 C16 1_555 1_555
C17 C16 1_555 1_555
H15 C17 1_555 1_555
C18 C17 1_555 1_555
H16 C18 1_555 1_555
H17 C18 1_555 1_555
C19 C18 1_555 1_555
H18 C19 1_555 1_555
H19 C19 1_555 1_555
C20 C16 1_555 1_555
H20 C20 1_555 1_555
N1 C8 1_555 1_555
O1 S1 1_555 1_555
O2 S1 1_555 1_555
O3 C8 1_555 1_555
S1 C1 1_555 1_555
Cl1 C17 1_555 1_555
C6 C7 1_555 1_555
C14 C15 1_555 1_555
C19 C20 1_555 1_555
C20 N1 1_555 1_555
N1 S1 1_555 1_555

#END
