
#######################################################################
#
#                 Cambridge Crystallographic Data Centre
#                                CCDC 
#
#######################################################################
#
# If this CIF has been generated from an entry in the Cambridge 
# Structural Database, then it will include bibliographic, chemical, 
# crystal, experimental, refinement or atomic coordinate data resulting 
# from the CCDC's data processing and validation procedures.
#
#######################################################################

data_IPAQIA
_chemical_compound_source        
'roots and rhizomes of Ligularia hodgsonii Hook'
_chemical_name_common            'Biliguhodgsonolide pentahydrate'
_chemical_formula_moiety         'C30 H32 O8,5(H2 O1)'
_chemical_name_systematic        
"3,5b,11b,14-Tetramethyl-3b,5a,5b,6,7,8,8a,8b,8c,8d,11,11a,11b,13a-tetradecahydro-2H,9H-difuro[2''',3''',4''':4'',5'';2'''',3'''':2'',3'']naphtho[1'',2'':3',4']cyclobuta[1',2':3,4]furo[3',2':2,3]naphtho[1,8-bc]furan-2,5,12,15(10H)-tetrone pentahydrate"
_chemical_properties_biological  
'roots of source plant has antibiotic, antiphlogistic and antitumour properties'
_symmetry_cell_setting           orthorhombic
_symmetry_space_group_name_H-M   'C 2 2 21'
_symmetry_Int_Tables_number      20
_space_group_name_Hall           'C 2n 2'
loop_
_symmetry_equiv_pos_site_id
_symmetry_equiv_pos_as_xyz
1 x,y,z
2 -x,-y,1/2+z
3 -x,y,1/2-z
4 x,-y,-z
5 1/2+x,1/2+y,z
6 1/2-x,1/2-y,1/2+z
7 1/2-x,1/2+y,1/2-z
8 1/2+x,1/2-y,-z
_cell_length_a                   20.305(4)
_cell_length_b                   10.3360(19)
_cell_length_c                   14.715(3)
_cell_angle_alpha                90
_cell_angle_beta                 90
_cell_angle_gamma                90
_cell_volume                     3088.27
_exptl_crystal_colour            colorless
_exptl_crystal_description       block
_cell_formula_units_Z            4
loop_
_atom_site_label
_atom_site_type_symbol
_atom_site_fract_x
_atom_site_fract_y
_atom_site_fract_z
O1 O 0.16451(13) 0.0765(3) -0.11056(17)
C1 C 0.18081(19) 0.0725(4) -0.0153(3)
O2 O 0.12712(14) 0.3475(3) 0.13269(19)
C2 C 0.1502(2) 0.2143(4) 0.1212(3)
H1 H 0.1290 0.1571 0.1655
O3 O 0.08703(16) 0.1704(3) -0.1956(2)
O4 O 0.17026(17) 0.5458(3) 0.1241(3)
C3 C 0.1104(2) 0.1555(4) -0.1225(3)
C4 C 0.1784(2) 0.4305(5) 0.1182(3)
C5 C 0.09363(19) 0.2155(4) -0.0347(3)
C6 C 0.23774(19) 0.3552(4) 0.0936(3)
H2 H 0.2347 0.3388 0.0281
C7 C 0.13644(18) 0.1696(4) 0.0270(3)
C8 C 0.2248(2) 0.2249(4) 0.1406(3)
C9 C 0.25508(19) 0.0759(4) 0.0043(3)
H3 H 0.2811 0.1200 -0.0425
C10 C 0.2707(2) 0.1204(4) 0.1025(3)
H4 H 0.2669 0.0445 0.1419
C11 C 0.2333(2) 0.2345(5) 0.2447(3)
H5 H 0.2194 0.1550 0.2724
H6 H 0.2071 0.3046 0.2675
H7 H 0.2788 0.2499 0.2588
C12 C 0.0386(2) 0.3102(5) -0.0285(3)
H8 H 0.0210 0.3098 0.0320
H9 H 0.0047 0.2869 -0.0709
H10 H 0.0547 0.3952 -0.0427
C13 C 0.3065(2) 0.4060(4) 0.1107(4)
H11 H 0.3141 0.4169 0.1753
H12 H 0.3126 0.4889 0.0809
C14 C 0.3428(2) 0.1700(5) 0.1099(4)
H13 H 0.3555 0.1698 0.1735
H14 H 0.3714 0.1098 0.0783
C15 C 0.3542(2) 0.3055(5) 0.0714(4)
H15 H 0.3492 0.3029 0.0059
H16 H 0.3991 0.3320 0.0846
O1C O 0.16451(13) -0.0765(3) 0.11056(17)
C1C C 0.18081(19) -0.0725(4) 0.0153(3)
O2C O 0.12712(14) -0.3475(3) -0.13269(19)
C2C C 0.1502(2) -0.2143(4) -0.1212(3)
H1C H 0.1290 -0.1571 -0.1655
O3C O 0.08703(16) -0.1704(3) 0.1956(2)
O4C O 0.17026(17) -0.5458(3) -0.1241(3)
C3C C 0.1104(2) -0.1555(4) 0.1225(3)
C4C C 0.1784(2) -0.4305(5) -0.1182(3)
C5C C 0.09363(19) -0.2155(4) 0.0347(3)
C6C C 0.23774(19) -0.3552(4) -0.0936(3)
H2C H 0.2347 -0.3388 -0.0281
C7C C 0.13644(18) -0.1696(4) -0.0270(3)
C8C C 0.2248(2) -0.2249(4) -0.1406(3)
C9C C 0.25508(19) -0.0759(4) -0.0043(3)
H3C H 0.2811 -0.1200 0.0425
C10C C 0.2707(2) -0.1204(4) -0.1025(3)
H4C H 0.2669 -0.0445 -0.1419
C11C C 0.2333(2) -0.2345(5) -0.2447(3)
H5C H 0.2194 -0.1550 -0.2724
H6C H 0.2071 -0.3046 -0.2675
H7C H 0.2788 -0.2499 -0.2588
C12C C 0.0386(2) -0.3102(5) 0.0285(3)
H8C H 0.0210 -0.3098 -0.0320
H9C H 0.0047 -0.2869 0.0709
H10C H 0.0547 -0.3952 0.0427
C13C C 0.3065(2) -0.4060(4) -0.1107(4)
H11C H 0.3141 -0.4169 -0.1753
H12C H 0.3126 -0.4889 -0.0809
C14C C 0.3428(2) -0.1700(5) -0.1099(4)
H13C H 0.3555 -0.1698 -0.1735
H14C H 0.3714 -0.1098 -0.0783
C15C C 0.3542(2) -0.3055(5) -0.0714(4)
H15C H 0.3492 -0.3029 -0.0059
H16C H 0.3991 -0.3320 -0.0846
O5 O 0.0212(4) 0.9001(10) 0.6957(8)
O6 O 0.0000 0.4929(13) 0.7500
O7 O 0.0647(6) 0.6001(11) 0.6641(8)
loop_
_geom_bond_atom_site_label_1
_geom_bond_atom_site_label_2
_geom_bond_site_symmetry_1
_geom_bond_site_symmetry_2
O1 C1 1_555 1_555
C1 C7 1_555 1_555
O2 C2 1_555 1_555
C2 H1 1_555 1_555
O3 C3 1_555 1_555
O4 C4 1_555 1_555
C3 O1 1_555 1_555
C4 O2 1_555 1_555
C5 C3 1_555 1_555
C6 C4 1_555 1_555
H2 C6 1_555 1_555
C7 C2 1_555 1_555
C8 C2 1_555 1_555
C9 C1 1_555 1_555
H3 C9 1_555 1_555
C10 C8 1_555 1_555
H4 C10 1_555 1_555
C11 C8 1_555 1_555
H5 C11 1_555 1_555
H6 C11 1_555 1_555
H7 C11 1_555 1_555
C12 C5 1_555 1_555
H8 C12 1_555 1_555
H9 C12 1_555 1_555
H10 C12 1_555 1_555
C13 C6 1_555 1_555
H11 C13 1_555 1_555
H12 C13 1_555 1_555
C14 C10 1_555 1_555
H13 C14 1_555 1_555
H14 C14 1_555 1_555
C15 C13 1_555 1_555
H15 C15 1_555 1_555
H16 C15 1_555 1_555
O1C C1C 1_555 1_555
C1C C1 1_555 1_555
O2C C2C 1_555 1_555
C2C H1C 1_555 1_555
O3C C3C 1_555 1_555
O4C C4C 1_555 1_555
C3C O1C 1_555 1_555
C4C O2C 1_555 1_555
C5C C3C 1_555 1_555
C6C C4C 1_555 1_555
H2C C6C 1_555 1_555
C7C C1C 1_555 1_555
C8C C2C 1_555 1_555
C9C C9 1_555 1_555
H3C C9C 1_555 1_555
C10C C8C 1_555 1_555
H4C C10C 1_555 1_555
C11C C8C 1_555 1_555
H5C C11C 1_555 1_555
H6C C11C 1_555 1_555
H7C C11C 1_555 1_555
C12C C5C 1_555 1_555
H8C C12C 1_555 1_555
H9C C12C 1_555 1_555
H10C C12C 1_555 1_555
C13C C6C 1_555 1_555
H11C C13C 1_555 1_555
H12C C13C 1_555 1_555
C14C C10C 1_555 1_555
H13C C14C 1_555 1_555
H14C C14C 1_555 1_555
C15C C13C 1_555 1_555
H15C C15C 1_555 1_555
H16C C15C 1_555 1_555
C5 C7 1_555 1_555
C6 C8 1_555 1_555
C9 C10 1_555 1_555
C14 C15 1_555 1_555
C1C C9C 1_555 1_555
C2C C7C 1_555 1_555
C5C C7C 1_555 1_555
C6C C8C 1_555 1_555
C9C C10C 1_555 1_555
C14C C15C 1_555 1_555

#END
