
#######################################################################
#
#                 Cambridge Crystallographic Data Centre
#                                CCDC 
#
#######################################################################
#
# If this CIF has been generated from an entry in the Cambridge 
# Structural Database, then it will include bibliographic, chemical, 
# crystal, experimental, refinement or atomic coordinate data resulting 
# from the CCDC's data processing and validation procedures.
#
#######################################################################

data_IPOKUV
_chemical_formula_moiety         'C16 H46 S2 Si7'
_chemical_name_systematic        
cis-1,1,2,2,4,4-hexamethyl-3,5-bis((methylsulfanyl)methyl)-3,5-bis(trimethylsilyl)pentasilolane
_symmetry_cell_setting           triclinic
_symmetry_space_group_name_H-M   'P -1'
_symmetry_Int_Tables_number      2
_space_group_name_Hall           '-P 1'
loop_
_symmetry_equiv_pos_site_id
_symmetry_equiv_pos_as_xyz
1 x,y,z
2 -x,-y,-z
_cell_length_a                   9.1567(3)
_cell_length_b                   10.4987(3)
_cell_length_c                   16.4783(4)
_cell_angle_alpha                74.597(2)
_cell_angle_beta                 82.414(2)
_cell_angle_gamma                81.243(2)
_cell_volume                     1502.43
_exptl_crystal_colour            white
_cell_formula_units_Z            2
loop_
_atom_site_label
_atom_site_type_symbol
_atom_site_fract_x
_atom_site_fract_y
_atom_site_fract_z
Si1 Si 0.16619(9) 0.25632(8) 0.27756(5)
S1 S -0.0162(8) 0.4482(3) 0.1442(5)
Si2 Si 0.22188(10) 0.02727(8) 0.33778(5)
Si3 Si 0.46400(10) 0.13732(8) 0.13424(5)
Si4 Si 0.37138(9) -0.05196(8) 0.22855(5)
S2 S 0.1028(5) -0.0386(4) 0.1245(4)
Si5 Si 0.39445(10) 0.31089(8) 0.20261(5)
C1 C 0.0235(4) 0.2721(3) 0.1994(2)
H1 H 0.0624 0.2201 0.1589
H2 H -0.0669 0.2386 0.2293
Si6 Si 0.06642(10) 0.38281(9) 0.37401(5)
C2 C -0.1543(5) 0.4383(5) 0.0784(3)
H3 H -0.1110 0.3863 0.0394
H4 H -0.1901 0.5263 0.0475
H5 H -0.2354 0.3970 0.1132
C3 C 0.0511(5) -0.0595(4) 0.3743(3)
H6 H 0.0796 -0.1537 0.3926
H7 H -0.0100 -0.0411 0.3285
H8 H -0.0035 -0.0280 0.4205
C4 C 0.3304(5) -0.0005(4) 0.4322(2)
H9 H 0.2664 0.0250 0.4778
H10 H 0.4114 0.0522 0.4171
H11 H 0.3685 -0.0930 0.4498
Si7 Si 0.55865(10) -0.21778(9) 0.28570(6)
C5 C 0.2633(4) -0.1397(3) 0.1720(2)
H12 H 0.3301 -0.1696 0.1281
H13 H 0.2306 -0.2181 0.2123
C6 C 0.6705(5) 0.1113(4) 0.1046(3)
H14 H 0.6948 0.0338 0.0827
H15 H 0.7219 0.0990 0.1538
H16 H 0.6998 0.1877 0.0623
C7 C 0.0254(4) -0.1616(4) 0.0903(2)
H17 H 0.0938 -0.1919 0.0480
H18 H -0.0666 -0.1227 0.0670
H19 H 0.0079 -0.2355 0.1377
C8 C 0.3753(5) 0.1832(4) 0.0318(2)
H20 H 0.4158 0.2590 -0.0057
H21 H 0.2701 0.2044 0.0429
H22 H 0.3949 0.1095 0.0062
C9 C 0.5331(4) 0.3057(4) 0.2795(2)
H23 H 0.6270 0.3254 0.2488
H24 H 0.5450 0.2186 0.3174
H25 H 0.4977 0.3705 0.3114
C10 C 0.3825(4) 0.4796(4) 0.1241(2)
H26 H 0.3543 0.5481 0.1539
H27 H 0.3098 0.4846 0.0861
H28 H 0.4775 0.4918 0.0926
C11 C 0.0696(5) 0.5657(4) 0.3247(3)
H29 H 0.0436 0.6138 0.3676
H30 H -0.0005 0.5954 0.2830
H31 H 0.1674 0.5812 0.2982
C12 C -0.1304(5) 0.3482(4) 0.4107(3)
H32 H -0.1326 0.2540 0.4323
H33 H -0.1902 0.3806 0.3641
H34 H -0.1690 0.3924 0.4546
C13 C 0.1804(5) 0.3382(4) 0.4663(2)
H35 H 0.1391 0.3904 0.5055
H36 H 0.2806 0.3560 0.4467
H37 H 0.1800 0.2454 0.4939
C14 C 0.4793(5) -0.3456(4) 0.3773(3)
H38 H 0.5581 -0.4108 0.4008
H39 H 0.4100 -0.3884 0.3580
H40 H 0.4294 -0.3028 0.4198
C15 C 0.6478(4) -0.3064(4) 0.2029(3)
H41 H 0.6939 -0.2445 0.1563
H42 H 0.5735 -0.3431 0.1831
H43 H 0.7215 -0.3768 0.2269
C16 C 0.7040(5) -0.1437(5) 0.3216(3)
H44 H 0.6587 -0.0949 0.3620
H45 H 0.7511 -0.0846 0.2739
H46 H 0.7768 -0.2134 0.3473
S3? S -0.0383(9) 0.4430(3) 0.1571(5)
S4? S 0.0857(4) -0.0516(3) 0.1432(4)
loop_
_geom_bond_atom_site_label_1
_geom_bond_atom_site_label_2
_geom_bond_site_symmetry_1
_geom_bond_site_symmetry_2
Si1 Si2 1_555 1_555
S1 C1 1_555 1_555
Si2 Si4 1_555 1_555
Si3 Si4 1_555 1_555
Si4 Si7 1_555 1_555
S2 C5 1_555 1_555
Si5 Si1 1_555 1_555
C1 Si1 1_555 1_555
H1 C1 1_555 1_555
H2 C1 1_555 1_555
Si6 Si1 1_555 1_555
C2 S1 1_555 1_555
H3 C2 1_555 1_555
H4 C2 1_555 1_555
H5 C2 1_555 1_555
C3 Si2 1_555 1_555
H6 C3 1_555 1_555
H7 C3 1_555 1_555
H8 C3 1_555 1_555
C4 Si2 1_555 1_555
H9 C4 1_555 1_555
H10 C4 1_555 1_555
H11 C4 1_555 1_555
Si7 C14 1_555 1_555
C5 Si4 1_555 1_555
H12 C5 1_555 1_555
H13 C5 1_555 1_555
C6 Si3 1_555 1_555
H14 C6 1_555 1_555
H15 C6 1_555 1_555
H16 C6 1_555 1_555
C7 S2 1_555 1_555
H17 C7 1_555 1_555
H18 C7 1_555 1_555
H19 C7 1_555 1_555
C8 Si3 1_555 1_555
H20 C8 1_555 1_555
H21 C8 1_555 1_555
H22 C8 1_555 1_555
C9 Si5 1_555 1_555
H23 C9 1_555 1_555
H24 C9 1_555 1_555
H25 C9 1_555 1_555
C10 Si5 1_555 1_555
H26 C10 1_555 1_555
H27 C10 1_555 1_555
H28 C10 1_555 1_555
C11 Si6 1_555 1_555
H29 C11 1_555 1_555
H30 C11 1_555 1_555
H31 C11 1_555 1_555
C12 Si6 1_555 1_555
H32 C12 1_555 1_555
H33 C12 1_555 1_555
H34 C12 1_555 1_555
C13 Si6 1_555 1_555
H35 C13 1_555 1_555
H36 C13 1_555 1_555
H37 C13 1_555 1_555
C14 H38 1_555 1_555
H39 C14 1_555 1_555
H40 C14 1_555 1_555
C15 Si7 1_555 1_555
H41 C15 1_555 1_555
H42 C15 1_555 1_555
H43 C15 1_555 1_555
C16 Si7 1_555 1_555
H44 C16 1_555 1_555
H45 C16 1_555 1_555
H46 C16 1_555 1_555
Si3 Si5 1_555 1_555

#END
