
#######################################################################
#
#                 Cambridge Crystallographic Data Centre
#                                CCDC 
#
#######################################################################
#
# If this CIF has been generated from an entry in the Cambridge 
# Structural Database, then it will include bibliographic, chemical, 
# crystal, experimental, refinement or atomic coordinate data resulting 
# from the CCDC's data processing and validation procedures.
#
#######################################################################

data_IPUTOE
_chemical_formula_moiety         'C32 H18 N2'
_chemical_name_systematic        
7-(diphenylmethylene)-7H-benzo[c]fluorene-5,6-dicarbonitrile
_symmetry_cell_setting           triclinic
_symmetry_space_group_name_H-M   'P -1'
_symmetry_Int_Tables_number      2
_space_group_name_Hall           '-P 1'
loop_
_symmetry_equiv_pos_site_id
_symmetry_equiv_pos_as_xyz
1 x,y,z
2 -x,-y,-z
_cell_length_a                   9.7784(6)
_cell_length_b                   10.5082(7)
_cell_length_c                   11.3440(8)
_cell_angle_alpha                91.827(2)
_cell_angle_beta                 106.350(2)
_cell_angle_gamma                103.459(2)
_cell_volume                     1081.84
_exptl_crystal_colour            yellow
_exptl_crystal_description       needle
_cell_formula_units_Z            2
_exptl_crystal_recrystallization_method dichloromethane/hexanes
loop_
_atom_site_label
_atom_site_type_symbol
_atom_site_fract_x
_atom_site_fract_y
_atom_site_fract_z
N1 N 0.39150(13) 0.54399(11) -0.15505(11)
N2 N 0.42426(13) 0.82638(14) 0.06432(13)
C1 C 0.47003(15) 0.68231(14) 0.41138(13)
H1 H 0.4015 0.6163 0.4353
C2 C 0.58591(15) 0.65124(13) 0.37941(12)
H2 H 0.5978 0.5641 0.3826
C3 C 0.68476(14) 0.74750(13) 0.34277(12)
H3 H 0.7639 0.7255 0.3209
C4 C 0.66942(13) 0.87617(12) 0.33767(12)
C5 C 0.77844(13) 0.98113(12) 0.30526(12)
C6 C 0.84920(13) 0.96292(12) 0.22034(12)
C7 C 0.80867(13) 0.85166(12) 0.12535(11)
C8 C 0.93133(13) 0.83961(12) 0.08995(11)
C9 C 0.92125(13) 0.73486(12) 0.00277(11)
C10 C 1.04309(14) 0.70933(13) -0.02949(12)
H4 H 1.1385 0.7659 0.0067
C11 C 1.02540(15) 0.60458(13) -0.11189(13)
H5 H 1.1087 0.5891 -0.1317
C12 C 0.88592(15) 0.51975(13) -0.16762(12)
H6 H 0.8754 0.4473 -0.2246
C13 C 0.88721(14) 1.35238(13) 0.51824(13)
H7 H 0.9124 1.4353 0.5655
C14 C 0.82396(14) 1.34133(13) 0.39136(13)
H8 H 0.8040 1.4162 0.3519
C15 C 0.78980(14) 1.22089(12) 0.32199(12)
H9 H 0.7477 1.2138 0.2349
C16 C 0.81697(13) 1.11015(12) 0.37961(12)
C17 C 0.66750(13) 0.77497(12) 0.05814(12)
C18 C 0.65380(13) 0.67512(12) -0.03031(12)
C19 C 0.78003(13) 0.64852(12) -0.05539(12)
C20 C 0.76498(15) 0.54117(13) -0.14008(12)
H10 H 0.6706 0.4836 -0.1781
C21 C 1.05433(13) 0.95246(12) 0.15506(11)
C22 C 1.00170(13) 1.03234(12) 0.22581(11)
C23 C 1.09689(14) 1.14621(12) 0.29656(12)
H11 H 1.0621 1.2005 0.3439
C24 C 1.24272(14) 1.17943(13) 0.29712(12)
H12 H 1.3081 1.2570 0.3452
C25 C 1.29429(14) 1.10073(13) 0.22830(13)
H13 H 1.3948 1.1249 0.2302
C26 C 1.20152(14) 0.98740(13) 0.15672(13)
H14 H 1.2377 0.9343 0.1095
C27 C 0.50886(14) 0.60114(12) -0.10038(12)
C28 C 0.53437(14) 0.80473(13) 0.06732(12)
C29 C 0.45433(15) 0.80988(14) 0.40835(13)
H15 H 0.3751 0.8314 0.4305
C30 C 0.55384(14) 0.90611(13) 0.37310(13)
H16 H 0.5434 0.9938 0.3730
C31 C 0.87664(13) 1.12156(12) 0.50738(12)
H17 H 0.8920 1.0460 0.5477
C32 C 0.91377(14) 1.24270(13) 0.57621(12)
H18 H 0.9574 1.2505 0.6631
loop_
_geom_bond_atom_site_label_1
_geom_bond_atom_site_label_2
_geom_bond_site_symmetry_1
_geom_bond_site_symmetry_2
N1 C27 1_555 1_555
N2 C28 1_555 1_555
C1 H1 1_555 1_555
C2 C1 1_555 1_555
H2 C2 1_555 1_555
C3 C2 1_555 1_555
H3 C3 1_555 1_555
C4 C3 1_555 1_555
C5 C4 1_555 1_555
C6 C5 1_555 1_555
C7 C6 1_555 1_555
C8 C7 1_555 1_555
C9 C8 1_555 1_555
C10 C9 1_555 1_555
H4 C10 1_555 1_555
C11 C10 1_555 1_555
H5 C11 1_555 1_555
C12 C11 1_555 1_555
H6 C12 1_555 1_555
C13 H7 1_555 1_555
C14 C13 1_555 1_555
H8 C14 1_555 1_555
C15 C14 1_555 1_555
H9 C15 1_555 1_555
C16 C5 1_555 1_555
C17 C7 1_555 1_555
C18 C17 1_555 1_555
C19 C9 1_555 1_555
C20 C12 1_555 1_555
H10 C20 1_555 1_555
C21 C8 1_555 1_555
C22 C6 1_555 1_555
C23 C22 1_555 1_555
H11 C23 1_555 1_555
C24 C23 1_555 1_555
H12 C24 1_555 1_555
C25 C24 1_555 1_555
H13 C25 1_555 1_555
C26 C21 1_555 1_555
H14 C26 1_555 1_555
C27 C18 1_555 1_555
C28 C17 1_555 1_555
C29 C1 1_555 1_555
H15 C29 1_555 1_555
C30 C4 1_555 1_555
H16 C30 1_555 1_555
C31 C16 1_555 1_555
H17 C31 1_555 1_555
C32 C13 1_555 1_555
H18 C32 1_555 1_555
C15 C16 1_555 1_555
C18 C19 1_555 1_555
C19 C20 1_555 1_555
C21 C22 1_555 1_555
C25 C26 1_555 1_555
C29 C30 1_555 1_555
C31 C32 1_555 1_555

#END
