
#######################################################################
#
#                 Cambridge Crystallographic Data Centre
#                                CCDC 
#
#######################################################################
#
# If this CIF has been generated from an entry in the Cambridge 
# Structural Database, then it will include bibliographic, chemical, 
# crystal, experimental, refinement or atomic coordinate data resulting 
# from the CCDC's data processing and validation procedures.
#
#######################################################################

data_IQAGEO
_chemical_compound_source        'stems and leaves of Physalis angulata L.'
_chemical_name_common            'Physangulatin I hydrate'
_chemical_formula_moiety         'C31 H42 O9,0.08(H2 O1)'
_chemical_name_systematic        
'17-(1-(4,5-dimethyl-6-oxo-3,6-dihydro-2H-pyran-2-yl)ethyl)-14-hydroxy-3-methoxy-1-oxo-5,6:16,17-diepoxyandrostan-15-yl acetate hydrate'
_chemical_properties_biological  
'antiproliferative activity; inhibitory effects against NO production'
_symmetry_cell_setting           orthorhombic
_symmetry_space_group_name_H-M   'P 21 21 21'
_symmetry_Int_Tables_number      19
_space_group_name_Hall           'P 2ac 2ab'
loop_
_symmetry_equiv_pos_site_id
_symmetry_equiv_pos_as_xyz
1 x,y,z
2 1/2-x,-y,1/2+z
3 1/2+x,1/2-y,-z
4 -x,1/2+y,1/2-z
_cell_length_a                   7.21271(16)
_cell_length_b                   15.4107(4)
_cell_length_c                   25.7325(7)
_cell_angle_alpha                90
_cell_angle_beta                 90
_cell_angle_gamma                90
_cell_volume                     2860.24
_cell_formula_units_Z            4
loop_
_atom_site_label
_atom_site_type_symbol
_atom_site_fract_x
_atom_site_fract_y
_atom_site_fract_z
O1 O 0.4741(2) 0.94017(11) 0.16876(7)
O2 O 0.8337(3) 1.31825(12) 0.06074(7)
O3 O 0.7125(2) 1.04865(11) 0.11640(7)
H1 H 0.6933 0.9966 0.1246
O4 O 0.4495(2) 1.16417(11) 0.21549(6)
O5 O -0.1009(2) 0.86584(11) 0.11532(7)
O6 O 0.7671(3) 1.51557(12) 0.17792(7)
O7 O 0.2235(3) 1.43170(13) 0.09480(9)
O8 O -0.3328(2) 0.79535(13) 0.08002(8)
O9 O 0.6227(3) 1.15237(14) 0.28797(8)
C1 C 0.3693(3) 1.06205(15) 0.11198(9)
C2 C -0.0341(4) 0.73674(16) 0.06331(9)
C3 C 0.2745(3) 1.21424(15) 0.08314(9)
H2 H 0.1699 1.2558 0.0828
H3 H 0.3048 1.1992 0.0467
C4 C 0.3801(4) 1.41475(16) 0.10804(10)
C5 C -0.1665(3) 0.80064(16) 0.08518(9)
C6 C 0.6049(3) 1.19196(15) 0.11090(9)
H4 H 0.6473 1.1835 0.0743
C7 C 0.4431(3) 1.25669(15) 0.10880(9)
H5 H 0.4082 1.2709 0.1454
C8 C 0.3947(3) 1.02343(16) 0.05733(9)
H6 H 0.2730 1.0120 0.0419
H7 H 0.4645 0.9690 0.0598
H8 H 0.4629 1.0646 0.0355
C9 C 0.2176(3) 1.13279(15) 0.11222(9)
H9 H 0.1036 1.1090 0.0962
H10 H 0.1882 1.1483 0.1486
C10 C 0.5479(3) 1.09189(16) 0.19212(9)
H11 H 0.6737 1.0841 0.2078
C11 C 0.4266(4) 1.01346(16) 0.20107(10)
H12 H 0.3705 1.0035 0.2361
C12 C 0.5000(4) 1.18691(16) 0.26440(10)
C13 C 0.0981(3) 0.88410(15) 0.11384(10)
H13 H 0.1285 0.9112 0.0796
C14 C 0.1268(4) 0.95245(16) 0.15683(10)
H14 H 0.0337 0.9993 0.1505
C15 C 0.8316(3) 1.31485(16) 0.11738(10)
H15 H 0.9357 1.3452 0.1355
C16 C 0.5577(3) 1.10067(15) 0.13229(9)
C17 C 0.0834(4) 0.9143(2) 0.21052(10)
H16 H -0.0328 0.8814 0.2088
H17 H 0.0707 0.9615 0.2358
H18 H 0.1844 0.8757 0.2212
C18 C 0.7344(4) 1.46680(16) 0.08705(10)
H19 H 0.6807 1.4906 0.0546
H20 H 0.8693 1.4785 0.0868
C19 C 0.3832(5) 1.26112(19) 0.28312(11)
H21 H 0.4300 1.3155 0.2683
H22 H 0.3889 1.2642 0.3211
H23 H 0.2545 1.2522 0.2722
C20 C 0.1400(4) 0.73380(16) 0.08142(10)
C21 C 0.7699(3) 1.23032(16) 0.14063(10)
H24 H 0.7343 1.2397 0.1774
H25 H 0.8743 1.1886 0.1400
C22 C 0.3171(3) 0.99498(15) 0.15397(9)
C23 C 0.7016(3) 1.37010(16) 0.08907(10)
C24 C 0.4549(4) 1.34442(19) 0.02235(10)
H26 H 0.3205 1.3412 0.0170
H27 H 0.5143 1.2941 0.0061
H28 H 0.5028 1.3978 0.0066
C25 C 0.4746(4) 1.46055(17) 0.15264(10)
H29 H 0.5134 1.4173 0.1789
H30 H 0.3859 1.5009 0.1694
C26 C 0.2082(3) 0.80136(16) 0.11918(10)
H31 H 0.3409 0.8134 0.1125
H32 H 0.1964 0.7790 0.1551
C27 C 0.4973(3) 1.34464(16) 0.08107(9)
C28 C -0.1153(4) 0.67134(17) 0.02635(10)
H33 H -0.1013 0.6130 0.0409
H34 H -0.0502 0.6746 -0.0070
H35 H -0.2471 0.6839 0.0211
C29 C 0.2739(4) 0.66306(17) 0.06837(12)
H36 H 0.2984 0.6281 0.0994
H37 H 0.3902 0.6886 0.0559
H38 H 0.2210 0.6261 0.0412
C30 C 0.9167(4) 1.57502(19) 0.17103(11)
H39 H 1.0054 1.5510 0.1460
H40 H 0.9788 1.5846 0.2044
H41 H 0.8685 1.6303 0.1579
C31 C 0.6457(4) 1.51173(16) 0.13403(10)
H42 H 0.6074 1.5719 0.1241
O10 O 0.366(4) 1.5162(19) -0.0223(10)
loop_
_geom_bond_atom_site_label_1
_geom_bond_atom_site_label_2
_geom_bond_site_symmetry_1
_geom_bond_site_symmetry_2
O1 C11 1_555 1_555
O2 C15 1_555 1_555
O3 H1 1_555 1_555
O4 C10 1_555 1_555
O5 C5 1_555 1_555
O6 C30 1_555 1_555
O7 C4 1_555 1_555
O8 C5 1_555 1_555
O9 C12 1_555 1_555
C1 C8 1_555 1_555
C2 C5 1_555 1_555
C3 H2 1_555 1_555
H3 C3 1_555 1_555
C4 C25 1_555 1_555
C6 H4 1_555 1_555
C7 C3 1_555 1_555
H5 C7 1_555 1_555
C8 H6 1_555 1_555
H7 C8 1_555 1_555
H8 C8 1_555 1_555
C9 C1 1_555 1_555
H9 C9 1_555 1_555
H10 C9 1_555 1_555
C10 H11 1_555 1_555
C11 C10 1_555 1_555
H12 C11 1_555 1_555
C12 O4 1_555 1_555
C13 O5 1_555 1_555
H13 C13 1_555 1_555
C14 C13 1_555 1_555
H14 C14 1_555 1_555
C15 H15 1_555 1_555
C16 O3 1_555 1_555
C17 C14 1_555 1_555
H16 C17 1_555 1_555
H17 C17 1_555 1_555
H18 C17 1_555 1_555
C18 H19 1_555 1_555
H20 C18 1_555 1_555
C19 C12 1_555 1_555
H21 C19 1_555 1_555
H22 C19 1_555 1_555
H23 C19 1_555 1_555
C20 C2 1_555 1_555
C21 C6 1_555 1_555
H24 C21 1_555 1_555
H25 C21 1_555 1_555
C22 O1 1_555 1_555
C23 O2 1_555 1_555
C24 H26 1_555 1_555
H27 C24 1_555 1_555
H28 C24 1_555 1_555
C25 H29 1_555 1_555
H30 C25 1_555 1_555
C26 C13 1_555 1_555
H31 C26 1_555 1_555
H32 C26 1_555 1_555
C27 C4 1_555 1_555
C28 C2 1_555 1_555
H33 C28 1_555 1_555
H34 C28 1_555 1_555
H35 C28 1_555 1_555
C29 C20 1_555 1_555
H36 C29 1_555 1_555
H37 C29 1_555 1_555
H38 C29 1_555 1_555
C30 H39 1_555 1_555
H40 C30 1_555 1_555
H41 C30 1_555 1_555
C31 O6 1_555 1_555
H42 C31 1_555 1_555
C1 C16 1_555 1_555
C1 C22 1_555 1_555
C3 C9 1_555 1_555
C6 C7 1_555 1_555
C6 C16 1_555 1_555
C7 C27 1_555 1_555
C10 C16 1_555 1_555
C11 C22 1_555 1_555
C14 C22 1_555 1_555
C15 C21 1_555 1_555
C15 C23 1_555 1_555
C18 C23 1_555 1_555
C18 C31 1_555 1_555
C20 C26 1_555 1_555
C23 C27 1_555 1_555
C24 C27 1_555 1_555
C25 C31 1_555 1_555

#END
