
#######################################################################
#
#                 Cambridge Crystallographic Data Centre
#                                CCDC 
#
#######################################################################
#
# If this CIF has been generated from an entry in the Cambridge 
# Structural Database, then it will include bibliographic, chemical, 
# crystal, experimental, refinement or atomic coordinate data resulting 
# from the CCDC's data processing and validation procedures.
#
#######################################################################

data_IQAHUF
_chemical_compound_source        'Atractylodes lancea'
_chemical_formula_moiety         'C15 H22 O3,H2 O1'
_chemical_name_systematic        
'6-(hydroxymethyl)-2-(2-hydroxypropan-2-yl)-10-methylspiro[4.5]deca-6,9-dien-8-one monohydrate'
_symmetry_cell_setting           orthorhombic
_symmetry_space_group_name_H-M   'P 21 21 21'
_symmetry_Int_Tables_number      19
_space_group_name_Hall           'P 2ac 2ab'
loop_
_symmetry_equiv_pos_site_id
_symmetry_equiv_pos_as_xyz
1 x,y,z
2 1/2-x,-y,1/2+z
3 1/2+x,1/2-y,-z
4 -x,1/2+y,1/2-z
_cell_length_a                   6.6770(3)
_cell_length_b                   14.8010(8)
_cell_length_c                   15.5028(8)
_cell_angle_alpha                90
_cell_angle_beta                 90
_cell_angle_gamma                90
_cell_volume                     1532.08
_exptl_crystal_colour            colorless
_exptl_crystal_description       needle
_cell_formula_units_Z            4
_exptl_crystal_recrystallization_method 'ethyl acetate'
_exptl_crystal_preparation       'Magnetic properties, specific rotation'
loop_
_atom_site_label
_atom_site_type_symbol
_atom_site_fract_x
_atom_site_fract_y
_atom_site_fract_z
O1 O -0.17356(19) -0.99170(9) -0.14948(8)
H1 H -0.0962 -0.9999 -0.1092
O2 O -0.3497(2) -1.30051(9) -0.24329(9)
O3 O 0.36212(19) -0.99867(10) -0.54498(9)
H2 H 0.2593 -1.0137 -0.5701
C1 C -0.1988(3) -1.15755(12) -0.23162(11)
H3 H -0.2793 -1.1417 -0.1851
C2 C -0.2188(3) -1.24725(13) -0.26889(12)
C3 C -0.0819(3) -1.27050(12) -0.33845(12)
H4 H -0.0913 -1.3277 -0.3630
C4 C -0.0681(3) -1.09738(12) -0.26231(11)
C5 C 0.3140(3) -0.93436(13) -0.47839(13)
C6 C 0.0565(3) -1.21369(12) -0.36863(11)
C7 C 0.1980(3) -1.24431(14) -0.43896(14)
H5 H 0.1788 -1.2076 -0.4893
H6 H 0.1714 -1.3063 -0.4529
H7 H 0.3337 -1.2384 -0.4193
C8 C -0.0688(3) -1.00137(12) -0.22861(11)
H8 H 0.0685 -0.9816 -0.2206
H9 H -0.1297 -0.9623 -0.2714
C9 C 0.2536(3) -0.98504(13) -0.39607(12)
H10 H 0.2227 -0.9401 -0.3516
C10 C 0.4134(3) -1.04870(14) -0.35994(13)
H11 H 0.4731 -1.0844 -0.4057
H12 H 0.5182 -1.0149 -0.3310
C11 C 0.0811(3) -1.11906(12) -0.33301(11)
C12 C 0.0701(3) -1.04634(12) -0.40654(11)
H13 H 0.0717 -1.0753 -0.4627
H14 H -0.0522 -1.0113 -0.4015
C13 C 0.5066(4) -0.88048(17) -0.46400(16)
H15 H 0.5364 -0.8459 -0.5148
H16 H 0.6150 -0.9213 -0.4524
H17 H 0.4892 -0.8405 -0.4158
C14 C 0.3015(3) -1.10917(13) -0.29610(12)
H18 H 0.2991 -1.0818 -0.2393
H19 H 0.3656 -1.1678 -0.2919
C15 C 0.1441(4) -0.87361(15) -0.50945(15)
H20 H 0.0288 -0.9099 -0.5225
H21 H 0.1857 -0.8418 -0.5603
H22 H 0.1108 -0.8309 -0.4651
O4 O 0.0593(2) -1.06674(11) -0.63838(10)
H23 H -0.0582 -1.0472 -0.6436
H24 H 0.0876 -1.1082 -0.6734
loop_
_geom_bond_atom_site_label_1
_geom_bond_atom_site_label_2
_geom_bond_site_symmetry_1
_geom_bond_site_symmetry_2
O1 H1 1_555 1_555
O2 C2 1_555 1_555
O3 H2 1_555 1_555
C1 H3 1_555 1_555
C2 C1 1_555 1_555
C3 C2 1_555 1_555
H4 C3 1_555 1_555
C4 C1 1_555 1_555
C5 O3 1_555 1_555
C6 C3 1_555 1_555
C7 C6 1_555 1_555
H5 C7 1_555 1_555
H6 C7 1_555 1_555
H7 C7 1_555 1_555
C8 O1 1_555 1_555
H8 C8 1_555 1_555
H9 C8 1_555 1_555
C9 C5 1_555 1_555
H10 C9 1_555 1_555
C10 C9 1_555 1_555
H11 C10 1_555 1_555
H12 C10 1_555 1_555
C11 C4 1_555 1_555
C12 C9 1_555 1_555
H13 C12 1_555 1_555
H14 C12 1_555 1_555
C13 C5 1_555 1_555
H15 C13 1_555 1_555
H16 C13 1_555 1_555
H17 C13 1_555 1_555
C14 C10 1_555 1_555
H18 C14 1_555 1_555
H19 C14 1_555 1_555
C15 C5 1_555 1_555
H20 C15 1_555 1_555
H21 C15 1_555 1_555
H22 C15 1_555 1_555
O4 H23 1_555 1_555
H24 O4 1_555 1_555
C4 C8 1_555 1_555
C6 C11 1_555 1_555
C11 C12 1_555 1_555
C11 C14 1_555 1_555

#END
