
#######################################################################
#
#                 Cambridge Crystallographic Data Centre
#                                CCDC 
#
#######################################################################
#
# If this CIF has been generated from an entry in the Cambridge 
# Structural Database, then it will include bibliographic, chemical, 
# crystal, experimental, refinement or atomic coordinate data resulting 
# from the CCDC's data processing and validation procedures.
#
#######################################################################

data_IQALIX
_chemical_formula_moiety         'C29 H24 Cl1 N3 O6,C3 H6 O1'
_chemical_name_systematic        
'methyl 1-benzoyl-5-(4-chlorophenyl)-4-(3-methyl-4-nitro-1,2-oxazol-5-yl)-3-phenylprolinate acetone solvate'
_symmetry_cell_setting           orthorhombic
_symmetry_space_group_name_H-M   'P 21 21 21'
_symmetry_Int_Tables_number      19
_space_group_name_Hall           'P 2ac 2ab'
loop_
_symmetry_equiv_pos_site_id
_symmetry_equiv_pos_as_xyz
1 x,y,z
2 1/2-x,-y,1/2+z
3 -x,1/2+y,1/2-z
4 1/2+x,1/2-y,-z
_cell_length_a                   15.8312(4)
_cell_length_b                   18.6954(5)
_cell_length_c                   21.7724(7)
_cell_angle_alpha                90
_cell_angle_beta                 90
_cell_angle_gamma                90
_cell_volume                     6443.99
_exptl_crystal_colour            colorless
_exptl_crystal_description       bar
_cell_formula_units_Z            8
loop_
_atom_site_label
_atom_site_type_symbol
_atom_site_fract_x
_atom_site_fract_y
_atom_site_fract_z
Cl1 Cl 0.88283(10) 0.84524(11) 0.44808(10)
N1 N 0.56337(17) 0.68267(17) 0.29127(17)
N2 N 0.7692(3) 0.5458(3) 0.4702(3)
N3 N 0.7991(2) 0.4947(2) 0.3118(2)
O1 O 0.36218(15) 0.68245(18) 0.35943(19)
O2 O 0.46474(18) 0.7588(2) 0.3819(2)
O3 O 0.46082(15) 0.72138(17) 0.22872(16)
O4 O 0.7671(2) 0.5199(2) 0.2655(2)
O5 O 0.8519(2) 0.4472(2) 0.3114(2)
O6 O 0.69738(18) 0.5751(2) 0.43985(17)
C1 C 0.4989(2) 0.6490(2) 0.3304(2)
H1 H 0.464(2) 0.6191(19) 0.304(2)
C2 C 0.5496(2) 0.6064(2) 0.3779(2)
H2 H 0.5640(19) 0.6376(18) 0.4058(18)
C3 C 0.6297(2) 0.5861(2) 0.3413(2)
H3 H 0.611(3) 0.547(2) 0.313(2)
C4 C 0.6495(2) 0.6549(2) 0.3036(2)
H4 H 0.671(3) 0.641(2) 0.264(2)
C5 C 0.5026(2) 0.5446(2) 0.4067(2)
C6 C 0.4641(3) 0.4930(3) 0.3717(3)
H5 H 0.466(3) 0.494(2) 0.329(3)
C7 C 0.4220(3) 0.4360(3) 0.3985(3)
H6 H 0.397(3) 0.410(3) 0.375(3)
C8 C 0.4174(3) 0.4316(3) 0.4609(3)
H7 H 0.3874 0.3946 0.4792
C9 C 0.4566(3) 0.4811(3) 0.4964(3)
H8 H 0.4552 0.4770 0.5389
C10 C 0.4990(3) 0.5379(3) 0.4692(2)
H9 H 0.5253 0.5719 0.4938
C11 C 0.4415(2) 0.7043(3) 0.3596(2)
C12 C 0.3021(3) 0.7303(4) 0.3887(3)
H10 H 0.3063 0.7769 0.3705
H11 H 0.3144 0.7334 0.4318
H12 H 0.2459 0.7121 0.3830
C13 C 0.6006(2) 0.7357(2) 0.1914(2)
C14 C 0.5868(3) 0.7142(3) 0.1309(3)
H13 H 0.5393 0.6873 0.1210
C15 C 0.6436(3) 0.7329(4) 0.0859(3)
H14 H 0.6342 0.7181 0.0456
C16 C 0.7135(3) 0.7727(3) 0.0993(3)
H15 H 0.7516 0.7847 0.0684
C17 C 0.7275(3) 0.7952(3) 0.1587(3)
H16 H 0.7748 0.8228 0.1677
C18 C 0.6704(2) 0.7766(3) 0.2057(3)
H17 H 0.6797 0.7917 0.2458
C19 C 0.7061(2) 0.7061(2) 0.3384(2)
C20 C 0.6753(3) 0.7573(3) 0.3781(3)
H18 H 0.618(3) 0.766(2) 0.384(2)
C21 C 0.7303(3) 0.8003(3) 0.4112(3)
H19 H 0.706(3) 0.839(3) 0.436(3)
C22 C 0.8153(3) 0.7915(3) 0.4046(3)
C23 C 0.8482(3) 0.7417(3) 0.3644(3)
H20 H 0.910(3) 0.734(2) 0.357(2)
C24 C 0.7934(2) 0.6994(2) 0.3313(3)
H21 H 0.819(3) 0.661(2) 0.307(2)
C25 C 0.7007(2) 0.5603(2) 0.3802(2)
C26 C 0.7716(2) 0.5215(2) 0.3697(2)
C27 C 0.8119(3) 0.5141(3) 0.4268(3)
C28 C 0.8937(4) 0.4763(5) 0.4431(4)
H22 H 0.8822 0.4270 0.4523
H23 H 0.9186 0.4988 0.4784
H24 H 0.9321 0.4792 0.4091
C29 C 0.5367(2) 0.7137(2) 0.2384(2)
O7 O 1.03777(18) 0.0627(2) 0.3610(2)
N4 N 0.93947(16) 0.14206(17) 0.27254(17)
C30 C 1.0056(2) 0.1739(2) 0.3117(2)
H25 H 1.0399 0.2075 0.2877
O8 O 1.13991(16) 0.14088(17) 0.3431(2)
H26 H 0.931(2) 0.182(2) 0.394(2)
N5 N 0.7379(2) 0.2823(3) 0.4514(2)
Cl2 Cl 0.60588(8) -0.01242(8) 0.41972(7)
C31 C 0.9543(2) 0.2148(2) 0.3610(2)
O9 O 1.04256(17) 0.10369(19) 0.20949(17)
H27 H 0.893(2) 0.279(2) 0.296(2)
C32 C 0.8773(2) 0.2390(2) 0.3233(2)
O10 O 0.7446(2) 0.3127(2) 0.24817(19)
H28 H 0.829(3) 0.184(2) 0.246(3)
C33 C 0.8550(2) 0.1722(2) 0.2842(2)
C34 C 1.0035(2) 0.2732(2) 0.3922(2)
N6 N 0.7120(2) 0.3369(2) 0.2945(2)
O11 O 0.6599(2) 0.3848(2) 0.2954(2)
O12 O 0.80802(16) 0.25058(18) 0.42166(15)
H29 H 1.024(3) 0.337(2) 0.315(3)
C35 C 1.0312(3) 0.3323(3) 0.3605(3)
C36 C 1.0777(3) 0.3864(3) 0.3917(4)
H30 H 1.098(4) 0.423(3) 0.364(3)
C37 C 1.0942(3) 0.3799(4) 0.4523(4)
H31 H 1.1248 0.4154 0.4724
C38 C 1.0663(4) 0.3217(4) 0.4843(3)
H32 H 1.0782 0.3177 0.5260
C39 C 1.0203(3) 0.2684(3) 0.4549(3)
H33 H 1.0006 0.2293 0.4771
C40 C 1.0612(2) 0.1187(3) 0.3412(2)
C41 C 1.2000(3) 0.0936(3) 0.3747(4)
H34 H 1.2071 0.0505 0.3514
H35 H 1.1787 0.0821 0.4148
H36 H 1.2535 0.1175 0.3786
C42 C 0.9662(2) 0.1126(2) 0.2189(2)
C43 C 0.9025(3) 0.0909(3) 0.1724(3)
C44 C 0.9189(5) 0.1116(4) 0.1120(3)
H37 H 0.9671 0.1381 0.1032
C45 C 0.7928(8) 0.0557(7) 0.0785(6)
H38 H 0.7562 0.0437 0.0468
C46 C 0.8652(8) 0.0933(6) 0.0662(4)
H39 H 0.8775 0.1063 0.0260
C47 C 0.7747(4) 0.0360(5) 0.1370(6)
H40 H 0.7249 0.0116 0.1456
C48 C 0.8317(3) 0.0526(3) 0.1848(3)
H41 H 0.8208 0.0373 0.2247
C49 C 0.7944(2) 0.1219(2) 0.3170(2)
C50 C 0.8214(2) 0.0692(2) 0.3565(2)
H42 H 0.8789 0.0614 0.3619
C51 C 0.6787(2) 0.0390(2) 0.3793(2)
C52 C 0.7638(3) 0.0276(3) 0.3883(2)
H43 H 0.786(3) -0.012(3) 0.416(3)
C53 C 0.6170(3) 0.3551(4) 0.4254(4)
H44 H 0.6239 0.4053 0.4174
H45 H 0.6048 0.3481 0.4682
H46 H 0.5713 0.3368 0.4011
C54 C 0.6970(3) 0.3164(3) 0.4092(3)
C55 C 0.7371(2) 0.3074(2) 0.3520(2)
C56 C 0.8071(2) 0.2661(2) 0.3618(2)
C57 C 0.7082(2) 0.1317(2) 0.3079(2)
H47 H 0.6894 0.1664 0.2805
C58 C 0.6502(2) 0.0902(2) 0.3393(2)
H48 H 0.5926 0.0970 0.3333
O13 O 0.5379(3) 0.5232(2) 0.2159(2)
C59 C 0.4881(4) 0.4056(4) 0.2106(3)
H49 H 0.4382 0.4245 0.2296
H50 H 0.5165 0.3743 0.2388
H51 H 0.4726 0.3793 0.1744
C60 C 0.5459(3) 0.4659(3) 0.1931(3)
C61 C 0.6111(5) 0.4490(5) 0.1482(4)
H52 H 0.5851 0.4346 0.1103
H53 H 0.6457 0.4107 0.1634
H54 H 0.6456 0.4904 0.1412
O14 O 0.0434(5) 0.7918(3) 0.3058(4)
C62 C -0.0234(9) 0.9093(6) 0.3013(6)
H55 H -0.0003 0.9406 0.2706
H56 H -0.0420 0.9370 0.3359
H57 H -0.0705 0.8837 0.2844
C63 C 0.0466(7) 0.8544(6) 0.3227(5)
C64 C 0.1098(6) 0.8833(6) 0.3591(6)
H58 H 0.1542 0.8546 0.3725
H59 H 0.1080 0.9313 0.3701
loop_
_geom_bond_atom_site_label_1
_geom_bond_atom_site_label_2
_geom_bond_site_symmetry_1
_geom_bond_site_symmetry_2
Cl1 C22 1_555 1_555
N1 C1 1_555 1_555
N2 O6 1_555 1_555
N3 O4 1_555 1_555
O1 C11 1_555 1_555
O2 C11 1_555 1_555
O3 C29 1_555 1_555
O5 N3 1_555 1_555
O6 C25 1_555 1_555
C1 H1 1_555 1_555
C2 C1 1_555 1_555
H2 C2 1_555 1_555
C3 C2 1_555 1_555
H3 C3 1_555 1_555
C4 N1 1_555 1_555
H4 C4 1_555 1_555
C5 C2 1_555 1_555
C6 C5 1_555 1_555
H5 C6 1_555 1_555
C7 C6 1_555 1_555
H6 C7 1_555 1_555
C8 C7 1_555 1_555
H7 C8 1_555 1_555
C9 C8 1_555 1_555
H8 C9 1_555 1_555
C10 C5 1_555 1_555
H9 C10 1_555 1_555
C11 C1 1_555 1_555
C12 O1 1_555 1_555
H10 C12 1_555 1_555
H11 C12 1_555 1_555
H12 C12 1_555 1_555
C13 C14 1_555 1_555
C14 H13 1_555 1_555
C15 C14 1_555 1_555
H14 C15 1_555 1_555
C16 C15 1_555 1_555
H15 C16 1_555 1_555
C17 C16 1_555 1_555
H16 C17 1_555 1_555
C18 C13 1_555 1_555
H17 C18 1_555 1_555
C19 C4 1_555 1_555
C20 C19 1_555 1_555
H18 C20 1_555 1_555
C21 C20 1_555 1_555
H19 C21 1_555 1_555
C22 C21 1_555 1_555
C23 C22 1_555 1_555
H20 C23 1_555 1_555
C24 C19 1_555 1_555
H21 C24 1_555 1_555
C25 C3 1_555 1_555
C26 N3 1_555 1_555
C27 N2 1_555 1_555
C28 C27 1_555 1_555
H22 C28 1_555 1_555
H23 C28 1_555 1_555
H24 C28 1_555 1_555
C29 N1 1_555 1_555
O7 C40 1_555 1_555
N4 C30 1_555 1_555
C30 H25 1_555 1_555
O8 C40 1_555 1_555
H26 C31 1_555 1_555
N5 O12 1_555 1_555
Cl2 C51 1_555 1_555
C31 C30 1_555 1_555
O9 C42 1_555 1_555
H27 C32 1_555 1_555
C32 C31 1_555 1_555
O10 N6 1_555 1_555
H28 C33 1_555 1_555
C33 N4 1_555 1_555
C34 C31 1_555 1_555
N6 O11 1_555 1_555
O12 C56 1_555 1_555
H29 C35 1_555 1_555
C35 C34 1_555 1_555
C36 C35 1_555 1_555
H30 C36 1_555 1_555
C37 C36 1_555 1_555
H31 C37 1_555 1_555
C38 C37 1_555 1_555
H32 C38 1_555 1_555
C39 C34 1_555 1_555
H33 C39 1_555 1_555
C40 C30 1_555 1_555
C41 O8 1_555 1_555
H34 C41 1_555 1_555
H35 C41 1_555 1_555
H36 C41 1_555 1_555
C42 N4 1_555 1_555
C43 C42 1_555 1_555
C44 C43 1_555 1_555
H37 C44 1_555 1_555
C45 H38 1_555 1_555
C46 C44 1_555 1_555
H39 C46 1_555 1_555
C47 C45 1_555 1_555
H40 C47 1_555 1_555
C48 C43 1_555 1_555
H41 C48 1_555 1_555
C49 C33 1_555 1_555
C50 C49 1_555 1_555
H42 C50 1_555 1_555
C51 C52 1_555 1_555
C52 C50 1_555 1_555
H43 C52 1_555 1_555
C53 H44 1_555 1_555
H45 C53 1_555 1_555
H46 C53 1_555 1_555
C54 N5 1_555 1_555
C55 N6 1_555 1_555
C56 C32 1_555 1_555
C57 C49 1_555 1_555
H47 C57 1_555 1_555
C58 C51 1_555 1_555
H48 C58 1_555 1_555
O13 C60 1_555 1_555
C59 H49 1_555 1_555
H50 C59 1_555 1_555
H51 C59 1_555 1_555
C60 C59 1_555 1_555
C61 C60 1_555 1_555
H52 C61 1_555 1_555
H53 C61 1_555 1_555
H54 C61 1_555 1_555
O14 C63 1_555 1_555
C62 H55 1_555 1_555
H56 C62 1_555 1_555
H57 C62 1_555 1_555
C63 C62 1_555 1_555
C64 C63 1_555 1_555
H58 C64 1_555 1_555
H59 C64 1_555 1_555
C3 C4 1_555 1_555
C9 C10 1_555 1_555
C13 C29 1_555 1_555
C17 C18 1_555 1_555
C23 C24 1_555 1_555
C25 C26 1_555 1_555
C26 C27 1_555 1_555
C32 C33 1_555 1_555
C38 C39 1_555 1_555
C45 C46 1_555 1_555
C47 C48 1_555 1_555
C53 C54 1_555 1_555
C54 C55 1_555 1_555
C55 C56 1_555 1_555
C57 C58 1_555 1_555

#END
