
#######################################################################
#
#                 Cambridge Crystallographic Data Centre
#                                CCDC 
#
#######################################################################
#
# If this CIF has been generated from an entry in the Cambridge 
# Structural Database, then it will include bibliographic, chemical, 
# crystal, experimental, refinement or atomic coordinate data resulting 
# from the CCDC's data processing and validation procedures.
#
#######################################################################

data_IQAPIA
_chemical_name_common            
"N,N,N',N'-Tetramethylguanidinium hydrogen carbonate hemihydrate"
_chemical_formula_moiety         'C5 H14 N3 1+,C1 H1 O3 1-,0.5(H2 O1)'
_chemical_name_systematic        
'bis(dimethylamino)methylammonium hydrogen carbonate hemihydrate'
_symmetry_cell_setting           monoclinic
_symmetry_space_group_name_H-M   'P 21/n'
_symmetry_Int_Tables_number      14
_space_group_name_Hall           '-P 2yn'
loop_
_symmetry_equiv_pos_site_id
_symmetry_equiv_pos_as_xyz
1 x,y,z
2 1/2-x,1/2+y,1/2-z
3 -x,-y,-z
4 1/2+x,1/2-y,1/2+z
_cell_length_a                   7.3883(3)
_cell_length_b                   8.8971(5)
_cell_length_c                   14.3092(8)
_cell_angle_alpha                90
_cell_angle_beta                 87.089(2)
_cell_angle_gamma                90
_cell_volume                     939.394
_exptl_crystal_colour            colorless
_exptl_crystal_description       needle
_cell_formula_units_Z            4
loop_
_atom_site_label
_atom_site_type_symbol
_atom_site_fract_x
_atom_site_fract_y
_atom_site_fract_z
C6 C 0.1138(3) 0.3013(3) 0.49519(16)
O1 O 0.0508(3) 0.3566(2) 0.41737(12)
H15 H 0.006(7) 0.450(7) 0.419(4)
O2 O 0.1074(3) 0.3829(2) 0.56900(12)
O3 O 0.1763(2) 0.1702(2) 0.49201(12)
C1 C -0.0036(3) -0.0133(2) 0.26359(16)
N1 N -0.1296(3) -0.0935(2) 0.22099(14)
N2 N 0.1271(3) 0.0590(2) 0.21233(14)
N3 N -0.0075(3) -0.0050(2) 0.35644(14)
H1 H 0.063(4) 0.060(4) 0.379(2)
H2 H -0.075(5) -0.068(4) 0.396(3)
C2 C -0.2920(3) -0.1455(3) 0.27441(18)
H3 H -0.264(4) -0.242(4) 0.304(2)
H4 H -0.330(5) -0.067(4) 0.317(3)
H5 H -0.386(5) -0.163(4) 0.234(2)
C3 C -0.0913(4) -0.1748(3) 0.13351(19)
H6 H 0.040(5) -0.170(4) 0.118(2)
H7 H -0.128(6) -0.273(5) 0.139(3)
H8 H -0.169(6) -0.135(5) 0.087(3)
C4 C 0.0986(4) 0.1197(3) 0.11907(18)
H9 H 0.183(4) 0.071(4) 0.071(2)
H10 H -0.024(5) 0.099(4) 0.105(2)
H11 H 0.122(5) 0.233(5) 0.119(3)
C5 C 0.2845(3) 0.1208(3) 0.25698(19)
H12 H 0.391(5) 0.131(4) 0.209(2)
H13 H 0.253(5) 0.215(4) 0.286(2)
H14 H 0.322(5) 0.055(4) 0.306(2)
O4? O 0.4688(10) -0.0402(9) 0.4656(6)
loop_
_geom_bond_atom_site_label_1
_geom_bond_atom_site_label_2
_geom_bond_site_symmetry_1
_geom_bond_site_symmetry_2
C1 N1 1_555 1_555
N1 C2 1_555 1_555
N2 C1 1_555 1_555
N3 C1 1_555 1_555
H1 N3 1_555 1_555
H2 N3 1_555 1_555
C2 H3 1_555 1_555
H4 C2 1_555 1_555
H5 C2 1_555 1_555
C3 N1 1_555 1_555
H6 C3 1_555 1_555
H7 C3 1_555 1_555
H8 C3 1_555 1_555
C4 N2 1_555 1_555
H9 C4 1_555 1_555
H10 C4 1_555 1_555
H11 C4 1_555 1_555
C5 N2 1_555 1_555
H12 C5 1_555 1_555
H13 C5 1_555 1_555
H14 C5 1_555 1_555
C6 O1 1_555 1_555
O1 H15 1_555 1_555
O2 C6 1_555 1_555
O3 C6 1_555 1_555

#END
