
#######################################################################
#
#                 Cambridge Crystallographic Data Centre
#                                CCDC 
#
#######################################################################
#
# If this CIF has been generated from an entry in the Cambridge 
# Structural Database, then it will include bibliographic, chemical, 
# crystal, experimental, refinement or atomic coordinate data resulting 
# from the CCDC's data processing and validation procedures.
#
#######################################################################

data_IQENIC
_chemical_formula_moiety         'C15 H16 N2 O2'
_chemical_name_systematic        
3-((Piperidin-1-ylmethylene)amino)-2H-chromen-2-one
_symmetry_cell_setting           orthorhombic
_symmetry_space_group_name_H-M   'P 21 21 21'
_symmetry_Int_Tables_number      19
_space_group_name_Hall           'P 2ac 2ab'
loop_
_symmetry_equiv_pos_site_id
_symmetry_equiv_pos_as_xyz
1 x,y,z
2 1/2-x,-y,1/2+z
3 1/2+x,1/2-y,-z
4 -x,1/2+y,1/2-z
_cell_length_a                   6.3957(18)
_cell_length_b                   8.810(2)
_cell_length_c                   23.137(7)
_cell_angle_alpha                90
_cell_angle_beta                 90
_cell_angle_gamma                90
_cell_volume                     1303.68
_cell_formula_units_Z            4
loop_
_atom_site_label
_atom_site_type_symbol
_atom_site_fract_x
_atom_site_fract_y
_atom_site_fract_z
N1 N 0.4249(3) 0.5352(2) 0.1493(1)
N2 N 0.6582(3) 0.3616(2) 0.1873(1)
O1 O 0.0534(3) 0.6874(2) 0.1553(1)
O2 O 0.1407(2) 0.8579(2) 0.0908(1)
C1 C 0.1890(4) 0.7333(2) 0.1236(1)
C2 C 0.3996(3) 0.6677(2) 0.1177(1)
C3 C 0.5369(4) 0.7356(2) 0.0817(1)
H1 H 0.6718 0.6970 0.0789
C4 C 0.4815(3) 0.8648(2) 0.0478(1)
C5 C 0.2801(3) 0.9220(2) 0.0525(1)
C6 C 0.2099(4) 1.0427(2) 0.0199(1)
H2 H 0.0743 1.0791 0.0242
C7 C 0.3447(5) 1.1080(3) -0.0191(1)
H3 H 0.2998 1.1896 -0.0414
C8 C 0.5466(5) 1.0538(3) -0.0257(1)
H4 H 0.6362 1.0979 -0.0525
C9 C 0.6136(4) 0.9348(3) 0.0077(1)
H5 H 0.7500 0.8999 0.0036
C10 C 0.6127(4) 0.4935(2) 0.1623(1)
H6 H 0.7221 0.5592 0.1537
C11 C 0.8699(4) 0.3182(3) 0.2033(1)
H7 H 0.8823 0.3156 0.2451
H8 H 0.9681 0.3928 0.1887
C12 C 0.9216(4) 0.1641(3) 0.1787(1)
H9 H 1.0577 0.1323 0.1927
H10 H 0.9285 0.1707 0.1369
C13 C 0.7598(4) 0.0472(3) 0.1957(1)
H11 H 0.7919 -0.0489 0.1773
H12 H 0.7630 0.0321 0.2372
C14 C 0.5447(4) 0.0993(3) 0.1776(1)
H13 H 0.5376 0.1040 0.1357
H14 H 0.4413 0.0265 0.1907
C15 C 0.4956(4) 0.2525(2) 0.2023(1)
H15 H 0.3622 0.2874 0.1874
H16 H 0.4844 0.2450 0.2440
loop_
_geom_bond_atom_site_label_1
_geom_bond_atom_site_label_2
_geom_bond_site_symmetry_1
_geom_bond_site_symmetry_2
N1 C2 1_555 1_555
N2 C10 1_555 1_555
O1 C1 1_555 1_555
O2 C1 1_555 1_555
C1 C2 1_555 1_555
C2 C3 1_555 1_555
C3 H1 1_555 1_555
C4 C3 1_555 1_555
C5 O2 1_555 1_555
C6 C5 1_555 1_555
H2 C6 1_555 1_555
C7 C6 1_555 1_555
H3 C7 1_555 1_555
C8 C7 1_555 1_555
H4 C8 1_555 1_555
C9 C4 1_555 1_555
H5 C9 1_555 1_555
C10 N1 1_555 1_555
H6 C10 1_555 1_555
C11 N2 1_555 1_555
H7 C11 1_555 1_555
H8 C11 1_555 1_555
C12 C11 1_555 1_555
H9 C12 1_555 1_555
H10 C12 1_555 1_555
C13 C12 1_555 1_555
H11 C13 1_555 1_555
H12 C13 1_555 1_555
C14 C13 1_555 1_555
H13 C14 1_555 1_555
H14 C14 1_555 1_555
C15 N2 1_555 1_555
H15 C15 1_555 1_555
H16 C15 1_555 1_555
C4 C5 1_555 1_555
C8 C9 1_555 1_555
C14 C15 1_555 1_555

#END
