
#######################################################################
#
#                 Cambridge Crystallographic Data Centre
#                                CCDC 
#
#######################################################################
#
# If this CIF has been generated from an entry in the Cambridge 
# Structural Database, then it will include bibliographic, chemical, 
# crystal, experimental, refinement or atomic coordinate data resulting 
# from the CCDC's data processing and validation procedures.
#
#######################################################################

data_IQERIG
_chemical_formula_moiety         'C39 H34 O9'
_chemical_name_systematic        
'2,3,5-Tri-O-benzoyl-\b-L-arabinofuranosyl o-hexynylbenzoate'
_symmetry_cell_setting           triclinic
_symmetry_space_group_name_H-M   'P 1'
_symmetry_Int_Tables_number      1
_space_group_name_Hall           'P 1'
loop_
_symmetry_equiv_pos_site_id
_symmetry_equiv_pos_as_xyz
1 x,y,z
_cell_length_a                   5.2464(19)
_cell_length_b                   11.509(4)
_cell_length_c                   14.383(5)
_cell_angle_alpha                83.889(6)
_cell_angle_beta                 80.820(7)
_cell_angle_gamma                79.513(7)
_cell_volume                     840.328
_exptl_crystal_colour            colorless
_exptl_crystal_description       prismatic
_cell_formula_units_Z            1
loop_
_atom_site_label
_atom_site_type_symbol
_atom_site_fract_x
_atom_site_fract_y
_atom_site_fract_z
O1 O 0.9423(10) 0.4069(4) 0.8463(3)
O2 O 0.1667(18) 0.5046(8) 1.0912(7)
O3 O 0.4250(10) 0.3487(5) 1.0351(4)
O4 O 0.3063(11) 0.1322(5) 0.8281(5)
O5 O 0.6605(9) 0.1531(4) 0.8912(4)
O6 O 0.7752(14) 0.1153(5) 0.6530(5)
O7 O 0.6231(9) 0.3030(4) 0.6812(3)
O8 O 0.7819(13) 0.5655(5) 0.6070(4)
O9 O 0.6443(9) 0.5050(4) 0.7548(4)
C1 C 0.7740(13) 0.3404(6) 0.9135(5)
H1 H 0.8800 0.2825 0.9529
C2 C 0.6382(12) 0.2746(6) 0.8498(5)
H2 H 0.4537 0.3107 0.8508
C3 C 0.7853(12) 0.2944(5) 0.7554(5)
H3 H 0.9387 0.2320 0.7446
C4 C 0.8676(13) 0.4119(6) 0.7572(5)
H4 H 1.0107 0.4249 0.7065
C5 C 0.6244(15) 0.5765(6) 0.6763(4)
C6 C 0.3837(14) 0.6687(6) 0.6874(5)
C7 C 0.1919(15) 0.6555(7) 0.7638(6)
H5 H 0.2161 0.5890 0.8062
C8 C -0.0370(16) 0.7388(7) 0.7796(7)
H6 H -0.1673 0.7277 0.8301
C9 C -0.0613(17) 0.8394(8) 0.7161(7)
H7 H -0.2109 0.8968 0.7245
C10 C 0.1270(18) 0.8548(7) 0.6433(7)
H8 H 0.1063 0.9235 0.6029
C11 C 0.3546(15) 0.7699(6) 0.6264(5)
C12 C 0.5418(17) 0.7924(7) 0.5461(6)
C13 C 0.692(2) 0.8215(9) 0.4789(7)
C14 C 0.920(7) 0.854(3) 0.4063(19)
H9 H 1.0770 0.8432 0.4362
H10 H 0.8806 0.9372 0.3840
C15 C 0.971(8) 0.777(3) 0.322(2)
H11 H 1.0675 0.8108 0.2652
H12 H 0.8159 0.7514 0.3080
C16 C 1.142(9) 0.685(5) 0.383(3)
H13 H 1.1933 0.7238 0.4313
H14 H 1.0388 0.6257 0.4133
C17 C 1.390(9) 0.622(4) 0.322(4)
H15 H 1.3510 0.5538 0.2981
H16 H 1.5269 0.5978 0.3608
H17 H 1.4464 0.6760 0.2707
C18 C 0.5815(15) 0.4249(7) 0.9748(5)
H18 H 0.6715 0.4661 1.0114
H19 H 0.4746 0.4828 0.9368
C19 C 0.2107(17) 0.4023(9) 1.0896(6)
C20 C 0.0579(17) 0.3152(9) 1.1421(6)
C21 C -0.1718(18) 0.3559(11) 1.1990(6)
H20 H -0.2232 0.4369 1.2043
C22 C -0.324(2) 0.2789(15) 1.2475(7)
H21 H -0.4740 0.3069 1.2882
C23 C -0.255(3) 0.1600(16) 1.2357(9)
H22 H -0.3629 0.1078 1.2669
C24 C -0.033(3) 0.1176(13) 1.1794(10)
H23 H 0.0123 0.0366 1.1727
C25 C 0.126(2) 0.1945(9) 1.1319(7)
H24 H 0.2781 0.1654 1.0931
C26 C 0.4751(13) 0.0931(6) 0.8793(5)
C27 C 0.4915(13) -0.0231(6) 0.9339(5)
C28 C 0.6530(18) -0.0520(8) 1.0022(7)
H25 H 0.7637 -0.0007 1.0109
C29 C 0.651(3) -0.1596(10) 1.0592(9)
H26 H 0.7484 -0.1771 1.1090
C30 C 0.503(2) -0.2370(8) 1.0399(8)
H27 H 0.5088 -0.3104 1.0743
C31 C 0.346(2) -0.2088(9) 0.9703(7)
H28 H 0.2450 -0.2626 0.9579
C32 C 0.3374(18) -0.1028(8) 0.9202(7)
H29 H 0.2246 -0.0830 0.8751
C33 C 0.6347(13) 0.2054(6) 0.6370(5)
C34 C 0.4503(15) 0.2231(7) 0.5655(5)
C35 C 0.4275(19) 0.1242(9) 0.5223(6)
H30 H 0.5291 0.0512 0.5361
C36 C 0.252(2) 0.1352(11) 0.4585(7)
H31 H 0.2326 0.0694 0.4297
C37 C 0.106(2) 0.2446(12) 0.4378(7)
H32 H -0.0125 0.2514 0.3949
C38 C 0.1289(18) 0.3400(11) 0.4772(6)
H33 H 0.0272 0.4125 0.4621
C39 C 0.3089(16) 0.3322(8) 0.5427(5)
H34 H 0.3304 0.3993 0.5694
C40? C 0.812(9) 0.855(6) 0.385(6)
C41? C 1.087(11) 0.782(5) 0.359(7)
C42? C 1.033(8) 0.664(3) 0.328(5)
C43? C 1.294(11) 0.577(4) 0.305(5)
H35? H 0.8261 0.9382 0.3806
H36? H 0.7004 0.8443 0.3401
H37? H 1.1818 0.7662 0.4128
H38? H 1.1885 0.8227 0.3076
H39? H 0.9187 0.6275 0.3775
H40? H 0.9459 0.6804 0.2718
H41? H 1.4077 0.5818 0.3502
H42? H 1.3770 0.5972 0.2427
H43? H 1.2584 0.4973 0.3090
loop_
_geom_bond_atom_site_label_1
_geom_bond_atom_site_label_2
_geom_bond_site_symmetry_1
_geom_bond_site_symmetry_2
O1 C1 1_555 1_555
O2 C19 1_555 1_555
O3 C18 1_555 1_555
O4 C26 1_555 1_555
O5 C2 1_555 1_555
O6 C33 1_555 1_555
O7 C3 1_555 1_555
O8 C5 1_555 1_555
O9 C4 1_555 1_555
C1 H1 1_555 1_555
C2 C1 1_555 1_555
H2 C2 1_555 1_555
C3 C2 1_555 1_555
H3 C3 1_555 1_555
C4 O1 1_555 1_555
H4 C4 1_555 1_555
C5 O9 1_555 1_555
C6 C5 1_555 1_555
C7 C6 1_555 1_555
H5 C7 1_555 1_555
C8 C7 1_555 1_555
H6 C8 1_555 1_555
C9 C8 1_555 1_555
H7 C9 1_555 1_555
C10 C9 1_555 1_555
H8 C10 1_555 1_555
C11 C6 1_555 1_555
C12 C11 1_555 1_555
C13 C12 1_555 1_555
C14 C13 1_555 1_555
H9 C14 1_555 1_555
H10 C14 1_555 1_555
C15 C14 1_555 1_555
H11 C15 1_555 1_555
H12 C15 1_555 1_555
C16 C15 1_555 1_555
H13 C16 1_555 1_555
H14 C16 1_555 1_555
C17 C16 1_555 1_555
H15 C17 1_555 1_555
H16 C17 1_555 1_555
H17 C17 1_555 1_555
C18 C1 1_555 1_555
H18 C18 1_555 1_555
H19 C18 1_555 1_555
C19 O3 1_555 1_555
C20 C19 1_555 1_555
C21 C20 1_555 1_555
H20 C21 1_555 1_555
C22 C21 1_555 1_555
H21 C22 1_555 1_555
C23 C22 1_555 1_555
H22 C23 1_555 1_555
C24 C23 1_555 1_555
H23 C24 1_555 1_555
C25 C20 1_555 1_555
H24 C25 1_555 1_555
C26 O5 1_555 1_555
C27 C26 1_555 1_555
C28 C27 1_555 1_555
H25 C28 1_555 1_555
C29 C28 1_555 1_555
H26 C29 1_555 1_555
C30 C29 1_555 1_555
H27 C30 1_555 1_555
C31 C30 1_555 1_555
H28 C31 1_555 1_555
C32 C27 1_555 1_555
H29 C32 1_555 1_555
C33 O7 1_555 1_555
C34 C33 1_555 1_555
C35 C34 1_555 1_555
H30 C35 1_555 1_555
C36 C35 1_555 1_555
H31 C36 1_555 1_555
C37 C36 1_555 1_555
H32 C37 1_555 1_555
C38 C37 1_555 1_555
H33 C38 1_555 1_555
C39 C34 1_555 1_555
H34 C39 1_555 1_555
C3 C4 1_555 1_555
C10 C11 1_555 1_555
C24 C25 1_555 1_555
C31 C32 1_555 1_555
C38 C39 1_555 1_555

#END
