
#######################################################################
#
#                 Cambridge Crystallographic Data Centre
#                                CCDC 
#
#######################################################################
#
# If this CIF has been generated from an entry in the Cambridge 
# Structural Database, then it will include bibliographic, chemical, 
# crystal, experimental, refinement or atomic coordinate data resulting 
# from the CCDC's data processing and validation procedures.
#
#######################################################################

data_IQIBEQ
_chemical_formula_moiety         'C14 H20 O4'
_chemical_name_systematic        
10,10-Dimethoxytricyclo[6.2.2.0^1,6^]dodecane-2,9-dione
_symmetry_cell_setting           monoclinic
_symmetry_space_group_name_H-M   'P 21'
_symmetry_Int_Tables_number      4
_space_group_name_Hall           'P 2yb'
loop_
_symmetry_equiv_pos_site_id
_symmetry_equiv_pos_as_xyz
1 x,y,z
2 -x,1/2+y,-z
_cell_length_a                   7.4841(15)
_cell_length_b                   6.5743(13)
_cell_length_c                   12.618(3)
_cell_angle_alpha                90
_cell_angle_beta                 95.08(3)
_cell_angle_gamma                90
_cell_volume                     618.401
_exptl_crystal_colour            colorless
_exptl_crystal_description       'rectangular block'
_cell_formula_units_Z            2
loop_
_atom_site_label
_atom_site_type_symbol
_atom_site_fract_x
_atom_site_fract_y
_atom_site_fract_z
O1 O 0.05137(19) 0.5482(3) 0.32480(12)
O2 O 0.1207(2) 0.8551(3) 0.24090(13)
C1 C 0.0341(3) 0.5521(3) 0.13991(16)
O3 O 0.4421(2) 0.8337(3) 0.36994(13)
C2 C 0.3379(3) 0.5855(3) 0.23788(16)
C3 C 0.1367(3) 0.6404(3) 0.24224(16)
C4 C 0.5323(3) 0.2630(4) 0.24428(17)
H1 H 0.5285 0.1138 0.2339
H2 H 0.6108 0.3218 0.1930
C5 C 0.4620(3) 0.6652(4) 0.33284(17)
C6 C 0.4078(3) 0.6899(3) 0.13893(16)
H3 H 0.4103 0.8391 0.1496
H4 H 0.5319 0.6440 0.1310
C7 C 0.3444(3) 0.3501(3) 0.22393(16)
H5 H 0.2689 0.2883 0.2770
O4 O -0.1274(2) 0.5526(3) 0.12886(13)
C8 C 0.6079(3) 0.3116(4) 0.35697(18)
H6 H 0.7277 0.2482 0.3712
H7 H 0.5282 0.2553 0.4083
C9 C 0.2598(3) 0.2914(3) 0.11147(17)
H8 H 0.3555 0.2511 0.0663
H9 H 0.1783 0.1739 0.1168
C10 C 0.2882(3) 0.6391(4) 0.03699(17)
H10 H 0.2224 0.7624 0.0108
H11 H 0.3635 0.5926 -0.0190
C11 C 0.1545(3) 0.4718(4) 0.06027(16)
H12 H 0.0826 0.4286 -0.0065
C12 C -0.0524(3) 0.9387(4) 0.2541(2)
H13 H -0.0942 0.8888 0.3208
H14 H -0.1370 0.8970 0.1943
H15 H -0.0445 1.0874 0.2562
C13 C 0.1204(3) 0.5929(4) 0.43156(17)
H16 H 0.1505 0.7378 0.4375
H17 H 0.2283 0.5115 0.4500
H18 H 0.0296 0.5601 0.4803
C14 C 0.6234(3) 0.5410(4) 0.37105(18)
H19 H 0.6523 0.5696 0.4477
H20 H 0.7261 0.5885 0.3333
loop_
_geom_bond_atom_site_label_1
_geom_bond_atom_site_label_2
_geom_bond_site_symmetry_1
_geom_bond_site_symmetry_2
O1 C3 1_555 1_555
O2 C3 1_555 1_555
C1 C3 1_555 1_555
O3 C5 1_555 1_555
C2 C3 1_555 1_555
C4 H1 1_555 1_555
H2 C4 1_555 1_555
C5 C2 1_555 1_555
C6 C2 1_555 1_555
H3 C6 1_555 1_555
H4 C6 1_555 1_555
C7 C2 1_555 1_555
H5 C7 1_555 1_555
O4 C1 1_555 1_555
C8 C4 1_555 1_555
H6 C8 1_555 1_555
H7 C8 1_555 1_555
C9 C7 1_555 1_555
H8 C9 1_555 1_555
H9 C9 1_555 1_555
C10 C6 1_555 1_555
H10 C10 1_555 1_555
H11 C10 1_555 1_555
C11 C1 1_555 1_555
H12 C11 1_555 1_555
C12 O2 1_555 1_555
H13 C12 1_555 1_555
H14 C12 1_555 1_555
H15 C12 1_555 1_555
C13 O1 1_555 1_555
H16 C13 1_555 1_555
H17 C13 1_555 1_555
H18 C13 1_555 1_555
C14 C5 1_555 1_555
H19 C14 1_555 1_555
H20 C14 1_555 1_555
C4 C7 1_555 1_555
C8 C14 1_555 1_555
C9 C11 1_555 1_555
C10 C11 1_555 1_555

#END
