
#######################################################################
#
#                 Cambridge Crystallographic Data Centre
#                                CCDC 
#
#######################################################################
#
# If this CIF has been generated from an entry in the Cambridge 
# Structural Database, then it will include bibliographic, chemical, 
# crystal, experimental, refinement or atomic coordinate data resulting 
# from the CCDC's data processing and validation procedures.
#
#######################################################################

data_IQIYEO
_chemical_formula_moiety         'C14 H16 N2'
_chemical_name_systematic        
N-(4-ethylphenyl)-1-(1H-pyrrol-2-yl)ethanimine
_symmetry_cell_setting           triclinic
_symmetry_space_group_name_H-M   'P -1'
_symmetry_Int_Tables_number      2
_space_group_name_Hall           '-P 1'
loop_
_symmetry_equiv_pos_site_id
_symmetry_equiv_pos_as_xyz
1 x,y,z
2 -x,-y,-z
_cell_length_a                   6.7857(15)
_cell_length_b                   9.234(2)
_cell_length_c                   10.341(2)
_cell_angle_alpha                73.820(4)
_cell_angle_beta                 72.710(4)
_cell_angle_gamma                88.369(4)
_cell_volume                     593.129
_cell_formula_units_Z            2
loop_
_atom_site_label
_atom_site_type_symbol
_atom_site_fract_x
_atom_site_fract_y
_atom_site_fract_z
N1 N 0.7174(4) 0.1624(3) -0.1732(3)
H1 H 0.6654 0.0740 -0.1214
N2 N 0.3351(4) 0.1795(3) 0.0243(3)
C1 C 0.9072(5) 0.1927(4) -0.2685(3)
H2 H 1.0023 0.1216 -0.2890
C2 C 0.9363(6) 0.3449(4) -0.3297(4)
H3 H 1.0543 0.3963 -0.3982
C3 C 0.7545(6) 0.4090(4) -0.2696(4)
H4 H 0.7297 0.5112 -0.2923
C4 C 0.6196(5) 0.2953(4) -0.1718(3)
C5 C 0.4165(5) 0.3000(4) -0.0750(3)
C6 C 0.3140(7) 0.4483(4) -0.0971(5)
H5 H 0.2433 0.4564 -0.1664
H6 H 0.4171 0.5301 -0.1295
H7 H 0.2166 0.4527 -0.0096
C7 C 0.1348(5) 0.1847(3) 0.1189(3)
C8 C 0.1129(5) 0.1937(4) 0.2541(4)
H8 H 0.2302 0.2000 0.2817
C9 C -0.0810(5) 0.1935(4) 0.3488(4)
H9 H -0.0934 0.2010 0.4387
C10 C -0.2550(5) 0.1821(4) 0.3087(4)
C11 C -0.2360(5) 0.1663(4) 0.1766(4)
H10 H -0.3537 0.1543 0.1512
C12 C -0.0420(5) 0.1685(4) 0.0821(3)
H11 H -0.0301 0.1590 -0.0071
C13 C -0.4527(4) 0.1860(4) 0.3926(3)
H12 H -0.5273 0.0923 0.4059
H13 H -0.5183 0.2671 0.3411
C14 C -0.4800(7) 0.2061(7) 0.5279(5)
H14 H -0.4248 0.1233 0.5835
H15 H -0.6247 0.2096 0.5742
H16 H -0.4089 0.2990 0.5176
loop_
_geom_bond_atom_site_label_1
_geom_bond_atom_site_label_2
_geom_bond_site_symmetry_1
_geom_bond_site_symmetry_2
N1 H1 1_555 1_555
N2 C5 1_555 1_555
C1 N1 1_555 1_555
H2 C1 1_555 1_555
C2 C1 1_555 1_555
H3 C2 1_555 1_555
C3 C2 1_555 1_555
H4 C3 1_555 1_555
C4 N1 1_555 1_555
C5 C4 1_555 1_555
C6 C5 1_555 1_555
H5 C6 1_555 1_555
H6 C6 1_555 1_555
H7 C6 1_555 1_555
C7 N2 1_555 1_555
C8 C7 1_555 1_555
H8 C8 1_555 1_555
C9 C8 1_555 1_555
H9 C9 1_555 1_555
C10 C9 1_555 1_555
C11 C10 1_555 1_555
H10 C11 1_555 1_555
C12 C7 1_555 1_555
H11 C12 1_555 1_555
C13 C10 1_555 1_555
H12 C13 1_555 1_555
H13 C13 1_555 1_555
C14 C13 1_555 1_555
H14 C14 1_555 1_555
H15 C14 1_555 1_555
H16 C14 1_555 1_555
C3 C4 1_555 1_555
C11 C12 1_555 1_555

#END
