
#######################################################################
#
#                 Cambridge Crystallographic Data Centre
#                                CCDC 
#
#######################################################################
#
# If this CIF has been generated from an entry in the Cambridge 
# Structural Database, then it will include bibliographic, chemical, 
# crystal, experimental, refinement or atomic coordinate data resulting 
# from the CCDC's data processing and validation procedures.
#
#######################################################################

data_IQIZUE
_chemical_formula_moiety         'C16 H12 N2 O1'
_chemical_name_systematic        3-(1H-Indol-3-yl)isoindolin-1-one
_symmetry_cell_setting           orthorhombic
_symmetry_space_group_name_H-M   'P 21 21 21'
_symmetry_Int_Tables_number      19
_space_group_name_Hall           'P 2ac 2ab'
loop_
_symmetry_equiv_pos_site_id
_symmetry_equiv_pos_as_xyz
1 x,y,z
2 1/2+x,1/2-y,-z
3 -x,1/2+y,1/2-z
4 1/2-x,-y,1/2+z
_cell_length_a                   6.4030(13)
_cell_length_b                   7.7130(15)
_cell_length_c                   24.623(3)
_cell_angle_alpha                90
_cell_angle_beta                 90
_cell_angle_gamma                90
_cell_volume                     1216.04
_exptl_crystal_colour            colorless
_exptl_crystal_description       prism
_cell_formula_units_Z            4
loop_
_atom_site_label
_atom_site_type_symbol
_atom_site_fract_x
_atom_site_fract_y
_atom_site_fract_z
O1 O 0.63054(17) 0.41617(14) 0.51044(4)
N1 N 0.2955(2) 0.38519(14) 0.54288(4)
N2 N -0.1345(2) 0.23800(19) 0.67851(6)
C1 C 0.4747(2) 0.47115(16) 0.53380(4)
C2 C 0.4461(2) 0.64525(15) 0.55789(4)
C3 C 0.5832(2) 0.78370(19) 0.55912(5)
H1 H 0.7161 0.7757 0.5441
C4 C 0.5144(3) 0.93430(19) 0.58363(6)
H2 H 0.6014 1.0308 0.5844
C5 C 0.3193(3) 0.94396(17) 0.60688(6)
H3 H 0.2781 1.0463 0.6237
C6 C 0.1836(3) 0.80512(17) 0.60578(5)
H4 H 0.0520 0.8126 0.6216
C7 C 0.2487(2) 0.65438(15) 0.58044(4)
C8 C 0.1364(2) 0.48509(16) 0.57198(5)
H5 H 0.0164 0.5040 0.5480
C9 C 0.0639(2) 0.39639(15) 0.62289(5)
C10 C -0.1205(3) 0.3128(2) 0.62826(6)
H6 H -0.2232 0.3069 0.6016
C11 C 0.0431(2) 0.27596(17) 0.70733(5)
C12 C 0.1738(2) 0.37485(15) 0.67326(5)
C13 C 0.3646(2) 0.43196(18) 0.69391(5)
H7 H 0.4555 0.4957 0.6723
C14 C 0.4169(3) 0.3925(2) 0.74699(6)
H8 H 0.5428 0.4320 0.7612
C15 C 0.2835(3) 0.2945(2) 0.77955(6)
H9 H 0.3225 0.2692 0.8151
C16 C 0.0963(3) 0.2345(2) 0.76031(6)
H10 H 0.0081 0.1683 0.7820
H11 H 0.259(3) 0.278(2) 0.5281(6)
H12 H -0.248(4) 0.190(3) 0.6923(8)
loop_
_geom_bond_atom_site_label_1
_geom_bond_atom_site_label_2
_geom_bond_site_symmetry_1
_geom_bond_site_symmetry_2
O1 C1 1_555 1_555
N1 C1 1_555 1_555
N2 C10 1_555 1_555
C1 C2 1_555 1_555
C2 C3 1_555 1_555
C3 H1 1_555 1_555
C4 C3 1_555 1_555
H2 C4 1_555 1_555
C5 C4 1_555 1_555
H3 C5 1_555 1_555
C6 C5 1_555 1_555
H4 C6 1_555 1_555
C7 C2 1_555 1_555
C8 N1 1_555 1_555
H5 C8 1_555 1_555
C9 C8 1_555 1_555
C10 C9 1_555 1_555
H6 C10 1_555 1_555
C11 N2 1_555 1_555
C12 C9 1_555 1_555
C13 C12 1_555 1_555
H7 C13 1_555 1_555
C14 C13 1_555 1_555
H8 C14 1_555 1_555
C15 C14 1_555 1_555
H9 C15 1_555 1_555
C16 C11 1_555 1_555
H10 C16 1_555 1_555
H11 N1 1_555 1_555
H12 N2 1_555 1_555
C6 C7 1_555 1_555
C7 C8 1_555 1_555
C11 C12 1_555 1_555
C15 C16 1_555 1_555

#END
