
#######################################################################
#
#                 Cambridge Crystallographic Data Centre
#                                CCDC 
#
#######################################################################
#
# If this CIF has been generated from an entry in the Cambridge 
# Structural Database, then it will include bibliographic, chemical, 
# crystal, experimental, refinement or atomic coordinate data resulting 
# from the CCDC's data processing and validation procedures.
#
#######################################################################

data_IRABAF
_chemical_formula_moiety         'C60 H64 B2 N2 Si1'
_chemical_name_systematic        
3,3'-(Dimethylsilanediyl)bis(6,6-dimesityl-6H-5\l^5^,6\l^5^-pyrido[1,2-b][2,1]benzazaborole)
_symmetry_cell_setting           orthorhombic
_symmetry_space_group_name_H-M   'P 21 21 21'
_symmetry_Int_Tables_number      19
_space_group_name_Hall           'P 2ac 2ab'
loop_
_symmetry_equiv_pos_site_id
_symmetry_equiv_pos_as_xyz
1 x,y,z
2 1/2-x,-y,1/2+z
3 -x,1/2+y,1/2-z
4 1/2+x,1/2-y,-z
_cell_length_a                   15.3881(12)
_cell_length_b                   16.3157(9)
_cell_length_c                   20.4690(11)
_cell_angle_alpha                90
_cell_angle_beta                 90
_cell_angle_gamma                90
_cell_volume                     5139.1
_cell_formula_units_Z            4
loop_
_atom_site_label
_atom_site_type_symbol
_atom_site_fract_x
_atom_site_fract_y
_atom_site_fract_z
Si1 Si 0.46835(10) 0.02500(9) 0.87069(8)
N1 N 0.6963(3) -0.0688(2) 0.94940(19)
N2 N 0.3619(3) -0.1662(2) 0.7671(2)
C1 C 0.8416(3) -0.1028(3) 0.9870(3)
C2 C 0.9246(4) -0.1280(3) 1.0069(3)
H1 H 0.9458 -0.1799 0.9930
C3 C 0.9761(4) -0.0796(3) 1.0459(3)
H2 H 1.0326 -0.0977 1.0576
C4 C 0.9462(4) -0.0041(4) 1.0685(3)
H3 H 0.9818 0.0290 1.0957
C5 C 0.8643(4) 0.0216(4) 1.0509(3)
H4 H 0.8431 0.0729 1.0659
C6 C 0.8132(3) -0.0269(3) 1.0114(2)
C7 C 0.7279(4) -0.0064(3) 0.9848(3)
C8 C 0.6819(4) 0.0663(3) 0.9908(3)
H5 H 0.7036 0.1095 1.0172
C9 C 0.6048(4) 0.0749(3) 0.9581(3)
H6 H 0.5733 0.1248 0.9619
C10 C 0.5716(3) 0.0119(3) 0.9191(2)
C11 C 0.6213(3) -0.0590(3) 0.9162(2)
H7 H 0.6016 -0.1028 0.8894
C12 C 0.7362(3) -0.2287(3) 0.9884(2)
C13 C 0.6723(3) -0.2322(3) 1.0378(2)
C14 C 0.6495(4) -0.3067(4) 1.0658(3)
H8 H 0.6047 -0.3071 1.0977
C15 C 0.6880(4) -0.3793(3) 1.0499(3)
C16 C 0.7551(4) -0.3764(3) 1.0044(3)
H9 H 0.7844 -0.4255 0.9929
C17 C 0.7804(3) -0.3027(3) 0.9754(2)
C18 C 0.8574(3) -0.3099(3) 0.9292(3)
H10 H 0.8989 -0.3498 0.9466
H11 H 0.8858 -0.2564 0.9251
H12 H 0.8371 -0.3280 0.8862
C19 C 0.6603(5) -0.4604(4) 1.0803(3)
H13 H 0.6872 -0.5057 1.0563
H14 H 0.5969 -0.4654 1.0782
H15 H 0.6791 -0.4621 1.1260
C20 C 0.6249(4) -0.1569(3) 1.0625(3)
H16 H 0.5887 -0.1719 1.1001
H17 H 0.5881 -0.1348 1.0277
H18 H 0.6673 -0.1154 1.0759
C21 C 0.7723(3) -0.1648(3) 0.8665(3)
C22 C 0.8359(4) -0.1263(3) 0.8278(3)
C23 C 0.8413(4) -0.1452(4) 0.7599(3)
H19 H 0.8841 -0.1183 0.7342
C24 C 0.7869(4) -0.2013(4) 0.7299(3)
C25 C 0.7242(4) -0.2360(4) 0.7675(3)
H20 H 0.6856 -0.2741 0.7478
C26 C 0.7137(4) -0.2183(3) 0.8344(2)
C27 C 0.9008(4) -0.0638(4) 0.8533(3)
H21 H 0.8710 -0.0251 0.8823
H22 H 0.9264 -0.0340 0.8165
H23 H 0.9467 -0.0921 0.8776
C28 C 0.7985(6) -0.2214(6) 0.6587(3)
H24 H 0.8472 -0.1898 0.6410
H25 H 0.7453 -0.2075 0.6348
H26 H 0.8105 -0.2801 0.6538
C29 C 0.6388(4) -0.2628(3) 0.8671(3)
H27 H 0.5924 -0.2722 0.8351
H28 H 0.6164 -0.2294 0.9032
H29 H 0.6592 -0.3156 0.8841
C30 C 0.2941(3) -0.2844(3) 0.7157(2)
C31 C 0.2654(4) -0.3509(4) 0.6791(3)
H30 H 0.2502 -0.3432 0.6346
C32 C 0.2587(5) -0.4274(4) 0.7064(3)
H31 H 0.2381 -0.4718 0.6806
C33 C 0.2818(4) -0.4411(4) 0.7715(3)
H32 H 0.2757 -0.4942 0.7900
C34 C 0.3133(4) -0.3779(3) 0.8087(3)
H33 H 0.3298 -0.3864 0.8530
C35 C 0.3205(4) -0.3022(3) 0.7804(3)
C36 C 0.3569(3) -0.2292(3) 0.8098(2)
C37 C 0.3853(3) -0.2186(3) 0.8741(3)
H34 H 0.3814 -0.2622 0.9047
C38 C 0.4189(3) -0.1445(3) 0.8922(3)
H35 H 0.4380 -0.1373 0.9359
C39 C 0.4261(3) -0.0787(3) 0.8487(2)
C40 C 0.3938(3) -0.0937(3) 0.7869(3)
H36 H 0.3942 -0.0499 0.7564
C41 C 0.3735(3) -0.1925(3) 0.6307(3)
C42 C 0.3288(4) -0.1949(3) 0.5695(3)
C43 C 0.3750(4) -0.1986(3) 0.5107(3)
H37 H 0.3434 -0.1990 0.4709
C44 C 0.4645(4) -0.2016(3) 0.5082(3)
C45 C 0.5071(4) -0.2034(3) 0.5678(3)
H38 H 0.5686 -0.2087 0.5678
C46 C 0.4644(3) -0.1979(3) 0.6278(3)
C47 C 0.5221(3) -0.1943(3) 0.6881(3)
H39 H 0.4988 -0.2309 0.7218
H40 H 0.5236 -0.1381 0.7049
H41 H 0.5811 -0.2116 0.6766
C48 C 0.5136(4) -0.2033(4) 0.4443(3)
H42 H 0.5716 -0.1799 0.4507
H43 H 0.4820 -0.1711 0.4116
H44 H 0.5190 -0.2601 0.4292
C49 C 0.2305(4) -0.1906(5) 0.5633(3)
H45 H 0.2123 -0.2185 0.5232
H46 H 0.2122 -0.1331 0.5617
H47 H 0.2037 -0.2174 0.6011
C50 C 0.2360(4) -0.1185(4) 0.6968(3)
C51 C 0.1519(4) -0.1317(4) 0.7246(3)
C52 C 0.0961(5) -0.0643(5) 0.7350(4)
H48 H 0.0401 -0.0746 0.7525
C53 C 0.1183(5) 0.0159(5) 0.7212(4)
C54 C 0.1979(4) 0.0280(5) 0.6919(3)
H49 H 0.2145 0.0822 0.6802
C55 C 0.2556(4) -0.0372(4) 0.6787(3)
C56 C 0.1192(4) -0.2160(4) 0.7448(3)
H50 H 0.0613 -0.2107 0.7643
H51 H 0.1592 -0.2399 0.7768
H52 H 0.1160 -0.2516 0.7063
C57 C 0.0560(6) 0.0871(5) 0.7354(5)
H53 H 0.0860 0.1392 0.7279
H54 H 0.0368 0.0842 0.7810
H55 H 0.0055 0.0833 0.7065
C58 C 0.3359(4) -0.0115(4) 0.6429(3)
H56 H 0.3841 -0.0478 0.6548
H57 H 0.3505 0.0450 0.6547
H58 H 0.3256 -0.0149 0.5957
C59 C 0.4924(4) 0.0824(3) 0.7951(3)
H59 H 0.4379 0.0955 0.7726
H60 H 0.5291 0.0489 0.7665
H61 H 0.5230 0.1333 0.8061
C60 C 0.3900(4) 0.0808(4) 0.9218(4)
H62 H 0.3813 0.0511 0.9629
H63 H 0.3345 0.0853 0.8986
H64 H 0.4124 0.1358 0.9312
B1 B 0.7640(4) -0.1474(3) 0.9458(3)
B2 B 0.3134(4) -0.1900(4) 0.6961(3)
loop_
_geom_bond_atom_site_label_1
_geom_bond_atom_site_label_2
_geom_bond_site_symmetry_1
_geom_bond_site_symmetry_2
Si1 C10 1_555 1_555
N1 C7 1_555 1_555
N2 C36 1_555 1_555
C1 C2 1_555 1_555
C2 H1 1_555 1_555
C3 C2 1_555 1_555
H2 C3 1_555 1_555
C4 C3 1_555 1_555
H3 C4 1_555 1_555
C5 C4 1_555 1_555
H4 C5 1_555 1_555
C6 C1 1_555 1_555
C7 C6 1_555 1_555
C8 C7 1_555 1_555
H5 C8 1_555 1_555
C9 C8 1_555 1_555
H6 C9 1_555 1_555
C10 C9 1_555 1_555
C11 N1 1_555 1_555
H7 C11 1_555 1_555
C12 C13 1_555 1_555
C13 C14 1_555 1_555
C14 H8 1_555 1_555
C15 C14 1_555 1_555
C16 C15 1_555 1_555
H9 C16 1_555 1_555
C17 C12 1_555 1_555
C18 C17 1_555 1_555
H10 C18 1_555 1_555
H11 C18 1_555 1_555
H12 C18 1_555 1_555
C19 C15 1_555 1_555
H13 C19 1_555 1_555
H14 C19 1_555 1_555
H15 C19 1_555 1_555
C20 C13 1_555 1_555
H16 C20 1_555 1_555
H17 C20 1_555 1_555
H18 C20 1_555 1_555
C21 C22 1_555 1_555
C22 C23 1_555 1_555
C23 H19 1_555 1_555
C24 C23 1_555 1_555
C25 C24 1_555 1_555
H20 C25 1_555 1_555
C26 C21 1_555 1_555
C27 C22 1_555 1_555
H21 C27 1_555 1_555
H22 C27 1_555 1_555
H23 C27 1_555 1_555
C28 C24 1_555 1_555
H24 C28 1_555 1_555
H25 C28 1_555 1_555
H26 C28 1_555 1_555
C29 C26 1_555 1_555
H27 C29 1_555 1_555
H28 C29 1_555 1_555
H29 C29 1_555 1_555
C30 C31 1_555 1_555
C31 H30 1_555 1_555
C32 C31 1_555 1_555
H31 C32 1_555 1_555
C33 C32 1_555 1_555
H32 C33 1_555 1_555
C34 C33 1_555 1_555
H33 C34 1_555 1_555
C35 C30 1_555 1_555
C36 C35 1_555 1_555
C37 C36 1_555 1_555
H34 C37 1_555 1_555
C38 C37 1_555 1_555
H35 C38 1_555 1_555
C39 Si1 1_555 1_555
C40 N2 1_555 1_555
H36 C40 1_555 1_555
C41 C42 1_555 1_555
C42 C43 1_555 1_555
C43 H37 1_555 1_555
C44 C43 1_555 1_555
C45 C44 1_555 1_555
H38 C45 1_555 1_555
C46 C41 1_555 1_555
C47 C46 1_555 1_555
H39 C47 1_555 1_555
H40 C47 1_555 1_555
H41 C47 1_555 1_555
C48 C44 1_555 1_555
H42 C48 1_555 1_555
H43 C48 1_555 1_555
H44 C48 1_555 1_555
C49 C42 1_555 1_555
H45 C49 1_555 1_555
H46 C49 1_555 1_555
H47 C49 1_555 1_555
C50 C51 1_555 1_555
C51 C52 1_555 1_555
C52 H48 1_555 1_555
C53 C52 1_555 1_555
C54 C53 1_555 1_555
H49 C54 1_555 1_555
C55 C50 1_555 1_555
C56 C51 1_555 1_555
H50 C56 1_555 1_555
H51 C56 1_555 1_555
H52 C56 1_555 1_555
C57 C53 1_555 1_555
H53 C57 1_555 1_555
H54 C57 1_555 1_555
H55 C57 1_555 1_555
C58 C55 1_555 1_555
H56 C58 1_555 1_555
H57 C58 1_555 1_555
H58 C58 1_555 1_555
C59 Si1 1_555 1_555
H59 C59 1_555 1_555
H60 C59 1_555 1_555
H61 C59 1_555 1_555
C60 Si1 1_555 1_555
H62 C60 1_555 1_555
H63 C60 1_555 1_555
H64 C60 1_555 1_555
B1 N1 1_555 1_555
B2 N2 1_555 1_555
C1 B1 1_555 1_555
C5 C6 1_555 1_555
C10 C11 1_555 1_555
C12 B1 1_555 1_555
C16 C17 1_555 1_555
C21 B1 1_555 1_555
C25 C26 1_555 1_555
C30 B2 1_555 1_555
C34 C35 1_555 1_555
C38 C39 1_555 1_555
C39 C40 1_555 1_555
C41 B2 1_555 1_555
C45 C46 1_555 1_555
C50 B2 1_555 1_555
C54 C55 1_555 1_555

#END
