
#######################################################################
#
#                 Cambridge Crystallographic Data Centre
#                                CCDC 
#
#######################################################################
#
# If this CIF has been generated from an entry in the Cambridge 
# Structural Database, then it will include bibliographic, chemical, 
# crystal, experimental, refinement or atomic coordinate data resulting 
# from the CCDC's data processing and validation procedures.
#
#######################################################################

data_IREKUL
_chemical_formula_moiety         'C30 H32 Cl1 N1 O2'
_chemical_name_systematic        
2,2,7,7-tetramethyl-5,6-dioxo-9-(2-chlorophenyl)-10-p-tolyl-9,10-dihydro-2H-acridine
_symmetry_cell_setting           monoclinic
_symmetry_space_group_name_H-M   'P 21/c'
_symmetry_Int_Tables_number      14
_space_group_name_Hall           '-P 2ybc'
loop_
_symmetry_equiv_pos_site_id
_symmetry_equiv_pos_as_xyz
1 x,y,z
2 x,1/2-y,1/2+z
3 -x,-y,-z
4 -x,1/2+y,1/2-z
_cell_length_a                   12.048(3)
_cell_length_b                   11.044(2)
_cell_length_c                   19.989(5)
_cell_angle_alpha                90
_cell_angle_beta                 101.42(2)
_cell_angle_gamma                90
_cell_volume                     2607.04
_chemical_melting_point          '316-318 deg.C'
_cell_formula_units_Z            4
loop_
_atom_site_label
_atom_site_type_symbol
_atom_site_fract_x
_atom_site_fract_y
_atom_site_fract_z
O1 O 0.08377(17) 0.31070(17) 0.43869(9)
O2 O 0.07221(17) 0.16769(16) 0.67718(9)
Cl1 Cl 0.40962(12) 0.37318(15) 0.62700(8)
N1 N 0.20434(17) 0.55734(17) 0.63193(10)
C1 C 0.3501(3) 1.0212(3) 0.74585(15)
H1 H 0.4303 1.0291 0.7490
H2 H 0.3329 1.0278 0.7906
H3 H 0.3117 1.0842 0.7172
C2 C 0.3115(3) 0.8993(2) 0.71566(13)
C3 C 0.2004(2) 0.8783(2) 0.68675(13)
H7 H 0.1481 0.9404 0.6860
C4 C 0.1638(2) 0.7676(2) 0.65869(12)
H8 H 0.0878 0.7553 0.6397
C5 C 0.2409(2) 0.6760(2) 0.65910(12)
C6 C 0.3532(2) 0.6947(3) 0.68653(14)
H9 H 0.4055 0.6329 0.6862
C7 C 0.3884(2) 0.8064(3) 0.71471(15)
H10 H 0.4646 0.8191 0.7332
C8 C 0.1873(2) 0.5342(2) 0.56237(12)
C9 C 0.2051(2) 0.6398(2) 0.51789(12)
H11 H 0.2680 0.6880 0.5417
H12 H 0.1380 0.6905 0.5106
C10 C 0.2295(2) 0.6020(2) 0.44825(13)
C11 C 0.1393(2) 0.5113(2) 0.41683(13)
H13 H 0.0677 0.5535 0.4038
H14 H 0.1590 0.4790 0.3756
C12 C 0.1240(2) 0.4073(2) 0.46305(13)
C13 C 0.1550(2) 0.4244(2) 0.53630(12)
C14 C 0.1466(2) 0.3149(2) 0.58107(12)
H15 H 0.0738 0.2758 0.5633
C15 C 0.1448(2) 0.3561(2) 0.65289(12)
C16 C 0.1028(2) 0.2699(2) 0.69748(13)
C17 C 0.0947(2) 0.3100(2) 0.76814(13)
H16 H 0.1029 0.2397 0.7978
H17 H 0.0200 0.3437 0.7669
C18 C 0.1829(3) 0.4034(2) 0.79827(13)
C19 C 0.1750(2) 0.5082(2) 0.74795(12)
H18 H 0.1060 0.5531 0.7485
H19 H 0.2384 0.5624 0.7629
C20 C 0.1752(2) 0.4684(2) 0.67575(12)
C21 C 0.2386(3) 0.2227(2) 0.57745(13)
C22 C 0.4380(4) 0.1692(5) 0.5925(2)
H20 H 0.5136 0.1914 0.6059
C23 C 0.4092(5) 0.0556(6) 0.5688(3)
H21 H 0.4659 0.0000 0.5656
C24 C 0.2978(5) 0.0217(4) 0.54963(19)
H22 H 0.2788 -0.0563 0.5339
C25 C 0.3524(3) 0.2508(3) 0.59639(15)
C26 C 0.2140(3) 0.1059(3) 0.55413(14)
H23 H 0.1386 0.0830 0.5410
C29 C 0.3469(2) 0.5447(3) 0.45742(14)
H25 H 0.3494 0.4729 0.4848
H26 H 0.4028 0.6012 0.4797
H27 H 0.3625 0.5239 0.4136
C30 C 0.2245(3) 0.7144(3) 0.40263(14)
H28 H 0.2401 0.6914 0.3591
H29 H 0.2799 0.7722 0.4239
H30 H 0.1504 0.7498 0.3964
C31 C 0.1586(3) 0.4508(3) 0.86609(13)
H31 H 0.0861 0.4901 0.8581
H32 H 0.2162 0.5076 0.8856
H33 H 0.1582 0.3843 0.8970
C32 C 0.3005(3) 0.3462(3) 0.81105(15)
H34 H 0.3029 0.2796 0.8422
H35 H 0.3559 0.4055 0.8303
H36 H 0.3167 0.3174 0.7687
Cl2? Cl 0.09096(19) 0.04801(15) 0.53184(9)
H4? H 0.2863 1.0650 0.7555
H5? H 0.3837 1.0663 0.7139
H6? H 0.4050 1.0099 0.7873
C27? C 0.3524(3) 0.2508(3) 0.59639(15)
H24? H 0.3723 0.3283 0.6125
C28? C 0.2140(3) 0.1059(3) 0.55413(14)
loop_
_geom_bond_atom_site_label_1
_geom_bond_atom_site_label_2
_geom_bond_site_symmetry_1
_geom_bond_site_symmetry_2
O1 C12 1_555 1_555
O2 C16 1_555 1_555
Cl1 C25 1_555 1_555
N1 C5 1_555 1_555
C1 H1 1_555 1_555
H2 C1 1_555 1_555
H3 C1 1_555 1_555
C2 C1 1_555 1_555
C3 C2 1_555 1_555
H7 C3 1_555 1_555
C4 C3 1_555 1_555
H8 C4 1_555 1_555
C5 C4 1_555 1_555
C6 C5 1_555 1_555
H9 C6 1_555 1_555
C7 C2 1_555 1_555
H10 C7 1_555 1_555
C8 N1 1_555 1_555
C9 C8 1_555 1_555
H11 C9 1_555 1_555
H12 C9 1_555 1_555
C10 C9 1_555 1_555
C11 C10 1_555 1_555
H13 C11 1_555 1_555
H14 C11 1_555 1_555
C12 C11 1_555 1_555
C13 C8 1_555 1_555
C14 C13 1_555 1_555
H15 C14 1_555 1_555
C15 C14 1_555 1_555
C16 C15 1_555 1_555
C17 C16 1_555 1_555
H16 C17 1_555 1_555
H17 C17 1_555 1_555
C18 C17 1_555 1_555
C19 C18 1_555 1_555
H18 C19 1_555 1_555
H19 C19 1_555 1_555
C20 N1 1_555 1_555
C21 C14 1_555 1_555
C22 H20 1_555 1_555
C23 C22 1_555 1_555
H21 C23 1_555 1_555
C24 C23 1_555 1_555
H22 C24 1_555 1_555
C25 C21 1_555 1_555
C26 C21 1_555 1_555
H23 C26 1_555 1_555
C29 C10 1_555 1_555
H25 C29 1_555 1_555
H26 C29 1_555 1_555
H27 C29 1_555 1_555
C30 C10 1_555 1_555
H28 C30 1_555 1_555
H29 C30 1_555 1_555
H30 C30 1_555 1_555
C31 C18 1_555 1_555
H31 C31 1_555 1_555
H32 C31 1_555 1_555
H33 C31 1_555 1_555
C32 C18 1_555 1_555
H34 C32 1_555 1_555
H35 C32 1_555 1_555
H36 C32 1_555 1_555
C6 C7 1_555 1_555
C12 C13 1_555 1_555
C15 C20 1_555 1_555
C19 C20 1_555 1_555
C22 C25 1_555 1_555
C24 C26 1_555 1_555

#END
