
#######################################################################
#
#                 Cambridge Crystallographic Data Centre
#                                CCDC 
#
#######################################################################
#
# If this CIF has been generated from an entry in the Cambridge 
# Structural Database, then it will include bibliographic, chemical, 
# crystal, experimental, refinement or atomic coordinate data resulting 
# from the CCDC's data processing and validation procedures.
#
#######################################################################

data_IRIFUL
_chemical_formula_moiety         'C22 H30 O7 Si2'
_chemical_name_systematic        
2,2'-(1,1,3,3-Tetramethyldisiloxane-1,3-diyl)bis(4,5-dimethoxybenzaldehyde)
_symmetry_cell_setting           monoclinic
_symmetry_space_group_name_H-M   'P 21/n'
_symmetry_Int_Tables_number      14
_space_group_name_Hall           '-P 2yn'
loop_
_symmetry_equiv_pos_site_id
_symmetry_equiv_pos_as_xyz
1 x,y,z
2 1/2-x,1/2+y,1/2-z
3 -x,-y,-z
4 1/2+x,1/2-y,1/2+z
_cell_length_a                   12.0065(7)
_cell_length_b                   16.7391(9)
_cell_length_c                   13.4438(8)
_cell_angle_alpha                90
_cell_angle_beta                 115.125(1)
_cell_angle_gamma                90
_cell_volume                     2446.26
_exptl_crystal_colour            white
_exptl_crystal_description       block
_cell_formula_units_Z            4
_exptl_crystal_recrystallization_method chloroform
loop_
_atom_site_label
_atom_site_type_symbol
_atom_site_fract_x
_atom_site_fract_y
_atom_site_fract_z
Si1 Si 0.00524(5) 0.15762(3) 0.13701(4)
Si2 Si 0.27547(5) 0.08703(3) 0.23730(4)
C1 C 0.32794(17) 0.08907(11) 0.12278(15)
C2 C 0.23820(16) 0.09093(11) 0.01413(14)
H1 H 0.1557 0.0897 0.0012
C3 C 0.39141(18) 0.09890(11) -0.05816(16)
C4 C 0.26770(18) 0.09459(11) -0.07499(15)
C5 C 0.45068(17) 0.09049(12) 0.13716(16)
C6 C 0.48101(18) 0.09690(12) 0.04768(17)
H2 H 0.5633 0.0999 0.0602
O1 O 0.54538(16) 0.06998(14) 0.32985(14)
C7 C 0.5334(2) 0.12225(16) -0.1357(2)
H3 H 0.5596 0.1715 -0.0959
H4 H 0.5348 0.1276 -0.2063
H5 H 0.5879 0.0800 -0.0954
C8 C 0.0584(2) 0.08914(19) -0.20686(18)
H6 H 0.0448 0.0413 -0.1742
H7 H 0.0115 0.0869 -0.2851
H8 H 0.0331 0.1346 -0.1782
O2 O 0.18535(13) 0.09595(10) -0.18195(11)
O3 O 0.41134(14) 0.10403(9) -0.15016(12)
C9 C 0.5539(2) 0.08167(17) 0.2450(2)
C10 C -0.03992(16) 0.15791(10) 0.25606(14)
C11 C -0.14119(16) 0.19924(11) 0.25743(15)
C12 C -0.16398(18) 0.19989(12) 0.35122(16)
H9 H -0.2317 0.2275 0.3500
C13 C -0.08782(18) 0.16033(11) 0.44494(15)
C14 C 0.03639(17) 0.11872(11) 0.35287(14)
H10 H 0.1040 0.0907 0.3546
C15 C 0.01526(17) 0.12000(11) 0.44638(14)
O4 O -0.21866(16) 0.25019(11) 0.07621(12)
C16 C -0.2096(2) 0.18890(15) 0.5413(2)
H11 H -0.2108 0.2457 0.5307
H12 H -0.2115 0.1776 0.6105
H13 H -0.2801 0.1653 0.4831
C17 C 0.1972(2) 0.04676(15) 0.55527(18)
H14 H 0.1776 0.0017 0.5065
H15 H 0.2417 0.0289 0.6297
H16 H 0.2470 0.0837 0.5373
O5 O -0.10122(14) 0.15659(10) 0.54054(11)
O6 O 0.08672(13) 0.08516(9) 0.54386(11)
C18 C -0.2258(2) 0.24512(14) 0.16282(17)
C19 C 0.0538(2) 0.25888(13) 0.11526(18)
H17 H 0.1198 0.2771 0.1820
H18 H -0.0145 0.2950 0.0948
H19 H 0.0812 0.2569 0.0578
C20 C -0.1099(2) 0.11180(15) 0.00854(17)
H20 H -0.0685 0.0790 -0.0238
H21 H -0.1548 0.1532 -0.0421
H22 H -0.1659 0.0796 0.0252
C21 C 0.2999(2) -0.01192(16) 0.3051(2)
H23 H 0.2664 -0.0116 0.3584
H24 H 0.3865 -0.0231 0.3409
H25 H 0.2596 -0.0523 0.2509
C22 C 0.3400(2) 0.17180(18) 0.33391(19)
H26 H 0.3459 0.2180 0.2941
H27 H 0.4204 0.1578 0.3884
H28 H 0.2872 0.1834 0.3692
O7 O 0.12582(12) 0.09861(8) 0.17599(10)
H29 H -0.295(2) 0.2695(13) 0.1715(17)
H30 H 0.635(3) 0.0831(15) 0.246(2)
loop_
_geom_bond_atom_site_label_1
_geom_bond_atom_site_label_2
_geom_bond_site_symmetry_1
_geom_bond_site_symmetry_2
Si1 C10 1_555 1_555
Si2 C1 1_555 1_555
C1 C2 1_555 1_555
C2 H1 1_555 1_555
C3 C4 1_555 1_555
C4 C2 1_555 1_555
C5 C1 1_555 1_555
C6 C3 1_555 1_555
H2 C6 1_555 1_555
O1 C9 1_555 1_555
C7 H3 1_555 1_555
H4 C7 1_555 1_555
H5 C7 1_555 1_555
C8 H6 1_555 1_555
H7 C8 1_555 1_555
H8 C8 1_555 1_555
O2 C4 1_555 1_555
O3 C3 1_555 1_555
C9 C5 1_555 1_555
C10 C11 1_555 1_555
C11 C12 1_555 1_555
C12 H9 1_555 1_555
C13 C12 1_555 1_555
C14 C10 1_555 1_555
H10 C14 1_555 1_555
C15 C13 1_555 1_555
O4 C18 1_555 1_555
C16 H11 1_555 1_555
H12 C16 1_555 1_555
H13 C16 1_555 1_555
C17 H14 1_555 1_555
H15 C17 1_555 1_555
H16 C17 1_555 1_555
O5 C13 1_555 1_555
O6 C15 1_555 1_555
C18 C11 1_555 1_555
C19 Si1 1_555 1_555
H17 C19 1_555 1_555
H18 C19 1_555 1_555
H19 C19 1_555 1_555
C20 Si1 1_555 1_555
H20 C20 1_555 1_555
H21 C20 1_555 1_555
H22 C20 1_555 1_555
C21 Si2 1_555 1_555
H23 C21 1_555 1_555
H24 C21 1_555 1_555
H25 C21 1_555 1_555
C22 Si2 1_555 1_555
H26 C22 1_555 1_555
H27 C22 1_555 1_555
H28 C22 1_555 1_555
O7 Si1 1_555 1_555
H29 C18 1_555 1_555
H30 C9 1_555 1_555
Si2 O7 1_555 1_555
C5 C6 1_555 1_555
C7 O3 1_555 1_555
C8 O2 1_555 1_555
C14 C15 1_555 1_555
C16 O5 1_555 1_555
C17 O6 1_555 1_555

#END
