
#######################################################################
#
#                 Cambridge Crystallographic Data Centre
#                                CCDC 
#
#######################################################################
#
# If this CIF has been generated from an entry in the Cambridge 
# Structural Database, then it will include bibliographic, chemical, 
# crystal, experimental, refinement or atomic coordinate data resulting 
# from the CCDC's data processing and validation procedures.
#
#######################################################################

data_IRIKOK
_chemical_compound_source        'rhizomes of Dioscorea bulbifera'
_chemical_name_common            'Diosbulbin K'
_chemical_formula_moiety         'C20 H24 O7'
_chemical_name_systematic        
'Methyl 2-(3-furyl)-9-hydroxy-10b-methyl-4,6-dioxododecahydro-2H-benzo[f]isochromene-7-carboxylate'
_chemical_properties_biological  
'no in vitro anti-cancer or anti-bacterial activities'
_symmetry_cell_setting           monoclinic
_symmetry_space_group_name_H-M   'P 21'
_symmetry_Int_Tables_number      4
_space_group_name_Hall           'P 2yb'
loop_
_symmetry_equiv_pos_site_id
_symmetry_equiv_pos_as_xyz
1 x,y,z
2 -x,1/2+y,-z
_cell_length_a                   7.9251(10)
_cell_length_b                   10.4161(13)
_cell_length_c                   11.3690(14)
_cell_angle_alpha                90
_cell_angle_beta                 101.733(2)
_cell_angle_gamma                90
_cell_volume                     918.886
_exptl_crystal_colour            colorless
_exptl_crystal_description       prismatic
_cell_formula_units_Z            2
loop_
_atom_site_label
_atom_site_type_symbol
_atom_site_fract_x
_atom_site_fract_y
_atom_site_fract_z
O1 O 0.5046(2) 0.81270(18) 0.92602(17)
O2 O -0.1808(2) 0.75482(19) 0.85248(18)
O3 O -0.0927(2) 0.7635(2) 0.54614(17)
O4 O 0.1491(2) 0.68812(17) 0.51603(15)
O5 O 0.5748(3) 0.6201(2) 0.33453(18)
O6 O 0.1691(3) 0.9946(2) 0.9919(2)
O7 O 0.1117(2) 0.90494(16) 0.81070(16)
C1 C 0.4018(3) 0.5931(2) 0.8994(2)
H1 H 0.3876 0.5159 0.9441
H2 H 0.4879 0.5757 0.8519
C2 C 0.4649(3) 0.7012(3) 0.9871(2)
H3 H 0.5696 0.6726 1.0425
C3 C 0.3320(3) 0.7374(3) 1.0593(2)
H4 H 0.3723 0.8121 1.1080
H5 H 0.3198 0.6674 1.1132
C4 C 0.1553(3) 0.7674(3) 0.9808(2)
H6 H 0.0744 0.7673 1.0356
C5 C 0.0968(3) 0.6580(2) 0.8921(2)
H7 H 0.0913 0.5819 0.9419
C6 C -0.0851(3) 0.6778(3) 0.8217(2)
C7 C -0.1432(3) 0.5887(3) 0.7180(2)
H8 H -0.2443 0.6248 0.6659
H9 H -0.1762 0.5074 0.7482
C8 C -0.0057(3) 0.5646(2) 0.6445(2)
H10 H -0.0476 0.4943 0.5889
C9 C 0.1675(3) 0.5208(2) 0.7213(2)
C10 C 0.2308(2) 0.6257(2) 0.81548(19)
H11 H 0.2493 0.7038 0.7717
C11 C 0.2872(3) 0.5037(2) 0.6331(2)
H12 H 0.3986 0.4749 0.6771
H13 H 0.2408 0.4367 0.5764
C12 C 0.3128(3) 0.6227(2) 0.5641(2)
H14 H 0.3863 0.6818 0.6190
C13 C 0.3974(3) 0.5965(2) 0.4613(2)
C14 C 0.3762(3) 0.4912(3) 0.3800(2)
H15 H 0.3006 0.4225 0.3780
C15 C 0.4859(4) 0.5105(3) 0.3075(3)
H16 H 0.4995 0.4552 0.2459
C16 C 0.5174(3) 0.6703(3) 0.4286(2)
H17 H 0.5568 0.7471 0.4661
C17 C 0.0140(3) 0.6808(3) 0.5687(2)
C18 C 0.1470(4) 0.3893(2) 0.7776(2)
H18 H 0.0865 0.3323 0.7171
H19 H 0.0830 0.3989 0.8402
H20 H 0.2587 0.3545 0.8107
C19 C 0.1483(3) 0.9008(3) 0.9301(3)
C20 C 0.0806(4) 1.0303(3) 0.7586(3)
H21 H -0.0215 1.0658 0.7790
H22 H 0.0655 1.0241 0.6729
H23 H 0.1772 1.0850 0.7892
H24 H 0.588(4) 0.797(3) 0.899(3)
loop_
_geom_bond_atom_site_label_1
_geom_bond_atom_site_label_2
_geom_bond_site_symmetry_1
_geom_bond_site_symmetry_2
O1 C2 1_555 1_555
O2 C6 1_555 1_555
O3 C17 1_555 1_555
O4 C12 1_555 1_555
O5 C15 1_555 1_555
O6 C19 1_555 1_555
O7 C19 1_555 1_555
C1 H1 1_555 1_555
H2 C1 1_555 1_555
C2 C1 1_555 1_555
H3 C2 1_555 1_555
C3 C2 1_555 1_555
H4 C3 1_555 1_555
H5 C3 1_555 1_555
C4 C3 1_555 1_555
H6 C4 1_555 1_555
C5 C4 1_555 1_555
H7 C5 1_555 1_555
C6 C5 1_555 1_555
C7 C6 1_555 1_555
H8 C7 1_555 1_555
H9 C7 1_555 1_555
C8 C7 1_555 1_555
H10 C8 1_555 1_555
C9 C8 1_555 1_555
C10 C1 1_555 1_555
H11 C10 1_555 1_555
C11 C9 1_555 1_555
H12 C11 1_555 1_555
H13 C11 1_555 1_555
C12 C11 1_555 1_555
H14 C12 1_555 1_555
C13 C12 1_555 1_555
C14 C13 1_555 1_555
H15 C14 1_555 1_555
C15 C14 1_555 1_555
H16 C15 1_555 1_555
C16 O5 1_555 1_555
H17 C16 1_555 1_555
C17 O4 1_555 1_555
C18 C9 1_555 1_555
H18 C18 1_555 1_555
H19 C18 1_555 1_555
H20 C18 1_555 1_555
C19 C4 1_555 1_555
C20 O7 1_555 1_555
H21 C20 1_555 1_555
H22 C20 1_555 1_555
H23 C20 1_555 1_555
H24 O1 1_555 1_555
C5 C10 1_555 1_555
C8 C17 1_555 1_555
C9 C10 1_555 1_555
C13 C16 1_555 1_555

#END
