
#######################################################################
#
#                 Cambridge Crystallographic Data Centre
#                                CCDC 
#
#######################################################################
#
# If this CIF has been generated from an entry in the Cambridge 
# Structural Database, then it will include bibliographic, chemical, 
# crystal, experimental, refinement or atomic coordinate data resulting 
# from the CCDC's data processing and validation procedures.
#
#######################################################################

data_IRIWEN
_chemical_formula_moiety         'C21 H23 N3 O3 S1'
_chemical_name_systematic        
(1-methyl-1H-indol-3-yl)(4-((4-methylphenyl)sulfonyl)piperazin-1-yl)methanone
_chemical_properties_biological  'antiproliferative activity'
_symmetry_cell_setting           monoclinic
_symmetry_space_group_name_H-M   'C 2/c'
_symmetry_Int_Tables_number      15
_space_group_name_Hall           '-C 2yn'
loop_
_symmetry_equiv_pos_site_id
_symmetry_equiv_pos_as_xyz
1 x,y,z
2 -x,y,1/2-z
3 1/2+x,1/2+y,z
4 1/2-x,1/2+y,1/2-z
5 -x,-y,-z
6 x,-y,1/2+z
7 1/2-x,1/2-y,-z
8 1/2+x,1/2-y,1/2+z
_cell_length_a                   22.120(3)
_cell_length_b                   11.7114(16)
_cell_length_c                   16.324(2)
_cell_angle_alpha                90
_cell_angle_beta                 109.222(4)
_cell_angle_gamma                90
_cell_volume                     3993.08
_exptl_crystal_description       block
_cell_formula_units_Z            8
loop_
_atom_site_label
_atom_site_type_symbol
_atom_site_fract_x
_atom_site_fract_y
_atom_site_fract_z
S1 S 0.47687(2) 0.26385(4) 1.04529(3)
N1 N 0.58482(7) 0.22416(12) 0.86062(10)
O1 O 0.43971(6) 0.16254(12) 1.03923(8)
N2 N 0.51294(7) 0.25014(11) 0.97256(9)
O2 O 0.44614(6) 0.37306(12) 1.02991(9)
C1 C 0.53589(8) 0.26697(14) 1.14781(11)
C2 C 0.56263(9) 0.33690(14) 0.87672(12)
H1 H 0.5217 0.3532 0.8330
H2 H 0.5929 0.3944 0.8722
C3 C 0.70530(8) 0.36777(14) 0.84546(11)
C4 C 0.55921(9) 0.37042(15) 1.18603(13)
H3 H 0.5432 0.4386 1.1580
C5 C 0.53985(10) 0.13802(14) 0.96391(13)
H4 H 0.5118 0.0781 0.9711
H5 H 0.5813 0.1289 1.0085
C6 C 0.73099(9) 0.37577(16) 0.93548(12)
H6 H 0.7140 0.3330 0.9707
C7 C 0.55574(9) 0.34261(14) 0.96521(12)
H7 H 0.5973 0.3342 1.0096
H8 H 0.5380 0.4159 0.9732
N3 N 0.69901(8) 0.41248(15) 0.70899(10)
C8 C 0.65550(8) 0.30194(16) 0.78638(12)
C9 C 0.54694(10) 0.12919(15) 0.87595(13)
H9 H 0.5677 0.0576 0.8715
H10 H 0.5049 0.1296 0.8319
O3 O 0.61634(8) 0.11369(12) 0.76977(12)
C10 C 0.61746(9) 0.20684(16) 0.80408(13)
C11 C 0.60633(9) 0.37144(17) 1.26602(13)
H11 H 0.6217 0.4411 1.2919
C12 C 0.56045(10) 0.16616(15) 1.18932(13)
H12 H 0.5451 0.0965 1.1635
C13 C 0.78359(9) 0.50836(18) 0.83134(15)
H13 H 0.8008 0.5522 0.7970
C14 C 0.73226(8) 0.43551(16) 0.79481(12)
C15 C 0.80784(10) 0.51311(19) 0.92003(16)
H14 H 0.8424 0.5608 0.9465
C16 C 0.63112(9) 0.27198(17) 1.30841(12)
C17 C 0.65405(10) 0.33190(18) 0.70478(13)
H15 H 0.6262 0.3014 0.6537
C18 C 0.78170(10) 0.44768(19) 0.97141(14)
H16 H 0.7991 0.4530 1.0315
C19 C 0.68257(11) 0.2741(2) 1.39640(14)
H17 H 0.7239 0.2695 1.3893
H18 H 0.6770 0.2104 1.4301
H19 H 0.6796 0.3439 1.4257
C20 C 0.60778(10) 0.16931(17) 1.26915(13)
H20 H 0.6242 0.1013 1.2970
C21 C 0.70690(14) 0.4737(3) 0.63555(16)
H21 H 0.6795 0.4407 0.5825
H22 H 0.7506 0.4682 0.6375
H23 H 0.6958 0.5525 0.6383
loop_
_geom_bond_atom_site_label_1
_geom_bond_atom_site_label_2
_geom_bond_site_symmetry_1
_geom_bond_site_symmetry_2
S1 O1 1_555 1_555
N1 C2 1_555 1_555
N2 S1 1_555 1_555
O2 S1 1_555 1_555
C1 S1 1_555 1_555
C2 H1 1_555 1_555
H2 C2 1_555 1_555
C3 C6 1_555 1_555
C4 C1 1_555 1_555
H3 C4 1_555 1_555
C5 N2 1_555 1_555
H4 C5 1_555 1_555
H5 C5 1_555 1_555
C6 H6 1_555 1_555
C7 N2 1_555 1_555
H7 C7 1_555 1_555
H8 C7 1_555 1_555
N3 C14 1_555 1_555
C8 C3 1_555 1_555
C9 N1 1_555 1_555
H9 C9 1_555 1_555
H10 C9 1_555 1_555
O3 C10 1_555 1_555
C10 N1 1_555 1_555
C11 C4 1_555 1_555
H11 C11 1_555 1_555
C12 C1 1_555 1_555
H12 C12 1_555 1_555
C13 H13 1_555 1_555
C14 C3 1_555 1_555
C15 C13 1_555 1_555
H14 C15 1_555 1_555
C16 C11 1_555 1_555
C17 N3 1_555 1_555
H15 C17 1_555 1_555
C18 C6 1_555 1_555
H16 C18 1_555 1_555
C19 C16 1_555 1_555
H17 C19 1_555 1_555
H18 C19 1_555 1_555
H19 C19 1_555 1_555
C20 C12 1_555 1_555
H20 C20 1_555 1_555
C21 N3 1_555 1_555
H21 C21 1_555 1_555
H22 C21 1_555 1_555
H23 C21 1_555 1_555
C2 C7 1_555 1_555
C5 C9 1_555 1_555
C8 C10 1_555 1_555
C8 C17 1_555 1_555
C13 C14 1_555 1_555
C15 C18 1_555 1_555
C16 C20 1_555 1_555

#END
