
#######################################################################
#
#                 Cambridge Crystallographic Data Centre
#                                CCDC 
#
#######################################################################
#
# If this CIF has been generated from an entry in the Cambridge 
# Structural Database, then it will include bibliographic, chemical, 
# crystal, experimental, refinement or atomic coordinate data resulting 
# from the CCDC's data processing and validation procedures.
#
#######################################################################

data_IROFAY
_chemical_formula_moiety         'C28 H20 N2'
_chemical_name_systematic        
2-(4-methylphenyl)-3-(9-phenyl-9H-carbazol-3-yl)acrylonitrile
_symmetry_cell_setting           monoclinic
_symmetry_space_group_name_H-M   'P 21/c'
_symmetry_Int_Tables_number      14
_space_group_name_Hall           '-P 2ybc'
loop_
_symmetry_equiv_pos_site_id
_symmetry_equiv_pos_as_xyz
1 x,y,z
2 -x,1/2+y,1/2-z
3 -x,-y,-z
4 x,1/2-y,1/2+z
_cell_length_a                   16.517(4)
_cell_length_b                   13.934(3)
_cell_length_c                   9.048(2)
_cell_angle_alpha                90
_cell_angle_beta                 103.642(4)
_cell_angle_gamma                90
_cell_volume                     2023.63
_exptl_crystal_description       block
_cell_formula_units_Z            4
loop_
_atom_site_label
_atom_site_type_symbol
_atom_site_fract_x
_atom_site_fract_y
_atom_site_fract_z
C1 C 0.26417(13) 0.80336(16) 1.1092(3)
C2 C 0.23537(14) 0.72663(17) 1.0141(3)
H1 H 0.2638 0.6685 1.0248
C3 C 0.16332(14) 0.73943(16) 0.9031(3)
H2 H 0.1438 0.6889 0.8373
C4 C 0.11765(13) 0.82604(16) 0.8849(3)
C5 C 0.14707(14) 0.90133(16) 0.9844(3)
H3 H 0.1179 0.9590 0.9753
C6 C 0.21972(14) 0.89056(16) 1.0971(3)
C7 C 0.26527(14) 0.95304(16) 1.2147(3)
C8 C 0.25036(16) 1.04406(18) 1.2651(3)
H4 H 0.2038 1.0787 1.2150
C9 C 0.30497(17) 1.0825(2) 1.3895(3)
H5 H 0.2954 1.1436 1.4231
C10 C 0.37431(17) 1.0310(2) 1.4655(3)
H6 H 0.4102 1.0581 1.5501
C11 C 0.39122(15) 0.94083(19) 1.4189(3)
H7 H 0.4378 0.9066 1.4701
C12 C 0.33590(14) 0.90265(17) 1.2921(3)
C13 C -0.00099(15) 0.99542(19) 0.7727(3)
C14 C -0.00788(14) 0.90215(16) 0.7012(3)
C15 C -0.07557(14) 0.89547(17) 0.5599(3)
C16 C -0.09970(17) 0.80831(19) 0.4893(4)
H8 H -0.0746 0.7519 0.5322
C17 C -0.16085(18) 0.8048(2) 0.3555(4)
H9 H -0.1755 0.7454 0.3102
C18 C -0.20080(15) 0.8852(2) 0.2867(3)
C19 C -0.17677(15) 0.97117(19) 0.3573(3)
H10 H -0.2023 1.0273 0.3141
C20 C -0.11552(14) 0.97667(18) 0.4912(3)
H11 H -0.1010 1.0363 0.5358
C21 C -0.26746(18) 0.8793(2) 0.1408(4)
H12 H -0.2754 0.9414 0.0938
H13 H -0.3187 0.8581 0.1626
H14 H -0.2507 0.8345 0.0730
C22 C 0.04519(14) 0.83034(17) 0.7569(3)
H15 H 0.0334 0.7729 0.7038
C23 C 0.40066(15) 0.74227(18) 1.2663(3)
C24 C 0.38527(16) 0.65279(19) 1.3154(3)
H16 H 0.3322 0.6368 1.3257
C25 C 0.44914(19) 0.5860(2) 1.3497(3)
H17 H 0.4387 0.5248 1.3817
C26 C 0.5279(2) 0.6100(3) 1.3365(4)
H18 H 0.5705 0.5650 1.3590
C27 C 0.54338(18) 0.7001(3) 1.2905(4)
H19 H 0.5970 0.7168 1.2842
C28 C 0.47986(16) 0.7664(2) 1.2532(4)
H20 H 0.4903 0.8272 1.2193
N1 N 0.33539(11) 0.81122(13) 1.2269(2)
N2 N 0.00182(14) 1.07064(17) 0.8256(3)
loop_
_geom_bond_atom_site_label_1
_geom_bond_atom_site_label_2
_geom_bond_site_symmetry_1
_geom_bond_site_symmetry_2
C1 C2 1_555 1_555
C2 H1 1_555 1_555
C3 C2 1_555 1_555
H2 C3 1_555 1_555
C4 C3 1_555 1_555
C5 C4 1_555 1_555
H3 C5 1_555 1_555
C6 C1 1_555 1_555
C7 C6 1_555 1_555
C8 C7 1_555 1_555
H4 C8 1_555 1_555
C9 C8 1_555 1_555
H5 C9 1_555 1_555
C10 C9 1_555 1_555
H6 C10 1_555 1_555
C11 C10 1_555 1_555
H7 C11 1_555 1_555
C12 C7 1_555 1_555
C13 C14 1_555 1_555
C14 C15 1_555 1_555
C15 C16 1_555 1_555
C16 H8 1_555 1_555
C17 C16 1_555 1_555
H9 C17 1_555 1_555
C18 C17 1_555 1_555
C19 C18 1_555 1_555
H10 C19 1_555 1_555
C20 C15 1_555 1_555
H11 C20 1_555 1_555
C21 C18 1_555 1_555
H12 C21 1_555 1_555
H13 C21 1_555 1_555
H14 C21 1_555 1_555
C22 C4 1_555 1_555
H15 C22 1_555 1_555
C23 C24 1_555 1_555
C24 H16 1_555 1_555
C25 C24 1_555 1_555
H17 C25 1_555 1_555
C26 C25 1_555 1_555
H18 C26 1_555 1_555
C27 C26 1_555 1_555
H19 C27 1_555 1_555
C28 C23 1_555 1_555
H20 C28 1_555 1_555
N1 C1 1_555 1_555
N2 C13 1_555 1_555
C5 C6 1_555 1_555
C11 C12 1_555 1_555
C12 N1 1_555 1_555
C14 C22 1_555 1_555
C19 C20 1_555 1_555
C23 N1 1_555 1_555
C27 C28 1_555 1_555

#END
