
#######################################################################
#
#                 Cambridge Crystallographic Data Centre
#                                CCDC 
#
#######################################################################
#
# If this CIF has been generated from an entry in the Cambridge 
# Structural Database, then it will include bibliographic, chemical, 
# crystal, experimental, refinement or atomic coordinate data resulting 
# from the CCDC's data processing and validation procedures.
#
#######################################################################

data_IROHUU
_chemical_formula_moiety         'C27 H17 N3 O2'
_chemical_name_systematic        
2-(4-nitrophenyl)-3-(9-phenyl-9H-carbazol-3-yl)acrylonitrile
_symmetry_cell_setting           monoclinic
_symmetry_space_group_name_H-M   'P 21/c'
_symmetry_Int_Tables_number      14
_space_group_name_Hall           '-P 2ybc'
loop_
_symmetry_equiv_pos_site_id
_symmetry_equiv_pos_as_xyz
1 x,y,z
2 -x,1/2+y,1/2-z
3 -x,-y,-z
4 x,1/2-y,1/2+z
_cell_length_a                   17.245(11)
_cell_length_b                   13.979(9)
_cell_length_c                   8.714(6)
_cell_angle_alpha                90
_cell_angle_beta                 103.290(10)
_cell_angle_gamma                90
_cell_volume                     2044.41
_exptl_crystal_colour            orange
_exptl_crystal_description       block
_cell_formula_units_Z            4
loop_
_atom_site_label
_atom_site_type_symbol
_atom_site_fract_x
_atom_site_fract_y
_atom_site_fract_z
N1 N 0.1623(3) 0.6835(2) 0.2707(5)
N2 N 0.4857(3) 0.4217(3) 0.6593(6)
N3 N 0.7567(4) 0.6111(4) 1.3305(8)
C1 C 0.2288(3) 0.5418(3) 0.2739(6)
C2 C 0.2391(3) 0.4501(3) 0.2192(7)
H1 H 0.2838 0.4144 0.2661
C3 C 0.1831(4) 0.4126(4) 0.0960(8)
H2 H 0.1890 0.3504 0.0622
C4 C 0.1183(4) 0.4663(4) 0.0220(7)
H3 H 0.0827 0.4408 -0.0649
C5 C 0.1046(3) 0.5569(4) 0.0729(7)
H4 H 0.0600 0.5920 0.0238
C6 C 0.1605(3) 0.5935(3) 0.2010(7)
C7 C 0.2325(3) 0.6912(3) 0.3860(6)
C8 C 0.2621(3) 0.7659(3) 0.4839(7)
H5 H 0.2346 0.8236 0.4773
C9 C 0.3331(3) 0.7537(3) 0.5921(7)
H6 H 0.3530 0.8038 0.6600
C10 C 0.3772(3) 0.6674(3) 0.6038(7)
C11 C 0.3463(3) 0.5928(3) 0.4995(6)
H7 H 0.3743 0.5357 0.5031
C12 C 0.2749(3) 0.6041(3) 0.3924(6)
C13 C 0.0993(3) 0.7521(3) 0.2340(6)
C14 C 0.0248(3) 0.7261(4) 0.2535(7)
H8 H 0.0169 0.6657 0.2918
C15 C -0.0383(4) 0.7903(5) 0.2161(8)
H9 H -0.0888 0.7727 0.2268
C16 C -0.0252(4) 0.8795(5) 0.1632(8)
H10 H -0.0673 0.9226 0.1368
C17 C 0.0493(4) 0.9064(4) 0.1486(7)
H11 H 0.0577 0.9681 0.1157
C18 C 0.1124(3) 0.8418(4) 0.1830(6)
H12 H 0.1628 0.8594 0.1714
C19 C 0.4491(3) 0.6634(3) 0.7288(7)
H13 H 0.4622 0.7211 0.7818
C20 C 0.5011(3) 0.5908(3) 0.7829(7)
C21 C 0.4907(3) 0.4975(4) 0.7101(6)
C22 C 0.5680(3) 0.5980(3) 0.9217(7)
C23 C 0.5911(4) 0.6841(4) 0.9986(9)
H14 H 0.5648 0.7400 0.9585
C24 C 0.6515(4) 0.6891(4) 1.1320(9)
H15 H 0.6651 0.7473 1.1828
C25 C 0.6919(3) 0.6069(4) 1.1897(8)
C26 C 0.6720(3) 0.5217(4) 1.1183(8)
H16 H 0.6999 0.4667 1.1577
C27 C 0.6099(3) 0.5168(3) 0.9862(7)
H17 H 0.5956 0.4577 0.9392
O1 O 0.7654(4) 0.6839(4) 1.4079(9)
O2 O 0.7977(3) 0.5422(3) 1.3715(6)
loop_
_geom_bond_atom_site_label_1
_geom_bond_atom_site_label_2
_geom_bond_site_symmetry_1
_geom_bond_site_symmetry_2
N1 C6 1_555 1_555
N2 C21 1_555 1_555
N3 C25 1_555 1_555
C1 C2 1_555 1_555
C2 H1 1_555 1_555
C3 C2 1_555 1_555
H2 C3 1_555 1_555
C4 C3 1_555 1_555
H3 C4 1_555 1_555
C5 C4 1_555 1_555
H4 C5 1_555 1_555
C6 C1 1_555 1_555
C7 N1 1_555 1_555
C8 C7 1_555 1_555
H5 C8 1_555 1_555
C9 C8 1_555 1_555
H6 C9 1_555 1_555
C10 C9 1_555 1_555
C11 C10 1_555 1_555
H7 C11 1_555 1_555
C12 C1 1_555 1_555
C13 N1 1_555 1_555
C14 C13 1_555 1_555
H8 C14 1_555 1_555
C15 C14 1_555 1_555
H9 C15 1_555 1_555
C16 C15 1_555 1_555
H10 C16 1_555 1_555
C17 C16 1_555 1_555
H11 C17 1_555 1_555
C18 C13 1_555 1_555
H12 C18 1_555 1_555
C19 C10 1_555 1_555
H13 C19 1_555 1_555
C20 C19 1_555 1_555
C21 C20 1_555 1_555
C22 C20 1_555 1_555
C23 C22 1_555 1_555
H14 C23 1_555 1_555
C24 C23 1_555 1_555
H15 C24 1_555 1_555
C25 C24 1_555 1_555
C26 C25 1_555 1_555
H16 C26 1_555 1_555
C27 C22 1_555 1_555
H17 C27 1_555 1_555
O1 N3 1_555 1_555
O2 N3 1_555 1_555
C5 C6 1_555 1_555
C7 C12 1_555 1_555
C11 C12 1_555 1_555
C17 C18 1_555 1_555
C26 C27 1_555 1_555

#END
