
#######################################################################
#
#                 Cambridge Crystallographic Data Centre
#                                CCDC 
#
#######################################################################
#
# If this CIF has been generated from an entry in the Cambridge 
# Structural Database, then it will include bibliographic, chemical, 
# crystal, experimental, refinement or atomic coordinate data resulting 
# from the CCDC's data processing and validation procedures.
#
#######################################################################

data_IROMAF
_chemical_formula_moiety         'C15 H10 O7,C10 H8 N2,3(H2 O1)'
_chemical_name_systematic        
"3-(3-carboxyphenoxy)phthalic acid 4,4'-bipyridine trihydrate"
_symmetry_cell_setting           triclinic
_symmetry_space_group_name_H-M   'P -1'
_symmetry_Int_Tables_number      2
_space_group_name_Hall           '-P 1'
loop_
_symmetry_equiv_pos_site_id
_symmetry_equiv_pos_as_xyz
1 x,y,z
2 -x,-y,-z
_cell_length_a                   8.9202(6)
_cell_length_b                   11.4197(8)
_cell_length_c                   12.2222(8)
_cell_angle_alpha                106.023(2)
_cell_angle_beta                 97.485(2)
_cell_angle_gamma                92.187(2)
_cell_volume                     1182.87
_exptl_crystal_colour            yellow
_exptl_crystal_description       block
_cell_formula_units_Z            2
loop_
_atom_site_label
_atom_site_type_symbol
_atom_site_fract_x
_atom_site_fract_y
_atom_site_fract_z
O1 O 0.2242(4) 0.0935(3) 0.1695(3)
O2 O -0.0197(4) 0.0495(3) 0.1705(3)
H1 H 0.0063 -0.0223 0.1501
O3 O 0.5781(3) 0.5415(2) 0.1603(2)
O4 O 0.5015(3) 0.7312(2) 0.1867(2)
H2 H 0.5185 0.7199 0.1187
O5 O 0.8554(3) 0.8056(3) 0.5228(2)
H3 H 0.9389 0.8311 0.5096
O6 O 0.8073(3) 0.7412(2) 0.3312(2)
O7 O 0.2697(3) 0.5515(2) 0.2576(2)
C1 C 0.0647(4) 0.2580(3) 0.2210(3)
C2 C 0.0938(5) 0.1235(4) 0.1838(3)
C3 C -0.0768(5) 0.2949(3) 0.2485(3)
H4 H -0.1564 0.2355 0.2447
C4 C -0.1010(4) 0.4182(4) 0.2813(3)
H5 H -0.1971 0.4431 0.2999
C5 C 0.0157(4) 0.5061(3) 0.2871(3)
H6 H 0.0005 0.5908 0.3098
C6 C 0.1539(4) 0.4661(3) 0.2591(3)
C7 C 0.1785(4) 0.3449(3) 0.2267(3)
H7 H 0.2749 0.3206 0.2081
C8 C 0.3710(4) 0.6007(3) 0.3583(3)
C9 C 0.5109(4) 0.6473(3) 0.3426(3)
C10 C 0.5367(4) 0.6347(3) 0.2218(3)
C11 C 0.6164(4) 0.7025(3) 0.4394(3)
C12 C 0.7695(4) 0.7519(3) 0.4257(3)
C13 C 0.5809(4) 0.7117(3) 0.5486(3)
H8 H 0.6525 0.7509 0.6146
C14 C 0.4418(4) 0.6639(3) 0.5615(3)
H9 H 0.4177 0.6710 0.6364
C15 C 0.3377(4) 0.6061(4) 0.4663(3)
H10 H 0.2438 0.5702 0.4752
O8 O -0.3037(5) 0.9925(4) 0.0722(5)
H11 H -0.2525 1.0579 0.1125
H12 H -0.3181 0.9925 0.0021
O9 O 0.4777(6) 0.8410(4) 0.8387(4)
H13 H 0.4084 0.8169 0.8709
H14 H 0.4859 0.9157 0.8399
O10 O 0.5103(4) 0.6920(3) -0.0286(2)
H15 H 0.5577 0.7617 -0.0145
H16 H 0.5038 0.6546 -0.0998
N1 N 0.0148(4) 0.8196(3) 0.0973(3)
C16 C -0.1098(5) 0.7530(4) 0.0969(4)
H17 H -0.1951 0.7931 0.1234
C17 C -0.1200(5) 0.6282(4) 0.0597(4)
H18 H -0.2112 0.5827 0.0602
C18 C 0.0037(4) 0.5685(3) 0.0211(3)
C19 C 0.1329(5) 0.6396(4) 0.0228(4)
H19 H 0.2205 0.6020 -0.0021
C20 C 0.1353(5) 0.7639(4) 0.0603(4)
H20 H 0.2246 0.8119 0.0600
N1A N -0.0148(4) 0.1804(3) -0.0973(3)
C16A C 0.1098(5) 0.2470(4) -0.0969(4)
H17A H 0.1951 0.2069 -0.1234
C17A C 0.1200(5) 0.3718(4) -0.0597(4)
H18A H 0.2112 0.4173 -0.0602
C18A C -0.0037(4) 0.4315(3) -0.0211(3)
C19A C -0.1329(5) 0.3604(4) -0.0228(4)
H19A H -0.2205 0.3980 0.0021
C20A C -0.1353(5) 0.2361(4) -0.0603(4)
H20A H -0.2246 0.1881 -0.0600
N2 N 0.1243(3) 0.8904(3) 0.5069(3)
C21 C 0.2182(4) 0.9454(4) 0.6023(3)
H21 H 0.1826 0.9547 0.6740
C22 C 0.3631(5) 0.9895(4) 0.6035(3)
H22 H 0.4249 1.0286 0.6747
C23 C 0.4205(4) 0.9775(3) 0.5011(3)
C24 C 0.3223(5) 0.9199(4) 0.4015(4)
H23 H 0.3547 0.9088 0.3286
C25 C 0.1783(4) 0.8791(4) 0.4085(4)
H24 H 0.1132 0.8404 0.3387
N2A N 0.8757(3) 1.1096(3) 0.4931(3)
C21A C 0.7818(4) 1.0546(4) 0.3977(3)
H21A H 0.8174 1.0453 0.3260
C22A C 0.6369(5) 1.0105(4) 0.3965(3)
H22A H 0.5751 0.9714 0.3253
C23A C 0.5795(4) 1.0225(3) 0.4989(3)
C24A C 0.6777(5) 1.0801(4) 0.5985(4)
H23A H 0.6453 1.0912 0.6714
C25A C 0.8217(4) 1.1209(4) 0.5915(4)
H24A H 0.8868 1.1596 0.6613
loop_
_geom_bond_atom_site_label_1
_geom_bond_atom_site_label_2
_geom_bond_site_symmetry_1
_geom_bond_site_symmetry_2
O1 C2 1_555 1_555
O2 H1 1_555 1_555
O3 C10 1_555 1_555
O4 H2 1_555 1_555
O5 H3 1_555 1_555
O6 C12 1_555 1_555
O7 C6 1_555 1_555
C1 C2 1_555 1_555
C2 O2 1_555 1_555
C3 C1 1_555 1_555
H4 C3 1_555 1_555
C4 C3 1_555 1_555
H5 C4 1_555 1_555
C5 C4 1_555 1_555
H6 C5 1_555 1_555
C6 C5 1_555 1_555
C7 C1 1_555 1_555
H7 C7 1_555 1_555
C8 O7 1_555 1_555
C9 C8 1_555 1_555
C10 O4 1_555 1_555
C11 C9 1_555 1_555
C12 O5 1_555 1_555
C13 C11 1_555 1_555
H8 C13 1_555 1_555
C14 C13 1_555 1_555
H9 C14 1_555 1_555
C15 C8 1_555 1_555
H10 C15 1_555 1_555
O8 H11 1_555 1_555
H12 O8 1_555 1_555
O9 H13 1_555 1_555
H14 O9 1_555 1_555
O10 H15 1_555 1_555
H16 O10 1_555 1_555
N1 C16 1_555 1_555
C16 H17 1_555 1_555
C17 C16 1_555 1_555
H18 C17 1_555 1_555
C18 C17 1_555 1_555
C19 C18 1_555 1_555
H19 C19 1_555 1_555
C20 N1 1_555 1_555
H20 C20 1_555 1_555
N2 C21 1_555 1_555
C21 H21 1_555 1_555
C22 C21 1_555 1_555
H22 C22 1_555 1_555
C23 C22 1_555 1_555
C24 C23 1_555 1_555
H23 C24 1_555 1_555
C25 N2 1_555 1_555
H24 C25 1_555 1_555
N1A C16A 1_555 1_555
C16A H17A 1_555 1_555
C17A C16A 1_555 1_555
H18A C17A 1_555 1_555
C18A C18 1_555 1_555
C19A C18A 1_555 1_555
H19A C19A 1_555 1_555
C20A N1A 1_555 1_555
H20A C20A 1_555 1_555
N2A C21A 1_555 1_555
C21A H21A 1_555 1_555
C22A C21A 1_555 1_555
H22A C22A 1_555 1_555
C23A C23 1_555 1_555
C24A C23A 1_555 1_555
H23A C24A 1_555 1_555
C25A N2A 1_555 1_555
H24A C25A 1_555 1_555
C6 C7 1_555 1_555
C9 C10 1_555 1_555
C11 C12 1_555 1_555
C14 C15 1_555 1_555
C19 C20 1_555 1_555
C24 C25 1_555 1_555
C17A C18A 1_555 1_555
C19A C20A 1_555 1_555
C22A C23A 1_555 1_555
C24A C25A 1_555 1_555

#END
