
#######################################################################
#
#                 Cambridge Crystallographic Data Centre
#                                CCDC 
#
#######################################################################
#
# If this CIF has been generated from an entry in the Cambridge 
# Structural Database, then it will include bibliographic, chemical, 
# crystal, experimental, refinement or atomic coordinate data resulting 
# from the CCDC's data processing and validation procedures.
#
#######################################################################

data_IRORAI
_chemical_formula_moiety         'C12 H16 Cl1 N2 O1 P1,2(H2 O1)'
_chemical_name_systematic        
'(1RS,3aSR)-1-(Chloromethyl)-1\l^5^-phospha-2,6a-diazaperhydropentalene 1-oxide dihydrate'
_symmetry_cell_setting           orthorhombic
_symmetry_space_group_name_H-M   'P b c a'
_symmetry_Int_Tables_number      61
_space_group_name_Hall           '-P 2ac 2ab'
loop_
_symmetry_equiv_pos_site_id
_symmetry_equiv_pos_as_xyz
1 x,y,z
2 1/2+x,y,1/2-z
3 x,1/2-y,1/2+z
4 1/2-x,1/2+y,z
5 -x,-y,-z
6 1/2-x,-y,1/2+z
7 -x,1/2+y,1/2-z
8 1/2+x,1/2-y,-z
_cell_length_a                   10.8756(4)
_cell_length_b                   8.9390(3)
_cell_length_c                   31.2270(10)
_cell_angle_alpha                90
_cell_angle_beta                 90
_cell_angle_gamma                90
_cell_volume                     3035.79
_exptl_crystal_colour            colorless
_exptl_crystal_description       block
_chemical_melting_point          '363-364 K'
_cell_formula_units_Z            8
_exptl_crystal_recrystallization_method 'ethyl acetate/petroleum ether'
loop_
_atom_site_label
_atom_site_type_symbol
_atom_site_fract_x
_atom_site_fract_y
_atom_site_fract_z
Cl1 Cl 1.19910(7) -0.00584(10) 0.64832(2)
O1 O 0.97200(15) 0.26161(19) 0.57157(5)
P1 P 0.99187(5) 0.12667(6) 0.598076(17)
N1 N 0.91500(16) 0.12069(19) 0.64414(6)
N2 N 0.94271(18) -0.0338(2) 0.58118(6)
C1 C 0.8521(2) 0.2117(3) 0.71420(8)
H1 H 0.8083 0.1238 0.7187
C2 C 0.8532(3) 0.3221(4) 0.74541(9)
H2 H 0.8088 0.3077 0.7705
C3 C 0.9181(3) 0.4517(4) 0.74008(9)
H3 H 0.9194 0.5243 0.7614
C4 C 0.9811(3) 0.4717(3) 0.70257(10)
H4 H 1.0259 0.5593 0.6986
C5 C 0.9800(2) 0.3660(3) 0.67059(9)
H5 H 1.0219 0.3838 0.6451
C6 C 0.91611(19) 0.2323(2) 0.67620(7)
C7 C 0.8610(2) -0.0276(3) 0.65240(8)
H6 H 0.7802 -0.0173 0.6653
H7 H 0.9129 -0.0845 0.6717
C8 C 0.8515(2) -0.1057(3) 0.60953(9)
H8 H 0.7689 -0.0899 0.5978
C9 C 0.8830(4) -0.2704(3) 0.60711(14)
H9 H 0.9041 -0.3077 0.6353
H10 H 0.8128 -0.3265 0.5966
C10 C 0.9858(4) -0.2884(4) 0.57845(15)
H11 H 0.9697 -0.3694 0.5585
H12 H 1.0593 -0.3128 0.5946
C11 C 1.0043(3) -0.1453(3) 0.55445(11)
H13 H 1.0910 -0.1226 0.5514
H14 H 0.9671 -0.1503 0.5263
C12 C 1.1565(2) 0.1191(3) 0.60684(7)
H15 H 1.1965 0.0885 0.5805
H16 H 1.1858 0.2186 0.6139
O2 O 0.67640(19) 0.0936(2) 0.46773(7)
H17 H 0.611(2) 0.132(4) 0.4597(11)
H18 H 0.708(3) 0.161(3) 0.4829(9)
O3 O 0.29161(19) 0.1757(2) 0.49073(7)
H19 H 0.306(3) 0.090(2) 0.4992(11)
H20 H 0.341(3) 0.184(4) 0.4696(9)
loop_
_geom_bond_atom_site_label_1
_geom_bond_atom_site_label_2
_geom_bond_site_symmetry_1
_geom_bond_site_symmetry_2
Cl1 C12 1_555 1_555
O1 P1 1_555 1_555
O2 H17 1_555 1_555
O3 H19 1_555 1_555
P1 N1 1_555 1_555
N1 C6 1_555 1_555
N2 P1 1_555 1_555
C1 H1 1_555 1_555
C2 C1 1_555 1_555
H2 C2 1_555 1_555
C3 C2 1_555 1_555
H3 C3 1_555 1_555
C4 C3 1_555 1_555
H4 C4 1_555 1_555
C5 C4 1_555 1_555
H5 C5 1_555 1_555
C6 C1 1_555 1_555
C7 N1 1_555 1_555
H6 C7 1_555 1_555
H7 C7 1_555 1_555
C8 N2 1_555 1_555
H8 C8 1_555 1_555
C9 C8 1_555 1_555
H9 C9 1_555 1_555
H10 C9 1_555 1_555
C10 C9 1_555 1_555
H11 C10 1_555 1_555
H12 C10 1_555 1_555
C11 N2 1_555 1_555
H13 C11 1_555 1_555
H14 C11 1_555 1_555
C12 P1 1_555 1_555
H15 C12 1_555 1_555
H16 C12 1_555 1_555
H18 O2 1_555 1_555
H20 O3 1_555 1_555
C5 C6 1_555 1_555
C7 C8 1_555 1_555
C10 C11 1_555 1_555

#END
