
#######################################################################
#
#                 Cambridge Crystallographic Data Centre
#                                CCDC 
#
#######################################################################
#
# If this CIF has been generated from an entry in the Cambridge 
# Structural Database, then it will include bibliographic, chemical, 
# crystal, experimental, refinement or atomic coordinate data resulting 
# from the CCDC's data processing and validation procedures.
#
#######################################################################

data_IROTOA
_chemical_name_common            
2,11-Diketo[3.3](2,2"")(4"",4)-1,1':2',1":3",1"',2"',1""-quinquephenylenophane
_chemical_formula_moiety         'C36 H26 O2'
_chemical_name_systematic        
heptacyclo[23.7.3.1^11,15^.0^4,31^.0^5,10^.0^16,21^.0^22,27^]hexatriaconta-1,3,5,7,9,11(36),12,14,16,18,20,22,24,26,31-pentadecaene-29,34-dione
_symmetry_cell_setting           orthorhombic
_symmetry_space_group_name_H-M   'P b c a'
_symmetry_Int_Tables_number      61
_space_group_name_Hall           '-P 2ac 2ab'
loop_
_symmetry_equiv_pos_site_id
_symmetry_equiv_pos_as_xyz
1 x,y,z
2 1/2-x,-y,1/2+z
3 -x,1/2+y,1/2-z
4 1/2+x,1/2-y,-z
5 -x,-y,-z
6 1/2+x,y,1/2-z
7 x,1/2-y,1/2+z
8 1/2-x,1/2+y,z
_cell_length_a                   15.2873(3)
_cell_length_b                   16.7027(3)
_cell_length_c                   19.9584(4)
_cell_angle_alpha                90
_cell_angle_beta                 90
_cell_angle_gamma                90
_cell_volume                     5096.16
_exptl_crystal_colour            colorless
_exptl_crystal_description       plates
_cell_formula_units_Z            8
loop_
_atom_site_label
_atom_site_type_symbol
_atom_site_fract_x
_atom_site_fract_y
_atom_site_fract_z
C1 C 0.04738(8) 0.13081(7) 0.31477(6)
H1 H 0.0043 0.0876 0.3225
H2 H 0.0546 0.1610 0.3571
C2 C 0.13457(8) 0.09496(7) 0.29358(6)
O1 O 0.13691(5) 0.03388(5) 0.26083(4)
C3 C 0.21842(8) 0.13957(7) 0.31027(6)
H3 H 0.2114 0.1682 0.3534
H4 H 0.2671 0.1009 0.3151
C4 C 0.23965(7) 0.19908(7) 0.25521(5)
C5 C 0.27405(8) 0.17321(8) 0.19452(6)
H5 H 0.2860 0.1180 0.1876
C6 C 0.29088(8) 0.22795(8) 0.14428(6)
H6 H 0.3166 0.2099 0.1037
C7 C 0.27115(7) 0.30893(7) 0.15157(5)
C8 C 0.23085(7) 0.33472(7) 0.21095(5)
C9 C 0.21995(7) 0.27950(7) 0.26277(6)
H7 H 0.1983 0.2977 0.3047
C10 C 0.19705(8) 0.41986(7) 0.21887(6)
H8 H 0.2419 0.4521 0.2423
H9 H 0.1885 0.4435 0.1738
C11 C 0.11192(7) 0.42526(7) 0.25732(6)
O2 O 0.11221(6) 0.44379(5) 0.31641(4)
C12 C 0.02596(8) 0.40947(7) 0.22151(6)
H10 H 0.0287 0.4337 0.1763
H11 H -0.0217 0.4363 0.2464
C13 C 0.00379(7) 0.32108(7) 0.21451(5)
C14 C -0.03266(7) 0.29012(7) 0.15543(5)
C15 C -0.04151(7) 0.20736(7) 0.14899(6)
H12 H -0.0654 0.1860 0.1089
C16 C -0.01634(8) 0.15563(7) 0.19958(6)
H13 H -0.0203 0.0994 0.1932
C17 C 0.01484(7) 0.18632(7) 0.25995(6)
C18 C 0.02269(7) 0.26847(7) 0.26684(6)
H14 H 0.0416 0.2897 0.3086
C19 C 0.30209(7) 0.36521(7) 0.09854(6)
C20 C 0.36450(8) 0.42300(8) 0.11511(6)
H15 H 0.3809 0.4298 0.1607
C21 C 0.40283(8) 0.47054(9) 0.06668(7)
H16 H 0.4440 0.5104 0.0791
C22 C 0.38108(7) 0.45991(8) 0.00024(7)
H17 H 0.4088 0.4910 -0.0335
C23 C 0.31868(7) 0.40370(7) -0.01700(6)
H18 H 0.3042 0.3964 -0.0629
C24 C 0.27646(7) 0.35749(7) 0.03133(5)
C25 C 0.19779(7) 0.30943(7) 0.01261(5)
C26 C 0.19962(8) 0.24143(7) -0.02768(5)
H19 H 0.2540 0.2208 -0.0430
C27 C 0.12218(7) 0.20370(7) -0.04550(6)
H20 H 0.1242 0.1565 -0.0720
C28 C 0.04173(8) 0.23392(7) -0.02518(5)
H21 H -0.0109 0.2082 -0.0386
C29 C 0.03857(7) 0.30208(7) 0.01506(5)
C30 C 0.11691(7) 0.33784(7) 0.03399(5)
H22 H 0.1151 0.3833 0.0625
C31 C -0.04424(7) 0.34281(7) 0.03581(5)
C32 C -0.09014(7) 0.38910(7) -0.01064(6)
H23 H -0.0722 0.3888 -0.0562
C33 C -0.16104(8) 0.43530(7) 0.00808(6)
H24 H -0.1919 0.4657 -0.0245
C34 C -0.18674(8) 0.43694(7) 0.07460(6)
H25 H -0.2347 0.4693 0.0881
C35 C -0.14235(7) 0.39131(7) 0.12120(6)
H26 H -0.1603 0.3927 0.1667
C36 C -0.07152(7) 0.34308(7) 0.10289(5)
loop_
_geom_bond_atom_site_label_1
_geom_bond_atom_site_label_2
_geom_bond_site_symmetry_1
_geom_bond_site_symmetry_2
C1 H1 1_555 1_555
H2 C1 1_555 1_555
C2 C1 1_555 1_555
O1 C2 1_555 1_555
C3 C2 1_555 1_555
H3 C3 1_555 1_555
H4 C3 1_555 1_555
C4 C3 1_555 1_555
C5 C4 1_555 1_555
H5 C5 1_555 1_555
C6 C5 1_555 1_555
H6 C6 1_555 1_555
C7 C6 1_555 1_555
C8 C7 1_555 1_555
C9 C4 1_555 1_555
H7 C9 1_555 1_555
C10 C8 1_555 1_555
H8 C10 1_555 1_555
H9 C10 1_555 1_555
C11 C10 1_555 1_555
O2 C11 1_555 1_555
C12 C11 1_555 1_555
H10 C12 1_555 1_555
H11 C12 1_555 1_555
C13 C12 1_555 1_555
C14 C13 1_555 1_555
C15 C14 1_555 1_555
H12 C15 1_555 1_555
C16 C15 1_555 1_555
H13 C16 1_555 1_555
C17 C1 1_555 1_555
C18 C13 1_555 1_555
H14 C18 1_555 1_555
C19 C7 1_555 1_555
C20 C19 1_555 1_555
H15 C20 1_555 1_555
C21 C20 1_555 1_555
H16 C21 1_555 1_555
C22 C21 1_555 1_555
H17 C22 1_555 1_555
C23 C22 1_555 1_555
H18 C23 1_555 1_555
C24 C19 1_555 1_555
C25 C24 1_555 1_555
C26 C25 1_555 1_555
H19 C26 1_555 1_555
C27 C26 1_555 1_555
H20 C27 1_555 1_555
C28 C27 1_555 1_555
H21 C28 1_555 1_555
C29 C28 1_555 1_555
C30 C25 1_555 1_555
H22 C30 1_555 1_555
C31 C29 1_555 1_555
C32 C31 1_555 1_555
H23 C32 1_555 1_555
C33 C32 1_555 1_555
H24 C33 1_555 1_555
C34 C33 1_555 1_555
H25 C34 1_555 1_555
C35 C34 1_555 1_555
H26 C35 1_555 1_555
C36 C14 1_555 1_555
C8 C9 1_555 1_555
C16 C17 1_555 1_555
C17 C18 1_555 1_555
C23 C24 1_555 1_555
C29 C30 1_555 1_555
C31 C36 1_555 1_555
C35 C36 1_555 1_555

#END
