
#######################################################################
#
#                 Cambridge Crystallographic Data Centre
#                                CCDC 
#
#######################################################################
#
# If this CIF has been generated from an entry in the Cambridge 
# Structural Database, then it will include bibliographic, chemical, 
# crystal, experimental, refinement or atomic coordinate data resulting 
# from the CCDC's data processing and validation procedures.
#
#######################################################################

data_IROVAM
_chemical_formula_moiety         'C3 H7 N1 O2,C8 H8 O3'
_chemical_name_systematic        '(S)-Alanine (S)-mandelic acid'
_symmetry_cell_setting           monoclinic
_symmetry_space_group_name_H-M   'C 2'
_symmetry_Int_Tables_number      5
_space_group_name_Hall           'C 2y'
loop_
_symmetry_equiv_pos_site_id
_symmetry_equiv_pos_as_xyz
1 x,y,z
2 -x,y,-z
3 1/2+x,1/2+y,z
4 1/2-x,1/2+y,-z
_cell_length_a                   17.795(4)
_cell_length_b                   5.394(2)
_cell_length_c                   12.431(2)
_cell_angle_alpha                90
_cell_angle_beta                 100.650(10)
_cell_angle_gamma                90
_cell_volume                     1172.65
_exptl_crystal_colour            colorless
_exptl_crystal_description       prism
_cell_formula_units_Z            4
_exptl_crystal_recrystallization_method aqueous
loop_
_atom_site_label
_atom_site_type_symbol
_atom_site_fract_x
_atom_site_fract_y
_atom_site_fract_z
O1 O 0.71606(13) 0.2376(5) 0.1896(2)
H1 H 0.7121 0.0861 0.1878
O2 O 0.57574(13) 0.7041(5) 0.1353(2)
H2 H 0.5431 0.5991 0.1395
O3 O 0.70046(13) 0.7252(5) 0.1586(2)
C1 C 0.64173(18) 0.6087(6) 0.1633(3)
C2 C 0.64601(18) 0.3442(6) 0.2061(3)
H3 H 0.6029 0.2479 0.1665
C3 C 0.6438(4) 0.3447(14) 0.3296(4)
C4 C 0.6829(4) 0.5255(12) 0.3975(5)
H4 H 0.7097 0.6488 0.3684
C5 C 0.6820(4) 0.5220(13) 0.5091(4)
H5 H 0.7082 0.6430 0.5545
C6 C 0.6420(5) 0.3377(16) 0.5527(4)
H6 H 0.6414 0.3353 0.6273
C7 C 0.6029(4) 0.1569(14) 0.4847(6)
H7 H 0.5761 0.0335 0.5139
C8 C 0.6038(4) 0.1604(13) 0.3731(6)
H8 H 0.5777 0.0394 0.3277
O4 O 0.33578(14) 0.4495(5) 0.0742(2)
O5 O 0.46148(14) 0.4403(5) 0.1211(3)
N1 N 0.32475(14) 0.9385(5) 0.0681(2)
H19 H 0.3271 1.1031 0.0727
H20 H 0.2882 0.8832 0.1022
H21 H 0.3142 0.8935 -0.0020
C21 C 0.39752(18) 0.5525(6) 0.1028(3)
C22 C 0.39911(17) 0.8317(6) 0.1203(3)
H22 H 0.4398 0.9042 0.0870
C23 C 0.4137(2) 0.8915(9) 0.2413(3)
H23 H 0.4260 1.0641 0.2517
H24 H 0.4556 0.7932 0.2783
H25 H 0.3687 0.8550 0.2708
C9? C 0.6455(9) 0.350(4) 0.3302(10)
C10? C 0.7146(7) 0.378(5) 0.4023(14)
H9? H 0.7601 0.3858 0.3756
C11? C 0.7158(9) 0.396(6) 0.5141(13)
H10? H 0.7621 0.4153 0.5623
C12? C 0.6479(11) 0.385(6) 0.5540(10)
H11? H 0.6487 0.3971 0.6288
C13? C 0.5787(9) 0.357(5) 0.4819(13)
H12? H 0.5333 0.3492 0.5086
C14? C 0.5775(7) 0.339(4) 0.3701(12)
H13? H 0.5313 0.3197 0.3219
C15? C 0.6308(9) 0.350(3) 0.3168(8)
C16? C 0.6507(8) 0.551(3) 0.3865(10)
H14? H 0.6707 0.6933 0.3607
C17? C 0.6407(8) 0.538(3) 0.4946(10)
H15? H 0.6540 0.6718 0.5412
C18? C 0.6108(9) 0.324(3) 0.5331(9)
H16? H 0.6041 0.3155 0.6054
C19? C 0.5908(10) 0.124(3) 0.4634(12)
H17? H 0.5708 -0.0191 0.4891
C20? C 0.6008(10) 0.137(3) 0.3553(11)
H18? H 0.5875 0.0024 0.3086
loop_
_geom_bond_atom_site_label_1
_geom_bond_atom_site_label_2
_geom_bond_site_symmetry_1
_geom_bond_site_symmetry_2
O1 H1 1_555 1_555
O2 H2 1_555 1_555
O3 C1 1_555 1_555
C1 O2 1_555 1_555
C2 O1 1_555 1_555
H3 C2 1_555 1_555
C3 C2 1_555 1_555
C4 C3 1_555 1_555
H4 C4 1_555 1_555
C5 C4 1_555 1_555
H5 C5 1_555 1_555
C6 C5 1_555 1_555
H6 C6 1_555 1_555
C7 C6 1_555 1_555
H7 C7 1_555 1_555
C8 C3 1_555 1_555
H8 C8 1_555 1_555
O4 C21 1_555 1_555
O5 C21 1_555 1_555
N1 H19 1_555 1_555
H20 N1 1_555 1_555
H21 N1 1_555 1_555
C21 C22 1_555 1_555
C22 N1 1_555 1_555
H22 C22 1_555 1_555
C23 C22 1_555 1_555
H23 C23 1_555 1_555
H24 C23 1_555 1_555
H25 C23 1_555 1_555
C1 C2 1_555 1_555
C7 C8 1_555 1_555

#END
