
#######################################################################
#
#                 Cambridge Crystallographic Data Centre
#                                CCDC 
#
#######################################################################
#
# If this CIF has been generated from an entry in the Cambridge 
# Structural Database, then it will include bibliographic, chemical, 
# crystal, experimental, refinement or atomic coordinate data resulting 
# from the CCDC's data processing and validation procedures.
#
#######################################################################

data_IRUGOT
_chemical_formula_moiety         'C54 H48 O18,C4 H8 O2'
_chemical_name_systematic        
'hexaethyl 2,7,12,17,22,27-hexaoxaheptacyclo[26.2.2.2^3,6^.2^8,11^.2^13,16^.2^18,21^.2^23,26^]dotetraconta-1(30),3,5,8,10,13,15,18,20,23,25,28,31,33,35,37,39,41-octadecaene-4,14,24,33,37,41-hexacarboxylate ethyl acetate solvate'
_symmetry_cell_setting           monoclinic
_symmetry_space_group_name_H-M   'P n'
_symmetry_Int_Tables_number      7
_space_group_name_Hall           'P -2yac'
loop_
_symmetry_equiv_pos_site_id
_symmetry_equiv_pos_as_xyz
1 x,y,z
2 1/2+x,-y,1/2+z
_cell_length_a                   7.7437(16)
_cell_length_b                   24.157(5)
_cell_length_c                   14.585(3)
_cell_angle_alpha                90
_cell_angle_beta                 91.656(4)
_cell_angle_gamma                90
_cell_volume                     2727.2
_exptl_crystal_colour            colorless
_exptl_crystal_description       plate
_cell_formula_units_Z            2
loop_
_atom_site_label
_atom_site_type_symbol
_atom_site_fract_x
_atom_site_fract_y
_atom_site_fract_z
O1 O 0.4823(5) 0.47640(15) 0.5225(2)
O2 O 0.6525(5) 0.35249(15) 0.8323(2)
O3 O 0.7059(5) 0.12501(15) 0.8015(2)
O4 O 0.4271(5) 0.02674(14) 0.4871(2)
O5 O 0.2510(5) 0.14595(14) 0.1727(2)
O6 O 0.3447(5) 0.37330(14) 0.1882(2)
O7 O 1.1072(5) 0.2956(2) 0.8804(3)
O8 O 0.9895(6) 0.3421(2) 0.7627(4)
O9 O 0.2375(5) 0.1835(2) 0.7802(3)
O10 O 0.3843(14) 0.1248(5) 0.8759(9)
O11 O -0.0689(7) 0.0419(3) 0.4239(4)
O12 O 0.1096(13) 0.0525(8) 0.5368(7)
O13 O 0.7650(7) 0.1077(3) 0.2324(4)
O14 O 0.5727(6) 0.1201(2) 0.1202(3)
O15 O 0.8427(6) 0.4230(2) 0.2548(4)
O16 O 0.6922(7) 0.3570(2) 0.1885(4)
O17 O -0.0007(7) 0.4232(2) 0.4685(4)
O18 O 0.1237(6) 0.50392(17) 0.4977(3)
C1 C 0.5291(7) 0.4420(2) 0.5957(4)
C2 C 0.5546(8) 0.4678(2) 0.6806(4)
H1 H 0.5429 0.5060 0.6853
C3 C 0.5966(7) 0.4372(2) 0.7571(4)
H2 H 0.6151 0.4547 0.8133
C4 C 0.6116(6) 0.3803(2) 0.7505(3)
C5 C 0.5904(8) 0.3546(2) 0.6668(4)
H3 H 0.6050 0.3165 0.6624
C6 C 0.5473(8) 0.3852(2) 0.5889(4)
H4 H 0.5308 0.3677 0.5325
C7 C 0.6652(7) 0.2954(2) 0.8266(3)
C8 C 0.8268(7) 0.2707(2) 0.8227(3)
C9 C 0.8393(6) 0.2129(2) 0.8154(3)
H5 H 0.9466 0.1959 0.8120
C10 C 0.6899(7) 0.1818(2) 0.8132(3)
C11 C 0.5285(7) 0.2059(2) 0.8235(3)
C12 C 0.5182(7) 0.2632(2) 0.8296(4)
H6 H 0.4111 0.2800 0.8357
C13 C 0.9898(7) 0.3035(2) 0.8257(4)
C14 C 1.1365(10) 0.3798(3) 0.7622(9)
H7 H 1.1942 0.3799 0.8221
H8 H 1.2184 0.3673 0.7175
C15 C 1.0809(12) 0.4333(4) 0.7401(10)
H9 H 1.0527 0.4354 0.6757
H10 H 1.1714 0.4592 0.7551
H11 H 0.9806 0.4421 0.7744
C16 C 0.3658(7) 0.1726(3) 0.8252(4)
C17 C 0.2388(15) 0.0868(5) 0.8812(10)
H12 H 0.2821 0.0496 0.8916
H13 H 0.1747 0.0870 0.8231
C18 C 0.1215(17) 0.1014(5) 0.9549(7)
H14 H 0.0604 0.1347 0.9389
H15 H 0.1873 0.1071 1.0110
H16 H 0.0404 0.0719 0.9631
C19 C 0.6284(7) 0.1035(2) 0.7209(3)
C20 C 0.5861(7) 0.0479(2) 0.7215(4)
H17 H 0.6017 0.0271 0.7748
C21 C 0.5201(7) 0.0235(2) 0.6420(4)
H18 H 0.4940 -0.0141 0.6412
C22 C 0.4934(7) 0.0550(2) 0.5640(3)
C23 C 0.5337(7) 0.1102(2) 0.5637(3)
H19 H 0.5162 0.1311 0.5107
C24 C 0.6014(8) 0.1349(2) 0.6436(3)
H20 H 0.6279 0.1724 0.6443
C25 C 0.3836(7) 0.05786(19) 0.4093(3)
C26 C 0.2136(7) 0.0712(2) 0.3893(4)
C27 C 0.1729(7) 0.0994(2) 0.3077(4)
H21 H 0.0583 0.1080 0.2931
C28 C 0.2988(8) 0.1144(2) 0.2495(3)
C29 C 0.4707(7) 0.0991(2) 0.2672(3)
C30 C 0.5101(7) 0.0702(2) 0.3483(3)
H22 H 0.6234 0.0593 0.3611
C31 C 0.0691(9) 0.0576(3) 0.4502(5)
C32 C -0.0243(17) 0.0367(10) 0.6003(10)
H23 H -0.0528 -0.0021 0.5931
H24 H -0.1281 0.0584 0.5886
C33 C 0.6189(9) 0.1104(3) 0.2072(4)
C34 C 0.7090(11) 0.1319(4) 0.0571(5)
H25 H 0.6690 0.1240 -0.0052
H26 H 0.8080 0.1084 0.0711
C35 C 0.7606(12) 0.1907(4) 0.0645(5)
H27 H 0.8507 0.1981 0.0223
H28 H 0.8018 0.1983 0.1259
H29 H 0.6627 0.2138 0.0499
C36 C 0.2778(6) 0.2026(2) 0.1818(3)
C37 C 0.2683(8) 0.2338(2) 0.1021(3)
H30 H 0.2462 0.2166 0.0459
C38 C 0.2917(7) 0.2905(2) 0.1059(3)
H31 H 0.2859 0.3115 0.0524
C39 C 0.3237(6) 0.3157(2) 0.1893(3)
C40 C 0.3302(8) 0.2853(2) 0.2696(3)
H32 H 0.3494 0.3027 0.3258
C41 C 0.3076(8) 0.2283(2) 0.2653(4)
H33 H 0.3126 0.2074 0.3188
C42 C 0.3832(7) 0.39838(19) 0.2724(3)
C43 C 0.2480(6) 0.4134(2) 0.3264(3)
H34 H 0.1352 0.4060 0.3065
C44 C 0.2785(7) 0.4399(2) 0.4111(4)
C45 C 0.4460(7) 0.45064(19) 0.4388(3)
C46 C 0.5827(7) 0.4364(2) 0.3838(4)
H35 H 0.6952 0.4445 0.4033
C47 C 0.5535(7) 0.4102(2) 0.3000(3)
C48 C 0.1230(8) 0.4532(2) 0.4642(4)
C49 C -0.0277(9) 0.5232(3) 0.5447(5)
H36 H 0.0082 0.5441 0.5987
H37 H -0.0947 0.4917 0.5645
C50 C -0.1368(9) 0.5588(3) 0.4833(5)
H38 H -0.1677 0.5387 0.4285
H39 H -0.0736 0.5914 0.4677
H40 H -0.2397 0.5691 0.5142
C51 C 0.7116(7) 0.3979(2) 0.2466(4)
C52 C 0.8459(10) 0.3407(4) 0.1366(7)
H41 H 0.9501 0.3497 0.1720
H42 H 0.8443 0.3011 0.1261
C53 C 0.8458(13) 0.3696(6) 0.0498(6)
H43 H 0.9438 0.3580 0.0158
H44 H 0.8521 0.4087 0.0606
H45 H 0.7416 0.3611 0.0155
C54 C 0.045(2) 0.0475(9) 0.6933(12)
H46 H 0.0775 0.0858 0.6987
H47 H 0.1448 0.0246 0.7050
H48 H -0.0413 0.0392 0.7371
O21 O 0.736(2) 0.2487(6) 0.5096(12)
O22 O 0.9974(17) 0.2408(6) 0.4718(7)
C59 C 0.791(3) 0.2359(11) 0.3523(16)
H59 H 0.8625 0.2067 0.3303
H60 H 0.8090 0.2688 0.3171
H61 H 0.6716 0.2251 0.3463
C60 C 0.834(3) 0.2467(10) 0.448(2)
C61 C 1.056(4) 0.2447(13) 0.5640(11)
H62 H 1.0332 0.2103 0.5957
H63 H 0.9956 0.2742 0.5945
C62 C 1.246(3) 0.2561(7) 0.5665(13)
H64 H 1.2723 0.2818 0.5186
H65 H 1.3076 0.2222 0.5575
H66 H 1.2790 0.2717 0.6249
C55? C 0.025(3) 0.0225(12) 0.6548(17)
H49? H 0.0059 -0.0059 0.6095
H50? H -0.0569 0.0183 0.7026
H51? H 0.1401 0.0193 0.6805
O19? O 0.1224(18) 0.0842(9) 0.5362(9)
C56? C 0.002(2) 0.0783(11) 0.6109(12)
H52? H -0.1152 0.0824 0.5873
H53? H 0.0242 0.1071 0.6561
O20? O 0.366(3) 0.1458(9) 0.9010(16)
C57? C 0.204(4) 0.1150(11) 0.910(2)
H54? H 0.1611 0.1017 0.8512
H55? H 0.1166 0.1378 0.9378
C58? C 0.258(4) 0.0670(10) 0.9731(19)
H56? H 0.2996 0.0370 0.9369
H57? H 0.1595 0.0548 1.0065
H58? H 0.3470 0.0790 1.0155
loop_
_geom_bond_atom_site_label_1
_geom_bond_atom_site_label_2
_geom_bond_site_symmetry_1
_geom_bond_site_symmetry_2
O1 C1 1_555 1_555
O2 C4 1_555 1_555
O3 C10 1_555 1_555
O4 C22 1_555 1_555
O5 C28 1_555 1_555
O6 C39 1_555 1_555
O7 C13 1_555 1_555
O8 C13 1_555 1_555
O9 C16 1_555 1_555
O10 C16 1_555 1_555
O11 C31 1_555 1_555
O12 C31 1_555 1_555
O13 C33 1_555 1_555
O14 C33 1_555 1_555
O15 C51 1_555 1_555
O16 C51 1_555 1_555
O17 C48 1_555 1_555
O18 C48 1_555 1_555
C1 C2 1_555 1_555
C2 H1 1_555 1_555
C3 C2 1_555 1_555
H2 C3 1_555 1_555
C4 C3 1_555 1_555
C5 C4 1_555 1_555
H3 C5 1_555 1_555
C6 C1 1_555 1_555
H4 C6 1_555 1_555
C7 O2 1_555 1_555
C8 C7 1_555 1_555
C9 C8 1_555 1_555
H5 C9 1_555 1_555
C10 C9 1_555 1_555
C11 C10 1_555 1_555
C12 C7 1_555 1_555
H6 C12 1_555 1_555
C13 C8 1_555 1_555
C14 O8 1_555 1_555
H7 C14 1_555 1_555
H8 C14 1_555 1_555
C15 C14 1_555 1_555
H9 C15 1_555 1_555
H10 C15 1_555 1_555
H11 C15 1_555 1_555
C16 C11 1_555 1_555
C17 O10 1_555 1_555
H12 C17 1_555 1_555
H13 C17 1_555 1_555
C18 C17 1_555 1_555
H14 C18 1_555 1_555
H15 C18 1_555 1_555
H16 C18 1_555 1_555
C19 O3 1_555 1_555
C20 C19 1_555 1_555
H17 C20 1_555 1_555
C21 C20 1_555 1_555
H18 C21 1_555 1_555
C22 C21 1_555 1_555
C23 C22 1_555 1_555
H19 C23 1_555 1_555
C24 C19 1_555 1_555
H20 C24 1_555 1_555
C25 O4 1_555 1_555
C26 C25 1_555 1_555
C27 C26 1_555 1_555
H21 C27 1_555 1_555
C28 C27 1_555 1_555
C29 C28 1_555 1_555
C30 C25 1_555 1_555
H22 C30 1_555 1_555
C31 C26 1_555 1_555
C32 O12 1_555 1_555
H23 C32 1_555 1_555
H24 C32 1_555 1_555
C33 C29 1_555 1_555
C34 O14 1_555 1_555
H25 C34 1_555 1_555
H26 C34 1_555 1_555
C35 C34 1_555 1_555
H27 C35 1_555 1_555
H28 C35 1_555 1_555
H29 C35 1_555 1_555
C36 O5 1_555 1_555
C37 C36 1_555 1_555
H30 C37 1_555 1_555
C38 C37 1_555 1_555
H31 C38 1_555 1_555
C39 C38 1_555 1_555
C40 C39 1_555 1_555
H32 C40 1_555 1_555
C41 C36 1_555 1_555
H33 C41 1_555 1_555
C42 O6 1_555 1_555
C43 C42 1_555 1_555
H34 C43 1_555 1_555
C44 C43 1_555 1_555
C45 O1 1_555 1_555
C46 C45 1_555 1_555
H35 C46 1_555 1_555
C47 C42 1_555 1_555
C48 C44 1_555 1_555
C49 O18 1_555 1_555
H36 C49 1_555 1_555
H37 C49 1_555 1_555
C50 C49 1_555 1_555
H38 C50 1_555 1_555
H39 C50 1_555 1_555
H40 C50 1_555 1_555
C51 C47 1_555 1_555
C52 O16 1_555 1_555
H41 C52 1_555 1_555
H42 C52 1_555 1_555
C53 C52 1_555 1_555
H43 C53 1_555 1_555
H44 C53 1_555 1_555
H45 C53 1_555 1_555
C54 C32 1_555 1_555
H46 C54 1_555 1_555
H47 C54 1_555 1_555
H48 C54 1_555 1_555
O21 C60 1_555 1_555
O22 C60 1_555 1_555
C59 H59 1_555 1_555
H60 C59 1_555 1_555
H61 C59 1_555 1_555
C60 C59 1_555 1_555
C61 O22 1_555 1_555
H62 C61 1_555 1_555
H63 C61 1_555 1_555
C62 C61 1_555 1_555
H64 C62 1_555 1_555
H65 C62 1_555 1_555
H66 C62 1_555 1_555
C5 C6 1_555 1_555
C11 C12 1_555 1_555
C23 C24 1_555 1_555
C29 C30 1_555 1_555
C40 C41 1_555 1_555
C44 C45 1_555 1_555
C46 C47 1_555 1_555

#END
