
#######################################################################
#
#                 Cambridge Crystallographic Data Centre
#                                CCDC 
#
#######################################################################
#
# If this CIF has been generated from an entry in the Cambridge 
# Structural Database, then it will include bibliographic, chemical, 
# crystal, experimental, refinement or atomic coordinate data resulting 
# from the CCDC's data processing and validation procedures.
#
#######################################################################

data_IRULEO
_chemical_formula_moiety         'C26 H29 F6 N3 O1 S1,0.5(C6 H14)'
_chemical_name_systematic        
'1-(3,5-bis(trifluoromethyl)phenyl)-3-((S)-3,3-dimethyl-1-((R)-2-methyl-2-phenylpyrrolidin-1-yl)-1-oxobutan-2-yl)thiourea hexane solvate'
_symmetry_cell_setting           monoclinic
_symmetry_space_group_name_H-M   'C 2'
_symmetry_Int_Tables_number      5
_space_group_name_Hall           'C 2y'
loop_
_symmetry_equiv_pos_site_id
_symmetry_equiv_pos_as_xyz
1 x,y,z
2 -x,y,-z
3 1/2+x,1/2+y,z
4 1/2-x,1/2+y,-z
_cell_length_a                   19.6310(19)
_cell_length_b                   12.4696(12)
_cell_length_c                   14.2862(14)
_cell_angle_alpha                90
_cell_angle_beta                 122.5860(14)
_cell_angle_gamma                90
_cell_volume                     2946.63
_exptl_crystal_colour            colorless
_exptl_crystal_description       plate
_cell_formula_units_Z            4
loop_
_atom_site_label
_atom_site_type_symbol
_atom_site_fract_x
_atom_site_fract_y
_atom_site_fract_z
C1 C 0.45737(16) 0.3670(2) 0.0901(2)
H1 H 0.4304 0.3026 0.0531
C2 C 0.42471(17) 0.4646(3) 0.0397(2)
H2 H 0.3754 0.4666 -0.0308
C3 C 0.46353(17) 0.5593(2) 0.0913(2)
H3 H 0.4421 0.6262 0.0556
C4 C 0.53320(16) 0.5556(2) 0.1946(2)
H4 H 0.5596 0.6204 0.2309
C5 C 0.56575(14) 0.4576(2) 0.24694(19)
H5 H 0.6134 0.4565 0.3193
C6 C 0.52909(14) 0.3612(2) 0.1943(2)
C7 C 0.56873(15) 0.2530(2) 0.24244(19)
C8 C 0.62916(17) 0.2264(2) 0.2083(2)
H6 H 0.6399 0.1484 0.2137
H7 H 0.6079 0.2500 0.1311
C9 C 0.70536(15) 0.2877(2) 0.2898(2)
H8 H 0.7006 0.3643 0.2689
H9 H 0.7533 0.2566 0.2937
C10 C 0.71066(14) 0.2740(2) 0.3996(2)
H10 H 0.7436 0.2105 0.4405
H11 H 0.7346 0.3383 0.4470
C11 C 0.59715(14) 0.26493(19) 0.43248(18)
C12 C 0.65787(14) 0.2622(2) 0.56004(18)
H12 H 0.7087 0.2991 0.5778
C13 C 0.62647(13) 0.4303(2) 0.61936(18)
C14 C 0.57864(14) 0.5791(2) 0.68226(18)
C15 C 0.51170(14) 0.6445(2) 0.62664(19)
H13 H 0.4633 0.6193 0.5627
C16 C 0.51621(16) 0.7484(2) 0.6658(2)
C17 C 0.58616(17) 0.7862(2) 0.7590(2)
H14 H 0.5888 0.8573 0.7846
C18 C 0.65261(15) 0.7182(3) 0.8147(2)
C19 C 0.64953(15) 0.6155(2) 0.7775(2)
H15 H 0.6952 0.5697 0.8161
C20 C 0.50771(19) 0.1612(2) 0.2086(2)
H16 H 0.4637 0.1843 0.2173
H17 H 0.5349 0.0988 0.2560
H18 H 0.4856 0.1420 0.1308
C21 C 0.68013(15) 0.1473(2) 0.6128(2)
C22 C 0.7420(2) 0.1612(3) 0.7377(2)
H19 H 0.7879 0.2036 0.7490
H20 H 0.7611 0.0906 0.7724
H21 H 0.7165 0.1983 0.7716
C23 C 0.71912(18) 0.0804(2) 0.5640(2)
H22 H 0.6822 0.0760 0.4831
H23 H 0.7304 0.0081 0.5958
H24 H 0.7698 0.1143 0.5818
C24 C 0.60625(19) 0.0869(2) 0.5936(3)
H25 H 0.5815 0.1271 0.6268
H26 H 0.6226 0.0159 0.6280
H27 H 0.5671 0.0790 0.5136
C25 C 0.44275(19) 0.8182(2) 0.6061(2)
N1 N 0.62511(11) 0.25940(17) 0.36587(16)
N2 N 0.62144(12) 0.32328(17) 0.60847(16)
N3 N 0.57491(12) 0.47230(18) 0.64590(17)
O1 O 0.52396(10) 0.27283(15) 0.39496(14)
F1 F 0.40621(12) 0.81453(15) 0.49600(14)
F2 F 0.45976(14) 0.92126(16) 0.63650(19)
F3 F 0.38613(11) 0.78840(18) 0.62668(17)
C26 C 0.72717(19) 0.7555(4) 0.9205(3)
F4 F 0.7480(5) 0.8551(5) 0.9137(6)
F5 F 0.7937(2) 0.6928(8) 0.9478(5)
F6 F 0.7215(9) 0.7493(10) 1.0080(9)
S1 S 0.68891(4) 0.50625(5) 0.60043(5)
H28 H 0.580(2) 0.293(3) 0.610(3)
H29 H 0.5421(19) 0.429(3) 0.653(3)
F7? F 0.7238(12) 0.8652(11) 0.917(2)
F8? F 0.7897(8) 0.7354(18) 0.9259(14)
F9? F 0.718(3) 0.728(3) 1.001(3)
H30? H 0.1657 0.4619 0.0433
H31? H 0.1392 0.4011 0.1174
H32? H 0.1052 0.5187 0.0705
H33? H 0.0917 0.3491 -0.0379
H34? H 0.0590 0.4637 -0.0840
H35? H -0.0253 0.3739 -0.1631
H36? H -0.0037 0.2963 -0.0640
H37? H -0.0862 0.3192 -0.0893
H38? H -0.1017 0.4073 -0.1751
H39? H -0.1698 0.4522 -0.1712
H40? H -0.1585 0.3570 -0.0926
H41? H -0.2145 0.4801 -0.0810
H42? H -0.1403 0.5588 -0.0473
H43? H -0.1293 0.4613 0.0325
C27? C 0.1213(12) 0.450(2) 0.0547(18)
C28? C 0.0639(8) 0.4108(14) -0.0290(14)
C29? C -0.0111(6) 0.3730(12) -0.0853(10)
C30? C -0.0743(6) 0.3954(12) -0.0941(10)
C31? C -0.1344(9) 0.4263(19) -0.0939(18)
C32? C -0.1557(12) 0.4845(14) -0.0450(18)
loop_
_geom_bond_atom_site_label_1
_geom_bond_atom_site_label_2
_geom_bond_site_symmetry_1
_geom_bond_site_symmetry_2
C1 H1 1_555 1_555
C2 C1 1_555 1_555
H2 C2 1_555 1_555
C3 C2 1_555 1_555
H3 C3 1_555 1_555
C4 C3 1_555 1_555
H4 C4 1_555 1_555
C5 C4 1_555 1_555
H5 C5 1_555 1_555
C6 C1 1_555 1_555
C7 C6 1_555 1_555
C8 C7 1_555 1_555
H6 C8 1_555 1_555
H7 C8 1_555 1_555
C9 C8 1_555 1_555
H8 C9 1_555 1_555
H9 C9 1_555 1_555
C10 C9 1_555 1_555
H10 C10 1_555 1_555
H11 C10 1_555 1_555
C11 C12 1_555 1_555
C12 H12 1_555 1_555
C13 N2 1_555 1_555
C14 C15 1_555 1_555
C15 H13 1_555 1_555
C16 C15 1_555 1_555
C17 C16 1_555 1_555
H14 C17 1_555 1_555
C18 C17 1_555 1_555
C19 C14 1_555 1_555
H15 C19 1_555 1_555
C20 C7 1_555 1_555
H16 C20 1_555 1_555
H17 C20 1_555 1_555
H18 C20 1_555 1_555
C21 C12 1_555 1_555
C22 C21 1_555 1_555
H19 C22 1_555 1_555
H20 C22 1_555 1_555
H21 C22 1_555 1_555
C23 C21 1_555 1_555
H22 C23 1_555 1_555
H23 C23 1_555 1_555
H24 C23 1_555 1_555
C24 C21 1_555 1_555
H25 C24 1_555 1_555
H26 C24 1_555 1_555
H27 C24 1_555 1_555
C25 C16 1_555 1_555
N1 C7 1_555 1_555
N2 C12 1_555 1_555
N3 C13 1_555 1_555
O1 C11 1_555 1_555
F1 C25 1_555 1_555
F2 C25 1_555 1_555
F3 C25 1_555 1_555
C26 C18 1_555 1_555
F4 C26 1_555 1_555
F5 C26 1_555 1_555
F6 C26 1_555 1_555
S1 C13 1_555 1_555
H28 N2 1_555 1_555
H29 N3 1_555 1_555
C5 C6 1_555 1_555
C10 N1 1_555 1_555
C11 N1 1_555 1_555
C14 N3 1_555 1_555
C18 C19 1_555 1_555

#END
