
#######################################################################
#
#                 Cambridge Crystallographic Data Centre
#                                CCDC 
#
#######################################################################
#
# If this CIF has been generated from an entry in the Cambridge 
# Structural Database, then it will include bibliographic, chemical, 
# crystal, experimental, refinement or atomic coordinate data resulting 
# from the CCDC's data processing and validation procedures.
#
#######################################################################

data_IRUWAV
_chemical_name_common            'pegaharmine A methanol solvate'
_chemical_formula_moiety         'C24 H22 N4 O3,2(C1 H4 O1)'
_chemical_name_systematic        
'9-methoxy-11b-methyl-1-(4-oxoquinazolin-3(4H)-yl)-1,2,5,6,11,11b-hexahydro-3H-indolizino[8,7-b]indol-3-one methanol solvate'
_symmetry_cell_setting           orthorhombic
_symmetry_space_group_name_H-M   'P 21 21 21'
_symmetry_Int_Tables_number      19
_space_group_name_Hall           'P 2ac 2ab'
loop_
_symmetry_equiv_pos_site_id
_symmetry_equiv_pos_as_xyz
1 x,y,z
2 1/2-x,-y,1/2+z
3 1/2+x,1/2-y,-z
4 -x,1/2+y,1/2-z
_cell_length_a                   9.7084(3)
_cell_length_b                   15.1043(9)
_cell_length_c                   16.6406(8)
_cell_angle_alpha                90
_cell_angle_beta                 90
_cell_angle_gamma                90
_cell_volume                     2440.15
_exptl_crystal_colour            colorless
_exptl_crystal_description       prism
_cell_formula_units_Z            4
loop_
_atom_site_label
_atom_site_type_symbol
_atom_site_fract_x
_atom_site_fract_y
_atom_site_fract_z
O1 O 0.55679(15) 0.66410(11) 0.25356(10)
O2 O -0.36554(16) 0.93635(10) 0.11092(9)
C1 C 0.2187(2) 0.67573(13) 0.34381(12)
H1 H 0.1675 0.6344 0.3780
C2 C -0.2185(2) 0.82792(13) 0.17620(12)
H2 H -0.2861 0.8113 0.2128
N1 N 0.17686(18) 0.76609(12) 0.36559(10)
C3 C 0.2501(2) 0.84003(14) 0.33965(12)
C4 C 0.1968(2) 0.92470(15) 0.37058(13)
N2 N 0.32929(18) 0.65523(12) 0.21788(10)
C5 C -0.0871(2) 0.79061(13) 0.17726(11)
N3 N -0.03421(17) 0.72987(11) 0.23032(10)
H3 H -0.0774 0.7066 0.2702
C6 C 0.0778(2) 0.92571(15) 0.41730(12)
C7 C 0.3728(2) 0.65721(13) 0.35480(12)
H4 H 0.4150 0.7019 0.3887
H5 H 0.3872 0.5995 0.3790
O3 O 0.35000(16) 0.83273(10) 0.29662(9)
N4 N 0.00530(19) 0.84762(13) 0.43656(11)
C8 C 0.0173(2) 0.81227(12) 0.12134(12)
C9 C 0.4328(2) 0.66013(14) 0.27087(12)
C10 C 0.0568(2) 0.77467(14) 0.41136(12)
H6 H 0.0103 0.7229 0.4247
C11 C 0.0985(3) 1.08388(15) 0.43069(14)
H7 H 0.0665 1.1375 0.4509
C12 C 0.1356(2) 0.76014(13) 0.14190(12)
C13 C -0.1407(2) 0.91634(13) 0.06195(12)
H8 H -0.1601 0.9601 0.0242
C14 C 0.1353(2) 0.55535(13) 0.24942(13)
H9 H 0.1923 0.5170 0.2812
H10 H 0.1359 0.5356 0.1946
H11 H 0.0428 0.5540 0.2697
C15 C 0.0281(2) 1.00557(16) 0.44804(12)
H12 H -0.0509 1.0066 0.4796
C16 C 0.1002(2) 0.71258(13) 0.20854(12)
C17 C -0.0126(2) 0.87700(13) 0.06265(12)
H13 H 0.0535 0.8929 0.0249
C18 C 0.3443(2) 0.66650(16) 0.13087(12)
H14 H 0.3042 0.6160 0.1036
H15 H 0.4414 0.6688 0.1173
C19 C 0.2742(2) 0.75094(15) 0.10209(12)
H16 H 0.3311 0.8017 0.1151
H17 H 0.2627 0.7489 0.0442
C20 C 0.2652(2) 1.00341(16) 0.35351(14)
H18 H 0.3441 1.0026 0.3218
C21 C -0.2427(2) 0.89116(13) 0.11760(12)
C22 C 0.2169(2) 1.08193(15) 0.38309(14)
H19 H 0.2631 1.1343 0.3714
C23 C -0.4642(2) 0.92131(15) 0.17308(14)
H20 H -0.5460 0.9549 0.1621
H21 H -0.4262 0.9394 0.2237
H22 H -0.4867 0.8595 0.1752
C24 C 0.1911(2) 0.65007(14) 0.25380(12)
O4 O 0.78892(17) 0.64884(12) 0.34467(10)
H23 H 0.7177 0.6500 0.3182
C25 C 0.7994(4) 0.5663(3) 0.3852(2)
H24 H 0.7930 0.5190 0.3469
H25 H 0.7260 0.5612 0.4236
H26 H 0.8863 0.5630 0.4126
O5 O -0.28248(18) 0.86930(14) 0.47640(10)
H31 H -0.2108 0.8414 0.4701
C27 C -0.3557(3) 0.87150(19) 0.40406(16)
H32 H -0.3138 0.9135 0.3683
H33 H -0.4492 0.8887 0.4144
H34 H -0.3543 0.8138 0.3798
H27? H 0.7152 0.6510 0.3207
C26? C 0.7704(12) 0.6118(9) 0.4160(8)
H28? H 0.7118 0.5610 0.4105
H29? H 0.7282 0.6537 0.4517
H30? H 0.8578 0.5938 0.4375
loop_
_geom_bond_atom_site_label_1
_geom_bond_atom_site_label_2
_geom_bond_site_symmetry_1
_geom_bond_site_symmetry_2
O1 C9 1_555 1_555
O2 C21 1_555 1_555
C1 H1 1_555 1_555
C2 H2 1_555 1_555
N1 C1 1_555 1_555
C3 N1 1_555 1_555
C4 C3 1_555 1_555
N2 C9 1_555 1_555
C5 C2 1_555 1_555
N3 C5 1_555 1_555
H3 N3 1_555 1_555
C6 C4 1_555 1_555
C7 C1 1_555 1_555
H4 C7 1_555 1_555
H5 C7 1_555 1_555
O3 C3 1_555 1_555
N4 C6 1_555 1_555
C8 C5 1_555 1_555
C9 C7 1_555 1_555
C10 N1 1_555 1_555
H6 C10 1_555 1_555
C11 H7 1_555 1_555
C12 C8 1_555 1_555
C13 H8 1_555 1_555
C14 H9 1_555 1_555
H10 C14 1_555 1_555
H11 C14 1_555 1_555
C15 C6 1_555 1_555
H12 C15 1_555 1_555
C16 N3 1_555 1_555
C17 C8 1_555 1_555
H13 C17 1_555 1_555
C18 N2 1_555 1_555
H14 C18 1_555 1_555
H15 C18 1_555 1_555
C19 C12 1_555 1_555
H16 C19 1_555 1_555
H17 C19 1_555 1_555
C20 C4 1_555 1_555
H18 C20 1_555 1_555
C21 C2 1_555 1_555
C22 C11 1_555 1_555
H19 C22 1_555 1_555
C23 O2 1_555 1_555
H20 C23 1_555 1_555
H21 C23 1_555 1_555
H22 C23 1_555 1_555
C24 C1 1_555 1_555
O4 H23 1_555 1_555
C25 O4 1_555 1_555
H24 C25 1_555 1_555
H25 C25 1_555 1_555
H26 C25 1_555 1_555
O5 H31 1_555 1_555
C27 O5 1_555 1_555
H32 C27 1_555 1_555
H33 C27 1_555 1_555
H34 C27 1_555 1_555
N2 C24 1_555 1_555
N4 C10 1_555 1_555
C11 C15 1_555 1_555
C12 C16 1_555 1_555
C13 C17 1_555 1_555
C13 C21 1_555 1_555
C14 C24 1_555 1_555
C16 C24 1_555 1_555
C18 C19 1_555 1_555
C20 C22 1_555 1_555

#END
