
#######################################################################
#
#                 Cambridge Crystallographic Data Centre
#                                CCDC 
#
#######################################################################
#
# If this CIF has been generated from an entry in the Cambridge 
# Structural Database, then it will include bibliographic, chemical, 
# crystal, experimental, refinement or atomic coordinate data resulting 
# from the CCDC's data processing and validation procedures.
#
#######################################################################

data_ISADOW
_chemical_formula_moiety         'C28 H19 N1 O1'
_chemical_name_systematic        
2-(4-(9H-Carbazol-9-yl)benzylidene)indan-1-one
_symmetry_cell_setting           monoclinic
_symmetry_space_group_name_H-M   'P 21/a'
_symmetry_Int_Tables_number      14
_space_group_name_Hall           '-P 2yab'
loop_
_symmetry_equiv_pos_site_id
_symmetry_equiv_pos_as_xyz
1 x,y,z
2 1/2-x,1/2+y,-z
3 -x,-y,-z
4 1/2+x,1/2-y,z
_cell_length_a                   7.7107(3)
_cell_length_b                   32.4219(12)
_cell_length_c                   8.3715(4)
_cell_angle_alpha                90
_cell_angle_beta                 105.095(3)
_cell_angle_gamma                90
_cell_volume                     2020.63
_exptl_crystal_colour            yellow
_exptl_crystal_description       prism
_cell_formula_units_Z            4
_exptl_crystal_recrystallization_method dichloromethane/n-hexane
loop_
_atom_site_label
_atom_site_type_symbol
_atom_site_fract_x
_atom_site_fract_y
_atom_site_fract_z
O1 O -0.1961(2) 0.02016(5) 1.1849(2)
N1 N 0.5789(2) 0.15760(6) 0.8356(2)
C1 C -0.0668(3) -0.05657(8) 1.4036(2)
C2 C 0.0272(4) -0.08891(8) 1.4934(3)
C3 C 0.2071(4) -0.09448(8) 1.5024(3)
C4 C 0.2979(3) -0.06796(7) 1.4239(3)
C5 C 0.2052(3) -0.03503(7) 1.3355(2)
C6 C 0.0242(3) -0.02965(7) 1.3247(2)
C7 C -0.0414(3) 0.00734(7) 1.2247(2)
C8 C 0.1156(2) 0.02582(6) 1.1784(2)
C9 C 0.2758(3) -0.00162(7) 1.2436(2)
C10 C 0.1000(2) 0.06109(7) 1.0938(2)
C11 C 0.2303(2) 0.08464(6) 1.0322(2)
C12 C 0.1719(2) 0.12069(6) 0.9429(2)
C13 C 0.2858(2) 0.14472(6) 0.8803(2)
C14 C 0.4627(2) 0.13311(6) 0.9034(2)
C15 C 0.5243(3) 0.09737(7) 0.9904(3)
C16 C 0.4103(2) 0.07379(7) 1.0549(3)
C17 C 0.5456(3) 0.16946(7) 0.6697(3)
C18 C 0.4098(3) 0.15648(8) 0.5362(3)
C19 C 0.4103(4) 0.17145(10) 0.3821(3)
C20 C 0.5401(5) 0.19910(10) 0.3623(4)
C21 C 0.6759(4) 0.21191(8) 0.4947(4)
C22 C 0.6805(3) 0.19656(7) 0.6529(3)
C23 C 0.8009(3) 0.20165(7) 0.8151(3)
C24 C 0.7341(2) 0.17721(6) 0.9252(3)
C25 C 0.8160(3) 0.17574(7) 1.0935(3)
C26 C 0.9683(3) 0.19938(8) 1.1511(3)
C27 C 1.0385(3) 0.22329(8) 1.0436(4)
C28 C 0.9558(3) 0.22475(7) 0.8777(4)
H1 H -0.1909 -0.0526 1.3952
H2 H 0.2691 -0.1171 1.5639
H3 H -0.0320 -0.1074 1.5497
H4 H 0.4215 -0.0721 1.4301
H5 H 0.3713 0.0132 1.3154
H6 H 0.3161 -0.0131 1.1551
H7 H -0.0168 0.0728 1.0686
H8 H 0.0498 0.1286 0.9255
H9 H 0.2435 0.1692 0.8207
H10 H 0.6457 0.0892 1.0047
H11 H 0.4544 0.0497 1.1169
H12 H 0.3202 0.1378 0.5504
H13 H 0.3206 0.1628 0.2872
H14 H 0.5351 0.2095 0.2551
H15 H 0.7648 0.2308 0.4805
H16 H 0.7692 0.1590 1.1657
H17 H 1.0267 0.1996 1.2660
H18 H 1.1455 0.2386 1.0871
H19 H 1.0028 0.2414 0.8055
loop_
_geom_bond_atom_site_label_1
_geom_bond_atom_site_label_2
_geom_bond_site_symmetry_1
_geom_bond_site_symmetry_2
O1 C7 1_555 1_555
N1 C14 1_555 1_555
C1 C2 1_555 1_555
C2 C3 1_555 1_555
C3 C4 1_555 1_555
C4 C5 1_555 1_555
C5 C6 1_555 1_555
C6 C1 1_555 1_555
C7 C6 1_555 1_555
C8 C7 1_555 1_555
C9 C5 1_555 1_555
C10 C8 1_555 1_555
C11 C10 1_555 1_555
C12 C11 1_555 1_555
C13 C12 1_555 1_555
C14 C13 1_555 1_555
C15 C14 1_555 1_555
C16 C11 1_555 1_555
C17 N1 1_555 1_555
C18 C17 1_555 1_555
C19 C18 1_555 1_555
C20 C19 1_555 1_555
C21 C20 1_555 1_555
C22 C17 1_555 1_555
C23 C22 1_555 1_555
C24 N1 1_555 1_555
C25 C24 1_555 1_555
C26 C25 1_555 1_555
C27 C26 1_555 1_555
C28 C23 1_555 1_555
H1 C1 1_555 1_555
H2 C3 1_555 1_555
H3 C2 1_555 1_555
H4 C4 1_555 1_555
H5 C9 1_555 1_555
H6 C9 1_555 1_555
H7 C10 1_555 1_555
H8 C12 1_555 1_555
H9 C13 1_555 1_555
H10 C15 1_555 1_555
H11 C16 1_555 1_555
H12 C18 1_555 1_555
H13 C19 1_555 1_555
H14 C20 1_555 1_555
H15 C21 1_555 1_555
H16 C25 1_555 1_555
H17 C26 1_555 1_555
H18 C27 1_555 1_555
H19 C28 1_555 1_555
C8 C9 1_555 1_555
C15 C16 1_555 1_555
C21 C22 1_555 1_555
C23 C24 1_555 1_555
C27 C28 1_555 1_555

#END
