
#######################################################################
#
#                 Cambridge Crystallographic Data Centre
#                                CCDC 
#
#######################################################################
#
# If this CIF has been generated from an entry in the Cambridge 
# Structural Database, then it will include bibliographic, chemical, 
# crystal, experimental, refinement or atomic coordinate data resulting 
# from the CCDC's data processing and validation procedures.
#
#######################################################################

data_ISALAP
_chemical_formula_moiety         'C6 H8 N6'
_chemical_name_systematic        1,2-bis(1,2,4-Triazol-1-yl)ethane
_symmetry_cell_setting           monoclinic
_symmetry_space_group_name_H-M   'P 21/a'
_symmetry_Int_Tables_number      14
_space_group_name_Hall           '-P 2yab'
loop_
_symmetry_equiv_pos_site_id
_symmetry_equiv_pos_as_xyz
1 x,y,z
2 1/2+x,1/2-y,z
3 -x,-y,-z
4 1/2-x,1/2+y,-z
_cell_length_a                   6.805(3)
_cell_length_b                   8.836(3)
_cell_length_c                   6.646(2)
_cell_angle_alpha                90
_cell_angle_beta                 112.114(7)
_cell_angle_gamma                90
_cell_volume                     370.22
_exptl_crystal_colour            colorless
_exptl_crystal_description       prism
_cell_formula_units_Z            2
loop_
_atom_site_label
_atom_site_type_symbol
_atom_site_fract_x
_atom_site_fract_y
_atom_site_fract_z
N1 N 0.87900(16) 0.00182(11) 0.20818(16)
N2 N 0.74985(16) -0.11836(12) 0.19646(18)
N3 N 0.65773(18) 0.08260(13) 0.35273(18)
C1 C 0.62121(19) -0.06324(15) 0.2856(2)
H1 H 0.5131 -0.1205 0.3012
C2 C 0.8219(2) 0.11875(14) 0.3006(2)
H2 H 0.8881 0.2128 0.3253
C3 C 1.04603(19) -0.00732(14) 0.12266(19)
H3 H 1.1191 -0.1035 0.1633
H4 H 1.1483 0.0729 0.1847
C3B C 0.95397(19) 0.00732(14) -0.12266(19)
N1B N 1.12100(16) -0.00182(11) -0.20818(16)
N2B N 1.25015(16) 0.11836(12) -0.19646(18)
C1B C 1.37879(19) 0.06324(15) -0.2856(2)
N3B N 1.34227(18) -0.08260(13) -0.35273(18)
C2B C 1.1781(2) -0.11875(14) -0.3006(2)
H2B H 1.1119 -0.2128 -0.3253
H1B H 1.4869 0.1205 -0.3012
H3B H 0.8809 0.1035 -0.1633
H4B H 0.8517 -0.0729 -0.1847
loop_
_geom_bond_atom_site_label_1
_geom_bond_atom_site_label_2
_geom_bond_site_symmetry_1
_geom_bond_site_symmetry_2
N1 N2 1_555 1_555
N2 C1 1_555 1_555
N3 C1 1_555 1_555
C1 H1 1_555 1_555
C2 N1 1_555 1_555
H2 C2 1_555 1_555
C3 N1 1_555 1_555
H3 C3 1_555 1_555
H4 C3 1_555 1_555
C3B C3 1_555 1_555
N1B C3B 1_555 1_555
N2B N1B 1_555 1_555
C1B N2B 1_555 1_555
N3B C1B 1_555 1_555
C2B N1B 1_555 1_555
H2B C2B 1_555 1_555
H1B C1B 1_555 1_555
H3B C3B 1_555 1_555
H4B C3B 1_555 1_555
N3 C2 1_555 1_555
N3B C2B 1_555 1_555

#END
