
#######################################################################
#
#                 Cambridge Crystallographic Data Centre
#                                CCDC 
#
#######################################################################
#
# If this CIF has been generated from an entry in the Cambridge 
# Structural Database, then it will include bibliographic, chemical, 
# crystal, experimental, refinement or atomic coordinate data resulting 
# from the CCDC's data processing and validation procedures.
#
#######################################################################

data_ISAPUP
_chemical_formula_moiety         'C27 H28 N2 Si2'
_chemical_name_systematic        
1,1-diphenyl-N-(1,1,3,3-tetramethyl-1H-naphtho[1,8-cd][1,2,6]azadisilin-2(3H)-yl)methanimine
_symmetry_cell_setting           monoclinic
_symmetry_space_group_name_H-M   'P 21/c'
_symmetry_Int_Tables_number      14
_space_group_name_Hall           '-P 2ybc'
loop_
_symmetry_equiv_pos_site_id
_symmetry_equiv_pos_as_xyz
1 x,y,z
2 -x,1/2+y,1/2-z
3 -x,-y,-z
4 x,1/2-y,1/2+z
_cell_length_a                   12.6202(9)
_cell_length_b                   15.2412(7)
_cell_length_c                   13.3315(9)
_cell_angle_alpha                90
_cell_angle_beta                 106.731(8)
_cell_angle_gamma                90
_cell_volume                     2455.72
_cell_formula_units_Z            4
loop_
_atom_site_label
_atom_site_type_symbol
_atom_site_fract_x
_atom_site_fract_y
_atom_site_fract_z
C1 C 0.81149(18) 0.81656(12) 0.18486(14)
C2 C 0.70520(18) 0.85646(12) 0.16922(14)
C3 C 0.61328(18) 0.81142(12) 0.18883(15)
C4 C 0.51503(19) 0.85627(14) 0.17534(17)
H1 H 0.4540 0.8261 0.1875
C5 C 0.5017(2) 0.94457(14) 0.14445(18)
H2 H 0.4338 0.9740 0.1382
C6 C 0.5872(2) 0.98719(14) 0.12367(17)
H3 H 0.5780 1.0467 0.1017
C7 C 0.6894(2) 0.94549(13) 0.13383(15)
C8 C 0.7779(2) 0.99047(14) 0.11099(17)
H4 H 0.7675 1.0494 0.0869
C9 C 0.8771(2) 0.95125(14) 0.12273(18)
H5 H 0.9350 0.9819 0.1055
C10 C 0.8937(2) 0.86469(14) 0.16071(17)
H6 H 0.9641 0.8383 0.1701
C11 C 0.9152(2) 0.72272(18) 0.39026(19)
H7 H 0.8646 0.7572 0.4182
H8 H 0.9857 0.7539 0.4029
H9 H 0.9279 0.6655 0.4252
C12 C 0.9582(2) 0.65535(15) 0.1927(2)
H10 H 0.9762 0.5966 0.2228
H11 H 1.0252 0.6915 0.2105
H12 H 0.9288 0.6508 0.1164
C13 C 0.6054(2) 0.69419(15) 0.37176(18)
H13 H 0.6137 0.6339 0.3983
H14 H 0.5338 0.7176 0.3742
H15 H 0.6651 0.7306 0.4152
C14 C 0.4903(2) 0.63599(15) 0.1486(2)
H16 H 0.4849 0.6476 0.0750
H17 H 0.4229 0.6564 0.1636
H18 H 0.4992 0.5728 0.1622
C15 C 0.75751(17) 0.49495(12) 0.20697(15)
C16 C 0.77523(18) 0.49938(12) 0.10137(15)
C17 C 0.70539(19) 0.54684(13) 0.01927(16)
H19 H 0.6447 0.5784 0.0300
C18 C 0.7244(2) 0.54801(15) -0.07784(17)
H20 H 0.6763 0.5801 -0.1337
C19 C 0.8128(2) 0.50284(15) -0.09426(18)
H21 H 0.8262 0.5049 -0.1608
C20 C 0.8814(2) 0.45478(14) -0.01394(18)
H22 H 0.9418 0.4231 -0.0253
C21 C 0.86245(19) 0.45278(13) 0.08307(16)
H23 H 0.9096 0.4191 0.1379
C22 C 0.76402(18) 0.40674(13) 0.25631(17)
C23 C 0.7318(2) 0.33184(14) 0.1955(2)
H24 H 0.7066 0.3362 0.1213
C24 C 0.7369(2) 0.25014(16) 0.2443(3)
H25 H 0.7151 0.1987 0.2034
C25 C 0.7739(2) 0.24450(19) 0.3522(3)
H26 H 0.7779 0.1888 0.3851
C26 C 0.8045(2) 0.31721(19) 0.4116(3)
H27 H 0.8289 0.3123 0.4858
C27 C 0.8005(2) 0.39842(16) 0.36506(19)
H28 H 0.8227 0.4491 0.4074
N1 N 0.73162(14) 0.64594(10) 0.22005(13)
N2 N 0.73798(14) 0.55812(10) 0.26301(12)
Si1 Si 0.85305(5) 0.70662(4) 0.24670(5)
Si2 Si 0.61208(5) 0.69518(3) 0.23408(5)
loop_
_geom_bond_atom_site_label_1
_geom_bond_atom_site_label_2
_geom_bond_site_symmetry_1
_geom_bond_site_symmetry_2
C1 C2 1_555 1_555
C2 C3 1_555 1_555
C3 C4 1_555 1_555
C4 H1 1_555 1_555
C5 C4 1_555 1_555
H2 C5 1_555 1_555
C6 C5 1_555 1_555
H3 C6 1_555 1_555
C7 C2 1_555 1_555
C8 C7 1_555 1_555
H4 C8 1_555 1_555
C9 C8 1_555 1_555
H5 C9 1_555 1_555
C10 C1 1_555 1_555
H6 C10 1_555 1_555
C11 H7 1_555 1_555
H8 C11 1_555 1_555
H9 C11 1_555 1_555
C12 H10 1_555 1_555
H11 C12 1_555 1_555
H12 C12 1_555 1_555
C13 H13 1_555 1_555
H14 C13 1_555 1_555
H15 C13 1_555 1_555
C14 H16 1_555 1_555
H17 C14 1_555 1_555
H18 C14 1_555 1_555
C15 C16 1_555 1_555
C16 C17 1_555 1_555
C17 H19 1_555 1_555
C18 C17 1_555 1_555
H20 C18 1_555 1_555
C19 C18 1_555 1_555
H21 C19 1_555 1_555
C20 C19 1_555 1_555
H22 C20 1_555 1_555
C21 C16 1_555 1_555
H23 C21 1_555 1_555
C22 C15 1_555 1_555
C23 C22 1_555 1_555
H24 C23 1_555 1_555
C24 C23 1_555 1_555
H25 C24 1_555 1_555
C25 C24 1_555 1_555
H26 C25 1_555 1_555
C26 C25 1_555 1_555
H27 C26 1_555 1_555
C27 C22 1_555 1_555
H28 C27 1_555 1_555
N1 N2 1_555 1_555
N2 C15 1_555 1_555
Si1 C1 1_555 1_555
Si2 C3 1_555 1_555
C6 C7 1_555 1_555
C9 C10 1_555 1_555
C11 Si1 1_555 1_555
C12 Si1 1_555 1_555
C13 Si2 1_555 1_555
C14 Si2 1_555 1_555
C20 C21 1_555 1_555
C26 C27 1_555 1_555
N1 Si1 1_555 1_555
N1 Si2 1_555 1_555

#END
