
#######################################################################
#
#                 Cambridge Crystallographic Data Centre
#                                CCDC 
#
#######################################################################
#
# If this CIF has been generated from an entry in the Cambridge 
# Structural Database, then it will include bibliographic, chemical, 
# crystal, experimental, refinement or atomic coordinate data resulting 
# from the CCDC's data processing and validation procedures.
#
#######################################################################

data_ISARMT
_chemical_formula_moiety         'C11 H17 N1 O7'
_chemical_name_systematic        Isosarmentosin
_symmetry_cell_setting           monoclinic
_symmetry_space_group_name_H-M   'P 21'
_symmetry_Int_Tables_number      4
_space_group_name_Hall           'P 2yb'
loop_
_symmetry_equiv_pos_site_id
_symmetry_equiv_pos_as_xyz
1 x,y,z
2 -x,1/2+y,-z
_cell_length_a                   12.185(5)
_cell_length_b                   10.318(5)
_cell_length_c                   4.853(4)
_cell_angle_alpha                90
_cell_angle_beta                 98.80(8)
_cell_angle_gamma                90
_cell_volume                     602.96
_cell_formula_units_Z            2
loop_
_atom_site_label
_atom_site_type_symbol
_atom_site_fract_x
_atom_site_fract_y
_atom_site_fract_z
O1 O 0.03015 0.19500 0.48847
O2 O 0.19350 0.49653 0.95011
O3 O 0.19146 0.10856 0.41156
O4 O 0.31050 0.26107 0.83674
O5 O -0.03791 0.45297 0.95533
O6 O 0.57158 0.07586 0.44338
O7 O -0.19922 0.13391 0.53373
C1 C -0.03028 0.25624 0.68652
C2 C 0.47768 0.14434 0.82827
C3 C 0.36786 0.18770 0.65123
C4 C 0.02033 0.38920 0.76214
C5 C 0.54017 0.03802 0.69830
C6 C 0.13971 0.17148 0.61632
C7 C 0.20217 0.29624 0.69949
C8 C 0.30197 0.07123 0.53238
C9 C 0.14034 0.37311 0.89457
C10 C 0.55403 0.25547 0.89576
C11 C -0.15139 0.26084 0.54985
N1 N 0.61714 0.33663 0.93491
H1 H 0.20372 0.34808 0.51409
H2 H 0.38489 0.23915 0.51830
H3 H -0.02472 0.20159 0.86553
H4 H -0.16245 0.29818 0.36879
H5 H -0.19385 0.31710 0.66137
H6 H 0.01335 0.44357 0.62093
H7 H -0.11986 0.47358 0.91027
H8 H 0.30052 0.01252 0.68191
H9 H 0.14576 0.34264 1.08935
H10 H 0.13842 0.11209 0.78454
H11 H 0.32711 0.03173 0.38337
H12 H 0.65049 0.11263 0.43716
H13 H 0.49118 -0.03267 0.62940
H14 H 0.45920 0.11457 1.02094
H15 H -0.16811 0.09250 0.39874
H16 H 0.61643 0.02597 0.82737
H17 H 0.18529 0.53553 1.13973
loop_
_geom_bond_atom_site_label_1
_geom_bond_atom_site_label_2
_geom_bond_site_symmetry_1
_geom_bond_site_symmetry_2
O1 C1 1_555 1_555
O2 C9 1_555 1_555
O3 C6 1_555 1_555
O4 C3 1_555 1_555
O5 C4 1_555 1_555
O6 C5 1_555 1_555
O7 C11 1_555 1_555
C1 C4 1_555 1_555
C2 C3 1_555 1_555
C3 C8 1_555 1_555
C4 C9 1_555 1_555
C5 C2 1_555 1_555
C6 O1 1_555 1_555
C7 O4 1_555 1_555
C8 O3 1_555 1_555
C9 C7 1_555 1_555
C10 C2 1_555 1_555
C11 C1 1_555 1_555
N1 C10 1_555 1_555
H1 C7 1_555 1_555
H2 C3 1_555 1_555
H3 C1 1_555 1_555
H4 C11 1_555 1_555
H5 C11 1_555 1_555
H6 C4 1_555 1_555
H7 O5 1_555 1_555
H8 C8 1_555 1_555
H9 C9 1_555 1_555
H10 C6 1_555 1_555
H11 C8 1_555 1_555
H12 O6 1_555 1_555
H13 C5 1_555 1_555
H14 C2 1_555 1_555
H15 O7 1_555 1_555
H16 C5 1_555 1_555
H17 O2 1_555 1_555
C6 C7 1_555 1_555

#END
