
#######################################################################
#
#                 Cambridge Crystallographic Data Centre
#                                CCDC 
#
#######################################################################
#
# If this CIF has been generated from an entry in the Cambridge 
# Structural Database, then it will include bibliographic, chemical, 
# crystal, experimental, refinement or atomic coordinate data resulting 
# from the CCDC's data processing and validation procedures.
#
#######################################################################

data_ISEDAN
_chemical_formula_moiety         'C27 H36 F3 N1 O3 S2 Si1'
_chemical_name_systematic        
6-methyl-2-[(4-methylphenyl)sulfonyl]-7-[(trifluoromethyl)sulfanyl]-5-{[tris(propan-2-yl)silyl]methylidene}-2,3,5,6-tetrahydro-1H-isoindol-1-one
_symmetry_cell_setting           triclinic
_symmetry_space_group_name_H-M   'P -1'
_symmetry_Int_Tables_number      2
_space_group_name_Hall           '-P 1'
loop_
_symmetry_equiv_pos_site_id
_symmetry_equiv_pos_as_xyz
1 x,y,z
2 -x,-y,-z
_cell_length_a                   7.1873(18)
_cell_length_b                   11.582(3)
_cell_length_c                   17.915(5)
_cell_angle_alpha                87.014(8)
_cell_angle_beta                 85.200(8)
_cell_angle_gamma                87.328(9)
_cell_volume                     1482.72
_exptl_crystal_colour            yellow
_exptl_crystal_description       plate
_cell_formula_units_Z            2
loop_
_atom_site_label
_atom_site_type_symbol
_atom_site_fract_x
_atom_site_fract_y
_atom_site_fract_z
S1 S -0.03480(16) 0.20764(10) 0.27311(5)
S2 S 0.15061(14) 0.35481(7) 0.55991(4)
Si1 Si 0.49298(11) 0.68624(7) 0.13812(4)
F1 F -0.1938(3) 0.1130(2) 0.17523(14)
F2 F 0.0881(3) 0.1488(2) 0.13694(15)
F3 F -0.1119(4) 0.2840(2) 0.13926(15)
O1 O -0.0316(3) 0.2453(2) 0.43339(13)
O2 O -0.0432(4) 0.3455(2) 0.58181(13)
O3 O 0.2561(4) 0.4424(2) 0.58762(12)
N1 N 0.1737(4) 0.3786(2) 0.46701(12)
C1 C 0.3638(4) 0.5493(2) 0.15328(14)
H1 H 0.3126 0.5254 0.1097
C2 C 0.3296(4) 0.4780(2) 0.21444(14)
C3 C 0.3766(4) 0.5011(2) 0.28929(14)
H2 H 0.4607 0.5598 0.2962
C4 C 0.3009(4) 0.4393(2) 0.34869(14)
C5 C 0.1656(4) 0.3533(2) 0.34121(14)
C6 C 0.1293(4) 0.3153(2) 0.27447(15)
C7 C 0.2513(4) 0.3576(2) 0.20618(14)
H3 H 0.1777 0.3603 0.1611
C8 C 0.4211(4) 0.2720(3) 0.19422(17)
H4 H 0.500 0.2745 0.2361
H5 H 0.4937 0.2935 0.1472
H6 H 0.3774 0.1934 0.1918
C9 C 0.4343(6) 0.7460(3) 0.04164(17)
H7 H 0.4457 0.679 0.0082
C10 C 0.5712(7) 0.8357(4) 0.0061(2)
H8 H 0.5362 0.8603 -0.0442
H9 H 0.6984 0.801 0.0026
H10 H 0.566 0.903 0.0374
C11 C 0.2324(7) 0.7944(5) 0.0407(2)
H11 H 0.2173 0.8647 0.0692
H12 H 0.147 0.7366 0.0636
H13 H 0.2037 0.813 -0.0112
C12 C 0.4306(5) 0.7892(3) 0.21498(16)
H14 H 0.4911 0.7556 0.26
C13 C 0.5122(7) 0.9074(3) 0.1973(2)
H15 H 0.4572 0.9442 0.1533
H16 H 0.6479 0.8981 0.1869
H17 H 0.4839 0.9559 0.2404
C14 C 0.2212(5) 0.8020(4) 0.2387(2)
H18 H 0.2008 0.856 0.2792
H19 H 0.1745 0.7264 0.2564
H20 H 0.1544 0.8318 0.1958
C15 C 0.7504(5) 0.6460(3) 0.1337(2)
H21 H 0.818 0.7191 0.1222
C16 C 0.8092(6) 0.5653(4) 0.0696(3)
H22 H 0.9451 0.5513 0.0663
H23 H 0.7719 0.6015 0.0222
H24 H 0.748 0.4915 0.0795
C17 C 0.8164(5) 0.5927(4) 0.2079(2)
H25 H 0.747 0.5233 0.2229
H26 H 0.7941 0.6491 0.247
H27 H 0.9503 0.5718 0.2012
C18 C -0.0568(5) 0.1873(3) 0.1768(2)
C19 C 0.0840(4) 0.3166(3) 0.41681(15)
C20 C 0.3258(4) 0.4487(2) 0.43040(14)
H28 H 0.4499 0.4165 0.4431
H29 H 0.3111 0.5301 0.445
C21 C 0.2630(4) 0.2190(2) 0.57575(14)
C22 C 0.1623(5) 0.1209(3) 0.57808(17)
H30 H 0.0317 0.1264 0.5726
C23 C 0.2526(5) 0.0140(3) 0.58844(17)
H31 H 0.1835 -0.0542 0.5903
C24 C 0.4422(5) 0.0052(3) 0.59610(16)
C25 C 0.5422(5) 0.1045(3) 0.59243(19)
H32 H 0.6731 0.0988 0.5969
C26 C 0.4536(5) 0.2130(3) 0.58225(17)
H33 H 0.5225 0.2813 0.5798
C27 C 0.5391(6) -0.1117(3) 0.6087(2)
H34 H 0.4538 -0.1726 0.6006
H35 H 0.5759 -0.1198 0.6602
H36 H 0.6505 -0.1186 0.5735
loop_
_geom_bond_atom_site_label_1
_geom_bond_atom_site_label_2
_geom_bond_site_symmetry_1
_geom_bond_site_symmetry_2
S1 C6 1_555 1_555
S2 O2 1_555 1_555
Si1 C1 1_555 1_555
F1 C18 1_555 1_555
F2 C18 1_555 1_555
F3 C18 1_555 1_555
O1 C19 1_555 1_555
O3 S2 1_555 1_555
N1 S2 1_555 1_555
C1 H1 1_555 1_555
C2 C1 1_555 1_555
C3 C2 1_555 1_555
H2 C3 1_555 1_555
C4 C3 1_555 1_555
C5 C4 1_555 1_555
C6 C5 1_555 1_555
C7 C2 1_555 1_555
H3 C7 1_555 1_555
C8 C7 1_555 1_555
H4 C8 1_555 1_555
H5 C8 1_555 1_555
H6 C8 1_555 1_555
C9 Si1 1_555 1_555
H7 C9 1_555 1_555
C10 C9 1_555 1_555
H8 C10 1_555 1_555
H9 C10 1_555 1_555
H10 C10 1_555 1_555
C11 C9 1_555 1_555
H11 C11 1_555 1_555
H12 C11 1_555 1_555
H13 C11 1_555 1_555
C12 Si1 1_555 1_555
H14 C12 1_555 1_555
C13 C12 1_555 1_555
H15 C13 1_555 1_555
H16 C13 1_555 1_555
H17 C13 1_555 1_555
C14 C12 1_555 1_555
H18 C14 1_555 1_555
H19 C14 1_555 1_555
H20 C14 1_555 1_555
C15 Si1 1_555 1_555
H21 C15 1_555 1_555
C16 C15 1_555 1_555
H22 C16 1_555 1_555
H23 C16 1_555 1_555
H24 C16 1_555 1_555
C17 C15 1_555 1_555
H25 C17 1_555 1_555
H26 C17 1_555 1_555
H27 C17 1_555 1_555
C18 S1 1_555 1_555
C19 N1 1_555 1_555
C20 N1 1_555 1_555
H28 C20 1_555 1_555
H29 C20 1_555 1_555
C21 S2 1_555 1_555
C22 C21 1_555 1_555
H30 C22 1_555 1_555
C23 C22 1_555 1_555
H31 C23 1_555 1_555
C24 C23 1_555 1_555
C25 C24 1_555 1_555
H32 C25 1_555 1_555
C26 C21 1_555 1_555
H33 C26 1_555 1_555
C27 C24 1_555 1_555
H34 C27 1_555 1_555
H35 C27 1_555 1_555
H36 C27 1_555 1_555
C4 C20 1_555 1_555
C5 C19 1_555 1_555
C6 C7 1_555 1_555
C25 C26 1_555 1_555

#END
