
#######################################################################
#
#                 Cambridge Crystallographic Data Centre
#                                CCDC 
#
#######################################################################
#
# If this CIF has been generated from an entry in the Cambridge 
# Structural Database, then it will include bibliographic, chemical, 
# crystal, experimental, refinement or atomic coordinate data resulting 
# from the CCDC's data processing and validation procedures.
#
#######################################################################

data_ISEHEV
_chemical_formula_moiety         'C32 H35 N5'
_chemical_name_systematic        
(1-(4-(dibutylamino)phenyl)-1-(4-(dicyanomethylene)cyclohexa-2,5-dien-1-ylidene)-3,3-dimethylbutan-2-ylidene)malononitrile
_symmetry_cell_setting           monoclinic
_symmetry_space_group_name_H-M   'P 21/c'
_symmetry_Int_Tables_number      14
_space_group_name_Hall           '-P 2ybc'
loop_
_symmetry_equiv_pos_site_id
_symmetry_equiv_pos_as_xyz
1 x,y,z
2 -x,1/2+y,1/2-z
3 -x,-y,-z
4 x,1/2-y,1/2+z
_cell_length_a                   27.1652(19)
_cell_length_b                   8.2735(5)
_cell_length_c                   25.1120(16)
_cell_angle_alpha                90
_cell_angle_beta                 96.633(2)
_cell_angle_gamma                90
_cell_volume                     5606.18
_exptl_crystal_colour            'dark blue'
_exptl_crystal_description       prism
_cell_formula_units_Z            8
loop_
_atom_site_label
_atom_site_type_symbol
_atom_site_fract_x
_atom_site_fract_y
_atom_site_fract_z
N1 N 0.32533(10) 1.2315(4) -0.22549(11)
N2 N 0.27788(10) 1.2582(4) -0.07276(11)
N3 N 0.40315(10) 0.8483(4) 0.19316(10)
N4 N 0.51737(9) 1.0165(4) 0.09369(10)
C1 C 0.31630(11) 1.1524(5) -0.19094(12)
C2 C 0.30416(10) 1.0635(4) -0.14480(11)
C3 C 0.30729(10) 0.9009(4) -0.13826(11)
C4 C 0.29244(10) 0.8363(4) -0.08665(11)
C5 C 0.24560(10) 0.7544(4) -0.08978(11)
C6 C 0.23354(11) 0.6405(4) -0.05171(12)
H1 H 0.2585 0.6092 -0.0240
C7 C 0.18757(11) 0.5730(4) -0.05290(13)
H2 H 0.1810 0.4985 -0.0258
C8 C 0.14934(11) 0.6134(5) -0.09448(12)
C9 C 0.16231(11) 0.7147(5) -0.13571(12)
H3 H 0.1387 0.7351 -0.1659
C10 C 0.20813(11) 0.7843(5) -0.13331(11)
H4 H 0.2152 0.8546 -0.1614
C11 C 0.08841(12) 0.4670(4) -0.04779(12)
H5 H 0.0579 0.4036 -0.0584
H6 H 0.1164 0.3914 -0.0386
C12 C 0.08169(11) 0.5759(4) -0.00086(11)
H7 H 0.1120 0.6415 0.0078
H8 H 0.0539 0.6510 -0.0112
C13 C 0.07140(13) 0.4835(5) 0.04854(12)
H9 H 0.0404 0.4211 0.0401
H10 H 0.0986 0.4053 0.0579
C14 C 0.06651(14) 0.5884(5) 0.09624(13)
H11 H 0.0385 0.6623 0.0881
H12 H 0.0970 0.6511 0.1049
H13 H 0.0609 0.5205 0.1269
C15 C 0.28868(11) 1.1684(4) -0.10404(12)
C16 C 0.32654(11) 0.7854(5) -0.17886(12)
C17 C 0.38145(10) 0.8273(5) -0.18360(12)
H14 H 0.3843 0.9428 -0.1913
H15 H 0.3931 0.7640 -0.2127
H16 H 0.4017 0.8017 -0.1498
C18 C 0.29633(12) 0.8021(5) -0.23482(12)
H17 H 0.2616 0.7747 -0.2323
H18 H 0.3098 0.7285 -0.2601
H19 H 0.2985 0.9136 -0.2475
C19 C 0.32416(13) 0.6096(5) -0.16110(14)
H20 H 0.3422 0.5974 -0.1252
H21 H 0.3392 0.5403 -0.1864
H22 H 0.2895 0.5781 -0.1603
C20 C 0.32462(10) 0.8635(4) -0.03980(10)
C21 C 0.37447(10) 0.9182(3) -0.04219(11)
H23 H 0.3848 0.9420 -0.0762
C22 C 0.40736(10) 0.9371(3) 0.00207(10)
H24 H 0.4401 0.9723 -0.0016
C23 C 0.39363(10) 0.9052(4) 0.05408(11)
C24 C 0.34342(10) 0.8603(4) 0.05773(11)
H25 H 0.3328 0.8429 0.0920
C25 C 0.31051(10) 0.8422(4) 0.01305(10)
H26 H 0.2772 0.8145 0.0170
C26 C 0.42810(10) 0.9178(4) 0.09971(10)
C27 C 0.41491(10) 0.8791(4) 0.15155(12)
C28 C 0.47767(11) 0.9719(4) 0.09683(10)
N5 N 0.0993(2) 0.5813(10) -0.0931(3)
C29 C 0.0598(2) 0.6374(9) -0.1345(3)
H27 H 0.0673 0.7494 -0.1449
H28 H 0.0279 0.6394 -0.1190
C30 C 0.0541(2) 0.5319(8) -0.1846(2)
H29 H 0.0496 0.4181 -0.1739
H30 H 0.0849 0.5380 -0.2021
C31 C 0.0100(3) 0.5822(8) -0.2251(3)
H31 H 0.0057 0.5020 -0.2545
H32 H -0.0206 0.5822 -0.2071
C32 C 0.0171(4) 0.7486(10) -0.2486(4)
H33 H 0.0127 0.8313 -0.2216
H34 H -0.0075 0.7651 -0.2799
H35 H 0.0505 0.7568 -0.2594
N7 N 0.40007(8) 0.3545(3) 0.11598(9)
N8 N 0.15475(10) -0.2839(4) 0.23209(10)
N9 N 0.21682(11) -0.3273(4) 0.08495(11)
N10 N -0.01444(10) 0.0022(4) -0.09658(10)
N11 N 0.11077(10) 0.1167(4) -0.18739(10)
C37 C 0.16887(11) -0.2114(4) 0.19819(12)
C38 C 0.18679(10) -0.1272(4) 0.15372(10)
C39 C 0.18854(10) 0.0343(4) 0.14794(11)
C40 C 0.20687(10) 0.0938(4) 0.09713(11)
C41 C 0.25509(10) 0.1657(4) 0.10211(11)
C42 C 0.26999(10) 0.2810(4) 0.06577(11)
H47 H 0.2466 0.3160 0.0370
C43 C 0.31672(10) 0.3442(4) 0.07029(11)
H48 H 0.3251 0.4207 0.0446
C44 C 0.35310(10) 0.2976(4) 0.11278(11)
C45 C 0.33752(10) 0.1914(4) 0.15133(11)
H49 H 0.3601 0.1632 0.1817
C46 C 0.29073(10) 0.1279(4) 0.14617(11)
H50 H 0.2818 0.0560 0.1730
C47 C 0.43724(10) 0.3147(4) 0.16125(11)
H51 H 0.4707 0.3235 0.1495
H52 H 0.4325 0.2013 0.1721
C48 C 0.43443(11) 0.4239(4) 0.20932(11)
H53 H 0.4007 0.4182 0.2204
H54 H 0.4405 0.5370 0.1990
C49 C 0.47231(12) 0.3766(5) 0.25693(12)
H55 H 0.5046 0.3548 0.2436
H56 H 0.4769 0.4689 0.2821
C50 C 0.45713(13) 0.2291(5) 0.28705(13)
H57 H 0.4515 0.1378 0.2622
H58 H 0.4266 0.2526 0.3028
H59 H 0.4835 0.2015 0.3156
C51 C 0.41533(11) 0.4648(4) 0.07568(11)
H60 H 0.4458 0.5220 0.0909
H61 H 0.3891 0.5468 0.0672
C52 C 0.42529(11) 0.3808(4) 0.02409(11)
H62 H 0.4561 0.3164 0.0310
H63 H 0.3977 0.3052 0.0130
C53 C 0.43056(11) 0.4983(4) -0.02134(12)
H64 H 0.4582 0.5735 -0.0102
H65 H 0.3998 0.5630 -0.0281
C54 C 0.44029(14) 0.4148(5) -0.07300(12)
H66 H 0.4434 0.4961 -0.1008
H67 H 0.4127 0.3420 -0.0847
H68 H 0.4711 0.3524 -0.0668
C55 C 0.20341(11) -0.2359(4) 0.11463(12)
C56 C 0.17242(11) 0.1564(4) 0.18890(11)
C57 C 0.18321(13) 0.3298(4) 0.17408(13)
H69 H 0.2191 0.3468 0.1775
H70 H 0.1684 0.4037 0.1982
H71 H 0.1691 0.3506 0.1370
C58 C 0.11589(11) 0.1382(5) 0.18997(12)
H72 H 0.0985 0.1728 0.1555
H73 H 0.1053 0.2055 0.2187
H74 H 0.1080 0.0248 0.1964
C59 C 0.19897(12) 0.1230(5) 0.24571(11)
H75 H 0.1908 0.0138 0.2570
H76 H 0.1881 0.2021 0.2709
H77 H 0.2349 0.1319 0.2452
C60 C 0.17583(10) 0.0742(4) 0.04894(10)
C61 C 0.19354(11) 0.0880(4) -0.00265(11)
H78 H 0.2280 0.1039 -0.0042
C62 C 0.16300(10) 0.0792(4) -0.04883(11)
H79 H 0.1764 0.0902 -0.0820
C63 C 0.11097(10) 0.0536(4) -0.04909(11)
C64 C 0.09338(10) 0.0274(4) 0.00162(11)
H80 H 0.0594 0.0031 0.0029
C65 C 0.12412(10) 0.0363(4) 0.04789(11)
H81 H 0.1111 0.0169 0.0808
C66 C 0.07898(10) 0.0556(4) -0.09681(11)
C67 C 0.02715(11) 0.0261(4) -0.09701(11)
C68 C 0.09632(11) 0.0885(4) -0.14713(12)
H36? H 0.1100 0.3772 -0.0332
H37? H 0.0555 0.4190 -0.0592
N6? N 0.1072(3) 0.5184(11) -0.0950(3)
C33? C 0.0706(2) 0.5138(10) -0.1425(3)
H38? H 0.0497 0.4165 -0.1407
H39? H 0.0881 0.5044 -0.1749
C34? C 0.0380(3) 0.6603(10) -0.1478(3)
H40? H 0.0591 0.7582 -0.1452
H41? H 0.0177 0.6626 -0.1175
C35? C 0.0031(2) 0.6655(10) -0.2013(2)
H42? H -0.0177 0.5669 -0.2041
H43? H -0.0192 0.7598 -0.2008
C36? C 0.0310(3) 0.6768(13) -0.2510(3)
H44? H 0.0531 0.7706 -0.2476
H45? H 0.0071 0.6887 -0.2831
H46? H 0.0505 0.5782 -0.2540
loop_
_geom_bond_atom_site_label_1
_geom_bond_atom_site_label_2
_geom_bond_site_symmetry_1
_geom_bond_site_symmetry_2
N1 C1 1_555 1_555
N2 C15 1_555 1_555
N3 C27 1_555 1_555
N4 C28 1_555 1_555
C1 C2 1_555 1_555
C2 C3 1_555 1_555
C3 C4 1_555 1_555
C4 C5 1_555 1_555
C5 C6 1_555 1_555
C6 H1 1_555 1_555
C7 C6 1_555 1_555
H2 C7 1_555 1_555
C8 C7 1_555 1_555
C9 C8 1_555 1_555
H3 C9 1_555 1_555
C10 C5 1_555 1_555
H4 C10 1_555 1_555
C11 H5 1_555 1_555
H6 C11 1_555 1_555
C12 C11 1_555 1_555
H7 C12 1_555 1_555
H8 C12 1_555 1_555
C13 C12 1_555 1_555
H9 C13 1_555 1_555
H10 C13 1_555 1_555
C14 C13 1_555 1_555
H11 C14 1_555 1_555
H12 C14 1_555 1_555
H13 C14 1_555 1_555
C15 C2 1_555 1_555
C16 C3 1_555 1_555
C17 C16 1_555 1_555
H14 C17 1_555 1_555
H15 C17 1_555 1_555
H16 C17 1_555 1_555
C18 C16 1_555 1_555
H17 C18 1_555 1_555
H18 C18 1_555 1_555
H19 C18 1_555 1_555
C19 C16 1_555 1_555
H20 C19 1_555 1_555
H21 C19 1_555 1_555
H22 C19 1_555 1_555
C20 C4 1_555 1_555
C21 C20 1_555 1_555
H23 C21 1_555 1_555
C22 C21 1_555 1_555
H24 C22 1_555 1_555
C23 C22 1_555 1_555
C24 C23 1_555 1_555
H25 C24 1_555 1_555
C25 C20 1_555 1_555
H26 C25 1_555 1_555
C26 C23 1_555 1_555
C27 C26 1_555 1_555
C28 C26 1_555 1_555
N5 C8 1_555 1_555
C29 N5 1_555 1_555
H27 C29 1_555 1_555
H28 C29 1_555 1_555
C30 C29 1_555 1_555
H29 C30 1_555 1_555
H30 C30 1_555 1_555
C31 C30 1_555 1_555
H31 C31 1_555 1_555
H32 C31 1_555 1_555
C32 C31 1_555 1_555
H33 C32 1_555 1_555
H34 C32 1_555 1_555
H35 C32 1_555 1_555
N7 C44 1_555 1_555
N8 C37 1_555 1_555
N9 C55 1_555 1_555
N10 C67 1_555 1_555
N11 C68 1_555 1_555
C37 C38 1_555 1_555
C38 C39 1_555 1_555
C39 C40 1_555 1_555
C40 C41 1_555 1_555
C41 C42 1_555 1_555
C42 H47 1_555 1_555
C43 C42 1_555 1_555
H48 C43 1_555 1_555
C44 C43 1_555 1_555
C45 C44 1_555 1_555
H49 C45 1_555 1_555
C46 C41 1_555 1_555
H50 C46 1_555 1_555
C47 N7 1_555 1_555
H51 C47 1_555 1_555
H52 C47 1_555 1_555
C48 C47 1_555 1_555
H53 C48 1_555 1_555
H54 C48 1_555 1_555
C49 C48 1_555 1_555
H55 C49 1_555 1_555
H56 C49 1_555 1_555
C50 C49 1_555 1_555
H57 C50 1_555 1_555
H58 C50 1_555 1_555
H59 C50 1_555 1_555
C51 N7 1_555 1_555
H60 C51 1_555 1_555
H61 C51 1_555 1_555
C52 C51 1_555 1_555
H62 C52 1_555 1_555
H63 C52 1_555 1_555
C53 C52 1_555 1_555
H64 C53 1_555 1_555
H65 C53 1_555 1_555
C54 C53 1_555 1_555
H66 C54 1_555 1_555
H67 C54 1_555 1_555
H68 C54 1_555 1_555
C55 C38 1_555 1_555
C56 C39 1_555 1_555
C57 C56 1_555 1_555
H69 C57 1_555 1_555
H70 C57 1_555 1_555
H71 C57 1_555 1_555
C58 C56 1_555 1_555
H72 C58 1_555 1_555
H73 C58 1_555 1_555
H74 C58 1_555 1_555
C59 C56 1_555 1_555
H75 C59 1_555 1_555
H76 C59 1_555 1_555
H77 C59 1_555 1_555
C60 C40 1_555 1_555
C61 C60 1_555 1_555
H78 C61 1_555 1_555
C62 C61 1_555 1_555
H79 C62 1_555 1_555
C63 C62 1_555 1_555
C64 C63 1_555 1_555
H80 C64 1_555 1_555
C65 C60 1_555 1_555
H81 C65 1_555 1_555
C66 C63 1_555 1_555
C67 C66 1_555 1_555
C68 C66 1_555 1_555
C9 C10 1_555 1_555
C11 N5 1_555 1_555
C24 C25 1_555 1_555
C45 C46 1_555 1_555
C64 C65 1_555 1_555

#END
