
#######################################################################
#
#                 Cambridge Crystallographic Data Centre
#                                CCDC 
#
#######################################################################
#
# If this CIF has been generated from an entry in the Cambridge 
# Structural Database, then it will include bibliographic, chemical, 
# crystal, experimental, refinement or atomic coordinate data resulting 
# from the CCDC's data processing and validation procedures.
#
#######################################################################

data_ISIHEZ
_chemical_formula_moiety         'C38 H42 B2 N2 S2'
_chemical_name_systematic        
5,7-dihexyl-4,8-diphenyl-4,5,7,8-tetrahydrothieno[3',2':3,4][1,2]azaborinino[5,6-g]thieno[3,2-c][1,2]benzazaborinine
_symmetry_cell_setting           monoclinic
_symmetry_space_group_name_H-M   'C 2/c'
_symmetry_Int_Tables_number      15
_space_group_name_Hall           '-C 2yn'
loop_
_symmetry_equiv_pos_site_id
_symmetry_equiv_pos_as_xyz
1 x,y,z
2 -x,y,1/2-z
3 1/2+x,1/2+y,z
4 1/2-x,1/2+y,1/2-z
5 -x,-y,-z
6 x,-y,1/2+z
7 1/2-x,1/2-y,-z
8 1/2+x,1/2-y,1/2+z
_cell_length_a                   21.953(2)
_cell_length_b                   19.090(2)
_cell_length_c                   8.7353(9)
_cell_angle_alpha                90
_cell_angle_beta                 108.626(5)
_cell_angle_gamma                90
_cell_volume                     3469.07
_exptl_crystal_colour            colorless
_exptl_crystal_description       block
_cell_formula_units_Z            4
loop_
_atom_site_label
_atom_site_type_symbol
_atom_site_fract_x
_atom_site_fract_y
_atom_site_fract_z
S1 S 0.38516(4) 0.18810(4) 0.79462(10)
N1 N 0.38958(10) -0.04968(12) 0.7570(3)
B1 B 0.33391(16) -0.01542(18) 0.7718(4)
C1 C 0.27019(14) -0.05703(15) 0.7565(4)
C2 C 0.26394(16) -0.10722(17) 0.8651(4)
H1 H 0.2997 -0.1188 0.9525
C3 C 0.20668(19) -0.14050(19) 0.8479(5)
H2 H 0.2041 -0.1738 0.9233
C4 C 0.15392(18) -0.1250(2) 0.7214(7)
H3 H 0.1151 -0.1475 0.7095
C5 C 0.15830(18) -0.0755(2) 0.6103(6)
H4 H 0.1224 -0.0652 0.5221
C6 C 0.21517(16) -0.0413(2) 0.6290(5)
H5 H 0.2169 -0.0069 0.5550
C7 C 0.33719(13) 0.06401(15) 0.7899(3)
C8 C 0.29038(15) 0.11332(17) 0.8070(4)
H6 H 0.2508 0.1001 0.8156
C9 C 0.30915(15) 0.18047(16) 0.8092(4)
H7 H 0.2839 0.2185 0.8177
C10 C 0.39145(12) 0.09811(14) 0.7834(3)
C11 C 0.44639(12) 0.06183(14) 0.7645(3)
C12 C 0.44546(13) -0.01276(14) 0.7582(3)
C13 C 0.5000 -0.0478(2) 0.7500
H8 H 0.5000 -0.0965 0.7500
C14 C 0.5000 0.0961(2) 0.7500
H9 H 0.5000 0.1449 0.7500
C15 C 0.38788(14) -0.12544(15) 0.7214(4)
H10 H 0.4086 -0.1331 0.6399
H11 H 0.3433 -0.1397 0.6755
C16 C 0.41986(16) -0.17211(16) 0.8650(4)
H12 H 0.4022 -0.1623 0.9513
H13 H 0.4656 -0.1623 0.9045
C17 C 0.4092(2) -0.24893(19) 0.8172(5)
H14 H 0.3634 -0.2584 0.7811
H15 H 0.4248 -0.2575 0.7268
C18 C 0.4421(3) -0.2995(2) 0.9520(6)
H16 H 0.4281 -0.2902 1.0448
H17 H 0.4882 -0.2924 0.9845
C19 C 0.4265(4) -0.3761(3) 0.8980(10)
H18 H 0.3808 -0.3843 0.8751
H19 H 0.4367 -0.3842 0.7993
C20 C 0.4621(4) -0.4248(5) 1.0199(13)
H20 H 0.4522 -0.4718 0.9811
H21 H 0.4506 -0.4185 1.1162
H22 H 0.5073 -0.4165 1.0438
S1A S 0.61484(4) 0.18810(4) 0.70538(10)
N1A N 0.61042(10) -0.04968(12) 0.7430(3)
B1A B 0.66609(16) -0.01542(18) 0.7282(4)
C1A C 0.72981(14) -0.05703(15) 0.7435(4)
C2A C 0.73606(16) -0.10722(17) 0.6349(4)
H1A H 0.7003 -0.1188 0.5475
C3A C 0.79332(19) -0.14050(19) 0.6521(5)
H2A H 0.7959 -0.1738 0.5767
C4A C 0.84608(18) -0.1250(2) 0.7786(7)
H3A H 0.8849 -0.1475 0.7905
C5A C 0.84170(18) -0.0755(2) 0.8897(6)
H4A H 0.8776 -0.0652 0.9779
C6A C 0.78483(16) -0.0413(2) 0.8710(5)
H5A H 0.7831 -0.0069 0.9450
C7A C 0.66281(13) 0.06401(15) 0.7101(3)
C8A C 0.70962(15) 0.11332(17) 0.6930(4)
H6A H 0.7492 0.1001 0.6844
C9A C 0.69085(15) 0.18047(16) 0.6908(4)
H7A H 0.7161 0.2185 0.6823
C10A C 0.60855(12) 0.09811(14) 0.7166(3)
C11A C 0.55361(12) 0.06183(14) 0.7355(3)
C12A C 0.55454(13) -0.01276(14) 0.7418(3)
C15A C 0.61212(14) -0.12544(15) 0.7786(4)
H10A H 0.5914 -0.1331 0.8601
H11A H 0.6567 -0.1397 0.8245
C16A C 0.58014(16) -0.17211(16) 0.6350(4)
H12A H 0.5978 -0.1623 0.5487
H13A H 0.5344 -0.1623 0.5955
C17A C 0.5908(2) -0.24893(19) 0.6828(5)
H14A H 0.6366 -0.2584 0.7189
H15A H 0.5752 -0.2575 0.7732
C18A C 0.5579(3) -0.2995(2) 0.5480(6)
H16A H 0.5719 -0.2902 0.4552
H17A H 0.5118 -0.2924 0.5155
C19A C 0.5735(4) -0.3761(3) 0.6020(10)
H18A H 0.6192 -0.3843 0.6249
H19A H 0.5633 -0.3842 0.7007
C20A C 0.5379(4) -0.4248(5) 0.4801(13)
H20A H 0.5478 -0.4718 0.5189
H21A H 0.5494 -0.4185 0.3838
H22A H 0.4927 -0.4165 0.4562
loop_
_geom_bond_atom_site_label_1
_geom_bond_atom_site_label_2
_geom_bond_site_symmetry_1
_geom_bond_site_symmetry_2
S1 C9 1_555 1_555
N1 B1 1_555 1_555
B1 C1 1_555 1_555
C1 C2 1_555 1_555
C2 H1 1_555 1_555
C3 C2 1_555 1_555
H2 C3 1_555 1_555
C4 C3 1_555 1_555
H3 C4 1_555 1_555
C5 C4 1_555 1_555
H4 C5 1_555 1_555
C6 C1 1_555 1_555
H5 C6 1_555 1_555
C7 B1 1_555 1_555
C8 C7 1_555 1_555
H6 C8 1_555 1_555
C9 C8 1_555 1_555
H7 C9 1_555 1_555
C10 S1 1_555 1_555
C11 C10 1_555 1_555
C12 N1 1_555 1_555
C13 C12 1_555 1_555
H8 C13 1_555 1_555
C14 C11 1_555 1_555
H9 C14 1_555 1_555
C15 N1 1_555 1_555
H10 C15 1_555 1_555
H11 C15 1_555 1_555
C16 C15 1_555 1_555
H12 C16 1_555 1_555
H13 C16 1_555 1_555
C17 C16 1_555 1_555
H14 C17 1_555 1_555
H15 C17 1_555 1_555
C18 C17 1_555 1_555
H16 C18 1_555 1_555
H17 C18 1_555 1_555
C19 C18 1_555 1_555
H18 C19 1_555 1_555
H19 C19 1_555 1_555
C20 C19 1_555 1_555
H20 C20 1_555 1_555
H21 C20 1_555 1_555
H22 C20 1_555 1_555
S1A C9A 1_555 1_555
N1A B1A 1_555 1_555
B1A C1A 1_555 1_555
C1A C2A 1_555 1_555
C2A H1A 1_555 1_555
C3A C2A 1_555 1_555
H2A C3A 1_555 1_555
C4A C3A 1_555 1_555
H3A C4A 1_555 1_555
C5A C4A 1_555 1_555
H4A C5A 1_555 1_555
C6A C1A 1_555 1_555
H5A C6A 1_555 1_555
C7A B1A 1_555 1_555
C8A C7A 1_555 1_555
H6A C8A 1_555 1_555
C9A C8A 1_555 1_555
H7A C9A 1_555 1_555
C10A S1A 1_555 1_555
C11A C14 1_555 1_555
C12A C13 1_555 1_555
C15A N1A 1_555 1_555
H10A C15A 1_555 1_555
H11A C15A 1_555 1_555
C16A C15A 1_555 1_555
H12A C16A 1_555 1_555
H13A C16A 1_555 1_555
C17A C16A 1_555 1_555
H14A C17A 1_555 1_555
H15A C17A 1_555 1_555
C18A C17A 1_555 1_555
H16A C18A 1_555 1_555
H17A C18A 1_555 1_555
C19A C18A 1_555 1_555
H18A C19A 1_555 1_555
H19A C19A 1_555 1_555
C20A C19A 1_555 1_555
H20A C20A 1_555 1_555
H21A C20A 1_555 1_555
H22A C20A 1_555 1_555
C5 C6 1_555 1_555
C7 C10 1_555 1_555
C11 C12 1_555 1_555
N1A C12A 1_555 1_555
C5A C6A 1_555 1_555
C7A C10A 1_555 1_555
C10A C11A 1_555 1_555
C11A C12A 1_555 1_555

#END
