
#######################################################################
#
#                 Cambridge Crystallographic Data Centre
#                                CCDC 
#
#######################################################################
#
# If this CIF has been generated from an entry in the Cambridge 
# Structural Database, then it will include bibliographic, chemical, 
# crystal, experimental, refinement or atomic coordinate data resulting 
# from the CCDC's data processing and validation procedures.
#
#######################################################################

data_ISIKOM
_chemical_formula_moiety         'C20 H20 N2 O3 S1'
_chemical_name_systematic        
N-(2,5-dimethyl-2,3-dihydropyrano[3,2-b]indol-4(5H)-ylidene)-4-methylbenzenesulfonamide
_symmetry_cell_setting           triclinic
_symmetry_space_group_name_H-M   'P -1'
_symmetry_Int_Tables_number      2
_space_group_name_Hall           '-P 1'
loop_
_symmetry_equiv_pos_site_id
_symmetry_equiv_pos_as_xyz
1 x,y,z
2 -x,-y,-z
_cell_length_a                   5.5675(5)
_cell_length_b                   8.6310(6)
_cell_length_c                   19.5676(16)
_cell_angle_alpha                77.417(6)
_cell_angle_beta                 83.698(7)
_cell_angle_gamma                82.645(6)
_cell_volume                     906.886
_exptl_crystal_colour            colorless
_exptl_crystal_description       block
_chemical_melting_point          '190-191 deg.C'
_cell_formula_units_Z            2
loop_
_atom_site_label
_atom_site_type_symbol
_atom_site_fract_x
_atom_site_fract_y
_atom_site_fract_z
S1 S 0.22278(14) -0.01626(8) 0.19319(4)
O1 O 0.6975(4) 0.0071(2) 0.40929(9)
O2 O 0.4067(5) -0.1376(2) 0.17736(13)
O3 O 0.0127(4) -0.0657(3) 0.23801(12)
N1 N 0.6078(4) 0.3472(2) 0.27100(11)
N2 N 0.3467(4) 0.1177(3) 0.22162(11)
C1 C 0.8647(6) 0.5427(3) 0.29520(16)
H1 H 0.8236 0.6240 0.2573
C2 C 1.0240(7) 0.5609(4) 0.34047(19)
H2 H 1.0929 0.6565 0.3326
C3 C 1.0872(7) 0.4415(4) 0.3980(2)
H3 H 1.1970 0.4590 0.4274
C4 C 0.9903(6) 0.2993(4) 0.41186(17)
H4 H 1.0318 0.2201 0.4505
C5 C 0.8272(5) 0.2754(3) 0.36654(14)
C6 C 0.7659(5) 0.3976(3) 0.30796(14)
C7 C 0.5615(5) 0.1932(3) 0.30505(14)
C8 C 0.6930(5) 0.1496(3) 0.36342(14)
C9 C 0.4916(7) -0.0752(4) 0.40593(18)
H5 H 0.3489 -0.0184 0.4272
C10 C 0.4410(6) -0.0763(3) 0.33307(15)
H6 H 0.2850 -0.1164 0.3349
H7 H 0.5634 -0.1508 0.3147
C11 C 0.4367(5) 0.0822(3) 0.28231(13)
C12 C 0.5307(8) -0.2391(4) 0.45170(18)
H8 H 0.6734 -0.2968 0.4334
H9 H 0.3923 -0.2954 0.4523
H10 H 0.5515 -0.2299 0.4987
C13 C 0.1226(5) 0.0990(3) 0.11390(14)
C14 C -0.1023(6) 0.1820(5) 0.11260(19)
H11 H -0.2039 0.1780 0.1538
C15 C -0.1792(7) 0.2720(5) 0.0502(2)
H12 H -0.3318 0.3302 0.0503
C16 C -0.0394(7) 0.2783(4) -0.01156(17)
C17 C 0.1828(8) 0.1936(5) -0.00960(19)
H13 H 0.2822 0.1956 -0.0511
C18 C 0.2657(7) 0.1043(5) 0.05262(18)
H14 H 0.4195 0.0477 0.0526
C19 C 0.4878(6) 0.4484(3) 0.21194(16)
H15 H 0.5896 0.4453 0.1692
H16 H 0.4592 0.5562 0.2189
H17 H 0.3356 0.4103 0.2088
C20 C -0.1291(9) 0.3755(5) -0.0799(2)
H18 H -0.1034 0.4853 -0.0843
H19 H -0.2994 0.3676 -0.0802
H20 H -0.0414 0.3353 -0.1186
loop_
_geom_bond_atom_site_label_1
_geom_bond_atom_site_label_2
_geom_bond_site_symmetry_1
_geom_bond_site_symmetry_2
S1 O2 1_555 1_555
O1 C8 1_555 1_555
O3 S1 1_555 1_555
N1 C6 1_555 1_555
N2 S1 1_555 1_555
C1 H1 1_555 1_555
C2 C1 1_555 1_555
H2 C2 1_555 1_555
C3 C2 1_555 1_555
H3 C3 1_555 1_555
C4 C3 1_555 1_555
H4 C4 1_555 1_555
C5 C4 1_555 1_555
C6 C1 1_555 1_555
C7 N1 1_555 1_555
C8 C5 1_555 1_555
C9 O1 1_555 1_555
H5 C9 1_555 1_555
C10 C9 1_555 1_555
H6 C10 1_555 1_555
H7 C10 1_555 1_555
C11 N2 1_555 1_555
C12 C9 1_555 1_555
H8 C12 1_555 1_555
H9 C12 1_555 1_555
H10 C12 1_555 1_555
C13 S1 1_555 1_555
C14 C13 1_555 1_555
H11 C14 1_555 1_555
C15 C14 1_555 1_555
H12 C15 1_555 1_555
C16 C15 1_555 1_555
C17 C16 1_555 1_555
H13 C17 1_555 1_555
C18 C13 1_555 1_555
H14 C18 1_555 1_555
C19 N1 1_555 1_555
H15 C19 1_555 1_555
H16 C19 1_555 1_555
H17 C19 1_555 1_555
C20 C16 1_555 1_555
H18 C20 1_555 1_555
H19 C20 1_555 1_555
H20 C20 1_555 1_555
C5 C6 1_555 1_555
C7 C8 1_555 1_555
C7 C11 1_555 1_555
C10 C11 1_555 1_555
C17 C18 1_555 1_555

#END
