
#######################################################################
#
#                 Cambridge Crystallographic Data Centre
#                                CCDC 
#
#######################################################################
#
# If this CIF has been generated from an entry in the Cambridge 
# Structural Database, then it will include bibliographic, chemical, 
# crystal, experimental, refinement or atomic coordinate data resulting 
# from the CCDC's data processing and validation procedures.
#
#######################################################################

data_ISILED
_chemical_formula_moiety         'C30 H22 B2 N2'
_chemical_name_systematic        
5,9-diphenyl-5,6,8,9-tetrahydro-6,8-diaza-5,9-diborabenzo[m]tetraphene
_symmetry_cell_setting           orthorhombic
_symmetry_space_group_name_H-M   'P b c n'
_symmetry_Int_Tables_number      60
_space_group_name_Hall           '-P 2n 2ab'
loop_
_symmetry_equiv_pos_site_id
_symmetry_equiv_pos_as_xyz
1 x,y,z
2 1/2-x,1/2-y,1/2+z
3 1/2+x,1/2-y,-z
4 -x,y,1/2-z
5 -x,-y,-z
6 1/2+x,1/2+y,1/2-z
7 1/2-x,1/2+y,z
8 x,-y,1/2+z
_cell_length_a                   28.5686(10)
_cell_length_b                   10.0690(4)
_cell_length_c                   7.7705(3)
_cell_angle_alpha                90
_cell_angle_beta                 90
_cell_angle_gamma                90
_cell_volume                     2235.24
_cell_formula_units_Z            4
loop_
_atom_site_label
_atom_site_type_symbol
_atom_site_fract_x
_atom_site_fract_y
_atom_site_fract_z
C1 C 0.5000 0.47345(18) 0.2500
H1 H 0.5000 0.3791 0.2500
N1 N 0.42767(4) 0.47175(11) 0.09038(16)
H2 H 0.4277 0.3847 0.1003
C2 C 0.46483(4) 0.54131(14) 0.16343(17)
C3 C 0.5000 0.74781(18) 0.2500
H3 H 0.5000 0.8422 0.2500
C4 C 0.37200(5) 0.88116(14) -0.1926(2)
H4 H 0.3518 0.9241 -0.2722
C5 C 0.46624(4) 0.68188(14) 0.15133(17)
C6 C 0.39551(5) 0.68123(13) -0.03771(18)
C7 C 0.43312(5) 0.75240(13) 0.03796(18)
C8 C 0.35276(5) 0.31690(14) -0.12312(19)
H5 H 0.3835 0.2836 -0.1411
C9 C 0.34696(5) 0.44326(14) -0.05060(18)
C10 C 0.43854(5) 0.88826(14) -0.00147(19)
H6 H 0.4633 0.9371 0.0500
C11 C 0.30092(5) 0.48695(14) -0.02164(19)
H7 H 0.2959 0.5718 0.0285
B1 B 0.39002(5) 0.53068(15) 0.0018(2)
C12 C 0.40838(5) 0.95141(14) -0.1139(2)
H8 H 0.4124 1.0432 -0.1378
C13 C 0.36578(5) 0.74830(14) -0.15312(19)
H9 H 0.3407 0.7010 -0.2054
C14 C 0.31457(6) 0.23908(14) -0.1694(2)
H10 H 0.3194 0.1545 -0.2207
C15 C 0.26944(5) 0.28491(16) -0.1406(2)
H11 H 0.2433 0.2321 -0.1724
C16 C 0.26266(5) 0.40885(16) -0.0648(2)
H12 H 0.2318 0.4399 -0.0426
N1C N 0.57233(4) 0.47175(11) 0.40962(16)
H2C H 0.5723 0.3847 0.3997
C2C C 0.53517(4) 0.54131(14) 0.33657(17)
C4C C 0.62800(5) 0.88116(14) 0.6926(2)
H4C H 0.6482 0.9241 0.7722
C5C C 0.53376(4) 0.68188(14) 0.34867(17)
C6C C 0.60449(5) 0.68123(13) 0.53771(18)
C7C C 0.56688(5) 0.75240(13) 0.46204(18)
C8C C 0.64724(5) 0.31690(14) 0.62312(19)
H5C H 0.6165 0.2836 0.6411
C9C C 0.65304(5) 0.44326(14) 0.55060(18)
C10C C 0.56146(5) 0.88826(14) 0.50147(19)
H6C H 0.5367 0.9371 0.4500
C11C C 0.69908(5) 0.48695(14) 0.52164(19)
H7C H 0.7041 0.5718 0.4715
B1C B 0.60998(5) 0.53068(15) 0.4982(2)
C12C C 0.59162(5) 0.95141(14) 0.6139(2)
H8C H 0.5876 1.0432 0.6378
C13C C 0.63422(5) 0.74830(14) 0.65312(19)
H9C H 0.6593 0.7010 0.7054
C14C C 0.68543(6) 0.23908(14) 0.6694(2)
H10C H 0.6806 0.1545 0.7207
C15C C 0.73056(5) 0.28491(16) 0.6406(2)
H11C H 0.7567 0.2321 0.6724
C16C C 0.73734(5) 0.40885(16) 0.5648(2)
H12C H 0.7682 0.4399 0.5426
loop_
_geom_bond_atom_site_label_1
_geom_bond_atom_site_label_2
_geom_bond_site_symmetry_1
_geom_bond_site_symmetry_2
C1 H1 1_555 1_555
N1 H2 1_555 1_555
C2 C1 1_555 1_555
C3 H3 1_555 1_555
C4 H4 1_555 1_555
C5 C2 1_555 1_555
C6 C7 1_555 1_555
C7 C5 1_555 1_555
C8 H5 1_555 1_555
C9 C8 1_555 1_555
C10 C7 1_555 1_555
H6 C10 1_555 1_555
C11 C9 1_555 1_555
H7 C11 1_555 1_555
B1 N1 1_555 1_555
C12 C4 1_555 1_555
H8 C12 1_555 1_555
C13 C4 1_555 1_555
H9 C13 1_555 1_555
C14 C8 1_555 1_555
H10 C14 1_555 1_555
C15 C14 1_555 1_555
H11 C15 1_555 1_555
C16 C11 1_555 1_555
H12 C16 1_555 1_555
N1C H2C 1_555 1_555
C2C C1 1_555 1_555
C4C H4C 1_555 1_555
C5C C3 1_555 1_555
C6C C7C 1_555 1_555
C7C C5C 1_555 1_555
C8C H5C 1_555 1_555
C9C C8C 1_555 1_555
C10C C7C 1_555 1_555
H6C C10C 1_555 1_555
C11C C9C 1_555 1_555
H7C C11C 1_555 1_555
B1C N1C 1_555 1_555
C12C C4C 1_555 1_555
H8C C12C 1_555 1_555
C13C C4C 1_555 1_555
H9C C13C 1_555 1_555
C14C C8C 1_555 1_555
H10C C14C 1_555 1_555
C15C C14C 1_555 1_555
H11C C15C 1_555 1_555
C16C C11C 1_555 1_555
H12C C16C 1_555 1_555
N1 C2 1_555 1_555
C3 C5 1_555 1_555
C6 B1 1_555 1_555
C6 C13 1_555 1_555
C9 B1 1_555 1_555
C10 C12 1_555 1_555
C15 C16 1_555 1_555
N1C C2C 1_555 1_555
C2C C5C 1_555 1_555
C6C B1C 1_555 1_555
C6C C13C 1_555 1_555
C9C B1C 1_555 1_555
C10C C12C 1_555 1_555
C15C C16C 1_555 1_555

#END
