
#######################################################################
#
#                 Cambridge Crystallographic Data Centre
#                                CCDC 
#
#######################################################################
#
# If this CIF has been generated from an entry in the Cambridge 
# Structural Database, then it will include bibliographic, chemical, 
# crystal, experimental, refinement or atomic coordinate data resulting 
# from the CCDC's data processing and validation procedures.
#
#######################################################################

data_ISIYUG
_chemical_formula_moiety         'C31 H38 N2'
_chemical_name_systematic        
2-(2,4,6-trimethylphenyl)-5-[2,4,6-tri(propan-2-yl)phenyl]imidazo[1,5-a]pyridin-3(2H)-ylidene
_symmetry_cell_setting           monoclinic
_symmetry_space_group_name_H-M   'P 21/c'
_symmetry_Int_Tables_number      14
_space_group_name_Hall           '-P 2ybc'
loop_
_symmetry_equiv_pos_site_id
_symmetry_equiv_pos_as_xyz
1 x,y,z
2 -x,1/2+y,1/2-z
3 -x,-y,-z
4 x,1/2-y,1/2+z
_cell_length_a                   12.890(3)
_cell_length_b                   16.362(3)
_cell_length_c                   14.391(3)
_cell_angle_alpha                90
_cell_angle_beta                 116.60
_cell_angle_gamma                90
_cell_volume                     2713.89
_exptl_crystal_colour            colorless
_exptl_crystal_description       block
_cell_formula_units_Z            4
loop_
_atom_site_label
_atom_site_type_symbol
_atom_site_fract_x
_atom_site_fract_y
_atom_site_fract_z
N1 N 0.2657(3) 0.23413(18) 0.2279(3)
N2 N 0.4248(3) 0.23365(15) 0.2205(2)
C1 C 0.3761(4) 0.2558(2) 0.2860(3)
C2 C 0.2405(4) 0.2013(2) 0.1303(3)
H1 H 0.1690 0.1834 0.0796
C3 C 0.3447(4) 0.2015(2) 0.1260(3)
C4 C 0.3805(4) 0.1799(2) 0.0483(3)
H2 H 0.3282 0.1580 -0.0151
C5 C 0.4919(5) 0.1923(2) 0.0703(3)
H3 H 0.5170 0.1795 0.0207
C6 C 0.5719(4) 0.2243(2) 0.1670(3)
H4 H 0.6488 0.2308 0.1798
C7 C 0.5408(4) 0.2460(2) 0.2424(3)
C8 C 0.1760(4) 0.2529(2) 0.2583(3)
C9 C 0.1605(4) 0.2054(3) 0.3298(3)
C10 C 0.1098(4) 0.3226(3) 0.2156(3)
C11 C 0.0251(4) 0.3431(3) 0.2463(3)
H5 H -0.0203 0.3893 0.2186
C12 C 0.0761(5) 0.2281(3) 0.3584(4)
H6 H 0.0651 0.1966 0.4071
C13 C 0.1281(5) 0.3775(3) 0.1390(4)
H7 H 0.2089 0.3912 0.1663
H8 H 0.0834 0.4266 0.1284
H9 H 0.1036 0.3494 0.0740
C14 C 0.0076(5) 0.2956(3) 0.3176(4)
C15 C 0.2354(6) 0.1317(3) 0.3776(4)
H10 H 0.2049 0.1015 0.4172
H11 H 0.3131 0.1490 0.4226
H12 H 0.2360 0.0975 0.3237
C16 C -0.0884(5) 0.3185(3) 0.3476(5)
H13 H -0.1617 0.3192 0.2865
H14 H -0.0730 0.3716 0.3792
H15 H -0.0909 0.2790 0.3959
C17 C 0.6185(4) 0.2842(2) 0.3425(3)
C18 C 0.7047(4) 0.4034(2) 0.4432(3)
H16 H 0.7100 0.4601 0.4485
C19 C 0.7769(4) 0.3579(2) 0.5270(3)
C20 C 0.6883(4) 0.2359(2) 0.4268(3)
C21 C 0.7664(4) 0.2733(2) 0.5169(3)
H17 H 0.8137 0.2409 0.5730
C22 C 0.6245(4) 0.3697(2) 0.3513(3)
C23 C 0.6781(4) 0.1432(2) 0.4241(3)
H18 H 0.6190 0.1276 0.3548
C24 C 0.5440(5) 0.4252(2) 0.2640(4)
H19 H 0.4972 0.3910 0.2037
C25 C 0.6123(5) 0.4865(3) 0.2315(4)
H20 H 0.6537 0.5236 0.2877
H21 H 0.5595 0.5166 0.1717
H22 H 0.6665 0.4574 0.2147
C26 C 0.8645(5) 0.3967(3) 0.6248(4)
H23 H 0.9059 0.3513 0.6709
C27 C 0.7902(6) 0.1030(3) 0.4411(5)
H24 H 0.8147 0.1241 0.3919
H25 H 0.7788 0.0450 0.4318
H26 H 0.8485 0.1142 0.5103
C28 C 0.4618(5) 0.4700(3) 0.2967(5)
H27 H 0.4261 0.4314 0.3236
H28 H 0.4030 0.4974 0.2376
H29 H 0.5047 0.5094 0.3495
C29 C 0.6378(6) 0.1133(3) 0.5024(4)
H30 H 0.6953 0.1262 0.5714
H31 H 0.6265 0.0552 0.4959
H32 H 0.5659 0.1395 0.4895
C30 C 0.9554(6) 0.4444(4) 0.6099(5)
H33 H 0.9898 0.4104 0.5768
H34 H 1.0142 0.4620 0.6763
H35 H 0.9204 0.4912 0.5672
C31 C 0.8125(7) 0.4436(4) 0.6808(5)
H36 H 0.7719 0.4901 0.6399
H37 H 0.8725 0.4619 0.7462
H38 H 0.7591 0.4095 0.6928
loop_
_geom_bond_atom_site_label_1
_geom_bond_atom_site_label_2
_geom_bond_site_symmetry_1
_geom_bond_site_symmetry_2
N1 C1 1_555 1_555
N2 C1 1_555 1_555
C2 N1 1_555 1_555
H1 C2 1_555 1_555
C3 N2 1_555 1_555
C4 C3 1_555 1_555
H2 C4 1_555 1_555
C5 C4 1_555 1_555
H3 C5 1_555 1_555
C6 C5 1_555 1_555
H4 C6 1_555 1_555
C7 N2 1_555 1_555
C8 N1 1_555 1_555
C9 C8 1_555 1_555
C10 C8 1_555 1_555
C11 C10 1_555 1_555
H5 C11 1_555 1_555
C12 C9 1_555 1_555
H6 C12 1_555 1_555
C13 C10 1_555 1_555
H7 C13 1_555 1_555
H8 C13 1_555 1_555
H9 C13 1_555 1_555
C14 C11 1_555 1_555
C15 C9 1_555 1_555
H10 C15 1_555 1_555
H11 C15 1_555 1_555
H12 C15 1_555 1_555
C16 C14 1_555 1_555
H13 C16 1_555 1_555
H14 C16 1_555 1_555
H15 C16 1_555 1_555
C17 C7 1_555 1_555
C18 H16 1_555 1_555
C19 C18 1_555 1_555
C20 C17 1_555 1_555
C21 C19 1_555 1_555
H17 C21 1_555 1_555
C22 C17 1_555 1_555
C23 C20 1_555 1_555
H18 C23 1_555 1_555
C24 C22 1_555 1_555
H19 C24 1_555 1_555
C25 C24 1_555 1_555
H20 C25 1_555 1_555
H21 C25 1_555 1_555
H22 C25 1_555 1_555
C26 C19 1_555 1_555
H23 C26 1_555 1_555
C27 C23 1_555 1_555
H24 C27 1_555 1_555
H25 C27 1_555 1_555
H26 C27 1_555 1_555
C28 C24 1_555 1_555
H27 C28 1_555 1_555
H28 C28 1_555 1_555
H29 C28 1_555 1_555
C29 C23 1_555 1_555
H30 C29 1_555 1_555
H31 C29 1_555 1_555
H32 C29 1_555 1_555
C30 C26 1_555 1_555
H33 C30 1_555 1_555
H34 C30 1_555 1_555
H35 C30 1_555 1_555
C31 C26 1_555 1_555
H36 C31 1_555 1_555
H37 C31 1_555 1_555
H38 C31 1_555 1_555
C2 C3 1_555 1_555
C6 C7 1_555 1_555
C12 C14 1_555 1_555
C18 C22 1_555 1_555
C20 C21 1_555 1_555

#END
