
#######################################################################
#
#                 Cambridge Crystallographic Data Centre
#                                CCDC 
#
#######################################################################
#
# If this CIF has been generated from an entry in the Cambridge 
# Structural Database, then it will include bibliographic, chemical, 
# crystal, experimental, refinement or atomic coordinate data resulting 
# from the CCDC's data processing and validation procedures.
#
#######################################################################

data_ISODAW
_chemical_formula_moiety         'C19 H26 O8,0.5(C1 H4 O1)'
_chemical_name_systematic        
'6,15,18-Trihydroxy-12,12-dimethyl-8-oxo-9,17-dioxapentacyclo[8.5.3.0^1,11^.0^2,7^.0^7,18^]octadecane-5-carboxylic acid methanol solvate'
_symmetry_cell_setting           orthorhombic
_symmetry_space_group_name_H-M   'P 21 21 21'
_symmetry_Int_Tables_number      19
_space_group_name_Hall           'P 2ac 2ab'
loop_
_symmetry_equiv_pos_site_id
_symmetry_equiv_pos_as_xyz
1 x,y,z
2 1/2-x,-y,1/2+z
3 -x,1/2+y,1/2-z
4 1/2+x,1/2-y,-z
_cell_length_a                   9.6172(17)
_cell_length_b                   14.543(3)
_cell_length_c                   27.025(5)
_cell_angle_alpha                90
_cell_angle_beta                 90
_cell_angle_gamma                90
_cell_volume                     3779.8
_exptl_crystal_colour            colorless
_exptl_crystal_description       prismatic
_cell_formula_units_Z            8
loop_
_atom_site_label
_atom_site_type_symbol
_atom_site_fract_x
_atom_site_fract_y
_atom_site_fract_z
O1 O 0.8041(4) 0.4188(3) 0.96141(13)
O2 O 0.6615(4) 0.2432(3) 0.84548(16)
O3 O 0.4073(4) 0.4057(4) 0.80100(16)
O4 O 0.2220(4) 0.3949(3) 0.85043(17)
O5 O 0.4711(5) 0.2125(4) 0.80070(17)
O6 O 0.2805(5) 0.1774(3) 0.86793(18)
O7 O 0.0788(4) 0.3499(4) 0.96271(18)
O8 O 0.0585(5) 0.2460(4) 0.9049(2)
C1 C 0.7590(5) 0.4606(4) 0.91561(19)
H2 H 0.7001 0.5133 0.9242
C2 C 0.8837(6) 0.4976(5) 0.8869(2)
H3 H 0.9330 0.5415 0.9075
H4 H 0.9468 0.4471 0.8799
C3 C 0.8442(7) 0.5434(5) 0.8389(2)
H5 H 0.9277 0.5663 0.8230
H6 H 0.7850 0.5958 0.8461
C4 C 0.7675(6) 0.4787(4) 0.8029(2)
C5 C 0.6425(6) 0.4386(4) 0.83173(19)
H7 H 0.5821 0.4915 0.8384
C6 C 0.5522(6) 0.3719(5) 0.8021(2)
H8 H 0.5889 0.3625 0.7687
C7 C 0.5354(6) 0.2811(4) 0.8296(2)
C8 C 0.4377(5) 0.3130(4) 0.87108(18)
C9 C 0.5226(5) 0.3771(4) 0.90688(18)
H9 H 0.4752 0.4368 0.9066
C10 C 0.6700(5) 0.3941(4) 0.88414(18)
C11 C 0.5160(5) 0.3423(4) 0.96031(19)
H10 H 0.5629 0.2834 0.9627
H11 H 0.5632 0.3854 0.9820
C12 C 0.3650(6) 0.3320(4) 0.9764(2)
H12 H 0.3197 0.3915 0.9744
H13 H 0.3626 0.3125 1.0108
C13 C 0.2827(5) 0.2623(4) 0.9449(2)
H14 H 0.2767 0.2069 0.9654
C14 C 0.3667(6) 0.2328(4) 0.8989(2)
H15 H 0.4415 0.1928 0.9108
C15 C 0.3385(6) 0.3737(5) 0.8419(2)
C16 C 0.7399(5) 0.3013(4) 0.8789(2)
H16 H 0.8335 0.3095 0.8663
H17 H 0.7462 0.2720 0.9111
C17 C 0.8676(8) 0.4066(5) 0.7808(3)
H18 H 0.8158 0.3638 0.7610
H19 H 0.9135 0.3743 0.8071
H20 H 0.9356 0.4369 0.7605
C18 C 0.7092(9) 0.5373(6) 0.7608(3)
H21 H 0.6414 0.5793 0.7738
H22 H 0.6662 0.4981 0.7366
H23 H 0.7834 0.5712 0.7456
C19 C 0.1336(6) 0.2924(5) 0.9373(2)
H49 H 0.879(4) 0.394(4) 0.958(2)
H50 H 0.456(9) 0.175(7) 0.778(3)
H51 H 0.313(10) 0.165(7) 0.8400(18)
H52 H 0.124(7) 0.229(6) 0.888(3)
O9 O 0.2291(4) 0.9898(3) 0.95234(15)
O10 O 0.3917(4) 0.8503(3) 0.82682(13)
O11 O 0.6304(4) 0.7169(3) 0.90073(16)
O12 O 0.8197(4) 0.8028(3) 0.91192(17)
O13 O 0.5835(5) 0.7754(3) 0.80104(16)
O14 O 0.7557(5) 0.9151(4) 0.80688(16)
O15 O 0.9828(5) 0.9586(4) 0.85489(18)
O16 O 0.9647(4) 1.0277(3) 0.92813(19)
C20 C 0.2694(5) 0.8951(4) 0.95821(19)
H24 H 0.3188 0.8889 0.9897
C21 C 0.1385(6) 0.8382(4) 0.9607(2)
H25 H 0.0836 0.8492 0.9312
H26 H 0.0839 0.8577 0.9890
C22 C 0.1673(6) 0.7361(4) 0.9650(2)
H27 H 0.0795 0.7033 0.9663
H28 H 0.2160 0.7245 0.9959
C23 C 0.2543(6) 0.6984(4) 0.9221(2)
C24 C 0.3872(5) 0.7573(4) 0.9193(2)
H29 H 0.4354 0.7465 0.9507
C25 C 0.4919(6) 0.7295(4) 0.8791(2)
H30 H 0.4613 0.6741 0.8615
C26 C 0.5162(5) 0.8097(4) 0.84320(19)
C27 C 0.6085(5) 0.8705(4) 0.87614(19)
C28 C 0.5170(5) 0.9055(4) 0.92112(18)
H31 H 0.5575 0.8777 0.9509
C29 C 0.3674(5) 0.8646(3) 0.91641(18)
C30 C 0.5309(6) 1.0084(4) 0.9277(2)
H32 H 0.4853 1.0270 0.9581
H33 H 0.4856 1.0397 0.9004
C31 C 0.6827(6) 1.0358(4) 0.9295(2)
H34 H 0.7288 1.0012 0.9555
H35 H 0.6895 1.1005 0.9378
C32 C 0.7582(6) 1.0184(4) 0.8800(2)
H36 H 0.7544 1.0769 0.8620
C33 C 0.6779(6) 0.9495(4) 0.8479(2)
H37 H 0.6013 0.9847 0.8333
C34 C 0.7042(6) 0.7963(4) 0.8974(2)
C35 C 0.3138(5) 0.8949(4) 0.86570(18)
H38 H 0.2161 0.8792 0.8627
H39 H 0.3227 0.9611 0.8625
C36 C 0.1688(7) 0.6950(5) 0.8734(3)
H40 H 0.1027 0.6456 0.8751
H41 H 0.2304 0.6850 0.8459
H42 H 0.1205 0.7521 0.8690
C37 C 0.2994(9) 0.5986(5) 0.9351(3)
H43 H 0.3486 0.5985 0.9660
H44 H 0.3590 0.5753 0.9095
H45 H 0.2185 0.5602 0.9377
C38 C 0.9121(6) 0.9969(4) 0.8861(2)
H53 H 0.255(9) 1.008(6) 0.9795(16)
H54 H 0.654(5) 0.805(4) 0.796(3)
H55 H 0.837(4) 0.917(7) 0.817(3)
H56 H 1.051(2) 1.025(5) 0.931(2)
O17 O 0.6738(11) 0.1036(8) 0.7446(4)
H1 H 0.6384 0.1549 0.7460
C39 C 0.827(2) 0.1119(13) 0.7505(7)
H46 H 0.8471 0.1439 0.7807
H47 H 0.8644 0.1454 0.7230
H48 H 0.8672 0.0516 0.7516
loop_
_geom_bond_atom_site_label_1
_geom_bond_atom_site_label_2
_geom_bond_site_symmetry_1
_geom_bond_site_symmetry_2
O1 C1 1_555 1_555
O2 C7 1_555 1_555
O3 C6 1_555 1_555
O4 C15 1_555 1_555
O5 C7 1_555 1_555
O6 C14 1_555 1_555
O7 C19 1_555 1_555
O8 C19 1_555 1_555
O9 C20 1_555 1_555
O10 C26 1_555 1_555
O11 C25 1_555 1_555
O12 C34 1_555 1_555
O13 C26 1_555 1_555
O14 C33 1_555 1_555
O15 C38 1_555 1_555
O16 C38 1_555 1_555
O17 H1 1_555 1_555
C1 H2 1_555 1_555
C2 C1 1_555 1_555
H3 C2 1_555 1_555
H4 C2 1_555 1_555
C3 C2 1_555 1_555
H5 C3 1_555 1_555
H6 C3 1_555 1_555
C4 C3 1_555 1_555
C5 C4 1_555 1_555
H7 C5 1_555 1_555
C6 C5 1_555 1_555
H8 C6 1_555 1_555
C7 C6 1_555 1_555
C8 C7 1_555 1_555
C9 C8 1_555 1_555
H9 C9 1_555 1_555
C10 C1 1_555 1_555
C11 C9 1_555 1_555
H10 C11 1_555 1_555
H11 C11 1_555 1_555
C12 C11 1_555 1_555
H12 C12 1_555 1_555
H13 C12 1_555 1_555
C13 C12 1_555 1_555
H14 C13 1_555 1_555
C14 C8 1_555 1_555
H15 C14 1_555 1_555
C15 O3 1_555 1_555
C16 O2 1_555 1_555
H16 C16 1_555 1_555
H17 C16 1_555 1_555
C17 C4 1_555 1_555
H18 C17 1_555 1_555
H19 C17 1_555 1_555
H20 C17 1_555 1_555
C18 C4 1_555 1_555
H21 C18 1_555 1_555
H22 C18 1_555 1_555
H23 C18 1_555 1_555
C19 C13 1_555 1_555
C20 H24 1_555 1_555
C21 C20 1_555 1_555
H25 C21 1_555 1_555
H26 C21 1_555 1_555
C22 C21 1_555 1_555
H27 C22 1_555 1_555
H28 C22 1_555 1_555
C23 C22 1_555 1_555
C24 C23 1_555 1_555
H29 C24 1_555 1_555
C25 C24 1_555 1_555
H30 C25 1_555 1_555
C26 C25 1_555 1_555
C27 C26 1_555 1_555
C28 C27 1_555 1_555
H31 C28 1_555 1_555
C29 C20 1_555 1_555
C30 C28 1_555 1_555
H32 C30 1_555 1_555
H33 C30 1_555 1_555
C31 C30 1_555 1_555
H34 C31 1_555 1_555
H35 C31 1_555 1_555
C32 C31 1_555 1_555
H36 C32 1_555 1_555
C33 C27 1_555 1_555
H37 C33 1_555 1_555
C34 O11 1_555 1_555
C35 O10 1_555 1_555
H38 C35 1_555 1_555
H39 C35 1_555 1_555
C36 C23 1_555 1_555
H40 C36 1_555 1_555
H41 C36 1_555 1_555
H42 C36 1_555 1_555
C37 C23 1_555 1_555
H43 C37 1_555 1_555
H44 C37 1_555 1_555
H45 C37 1_555 1_555
C38 C32 1_555 1_555
C39 O17 1_555 1_555
H46 C39 1_555 1_555
H47 C39 1_555 1_555
H48 C39 1_555 1_555
H49 O1 1_555 1_555
H50 O5 1_555 1_555
H51 O6 1_555 1_555
H52 O8 1_555 1_555
H53 O9 1_555 1_555
H54 O13 1_555 1_555
H55 O14 1_555 1_555
H56 O16 1_555 1_555
C5 C10 1_555 1_555
C8 C15 1_555 1_555
C9 C10 1_555 1_555
C10 C16 1_555 1_555
C13 C14 1_555 1_555
C24 C29 1_555 1_555
C27 C34 1_555 1_555
C28 C29 1_555 1_555
C29 C35 1_555 1_555
C32 C33 1_555 1_555

#END
