
#######################################################################
#
#                 Cambridge Crystallographic Data Centre
#                                CCDC 
#
#######################################################################
#
# If this CIF has been generated from an entry in the Cambridge 
# Structural Database, then it will include bibliographic, chemical, 
# crystal, experimental, refinement or atomic coordinate data resulting 
# from the CCDC's data processing and validation procedures.
#
#######################################################################

data_ISONEK
_chemical_formula_moiety         'C41 H65 N3 O6'
_chemical_name_systematic        
'Benzyl 2-(2-((2-(2-(((1-(((t-butoxycarbonyl)amino)methyl)-cyclohexyl)acetyl)amino)cyclohexyl)butanoyl)amino)cyclohexyl)butanoate'
_symmetry_cell_setting           orthorhombic
_symmetry_space_group_name_H-M   'P 21 21 21'
_symmetry_Int_Tables_number      19
_space_group_name_Hall           'P 2ac 2ab'
loop_
_symmetry_equiv_pos_site_id
_symmetry_equiv_pos_as_xyz
1 x,y,z
2 1/2-x,-y,1/2+z
3 -x,1/2+y,1/2-z
4 1/2+x,1/2-y,-z
_cell_length_a                   11.5444(5)
_cell_length_b                   15.5253(7)
_cell_length_c                   21.9472(10)
_cell_angle_alpha                90
_cell_angle_beta                 90
_cell_angle_gamma                90
_cell_volume                     3933.6
_exptl_crystal_colour            colorless
_exptl_crystal_description       block
_cell_formula_units_Z            4
loop_
_atom_site_label
_atom_site_type_symbol
_atom_site_fract_x
_atom_site_fract_y
_atom_site_fract_z
O1 O 0.01450(7) -0.09351(5) 0.05842(4)
O2 O 0.20260(7) -0.05128(5) 0.06850(4)
O3 O 0.44552(7) 0.06992(6) 0.22272(4)
O4 O 0.83341(6) 0.07130(5) 0.15178(4)
O5 O 0.86922(8) 0.28671(6) 0.11721(4)
O6 O 0.75440(7) 0.20359(5) 0.05872(4)
N1 N 0.05461(8) 0.01716(6) 0.11787(4)
H1 H -0.0177(12) 0.0174(10) 0.1239(7)
N2 N 0.40071(8) 0.02445(6) 0.12717(4)
H2 H 0.3432(14) 0.0043(11) 0.1057(7)
N3 N 0.67781(8) 0.11734(6) 0.20530(4)
H3 H 0.6064(12) 0.1058(10) 0.2152(7)
C1 C 0.11717(11) -0.23173(8) 0.06294(6)
H4 H 0.1944 -0.2064 0.0678
H5 H 0.1239 -0.2879 0.0429
H6 H 0.0812 -0.2390 0.1031
C2 C 0.09955(12) -0.15001(9) -0.03638(5)
H7 H 0.0513 -0.1082 -0.0582
H8 H 0.1077 -0.2023 -0.0610
H9 H 0.1762 -0.1251 -0.0289
C3 C -0.07711(10) -0.21158(8) 0.01400(6)
H10 H -0.1131 -0.2241 0.0535
H11 H -0.0696 -0.2650 -0.0094
H12 H -0.1256 -0.1707 -0.0086
C4 C 0.04265(10) -0.17244(7) 0.02416(5)
C5 C 0.09990(9) -0.04295(7) 0.08098(5)
C6 C 0.12147(9) 0.08684(7) 0.14527(5)
H13 H 0.0729 0.1394 0.1460
H14 H 0.1893 0.0989 0.1190
C7 C 0.16495(9) 0.06867(7) 0.21070(5)
C8 C 0.06299(9) 0.03417(8) 0.24943(5)
H15 H -0.0051 0.0718 0.2430
H16 H 0.0424 -0.0242 0.2348
C9 C 0.08891(10) 0.02956(9) 0.31788(6)
H17 H 0.0174 0.0134 0.3400
H18 H 0.1476 -0.0157 0.3254
C10 C 0.13357(12) 0.11536(10) 0.34235(6)
H19 H 0.0710 0.1588 0.3403
H20 H 0.1561 0.1085 0.3856
C11 C 0.23763(11) 0.14689(8) 0.30583(5)
H21 H 0.3027 0.1060 0.3107
H22 H 0.2628 0.2037 0.3215
C12 C 0.20635(10) 0.15468(7) 0.23820(5)
H23 H 0.2750 0.1751 0.2154
H24 H 0.1444 0.1983 0.2334
C13 C 0.26295(9) -0.00026(7) 0.20975(5)
H25 H 0.2736 -0.0231 0.2515
H26 H 0.2385 -0.0487 0.1834
C14 C 0.37855(9) 0.03407(7) 0.18680(5)
C15 C 0.49696(9) 0.06782(7) 0.09578(5)
H27 H 0.5215 0.1180 0.1213
C16 C 0.45539(10) 0.10250(7) 0.03418(5)
H28 H 0.5160 0.1404 0.0169
H29 H 0.3850 0.1378 0.0406
C17 C 0.42792(10) 0.03065(8) -0.01168(5)
H30 H 0.3586 -0.0015 0.0021
H31 H 0.4104 0.0564 -0.0519
C18 C 0.53013(10) -0.03114(8) -0.01773(5)
H32 H 0.5952 -0.0009 -0.0378
H33 H 0.5073 -0.0801 -0.0440
C19 C 0.57086(10) -0.06584(7) 0.04403(5)
H34 H 0.6387 -0.1040 0.0381
H35 H 0.5082 -0.1002 0.0629
C20 C 0.60391(9) 0.00899(7) 0.08631(5)
H36 H 0.6624 0.0442 0.0637
C21 C 0.66158(9) -0.01713(7) 0.14749(5)
H37 H 0.5999 -0.0299 0.1782
C22 C 0.74225(9) -0.09532(7) 0.14193(5)
H38 H 0.6972 -0.1452 0.1269
H39 H 0.8032 -0.0825 0.1115
C23 C 0.79953(11) -0.11942(8) 0.20233(6)
H40 H 0.8411 -0.0694 0.2186
H41 H 0.8542 -0.1668 0.1957
H42 H 0.7400 -0.1375 0.2315
C24 C 0.73271(9) 0.06098(7) 0.16914(5)
C25 C 0.73252(10) 0.19669(7) 0.22760(5)
H43 H 0.8140 0.1979 0.2122
C26 C 0.73693(11) 0.19717(8) 0.29732(5)
H44 H 0.7855 0.2460 0.3111
H45 H 0.7737 0.1432 0.3117
C27 C 0.61605(12) 0.20522(9) 0.32590(6)
H46 H 0.5693 0.1539 0.3153
H47 H 0.6232 0.2076 0.3708
C28 C 0.55497(13) 0.28605(9) 0.30316(6)
H48 H 0.5967 0.3376 0.3181
H49 H 0.4753 0.2877 0.3198
C29 C 0.54975(11) 0.28846(8) 0.23363(6)
H50 H 0.5151 0.3437 0.2204
H51 H 0.4992 0.2413 0.2190
C30 C 0.67102(10) 0.27886(7) 0.20466(5)
H52 H 0.7183 0.3290 0.2187
C31 C 0.66229(10) 0.28534(7) 0.13473(6)
H53 H 0.5999 0.2454 0.1207
C32 C 0.63244(12) 0.37718(9) 0.11255(6)
H54 H 0.5547 0.3931 0.1280
H55 H 0.6890 0.4182 0.1301
C33 C 0.63328(12) 0.38618(9) 0.04328(6)
H56 H 0.7114 0.3745 0.0278
H57 H 0.6104 0.4449 0.0321
H58 H 0.5786 0.3450 0.0255
C34 C 0.77481(11) 0.25923(8) 0.10415(5)
C35 C 0.85609(11) 0.17444(8) 0.02581(6)
H59 H 0.9016 0.1342 0.0514
H60 H 0.9059 0.2241 0.0151
C36 C 0.81556(12) 0.12971(8) -0.03105(6)
C37 C 0.74581(17) 0.17212(10) -0.07315(6)
H61 H 0.7215 0.2295 -0.0653
C38 C 0.71140(19) 0.13151(11) -0.12646(7)
H62 H 0.6624 0.1606 -0.1545
C39 C 0.74863(16) 0.04851(10) -0.13862(6)
H63 H 0.7277 0.0213 -0.1758
C40 C 0.81598(13) 0.00547(9) -0.09686(7)
H64 H 0.8403 -0.0519 -0.1050
C41 C 0.84862(12) 0.04544(9) -0.04286(6)
H65 H 0.8938 0.0149 -0.0139
loop_
_geom_bond_atom_site_label_1
_geom_bond_atom_site_label_2
_geom_bond_site_symmetry_1
_geom_bond_site_symmetry_2
O1 C4 1_555 1_555
O2 C5 1_555 1_555
O3 C14 1_555 1_555
O4 C24 1_555 1_555
O5 C34 1_555 1_555
O6 C34 1_555 1_555
N1 H1 1_555 1_555
N2 H2 1_555 1_555
N3 H3 1_555 1_555
C1 H4 1_555 1_555
H5 C1 1_555 1_555
H6 C1 1_555 1_555
C2 H7 1_555 1_555
H8 C2 1_555 1_555
H9 C2 1_555 1_555
C3 H10 1_555 1_555
H11 C3 1_555 1_555
H12 C3 1_555 1_555
C4 C1 1_555 1_555
C5 O1 1_555 1_555
C6 N1 1_555 1_555
H13 C6 1_555 1_555
H14 C6 1_555 1_555
C7 C6 1_555 1_555
C8 C7 1_555 1_555
H15 C8 1_555 1_555
H16 C8 1_555 1_555
C9 C8 1_555 1_555
H17 C9 1_555 1_555
H18 C9 1_555 1_555
C10 C9 1_555 1_555
H19 C10 1_555 1_555
H20 C10 1_555 1_555
C11 C10 1_555 1_555
H21 C11 1_555 1_555
H22 C11 1_555 1_555
C12 C7 1_555 1_555
H23 C12 1_555 1_555
H24 C12 1_555 1_555
C13 C7 1_555 1_555
H25 C13 1_555 1_555
H26 C13 1_555 1_555
C14 N2 1_555 1_555
C15 N2 1_555 1_555
H27 C15 1_555 1_555
C16 C15 1_555 1_555
H28 C16 1_555 1_555
H29 C16 1_555 1_555
C17 C16 1_555 1_555
H30 C17 1_555 1_555
H31 C17 1_555 1_555
C18 C17 1_555 1_555
H32 C18 1_555 1_555
H33 C18 1_555 1_555
C19 C18 1_555 1_555
H34 C19 1_555 1_555
H35 C19 1_555 1_555
C20 C15 1_555 1_555
H36 C20 1_555 1_555
C21 C20 1_555 1_555
H37 C21 1_555 1_555
C22 C21 1_555 1_555
H38 C22 1_555 1_555
H39 C22 1_555 1_555
C23 C22 1_555 1_555
H40 C23 1_555 1_555
H41 C23 1_555 1_555
H42 C23 1_555 1_555
C24 N3 1_555 1_555
C25 N3 1_555 1_555
H43 C25 1_555 1_555
C26 C25 1_555 1_555
H44 C26 1_555 1_555
H45 C26 1_555 1_555
C27 C26 1_555 1_555
H46 C27 1_555 1_555
H47 C27 1_555 1_555
C28 C27 1_555 1_555
H48 C28 1_555 1_555
H49 C28 1_555 1_555
C29 C28 1_555 1_555
H50 C29 1_555 1_555
H51 C29 1_555 1_555
C30 C25 1_555 1_555
H52 C30 1_555 1_555
C31 C30 1_555 1_555
H53 C31 1_555 1_555
C32 C31 1_555 1_555
H54 C32 1_555 1_555
H55 C32 1_555 1_555
C33 C32 1_555 1_555
H56 C33 1_555 1_555
H57 C33 1_555 1_555
H58 C33 1_555 1_555
C34 C31 1_555 1_555
C35 O6 1_555 1_555
H59 C35 1_555 1_555
H60 C35 1_555 1_555
C36 C35 1_555 1_555
C37 C36 1_555 1_555
H61 C37 1_555 1_555
C38 C37 1_555 1_555
H62 C38 1_555 1_555
C39 C38 1_555 1_555
H63 C39 1_555 1_555
C40 C39 1_555 1_555
H64 C40 1_555 1_555
C41 C36 1_555 1_555
H65 C41 1_555 1_555
N1 C5 1_555 1_555
C2 C4 1_555 1_555
C3 C4 1_555 1_555
C11 C12 1_555 1_555
C13 C14 1_555 1_555
C19 C20 1_555 1_555
C21 C24 1_555 1_555
C29 C30 1_555 1_555
C40 C41 1_555 1_555

#END
