
#######################################################################
#
#                 Cambridge Crystallographic Data Centre
#                                CCDC 
#
#######################################################################
#
# If this CIF has been generated from an entry in the Cambridge 
# Structural Database, then it will include bibliographic, chemical, 
# crystal, experimental, refinement or atomic coordinate data resulting 
# from the CCDC's data processing and validation procedures.
#
#######################################################################

data_ISOPIQ
_chemical_formula_moiety         'C30 H23 Cl1 N2 O6'
_chemical_name_systematic        
'Dibenzyl 1-(5-chloro-2-oxo-3-phenyl-2,3-dihydro-1-benzofuran-3-yl)hydrazine-1,2-dicarboxylate'
_symmetry_cell_setting           orthorhombic
_symmetry_space_group_name_H-M   'P 21 21 21'
_symmetry_Int_Tables_number      19
_space_group_name_Hall           'P 2ac 2ab'
loop_
_symmetry_equiv_pos_site_id
_symmetry_equiv_pos_as_xyz
1 x,y,z
2 1/2-x,-y,1/2+z
3 -x,1/2+y,1/2-z
4 1/2+x,1/2-y,-z
_cell_length_a                   10.118(5)
_cell_length_b                   11.818(5)
_cell_length_c                   22.419(10)
_cell_angle_alpha                90
_cell_angle_beta                 90
_cell_angle_gamma                90
_cell_volume                     2680.74
_exptl_crystal_colour            colorless
_cell_formula_units_Z            4
loop_
_atom_site_label
_atom_site_type_symbol
_atom_site_fract_x
_atom_site_fract_y
_atom_site_fract_z
C1 C 1.1044(2) -0.04351(17) 0.83439(9)
C2 C 1.1970(3) -0.1045(2) 0.80406(11)
H1 H 1.1765 -0.1425 0.7689
C3 C 1.3231(2) -0.1071(2) 0.82823(12)
H2 H 1.3896 -0.1475 0.8091
C4 C 1.3506(2) -0.04985(19) 0.88057(11)
C5 C 1.25508(19) 0.01122(17) 0.91105(9)
H3 H 1.2751 0.0501 0.9460
C6 C 1.12919(18) 0.01193(15) 0.88750(8)
C7 C 1.00028(16) 0.06125(15) 0.90946(7)
C8 C 0.91280(18) 0.04336(17) 0.85349(8)
C9 C 0.93902(19) -0.00590(16) 0.96124(8)
C10 C 0.8060(2) 0.0069(2) 0.97471(10)
H4 H 0.7538 0.0554 0.9521
C11 C 0.7512(2) -0.0521(3) 1.02140(12)
H5 H 0.6620 -0.0427 1.0301
C12 C 0.8252(3) -0.1241(3) 1.05531(12)
H6 H 0.7869 -0.1641 1.0865
C13 C 0.9555(3) -0.1362(3) 1.04268(13)
H7 H 1.0071 -0.1838 1.0661
C14 C 1.0127(2) -0.0788(2) 0.99554(10)
H8 H 1.1018 -0.0896 0.9870
C15 C 1.03346(19) 0.25655(16) 0.87842(8)
C16 C 1.0550(3) 0.44824(19) 0.85121(10)
H9 H 1.0403 0.4170 0.8118
H10 H 1.1469 0.4713 0.8540
C17 C 0.9669(2) 0.54853(16) 0.86073(8)
C18 C 0.9504(3) 0.62317(18) 0.81367(10)
H11 H 0.9919 0.6090 0.7774
C19 C 0.8731(3) 0.7182(2) 0.82024(13)
H12 H 0.8610 0.7671 0.7882
C20 C 0.8142(3) 0.7408(2) 0.87341(14)
H13 H 0.7633 0.8057 0.8779
C21 C 0.8300(2) 0.6679(2) 0.92052(12)
H14 H 0.7891 0.6836 0.9568
C22 C 0.9067(2) 0.57064(19) 0.91455(10)
H15 H 0.9171 0.5213 0.9465
C23 C 1.0519(2) 0.22465(16) 1.02426(8)
C24 C 1.0562(3) 0.2563(3) 1.12968(9)
H16 H 1.0358 0.3242 1.1522
H17 H 1.1507 0.2547 1.1225
C25 C 1.0163(2) 0.1543(2) 1.16465(8)
C26 C 0.9059(2) 0.1563(2) 1.19972(10)
H18 H 0.8565 0.2225 1.2019
C27 C 0.8658(3) 0.0633(3) 1.23189(12)
H19 H 0.7906 0.0673 1.2556
C28 C 0.9354(4) -0.0336(3) 1.22894(13)
H20 H 0.9081 -0.0969 1.2503
C29 C 1.0445(5) -0.0382(3) 1.19507(16)
H21 H 1.0924 -0.1052 1.1929
C30 C 1.0874(3) 0.0564(3) 1.16287(12)
H22 H 1.1643 0.0525 1.1403
N1 N 1.00442(16) 0.18337(12) 0.92366(6)
N2 N 0.96536(16) 0.22322(13) 0.97853(6)
H23 H 0.8809 0.2407 0.9846
O1 O 0.97501(14) -0.02842(12) 0.81465(6)
O2 O 0.80518(15) 0.07909(15) 0.84317(7)
O3 O 1.06020(16) 0.22386(12) 0.82885(6)
O4 O 1.02672(18) 0.36367(11) 0.89595(6)
O5 O 1.16773(16) 0.20152(15) 1.02099(7)
O6 O 0.98559(19) 0.25791(14) 1.07293(5)
Cl1 Cl 1.50977(5) -0.05509(6) 0.90928(4)
loop_
_geom_bond_atom_site_label_1
_geom_bond_atom_site_label_2
_geom_bond_site_symmetry_1
_geom_bond_site_symmetry_2
C1 C2 1_555 1_555
C2 H1 1_555 1_555
C3 C2 1_555 1_555
H2 C3 1_555 1_555
C4 C3 1_555 1_555
C5 C4 1_555 1_555
H3 C5 1_555 1_555
C6 C1 1_555 1_555
C7 C6 1_555 1_555
C8 C7 1_555 1_555
C9 C7 1_555 1_555
C10 C9 1_555 1_555
H4 C10 1_555 1_555
C11 C10 1_555 1_555
H5 C11 1_555 1_555
C12 C11 1_555 1_555
H6 C12 1_555 1_555
C13 C12 1_555 1_555
H7 C13 1_555 1_555
C14 C9 1_555 1_555
H8 C14 1_555 1_555
C15 N1 1_555 1_555
C16 H9 1_555 1_555
H10 C16 1_555 1_555
C17 C16 1_555 1_555
C18 C17 1_555 1_555
H11 C18 1_555 1_555
C19 C18 1_555 1_555
H12 C19 1_555 1_555
C20 C19 1_555 1_555
H13 C20 1_555 1_555
C21 C20 1_555 1_555
H14 C21 1_555 1_555
C22 C17 1_555 1_555
H15 C22 1_555 1_555
C23 N2 1_555 1_555
C24 H16 1_555 1_555
H17 C24 1_555 1_555
C25 C24 1_555 1_555
C26 C25 1_555 1_555
H18 C26 1_555 1_555
C27 C26 1_555 1_555
H19 C27 1_555 1_555
C28 C27 1_555 1_555
H20 C28 1_555 1_555
C29 C28 1_555 1_555
H21 C29 1_555 1_555
C30 C25 1_555 1_555
H22 C30 1_555 1_555
N1 C7 1_555 1_555
N2 N1 1_555 1_555
H23 N2 1_555 1_555
O1 C1 1_555 1_555
O2 C8 1_555 1_555
O3 C15 1_555 1_555
O4 C15 1_555 1_555
O5 C23 1_555 1_555
O6 C23 1_555 1_555
Cl1 C4 1_555 1_555
C5 C6 1_555 1_555
C8 O1 1_555 1_555
C13 C14 1_555 1_555
C16 O4 1_555 1_555
C21 C22 1_555 1_555
C24 O6 1_555 1_555
C29 C30 1_555 1_555

#END
