
#######################################################################
#
#                 Cambridge Crystallographic Data Centre
#                                CCDC 
#
#######################################################################
#
# If this CIF has been generated from an entry in the Cambridge 
# Structural Database, then it will include bibliographic, chemical, 
# crystal, experimental, refinement or atomic coordinate data resulting 
# from the CCDC's data processing and validation procedures.
#
#######################################################################

data_ISORIS
_chemical_formula_moiety         'C19 H22 O4'
_chemical_name_systematic        
'Methyl 5-methoxy-6-methyl-6,6a,6b,8,9,10a-hexahydro-5H-benzo[4,5]indeno[1,2-b]furan-10-carboxylate'
_symmetry_cell_setting           monoclinic
_symmetry_space_group_name_H-M   'P 21'
_symmetry_Int_Tables_number      4
_space_group_name_Hall           'P 2yb'
loop_
_symmetry_equiv_pos_site_id
_symmetry_equiv_pos_as_xyz
1 x,y,z
2 -x,1/2+y,-z
_cell_length_a                   8.9980(5)
_cell_length_b                   18.4825(12)
_cell_length_c                   9.5828(6)
_cell_angle_alpha                90
_cell_angle_beta                 93.273(2)
_cell_angle_gamma                90
_cell_volume                     1591.07
_exptl_crystal_colour            colorless
_exptl_crystal_description       block
_cell_formula_units_Z            4
_exptl_crystal_recrystallization_method dichloromethane/hexane
loop_
_atom_site_label
_atom_site_type_symbol
_atom_site_fract_x
_atom_site_fract_y
_atom_site_fract_z
O1 O 0.72662(14) 0.34065(7) -0.38518(14)
O2 O 0.76082(14) 0.63095(7) -0.45187(13)
O3 O 0.83087(16) 0.42283(9) 0.17257(15)
O4 O 0.65107(15) 0.34216(7) 0.11464(13)
C1 C 0.70386(19) 0.40543(9) -0.30634(18)
H1 H 0.618(2) 0.4317(10) -0.351(2)
C2 C 0.84232(19) 0.45255(10) -0.27590(18)
H2 H 0.935(2) 0.4169(12) -0.278(2)
C3 C 0.8637(2) 0.51601(10) -0.37420(19)
H3 H 0.956(2) 0.5421(11) -0.337(2)
C4 C 0.7350(2) 0.56901(9) -0.36714(18)
H4 H 0.643(2) 0.5486(10) -0.405(2)
C5 C 0.71241(18) 0.59309(9) -0.21906(18)
C6 C 0.6465(2) 0.65988(10) -0.1969(2)
H5 H 0.613(2) 0.6884(11) -0.274(2)
C7 C 0.6236(2) 0.68489(10) -0.0636(2)
H6 H 0.579(2) 0.7335(12) -0.049(2)
C8 C 0.6698(2) 0.64264(10) 0.0497(2)
H7 H 0.663(2) 0.6604(12) 0.143(2)
C9 C 0.7353(2) 0.57655(10) 0.03020(19)
H8 H 0.768(2) 0.5468(12) 0.109(2)
C10 C 0.75712(18) 0.54982(9) -0.10427(18)
C11 C 0.82834(19) 0.47583(9) -0.12089(18)
H9 H 0.9288(19) 0.4773(9) -0.0664(19)
C12 C 0.73908(18) 0.41377(10) -0.06306(18)
C13 C 0.66899(18) 0.37630(9) -0.16583(19)
C14 C 0.5903(2) 0.30573(10) -0.1868(2)
H10 H 0.484(2) 0.3109(11) -0.168(2)
H11 H 0.646(2) 0.2685(12) -0.130(2)
C15 C 0.6108(2) 0.29168(10) -0.3433(2)
H12 H 0.515(2) 0.3048(11) -0.398(2)
H13 H 0.645(2) 0.2430(11) -0.360(2)
C16 C 0.8859(3) 0.49053(12) -0.5229(2)
H14 H 0.968(3) 0.4572(14) -0.522(3)
H15 H 0.798(3) 0.4633(15) -0.556(3)
H16 H 0.911(2) 0.5294(13) -0.580(2)
C17 C 0.6504(3) 0.64260(13) -0.5594(2)
H17 H 0.6541 0.6037 -0.6286
H18 H 0.6679 0.6892 -0.6045
H19 H 0.5523 0.6430 -0.5200
C18 C 0.7467(2) 0.39493(10) 0.08588(19)
C19 C 0.6499(3) 0.32120(12) 0.2597(2)
H20 H 0.7521 0.3121 0.2964
H21 H 0.5905 0.2771 0.2678
H22 H 0.6064 0.3602 0.3134
O5 O 0.19413(15) 0.63972(7) 0.19639(14)
O6 O 0.25955(14) 0.34764(7) 0.18160(14)
O7 O 0.33166(15) 0.60723(8) -0.36228(15)
O8 O 0.11915(14) 0.66426(7) -0.31574(14)
C20 C 0.18277(19) 0.58159(9) 0.09678(18)
H23 H 0.096(2) 0.5515(11) 0.127(2)
C21 C 0.32695(19) 0.54004(10) 0.07739(18)
H24 H 0.4068(19) 0.5719(10) 0.1025(19)
C22 C 0.3482(2) 0.47013(10) 0.1598(2)
H25 H 0.446(2) 0.4521(10) 0.134(2)
C23 C 0.2302(2) 0.41472(10) 0.11056(19)
H26 H 0.1297(19) 0.4320(9) 0.1349(18)
C24 C 0.22992(18) 0.40277(10) -0.04638(19)
C25 C 0.1812(2) 0.33657(10) -0.1022(2)
H27 H 0.146(2) 0.3019(11) -0.040(2)
C26 C 0.1796(2) 0.32339(11) -0.2445(2)
H28 H 0.142(2) 0.2793(11) -0.283(2)
C27 C 0.2302(2) 0.37566(11) -0.3328(2)
H29 H 0.2324(18) 0.3660(9) -0.4290(19)
C28 C 0.2795(2) 0.44129(10) -0.2795(2)
H30 H 0.308(2) 0.4760(11) -0.339(2)
C29 C 0.27734(18) 0.45648(10) -0.13669(19)
C30 C 0.3299(2) 0.53036(10) -0.08461(19)
H31 H 0.433(3) 0.5377(13) -0.111(2)
C31 C 0.23083(19) 0.59280(10) -0.13940(19)
C32 C 0.15240(19) 0.61990(9) -0.03902(19)
C33 C 0.0662(2) 0.68695(10) -0.0104(2)
H32 H -0.034(2) 0.6839(12) -0.052(2)
H33 H 0.114(2) 0.7294(11) -0.054(2)
C34 C 0.0759(2) 0.68834(11) 0.1508(2)
H34 H -0.017(2) 0.6715(13) 0.183(2)
H35 H 0.098(2) 0.7353(12) 0.189(2)
C35 C 0.3456(3) 0.48359(12) 0.3170(2)
H36 H 0.427(3) 0.5161(16) 0.346(3)
H37 H 0.374(2) 0.4384(12) 0.371(2)
H38 H 0.237(2) 0.5028(12) 0.343(2)
C36 C 0.1412(3) 0.32310(12) 0.2597(2)
H39 H 0.052(2) 0.3149(12) 0.201(2)
H40 H 0.111(2) 0.3617(13) 0.329(2)
H41 H 0.170(3) 0.2804(14) 0.309(3)
C37 C 0.2367(2) 0.62116(10) -0.2829(2)
C38 C 0.1059(3) 0.69036(13) -0.4582(2)
H42 H -0.002(4) 0.6987(18) -0.480(4)
H43 H 0.130(3) 0.6493(16) -0.527(3)
H44 H 0.167(3) 0.7327(14) -0.467(3)
loop_
_geom_bond_atom_site_label_1
_geom_bond_atom_site_label_2
_geom_bond_site_symmetry_1
_geom_bond_site_symmetry_2
O1 C1 1_555 1_555
O2 C4 1_555 1_555
O3 C18 1_555 1_555
O4 C18 1_555 1_555
C1 H1 1_555 1_555
C2 C1 1_555 1_555
H2 C2 1_555 1_555
C3 C2 1_555 1_555
H3 C3 1_555 1_555
C4 C3 1_555 1_555
H4 C4 1_555 1_555
C5 C4 1_555 1_555
C6 C5 1_555 1_555
H5 C6 1_555 1_555
C7 C6 1_555 1_555
H6 C7 1_555 1_555
C8 C7 1_555 1_555
H7 C8 1_555 1_555
C9 C8 1_555 1_555
H8 C9 1_555 1_555
C10 C5 1_555 1_555
C11 C2 1_555 1_555
H9 C11 1_555 1_555
C12 C11 1_555 1_555
C13 C1 1_555 1_555
C14 C13 1_555 1_555
H10 C14 1_555 1_555
H11 C14 1_555 1_555
C15 O1 1_555 1_555
H12 C15 1_555 1_555
H13 C15 1_555 1_555
C16 C3 1_555 1_555
H14 C16 1_555 1_555
H15 C16 1_555 1_555
H16 C16 1_555 1_555
C17 O2 1_555 1_555
H17 C17 1_555 1_555
H18 C17 1_555 1_555
H19 C17 1_555 1_555
C18 C12 1_555 1_555
C19 O4 1_555 1_555
H20 C19 1_555 1_555
H21 C19 1_555 1_555
H22 C19 1_555 1_555
O5 C20 1_555 1_555
O6 C23 1_555 1_555
O7 C37 1_555 1_555
O8 C37 1_555 1_555
C20 H23 1_555 1_555
C21 C20 1_555 1_555
H24 C21 1_555 1_555
C22 C21 1_555 1_555
H25 C22 1_555 1_555
C23 C22 1_555 1_555
H26 C23 1_555 1_555
C24 C23 1_555 1_555
C25 C24 1_555 1_555
H27 C25 1_555 1_555
C26 C25 1_555 1_555
H28 C26 1_555 1_555
C27 C26 1_555 1_555
H29 C27 1_555 1_555
C28 C27 1_555 1_555
H30 C28 1_555 1_555
C29 C24 1_555 1_555
C30 C21 1_555 1_555
H31 C30 1_555 1_555
C31 C30 1_555 1_555
C32 C20 1_555 1_555
C33 C32 1_555 1_555
H32 C33 1_555 1_555
H33 C33 1_555 1_555
C34 O5 1_555 1_555
H34 C34 1_555 1_555
H35 C34 1_555 1_555
C35 C22 1_555 1_555
H36 C35 1_555 1_555
H37 C35 1_555 1_555
H38 C35 1_555 1_555
C36 O6 1_555 1_555
H39 C36 1_555 1_555
H40 C36 1_555 1_555
H41 C36 1_555 1_555
C37 C31 1_555 1_555
C38 O8 1_555 1_555
H42 C38 1_555 1_555
H43 C38 1_555 1_555
H44 C38 1_555 1_555
C9 C10 1_555 1_555
C10 C11 1_555 1_555
C12 C13 1_555 1_555
C14 C15 1_555 1_555
C28 C29 1_555 1_555
C29 C30 1_555 1_555
C31 C32 1_555 1_555
C33 C34 1_555 1_555

#END
