
#######################################################################
#
#                 Cambridge Crystallographic Data Centre
#                                CCDC 
#
#######################################################################
#
# If this CIF has been generated from an entry in the Cambridge 
# Structural Database, then it will include bibliographic, chemical, 
# crystal, experimental, refinement or atomic coordinate data resulting 
# from the CCDC's data processing and validation procedures.
#
#######################################################################

data_ISORUE
_chemical_formula_moiety         'C22 H20 Br1 O4 1-,C7 H11 N2 1+'
_chemical_name_systematic        
'4-(dimethylamino)pyridinium 1-(4-(2-bromophenyl)-4-methoxy-3-methylbut-1-en-1-yl)-1a,6b-dihydro-1H-cyclopropa[b][1]benzofuran-1-carboxylate'
_symmetry_cell_setting           monoclinic
_symmetry_space_group_name_H-M   'P 21'
_symmetry_Int_Tables_number      4
_space_group_name_Hall           'P 2yb'
loop_
_symmetry_equiv_pos_site_id
_symmetry_equiv_pos_as_xyz
1 x,y,z
2 -x,1/2+y,-z
_cell_length_a                   7.5479(3)
_cell_length_b                   7.5961(3)
_cell_length_c                   23.3742(10)
_cell_angle_alpha                90
_cell_angle_beta                 97.386(2)
_cell_angle_gamma                90
_cell_volume                     1329.03
_exptl_crystal_colour            colorless
_exptl_crystal_description       plate
_cell_formula_units_Z            2
_exptl_crystal_recrystallization_method dichloromethane/hexane
loop_
_atom_site_label
_atom_site_type_symbol
_atom_site_fract_x
_atom_site_fract_y
_atom_site_fract_z
Br1 Br 1.20631(5) 0.25436(5) 0.101801(18)
O1 O 1.4031(3) 0.4815(3) 0.31388(10)
O2 O 0.7411(3) 0.5785(3) 0.15033(9)
O3 O 1.0616(3) 0.4175(3) 0.44017(9)
O4 O 0.8888(3) 0.2369(4) 0.38192(9)
C1 C 0.8458(5) 0.3018(4) 0.19035(13)
H1 H 0.9314 0.2046 0.1849
C2 C 0.6580(5) 0.2207(5) 0.18498(14)
H2 H 0.6570 0.1236 0.2126
H3 H 0.6255 0.1760 0.1457
H4 H 0.5718 0.3107 0.1932
C3 C 1.3368(5) 0.8070(4) 0.19834(14)
H6 H 1.3837 0.8449 0.1646
C4 C 1.4151(5) 0.6646(5) 0.22842(15)
H7 H 1.5140 0.6038 0.2165
C5 C 1.3397(4) 0.6159(4) 0.27729(14)
C6 C 1.2913(4) 0.4749(4) 0.35887(14)
H8 H 1.3475 0.4524 0.3993
C7 C 1.0984(4) 0.4178(4) 0.34114(13)
C8 C 1.0468(4) 0.3413(4) 0.28307(13)
H9 H 1.1262 0.2591 0.2693
C9 C 0.9003(5) 0.3788(5) 0.24961(14)
H10 H 0.8213 0.4611 0.2635
C10 C 0.8653(4) 0.4419(4) 0.14392(13)
H11 H 0.9887 0.4920 0.1509
C11 C 0.8363(5) 0.3643(4) 0.08324(13)
C12 C 0.6723(5) 0.3795(5) 0.04969(14)
H12 H 0.5782 0.4420 0.0640
C13 C 0.6447(7) 0.3035(6) -0.00500(17)
H13 H 0.5321 0.3148 -0.0281
C14 C 1.1941(4) 0.7033(4) 0.29511(13)
C15 C 1.1503(4) 0.6144(4) 0.34827(13)
H14 H 1.1143 0.6848 0.3810
C16 C 0.9708(5) 0.2720(5) 0.06012(14)
C17 C 0.9430(8) 0.1937(6) 0.00670(18)
H15 H 1.0356 0.1281 -0.0073
C18 C 0.7844(5) 0.7396(5) 0.12486(15)
H16 H 0.9068 0.7734 0.1399
H17 H 0.7015 0.8314 0.1342
H18 H 0.7747 0.7253 0.0829
C19 C 1.0069(4) 0.3509(4) 0.39069(13)
C20 C 1.1201(5) 0.8460(4) 0.26478(14)
H19 H 1.0225 0.9082 0.2770
C21 C 1.1934(5) 0.8966(5) 0.21534(14)
H20 H 1.1439 0.9937 0.1932
C29 C 0.7816(9) 0.2113(6) -0.02574(18)
H31 H 0.7622 0.1600 -0.0631
N1 N 0.8130(4) 0.3789(3) 0.50475(11)
H5 H 0.8965 0.3744 0.4818
C22 C 0.4381(5) 0.5188(5) 0.66320(15)
H21 H 0.5330 0.4746 0.6922
H22 H 0.3249 0.5212 0.6796
H23 H 0.4680 0.6380 0.6516
N2 N 0.4204(4) 0.4027(4) 0.61265(12)
C23 C 0.5484(4) 0.3935(4) 0.57767(13)
C24 C 0.5348(4) 0.2798(5) 0.52880(13)
H24 H 0.4330 0.2065 0.5200
C25 C 0.6684(4) 0.2767(5) 0.49478(13)
H25 H 0.6583 0.1987 0.4627
C26 C 0.7032(5) 0.5000(4) 0.58681(13)
H26 H 0.7190 0.5795 0.6184
C27 C 0.8298(5) 0.4888(4) 0.55024(13)
H27 H 0.9332 0.5608 0.5571
C28 C 0.2652(5) 0.2882(7) 0.60371(18)
H28 H 0.2046 0.3038 0.5644
H29 H 0.1830 0.3181 0.6315
H30 H 0.3034 0.1654 0.6093
loop_
_geom_bond_atom_site_label_1
_geom_bond_atom_site_label_2
_geom_bond_site_symmetry_1
_geom_bond_site_symmetry_2
Br1 C16 1_555 1_555
O1 C5 1_555 1_555
O2 C10 1_555 1_555
O3 C19 1_555 1_555
O4 C19 1_555 1_555
C1 H1 1_555 1_555
C2 C1 1_555 1_555
H2 C2 1_555 1_555
H3 C2 1_555 1_555
H4 C2 1_555 1_555
N1 H5 1_555 1_555
C3 H6 1_555 1_555
C4 C3 1_555 1_555
H7 C4 1_555 1_555
C5 C4 1_555 1_555
C6 O1 1_555 1_555
H8 C6 1_555 1_555
C7 C6 1_555 1_555
C8 C7 1_555 1_555
H9 C8 1_555 1_555
C9 C1 1_555 1_555
H10 C9 1_555 1_555
C10 C1 1_555 1_555
H11 C10 1_555 1_555
C11 C10 1_555 1_555
C12 C11 1_555 1_555
H12 C12 1_555 1_555
C13 C12 1_555 1_555
H13 C13 1_555 1_555
C14 C5 1_555 1_555
C15 C6 1_555 1_555
H14 C15 1_555 1_555
C16 C11 1_555 1_555
C17 C16 1_555 1_555
H15 C17 1_555 1_555
C18 O2 1_555 1_555
H16 C18 1_555 1_555
H17 C18 1_555 1_555
H18 C18 1_555 1_555
C19 C7 1_555 1_555
C20 C14 1_555 1_555
H19 C20 1_555 1_555
C21 C3 1_555 1_555
H20 C21 1_555 1_555
C22 H21 1_555 1_555
H22 C22 1_555 1_555
H23 C22 1_555 1_555
N2 C22 1_555 1_555
C23 N2 1_555 1_555
C24 C23 1_555 1_555
H24 C24 1_555 1_555
C25 N1 1_555 1_555
H25 C25 1_555 1_555
C26 C23 1_555 1_555
H26 C26 1_555 1_555
C27 N1 1_555 1_555
H27 C27 1_555 1_555
C28 N2 1_555 1_555
H28 C28 1_555 1_555
H29 C28 1_555 1_555
H30 C28 1_555 1_555
C29 C13 1_555 1_555
H31 C29 1_555 1_555
C7 C15 1_555 1_555
C8 C9 1_555 1_555
C14 C15 1_555 1_555
C17 C29 1_555 1_555
C20 C21 1_555 1_555
C24 C25 1_555 1_555
C26 C27 1_555 1_555

#END
