
#######################################################################
#
#                 Cambridge Crystallographic Data Centre
#                                CCDC 
#
#######################################################################
#
# If this CIF has been generated from an entry in the Cambridge 
# Structural Database, then it will include bibliographic, chemical, 
# crystal, experimental, refinement or atomic coordinate data resulting 
# from the CCDC's data processing and validation procedures.
#
#######################################################################

data_ISOSEP
_chemical_formula_moiety         'C23 H22 O4'
_chemical_name_systematic        
'Methyl 12-methoxy-11-methyl-5,10c,11,12-tetrahydro-4bH-benzo[b]benzo[4,5]indeno[1,2-d]furan-5-carboxylate'
_symmetry_cell_setting           monoclinic
_symmetry_space_group_name_H-M   'C 2'
_symmetry_Int_Tables_number      5
_space_group_name_Hall           'C 2y'
loop_
_symmetry_equiv_pos_site_id
_symmetry_equiv_pos_as_xyz
1 x,y,z
2 -x,y,-z
3 1/2+x,1/2+y,z
4 1/2-x,1/2+y,-z
_cell_length_a                   22.8137(10)
_cell_length_b                   4.6536(2)
_cell_length_c                   17.8722(8)
_cell_angle_alpha                90
_cell_angle_beta                 107.277(2)
_cell_angle_gamma                90
_cell_volume                     1811.81
_exptl_crystal_colour            colorless
_exptl_crystal_description       plate
_cell_formula_units_Z            4
_exptl_crystal_recrystallization_method dichloromethane/hexane
loop_
_atom_site_label
_atom_site_type_symbol
_atom_site_fract_x
_atom_site_fract_y
_atom_site_fract_z
O1 O 0.27878(6) 1.0105(3) 0.19533(8)
O2 O 0.08111(7) 0.5465(4) 0.38802(8)
O3 O 0.18997(8) 0.6904(4) 0.03814(9)
O4 O 0.12440(9) 1.0498(5) 0.03133(10)
C1 C -0.03250(10) 0.3416(5) 0.16765(13)
H1 H -0.0654 0.2109 0.1630
C2 C -0.00061(9) 0.4500(5) 0.23992(13)
H2 H -0.0120 0.3928 0.2847
C3 C 0.04813(9) 0.6420(5) 0.24926(12)
C4 C 0.08236(10) 0.7568(5) 0.32973(12)
H3 H 0.0614 0.9351 0.3397
C5 C 0.14927(9) 0.8285(5) 0.33683(11)
H4 H 0.1702 0.6489 0.3277
C6 C 0.14977(9) 1.0457(5) 0.27229(11)
H5 H 0.1299 1.2289 0.2811
C7 C 0.21325(9) 1.1077(4) 0.26654(11)
C8 C 0.27006(9) 1.2599(5) 0.30319(12)
C9 C 0.30770(9) 1.1944(5) 0.25594(12)
C10 C 0.36615(10) 1.3052(5) 0.26852(13)
H6 H 0.3908 1.2548 0.2360
C11 C 0.38690(10) 1.4934(6) 0.33099(14)
H7 H 0.4263 1.5785 0.3409
C12 C 0.06479(9) 0.7235(5) 0.18278(12)
C13 C 0.03176(10) 0.6163(5) 0.11002(13)
H8 H 0.0424 0.6759 0.0649
C14 C -0.01644(10) 0.4240(5) 0.10139(13)
H9 H -0.0380 0.3501 0.0512
C15 C 0.11720(9) 0.9298(4) 0.18820(12)
H10 H 0.0991 1.1003 0.1554
C16 C 0.16858(9) 0.8078(5) 0.15463(12)
H11 H 0.1744 0.5973 0.1656
C17 C 0.22182(9) 0.9720(5) 0.20459(11)
C18 C 0.04766(11) 0.6277(6) 0.43971(14)
H12 H 0.0655 0.8031 0.4677
H13 H 0.0496 0.4730 0.4776
H14 H 0.0048 0.6632 0.4098
C19 C 0.18306(10) 0.9427(5) 0.41815(12)
H15 H 0.1639 1.1225 0.4274
H16 H 0.2261 0.9783 0.4217
H17 H 0.1808 0.8008 0.4577
C20 C 0.29241(10) 1.4454(5) 0.36646(13)
H18 H 0.2683 1.4923 0.3999
C21 C 0.35073(10) 1.5600(5) 0.37959(14)
H19 H 0.3665 1.6866 0.4226
C22 C 0.15714(10) 0.8666(5) 0.06795(12)
C23 C 0.18229(13) 0.7224(8) -0.04487(14)
H20 H 0.1385 0.7121 -0.0740
H21 H 0.2044 0.5681 -0.0623
H22 H 0.1988 0.9088 -0.0544
loop_
_geom_bond_atom_site_label_1
_geom_bond_atom_site_label_2
_geom_bond_site_symmetry_1
_geom_bond_site_symmetry_2
O1 C9 1_555 1_555
O2 C4 1_555 1_555
O3 C22 1_555 1_555
O4 C22 1_555 1_555
C1 H1 1_555 1_555
C2 C1 1_555 1_555
H2 C2 1_555 1_555
C3 C2 1_555 1_555
C4 C3 1_555 1_555
H3 C4 1_555 1_555
C5 C4 1_555 1_555
H4 C5 1_555 1_555
C6 C5 1_555 1_555
H5 C6 1_555 1_555
C7 C6 1_555 1_555
C8 C7 1_555 1_555
C9 C8 1_555 1_555
C10 C9 1_555 1_555
H6 C10 1_555 1_555
C11 C10 1_555 1_555
H7 C11 1_555 1_555
C12 C3 1_555 1_555
C13 C12 1_555 1_555
H8 C13 1_555 1_555
C14 C1 1_555 1_555
H9 C14 1_555 1_555
C15 C6 1_555 1_555
H10 C15 1_555 1_555
C16 C15 1_555 1_555
H11 C16 1_555 1_555
C17 O1 1_555 1_555
C18 O2 1_555 1_555
H12 C18 1_555 1_555
H13 C18 1_555 1_555
H14 C18 1_555 1_555
C19 C5 1_555 1_555
H15 C19 1_555 1_555
H16 C19 1_555 1_555
H17 C19 1_555 1_555
C20 C8 1_555 1_555
H18 C20 1_555 1_555
C21 C11 1_555 1_555
H19 C21 1_555 1_555
C22 C16 1_555 1_555
C23 O3 1_555 1_555
H20 C23 1_555 1_555
H21 C23 1_555 1_555
H22 C23 1_555 1_555
C7 C17 1_555 1_555
C12 C15 1_555 1_555
C13 C14 1_555 1_555
C16 C17 1_555 1_555
C20 C21 1_555 1_555

#END
