
#######################################################################
#
#                 Cambridge Crystallographic Data Centre
#                                CCDC 
#
#######################################################################
#
# If this CIF has been generated from an entry in the Cambridge 
# Structural Database, then it will include bibliographic, chemical, 
# crystal, experimental, refinement or atomic coordinate data resulting 
# from the CCDC's data processing and validation procedures.
#
#######################################################################

data_ISOTUG
_chemical_formula_moiety         'C40 H36 Br1 N1 O7'
_chemical_name_systematic        
'4,4-Diethyl 2-methyl 1-benzoyl-5-(4-bromophenyl)-3-(diphenylethenylidene)-2-methylpyrrolidine-2,4,4-tricarboxylate'
_symmetry_cell_setting           orthorhombic
_symmetry_space_group_name_H-M   'P 21 21 21'
_symmetry_Int_Tables_number      19
_space_group_name_Hall           'P 2ac 2ab'
loop_
_symmetry_equiv_pos_site_id
_symmetry_equiv_pos_as_xyz
1 x,y,z
2 1/2-x,-y,1/2+z
3 -x,1/2+y,1/2-z
4 1/2+x,1/2-y,-z
_cell_length_a                   13.323(2)
_cell_length_b                   15.987(3)
_cell_length_c                   17.448(3)
_cell_angle_alpha                90
_cell_angle_beta                 90
_cell_angle_gamma                90
_cell_volume                     3716.33
_cell_formula_units_Z            4
loop_
_atom_site_label
_atom_site_type_symbol
_atom_site_fract_x
_atom_site_fract_y
_atom_site_fract_z
Br1 Br -0.02271(8) 0.90014(5) 0.93983(7)
C1 C 0.0306(6) 0.7956(4) 0.9719(4)
C2 C -0.0186(5) 0.7239(4) 0.9534(4)
H1 H -0.0764 0.7256 0.9236
C3 C 0.0186(4) 0.6483(3) 0.9795(3)
H2 H -0.0170 0.5995 0.9694
C4 C 0.1074(4) 0.6436(3) 1.0201(3)
C5 C 0.1555(5) 0.7177(4) 1.0357(4)
H3 H 0.2163 0.7165 1.0619
C6 C 0.1165(7) 0.7934(4) 1.0138(4)
H4 H 0.1486 0.8428 1.0275
C7 C 0.1521(4) 0.5617(3) 1.0465(3)
H5 H 0.2186 0.5728 1.0683
C8 C 0.0773(4) 0.5425(4) 1.1782(3)
C9 C 0.1358(5) 0.6147(4) 1.2042(3)
C10 C 0.2370(5) 0.6067(5) 1.2178(4)
H6 H 0.2701 0.5567 1.2074
C11 C 0.2903(8) 0.6768(8) 1.2482(5)
H7 H 0.3585 0.6737 1.2589
C12 C 0.2382(11) 0.7471(7) 1.2608(5)
H8 H 0.2730 0.7925 1.2807
C13 C 0.1418(10) 0.7572(6) 1.2472(5)
H9 H 0.1107 0.8086 1.2551
C14 C 0.0875(7) 0.6883(5) 1.2206(4)
H10 H 0.0185 0.6924 1.2139
C15 C 0.0422(4) 0.4409(3) 1.0763(3)
C16 C 0.0696(4) 0.4423(3) 0.9903(3)
C17 C -0.0712(4) 0.4464(4) 1.0848(3)
C18 C -0.2141(7) 0.5321(7) 1.0783(6)
H11 H -0.2461 0.4910 1.0466
H12 H -0.2319 0.5871 1.0607
H13 H -0.2360 0.5253 1.1304
C19 C 0.1631(3) 0.4955(3) 0.9825(3)
C20 C 0.1804(4) 0.5331(3) 0.9039(3)
C21 C 0.2983(7) 0.6122(5) 0.8338(4)
H14 H 0.2456 0.6049 0.7961
H15 H 0.3583 0.5850 0.8146
C22 C 0.3185(12) 0.7029(7) 0.8441(10)
H16 H 0.2631 0.7285 0.8703
H17 H 0.3269 0.7288 0.7948
H18 H 0.3786 0.7102 0.8737
C23 C 0.2563(4) 0.4394(3) 1.0009(3)
C24 C 0.3577(5) 0.3314(4) 0.9498(4)
H19 H 0.3692 0.3147 1.0025
H20 H 0.3472 0.2812 0.9195
C25 C 0.4456(6) 0.3766(5) 0.9208(5)
H21 H 0.4304 0.4000 0.8715
H22 H 0.5011 0.3387 0.9162
H23 H 0.4628 0.4206 0.9558
C26 C 0.0210(4) 0.4024(3) 0.9389(3)
C27 C -0.0368(4) 0.3605(4) 0.8912(3)
C28 C -0.1263(5) 0.4021(5) 0.8603(4)
C29 C -0.1220(6) 0.4845(7) 0.8375(5)
H24 H -0.0604 0.5119 0.8365
C30 C -0.2102(9) 0.5284(9) 0.8153(7)
H25 H -0.2075 0.5849 0.8026
C31 C -0.2989(9) 0.4858(10) 0.8131(7)
H26 H -0.3569 0.5135 0.7978
C32 C -0.3036(8) 0.4100(10) 0.8315(7)
H27 H -0.3646 0.3821 0.8269
C33 C -0.2188(7) 0.3654(8) 0.8590(7)
H28 H -0.2264 0.3107 0.8762
C34 C -0.0104(5) 0.2713(4) 0.8723(4)
C35 C -0.0513(7) 0.2336(6) 0.8073(5)
H29 H -0.0956 0.2632 0.7763
C36 C -0.0251(9) 0.1505(7) 0.7888(7)
H30 H -0.0498 0.1253 0.7446
C37 C 0.0354(8) 0.1089(6) 0.8357(7)
H31 H 0.0494 0.0530 0.8255
C38 C 0.0764(8) 0.1446(6) 0.8967(6)
H32 H 0.1209 0.1143 0.9270
C39 C 0.0536(6) 0.2270(4) 0.9158(4)
H33 H 0.0827 0.2513 0.9588
C40 C 0.0806(5) 0.3614(4) 1.1170(4)
H34 H 0.1523 0.3583 1.1122
H35 H 0.0507 0.3130 1.0939
H36 H 0.0627 0.3636 1.1703
N1 N 0.0918(3) 0.5162(2) 1.1038(2)
O1 O 0.0178(3) 0.5055(3) 1.2195(2)
O2 O -0.1238(4) 0.3860(3) 1.0951(3)
O3 O -0.1047(3) 0.5216(3) 1.0743(3)
O4 O 0.1266(3) 0.5272(3) 0.8495(2)
O5 O 0.2682(3) 0.5729(3) 0.9052(2)
O6 O 0.3073(3) 0.4471(2) 1.0566(2)
O7 O 0.2678(3) 0.3848(3) 0.9455(3)
loop_
_geom_bond_atom_site_label_1
_geom_bond_atom_site_label_2
_geom_bond_site_symmetry_1
_geom_bond_site_symmetry_2
Br1 C1 1_555 1_555
C1 C2 1_555 1_555
C2 H1 1_555 1_555
C3 C2 1_555 1_555
H2 C3 1_555 1_555
C4 C3 1_555 1_555
C5 C4 1_555 1_555
H3 C5 1_555 1_555
C6 C1 1_555 1_555
H4 C6 1_555 1_555
C7 C4 1_555 1_555
H5 C7 1_555 1_555
C8 C9 1_555 1_555
C9 C10 1_555 1_555
C10 H6 1_555 1_555
C11 C10 1_555 1_555
H7 C11 1_555 1_555
C12 C11 1_555 1_555
H8 C12 1_555 1_555
C13 C12 1_555 1_555
H9 C13 1_555 1_555
C14 C9 1_555 1_555
H10 C14 1_555 1_555
C15 C16 1_555 1_555
C16 C19 1_555 1_555
C17 C15 1_555 1_555
C18 H11 1_555 1_555
H12 C18 1_555 1_555
H13 C18 1_555 1_555
C19 C7 1_555 1_555
C20 C19 1_555 1_555
C21 H14 1_555 1_555
H15 C21 1_555 1_555
C22 C21 1_555 1_555
H16 C22 1_555 1_555
H17 C22 1_555 1_555
H18 C22 1_555 1_555
C23 C19 1_555 1_555
C24 H19 1_555 1_555
H20 C24 1_555 1_555
C25 C24 1_555 1_555
H21 C25 1_555 1_555
H22 C25 1_555 1_555
H23 C25 1_555 1_555
C26 C16 1_555 1_555
C27 C26 1_555 1_555
C28 C27 1_555 1_555
C29 C28 1_555 1_555
H24 C29 1_555 1_555
C30 C29 1_555 1_555
H25 C30 1_555 1_555
C31 C30 1_555 1_555
H26 C31 1_555 1_555
C32 C31 1_555 1_555
H27 C32 1_555 1_555
C33 C28 1_555 1_555
H28 C33 1_555 1_555
C34 C27 1_555 1_555
C35 C34 1_555 1_555
H29 C35 1_555 1_555
C36 C35 1_555 1_555
H30 C36 1_555 1_555
C37 C36 1_555 1_555
H31 C37 1_555 1_555
C38 C37 1_555 1_555
H32 C38 1_555 1_555
C39 C34 1_555 1_555
H33 C39 1_555 1_555
C40 C15 1_555 1_555
H34 C40 1_555 1_555
H35 C40 1_555 1_555
H36 C40 1_555 1_555
N1 C7 1_555 1_555
O1 C8 1_555 1_555
O2 C17 1_555 1_555
O3 C17 1_555 1_555
O4 C20 1_555 1_555
O5 C20 1_555 1_555
O6 C23 1_555 1_555
O7 C23 1_555 1_555
C5 C6 1_555 1_555
C8 N1 1_555 1_555
C13 C14 1_555 1_555
C15 N1 1_555 1_555
C18 O3 1_555 1_555
C21 O5 1_555 1_555
C24 O7 1_555 1_555
C32 C33 1_555 1_555
C38 C39 1_555 1_555

#END
