
#######################################################################
#
#                 Cambridge Crystallographic Data Centre
#                                CCDC 
#
#######################################################################
#
# If this CIF has been generated from an entry in the Cambridge 
# Structural Database, then it will include bibliographic, chemical, 
# crystal, experimental, refinement or atomic coordinate data resulting 
# from the CCDC's data processing and validation procedures.
#
#######################################################################

data_ISOYIZ
_chemical_formula_moiety         'C16 H25 N1 O1 Si1'
_chemical_name_systematic        
6,6-Dimethyl-4-oxo-3-((trimethylsilyl)methylene)octahydro-3aH-indene-3a-carbonitrile
_symmetry_cell_setting           monoclinic
_symmetry_space_group_name_H-M   'P 21/c'
_symmetry_Int_Tables_number      14
_space_group_name_Hall           '-P 2ybc'
loop_
_symmetry_equiv_pos_site_id
_symmetry_equiv_pos_as_xyz
1 x,y,z
2 -x,1/2+y,1/2-z
3 -x,-y,-z
4 x,1/2-y,1/2+z
_cell_length_a                   11.914(4)
_cell_length_b                   11.740(4)
_cell_length_c                   12.726(4)
_cell_angle_alpha                90
_cell_angle_beta                 106.442(5)
_cell_angle_gamma                90
_cell_volume                     1707.2
_exptl_crystal_colour            colorless
_cell_formula_units_Z            4
loop_
_atom_site_label
_atom_site_type_symbol
_atom_site_fract_x
_atom_site_fract_y
_atom_site_fract_z
Si1 Si -0.00543(6) 0.78738(7) 0.09384(7)
O1 O -0.40323(16) 0.97730(16) -0.11954(16)
N1 N -0.2900(2) 0.8918(2) -0.3211(2)
C1 C -0.34091(19) 0.79247(19) -0.15605(18)
C2 C -0.40549(19) 0.8765(2) -0.1025(2)
C3 C -0.4683(2) 0.8240(2) -0.0283(2)
C4 C -0.5506(2) 0.7275(2) -0.0843(2)
C5 C -0.4750(2) 0.6387(2) -0.1190(2)
C6 C -0.4086(2) 0.6801(2) -0.1975(2)
C7 C -0.3092(2) 0.5982(2) -0.1992(2)
C8 C -0.2115(2) 0.6263(2) -0.0954(2)
C9 C -0.2244(2) 0.7509(2) -0.07520(19)
C10 C -0.1527(2) 0.8178(2) -0.0041(2)
C11 C -0.3124(2) 0.8498(2) -0.2482(2)
C12 C -0.6076(2) 0.6755(3) -0.0021(2)
C13 C -0.6454(2) 0.7719(3) -0.1830(2)
C14 C 0.0190(10) 0.9049(13) 0.2041(9)
H1 H 0.085(4) 0.920(4) 0.150(5)
H2 H 0.052(4) 0.855(5) 0.256(5)
H3 H -0.036(4) 0.893(5) 0.233(5)
C15 C 0.0302(9) 0.6278(8) 0.1138(11)
H4 H 0.1116 0.6161 0.1504
H6 H -0.0068 0.5557 0.0913
C16 C 0.1079(12) 0.8330(17) 0.0243(15)
H7 H 0.1772 0.7929 0.0640
H8 H 0.1216 0.8699 -0.0382
H10 H -0.4204 0.6049 -0.0519
H11 H -0.5173 0.8750 -0.0086
H12 H -0.1794 0.9000 0.0021
H13 H -0.4046 0.7906 0.0399
H14 H -0.5228 0.5777 -0.1546
H15 H -0.4640 0.6895 -0.2709
H16 H -0.2160 0.5800 -0.0243
H17 H -0.6611 0.6157 -0.0372
H18 H -0.6076 0.8040 -0.2339
H19 H -0.5456 0.6415 0.0631
H20 H -0.6422 0.7499 0.0296
H21 H -0.6946 0.8262 -0.1610
H22 H -0.3403 0.5231 -0.2115
H23 H -0.1371 0.6045 -0.0992
H24 H -0.2843 0.6080 -0.2702
H25 H -0.7076 0.7194 -0.2100
H5? H 0.0225 0.6750 0.0505
H9? H 0.0443 0.7800 0.0004
C17? C -0.0128(11) 0.8131(15) 0.2321(9)
C18? C -0.010(2) 0.6679(14) 0.167(3)
C19? C 0.093(3) 0.875(5) 0.059(3)
loop_
_geom_bond_atom_site_label_1
_geom_bond_atom_site_label_2
_geom_bond_site_symmetry_1
_geom_bond_site_symmetry_2
Si1 C10 1_555 1_555
O1 C2 1_555 1_555
N1 C11 1_555 1_555
C1 C2 1_555 1_555
C2 C3 1_555 1_555
C3 C4 1_555 1_555
C4 C5 1_555 1_555
C5 C6 1_555 1_555
C6 C1 1_555 1_555
C7 C6 1_555 1_555
C8 C7 1_555 1_555
C9 C1 1_555 1_555
C10 C9 1_555 1_555
C11 C1 1_555 1_555
C12 C4 1_555 1_555
C13 C4 1_555 1_555
C14 Si1 1_555 1_555
H1 C14 1_555 1_555
H2 C14 1_555 1_555
H3 C14 1_555 1_555
C15 Si1 1_555 1_555
H4 C15 1_555 1_555
H6 C15 1_555 1_555
C16 Si1 1_555 1_555
H7 C16 1_555 1_555
H8 C16 1_555 1_555
H10 C5 1_555 1_555
H11 C3 1_555 1_555
H12 C10 1_555 1_555
H13 C3 1_555 1_555
H14 C5 1_555 1_555
H15 C6 1_555 1_555
H16 C8 1_555 1_555
H17 C12 1_555 1_555
H18 C13 1_555 1_555
H19 C12 1_555 1_555
H20 C12 1_555 1_555
H21 C13 1_555 1_555
H22 C7 1_555 1_555
H23 C8 1_555 1_555
H24 C7 1_555 1_555
H25 C13 1_555 1_555
C8 C9 1_555 1_555

#END
