
#######################################################################
#
#                 Cambridge Crystallographic Data Centre
#                                CCDC 
#
#######################################################################
#
# If this CIF has been generated from an entry in the Cambridge 
# Structural Database, then it will include bibliographic, chemical, 
# crystal, experimental, refinement or atomic coordinate data resulting 
# from the CCDC's data processing and validation procedures.
#
#######################################################################

data_ISUDAD
_chemical_formula_moiety         'C15 H15 N1 O2'
_chemical_name_systematic        
'methyl 7-methyl-2-phenyl-3-azabicyclo[4.1.0]hepta-2,4-diene-7-carboxylate'
_symmetry_cell_setting           monoclinic
_symmetry_space_group_name_H-M   'P 21/c'
_symmetry_Int_Tables_number      14
_space_group_name_Hall           '-P 2ybc'
loop_
_symmetry_equiv_pos_site_id
_symmetry_equiv_pos_as_xyz
1 x,y,z
2 -x,1/2+y,1/2-z
3 -x,-y,-z
4 x,1/2-y,1/2+z
_cell_length_a                   12.936(3)
_cell_length_b                   11.295(2)
_cell_length_c                   9.0176(18)
_cell_angle_alpha                90
_cell_angle_beta                 100.85(3)
_cell_angle_gamma                90
_cell_volume                     1294.03
_exptl_crystal_colour            colorless
_exptl_crystal_description       block
_cell_formula_units_Z            4
loop_
_atom_site_label
_atom_site_type_symbol
_atom_site_fract_x
_atom_site_fract_y
_atom_site_fract_z
C1 C 0.16505(17) 0.4334(2) 0.0915(2)
H1 H 0.1297 0.4679 0.1613
C2 C 0.1174(2) 0.3426(2) 0.0001(3)
H2 H 0.0509 0.3159 0.0094
C3 C 0.1681(2) 0.2926(3) -0.1029(3)
H3 H 0.1364 0.2312 -0.1637
C4 C 0.2654(2) 0.3320(3) -0.1179(3)
H4 H 0.2991 0.2977 -0.1897
C5 C 0.31395(18) 0.4212(2) -0.0285(3)
H5 H 0.3802 0.4473 -0.0401
C6 C 0.26437(14) 0.47349(19) 0.0804(2)
C7 C 0.31657(14) 0.56776(18) 0.1816(2)
C8 C 0.46365(17) 0.6780(3) 0.2801(3)
H6 H 0.5348 0.6913 0.2815
C9 C 0.41710(17) 0.7484(3) 0.3626(3)
H7 H 0.4549 0.8099 0.4161
C10 C 0.30644(15) 0.7315(2) 0.3717(2)
H8 H 0.2656 0.8033 0.3808
C11 C 0.25164(14) 0.63567(18) 0.2703(2)
H9 H 0.1789 0.6519 0.2208
C12 C 0.27110(14) 0.6187(2) 0.4419(2)
C13 C 0.34912(17) 0.5276(2) 0.5173(3)
H10 H 0.3719 0.5480 0.6217
H11 H 0.4088 0.5258 0.4681
H12 H 0.3163 0.4511 0.5100
C14 C 0.17320(16) 0.6362(2) 0.5013(2)
C15 C 0.07312(19) 0.5729(3) 0.6800(3)
H13 H 0.0772 0.6436 0.7399
H14 H 0.0681 0.5052 0.7427
H15 H 0.0120 0.5765 0.6010
N1 N 0.41589(13) 0.58432(18) 0.1894(2)
O1 O 0.10583(12) 0.70705(16) 0.45356(18)
O2 O 0.16614(12) 0.56291(15) 0.61447(17)
loop_
_geom_bond_atom_site_label_1
_geom_bond_atom_site_label_2
_geom_bond_site_symmetry_1
_geom_bond_site_symmetry_2
C1 H1 1_555 1_555
C2 C1 1_555 1_555
H2 C2 1_555 1_555
C3 C2 1_555 1_555
H3 C3 1_555 1_555
C4 C3 1_555 1_555
H4 C4 1_555 1_555
C5 C4 1_555 1_555
H5 C5 1_555 1_555
C6 C1 1_555 1_555
C7 C6 1_555 1_555
C8 H6 1_555 1_555
C9 C8 1_555 1_555
H7 C9 1_555 1_555
C10 C9 1_555 1_555
H8 C10 1_555 1_555
C11 C7 1_555 1_555
H9 C11 1_555 1_555
C12 C10 1_555 1_555
C13 C12 1_555 1_555
H10 C13 1_555 1_555
H11 C13 1_555 1_555
H12 C13 1_555 1_555
C14 C12 1_555 1_555
C15 H13 1_555 1_555
H14 C15 1_555 1_555
H15 C15 1_555 1_555
N1 C7 1_555 1_555
O1 C14 1_555 1_555
O2 C14 1_555 1_555
C5 C6 1_555 1_555
C8 N1 1_555 1_555
C10 C11 1_555 1_555
C11 C12 1_555 1_555
C15 O2 1_555 1_555

#END
