
#######################################################################
#
#                 Cambridge Crystallographic Data Centre
#                                CCDC 
#
#######################################################################
#
# If this CIF has been generated from an entry in the Cambridge 
# Structural Database, then it will include bibliographic, chemical, 
# crystal, experimental, refinement or atomic coordinate data resulting 
# from the CCDC's data processing and validation procedures.
#
#######################################################################

data_ISUFUZ
_chemical_formula_moiety         'C31 H26 O1'
_chemical_name_systematic        
10-(bis(4-methylphenyl)methylene)-9-phenyl-8-oxatricyclo[7.1.1.0^2,7^]undeca-2,4,6-triene
_symmetry_cell_setting           triclinic
_symmetry_space_group_name_H-M   'P -1'
_symmetry_Int_Tables_number      2
_space_group_name_Hall           '-P 1'
loop_
_symmetry_equiv_pos_site_id
_symmetry_equiv_pos_as_xyz
1 x,y,z
2 -x,-y,-z
_cell_length_a                   11.2411(8)
_cell_length_b                   11.9761(9)
_cell_length_c                   19.9127(14)
_cell_angle_alpha                100.200(6)
_cell_angle_beta                 94.644(6)
_cell_angle_gamma                113.781(7)
_cell_volume                     2379.55
_exptl_crystal_colour            colorless
_exptl_crystal_description       block
_cell_formula_units_Z            4
loop_
_atom_site_label
_atom_site_type_symbol
_atom_site_fract_x
_atom_site_fract_y
_atom_site_fract_z
O1 O 0.2575(2) 0.0333(2) 0.52833(10)
C1 C 0.3790(4) 0.1376(4) 0.54212(17)
C2 C 0.3966(4) 0.2280(4) 0.50527(19)
H1 H 0.3294 0.2203 0.4717
C3 C 0.5184(5) 0.3316(4) 0.5198(2)
H2 H 0.5334 0.3932 0.4948
C4 C 0.6161(5) 0.3447(5) 0.5700(2)
H3 H 0.6959 0.4159 0.5800
C5 C 0.5962(4) 0.2519(4) 0.6061(2)
H4 H 0.6634 0.2606 0.6399
C6 C 0.4769(4) 0.1456(4) 0.59247(17)
C7 C 0.4449(3) 0.0368(4) 0.62582(17)
H5 H 0.5137 0.0395 0.6605
C8 C 0.3731(3) -0.0843(4) 0.56738(18)
H6 H 0.3642 -0.1605 0.5813
H7 H 0.4075 -0.0794 0.5243
C9 C 0.2484(3) -0.0582(3) 0.56892(16)
C10 C 0.3093(3) 0.0093(3) 0.64553(16)
C11 C 0.1152(4) -0.1660(3) 0.54748(17)
C12 C 0.0226(4) -0.1743(4) 0.49527(17)
H8 H 0.0410 -0.1087 0.4729
C13 C -0.0967(4) -0.2774(5) 0.4753(2)
H9 H -0.1584 -0.2807 0.4401
C14 C -0.1250(5) -0.3750(5) 0.5071(3)
H10 H -0.2046 -0.4460 0.4925
C15 C -0.0358(5) -0.3681(5) 0.5604(3)
H11 H -0.0556 -0.4330 0.5834
C16 C 0.0839(4) -0.2639(4) 0.5800(2)
H12 H 0.1448 -0.2598 0.6159
C17 C 0.2637(3) 0.0246(3) 0.70504(15)
C18 C 0.1240(3) -0.0030(3) 0.70692(15)
C19 C 0.0631(4) -0.0478(3) 0.76050(17)
H13 H 0.1117 -0.0593 0.7966
C20 C -0.0679(4) -0.0755(3) 0.76126(19)
H14 H -0.1059 -0.1059 0.7979
C21 C -0.1450(4) -0.0598(3) 0.7094(2)
C22 C -0.0843(4) -0.0144(3) 0.65617(18)
H15 H -0.1332 -0.0036 0.6200
C23 C 0.0476(3) 0.0151(3) 0.65558(16)
H16 H 0.0861 0.0482 0.6198
C24 C -0.2881(4) -0.0895(4) 0.7102(2)
H17 H -0.2957 -0.0334 0.7487
H18 H -0.3340 -0.1744 0.7146
H19 H -0.3260 -0.0798 0.6679
C25 C 0.3573(3) 0.0666(3) 0.77183(16)
C26 C 0.3668(4) 0.1663(3) 0.82318(18)
H20 H 0.3126 0.2065 0.8169
C27 C 0.4568(4) 0.2060(4) 0.88375(18)
H21 H 0.4618 0.2731 0.9174
C28 C 0.5392(4) 0.1500(4) 0.89603(18)
C29 C 0.5277(4) 0.0489(3) 0.84496(18)
H22 H 0.5814 0.0083 0.8514
C30 C 0.4371(4) 0.0081(3) 0.78471(17)
H23 H 0.4299 -0.0610 0.7518
C31 C 0.6401(4) 0.1958(4) 0.9607(2)
H24 H 0.6385 0.2689 0.9888
H25 H 0.7261 0.2165 0.9485
H26 H 0.6201 0.1313 0.9862
O2 O 0.0354(2) 0.5320(2) 0.72878(11)
C32 C -0.0845(4) 0.5078(4) 0.75071(17)
C33 C -0.1358(4) 0.5947(4) 0.74824(19)
H27 H -0.0916 0.6658 0.7317
C34 C -0.2550(5) 0.5730(5) 0.7711(2)
H28 H -0.2910 0.6305 0.7703
C35 C -0.3200(5) 0.4665(5) 0.7948(2)
H29 H -0.3996 0.4530 0.8101
C36 C -0.2687(4) 0.3801(4) 0.79599(18)
H30 H -0.3135 0.3084 0.8119
C37 C -0.1495(4) 0.4007(4) 0.77327(17)
C38 C -0.0837(3) 0.3124(3) 0.76975(17)
H31 H -0.1278 0.2339 0.7845
C39 C 0.0603(3) 0.3961(3) 0.80148(16)
C40 C 0.0804(3) 0.4347(3) 0.73217(16)
C41 C -0.0348(3) 0.3059(3) 0.69962(17)
H32 H -0.0080 0.2386 0.6870
H33 H -0.0943 0.3068 0.6618
C42 C 0.2093(4) 0.4717(4) 0.70646(16)
C43 C 0.2654(4) 0.5783(4) 0.68176(18)
H34 H 0.2240 0.6318 0.6817
C44 C 0.3826(5) 0.6060(5) 0.6572(2)
H35 H 0.4196 0.6778 0.6401
C45 C 0.4451(5) 0.5293(6) 0.6575(2)
H36 H 0.5247 0.5493 0.6412
C46 C 0.3909(5) 0.4227(5) 0.6819(2)
H37 H 0.4331 0.3701 0.6819
C47 C 0.2730(4) 0.3939(4) 0.70644(17)
H38 H 0.2361 0.3217 0.7231
C48 C 0.1370(3) 0.4193(3) 0.86174(17)
C49 C 0.0860(3) 0.3497(3) 0.91581(17)
C50 C 0.0230(4) 0.2194(4) 0.90102(19)
H39 H 0.0151 0.1737 0.8567
C51 C -0.0281(4) 0.1567(4) 0.9519(2)
H40 H -0.0693 0.0695 0.9409
C52 C -0.0195(4) 0.2202(4) 1.0181(2)
C53 C 0.0446(4) 0.3490(4) 1.03306(19)
H41 H 0.0528 0.3941 1.0776
C54 C 0.0972(4) 0.4129(4) 0.98329(18)
H42 H 0.1409 0.4999 0.9953
C55 C -0.0776(5) 0.1513(5) 1.0728(2)
H43 H -0.1337 0.0651 1.0512
H44 H -0.1282 0.1893 1.0960
H45 H -0.0077 0.1558 1.1058
C56 C 0.2758(3) 0.5152(3) 0.87742(16)
C57 C 0.3130(4) 0.6285(3) 0.85867(17)
H46 H 0.2494 0.6473 0.8368
C58 C 0.4440(4) 0.7143(4) 0.87207(19)
H47 H 0.4668 0.7892 0.8580
C59 C 0.5418(4) 0.6925(4) 0.9056(2)
C60 C 0.5043(4) 0.5794(4) 0.92444(18)
H48 H 0.5679 0.5609 0.9466
C61 C 0.3744(4) 0.4932(3) 0.91110(17)
H49 H 0.3520 0.4182 0.9250
C62 C 0.6837(4) 0.7894(4) 0.9222(2)
H50 H 0.6960 0.8505 0.9636
H51 H 0.7044 0.8302 0.8845
H52 H 0.7408 0.7492 0.9290
loop_
_geom_bond_atom_site_label_1
_geom_bond_atom_site_label_2
_geom_bond_site_symmetry_1
_geom_bond_site_symmetry_2
O1 C1 1_555 1_555
C1 C2 1_555 1_555
C2 H1 1_555 1_555
C3 C2 1_555 1_555
H2 C3 1_555 1_555
C4 C3 1_555 1_555
H3 C4 1_555 1_555
C5 C4 1_555 1_555
H4 C5 1_555 1_555
C6 C1 1_555 1_555
C7 C6 1_555 1_555
H5 C7 1_555 1_555
C8 C7 1_555 1_555
H6 C8 1_555 1_555
H7 C8 1_555 1_555
C9 O1 1_555 1_555
C10 C7 1_555 1_555
C11 C9 1_555 1_555
C12 C11 1_555 1_555
H8 C12 1_555 1_555
C13 C12 1_555 1_555
H9 C13 1_555 1_555
C14 C13 1_555 1_555
H10 C14 1_555 1_555
C15 C14 1_555 1_555
H11 C15 1_555 1_555
C16 C11 1_555 1_555
H12 C16 1_555 1_555
C17 C10 1_555 1_555
C18 C17 1_555 1_555
C19 C18 1_555 1_555
H13 C19 1_555 1_555
C20 C19 1_555 1_555
H14 C20 1_555 1_555
C21 C20 1_555 1_555
C22 C21 1_555 1_555
H15 C22 1_555 1_555
C23 C18 1_555 1_555
H16 C23 1_555 1_555
C24 C21 1_555 1_555
H17 C24 1_555 1_555
H18 C24 1_555 1_555
H19 C24 1_555 1_555
C25 C17 1_555 1_555
C26 C25 1_555 1_555
H20 C26 1_555 1_555
C27 C26 1_555 1_555
H21 C27 1_555 1_555
C28 C27 1_555 1_555
C29 C28 1_555 1_555
H22 C29 1_555 1_555
C30 C25 1_555 1_555
H23 C30 1_555 1_555
C31 C28 1_555 1_555
H24 C31 1_555 1_555
H25 C31 1_555 1_555
H26 C31 1_555 1_555
O2 C32 1_555 1_555
C32 C33 1_555 1_555
C33 H27 1_555 1_555
C34 C33 1_555 1_555
H28 C34 1_555 1_555
C35 C34 1_555 1_555
H29 C35 1_555 1_555
C36 C35 1_555 1_555
H30 C36 1_555 1_555
C37 C32 1_555 1_555
C38 C37 1_555 1_555
H31 C38 1_555 1_555
C39 C38 1_555 1_555
C40 O2 1_555 1_555
C41 C38 1_555 1_555
H32 C41 1_555 1_555
H33 C41 1_555 1_555
C42 C40 1_555 1_555
C43 C42 1_555 1_555
H34 C43 1_555 1_555
C44 C43 1_555 1_555
H35 C44 1_555 1_555
C45 C44 1_555 1_555
H36 C45 1_555 1_555
C46 C45 1_555 1_555
H37 C46 1_555 1_555
C47 C42 1_555 1_555
H38 C47 1_555 1_555
C48 C39 1_555 1_555
C49 C48 1_555 1_555
C50 C49 1_555 1_555
H39 C50 1_555 1_555
C51 C50 1_555 1_555
H40 C51 1_555 1_555
C52 C51 1_555 1_555
C53 C52 1_555 1_555
H41 C53 1_555 1_555
C54 C49 1_555 1_555
H42 C54 1_555 1_555
C55 C52 1_555 1_555
H43 C55 1_555 1_555
H44 C55 1_555 1_555
H45 C55 1_555 1_555
C56 C48 1_555 1_555
C57 C56 1_555 1_555
H46 C57 1_555 1_555
C58 C57 1_555 1_555
H47 C58 1_555 1_555
C59 C58 1_555 1_555
C60 C59 1_555 1_555
H48 C60 1_555 1_555
C61 C56 1_555 1_555
H49 C61 1_555 1_555
C62 C59 1_555 1_555
H50 C62 1_555 1_555
H51 C62 1_555 1_555
H52 C62 1_555 1_555
C5 C6 1_555 1_555
C8 C9 1_555 1_555
C9 C10 1_555 1_555
C15 C16 1_555 1_555
C22 C23 1_555 1_555
C29 C30 1_555 1_555
C36 C37 1_555 1_555
C39 C40 1_555 1_555
C40 C41 1_555 1_555
C46 C47 1_555 1_555
C53 C54 1_555 1_555
C60 C61 1_555 1_555

#END
