
#######################################################################
#
#                 Cambridge Crystallographic Data Centre
#                                CCDC 
#
#######################################################################
#
# If this CIF has been generated from an entry in the Cambridge 
# Structural Database, then it will include bibliographic, chemical, 
# crystal, experimental, refinement or atomic coordinate data resulting 
# from the CCDC's data processing and validation procedures.
#
#######################################################################

data_ISUHEL
_chemical_formula_moiety         'C23 H18 Br1 N3 O2'
_chemical_name_systematic        
'ethyl 3-(4-bromophenyl)-2-(3-cyanopyrrolo[2,1-a]phthalazin-2-yl)propanoate'
_symmetry_cell_setting           triclinic
_symmetry_space_group_name_H-M   'P -1'
_symmetry_Int_Tables_number      2
_space_group_name_Hall           '-P 1'
loop_
_symmetry_equiv_pos_site_id
_symmetry_equiv_pos_as_xyz
1 x,y,z
2 -x,-y,-z
_cell_length_a                   9.234(3)
_cell_length_b                   10.079(3)
_cell_length_c                   11.771(4)
_cell_angle_alpha                74.328(11)
_cell_angle_beta                 87.518(14)
_cell_angle_gamma                72.598(10)
_cell_volume                     1005.68
_exptl_crystal_colour            colorless
_exptl_crystal_description       plate
_cell_formula_units_Z            2
loop_
_atom_site_label
_atom_site_type_symbol
_atom_site_fract_x
_atom_site_fract_y
_atom_site_fract_z
Br1 Br 0.32288(3) 0.88785(3) 1.02594(2)
O1 O 0.88625(19) 0.56273(18) 0.63074(15)
O2 O 0.92319(17) 0.39438(17) 0.80469(14)
N1 N 0.63544(19) 0.05917(19) 0.52057(16)
N2 N 0.69610(18) 0.16165(17) 0.53691(15)
N3 N 0.4009(2) 0.2249(2) 0.7285(2)
C1 C 0.6992(2) -0.0022(2) 0.4398(2)
H1 H 0.6612 -0.0720 0.4254
C2 C 0.8234(2) 0.0285(2) 0.37059(18)
C3 C 0.8830(2) -0.0428(2) 0.2842(2)
H2 H 0.8414 -0.1105 0.2699
C4 C 1.0031(3) -0.0126(2) 0.2207(2)
H3 H 1.0425 -0.0593 0.1629
C5 C 1.0658(2) 0.0885(2) 0.2431(2)
H4 H 1.1479 0.1075 0.2004
C6 C 1.0084(2) 0.1609(2) 0.32735(19)
H5 H 1.0512 0.2281 0.3410
C7 C 0.8852(2) 0.1321(2) 0.39194(18)
C8 C 0.8155(2) 0.2035(2) 0.47971(18)
C9 C 0.8368(2) 0.3100(2) 0.52590(19)
H6 H 0.9091 0.3584 0.5033
C10 C 0.7298(2) 0.3315(2) 0.61267(18)
C11 C 0.6429(2) 0.2391(2) 0.61804(18)
C12 C 0.5103(2) 0.2289(2) 0.67997(19)
C13 C 0.7030(2) 0.4328(2) 0.69085(18)
H7 H 0.6784 0.3822 0.7693
C14 C 0.8465(2) 0.4721(2) 0.70373(19)
C15 C 1.0651(3) 0.4222(3) 0.8235(2)
H8 H 1.0459 0.5224 0.8229
H9 H 1.1339 0.4025 0.7614
C16 C 1.1328(4) 0.3257(3) 0.9400(3)
H10 H 1.1537 0.2268 0.9389
H11 H 1.0628 0.3447 1.0006
H12 H 1.2256 0.3432 0.9558
C17 C 0.5689(2) 0.5705(2) 0.6430(2)
H13 H 0.6013 0.6348 0.5767
H14 H 0.4868 0.5445 0.6149
C18 C 0.5119(2) 0.6482(2) 0.73698(19)
C19 C 0.4070(3) 0.6057(3) 0.8161(2)
H15 H 0.3733 0.5295 0.8103
C20 C 0.3519(3) 0.6747(3) 0.9032(2)
H16 H 0.2819 0.6454 0.9554
C21 C 0.4027(3) 0.7876(2) 0.9112(2)
C22 C 0.5078(3) 0.8313(2) 0.8351(2)
H17 H 0.5422 0.9068 0.8419
C23 C 0.5614(2) 0.7612(2) 0.7483(2)
H18 H 0.6320 0.7906 0.6967
loop_
_geom_bond_atom_site_label_1
_geom_bond_atom_site_label_2
_geom_bond_site_symmetry_1
_geom_bond_site_symmetry_2
Br1 C21 1_555 1_555
O1 C14 1_555 1_555
O2 C14 1_555 1_555
N1 N2 1_555 1_555
N2 C8 1_555 1_555
N3 C12 1_555 1_555
C1 N1 1_555 1_555
H1 C1 1_555 1_555
C2 C1 1_555 1_555
C3 C2 1_555 1_555
H2 C3 1_555 1_555
C4 C3 1_555 1_555
H3 C4 1_555 1_555
C5 C4 1_555 1_555
H4 C5 1_555 1_555
C6 C5 1_555 1_555
H5 C6 1_555 1_555
C7 C2 1_555 1_555
C8 C7 1_555 1_555
C9 C8 1_555 1_555
H6 C9 1_555 1_555
C10 C9 1_555 1_555
C11 N2 1_555 1_555
C12 C11 1_555 1_555
C13 C10 1_555 1_555
H7 C13 1_555 1_555
C14 C13 1_555 1_555
C15 O2 1_555 1_555
H8 C15 1_555 1_555
H9 C15 1_555 1_555
C16 C15 1_555 1_555
H10 C16 1_555 1_555
H11 C16 1_555 1_555
H12 C16 1_555 1_555
C17 C13 1_555 1_555
H13 C17 1_555 1_555
H14 C17 1_555 1_555
C18 C17 1_555 1_555
C19 C18 1_555 1_555
H15 C19 1_555 1_555
C20 C19 1_555 1_555
H16 C20 1_555 1_555
C21 C20 1_555 1_555
C22 C21 1_555 1_555
H17 C22 1_555 1_555
C23 C18 1_555 1_555
H18 C23 1_555 1_555
C6 C7 1_555 1_555
C10 C11 1_555 1_555
C22 C23 1_555 1_555

#END
