
#######################################################################
#
#                 Cambridge Crystallographic Data Centre
#                                CCDC 
#
#######################################################################
#
# If this CIF has been generated from an entry in the Cambridge 
# Structural Database, then it will include bibliographic, chemical, 
# crystal, experimental, refinement or atomic coordinate data resulting 
# from the CCDC's data processing and validation procedures.
#
#######################################################################

data_ISUNER
_chemical_formula_moiety         'C30 H14 Br4 N6 O6'
_chemical_name_systematic        
'5,17-bis(2,6-dibromophenoxy)-2,8,14,20-tetraoxa-4,6,16,18,26,28-hexaazapentacyclo[19.3.1.1^3,7^.1^9,13^.1^15,19^]octacosa-1(25),3(28),4,6,9(27),10,12,15(26),16,18,21,23-dodecaene unknown solvate'
_symmetry_cell_setting           triclinic
_symmetry_space_group_name_H-M   'P -1'
_symmetry_Int_Tables_number      2
_space_group_name_Hall           '-P 1'
loop_
_symmetry_equiv_pos_site_id
_symmetry_equiv_pos_as_xyz
1 x,y,z
2 -x,-y,-z
_cell_length_a                   11.165(5)
_cell_length_b                   12.754(5)
_cell_length_c                   15.306(6)
_cell_angle_alpha                99.212(5)
_cell_angle_beta                 108.398(6)
_cell_angle_gamma                105.819(3)
_cell_volume                     1916.15
_exptl_crystal_colour            colorless
_exptl_crystal_description       block
_cell_formula_units_Z            2
loop_
_atom_site_label
_atom_site_type_symbol
_atom_site_fract_x
_atom_site_fract_y
_atom_site_fract_z
Br1 Br 0.98483(5) 0.80933(4) 1.09848(4)
Br2 Br 0.67535(5) 1.08838(4) 1.11469(4)
Br3 Br -0.09089(6) 0.99308(5) 0.64175(4)
Br4 Br -0.39732(6) 0.59574(4) 0.34227(4)
O1 O -0.2365(3) 0.7422(2) 0.5436(2)
O2 O 0.1584(3) 0.7224(2) 0.53379(19)
O3 O 0.5821(3) 0.8015(2) 0.78845(19)
O4 O 0.7472(3) 0.8749(2) 1.11007(18)
O5 O 0.3784(3) 0.5737(2) 0.94237(19)
O6 O -0.0471(3) 0.5346(2) 0.7102(2)
N1 N -0.0359(3) 0.7355(3) 0.5358(2)
N2 N -0.1410(3) 0.6392(3) 0.6283(2)
N3 N 0.0660(3) 0.6245(3) 0.6254(2)
N4 N 0.6661(3) 0.8423(3) 0.9463(2)
N5 N 0.4688(3) 0.6813(3) 0.8563(2)
N6 N 0.5617(3) 0.7241(3) 1.0266(2)
C1 C -0.2405(4) 0.8071(3) 0.4783(3)
C2 C -0.1813(4) 0.9233(4) 0.5095(3)
C3 C -0.1905(5) 0.9874(4) 0.4441(4)
H1 H -0.1486 1.0674 0.4648
C4 C -0.2617(5) 0.9326(5) 0.3483(4)
H2 H -0.2677 0.9761 0.3032
C5 C -0.3239(5) 0.8179(4) 0.3160(3)
H3 H -0.3731 0.7821 0.2497
C6 C -0.3135(4) 0.7553(4) 0.3821(3)
C7 C -0.1328(4) 0.7045(3) 0.5692(3)
C8 C 0.0595(4) 0.6916(3) 0.5668(3)
C9 C -0.0389(4) 0.6032(3) 0.6520(3)
C10 C 0.2796(4) 0.7014(3) 0.5714(3)
C11 C 0.3183(4) 0.6443(3) 0.5084(3)
H4 H 0.2594 0.6112 0.4433
C12 C 0.4444(4) 0.6352(4) 0.5402(3)
H5 H 0.4726 0.5954 0.4971
C13 C 0.5299(4) 0.6842(4) 0.6354(3)
H6 H 0.6170 0.6788 0.6579
C14 C 0.4868(4) 0.7405(3) 0.6961(3)
C15 C 0.3635(4) 0.7522(3) 0.6669(3)
H7 H 0.3361 0.7931 0.7099
C16 C 0.5691(4) 0.7715(3) 0.8662(3)
C17 C 0.6542(4) 0.8114(3) 1.0227(3)
C18 C 0.4724(4) 0.6634(3) 0.9406(3)
C19 C 0.8528(4) 0.9671(3) 1.1133(3)
C20 C 0.9723(4) 0.9547(4) 1.1152(3)
C21 C 1.0809(4) 1.0483(4) 1.1279(3)
H8 H 1.1627 1.0391 1.1285
C22 C 1.0710(5) 1.1540(4) 1.1396(3)
H9 H 1.1463 1.2180 1.1497
C23 C 0.9503(5) 1.1671(4) 1.1366(3)
H10 H 0.9423 1.2400 1.1437
C24 C 0.8422(4) 1.0736(4) 1.1233(3)
C25 C 0.2649(4) 0.5100(3) 0.8584(3)
C26 C 0.2454(4) 0.3984(3) 0.8249(3)
H11 H 0.3108 0.3666 0.8531
C27 C 0.1273(4) 0.3330(4) 0.7484(3)
H12 H 0.1118 0.2552 0.7236
C28 C 0.0322(4) 0.3785(4) 0.7078(3)
H13 H -0.0490 0.3330 0.6557
C29 C 0.0573(4) 0.4911(3) 0.7443(3)
C30 C 0.1731(4) 0.5595(3) 0.8203(3)
H14 H 0.1886 0.6373 0.8452
loop_
_geom_bond_atom_site_label_1
_geom_bond_atom_site_label_2
_geom_bond_site_symmetry_1
_geom_bond_site_symmetry_2
Br1 C20 1_555 1_555
Br2 C24 1_555 1_555
Br3 C2 1_555 1_555
Br4 C6 1_555 1_555
O1 C1 1_555 1_555
O2 C8 1_555 1_555
O3 C14 1_555 1_555
O4 C17 1_555 1_555
O5 C18 1_555 1_555
O6 C9 1_555 1_555
N1 C7 1_555 1_555
N2 C7 1_555 1_555
N3 C8 1_555 1_555
N4 C16 1_555 1_555
N5 C16 1_555 1_555
N6 C17 1_555 1_555
C1 C2 1_555 1_555
C2 C3 1_555 1_555
C3 H1 1_555 1_555
C4 C3 1_555 1_555
H2 C4 1_555 1_555
C5 C4 1_555 1_555
H3 C5 1_555 1_555
C6 C1 1_555 1_555
C7 O1 1_555 1_555
C8 N1 1_555 1_555
C9 N2 1_555 1_555
C10 O2 1_555 1_555
C11 C10 1_555 1_555
H4 C11 1_555 1_555
C12 C11 1_555 1_555
H5 C12 1_555 1_555
C13 C12 1_555 1_555
H6 C13 1_555 1_555
C14 C13 1_555 1_555
C15 C10 1_555 1_555
H7 C15 1_555 1_555
C16 O3 1_555 1_555
C17 N4 1_555 1_555
C18 N5 1_555 1_555
C19 O4 1_555 1_555
C20 C19 1_555 1_555
C21 C20 1_555 1_555
H8 C21 1_555 1_555
C22 C21 1_555 1_555
H9 C22 1_555 1_555
C23 C22 1_555 1_555
H10 C23 1_555 1_555
C24 C19 1_555 1_555
C25 O5 1_555 1_555
C26 C25 1_555 1_555
H11 C26 1_555 1_555
C27 C26 1_555 1_555
H12 C27 1_555 1_555
C28 C27 1_555 1_555
H13 C28 1_555 1_555
C29 O6 1_555 1_555
C30 C25 1_555 1_555
H14 C30 1_555 1_555
N3 C9 1_555 1_555
N6 C18 1_555 1_555
C5 C6 1_555 1_555
C14 C15 1_555 1_555
C23 C24 1_555 1_555
C28 C29 1_555 1_555
C29 C30 1_555 1_555

#END
