
#######################################################################
#
#                 Cambridge Crystallographic Data Centre
#                                CCDC 
#
#######################################################################
#
# If this CIF has been generated from an entry in the Cambridge 
# Structural Database, then it will include bibliographic, chemical, 
# crystal, experimental, refinement or atomic coordinate data resulting 
# from the CCDC's data processing and validation procedures.
#
#######################################################################

data_ISUNIV
_chemical_formula_moiety         'C30 H14 I4 N6 O6,C1 H1 Cl3'
_chemical_name_systematic        
'5,17-bis(2,6-diiodophenoxy)-2,8,14,20-tetraoxa-4,6,16,18,26,28-hexaazapentacyclo[19.3.1.1^3,7^.1^9,13^.1^15,19^]octacosa-1(25),3(28),4,6,9(27),10,12,15(26),16,18,21,23-dodecaene chloroform solvate'
_symmetry_cell_setting           orthorhombic
_symmetry_space_group_name_H-M   'P b c a'
_symmetry_Int_Tables_number      61
_space_group_name_Hall           '-P 2ac 2ab'
loop_
_symmetry_equiv_pos_site_id
_symmetry_equiv_pos_as_xyz
1 x,y,z
2 1/2-x,-y,1/2+z
3 -x,1/2+y,1/2-z
4 1/2+x,1/2-y,-z
5 -x,-y,-z
6 1/2+x,y,1/2-z
7 x,1/2-y,1/2+z
8 1/2-x,1/2+y,z
_cell_length_a                   19.998(4)
_cell_length_b                   15.235(3)
_cell_length_c                   24.559(5)
_cell_angle_alpha                90
_cell_angle_beta                 90
_cell_angle_gamma                90
_cell_volume                     7482.38
_exptl_crystal_colour            colorless
_exptl_crystal_description       block
_cell_formula_units_Z            8
loop_
_atom_site_label
_atom_site_type_symbol
_atom_site_fract_x
_atom_site_fract_y
_atom_site_fract_z
I1 I 0.21426(3) -0.39034(5) 0.09271(3)
I2 I -0.05748(3) -0.37026(4) -0.01237(3)
I3 I 0.33258(3) 0.06390(4) 0.34319(3)
I4 I 0.13748(3) 0.33431(4) 0.42311(3)
O1 O -0.0319(2) -0.2065(3) 0.21145(19)
O2 O 0.0510(2) 0.0204(3) 0.32961(19)
O3 O 0.1264(3) 0.1787(3) 0.1827(2)
O4 O 0.0690(3) -0.0668(3) 0.06705(19)
O5 O 0.0568(3) -0.3648(3) 0.0775(2)
O6 O 0.2238(3) 0.2139(3) 0.3440(2)
N1 N 0.0129(3) -0.2856(3) 0.1441(2)
N2 N 0.0182(3) -0.1291(3) 0.1421(2)
N3 N 0.0649(3) -0.2133(3) 0.0691(2)
N4 N 0.0835(3) 0.0961(3) 0.2533(2)
N5 N 0.1369(3) 0.1125(4) 0.3396(2)
N6 N 0.1748(3) 0.1953(4) 0.2630(2)
C1 C 0.0864(4) -0.3744(4) 0.0263(3)
C2 C 0.1548(4) -0.3898(5) 0.0234(4)
C3 C 0.1833(5) -0.4079(6) -0.0275(4)
H1 H 0.2298 -0.4194 -0.0304
C4 C 0.1435(6) -0.4089(7) -0.0738(4)
H2 H 0.1631 -0.4188 -0.1084
C5 C 0.0743(6) -0.3952(6) -0.0696(3)
H3 H 0.0468 -0.3970 -0.1012
C6 C 0.0468(4) -0.3793(4) -0.0192(3)
C7 C 0.0447(3) -0.2828(4) 0.0971(3)
C8 C 0.0016(3) -0.2056(4) 0.1640(2)
C9 C 0.0499(3) -0.1387(4) 0.0949(3)
C10 C -0.0414(3) -0.1275(4) 0.2402(3)
C11 C -0.1062(3) -0.0988(4) 0.2467(3)
H4 H -0.1421 -0.1281 0.2291
C12 C -0.1179(3) -0.0255(5) 0.2797(3)
H5 H -0.1622 -0.0038 0.2839
C13 C -0.0653(3) 0.0156(4) 0.3063(3)
H6 H -0.0729 0.0648 0.3293
C14 C -0.0018(3) -0.0166(4) 0.2986(3)
C15 C 0.0116(3) -0.0886(4) 0.2668(3)
H7 H 0.0557 -0.1108 0.2632
C16 C 0.0916(3) 0.0792(4) 0.3056(3)
C17 C 0.1757(3) 0.1713(4) 0.3151(3)
C18 C 0.1280(3) 0.1547(4) 0.2352(3)
C19 C 0.2349(4) 0.1891(5) 0.3977(3)
C20 C 0.2042(4) 0.2324(5) 0.4406(3)
C21 C 0.2216(5) 0.2112(7) 0.4938(4)
H8 H 0.2007 0.2407 0.5233
C22 C 0.2688(5) 0.1479(6) 0.5040(4)
H9 H 0.2795 0.1331 0.5406
C23 C 0.3005(5) 0.1058(6) 0.4624(4)
H10 H 0.3336 0.0628 0.4703
C24 C 0.2848(4) 0.1254(5) 0.4079(3)
C25 C 0.0822(3) 0.1366(4) 0.1459(3)
C26 C 0.0952(3) 0.0515(4) 0.1293(3)
H11 H 0.1308 0.0184 0.1445
C27 C 0.0539(3) 0.0168(4) 0.0893(3)
C28 C 0.0020(4) 0.0648(5) 0.0668(3)
H12 H -0.0256 0.0399 0.0394
C29 C -0.0092(4) 0.1493(5) 0.0848(3)
H13 H -0.0446 0.1828 0.0694
C30 C 0.0305(4) 0.1859(5) 0.1247(3)
H14 H 0.0224 0.2438 0.1374
Cl1 Cl 0.29461(11) 0.41093(18) 0.26857(12)
Cl2 Cl 0.35327(12) 0.25082(17) 0.22609(14)
Cl3 Cl 0.2782(2) 0.3665(2) 0.15576(12)
C31 C 0.2859(4) 0.3235(6) 0.2213(4)
H15 H 0.2440 0.2907 0.2301
loop_
_geom_bond_atom_site_label_1
_geom_bond_atom_site_label_2
_geom_bond_site_symmetry_1
_geom_bond_site_symmetry_2
I1 C2 1_555 1_555
I2 C6 1_555 1_555
I3 C24 1_555 1_555
I4 C20 1_555 1_555
O1 C8 1_555 1_555
O2 C14 1_555 1_555
O3 C18 1_555 1_555
O4 C9 1_555 1_555
O5 C1 1_555 1_555
O6 C17 1_555 1_555
N1 C7 1_555 1_555
N2 C8 1_555 1_555
N3 C7 1_555 1_555
N4 C16 1_555 1_555
N5 C16 1_555 1_555
N6 C17 1_555 1_555
C1 C2 1_555 1_555
C2 C3 1_555 1_555
C3 H1 1_555 1_555
C4 C3 1_555 1_555
H2 C4 1_555 1_555
C5 C4 1_555 1_555
H3 C5 1_555 1_555
C6 C1 1_555 1_555
C7 O5 1_555 1_555
C8 N1 1_555 1_555
C9 N2 1_555 1_555
C10 O1 1_555 1_555
C11 C10 1_555 1_555
H4 C11 1_555 1_555
C12 C11 1_555 1_555
H5 C12 1_555 1_555
C13 C12 1_555 1_555
H6 C13 1_555 1_555
C14 C13 1_555 1_555
C15 C10 1_555 1_555
H7 C15 1_555 1_555
C16 O2 1_555 1_555
C17 N5 1_555 1_555
C18 N4 1_555 1_555
C19 O6 1_555 1_555
C20 C19 1_555 1_555
C21 C20 1_555 1_555
H8 C21 1_555 1_555
C22 C21 1_555 1_555
H9 C22 1_555 1_555
C23 C22 1_555 1_555
H10 C23 1_555 1_555
C24 C19 1_555 1_555
C25 O3 1_555 1_555
C26 C25 1_555 1_555
H11 C26 1_555 1_555
C27 O4 1_555 1_555
C28 C27 1_555 1_555
H12 C28 1_555 1_555
C29 C28 1_555 1_555
H13 C29 1_555 1_555
C30 C25 1_555 1_555
H14 C30 1_555 1_555
Cl1 C31 1_555 1_555
Cl2 C31 1_555 1_555
Cl3 C31 1_555 1_555
C31 H15 1_555 1_555
N3 C9 1_555 1_555
N6 C18 1_555 1_555
C5 C6 1_555 1_555
C14 C15 1_555 1_555
C23 C24 1_555 1_555
C26 C27 1_555 1_555
C29 C30 1_555 1_555

#END
