
#######################################################################
#
#                 Cambridge Crystallographic Data Centre
#                                CCDC 
#
#######################################################################
#
# If this CIF has been generated from an entry in the Cambridge 
# Structural Database, then it will include bibliographic, chemical, 
# crystal, experimental, refinement or atomic coordinate data resulting 
# from the CCDC's data processing and validation procedures.
#
#######################################################################

data_ISUPET
_chemical_formula_moiety         
'C30 H14 I4 N6 O6,2(C16 H36 N1 1+),C1 H1 Cl3,H2 O1,2(I1 1-)'
_chemical_name_systematic        
'bis(tetrabutylammonium) 5,17-bis(2,6-diiodophenoxy)-2,8,14,20-tetraoxa-4,6,16,18,26,28-hexaazapentacyclo[19.3.1.1^3,7^.1^9,13^.1^15,19^]octacosa-1(25),3(28),4,6,9(27),10,12,15(26),16,18,21,23-dodecaene bis(iodide) chloroform unknown solvate monohydrate'
_symmetry_cell_setting           triclinic
_symmetry_space_group_name_H-M   'P -1'
_symmetry_Int_Tables_number      2
_space_group_name_Hall           '-P 1'
loop_
_symmetry_equiv_pos_site_id
_symmetry_equiv_pos_as_xyz
1 x,y,z
2 -x,-y,-z
_cell_length_a                   12.192(3)
_cell_length_b                   18.597(4)
_cell_length_c                   20.208(5)
_cell_angle_alpha                100.349(11)
_cell_angle_beta                 97.384(13)
_cell_angle_gamma                106.389(9)
_cell_volume                     4245.5
_exptl_crystal_colour            colorless
_exptl_crystal_description       needle
_cell_formula_units_Z            2
loop_
_atom_site_label
_atom_site_type_symbol
_atom_site_fract_x
_atom_site_fract_y
_atom_site_fract_z
I1 I 0.30034(6) 0.01783(4) 0.11895(4)
I2 I -0.17634(6) -0.22257(4) 0.06009(4)
I3 I 0.60555(7) 0.29477(5) 0.37278(4)
I4 I 0.57728(10) 0.44957(6) 0.65694(5)
O1 O 0.0838(6) -0.1229(4) 0.1338(3)
O2 O -0.0273(6) 0.0707(4) 0.2465(3)
O3 O 0.1939(6) 0.2749(4) 0.4375(4)
O4 O 0.5719(6) 0.3213(4) 0.5301(4)
O5 O 0.3158(7) 0.1033(5) 0.5411(4)
O6 O 0.0810(6) -0.1046(4) 0.3557(3)
N1 N 0.0236(7) -0.0239(5) 0.1876(4)
N2 N 0.0813(6) -0.1141(5) 0.2442(4)
N3 N 0.0225(7) -0.0132(5) 0.3067(4)
N4 N 0.4448(8) 0.2120(5) 0.5360(5)
N5 N 0.3793(8) 0.3000(5) 0.4815(5)
N6 N 0.2453(7) 0.1816(5) 0.4837(5)
C1 C 0.1415(9) -0.0488(6) 0.0496(5)
C2 C 0.1222(9) -0.0383(6) -0.0164(5)
H1 H 0.1806 -0.0024 -0.0313
C3 C 0.0217(10) -0.0784(6) -0.0593(6)
H2 H 0.0088 -0.0708 -0.1045
C4 C -0.0628(10) -0.1305(6) -0.0380(6)
H3 H -0.1350 -0.1578 -0.0682
C5 C -0.0433(9) -0.1433(6) 0.0267(5)
C6 C 0.0570(9) -0.1037(6) 0.0697(5)
C7 C 0.0611(8) -0.0845(6) 0.1904(5)
C8 C 0.0618(9) -0.0736(6) 0.3006(5)
C9 C 0.0123(8) 0.0085(6) 0.2500(5)
C10 C -0.0233(9) 0.1224(6) 0.3067(5)
C11 C -0.1235(9) 0.1373(6) 0.3194(5)
H4 H -0.1961 0.1077 0.2905
C12 C -0.1191(9) 0.1947(6) 0.3733(5)
H5 H -0.1883 0.2049 0.3827
C13 C -0.0129(9) 0.2376(6) 0.4139(6)
H6 H -0.0088 0.2777 0.4515
C14 C 0.0862(9) 0.2231(6) 0.4006(5)
C15 C 0.0835(9) 0.1647(6) 0.3448(5)
H7 H 0.1527 0.1553 0.3343
C16 C 0.2757(9) 0.2508(6) 0.4690(5)
C17 C 0.4585(10) 0.2759(7) 0.5147(6)
C18 C 0.3327(9) 0.1683(7) 0.5190(6)
C19 C 0.6019(10) 0.3925(7) 0.5096(7)
C20 C 0.6264(10) 0.3959(7) 0.4466(7)
C21 C 0.6642(11) 0.4690(7) 0.4293(7)
H8 H 0.6806 0.4736 0.3853
C22 C 0.6754(11) 0.5315(7) 0.4792(7)
H9 H 0.7010 0.5808 0.4689
C23 C 0.6525(11) 0.5285(7) 0.5431(7)
H10 H 0.6624 0.5746 0.5758
C24 C 0.6146(11) 0.4577(7) 0.5601(7)
C25 C 0.2148(9) 0.0400(6) 0.5151(6)
C26 C 0.1553(9) 0.0076(6) 0.5598(5)
H11 H 0.1765 0.0311 0.6073
C27 C 0.0625(10) -0.0606(7) 0.5358(6)
H12 H 0.0181 -0.0826 0.5666
C28 C 0.0356(9) -0.0961(6) 0.4662(5)
H13 H -0.0266 -0.1428 0.4490
C29 C 0.1019(9) -0.0615(6) 0.4226(5)
C30 C 0.1902(9) 0.0048(6) 0.4460(5)
H14 H 0.2351 0.0273 0.4155
I5 I 0.55759(6) 0.13206(4) 0.23874(4)
I6 I 0.43217(7) 0.34156(5) -0.11504(4)
Cl1 Cl 0.2569(7) 0.2289(4) 0.6663(3)
Cl2 Cl 0.2332(6) 0.3802(4) 0.6757(3)
Cl3 Cl 0.1001(4) 0.2770(3) 0.7449(3)
C31 C 0.2330(13) 0.3060(9) 0.7191(8)
H15 H 0.2965 0.3264 0.7606
O7 O 0.2878(10) 0.0837(7) 0.2995(6)
H16 H 0.2340 0.0533 0.3151
H17 H 0.3197 0.0649 0.2673
N7 N 0.4999(9) 0.3603(6) 0.1249(5)
C32 C 0.6171(10) 0.4171(7) 0.1536(6)
H18 H 0.6678 0.3903 0.1737
H19 H 0.6096 0.4565 0.1913
C33 C 0.6785(11) 0.4588(7) 0.1021(6)
H20 H 0.6792 0.4205 0.0615
H21 H 0.6353 0.4925 0.0867
C34 C 0.8025(12) 0.5068(9) 0.1361(8)
H22 H 0.8464 0.4723 0.1487
H23 H 0.8012 0.5419 0.1789
C35 C 0.8649(14) 0.5539(10) 0.0901(8)
H24 H 0.8775 0.5193 0.0512
H25 H 0.9401 0.5890 0.1162
H26 H 0.8173 0.5837 0.0732
C36 C 0.4153(11) 0.3966(7) 0.0958(6)
H27 H 0.3427 0.3549 0.0727
H28 H 0.4479 0.4212 0.0601
C37 C 0.3824(11) 0.4568(8) 0.1452(6)
H29 H 0.3578 0.4357 0.1844
H30 H 0.4508 0.5034 0.1631
C38 C 0.2852(12) 0.4775(9) 0.1083(8)
H31 H 0.3155 0.5074 0.0750
H32 H 0.2246 0.4295 0.0820
C39 C 0.232(2) 0.5217(13) 0.1529(11)
H33 H 0.1720 0.5351 0.1252
H34 H 0.2917 0.5689 0.1798
H35 H 0.1968 0.4911 0.1838
C40 C 0.4594(10) 0.3275(7) 0.1841(6)
H36 H 0.4600 0.3706 0.2211
H37 H 0.5168 0.3039 0.2022
C41 C 0.3388(11) 0.2675(7) 0.1680(6)
H38 H 0.3412 0.2203 0.1373
H39 H 0.2827 0.2876 0.1432
C42 C 0.2950(11) 0.2464(7) 0.2322(6)
H40 H 0.2210 0.2034 0.2180
H41 H 0.3527 0.2287 0.2583
C43 C 0.2757(14) 0.3134(9) 0.2779(8)
H42 H 0.2068 0.3236 0.2563
H43 H 0.3440 0.3590 0.2851
H44 H 0.2639 0.3010 0.3222
C44 C 0.5040(12) 0.2973(8) 0.0684(7)
H45 H 0.5240 0.3200 0.0291
H46 H 0.4249 0.2597 0.0534
C45 C 0.5888(13) 0.2536(8) 0.0849(7)
H47 H 0.5806 0.2387 0.1291
H48 H 0.6698 0.2870 0.0892
C46 C 0.5617(15) 0.1788(9) 0.0253(8)
H49 H 0.4801 0.1464 0.0208
H50 H 0.5703 0.1943 -0.0186
C47 C 0.6396(16) 0.1340(10) 0.0388(9)
H51 H 0.6107 0.0836 0.0066
H52 H 0.6423 0.1269 0.0859
H53 H 0.7179 0.1614 0.0331
N8 N 0.4014(8) -0.1532(5) 0.2654(5)
C48 C 0.5153(9) -0.1549(7) 0.2455(6)
H54 H 0.5085 -0.2087 0.2242
H55 H 0.5763 -0.1380 0.2874
C49 C 0.5536(10) -0.1047(7) 0.1962(6)
H56 H 0.5415 -0.0543 0.2113
H57 H 0.5055 -0.1293 0.1500
C50 C 0.6836(10) -0.0922(8) 0.1929(7)
H58 H 0.7320 -0.0650 0.2385
H59 H 0.6964 -0.1428 0.1803
C51 C 0.7206(11) -0.0452(8) 0.1404(7)
H60 H 0.6762 -0.0737 0.0947
H61 H 0.8039 -0.0359 0.1408
H62 H 0.7054 0.0041 0.1519
C52 C 0.4092(9) -0.0719(7) 0.3040(6)
H63 H 0.4156 -0.0382 0.2710
H64 H 0.3354 -0.0749 0.3206
C53 C 0.5069(9) -0.0352(7) 0.3630(6)
H65 H 0.5813 -0.0255 0.3462
H66 H 0.5064 -0.0709 0.3939
C54 C 0.4995(10) 0.0422(7) 0.4039(6)
H67 H 0.4917 0.0757 0.3718
H68 H 0.4288 0.0316 0.4244
C55 C 0.6025(10) 0.0836(7) 0.4589(6)
H69 H 0.6714 0.1002 0.4385
H70 H 0.6147 0.0492 0.4886
H71 H 0.5895 0.1287 0.4860
C56 C 0.3701(10) -0.2095(7) 0.3106(6)
H72 H 0.4356 -0.1954 0.3499
H73 H 0.3637 -0.2612 0.2842
C57 C 0.2594(11) -0.2152(8) 0.3388(7)
H74 H 0.2718 -0.1683 0.3747
H75 H 0.1963 -0.2176 0.3015
C58 C 0.2223(13) -0.2841(9) 0.3683(8)
H76 H 0.2919 -0.2889 0.3961
H77 H 0.1914 -0.3304 0.3302
C59 C 0.1325(16) -0.2836(10) 0.4120(9)
H78 H 0.0659 -0.2740 0.3867
H79 H 0.1661 -0.2430 0.4538
H80 H 0.1065 -0.3336 0.4242
C60 C 0.3054(9) -0.1743(6) 0.2014(5)
H81 H 0.2323 -0.1710 0.2162
H82 H 0.3275 -0.1358 0.1735
C61 C 0.2823(11) -0.2537(7) 0.1568(6)
H83 H 0.2499 -0.2934 0.1819
H84 H 0.3561 -0.2599 0.1452
C62 C 0.1962(12) -0.2643(8) 0.0913(7)
H85 H 0.2256 -0.2208 0.0695
H86 H 0.1208 -0.2623 0.1034
C63 C 0.1752(13) -0.3409(9) 0.0385(8)
H87 H 0.1082 -0.3489 0.0025
H88 H 0.1598 -0.3837 0.0617
H89 H 0.2445 -0.3385 0.0181
loop_
_geom_bond_atom_site_label_1
_geom_bond_atom_site_label_2
_geom_bond_site_symmetry_1
_geom_bond_site_symmetry_2
I1 C1 1_555 1_555
I2 C5 1_555 1_555
I3 C20 1_555 1_555
I4 C24 1_555 1_555
O1 C6 1_555 1_555
O2 C9 1_555 1_555
O3 C14 1_555 1_555
O4 C17 1_555 1_555
O5 C18 1_555 1_555
O6 C8 1_555 1_555
N1 C7 1_555 1_555
N2 C7 1_555 1_555
N3 C8 1_555 1_555
N4 C17 1_555 1_555
N5 C16 1_555 1_555
N6 C16 1_555 1_555
C1 C2 1_555 1_555
C2 H1 1_555 1_555
C3 C2 1_555 1_555
H2 C3 1_555 1_555
C4 C3 1_555 1_555
H3 C4 1_555 1_555
C5 C4 1_555 1_555
C6 C1 1_555 1_555
C7 O1 1_555 1_555
C8 N2 1_555 1_555
C9 N1 1_555 1_555
C10 O2 1_555 1_555
C11 C10 1_555 1_555
H4 C11 1_555 1_555
C12 C11 1_555 1_555
H5 C12 1_555 1_555
C13 C12 1_555 1_555
H6 C13 1_555 1_555
C14 C13 1_555 1_555
C15 C10 1_555 1_555
H7 C15 1_555 1_555
C16 O3 1_555 1_555
C17 N5 1_555 1_555
C18 N4 1_555 1_555
C19 O4 1_555 1_555
C20 C19 1_555 1_555
C21 C20 1_555 1_555
H8 C21 1_555 1_555
C22 C21 1_555 1_555
H9 C22 1_555 1_555
C23 C22 1_555 1_555
H10 C23 1_555 1_555
C24 C19 1_555 1_555
C25 O5 1_555 1_555
C26 C25 1_555 1_555
H11 C26 1_555 1_555
C27 C26 1_555 1_555
H12 C27 1_555 1_555
C28 C27 1_555 1_555
H13 C28 1_555 1_555
C29 O6 1_555 1_555
C30 C25 1_555 1_555
H14 C30 1_555 1_555
Cl1 C31 1_555 1_555
Cl2 C31 1_555 1_555
Cl3 C31 1_555 1_555
C31 H15 1_555 1_555
O7 H16 1_555 1_555
H17 O7 1_555 1_555
N7 C32 1_555 1_555
C32 H18 1_555 1_555
H19 C32 1_555 1_555
C33 C32 1_555 1_555
H20 C33 1_555 1_555
H21 C33 1_555 1_555
C34 C33 1_555 1_555
H22 C34 1_555 1_555
H23 C34 1_555 1_555
C35 C34 1_555 1_555
H24 C35 1_555 1_555
H25 C35 1_555 1_555
H26 C35 1_555 1_555
C36 N7 1_555 1_555
H27 C36 1_555 1_555
H28 C36 1_555 1_555
C37 C36 1_555 1_555
H29 C37 1_555 1_555
H30 C37 1_555 1_555
C38 C37 1_555 1_555
H31 C38 1_555 1_555
H32 C38 1_555 1_555
C39 C38 1_555 1_555
H33 C39 1_555 1_555
H34 C39 1_555 1_555
H35 C39 1_555 1_555
C40 N7 1_555 1_555
H36 C40 1_555 1_555
H37 C40 1_555 1_555
C41 C40 1_555 1_555
H38 C41 1_555 1_555
H39 C41 1_555 1_555
C42 C41 1_555 1_555
H40 C42 1_555 1_555
H41 C42 1_555 1_555
C43 C42 1_555 1_555
H42 C43 1_555 1_555
H43 C43 1_555 1_555
H44 C43 1_555 1_555
C44 N7 1_555 1_555
H45 C44 1_555 1_555
H46 C44 1_555 1_555
C45 C44 1_555 1_555
H47 C45 1_555 1_555
H48 C45 1_555 1_555
C46 C45 1_555 1_555
H49 C46 1_555 1_555
H50 C46 1_555 1_555
C47 C46 1_555 1_555
H51 C47 1_555 1_555
H52 C47 1_555 1_555
H53 C47 1_555 1_555
N8 C48 1_555 1_555
C48 H54 1_555 1_555
H55 C48 1_555 1_555
C49 C48 1_555 1_555
H56 C49 1_555 1_555
H57 C49 1_555 1_555
C50 C49 1_555 1_555
H58 C50 1_555 1_555
H59 C50 1_555 1_555
C51 C50 1_555 1_555
H60 C51 1_555 1_555
H61 C51 1_555 1_555
H62 C51 1_555 1_555
C52 N8 1_555 1_555
H63 C52 1_555 1_555
H64 C52 1_555 1_555
C53 C52 1_555 1_555
H65 C53 1_555 1_555
H66 C53 1_555 1_555
C54 C53 1_555 1_555
H67 C54 1_555 1_555
H68 C54 1_555 1_555
C55 C54 1_555 1_555
H69 C55 1_555 1_555
H70 C55 1_555 1_555
H71 C55 1_555 1_555
C56 N8 1_555 1_555
H72 C56 1_555 1_555
H73 C56 1_555 1_555
C57 C56 1_555 1_555
H74 C57 1_555 1_555
H75 C57 1_555 1_555
C58 C57 1_555 1_555
H76 C58 1_555 1_555
H77 C58 1_555 1_555
C59 C58 1_555 1_555
H78 C59 1_555 1_555
H79 C59 1_555 1_555
H80 C59 1_555 1_555
C60 N8 1_555 1_555
H81 C60 1_555 1_555
H82 C60 1_555 1_555
C61 C60 1_555 1_555
H83 C61 1_555 1_555
H84 C61 1_555 1_555
C62 C61 1_555 1_555
H85 C62 1_555 1_555
H86 C62 1_555 1_555
C63 C62 1_555 1_555
H87 C63 1_555 1_555
H88 C63 1_555 1_555
H89 C63 1_555 1_555
N3 C9 1_555 1_555
N6 C18 1_555 1_555
C5 C6 1_555 1_555
C14 C15 1_555 1_555
C23 C24 1_555 1_555
C28 C29 1_555 1_555
C29 C30 1_555 1_555

#END
