
#######################################################################
#
#                 Cambridge Crystallographic Data Centre
#                                CCDC 
#
#######################################################################
#
# If this CIF has been generated from an entry in the Cambridge 
# Structural Database, then it will include bibliographic, chemical, 
# crystal, experimental, refinement or atomic coordinate data resulting 
# from the CCDC's data processing and validation procedures.
#
#######################################################################

data_ISUVOI
_chemical_formula_moiety         'C11 H9 I1 N2'
_chemical_name_systematic        
1-(Iodomethylene)-2,3-dihydro-1H-pyrrolo[1,2-a]benzimidazole
_symmetry_cell_setting           monoclinic
_symmetry_space_group_name_H-M   'P 21/c'
_symmetry_Int_Tables_number      14
_space_group_name_Hall           '-P 2ybc'
loop_
_symmetry_equiv_pos_site_id
_symmetry_equiv_pos_as_xyz
1 x,y,z
2 -x,1/2+y,1/2-z
3 -x,-y,-z
4 x,1/2-y,1/2+z
_cell_length_a                   7.6327(6)
_cell_length_b                   19.5707(16)
_cell_length_c                   13.7679(11)
_cell_angle_alpha                90
_cell_angle_beta                 92.431(2)
_cell_angle_gamma                90
_cell_volume                     2054.76
_exptl_crystal_colour            yellow
_exptl_crystal_description       prismatic
_cell_formula_units_Z            8
loop_
_atom_site_label
_atom_site_type_symbol
_atom_site_fract_x
_atom_site_fract_y
_atom_site_fract_z
I1 I 0.34647(4) 0.555935(13) 0.68554(2)
N1 N 0.4919(4) 0.72100(15) 0.4956(2)
N2 N 0.5524(5) 0.77224(18) 0.3564(2)
C1 C 0.4205(5) 0.65032(18) 0.6316(3)
H1 H 0.4426 0.6864 0.6743
C2 C 0.4360(5) 0.65939(18) 0.5392(3)
C3 C 0.4054(6) 0.6096(2) 0.4562(3)
H2 H 0.2832 0.5959 0.4513
H3 H 0.4770 0.5691 0.4666
C4 C 0.4560(7) 0.6464(2) 0.3634(3)
H4 H 0.5547 0.6241 0.3345
H5 H 0.3582 0.6476 0.3160
C5 C 0.5034(5) 0.7163(2) 0.3968(3)
C6 C 0.5761(5) 0.8183(2) 0.4338(3)
C7 C 0.5394(5) 0.78664(18) 0.5222(3)
C8 C 0.5494(5) 0.82050(19) 0.6089(3)
H6 H 0.5241 0.7990 0.6669
C9 C 0.5993(6) 0.8886(2) 0.6062(3)
H7 H 0.6086 0.9134 0.6638
C10 C 0.6355(5) 0.9203(2) 0.5199(3)
H8 H 0.6676 0.9661 0.5205
C11 C 0.6254(6) 0.8860(2) 0.4334(3)
H9 H 0.6511 0.9079 0.3757
I2 I 0.09486(5) 0.543238(14) 0.20417(2)
N3 N 0.0232(4) 0.72330(14) 0.02467(19)
N4 N 0.0137(5) 0.78667(18) -0.1103(2)
C12 C 0.0470(5) 0.64181(17) 0.1567(3)
H10 H 0.0152 0.6750 0.2009
C13 C 0.0610(5) 0.65821(17) 0.0646(3)
C14 C 0.1201(5) 0.61473(19) -0.0184(2)
H11 H 0.0443 0.5752 -0.0272
H12 H 0.2393 0.5990 -0.0055
C15 C 0.1094(6) 0.6602(2) -0.1091(3)
H13 H 0.2231 0.6641 -0.1376
H14 H 0.0259 0.6421 -0.1575
C16 C 0.0501(5) 0.7278(2) -0.0724(3)
C17 C -0.0425(5) 0.8251(2) -0.0316(3)
C18 C -0.0394(4) 0.78627(17) 0.0531(3)
C19 C -0.0904(5) 0.81186(19) 0.1407(3)
H15 H -0.0870 0.7855 0.1969
C20 C -0.1469(5) 0.8786(2) 0.1404(3)
H16 H -0.1858 0.8976 0.1976
C21 C -0.1471(6) 0.9182(2) 0.0576(3)
H17 H -0.1823 0.9636 0.0610
C22 C -0.0975(5) 0.8928(2) -0.0293(3)
H18 H -0.1004 0.9197 -0.0850
loop_
_geom_bond_atom_site_label_1
_geom_bond_atom_site_label_2
_geom_bond_site_symmetry_1
_geom_bond_site_symmetry_2
I1 C1 1_555 1_555
I2 C12 1_555 1_555
N1 C2 1_555 1_555
N2 C5 1_555 1_555
N3 C13 1_555 1_555
N4 C16 1_555 1_555
C1 H1 1_555 1_555
C2 C1 1_555 1_555
C3 C2 1_555 1_555
H2 C3 1_555 1_555
H3 C3 1_555 1_555
C4 C3 1_555 1_555
H4 C4 1_555 1_555
H5 C4 1_555 1_555
C5 N1 1_555 1_555
C6 N2 1_555 1_555
C7 N1 1_555 1_555
C8 C7 1_555 1_555
H6 C8 1_555 1_555
C9 C8 1_555 1_555
H7 C9 1_555 1_555
C10 C9 1_555 1_555
H8 C10 1_555 1_555
C11 C6 1_555 1_555
H9 C11 1_555 1_555
C12 H10 1_555 1_555
C13 C12 1_555 1_555
C14 C13 1_555 1_555
H11 C14 1_555 1_555
H12 C14 1_555 1_555
C15 C14 1_555 1_555
H13 C15 1_555 1_555
H14 C15 1_555 1_555
C16 N3 1_555 1_555
C17 N4 1_555 1_555
C18 N3 1_555 1_555
C19 C18 1_555 1_555
H15 C19 1_555 1_555
C20 C19 1_555 1_555
H16 C20 1_555 1_555
C21 C20 1_555 1_555
H17 C21 1_555 1_555
C22 C17 1_555 1_555
H18 C22 1_555 1_555
C4 C5 1_555 1_555
C6 C7 1_555 1_555
C10 C11 1_555 1_555
C15 C16 1_555 1_555
C17 C18 1_555 1_555
C21 C22 1_555 1_555

#END
