
#######################################################################
#
#                 Cambridge Crystallographic Data Centre
#                                CCDC 
#
#######################################################################
#
# If this CIF has been generated from an entry in the Cambridge 
# Structural Database, then it will include bibliographic, chemical, 
# crystal, experimental, refinement or atomic coordinate data resulting 
# from the CCDC's data processing and validation procedures.
#
#######################################################################

data_ISUWUQ
_chemical_formula_moiety         'C13 H16 B1 N1 O1'
_chemical_name_systematic        
1,3,5-trimethyl-4-phenoxy-1,4-dihydro-1,4-azaborinine
_symmetry_cell_setting           monoclinic
_symmetry_space_group_name_H-M   'P 21/n'
_symmetry_Int_Tables_number      14
_space_group_name_Hall           '-P 2yn'
loop_
_symmetry_equiv_pos_site_id
_symmetry_equiv_pos_as_xyz
1 x,y,z
2 1/2-x,1/2+y,1/2-z
3 -x,-y,-z
4 1/2+x,1/2-y,1/2+z
_cell_length_a                   10.7805(9)
_cell_length_b                   8.1240(6)
_cell_length_c                   13.8387(11)
_cell_angle_alpha                90
_cell_angle_beta                 91.305(3)
_cell_angle_gamma                90
_cell_volume                     1211.69
_exptl_crystal_colour            colorless
_exptl_crystal_description       needle
_cell_formula_units_Z            4
loop_
_atom_site_label
_atom_site_type_symbol
_atom_site_fract_x
_atom_site_fract_y
_atom_site_fract_z
B1 B 0.81121(17) 0.1584(3) 0.40652(14)
C1 C 0.79088(15) 0.2962(2) 0.47827(12)
C2 C 0.83212(16) 0.4481(2) 0.45276(13)
H1 H 0.8195 0.5363 0.4965
C3 C 0.90983(16) 0.3622(2) 0.30141(12)
H2 H 0.9493 0.3916 0.2432
C4 C 0.87556(15) 0.2028(2) 0.31369(12)
C5 C 0.72672(17) 0.2846(2) 0.57454(12)
H3 H 0.7181 0.3951 0.6020
H4 H 0.7763 0.2159 0.6190
H5 H 0.6444 0.2354 0.5647
C6 C 0.92484(18) 0.6533(2) 0.34663(14)
H6 H 0.8505 0.7150 0.3265
H7 H 0.9848 0.6545 0.2944
H8 H 0.9621 0.7044 0.4045
C7 C 0.90670(17) 0.0777(2) 0.23710(12)
H9 H 0.9366 0.1347 0.1797
H10 H 0.8323 0.0140 0.2198
H11 H 0.9714 0.0034 0.2622
C8 C 0.73837(16) -0.0851(2) 0.49776(12)
C9 C 0.62009(17) -0.1498(2) 0.50155(13)
H12 H 0.5630 -0.1333 0.4491
C10 C 0.58454(17) -0.2388(2) 0.58169(13)
H13 H 0.5030 -0.2826 0.5842
C11 C 0.66726(17) -0.2640(2) 0.65792(13)
H14 H 0.6430 -0.3253 0.7128
C12 C 0.78579(16) -0.1991(2) 0.65376(12)
H15 H 0.8426 -0.2151 0.7064
C13 C 0.82226(17) -0.1111(2) 0.57341(13)
H16 H 0.9043 -0.0690 0.5703
N1 N 0.89055(13) 0.48250(18) 0.36835(10)
O1 O 0.77416(11) -0.00706(15) 0.41504(8)
loop_
_geom_bond_atom_site_label_1
_geom_bond_atom_site_label_2
_geom_bond_site_symmetry_1
_geom_bond_site_symmetry_2
B1 C1 1_555 1_555
C1 C2 1_555 1_555
C2 H1 1_555 1_555
C3 H2 1_555 1_555
C4 B1 1_555 1_555
C5 C1 1_555 1_555
H3 C5 1_555 1_555
H4 C5 1_555 1_555
H5 C5 1_555 1_555
C6 H6 1_555 1_555
H7 C6 1_555 1_555
H8 C6 1_555 1_555
C7 C4 1_555 1_555
H9 C7 1_555 1_555
H10 C7 1_555 1_555
H11 C7 1_555 1_555
C8 C9 1_555 1_555
C9 H12 1_555 1_555
C10 C9 1_555 1_555
H13 C10 1_555 1_555
C11 C10 1_555 1_555
H14 C11 1_555 1_555
C12 C11 1_555 1_555
H15 C12 1_555 1_555
C13 C8 1_555 1_555
H16 C13 1_555 1_555
N1 C2 1_555 1_555
O1 B1 1_555 1_555
C3 C4 1_555 1_555
C3 N1 1_555 1_555
C6 N1 1_555 1_555
C8 O1 1_555 1_555
C12 C13 1_555 1_555

#END
