
#######################################################################
#
#                 Cambridge Crystallographic Data Centre
#                                CCDC 
#
#######################################################################
#
# If this CIF has been generated from an entry in the Cambridge 
# Structural Database, then it will include bibliographic, chemical, 
# crystal, experimental, refinement or atomic coordinate data resulting 
# from the CCDC's data processing and validation procedures.
#
#######################################################################

data_ISUWIE
_chemical_formula_moiety         'C16 H22 B1 N1'
_chemical_name_systematic        
4-mesityl-1,3,5-trimethyl-1,4-dihydro-1,4-azaborinine
_symmetry_cell_setting           monoclinic
_symmetry_space_group_name_H-M   'P 21/c'
_symmetry_Int_Tables_number      14
_space_group_name_Hall           '-P 2ybc'
loop_
_symmetry_equiv_pos_site_id
_symmetry_equiv_pos_as_xyz
1 x,y,z
2 -x,1/2+y,1/2-z
3 -x,-y,-z
4 x,1/2-y,1/2+z
_cell_length_a                   7.9150(12)
_cell_length_b                   8.6290(13)
_cell_length_c                   21.576(3)
_cell_angle_alpha                90
_cell_angle_beta                 96.845(3)
_cell_angle_gamma                90
_cell_volume                     1463.11
_exptl_crystal_colour            colorless
_exptl_crystal_description       block
_cell_formula_units_Z            4
loop_
_atom_site_label
_atom_site_type_symbol
_atom_site_fract_x
_atom_site_fract_y
_atom_site_fract_z
N1 N 0.65206(16) -0.10664(16) 0.70635(6)
B1 B 0.8580(2) 0.1168(2) 0.65376(8)
C1 C 0.74368(19) -0.00269(19) 0.74472(8)
C2 C 0.84425(19) 0.10846(19) 0.72305(7)
C3 C 0.75448(19) -0.00211(19) 0.61418(7)
C4 C 0.6583(2) -0.1049(2) 0.64328(8)
C5 C 0.5442(2) -0.2211(2) 0.73298(10)
C6 C 0.9402(2) 0.2159(2) 0.76993(8)
C7 C 0.7494(3) -0.0138(3) 0.54419(9)
C8 C 0.97214(19) 0.24327(19) 0.62527(7)
C9 C 1.13895(19) 0.2095(2) 0.61215(7)
C10 C 1.2360(2) 0.3235(2) 0.58752(7)
C11 C 1.1741(2) 0.4720(2) 0.57494(7)
C12 C 1.0101(2) 0.5053(2) 0.58715(7)
C13 C 0.91014(19) 0.39489(19) 0.61234(7)
C14 C 1.2122(2) 0.0501(2) 0.62530(9)
C15 C 1.2815(3) 0.5954(3) 0.54977(10)
C16 C 0.7338(2) 0.4386(3) 0.62589(10)
H1 H 0.7320(19) -0.0180(19) 0.7883(8)
H2 H 0.585(2) -0.186(2) 0.6197(8)
H3 H 0.561(3) -0.218(3) 0.7782(13)
H4 H 0.556(4) -0.324(4) 0.7167(13)
H5 H 0.429(4) -0.195(3) 0.7237(12)
H6 H 0.928(3) 0.327(3) 0.7546(10)
H7 H 0.902(3) 0.209(2) 0.8113(10)
H8 H 1.063(3) 0.192(3) 0.7751(10)
H9 H 0.863(3) -0.024(3) 0.5312(11)
H10 H 0.674(3) -0.099(3) 0.5256(11)
H11 H 0.701(3) 0.078(3) 0.5233(12)
H12 H 1.353(2) 0.298(2) 0.5793(8)
H13 H 0.963(2) 0.613(2) 0.5784(8)
H14 H 1.145(3) -0.033(3) 0.6004(11)
H15 H 1.325(3) 0.044(3) 0.6146(11)
H16 H 1.215(3) 0.022(3) 0.6695(11)
H17 H 1.312(3) 0.674(3) 0.5806(13)
H18 H 1.223(3) 0.650(3) 0.5174(12)
H19 H 1.384(3) 0.555(3) 0.5364(12)
H20 H 0.726(3) 0.442(3) 0.6719(13)
H21 H 0.648(3) 0.364(3) 0.6068(11)
H22 H 0.699(3) 0.544(3) 0.6111(10)
loop_
_geom_bond_atom_site_label_1
_geom_bond_atom_site_label_2
_geom_bond_site_symmetry_1
_geom_bond_site_symmetry_2
N1 C1 1_555 1_555
B1 C2 1_555 1_555
C1 C2 1_555 1_555
C2 C6 1_555 1_555
C3 B1 1_555 1_555
C4 N1 1_555 1_555
C5 N1 1_555 1_555
C6 H6 1_555 1_555
C7 C3 1_555 1_555
C8 B1 1_555 1_555
C9 C8 1_555 1_555
C10 C9 1_555 1_555
C11 C10 1_555 1_555
C12 C11 1_555 1_555
C13 C8 1_555 1_555
C14 C9 1_555 1_555
C15 C11 1_555 1_555
C16 C13 1_555 1_555
H1 C1 1_555 1_555
H2 C4 1_555 1_555
H3 C5 1_555 1_555
H4 C5 1_555 1_555
H5 C5 1_555 1_555
H7 C6 1_555 1_555
H8 C6 1_555 1_555
H9 C7 1_555 1_555
H10 C7 1_555 1_555
H11 C7 1_555 1_555
H12 C10 1_555 1_555
H13 C12 1_555 1_555
H14 C14 1_555 1_555
H15 C14 1_555 1_555
H16 C14 1_555 1_555
H17 C15 1_555 1_555
H18 C15 1_555 1_555
H19 C15 1_555 1_555
H20 C16 1_555 1_555
H21 C16 1_555 1_555
H22 C16 1_555 1_555
C3 C4 1_555 1_555
C12 C13 1_555 1_555

#END
