
#######################################################################
#
#                 Cambridge Crystallographic Data Centre
#                                CCDC 
#
#######################################################################
#
# If this CIF has been generated from an entry in the Cambridge 
# Structural Database, then it will include bibliographic, chemical, 
# crystal, experimental, refinement or atomic coordinate data resulting 
# from the CCDC's data processing and validation procedures.
#
#######################################################################

data_ITAKIY
_chemical_formula_moiety         'C21 H22 N2 O1'
_chemical_name_systematic        
1-(Piperidin-1-yl(pyridin-4-yl)methyl)-2-naphthol
_symmetry_cell_setting           monoclinic
_symmetry_space_group_name_H-M   'C c'
_symmetry_Int_Tables_number      9
_space_group_name_Hall           'C -2yc'
loop_
_symmetry_equiv_pos_site_id
_symmetry_equiv_pos_as_xyz
1 x,y,z
2 x,-y,1/2+z
3 1/2+x,1/2+y,z
4 1/2+x,1/2-y,1/2+z
_cell_length_a                   14.7371(17)
_cell_length_b                   16.6050(18)
_cell_length_c                   6.9631(8)
_cell_angle_alpha                90
_cell_angle_beta                 91.337(2)
_cell_angle_gamma                90
_cell_volume                     1703.47
_exptl_crystal_colour            colorless
_exptl_crystal_description       prism
_cell_formula_units_Z            4
loop_
_atom_site_label
_atom_site_type_symbol
_atom_site_fract_x
_atom_site_fract_y
_atom_site_fract_z
O1 O 0.74433(13) 0.35889(11) 0.2129(3)
H1 H 0.774(2) 0.3469(16) 0.324(5)
C1 C 0.65740(16) 0.37348(12) 0.2616(3)
C2 C 0.60124(18) 0.41032(14) 0.1197(3)
H2 H 0.6257 0.4246 0.0026
C3 C 0.51312(18) 0.42505(13) 0.1510(3)
H3 H 0.4776 0.4491 0.0550
C4 C 0.47340(16) 0.40460(12) 0.3274(3)
C5 C 0.38063(16) 0.41819(14) 0.3606(4)
H4 H 0.3443 0.4410 0.2640
C6 C 0.34330(18) 0.39869(17) 0.5308(4)
H5 H 0.2819 0.4078 0.5504
C7 C 0.39768(18) 0.36488(16) 0.6758(4)
H6 H 0.3722 0.3519 0.7928
C8 C 0.48717(17) 0.35049(13) 0.6496(4)
H7 H 0.5216 0.3274 0.7488
C9 C 0.52938(15) 0.36974(11) 0.4747(3)
C10 C 0.62325(15) 0.35455(11) 0.4406(3)
C11 C 0.68276(14) 0.31484(12) 0.5972(3)
H8 H 0.6632 0.3349 0.7220
C12 C 0.79348(16) 0.42216(12) 0.6301(4)
H9 H 0.7818 0.4292 0.7655
H10 H 0.7511 0.4557 0.5574
C13 C 0.88906(18) 0.44777(15) 0.5900(4)
H11 H 0.8971 0.5037 0.6272
H12 H 0.8993 0.4437 0.4532
C14 C 0.95798(19) 0.39654(17) 0.6975(4)
H13 H 0.9543 0.4066 0.8343
H14 H 1.0186 0.4104 0.6577
C15 C 0.93961(17) 0.30860(16) 0.6564(5)
H15 H 0.9527 0.2972 0.5232
H16 H 0.9797 0.2758 0.7365
C16 C 0.84262(16) 0.28637(14) 0.6940(4)
H17 H 0.8329 0.2300 0.6637
H18 H 0.8304 0.2942 0.8290
C17 C 0.66800(14) 0.22405(11) 0.5930(3)
C18 C 0.68280(15) 0.17896(12) 0.4304(4)
H19 H 0.7007 0.2038 0.3177
C19 C 0.67067(17) 0.09637(13) 0.4370(4)
H20 H 0.6828 0.0669 0.3269
C20 C 0.62680(18) 0.10069(14) 0.7432(4)
H21 H 0.6057 0.0745 0.8515
C21 C 0.63924(17) 0.18324(13) 0.7537(4)
H22 H 0.6284 0.2108 0.8671
N1 N 0.64297(15) 0.05663(11) 0.5897(3)
N2 N 0.77967(12) 0.33646(10) 0.5760(3)
loop_
_geom_bond_atom_site_label_1
_geom_bond_atom_site_label_2
_geom_bond_site_symmetry_1
_geom_bond_site_symmetry_2
O1 H1 1_555 1_555
C1 O1 1_555 1_555
C2 C1 1_555 1_555
H2 C2 1_555 1_555
C3 C2 1_555 1_555
H3 C3 1_555 1_555
C4 C3 1_555 1_555
C5 C4 1_555 1_555
H4 C5 1_555 1_555
C6 C5 1_555 1_555
H5 C6 1_555 1_555
C7 C6 1_555 1_555
H6 C7 1_555 1_555
C8 C7 1_555 1_555
H7 C8 1_555 1_555
C9 C4 1_555 1_555
C10 C1 1_555 1_555
C11 C10 1_555 1_555
H8 C11 1_555 1_555
C12 H9 1_555 1_555
H10 C12 1_555 1_555
C13 C12 1_555 1_555
H11 C13 1_555 1_555
H12 C13 1_555 1_555
C14 C13 1_555 1_555
H13 C14 1_555 1_555
H14 C14 1_555 1_555
C15 C14 1_555 1_555
H15 C15 1_555 1_555
H16 C15 1_555 1_555
C16 C15 1_555 1_555
H17 C16 1_555 1_555
H18 C16 1_555 1_555
C17 C11 1_555 1_555
C18 C17 1_555 1_555
H19 C18 1_555 1_555
C19 C18 1_555 1_555
H20 C19 1_555 1_555
C20 H21 1_555 1_555
C21 C17 1_555 1_555
H22 C21 1_555 1_555
N1 C19 1_555 1_555
N2 C11 1_555 1_555
C8 C9 1_555 1_555
C9 C10 1_555 1_555
C12 N2 1_555 1_555
C16 N2 1_555 1_555
C20 C21 1_555 1_555
C20 N1 1_555 1_555

#END
