
#######################################################################
#
#                 Cambridge Crystallographic Data Centre
#                                CCDC 
#
#######################################################################
#
# If this CIF has been generated from an entry in the Cambridge 
# Structural Database, then it will include bibliographic, chemical, 
# crystal, experimental, refinement or atomic coordinate data resulting 
# from the CCDC's data processing and validation procedures.
#
#######################################################################

data_ITAKET
_chemical_formula_moiety         'C64 H116 K2 N8 O12 Si4'
_chemical_name_systematic        
(\m~2~-\h^2^,\h^2^-tetrakis(\m~2~-1,2-bis(ethylamido)benzene)-tetra-silicon)-bis(tris(1,2-dimethoxyethane)-potassium)
_symmetry_cell_setting           monoclinic
_symmetry_space_group_name_H-M   'P 21/n'
_symmetry_Int_Tables_number      14
_space_group_name_Hall           '-P 2yn'
loop_
_symmetry_equiv_pos_site_id
_symmetry_equiv_pos_as_xyz
1 x,y,z
2 1/2+x,1/2-y,1/2+z
3 -x,-y,-z
4 1/2-x,1/2+y,1/2-z
_cell_length_a                   12.7165(2)
_cell_length_b                   19.0891(4)
_cell_length_c                   17.2205(4)
_cell_angle_alpha                90
_cell_angle_beta                 109.724(1)
_cell_angle_gamma                90
_cell_volume                     3934.96
_exptl_crystal_colour            yellow
_exptl_crystal_description       prism
_cell_formula_units_Z            2
_exptl_crystal_recrystallization_method dimethoxyethane
loop_
_atom_site_label
_atom_site_type_symbol
_atom_site_fract_x
_atom_site_fract_y
_atom_site_fract_z
K1 K 1.26503(8) -0.11937(5) -0.30756(7)
Si1 Si 0.97634(8) 0.08336(6) -0.00880(6)
Si2 Si 1.05852(8) 0.00414(6) -0.06970(6)
O1 O 1.4966(3) -0.1069(2) -0.2776(3)
O2 O 1.3876(4) -0.2343(2) -0.3246(3)
O3 O 1.2780(4) -0.0759(3) -0.4636(3)
O4 O 1.0815(5) -0.1337(4) -0.4590(4)
O5 O 1.1216(4) -0.2121(3) -0.2695(5)
O6 O 1.3237(5) -0.1684(3) -0.1516(3)
N1 N 0.8656(2) 0.14198(17) -0.0672(2)
N2 N 1.0466(3) 0.16169(18) 0.0401(2)
N3 N 1.1967(2) 0.0183(2) -0.0746(2)
N4 N 1.0160(3) -0.00230(19) -0.1810(2)
C1 C 0.8765(3) 0.2099(2) -0.0382(3)
C2 C 0.9829(4) 0.2212(2) 0.0244(3)
C3 C 1.0075(5) 0.2870(3) 0.0604(3)
H1 H 1.0783 0.2953 0.1012
C4 C 0.9295(6) 0.3408(3) 0.0373(4)
H2 H 0.9468 0.3855 0.0628
C5 C 0.8281(6) 0.3297(3) -0.0219(4)
H3 H 0.7753 0.3668 -0.037
C6 C 0.8005(4) 0.2646(3) -0.0609(3)
H4 H 0.7301 0.258 -0.1027
C7 C 0.7671(3) 0.1213(3) -0.1346(3)
H5 H 0.7002 0.1394 -0.1241
H6 H 0.7624 0.0696 -0.1363
C8 C 0.7662(5) 0.1482(4) -0.2190(3)
H7 H 0.6978 0.1325 -0.262
H8 H 0.8314 0.1297 -0.2305
H9 H 0.769 0.1995 -0.2183
C9 C 1.1609(4) 0.1651(3) 0.0978(4)
H10 H 1.1875 0.117 0.1159
H11 H 1.1619 0.192 0.1472
C10 C 1.2403(5) 0.1994(4) 0.0597(6)
H12 H 1.3158 0.2005 0.1003
H13 H 1.2152 0.2474 0.0428
H14 H 1.2406 0.1724 0.0113
C11 C 1.2032(3) 0.0241(2) -0.1521(3)
C12 C 1.0971(3) 0.0121(2) -0.2143(3)
C13 C 1.0880(4) 0.0177(3) -0.2973(3)
H15 H 1.0184 0.009 -0.3393
C14 C 1.1812(5) 0.0361(3) -0.3189(4)
H16 H 1.1739 0.0411 -0.3753
C15 C 1.2818(5) 0.0468(2) -0.2597(4)
H17 H 1.3445 0.0586 -0.2752
C16 C 1.2949(4) 0.0406(2) -0.1755(3)
H18 H 1.3661 0.0476 -0.1347
C17 C 1.2976(3) 0.0231(3) -0.0032(3)
H19 H 1.2773 0.0306 0.0468
H20 H 1.342 0.0639 -0.0096
C18 C 1.3696(5) -0.0445(4) 0.0077(4)
H21 H 1.4372 -0.0395 0.0562
H22 H 1.3907 -0.0517 -0.0415
H23 H 1.3263 -0.0848 0.0152
C19 C 0.9025(4) -0.0182(4) -0.2350(3)
H24 H 0.8799 0.0162 -0.2806
H25 H 0.8509 -0.0133 -0.2033
C20 C 0.8917(6) -0.0922(5) -0.2712(5)
H26 H 0.8142 -0.1003 -0.3067
H27 H 0.9125 -0.1266 -0.2263
H28 H 0.9413 -0.0971 -0.3038
C21 C 1.5426(5) -0.1617(4) -0.3097(4)
H29 H 1.5571 -0.1441 -0.3592
H30 H 1.6158 -0.174 -0.2684
C22 C 1.4821(8) -0.2205(5) -0.3307(8)
H31 H 1.4724 -0.2281 -0.3895
H32 H 1.5322 -0.2584 -0.3
C23 C 1.5667(6) -0.0503(4) -0.2440(6)
H33 H 1.5257 -0.0152 -0.224
H34 H 1.5925 -0.0294 -0.2864
H35 H 1.6313 -0.0667 -0.1979
C24 C 1.3638(10) -0.3028(4) -0.3153(7)
H36 H 1.2894 -0.3063 -0.3105
H37 H 1.4195 -0.3218 -0.2654
H38 H 1.3654 -0.3297 -0.3634
C25 C 1.1937(10) -0.0954(7) -0.5331(5)
H39 H 1.1633 -0.0521 -0.5642
H40 H 1.2276 -0.123 -0.5673
C26 C 1.1077(9) -0.1320(6) -0.5275(6)
H41 H 1.1195 -0.1811 -0.541
H42 H 1.0406 -0.1151 -0.5722
C27 C 1.3518(9) -0.0311(5) -0.4759(6)
H43 H 1.4099 -0.0206 -0.423
H44 H 1.3135 0.0123 -0.5001
H45 H 1.386 -0.0522 -0.5135
C28 C 0.9740(7) -0.1328(6) -0.4670(6)
H46 H 0.9664 -0.1343 -0.4123
H47 H 0.9368 -0.1736 -0.4991
H48 H 0.9395 -0.0899 -0.4955
C29 C 1.1489(13) -0.2108(19) -0.1827(16)
H49 H 1.0883 -0.1839 -0.1724
H50 H 1.1409 -0.2597 -0.1664
C30 C 1.230(2) -0.1906(10) -0.1354(11)
H51 H 1.2565 -0.2283 -0.0939
H52 H 1.2086 -0.151 -0.1069
C31 C 1.0651(9) -0.2714(6) -0.3074(13)
H53 H 1.0479 -0.2676 -0.3671
H54 H 0.9955 -0.2758 -0.2952
H55 H 1.1119 -0.3127 -0.2867
C32 C 1.4293(12) -0.1950(8) -0.1062(6)
H56 H 1.4857 -0.1739 -0.126
H57 H 1.4295 -0.2459 -0.1131
H58 H 1.4464 -0.1837 -0.0477
Si2B Si 0.94148(8) -0.00414(6) 0.06970(6)
Si1B Si 1.02366(8) -0.08336(6) 0.00880(6)
N1B N 1.1344(2) -0.14198(17) 0.0672(2)
C1B C 1.1235(3) -0.2099(2) 0.0382(3)
C2B C 1.0171(4) -0.2212(2) -0.0244(3)
N2B N 0.9534(3) -0.16169(18) -0.0401(2)
C9B C 0.8391(4) -0.1651(3) -0.0978(4)
H10B H 0.8125 -0.117 -0.1159
H11B H 0.8381 -0.192 -0.1472
C10B C 0.7597(5) -0.1994(4) -0.0597(6)
H12B H 0.6842 -0.2005 -0.1003
H13B H 0.7848 -0.2474 -0.0428
H14B H 0.7594 -0.1724 -0.0113
C3B C 0.9925(5) -0.2870(3) -0.0604(3)
H1B H 0.9217 -0.2953 -0.1012
C4B C 1.0705(6) -0.3408(3) -0.0373(4)
H2B H 1.0532 -0.3855 -0.0628
C5B C 1.1719(6) -0.3297(3) 0.0219(4)
H3B H 1.2247 -0.3668 0.037
C6B C 1.1995(4) -0.2646(3) 0.0609(3)
H4B H 1.2699 -0.258 0.1027
C7B C 1.2329(3) -0.1213(3) 0.1346(3)
H5B H 1.2998 -0.1394 0.1241
H6B H 1.2376 -0.0696 0.1363
C8B C 1.2338(5) -0.1482(4) 0.2190(3)
H7B H 1.3022 -0.1325 0.262
H8B H 1.1686 -0.1297 0.2305
H9B H 1.231 -0.1995 0.2183
N3B N 0.8033(2) -0.0183(2) 0.0746(2)
C11B C 0.7968(3) -0.0241(2) 0.1521(3)
C12B C 0.9029(3) -0.0121(2) 0.2143(3)
N4B N 0.9840(3) 0.00230(19) 0.1810(2)
C19B C 1.0975(4) 0.0182(4) 0.2350(3)
H24B H 1.1201 -0.0162 0.2806
H25B H 1.1491 0.0133 0.2033
C20B C 1.1083(6) 0.0922(5) 0.2712(5)
H26B H 1.1858 0.1003 0.3067
H27B H 1.0875 0.1266 0.2263
H28B H 1.0587 0.0971 0.3038
C13B C 0.9120(4) -0.0177(3) 0.2973(3)
H15B H 0.9816 -0.009 0.3393
C14B C 0.8188(5) -0.0361(3) 0.3189(4)
K1B K 0.73497(8) 0.11937(5) 0.30756(7)
O1B O 0.5034(3) 0.1069(2) 0.2776(3)
C21B C 0.4574(5) 0.1617(4) 0.3097(4)
H29B H 0.4429 0.1441 0.3592
H30B H 0.3842 0.174 0.2684
C22B C 0.5179(8) 0.2205(5) 0.3307(8)
O2B O 0.6124(4) 0.2343(2) 0.3246(3)
O3B O 0.7220(4) 0.0759(3) 0.4636(3)
C25B C 0.8063(10) 0.0954(7) 0.5331(5)
H39B H 0.8367 0.0521 0.5642
H40B H 0.7724 0.123 0.5673
C26B C 0.8923(9) 0.1320(6) 0.5275(6)
O4B O 0.9185(5) 0.1337(4) 0.4590(4)
O5B O 0.8784(4) 0.2121(3) 0.2695(5)
C29B C 0.8511(13) 0.2108(19) 0.1827(16)
H49B H 0.9117 0.1839 0.1724
H50B H 0.8591 0.2597 0.1664
C30B C 0.770(2) 0.1906(10) 0.1354(11)
O6B O 0.6763(5) 0.1684(3) 0.1516(3)
C15B C 0.7182(5) -0.0468(2) 0.2597(4)
H16B H 0.8261 -0.0411 0.3753
H17B H 0.6555 -0.0586 0.2752
C16B C 0.7051(4) -0.0406(2) 0.1755(3)
H18B H 0.6339 -0.0476 0.1347
C32B C 0.5707(12) 0.1950(8) 0.1062(6)
H56B H 0.5143 0.1739 0.126
H57B H 0.5705 0.2459 0.1131
H58B H 0.5536 0.1837 0.0477
H51B H 0.7435 0.2283 0.0939
H52B H 0.7914 0.151 0.1069
C31B C 0.9349(9) 0.2714(6) 0.3074(13)
H53B H 0.9521 0.2676 0.3671
H54B H 1.0045 0.2758 0.2952
H55B H 0.8881 0.3127 0.2867
C28B C 1.0260(7) 0.1328(6) 0.4670(6)
H46B H 1.0336 0.1343 0.4123
H47B H 1.0632 0.1736 0.4991
H48B H 1.0605 0.0899 0.4955
H41B H 0.8805 0.1811 0.541
H42B H 0.9594 0.1151 0.5722
C27B C 0.6482(9) 0.0311(5) 0.4759(6)
H43B H 0.5901 0.0206 0.423
H44B H 0.6865 -0.0123 0.5001
H45B H 0.614 0.0522 0.5135
C24B C 0.6362(10) 0.3028(4) 0.3153(7)
H36B H 0.7106 0.3063 0.3105
H37B H 0.5805 0.3218 0.2654
H38B H 0.6346 0.3297 0.3634
H31B H 0.5276 0.2281 0.3895
H32B H 0.4678 0.2584 0.3
C23B C 0.4333(6) 0.0503(4) 0.2440(6)
H33B H 0.4743 0.0152 0.224
H34B H 0.4075 0.0294 0.2864
H35B H 0.3687 0.0667 0.1979
C17B C 0.7024(3) -0.0231(3) 0.0032(3)
H19B H 0.7227 -0.0306 -0.0468
H20B H 0.658 -0.0639 0.0096
C18B C 0.6304(5) 0.0445(4) -0.0077(4)
H21B H 0.5628 0.0395 -0.0562
H22B H 0.6093 0.0517 0.0415
H23B H 0.6737 0.0848 -0.0152
loop_
_geom_bond_atom_site_label_1
_geom_bond_atom_site_label_2
_geom_bond_site_symmetry_1
_geom_bond_site_symmetry_2
K1 O1 1_555 1_555
Si1 Si2 1_555 1_555
Si2 N3 1_555 1_555
O1 C21 1_555 1_555
O2 K1 1_555 1_555
O3 K1 1_555 1_555
O4 K1 1_555 1_555
O5 K1 1_555 1_555
O6 K1 1_555 1_555
N1 Si1 1_555 1_555
N2 Si1 1_555 1_555
N3 C11 1_555 1_555
N4 Si2 1_555 1_555
C1 N1 1_555 1_555
C2 N2 1_555 1_555
C3 C2 1_555 1_555
H1 C3 1_555 1_555
C4 C3 1_555 1_555
H2 C4 1_555 1_555
C5 C4 1_555 1_555
H3 C5 1_555 1_555
C6 C1 1_555 1_555
H4 C6 1_555 1_555
C7 N1 1_555 1_555
H5 C7 1_555 1_555
H6 C7 1_555 1_555
C8 C7 1_555 1_555
H7 C8 1_555 1_555
H8 C8 1_555 1_555
H9 C8 1_555 1_555
C9 N2 1_555 1_555
H10 C9 1_555 1_555
H11 C9 1_555 1_555
C10 C9 1_555 1_555
H12 C10 1_555 1_555
H13 C10 1_555 1_555
H14 C10 1_555 1_555
C11 C12 1_555 1_555
C12 N4 1_555 1_555
C13 C12 1_555 1_555
H15 C13 1_555 1_555
C14 K1 1_555 1_555
H16 C14 1_555 1_555
C15 K1 1_555 1_555
H17 C15 1_555 1_555
C16 C11 1_555 1_555
H18 C16 1_555 1_555
C17 N3 1_555 1_555
H19 C17 1_555 1_555
H20 C17 1_555 1_555
C18 C17 1_555 1_555
H21 C18 1_555 1_555
H22 C18 1_555 1_555
H23 C18 1_555 1_555
C19 N4 1_555 1_555
H24 C19 1_555 1_555
H25 C19 1_555 1_555
C20 C19 1_555 1_555
H26 C20 1_555 1_555
H27 C20 1_555 1_555
H28 C20 1_555 1_555
C21 H29 1_555 1_555
H30 C21 1_555 1_555
C22 O2 1_555 1_555
H31 C22 1_555 1_555
H32 C22 1_555 1_555
C23 O1 1_555 1_555
H33 C23 1_555 1_555
H34 C23 1_555 1_555
H35 C23 1_555 1_555
C24 O2 1_555 1_555
H36 C24 1_555 1_555
H37 C24 1_555 1_555
H38 C24 1_555 1_555
C25 O3 1_555 1_555
H39 C25 1_555 1_555
H40 C25 1_555 1_555
C26 O4 1_555 1_555
H41 C26 1_555 1_555
H42 C26 1_555 1_555
C27 O3 1_555 1_555
H43 C27 1_555 1_555
H44 C27 1_555 1_555
H45 C27 1_555 1_555
C28 O4 1_555 1_555
H46 C28 1_555 1_555
H47 C28 1_555 1_555
H48 C28 1_555 1_555
C29 O5 1_555 1_555
H49 C29 1_555 1_555
H50 C29 1_555 1_555
C30 O6 1_555 1_555
H51 C30 1_555 1_555
H52 C30 1_555 1_555
C31 O5 1_555 1_555
H53 C31 1_555 1_555
H54 C31 1_555 1_555
H55 C31 1_555 1_555
C32 O6 1_555 1_555
H56 C32 1_555 1_555
H57 C32 1_555 1_555
H58 C32 1_555 1_555
Si2B Si1 1_555 1_555
Si1B Si2 1_555 1_555
N1B Si1B 1_555 1_555
C1B N1B 1_555 1_555
C2B C1B 1_555 1_555
N2B Si1B 1_555 1_555
C9B N2B 1_555 1_555
H10B C9B 1_555 1_555
H11B C9B 1_555 1_555
C10B C9B 1_555 1_555
H12B C10B 1_555 1_555
H13B C10B 1_555 1_555
H14B C10B 1_555 1_555
C3B C2B 1_555 1_555
H1B C3B 1_555 1_555
C4B C3B 1_555 1_555
H2B C4B 1_555 1_555
C5B C4B 1_555 1_555
H3B C5B 1_555 1_555
C6B C1B 1_555 1_555
H4B C6B 1_555 1_555
C7B N1B 1_555 1_555
H5B C7B 1_555 1_555
H6B C7B 1_555 1_555
C8B C7B 1_555 1_555
H7B C8B 1_555 1_555
H8B C8B 1_555 1_555
H9B C8B 1_555 1_555
N3B Si2B 1_555 1_555
C11B N3B 1_555 1_555
C12B C11B 1_555 1_555
N4B Si2B 1_555 1_555
C19B N4B 1_555 1_555
H24B C19B 1_555 1_555
H25B C19B 1_555 1_555
C20B C19B 1_555 1_555
H26B C20B 1_555 1_555
H27B C20B 1_555 1_555
H28B C20B 1_555 1_555
C13B C12B 1_555 1_555
H15B C13B 1_555 1_555
C14B C13B 1_555 1_555
K1B C14B 1_555 1_555
O1B K1B 1_555 1_555
C21B O1B 1_555 1_555
H29B C21B 1_555 1_555
H30B C21B 1_555 1_555
C22B C21B 1_555 1_555
O2B K1B 1_555 1_555
O3B K1B 1_555 1_555
C25B O3B 1_555 1_555
H39B C25B 1_555 1_555
H40B C25B 1_555 1_555
C26B C25B 1_555 1_555
O4B K1B 1_555 1_555
O5B K1B 1_555 1_555
C29B O5B 1_555 1_555
H49B C29B 1_555 1_555
H50B C29B 1_555 1_555
C30B C29B 1_555 1_555
O6B K1B 1_555 1_555
C15B C14B 1_555 1_555
H16B C14B 1_555 1_555
H17B C15B 1_555 1_555
C16B C11B 1_555 1_555
H18B C16B 1_555 1_555
C32B O6B 1_555 1_555
H56B C32B 1_555 1_555
H57B C32B 1_555 1_555
H58B C32B 1_555 1_555
H51B C30B 1_555 1_555
H52B C30B 1_555 1_555
C31B O5B 1_555 1_555
H53B C31B 1_555 1_555
H54B C31B 1_555 1_555
H55B C31B 1_555 1_555
C28B O4B 1_555 1_555
H46B C28B 1_555 1_555
H47B C28B 1_555 1_555
H48B C28B 1_555 1_555
H41B C26B 1_555 1_555
H42B C26B 1_555 1_555
C27B O3B 1_555 1_555
H43B C27B 1_555 1_555
H44B C27B 1_555 1_555
H45B C27B 1_555 1_555
C24B O2B 1_555 1_555
H36B C24B 1_555 1_555
H37B C24B 1_555 1_555
H38B C24B 1_555 1_555
H31B C22B 1_555 1_555
H32B C22B 1_555 1_555
C23B O1B 1_555 1_555
H33B C23B 1_555 1_555
H34B C23B 1_555 1_555
H35B C23B 1_555 1_555
C17B N3B 1_555 1_555
H19B C17B 1_555 1_555
H20B C17B 1_555 1_555
C18B C17B 1_555 1_555
H21B C18B 1_555 1_555
H22B C18B 1_555 1_555
H23B C18B 1_555 1_555
C1 C2 1_555 1_555
C5 C6 1_555 1_555
C13 C14 1_555 1_555
C14 C15 1_555 1_555
C15 C16 1_555 1_555
C21 C22 1_555 1_555
C25 C26 1_555 1_555
C29 C30 1_555 1_555
Si2B Si1B 1_555 1_555
C2B N2B 1_555 1_555
C5B C6B 1_555 1_555
C12B N4B 1_555 1_555
K1B C15B 1_555 1_555
C22B O2B 1_555 1_555
C26B O4B 1_555 1_555
C30B O6B 1_555 1_555
C15B C16B 1_555 1_555

#END
