
#######################################################################
#
#                 Cambridge Crystallographic Data Centre
#                                CCDC 
#
#######################################################################
#
# If this CIF has been generated from an entry in the Cambridge 
# Structural Database, then it will include bibliographic, chemical, 
# crystal, experimental, refinement or atomic coordinate data resulting 
# from the CCDC's data processing and validation procedures.
#
#######################################################################

data_ITAKIX
_chemical_formula_moiety         'C10 H17 N1 O1'
_chemical_name_systematic        
3-hydroxy-1,2,3-trimethylcyclohexanecarbonitrile
_symmetry_cell_setting           triclinic
_symmetry_space_group_name_H-M   'P 1'
_symmetry_Int_Tables_number      1
_space_group_name_Hall           'P 1'
loop_
_symmetry_equiv_pos_site_id
_symmetry_equiv_pos_as_xyz
1 x,y,z
_cell_length_a                   6.2686(9)
_cell_length_b                   8.196(1)
_cell_length_c                   6.084(2)
_cell_angle_alpha                111.81(1)
_cell_angle_beta                 101.01(2)
_cell_angle_gamma                110.62(1)
_cell_volume                     252.3
_exptl_crystal_colour            colorless
_exptl_crystal_description       plate
_chemical_melting_point          '373-376 K'
_cell_formula_units_Z            1
_exptl_crystal_recrystallization_method 'ethyl acetate/hexanes'
loop_
_atom_site_label
_atom_site_type_symbol
_atom_site_fract_x
_atom_site_fract_y
_atom_site_fract_z
O1 O -0.048(1) 0.035(1) 0.172(2)
N1 N 0.552(2) 0.644(1) 0.048(2)
C1 C 0.180(1) 0.363(1) 0.038(2)
C2 C 0.263(1) 0.207(1) 0.049(2)
C3 C 0.048(1) 0.005(1) -0.028(2)
C4 C -0.153(1) -0.068(1) -0.278(2)
C5 C -0.241(1) 0.083(1) -0.273(2)
C6 C -0.030(1) 0.272(1) -0.219(2)
C7 C 0.392(1) 0.522(1) 0.044(2)
C8 C 0.113(1) 0.460(1) 0.265(2)
C9 C 0.465(1) 0.290(1) 0.302(2)
C10 C 0.138(2) -0.149(1) -0.054(2)
H1 H 0.3342 0.1817 -0.0791
H2 H -0.0890 -0.0955 -0.4113
H3 H -0.2867 -0.1880 -0.3144
H4 H -0.3081 0.1124 -0.1411
H5 H -0.3718 0.0302 -0.4323
H6 H 0.0323 0.2417 -0.3567
H7 H -0.0852 0.3670 -0.2219
H8 H 0.2522 0.5217 0.4185
H9 H -0.0213 0.3642 0.2687
H10 H 0.0749 0.5601 0.2526
H11 H 0.3963 0.3052 0.4319
H12 H 0.5918 0.4122 0.3435
H13 H 0.5271 0.1971 0.2914
H14 H 0.0073 -0.2691 -0.0917
H15 H 0.1998 -0.1695 -0.1886
H16 H 0.2656 -0.0995 0.1009
H17 H -0.1691 -0.0814 0.1251
loop_
_geom_bond_atom_site_label_1
_geom_bond_atom_site_label_2
_geom_bond_site_symmetry_1
_geom_bond_site_symmetry_2
O1 C3 1_555 1_555
N1 C7 1_555 1_555
C1 C2 1_555 1_555
C2 C3 1_555 1_555
C3 C4 1_555 1_555
C4 C5 1_555 1_555
C5 C6 1_555 1_555
C6 C1 1_555 1_555
C7 C1 1_555 1_555
C8 C1 1_555 1_555
C9 C2 1_555 1_555
C10 C3 1_555 1_555
H1 C2 1_555 1_555
H2 C4 1_555 1_555
H3 C4 1_555 1_555
H4 C5 1_555 1_555
H5 C5 1_555 1_555
H6 C6 1_555 1_555
H7 C6 1_555 1_555
H8 C8 1_555 1_555
H9 C8 1_555 1_555
H10 C8 1_555 1_555
H11 C9 1_555 1_555
H12 C9 1_555 1_555
H13 C9 1_555 1_555
H14 C10 1_555 1_555
H15 C10 1_555 1_555
H16 C10 1_555 1_555
H17 O1 1_555 1_555

#END
