
#######################################################################
#
#                 Cambridge Crystallographic Data Centre
#                                CCDC 
#
#######################################################################
#
# If this CIF has been generated from an entry in the Cambridge 
# Structural Database, then it will include bibliographic, chemical, 
# crystal, experimental, refinement or atomic coordinate data resulting 
# from the CCDC's data processing and validation procedures.
#
#######################################################################

data_ITALOG
_chemical_formula_moiety         'C19 H15 F1 O2'
_chemical_name_systematic        
2-fluoro-2-(2-naphthylmethoxy)-1-phenylethanone
_symmetry_cell_setting           monoclinic
_symmetry_space_group_name_H-M   'P 21/c'
_symmetry_Int_Tables_number      14
_space_group_name_Hall           '-P 2ybc'
loop_
_symmetry_equiv_pos_site_id
_symmetry_equiv_pos_as_xyz
1 x,y,z
2 -x,1/2+y,1/2-z
3 -x,-y,-z
4 x,1/2-y,1/2+z
_cell_length_a                   15.8415(10)
_cell_length_b                   9.1909(6)
_cell_length_c                   10.6971(7)
_cell_angle_alpha                90
_cell_angle_beta                 101.652(6)
_cell_angle_gamma                90
_cell_volume                     1525.38
_exptl_crystal_colour            colorless
_exptl_crystal_description       prism
_cell_formula_units_Z            4
loop_
_atom_site_label
_atom_site_type_symbol
_atom_site_fract_x
_atom_site_fract_y
_atom_site_fract_z
C1 C 0.10974(14) 0.9675(3) 0.0985(2)
C2 C 0.07704(16) 1.0864(3) 0.1534(3)
H1 H 0.0562 1.0744 0.2280
C3 C 0.07520(18) 1.2218(3) 0.0981(3)
H2 H 0.0533 1.3011 0.1353
C4 C 0.1055(2) 1.2394(3) -0.0112(3)
H3 H 0.1055 1.3313 -0.0475
C5 C 0.1361(2) 1.1220(3) -0.0685(3)
H4 H 0.1554 1.1346 -0.1443
C6 C 0.13829(16) 0.9864(3) -0.0142(2)
H5 H 0.1590 0.9073 -0.0532
C7 C 0.11221(15) 0.8247(3) 0.1634(2)
O1 O 0.09332(14) 0.8109(2) 0.2665(2)
C8 C 0.14089(16) 0.6918(3) 0.0974(3)
H6 H 0.1153 0.6931 0.0060
F1 F 0.11557(14) 0.56915(18) 0.1541(2)
O2 O 0.22860(11) 0.6990(2) 0.11609(19)
C9 C 0.26626(18) 0.5957(4) 0.0398(3)
H7 H 0.2379 0.6029 -0.0492
H8 H 0.2593 0.4972 0.0687
C10 C 0.35958(19) 0.6314(3) 0.0550(3)
C11 C 0.42029(19) 0.5589(3) 0.1360(3)
H9 H 0.4040 0.4823 0.1829
C12 C 0.51051(18) 0.5959(3) 0.1529(3)
C13 C 0.5730(2) 0.5223(4) 0.2373(3)
H10 H 0.5574 0.4449 0.2840
C14 C 0.6552(3) 0.5602(6) 0.2530(4)
H11 H 0.6963 0.5079 0.3099
C15 C 0.6812(3) 0.6731(6) 0.1882(5)
H12 H 0.7391 0.6988 0.2040
C16 C 0.6233(3) 0.7503(5) 0.0995(5)
H13 H 0.6416 0.8254 0.0531
C17 C 0.5315(2) 0.7106(3) 0.0802(3)
C18 C 0.4687(3) 0.7836(4) -0.0062(4)
H14 H 0.4839 0.8588 -0.0556
C19 C 0.3841(3) 0.7438(4) -0.0182(3)
H15 H 0.3420 0.7927 -0.0763
loop_
_geom_bond_atom_site_label_1
_geom_bond_atom_site_label_2
_geom_bond_site_symmetry_1
_geom_bond_site_symmetry_2
C1 C2 1_555 1_555
C2 H1 1_555 1_555
C3 C2 1_555 1_555
H2 C3 1_555 1_555
C4 C3 1_555 1_555
H3 C4 1_555 1_555
C5 C4 1_555 1_555
H4 C5 1_555 1_555
C6 C1 1_555 1_555
H5 C6 1_555 1_555
C7 C1 1_555 1_555
O1 C7 1_555 1_555
C8 C7 1_555 1_555
H6 C8 1_555 1_555
F1 C8 1_555 1_555
O2 C8 1_555 1_555
C9 O2 1_555 1_555
H7 C9 1_555 1_555
H8 C9 1_555 1_555
C10 C9 1_555 1_555
C11 C10 1_555 1_555
H9 C11 1_555 1_555
C12 C11 1_555 1_555
C13 C12 1_555 1_555
H10 C13 1_555 1_555
C14 C13 1_555 1_555
H11 C14 1_555 1_555
C15 C14 1_555 1_555
H12 C15 1_555 1_555
C16 C15 1_555 1_555
H13 C16 1_555 1_555
C17 C12 1_555 1_555
C18 C17 1_555 1_555
H14 C18 1_555 1_555
C19 C10 1_555 1_555
H15 C19 1_555 1_555
C5 C6 1_555 1_555
C16 C17 1_555 1_555
C18 C19 1_555 1_555

#END
