
#######################################################################
#
#                 Cambridge Crystallographic Data Centre
#                                CCDC 
#
#######################################################################
#
# If this CIF has been generated from an entry in the Cambridge 
# Structural Database, then it will include bibliographic, chemical, 
# crystal, experimental, refinement or atomic coordinate data resulting 
# from the CCDC's data processing and validation procedures.
#
#######################################################################

data_ITAVAC
_chemical_formula_moiety         'C23 H23 Br1 O3'
_chemical_name_systematic        
(R)-4-((R)-(7-bromo-3-methoxynaphthalen-2-yl)(phenyl)methyl)-2,2-dimethyl-1,3-dioxolane
_symmetry_cell_setting           triclinic
_symmetry_space_group_name_H-M   'P -1'
_symmetry_Int_Tables_number      2
_space_group_name_Hall           '-P 1'
loop_
_symmetry_equiv_pos_site_id
_symmetry_equiv_pos_as_xyz
1 x,y,z
2 -x,-y,-z
_cell_length_a                   10.1306(8)
_cell_length_b                   10.9911(12)
_cell_length_c                   11.2044(9)
_cell_angle_alpha                60.599(9)
_cell_angle_beta                 79.518(6)
_cell_angle_gamma                66.386(9)
_cell_volume                     995.709
_exptl_crystal_description       block
_cell_formula_units_Z            2
loop_
_atom_site_label
_atom_site_type_symbol
_atom_site_fract_x
_atom_site_fract_y
_atom_site_fract_z
Br1 Br 0.15009(4) 0.83594(5) 1.27545(4)
O1 O -0.26250(16) 0.75379(17) 0.62915(17)
O2 O -0.11732(17) 0.81061(18) 0.7095(2)
O3 O 0.38348(16) 0.60540(19) 0.65016(17)
C1 C -0.0481(2) 0.6559(2) 0.7451(2)
H1 H -0.0638 0.5957 0.8422
C2 C 0.1337(2) 0.6898(2) 0.8941(2)
H2 H 0.0383 0.6999 0.9174
C3 C 0.2029(2) 0.3384(2) 0.8913(2)
H3 H 0.1873 0.3664 0.9602
C4 C 0.5219(3) 0.6064(3) 0.5961(3)
H4 H 0.5371 0.5901 0.5171
H5 H 0.5948 0.5281 0.6644
H6 H 0.5272 0.7015 0.5702
C5 C 0.3590(2) 0.6993(2) 0.9297(2)
C6 C 0.1765(2) 0.4477(2) 0.7563(2)
C7 C 0.2130(2) 0.7171(2) 0.9648(2)
C8 C 0.2524(3) 0.1876(3) 0.9257(2)
H7 H 0.2695 0.1152 1.0171
C9 C 0.1516(3) 0.7586(3) 1.0692(2)
H8 H 0.0557 0.7717 1.0920
C10 C 0.4178(2) 0.6625(2) 0.8225(2)
H9 H 0.5123 0.6543 0.7966
C11 C 0.4390(3) 0.7206(3) 1.0045(2)
H10 H 0.5353 0.7079 0.9839
C12 C 0.2514(3) 0.2530(3) 0.6896(3)
H11 H 0.2683 0.2245 0.6209
C13 C 0.2335(3) 0.7792(3) 1.1364(2)
C14 C 0.2759(3) 0.1457(3) 0.8242(3)
H12 H 0.3084 0.0448 0.8468
C15 C 0.3790(3) 0.7593(3) 1.1055(3)
H13 H 0.4336 0.7723 1.1536
C16 C -0.1279(2) 0.6349(3) 0.6575(3)
H14 H -0.0769 0.6417 0.5736
H15 H -0.1396 0.5387 0.7072
C17 C -0.3675(3) 0.9593(3) 0.6769(3)
H16 H -0.4507 0.9968 0.6220
H17 H -0.3530 1.0416 0.6745
H18 H -0.3818 0.8927 0.7697
C18 C 0.3376(2) 0.6388(2) 0.7563(2)
C19 C 0.1134(2) 0.6136(2) 0.7193(2)
H19 H 0.1261 0.6705 0.6209
C20 C 0.1919(2) 0.6496(2) 0.7941(2)
C21 C -0.2375(2) 0.8763(2) 0.6213(2)
C22 C 0.2021(2) 0.4024(3) 0.6558(2)
H20 H 0.1856 0.4742 0.5642
C23 C -0.2029(4) 0.9727(4) 0.4783(3)
H21 H -0.1246 0.9117 0.4456
H22 H -0.1758 1.0473 0.4777
H23 H -0.2860 1.0210 0.4198
loop_
_geom_bond_atom_site_label_1
_geom_bond_atom_site_label_2
_geom_bond_site_symmetry_1
_geom_bond_site_symmetry_2
Br1 C13 1_555 1_555
O1 C16 1_555 1_555
O2 C1 1_555 1_555
O3 C4 1_555 1_555
C1 H1 1_555 1_555
C2 H2 1_555 1_555
C3 H3 1_555 1_555
C4 H4 1_555 1_555
H5 C4 1_555 1_555
H6 C4 1_555 1_555
C5 C7 1_555 1_555
C6 C3 1_555 1_555
C7 C2 1_555 1_555
C8 C3 1_555 1_555
H7 C8 1_555 1_555
C9 C7 1_555 1_555
H8 C9 1_555 1_555
C10 C5 1_555 1_555
H9 C10 1_555 1_555
C11 C5 1_555 1_555
H10 C11 1_555 1_555
C12 H11 1_555 1_555
C13 C9 1_555 1_555
C14 C8 1_555 1_555
H12 C14 1_555 1_555
C15 C11 1_555 1_555
H13 C15 1_555 1_555
C16 C1 1_555 1_555
H14 C16 1_555 1_555
H15 C16 1_555 1_555
C17 H16 1_555 1_555
H17 C17 1_555 1_555
H18 C17 1_555 1_555
C18 O3 1_555 1_555
C19 C1 1_555 1_555
H19 C19 1_555 1_555
C20 C2 1_555 1_555
C21 O1 1_555 1_555
C22 C6 1_555 1_555
H20 C22 1_555 1_555
C23 C21 1_555 1_555
H21 C23 1_555 1_555
H22 C23 1_555 1_555
H23 C23 1_555 1_555
O2 C21 1_555 1_555
C6 C19 1_555 1_555
C10 C18 1_555 1_555
C12 C14 1_555 1_555
C12 C22 1_555 1_555
C13 C15 1_555 1_555
C17 C21 1_555 1_555
C18 C20 1_555 1_555
C19 C20 1_555 1_555

#END
