
#######################################################################
#
#                 Cambridge Crystallographic Data Centre
#                                CCDC 
#
#######################################################################
#
# If this CIF has been generated from an entry in the Cambridge 
# Structural Database, then it will include bibliographic, chemical, 
# crystal, experimental, refinement or atomic coordinate data resulting 
# from the CCDC's data processing and validation procedures.
#
#######################################################################

data_ITAXIM
_chemical_formula_moiety         'C27 H21 N1 O2'
_chemical_name_systematic        
'4-(methoxy(phenyl)methyl)-3-phenylbenzo[g]isoquinolin-1(2H)-one unknown solvate'
_symmetry_cell_setting           monoclinic
_symmetry_space_group_name_H-M   'P 21/c'
_symmetry_Int_Tables_number      14
_space_group_name_Hall           '-P 2ybc'
loop_
_symmetry_equiv_pos_site_id
_symmetry_equiv_pos_as_xyz
1 x,y,z
2 -x,1/2+y,1/2-z
3 -x,-y,-z
4 x,1/2-y,1/2+z
_cell_length_a                   16.9004(15)
_cell_length_b                   17.8357(15)
_cell_length_c                   18.4349(18)
_cell_angle_alpha                90
_cell_angle_beta                 116.962(12)
_cell_angle_gamma                90
_cell_volume                     4952.85
_exptl_crystal_colour            yellow
_exptl_crystal_description       block
_cell_formula_units_Z            8
loop_
_atom_site_label
_atom_site_type_symbol
_atom_site_fract_x
_atom_site_fract_y
_atom_site_fract_z
O1 O 0.45277(15) 0.42540(16) 0.70305(15)
O2 O 0.03879(14) 0.38488(15) 0.46998(15)
N1 N 0.34992(17) 0.39393(17) 0.57643(18)
H1 H 0.3894 0.3995 0.5595
C1 C 0.3749(2) 0.4082(2) 0.6552(2)
C2 C 0.3044(2) 0.4031(2) 0.6812(2)
C3 C 0.3240(2) 0.4202(2) 0.7601(2)
H2 H 0.3821 0.4326 0.7964
C4 C 0.2592(2) 0.4194(2) 0.7878(2)
C5 C 0.2780(3) 0.4333(2) 0.8694(2)
H3 H 0.3354 0.4464 0.9069
C6 C 0.2141(3) 0.4279(2) 0.8941(3)
H4 H 0.2282 0.4367 0.9484
C7 C 0.1263(3) 0.4090(3) 0.8386(3)
H5 H 0.0829 0.4049 0.8561
C8 C 0.1059(2) 0.3969(2) 0.7599(3)
H6 H 0.0473 0.3866 0.7232
C9 C 0.1709(2) 0.3994(2) 0.7313(2)
C10 C 0.1524(2) 0.3820(2) 0.6523(2)
H7 H 0.0942 0.3698 0.6159
C11 C 0.2168(2) 0.38159(19) 0.6240(2)
C12 C 0.1995(2) 0.3637(2) 0.5411(2)
C13 C 0.2660(2) 0.37105(19) 0.5197(2)
C14 C 0.1086(2) 0.3341(2) 0.4804(2)
H8 H 0.1090 0.3292 0.4276
C15 C 0.0860(2) 0.2579(2) 0.5022(2)
C16 C 0.1515(3) 0.2051(3) 0.5416(3)
H9 H 0.2105 0.2176 0.5577
C17 C 0.1305(4) 0.1334(3) 0.5575(3)
H10 H 0.1751 0.0982 0.5832
C18 C 0.0438(4) 0.1154(3) 0.5350(3)
H11 H 0.0295 0.0680 0.5467
C19 C -0.0214(4) 0.1663(3) 0.4956(3)
H12 H -0.0802 0.1537 0.4808
C20 C -0.0013(3) 0.2367(3) 0.4773(3)
H13 H -0.0469 0.2702 0.4480
C21 C 0.0428(3) 0.4522(3) 0.4315(3)
H14 H 0.0397 0.4410 0.3793
H15 H 0.0975 0.4775 0.4646
H16 H -0.0062 0.4837 0.4244
C22 C 0.2606(2) 0.3582(2) 0.4383(2)
C23 C 0.2364(3) 0.2911(3) 0.3977(3)
H17 H 0.2210 0.2509 0.4209
C24 C 0.2349(4) 0.2832(3) 0.3225(4)
H18 H 0.2172 0.2378 0.2950
C25 C 0.2586(4) 0.3397(4) 0.2884(3)
H19 H 0.2570 0.3333 0.2377
C26 C 0.2845(4) 0.4058(3) 0.3276(3)
H20 H 0.3020 0.4449 0.3047
C27 C 0.2848(3) 0.4148(3) 0.4016(3)
H21 H 0.3020 0.4608 0.4279
O3 O 0.51308(16) 0.58445(17) 0.46727(15)
O4 O 0.09605(14) 0.60736(15) 0.23988(16)
N2 N 0.40611(16) 0.60018(16) 0.33868(17)
H22 H 0.4441 0.5898 0.3211
C28 C 0.4343(2) 0.5960(2) 0.4206(2)
C29 C 0.3660(2) 0.60542(19) 0.4481(2)
C30 C 0.3885(2) 0.5945(2) 0.5286(2)
H23 H 0.4468 0.5825 0.5648
C31 C 0.3252(2) 0.6010(2) 0.5572(2)
C32 C 0.3462(3) 0.5903(2) 0.6406(2)
H24 H 0.4040 0.5784 0.6780
C33 C 0.2825(3) 0.5973(2) 0.6659(3)
H25 H 0.2976 0.5915 0.7208
C34 C 0.1948(3) 0.6131(2) 0.6107(3)
H26 H 0.1515 0.6162 0.6285
C35 C 0.1725(2) 0.6238(2) 0.5306(3)
H27 H 0.1140 0.6352 0.4946
C36 C 0.2357(2) 0.6182(2) 0.5005(2)
C37 C 0.2149(2) 0.6297(2) 0.4198(2)
H28 H 0.1568 0.6422 0.3837
C38 C 0.2775(2) 0.62322(19) 0.3899(2)
C39 C 0.25668(19) 0.6333(2) 0.3044(2)
C40 C 0.3214(2) 0.61977(19) 0.2816(2)
C41 C 0.1641(2) 0.6585(2) 0.2437(2)
H29 H 0.1620 0.6599 0.1897
C42 C 0.1407(2) 0.7364(2) 0.2618(2)
C43 C 0.0536(3) 0.7546(3) 0.2434(2)
H30 H 0.0088 0.7191 0.2199
C44 C 0.0343(3) 0.8254(3) 0.2604(3)
H31 H -0.0237 0.8368 0.2494
C45 C 0.0975(4) 0.8791(3) 0.2925(3)
H32 H 0.0829 0.9268 0.3029
C46 C 0.1832(3) 0.8620(3) 0.3094(3)
H33 H 0.2272 0.8984 0.3312
C47 C 0.2045(2) 0.7908(2) 0.2941(2)
H34 H 0.2629 0.7797 0.3059
C48 C 0.0995(3) 0.5370(3) 0.2064(4)
H35 H 0.0852 0.5431 0.1501
H36 H 0.0575 0.5037 0.2111
H37 H 0.1582 0.5165 0.2354
C49 C 0.3102(2) 0.6227(2) 0.1978(2)
C50 C 0.2920(3) 0.6843(3) 0.1511(3)
H38 H 0.2838 0.7295 0.1718
C51 C 0.2851(4) 0.6833(4) 0.0738(4)
H39 H 0.2731 0.7278 0.0444
C52 C 0.2947(4) 0.6232(5) 0.0416(3)
H40 H 0.2849 0.6234 -0.0123
C53 C 0.3201(5) 0.5565(4) 0.0868(4)
H41 H 0.3307 0.5129 0.0650
C54 C 0.3288(4) 0.5581(3) 0.1657(3)
H42 H 0.3475 0.5151 0.1977
loop_
_geom_bond_atom_site_label_1
_geom_bond_atom_site_label_2
_geom_bond_site_symmetry_1
_geom_bond_site_symmetry_2
O1 C1 1_555 1_555
O2 C14 1_555 1_555
N1 H1 1_555 1_555
C1 N1 1_555 1_555
C2 C1 1_555 1_555
C3 C2 1_555 1_555
H2 C3 1_555 1_555
C4 C3 1_555 1_555
C5 C4 1_555 1_555
H3 C5 1_555 1_555
C6 C5 1_555 1_555
H4 C6 1_555 1_555
C7 C6 1_555 1_555
H5 C7 1_555 1_555
C8 C7 1_555 1_555
H6 C8 1_555 1_555
C9 C4 1_555 1_555
C10 C9 1_555 1_555
H7 C10 1_555 1_555
C11 C2 1_555 1_555
C12 C11 1_555 1_555
C13 N1 1_555 1_555
C14 C12 1_555 1_555
H8 C14 1_555 1_555
C15 C14 1_555 1_555
C16 C15 1_555 1_555
H9 C16 1_555 1_555
C17 C16 1_555 1_555
H10 C17 1_555 1_555
C18 C17 1_555 1_555
H11 C18 1_555 1_555
C19 C18 1_555 1_555
H12 C19 1_555 1_555
C20 C15 1_555 1_555
H13 C20 1_555 1_555
C21 O2 1_555 1_555
H14 C21 1_555 1_555
H15 C21 1_555 1_555
H16 C21 1_555 1_555
C22 C13 1_555 1_555
C23 C22 1_555 1_555
H17 C23 1_555 1_555
C24 C23 1_555 1_555
H18 C24 1_555 1_555
C25 C24 1_555 1_555
H19 C25 1_555 1_555
C26 C25 1_555 1_555
H20 C26 1_555 1_555
C27 C22 1_555 1_555
H21 C27 1_555 1_555
O3 C28 1_555 1_555
O4 C41 1_555 1_555
N2 H22 1_555 1_555
C28 N2 1_555 1_555
C29 C28 1_555 1_555
C30 C29 1_555 1_555
H23 C30 1_555 1_555
C31 C30 1_555 1_555
C32 C31 1_555 1_555
H24 C32 1_555 1_555
C33 C32 1_555 1_555
H25 C33 1_555 1_555
C34 C33 1_555 1_555
H26 C34 1_555 1_555
C35 C34 1_555 1_555
H27 C35 1_555 1_555
C36 C31 1_555 1_555
C37 C36 1_555 1_555
H28 C37 1_555 1_555
C38 C29 1_555 1_555
C39 C38 1_555 1_555
C40 N2 1_555 1_555
C41 C39 1_555 1_555
H29 C41 1_555 1_555
C42 C41 1_555 1_555
C43 C42 1_555 1_555
H30 C43 1_555 1_555
C44 C43 1_555 1_555
H31 C44 1_555 1_555
C45 C44 1_555 1_555
H32 C45 1_555 1_555
C46 C45 1_555 1_555
H33 C46 1_555 1_555
C47 C42 1_555 1_555
H34 C47 1_555 1_555
C48 O4 1_555 1_555
H35 C48 1_555 1_555
H36 C48 1_555 1_555
H37 C48 1_555 1_555
C49 C40 1_555 1_555
C50 C49 1_555 1_555
H38 C50 1_555 1_555
C51 C50 1_555 1_555
H39 C51 1_555 1_555
C52 C51 1_555 1_555
H40 C52 1_555 1_555
C53 C52 1_555 1_555
H41 C53 1_555 1_555
C54 C49 1_555 1_555
H42 C54 1_555 1_555
C8 C9 1_555 1_555
C10 C11 1_555 1_555
C12 C13 1_555 1_555
C19 C20 1_555 1_555
C26 C27 1_555 1_555
C35 C36 1_555 1_555
C37 C38 1_555 1_555
C39 C40 1_555 1_555
C46 C47 1_555 1_555
C53 C54 1_555 1_555

#END
