
#######################################################################
#
#                 Cambridge Crystallographic Data Centre
#                                CCDC 
#
#######################################################################
#
# If this CIF has been generated from an entry in the Cambridge 
# Structural Database, then it will include bibliographic, chemical, 
# crystal, experimental, refinement or atomic coordinate data resulting 
# from the CCDC's data processing and validation procedures.
#
#######################################################################

data_ITEFIX
_chemical_formula_moiety         'C9 H9 Br1 O1'
_chemical_name_systematic        (+-)-2-Bromoindan-1-ol
_symmetry_cell_setting           monoclinic
_symmetry_space_group_name_H-M   'P 21/n'
_symmetry_Int_Tables_number      14
_space_group_name_Hall           '-P 2yn'
loop_
_symmetry_equiv_pos_site_id
_symmetry_equiv_pos_as_xyz
1 x,y,z
2 1/2-x,1/2+y,1/2-z
3 -x,-y,-z
4 1/2+x,1/2-y,1/2+z
_cell_length_a                   12.286(8)
_cell_length_b                   4.978(3)
_cell_length_c                   14.499(9)
_cell_angle_alpha                90
_cell_angle_beta                 106.853(8)
_cell_angle_gamma                90
_cell_volume                     848.67
_exptl_crystal_colour            colorless
_exptl_crystal_description       cubic
_chemical_melting_point          '119 deg.C'
_cell_formula_units_Z            4
loop_
_atom_site_label
_atom_site_type_symbol
_atom_site_fract_x
_atom_site_fract_y
_atom_site_fract_z
Br1 Br 0.65980(4) -0.41506(9) 0.95962(3)
C1 C 0.3431(4) 0.3870(9) 0.6399(4)
H1 H 0.2856 0.5113 0.6149
C2 C 0.3556(3) 0.2765(9) 0.7302(3)
H2 H 0.3073 0.3265 0.7662
C3 C 0.4408(3) 0.0916(8) 0.7656(3)
C4 C 0.5125(3) 0.0151(8) 0.7115(3)
C5 C 0.5986(3) -0.1879(8) 0.7665(3)
H3 H 0.5705 -0.3705 0.7489
C6 C 0.5974(3) -0.1253(8) 0.8685(3)
H4 H 0.6448 0.0342 0.8899
C7 C 0.4754(3) -0.0493(9) 0.8613(3)
H5 H 0.4289 -0.2068 0.8612
H6 H 0.4716 0.0696 0.9132
C8 C 0.4150(4) 0.3142(11) 0.5868(3)
H7 H 0.4060 0.3918 0.5267
C9 C 0.5011(4) 0.1263(9) 0.6217(3)
H8 H 0.5495 0.0769 0.5858
O1 O 0.7055(2) -0.1543(6) 0.7503(3)
H9 H 0.7332 -0.3020 0.7460
loop_
_geom_bond_atom_site_label_1
_geom_bond_atom_site_label_2
_geom_bond_site_symmetry_1
_geom_bond_site_symmetry_2
Br1 C6 1_555 1_555
C1 H1 1_555 1_555
C2 C1 1_555 1_555
H2 C2 1_555 1_555
C3 C2 1_555 1_555
C4 C3 1_555 1_555
C5 C4 1_555 1_555
H3 C5 1_555 1_555
C6 C5 1_555 1_555
H4 C6 1_555 1_555
C7 C3 1_555 1_555
H5 C7 1_555 1_555
H6 C7 1_555 1_555
C8 C1 1_555 1_555
H7 C8 1_555 1_555
C9 C4 1_555 1_555
H8 C9 1_555 1_555
O1 C5 1_555 1_555
H9 O1 1_555 1_555
C6 C7 1_555 1_555
C8 C9 1_555 1_555

#END
