
#######################################################################
#
#                 Cambridge Crystallographic Data Centre
#                                CCDC 
#
#######################################################################
#
# If this CIF has been generated from an entry in the Cambridge 
# Structural Database, then it will include bibliographic, chemical, 
# crystal, experimental, refinement or atomic coordinate data resulting 
# from the CCDC's data processing and validation procedures.
#
#######################################################################

data_ITEGIX01
_chemical_compound_source        'Millettia usaramensis ssp. usaramensis'
_chemical_name_common            '12-Dihydrousararotenoid A'
_chemical_formula_moiety         'C18 H14 O8'
_chemical_name_systematic        
4a,5-Dihydro[1,3]dioxolo[6,7]chromeno[3,4-b][1,3]dioxolo[4,5-h]chromene-11b,12(12H)-diol
_chemical_properties_biological  'anticancer activity'
_symmetry_cell_setting           monoclinic
_symmetry_space_group_name_H-M   'P 21'
_symmetry_Int_Tables_number      4
_space_group_name_Hall           'P 2yb'
loop_
_symmetry_equiv_pos_site_id
_symmetry_equiv_pos_as_xyz
1 x,y,z
2 -x,1/2+y,-z
_cell_length_a                   9.5507(19)
_cell_length_b                   7.3479(15)
_cell_length_c                   11.163(2)
_cell_angle_alpha                90
_cell_angle_beta                 109.85(3)
_cell_angle_gamma                90
_cell_volume                     736.847
_exptl_crystal_colour            colorless
_exptl_crystal_description       block
_cell_formula_units_Z            2
loop_
_atom_site_label
_atom_site_type_symbol
_atom_site_fract_x
_atom_site_fract_y
_atom_site_fract_z
C1 C 0.4044(4) 0.7847(5) 0.0643(3)
H1 H 0.3225 0.8382 -0.0073
H2 H 0.4973 0.8509 0.0719
C2 C 0.3760(3) 0.5034(4) 0.1286(3)
C3 C 0.3476(3) 0.6260(4) 0.2107(3)
C4 C 0.3051(3) 0.5698(4) 0.3116(2)
C5 C 0.2931(3) 0.3826(4) 0.3288(2)
C6 C 0.3176(3) 0.2616(4) 0.2416(3)
H3 H 0.3050 0.1350 0.2520
C7 C 0.3599(3) 0.3194(4) 0.1393(3)
H4 H 0.3765 0.2358 0.0807
C8 C 0.2029(3) 0.6345(4) 0.4697(2)
H5 H 0.0977 0.6043 0.4174
C9 C 0.2788(3) 0.4657(4) 0.5424(2)
C10 C 0.2601(3) 0.3115(4) 0.4445(3)
H6 H 0.1544 0.2690 0.4161
C11 C 0.2037(3) 0.7866(4) 0.5616(3)
H7 H 0.3067 0.8094 0.6192
H8 H 0.1650 0.8998 0.5138
C12 C 0.1321(3) 0.5610(4) 0.6824(3)
C13 C 0.2098(3) 0.4248(4) 0.6437(2)
C14 C 0.2229(3) 0.2508(4) 0.6998(3)
H9 H 0.2778 0.1569 0.6775
C15 C 0.1542(3) 0.2214(4) 0.7874(3)
C16 C 0.0728(3) 0.3561(4) 0.8213(3)
C17 C 0.0612(3) 0.5277(4) 0.7724(3)
H10 H 0.0078 0.6204 0.7978
C18 C 0.0540(3) 0.0999(4) 0.9237(3)
H11 H 0.1035 0.0710 1.0149
H12 H -0.0362 0.0233 0.8903
O1 O 0.4207(3) 0.5969(3) 0.0405(2)
O2 O 0.3721(3) 0.8017(3) 0.1799(2)
O3 O 0.2794(2) 0.7015(3) 0.38810(18)
O4 O 0.4332(2) 0.5104(3) 0.59765(18)
H13 H 0.4784 0.4248 0.6449
O5 O 0.3542(3) 0.1623(3) 0.5030(2)
H14 H 0.4169 0.1455 0.4665
O6 O 0.1121(3) 0.7345(3) 0.6342(2)
O7 O 0.1526(3) 0.0647(3) 0.8549(2)
O8 O 0.0140(3) 0.2892(3) 0.9086(2)
loop_
_geom_bond_atom_site_label_1
_geom_bond_atom_site_label_2
_geom_bond_site_symmetry_1
_geom_bond_site_symmetry_2
C1 H1 1_555 1_555
H2 C1 1_555 1_555
C2 C3 1_555 1_555
C3 C4 1_555 1_555
C4 C5 1_555 1_555
C5 C6 1_555 1_555
C6 H3 1_555 1_555
C7 C2 1_555 1_555
H4 C7 1_555 1_555
C8 H5 1_555 1_555
C9 C8 1_555 1_555
C10 C5 1_555 1_555
H6 C10 1_555 1_555
C11 C8 1_555 1_555
H7 C11 1_555 1_555
H8 C11 1_555 1_555
C12 C13 1_555 1_555
C13 C9 1_555 1_555
C14 C13 1_555 1_555
H9 C14 1_555 1_555
C15 C14 1_555 1_555
C16 C15 1_555 1_555
C17 C12 1_555 1_555
H10 C17 1_555 1_555
C18 H11 1_555 1_555
H12 C18 1_555 1_555
O1 C1 1_555 1_555
O2 C1 1_555 1_555
O3 C4 1_555 1_555
O4 C9 1_555 1_555
H13 O4 1_555 1_555
O5 C10 1_555 1_555
H14 O5 1_555 1_555
O6 C11 1_555 1_555
O7 C15 1_555 1_555
O8 C16 1_555 1_555
C2 O1 1_555 1_555
C3 O2 1_555 1_555
C6 C7 1_555 1_555
C8 O3 1_555 1_555
C9 C10 1_555 1_555
C12 O6 1_555 1_555
C16 C17 1_555 1_555
C18 O7 1_555 1_555
C18 O8 1_555 1_555

#END
