
#######################################################################
#
#                 Cambridge Crystallographic Data Centre
#                                CCDC 
#
#######################################################################
#
# If this CIF has been generated from an entry in the Cambridge 
# Structural Database, then it will include bibliographic, chemical, 
# crystal, experimental, refinement or atomic coordinate data resulting 
# from the CCDC's data processing and validation procedures.
#
#######################################################################

data_ITIPEG
_chemical_name_common            
'tetrakis(2-Azido-1,1-bis(azidomethyl)ethyl) cubane-1,3,5,7-tetracarboxylate'
_chemical_formula_moiety         'C28 H28 N36 O8'
_chemical_name_systematic        
1,3,5,7-tetrakis(Tri(azidomethyl)methoxycarbonyl)cubane
_symmetry_cell_setting           triclinic
_symmetry_space_group_name_H-M   'P -1'
_symmetry_Int_Tables_number      2
_space_group_name_Hall           '-P 1'
loop_
_symmetry_equiv_pos_site_id
_symmetry_equiv_pos_as_xyz
1 x,y,z
2 -x,-y,-z
_cell_length_a                   11.4213(12)
_cell_length_b                   13.4474(13)
_cell_length_c                   15.0546(15)
_cell_angle_alpha                107.308(2)
_cell_angle_beta                 96.001(2)
_cell_angle_gamma                90.147(2)
_cell_volume                     2194.01
_exptl_crystal_colour            colorless
_exptl_crystal_description       prism
_cell_formula_units_Z            2
loop_
_atom_site_label
_atom_site_type_symbol
_atom_site_fract_x
_atom_site_fract_y
_atom_site_fract_z
C1 C 0.77053(11) 0.58553(9) 0.21386(9)
C2 C 0.80369(11) 0.70465(9) 0.23362(8)
H1 H 0.8668(15) 0.7313(13) 0.2079(12)
C3 C 0.79413(11) 0.72524(9) 0.34060(8)
C4 C 0.65888(10) 0.74648(9) 0.32631(8)
H2 H 0.6172(14) 0.8037(13) 0.3663(11)
C5 C 0.66702(10) 0.72506(9) 0.21797(8)
C6 C 0.63469(11) 0.60623(9) 0.19875(9)
H3 H 0.5768(15) 0.5627(13) 0.1470(12)
C7 C 0.62832(11) 0.62659(9) 0.30791(8)
C8 C 0.76239(11) 0.60507(9) 0.32226(9)
H4 H 0.7964(15) 0.5622(13) 0.3603(12)
C9 C 0.84128(11) 0.50095(10) 0.15716(9)
O1 O 0.94744(9) 0.50630(9) 0.16078(9)
O2 O 0.77091(8) 0.41945(7) 0.10261(6)
C10 C 0.88137(11) 0.78322(9) 0.42021(9)
O3 O 0.98415(8) 0.80146(8) 0.41528(7)
O4 O 0.82760(8) 0.80837(7) 0.50032(6)
C11 C 0.61661(11) 0.79378(9) 0.16272(9)
O5 O 0.54426(9) 0.76737(7) 0.09478(7)
O6 O 0.66691(8) 0.89166(7) 0.20077(6)
C12 C 0.53804(11) 0.58565(9) 0.35487(9)
O7 O 0.55817(9) 0.52583(8) 0.40047(8)
O8 O 0.43251(8) 0.62841(7) 0.34145(6)
C13 C 0.82262(11) 0.32743(9) 0.04035(9)
C14 C 0.89442(11) 0.85343(10) 0.59239(9)
C15 C 0.63103(11) 0.97846(9) 0.16411(9)
C16 C 0.32999(11) 0.60853(10) 0.38626(9)
C17 C 0.71453(12) 0.25507(10) -0.00568(9)
H5 H 0.6590 0.2914 -0.0394
H6 H 0.7400 0.1922 -0.0521
N1 N 0.65284(10) 0.22285(9) 0.06437(9)
N2 N 0.57704(11) 0.28474(9) 0.09975(8)
N3 N 0.50563(13) 0.33378(12) 0.13680(10)
C18 C 0.88345(13) 0.35860(11) -0.03456(10)
H7 H 0.9449 0.4134 -0.0031
H8 H 0.9228 0.2973 -0.0722
N4 N 0.80023(13) 0.39775(10) -0.09801(9)
N5 N 0.7630(2) 0.48500(15) -0.06181(12)
N6 N 0.7239(4) 0.5645(2) -0.03740(18)
C19 C 0.90913(12) 0.27885(10) 0.10029(9)
H9 H 0.9855 0.3184 0.1163
H10 H 0.8767 0.2805 0.1592
N7 N 0.92548(16) 0.16953(11) 0.04428(10)
N8 N 0.98028(11) 0.11622(9) 0.08754(8)
N9 N 1.02915(12) 0.05933(10) 0.11909(9)
C20 C 0.79769(12) 0.86721(10) 0.65896(9)
H11 H 0.7550 0.7996 0.6472
H12 H 0.8349 0.8886 0.7245
N10 N 0.71230(11) 0.94645(9) 0.64636(8)
N11 N 0.62802(10) 0.91358(9) 0.58411(8)
N12 N 0.54542(12) 0.89517(11) 0.53169(10)
C21 C 0.95473(12) 0.95845(10) 0.59724(9)
H13 H 1.0150 0.9460 0.5528
H14 H 0.8954 1.0043 0.5789
N13 N 1.01124(10) 1.01057(9) 0.69388(8)
N14 N 0.95107(12) 1.07894(10) 0.74132(9)
N15 N 0.90469(17) 1.14268(13) 0.79132(11)
C22 C 0.98595(12) 0.77771(11) 0.61351(10)
H15 H 1.0441 0.7640 0.5673
H16 H 1.0284 0.8081 0.6768
N16 N 0.92225(14) 0.67944(12) 0.60809(16)
N17 N 0.97961(13) 0.60505(13) 0.60969(17)
N18 N 1.01921(18) 0.5299(2) 0.6130(4)
C23 C 0.71472(12) 1.06885(10) 0.22548(9)
H17 H 0.7968 1.0455 0.2239
H18 H 0.7086 1.1278 0.1987
N19 N 0.68826(11) 1.10580(9) 0.32457(8)
N20 N 0.71949(10) 1.04788(9) 0.37344(8)
N21 N 0.74317(12) 1.00397(10) 0.42633(9)
C24 C 0.49976(12) 0.99921(10) 0.17761(10)
H19 H 0.4496 0.9439 0.1307
H20 H 0.4851 0.9968 0.2406
N22 N 0.46736(11) 1.10278(9) 0.16724(8)
N23 N 0.46263(10) 1.17338(9) 0.24214(8)
N24 N 0.45422(11) 1.24487(10) 0.30454(9)
C25 C 0.65140(13) 0.95697(11) 0.06053(9)
H21 H 0.6041 0.8941 0.0224
H22 H 0.6235 1.0165 0.0390
N25 N 0.77617(14) 0.94112(15) 0.04497(11)
N26 N 0.81289(14) 0.85470(19) 0.04489(11)
N27 N 0.8588(2) 0.7795(3) 0.04265(15)
C26 C 0.29498(12) 0.49190(10) 0.35704(9)
H23 H 0.3585 0.4530 0.3803
H24 H 0.2223 0.4814 0.3842
N28 N 0.27489(14) 0.45347(10) 0.25362(9)
N29 N 0.24439(11) 0.36049(9) 0.21989(8)
N30 N 0.21648(14) 0.27641(11) 0.17965(10)
C27 C 0.23202(11) 0.66981(10) 0.34927(9)
H25 H 0.2168 0.6406 0.2804
H26 H 0.1584 0.6615 0.3762
N31 N 0.26523(11) 0.78279(9) 0.37402(9)
N32 N 0.33151(11) 0.80424(9) 0.32103(10)
N33 N 0.39110(14) 0.83375(12) 0.27741(14)
C28 C 0.36047(11) 0.65210(10) 0.49336(9)
H27 H 0.4242 0.6123 0.5150
H28 H 0.3872 0.7262 0.5109
N34 N 0.25106(10) 0.64170(10) 0.53675(8)
N35 N 0.26647(10) 0.65221(9) 0.62203(8)
N36 N 0.26698(12) 0.66025(10) 0.69939(9)
loop_
_geom_bond_atom_site_label_1
_geom_bond_atom_site_label_2
_geom_bond_site_symmetry_1
_geom_bond_site_symmetry_2
C1 C2 1_555 1_555
C2 H1 1_555 1_555
C3 C2 1_555 1_555
C4 C3 1_555 1_555
H2 C4 1_555 1_555
C5 C2 1_555 1_555
C6 C1 1_555 1_555
H3 C6 1_555 1_555
C7 C4 1_555 1_555
C8 C1 1_555 1_555
H4 C8 1_555 1_555
C9 C1 1_555 1_555
O1 C9 1_555 1_555
O2 C9 1_555 1_555
C10 C3 1_555 1_555
O3 C10 1_555 1_555
O4 C10 1_555 1_555
C11 C5 1_555 1_555
O5 C11 1_555 1_555
O6 C11 1_555 1_555
C12 C7 1_555 1_555
O7 C12 1_555 1_555
O8 C12 1_555 1_555
C13 O2 1_555 1_555
C14 O4 1_555 1_555
C15 O6 1_555 1_555
C16 O8 1_555 1_555
C17 C13 1_555 1_555
H5 C17 1_555 1_555
H6 C17 1_555 1_555
N1 C17 1_555 1_555
N2 N1 1_555 1_555
N3 N2 1_555 1_555
C18 C13 1_555 1_555
H7 C18 1_555 1_555
H8 C18 1_555 1_555
N4 C18 1_555 1_555
N5 N4 1_555 1_555
N6 N5 1_555 1_555
C19 C13 1_555 1_555
H9 C19 1_555 1_555
H10 C19 1_555 1_555
N7 C19 1_555 1_555
N8 N7 1_555 1_555
N9 N8 1_555 1_555
C20 C14 1_555 1_555
H11 C20 1_555 1_555
H12 C20 1_555 1_555
N10 C20 1_555 1_555
N11 N10 1_555 1_555
N12 N11 1_555 1_555
C21 C14 1_555 1_555
H13 C21 1_555 1_555
H14 C21 1_555 1_555
N13 C21 1_555 1_555
N14 N13 1_555 1_555
N15 N14 1_555 1_555
C22 C14 1_555 1_555
H15 C22 1_555 1_555
H16 C22 1_555 1_555
N16 C22 1_555 1_555
N17 N16 1_555 1_555
N18 N17 1_555 1_555
C23 C15 1_555 1_555
H17 C23 1_555 1_555
H18 C23 1_555 1_555
N19 C23 1_555 1_555
N20 N19 1_555 1_555
N21 N20 1_555 1_555
C24 C15 1_555 1_555
H19 C24 1_555 1_555
H20 C24 1_555 1_555
N22 C24 1_555 1_555
N23 N22 1_555 1_555
N24 N23 1_555 1_555
C25 C15 1_555 1_555
H21 C25 1_555 1_555
H22 C25 1_555 1_555
N25 C25 1_555 1_555
N26 N25 1_555 1_555
N27 N26 1_555 1_555
C26 C16 1_555 1_555
H23 C26 1_555 1_555
H24 C26 1_555 1_555
N28 C26 1_555 1_555
N29 N28 1_555 1_555
N30 N29 1_555 1_555
C27 C16 1_555 1_555
H25 C27 1_555 1_555
H26 C27 1_555 1_555
N31 C27 1_555 1_555
N32 N31 1_555 1_555
N33 N32 1_555 1_555
C28 C16 1_555 1_555
H27 C28 1_555 1_555
H28 C28 1_555 1_555
N34 C28 1_555 1_555
N35 N34 1_555 1_555
N36 N35 1_555 1_555
C3 C8 1_555 1_555
C4 C5 1_555 1_555
C5 C6 1_555 1_555
C6 C7 1_555 1_555
C7 C8 1_555 1_555

#END
