
#######################################################################
#
#                 Cambridge Crystallographic Data Centre
#                                CCDC 
#
#######################################################################
#
# If this CIF has been generated from an entry in the Cambridge 
# Structural Database, then it will include bibliographic, chemical, 
# crystal, experimental, refinement or atomic coordinate data resulting 
# from the CCDC's data processing and validation procedures.
#
#######################################################################

data_ITITEK
_chemical_compound_source        'leaves of Isodon rubescens var taihangensis'
_chemical_name_common            'rubescensin U'
_chemical_formula_moiety         'C20 H28 O6'
_chemical_name_systematic        
(20S)-1\a,7\a,20-trihydroxy-6,15-dioxo-11\b,20-epoxy-8,15-sec-ent-kaur-16(17)-ene
_symmetry_cell_setting           monoclinic
_symmetry_space_group_name_H-M   'P 21'
_symmetry_Int_Tables_number      4
_space_group_name_Hall           'P 2yb'
loop_
_symmetry_equiv_pos_site_id
_symmetry_equiv_pos_as_xyz
1 x,y,z
2 -x,1/2+y,-z
_cell_length_a                   12.368(2)
_cell_length_b                   6.275(1)
_cell_length_c                   12.289(2)
_cell_angle_alpha                90
_cell_angle_beta                 102.76(1)
_cell_angle_gamma                90
_cell_volume                     930.186
_exptl_crystal_colour            colorless
_exptl_crystal_description       prismatic
_chemical_melting_point          202-204deg.C
_cell_formula_units_Z            2
_exptl_crystal_recrystallization_method methanol
loop_
_atom_site_label
_atom_site_type_symbol
_atom_site_fract_x
_atom_site_fract_y
_atom_site_fract_z
O1 O 0.4392(5) 0.1202(16) 0.3443(6)
O2 O 0.8862(5) 0.3290(15) 0.3310(6)
O3 O 0.9762(5) 0.0716 0.5005(7)
O4 O 0.6431(5) 0.4076(14) 0.5010(6)
O5 O 0.5293(6) 0.5061(14) 0.3361(7)
O6 O 1.0017(9) 0.2336(23) 0.8592(9)
C1 C 0.5264(8) 0.0531(22) 0.2883(10)
C2 C 0.4904(8) 0.1233(23) 0.1681(9)
C3 C 0.5772(9) 0.0856(24) 0.0982(9)
C4 C 0.6896(8) 0.2000(22) 0.1508(9)
C5 C 0.7202(7) 0.1110(22) 0.2713(8)
C6 C 0.8375(8) 0.1664(21) 0.3396(9)
C7 C 0.8810(8) -0.0166(21) 0.4228(10)
C8 C 0.7871(7) -0.1012(20) 0.4769(9)
C9 C 0.6900(7) 0.0622(21) 0.4655(8)
C10 C 0.6405(7) 0.1599(20) 0.3498(8)
C11 C 0.7298 0.2508(20) 0.5408(9)
C12 C 0.7490(8) 0.1949(19) 0.6623(8)
C13 C 0.8452(8) 0.0286(22) 0.6825(9)
C14 C 0.8229(7) -0.1573(21) 0.6021(8)
C15 C 0.9541(10) 0.0870(30) 0.8843(10)
C16 C 0.8736(8) -0.0380(22) 0.8016(9)
C17 C 0.8279(10) -0.2040(30) 0.8444(11)
C18 C 0.7770(9) 0.1170(30) 0.0859(9)
C19 C 0.6785(9) 0.4443(23) 0.1377(10)
C20 C 0.6291(8) 0.4014(20) 0.3828(10)
H1 H 0.448 0.072 0.427
H2 H 1.031 -0.072 0.521
H3 H 0.487 0.396 0.331
H4 H 0.537 -0.120 0.292
H5 H 0.413 0.040 0.130
H6 H 0.471 0.294 0.167
H7 H 0.548 0.141 0.013
H8 H 0.595 -0.085 0.095
H9 H 0.719 -0.059 0.262
H10 H 0.908 -0.147 0.376
H11 H 0.754 -0.248 0.432
H12 H 0.624 -0.016 0.495
H13 H 0.808 0.308 0.524
H14 H 0.771 0.335 0.714
H15 H 0.676 0.123 0.680
H16 H 0.920 0.114 0.665
H17 H 0.756 -0.248 0.623
H18 H 0.896 -0.254 0.612
H19 H 0.982 -0.004 0.965
H20 H 0.752 -0.286 0.800
H21 H 0.866 -0.267 0.927
H22 H 0.798 -0.049 0.109
H23 H 0.853 0.210 0.108
H24 H 0.739 0.131 0.000
H25 H 0.750 0.523 0.190
H26 H 0.605 0.498 0.165
H27 H 0.672 0.479 0.050
H28 H 0.699 0.490 0.360
loop_
_geom_bond_atom_site_label_1
_geom_bond_atom_site_label_2
_geom_bond_site_symmetry_1
_geom_bond_site_symmetry_2
O1 C1 1_555 1_555
O2 C6 1_555 1_555
O3 C7 1_555 1_555
O4 C11 1_555 1_555
O5 C20 1_555 1_555
O6 C15 1_555 1_555
C1 C2 1_555 1_555
C2 C3 1_555 1_555
C3 C4 1_555 1_555
C4 C5 1_555 1_555
C5 C6 1_555 1_555
C6 C7 1_555 1_555
C7 C8 1_555 1_555
C8 C9 1_555 1_555
C9 C10 1_555 1_555
C10 C1 1_555 1_555
C11 C9 1_555 1_555
C12 C11 1_555 1_555
C13 C12 1_555 1_555
C14 C8 1_555 1_555
C15 C16 1_555 1_555
C16 C13 1_555 1_555
C17 C16 1_555 1_555
C18 C4 1_555 1_555
C19 C4 1_555 1_555
C20 O4 1_555 1_555
H1 O1 1_555 1_555
H2 O3 1_555 1_555
H3 O5 1_555 1_555
H4 C1 1_555 1_555
H5 C2 1_555 1_555
H6 C2 1_555 1_555
H7 C3 1_555 1_555
H8 C3 1_555 1_555
H9 C5 1_555 1_555
H10 C7 1_555 1_555
H11 C8 1_555 1_555
H12 C9 1_555 1_555
H13 C11 1_555 1_555
H14 C12 1_555 1_555
H15 C12 1_555 1_555
H16 C13 1_555 1_555
H17 C14 1_555 1_555
H18 C14 1_555 1_555
H19 C15 1_555 1_555
H20 C17 1_555 1_555
H21 C17 1_555 1_555
H22 C18 1_555 1_555
H23 C18 1_555 1_555
H24 C18 1_555 1_555
H25 C19 1_555 1_555
H26 C19 1_555 1_555
H27 C19 1_555 1_555
H28 C20 1_555 1_555
C5 C10 1_555 1_555
C10 C20 1_555 1_555
C13 C14 1_555 1_555

#END
