
#######################################################################
#
#                 Cambridge Crystallographic Data Centre
#                                CCDC 
#
#######################################################################
#
# If this CIF has been generated from an entry in the Cambridge 
# Structural Database, then it will include bibliographic, chemical, 
# crystal, experimental, refinement or atomic coordinate data resulting 
# from the CCDC's data processing and validation procedures.
#
#######################################################################

data_ITOFUT
_chemical_name_common            
"(1R,3R,4S,4'S,5R,5'S,6S)-t-butyl 5,6-dihydroxy-4',5'-diphenyl-3-(phenylsulfonyl)-7-azaspiro[bicyclo[2.2.1]heptane-2,2'-[1,3]dioxolane]-7-carboxylate"
_chemical_formula_moiety         'C31 H33 N1 O8 S1'
_chemical_name_systematic        
"t-Butyl 5,6-dihydroxy-4',5'-diphenyl-3-(phenylsulfonyl)-7H-spiro[7-azabicyclo[2.2.1]heptane-2,2'-[1,3]dioxolane]-7-carboxylate"
_symmetry_cell_setting           monoclinic
_symmetry_space_group_name_H-M   'P 21'
_symmetry_Int_Tables_number      4
_space_group_name_Hall           'P 2yb'
loop_
_symmetry_equiv_pos_site_id
_symmetry_equiv_pos_as_xyz
1 x,y,z
2 -x,1/2+y,-z
_cell_length_a                   9.4194(18)
_cell_length_b                   12.057(2)
_cell_length_c                   13.214(3)
_cell_angle_alpha                90
_cell_angle_beta                 95.929(3)
_cell_angle_gamma                90
_cell_volume                     1492.68
_exptl_crystal_colour            colorless
_exptl_crystal_description       blocks
_cell_formula_units_Z            2
loop_
_atom_site_label
_atom_site_type_symbol
_atom_site_fract_x
_atom_site_fract_y
_atom_site_fract_z
S1 S 0.27123(8) 0.22075(5) 0.64165(5)
O1 O 0.36664(16) -0.04194(13) 0.78476(13)
O2 O 0.52282(18) 0.06854(14) 0.71304(14)
O3 O 0.1405(3) 0.2815(2) 0.64191(19)
C1 C 0.4201(2) 0.06715(19) 0.78263(18)
O4 O 0.1476(2) 0.10068(19) 1.00096(15)
C2 C 0.2885(3) 0.1442(2) 0.75964(19)
C3 C 0.2907(4) 0.2156(2) 0.8576(2)
H1 H 0.1979 0.2467 0.8698
O5 O 0.3989(3) 0.28148(17) 0.62845(17)
O6 O 0.3449(2) -0.00121(19) 1.04997(16)
C4 C 0.2828(3) 0.0705(2) 0.99872(19)
C5 C 0.2487(3) 0.1156(2) 0.5469(2)
C6 C 0.4816(3) -0.1138(2) 0.7624(2)
N1 N 0.3474(3) 0.13334(18) 0.93302(17)
C7 C 0.7180(3) -0.0620(2) 0.69801(18)
C8 C 0.5579(2) -0.0437(2) 0.68830(18)
C9 C 0.4186(3) -0.2220(2) 0.7226(2)
C10 C 0.1190(4) 0.0628(3) 0.5291(3)
C11 C 0.7751(3) -0.1322(3) 0.6301(2)
C12 C 0.3369(3) -0.2289(3) 0.6303(3)
C13 C 0.5462(4) 0.2246(3) 0.8792(2)
O7 O 0.3981(5) 0.3677(2) 0.9508(2)
H2 H 0.4659 0.4106 0.9591
C14 C 0.4790(3) 0.1089(2) 0.8890(2)
C15 C 0.8067(3) -0.0171(3) 0.7758(3)
C16 C 0.3606(4) 0.0883(3) 0.4933(2)
C17 C 0.4339(4) -0.3162(3) 0.7822(3)
H3 H 0.4875 -0.3129 0.8453
C18 C 0.3722(7) -0.4135(3) 0.7502(6)
C19 C 0.0690(3) 0.0736(4) 1.0894(3)
C20 C 0.1517(5) 0.1209(4) 1.1835(3)
H4 H 0.1625 0.1995 1.1754
H5 H 0.2442 0.0868 1.1933
H6 H 0.1011 0.1066 1.2415
C21 C 0.1031(6) -0.0209(4) 0.4565(3)
C22 C 1.0060(3) -0.1135(4) 0.7206(3)
C23 C 0.2148(7) -0.0501(4) 0.4042(3)
C24 C 0.3418(7) 0.0036(4) 0.4213(3)
C25 C 0.9185(3) -0.1584(3) 0.6422(3)
C26 C 0.2932(5) -0.4199(3) 0.6580(6)
O8 O 0.6341(4) 0.2487(3) 0.9694(2)
H7 H 0.6481 0.3157 0.9734
C27 C 0.4129(5) 0.2994(3) 0.8654(3)
C28 C 0.9512(3) -0.0434(4) 0.7866(3)
C29 C 0.2753(5) -0.3281(4) 0.5977(5)
C30 C -0.0695(4) 0.1351(6) 1.0623(4)
H8 H -0.0505 0.2131 1.0578
H9 H -0.1323 0.1224 1.1139
H10 H -0.1137 0.1089 0.9980
C31 C 0.0477(6) -0.0514(5) 1.0974(4)
H11 H 0.1382 -0.0866 1.1152
H12 H 0.0059 -0.0795 1.0332
H13 H -0.0145 -0.0667 1.1488
H14 H 0.517(2) -0.059(2) 0.6193(19)
H15 H 0.205(3) 0.098(2) 0.7561(18)
H16 H 0.542(2) -0.125(2) 0.8241(19)
H17 H 0.539(3) 0.059(3) 0.926(2)
H18 H 0.768(4) 0.033(3) 0.820(3)
H19 H 0.599(3) 0.227(3) 0.815(2)
H20 H 0.046(4) 0.087(3) 0.570(3)
H21 H 0.324(3) -0.166(3) 0.589(2)
H22 H 1.111(5) -0.121(4) 0.727(3)
H23 H 1.010(5) -0.018(4) 0.838(4)
H24 H 0.449(3) 0.126(3) 0.509(2)
H25 H 0.013(6) -0.063(5) 0.457(4)
H26 H 0.239(6) -0.483(6) 0.628(5)
H27 H 0.706(3) -0.170(3) 0.576(3)
H28 H 0.411(4) 0.342(4) 0.802(3)
H29 H 0.395(8) -0.474(7) 0.789(5)
H30 H 0.223(4) -0.331(4) 0.539(3)
H31 H 0.204(5) -0.109(5) 0.351(4)
H32 H 0.961(4) -0.212(3) 0.594(3)
H33 H 0.416(5) -0.014(5) 0.386(4)
loop_
_geom_bond_atom_site_label_1
_geom_bond_atom_site_label_2
_geom_bond_site_symmetry_1
_geom_bond_site_symmetry_2
S1 O3 1_555 1_555
O1 C1 1_555 1_555
O2 C1 1_555 1_555
C1 C2 1_555 1_555
O4 C4 1_555 1_555
C2 S1 1_555 1_555
C3 C2 1_555 1_555
H1 C3 1_555 1_555
O5 S1 1_555 1_555
O6 C4 1_555 1_555
C4 N1 1_555 1_555
C5 S1 1_555 1_555
C6 O1 1_555 1_555
N1 C3 1_555 1_555
C7 C8 1_555 1_555
C8 O2 1_555 1_555
C9 C6 1_555 1_555
C10 C5 1_555 1_555
C11 C7 1_555 1_555
C12 C9 1_555 1_555
C13 C14 1_555 1_555
O7 H2 1_555 1_555
C14 C1 1_555 1_555
C15 C7 1_555 1_555
C16 C5 1_555 1_555
C17 C9 1_555 1_555
H3 C17 1_555 1_555
C18 C17 1_555 1_555
C19 O4 1_555 1_555
C20 C19 1_555 1_555
H4 C20 1_555 1_555
H5 C20 1_555 1_555
H6 C20 1_555 1_555
C21 C10 1_555 1_555
C22 C25 1_555 1_555
C23 C21 1_555 1_555
C24 C16 1_555 1_555
C25 C11 1_555 1_555
C26 C18 1_555 1_555
O8 C13 1_555 1_555
H7 O8 1_555 1_555
C27 C3 1_555 1_555
C28 C15 1_555 1_555
C29 C12 1_555 1_555
C30 C19 1_555 1_555
H8 C30 1_555 1_555
H9 C30 1_555 1_555
H10 C30 1_555 1_555
C31 C19 1_555 1_555
H11 C31 1_555 1_555
H12 C31 1_555 1_555
H13 C31 1_555 1_555
H14 C8 1_555 1_555
H15 C2 1_555 1_555
H16 C6 1_555 1_555
H17 C14 1_555 1_555
H18 C15 1_555 1_555
H19 C13 1_555 1_555
H20 C10 1_555 1_555
H21 C12 1_555 1_555
H22 C22 1_555 1_555
H23 C28 1_555 1_555
H24 C16 1_555 1_555
H25 C21 1_555 1_555
H26 C26 1_555 1_555
H27 C11 1_555 1_555
H28 C27 1_555 1_555
H29 C18 1_555 1_555
H30 C29 1_555 1_555
H31 C23 1_555 1_555
H32 C25 1_555 1_555
H33 C24 1_555 1_555
C6 C8 1_555 1_555
N1 C14 1_555 1_555
C13 C27 1_555 1_555
O7 C27 1_555 1_555
C22 C28 1_555 1_555
C23 C24 1_555 1_555
C26 C29 1_555 1_555

#END
