
#######################################################################
#
#                 Cambridge Crystallographic Data Centre
#                                CCDC 
#
#######################################################################
#
# If this CIF has been generated from an entry in the Cambridge 
# Structural Database, then it will include bibliographic, chemical, 
# crystal, experimental, refinement or atomic coordinate data resulting 
# from the CCDC's data processing and validation procedures.
#
#######################################################################

data_ITOGAA
_chemical_name_common            
"(1R,3S,4S,4'R,5R,5'R,6S)-t-butyl 5,6-dihydroxy-4',5'-diphenyl-3-(phenylsulfonyl)-7-azaspiro[bicyclo[2.2.1]heptane-2,2'-[1,3]dioxolane]-7-carboxylate"
_chemical_formula_moiety         'C31 H33 N1 O8 S1'
_chemical_name_systematic        
"t-Butyl 5,6-dihydroxy-4',5'-diphenyl-3-(phenylsulfonyl)-7H-spiro[7-azabicyclo[2.2.1]heptane-2,2'-[1,3]dioxolane]-7-carboxylate"
_symmetry_cell_setting           orthorhombic
_symmetry_space_group_name_H-M   'P 21 21 21'
_symmetry_Int_Tables_number      19
_space_group_name_Hall           'P 2ac 2ab'
loop_
_symmetry_equiv_pos_site_id
_symmetry_equiv_pos_as_xyz
1 x,y,z
2 1/2-x,-y,1/2+z
3 -x,1/2+y,1/2-z
4 1/2+x,1/2-y,-z
_cell_length_a                   10.900(3)
_cell_length_b                   11.523(3)
_cell_length_c                   24.278(7)
_cell_angle_alpha                90
_cell_angle_beta                 90
_cell_angle_gamma                90
_cell_volume                     3049.33
_exptl_crystal_colour            colorless
_exptl_crystal_description       blocks
_cell_formula_units_Z            4
loop_
_atom_site_label
_atom_site_type_symbol
_atom_site_fract_x
_atom_site_fract_y
_atom_site_fract_z
S1 S 0.69660(5) 0.14047(6) 0.11471(3)
O1 O 0.87682(13) 0.33946(13) 0.12159(6)
O2 O 0.75345(14) 0.40917(13) 0.18930(6)
O3 O 0.62337(14) 0.04397(15) 0.13195(7)
O4 O 1.07085(14) 0.01722(15) 0.16977(8)
N1 N 0.96214(15) 0.17106(15) 0.19902(8)
C1 C 0.8227(2) 0.4445(2) 0.10160(10)
O5 O 1.15441(14) 0.19711(16) 0.17676(8)
O6 O 0.63869(15) 0.23374(15) 0.08532(7)
C2 C 0.7567(2) 0.1994(2) 0.17742(10)
C3 C 0.9109(2) 0.5074(2) 0.06473(10)
C4 C 0.8288(2) 0.3157(2) 0.17461(9)
C5 C 0.8430(2) 0.1202(2) 0.21065(10)
O7 O 0.8924(2) 0.0739(2) 0.30481(9)
C6 C 0.9350(2) 0.2906(2) 0.21467(10)
O8 O 0.9709(2) 0.2838(2) 0.31465(9)
C7 C 1.0644(2) 0.1200(2) 0.18111(10)
C8 C 0.8181(2) 0.0841(2) 0.07517(10)
C9 C 0.7855(2) 0.5059(2) 0.15484(10)
C10 C 0.6772(2) 0.5863(2) 0.15202(10)
C11 C 0.8264(2) 0.1524(3) 0.27127(11)
C12 C 1.0353(3) 0.4956(3) 0.06996(13)
C13 C 0.8810(2) 0.2759(2) 0.27253(11)
C14 C 0.5624(3) 0.5432(3) 0.14014(12)
C15 C 0.8515(3) -0.0294(3) 0.08315(12)
C16 C 1.2756(2) 0.1666(3) 0.15315(13)
C17 C 0.6897(4) 0.7020(3) 0.16275(15)
C18 C 0.8719(3) 0.1504(3) 0.03448(12)
C19 C 0.5873(6) 0.7741(4) 0.1612(2)
C20 C 0.8668(4) 0.5795(3) 0.02445(14)
C21 C 1.1138(4) 0.5548(4) 0.03535(19)
C22 C 0.9407(3) -0.0795(4) 0.05078(16)
C23 C 0.4617(3) 0.6155(4) 0.13936(14)
C24 C 1.3425(3) 0.2806(3) 0.15730(17)
H1 H 1.3021 0.3372 0.1347
H2 H 1.4255 0.2708 0.1450
H3 H 1.3424 0.3063 0.1949
C25 C 1.2590(3) 0.1317(4) 0.09423(14)
H4 H 1.2210 0.1940 0.0743
H5 H 1.2079 0.0640 0.0924
H6 H 1.3376 0.1148 0.0783
C26 C 1.0698(5) 0.6254(4) -0.00448(18)
C27 C 0.9608(4) 0.0981(5) 0.00174(15)
C28 C 0.9454(5) 0.6383(4) -0.00998(16)
C29 C 1.3358(3) 0.0752(3) 0.18757(15)
H7 H 1.2912 0.0038 0.1842
H8 H 1.3364 0.0994 0.2254
H9 H 1.4186 0.0640 0.1752
C30 C 0.9944(3) -0.0157(5) 0.01070(18)
C31 C 0.4750(5) 0.7308(4) 0.14997(18)
H10 H 0.8545(18) 0.5486(17) 0.1682(7)
H11 H 0.6823(17) 0.2167(16) 0.1977(7)
H12 H 0.8198(17) 0.3300(16) 0.2785(7)
H13 H 0.7527(18) 0.4270(18) 0.0798(8)
H14 H 1.0013(18) 0.3426(18) 0.2127(8)
H15 H 0.8443(17) 0.0434(19) 0.2032(8)
H16 H 0.735(2) 0.147(2) 0.2793(9)
H17 H 0.817(2) -0.068(2) 0.1099(9)
H18 H 0.607(3) 0.844(3) 0.1676(14)
H19 H 0.408(3) 0.783(3) 0.1456(12)
H20 H 0.976(3) -0.157(3) 0.0594(15)
H21 H 1.050(3) -0.049(3) -0.0127(13)
H22 H 0.970(3) 0.353(3) 0.3223(13)
H23 H 1.119(3) 0.672(3) -0.0308(13)
H24 H 0.997(3) 0.145(3) -0.0222(14)
H25 H 0.919(3) 0.684(3) -0.0357(15)
H26 H 0.852(2) 0.227(2) 0.0327(11)
H27 H 0.556(2) 0.468(2) 0.1313(10)
H28 H 0.778(3) 0.591(3) 0.0216(12)
H29 H 0.767(2) 0.734(2) 0.1723(11)
H30 H 0.930(3) 0.122(3) 0.3254(14)
H31 H 0.384(3) 0.583(3) 0.1255(13)
H32 H 1.068(2) 0.445(3) 0.0934(11)
H33 H 1.194(3) 0.541(3) 0.0385(14)
loop_
_geom_bond_atom_site_label_1
_geom_bond_atom_site_label_2
_geom_bond_site_symmetry_1
_geom_bond_site_symmetry_2
S1 O3 1_555 1_555
O1 C1 1_555 1_555
O2 C4 1_555 1_555
O4 C7 1_555 1_555
N1 C5 1_555 1_555
C1 C3 1_555 1_555
O5 C7 1_555 1_555
O6 S1 1_555 1_555
C2 S1 1_555 1_555
C3 C12 1_555 1_555
C4 O1 1_555 1_555
C5 C2 1_555 1_555
O7 C11 1_555 1_555
C6 N1 1_555 1_555
O8 C13 1_555 1_555
C7 N1 1_555 1_555
C8 S1 1_555 1_555
C9 O2 1_555 1_555
C10 C9 1_555 1_555
C11 C5 1_555 1_555
C12 C21 1_555 1_555
C13 C6 1_555 1_555
C14 C10 1_555 1_555
C15 C8 1_555 1_555
C16 O5 1_555 1_555
C17 C10 1_555 1_555
C18 C8 1_555 1_555
C19 C17 1_555 1_555
C20 C3 1_555 1_555
C21 C26 1_555 1_555
C22 C15 1_555 1_555
C23 C14 1_555 1_555
C24 C16 1_555 1_555
H1 C24 1_555 1_555
H2 C24 1_555 1_555
H3 C24 1_555 1_555
C25 C16 1_555 1_555
H4 C25 1_555 1_555
H5 C25 1_555 1_555
H6 C25 1_555 1_555
C26 C28 1_555 1_555
C27 C18 1_555 1_555
C28 C20 1_555 1_555
C29 C16 1_555 1_555
H7 C29 1_555 1_555
H8 C29 1_555 1_555
H9 C29 1_555 1_555
C30 C22 1_555 1_555
C31 C19 1_555 1_555
H10 C9 1_555 1_555
H11 C2 1_555 1_555
H12 C13 1_555 1_555
H13 C1 1_555 1_555
H14 C6 1_555 1_555
H15 C5 1_555 1_555
H16 C11 1_555 1_555
H17 C15 1_555 1_555
H18 C19 1_555 1_555
H19 C31 1_555 1_555
H20 C22 1_555 1_555
H21 C30 1_555 1_555
H22 O8 1_555 1_555
H23 C26 1_555 1_555
H24 C27 1_555 1_555
H25 C28 1_555 1_555
H26 C18 1_555 1_555
H27 C14 1_555 1_555
H28 C20 1_555 1_555
H29 C17 1_555 1_555
H30 O7 1_555 1_555
H31 C23 1_555 1_555
H32 C12 1_555 1_555
H33 C21 1_555 1_555
C1 C9 1_555 1_555
C2 C4 1_555 1_555
C4 C6 1_555 1_555
C11 C13 1_555 1_555
C23 C31 1_555 1_555
C27 C30 1_555 1_555

#END
