
#######################################################################
#
#                 Cambridge Crystallographic Data Centre
#                                CCDC 
#
#######################################################################
#
# If this CIF has been generated from an entry in the Cambridge 
# Structural Database, then it will include bibliographic, chemical, 
# crystal, experimental, refinement or atomic coordinate data resulting 
# from the CCDC's data processing and validation procedures.
#
#######################################################################

data_ITOLAG
_chemical_formula_moiety         'C21 H19 N1 O3'
_chemical_name_systematic        
4-benzyl-4-(3-oxocyclopentyl)-2-phenyl-1,3-oxazol-5(4H)-one
_symmetry_cell_setting           triclinic
_symmetry_space_group_name_H-M   'P -1'
_symmetry_Int_Tables_number      2
_space_group_name_Hall           '-P 1'
loop_
_symmetry_equiv_pos_site_id
_symmetry_equiv_pos_as_xyz
1 x,y,z
2 -x,-y,-z
_cell_length_a                   7.7814(4)
_cell_length_b                   9.8387(4)
_cell_length_c                   12.3163(6)
_cell_angle_alpha                90.726(3)
_cell_angle_beta                 99.896(2)
_cell_angle_gamma                108.482(2)
_cell_volume                     878.705
_exptl_crystal_colour            colorless
_exptl_crystal_description       bar
_cell_formula_units_Z            2
loop_
_atom_site_label
_atom_site_type_symbol
_atom_site_fract_x
_atom_site_fract_y
_atom_site_fract_z
O1 O 0.07401(13) 0.59260(10) 0.18934(8)
O2 O 0.01967(15) 0.43230(11) 0.31840(9)
N1 N 0.27918(16) 0.78913(12) 0.28979(10)
C1 C 0.24594(19) 0.67410(14) 0.36527(11)
C2 C 0.18366(19) 0.73633(15) 0.19628(12)
C3 C 0.10087(19) 0.54927(15) 0.29523(12)
C4 C 0.4847(2) 0.57084(18) 0.30751(12)
C5 C 0.17831(19) 0.71306(15) 0.46730(12)
H1 H 0.1615 0.6320 0.5143
C6 C 0.1740(2) 0.80885(16) 0.09362(12)
C7 C 0.4226(2) 0.63266(18) 0.40017(13)
H2 H 0.5218 0.7175 0.4344
H3 H 0.4011 0.5630 0.4556
C8 C 0.3103(2) 0.84727(17) 0.53662(14)
H4 H 0.4136 0.8265 0.5809
H5 H 0.3570 0.9240 0.4899
C9 C -0.0022(2) 0.74678(18) 0.44391(14)
H6 H -0.0083 0.8007 0.3788
H7 H -0.1070 0.6591 0.4326
O3 O -0.1321(2) 0.85897(15) 0.57006(13)
C10 C 0.0001(3) 0.83505(17) 0.54518(15)
C11 C 0.5804(2) 0.6580(2) 0.23564(14)
H8 H 0.6053 0.7569 0.2440
C12 C 0.0631(3) 0.74049(19) -0.00378(13)
H9 H -0.0071 0.6440 -0.0064
C13 C 0.4496(2) 0.4245(2) 0.29269(15)
H10 H 0.3840 0.3633 0.3392
C14 C 0.1923(3) 0.88781(18) 0.60958(15)
H11 H 0.2002 0.8424 0.6789
H12 H 0.2323 0.9911 0.6253
C15 C 0.6390(3) 0.6019(3) 0.15270(16)
H13 H 0.7019 0.6626 0.1049
C16 C 0.2796(3) 0.9511(2) 0.09526(16)
H14 H 0.3561 0.9980 0.1605
C17 C 0.1589(4) 0.9567(2) -0.09473(17)
H15 H 0.1515 1.0072 -0.1578
C18 C 0.6060(3) 0.4571(3) 0.13925(17)
H16 H 0.6475 0.4192 0.0832
C19 C 0.0562(3) 0.8156(2) -0.09798(15)
H17 H -0.0190 0.7694 -0.1638
C20 C 0.2724(4) 1.0241(2) 0.00090(18)
H18 H 0.3453 1.1197 0.0024
C21 C 0.5111(3) 0.3682(2) 0.20934(17)
H19 H 0.4880 0.2696 0.2007
loop_
_geom_bond_atom_site_label_1
_geom_bond_atom_site_label_2
_geom_bond_site_symmetry_1
_geom_bond_site_symmetry_2
O1 C2 1_555 1_555
O2 C3 1_555 1_555
N1 C1 1_555 1_555
C1 C3 1_555 1_555
C2 N1 1_555 1_555
C3 O1 1_555 1_555
C4 C7 1_555 1_555
C5 C1 1_555 1_555
H1 C5 1_555 1_555
C6 C2 1_555 1_555
C7 C1 1_555 1_555
H2 C7 1_555 1_555
H3 C7 1_555 1_555
C8 C5 1_555 1_555
H4 C8 1_555 1_555
H5 C8 1_555 1_555
C9 C5 1_555 1_555
H6 C9 1_555 1_555
H7 C9 1_555 1_555
O3 C10 1_555 1_555
C10 C9 1_555 1_555
C11 C4 1_555 1_555
H8 C11 1_555 1_555
C12 C6 1_555 1_555
H9 C12 1_555 1_555
C13 C4 1_555 1_555
H10 C13 1_555 1_555
C14 C8 1_555 1_555
H11 C14 1_555 1_555
H12 C14 1_555 1_555
C15 C11 1_555 1_555
H13 C15 1_555 1_555
C16 C6 1_555 1_555
H14 C16 1_555 1_555
C17 H15 1_555 1_555
C18 C15 1_555 1_555
H16 C18 1_555 1_555
C19 C12 1_555 1_555
H17 C19 1_555 1_555
C20 C16 1_555 1_555
H18 C20 1_555 1_555
C21 C13 1_555 1_555
H19 C21 1_555 1_555
C10 C14 1_555 1_555
C17 C19 1_555 1_555
C17 C20 1_555 1_555
C18 C21 1_555 1_555

#END
