
#######################################################################
#
#                 Cambridge Crystallographic Data Centre
#                                CCDC 
#
#######################################################################
#
# If this CIF has been generated from an entry in the Cambridge 
# Structural Database, then it will include bibliographic, chemical, 
# crystal, experimental, refinement or atomic coordinate data resulting 
# from the CCDC's data processing and validation procedures.
#
#######################################################################

data_ITOLOU02
_chemical_formula_moiety         'C14 H15 N5 O3,H2 O1'
_chemical_name_systematic        
'4-(6-amino-9H-purin-9-yl)-2-ethynyl-1-(hydroxymethyl)bicyclo[3.1.0]hexane-2,3-diol monohydrate'
_symmetry_cell_setting           orthorhombic
_symmetry_space_group_name_H-M   'P 21 21 21'
_symmetry_Int_Tables_number      19
_space_group_name_Hall           'P 2ac 2ab'
loop_
_symmetry_equiv_pos_site_id
_symmetry_equiv_pos_as_xyz
1 x,y,z
2 1/2-x,-y,1/2+z
3 -x,1/2+y,1/2-z
4 1/2+x,1/2-y,-z
_cell_length_a                   7.51038(10)
_cell_length_b                   17.3551(2)
_cell_length_c                   23.2172(4)
_cell_angle_alpha                90
_cell_angle_beta                 90
_cell_angle_gamma                90
_cell_volume                     3026.21
_exptl_crystal_colour            colorless
_exptl_crystal_description       block
_cell_formula_units_Z            8
loop_
_atom_site_label
_atom_site_type_symbol
_atom_site_fract_x
_atom_site_fract_y
_atom_site_fract_z
O1 O 0.35600(15) 0.55017(7) 0.82856(5)
H1 H 0.3667 0.5216 0.8006
O2 O 0.60850(16) 0.46803(7) 0.88494(5)
H2 H 0.5067 0.4584 0.8955
O3 O 0.83383(17) 0.64141(7) 0.99670(5)
H3 H 0.9272 0.6265 1.0112
N1 N 0.69765(19) 0.81638(8) 0.68534(6)
N2 N 0.5025(2) 0.73939(8) 0.74409(6)
N3 N 0.9607(2) 0.87048(9) 0.71855(7)
H4 H 1.047(3) 0.8746(14) 0.7461(11)
H5 H 0.976(4) 0.8896(15) 0.6835(12)
N4 N 0.8683(2) 0.79319(8) 0.83456(6)
N5 N 0.61428(19) 0.72531(8) 0.84187(6)
C1 C 0.4789(2) 0.67103(9) 0.86310(7)
H6 H 0.3596 0.6885 0.8520
C2 C 0.5517(2) 0.77406(10) 0.69524(8)
H7 H 0.4748 0.7681 0.6642
C3 C 0.5165(2) 0.59028(9) 0.83768(7)
H8 H 0.5825 0.5950 0.8014
C4 C 0.8222(2) 0.56242(10) 0.86859(7)
C5 C 0.9680(2) 0.57452(11) 0.85075(8)
H9 H 1.0820 0.5840 0.8368
C6 C 0.6348(2) 0.54919(9) 0.88445(7)
C7 C 0.6223(2) 0.75156(9) 0.78635(7)
C8 C 0.5877(2) 0.58764(9) 0.94154(7)
C9 C 0.7785(2) 0.79371(9) 0.78226(7)
C10 C 0.7121(3) 0.57789(10) 0.99199(7)
H10 H 0.6430 0.5739 1.0272
H11 H 0.7789 0.5304 0.9874
C11 C 0.8155(2) 0.82780(9) 0.72851(7)
C12 C 0.4907(2) 0.66223(9) 0.92779(7)
H12 H 0.5113 0.7078 0.9518
C13 C 0.3893(2) 0.59492(10) 0.95210(7)
H13 H 0.3097 0.5673 0.9265
H14 H 0.3490 0.5984 0.9917
C14 C 0.7662(2) 0.75125(9) 0.86831(7)
H15 H 0.7944 0.7403 0.9064
O4 O 0.17428(16) 0.66495(7) 0.73153(5)
H16 H 0.2564 0.6918 0.7433
O5 O 0.12864(18) 0.74479(7) 0.63692(6)
H17 H 0.096(4) 0.7478(16) 0.6708(13)
O6 O 0.00199(18) 0.56928(8) 0.51533(5)
H18 H 0.0648 0.5922 0.4920
N6 N 0.7270(2) 0.39144(8) 0.70893(6)
N7 N 0.47151(19) 0.46789(8) 0.73383(6)
N8 N 0.7739(2) 0.33681(8) 0.61971(6)
H19 H 0.8694 0.3160 0.6330
H20 H 0.7433 0.3291 0.5845
N9 N 0.42489(19) 0.42284(8) 0.58411(6)
N10 N 0.27621(19) 0.48931(8) 0.65211(6)
C15 C 0.4009(3) 0.65570(12) 0.54341(8)
H21 H 0.4880 0.6526 0.5150
C16 C 0.1500(2) 0.54199(9) 0.68055(7)
H22 H 0.1240 0.5241 0.7197
C17 C 0.2300(2) 0.62415(9) 0.68221(7)
H23 H 0.3603 0.6215 0.6810
C18 C 0.6259(2) 0.43261(10) 0.74487(7)
H24 H 0.6683 0.4373 0.7823
C19 C 0.2893(2) 0.65963(10) 0.57976(8)
C20 C 0.1569(2) 0.66461(9) 0.62608(7)
C21 C -0.0157(2) 0.62198(9) 0.61138(7)
C22 C 0.4236(2) 0.45898(9) 0.67847(7)
C23 C -0.0874(2) 0.62348(11) 0.55076(8)
H25 H -0.2137 0.6118 0.5514
H26 H -0.0727 0.6747 0.5348
C24 C 0.5136(2) 0.41767(9) 0.63644(7)
C25 C -0.0197(2) 0.54804(10) 0.64596(7)
H27 H -0.0703 0.5015 0.6286
C26 C 0.6733(2) 0.38098(9) 0.65370(7)
C27 C -0.1418(2) 0.61380(10) 0.66184(8)
H28 H -0.1149 0.6425 0.6966
H29 H -0.2676 0.6081 0.6535
C28 C 0.2860(2) 0.46682(9) 0.59548(7)
H30 H 0.2029 0.4812 0.5678
O7 O 0.29047(18) 0.39744(8) 0.91927(6)
H31 H 0.1799 0.4034 0.9253
H32 H 0.287(4) 0.3706(17) 0.8865(13)
O8 O 0.91001(19) 0.38255(8) 0.92240(7)
H33 H 0.8175 0.4088 0.9144
H34 H 0.894(4) 0.3372(18) 0.9081(13)
loop_
_geom_bond_atom_site_label_1
_geom_bond_atom_site_label_2
_geom_bond_site_symmetry_1
_geom_bond_site_symmetry_2
O1 H1 1_555 1_555
O2 H2 1_555 1_555
O3 H3 1_555 1_555
N1 C2 1_555 1_555
N2 C2 1_555 1_555
N3 H4 1_555 1_555
H5 N3 1_555 1_555
N4 C9 1_555 1_555
N5 C1 1_555 1_555
C1 H6 1_555 1_555
C2 H7 1_555 1_555
C3 O1 1_555 1_555
H8 C3 1_555 1_555
C4 C5 1_555 1_555
C5 H9 1_555 1_555
C6 O2 1_555 1_555
C7 N2 1_555 1_555
C8 C6 1_555 1_555
C9 C7 1_555 1_555
C10 O3 1_555 1_555
H10 C10 1_555 1_555
H11 C10 1_555 1_555
C11 N1 1_555 1_555
C12 C1 1_555 1_555
H12 C12 1_555 1_555
C13 C8 1_555 1_555
H13 C13 1_555 1_555
H14 C13 1_555 1_555
C14 N4 1_555 1_555
H15 C14 1_555 1_555
O4 H16 1_555 1_555
O5 H17 1_555 1_555
O6 H18 1_555 1_555
N6 C18 1_555 1_555
N7 C18 1_555 1_555
N8 H19 1_555 1_555
H20 N8 1_555 1_555
N9 C24 1_555 1_555
N10 C16 1_555 1_555
C15 H21 1_555 1_555
C16 H22 1_555 1_555
C17 O4 1_555 1_555
H23 C17 1_555 1_555
C18 H24 1_555 1_555
C19 C15 1_555 1_555
C20 O5 1_555 1_555
C21 C20 1_555 1_555
C22 N7 1_555 1_555
C23 O6 1_555 1_555
H25 C23 1_555 1_555
H26 C23 1_555 1_555
C24 C22 1_555 1_555
C25 C16 1_555 1_555
H27 C25 1_555 1_555
C26 N6 1_555 1_555
C27 C21 1_555 1_555
H28 C27 1_555 1_555
H29 C27 1_555 1_555
C28 N9 1_555 1_555
H30 C28 1_555 1_555
O7 H31 1_555 1_555
H32 O7 1_555 1_555
O8 H33 1_555 1_555
H34 O8 1_555 1_555
N3 C11 1_555 1_555
N5 C7 1_555 1_555
N5 C14 1_555 1_555
C1 C3 1_555 1_555
C3 C6 1_555 1_555
C4 C6 1_555 1_555
C8 C10 1_555 1_555
C8 C12 1_555 1_555
C9 C11 1_555 1_555
C12 C13 1_555 1_555
N8 C26 1_555 1_555
N10 C22 1_555 1_555
N10 C28 1_555 1_555
C16 C17 1_555 1_555
C17 C20 1_555 1_555
C19 C20 1_555 1_555
C21 C23 1_555 1_555
C21 C25 1_555 1_555
C24 C26 1_555 1_555
C25 C27 1_555 1_555

#END
