
#######################################################################
#
#                 Cambridge Crystallographic Data Centre
#                                CCDC 
#
#######################################################################
#
# If this CIF has been generated from an entry in the Cambridge 
# Structural Database, then it will include bibliographic, chemical, 
# crystal, experimental, refinement or atomic coordinate data resulting 
# from the CCDC's data processing and validation procedures.
#
#######################################################################

data_ITOSAN
_chemical_formula_moiety         'C17 H11 F2 N3'
_chemical_name_systematic        
3,6-bis(4-fluorophenyl)-2,5-dihydropyridazine-4-carbonitrile
_symmetry_cell_setting           monoclinic
_symmetry_space_group_name_H-M   'P 21/c'
_symmetry_Int_Tables_number      14
_space_group_name_Hall           '-P 2ybc'
loop_
_symmetry_equiv_pos_site_id
_symmetry_equiv_pos_as_xyz
1 x,y,z
2 -x,1/2+y,1/2-z
3 -x,-y,-z
4 x,1/2-y,1/2+z
_cell_length_a                   27.100(4)
_cell_length_b                   7.4176(12)
_cell_length_c                   6.8847(11)
_cell_angle_alpha                90
_cell_angle_beta                 97.264(4)
_cell_angle_gamma                90
_cell_volume                     1372.83
_exptl_crystal_colour            'pale yellow'
_cell_formula_units_Z            4
loop_
_atom_site_label
_atom_site_type_symbol
_atom_site_fract_x
_atom_site_fract_y
_atom_site_fract_z
F1 F 0.5005(2) 0.5178(9) 0.2012(9)
F2 F -0.0012(2) 0.4928(10) 0.2279(12)
N1 N 0.2805(3) 0.3557(10) 0.3606(12)
N2 N 0.2320(3) 0.3603(10) 0.3987(12)
H1 H 0.2171 0.2578 0.4189
N3 N 0.1991(3) 0.9921(10) 0.3907(12)
C1 C 0.4530(4) 0.5128(15) 0.2497(15)
C2 C 0.4189(4) 0.4001(14) 0.1463(15)
H2 H 0.4280 0.3247 0.0451
C3 C 0.3700(4) 0.4005(14) 0.1960(15)
H3 H 0.3451 0.3295 0.1224
C4 C 0.3577(4) 0.5051(13) 0.3534(15)
C5 C 0.3063(3) 0.4974(12) 0.4084(13)
C6 C 0.2059(3) 0.5162(12) 0.4067(13)
C7 C 0.1511(3) 0.5060(12) 0.3599(13)
C8 C 0.1209(4) 0.6179(12) 0.4612(14)
H4 H 0.1357 0.6955 0.5619
C9 C 0.0693(4) 0.6145(12) 0.4131(15)
H5 H 0.0488 0.6931 0.4767
C10 C 0.0487(3) 0.4960(13) 0.2725(17)
C11 C 0.4419(3) 0.6221(13) 0.4029(15)
H6 H 0.4664 0.6962 0.4740
C12 C 0.3933(4) 0.6178(13) 0.4468(14)
H7 H 0.3843 0.6962 0.5457
C13 C 0.2327(3) 0.6703(11) 0.4455(13)
C14 C 0.2875(3) 0.6464(12) 0.5268(14)
H8 H 0.3063 0.7590 0.5122
H9 H 0.2909 0.6134 0.6672
C15 C 0.2124(4) 0.8473(13) 0.4177(13)
C16 C 0.1279(4) 0.3848(12) 0.2249(15)
H10 H 0.1479 0.3023 0.1638
C17 C 0.0768(4) 0.3793(14) 0.1755(16)
H11 H 0.0617 0.2984 0.0787
loop_
_geom_bond_atom_site_label_1
_geom_bond_atom_site_label_2
_geom_bond_site_symmetry_1
_geom_bond_site_symmetry_2
F1 C1 1_555 1_555
F2 C10 1_555 1_555
N1 N2 1_555 1_555
N2 H1 1_555 1_555
N3 C15 1_555 1_555
C1 C2 1_555 1_555
C2 H2 1_555 1_555
C3 C2 1_555 1_555
H3 C3 1_555 1_555
C4 C3 1_555 1_555
C5 N1 1_555 1_555
C6 N2 1_555 1_555
C7 C6 1_555 1_555
C8 C7 1_555 1_555
H4 C8 1_555 1_555
C9 C8 1_555 1_555
H5 C9 1_555 1_555
C10 C9 1_555 1_555
C11 C1 1_555 1_555
H6 C11 1_555 1_555
C12 C4 1_555 1_555
H7 C12 1_555 1_555
C13 C6 1_555 1_555
C14 C5 1_555 1_555
H8 C14 1_555 1_555
H9 C14 1_555 1_555
C15 C13 1_555 1_555
C16 C7 1_555 1_555
H10 C16 1_555 1_555
C17 C10 1_555 1_555
H11 C17 1_555 1_555
C4 C5 1_555 1_555
C11 C12 1_555 1_555
C13 C14 1_555 1_555
C16 C17 1_555 1_555

#END
