
#######################################################################
#
#                 Cambridge Crystallographic Data Centre
#                                CCDC 
#
#######################################################################
#
# If this CIF has been generated from an entry in the Cambridge 
# Structural Database, then it will include bibliographic, chemical, 
# crystal, experimental, refinement or atomic coordinate data resulting 
# from the CCDC's data processing and validation procedures.
#
#######################################################################

data_ITOTUH
_chemical_formula_moiety         'C16 H14 Cl2 N2 O1'
_chemical_name_systematic        
(2,2-bis(chloromethyl)-2,3-dihydro-1H-benzimidazol-5-yl)(phenyl)methanone
_symmetry_cell_setting           triclinic
_symmetry_space_group_name_H-M   'P -1'
_symmetry_Int_Tables_number      2
_space_group_name_Hall           '-P 1'
loop_
_symmetry_equiv_pos_site_id
_symmetry_equiv_pos_as_xyz
1 x,y,z
2 -x,-y,-z
_cell_length_a                   9.8379(6)
_cell_length_b                   12.4803(7)
_cell_length_c                   13.9555(8)
_cell_angle_alpha                108.764(2)
_cell_angle_beta                 92.805(2)
_cell_angle_gamma                106.932(2)
_cell_volume                     1532.7
_cell_formula_units_Z            4
loop_
_atom_site_label
_atom_site_type_symbol
_atom_site_fract_x
_atom_site_fract_y
_atom_site_fract_z
C1 C 0.9517(2) 0.1928(2) 0.09921(17)
C2 C 1.0962(2) 0.2307(2) 0.08569(17)
C3 C 1.1345(2) 0.2729(2) 0.00925(17)
H1 H 1.2301 0.2955 -0.0006
C4 C 1.0256(2) 0.2817(2) -0.05508(16)
C5 C 0.8826(2) 0.2437(2) -0.04073(18)
H2 H 0.8115 0.2490 -0.0837
C6 C 0.8439(2) 0.1983(2) 0.03611(18)
H3 H 0.7482 0.1724 0.0448
C7 C 1.0863(3) 0.1618(3) 0.22328(19)
C8 C 1.0676(3) 0.3251(2) -0.13852(18)
C9 C 0.9644(3) 0.3538(2) -0.20050(17)
C10 C 0.9589(3) 0.3138(2) -0.30600(18)
H4 H 1.0143 0.2670 -0.3359
C11 C 0.8715(3) 0.3433(3) -0.3669(2)
H5 H 0.8684 0.3160 -0.4376
C12 C 0.7894(3) 0.4125(3) -0.3238(2)
H6 H 0.7302 0.4319 -0.3650
C13 C 0.7953(4) 0.4530(3) -0.2191(2)
H7 H 0.7410 0.5012 -0.1895
C14 C 0.8804(3) 0.4233(2) -0.1578(2)
H8 H 0.8816 0.4499 -0.0873
C15 C 1.0880(3) 0.0347(3) 0.2034(2)
H9 H 1.0590 -0.0113 0.1308
H10 H 1.0188 -0.0028 0.2397
C16 C 1.1304(3) 0.2415(3) 0.33536(19)
H11 H 1.1233 0.3197 0.3432
H12 H 1.2300 0.2518 0.3571
Cl1 Cl 1.02130(8) 0.18074(8) 0.41447(5)
Cl2 Cl 1.26156(8) 0.03210(7) 0.24358(6)
N1 N 1.1785(2) 0.2210(2) 0.16416(16)
H25 H 1.2710 0.2463 0.1762
N2 N 0.9456(2) 0.1541(2) 0.18098(16)
H26 H 0.8677 0.1285 0.2040
O1 O 1.18997(19) 0.33913(17) -0.15996(14)
C17 C 0.5566(2) 0.3639(2) 0.07365(18)
C18 C 0.5077(2) 0.2534(2) 0.08615(17)
C19 C 0.4552(2) 0.1491(2) 0.00420(16)
H13 H 0.4207 0.0761 0.0136
C20 C 0.4545(2) 0.1547(2) -0.09464(16)
C21 C 0.5076(2) 0.2653(2) -0.10678(17)
H14 H 0.5084 0.2683 -0.1725
C22 C 0.5592(2) 0.3708(2) -0.02301(18)
H15 H 0.5946 0.4442 -0.0317
C23 C 0.4030(2) 0.0410(2) -0.18265(18)
C24 C 0.3577(3) 0.0378(2) -0.28707(18)
C25 C 0.3851(3) -0.0443(2) -0.37130(19)
H16 H 0.4351 -0.0938 -0.3616
C26 C 0.3393(4) -0.0534(3) -0.4690(2)
H17 H 0.3611 -0.1067 -0.5250
C27 C 0.2605(4) 0.0174(4) -0.4837(3)
H18 H 0.2277 0.0105 -0.5498
C28 C 0.2314(4) 0.0970(3) -0.4013(3)
H19 H 0.1774 0.1434 -0.4118
C29 C 0.2806(3) 0.1101(3) -0.3026(2)
H20 H 0.2625 0.1665 -0.2470
C30 C 0.6016(2) 0.3995(2) 0.24710(17)
C31 C 0.5254(3) 0.4465(2) 0.33555(19)
H21 H 0.5252 0.4031 0.3821
H22 H 0.4261 0.4319 0.3091
C32 C 0.7596(3) 0.4182(3) 0.2800(2)
H23 H 0.8116 0.5034 0.3090
H24 H 0.8004 0.3846 0.2200
Cl3 Cl 0.60891(11) 0.60236(8) 0.40426(7)
Cl4 Cl 0.78373(10) 0.35165(9) 0.37095(7)
N3 N 0.5177(2) 0.27355(17) 0.19221(14)
H27 H 0.4811 0.2213 0.2196
N4 N 0.5940(2) 0.45280(18) 0.16937(14)
H28 H 0.6101 0.5278 0.1810
O2 O 0.3930(2) -0.05430(16) -0.17055(13)
loop_
_geom_bond_atom_site_label_1
_geom_bond_atom_site_label_2
_geom_bond_site_symmetry_1
_geom_bond_site_symmetry_2
C1 C2 1_555 1_555
C2 C3 1_555 1_555
C3 H1 1_555 1_555
C4 C3 1_555 1_555
C5 C4 1_555 1_555
H2 C5 1_555 1_555
C6 C1 1_555 1_555
H3 C6 1_555 1_555
C7 C15 1_555 1_555
C8 C4 1_555 1_555
C9 C8 1_555 1_555
C10 C9 1_555 1_555
H4 C10 1_555 1_555
C11 C10 1_555 1_555
H5 C11 1_555 1_555
C12 C11 1_555 1_555
H6 C12 1_555 1_555
C13 C12 1_555 1_555
H7 C13 1_555 1_555
C14 C9 1_555 1_555
H8 C14 1_555 1_555
C15 H9 1_555 1_555
H10 C15 1_555 1_555
C16 C7 1_555 1_555
H11 C16 1_555 1_555
H12 C16 1_555 1_555
C17 C18 1_555 1_555
C18 C19 1_555 1_555
C19 H13 1_555 1_555
C20 C19 1_555 1_555
C21 C20 1_555 1_555
H14 C21 1_555 1_555
C22 C17 1_555 1_555
H15 C22 1_555 1_555
C23 C20 1_555 1_555
C24 C23 1_555 1_555
C25 C24 1_555 1_555
H16 C25 1_555 1_555
C26 C25 1_555 1_555
H17 C26 1_555 1_555
C27 C26 1_555 1_555
H18 C27 1_555 1_555
C28 C27 1_555 1_555
H19 C28 1_555 1_555
C29 C24 1_555 1_555
H20 C29 1_555 1_555
C30 C31 1_555 1_555
C31 H21 1_555 1_555
H22 C31 1_555 1_555
C32 C30 1_555 1_555
H23 C32 1_555 1_555
H24 C32 1_555 1_555
Cl1 C16 1_555 1_555
Cl2 C15 1_555 1_555
Cl3 C31 1_555 1_555
Cl4 C32 1_555 1_555
N1 C2 1_555 1_555
H25 N1 1_555 1_555
N2 C1 1_555 1_555
H26 N2 1_555 1_555
N3 C18 1_555 1_555
H27 N3 1_555 1_555
N4 C17 1_555 1_555
H28 N4 1_555 1_555
O1 C8 1_555 1_555
O2 C23 1_555 1_555
C5 C6 1_555 1_555
C7 N1 1_555 1_555
C7 N2 1_555 1_555
C13 C14 1_555 1_555
C21 C22 1_555 1_555
C28 C29 1_555 1_555
C30 N3 1_555 1_555
C30 N4 1_555 1_555

#END
