
#######################################################################
#
#                 Cambridge Crystallographic Data Centre
#                                CCDC 
#
#######################################################################
#
# If this CIF has been generated from an entry in the Cambridge 
# Structural Database, then it will include bibliographic, chemical, 
# crystal, experimental, refinement or atomic coordinate data resulting 
# from the CCDC's data processing and validation procedures.
#
#######################################################################

data_ITOTAO
_chemical_formula_moiety         'C17 H13 N3'
_chemical_name_systematic        
3,6-diphenyl-2,5-dihydropyridazine-4-carbonitrile
_symmetry_cell_setting           monoclinic
_symmetry_space_group_name_H-M   'P 21/c'
_symmetry_Int_Tables_number      14
_space_group_name_Hall           '-P 2ybc'
loop_
_symmetry_equiv_pos_site_id
_symmetry_equiv_pos_as_xyz
1 x,y,z
2 -x,1/2+y,1/2-z
3 -x,-y,-z
4 x,1/2-y,1/2+z
_cell_length_a                   26.157(2)
_cell_length_b                   7.4363(5)
_cell_length_c                   6.8127(5)
_cell_angle_alpha                90
_cell_angle_beta                 96.808(4)
_cell_angle_gamma                90
_cell_volume                     1315.8
_exptl_crystal_colour            colorless
_exptl_crystal_description       Columnar
_cell_formula_units_Z            4
loop_
_atom_site_label
_atom_site_type_symbol
_atom_site_fract_x
_atom_site_fract_y
_atom_site_fract_z
C1 C 0.14180(7) 0.5031(3) 0.1821(3)
C2 C 0.19426(7) 0.4991(3) 0.1227(3)
C3 C 0.29868(7) 0.5193(2) 0.1161(3)
C4 C 0.35542(7) 0.5085(2) 0.1572(3)
C5 C 0.38659(7) 0.6207(3) 0.0576(3)
H1 H 0.3713 0.7021 -0.0395
C6 C 0.43980(8) 0.6139(3) 0.0998(3)
H2 H 0.4606 0.6916 0.0322
C7 C 0.46274(8) 0.4944(3) 0.2400(3)
H3 H 0.4991 0.4907 0.2695
C8 C 0.12900(8) 0.3983(3) 0.3394(3)
H4 H 0.1548 0.3277 0.4131
C9 C 0.07915(8) 0.3961(3) 0.3891(3)
H5 H 0.0709 0.3233 0.4955
C10 C 0.27041(7) 0.6720(2) 0.0757(3)
C11 C 0.21409(7) 0.6487(3) 0.0021(3)
H6 H 0.2097 0.6168 -0.1400
H7 H 0.1950 0.7614 0.0195
C12 C 0.29109(7) 0.8471(3) 0.1036(3)
C13 C 0.37879(7) 0.3867(3) 0.2961(3)
H8 H 0.3581 0.3078 0.3628
C14 C 0.43185(8) 0.3799(3) 0.3372(3)
H9 H 0.4473 0.2967 0.4322
H10 H 0.2875 0.2575 0.1413
C15 C 0.04122(8) 0.5002(3) 0.2833(3)
H11 H 0.0069 0.4978 0.3162
C16 C 0.05375(8) 0.6072(3) 0.1299(3)
H12 H 0.0280 0.6798 0.0587
C17 C 0.10346(7) 0.6096(3) 0.0793(3)
H13 H 0.1116 0.6841 -0.0260
N1 N 0.30518(6) 0.9927(2) 0.1286(2)
N2 N 0.27180(6) 0.3625(2) 0.1228(2)
N3 N 0.22186(6) 0.3578(2) 0.1686(2)
loop_
_geom_bond_atom_site_label_1
_geom_bond_atom_site_label_2
_geom_bond_site_symmetry_1
_geom_bond_site_symmetry_2
C1 C2 1_555 1_555
C2 C11 1_555 1_555
C3 C4 1_555 1_555
C4 C5 1_555 1_555
C5 H1 1_555 1_555
C6 C5 1_555 1_555
H2 C6 1_555 1_555
C7 C6 1_555 1_555
H3 C7 1_555 1_555
C8 C1 1_555 1_555
H4 C8 1_555 1_555
C9 C8 1_555 1_555
H5 C9 1_555 1_555
C10 C3 1_555 1_555
C11 C10 1_555 1_555
H6 C11 1_555 1_555
H7 C11 1_555 1_555
C12 C10 1_555 1_555
C13 C4 1_555 1_555
H8 C13 1_555 1_555
C14 C7 1_555 1_555
H9 C14 1_555 1_555
H10 N2 1_555 1_555
C15 C9 1_555 1_555
H11 C15 1_555 1_555
C16 C15 1_555 1_555
H12 C16 1_555 1_555
C17 C1 1_555 1_555
H13 C17 1_555 1_555
N1 C12 1_555 1_555
N2 C3 1_555 1_555
N3 C2 1_555 1_555
C13 C14 1_555 1_555
C16 C17 1_555 1_555
N2 N3 1_555 1_555

#END
