
#######################################################################
#
#                 Cambridge Crystallographic Data Centre
#                                CCDC 
#
#######################################################################
#
# If this CIF has been generated from an entry in the Cambridge 
# Structural Database, then it will include bibliographic, chemical, 
# crystal, experimental, refinement or atomic coordinate data resulting 
# from the CCDC's data processing and validation procedures.
#
#######################################################################

data_ITOZAU
_chemical_name_common            
'HOF-6 N,N-dimethylformamide tetrahydrofuran solvate'
_chemical_formula_moiety         'C56 H42 N24,6(C3 H7 N1 O1),5(C4 H8 O1)'
_chemical_name_systematic        
"6,6',6'',6'''-(porphyrin-5,10,15,20-tetrayltetra-4,1-phenylene)tetrakis(1,3,5-triazine-2,4-diamine) N,N-dimethylformamide tetrahydrofuran solvate"
_symmetry_cell_setting           monoclinic
_symmetry_space_group_name_H-M   'C 2/m'
_symmetry_Int_Tables_number      12
_space_group_name_Hall           '-C 2y'
loop_
_symmetry_equiv_pos_site_id
_symmetry_equiv_pos_as_xyz
1 x,y,z
2 -x,y,-z
3 1/2+x,1/2+y,z
4 1/2-x,1/2+y,-z
5 -x,-y,-z
6 x,-y,z
7 1/2-x,1/2-y,-z
8 1/2+x,1/2-y,z
_cell_length_a                   16.315(3)
_cell_length_b                   37.350(7)
_cell_length_c                   11.603(2)
_cell_angle_alpha                90
_cell_angle_beta                 130.01(3)
_cell_angle_gamma                90
_cell_volume                     5415.5
_exptl_crystal_colour            violet
_exptl_crystal_description       block
_cell_formula_units_Z            2
loop_
_atom_site_label
_atom_site_type_symbol
_atom_site_fract_x
_atom_site_fract_y
_atom_site_fract_z
N1 N 0.3500(3) 0.0000 0.4434(5)
C1 C 0.0791(3) 0.14384(7) 0.2875(4)
C2 C 0.2394(2) 0.09402(7) 0.3792(4)
C3 C 0.3212(2) 0.06599(7) 0.4221(4)
C4 C 0.4182(2) 0.07684(7) 0.4636(4)
C5 C 0.1964(3) 0.11571(8) 0.2543(4)
H1 H 0.2212 0.1137 0.2016
C6 C 0.1237(3) 0.12305(7) 0.4154(4)
H2 H 0.1001 0.1257 0.4696
C7 C 0.2041(3) 0.09822(8) 0.4618(4)
H3 H 0.2343 0.0845 0.5475
C8 C 0.2896(2) 0.03005(7) 0.4139(4)
C9 C 0.1883(2) 0.01785(8) 0.3648(4)
H4 H 0.1320 0.0324 0.3376
C10 C 0.1161(3) 0.14040(8) 0.2080(4)
H5 H 0.0872 0.1546 0.1238
C11 C 0.4490(3) 0.11418(7) 0.4782(4)
H6 H 0.4086 0.1341 0.4616
N2 N -0.0624(2) 0.18325(6) 0.0982(3)
C12 C -0.1424(3) 0.20596(8) 0.0557(4)
N3 N -0.0304(2) 0.17563(6) 0.3267(3)
N4 N -0.1735(2) 0.21354(7) 0.1356(3)
C13 C -0.0114(3) 0.16897(7) 0.2340(4)
C14 C -0.1152(3) 0.19738(8) 0.2714(4)
N5 N -0.1398(3) 0.20321(8) 0.3609(4)
H7 H -0.1921 0.2171 0.3314
H8 H -0.1031 0.1930 0.4476
N6 N -0.1959(3) 0.22165(8) -0.0775(4)
H9 H -0.2479 0.2359 -0.1090
H10 H -0.1786 0.2175 -0.1324
N7 N 0.5000 0.05454(8) 0.5000
H11 H 0.401(7) 0.0000 0.439(9)
N1A N 0.6500(3) 0.0000 0.5566(5)
C1A C 0.9209(3) 0.14384(7) 0.7125(4)
C2A C 0.7606(2) 0.09402(7) 0.6208(4)
C3A C 0.6788(2) 0.06599(7) 0.5779(4)
C4A C 0.5818(2) 0.07684(7) 0.5364(4)
C5A C 0.8036(3) 0.11571(8) 0.7457(4)
H1A H 0.7788 0.1137 0.7984
C6A C 0.8763(3) 0.12305(7) 0.5846(4)
H2A H 0.8999 0.1257 0.5304
C7A C 0.7959(3) 0.09822(8) 0.5382(4)
H3A H 0.7657 0.0845 0.4525
C8A C 0.7104(2) 0.03005(7) 0.5861(4)
C9A C 0.8117(2) 0.01785(8) 0.6352(4)
H4A H 0.8680 0.0324 0.6624
C10A C 0.8839(3) 0.14040(8) 0.7920(4)
H5A H 0.9128 0.1546 0.8762
C11A C 0.5510(3) 0.11418(7) 0.5218(4)
H6A H 0.5914 0.1341 0.5384
N2A N 1.0624(2) 0.18325(6) 0.9018(3)
C12A C 1.1424(3) 0.20596(8) 0.9443(4)
N3A N 1.0304(2) 0.17563(6) 0.6733(3)
N4A N 1.1735(2) 0.21354(7) 0.8644(3)
C13A C 1.0114(3) 0.16897(7) 0.7660(4)
C14A C 1.1152(3) 0.19738(8) 0.7286(4)
N5A N 1.1398(3) 0.20321(8) 0.6391(4)
H7A H 1.1921 0.2171 0.6686
H8A H 1.1031 0.1930 0.5524
N6A N 1.1959(3) 0.22165(8) 1.0775(4)
H9A H 1.2479 0.2359 1.1090
H10A H 1.1786 0.2175 1.1324
H11A H 0.599(7) 0.0000 0.561(9)
C1D C 0.9209(3) -0.14384(7) 0.7125(4)
C2D C 0.7606(2) -0.09402(7) 0.6208(4)
C3D C 0.6788(2) -0.06599(7) 0.5779(4)
C4D C 0.5818(2) -0.07684(7) 0.5364(4)
C5D C 0.8036(3) -0.11571(8) 0.7457(4)
H1D H 0.7788 -0.1137 0.7984
C6D C 0.8763(3) -0.12305(7) 0.5846(4)
H2D H 0.8999 -0.1257 0.5304
C7D C 0.7959(3) -0.09822(8) 0.5382(4)
H3D H 0.7657 -0.0845 0.4525
C8D C 0.7104(2) -0.03005(7) 0.5861(4)
C9D C 0.8117(2) -0.01785(8) 0.6352(4)
H4D H 0.8680 -0.0324 0.6624
C10D C 0.8839(3) -0.14040(8) 0.7920(4)
H5D H 0.9128 -0.1546 0.8762
C11D C 0.5510(3) -0.11418(7) 0.5218(4)
H6D H 0.5914 -0.1341 0.5384
N2D N 1.0624(2) -0.18325(6) 0.9018(3)
C12D C 1.1424(3) -0.20596(8) 0.9443(4)
N3D N 1.0304(2) -0.17563(6) 0.6733(3)
N4D N 1.1735(2) -0.21354(7) 0.8644(3)
C13D C 1.0114(3) -0.16897(7) 0.7660(4)
C14D C 1.1152(3) -0.19738(8) 0.7286(4)
N5D N 1.1398(3) -0.20321(8) 0.6391(4)
H7D H 1.1921 -0.2171 0.6686
H8D H 1.1031 -0.1930 0.5524
N6D N 1.1959(3) -0.22165(8) 1.0775(4)
H9D H 1.2479 -0.2359 1.1090
H10D H 1.1786 -0.2175 1.1324
N7D N 0.5000 -0.05454(8) 0.5000
C1E C 0.0791(3) -0.14384(7) 0.2875(4)
C2E C 0.2394(2) -0.09402(7) 0.3792(4)
C3E C 0.3212(2) -0.06599(7) 0.4221(4)
C4E C 0.4182(2) -0.07684(7) 0.4636(4)
C5E C 0.1964(3) -0.11571(8) 0.2543(4)
H1E H 0.2212 -0.1137 0.2016
C6E C 0.1237(3) -0.12305(7) 0.4154(4)
H2E H 0.1001 -0.1257 0.4696
C7E C 0.2041(3) -0.09822(8) 0.4618(4)
H3E H 0.2343 -0.0845 0.5475
C8E C 0.2896(2) -0.03005(7) 0.4139(4)
C9E C 0.1883(2) -0.01785(8) 0.3648(4)
H4E H 0.1320 -0.0324 0.3376
C10E C 0.1161(3) -0.14040(8) 0.2080(4)
H5E H 0.0872 -0.1546 0.1238
C11E C 0.4490(3) -0.11418(7) 0.4782(4)
H6E H 0.4086 -0.1341 0.4616
N2E N -0.0624(2) -0.18325(6) 0.0982(3)
C12E C -0.1424(3) -0.20596(8) 0.0557(4)
N3E N -0.0304(2) -0.17563(6) 0.3267(3)
N4E N -0.1735(2) -0.21354(7) 0.1356(3)
C13E C -0.0114(3) -0.16897(7) 0.2340(4)
C14E C -0.1152(3) -0.19738(8) 0.2714(4)
N5E N -0.1398(3) -0.20321(8) 0.3609(4)
H7E H -0.1921 -0.2171 0.3314
H8E H -0.1031 -0.1930 0.4476
N6E N -0.1959(3) -0.22165(8) -0.0775(4)
H9E H -0.2479 -0.2359 -0.1090
H10E H -0.1786 -0.2175 -0.1324
loop_
_geom_bond_atom_site_label_1
_geom_bond_atom_site_label_2
_geom_bond_site_symmetry_1
_geom_bond_site_symmetry_2
N1 C8 1_555 1_555
C1 C6 1_555 1_555
C2 C3 1_555 1_555
C3 C4 1_555 1_555
C4 C11 1_555 1_555
C5 C2 1_555 1_555
H1 C5 1_555 1_555
C6 H2 1_555 1_555
C7 C2 1_555 1_555
H3 C7 1_555 1_555
C8 C3 1_555 1_555
C9 C8 1_555 1_555
H4 C9 1_555 1_555
C10 C1 1_555 1_555
H5 C10 1_555 1_555
C11 H6 1_555 1_555
N2 C12 1_555 1_555
C12 N4 1_555 1_555
N3 C13 1_555 1_555
N4 C14 1_555 1_555
C13 C1 1_555 1_555
C14 N3 1_555 1_555
N5 C14 1_555 1_555
H7 N5 1_555 1_555
H8 N5 1_555 1_555
N6 C12 1_555 1_555
H9 N6 1_555 1_555
H10 N6 1_555 1_555
N7 C4 1_555 1_555
H11 N1 1_555 1_555
N1A C8A 1_555 1_555
C1A C6A 1_555 1_555
C2A C3A 1_555 1_555
C3A C4A 1_555 1_555
C4A N7 1_555 1_555
C5A C2A 1_555 1_555
H1A C5A 1_555 1_555
C6A H2A 1_555 1_555
C7A C2A 1_555 1_555
H3A C7A 1_555 1_555
C8A C3A 1_555 1_555
C9A C8A 1_555 1_555
H4A C9A 1_555 1_555
C10A C1A 1_555 1_555
H5A C10A 1_555 1_555
C11A C11 1_555 1_555
H6A C11A 1_555 1_555
N2A C12A 1_555 1_555
C12A N4A 1_555 1_555
N3A C13A 1_555 1_555
N4A C14A 1_555 1_555
C13A C1A 1_555 1_555
C14A N3A 1_555 1_555
N5A C14A 1_555 1_555
H7A N5A 1_555 1_555
H8A N5A 1_555 1_555
N6A C12A 1_555 1_555
H9A N6A 1_555 1_555
H10A N6A 1_555 1_555
H11A N1A 1_555 1_555
C1D C6D 1_555 1_555
C2D C3D 1_555 1_555
C3D C4D 1_555 1_555
C4D C11D 1_555 1_555
C5D C2D 1_555 1_555
H1D C5D 1_555 1_555
C6D H2D 1_555 1_555
C7D C2D 1_555 1_555
H3D C7D 1_555 1_555
C8D N1A 1_555 1_555
C9D C9A 1_555 1_555
H4D C9D 1_555 1_555
C10D C1D 1_555 1_555
H5D C10D 1_555 1_555
C11D H6D 1_555 1_555
N2D C12D 1_555 1_555
C12D N4D 1_555 1_555
N3D C13D 1_555 1_555
N4D C14D 1_555 1_555
C13D C1D 1_555 1_555
C14D N3D 1_555 1_555
N5D C14D 1_555 1_555
H7D N5D 1_555 1_555
H8D N5D 1_555 1_555
N6D C12D 1_555 1_555
H9D N6D 1_555 1_555
H10D N6D 1_555 1_555
N7D C4D 1_555 1_555
C1E C6E 1_555 1_555
C2E C3E 1_555 1_555
C3E C4E 1_555 1_555
C4E N7D 1_555 1_555
C5E C2E 1_555 1_555
H1E C5E 1_555 1_555
C6E H2E 1_555 1_555
C7E C2E 1_555 1_555
H3E C7E 1_555 1_555
C8E N1 1_555 1_555
C9E C9 1_555 1_555
H4E C9E 1_555 1_555
C10E C1E 1_555 1_555
H5E C10E 1_555 1_555
C11E C11D 1_555 1_555
H6E C11E 1_555 1_555
N2E C12E 1_555 1_555
C12E N4E 1_555 1_555
N3E C13E 1_555 1_555
N4E C14E 1_555 1_555
C13E C1E 1_555 1_555
C14E N3E 1_555 1_555
N5E C14E 1_555 1_555
H7E N5E 1_555 1_555
H8E N5E 1_555 1_555
N6E C12E 1_555 1_555
H9E N6E 1_555 1_555
H10E N6E 1_555 1_555
C5 C10 1_555 1_555
C6 C7 1_555 1_555
N2 C13 1_555 1_555
C4A C11A 1_555 1_555
C5A C10A 1_555 1_555
C6A C7A 1_555 1_555
N2A C13A 1_555 1_555
C3D C8D 1_555 1_555
C5D C10D 1_555 1_555
C6D C7D 1_555 1_555
C8D C9D 1_555 1_555
N2D C13D 1_555 1_555
C3E C8E 1_555 1_555
C4E C11E 1_555 1_555
C5E C10E 1_555 1_555
C6E C7E 1_555 1_555
C8E C9E 1_555 1_555
N2E C13E 1_555 1_555

#END
