
#######################################################################
#
#                 Cambridge Crystallographic Data Centre
#                                CCDC 
#
#######################################################################
#
# If this CIF has been generated from an entry in the Cambridge 
# Structural Database, then it will include bibliographic, chemical, 
# crystal, experimental, refinement or atomic coordinate data resulting 
# from the CCDC's data processing and validation procedures.
#
#######################################################################

data_ITUWUR
_chemical_formula_moiety         'C21 H28 N1 O2 P1'
_chemical_name_systematic        
1-((diphenylphosphoryl)oxy)-2,2,6,6-tetramethylpiperidine
_symmetry_cell_setting           orthorhombic
_symmetry_space_group_name_H-M   'P n m a'
_symmetry_Int_Tables_number      62
_space_group_name_Hall           '-P 2ac 2n'
loop_
_symmetry_equiv_pos_site_id
_symmetry_equiv_pos_as_xyz
1 x,y,z
2 1/2-x,-y,1/2+z
3 1/2+x,1/2-y,1/2-z
4 -x,1/2+y,-z
5 -x,-y,-z
6 1/2+x,y,1/2-z
7 1/2-x,1/2+y,1/2+z
8 x,1/2-y,z
_cell_length_a                   18.7781(9)
_cell_length_b                   16.6178(11)
_cell_length_c                   6.0070(3)
_cell_angle_alpha                90
_cell_angle_beta                 90
_cell_angle_gamma                90
_cell_volume                     1874.49
_exptl_crystal_colour            colorless
_exptl_crystal_description       needle
_cell_formula_units_Z            4
loop_
_atom_site_label
_atom_site_type_symbol
_atom_site_fract_x
_atom_site_fract_y
_atom_site_fract_z
P1 P -0.29746(4) -0.2500 0.56065(11)
O1 O -0.31678(9) -0.2500 0.7978(3)
O2 O -0.35936(9) -0.2500 0.3756(3)
N1 N -0.43401(11) -0.2500 0.4552(3)
C1 C -0.46585(10) -0.17258(8) 0.3776(3)
C2 C -0.54402(9) -0.17585(9) 0.4526(3)
H1 H -0.5457 -0.1746 0.6173
H2 H -0.5689 -0.1273 0.3971
C3 C -0.58320(15) -0.2500 0.3710(5)
H3 H -0.6326 -0.2500 0.4287
H4 H -0.5852 -0.2500 0.2063
C4 C -0.45945(11) -0.15472(10) 0.1281(3)
H5 H -0.4679 -0.0973 0.1019
H6 H -0.4948 -0.1864 0.0463
H7 H -0.4116 -0.1690 0.0767
C5 C -0.42878(10) -0.10600(9) 0.5092(3)
H8 H -0.4254 -0.1218 0.6661
H9 H -0.4563 -0.0561 0.4967
H10 H -0.3808 -0.0975 0.4492
C6 C -0.24386(9) -0.16385(8) 0.4843(3)
C7 C -0.24636(10) -0.12784(9) 0.2752(3)
H11 H -0.2770 -0.1487 0.1633
C8 C -0.20392(11) -0.06121(8) 0.2308(3)
H12 H -0.2062 -0.0359 0.0892
C9 C -0.15853(10) -0.03178(9) 0.3913(3)
H13 H -0.1301 0.0141 0.3602
C10 C -0.15399(11) -0.06843(9) 0.5976(3)
H14 H -0.1215 -0.0489 0.7060
C11 C -0.19739(11) -0.13412(8) 0.6454(3)
H15 H -0.1953 -0.1587 0.7881
C1G C -0.46585(10) -0.32742(8) 0.3776(3)
C2G C -0.54402(9) -0.32415(9) 0.4526(3)
H1G H -0.5457 -0.3254 0.6173
H2G H -0.5689 -0.3727 0.3971
C4G C -0.45945(11) -0.34528(10) 0.1281(3)
H5G H -0.4679 -0.4027 0.1019
H6G H -0.4948 -0.3136 0.0463
H7G H -0.4116 -0.3310 0.0767
C5G C -0.42878(10) -0.39400(9) 0.5092(3)
H8G H -0.4254 -0.3782 0.6661
H9G H -0.4563 -0.4439 0.4967
H10G H -0.3808 -0.4025 0.4492
C6G C -0.24386(9) -0.33615(8) 0.4843(3)
C7G C -0.24636(10) -0.37216(9) 0.2752(3)
H11G H -0.2770 -0.3513 0.1633
C8G C -0.20392(11) -0.43879(8) 0.2308(3)
H12G H -0.2062 -0.4641 0.0892
C9G C -0.15853(10) -0.46822(9) 0.3913(3)
H13G H -0.1301 -0.5141 0.3602
C10G C -0.15399(11) -0.43157(9) 0.5976(3)
H14G H -0.1215 -0.4511 0.7060
C11G C -0.19739(11) -0.36588(8) 0.6454(3)
H15G H -0.1953 -0.3413 0.7881
loop_
_geom_bond_atom_site_label_1
_geom_bond_atom_site_label_2
_geom_bond_site_symmetry_1
_geom_bond_site_symmetry_2
P1 O1 1_555 1_555
O2 P1 1_555 1_555
N1 O2 1_555 1_555
C1 N1 1_555 1_555
C2 C1 1_555 1_555
H1 C2 1_555 1_555
H2 C2 1_555 1_555
C3 C2 1_555 1_555
H3 C3 1_555 1_555
H4 C3 1_555 1_555
C4 C1 1_555 1_555
H5 C4 1_555 1_555
H6 C4 1_555 1_555
H7 C4 1_555 1_555
C5 C1 1_555 1_555
H8 C5 1_555 1_555
H9 C5 1_555 1_555
H10 C5 1_555 1_555
C6 P1 1_555 1_555
C7 C6 1_555 1_555
H11 C7 1_555 1_555
C8 C7 1_555 1_555
H12 C8 1_555 1_555
C9 C8 1_555 1_555
H13 C9 1_555 1_555
C10 C9 1_555 1_555
H14 C10 1_555 1_555
C11 C6 1_555 1_555
H15 C11 1_555 1_555
C1G N1 1_555 1_555
C2G C3 1_555 1_555
H1G C2G 1_555 1_555
H2G C2G 1_555 1_555
C4G C1G 1_555 1_555
H5G C4G 1_555 1_555
H6G C4G 1_555 1_555
H7G C4G 1_555 1_555
C5G C1G 1_555 1_555
H8G C5G 1_555 1_555
H9G C5G 1_555 1_555
H10G C5G 1_555 1_555
C6G P1 1_555 1_555
C7G C6G 1_555 1_555
H11G C7G 1_555 1_555
C8G C7G 1_555 1_555
H12G C8G 1_555 1_555
C9G C8G 1_555 1_555
H13G C9G 1_555 1_555
C10G C9G 1_555 1_555
H14G C10G 1_555 1_555
C11G C6G 1_555 1_555
H15G C11G 1_555 1_555
C10 C11 1_555 1_555
C1G C2G 1_555 1_555
C10G C11G 1_555 1_555

#END
