
#######################################################################
#
#                 Cambridge Crystallographic Data Centre
#                                CCDC 
#
#######################################################################
#
# If this CIF has been generated from an entry in the Cambridge 
# Structural Database, then it will include bibliographic, chemical, 
# crystal, experimental, refinement or atomic coordinate data resulting 
# from the CCDC's data processing and validation procedures.
#
#######################################################################

data_ITUZUS
_chemical_formula_moiety         
'C52 H60 K1 N2 O10 3+,3(I1 1-),2(C2 H3 N1),2(H2 O1)'
_chemical_name_systematic        
'bis(N-methyl-4-(2-(2,3,5,6,8,9,11,12-octahydro-1,4,7,10,13-benzopentaoxacyclopentadecin-15-yl)ethenyl)qunolinium)-potassium tris(iodide) acetonitrile solvate dihydrate'
_symmetry_cell_setting           monoclinic
_symmetry_space_group_name_H-M   'C 2/c'
_symmetry_Int_Tables_number      15
_space_group_name_Hall           '-C 2yn'
loop_
_symmetry_equiv_pos_site_id
_symmetry_equiv_pos_as_xyz
1 x,y,z
2 1/2+x,1/2+y,z
3 x,-y,1/2+z
4 1/2+x,1/2-y,1/2+z
5 -x,-y,-z
6 1/2-x,1/2-y,-z
7 -x,y,1/2-z
8 1/2-x,1/2+y,1/2-z
_cell_length_a                   19.5150(3)
_cell_length_b                   22.3320(1)
_cell_length_c                   14.5117(1)
_cell_angle_alpha                90
_cell_angle_beta                 111.948(1)
_cell_angle_gamma                90
_cell_volume                     5865.96
_cell_formula_units_Z            4
loop_
_atom_site_label
_atom_site_type_symbol
_atom_site_fract_x
_atom_site_fract_y
_atom_site_fract_z
I1 I 0.71119(3) 0.03925(2) 1.27356(4)
I2 I 1.0000 0.10801(3) 1.2500
K1 K 0.5000 0.32278(8) 1.2500
N1 N 0.4319(3) -0.1984(2) 1.0602(4)
O1 O 0.4406(2) 0.2791(2) 1.0439(3)
O2 O 0.4307(2) 0.3983(2) 1.0832(3)
O3 O 0.5853(3) 0.4026(2) 1.1990(3)
O4 O 0.6524(2) 0.2946(2) 1.3040(3)
O5 O 0.5552(2) 0.2238(2) 1.1564(3)
C1 C 0.3780(3) 0.3142(3) 0.9819(5)
H3 H 0.3380(3) 0.3131(3) 1.0082(5)
H4 H 0.3586(3) 0.2984(3) 0.9131(5)
C2 C 0.4061(4) 0.3769(3) 0.9838(4)
H5 H 0.4474(4) 0.3773(3) 0.9598(4)
H6 H 0.3662(4) 0.4029(3) 0.9398(4)
C3 C 0.4735(4) 0.4516(3) 1.0992(5)
H7 H 0.4719(4) 0.4723(3) 1.1587(5)
H8 H 0.4512(4) 0.4786(3) 1.0416(5)
C4 C 0.5527(4) 0.4401(3) 1.1135(5)
H9 H 0.5552(4) 0.4201(3) 1.0539(5)
H10 H 0.5800(4) 0.4784(3) 1.1232(5)
C5 C 0.6588(4) 0.3859(3) 1.2126(5)
H11 H 0.6892(4) 0.4221(3) 1.2170(5)
H12 H 0.6588(4) 0.3615(3) 1.1557(5)
C6 C 0.6902(3) 0.3503(3) 1.3073(5)
H13 H 0.7429(3) 0.3418(3) 1.3211(5)
H14 H 0.6877(3) 0.3748(3) 1.3628(5)
C7 C 0.6775(3) 0.2475(3) 1.2576(5)
H15 H 0.7253(3) 0.2317(3) 1.3043(5)
H16 H 0.6849(3) 0.2630(3) 1.1981(5)
C8 C 0.6206(3) 0.1984(3) 1.2283(4)
H17 H 0.6379(3) 0.1642(3) 1.1993(4)
H18 H 0.6110(3) 0.1840(3) 1.2869(4)
C11 C 0.4306(3) 0.2191(3) 1.0516(4)
C12 C 0.4947(3) 0.1881(3) 1.1125(4)
C13 C 0.4933(3) 0.1263(3) 1.1227(4)
H22 H 0.5368(3) 0.1054(3) 1.1623(4)
C14 C 0.4273(3) 0.0947(3) 1.0743(4)
C15 C 0.3639(3) 0.1265(3) 1.0187(4)
H23 H 0.3186(3) 0.1055(3) 0.9883(4)
C16 C 0.3651(3) 0.1886(3) 1.0068(4)
H24 H 0.3213(3) 0.2095(3) 0.9682(4)
C17 C 0.4220(3) 0.0296(3) 1.0725(4)
H25 H 0.3733(3) 0.0138(3) 1.0481(4)
C18 C 0.4769(3) -0.0111(3) 1.1008(4)
H26 H 0.5265(3) 0.0025(3) 1.1312(4)
C19 C 0.4631(3) -0.0755(3) 1.0864(4)
C20 C 0.3961(3) -0.0968(3) 1.0189(4)
H27 H 0.3597(3) -0.0693(3) 0.9796(4)
C21 C 0.3821(4) -0.1576(3) 1.0087(5)
H28 H 0.3355(4) -0.1710(3) 0.9635(5)
C22 C 0.5012(4) -0.1809(3) 1.1264(4)
C23 C 0.5540(4) -0.2242(3) 1.1789(5)
H29 H 0.5429(4) -0.2656(3) 1.1690(5)
C24 C 0.6209(4) -0.2058(3) 1.2435(5)
H30 H 0.6569(4) -0.2350(3) 1.2776(5)
C25 C 0.6386(4) -0.1444(3) 1.2613(5)
H31 H 0.6853(4) -0.1326(3) 1.3084(5)
C26 C 0.5876(3) -0.1020(3) 1.2102(5)
H32 H 0.5998(3) -0.0608(3) 1.2219(5)
C27 C 0.5177(3) -0.1183(2) 1.1406(4)
C28 C 0.4124(5) -0.2629(3) 1.0446(5)
H33 H 0.3608(9) -0.2671(3) 0.9992(28)
H34 H 0.4190(25) -0.2817(5) 1.1084(7)
H35 H 0.4446(17) -0.2827(5) 1.0158(32)
O1F O 0.5594(2) 0.2791(2) 1.4561(3)
C1F C 0.6220(3) 0.3142(3) 1.5181(5)
H3F H 0.6620(3) 0.3131(3) 1.4918(5)
H4F H 0.6414(3) 0.2984(3) 1.5869(5)
C2F C 0.5939(4) 0.3769(3) 1.5162(4)
O2F O 0.5693(2) 0.3983(2) 1.4168(3)
O3F O 0.4147(3) 0.4026(2) 1.3010(3)
C4F C 0.4473(4) 0.4401(3) 1.3865(5)
C3F C 0.5265(4) 0.4516(3) 1.4008(5)
H7F H 0.5281(4) 0.4723(3) 1.3413(5)
H8F H 0.5488(4) 0.4786(3) 1.4584(5)
H9F H 0.4448(4) 0.4201(3) 1.4461(5)
H10F H 0.4200(4) 0.4784(3) 1.3768(5)
C5F C 0.3412(4) 0.3859(3) 1.2874(5)
H11F H 0.3108(4) 0.4221(3) 1.2830(5)
H12F H 0.3412(4) 0.3615(3) 1.3443(5)
C6F C 0.3098(3) 0.3503(3) 1.1927(5)
O4F O 0.3476(2) 0.2946(2) 1.1960(3)
O5F O 0.4448(2) 0.2238(2) 1.3436(3)
C8F C 0.3794(3) 0.1984(3) 1.2717(4)
C7F C 0.3225(3) 0.2475(3) 1.2424(5)
H15F H 0.2747(3) 0.2317(3) 1.1957(5)
H16F H 0.3151(3) 0.2630(3) 1.3019(5)
H17F H 0.3621(3) 0.1642(3) 1.3007(4)
H18F H 0.3890(3) 0.1840(3) 1.2131(4)
C12F C 0.5053(3) 0.1881(3) 1.3875(4)
C11F C 0.5694(3) 0.2191(3) 1.4484(4)
C16F C 0.6349(3) 0.1886(3) 1.4932(4)
C15F C 0.6361(3) 0.1265(3) 1.4813(4)
C14F C 0.5727(3) 0.0947(3) 1.4257(4)
C13F C 0.5067(3) 0.1263(3) 1.3773(4)
H22F H 0.4632(3) 0.1054(3) 1.3377(4)
C17F C 0.5780(3) 0.0296(3) 1.4275(4)
H25F H 0.6267(3) 0.0138(3) 1.4519(4)
C18F C 0.5231(3) -0.0111(3) 1.3992(4)
H26F H 0.4735(3) 0.0025(3) 1.3688(4)
C19F C 0.5369(3) -0.0755(3) 1.4136(4)
C20F C 0.6039(3) -0.0968(3) 1.4811(4)
H27F H 0.6403(3) -0.0693(3) 1.5204(4)
C21F C 0.6179(4) -0.1576(3) 1.4913(5)
N1F N 0.5681(3) -0.1984(2) 1.4398(4)
C22F C 0.4988(4) -0.1809(3) 1.3736(4)
C23F C 0.4460(4) -0.2242(3) 1.3211(5)
H29F H 0.4571(4) -0.2656(3) 1.3310(5)
C24F C 0.3791(4) -0.2058(3) 1.2565(5)
H30F H 0.3431(4) -0.2350(3) 1.2224(5)
C25F C 0.3614(4) -0.1444(3) 1.2387(5)
H31F H 0.3147(4) -0.1326(3) 1.1916(5)
C26F C 0.4124(3) -0.1020(3) 1.2898(5)
H32F H 0.4002(3) -0.0608(3) 1.2781(5)
C27F C 0.4823(3) -0.1183(2) 1.3594(4)
C28F C 0.5876(5) -0.2629(3) 1.4554(5)
H33F H 0.6392(9) -0.2671(3) 1.5008(28)
H34F H 0.5810(25) -0.2817(5) 1.3916(7)
H35F H 0.5554(17) -0.2827(5) 1.4842(32)
H28F H 0.6645(4) -0.1710(3) 1.5365(5)
H23F H 0.6814(3) 0.1055(3) 1.5117(4)
H24F H 0.6787(3) 0.2095(3) 1.5318(4)
H13F H 0.2571(3) 0.3418(3) 1.1789(5)
H14F H 0.3123(3) 0.3748(3) 1.1372(5)
H5F H 0.5526(4) 0.3773(3) 1.5402(4)
H6F H 0.6338(4) 0.4029(3) 1.5602(4)
N2 N 0.7150(5) 0.3676(6) 1.0149(6)
C9 C 0.7038(5) 0.4165(7) 0.9774(7)
C10 C 0.6934(6) 0.4752(6) 0.9303(9)
H19 H 0.7068(38) 0.5054(6) 0.9800(9)
H20 H 0.6431(10) 0.4800(14) 0.8881(41)
H21 H 0.7237(30) 0.4784(13) 0.8922(44)
O6 O 0.8101(4) 0.1587(3) 1.2243(5)
H1 H 0.7866 0.1298 1.2360
H2 H 0.8536 0.1471 1.2299
loop_
_geom_bond_atom_site_label_1
_geom_bond_atom_site_label_2
_geom_bond_site_symmetry_1
_geom_bond_site_symmetry_2
K1 O1 1_555 1_555
N1 C21 1_555 1_555
N2 C9 1_555 1_555
O1 C1 1_555 1_555
O2 K1 1_555 1_555
O3 K1 1_555 1_555
O4 K1 1_555 1_555
O5 K1 1_555 1_555
O6 H1 1_555 1_555
H2 O6 1_555 1_555
C1 H3 1_555 1_555
H4 C1 1_555 1_555
C2 O2 1_555 1_555
H5 C2 1_555 1_555
H6 C2 1_555 1_555
C3 O2 1_555 1_555
H7 C3 1_555 1_555
H8 C3 1_555 1_555
C4 O3 1_555 1_555
H9 C4 1_555 1_555
H10 C4 1_555 1_555
C5 O3 1_555 1_555
H11 C5 1_555 1_555
H12 C5 1_555 1_555
C6 O4 1_555 1_555
H13 C6 1_555 1_555
H14 C6 1_555 1_555
C7 O4 1_555 1_555
H15 C7 1_555 1_555
H16 C7 1_555 1_555
C8 O5 1_555 1_555
H17 C8 1_555 1_555
H18 C8 1_555 1_555
C9 C10 1_555 1_555
C10 H19 1_555 1_555
H20 C10 1_555 1_555
H21 C10 1_555 1_555
C11 O1 1_555 1_555
C12 O5 1_555 1_555
C13 C12 1_555 1_555
H22 C13 1_555 1_555
C14 C13 1_555 1_555
C15 C14 1_555 1_555
H23 C15 1_555 1_555
C16 C11 1_555 1_555
H24 C16 1_555 1_555
C17 C14 1_555 1_555
H25 C17 1_555 1_555
C18 C17 1_555 1_555
H26 C18 1_555 1_555
C19 C18 1_555 1_555
C20 C19 1_555 1_555
H27 C20 1_555 1_555
C21 C20 1_555 1_555
H28 C21 1_555 1_555
C22 N1 1_555 1_555
C23 C22 1_555 1_555
H29 C23 1_555 1_555
C24 C23 1_555 1_555
H30 C24 1_555 1_555
C25 C24 1_555 1_555
H31 C25 1_555 1_555
C26 C25 1_555 1_555
H32 C26 1_555 1_555
C27 C19 1_555 1_555
C28 N1 1_555 1_555
H33 C28 1_555 1_555
H34 C28 1_555 1_555
H35 C28 1_555 1_555
O1F K1 1_555 1_555
C1F O1F 1_555 1_555
H3F C1F 1_555 1_555
H4F C1F 1_555 1_555
C2F C1F 1_555 1_555
O2F K1 1_555 1_555
O3F K1 1_555 1_555
C4F O3F 1_555 1_555
C3F O2F 1_555 1_555
H7F C3F 1_555 1_555
H8F C3F 1_555 1_555
H9F C4F 1_555 1_555
H10F C4F 1_555 1_555
C5F O3F 1_555 1_555
H11F C5F 1_555 1_555
H12F C5F 1_555 1_555
C6F C5F 1_555 1_555
O4F K1 1_555 1_555
O5F K1 1_555 1_555
C8F O5F 1_555 1_555
C7F O4F 1_555 1_555
H15F C7F 1_555 1_555
H16F C7F 1_555 1_555
H17F C8F 1_555 1_555
H18F C8F 1_555 1_555
C12F O5F 1_555 1_555
C11F O1F 1_555 1_555
C16F C11F 1_555 1_555
C15F C16F 1_555 1_555
C14F C15F 1_555 1_555
C13F C12F 1_555 1_555
H22F C13F 1_555 1_555
C17F C14F 1_555 1_555
H25F C17F 1_555 1_555
C18F C17F 1_555 1_555
H26F C18F 1_555 1_555
C19F C18F 1_555 1_555
C20F C19F 1_555 1_555
H27F C20F 1_555 1_555
C21F C20F 1_555 1_555
N1F C21F 1_555 1_555
C22F N1F 1_555 1_555
C23F C22F 1_555 1_555
H29F C23F 1_555 1_555
C24F C23F 1_555 1_555
H30F C24F 1_555 1_555
C25F C24F 1_555 1_555
H31F C25F 1_555 1_555
C26F C25F 1_555 1_555
H32F C26F 1_555 1_555
C27F C19F 1_555 1_555
C28F N1F 1_555 1_555
H33F C28F 1_555 1_555
H34F C28F 1_555 1_555
H35F C28F 1_555 1_555
H28F C21F 1_555 1_555
H23F C15F 1_555 1_555
H24F C16F 1_555 1_555
H13F C6F 1_555 1_555
H14F C6F 1_555 1_555
H5F C2F 1_555 1_555
H6F C2F 1_555 1_555
C1 C2 1_555 1_555
C3 C4 1_555 1_555
C5 C6 1_555 1_555
C7 C8 1_555 1_555
C11 C12 1_555 1_555
C15 C16 1_555 1_555
C22 C27 1_555 1_555
C26 C27 1_555 1_555
C2F O2F 1_555 1_555
C4F C3F 1_555 1_555
C6F O4F 1_555 1_555
C8F C7F 1_555 1_555
C12F C11F 1_555 1_555
C14F C13F 1_555 1_555
C22F C27F 1_555 1_555
C26F C27F 1_555 1_555

#END
