
#######################################################################
#
#                 Cambridge Crystallographic Data Centre
#                                CCDC 
#
#######################################################################
#
# If this CIF has been generated from an entry in the Cambridge 
# Structural Database, then it will include bibliographic, chemical, 
# crystal, experimental, refinement or atomic coordinate data resulting 
# from the CCDC's data processing and validation procedures.
#
#######################################################################

data_IVANUQ
_chemical_formula_moiety         'C22 H19 F3 O2'
_chemical_name_systematic        
(3-benzoyl-4-(trifluoromethyl)-2,3,4,5-tetrahydrobiphenyl-2-yl)acetaldehyde
_symmetry_cell_setting           monoclinic
_symmetry_space_group_name_H-M   'I 2'
_symmetry_Int_Tables_number      5
_space_group_name_Hall           'I 2y'
loop_
_symmetry_equiv_pos_site_id
_symmetry_equiv_pos_as_xyz
1 x,y,z
2 -x,y,-z
3 1/2+x,1/2+y,1/2+z
4 1/2-x,1/2+y,1/2-z
_cell_length_a                   17.7159(4)
_cell_length_b                   5.7409(2)
_cell_length_c                   18.4302(5)
_cell_angle_alpha                90
_cell_angle_beta                 101.874(2)
_cell_angle_gamma                90
_cell_volume                     1834.34
_exptl_crystal_colour            colorless
_exptl_crystal_description       needle
_cell_formula_units_Z            4
loop_
_atom_site_label
_atom_site_type_symbol
_atom_site_fract_x
_atom_site_fract_y
_atom_site_fract_z
F1 F -0.01939(9) 0.9269(5) 0.58426(7)
O1 O -0.02059(10) 1.3449(4) 0.79530(11)
F2 F -0.07035(10) 0.7219(4) 0.65795(9)
F3 F -0.08825(11) 1.0876(5) 0.65329(11)
C1 C 0.03706(12) 0.9560(5) 0.71145(12)
H1 H 0.0601 1.1067 0.7035
C2 C 0.09724(11) 1.0060(4) 0.84753(11)
H2 H 0.1044 1.1752 0.8474
C3 C 0.24305(11) 0.9285(4) 0.88113(11)
C4 C -0.03656(12) 1.1418(4) 0.80236(12)
C5 C 0.16859(11) 0.8988(4) 0.82719(11)
C6 C 0.09464(13) 0.7658(5) 0.70394(13)
H3 H 0.0715 0.6144 0.7078
H4 H 0.1081 0.7763 0.6556
C7 C 0.02141(11) 0.9534(4) 0.79051(11)
H5 H 0.0019 0.7998 0.8009
C8 C 0.32924(13) 1.1583(5) 0.97228(13)
H6 H 0.3394 1.2955 0.9994
C9 C -0.10921(12) 1.0754(5) 0.82607(12)
C10 C 0.25954(12) 1.1313(5) 0.92271(12)
H7 H 0.2232 1.2504 0.9172
C11 C 0.16601(13) 0.7902(5) 0.76341(13)
H8 H 0.2114 0.7247 0.7549
C12 C 0.29882(13) 0.7539(5) 0.89114(14)
H9 H 0.2893 0.6160 0.8644
C13 C 0.38355(13) 0.9838(6) 0.98169(13)
H10 H 0.4300 1.0014 1.0155
C14 C 0.36857(14) 0.7843(6) 0.94079(15)
H11 H 0.4056 0.6673 0.9463
C15 C -0.03506(14) 0.9252(6) 0.65265(13)
C16 C -0.14234(15) 1.2379(5) 0.86570(14)
H12 H -0.1181 1.3803 0.8781
C17 C -0.24812(16) 0.9812(6) 0.86681(18)
H13 H -0.2949 0.9503 0.8804
C18 C -0.14553(13) 0.8645(5) 0.80790(14)
H14 H -0.1226 0.7528 0.7829
C19 C -0.21082(17) 1.1891(6) 0.88668(17)
H15 H -0.2320 1.2971 0.9144
C20 C -0.21605(14) 0.8176(6) 0.82658(16)
H16 H -0.2415 0.6782 0.8123
C21 C 0.08786(13) 0.9396(6) 0.92625(12)
H17 H 0.1332 0.9891 0.9620
H18 H 0.0435 1.0201 0.9375
C22 C 0.0774(5) 0.6836(9) 0.9331(9)
H19 H 0.0270 0.6337 0.9306
O2 O 0.1235(5) 0.5398(12) 0.9410(6)
H20? H 0.1255 1.0259 0.9618
H21? H 0.0371 0.9882 0.9322
C23? C 0.0972(7) 0.6853(12) 0.9443(11)
H22? H 0.1373 0.6065 0.9293
O3? O 0.0575(6) 0.5781(18) 0.9762(7)
loop_
_geom_bond_atom_site_label_1
_geom_bond_atom_site_label_2
_geom_bond_site_symmetry_1
_geom_bond_site_symmetry_2
F1 C15 1_555 1_555
O1 C4 1_555 1_555
F2 C15 1_555 1_555
F3 C15 1_555 1_555
C1 H1 1_555 1_555
C2 H2 1_555 1_555
C3 C5 1_555 1_555
C4 C7 1_555 1_555
C5 C2 1_555 1_555
C6 C1 1_555 1_555
H3 C6 1_555 1_555
H4 C6 1_555 1_555
C7 C1 1_555 1_555
H5 C7 1_555 1_555
C8 H6 1_555 1_555
C9 C4 1_555 1_555
C10 C3 1_555 1_555
H7 C10 1_555 1_555
C11 C5 1_555 1_555
H8 C11 1_555 1_555
C12 C3 1_555 1_555
H9 C12 1_555 1_555
C13 C8 1_555 1_555
H10 C13 1_555 1_555
C14 C12 1_555 1_555
H11 C14 1_555 1_555
C15 C1 1_555 1_555
C16 C9 1_555 1_555
H12 C16 1_555 1_555
C17 H13 1_555 1_555
C18 C9 1_555 1_555
H14 C18 1_555 1_555
C19 C16 1_555 1_555
H15 C19 1_555 1_555
C20 C17 1_555 1_555
H16 C20 1_555 1_555
C21 C2 1_555 1_555
H17 C21 1_555 1_555
H18 C21 1_555 1_555
C22 C21 1_555 1_555
H19 C22 1_555 1_555
O2 C22 1_555 1_555
C2 C7 1_555 1_555
C6 C11 1_555 1_555
C8 C10 1_555 1_555
C13 C14 1_555 1_555
C17 C19 1_555 1_555
C18 C20 1_555 1_555

#END
