
#######################################################################
#
#                 Cambridge Crystallographic Data Centre
#                                CCDC 
#
#######################################################################
#
# If this CIF has been generated from an entry in the Cambridge 
# Structural Database, then it will include bibliographic, chemical, 
# crystal, experimental, refinement or atomic coordinate data resulting 
# from the CCDC's data processing and validation procedures.
#
#######################################################################

data_IVEWOV
_chemical_formula_moiety         'C44 H41 B1 N6'
_chemical_name_systematic        
Dimesityl-(3,5-bis(2,2'-dipyridylamino)phenyl)borane
_symmetry_cell_setting           triclinic
_symmetry_space_group_name_H-M   'P -1'
_symmetry_Int_Tables_number      2
_space_group_name_Hall           '-P 1'
loop_
_symmetry_equiv_pos_site_id
_symmetry_equiv_pos_as_xyz
1 x,y,z
2 -x,-y,-z
_cell_length_a                   11.144(2)
_cell_length_b                   12.088(3)
_cell_length_c                   15.629(3)
_cell_angle_alpha                104.225(3)
_cell_angle_beta                 103.158(4)
_cell_angle_gamma                104.981(4)
_cell_volume                     1873.72
_exptl_crystal_colour            colorless
_exptl_crystal_description       plate
_chemical_melting_point          224-226deg.C
_cell_formula_units_Z            2
_exptl_crystal_recrystallization_method dichloromethane/hexane
_exptl_crystal_preparation       luminescent
loop_
_atom_site_label
_atom_site_type_symbol
_atom_site_fract_x
_atom_site_fract_y
_atom_site_fract_z
B1 B 1.0364(3) 0.3049(3) 0.2441(2)
N1 N 0.59186(19) 0.3543(2) 0.17778(16)
N2 N 0.5222(2) 0.1813(3) 0.0502(2)
N3 N 0.5617(2) 0.5225(2) 0.13354(18)
N4 N 0.68837(19) 0.10047(19) 0.36506(15)
N5 N 0.7777(2) 0.0016(2) 0.46406(18)
N6 N 0.5013(2) -0.0280(2) 0.38427(18)
C1 C 1.0589(2) 0.3414(3) 0.1576(2)
C2 C 0.9759(3) 0.2719(3) 0.0662(2)
C3 C 0.9989(3) 0.3061(3) -0.0093(2)
H1 H 0.9443 0.2586 -0.0689
C4 C 1.1004(4) 0.4085(4) 0.0014(3)
C5 C 1.1805(3) 0.4762(3) 0.0895(3)
H2 H 1.2482 0.5457 0.0978
C6 C 1.1643(3) 0.4445(3) 0.1679(2)
C7 C 0.8661(3) 0.1555(3) 0.0459(2)
H3 H 0.8213 0.1223 -0.0197
H4 H 0.8058 0.1718 0.0783
H5 H 0.9014 0.0984 0.0661
C8 C 1.1226(3) 0.4403(3) -0.0832(2)
H6 H 1.1961 0.5133 -0.0636
H7 H 1.0461 0.4522 -0.1169
H8 H 1.1398 0.3755 -0.1225
C9 C 1.2625(3) 0.5235(3) 0.2613(2)
H9 H 1.3254 0.5881 0.2533
H10 H 1.3063 0.4759 0.2884
H11 H 1.2180 0.5568 0.3015
C10 C 1.1491(2) 0.2884(2) 0.31631(19)
C11 C 1.1987(3) 0.3653(2) 0.4091(2)
C12 C 1.3119(3) 0.3618(3) 0.4682(2)
H12 H 1.3461 0.4155 0.5286
C13 C 1.3744(3) 0.2812(3) 0.4399(2)
C14 C 1.3196(2) 0.2005(3) 0.3507(2)
H13 H 1.3565 0.1417 0.3314
C15 C 1.2108(2) 0.2048(2) 0.28897(19)
C16 C 1.1364(3) 0.4555(3) 0.4483(2)
H14 H 1.1849 0.4987 0.5125
H15 H 1.0479 0.4132 0.4429
H16 H 1.1370 0.5117 0.4143
C17 C 1.4964(3) 0.2810(3) 0.5066(2)
H17 H 1.5187 0.3437 0.5647
H18 H 1.5672 0.2953 0.4809
H19 H 1.4806 0.2040 0.5166
C18 C 1.1578(3) 0.1103(3) 0.1927(2)
H20 H 1.2131 0.0616 0.1872
H21 H 1.1559 0.1501 0.1465
H22 H 1.0708 0.0597 0.1837
C19 C 0.8978(2) 0.2833(2) 0.25814(18)
C20 C 0.8097(2) 0.3341(2) 0.21830(17)
H23 H 0.8356 0.3861 0.1859
C21 C 0.6851(2) 0.3089(2) 0.22580(18)
C22 C 0.6469(2) 0.2348(2) 0.27613(18)
H24 H 0.5642 0.2205 0.2832
C23 C 0.7303(2) 0.1814(2) 0.31624(18)
C24 C 0.8552(2) 0.2069(2) 0.30742(18)
H25 H 0.9120 0.1721 0.3350
C25 C 0.4922(2) 0.2704(3) 0.0980(2)
C26 C 0.3704(3) 0.2803(3) 0.0727(2)
H26 H 0.3506 0.3418 0.1095
C27 C 0.2781(3) 0.1989(4) -0.0071(3)
H27 H 0.1952 0.2051 -0.0251
C28 C 0.3082(4) 0.1087(3) -0.0600(3)
H28 H 0.2491 0.0546 -0.1162
C29 C 0.4279(4) 0.1019(3) -0.0267(3)
H29 H 0.4467 0.0369 -0.0597
C30 C 0.6151(3) 0.4795(3) 0.2016(2)
C31 C 0.6880(3) 0.5506(3) 0.2882(2)
H30 H 0.7236 0.5180 0.3318
C32 C 0.7083(3) 0.6697(3) 0.3103(2)
H31 H 0.7598 0.7201 0.3699
C33 C 0.6553(3) 0.7196(3) 0.2474(3)
H32 H 0.6682 0.8021 0.2645
C34 C 0.5839(3) 0.6457(3) 0.1600(3)
H33 H 0.5488 0.6788 0.1167
C35 C 0.7762(2) 0.1084(3) 0.4497(2)
C36 C 0.8519(3) 0.2185(3) 0.5091(2)
H34 H 0.8471 0.2885 0.4959
C37 C 0.9361(3) 0.2235(4) 0.5893(3)
H35 H 0.9903 0.2987 0.6314
C38 C 0.9431(3) 0.1213(5) 0.6098(3)
H36 H 1.0012 0.1261 0.6648
C39 C 0.8626(3) 0.0123(4) 0.5473(3)
H37 H 0.8649 -0.0577 0.5614
C40 C 0.5644(2) 0.0098(2) 0.3246(2)
C41 C 0.5114(3) -0.0328(2) 0.23388(19)
H38 H 0.5570 -0.0045 0.1963
C42 C 0.3926(3) -0.1164(3) 0.1954(2)
H39 H 0.3565 -0.1462 0.1311
C43 C 0.3227(3) -0.1592(3) 0.2497(3)
H40 H 0.2393 -0.2164 0.2229
C44 C 0.3790(3) -0.1156(3) 0.3434(2)
H41 H 0.3342 -0.1453 0.3809
loop_
_geom_bond_atom_site_label_1
_geom_bond_atom_site_label_2
_geom_bond_site_symmetry_1
_geom_bond_site_symmetry_2
B1 C1 1_555 1_555
N1 C21 1_555 1_555
N2 C25 1_555 1_555
N3 C30 1_555 1_555
N4 C23 1_555 1_555
N5 C35 1_555 1_555
N6 C40 1_555 1_555
C1 C2 1_555 1_555
C2 C3 1_555 1_555
C3 H1 1_555 1_555
C4 C3 1_555 1_555
C5 C4 1_555 1_555
H2 C5 1_555 1_555
C6 C1 1_555 1_555
C7 C2 1_555 1_555
H3 C7 1_555 1_555
H4 C7 1_555 1_555
H5 C7 1_555 1_555
C8 C4 1_555 1_555
H6 C8 1_555 1_555
H7 C8 1_555 1_555
H8 C8 1_555 1_555
C9 C6 1_555 1_555
H9 C9 1_555 1_555
H10 C9 1_555 1_555
H11 C9 1_555 1_555
C10 B1 1_555 1_555
C11 C10 1_555 1_555
C12 C11 1_555 1_555
H12 C12 1_555 1_555
C13 C12 1_555 1_555
C14 C13 1_555 1_555
H13 C14 1_555 1_555
C15 C10 1_555 1_555
C16 C11 1_555 1_555
H14 C16 1_555 1_555
H15 C16 1_555 1_555
H16 C16 1_555 1_555
C17 C13 1_555 1_555
H17 C17 1_555 1_555
H18 C17 1_555 1_555
H19 C17 1_555 1_555
C18 C15 1_555 1_555
H20 C18 1_555 1_555
H21 C18 1_555 1_555
H22 C18 1_555 1_555
C19 B1 1_555 1_555
C20 C19 1_555 1_555
H23 C20 1_555 1_555
C21 C20 1_555 1_555
C22 C21 1_555 1_555
H24 C22 1_555 1_555
C23 C22 1_555 1_555
C24 C19 1_555 1_555
H25 C24 1_555 1_555
C25 N1 1_555 1_555
C26 C25 1_555 1_555
H26 C26 1_555 1_555
C27 C26 1_555 1_555
H27 C27 1_555 1_555
C28 C27 1_555 1_555
H28 C28 1_555 1_555
C29 N2 1_555 1_555
H29 C29 1_555 1_555
C30 N1 1_555 1_555
C31 C30 1_555 1_555
H30 C31 1_555 1_555
C32 C31 1_555 1_555
H31 C32 1_555 1_555
C33 C32 1_555 1_555
H32 C33 1_555 1_555
C34 N3 1_555 1_555
H33 C34 1_555 1_555
C35 N4 1_555 1_555
C36 C35 1_555 1_555
H34 C36 1_555 1_555
C37 C36 1_555 1_555
H35 C37 1_555 1_555
C38 C37 1_555 1_555
H36 C38 1_555 1_555
C39 N5 1_555 1_555
H37 C39 1_555 1_555
C40 N4 1_555 1_555
C41 C40 1_555 1_555
H38 C41 1_555 1_555
C42 C41 1_555 1_555
H39 C42 1_555 1_555
C43 C42 1_555 1_555
H40 C43 1_555 1_555
C44 N6 1_555 1_555
H41 C44 1_555 1_555
C5 C6 1_555 1_555
C14 C15 1_555 1_555
C23 C24 1_555 1_555
C28 C29 1_555 1_555
C33 C34 1_555 1_555
C38 C39 1_555 1_555
C43 C44 1_555 1_555

#END
