
#######################################################################
#
#                 Cambridge Crystallographic Data Centre
#                                CCDC 
#
#######################################################################
#
# If this CIF has been generated from an entry in the Cambridge 
# Structural Database, then it will include bibliographic, chemical, 
# crystal, experimental, refinement or atomic coordinate data resulting 
# from the CCDC's data processing and validation procedures.
#
#######################################################################

data_IVICAS
_chemical_formula_moiety         'C13 H13 N1 O3'
_chemical_name_systematic        
4-Acetyl-5-hydroxy-5-methyl-3-phenyl-1,5-dihydro-2H-pyrrol-2-one
_symmetry_cell_setting           triclinic
_symmetry_space_group_name_H-M   'P -1'
_symmetry_Int_Tables_number      2
_space_group_name_Hall           '-P 1'
loop_
_symmetry_equiv_pos_site_id
_symmetry_equiv_pos_as_xyz
1 x,y,z
2 -x,-y,-z
_cell_length_a                   9.7228(2)
_cell_length_b                   16.2154(13)
_cell_length_c                   16.7439(8)
_cell_angle_alpha                62.182(6)
_cell_angle_beta                 89.069(3)
_cell_angle_gamma                88.453(4)
_cell_volume                     2333.88
_exptl_crystal_colour            colorless
_exptl_crystal_description       block
_cell_formula_units_Z            8
loop_
_atom_site_label
_atom_site_type_symbol
_atom_site_fract_x
_atom_site_fract_y
_atom_site_fract_z
O1 O 1.23267(15) 0.03944(13) 0.13640(12)
O2 O 0.86146(13) 0.03321(11) 0.30188(10)
H1 H 0.8233 0.0456 0.2528
O3 O 0.85622(17) -0.21548(13) 0.40013(12)
N1 N 1.08986(17) 0.03946(14) 0.24680(13)
H2 H 1.1175 0.0918 0.2443
C1 C 1.1395(2) 0.00568(16) 0.19250(15)
C2 C 1.05958(19) -0.08089(16) 0.21377(14)
C3 C 0.96991(19) -0.09195(15) 0.27935(14)
C4 C 0.98622(19) -0.01839(16) 0.31011(14)
C5 C 1.0318(2) -0.05584(18) 0.40744(16)
H3 H 1.0477 -0.0036 0.4201
H4 H 1.1172 -0.0928 0.4171
H5 H 0.9600 -0.0953 0.4480
C6 C 0.8599(2) -0.16392(16) 0.31968(15)
C7 C 0.7543(2) -0.16449(17) 0.25575(17)
H6 H 0.6931 -0.2171 0.2880
H7 H 0.8005 -0.1707 0.2063
H8 H 0.7003 -0.1060 0.2311
C8 C 1.07951(19) -0.13705(16) 0.16658(15)
C9 C 1.09671(19) -0.09471(17) 0.07306(15)
H9 H 1.1052 -0.0289 0.0403
C10 C 1.1016(2) -0.14716(18) 0.02749(16)
H10 H 1.1110 -0.1171 -0.0364
C11 C 1.0930(2) -0.24349(19) 0.07452(17)
H11 H 1.0966 -0.2794 0.0431
C12 C 1.0792(2) -0.28678(18) 0.16731(17)
H12 H 1.0743 -0.3528 0.1998
C13 C 1.0726(2) -0.23438(17) 0.21344(16)
H13 H 1.0633 -0.2649 0.2773
O4 O 0.77293(14) 0.22318(12) 0.41163(11)
O5 O 1.02879(17) 0.51244(13) 0.13198(13)
O6 O 1.13101(13) 0.22246(11) 0.23889(11)
H14 H 1.1674 0.2143 0.2873
N2 N 0.91027(17) 0.20766(13) 0.30541(12)
H15 H 0.8921 0.1494 0.3201
C14 C 0.85857(19) 0.25195(16) 0.34994(14)
C15 C 0.92019(18) 0.34742(15) 0.30804(14)
C16 C 1.00046(19) 0.35489(15) 0.23961(14)
C17 C 0.99932(19) 0.26526(16) 0.23035(14)
C18 C 0.9414(2) 0.28113(18) 0.14039(15)
H16 H 0.9418 0.2219 0.1380
H17 H 0.9982 0.3259 0.0911
H18 H 0.8469 0.3058 0.1341
C19 C 1.0842(2) 0.43688(17) 0.17687(15)
C20 C 1.2363(2) 0.42161(19) 0.17329(18)
H19 H 1.2737 0.3930 0.2346
H20 H 1.2801 0.4816 0.1367
H21 H 1.2547 0.3803 0.1463
C21 C 0.88806(19) 0.41247(16) 0.34482(14)
C22 C 0.85144(19) 0.50595(16) 0.28946(15)
H22 H 0.8450 0.5290 0.2260
C23 C 0.8246(2) 0.56496(18) 0.32660(17)
H23 H 0.8000 0.6284 0.2884
C24 C 0.8333(2) 0.53290(19) 0.41865(17)
H24 H 0.8156 0.5742 0.4436
C25 C 0.8679(2) 0.43989(18) 0.47458(16)
H25 H 0.8739 0.4176 0.5379
C26 C 0.89388(19) 0.37930(17) 0.43861(15)
H26 H 0.9155 0.3155 0.4774
O7 O 1.24522(15) 0.20973(12) 0.38817(11)
O8 O 1.63470(14) 0.07002(11) 0.52062(11)
H27 H 1.6724 0.1172 0.4798
O9 O 1.69372(16) 0.17539(15) 0.62894(13)
N3 N 1.39833(17) 0.10130(14) 0.48849(13)
H28 H 1.3705 0.0523 0.4843
C27 C 1.3422(2) 0.18667(17) 0.44157(15)
C28 C 1.41725(19) 0.25070(16) 0.46738(14)
C29 C 1.50983(19) 0.19826(16) 0.53132(14)
C30 C 1.50996(19) 0.09737(16) 0.54709(15)
C31 C 1.4825(2) 0.02490(18) 0.64394(17)
H29 H 1.3948 0.0398 0.6644
H30 H 1.5568 0.0251 0.6827
H31 H 1.4783 -0.0369 0.6472
C32 C 1.5978(2) 0.22586(18) 0.58654(15)
C33 C 1.5623(2) 0.31200(19) 0.59419(17)
H32 H 1.6131 0.3646 0.5483
H33 H 1.5872 0.3027 0.6544
H34 H 1.4632 0.3253 0.5850
C34 C 1.3891(2) 0.35171(16) 0.41844(14)
C35 C 1.4966(2) 0.41253(16) 0.37525(15)
H35 H 1.5887 0.3892 0.3826
C36 C 1.4691(2) 0.50661(17) 0.32181(16)
H36 H 1.5424 0.5476 0.2920
C37 C 1.3354(2) 0.54138(17) 0.31145(16)
H37 H 1.3168 0.6060 0.2742
C38 C 1.2281(2) 0.48134(17) 0.35584(15)
H38 H 1.1366 0.5053 0.3506
C39 C 1.2549(2) 0.38684(16) 0.40752(15)
H39 H 1.1811 0.3457 0.4357
O10 O 1.69755(14) 0.08011(12) 0.15587(10)
O11 O 1.35406(13) 0.09082(12) -0.02634(10)
H40 H 1.3172 0.0724 0.0247
O12 O 1.3592(2) 0.33580(16) -0.13991(13)
N4 N 1.57218(16) 0.07593(14) 0.04262(12)
H41 H 1.5993 0.0201 0.0514
C40 C 1.61288(19) 0.11378(16) 0.09429(14)
C41 C 1.53669(19) 0.20566(16) 0.06159(14)
C42 C 1.45757(19) 0.21643(16) -0.00761(14)
C43 C 1.47884(19) 0.13616(16) -0.02948(15)
C44 C 1.5436(2) 0.16508(18) -0.12222(15)
H42 H 1.5618 0.1096 -0.1301
H43 H 1.6301 0.1966 -0.1268
H44 H 1.4803 0.2076 -0.1693
C45 C 1.3542(2) 0.29303(17) -0.05879(15)
C46 C 1.2423(2) 0.3080(2) -0.00535(17)
H45 H 1.1907 0.3655 -0.0439
H46 H 1.2820 0.3134 0.0454
H47 H 1.1803 0.2551 0.0177
C47 C 1.55801(19) 0.27016(16) 0.09953(14)
C48 C 1.5888(2) 0.36302(17) 0.04271(16)
H48 H 1.5941 0.3852 -0.0207
C49 C 1.6118(2) 0.42314(18) 0.07851(17)
H49 H 1.6345 0.4861 0.0394
C50 C 1.6020(2) 0.39255(18) 0.17021(17)
H50 H 1.6172 0.4343 0.1942
C51 C 1.5700(2) 0.30050(19) 0.22731(17)
H51 H 1.5623 0.2792 0.2905
C52 C 1.5492(2) 0.23942(18) 0.19221(16)
H52 H 1.5289 0.1762 0.2317
loop_
_geom_bond_atom_site_label_1
_geom_bond_atom_site_label_2
_geom_bond_site_symmetry_1
_geom_bond_site_symmetry_2
O1 C1 1_555 1_555
O2 H1 1_555 1_555
O3 C6 1_555 1_555
N1 H2 1_555 1_555
C1 N1 1_555 1_555
C2 C1 1_555 1_555
C3 C2 1_555 1_555
C4 O2 1_555 1_555
C5 C4 1_555 1_555
H3 C5 1_555 1_555
H4 C5 1_555 1_555
H5 C5 1_555 1_555
C6 C3 1_555 1_555
C7 C6 1_555 1_555
H6 C7 1_555 1_555
H7 C7 1_555 1_555
H8 C7 1_555 1_555
C8 C2 1_555 1_555
C9 C8 1_555 1_555
H9 C9 1_555 1_555
C10 C9 1_555 1_555
H10 C10 1_555 1_555
C11 C10 1_555 1_555
H11 C11 1_555 1_555
C12 C11 1_555 1_555
H12 C12 1_555 1_555
C13 C8 1_555 1_555
H13 C13 1_555 1_555
O4 C14 1_555 1_555
O5 C19 1_555 1_555
O6 H14 1_555 1_555
N2 H15 1_555 1_555
C14 N2 1_555 1_555
C15 C14 1_555 1_555
C16 C15 1_555 1_555
C17 O6 1_555 1_555
C18 C17 1_555 1_555
H16 C18 1_555 1_555
H17 C18 1_555 1_555
H18 C18 1_555 1_555
C19 C16 1_555 1_555
C20 C19 1_555 1_555
H19 C20 1_555 1_555
H20 C20 1_555 1_555
H21 C20 1_555 1_555
C21 C15 1_555 1_555
C22 C21 1_555 1_555
H22 C22 1_555 1_555
C23 C22 1_555 1_555
H23 C23 1_555 1_555
C24 C23 1_555 1_555
H24 C24 1_555 1_555
C25 C24 1_555 1_555
H25 C25 1_555 1_555
C26 C21 1_555 1_555
H26 C26 1_555 1_555
O7 C27 1_555 1_555
O8 H27 1_555 1_555
O9 C32 1_555 1_555
N3 H28 1_555 1_555
C27 N3 1_555 1_555
C28 C27 1_555 1_555
C29 C28 1_555 1_555
C30 O8 1_555 1_555
C31 C30 1_555 1_555
H29 C31 1_555 1_555
H30 C31 1_555 1_555
H31 C31 1_555 1_555
C32 C29 1_555 1_555
C33 C32 1_555 1_555
H32 C33 1_555 1_555
H33 C33 1_555 1_555
H34 C33 1_555 1_555
C34 C28 1_555 1_555
C35 C34 1_555 1_555
H35 C35 1_555 1_555
C36 C35 1_555 1_555
H36 C36 1_555 1_555
C37 C36 1_555 1_555
H37 C37 1_555 1_555
C38 C37 1_555 1_555
H38 C38 1_555 1_555
C39 C34 1_555 1_555
H39 C39 1_555 1_555
O10 C40 1_555 1_555
O11 H40 1_555 1_555
O12 C45 1_555 1_555
N4 H41 1_555 1_555
C40 N4 1_555 1_555
C41 C40 1_555 1_555
C42 C41 1_555 1_555
C43 O11 1_555 1_555
C44 C43 1_555 1_555
H42 C44 1_555 1_555
H43 C44 1_555 1_555
H44 C44 1_555 1_555
C45 C42 1_555 1_555
C46 C45 1_555 1_555
H45 C46 1_555 1_555
H46 C46 1_555 1_555
H47 C46 1_555 1_555
C47 C41 1_555 1_555
C48 C47 1_555 1_555
H48 C48 1_555 1_555
C49 C48 1_555 1_555
H49 C49 1_555 1_555
C50 C49 1_555 1_555
H50 C50 1_555 1_555
C51 C50 1_555 1_555
H51 C51 1_555 1_555
C52 C47 1_555 1_555
H52 C52 1_555 1_555
N1 C4 1_555 1_555
C3 C4 1_555 1_555
C12 C13 1_555 1_555
N2 C17 1_555 1_555
C16 C17 1_555 1_555
C25 C26 1_555 1_555
N3 C30 1_555 1_555
C29 C30 1_555 1_555
C38 C39 1_555 1_555
N4 C43 1_555 1_555
C42 C43 1_555 1_555
C51 C52 1_555 1_555

#END
