
#######################################################################
#
#                 Cambridge Crystallographic Data Centre
#                                CCDC 
#
#######################################################################
#
# If this CIF has been generated from an entry in the Cambridge 
# Structural Database, then it will include bibliographic, chemical, 
# crystal, experimental, refinement or atomic coordinate data resulting 
# from the CCDC's data processing and validation procedures.
#
#######################################################################

data_IVIFEY
_chemical_formula_moiety         'C44 H36 N8 O19 Sr1'
_chemical_name_systematic        
(N,N,N',N'-Tetraphenyl-3,6,9-trioxaundecanediamide)-bis(picrato-O,O')-strontium(ii)
_symmetry_cell_setting           monoclinic
_symmetry_space_group_name_H-M   'P 21/a'
_symmetry_Int_Tables_number      14
_space_group_name_Hall           '-P 2yab'
loop_
_symmetry_equiv_pos_site_id
_symmetry_equiv_pos_as_xyz
1 x,y,z
2 1/2-x,1/2+y,-z
3 -x,-y,-z
4 1/2+x,1/2-y,z
_cell_length_a                   17.014(7)
_cell_length_b                   15.559(5)
_cell_length_c                   17.80(1)
_cell_angle_alpha                90
_cell_angle_beta                 95.15(4)
_cell_angle_gamma                90
_cell_volume                     4693.01
_exptl_crystal_colour            yellow
_cell_formula_units_Z            4
_exptl_crystal_recrystallization_method acetonitrile
loop_
_atom_site_label
_atom_site_type_symbol
_atom_site_fract_x
_atom_site_fract_y
_atom_site_fract_z
Sr1 Sr 0.73989(6) 0.20778(6) 0.73731(5)
O1 O 0.7636(4) 0.2128(5) 0.5990(4)
O2 O 0.6427(4) 0.1234(4) 0.6324(3)
O3 O 0.6724(4) 0.0618(4) 0.7738(4)
O4 O 0.7759(4) 0.1470(4) 0.8744(3)
O5 O 0.7818(4) 0.3103(4) 0.8475(4)
O6 O 0.8551(4) 0.1150(4) 0.7270(4)
O7 O 0.8717(5) 0.2870(5) 0.7142(4)
O8 O 0.6140(4) 0.2551(5) 0.7849(4)
O9 O 0.6882(4) 0.3645(5) 0.6991(4)
O10 O 0.9575(5) 0.3364(5) 0.6461(5)
O11 O 0.6622(5) 0.4987(6) 0.7074(5)
O12 O 1.1215(5) 0.1656(7) 0.5120(6)
O13 O 1.1200(5) 0.0274(7) 0.5220(5)
O14 O 0.9408(7) -0.1032(7) 0.6941(7)
O15 O 0.8256(7) -0.0471(7) 0.6704(7)
O16 O 0.4983(8) 0.6195(7) 0.8784(8)
O17 O 0.4283(6) 0.5370(7) 0.9441(6)
O18 O 0.481(1) 0.2320(8) 0.9486(7)
O19 O 0.4983(8) 0.181(1) 0.8604(9)
N1 N 0.7465(4) 0.1848(5) 0.4722(4)
N2 N 0.7994(5) 0.3493(5) 0.9704(4)
N3 N 0.9239(6) 0.2744(7) 0.6715(5)
N4 N 0.6538(5) 0.4247(7) 0.7270(5)
N5 N 1.0949(7) 0.100(1) 0.5357(6)
N6 N 0.8976(8) -0.0452(8) 0.6751(7)
N7 N 0.4786(8) 0.549(1) 0.8986(8)
N8 N 0.526(1) 0.238(1) 0.9061(9)
C1 C 0.7270(6) 0.1780(6) 0.5457(6)
C2 C 0.6569(7) 0.1208(7) 0.5551(5)
C3 C 0.6053(6) 0.0450(7) 0.6547(6)
C4 C 0.5966(7) 0.0481(7) 0.7354(7)
C5 C 0.6761(8) 0.0422(7) 0.8523(6)
C6 C 0.7566(8) 0.0585(7) 0.8846(6)
C7 C 0.7732(6) 0.1987(7) 0.9394(5)
C8 C 0.7855(5) 0.2891(7) 0.9154(6)
C9 C 0.8156(6) 0.2352(6) 0.4573(5)
C10 C 0.8277(6) 0.3161(6) 0.4867(6)
C11 C 0.8967(8) 0.3589(7) 0.4708(7)
C12 C 0.9487(7) 0.3255(1) 0.4271(7)
C13 C 0.9335(7) 0.245(1) 0.3969(7)
C14 C 0.8675(6) 0.1999(7) 0.4116(6)
C15 C 0.6989(6) 0.1491(7) 0.4081(5)
C16 C 0.6996(7) 0.0626(8) 0.3966(6)
C17 C 0.6549(9) 0.0278(9) 0.3344(9)
C18 C 0.6107(8) 0.084(1) 0.2871(7)
C19 C 0.6126(7) 0.169(1) 0.2986(7)
C20 C 0.6568(6) 0.2043(8) 0.3604(6)
C21 C 0.8113(8) 0.4381(7) 0.9489(6)
C22 C 0.7515(8) 0.4854(8) 0.9176(7)
C23 C 0.765(1) 0.572(1) 0.8967(8)
C24 C 0.840(1) 0.603(1) 0.909(1)
C25 C 0.897(1) 0.556(1) 0.939(1)
C26 C 0.883(1) 0.471(1) 0.9576(8)
C27 C 0.7995(7) 0.3286(6) 1.0497(6)
C28 C 0.8687(7) 0.3006(8) 1.0898(6)
C29 C 0.8692(8) 0.2820(8) 1.1670(7)
C30 C 0.800(1) 0.296(1) 1.2001(7)
C31 C 0.7310(9) 0.3242(8) 1.1604(8)
C32 C 0.7303(7) 0.3387(7) 1.0838(6)
C33 C 0.9054(6) 0.1138(7) 0.6811(6)
C34 C 0.9452(6) 0.1886(7) 0.6523(6)
C35 C 1.0044(6) 0.1824(8) 0.6044(6)
C36 C 1.0298(6) 0.105(1) 0.5835(6)
C37 C 0.9961(7) 0.0275(8) 0.6072(6)
C38 C 0.9351(7) 0.0345(8) 0.6528(7)
C39 C 0.5845(6) 0.3219(7) 0.8081(6)
C40 C 0.5991(6) 0.4083(7) 0.7838(6)
C41 C 0.5640(7) 0.4795(8) 0.8124(6)
C42 C 0.5115(7) 0.4723(9) 0.8657(7)
C43 C 0.4969(6) 0.391(1) 0.8932(6)
C44 C 0.5291(6) 0.3203(7) 0.8636(6)
loop_
_geom_bond_atom_site_label_1
_geom_bond_atom_site_label_2
_geom_bond_site_symmetry_1
_geom_bond_site_symmetry_2
Sr1 O1 1_555 1_555
O1 C1 1_555 1_555
O2 Sr1 1_555 1_555
O3 Sr1 1_555 1_555
O4 Sr1 1_555 1_555
O5 Sr1 1_555 1_555
O6 Sr1 1_555 1_555
O7 Sr1 1_555 1_555
O8 Sr1 1_555 1_555
O9 Sr1 1_555 1_555
O10 N3 1_555 1_555
O11 N4 1_555 1_555
O12 N5 1_555 1_555
O13 N5 1_555 1_555
O14 N6 1_555 1_555
O15 N6 1_555 1_555
O16 N7 1_555 1_555
O17 N7 1_555 1_555
O18 N8 1_555 1_555
O19 N8 1_555 1_555
N1 C1 1_555 1_555
N2 C8 1_555 1_555
N3 O7 1_555 1_555
N4 O9 1_555 1_555
N5 C36 1_555 1_555
N6 C38 1_555 1_555
N7 C42 1_555 1_555
N8 C44 1_555 1_555
C1 C2 1_555 1_555
C2 O2 1_555 1_555
C3 O2 1_555 1_555
C4 O3 1_555 1_555
C5 O3 1_555 1_555
C6 O4 1_555 1_555
C7 O4 1_555 1_555
C8 O5 1_555 1_555
C9 N1 1_555 1_555
C10 C9 1_555 1_555
C11 C10 1_555 1_555
C12 C11 1_555 1_555
C13 C12 1_555 1_555
C14 C9 1_555 1_555
C15 N1 1_555 1_555
C16 C15 1_555 1_555
C17 C16 1_555 1_555
C18 C17 1_555 1_555
C19 C18 1_555 1_555
C20 C15 1_555 1_555
C21 N2 1_555 1_555
C22 C21 1_555 1_555
C23 C22 1_555 1_555
C24 C23 1_555 1_555
C25 C24 1_555 1_555
C26 C21 1_555 1_555
C27 N2 1_555 1_555
C28 C27 1_555 1_555
C29 C28 1_555 1_555
C30 C29 1_555 1_555
C31 C30 1_555 1_555
C32 C27 1_555 1_555
C33 O6 1_555 1_555
C34 N3 1_555 1_555
C35 C34 1_555 1_555
C36 C35 1_555 1_555
C37 C36 1_555 1_555
C38 C33 1_555 1_555
C39 O8 1_555 1_555
C40 N4 1_555 1_555
C41 C40 1_555 1_555
C42 C41 1_555 1_555
C43 C42 1_555 1_555
C44 C39 1_555 1_555
C3 C4 1_555 1_555
C5 C6 1_555 1_555
C7 C8 1_555 1_555
C13 C14 1_555 1_555
C19 C20 1_555 1_555
C25 C26 1_555 1_555
C31 C32 1_555 1_555
C33 C34 1_555 1_555
C37 C38 1_555 1_555
C39 C40 1_555 1_555
C43 C44 1_555 1_555

#END
