
#######################################################################
#
#                 Cambridge Crystallographic Data Centre
#                                CCDC 
#
#######################################################################
#
# If this CIF has been generated from an entry in the Cambridge 
# Structural Database, then it will include bibliographic, chemical, 
# crystal, experimental, refinement or atomic coordinate data resulting 
# from the CCDC's data processing and validation procedures.
#
#######################################################################

data_IVILIJ
_chemical_formula_moiety         'C21 H22 O1 S3'
_chemical_name_systematic        
2-nonanoylbenzo[1,2-b:3,4-b':5,6-d'']trithiophene
_symmetry_cell_setting           triclinic
_symmetry_space_group_name_H-M   'P -1'
_symmetry_Int_Tables_number      2
_space_group_name_Hall           '-P 1'
loop_
_symmetry_equiv_pos_site_id
_symmetry_equiv_pos_as_xyz
1 x,y,z
2 -x,-y,-z
_cell_length_a                   8.42633(15)
_cell_length_b                   25.5835(5)
_cell_length_c                   27.2590(5)
_cell_angle_alpha                80.7938(16)
_cell_angle_beta                 85.1722(15)
_cell_angle_gamma                83.6729(15)
_cell_volume                     5752.06
_exptl_crystal_colour            'pale yellow'
_exptl_crystal_description       needles
_cell_formula_units_Z            12
loop_
_atom_site_label
_atom_site_type_symbol
_atom_site_fract_x
_atom_site_fract_y
_atom_site_fract_z
S1 S 0.0001(3) 0.59401(7) 1.05755(6)
C1 C 0.1032(10) 0.6205(3) 1.0030(2)
C2 C 0.1389(12) 0.5958(3) 0.9593(3)
S2 S 0.0964(4) 0.53512(8) 0.94818(8)
C3 C 0.1822(16) 0.5470(4) 0.8879(3)
H1 H 0.1872 0.5222 0.8652
C4 C 0.2406(15) 0.5943(4) 0.8765(3)
H2 H 0.2911 0.6066 0.8450
C5 C 0.2186(12) 0.6246(3) 0.9174(3)
C6 C 0.2685(10) 0.6746(3) 0.9202(3)
S3 S 0.3749(3) 0.71319(8) 0.87340(7)
C7 C 0.3783(8) 0.7613(3) 0.9114(2)
C8 C 0.2969(7) 0.7506(3) 0.9612(3)
H3 H 0.2873 0.7725 0.9866
C9 C 0.2329(8) 0.6987(3) 0.9635(2)
C10 C 0.1478(8) 0.6704(3) 1.0054(2)
C11 C 0.0950(8) 0.6871(3) 1.0523(2)
H4 H 0.1132 0.7204 1.0608
C12 C 0.0169(9) 0.6504(3) 1.0830(2)
H5 H -0.0251 0.6551 1.1157
C13 C 0.4650(9) 0.8072(3) 0.8918(2)
O1 O 0.5347(8) 0.8094(2) 0.84991(19)
C14 C 0.4667(8) 0.8503(3) 0.9227(2)
H6 H 0.3549 0.8620 0.9333
H7 H 0.5228 0.8354 0.9531
C15 C 0.5452(8) 0.8976(3) 0.8969(2)
H8 H 0.4884 0.9130 0.8668
H9 H 0.6569 0.8861 0.8860
C16 C 0.5459(8) 0.9403(3) 0.9299(2)
H10 H 0.6074 0.9252 0.9591
H11 H 0.4344 0.9500 0.9424
C17 C 0.6169(9) 0.9911(3) 0.9042(3)
H12 H 0.7298 0.9818 0.8929
H13 H 0.5578 1.0058 0.8744
C18 C 0.6109(8) 1.0335(3) 0.9376(2)
H14 H 0.6719 1.0190 0.9671
H15 H 0.4983 1.0422 0.9495
C19 C 0.6785(10) 1.0845(3) 0.9118(3)
H16 H 0.7928 1.0761 0.9016
H17 H 0.6216 1.0979 0.8812
C20 C 0.6640(10) 1.1278(4) 0.9441(3)
H18 H 0.7257 1.1151 0.9738
H19 H 0.5503 1.1347 0.9558
C21 C 0.7243(17) 1.1804(5) 0.9173(3)
H20 H 0.7096 1.2069 0.9400
H21 H 0.6634 1.1935 0.8879
H22 H 0.8381 1.1743 0.9068
S4 S 0.1557(2) 0.07372(10) 0.60419(7)
C22 C 0.0983(8) 0.0968(3) 0.6599(2)
C23 C 0.0208(7) 0.0701(3) 0.7034(2)
S5 S -0.0431(2) 0.00743(9) 0.71122(7)
C24 C -0.1138(10) 0.0116(3) 0.7720(3)
H23 H -0.1624 -0.0162 0.7934
C25 C -0.0929(13) 0.0568(4) 0.7853(3)
H24 H -0.1268 0.0649 0.8177
C26 C -0.0142(8) 0.0946(3) 0.7475(2)
C27 C 0.0314(10) 0.1447(3) 0.7456(2)
S6 S 0.0060(3) 0.17925(9) 0.79637(7)
C28 C 0.0981(9) 0.2324(3) 0.7613(2)
C29 C 0.1485(10) 0.2240(3) 0.7113(3)
H25 H 0.2007 0.2484 0.6870
C30 C 0.1081(8) 0.1733(3) 0.7037(2)
C31 C 0.1422(9) 0.1480(3) 0.6589(2)
C32 C 0.2197(10) 0.1688(4) 0.6126(3)
H26 H 0.2566 0.2032 0.6052
C33 C 0.2338(11) 0.1331(4) 0.5804(3)
H27 H 0.2823 0.1401 0.5476
C34 C 0.1151(10) 0.2792(3) 0.7842(3)
O2 O 0.0627(8) 0.2803(2) 0.82768(19)
C35 C 0.1978(10) 0.3244(3) 0.7534(3)
H28 H 0.3073 0.3104 0.7427
H29 H 0.1395 0.3369 0.7230
C36 C 0.2098(9) 0.3714(3) 0.7792(3)
H30 H 0.2694 0.3595 0.8094
H31 H 0.1009 0.3860 0.7898
C37 C 0.2944(9) 0.4152(3) 0.7454(3)
H32 H 0.4037 0.4003 0.7355
H33 H 0.2361 0.4258 0.7147
C38 C 0.3064(8) 0.4643(3) 0.7689(3)
H34 H 0.3671 0.4539 0.7991
H35 H 0.1974 0.4789 0.7794
C39 C 0.3879(9) 0.5074(3) 0.7339(3)
H36 H 0.4938 0.4919 0.7217
H37 H 0.3232 0.5191 0.7047
C40 C 0.4111(9) 0.5557(3) 0.7574(3)
H38 H 0.3051 0.5722 0.7685
H39 H 0.4731 0.5441 0.7871
C41 C 0.4960(9) 0.5965(3) 0.7226(3)
H40 H 0.4352 0.6080 0.6926
H41 H 0.6032 0.5806 0.7120
C42 C 0.5141(10) 0.6450(3) 0.7473(3)
H42 H 0.5696 0.6710 0.7236
H43 H 0.5763 0.6338 0.7766
H44 H 0.4080 0.6611 0.7575
S7 S 0.9828(2) 0.40281(8) 0.61217(6)
C43 C 0.8800(7) 0.3773(3) 0.6666(2)
C44 C 0.8374(7) 0.4028(2) 0.7100(2)
S8 S 0.87343(18) 0.46488(6) 0.71881(6)
C45 C 0.7869(8) 0.4550(3) 0.7788(2)
H45 H 0.7789 0.4807 0.8007
C46 C 0.7314(7) 0.4064(3) 0.7913(2)
H46 H 0.6798 0.3946 0.8228
C47 C 0.7591(7) 0.3746(3) 0.7516(2)
C48 C 0.7163(7) 0.3225(3) 0.7501(2)
S9 S 0.6109(2) 0.28451(7) 0.79643(7)
C49 C 0.6134(7) 0.2337(3) 0.7596(3)
C50 C 0.7001(7) 0.2459(3) 0.7124(3)
H47 H 0.7174 0.2232 0.6877
C51 C 0.7581(7) 0.2985(3) 0.7077(2)
C52 C 0.8449(8) 0.3255(3) 0.6658(2)
C53 C 0.9044(8) 0.3067(3) 0.6203(3)
H48 H 0.8916 0.2724 0.6131
C54 C 0.9799(9) 0.3432(3) 0.5893(3)
H49 H 1.0277 0.3372 0.5576
C55 C 0.5302(8) 0.1868(3) 0.7792(3)
O3 O 0.4577(7) 0.1847(2) 0.8197(2)
C56 C 0.5351(8) 0.1438(3) 0.7469(3)
H50 H 0.6482 0.1326 0.7372
H51 H 0.4818 0.1587 0.7160
C57 C 0.4550(8) 0.0951(2) 0.7721(2)
H52 H 0.5100 0.0794 0.8025
H53 H 0.3424 0.1061 0.7823
C58 C 0.4588(8) 0.0532(2) 0.7382(2)
H54 H 0.3996 0.0686 0.7085
H55 H 0.5712 0.0438 0.7265
C59 C 0.3875(9) 0.0030(3) 0.7626(2)
H56 H 0.2737 0.0121 0.7730
H57 H 0.4439 -0.0118 0.7929
C60 C 0.3981(8) -0.0396(2) 0.7284(2)
H58 H 0.3372 -0.0252 0.6989
H59 H 0.5114 -0.0472 0.7166
C61 C 0.3345(9) -0.0912(2) 0.7531(2)
H60 H 0.2207 -0.0837 0.7645
H61 H 0.3944 -0.1054 0.7830
C62 C 0.3480(9) -0.1332(2) 0.7192(2)
H62 H 0.2777 -0.1209 0.6914
H63 H 0.4595 -0.1376 0.7047
C63 C 0.3022(11) -0.1867(3) 0.7459(3)
H64 H 0.3131 -0.2123 0.7223
H65 H 0.1911 -0.1828 0.7597
H66 H 0.3729 -0.1996 0.7730
S10 S 0.8675(3) 0.87950(12) 0.72220(7)
C64 C 0.8935(10) 0.8550(3) 0.6660(3)
C65 C 0.9642(8) 0.8798(3) 0.6205(2)
S11 S 1.0457(2) 0.93892(9) 0.60705(7)
C66 C 1.0882(10) 0.9294(3) 0.5452(3)
H67 H 1.1374 0.9545 0.5208
C67 C 1.0465(9) 0.8849(3) 0.5357(3)
H68 H 1.0645 0.8745 0.5036
C68 C 0.9694(8) 0.8518(3) 0.5781(2)
C69 C 0.9102(8) 0.8039(3) 0.5824(2)
S12 S 0.9084(2) 0.76679(9) 0.53410(7)
C70 C 0.8111(8) 0.7195(3) 0.5744(2)
C71 C 0.7764(9) 0.7282(3) 0.6269(3)
H69 H 0.7269 0.7059 0.6537
C72 C 0.8366(9) 0.7795(4) 0.6275(3)
C73 C 0.8336(9) 0.8069(3) 0.6706(2)
C74 C 0.7646(9) 0.7877(3) 0.7194(3)
H70 H 0.7199 0.7548 0.7285
C75 C 0.7729(11) 0.8234(4) 0.7501(3)
H71 H 0.7313 0.8186 0.7838
C76 C 0.7716(8) 0.6729(3) 0.5537(2)
O4 O 0.8066(7) 0.6695(3) 0.50994(18)
C77 C 0.6901(9) 0.6304(3) 0.5880(2)
H72 H 0.5867 0.6464 0.6016
H73 H 0.7573 0.6170 0.6163
C78 C 0.6591(9) 0.5834(3) 0.5630(3)
H74 H 0.7615 0.5689 0.5475
H75 H 0.5862 0.5965 0.5361
C79 C 0.5855(10) 0.5386(3) 0.5988(3)
H76 H 0.6518 0.5283 0.6278
H77 H 0.4774 0.5520 0.6113
C80 C 0.5726(10) 0.4898(3) 0.5750(3)
H78 H 0.6809 0.4766 0.5625
H79 H 0.5066 0.5003 0.5460
C81 C 0.4997(10) 0.4446(3) 0.6099(3)
H80 H 0.3877 0.4570 0.6197
H81 H 0.5590 0.4369 0.6405
C82 C 0.5000(10) 0.3927(3) 0.5883(3)
H82 H 0.4380 0.4001 0.5583
H83 H 0.6116 0.3807 0.5777
C83 C 0.4315(10) 0.3485(3) 0.6238(3)
H84 H 0.3170 0.3589 0.6322
H85 H 0.4877 0.3426 0.6550
C84 C 0.4477(12) 0.2970(4) 0.6017(3)
H86 H 0.4019 0.2690 0.6258
H87 H 0.5611 0.2863 0.5939
H88 H 0.3905 0.3025 0.5712
S13 S 1.02474(19) 0.40222(7) 0.28178(6)
C85 C 0.9202(6) 0.3781(2) 0.3366(2)
C86 C 0.8862(7) 0.4006(2) 0.3799(2)
S14 S 0.93386(19) 0.46359(7) 0.38922(6)
C87 C 0.8503(9) 0.4534(3) 0.4495(3)
H89 H 0.8480 0.4787 0.4716
C88 C 0.7894(8) 0.4069(3) 0.4624(2)
H90 H 0.7392 0.3954 0.4943
C89 C 0.8087(7) 0.3766(2) 0.4225(2)
C90 C 0.7560(7) 0.3262(3) 0.4208(2)
S15 S 0.65114(19) 0.28802(7) 0.46847(6)
C91 C 0.6423(7) 0.2402(3) 0.4304(2)
C92 C 0.7157(7) 0.2504(3) 0.3819(3)
H91 H 0.7206 0.2284 0.3567
C93 C 0.7833(7) 0.3018(2) 0.3777(2)
C94 C 0.8695(7) 0.3285(2) 0.3349(2)
C95 C 0.9181(8) 0.3114(3) 0.2882(3)
H92 H 0.8941 0.2784 0.2802
C96 C 1.0006(8) 0.3458(3) 0.2566(3)
H93 H 1.0411 0.3400 0.2241
C97 C 0.5566(7) 0.1936(3) 0.4508(2)
O5 O 0.4950(5) 0.18871(19) 0.49357(16)
C98 C 0.5433(8) 0.1535(2) 0.4177(2)
H94 H 0.6519 0.1424 0.4038
H95 H 0.4799 0.1708 0.3895
C99 C 0.4672(8) 0.1045(3) 0.4425(2)
H96 H 0.3575 0.1151 0.4559
H97 H 0.5295 0.0871 0.4709
C100 C 0.4596(8) 0.0652(3) 0.4070(2)
H98 H 0.5694 0.0553 0.3933
H99 H 0.3965 0.0828 0.3788
C101 C 0.3851(8) 0.0143(3) 0.4308(2)
H100 H 0.4476 -0.0032 0.4591
H101 H 0.2749 0.0241 0.4442
C102 C 0.3788(8) -0.0251(2) 0.3951(2)
H102 H 0.4889 -0.0350 0.3816
H103 H 0.3159 -0.0078 0.3668
C103 C 0.3044(8) -0.0758(3) 0.4195(2)
H104 H 0.3601 -0.0909 0.4499
H105 H 0.1909 -0.0662 0.4298
C104 C 0.3126(8) -0.1184(3) 0.3857(2)
H106 H 0.4260 -0.1276 0.3749
H107 H 0.2556 -0.1034 0.3555
C105 C 0.2396(9) -0.1695(3) 0.4105(3)
H108 H 0.2500 -0.1952 0.3871
H109 H 0.1261 -0.1610 0.4201
H110 H 0.2962 -0.1850 0.4402
S16 S 0.8693(4) 0.86991(15) 1.05441(12)
C106 C 0.894(6) 0.8458(11) 0.9980(8)
C107 C 0.9606(14) 0.8663(5) 0.9517(5)
S17 S 1.0446(6) 0.92872(18) 0.93879(19)
C108 C 1.094(2) 0.9202(6) 0.8776(6)
C109 C 1.0484(17) 0.8734(6) 0.8670(5)
C110 C 0.979(2) 0.8426(6) 0.9086(5)
C111 C 0.908(2) 0.7906(7) 0.9169(6)
S18 S 0.9077(5) 0.7553(2) 0.86731(15)
C112 C 0.810(3) 0.7064(6) 0.9086(6)
C113 C 0.7721(15) 0.7176(4) 0.9590(5)
C114 C 0.8361(18) 0.7680(5) 0.9633(5)
C115 C 0.8276(15) 0.7924(5) 1.0039(5)
C116 C 0.7656(15) 0.7811(6) 1.0535(4)
C117 C 0.7793(16) 0.8149(6) 1.0844(5)
C118 C 0.768(2) 0.6596(7) 0.8894(6)
O6 O 0.8002(15) 0.6589(5) 0.8438(4)
C119 C 0.679(2) 0.6194(7) 0.9222(6)
C120 C 0.653(2) 0.5736(7) 0.8966(5)
C121 C 0.576(2) 0.5303(7) 0.9332(6)
C122 C 0.555(2) 0.4815(6) 0.9088(6)
C123 C 0.4812(19) 0.4379(6) 0.9443(6)
C124 C 0.480(2) 0.3886(6) 0.9208(6)
C125 C 0.4141(16) 0.3415(5) 0.9573(5)
C126 C 0.425(2) 0.2897(6) 0.9351(6)
H111? H 1.1467 0.9451 0.8538
H112? H 1.0625 0.8631 0.8348
H113? H 0.7157 0.6961 0.9849
H114? H 0.7146 0.7496 1.0646
H115? H 0.7441 0.8097 1.1187
H116? H 0.5745 0.6364 0.9337
H117? H 0.7401 0.6057 0.9520
H118? H 0.7566 0.5585 0.8823
H119? H 0.5827 0.5864 0.8689
H120? H 0.4698 0.5451 0.9461
H121? H 0.6433 0.5191 0.9618
H122? H 0.4868 0.4928 0.8805
H123? H 0.6611 0.4672 0.8955
H124? H 0.5424 0.4292 0.9745
H125? H 0.3701 0.4507 0.9546
H126? H 0.5905 0.3774 0.9084
H127? H 0.4135 0.3971 0.8917
H128? H 0.4746 0.3351 0.9877
H129? H 0.3007 0.3516 0.9674
H130? H 0.3784 0.2621 0.9594
H131? H 0.5380 0.2781 0.9270
H132? H 0.3671 0.2958 0.9048
S19? S 0.8517(4) 0.93251(15) 1.06155(12)
C127? C 0.9170(15) 0.9100(6) 1.0061(4)
C128? C 0.9936(16) 0.9354(5) 0.9640(5)
S20? S 1.0532(4) 1.00087(13) 0.95579(12)
C129? C 1.1285(16) 0.9958(6) 0.8957(4)
H133? H 1.1798 1.0233 0.8748
C130? C 1.107(2) 0.9486(5) 0.8808(5)
H134? H 1.1396 0.9399 0.8486
C131? C 1.033(2) 0.9149(7) 0.9190(5)
C132? C 0.984(2) 0.8605(6) 0.9212(5)
S21? S 1.0150(4) 0.82749(15) 0.87004(12)
C133? C 0.9239(19) 0.7738(6) 0.9038(5)
C134? C 0.873(2) 0.7814(6) 0.9539(6)
H135? H 0.8213 0.7562 0.9776
C135? C 0.9103(15) 0.8334(5) 0.9641(5)
C136? C 0.874(5) 0.8543(12) 1.0073(9)
C137? C 0.7940(17) 0.8392(5) 1.0543(5)
H136? H 0.7581 0.8048 1.0632
C138? C 0.7707(19) 0.8741(7) 1.0854(5)
H137? H 0.7156 0.8678 1.1173
C139? C 0.9063(18) 0.7252(6) 0.8828(5)
O7? O 0.9603(11) 0.7245(4) 0.8381(3)
C140? C 0.819(2) 0.6835(7) 0.9115(7)
H138? H 0.7091 0.6988 0.9204
H139? H 0.8715 0.6705 0.9429
C141? C 0.808(2) 0.6369(7) 0.8845(7)
H140? H 0.9171 0.6215 0.8745
H141? H 0.7497 0.6488 0.8540
C142? C 0.720(2) 0.5949(6) 0.9197(6)
H142? H 0.6110 0.6106 0.9290
H143? H 0.7772 0.5845 0.9506
C143? C 0.7065(19) 0.5446(6) 0.8961(5)
H144? H 0.6487 0.5549 0.8654
H145? H 0.8154 0.5290 0.8867
C144? C 0.6197(19) 0.5027(6) 0.9310(5)
H146? H 0.6817 0.4907 0.9608
H147? H 0.5139 0.5192 0.9424
C145? C 0.5956(18) 0.4550(6) 0.9076(6)
H148? H 0.7017 0.4387 0.8963
H149? H 0.5344 0.4672 0.8778
C146? C 0.506(2) 0.4112(6) 0.9422(6)
H150? H 0.5683 0.3989 0.9720
H151? H 0.4009 0.4276 0.9538
C147? C 0.480(3) 0.3624(7) 0.9190(7)
H152? H 0.4205 0.3380 0.9434
H153? H 0.5832 0.3443 0.9091
H154? H 0.4178 0.3738 0.8896
C148? C 0.161(7) 0.2593(13) 0.7526(11)
C149? C 0.851(5) 0.7480(11) 0.5717(10)
C150? C 0.195(5) 0.2479(12) 0.7019(9)
C151? C 0.802(9) 0.7491(17) 0.6255(12)
C152? C 0.134(7) 0.1982(14) 0.7009(10)
C153? C 0.842(11) 0.802(2) 0.6315(13)
C154? C 0.167(8) 0.1676(16) 0.6591(13)
C155? C 0.838(9) 0.8271(19) 0.6760(12)
C156? C 0.244(7) 0.1858(15) 0.6117(12)
C157? C 0.751(9) 0.810(2) 0.7227(15)
C158? C 0.245(9) 0.1492(17) 0.5810(14)
C159? C 0.770(11) 0.8425(19) 0.7556(14)
C160? C 0.175(6) 0.3070(13) 0.7747(12)
C161? C 0.822(7) 0.7018(15) 0.5482(13)
C162? C 0.264(7) 0.3507(15) 0.7434(15)
C163? C 0.734(8) 0.6582(17) 0.5784(18)
C164? C 0.281(8) 0.3969(15) 0.7697(17)
C165? C 0.724(9) 0.6084(16) 0.5551(19)
C166? C 0.357(7) 0.4424(14) 0.7351(18)
C167? C 0.645(9) 0.5648(17) 0.591(2)
C168? C 0.354(7) 0.4930(15) 0.7568(18)
C169? C 0.641(9) 0.5139(17) 0.570(2)
C170? C 0.444(5) 0.5357(13) 0.7240(14)
C171? C 0.562(8) 0.4704(17) 0.605(2)
C172? C 0.442(7) 0.5857(15) 0.7471(17)
C173? C 0.540(7) 0.4208(17) 0.5821(18)
C174? C 0.519(6) 0.6293(16) 0.7145(16)
C175? C 0.481(9) 0.3752(19) 0.618(2)
C176? C 0.511(7) 0.6795(17) 0.739(2)
C177? C 0.482(10) 0.326(2) 0.592(3)
C178? C 0.108(5) 0.1185(13) 0.6629(9)
C179? C 0.900(9) 0.8748(18) 0.6738(12)
C180? C 0.030(7) 0.0951(14) 0.7077(10)
C181? C 0.970(8) 0.9043(16) 0.6302(11)
C182? C -0.088(12) 0.040(2) 0.7821(12)
C183? C 1.075(10) 0.9599(19) 0.5547(11)
C184? C -0.044(7) 0.0838(16) 0.7918(10)
C185? C 1.061(11) 0.912(2) 0.5457(16)
C186? C 0.013(8) 0.1227(15) 0.7504(11)
C187? C 0.967(8) 0.8809(16) 0.5858(12)
C188? C 0.081(6) 0.1698(13) 0.7467(10)
C189? C 0.919(9) 0.8316(17) 0.5895(12)
H155? H 0.2466 0.2693 0.6749
H156? H 0.7560 0.7227 0.6494
H157? H 0.2881 0.2190 0.6030
H158? H 0.6885 0.7809 0.7292
H159? H 0.2933 0.1535 0.5480
H160? H 0.7459 0.8336 0.7904
H161? H 0.3719 0.3353 0.7328
H162? H 0.2062 0.3640 0.7130
H163? H 0.6237 0.6733 0.5866
H164? H 0.7862 0.6472 0.6101
H165? H 0.3488 0.3846 0.7982
H166? H 0.1746 0.4105 0.7832
H167? H 0.8334 0.5942 0.5443
H168? H 0.6621 0.6181 0.5251
H169? H 0.4695 0.4301 0.7260
H170? H 0.2998 0.4502 0.7040
H171? H 0.7036 0.5566 0.6219
H172? H 0.5338 0.5785 0.6006
H173? H 0.4008 0.4846 0.7895
H174? H 0.2408 0.5074 0.7626
H175? H 0.7524 0.5002 0.5604
H176? H 0.5831 0.5222 0.5388
H177? H 0.5560 0.5212 0.7176
H178? H 0.3948 0.5449 0.6916
H179? H 0.4557 0.4855 0.6176
H180? H 0.6275 0.4592 0.6342
H181? H 0.3296 0.5986 0.7558
H182? H 0.4975 0.5768 0.7784
H183? H 0.4634 0.4313 0.5557
H184? H 0.6438 0.4085 0.5658
H185? H 0.4654 0.6379 0.6828
H186? H 0.6325 0.6170 0.7065
H187? H 0.3710 0.3854 0.6310
H188? H 0.5505 0.3665 0.6461
H189? H 0.5648 0.7069 0.7159
H190? H 0.5651 0.6713 0.7698
H191? H 0.3992 0.6925 0.7455
H192? H 0.4387 0.2975 0.6154
H193? H 0.5918 0.3152 0.5804
H194? H 0.4156 0.3354 0.5633
H195? H -0.1373 0.0141 0.8059
H196? H 1.1043 0.9882 0.5297
H197? H -0.0481 0.0907 0.8252
H198? H 1.1070 0.8985 0.5166
O8? O 0.154(5) 0.3058(16) 0.8207(11)
O9? O 0.860(6) 0.7014(19) 0.5043(12)
S22? S 0.1513(18) 0.0943(6) 0.6075(5)
S23? S 0.8450(16) 0.9027(6) 0.7281(5)
S24? S -0.0465(18) 0.0347(7) 0.7202(6)
S25? S 1.033(2) 0.9668(8) 0.6173(7)
S26? S 0.069(2) 0.2101(7) 0.7936(6)
S27? S 0.941(2) 0.8010(8) 0.5373(6)
loop_
_geom_bond_atom_site_label_1
_geom_bond_atom_site_label_2
_geom_bond_site_symmetry_1
_geom_bond_site_symmetry_2
S1 C1 1_555 1_555
C1 C2 1_555 1_555
C2 S2 1_555 1_555
S2 C3 1_555 1_555
C3 H1 1_555 1_555
C4 C3 1_555 1_555
H2 C4 1_555 1_555
C5 C2 1_555 1_555
C6 C5 1_555 1_555
S3 C6 1_555 1_555
C7 S3 1_555 1_555
C8 C7 1_555 1_555
H3 C8 1_555 1_555
C9 C6 1_555 1_555
C10 C1 1_555 1_555
C11 C10 1_555 1_555
H4 C11 1_555 1_555
C12 S1 1_555 1_555
H5 C12 1_555 1_555
C13 C7 1_555 1_555
O1 C13 1_555 1_555
C14 C13 1_555 1_555
H6 C14 1_555 1_555
H7 C14 1_555 1_555
C15 C14 1_555 1_555
H8 C15 1_555 1_555
H9 C15 1_555 1_555
C16 C15 1_555 1_555
H10 C16 1_555 1_555
H11 C16 1_555 1_555
C17 C16 1_555 1_555
H12 C17 1_555 1_555
H13 C17 1_555 1_555
C18 C17 1_555 1_555
H14 C18 1_555 1_555
H15 C18 1_555 1_555
C19 C18 1_555 1_555
H16 C19 1_555 1_555
H17 C19 1_555 1_555
C20 C19 1_555 1_555
H18 C20 1_555 1_555
H19 C20 1_555 1_555
C21 C20 1_555 1_555
H20 C21 1_555 1_555
H21 C21 1_555 1_555
H22 C21 1_555 1_555
S4 C22 1_555 1_555
C22 C23 1_555 1_555
C23 S5 1_555 1_555
S5 C24 1_555 1_555
C24 H23 1_555 1_555
C25 C24 1_555 1_555
H24 C25 1_555 1_555
C26 C23 1_555 1_555
C27 C26 1_555 1_555
S6 C27 1_555 1_555
C28 S6 1_555 1_555
C29 C28 1_555 1_555
H25 C29 1_555 1_555
C30 C27 1_555 1_555
C31 C22 1_555 1_555
C32 C31 1_555 1_555
H26 C32 1_555 1_555
C33 S4 1_555 1_555
H27 C33 1_555 1_555
C34 C28 1_555 1_555
O2 C34 1_555 1_555
C35 C34 1_555 1_555
H28 C35 1_555 1_555
H29 C35 1_555 1_555
C36 C35 1_555 1_555
H30 C36 1_555 1_555
H31 C36 1_555 1_555
C37 C36 1_555 1_555
H32 C37 1_555 1_555
H33 C37 1_555 1_555
C38 C37 1_555 1_555
H34 C38 1_555 1_555
H35 C38 1_555 1_555
C39 C38 1_555 1_555
H36 C39 1_555 1_555
H37 C39 1_555 1_555
C40 C39 1_555 1_555
H38 C40 1_555 1_555
H39 C40 1_555 1_555
C41 C40 1_555 1_555
H40 C41 1_555 1_555
H41 C41 1_555 1_555
C42 C41 1_555 1_555
H42 C42 1_555 1_555
H43 C42 1_555 1_555
H44 C42 1_555 1_555
S7 C43 1_555 1_555
C43 C44 1_555 1_555
C44 S8 1_555 1_555
S8 C45 1_555 1_555
C45 H45 1_555 1_555
C46 C45 1_555 1_555
H46 C46 1_555 1_555
C47 C44 1_555 1_555
C48 C47 1_555 1_555
S9 C48 1_555 1_555
C49 S9 1_555 1_555
C50 C49 1_555 1_555
H47 C50 1_555 1_555
C51 C48 1_555 1_555
C52 C43 1_555 1_555
C53 C52 1_555 1_555
H48 C53 1_555 1_555
C54 S7 1_555 1_555
H49 C54 1_555 1_555
C55 C49 1_555 1_555
O3 C55 1_555 1_555
C56 C55 1_555 1_555
H50 C56 1_555 1_555
H51 C56 1_555 1_555
C57 C56 1_555 1_555
H52 C57 1_555 1_555
H53 C57 1_555 1_555
C58 C57 1_555 1_555
H54 C58 1_555 1_555
H55 C58 1_555 1_555
C59 C58 1_555 1_555
H56 C59 1_555 1_555
H57 C59 1_555 1_555
C60 C59 1_555 1_555
H58 C60 1_555 1_555
H59 C60 1_555 1_555
C61 C60 1_555 1_555
H60 C61 1_555 1_555
H61 C61 1_555 1_555
C62 C61 1_555 1_555
H62 C62 1_555 1_555
H63 C62 1_555 1_555
C63 C62 1_555 1_555
H64 C63 1_555 1_555
H65 C63 1_555 1_555
H66 C63 1_555 1_555
S10 C64 1_555 1_555
C64 C65 1_555 1_555
C65 S11 1_555 1_555
S11 C66 1_555 1_555
C66 H67 1_555 1_555
C67 C66 1_555 1_555
H68 C67 1_555 1_555
C68 C65 1_555 1_555
C69 C68 1_555 1_555
S12 C69 1_555 1_555
C70 S12 1_555 1_555
C71 C70 1_555 1_555
H69 C71 1_555 1_555
C72 C69 1_555 1_555
C73 C64 1_555 1_555
C74 C73 1_555 1_555
H70 C74 1_555 1_555
C75 S10 1_555 1_555
H71 C75 1_555 1_555
C76 C70 1_555 1_555
O4 C76 1_555 1_555
C77 C76 1_555 1_555
H72 C77 1_555 1_555
H73 C77 1_555 1_555
C78 C77 1_555 1_555
H74 C78 1_555 1_555
H75 C78 1_555 1_555
C79 C78 1_555 1_555
H76 C79 1_555 1_555
H77 C79 1_555 1_555
C80 C79 1_555 1_555
H78 C80 1_555 1_555
H79 C80 1_555 1_555
C81 C80 1_555 1_555
H80 C81 1_555 1_555
H81 C81 1_555 1_555
C82 C81 1_555 1_555
H82 C82 1_555 1_555
H83 C82 1_555 1_555
C83 C82 1_555 1_555
H84 C83 1_555 1_555
H85 C83 1_555 1_555
C84 C83 1_555 1_555
H86 C84 1_555 1_555
H87 C84 1_555 1_555
H88 C84 1_555 1_555
S13 C85 1_555 1_555
C85 C86 1_555 1_555
C86 S14 1_555 1_555
S14 C87 1_555 1_555
C87 H89 1_555 1_555
C88 C87 1_555 1_555
H90 C88 1_555 1_555
C89 C86 1_555 1_555
C90 C89 1_555 1_555
S15 C90 1_555 1_555
C91 S15 1_555 1_555
C92 C91 1_555 1_555
H91 C92 1_555 1_555
C93 C90 1_555 1_555
C94 C85 1_555 1_555
C95 C94 1_555 1_555
H92 C95 1_555 1_555
C96 S13 1_555 1_555
H93 C96 1_555 1_555
C97 C91 1_555 1_555
O5 C97 1_555 1_555
C98 C97 1_555 1_555
H94 C98 1_555 1_555
H95 C98 1_555 1_555
C99 C98 1_555 1_555
H96 C99 1_555 1_555
H97 C99 1_555 1_555
C100 C99 1_555 1_555
H98 C100 1_555 1_555
H99 C100 1_555 1_555
C101 C100 1_555 1_555
H100 C101 1_555 1_555
H101 C101 1_555 1_555
C102 C101 1_555 1_555
H102 C102 1_555 1_555
H103 C102 1_555 1_555
C103 C102 1_555 1_555
H104 C103 1_555 1_555
H105 C103 1_555 1_555
C104 C103 1_555 1_555
H106 C104 1_555 1_555
H107 C104 1_555 1_555
C105 C104 1_555 1_555
H108 C105 1_555 1_555
H109 C105 1_555 1_555
H110 C105 1_555 1_555
S16 C106 1_555 1_555
C106 C107 1_555 1_555
C107 S17 1_555 1_555
S17 C108 1_555 1_555
C108 C109 1_555 1_555
C109 C110 1_555 1_555
C110 C107 1_555 1_555
C111 C110 1_555 1_555
S18 C111 1_555 1_555
C112 S18 1_555 1_555
C113 C112 1_555 1_555
C114 C111 1_555 1_555
C115 C106 1_555 1_555
C116 C115 1_555 1_555
C117 S16 1_555 1_555
C118 C112 1_555 1_555
O6 C118 1_555 1_555
C119 C118 1_555 1_555
C120 C119 1_555 1_555
C121 C120 1_555 1_555
C122 C121 1_555 1_555
C123 C122 1_555 1_555
C124 C123 1_555 1_555
C125 C124 1_555 1_555
C126 C125 1_555 1_555
C4 C5 1_555 1_555
C8 C9 1_555 1_555
C9 C10 1_555 1_555
C11 C12 1_555 1_555
C25 C26 1_555 1_555
C29 C30 1_555 1_555
C30 C31 1_555 1_555
C32 C33 1_555 1_555
C46 C47 1_555 1_555
C50 C51 1_555 1_555
C51 C52 1_555 1_555
C53 C54 1_555 1_555
C67 C68 1_555 1_555
C71 C72 1_555 1_555
C72 C73 1_555 1_555
C74 C75 1_555 1_555
C88 C89 1_555 1_555
C92 C93 1_555 1_555
C93 C94 1_555 1_555
C95 C96 1_555 1_555
C113 C114 1_555 1_555
C114 C115 1_555 1_555
C116 C117 1_555 1_555

#END
