
#######################################################################
#
#                 Cambridge Crystallographic Data Centre
#                                CCDC 
#
#######################################################################
#
# If this CIF has been generated from an entry in the Cambridge 
# Structural Database, then it will include bibliographic, chemical, 
# crystal, experimental, refinement or atomic coordinate data resulting 
# from the CCDC's data processing and validation procedures.
#
#######################################################################

data_IVIMIK
_chemical_formula_moiety         'C18 H15 N1 O1'
_chemical_name_systematic        8-Methoxy-2-(2-phenylvinyl)quinoline
_symmetry_cell_setting           monoclinic
_symmetry_space_group_name_H-M   'P 21/c'
_symmetry_Int_Tables_number      14
_space_group_name_Hall           '-P 2ybc'
loop_
_symmetry_equiv_pos_site_id
_symmetry_equiv_pos_as_xyz
1 x,y,z
2 -x,1/2+y,1/2-z
3 -x,-y,-z
4 x,1/2-y,1/2+z
_cell_length_a                   10.424(19)
_cell_length_b                   16.830(3)
_cell_length_c                   7.934(15)
_cell_angle_alpha                90
_cell_angle_beta                 94.025(19)
_cell_angle_gamma                90
_cell_volume                     1388.48
_exptl_crystal_colour            yellow
_exptl_crystal_description       block
_cell_formula_units_Z            4
loop_
_atom_site_label
_atom_site_type_symbol
_atom_site_fract_x
_atom_site_fract_y
_atom_site_fract_z
C1 C 0.60530(17) 0.91114(11) 0.3903(2)
C2 C 0.5745(2) 0.98399(12) 0.3043(2)
C3 C 0.6674(2) 1.03987(13) 0.2867(3)
H1 H 0.6467 1.0876 0.2323
C4 C 0.7935(3) 1.02560(17) 0.3503(3)
H2 H 0.8558 1.0643 0.3375
C5 C 0.8274(2) 0.95711(17) 0.4298(3)
H3 H 0.9123 0.9488 0.4699
C6 C 0.73386(18) 0.89802(13) 0.4520(3)
C7 C 0.7596(2) 0.82512(15) 0.5342(3)
H4 H 0.8432 0.8130 0.5743
C8 C 0.66393(19) 0.77246(13) 0.5557(3)
H5 H 0.6815 0.7244 0.6105
C9 C 0.53730(17) 0.79121(11) 0.4941(2)
C10 C 0.43227(19) 0.73678(11) 0.5248(2)
H6 H 0.4524 0.6909 0.5864
C11 C 0.31085(18) 0.74798(11) 0.4713(2)
H7 H 0.2930 0.7937 0.4079
C12 C 0.20113(18) 0.69677(11) 0.5004(2)
C13 C 0.21003(19) 0.63090(11) 0.6056(2)
H8 H 0.2893 0.6169 0.6585
C14 C 0.1031(2) 0.58601(12) 0.6328(3)
H9 H 0.1106 0.5427 0.7056
C15 C -0.0144(2) 0.60430(14) 0.5539(3)
H10 H -0.0861 0.5733 0.5719
C16 C -0.0252(2) 0.66871(14) 0.4483(3)
H11 H -0.1045 0.6816 0.3943
C17 C 0.08107(19) 0.71444(12) 0.4217(3)
H12 H 0.0724 0.7580 0.3498
C18 C 0.4133(2) 1.06118(11) 0.1534(3)
H13 H 0.4280 1.1067 0.2251
H14 H 0.3237 1.0582 0.1167
H15 H 0.4632 1.0660 0.0568
N1 N 0.50960(13) 0.85814(9) 0.41118(19)
O1 O 0.45013(13) 0.99116(7) 0.24453(17)
loop_
_geom_bond_atom_site_label_1
_geom_bond_atom_site_label_2
_geom_bond_site_symmetry_1
_geom_bond_site_symmetry_2
C1 C2 1_555 1_555
C2 C3 1_555 1_555
C3 H1 1_555 1_555
C4 C3 1_555 1_555
H2 C4 1_555 1_555
C5 C4 1_555 1_555
H3 C5 1_555 1_555
C6 C1 1_555 1_555
C7 C6 1_555 1_555
H4 C7 1_555 1_555
C8 C7 1_555 1_555
H5 C8 1_555 1_555
C9 C8 1_555 1_555
C10 C9 1_555 1_555
H6 C10 1_555 1_555
C11 C10 1_555 1_555
H7 C11 1_555 1_555
C12 C11 1_555 1_555
C13 C12 1_555 1_555
H8 C13 1_555 1_555
C14 C13 1_555 1_555
H9 C14 1_555 1_555
C15 C14 1_555 1_555
H10 C15 1_555 1_555
C16 C15 1_555 1_555
H11 C16 1_555 1_555
C17 C12 1_555 1_555
H12 C17 1_555 1_555
C18 H13 1_555 1_555
H14 C18 1_555 1_555
H15 C18 1_555 1_555
N1 C1 1_555 1_555
O1 C2 1_555 1_555
C5 C6 1_555 1_555
C9 N1 1_555 1_555
C16 C17 1_555 1_555
C18 O1 1_555 1_555

#END
