
#######################################################################
#
#                 Cambridge Crystallographic Data Centre
#                                CCDC 
#
#######################################################################
#
# If this CIF has been generated from an entry in the Cambridge 
# Structural Database, then it will include bibliographic, chemical, 
# crystal, experimental, refinement or atomic coordinate data resulting 
# from the CCDC's data processing and validation procedures.
#
#######################################################################

data_IVOTUK
_chemical_formula_moiety         'C22 H24 N3 1+,Cl1 1-'
_chemical_name_systematic        
'N-t-butyl(1-(1H-indol-3-yl)isoquinolin-2(1H)-yl)methaniminium chloride'
_symmetry_cell_setting           monoclinic
_symmetry_space_group_name_H-M   'P 21'
_symmetry_Int_Tables_number      4
_space_group_name_Hall           'P 2yb'
loop_
_symmetry_equiv_pos_site_id
_symmetry_equiv_pos_as_xyz
1 x,y,z
2 -x,1/2+y,-z
_cell_length_a                   9.5927(5)
_cell_length_b                   12.6326(6)
_cell_length_c                   16.4653(7)
_cell_angle_alpha                90
_cell_angle_beta                 106.027(2)
_cell_angle_gamma                90
_cell_volume                     1917.72
_exptl_crystal_colour            colorless
_exptl_crystal_description       plate
_cell_formula_units_Z            4
loop_
_atom_site_label
_atom_site_type_symbol
_atom_site_fract_x
_atom_site_fract_y
_atom_site_fract_z
Cl1 Cl 1.28218(12) 0.38189(10) 0.40382(6)
N1 N 0.5886(4) 0.1582(3) 0.4409(2)
C1 C 0.5930(5) 0.2453(4) 0.3787(2)
H1 H 0.5105 0.2946 0.3766
C2 C 0.5716(5) 0.1997(4) 0.2908(2)
C3 C 0.5265(5) 0.2647(4) 0.2211(3)
H2 H 0.5029 0.3365 0.2282
C4 C 0.5155(5) 0.2257(4) 0.1410(3)
H3 H 0.4853 0.2712 0.0934
C5 C 0.5483(5) 0.1204(4) 0.1297(3)
H4 H 0.5401 0.0935 0.0747
C6 C 0.5929(5) 0.0556(4) 0.1995(3)
H5 H 0.6151 -0.0165 0.1921
C7 C 0.6057(5) 0.0938(4) 0.2801(3)
C8 C 0.6530(5) 0.0267(4) 0.3544(3)
H6 H 0.691 -0.0414 0.3486
C9 C 0.6448(5) 0.0576(4) 0.4302(3)
H7 H 0.6771 0.0116 0.4773
C10 C 0.5468(5) 0.1834(4) 0.5090(3)
H8 H 0.5038 0.2511 0.5093
N2 N 0.5592(4) 0.1242(3) 0.5752(2)
H9 H 0.602(5) 0.068(3) 0.580(3)
C11 C 0.5075(5) 0.1577(4) 0.6491(3)
C12 C 0.5115(6) 0.0604(4) 0.7028(3)
H10 H 0.4454 0.0069 0.6701
H11 H 0.4814 0.0791 0.7532
H12 H 0.6104 0.032 0.7199
C13 C 0.3516(5) 0.1987(5) 0.6182(3)
H13 H 0.3493 0.2624 0.5839
H14 H 0.3159 0.216 0.667
H15 H 0.2897 0.1441 0.5841
C14 C 0.6091(6) 0.2430(4) 0.6979(3)
H16 H 0.7092 0.217 0.7126
H17 H 0.5824 0.2603 0.7497
H18 H 0.6009 0.3066 0.6627
N3 N 0.9565(4) 0.3672(4) 0.4217(2)
H19 H 1.053(4) 0.365(4) 0.414(2)
C15 C 0.8526(5) 0.2956(4) 0.3814(3)
H20 H 0.8641 0.2453 0.3408
C16 C 0.7302(5) 0.3068(4) 0.4078(3)
C17 C 0.7604(5) 0.3919(4) 0.4694(2)
C18 C 0.6817(5) 0.4403(4) 0.5193(2)
H21 H 0.5863 0.4172 0.5167
C19 C 0.7447(5) 0.5217(4) 0.5720(3)
H22 H 0.6924 0.5541 0.6066
C20 C 0.8839(5) 0.5579(4) 0.5758(3)
H23 H 0.9236 0.6155 0.6119
C21 C 0.9648(5) 0.5113(4) 0.5279(3)
H24 H 1.0595 0.5357 0.5303
C22 C 0.9024(5) 0.4272(4) 0.4761(3)
Cl2 Cl 0.17391(12) 0.36930(10) 0.01839(7)
N4 N 0.8808(4) 0.5767(4) 0.0695(2)
C23 C 0.8013(5) 0.6547(4) 0.1060(3)
H25 H 0.7966 0.722 0.0733
C24 C 0.8867(5) 0.6776(4) 0.1967(3)
C25 C 0.8815(5) 0.7774(4) 0.2314(3)
H26 H 0.8299 0.8332 0.1974
C26 C 0.9524(5) 0.7950(4) 0.3162(3)
H27 H 0.9493 0.8632 0.34
C27 C 1.0272(5) 0.7142(4) 0.3660(3)
H28 H 1.0725 0.726 0.4243
C28 C 1.0357(5) 0.6162(4) 0.3307(3)
H29 H 1.0902 0.5613 0.3646
C29 C 0.9657(5) 0.5970(4) 0.2464(3)
C30 C 0.9838(6) 0.4987(4) 0.2043(3)
H30 H 1.0227 0.4385 0.2373
C31 C 0.9470(6) 0.4915(5) 0.1201(3)
H31 H 0.9658 0.4278 0.0942
C32 C 0.8679(10) 0.6016(8) -0.0135(6)
H32 H 0.8114 0.6608 -0.0389
N5 N 0.9340(7) 0.5434(5) -0.0578(4)
H33 H 1.005(7) 0.485(5) -0.030(4)
C33 C 0.9260(13) 0.5623(8) -0.1489(5)
C34 C 0.8319(13) 0.6577(9) -0.1854(6)
H34 H 0.7332 0.6464 -0.1809
H35 H 0.8292 0.6666 -0.245
H36 H 0.8728 0.7215 -0.1538
C35 C 0.8636(15) 0.4603(9) -0.1952(7)
H37 H 0.9282 0.4009 -0.1723
H38 H 0.8552 0.468 -0.2556
H39 H 0.7675 0.4468 -0.1874
C36 C 1.0803(13) 0.5752(10) -0.1514(10)
H40 H 1.1245 0.6351 -0.1157
H41 H 1.0824 0.5886 -0.2097
H42 H 1.1347 0.5105 -0.1306
N6 N 0.4500(4) 0.5197(3) 0.0851(2)
H43 H 0.386(5) 0.470(4) 0.071(3)
C37 C 0.5954(5) 0.5173(4) 0.0952(3)
H44 H 0.6521 0.4547 0.1002
C38 C 0.6487(5) 0.6198(4) 0.0970(3)
C39 C 0.5268(5) 0.6880(4) 0.0871(3)
C40 C 0.5060(6) 0.7987(4) 0.0804(3)
H45 H 0.5857 0.8449 0.0843
C41 C 0.3680(6) 0.8384(4) 0.0680(3)
H46 H 0.3533 0.9127 0.0629
C42 C 0.2483(6) 0.7719(4) 0.0627(3)
H47 H 0.1546 0.8018 0.0546
C43 C 0.2662(6) 0.6643(4) 0.0691(3)
H48 H 0.1859 0.619 0.0661
C44 C 0.4039(5) 0.6231(4) 0.0801(3)
C45? C 0.9097(19) 0.5514(16) -0.0035(10)
H49? H 0.9536 0.4861 -0.0109
N7? N 0.8734(14) 0.6227(11) -0.0643(7)
H50? H 0.857(15) 0.692(6) -0.050(8)
C46? C 0.906(3) 0.6071(18) -0.1474(11)
C47? C 1.069(2) 0.618(2) -0.1383(19)
H51? H 1.0888 0.5974 -0.1915
H52? H 1.1231 0.5709 -0.0929
H53? H 1.0993 0.691 -0.1246
C48? C 0.827(3) 0.697(2) -0.2053(15)
H54? H 0.722 0.6893 -0.2148
H55? H 0.8504 0.6938 -0.2595
H56? H 0.8581 0.7655 -0.1782
C49? C 0.847(4) 0.5020(18) -0.1832(16)
H57? H 0.7423 0.4998 -0.19
H58? H 0.8946 0.4454 -0.1448
H59? H 0.8656 0.4919 -0.2384
loop_
_geom_bond_atom_site_label_1
_geom_bond_atom_site_label_2
_geom_bond_site_symmetry_1
_geom_bond_site_symmetry_2
N1 C1 1_555 1_555
C1 H1 1_555 1_555
C2 C1 1_555 1_555
C3 C2 1_555 1_555
H2 C3 1_555 1_555
C4 C3 1_555 1_555
H3 C4 1_555 1_555
C5 C4 1_555 1_555
H4 C5 1_555 1_555
C6 C5 1_555 1_555
H5 C6 1_555 1_555
C7 C2 1_555 1_555
C8 C7 1_555 1_555
H6 C8 1_555 1_555
C9 N1 1_555 1_555
H7 C9 1_555 1_555
C10 N1 1_555 1_555
H8 C10 1_555 1_555
N2 C10 1_555 1_555
H9 N2 1_555 1_555
C11 N2 1_555 1_555
C12 C11 1_555 1_555
H10 C12 1_555 1_555
H11 C12 1_555 1_555
H12 C12 1_555 1_555
C13 C11 1_555 1_555
H13 C13 1_555 1_555
H14 C13 1_555 1_555
H15 C13 1_555 1_555
C14 C11 1_555 1_555
H16 C14 1_555 1_555
H17 C14 1_555 1_555
H18 C14 1_555 1_555
N3 H19 1_555 1_555
C15 N3 1_555 1_555
H20 C15 1_555 1_555
C16 C1 1_555 1_555
C17 C16 1_555 1_555
C18 C17 1_555 1_555
H21 C18 1_555 1_555
C19 C18 1_555 1_555
H22 C19 1_555 1_555
C20 C19 1_555 1_555
H23 C20 1_555 1_555
C21 C20 1_555 1_555
H24 C21 1_555 1_555
C22 N3 1_555 1_555
N4 C23 1_555 1_555
C23 H25 1_555 1_555
C24 C23 1_555 1_555
C25 C24 1_555 1_555
H26 C25 1_555 1_555
C26 C25 1_555 1_555
H27 C26 1_555 1_555
C27 C26 1_555 1_555
H28 C27 1_555 1_555
C28 C27 1_555 1_555
H29 C28 1_555 1_555
C29 C24 1_555 1_555
C30 C29 1_555 1_555
H30 C30 1_555 1_555
C31 N4 1_555 1_555
H31 C31 1_555 1_555
C32 N4 1_555 1_555
H32 C32 1_555 1_555
N5 C32 1_555 1_555
H33 N5 1_555 1_555
C33 N5 1_555 1_555
C34 C33 1_555 1_555
H34 C34 1_555 1_555
H35 C34 1_555 1_555
H36 C34 1_555 1_555
C35 C33 1_555 1_555
H37 C35 1_555 1_555
H38 C35 1_555 1_555
H39 C35 1_555 1_555
C36 C33 1_555 1_555
H40 C36 1_555 1_555
H41 C36 1_555 1_555
H42 C36 1_555 1_555
N6 H43 1_555 1_555
C37 N6 1_555 1_555
H44 C37 1_555 1_555
C38 C23 1_555 1_555
C39 C38 1_555 1_555
C40 C39 1_555 1_555
H45 C40 1_555 1_555
C41 C40 1_555 1_555
H46 C41 1_555 1_555
C42 C41 1_555 1_555
H47 C42 1_555 1_555
C43 C42 1_555 1_555
H48 C43 1_555 1_555
C44 N6 1_555 1_555
C6 C7 1_555 1_555
C8 C9 1_555 1_555
C15 C16 1_555 1_555
C17 C22 1_555 1_555
C21 C22 1_555 1_555
C28 C29 1_555 1_555
C30 C31 1_555 1_555
C37 C38 1_555 1_555
C39 C44 1_555 1_555
C43 C44 1_555 1_555

#END
