
#######################################################################
#
#                 Cambridge Crystallographic Data Centre
#                                CCDC 
#
#######################################################################
#
# If this CIF has been generated from an entry in the Cambridge 
# Structural Database, then it will include bibliographic, chemical, 
# crystal, experimental, refinement or atomic coordinate data resulting 
# from the CCDC's data processing and validation procedures.
#
#######################################################################

data_IVOVEW
_chemical_formula_moiety         'C54 H50 N6 2+,C1 H4 O1,2(Cl1 1-)'
_chemical_name_systematic        
"2,2'-bis(2,6-dimethylphenyl)-1,1'-bis((2,6-dimethylphenyl)amino)-6,6'-biimidazo[5,1-a]isoquinolin-2-ium dichloride methanol solvate"
_symmetry_cell_setting           triclinic
_symmetry_space_group_name_H-M   'P -1'
_symmetry_Int_Tables_number      2
_space_group_name_Hall           '-P 1'
loop_
_symmetry_equiv_pos_site_id
_symmetry_equiv_pos_as_xyz
1 x,y,z
2 -x,-y,-z
_cell_length_a                   14.6747(7)
_cell_length_b                   20.5053(9)
_cell_length_c                   20.8439(10)
_cell_angle_alpha                111.414(3)
_cell_angle_beta                 102.936(3)
_cell_angle_gamma                97.467(3)
_cell_volume                     5533.89
_exptl_crystal_colour            colorless
_exptl_crystal_description       prism
_cell_formula_units_Z            4
loop_
_atom_site_label
_atom_site_type_symbol
_atom_site_fract_x
_atom_site_fract_y
_atom_site_fract_z
Cl1 Cl 0.49293(5) 0.10596(3) 0.37717(3)
Cl2 Cl 0.71630(7) 0.55873(6) 0.42479(6)
Cl3 Cl 0.49564(5) 0.69814(4) 0.90120(5)
Cl4 Cl 0.73442(6) 1.15360(4) 0.94474(4)
C1 C 0.76227(17) 0.30412(13) 0.31025(13)
C2 C 0.76056(17) 0.24195(13) 0.25689(13)
H1 H 0.7722 0.2417 0.2138
N1 N 0.74145(15) 0.17770(11) 0.26578(11)
C3 C 0.72743(17) 0.17517(13) 0.32893(12)
C4 C 0.72774(17) 0.24131(12) 0.38694(12)
C5 C 0.70822(17) 0.24222(13) 0.45003(13)
H2 H 0.7002 0.1994 0.458
C6 C 0.70078(18) 0.30597(14) 0.50065(13)
H3 H 0.6886 0.3067 0.5438
C7 C 0.71095(18) 0.36904(14) 0.48924(14)
H4 H 0.7033 0.412 0.5236
C8 C 0.73217(17) 0.36900(13) 0.42796(13)
H5 H 0.74 0.4123 0.4207
C9 C 0.74225(17) 0.30550(13) 0.37618(13)
C10 C 0.73452(19) 0.11123(13) 0.21788(13)
H6 H 0.7419 0.0988 0.1711
N2 N 0.71540(15) 0.06559(11) 0.24761(11)
C11 C 0.71210(17) 0.10400(12) 0.31799(12)
C12 C 0.6813(2) -0.01220(13) 0.20847(14)
C13 C 0.7450(3) -0.05671(17) 0.20512(16)
C14 C 0.7023(4) -0.13216(19) 0.16875(18)
H7 H 0.7421 -0.1655 0.1659
C15 C 0.6040(4) -0.15764(19) 0.13760(19)
H8 H 0.5775 -0.2081 0.114
C16 C 0.5444(3) -0.11177(17) 0.14017(17)
H9 H 0.4774 -0.1305 0.117
C17 C 0.5810(2) -0.03752(15) 0.17654(15)
C18 C 0.8507(3) -0.0278(2) 0.23585(19)
H10 H 0.8664 0.0231 0.2443
H11 H 0.8828 -0.0549 0.202
H12 H 0.8725 -0.0326 0.2816
C19 C 0.5140(2) 0.0119(2) 0.18049(18)
H13 H 0.5353 0.0478 0.163
H14 H 0.5139 0.0363 0.2306
H15 H 0.4489 -0.016 0.1505
N3 N 0.69202(15) 0.07104(11) 0.36178(11)
H16 H 0.6419 0.0778 0.3778
C20 C 0.74826(18) 0.02658(13) 0.38234(13)
C21 C 0.84850(19) 0.05008(14) 0.40973(14)
C22 C 0.9004(2) 0.00452(16) 0.42958(16)
H17 H 0.9686 0.0191 0.4471
C23 C 0.8546(2) -0.06127(17) 0.4242(2)
H18 H 0.8911 -0.0914 0.4381
C24 C 0.7556(2) -0.08327(16) 0.39858(18)
H19 H 0.7245 -0.1285 0.3953
C25 C 0.7006(2) -0.03980(14) 0.37730(15)
C26 C 0.90100(18) 0.12320(14) 0.42076(14)
H20 H 0.9017 0.1235 0.374
H21 H 0.9672 0.1341 0.4512
H22 H 0.8683 0.1597 0.4443
C27 C 0.5929(2) -0.06461(15) 0.34969(16)
H23 H 0.5703 -0.0627 0.3026
H24 H 0.5645 -0.0331 0.3837
H25 H 0.5736 -0.1142 0.3447
C28 C 0.78004(17) 0.37230(12) 0.30023(12)
C29 C 0.71038(18) 0.38263(12) 0.25411(13)
H26 H 0.6524 0.3466 0.2279
N4 N 0.72349(14) 0.44673(10) 0.24473(11)
C30 C 0.80760(17) 0.50086(12) 0.28039(12)
C31 C 0.88394(17) 0.49089(12) 0.32974(13)
C32 C 0.97082(19) 0.54307(14) 0.36773(14)
H27 H 0.9798 0.587 0.3618
C33 C 1.04322(19) 0.53056(16) 0.41361(15)
H28 H 1.1018 0.5661 0.4392
C34 C 1.03128(19) 0.46629(15) 0.42282(15)
H29 H 1.0818 0.458 0.4542
C35 C 0.94615(19) 0.41476(14) 0.38632(14)
H30 H 0.9383 0.3711 0.3929
C36 C 0.87113(18) 0.42594(13) 0.33965(13)
C37 C 0.66268(18) 0.46422(13) 0.19926(13)
H31 H 0.6011 0.4357 0.1682
N5 N 0.70377(15) 0.52898(11) 0.20517(11)
C38 C 0.79545(17) 0.55350(12) 0.25526(13)
C39 C 0.65566(18) 0.56750(13) 0.16782(14)
C40 C 0.6432(2) 0.54457(14) 0.09390(14)
C41 C 0.5942(2) 0.58300(16) 0.05968(16)
H32 H 0.5832 0.5687 0.0093
C42 C 0.5619(2) 0.64118(15) 0.09799(17)
H33 H 0.5303 0.6672 0.0741
C43 C 0.5752(2) 0.66163(15) 0.17111(16)
H34 H 0.5526 0.7017 0.1969
C44 C 0.62136(18) 0.62442(14) 0.20767(15)
C45 C 0.6784(2) 0.48133(16) 0.05106(16)
H35 H 0.6348 0.4364 0.042
H36 H 0.7432 0.4833 0.0784
H37 H 0.6799 0.4832 0.005
C46 C 0.6277(2) 0.64293(16) 0.28559(16)
H38 H 0.578 0.6084 0.2888
H39 H 0.6181 0.6917 0.3076
H40 H 0.6913 0.6408 0.3111
N6 N 0.85578(15) 0.61899(10) 0.27305(11)
H41 H 0.8833 0.6477 0.3188
C47 C 0.87428(17) 0.64082(13) 0.21935(13)
C48 C 0.90713(18) 0.59493(14) 0.16530(14)
C49 C 0.9191(2) 0.61502(16) 0.11024(15)
H42 H 0.9375 0.5831 0.0718
C50 C 0.9049(2) 0.68031(17) 0.11026(16)
H43 H 0.9121 0.6928 0.0717
C51 C 0.8800(2) 0.72739(16) 0.16719(16)
H44 H 0.8743 0.7736 0.1689
C52 C 0.86316(18) 0.70845(14) 0.22178(15)
C53 C 0.9340(2) 0.52772(15) 0.16838(17)
H45 H 0.8755 0.4897 0.1521
H46 H 0.9692 0.5376 0.2181
H47 H 0.9747 0.5119 0.137
C54 C 0.8350(2) 0.76031(14) 0.28226(16)
H48 H 0.8364 0.806 0.277
H49 H 0.8802 0.7688 0.3285
H50 H 0.7699 0.7399 0.2807
C55 C 0.76718(17) 0.89808(13) 0.82463(13)
C56 C 0.76447(18) 0.83553(13) 0.77143(14)
H51 H 0.7764 0.8347 0.7282
N7 N 0.74383(15) 0.77151(11) 0.78075(11)
C57 C 0.72725(17) 0.76930(13) 0.84315(13)
C58 C 0.72714(17) 0.83568(13) 0.90036(13)
C59 C 0.70375(18) 0.83718(13) 0.96239(13)
H52 H 0.6908 0.794 0.9694
C60 C 0.69967(19) 0.90227(14) 1.01366(14)
H53 H 0.6842 0.9034 1.0559
C61 C 0.71807(19) 0.96609(13) 1.00393(14)
H54 H 0.7155 1.0102 1.0396
C62 C 0.73998(18) 0.96506(13) 0.94272(14)
H55 H 0.7506 1.0083 0.9356
C63 C 0.74661(17) 0.90047(12) 0.89094(13)
C64 C 0.73729(19) 0.70506(14) 0.73344(14)
H56 H 0.7451 0.6923 0.6867
N8 N 0.71785(16) 0.65990(11) 0.76360(11)
C65 C 0.71161(17) 0.69824(13) 0.83282(13)
C66 C 0.6902(2) 0.58209(13) 0.72513(14)
C67 C 0.7609(3) 0.54375(15) 0.71509(15)
C68 C 0.7294(3) 0.46863(17) 0.67948(17)
H57 H 0.7752 0.4401 0.6723
C69 C 0.6326(3) 0.43546(17) 0.65465(18)
H58 H 0.613 0.3844 0.6311
C70 C 0.5643(3) 0.47526(16) 0.66350(16)
H59 H 0.4981 0.4515 0.6453
C71 C 0.5914(2) 0.55045(15) 0.69900(14)
C72 C 0.8655(3) 0.57981(19) 0.73791(18)
H60 H 0.8802 0.5922 0.6996
H61 H 0.9045 0.547 0.747
H62 H 0.8802 0.6238 0.782
C73 C 0.5175(2) 0.59425(16) 0.70654(16)
H63 H 0.5303 0.6314 0.6884
H64 H 0.5203 0.6173 0.7575
H65 H 0.4535 0.5629 0.6787
N9 N 0.69379(15) 0.66553(11) 0.87713(11)
H66 H 0.6483 0.6754 0.8979
C74 C 0.74672(18) 0.61639(13) 0.89012(13)
C75 C 0.84766(18) 0.63649(13) 0.91300(13)
C76 C 0.8983(2) 0.58619(15) 0.92297(15)
H67 H 0.9666 0.5985 0.9368
C77 C 0.8517(2) 0.51916(15) 0.91330(15)
H68 H 0.8874 0.4855 0.9199
C78 C 0.7517(2) 0.50104(14) 0.89377(14)
H69 H 0.7197 0.4552 0.8884
C79 C 0.6979(2) 0.54854(13) 0.88201(14)
C80 C 0.90217(19) 0.71134(13) 0.92990(15)
H70 H 0.9081 0.7146 0.8852
H71 H 0.9664 0.7214 0.963
H72 H 0.8674 0.7466 0.9525
C81 C 0.5899(2) 0.52786(15) 0.86040(15)
H73 H 0.5639 0.5233 0.811
H74 H 0.5665 0.5651 0.8932
H75 H 0.5691 0.4817 0.863
C82 C 0.78421(18) 0.96516(13) 0.81303(13)
C83 C 0.71216(18) 0.97517(13) 0.76828(14)
H76 H 0.6531 0.9398 0.7448
N10 N 0.72440(14) 1.03800(11) 0.75637(11)
C84 C 0.80932(16) 1.09128(12) 0.78862(13)
C85 C 0.88823(17) 1.08194(13) 0.83746(13)
C86 C 0.97616(18) 1.13301(13) 0.87107(13)
H77 H 0.9846 1.176 0.8633
C87 C 1.05070(18) 1.12064(14) 0.91568(14)
H78 H 1.1107 1.1549 0.9377
C88 C 1.03864(19) 1.05868(14) 0.92860(14)
H79 H 1.09 1.0511 0.9599
C89 C 0.95182(18) 1.00806(14) 0.89594(14)
H80 H 0.9439 0.9658 0.905
C90 C 0.87525(17) 1.01860(13) 0.84955(13)
C91 C 0.66125(18) 1.05516(13) 0.71195(14)
H81 H 0.5984 1.0272 0.6833
N11 N 0.70230(15) 1.11868(11) 0.71501(11)
C92 C 0.79574(17) 1.14317(12) 0.76238(12)
C93 C 0.65121(17) 1.15878(13) 0.68074(13)
C94 C 0.63290(19) 1.13838(14) 0.60701(14)
C95 C 0.5814(2) 1.17814(15) 0.57652(15)
H82 H 0.5665 1.1653 0.5261
C96 C 0.5522(2) 1.23601(15) 0.61922(16)
H83 H 0.5187 1.2632 0.5979
C97 C 0.5712(2) 1.25475(15) 0.69245(16)
H84 H 0.5513 1.295 0.721
C98 C 0.61915(18) 1.21540(13) 0.72512(14)
C99 C 0.6641(2) 1.07563(16) 0.55961(15)
H85 H 0.7326 1.0799 0.5806
H86 H 0.6536 1.0756 0.5115
H87 H 0.6266 1.0306 0.5559
C100 C 0.6314(2) 1.23080(16) 0.80310(15)
H88 H 0.5909 1.1911 0.8068
H89 H 0.6124 1.2757 0.8261
H90 H 0.6989 1.2356 0.8274
N12 N 0.85604(14) 1.20658(10) 0.77630(11)
H91 H 0.8848 1.2369 0.8213
C101 C 0.87326(17) 1.22459(13) 0.71975(13)
C102 C 0.90395(18) 1.17617(13) 0.66627(14)
C103 C 0.9181(2) 1.19409(15) 0.61022(14)
H92 H 0.936 1.1608 0.5724
C104 C 0.9067(2) 1.25950(15) 0.60869(14)
H93 H 0.9169 1.2711 0.5703
C105 C 0.88020(19) 1.30779(14) 0.66360(14)
H94 H 0.8735 1.353 0.663
C106 C 0.86309(17) 1.29162(13) 0.71977(13)
C107 C 0.9257(2) 1.10737(15) 0.66928(16)
H95 H 0.8655 1.0727 0.6575
H96 H 0.9654 1.1175 0.7179
H97 H 0.9605 1.0872 0.6344
C108 C 0.8345(2) 1.34536(13) 0.77873(14)
H98 H 0.8295 1.3881 0.7688
H99 H 0.8832 1.3592 0.825
H100 H 0.7722 1.3237 0.7808
O1 O 0.86683(15) 1.27746(11) 0.92761(11)
H101 H 0.8336 1.2451 0.934
C109 C 0.8412(2) 1.34432(17) 0.96007(18)
H102 H 0.7725 1.339 0.9389
H103 H 0.8787 1.3818 0.9515
H104 H 0.855 1.358 1.0121
O2 O 0.8560(12) 0.6834(8) 0.4210(7)
H105 H 0.8213 0.6494 0.424
C110 C 0.8326(6) 0.7517(4) 0.4605(4)
H106 H 0.8609 0.7669 0.5124
H107 H 0.7626 0.745 0.4494
H108 H 0.8586 0.7888 0.446
O3? O 0.8696(18) 0.6751(12) 0.4269(9)
H109? H 0.8222 0.6417 0.4168
C111? C 0.9315(8) 0.6927(5) 0.4980(4)
H110? H 0.9632 0.744 0.5206
H111? H 0.9802 0.6641 0.4945
H112? H 0.8931 0.6817 0.5273
loop_
_geom_bond_atom_site_label_1
_geom_bond_atom_site_label_2
_geom_bond_site_symmetry_1
_geom_bond_site_symmetry_2
C1 C2 1_555 1_555
C2 H1 1_555 1_555
N1 C2 1_555 1_555
C3 N1 1_555 1_555
C4 C3 1_555 1_555
C5 C4 1_555 1_555
H2 C5 1_555 1_555
C6 C5 1_555 1_555
H3 C6 1_555 1_555
C7 C6 1_555 1_555
H4 C7 1_555 1_555
C8 C7 1_555 1_555
H5 C8 1_555 1_555
C9 C1 1_555 1_555
C10 N1 1_555 1_555
H6 C10 1_555 1_555
N2 C10 1_555 1_555
C11 C3 1_555 1_555
C12 N2 1_555 1_555
C13 C12 1_555 1_555
C14 C13 1_555 1_555
H7 C14 1_555 1_555
C15 C14 1_555 1_555
H8 C15 1_555 1_555
C16 C15 1_555 1_555
H9 C16 1_555 1_555
C17 C12 1_555 1_555
C18 C13 1_555 1_555
H10 C18 1_555 1_555
H11 C18 1_555 1_555
H12 C18 1_555 1_555
C19 C17 1_555 1_555
H13 C19 1_555 1_555
H14 C19 1_555 1_555
H15 C19 1_555 1_555
N3 C11 1_555 1_555
H16 N3 1_555 1_555
C20 N3 1_555 1_555
C21 C20 1_555 1_555
C22 C21 1_555 1_555
H17 C22 1_555 1_555
C23 C22 1_555 1_555
H18 C23 1_555 1_555
C24 C23 1_555 1_555
H19 C24 1_555 1_555
C25 C20 1_555 1_555
C26 C21 1_555 1_555
H20 C26 1_555 1_555
H21 C26 1_555 1_555
H22 C26 1_555 1_555
C27 C25 1_555 1_555
H23 C27 1_555 1_555
H24 C27 1_555 1_555
H25 C27 1_555 1_555
C28 C1 1_555 1_555
C29 C28 1_555 1_555
H26 C29 1_555 1_555
N4 C29 1_555 1_555
C30 N4 1_555 1_555
C31 C30 1_555 1_555
C32 C31 1_555 1_555
H27 C32 1_555 1_555
C33 C32 1_555 1_555
H28 C33 1_555 1_555
C34 C33 1_555 1_555
H29 C34 1_555 1_555
C35 C34 1_555 1_555
H30 C35 1_555 1_555
C36 C28 1_555 1_555
C37 N4 1_555 1_555
H31 C37 1_555 1_555
N5 C37 1_555 1_555
C38 C30 1_555 1_555
C39 N5 1_555 1_555
C40 C39 1_555 1_555
C41 C40 1_555 1_555
H32 C41 1_555 1_555
C42 C41 1_555 1_555
H33 C42 1_555 1_555
C43 C42 1_555 1_555
H34 C43 1_555 1_555
C44 C39 1_555 1_555
C45 C40 1_555 1_555
H35 C45 1_555 1_555
H36 C45 1_555 1_555
H37 C45 1_555 1_555
C46 C44 1_555 1_555
H38 C46 1_555 1_555
H39 C46 1_555 1_555
H40 C46 1_555 1_555
N6 C38 1_555 1_555
H41 N6 1_555 1_555
C47 N6 1_555 1_555
C48 C47 1_555 1_555
C49 C48 1_555 1_555
H42 C49 1_555 1_555
C50 C49 1_555 1_555
H43 C50 1_555 1_555
C51 C50 1_555 1_555
H44 C51 1_555 1_555
C52 C47 1_555 1_555
C53 C48 1_555 1_555
H45 C53 1_555 1_555
H46 C53 1_555 1_555
H47 C53 1_555 1_555
C54 C52 1_555 1_555
H48 C54 1_555 1_555
H49 C54 1_555 1_555
H50 C54 1_555 1_555
C55 C56 1_555 1_555
C56 H51 1_555 1_555
N7 C56 1_555 1_555
C57 N7 1_555 1_555
C58 C57 1_555 1_555
C59 C58 1_555 1_555
H52 C59 1_555 1_555
C60 C59 1_555 1_555
H53 C60 1_555 1_555
C61 C60 1_555 1_555
H54 C61 1_555 1_555
C62 C61 1_555 1_555
H55 C62 1_555 1_555
C63 C55 1_555 1_555
C64 N7 1_555 1_555
H56 C64 1_555 1_555
N8 C64 1_555 1_555
C65 C57 1_555 1_555
C66 N8 1_555 1_555
C67 C66 1_555 1_555
C68 C67 1_555 1_555
H57 C68 1_555 1_555
C69 C68 1_555 1_555
H58 C69 1_555 1_555
C70 C69 1_555 1_555
H59 C70 1_555 1_555
C71 C66 1_555 1_555
C72 C67 1_555 1_555
H60 C72 1_555 1_555
H61 C72 1_555 1_555
H62 C72 1_555 1_555
C73 C71 1_555 1_555
H63 C73 1_555 1_555
H64 C73 1_555 1_555
H65 C73 1_555 1_555
N9 C65 1_555 1_555
H66 N9 1_555 1_555
C74 N9 1_555 1_555
C75 C74 1_555 1_555
C76 C75 1_555 1_555
H67 C76 1_555 1_555
C77 C76 1_555 1_555
H68 C77 1_555 1_555
C78 C77 1_555 1_555
H69 C78 1_555 1_555
C79 C74 1_555 1_555
C80 C75 1_555 1_555
H70 C80 1_555 1_555
H71 C80 1_555 1_555
H72 C80 1_555 1_555
C81 C79 1_555 1_555
H73 C81 1_555 1_555
H74 C81 1_555 1_555
H75 C81 1_555 1_555
C82 C55 1_555 1_555
C83 C82 1_555 1_555
H76 C83 1_555 1_555
N10 C83 1_555 1_555
C84 N10 1_555 1_555
C85 C84 1_555 1_555
C86 C85 1_555 1_555
H77 C86 1_555 1_555
C87 C86 1_555 1_555
H78 C87 1_555 1_555
C88 C87 1_555 1_555
H79 C88 1_555 1_555
C89 C88 1_555 1_555
H80 C89 1_555 1_555
C90 C82 1_555 1_555
C91 N10 1_555 1_555
H81 C91 1_555 1_555
N11 C91 1_555 1_555
C92 C84 1_555 1_555
C93 N11 1_555 1_555
C94 C93 1_555 1_555
C95 C94 1_555 1_555
H82 C95 1_555 1_555
C96 C95 1_555 1_555
H83 C96 1_555 1_555
C97 C96 1_555 1_555
H84 C97 1_555 1_555
C98 C93 1_555 1_555
C99 C94 1_555 1_555
H85 C99 1_555 1_555
H86 C99 1_555 1_555
H87 C99 1_555 1_555
C100 C98 1_555 1_555
H88 C100 1_555 1_555
H89 C100 1_555 1_555
H90 C100 1_555 1_555
N12 C92 1_555 1_555
H91 N12 1_555 1_555
C101 N12 1_555 1_555
C102 C101 1_555 1_555
C103 C102 1_555 1_555
H92 C103 1_555 1_555
C104 C103 1_555 1_555
H93 C104 1_555 1_555
C105 C104 1_555 1_555
H94 C105 1_555 1_555
C106 C101 1_555 1_555
C107 C102 1_555 1_555
H95 C107 1_555 1_555
H96 C107 1_555 1_555
H97 C107 1_555 1_555
C108 C106 1_555 1_555
H98 C108 1_555 1_555
H99 C108 1_555 1_555
H100 C108 1_555 1_555
O1 H101 1_555 1_555
C109 O1 1_555 1_555
H102 C109 1_555 1_555
H103 C109 1_555 1_555
H104 C109 1_555 1_555
O2 H105 1_555 1_555
C110 O2 1_555 1_555
H106 C110 1_555 1_555
H107 C110 1_555 1_555
H108 C110 1_555 1_555
C4 C9 1_555 1_555
C8 C9 1_555 1_555
N2 C11 1_555 1_555
C16 C17 1_555 1_555
C24 C25 1_555 1_555
C31 C36 1_555 1_555
C35 C36 1_555 1_555
N5 C38 1_555 1_555
C43 C44 1_555 1_555
C51 C52 1_555 1_555
C58 C63 1_555 1_555
C62 C63 1_555 1_555
N8 C65 1_555 1_555
C70 C71 1_555 1_555
C78 C79 1_555 1_555
C85 C90 1_555 1_555
C89 C90 1_555 1_555
N11 C92 1_555 1_555
C97 C98 1_555 1_555
C105 C106 1_555 1_555

#END
