
#######################################################################
#
#                 Cambridge Crystallographic Data Centre
#                                CCDC 
#
#######################################################################
#
# If this CIF has been generated from an entry in the Cambridge 
# Structural Database, then it will include bibliographic, chemical, 
# crystal, experimental, refinement or atomic coordinate data resulting 
# from the CCDC's data processing and validation procedures.
#
#######################################################################

data_IVUFAI
_chemical_formula_moiety         'C19 H25 F1 N1 O5 P1'
_chemical_name_systematic        
'diethyl ((3,5-dimethoxyphenyl)((3-fluorophenyl)amino)methyl)phosphonate'
_symmetry_cell_setting           monoclinic
_symmetry_space_group_name_H-M   'P 21/n'
_symmetry_Int_Tables_number      14
_space_group_name_Hall           '-P 2yn'
loop_
_symmetry_equiv_pos_site_id
_symmetry_equiv_pos_as_xyz
1 x,y,z
2 1/2-x,1/2+y,1/2-z
3 -x,-y,-z
4 1/2+x,1/2-y,1/2+z
_cell_length_a                   9.6750(11)
_cell_length_b                   9.9095(12)
_cell_length_c                   21.285(2)
_cell_angle_alpha                90
_cell_angle_beta                 96.223(2)
_cell_angle_gamma                90
_cell_volume                     2028.66
_exptl_crystal_colour            colorless
_exptl_crystal_description       block
_cell_formula_units_Z            4
loop_
_atom_site_label
_atom_site_type_symbol
_atom_site_fract_x
_atom_site_fract_y
_atom_site_fract_z
P1 P 0.73317(7) 0.45782(8) 0.57109(3)
O1 O 0.6208(2) -0.0188(2) 0.72954(9)
O2 O 0.85277(17) 0.3574(2) 0.59128(9)
N1 N 0.5006(2) 0.5171(2) 0.61750(9)
H1 H 0.4870 0.5565 0.5814
O3 O 0.3439(2) 0.0543(2) 0.52907(9)
O4 O 0.6738(2) 0.4519(3) 0.50635(9)
C1 C 0.5686(2) 0.2745(2) 0.62866(10)
C2 C 0.6134(2) 0.4210(3) 0.62890(10)
H2 H 0.6618 0.4405 0.6708
F1 F 0.3864(3) 0.5138(3) 0.82993(10)
C3 C 0.4141(2) 0.5471(2) 0.66341(11)
C4 C 0.4758(3) 0.2253(3) 0.57974(10)
H3 H 0.4420 0.2821 0.5468
C5 C 0.6161(2) 0.1889(3) 0.67800(10)
H4 H 0.6785 0.2206 0.7110
C6 C 0.5709(2) 0.0573(3) 0.67818(10)
C7 C 0.4336(2) 0.0928(3) 0.57994(10)
C8 C 0.4802(2) 0.0069(3) 0.62884(11)
H5 H 0.4514 -0.0827 0.6287
O5 O 0.7886(8) 0.6020(6) 0.5822(4)
C9 C 0.4434(3) 0.5094(3) 0.72604(12)
H6 H 0.5203 0.4557 0.7388
C10 C 0.2957(3) 0.6242(3) 0.64685(14)
H7 H 0.2713 0.6477 0.6048
C11 C 0.3565(4) 0.5529(3) 0.76929(14)
C12 C 0.5497(3) -0.1392(3) 0.74082(16)
H8 H 0.5626 -0.2034 0.7082
H9 H 0.4523 -0.1204 0.7408
H10 H 0.5856 -0.1756 0.7811
C13 C 0.2438(3) 0.6305(4) 0.75455(16)
H11 H 0.1886 0.6586 0.7852
C14 C 0.2138(3) 0.6664(4) 0.69271(17)
H12 H 0.1366 0.7203 0.6810
C15 C 0.2929(4) -0.0797(4) 0.52683(16)
H13 H 0.2330 -0.0930 0.4883
H14 H 0.2415 -0.0953 0.5623
H15 H 0.3695 -0.1416 0.5284
C16 C 1.0813(8) 0.275(2) 0.5874(5)
H16 H 1.1657 0.2896 0.5684
H17 H 1.0535 0.1826 0.5822
H18 H 1.0966 0.2965 0.6316
C17 C 0.848(3) 0.8268(13) 0.6097(13)
H19 H 0.8493 0.8199 0.6548
H20 H 0.8129 0.9140 0.5961
H21 H 0.9399 0.8152 0.5981
C18 C 0.7616(6) 0.7277(6) 0.5812(3)
H22 H 0.6733 0.7372 0.5985
H23 H 0.7447 0.7524 0.5370
C19 C 0.9784(11) 0.3571(19) 0.5587(8)
H24 H 0.9546 0.3270 0.5155
H25 H 1.0136 0.4486 0.5572
O6? O 0.8162(9) 0.5853(11) 0.6023(4)
C20? C 0.8078(14) 0.6907(13) 0.6271(7)
H26? H 0.8540 0.6753 0.6692
H27? H 0.7097 0.6972 0.6324
C21? C 0.843(7) 0.822(2) 0.615(3)
H28? H 0.8786 0.8263 0.5742
H29? H 0.9134 0.8527 0.6468
H30? H 0.7626 0.8786 0.6142
C22? C 0.971(2) 0.322(5) 0.5600(18)
H31? H 0.9783 0.2243 0.5588
H32? H 0.9566 0.3540 0.5167
C23? C 1.0890(17) 0.373(4) 0.5881(12)
H33? H 1.1647 0.3471 0.5650
H34? H 1.1051 0.3393 0.6305
H35? H 1.0825 0.4697 0.5890
loop_
_geom_bond_atom_site_label_1
_geom_bond_atom_site_label_2
_geom_bond_site_symmetry_1
_geom_bond_site_symmetry_2
P1 O2 1_555 1_555
O1 C6 1_555 1_555
O2 C19 1_555 1_555
N1 H1 1_555 1_555
O3 C7 1_555 1_555
O4 P1 1_555 1_555
C1 C2 1_555 1_555
C2 P1 1_555 1_555
H2 C2 1_555 1_555
F1 C11 1_555 1_555
C3 N1 1_555 1_555
C4 C1 1_555 1_555
H3 C4 1_555 1_555
C5 C1 1_555 1_555
H4 C5 1_555 1_555
C6 C5 1_555 1_555
C7 C4 1_555 1_555
C8 C6 1_555 1_555
H5 C8 1_555 1_555
O5 P1 1_555 1_555
C9 C3 1_555 1_555
H6 C9 1_555 1_555
C10 C3 1_555 1_555
H7 C10 1_555 1_555
C11 C9 1_555 1_555
C12 O1 1_555 1_555
H8 C12 1_555 1_555
H9 C12 1_555 1_555
H10 C12 1_555 1_555
C13 C11 1_555 1_555
H11 C13 1_555 1_555
C14 C10 1_555 1_555
H12 C14 1_555 1_555
C15 O3 1_555 1_555
H13 C15 1_555 1_555
H14 C15 1_555 1_555
H15 C15 1_555 1_555
C16 H16 1_555 1_555
H17 C16 1_555 1_555
H18 C16 1_555 1_555
C17 H19 1_555 1_555
H20 C17 1_555 1_555
H21 C17 1_555 1_555
C18 O5 1_555 1_555
H22 C18 1_555 1_555
H23 C18 1_555 1_555
C19 C16 1_555 1_555
H24 C19 1_555 1_555
H25 C19 1_555 1_555
N1 C2 1_555 1_555
C7 C8 1_555 1_555
C13 C14 1_555 1_555
C17 C18 1_555 1_555

#END
