
#######################################################################
#
#                 Cambridge Crystallographic Data Centre
#                                CCDC 
#
#######################################################################
#
# If this CIF has been generated from an entry in the Cambridge 
# Structural Database, then it will include bibliographic, chemical, 
# crystal, experimental, refinement or atomic coordinate data resulting 
# from the CCDC's data processing and validation procedures.
#
#######################################################################

data_IVUHAJ
_chemical_formula_moiety         'C14 H14 I2'
_chemical_name_systematic        
1-(2,3-Diiodo-5-methylcyclohexa-2,5-dien-1-yl)-3-methylbenzene
_symmetry_cell_setting           triclinic
_symmetry_space_group_name_H-M   'P -1'
_symmetry_Int_Tables_number      2
_space_group_name_Hall           '-P 1'
loop_
_symmetry_equiv_pos_site_id
_symmetry_equiv_pos_as_xyz
1 x,y,z
2 -x,-y,-z
_cell_length_a                   7.673(8)
_cell_length_b                   8.458(9)
_cell_length_c                   11.178(12)
_cell_angle_alpha                82.791(10)
_cell_angle_beta                 89.230(10)
_cell_angle_gamma                77.403(10)
_cell_volume                     702.301
_exptl_crystal_colour            colorless
_exptl_crystal_description       block
_cell_formula_units_Z            2
loop_
_atom_site_label
_atom_site_type_symbol
_atom_site_fract_x
_atom_site_fract_y
_atom_site_fract_z
C1 C 0.3998(5) 0.3666(5) 0.8487(3)
C2 C 0.4797(6) 0.2818(5) 0.9471(3)
C3 C 0.6660(6) 0.1823(6) 0.9500(4)
H1 H 0.7351 0.2187 1.0089
H2 H 0.6635 0.0692 0.9767
C4 C 0.7576(6) 0.1912(5) 0.8326(4)
C5 C 0.6774(6) 0.2782(6) 0.7356(4)
H3 H 0.7449 0.2832 0.6660
C6 C 0.4847(5) 0.3714(5) 0.7265(3)
H4 H 0.4839 0.4858 0.6971
C7 C 0.3820(5) 0.3067(5) 0.6357(3)
C8 C 0.2968(6) 0.4095(6) 0.5380(4)
H5 H 0.2998 0.5197 0.5280
C9 C 0.2070(7) 0.3466(8) 0.4550(4)
H6 H 0.1498 0.4152 0.3889
C10 C 0.2014(6) 0.1857(8) 0.4693(4)
H7 H 0.1413 0.1456 0.4123
C11 C 0.2838(6) 0.0807(6) 0.5673(4)
C12 C 0.3743(5) 0.1435(5) 0.6491(4)
H8 H 0.4317 0.0744 0.7149
C13 C 0.9490(7) 0.0977(7) 0.8326(5)
H9 H 0.9974 0.1153 0.7537
H10 H 0.9536 -0.0167 0.8541
H11 H 1.0176 0.1350 0.8900
C14 C 0.2791(7) -0.0991(7) 0.5843(5)
H12 H 0.1954 -0.1187 0.5279
H13 H 0.2431 -0.1294 0.6650
H14 H 0.3958 -0.1629 0.5708
I1 I 0.13988(4) 0.51103(4) 0.84710(3)
I2 I 0.36244(4) 0.27699(4) 1.11827(2)
loop_
_geom_bond_atom_site_label_1
_geom_bond_atom_site_label_2
_geom_bond_site_symmetry_1
_geom_bond_site_symmetry_2
C1 C2 1_555 1_555
C2 C3 1_555 1_555
C3 H1 1_555 1_555
H2 C3 1_555 1_555
C4 C3 1_555 1_555
C5 C4 1_555 1_555
H3 C5 1_555 1_555
C6 C1 1_555 1_555
H4 C6 1_555 1_555
C7 C6 1_555 1_555
C8 C7 1_555 1_555
H5 C8 1_555 1_555
C9 C8 1_555 1_555
H6 C9 1_555 1_555
C10 C9 1_555 1_555
H7 C10 1_555 1_555
C11 C10 1_555 1_555
C12 C7 1_555 1_555
H8 C12 1_555 1_555
C13 C4 1_555 1_555
H9 C13 1_555 1_555
H10 C13 1_555 1_555
H11 C13 1_555 1_555
C14 C11 1_555 1_555
H12 C14 1_555 1_555
H13 C14 1_555 1_555
H14 C14 1_555 1_555
I1 C1 1_555 1_555
I2 C2 1_555 1_555
C5 C6 1_555 1_555
C11 C12 1_555 1_555

#END
