
#######################################################################
#
#                 Cambridge Crystallographic Data Centre
#                                CCDC 
#
#######################################################################
#
# If this CIF has been generated from an entry in the Cambridge 
# Structural Database, then it will include bibliographic, chemical, 
# crystal, experimental, refinement or atomic coordinate data resulting 
# from the CCDC's data processing and validation procedures.
#
#######################################################################

data_IVULAM
_chemical_formula_moiety         'C22 H19 N3 O3'
_chemical_name_systematic        
exo-1'-Benzyl-2-phenyl-3a,5,6,6a-tetrahydro-1H-spiro(cyclopenta(c)pyrrole-4,4'-imidazole)-1,3,5'(1'H,2H)-trione
_symmetry_cell_setting           monoclinic
_symmetry_space_group_name_H-M   'C c'
_symmetry_Int_Tables_number      9
_space_group_name_Hall           'C -2yc'
loop_
_symmetry_equiv_pos_site_id
_symmetry_equiv_pos_as_xyz
1 x,y,z
2 x,-y,1/2+z
3 1/2+x,1/2+y,z
4 1/2+x,1/2-y,1/2+z
_cell_length_a                   16.9447(14)
_cell_length_b                   10.3611(14)
_cell_length_c                   12.0903(15)
_cell_angle_alpha                90
_cell_angle_beta                 119.267(9)
_cell_angle_gamma                90
_cell_volume                     1851.69
_exptl_crystal_colour            colorless
_exptl_crystal_description       rods
_cell_formula_units_Z            4
loop_
_atom_site_label
_atom_site_type_symbol
_atom_site_fract_x
_atom_site_fract_y
_atom_site_fract_z
O1 O -0.26334(13) -0.1005(2) -0.31236(18)
O2 O -0.03994(15) -0.1246(2) 0.04192(19)
O3 O 0.10631(14) 0.2439(2) 0.04278(18)
N1 N -0.27801(15) -0.0116(2) -0.1494(2)
N2 N -0.16303(17) 0.1329(2) -0.0644(2)
N3 N 0.05158(14) 0.0497(2) 0.06865(19)
C1 C -0.2290(2) 0.0814(3) -0.0581(3)
H1 H -0.2437 0.1046 0.0040
C2 C -0.23937(18) -0.0250(3) -0.2237(2)
C3 C -0.16329(17) 0.0725(3) -0.1744(2)
C4 C -0.06914(18) 0.0157(3) -0.1355(2)
H2 H -0.0732 -0.0519 -0.1948
C5 C -0.02068(19) -0.0326(3) -0.0015(3)
C6 C 0.05500(18) 0.1533(3) -0.0029(3)
C7 C -0.01287(18) 0.1308(3) -0.1390(2)
H3 H 0.0183 0.1068 -0.1862
C8 C -0.07956(19) 0.2410(3) -0.2077(3)
H4 H -0.0754 0.3070 -0.1481
H5 H -0.0677 0.2801 -0.2710
C9 C -0.17253(19) 0.1771(3) -0.2699(3)
H6 H -0.1867 0.1393 -0.3509
H7 H -0.2193 0.2387 -0.2826
C10 C -0.3576(2) -0.0806(3) -0.1624(3)
H8 H -0.3421 -0.1231 -0.0828
H9 H -0.3744 -0.1469 -0.2268
C11 C -0.43723(19) 0.0064(3) -0.1979(3)
C12 C -0.4572(2) 0.0521(3) -0.1090(3)
H10 H -0.4201 0.0307 -0.0243
C13 C -0.5318(3) 0.1299(3) -0.1424(4)
H11 H -0.5444 0.1607 -0.0804
C14 C -0.5869(2) 0.1614(3) -0.2663(4)
H12 H -0.6378 0.2122 -0.2893
C15 C -0.5671(2) 0.1185(4) -0.3568(3)
H13 H -0.6037 0.1416 -0.4413
C16 C -0.4932(2) 0.0412(3) -0.3228(3)
H14 H -0.4804 0.0116 -0.3850
C17 C 0.11140(18) 0.0351(3) 0.2032(2)
C18 C 0.1677(2) -0.0713(3) 0.2451(3)
H15 H 0.1686 -0.1305 0.1879
C19 C 0.2232(2) -0.0876(4) 0.3755(3)
H16 H 0.2619 -0.1582 0.4062
C20 C 0.2208(2) 0.0006(4) 0.4584(3)
H17 H 0.2571 -0.0114 0.5452
C21 C 0.1655(3) 0.1058(4) 0.4145(3)
H18 H 0.1652 0.1657 0.4716
C22 C 0.1103(2) 0.1236(3) 0.2866(3)
H19 H 0.0725 0.1952 0.2568
loop_
_geom_bond_atom_site_label_1
_geom_bond_atom_site_label_2
_geom_bond_site_symmetry_1
_geom_bond_site_symmetry_2
O1 C2 1_555 1_555
O2 C5 1_555 1_555
O3 C6 1_555 1_555
N1 C1 1_555 1_555
N2 C1 1_555 1_555
N3 C5 1_555 1_555
C1 H1 1_555 1_555
C2 N1 1_555 1_555
C3 N2 1_555 1_555
C4 C3 1_555 1_555
H2 C4 1_555 1_555
C5 C4 1_555 1_555
C6 N3 1_555 1_555
C7 C4 1_555 1_555
H3 C7 1_555 1_555
C8 C7 1_555 1_555
H4 C8 1_555 1_555
H5 C8 1_555 1_555
C9 C3 1_555 1_555
H6 C9 1_555 1_555
H7 C9 1_555 1_555
C10 N1 1_555 1_555
H8 C10 1_555 1_555
H9 C10 1_555 1_555
C11 C10 1_555 1_555
C12 C11 1_555 1_555
H10 C12 1_555 1_555
C13 C12 1_555 1_555
H11 C13 1_555 1_555
C14 C13 1_555 1_555
H12 C14 1_555 1_555
C15 C14 1_555 1_555
H13 C15 1_555 1_555
C16 C11 1_555 1_555
H14 C16 1_555 1_555
C17 N3 1_555 1_555
C18 C17 1_555 1_555
H15 C18 1_555 1_555
C19 C18 1_555 1_555
H16 C19 1_555 1_555
C20 C19 1_555 1_555
H17 C20 1_555 1_555
C21 C20 1_555 1_555
H18 C21 1_555 1_555
C22 C17 1_555 1_555
H19 C22 1_555 1_555
C2 C3 1_555 1_555
C6 C7 1_555 1_555
C8 C9 1_555 1_555
C15 C16 1_555 1_555
C21 C22 1_555 1_555

#END
