
#######################################################################
#
#                 Cambridge Crystallographic Data Centre
#                                CCDC 
#
#######################################################################
#
# If this CIF has been generated from an entry in the Cambridge 
# Structural Database, then it will include bibliographic, chemical, 
# crystal, experimental, refinement or atomic coordinate data resulting 
# from the CCDC's data processing and validation procedures.
#
#######################################################################

data_IVUQIB
_chemical_formula_moiety         'C34 H41 N3 O2'
_chemical_name_systematic        
'17-(2-(benzylamino)-3-cyanopyridin-4-yl)androst-5-en-3-yl acetate'
_symmetry_cell_setting           monoclinic
_symmetry_space_group_name_H-M   'P 21'
_symmetry_Int_Tables_number      4
_space_group_name_Hall           'P 2yb'
loop_
_symmetry_equiv_pos_site_id
_symmetry_equiv_pos_as_xyz
1 x,y,z
2 -x,1/2+y,-z
_cell_length_a                   13.1404(5)
_cell_length_b                   7.4558(3)
_cell_length_c                   15.7180(6)
_cell_angle_alpha                90
_cell_angle_beta                 105.530(4)
_cell_angle_gamma                90
_cell_volume                     1483.7
_exptl_crystal_colour            colorless
_exptl_crystal_description       block
_chemical_melting_point          '185.5-186.1 deg.C'
_cell_formula_units_Z            2
loop_
_atom_site_label
_atom_site_type_symbol
_atom_site_fract_x
_atom_site_fract_y
_atom_site_fract_z
C1 C 0.5671(3) 0.4580(4) 1.1661(2)
H1 H 0.5889 0.5673 1.1425
H2 H 0.5026 0.4168 1.1246
C2 C 0.5434(3) 0.5008(5) 1.2537(2)
H3 H 0.6059 0.5504 1.2945
H4 H 0.4876 0.5896 1.2444
C3 C 0.5099(2) 0.3327(5) 1.29232(18)
H5 H 0.4419 0.2913 1.2547
C4 C 0.5909(2) 0.1851(4) 1.30218(18)
H6 H 0.5628 0.0758 1.3205
H7 H 0.6537 0.2179 1.3479
C5 C 0.62067(19) 0.1505(3) 1.21674(16)
C6 C 0.6168(2) -0.0135(4) 1.18386(19)
H8 H 0.5912 -0.1044 1.2130
C7 C 0.6507(2) -0.0639(4) 1.10279(19)
H9 H 0.5887 -0.0889 1.0547
H10 H 0.6930 -0.1723 1.1146
C8 C 0.71494(19) 0.0853(3) 1.07499(16)
H11 H 0.7849 0.0902 1.1172
C9 C 0.65846(19) 0.2660(3) 1.07696(17)
H12 H 0.5851 0.2483 1.0424
C10 C 0.65384(18) 0.3142(3) 1.17272(16)
C11 C 0.7024(3) 0.4198(4) 1.0314(2)
H13 H 0.6537 0.5201 1.0232
H14 H 0.7690 0.4593 1.0704
C12 C 0.7201(3) 0.3704(4) 0.9421(2)
H15 H 0.7550 0.4689 0.9210
H16 H 0.6524 0.3505 0.8996
C13 C 0.78773(19) 0.2010(3) 0.94985(16)
C14 C 0.72844(19) 0.0509(3) 0.98306(16)
H17 H 0.6571 0.0486 0.9429
C15 C 0.7825(3) -0.1211(4) 0.9652(2)
H18 H 0.7337 -0.2213 0.9557
H19 H 0.8427 -0.1491 1.0145
C16 C 0.8182(2) -0.0823(4) 0.88156(18)
H20 H 0.7800 -0.1576 0.8331
H21 H 0.8932 -0.1049 0.8920
C17 C 0.79312(19) 0.1186(3) 0.85979(16)
H22 H 0.7219 0.1249 0.8197
C18 C 0.7603(2) 0.3824(5) 1.2293(2)
H23 H 0.8154 0.3028 1.2233
H24 H 0.7590 0.3870 1.2900
H25 H 0.7733 0.5003 1.2100
C19 C 0.8983(2) 0.2308(5) 1.01046(19)
H26 H 0.9382 0.1217 1.0151
H27 H 0.8933 0.2659 1.0680
H28 H 0.9330 0.3236 0.9865
C20 C 0.4037(2) 0.3919(5) 1.39126(19)
C21 C 0.4075(3) 0.4363(9) 1.4849(3)
H29 H 0.4285 0.3320 1.5212
H30 H 0.3389 0.4746 1.4881
H31 H 0.4577 0.5309 1.5055
C22 C 1.0355(2) 0.2996(5) 0.80032(19)
H32 H 1.1066 0.2705 0.8110
C23 C 0.9736(2) 0.1867(4) 0.83423(18)
H33 H 1.0035 0.0890 0.8686
C24 C 0.86568(19) 0.2196(4) 0.81680(15)
C25 C 0.8276(2) 0.3647(4) 0.76138(17)
C26 C 0.8982(2) 0.4825(4) 0.73374(18)
C27 C 0.7160(2) 0.3972(5) 0.72985(19)
C28 C 0.9311(3) 0.7688(6) 0.6674(2)
H34 H 1.0021 0.7211 0.6780
H35 H 0.9336 0.8684 0.7076
C29 C 0.8950(2) 0.8362(5) 0.5740(2)
C30 C 0.8634(4) 0.7249(7) 0.5044(3)
H36 H 0.8596 0.6022 0.5138
C31 C 0.8361(4) 0.7925(10) 0.4176(3)
H37 H 0.8142 0.7150 0.3699
C32 C 0.8420(4) 0.9699(10) 0.4043(3)
H38 H 0.8257 1.0141 0.3469
C33 C 0.8706(4) 1.0831(8) 0.4719(4)
H39 H 0.8722 1.2059 0.4619
C34 C 0.8982(4) 1.0167(6) 0.5582(3)
H40 H 0.9190 1.0958 0.6055
N1 N 1.00211(18) 0.4472(4) 0.75343(17)
N2 N 0.6278(2) 0.4251(6) 0.7009(2)
N3 N 0.8622(2) 0.6302(5) 0.6860(2)
H41 H 0.793(4) 0.654(6) 0.686(3)
O1 O 0.49957(15) 0.3718(4) 1.38051(12)
O2 O 0.32479(18) 0.3802(5) 1.33261(16)
loop_
_geom_bond_atom_site_label_1
_geom_bond_atom_site_label_2
_geom_bond_site_symmetry_1
_geom_bond_site_symmetry_2
C1 H1 1_555 1_555
H2 C1 1_555 1_555
C2 C1 1_555 1_555
H3 C2 1_555 1_555
H4 C2 1_555 1_555
C3 C2 1_555 1_555
H5 C3 1_555 1_555
C4 C3 1_555 1_555
H6 C4 1_555 1_555
H7 C4 1_555 1_555
C5 C4 1_555 1_555
C6 C5 1_555 1_555
H8 C6 1_555 1_555
C7 C6 1_555 1_555
H9 C7 1_555 1_555
H10 C7 1_555 1_555
C8 C7 1_555 1_555
H11 C8 1_555 1_555
C9 C8 1_555 1_555
H12 C9 1_555 1_555
C10 C1 1_555 1_555
C11 C9 1_555 1_555
H13 C11 1_555 1_555
H14 C11 1_555 1_555
C12 C11 1_555 1_555
H15 C12 1_555 1_555
H16 C12 1_555 1_555
C13 C12 1_555 1_555
C14 C8 1_555 1_555
H17 C14 1_555 1_555
C15 C14 1_555 1_555
H18 C15 1_555 1_555
H19 C15 1_555 1_555
C16 C15 1_555 1_555
H20 C16 1_555 1_555
H21 C16 1_555 1_555
C17 C13 1_555 1_555
H22 C17 1_555 1_555
C18 C10 1_555 1_555
H23 C18 1_555 1_555
H24 C18 1_555 1_555
H25 C18 1_555 1_555
C19 C13 1_555 1_555
H26 C19 1_555 1_555
H27 C19 1_555 1_555
H28 C19 1_555 1_555
C20 C21 1_555 1_555
C21 H29 1_555 1_555
H30 C21 1_555 1_555
H31 C21 1_555 1_555
C22 H32 1_555 1_555
C23 C22 1_555 1_555
H33 C23 1_555 1_555
C24 C17 1_555 1_555
C25 C24 1_555 1_555
C26 C25 1_555 1_555
C27 C25 1_555 1_555
C28 H34 1_555 1_555
H35 C28 1_555 1_555
C29 C28 1_555 1_555
C30 C29 1_555 1_555
H36 C30 1_555 1_555
C31 C30 1_555 1_555
H37 C31 1_555 1_555
C32 C31 1_555 1_555
H38 C32 1_555 1_555
C33 C32 1_555 1_555
H39 C33 1_555 1_555
C34 C29 1_555 1_555
H40 C34 1_555 1_555
N1 C22 1_555 1_555
N2 C27 1_555 1_555
N3 C26 1_555 1_555
H41 N3 1_555 1_555
O1 C3 1_555 1_555
O2 C20 1_555 1_555
C5 C10 1_555 1_555
C9 C10 1_555 1_555
C13 C14 1_555 1_555
C16 C17 1_555 1_555
C20 O1 1_555 1_555
C23 C24 1_555 1_555
C26 N1 1_555 1_555
C28 N3 1_555 1_555
C33 C34 1_555 1_555

#END
