
#######################################################################
#
#                 Cambridge Crystallographic Data Centre
#                                CCDC 
#
#######################################################################
#
# If this CIF has been generated from an entry in the Cambridge 
# Structural Database, then it will include bibliographic, chemical, 
# crystal, experimental, refinement or atomic coordinate data resulting 
# from the CCDC's data processing and validation procedures.
#
#######################################################################

data_IVUXII
_chemical_name_common            
'methyl 2-((2-((2-(methoxycarbonyl)phenyl)amino)-3-oxocyclohex-1-en-1-yl)amino)benzoate'
_chemical_formula_moiety         'C22 H22 N2 O5'
_chemical_name_systematic        
"dimethyl 2,2'-((3-oxocyclohex-1-ene-1,2-diyl)bis(azanediyl))dibenzoate"
_symmetry_cell_setting           monoclinic
_symmetry_space_group_name_H-M   'P 21/n'
_symmetry_Int_Tables_number      14
_space_group_name_Hall           '-P 2yn'
loop_
_symmetry_equiv_pos_site_id
_symmetry_equiv_pos_as_xyz
1 x,y,z
2 1/2-x,1/2+y,1/2-z
3 -x,-y,-z
4 1/2+x,1/2-y,1/2+z
_cell_length_a                   13.3116(15)
_cell_length_b                   10.6460(14)
_cell_length_c                   14.6956(16)
_cell_angle_alpha                90
_cell_angle_beta                 111.427(5)
_cell_angle_gamma                90
_cell_volume                     1938.65
_exptl_crystal_colour            yellow
_exptl_crystal_description       Block
_chemical_melting_point          '470 K'
_cell_formula_units_Z            4
_exptl_crystal_recrystallization_method 'hexane/ethyl acetate'
loop_
_atom_site_label
_atom_site_type_symbol
_atom_site_fract_x
_atom_site_fract_y
_atom_site_fract_z
C1 C 0.8336(2) 0.1967(2) 0.8359(2)
O1 O 0.81320(17) 0.08352(17) 0.82474(19)
C2 C 0.9381(2) 0.2492(3) 0.8359(3)
H1 H 0.9960 0.1908 0.8717
H2 H 0.9347 0.2515 0.7681
C3 C 0.9663(3) 0.3667(3) 0.8754(5)
H3 H 1.0096 0.4050 0.8413
H4 H 1.0149 0.3542 0.9433
C4 C 0.88726(18) 0.4614(2) 0.87737(19)
H5 H 0.8710 0.5159 0.8201
H6 H 0.9190 0.5137 0.9358
C5 C 0.78398(17) 0.4052(2) 0.87783(15)
C6 C 0.75775(16) 0.2833(2) 0.84920(15)
N1 N 0.65874(14) 0.23199(18) 0.84785(14)
H7 H 0.6577 0.1915 0.8989
C7 C 0.56414(17) 0.2445(2) 0.76771(16)
C8 C 0.47410(18) 0.1661(2) 0.75518(18)
C9 C 0.3790(2) 0.1855(3) 0.6744(2)
H8 H 0.3189 0.1342 0.6665
C10 C 0.3709(2) 0.2761(3) 0.6068(2)
H9 H 0.3061 0.2870 0.5530
C11 C 0.4591(2) 0.3519(3) 0.61828(19)
H10 H 0.4543 0.4142 0.5715
C12 C 0.55393(19) 0.3373(2) 0.69732(17)
H11 H 0.6127 0.3904 0.7042
C13 C 0.4815(2) 0.0631(3) 0.8235(3)
O2 O 0.56164(19) 0.0325(2) 0.8911(2)
O3 O 0.38799(18) 0.0020(2) 0.80356(19)
C14 C 0.3912(4) -0.1056(3) 0.8638(4)
H12 H 0.4466 -0.1633 0.8612
H13 H 0.3217 -0.1474 0.8399
H14 H 0.4076 -0.0786 0.9307
N2 N 0.71561(15) 0.47070(17) 0.90988(14)
H15 H 0.6567 0.4310 0.9049
C15 C 0.72451(18) 0.5921(2) 0.94978(17)
C16 C 0.68762(19) 0.6143(2) 1.02708(17)
C17 C 0.6954(2) 0.7357(2) 1.0654(2)
H16 H 0.6717 0.7509 1.1173
C18 C 0.7370(3) 0.8334(3) 1.0289(2)
H17 H 0.7423 0.9142 1.0561
C19 C 0.7706(2) 0.8116(2) 0.9523(2)
H18 H 0.7980 0.8783 0.9265
C20 C 0.7645(2) 0.6926(2) 0.91286(19)
H19 H 0.7876 0.6795 0.8604
C21 C 0.64010(19) 0.5132(2) 1.06698(18)
O4 O 0.60959(14) 0.41227(17) 1.02914(13)
O5 O 0.63440(16) 0.54443(18) 1.15289(13)
C22 C 0.5900(3) 0.4513(3) 1.1979(2)
H20 H 0.5210 0.4231 1.1516
H21 H 0.5800 0.4872 1.2547
H22 H 0.6391 0.3805 1.2181
loop_
_geom_bond_atom_site_label_1
_geom_bond_atom_site_label_2
_geom_bond_site_symmetry_1
_geom_bond_site_symmetry_2
C1 O1 1_555 1_555
C2 C1 1_555 1_555
H1 C2 1_555 1_555
H2 C2 1_555 1_555
C3 C2 1_555 1_555
H3 C3 1_555 1_555
H4 C3 1_555 1_555
C4 C3 1_555 1_555
H5 C4 1_555 1_555
H6 C4 1_555 1_555
C5 C4 1_555 1_555
C6 C1 1_555 1_555
N1 C6 1_555 1_555
H7 N1 1_555 1_555
C7 N1 1_555 1_555
C8 C7 1_555 1_555
C9 C8 1_555 1_555
H8 C9 1_555 1_555
C10 C9 1_555 1_555
H9 C10 1_555 1_555
C11 C10 1_555 1_555
H10 C11 1_555 1_555
C12 C7 1_555 1_555
H11 C12 1_555 1_555
C13 C8 1_555 1_555
O2 C13 1_555 1_555
O3 C13 1_555 1_555
C14 O3 1_555 1_555
H12 C14 1_555 1_555
H13 C14 1_555 1_555
H14 C14 1_555 1_555
N2 C5 1_555 1_555
H15 N2 1_555 1_555
C15 N2 1_555 1_555
C16 C15 1_555 1_555
C17 C16 1_555 1_555
H16 C17 1_555 1_555
C18 C17 1_555 1_555
H17 C18 1_555 1_555
C19 C18 1_555 1_555
H18 C19 1_555 1_555
C20 C15 1_555 1_555
H19 C20 1_555 1_555
C21 C16 1_555 1_555
O4 C21 1_555 1_555
O5 C21 1_555 1_555
C22 O5 1_555 1_555
H20 C22 1_555 1_555
H21 C22 1_555 1_555
H22 C22 1_555 1_555
C5 C6 1_555 1_555
C11 C12 1_555 1_555
C19 C20 1_555 1_555

#END
