
#######################################################################
#
#                 Cambridge Crystallographic Data Centre
#                                CCDC 
#
#######################################################################
#
# If this CIF has been generated from an entry in the Cambridge 
# Structural Database, then it will include bibliographic, chemical, 
# crystal, experimental, refinement or atomic coordinate data resulting 
# from the CCDC's data processing and validation procedures.
#
#######################################################################

data_IWEBUH
_chemical_compound_source        
'fruit bodies of the Japanese inedible mushroom Tyromyces fissilis'
_chemical_formula_moiety         'C42 H55 Br1 O8'
_chemical_name_systematic        'tyromic acid B p-bromophenacyl ester'
_chemical_properties_biological  'tested for antioxidant and antiHIV activity'
_symmetry_cell_setting           orthorhombic
_symmetry_space_group_name_H-M   'P 21 21 21'
_symmetry_Int_Tables_number      19
_space_group_name_Hall           'P 2ac 2ab'
loop_
_symmetry_equiv_pos_site_id
_symmetry_equiv_pos_as_xyz
1 x,y,z
2 1/2-x,-y,1/2+z
3 1/2+x,1/2-y,-z
4 -x,1/2+y,1/2-z
_cell_length_a                   6.5480(2)
_cell_length_b                   19.9720(8)
_cell_length_c                   29.568(2)
_cell_angle_alpha                90
_cell_angle_beta                 90
_cell_angle_gamma                90
_cell_volume                     3866.8
_exptl_crystal_colour            colorless
_chemical_melting_point          '183-185 deg.C'
_cell_formula_units_Z            4
loop_
_atom_site_label
_atom_site_type_symbol
_atom_site_fract_x
_atom_site_fract_y
_atom_site_fract_z
Br1 Br 1.56231(15) -0.44528(5) 0.90188(4)
O1 O 0.2188(8) 0.1618(3) 0.92510(15)
O2 O 0.4487(8) 0.0625(2) 0.90807(15)
O3 O 0.5050(9) -0.2124(3) 0.90408(19)
C1 C 0.2536(10) 0.2205(3) 0.8542(2)
C2 C 0.1439(10) 0.2845(3) 0.8723(2)
C3 C 0.3630(10) 0.1783(3) 0.8898(2)
C4 C 0.2605(11) 0.2058(3) 0.8109(2)
C5 C 0.4676(12) 0.0281(3) 0.8042(2)
C6 C 0.3598(10) 0.0856(3) 0.8296(2)
C7 C 0.2455(13) -0.1502(4) 0.8359(3)
C8 C 0.2840(15) 0.1613(4) 0.9672(2)
C9 C 0.2052(13) -0.1483(4) 0.9226(3)
C10 C 0.0351(14) 0.3043(4) 0.7909(2)
C11 C 0.2732(12) 0.3176(3) 0.9093(2)
C12 C 0.1365(10) 0.0670(3) 0.8399(2)
C13 C 0.3964(13) 0.0372(4) 0.7550(2)
C14 C 0.4568(12) -0.0442(3) 0.8236(2)
O4 O 0.4604(12) 0.1742(3) 0.97860(19)
C15 C 0.1206(10) 0.3368(3) 0.8334(2)
C16 C 0.0363(13) 0.4180(4) 0.8968(3)
C17 C 1.2768(14) -0.3685(4) 0.8523(3)
O5 O 0.7422(12) -0.2554(4) 0.83889(19)
C18 C 1.1004(14) -0.3293(4) 0.8465(2)
O6 O 0.3989(12) -0.2122(5) 0.9744(2)
C19 C -0.0688(12) 0.2658(4) 0.8919(2)
C20 C 1.2100(15) -0.3769(4) 0.9307(3)
C21 C 0.5970(12) 0.1675(4) 0.7846(3)
C22 C 0.0058(12) 0.4028(3) 0.8467(2)
C23 C 0.1598(14) -0.1327(4) 0.8804(3)
C24 C 0.4616(11) 0.1123(3) 0.8721(2)
C25 C 0.7902(13) -0.2717(4) 0.8759(3)
C26 C 0.3783(12) -0.1932(4) 0.9367(2)
C27 C 0.2854(13) -0.0877(4) 0.8058(2)
C28 C 0.9796(12) -0.3137(3) 0.8834(2)
C29 C -0.2217(14) 0.4005(4) 0.8361(3)
C30 C 0.3000(13) 0.1070(3) 0.7511(2)
C31 C 0.3761(11) 0.1439(3) 0.7945(2)
C32 C 0.1010(17) 0.4617(4) 0.8210(3)
O7 O -0.0802(12) 0.4567(4) 0.9164(2)
C33 C 0.6727(14) -0.2529(5) 0.9175(3)
C34 C 0.1691(16) 0.2487(4) 0.7740(2)
C35 C 0.2122(16) 0.3893(4) 0.9214(3)
C36 C 1.3247(12) -0.3918(4) 0.8944(3)
C37 C 1.0345(14) -0.3377(4) 0.9255(2)
C38 C 0.6614(16) -0.0781(6) 0.8159(5)
O8 O 0.7843(13) 0.0605(9) 0.9181(4)
C39 C 0.0872(18) -0.1252(6) 0.9627(3)
C40 C 0.573(2) -0.0045(5) 0.9669(3)
C41 C 0.119(2) 0.1408(7) 0.9986(3)
C42 C 0.6197(15) 0.0447(6) 0.9289(3)
H1 H 0.4725 0.2037 0.9029
H2 H 0.6116 0.0368 0.8056
H3 H 0.3731 -0.1729 0.8405
H4 H 0.1527 -0.1795 0.8203
H5 H -0.0959 0.2854 0.7979
H6 H 0.0197 0.3375 0.7677
H7 H 0.2620 0.2921 0.9367
H8 H 0.4132 0.3185 0.8996
H9 H 0.0735 0.1035 0.8558
H10 H 0.1323 0.0275 0.8584
H11 H 0.0641 0.0589 0.8122
H12 H 0.5100 0.0330 0.7347
H13 H 0.2972 0.0032 0.7483
H14 H 0.4401 -0.0385 0.8556
H15 H 0.2577 0.3513 0.8273
H16 H 1.3617 -0.3787 0.8267
H17 H 1.0631 -0.3136 0.8169
H18 H -0.1350 0.3056 0.9027
H19 H -0.0506 0.2351 0.9166
H20 H -0.1516 0.2453 0.8690
H21 H 1.2513 -0.3933 0.9598
H22 H 0.6762 0.1303 0.7739
H23 H 0.6563 0.1844 0.8120
H24 H 0.5959 0.2022 0.7621
H25 H 0.0458 -0.1025 0.8817
H26 H 0.6021 0.1206 0.8647
H27 H 0.3212 -0.1010 0.7757
H28 H 0.1633 -0.0612 0.8050
H29 H -0.2833 0.4422 0.8448
H30 H -0.2828 0.3647 0.8529
H31 H -0.2430 0.3932 0.8043
H32 H 0.3460 0.1284 0.7239
H33 H 0.1539 0.1031 0.7505
H34 H 0.0305 0.5021 0.8290
H35 H 0.0896 0.4543 0.7890
H36 H 0.2424 0.4656 0.8291
H37 H 0.7591 -0.2271 0.9371
H38 H 0.6247 -0.2918 0.9333
H39 H 0.2778 0.2696 0.7574
H40 H 0.0896 0.2213 0.7540
H41 H 0.1820 0.3925 0.9531
H42 H 0.3236 0.4187 0.9142
H43 H 0.9499 -0.3276 0.9511
H44 H 0.6574 -0.1229 0.8277
H45 H 0.7693 -0.0536 0.8304
H46 H 0.6855 -0.0795 0.7839
H47 H 0.1469 -0.1430 0.9899
H48 H -0.0512 -0.1407 0.9601
H49 H 0.0887 -0.0772 0.9640
H50 H 0.6969 -0.0169 0.9820
H51 H 0.5104 -0.0436 0.9541
H52 H 0.4807 0.0155 0.9883
H53 H 0.1702 0.1409 1.0290
H54 H 0.0702 0.0968 0.9912
H55 H 0.0090 0.1723 0.9960
loop_
_geom_bond_atom_site_label_1
_geom_bond_atom_site_label_2
_geom_bond_site_symmetry_1
_geom_bond_site_symmetry_2
Br1 C36 1_555 1_555
O1 C3 1_555 1_555
O2 C24 1_555 1_555
O3 C26 1_555 1_555
C1 C2 1_555 1_555
C2 C11 1_555 1_555
C3 C1 1_555 1_555
C4 C1 1_555 1_555
C5 C6 1_555 1_555
C6 C12 1_555 1_555
C7 C23 1_555 1_555
C8 O1 1_555 1_555
C9 C23 1_555 1_555
C10 C15 1_555 1_555
C11 C35 1_555 1_555
C12 H9 1_555 1_555
C13 C5 1_555 1_555
C14 C5 1_555 1_555
O4 C8 1_555 1_555
C15 C2 1_555 1_555
C16 C22 1_555 1_555
C17 C18 1_555 1_555
O5 C25 1_555 1_555
C18 C28 1_555 1_555
O6 C26 1_555 1_555
C19 C2 1_555 1_555
C20 C36 1_555 1_555
C21 C31 1_555 1_555
C22 C15 1_555 1_555
C23 H25 1_555 1_555
C24 C3 1_555 1_555
C25 C28 1_555 1_555
C26 C9 1_555 1_555
C27 C7 1_555 1_555
C28 C37 1_555 1_555
C29 C22 1_555 1_555
C30 C13 1_555 1_555
C31 C4 1_555 1_555
C32 C22 1_555 1_555
O7 C16 1_555 1_555
C33 O3 1_555 1_555
C34 C4 1_555 1_555
C35 C16 1_555 1_555
C36 C17 1_555 1_555
C37 C20 1_555 1_555
C38 C14 1_555 1_555
O8 C42 1_555 1_555
C39 C9 1_555 1_555
C40 C42 1_555 1_555
C41 C8 1_555 1_555
C42 O2 1_555 1_555
H1 C3 1_555 1_555
H2 C5 1_555 1_555
H3 C7 1_555 1_555
H4 C7 1_555 1_555
H5 C10 1_555 1_555
H6 C10 1_555 1_555
H7 C11 1_555 1_555
H8 C11 1_555 1_555
H10 C12 1_555 1_555
H11 C12 1_555 1_555
H12 C13 1_555 1_555
H13 C13 1_555 1_555
H14 C14 1_555 1_555
H15 C15 1_555 1_555
H16 C17 1_555 1_555
H17 C18 1_555 1_555
H18 C19 1_555 1_555
H19 C19 1_555 1_555
H20 C19 1_555 1_555
H21 C20 1_555 1_555
H22 C21 1_555 1_555
H23 C21 1_555 1_555
H24 C21 1_555 1_555
H26 C24 1_555 1_555
H27 C27 1_555 1_555
H28 C27 1_555 1_555
H29 C29 1_555 1_555
H30 C29 1_555 1_555
H31 C29 1_555 1_555
H32 C30 1_555 1_555
H33 C30 1_555 1_555
H34 C32 1_555 1_555
H35 C32 1_555 1_555
H36 C32 1_555 1_555
H37 C33 1_555 1_555
H38 C33 1_555 1_555
H39 C34 1_555 1_555
H40 C34 1_555 1_555
H41 C35 1_555 1_555
H42 C35 1_555 1_555
H43 C37 1_555 1_555
H44 C38 1_555 1_555
H45 C38 1_555 1_555
H46 C38 1_555 1_555
H47 C39 1_555 1_555
H48 C39 1_555 1_555
H49 C39 1_555 1_555
H50 C40 1_555 1_555
H51 C40 1_555 1_555
H52 C40 1_555 1_555
H53 C41 1_555 1_555
H54 C41 1_555 1_555
H55 C41 1_555 1_555
C6 C24 1_555 1_555
C6 C31 1_555 1_555
C10 C34 1_555 1_555
C14 C27 1_555 1_555
C25 C33 1_555 1_555
C30 C31 1_555 1_555

#END
