
#######################################################################
#
#                 Cambridge Crystallographic Data Centre
#                                CCDC 
#
#######################################################################
#
# If this CIF has been generated from an entry in the Cambridge 
# Structural Database, then it will include bibliographic, chemical, 
# crystal, experimental, refinement or atomic coordinate data resulting 
# from the CCDC's data processing and validation procedures.
#
#######################################################################

data_IWEFAT
_chemical_formula_moiety         'C28 H35 N5 O8 S2'
_chemical_name_systematic        
N-(3,5-dibutyl-2-methyl-6-(methyl((4-nitrophenyl)sulfonyl)amino)pyridin-4-yl)-N-methyl-4-nitrobenzenesulfonamide
_symmetry_cell_setting           monoclinic
_symmetry_space_group_name_H-M   'C c'
_symmetry_Int_Tables_number      9
_space_group_name_Hall           'C -2yc'
loop_
_symmetry_equiv_pos_site_id
_symmetry_equiv_pos_as_xyz
1 x,y,z
2 x,-y,1/2+z
3 1/2+x,1/2+y,z
4 1/2+x,1/2-y,1/2+z
_cell_length_a                   25.0463(3)
_cell_length_b                   9.42685(7)
_cell_length_c                   27.7359(3)
_cell_angle_alpha                90
_cell_angle_beta                 113.7061(12)
_cell_angle_gamma                90
_cell_volume                     5996.08
_exptl_crystal_colour            colorless
_exptl_crystal_description       block
_cell_formula_units_Z            8
loop_
_atom_site_label
_atom_site_type_symbol
_atom_site_fract_x
_atom_site_fract_y
_atom_site_fract_z
S1 S 0.48294(2) 0.94746(5) 0.47689(2)
S2 S 0.44787(2) 0.35983(5) 0.29712(2)
O1 O 0.49185(8) 1.01562(17) 0.43459(6)
O2 O 0.43822(8) 0.99514(18) 0.49284(7)
O3 O 0.75047(12) 1.0416(3) 0.66037(11)
O4 O 0.70511(13) 0.9864(3) 0.71062(9)
O5 O 0.50047(8) 0.29356(17) 0.33246(7)
O6 O 0.42385(9) 0.32727(19) 0.24190(7)
O7 O 0.28344(9) 0.20806(19) 0.42693(7)
O8 O 0.21688(8) 0.2842(2) 0.35419(8)
N1 N 0.55446(9) 0.7209(2) 0.44874(8)
N2 N 0.46924(9) 0.78084(19) 0.46032(8)
N3 N 0.45830(9) 0.53163(19) 0.30148(8)
N4 N 0.70640(13) 1.0083(3) 0.66729(11)
N5 N 0.26755(9) 0.2563(2) 0.38229(8)
C1 C 0.49678(10) 0.7173(2) 0.42891(9)
C2 C 0.46120(11) 0.6563(2) 0.38073(9)
C3 C 0.49091(10) 0.5961(2) 0.35239(9)
C4 C 0.55168(11) 0.6016(2) 0.37083(10)
C5 C 0.58219(11) 0.6662(2) 0.42021(10)
C6 C 0.64778(11) 0.6774(3) 0.44491(10)
H1 H 0.6610 0.7328 0.4219
H2 H 0.6648 0.5822 0.4497
H3 H 0.6601 0.7246 0.4792
C7 C 0.45106(11) 0.6887(3) 0.49370(9)
H4 H 0.4842 0.6724 0.5273
H5 H 0.4374 0.5977 0.4759
H6 H 0.4194 0.7344 0.5002
C8 C 0.42108(12) 0.6223(3) 0.25739(9)
H7 H 0.4272 0.5979 0.2257
H8 H 0.4312 0.7221 0.2663
H9 H 0.3801 0.6071 0.2509
C9 C 0.54960(11) 0.9602(2) 0.53382(9)
C10 C 0.54830(13) 0.9616(2) 0.58334(10)
H10 H 0.5124 0.9522 0.5871
C11 C 0.60019(14) 0.9771(3) 0.62725(10)
H11 H 0.6005 0.9776 0.6616
C12 C 0.65141(13) 0.9917(3) 0.62009(11)
C13 C 0.65363(13) 0.9920(3) 0.57115(11)
H12 H 0.6895 1.0036 0.5675
C14 C 0.60168(12) 0.9747(3) 0.52751(10)
H13 H 0.6016 0.9727 0.4932
C15 C 0.39404(11) 0.3227(2) 0.32134(9)
C16 C 0.41144(11) 0.2767(2) 0.37289(9)
H14 H 0.4515 0.2610 0.3941
C17 C 0.36969(11) 0.2539(2) 0.39324(9)
H15 H 0.3804 0.2198 0.4281
C18 C 0.31226(11) 0.2824(2) 0.36117(9)
C19 C 0.29387(11) 0.3287(2) 0.30949(10)
H16 H 0.2538 0.3470 0.2887
C20 C 0.33545(11) 0.3477(2) 0.28906(10)
H17 H 0.3244 0.3772 0.2536
C21 C 0.39572(10) 0.6626(2) 0.36058(9)
H18 H 0.3841 0.6334 0.3892
H19 H 0.3789 0.5932 0.3316
C22 C 0.36941(10) 0.8093(2) 0.34049(10)
H20 H 0.3790 0.8752 0.3706
H21 H 0.3864 0.8478 0.3166
C23 C 0.30350(11) 0.7986(3) 0.31127(9)
H22 H 0.2943 0.7487 0.2774
H23 H 0.2877 0.7412 0.3324
C24 C 0.27392(12) 0.9426(3) 0.30043(10)
H24 H 0.2886 0.9990 0.2786
H25 H 0.2824 0.9918 0.3338
H26 H 0.2317 0.9300 0.2818
C25 C 0.58343(11) 0.5520(2) 0.33783(10)
H27 H 0.5644 0.4652 0.3184
H28 H 0.6241 0.5279 0.3612
C26 C 0.58354(10) 0.6657(2) 0.29853(9)
H29 H 0.5428 0.6939 0.2767
H30 H 0.6044 0.7506 0.3181
C27 C 0.61236(12) 0.6150(3) 0.26265(10)
H31 H 0.5899 0.5341 0.2414
H32 H 0.6522 0.5807 0.2846
C28 C 0.61625(13) 0.7306(3) 0.22574(10)
H33 H 0.5769 0.7588 0.2016
H34 H 0.6375 0.6944 0.2054
H35 H 0.6369 0.8130 0.2464
S3 S 0.24595(2) 0.59112(6) 0.44235(2)
S4 S 0.27960(2) 1.14500(5) 0.63320(2)
O9 O 0.24211(8) 0.51117(17) 0.48462(6)
O10 O 0.28930(8) 0.55762(19) 0.42259(7)
O11 O -0.02411(10) 0.4824(2) 0.26705(10)
O12 O 0.01568(12) 0.5494(3) 0.21443(9)
O13 O 0.22712(8) 1.20988(17) 0.59748(7)
O14 O 0.30197(9) 1.1738(2) 0.68844(7)
O15 O 0.44999(9) 1.3441(2) 0.51349(8)
O16 O 0.51542(8) 1.2635(2) 0.58645(8)
N6 N 0.17257(9) 0.79808(19) 0.47754(8)
N7 N 0.25729(9) 0.7563(2) 0.46185(8)
N8 N 0.27168(9) 0.9731(2) 0.62663(8)
N9 N 0.01690(12) 0.5269(2) 0.25863(10)
N10 N 0.46478(9) 1.2892(2) 0.55697(9)
C29 C 0.23046(11) 0.8066(2) 0.49599(9)
C30 C 0.26678(11) 0.8625(2) 0.54469(9)
C31 C 0.23801(11) 0.9119(2) 0.57565(9)
C32 C 0.17745(11) 0.8946(2) 0.55935(9)
C33 C 0.14636(11) 0.8388(2) 0.50892(10)
C34 C 0.08100(11) 0.8223(3) 0.48532(10)
H36 H 0.0628 0.9129 0.4701
H37 H 0.0680 0.7935 0.5128
H38 H 0.0697 0.7498 0.4577
C35 C 0.26465(13) 0.8616(3) 0.42599(10)
H39 H 0.2929 0.8263 0.4126
H40 H 0.2789 0.9508 0.4450
H41 H 0.2271 0.8781 0.3965
C36 C 0.30590(12) 0.8790(3) 0.67075(10)
H42 H 0.3418 0.8506 0.6673
H43 H 0.2829 0.7944 0.6701
H44 H 0.3157 0.9294 0.7041
C37 C 0.17750(11) 0.5796(2) 0.38771(9)
C38 C 0.17410(12) 0.6036(3) 0.33710(10)
H45 H 0.2080 0.6287 0.3316
C39 C 0.12080(13) 0.5903(3) 0.29484(10)
H46 H 0.1173 0.6077 0.2600
C40 C 0.07289(12) 0.5515(2) 0.30427(10)
C41 C 0.07496(12) 0.5280(2) 0.35410(10)
H47 H 0.0410 0.5021 0.3593
C42 C 0.12843(11) 0.5435(2) 0.39645(10)
H48 H 0.1314 0.5295 0.4314
C43 C 0.33462(11) 1.1924(2) 0.61111(9)
C44 C 0.31897(11) 1.2552(2) 0.56194(10)
H49 H 0.2792 1.2758 0.5408
C45 C 0.36186(11) 1.2875(2) 0.54396(10)
H50 H 0.3522 1.3321 0.5108
C46 C 0.41884(11) 1.2533(2) 0.57554(10)
C47 C 0.43535(11) 1.1905(2) 0.62470(9)
H51 H 0.4751 1.1684 0.6453
C48 C 0.39267(11) 1.1610(2) 0.64286(9)
H52 H 0.4027 1.1196 0.6766
C49 C 0.33223(11) 0.8604(2) 0.56338(9)
H53 H 0.3493 0.9295 0.5925
H54 H 0.3427 0.8911 0.5342
C50 C 0.35909(10) 0.7133(2) 0.58264(9)
H55 H 0.3370 0.6652 0.6006
H56 H 0.3560 0.6547 0.5520
C51 C 0.42327(11) 0.7261(3) 0.62068(10)
H57 H 0.4447 0.7789 0.6031
H58 H 0.4259 0.7814 0.6519
C52 C 0.45205(12) 0.5831(3) 0.63853(10)
H59 H 0.4540 0.5327 0.6084
H60 H 0.4292 0.5273 0.6532
H61 H 0.4916 0.5969 0.6655
C53 C 0.14794(11) 0.9255(2) 0.59650(10)
H62 H 0.1785 0.9394 0.6323
H63 H 0.1250 0.8411 0.5976
C54 C 0.10750(11) 1.0551(2) 0.58252(10)
H64 H 0.1281 1.1375 0.5758
H65 H 0.0726 1.0354 0.5499
C55 C 0.08843(11) 1.0913(3) 0.62680(10)
H66 H 0.0699 1.0067 0.6346
H67 H 0.0588 1.1675 0.6146
C56 C 0.13851(13) 1.1396(3) 0.67740(10)
H68 H 0.1603 1.2154 0.6692
H69 H 0.1646 1.0594 0.6932
H70 H 0.1228 1.1751 0.7022
loop_
_geom_bond_atom_site_label_1
_geom_bond_atom_site_label_2
_geom_bond_site_symmetry_1
_geom_bond_site_symmetry_2
S1 O1 1_555 1_555
S2 O5 1_555 1_555
O2 S1 1_555 1_555
O3 N4 1_555 1_555
O4 N4 1_555 1_555
O6 S2 1_555 1_555
O7 N5 1_555 1_555
O8 N5 1_555 1_555
N1 C1 1_555 1_555
N2 S1 1_555 1_555
N3 S2 1_555 1_555
N4 C12 1_555 1_555
N5 C18 1_555 1_555
C1 N2 1_555 1_555
C2 C1 1_555 1_555
C3 N3 1_555 1_555
C4 C3 1_555 1_555
C5 N1 1_555 1_555
C6 C5 1_555 1_555
H1 C6 1_555 1_555
H2 C6 1_555 1_555
H3 C6 1_555 1_555
C7 N2 1_555 1_555
H4 C7 1_555 1_555
H5 C7 1_555 1_555
H6 C7 1_555 1_555
C8 N3 1_555 1_555
H7 C8 1_555 1_555
H8 C8 1_555 1_555
H9 C8 1_555 1_555
C9 S1 1_555 1_555
C10 C9 1_555 1_555
H10 C10 1_555 1_555
C11 C10 1_555 1_555
H11 C11 1_555 1_555
C12 C11 1_555 1_555
C13 C12 1_555 1_555
H12 C13 1_555 1_555
C14 C9 1_555 1_555
H13 C14 1_555 1_555
C15 S2 1_555 1_555
C16 C15 1_555 1_555
H14 C16 1_555 1_555
C17 C16 1_555 1_555
H15 C17 1_555 1_555
C18 C17 1_555 1_555
C19 C18 1_555 1_555
H16 C19 1_555 1_555
C20 C15 1_555 1_555
H17 C20 1_555 1_555
C21 C2 1_555 1_555
H18 C21 1_555 1_555
H19 C21 1_555 1_555
C22 C21 1_555 1_555
H20 C22 1_555 1_555
H21 C22 1_555 1_555
C23 C22 1_555 1_555
H22 C23 1_555 1_555
H23 C23 1_555 1_555
C24 C23 1_555 1_555
H24 C24 1_555 1_555
H25 C24 1_555 1_555
H26 C24 1_555 1_555
C25 C4 1_555 1_555
H27 C25 1_555 1_555
H28 C25 1_555 1_555
C26 C25 1_555 1_555
H29 C26 1_555 1_555
H30 C26 1_555 1_555
C27 C26 1_555 1_555
H31 C27 1_555 1_555
H32 C27 1_555 1_555
C28 C27 1_555 1_555
H33 C28 1_555 1_555
H34 C28 1_555 1_555
H35 C28 1_555 1_555
S3 O9 1_555 1_555
S4 O13 1_555 1_555
O10 S3 1_555 1_555
O11 N9 1_555 1_555
O12 N9 1_555 1_555
O14 S4 1_555 1_555
O15 N10 1_555 1_555
O16 N10 1_555 1_555
N6 C29 1_555 1_555
N7 S3 1_555 1_555
N8 S4 1_555 1_555
N9 C40 1_555 1_555
N10 C46 1_555 1_555
C29 N7 1_555 1_555
C30 C29 1_555 1_555
C31 N8 1_555 1_555
C32 C31 1_555 1_555
C33 N6 1_555 1_555
C34 C33 1_555 1_555
H36 C34 1_555 1_555
H37 C34 1_555 1_555
H38 C34 1_555 1_555
C35 N7 1_555 1_555
H39 C35 1_555 1_555
H40 C35 1_555 1_555
H41 C35 1_555 1_555
C36 N8 1_555 1_555
H42 C36 1_555 1_555
H43 C36 1_555 1_555
H44 C36 1_555 1_555
C37 S3 1_555 1_555
C38 C37 1_555 1_555
H45 C38 1_555 1_555
C39 C38 1_555 1_555
H46 C39 1_555 1_555
C40 C39 1_555 1_555
C41 C40 1_555 1_555
H47 C41 1_555 1_555
C42 C37 1_555 1_555
H48 C42 1_555 1_555
C43 S4 1_555 1_555
C44 C43 1_555 1_555
H49 C44 1_555 1_555
C45 C44 1_555 1_555
H50 C45 1_555 1_555
C46 C45 1_555 1_555
C47 C46 1_555 1_555
H51 C47 1_555 1_555
C48 C43 1_555 1_555
H52 C48 1_555 1_555
C49 C30 1_555 1_555
H53 C49 1_555 1_555
H54 C49 1_555 1_555
C50 C49 1_555 1_555
H55 C50 1_555 1_555
H56 C50 1_555 1_555
C51 C50 1_555 1_555
H57 C51 1_555 1_555
H58 C51 1_555 1_555
C52 C51 1_555 1_555
H59 C52 1_555 1_555
H60 C52 1_555 1_555
H61 C52 1_555 1_555
C53 C32 1_555 1_555
H62 C53 1_555 1_555
H63 C53 1_555 1_555
C54 C53 1_555 1_555
H64 C54 1_555 1_555
H65 C54 1_555 1_555
C55 C54 1_555 1_555
H66 C55 1_555 1_555
H67 C55 1_555 1_555
C56 C55 1_555 1_555
H68 C56 1_555 1_555
H69 C56 1_555 1_555
H70 C56 1_555 1_555
C2 C3 1_555 1_555
C4 C5 1_555 1_555
C13 C14 1_555 1_555
C19 C20 1_555 1_555
C30 C31 1_555 1_555
C32 C33 1_555 1_555
C41 C42 1_555 1_555
C47 C48 1_555 1_555

#END
