
#######################################################################
#
#                 Cambridge Crystallographic Data Centre
#                                CCDC 
#
#######################################################################
#
# If this CIF has been generated from an entry in the Cambridge 
# Structural Database, then it will include bibliographic, chemical, 
# crystal, experimental, refinement or atomic coordinate data resulting 
# from the CCDC's data processing and validation procedures.
#
#######################################################################

data_IWEJEB
_chemical_formula_moiety         'C38 H30 P2'
_chemical_name_systematic        1,2,3,3,4,4-hexaphenyl-1,2-diphosphetane
_symmetry_cell_setting           trigonal
_symmetry_space_group_name_H-M   'P 32'
_symmetry_Int_Tables_number      145
_space_group_name_Hall           'P 32'
loop_
_symmetry_equiv_pos_site_id
_symmetry_equiv_pos_as_xyz
1 x,y,z
2 -y,x-y,2/3+z
3 -x+y,-x,1/3+z
_cell_length_a                   12.217(5)
_cell_length_b                   12.217(5)
_cell_length_c                   16.561(5)
_cell_angle_alpha                90
_cell_angle_beta                 90
_cell_angle_gamma                120
_cell_volume                     2140.65
_exptl_crystal_colour            yellowish
_exptl_crystal_description       blocks
_cell_formula_units_Z            3
_chemical_properties_physical    Air-sensitive,Moisture-sensitive
loop_
_atom_site_label
_atom_site_type_symbol
_atom_site_fract_x
_atom_site_fract_y
_atom_site_fract_z
P1 P 0.49997(6) 0.54621(6) 0.01357(4)
P2 P 0.58377(6) 0.63512(6) 0.12946(4)
C1 C 0.8458(2) 0.7940(2) 0.09449(16)
C2 C 0.5928(3) 0.6464(3) -0.15893(16)
H1 H 0.5267 0.5657 -0.1472
C3 C 0.7835(2) 0.8316(2) -0.12180(15)
H2 H 0.8478 0.8767 -0.0847
C4 C 0.6842(2) 0.7118(2) -0.10067(15)
C5 C 0.5974(3) 0.6981(3) -0.23425(16)
H3 H 0.5349 0.6517 -0.2722
C6 C 0.6712(3) 1.0756(3) 0.00403(16)
H4 H 0.6616 1.1449 -0.0070
C7 C 0.5774(3) 0.9545(3) -0.01663(16)
H5 H 0.5042 0.9426 -0.0418
C8 C 0.7154(2) 0.7508(2) 0.05703(15)
C9 C 0.7000(2) 0.8652(2) 0.03806(15)
C10 C 0.4305(3) 0.3267(3) 0.10409(16)
H6 H 0.4250 0.3719 0.1475
C11 C 0.7881(3) 0.8846(3) -0.19657(16)
H7 H 0.8543 0.9650 -0.2088
C12 C 0.7929(2) 0.9874(2) 0.05892(15)
H8 H 0.8655 0.9998 0.0852
C13 C 0.4691(2) 0.3849(2) 0.02911(16)
C14 C 0.7549(2) 0.5168(2) 0.05152(16)
H9 H 0.7284 0.5321 0.1008
C15 C 0.4741(3) 0.3142(3) -0.03598(17)
H10 H 0.4958 0.3506 -0.0870
C16 C 0.7428(2) 0.5743(2) -0.01842(16)
C17 C 0.6940(3) 0.8179(3) -0.25345(17)
H11 H 0.6961 0.8533 -0.3035
C18 C 0.9812(3) 0.8649(3) 0.21326(17)
H12 H 0.9899 0.8790 0.2687
C19 C 0.8635(3) 0.8168(3) 0.17717(16)
H13 H 0.7941 0.7991 0.2093
C20 C 0.5914(2) 0.8513(2) -0.00028(15)
H14 H 0.5276 0.7710 -0.0150
C21 C 0.8457(3) 0.4143(3) -0.02418(17)
H15 H 0.8789 0.3605 -0.0261
C22 C 1.0697(3) 0.8689(3) 0.08409(19)
H16 H 1.1392 0.8862 0.0522
C23 C 0.8054(3) 0.4379(3) 0.04880(17)
H17 H 0.8124 0.4005 0.0959
C24 C 0.4097(3) 0.1343(3) 0.05021(18)
H18 H 0.3911 0.0513 0.0574
C25 C 0.6770(2) 0.6528(2) -0.01791(15)
C26 C 0.9517(3) 0.8207(3) 0.04835(16)
H19 H 0.9432 0.8059 -0.0070
C27 C 0.4001(3) 0.2017(3) 0.11488(18)
H20 H 0.3735 0.1633 0.1651
C28 C 1.0857(3) 0.8920(3) 0.16644(18)
H21 H 1.1653 0.9250 0.1898
C29 C 0.7854(3) 0.5502(2) -0.09091(16)
H22 H 0.7796 0.5881 -0.1382
C30 C 0.3800(3) 0.6862(3) 0.13055(18)
H23 H 0.3480 0.6344 0.0854
C31 C 0.4936(2) 0.7085(2) 0.16413(15)
C32 C 0.5385(3) 0.7859(3) 0.23202(18)
H24 H 0.6134 0.8006 0.2561
C33 C 0.8361(3) 0.4712(3) -0.09386(18)
H25 H 0.8637 0.4563 -0.1428
C34 C 0.4470(3) 0.1912(3) -0.02498(18)
H26 H 0.4537 0.1462 -0.0681
C35 C 0.7793(3) 1.0912(3) 0.04134(17)
H27 H 0.8435 1.1719 0.0548
C36 C 0.3138(3) 0.7403(3) 0.16370(19)
H28 H 0.2374 0.7237 0.1411
C37 C 0.3607(3) 0.8181(3) 0.22965(18)
H29 H 0.3168 0.8554 0.2512
C38 C 0.4736(3) 0.8412(3) 0.26415(19)
H30 H 0.5056 0.8939 0.3089
loop_
_geom_bond_atom_site_label_1
_geom_bond_atom_site_label_2
_geom_bond_site_symmetry_1
_geom_bond_site_symmetry_2
P1 P2 1_555 1_555
P2 C8 1_555 1_555
C1 C8 1_555 1_555
C2 H1 1_555 1_555
C3 H2 1_555 1_555
C4 C2 1_555 1_555
C5 C2 1_555 1_555
H3 C5 1_555 1_555
C6 H4 1_555 1_555
C7 C6 1_555 1_555
H5 C7 1_555 1_555
C8 C9 1_555 1_555
C9 C12 1_555 1_555
C10 H6 1_555 1_555
C11 C3 1_555 1_555
H7 C11 1_555 1_555
C12 H8 1_555 1_555
C13 P1 1_555 1_555
C14 H9 1_555 1_555
C15 C13 1_555 1_555
H10 C15 1_555 1_555
C16 C14 1_555 1_555
C17 C5 1_555 1_555
H11 C17 1_555 1_555
C18 H12 1_555 1_555
C19 C1 1_555 1_555
H13 C19 1_555 1_555
C20 C7 1_555 1_555
H14 C20 1_555 1_555
C21 H15 1_555 1_555
C22 H16 1_555 1_555
C23 C14 1_555 1_555
H17 C23 1_555 1_555
C24 H18 1_555 1_555
C25 P1 1_555 1_555
C26 C1 1_555 1_555
H19 C26 1_555 1_555
C27 C10 1_555 1_555
H20 C27 1_555 1_555
C28 C18 1_555 1_555
H21 C28 1_555 1_555
C29 C16 1_555 1_555
H22 C29 1_555 1_555
C30 H23 1_555 1_555
C31 P2 1_555 1_555
C32 C31 1_555 1_555
H24 C32 1_555 1_555
C33 C21 1_555 1_555
H25 C33 1_555 1_555
C34 C15 1_555 1_555
H26 C34 1_555 1_555
C35 C6 1_555 1_555
H27 C35 1_555 1_555
C36 C30 1_555 1_555
H28 C36 1_555 1_555
C37 C36 1_555 1_555
H29 C37 1_555 1_555
C38 C32 1_555 1_555
H30 C38 1_555 1_555
C3 C4 1_555 1_555
C4 C25 1_555 1_555
C8 C25 1_555 1_555
C9 C20 1_555 1_555
C10 C13 1_555 1_555
C11 C17 1_555 1_555
C12 C35 1_555 1_555
C16 C25 1_555 1_555
C18 C19 1_555 1_555
C21 C23 1_555 1_555
C22 C26 1_555 1_555
C22 C28 1_555 1_555
C24 C27 1_555 1_555
C24 C34 1_555 1_555
C29 C33 1_555 1_555
C30 C31 1_555 1_555
C37 C38 1_555 1_555

#END
