
#######################################################################
#
#                 Cambridge Crystallographic Data Centre
#                                CCDC 
#
#######################################################################
#
# If this CIF has been generated from an entry in the Cambridge 
# Structural Database, then it will include bibliographic, chemical, 
# crystal, experimental, refinement or atomic coordinate data resulting 
# from the CCDC's data processing and validation procedures.
#
#######################################################################

data_IWEMUU
_chemical_formula_moiety         'C17 H18 F1 N1 O2 S1'
_chemical_name_systematic        
3-(3-fluorophenyl)-1-((4-methylphenyl)sulfonyl)pyrrolidine
_symmetry_cell_setting           monoclinic
_symmetry_space_group_name_H-M   'P 21'
_symmetry_Int_Tables_number      4
_space_group_name_Hall           'P 2yb'
loop_
_symmetry_equiv_pos_site_id
_symmetry_equiv_pos_as_xyz
1 x,y,z
2 -x,1/2+y,-z
_cell_length_a                   11.5096(16)
_cell_length_b                   6.0756(9)
_cell_length_c                   11.7447(17)
_cell_angle_alpha                90
_cell_angle_beta                 100.291(2)
_cell_angle_gamma                90
_cell_volume                     808.068
_exptl_crystal_colour            colorless
_exptl_crystal_description       bar
_cell_formula_units_Z            2
loop_
_atom_site_label
_atom_site_type_symbol
_atom_site_fract_x
_atom_site_fract_y
_atom_site_fract_z
S1 S 0.27154(7) 0.07090(17) 0.01072(6)
F1 F 0.6562(5) 0.1917(10) 0.6479(3)
O1 O 0.2712(2) -0.1627(5) -0.0012(2)
N1 N 0.3989(2) 0.1372(5) 0.0847(2)
C1 C 0.1639(3) 0.1417(6) 0.0937(2)
O2 O 0.2530(2) 0.2082(5) -0.08925(19)
C2 C 0.1135(3) 0.3470(6) 0.0832(3)
H1 H 0.1315 0.4676 0.0280
C3 C 0.0294(3) 0.4013(8) 0.1514(3)
H2 H -0.0133 0.5620 0.1378
C4 C -0.0015(3) 0.2564(8) 0.2287(3)
C5 C 0.0511(3) 0.0491(9) 0.2381(3)
H3 H 0.0297 -0.0438 0.2979
C6 C 0.1335(3) -0.0089(7) 0.1720(3)
H4 H 0.172(4) -0.145(8) 0.173(3)
C7 C -0.0904(5) 0.3197(12) 0.3031(4)
H5 H -0.1574 0.2233 0.2869
H6 H -0.1155 0.4688 0.2865
H7 H -0.0548 0.3074 0.3833
C8 C 0.4505(3) 0.0055(6) 0.1872(3)
H8 H 0.4019 -0.0081 0.2517
H9 H 0.4660 -0.1490 0.1530
C9 C 0.5653(3) 0.1304(7) 0.2289(3)
H10 H 0.619(3) 0.118(7) 0.179(3)
C10 C 0.5267(4) 0.3655(8) 0.2103(3)
H11 H 0.5952 0.4526 0.2132
H12 H 0.4985 0.4018 0.2712
C11 C 0.4315(3) 0.3705(7) 0.1035(3)
H13 H 0.3643 0.4478 0.1227
H14 H 0.4620 0.4278 0.0362
C12 C 0.6240(2) 0.0589(8) 0.3490(2)
C13 C 0.6930(4) -0.1250(8) 0.3613(3)
H15 H 0.711(4) -0.200(8) 0.296(4)
C14 C 0.7441(4) -0.1977(10) 0.4694(4)
H16 H 0.7901 -0.3291 0.4747
C15 C 0.7326(4) -0.0867(9) 0.5668(4)
H17 H 0.759(4) -0.154(9) 0.638(4)
C16 C 0.6664(3) 0.0923(9) 0.5542(3)
C17 C 0.6098(4) 0.1711(8) 0.4473(3)
H18 H 0.5512 0.2910 0.4416
F2? F 0.8120(9) -0.3607(16) 0.4882(7)
H19? H 0.6569 0.1656 0.6198
loop_
_geom_bond_atom_site_label_1
_geom_bond_atom_site_label_2
_geom_bond_site_symmetry_1
_geom_bond_site_symmetry_2
S1 O1 1_555 1_555
F1 C16 1_555 1_555
N1 S1 1_555 1_555
C1 S1 1_555 1_555
O2 S1 1_555 1_555
C2 C1 1_555 1_555
H1 C2 1_555 1_555
C3 C2 1_555 1_555
H2 C3 1_555 1_555
C4 C3 1_555 1_555
C5 C4 1_555 1_555
H3 C5 1_555 1_555
C6 C1 1_555 1_555
H4 C6 1_555 1_555
C7 C4 1_555 1_555
H5 C7 1_555 1_555
H6 C7 1_555 1_555
H7 C7 1_555 1_555
C8 N1 1_555 1_555
H8 C8 1_555 1_555
H9 C8 1_555 1_555
C9 C8 1_555 1_555
H10 C9 1_555 1_555
C10 C9 1_555 1_555
H11 C10 1_555 1_555
H12 C10 1_555 1_555
C11 N1 1_555 1_555
H13 C11 1_555 1_555
H14 C11 1_555 1_555
C12 C9 1_555 1_555
C13 C12 1_555 1_555
H15 C13 1_555 1_555
C14 C13 1_555 1_555
H16 C14 1_555 1_555
C15 C14 1_555 1_555
H17 C15 1_555 1_555
C16 C15 1_555 1_555
C17 C12 1_555 1_555
H18 C17 1_555 1_555
C5 C6 1_555 1_555
C10 C11 1_555 1_555
C16 C17 1_555 1_555

#END
