
#######################################################################
#
#                 Cambridge Crystallographic Data Centre
#                                CCDC 
#
#######################################################################
#
# If this CIF has been generated from an entry in the Cambridge 
# Structural Database, then it will include bibliographic, chemical, 
# crystal, experimental, refinement or atomic coordinate data resulting 
# from the CCDC's data processing and validation procedures.
#
#######################################################################

data_IWEYEQ
_chemical_compound_source        'club moss Lycopodium annotinum'
_chemical_name_common            'annotinolide B'
_chemical_formula_moiety         'C16 H21 N1 O2'
_chemical_name_systematic        
(1S,2S,10S,13R,16R)-16-methyl-14-oxa-6-azapentacyclo[8.7.0.0^1,6^.0^2,13^.0^10,16^]heptadec-8-en-15-one
_chemical_properties_biological  'antiaggregation activity'
_symmetry_cell_setting           orthorhombic
_symmetry_space_group_name_H-M   'P 21 21 21'
_symmetry_Int_Tables_number      19
_space_group_name_Hall           'P 2ac 2ab'
loop_
_symmetry_equiv_pos_site_id
_symmetry_equiv_pos_as_xyz
1 x,y,z
2 1/2-x,-y,1/2+z
3 -x,1/2+y,1/2-z
4 1/2+x,1/2-y,-z
_cell_length_a                   8.73130(10)
_cell_length_b                   10.04310(10)
_cell_length_c                   14.6801(2)
_cell_angle_alpha                90
_cell_angle_beta                 90
_cell_angle_gamma                90
_cell_volume                     1287.29
_exptl_crystal_colour            colorless
_exptl_crystal_description       block
_cell_formula_units_Z            4
_exptl_crystal_recrystallization_method methanol
loop_
_atom_site_label
_atom_site_type_symbol
_atom_site_fract_x
_atom_site_fract_y
_atom_site_fract_z
O1 O 1.02975(17) 0.58362(14) 0.90029(10)
O2 O 1.00563(14) 0.72069(14) 0.78546(9)
N1 N 0.52265(17) 0.78208(16) 0.70339(10)
C1 C 0.5295(2) 0.7410(2) 0.60714(12)
H1 H 0.4305 0.7614 0.5774
H2 H 0.5455 0.6435 0.6039
C2 C 0.6578(2) 0.8108(2) 0.55564(13)
H3 H 0.6348 0.9071 0.5515
H4 H 0.6635 0.7749 0.4929
C3 C 0.8128(2) 0.79155(19) 0.60292(13)
H5 H 0.8448 0.6971 0.5996
H6 H 0.8922 0.8469 0.5732
C4 C 0.7915(2) 0.83412(18) 0.70228(12)
H7 H 0.7479 0.9261 0.6991
C5 C 0.9353(2) 0.84729(18) 0.75973(13)
H8 H 1.0122 0.8971 0.7224
C6 C 0.9050(2) 0.9297(2) 0.84502(13)
H9 H 0.9042 1.0253 0.8285
H10 H 0.9895 0.9154 0.8889
C7 C 0.7514(2) 0.89413(19) 0.89136(12)
H11 H 0.7696 0.8818 0.9574
H12 H 0.6800 0.9700 0.8841
C8 C 0.9436(2) 0.64700(18) 0.85324(13)
C9 C 0.3890(2) 0.7226(2) 0.74674(14)
H13 H 0.3830 0.6275 0.7293
H14 H 0.2956 0.7672 0.7237
C10 C 0.3923(2) 0.7328(2) 0.84844(14)
H15 H 0.2983 0.7252 0.8806
C11 C 0.5197(2) 0.7520(2) 0.89618(13)
H16 H 0.5122 0.7553 0.9607
C12 C 0.6748(2) 0.7686(2) 0.85367(12)
C13 C 0.66771(19) 0.75036(17) 0.74845(13)
C14 C 0.7100(2) 0.60028(18) 0.76133(12)
H17 H 0.6204 0.5399 0.7607
H18 H 0.7905 0.5685 0.7191
C15 C 0.7702(2) 0.63277(18) 0.85882(13)
C16 C 0.7300(2) 0.5362(2) 0.93486(14)
H19 H 0.7848 0.4522 0.9254
H20 H 0.6195 0.5195 0.9346
H21 H 0.7600 0.5746 0.9936
loop_
_geom_bond_atom_site_label_1
_geom_bond_atom_site_label_2
_geom_bond_site_symmetry_1
_geom_bond_site_symmetry_2
O1 C8 1_555 1_555
O2 C5 1_555 1_555
N1 C1 1_555 1_555
C1 H1 1_555 1_555
H2 C1 1_555 1_555
C2 C1 1_555 1_555
H3 C2 1_555 1_555
H4 C2 1_555 1_555
C3 C2 1_555 1_555
H5 C3 1_555 1_555
H6 C3 1_555 1_555
C4 C3 1_555 1_555
H7 C4 1_555 1_555
C5 C4 1_555 1_555
H8 C5 1_555 1_555
C6 C5 1_555 1_555
H9 C6 1_555 1_555
H10 C6 1_555 1_555
C7 C6 1_555 1_555
H11 C7 1_555 1_555
H12 C7 1_555 1_555
C8 O2 1_555 1_555
C9 N1 1_555 1_555
H13 C9 1_555 1_555
H14 C9 1_555 1_555
C10 C9 1_555 1_555
H15 C10 1_555 1_555
C11 C10 1_555 1_555
H16 C11 1_555 1_555
C12 C7 1_555 1_555
C13 N1 1_555 1_555
C14 C13 1_555 1_555
H17 C14 1_555 1_555
H18 C14 1_555 1_555
C15 C8 1_555 1_555
C16 C15 1_555 1_555
H19 C16 1_555 1_555
H20 C16 1_555 1_555
H21 C16 1_555 1_555
C4 C13 1_555 1_555
C11 C12 1_555 1_555
C12 C13 1_555 1_555
C12 C15 1_555 1_555
C14 C15 1_555 1_555

#END
