
#######################################################################
#
#                 Cambridge Crystallographic Data Centre
#                                CCDC 
#
#######################################################################
#
# If this CIF has been generated from an entry in the Cambridge 
# Structural Database, then it will include bibliographic, chemical, 
# crystal, experimental, refinement or atomic coordinate data resulting 
# from the CCDC's data processing and validation procedures.
#
#######################################################################

data_IWIGEC
_chemical_formula_moiety         'C49 H51 B2 N1 O1'
_chemical_name_systematic        
3-(dimesitylboryl)-6,6-dimesityl-6H-[1]benzofuro[3',2':3,4][1,2]azoniaborolo[1,5-a]pyridinium-6-ide
_symmetry_cell_setting           monoclinic
_symmetry_space_group_name_H-M   'P 21/c'
_symmetry_Int_Tables_number      14
_space_group_name_Hall           '-P 2ybc'
loop_
_symmetry_equiv_pos_site_id
_symmetry_equiv_pos_as_xyz
1 x,y,z
2 -x,1/2+y,1/2-z
3 -x,-y,-z
4 x,1/2-y,1/2+z
_cell_length_a                   16.1594(16)
_cell_length_b                   17.0776(18)
_cell_length_c                   29.270(3)
_cell_angle_alpha                90
_cell_angle_beta                 95.021(8)
_cell_angle_gamma                90
_cell_volume                     8046.46
_exptl_crystal_colour            yellow
_exptl_crystal_description       block
_cell_formula_units_Z            8
loop_
_atom_site_label
_atom_site_type_symbol
_atom_site_fract_x
_atom_site_fract_y
_atom_site_fract_z
B1 B 0.2947(4) 0.9226(3) 0.10970(17)
B2 B 0.2235(4) 0.6502(3) 0.17987(17)
O1 O 0.4029(2) 0.64264(17) 0.26931(10)
N1 N 0.2816(3) 0.7299(2) 0.17479(11)
C1 C 0.2780(3) 0.6187(3) 0.22573(14)
C2 C 0.2940(3) 0.5553(3) 0.25914(14)
C3 C 0.2531(4) 0.4877(3) 0.27070(15)
H1 H 0.2018 0.4732 0.2545
C4 C 0.2881(4) 0.4420(3) 0.30613(16)
H2 H 0.2610 0.3952 0.3140
C5 C 0.3626(4) 0.4633(3) 0.33069(16)
H3 H 0.3851 0.4305 0.3549
C6 C 0.4043(4) 0.5306(3) 0.32064(15)
H4 H 0.4543 0.5461 0.3377
C7 C 0.3692(3) 0.5742(3) 0.28423(15)
C8 C 0.3457(3) 0.6646(3) 0.23407(15)
C9 C 0.3486(3) 0.7333(3) 0.20640(14)
C10 C 0.4045(3) 0.7955(3) 0.20790(15)
H5 H 0.4518 0.7967 0.2296
C11 C 0.3886(3) 0.8557(3) 0.17664(15)
H6 H 0.4265 0.8982 0.1765
C12 C 0.3183(3) 0.8555(3) 0.14530(14)
C13 C 0.2658(3) 0.7909(2) 0.14677(14)
H7 H 0.2162 0.7902 0.1268
C14 C 0.2328(3) 0.5833(3) 0.14102(14)
C15 C 0.2964(3) 0.5787(3) 0.11081(14)
C16 C 0.2931(4) 0.5217(3) 0.07665(16)
H8 H 0.3354 0.5209 0.0561
C17 C 0.2308(4) 0.4661(3) 0.07140(17)
C18 C 0.1726(4) 0.4663(3) 0.10306(16)
H9 H 0.1312 0.4266 0.1014
C19 C 0.1725(3) 0.5224(3) 0.13722(15)
C20 C 0.1035(3) 0.5161(3) 0.16876(17)
H10 H 0.0911 0.4607 0.1738
H11 H 0.0537 0.5423 0.1547
H12 H 0.1211 0.5410 0.1982
C21 C 0.2273(4) 0.4069(4) 0.0317(2)
H13 H 0.1700 0.4022 0.0180
H14 H 0.2469 0.3557 0.0434
H15 H 0.2630 0.4250 0.0085
C22 C 0.3711(3) 0.6322(3) 0.11384(16)
H16 H 0.4112 0.6133 0.0931
H17 H 0.3970 0.6326 0.1454
H18 H 0.3535 0.6854 0.1050
C23 C 0.1311(3) 0.6897(2) 0.18062(14)
C24 C 0.0819(3) 0.7086(3) 0.13934(15)
C25 C 0.0079(3) 0.7488(3) 0.14028(16)
H19 H -0.0233 0.7598 0.1120
C26 C -0.0234(3) 0.7739(3) 0.18048(16)
C27 C 0.0242(3) 0.7563(3) 0.22055(16)
H20 H 0.0055 0.7733 0.2488
C28 C 0.0984(4) 0.7146(3) 0.22158(15)
C29 C 0.1412(4) 0.6974(4) 0.26839(16)
H21 H 0.1069 0.7165 0.2920
H22 H 0.1953 0.7237 0.2716
H23 H 0.1492 0.6408 0.2719
C30 C 0.1048(4) 0.6863(3) 0.09170(14)
H24 H 0.0791 0.7234 0.0692
H25 H 0.0847 0.6333 0.0842
H26 H 0.1653 0.6880 0.0910
C31 C -0.1033(4) 0.8193(3) 0.1803(2)
H27 H -0.1205 0.8219 0.2116
H28 H -0.1465 0.7931 0.1603
H29 H -0.0948 0.8725 0.1690
C32 C 0.3688(3) 0.9702(2) 0.09258(14)
C33 C 0.3736(3) 1.0524(3) 0.09615(14)
C34 C 0.4439(4) 1.0920(3) 0.08404(16)
H30 H 0.4467 1.1472 0.0877
C35 C 0.5095(3) 1.0535(3) 0.06692(15)
C36 C 0.5031(3) 0.9730(3) 0.06150(15)
H31 H 0.5467 0.9455 0.0487
C37 C 0.4352(3) 0.9315(3) 0.07413(15)
C38 C 0.4354(4) 0.8433(3) 0.06637(17)
H32 H 0.4710 0.8308 0.0419
H33 H 0.3787 0.8254 0.0575
H34 H 0.4568 0.8169 0.0947
C39 C 0.3039(4) 1.0997(3) 0.11392(18)
H35 H 0.3186 1.1554 0.1142
H36 H 0.2952 1.0827 0.1451
H37 H 0.2527 1.0916 0.0939
C40 C 0.5869(4) 1.0959(3) 0.05640(19)
H38 H 0.5765 1.1524 0.0558
H39 H 0.6030 1.0790 0.0264
H40 H 0.6318 1.0838 0.0801
C41 C 0.2004(3) 0.9324(3) 0.09532(15)
C42 C 0.1690(3) 0.9271(3) 0.04844(16)
C43 C 0.0848(4) 0.9231(3) 0.03709(17)
H41 H 0.0653 0.9173 0.0057
C44 C 0.0270(4) 0.9271(3) 0.06942(19)
C45 C 0.0574(4) 0.9362(3) 0.11485(18)
H42 H 0.0192 0.9417 0.1375
C46 C 0.1414(3) 0.9377(3) 0.12808(16)
C47 C 0.1657(4) 0.9461(3) 0.17874(16)
H43 H 0.1329 0.9879 0.1912
H44 H 0.2249 0.9591 0.1837
H45 H 0.1552 0.8967 0.1943
C48 C 0.2274(4) 0.9246(3) 0.01073(16)
H46 H 0.1952 0.9288 -0.0192
H47 H 0.2581 0.8751 0.0124
H48 H 0.2666 0.9684 0.0146
C49 C -0.0650(4) 0.9192(4) 0.0564(2)
H49 H -0.0957 0.9390 0.0814
H50 H -0.0788 0.8639 0.0509
H51 H -0.0802 0.9494 0.0285
B3 B 0.7192(4) 0.5929(3) 0.17280(17)
B4 B 0.7954(4) 0.3215(3) 0.10137(17)
O2 O 0.9003(2) 0.60216(17) 0.26033(10)
N2 N 0.7781(2) 0.5141(2) 0.16666(11)
C50 C 0.7747(3) 0.6258(3) 0.21787(15)
C51 C 0.7908(3) 0.6875(3) 0.25224(15)
C52 C 0.7485(4) 0.7554(3) 0.26503(16)
H52 H 0.6974 0.7707 0.2490
C53 C 0.7838(4) 0.7989(3) 0.30164(17)
H53 H 0.7561 0.8446 0.3108
C54 C 0.8585(4) 0.7777(3) 0.32519(17)
H54 H 0.8811 0.8094 0.3498
C55 C 0.9006(4) 0.7115(3) 0.31363(16)
H55 H 0.9512 0.6959 0.3302
C56 C 0.8660(3) 0.6692(3) 0.27700(15)
C57 C 0.8428(3) 0.5807(3) 0.22482(15)
C58 C 0.8469(3) 0.5118(3) 0.19782(15)
C59 C 0.9032(3) 0.4506(3) 0.19848(15)
H56 H 0.9512 0.4503 0.2197
C60 C 0.8881(3) 0.3905(3) 0.16764(15)
H57 H 0.9271 0.3490 0.1670
C61 C 0.8162(3) 0.3892(3) 0.13704(15)
C62 C 0.7631(3) 0.4526(2) 0.13861(14)
H58 H 0.7134 0.4526 0.1187
C63 C 0.8709(3) 0.2716(3) 0.08789(16)
C64 C 0.9389(4) 0.3089(3) 0.06923(16)
C65 C 1.0095(4) 0.2659(3) 0.06151(17)
H59 H 1.0543 0.2910 0.0484
C66 C 1.0156(4) 0.1869(3) 0.07267(17)
C67 C 0.9479(4) 0.1506(3) 0.09004(17)
H60 H 0.9515 0.0965 0.0976
C68 C 0.8753(3) 0.1909(3) 0.09667(15)
C69 C 0.8040(4) 0.1482(3) 0.11417(17)
H61 H 0.8177 0.0924 0.1174
H62 H 0.7546 0.1545 0.0925
H63 H 0.7928 0.1695 0.1441
C70 C 0.9366(4) 0.3951(3) 0.0558(2)
H64 H 0.9720 0.4036 0.0307
H65 H 0.9570 0.4269 0.0823
H66 H 0.8794 0.4103 0.0458
C71 C 1.0953(4) 0.1423(4) 0.0676(2)
H67 H 1.0892 0.0883 0.0781
H68 H 1.1412 0.1676 0.0861
H69 H 1.1070 0.1422 0.0353
C72 C 0.6806(3) 0.3114(3) 0.03421(15)
C73 C 0.7026(3) 0.3106(3) 0.08184(16)
C74 C 0.6369(4) 0.3081(3) 0.11090(16)
C75 C 0.5550(4) 0.3076(3) 0.09307(17)
H70 H 0.5124 0.3036 0.1134
C76 C 0.5330(4) 0.3127(3) 0.04561(18)
C77 C 0.5982(4) 0.3132(3) 0.01769(17)
H71 H 0.5853 0.3150 -0.0146
C78 C 0.7447(4) 0.3112(3) 0.00024(16)
H72 H 0.7186 0.2964 -0.0300
H73 H 0.7885 0.2735 0.0099
H74 H 0.7689 0.3637 -0.0014
C79 C 0.6512(4) 0.3033(3) 0.16289(16)
H75 H 0.6171 0.2611 0.1741
H76 H 0.6356 0.3531 0.1764
H77 H 0.7099 0.2925 0.1717
C80 C 0.4437(4) 0.3163(4) 0.0274(2)
H78 H 0.4335 0.2785 0.0023
H79 H 0.4306 0.3692 0.0159
H80 H 0.4084 0.3036 0.0519
C81 C 0.6274(3) 0.5532(3) 0.17512(15)
C82 C 0.5796(3) 0.5284(3) 0.13466(15)
C83 C 0.5087(3) 0.4847(3) 0.13679(17)
H81 H 0.4793 0.4683 0.1089
C84 C 0.4780(3) 0.4635(3) 0.17788(17)
C85 C 0.5220(4) 0.4896(3) 0.21766(17)
H82 H 0.5019 0.4777 0.2464
C86 C 0.5946(3) 0.5326(3) 0.21676(16)
C87 C 0.6341(4) 0.5576(3) 0.26275(16)
H83 H 0.6019 0.5370 0.2869
H84 H 0.6354 0.6149 0.2644
H85 H 0.6910 0.5372 0.2670
C88 C 0.5989(4) 0.5497(3) 0.08644(15)
H86 H 0.5760 0.5096 0.0649
H87 H 0.6593 0.5526 0.0852
H88 H 0.5740 0.6006 0.0780
C89 C 0.3997(4) 0.4145(3) 0.1790(2)
H89 H 0.3902 0.4028 0.2109
H90 H 0.4062 0.3655 0.1623
H91 H 0.3522 0.4437 0.1645
C90 C 0.7260(3) 0.6602(3) 0.13286(14)
C91 C 0.7872(3) 0.6655(2) 0.10103(15)
C92 C 0.7831(3) 0.7247(3) 0.06855(15)
H92 H 0.8241 0.7261 0.0472
C93 C 0.7227(4) 0.7816(3) 0.06560(15)
C94 C 0.6655(3) 0.7797(3) 0.09763(15)
H93 H 0.6242 0.8193 0.0971
C95 C 0.6666(3) 0.7210(3) 0.13101(15)
C96 C 0.5986(3) 0.7261(3) 0.16368(16)
H94 H 0.5821 0.7809 0.1669
H95 H 0.6194 0.7053 0.1937
H96 H 0.5505 0.6953 0.1515
C97 C 0.8587(4) 0.6091(3) 0.10000(18)
H97 H 0.8996 0.6303 0.0804
H98 H 0.8382 0.5587 0.0877
H99 H 0.8849 0.6017 0.1312
C98 C 0.7192(4) 0.8447(3) 0.02852(18)
H100 H 0.7534 0.8287 0.0041
H101 H 0.7403 0.8941 0.0419
H102 H 0.6615 0.8517 0.0157
loop_
_geom_bond_atom_site_label_1
_geom_bond_atom_site_label_2
_geom_bond_site_symmetry_1
_geom_bond_site_symmetry_2
B1 C12 1_555 1_555
B2 N1 1_555 1_555
O1 C7 1_555 1_555
N1 C9 1_555 1_555
C1 B2 1_555 1_555
C2 C1 1_555 1_555
C3 C2 1_555 1_555
H1 C3 1_555 1_555
C4 C3 1_555 1_555
H2 C4 1_555 1_555
C5 C4 1_555 1_555
H3 C5 1_555 1_555
C6 C5 1_555 1_555
H4 C6 1_555 1_555
C7 C2 1_555 1_555
C8 O1 1_555 1_555
C9 C8 1_555 1_555
C10 C9 1_555 1_555
H5 C10 1_555 1_555
C11 C10 1_555 1_555
H6 C11 1_555 1_555
C12 C11 1_555 1_555
C13 N1 1_555 1_555
H7 C13 1_555 1_555
C14 B2 1_555 1_555
C15 C14 1_555 1_555
C16 C15 1_555 1_555
H8 C16 1_555 1_555
C17 C16 1_555 1_555
C18 C17 1_555 1_555
H9 C18 1_555 1_555
C19 C14 1_555 1_555
C20 C19 1_555 1_555
H10 C20 1_555 1_555
H11 C20 1_555 1_555
H12 C20 1_555 1_555
C21 C17 1_555 1_555
H13 C21 1_555 1_555
H14 C21 1_555 1_555
H15 C21 1_555 1_555
C22 C15 1_555 1_555
H16 C22 1_555 1_555
H17 C22 1_555 1_555
H18 C22 1_555 1_555
C23 B2 1_555 1_555
C24 C23 1_555 1_555
C25 C24 1_555 1_555
H19 C25 1_555 1_555
C26 C25 1_555 1_555
C27 C26 1_555 1_555
H20 C27 1_555 1_555
C28 C23 1_555 1_555
C29 C28 1_555 1_555
H21 C29 1_555 1_555
H22 C29 1_555 1_555
H23 C29 1_555 1_555
C30 C24 1_555 1_555
H24 C30 1_555 1_555
H25 C30 1_555 1_555
H26 C30 1_555 1_555
C31 C26 1_555 1_555
H27 C31 1_555 1_555
H28 C31 1_555 1_555
H29 C31 1_555 1_555
C32 B1 1_555 1_555
C33 C32 1_555 1_555
C34 C33 1_555 1_555
H30 C34 1_555 1_555
C35 C34 1_555 1_555
C36 C35 1_555 1_555
H31 C36 1_555 1_555
C37 C32 1_555 1_555
C38 C37 1_555 1_555
H32 C38 1_555 1_555
H33 C38 1_555 1_555
H34 C38 1_555 1_555
C39 C33 1_555 1_555
H35 C39 1_555 1_555
H36 C39 1_555 1_555
H37 C39 1_555 1_555
C40 C35 1_555 1_555
H38 C40 1_555 1_555
H39 C40 1_555 1_555
H40 C40 1_555 1_555
C41 B1 1_555 1_555
C42 C41 1_555 1_555
C43 C42 1_555 1_555
H41 C43 1_555 1_555
C44 C43 1_555 1_555
C45 C44 1_555 1_555
H42 C45 1_555 1_555
C46 C41 1_555 1_555
C47 C46 1_555 1_555
H43 C47 1_555 1_555
H44 C47 1_555 1_555
H45 C47 1_555 1_555
C48 C42 1_555 1_555
H46 C48 1_555 1_555
H47 C48 1_555 1_555
H48 C48 1_555 1_555
C49 C44 1_555 1_555
H49 C49 1_555 1_555
H50 C49 1_555 1_555
H51 C49 1_555 1_555
B3 N2 1_555 1_555
B4 C61 1_555 1_555
O2 C56 1_555 1_555
N2 C58 1_555 1_555
C50 B3 1_555 1_555
C51 C50 1_555 1_555
C52 C51 1_555 1_555
H52 C52 1_555 1_555
C53 C52 1_555 1_555
H53 C53 1_555 1_555
C54 C53 1_555 1_555
H54 C54 1_555 1_555
C55 C54 1_555 1_555
H55 C55 1_555 1_555
C56 C51 1_555 1_555
C57 O2 1_555 1_555
C58 C57 1_555 1_555
C59 C58 1_555 1_555
H56 C59 1_555 1_555
C60 C59 1_555 1_555
H57 C60 1_555 1_555
C61 C60 1_555 1_555
C62 N2 1_555 1_555
H58 C62 1_555 1_555
C63 B4 1_555 1_555
C64 C63 1_555 1_555
C65 C64 1_555 1_555
H59 C65 1_555 1_555
C66 C65 1_555 1_555
C67 C66 1_555 1_555
H60 C67 1_555 1_555
C68 C63 1_555 1_555
C69 C68 1_555 1_555
H61 C69 1_555 1_555
H62 C69 1_555 1_555
H63 C69 1_555 1_555
C70 C64 1_555 1_555
H64 C70 1_555 1_555
H65 C70 1_555 1_555
H66 C70 1_555 1_555
C71 C66 1_555 1_555
H67 C71 1_555 1_555
H68 C71 1_555 1_555
H69 C71 1_555 1_555
C72 C73 1_555 1_555
C73 B4 1_555 1_555
C74 C73 1_555 1_555
C75 C74 1_555 1_555
H70 C75 1_555 1_555
C76 C75 1_555 1_555
C77 C72 1_555 1_555
H71 C77 1_555 1_555
C78 C72 1_555 1_555
H72 C78 1_555 1_555
H73 C78 1_555 1_555
H74 C78 1_555 1_555
C79 C74 1_555 1_555
H75 C79 1_555 1_555
H76 C79 1_555 1_555
H77 C79 1_555 1_555
C80 C76 1_555 1_555
H78 C80 1_555 1_555
H79 C80 1_555 1_555
H80 C80 1_555 1_555
C81 B3 1_555 1_555
C82 C81 1_555 1_555
C83 C82 1_555 1_555
H81 C83 1_555 1_555
C84 C83 1_555 1_555
C85 C84 1_555 1_555
H82 C85 1_555 1_555
C86 C81 1_555 1_555
C87 C86 1_555 1_555
H83 C87 1_555 1_555
H84 C87 1_555 1_555
H85 C87 1_555 1_555
C88 C82 1_555 1_555
H86 C88 1_555 1_555
H87 C88 1_555 1_555
H88 C88 1_555 1_555
C89 C84 1_555 1_555
H89 C89 1_555 1_555
H90 C89 1_555 1_555
H91 C89 1_555 1_555
C90 B3 1_555 1_555
C91 C90 1_555 1_555
C92 C91 1_555 1_555
H92 C92 1_555 1_555
C93 C92 1_555 1_555
C94 C93 1_555 1_555
H93 C94 1_555 1_555
C95 C90 1_555 1_555
C96 C95 1_555 1_555
H94 C96 1_555 1_555
H95 C96 1_555 1_555
H96 C96 1_555 1_555
C97 C91 1_555 1_555
H97 C97 1_555 1_555
H98 C97 1_555 1_555
H99 C97 1_555 1_555
C98 C93 1_555 1_555
H100 C98 1_555 1_555
H101 C98 1_555 1_555
H102 C98 1_555 1_555
C1 C8 1_555 1_555
C6 C7 1_555 1_555
C12 C13 1_555 1_555
C18 C19 1_555 1_555
C27 C28 1_555 1_555
C36 C37 1_555 1_555
C45 C46 1_555 1_555
C50 C57 1_555 1_555
C55 C56 1_555 1_555
C61 C62 1_555 1_555
C67 C68 1_555 1_555
C76 C77 1_555 1_555
C85 C86 1_555 1_555
C94 C95 1_555 1_555

#END
