
#######################################################################
#
#                 Cambridge Crystallographic Data Centre
#                                CCDC 
#
#######################################################################
#
# If this CIF has been generated from an entry in the Cambridge 
# Structural Database, then it will include bibliographic, chemical, 
# crystal, experimental, refinement or atomic coordinate data resulting 
# from the CCDC's data processing and validation procedures.
#
#######################################################################

data_IWILIL
_chemical_formula_moiety         'C16 H38 Li1 N4 O1 1+,C18 H16 B1 1-'
_chemical_name_systematic        
"(N,N-bis(2-(dimethylamino)ethyl)-N',N'-dimethylethane-1,2-diamine)-(tetrahydrofuran)-lithium hydrido(triphenyl)borate"
_symmetry_cell_setting           triclinic
_symmetry_space_group_name_H-M   'P 1'
_symmetry_Int_Tables_number      1
_space_group_name_Hall           'P 1'
loop_
_symmetry_equiv_pos_site_id
_symmetry_equiv_pos_as_xyz
1 x,y,z
_cell_length_a                   11.970(2)
_cell_length_b                   12.297(2)
_cell_length_c                   17.763(3)
_cell_angle_alpha                80.063(5)
_cell_angle_beta                 76.452(5)
_cell_angle_gamma                82.123(6)
_cell_volume                     2490.96
_exptl_crystal_colour            colorless
_exptl_crystal_description       block
_cell_formula_units_Z            3
_chemical_properties_physical    
Air-sensitive,Moisture-sensitive,Hygroscopic,Oxygen-sensitive
loop_
_atom_site_label
_atom_site_type_symbol
_atom_site_fract_x
_atom_site_fract_y
_atom_site_fract_z
N1 N 0.4029(5) 0.4405(5) 0.2892(4)
N2 N 0.0859(5) 0.4254(5) 0.3956(4)
N3 N 0.2156(5) 0.2991(5) 0.1977(3)
N4 N 0.1936(5) 0.5227(5) 0.2370(3)
O1 O 0.3014(5) 0.2166(4) 0.3663(3)
Li1 Li 0.2448(10) 0.3631(10) 0.3037(7)
C1 C 0.4479(8) 0.4224(8) 0.3607(5)
H1 H 0.3863 0.4429 0.4045
H2 H 0.5116 0.4681 0.3535
H3 H 0.4761 0.3439 0.3721
C2 C 0.4937(7) 0.3959(7) 0.2275(5)
H4 H 0.5623 0.4355 0.2185
H5 H 0.4654 0.4057 0.1790
H6 H 0.5136 0.3167 0.2438
C3 C 0.1257(7) 0.4710(7) 0.4546(5)
H7 H 0.0596 0.5088 0.4875
H8 H 0.1817 0.5240 0.4285
H9 H 0.1623 0.4106 0.4872
C4 C 0.0020(7) 0.3435(7) 0.4355(5)
H10 H -0.0196 0.3081 0.3963
H11 H -0.0672 0.3818 0.4653
H12 H 0.0375 0.2869 0.4712
C5 C 0.2956(7) 0.2135(7) 0.1591(5)
H13 H 0.2672 0.1979 0.1150
H14 H 0.3007 0.1455 0.1967
H15 H 0.3723 0.2399 0.1399
C6 C 0.1022(7) 0.2570(7) 0.2279(5)
H16 H 0.1099 0.1880 0.2641
H17 H 0.0719 0.2427 0.1842
H18 H 0.0489 0.3124 0.2556
C7 C 0.3756(7) 0.5593(6) 0.2656(5)
H19 H 0.4482 0.5938 0.2422
H20 H 0.3365 0.5941 0.3125
C8 C 0.2982(7) 0.5812(7) 0.2068(5)
H21 H 0.2758 0.6620 0.1960
H22 H 0.3411 0.5560 0.1571
C9 C 0.0267(7) 0.5124(7) 0.3480(5)
H23 H -0.0301 0.5580 0.3830
H24 H -0.0165 0.4777 0.3188
C10 C 0.1064(7) 0.5866(6) 0.2910(5)
H25 H 0.0610 0.6432 0.2603
H26 H 0.1460 0.6257 0.3199
C11 C 0.2097(7) 0.3986(6) 0.1386(4)
H27 H 0.1702 0.3830 0.0991
H28 H 0.2892 0.4145 0.1115
C12 C 0.1472(7) 0.4995(6) 0.1725(4)
H29 H 0.1532 0.5645 0.1307
H30 H 0.0644 0.4886 0.1918
C13 C 0.3772(7) 0.1291(6) 0.3322(5)
H31 H 0.4338 0.1595 0.2858
H32 H 0.3330 0.0779 0.3163
C14 C 0.4381(7) 0.0695(7) 0.3967(5)
H33 H 0.5031 0.1091 0.4000
H34 H 0.4671 -0.0079 0.3886
C15 C 0.3403(7) 0.0737(7) 0.4693(5)
H35 H 0.2980 0.0070 0.4804
H36 H 0.3701 0.0798 0.5157
C16 C 0.2639(7) 0.1772(6) 0.4468(5)
H37 H 0.1827 0.1601 0.4575
H38 H 0.2678 0.2350 0.4784
N5 N 0.6592(6) 0.8650(6) 0.5931(4)
N6 N 0.4935(5) 0.6489(5) 0.5417(4)
N7 N 0.6336(7) 0.5984(6) 0.7314(4)
N8 N 0.7287(5) 0.6375(6) 0.5656(4)
O2 O 0.4138(5) 0.7682(5) 0.7039(4)
Li2 Li 0.5677(10) 0.7125(10) 0.6343(7)
C17 C 0.7031(8) 0.9027(8) 0.6534(5)
H39 H 0.7509 0.9636 0.6295
H40 H 0.7499 0.8411 0.6779
H41 H 0.6381 0.9288 0.6932
C18 C 0.5873(11) 0.9635(9) 0.5601(8)
H42 H 0.5578 0.9439 0.5177
H43 H 0.6348 1.0253 0.5396
H44 H 0.5223 0.9855 0.6014
C19 C 0.4711(12) 0.7395(8) 0.4811(6)
H45 H 0.4065 0.7908 0.5032
H46 H 0.4516 0.7096 0.4386
H47 H 0.5402 0.7790 0.4605
C20 C 0.3940(7) 0.5879(8) 0.5699(5)
H48 H 0.3788 0.5559 0.5269
H49 H 0.3268 0.6380 0.5901
H50 H 0.4085 0.5283 0.6118
C21 C 0.5778(16) 0.5012(16) 0.7421(12)
H51 H 0.5740 0.4838 0.6910
H52 H 0.4993 0.5129 0.7737
H53 H 0.6212 0.4393 0.7691
C22 C 0.6103(17) 0.6679(15) 0.8047(11)
H54 H 0.5309 0.7037 0.8133
H55 H 0.6644 0.7247 0.7930
H56 H 0.6216 0.6173 0.8520
C23 C 0.7508(8) 0.8381(8) 0.5286(6)
H57 H 0.8086 0.8922 0.5182
H58 H 0.7188 0.8449 0.4813
C24 C 0.8088(7) 0.7250(8) 0.5434(6)
H59 H 0.8660 0.7095 0.4968
H60 H 0.8493 0.7224 0.5851
C25 C 0.5952(12) 0.5555(12) 0.5168(9)
H61 H 0.5962 0.4937 0.5606
H62 H 0.5833 0.5257 0.4713
C26 C 0.7024(8) 0.6037(10) 0.4970(6)
H63 H 0.6983 0.6692 0.4562
H64 H 0.7653 0.5491 0.4752
C27 C 0.7570(10) 0.5645(10) 0.6981(8)
H65 H 0.8045 0.6243 0.6984
H66 H 0.7841 0.4970 0.7308
C28 C 0.7717(8) 0.5418(7) 0.6168(6)
H67 H 0.8546 0.5220 0.5951
H68 H 0.7298 0.4775 0.6175
C29 C 0.314(3) 0.778(3) 0.6955(17)
H69 H 0.2955 0.7084 0.6821
H70 H 0.3022 0.8392 0.6531
C30 C 0.231(2) 0.805(2) 0.7796(15)
H71 H 0.1680 0.8632 0.7713
H72 H 0.1977 0.7373 0.8102
C31 C 0.3030(16) 0.8397(18) 0.8163(12)
H73 H 0.3070 0.7892 0.8657
H74 H 0.2740 0.9151 0.8293
C32 C 0.419(2) 0.841(2) 0.7643(15)
H75 H 0.4797 0.8103 0.7935
H76 H 0.4337 0.9177 0.7389
N9 N 0.7114(5) 0.1148(5) 0.0602(4)
N10 N 1.0177(6) 0.1676(6) -0.0567(4)
N11 N 0.8401(6) -0.0105(5) -0.1394(4)
N12 N 0.7983(6) 0.2146(5) -0.1023(4)
O3 O 0.9430(5) -0.0685(4) 0.0230(3)
Li3 Li 0.8720(11) 0.0677(10) -0.0352(7)
C40 C 0.6379(8) 0.0278(8) 0.1053(6)
H95 H 0.5738 0.0610 0.1424
H96 H 0.6840 -0.0293 0.1340
H97 H 0.6071 -0.0060 0.0693
C41 C 0.7509(7) 0.1692(7) 0.1161(5)
H98 H 0.6837 0.2035 0.1504
H99 H 0.8006 0.2264 0.0871
H100 H 0.7944 0.1138 0.1478
C42 C 1.0691(8) 0.1700(9) 0.0108(5)
H101 H 1.0084 0.1924 0.0545
H102 H 1.1271 0.2232 -0.0039
H103 H 1.1057 0.0960 0.0266
C43 C 1.1083(7) 0.1195(8) -0.1176(5)
H104 H 1.1630 0.1742 -0.1428
H105 H 1.0725 0.0995 -0.1570
H106 H 1.1493 0.0531 -0.0935
C44 C 0.9215(7) -0.0909(8) -0.1822(5)
H107 H 0.8891 -0.1089 -0.2238
H108 H 0.9353 -0.1586 -0.1460
H109 H 0.9947 -0.0588 -0.2053
C45 C 0.7370(7) -0.0651(7) -0.1003(5)
H110 H 0.7566 -0.1267 -0.0611
H111 H 0.7067 -0.0937 -0.1390
H112 H 0.6783 -0.0117 -0.0746
C46 C 0.6403(8) 0.1966(8) 0.0150(6)
H113 H 0.5845 0.2409 0.0513
H114 H 0.5958 0.1565 -0.0099
C47 C 0.7117(8) 0.2740(7) -0.0476(6)
H115 H 0.6599 0.3252 -0.0768
H116 H 0.7506 0.3193 -0.0224
C48 C 0.9773(8) 0.2789(7) -0.0862(5)
H117 H 0.9377 0.3168 -0.0423
H118 H 1.0427 0.3188 -0.1143
C49 C 0.8955(8) 0.2812(7) -0.1398(5)
H119 H 0.8648 0.3590 -0.1547
H120 H 0.9383 0.2521 -0.1882
C50 C 0.8165(8) 0.0859(7) -0.1979(5)
H121 H 0.7740 0.0631 -0.2332
H122 H 0.8908 0.1101 -0.2300
C51 C 0.7473(8) 0.1819(7) -0.1612(5)
H123 H 0.7408 0.2461 -0.2026
H124 H 0.6684 0.1617 -0.1364
C52 C 1.0232(7) -0.1510(7) -0.0172(5)
H125 H 1.0654 -0.1168 -0.0688
H126 H 0.9821 -0.2114 -0.0249
C53 C 1.1046(7) -0.1941(7) 0.0368(5)
H127 H 1.1632 -0.1423 0.0320
H128 H 1.1439 -0.2682 0.0270
C54 C 1.0195(7) -0.2000(6) 0.1175(5)
H129 H 0.9831 -0.2704 0.1308
H130 H 1.0592 -0.1935 0.1593
C55 C 0.9317(7) -0.1028(7) 0.1068(4)
H131 H 0.8529 -0.1239 0.1311
H132 H 0.9457 -0.0413 0.1317
B1 B 0.0828(7) 0.9615(8) 0.3735(5)
H133 H 0.095(5) 1.055(5) 0.376(4)
C56 C -0.0389(7) 0.9584(6) 0.3489(4)
C57 C -0.1214(7) 1.0504(7) 0.3443(5)
H134 H -0.1040 1.1191 0.3540
C58 C -0.2263(8) 1.0463(8) 0.3265(5)
H135 H -0.2799 1.1107 0.3251
C59 C -0.2538(8) 0.9473(9) 0.3103(5)
H136 H -0.3258 0.9436 0.2974
C60 C -0.1747(8) 0.8551(8) 0.3134(5)
H137 H -0.1913 0.7871 0.3021
C61 C -0.0711(7) 0.8617(7) 0.3330(4)
H138 H -0.0187 0.7964 0.3358
C62 C 0.1930(7) 0.9167(6) 0.3091(4)
C63 C 0.1920(7) 0.9352(6) 0.2290(5)
H139 H 0.1227 0.9675 0.2134
C64 C 0.2877(8) 0.9083(7) 0.1719(5)
H140 H 0.2838 0.9226 0.1182
C65 C 0.3912(8) 0.8594(7) 0.1942(5)
H141 H 0.4577 0.8402 0.1559
C66 C 0.3939(8) 0.8401(7) 0.2724(5)
H142 H 0.4628 0.8075 0.2886
C67 C 0.2964(7) 0.8681(6) 0.3276(5)
H143 H 0.3006 0.8532 0.3812
C68 C 0.0772(7) 0.8980(6) 0.4619(4)
C69 C 0.1037(7) 0.7840(7) 0.4821(5)
H144 H 0.1291 0.7397 0.4413
C70 C 0.0947(7) 0.7325(8) 0.5586(5)
H145 H 0.1151 0.6548 0.5692
C71 C 0.0562(7) 0.7939(10) 0.6195(5)
H146 H 0.0491 0.7588 0.6722
C72 C 0.0279(8) 0.9083(9) 0.6026(5)
H147 H 0.0016 0.9519 0.6437
C73 C 0.0383(7) 0.9571(7) 0.5259(4)
H148 H 0.0182 1.0348 0.5155
B2 B 0.3966(8) 0.2998(8) 0.7058(5)
H149 H 0.391(5) 0.388(6) 0.709(4)
C74 C 0.5090(7) 0.2733(6) 0.6380(4)
C75 C 0.5083(7) 0.2782(6) 0.5588(4)
H150 H 0.4364 0.2936 0.5433
C76 C 0.6079(7) 0.2617(7) 0.5019(5)
H151 H 0.6029 0.2664 0.4488
C77 C 0.7145(7) 0.2383(7) 0.5221(5)
H152 H 0.7829 0.2273 0.4833
C78 C 0.7196(7) 0.2311(7) 0.6001(5)
H153 H 0.7920 0.2152 0.6151
C79 C 0.6198(7) 0.2471(7) 0.6555(5)
H154 H 0.6255 0.2401 0.7086
C80 C 0.2758(7) 0.2820(7) 0.6836(4)
C81 C 0.1849(8) 0.3657(9) 0.6836(5)
H155 H 0.1945 0.4358 0.6955
C82 C 0.0821(10) 0.3514(12) 0.6672(6)
H156 H 0.0227 0.4111 0.6681
C83 C 0.0640(10) 0.2517(14) 0.6496(6)
H157 H -0.0073 0.2422 0.6379
C84 C 0.1510(9) 0.1657(11) 0.6491(5)
H158 H 0.1400 0.0957 0.6377
C85 C 0.2553(7) 0.1823(8) 0.6654(5)
H159 H 0.3149 0.1227 0.6639
C86 C 0.4050(7) 0.2321(8) 0.7910(5)
C87 C 0.3764(7) 0.2850(9) 0.8578(5)
H160 H 0.3561 0.3630 0.8514
C88 C 0.3763(9) 0.2295(11) 0.9326(6)
H161 H 0.3569 0.2688 0.9763
C89 C 0.4045(8) 0.1177(12) 0.9425(6)
H162 H 0.4022 0.0783 0.9937
C90 C 0.4359(8) 0.0619(10) 0.8797(7)
H163 H 0.4582 -0.0157 0.8872
C91 C 0.4355(7) 0.1187(8) 0.8037(5)
H164 H 0.4565 0.0785 0.7605
B3 B 0.7703(8) 0.6339(7) 0.0556(5)
H165 H 0.775(6) 0.732(5) 0.060(4)
C92 C 0.8790(7) 0.5971(6) -0.0122(5)
C93 C 0.9875(7) 0.5567(7) 0.0030(5)
H166 H 0.9959 0.5435 0.0557
C94 C 1.0841(7) 0.5349(7) -0.0556(5)
H167 H 1.1567 0.5103 -0.0422
C95 C 1.0756(8) 0.5487(7) -0.1338(5)
H168 H 1.1407 0.5329 -0.1740
C96 C 0.9693(8) 0.5859(7) -0.1500(5)
H169 H 0.9608 0.5960 -0.2027
C97 C 0.8736(7) 0.6091(7) -0.0914(5)
H170 H 0.8016 0.6341 -0.1055
C98 C 0.6469(6) 0.6296(6) 0.0321(4)
C99 C 0.6090(7) 0.5292(7) 0.0263(5)
H171 H 0.6570 0.4625 0.0364
C100 C 0.5069(7) 0.5219(7) 0.0067(4)
H172 H 0.4871 0.4517 0.0017
C101 C 0.4319(7) 0.6162(7) -0.0059(4)
H173 H 0.3606 0.6118 -0.0194
C102 C 0.4635(7) 0.7161(7) 0.0017(5)
H174 H 0.4127 0.7815 -0.0057
C103 C 0.5675(7) 0.7231(7) 0.0200(4)
H175 H 0.5866 0.7938 0.0245
C104 C 0.7752(7) 0.5643(7) 0.1407(4)
C105 C 0.8084(7) 0.4492(7) 0.1536(5)
H176 H 0.8335 0.4098 0.1102
C106 C 0.8053(7) 0.3931(8) 0.2277(6)
H177 H 0.8290 0.3158 0.2341
C107 C 0.7688(8) 0.4455(10) 0.2928(6)
H178 H 0.7669 0.4054 0.3438
C108 C 0.7350(8) 0.5584(9) 0.2821(5)
H179 H 0.7096 0.5962 0.3264
C109 C 0.7376(7) 0.6167(8) 0.2087(5)
H180 H 0.7136 0.6940 0.2032
C33? C 0.548(2) 0.524(2) 0.7657(16)
H77? H 0.5717 0.4748 0.8102
H78? H 0.5406 0.4797 0.7268
H79? H 0.4743 0.5664 0.7839
C34? C 0.6579(16) 0.6198(16) 0.7988(10)
H80? H 0.7069 0.5568 0.8197
H81? H 0.5857 0.6310 0.8376
H82? H 0.6983 0.6868 0.7874
C35? C 0.5833(19) 0.592(2) 0.4954(14)
H83? H 0.5748 0.6137 0.4406
H84? H 0.5724 0.5120 0.5096
H85? H 0.7320 0.6582 0.4511
H86? H 0.7480 0.5315 0.4889
C36? C 0.3063(16) 0.7150(17) 0.7338(11)
H87? H 0.3204 0.6330 0.7417
H88? H 0.2502 0.7392 0.6997
C37? C 0.259(2) 0.887(2) 0.7586(15)
H89? H 0.1938 0.8966 0.7314
H90? H 0.2510 0.9487 0.7893
C38? C 0.267(2) 0.763(2) 0.8142(15)
H91? H 0.3273 0.7528 0.8455
H92? H 0.1923 0.7413 0.8465
C39? C 0.371(3) 0.878(2) 0.7040(18)
H93? H 0.3619 0.9122 0.6506
H94? H 0.4253 0.9192 0.7196
loop_
_geom_bond_atom_site_label_1
_geom_bond_atom_site_label_2
_geom_bond_site_symmetry_1
_geom_bond_site_symmetry_2
N1 Li1 1_555 1_555
N2 Li1 1_555 1_555
N3 Li1 1_555 1_555
N4 Li1 1_555 1_555
O1 Li1 1_555 1_555
C1 N1 1_555 1_555
H1 C1 1_555 1_555
H2 C1 1_555 1_555
H3 C1 1_555 1_555
C2 N1 1_555 1_555
H4 C2 1_555 1_555
H5 C2 1_555 1_555
H6 C2 1_555 1_555
C3 N2 1_555 1_555
H7 C3 1_555 1_555
H8 C3 1_555 1_555
H9 C3 1_555 1_555
C4 N2 1_555 1_555
H10 C4 1_555 1_555
H11 C4 1_555 1_555
H12 C4 1_555 1_555
C5 N3 1_555 1_555
H13 C5 1_555 1_555
H14 C5 1_555 1_555
H15 C5 1_555 1_555
C6 N3 1_555 1_555
H16 C6 1_555 1_555
H17 C6 1_555 1_555
H18 C6 1_555 1_555
C7 N1 1_555 1_555
H19 C7 1_555 1_555
H20 C7 1_555 1_555
C8 N4 1_555 1_555
H21 C8 1_555 1_555
H22 C8 1_555 1_555
C9 N2 1_555 1_555
H23 C9 1_555 1_555
H24 C9 1_555 1_555
C10 N4 1_555 1_555
H25 C10 1_555 1_555
H26 C10 1_555 1_555
C11 N3 1_555 1_555
H27 C11 1_555 1_555
H28 C11 1_555 1_555
C12 N4 1_555 1_555
H29 C12 1_555 1_555
H30 C12 1_555 1_555
C13 O1 1_555 1_555
H31 C13 1_555 1_555
H32 C13 1_555 1_555
C14 C13 1_555 1_555
H33 C14 1_555 1_555
H34 C14 1_555 1_555
C15 C14 1_555 1_555
H35 C15 1_555 1_555
H36 C15 1_555 1_555
C16 O1 1_555 1_555
H37 C16 1_555 1_555
H38 C16 1_555 1_555
N5 Li2 1_555 1_555
N6 Li2 1_555 1_555
N7 Li2 1_555 1_555
N8 Li2 1_555 1_555
O2 Li2 1_555 1_555
C17 N5 1_555 1_555
H39 C17 1_555 1_555
H40 C17 1_555 1_555
H41 C17 1_555 1_555
C18 N5 1_555 1_555
H42 C18 1_555 1_555
H43 C18 1_555 1_555
H44 C18 1_555 1_555
C19 N6 1_555 1_555
H45 C19 1_555 1_555
H46 C19 1_555 1_555
H47 C19 1_555 1_555
C20 N6 1_555 1_555
H48 C20 1_555 1_555
H49 C20 1_555 1_555
H50 C20 1_555 1_555
C21 N7 1_555 1_555
H51 C21 1_555 1_555
H52 C21 1_555 1_555
H53 C21 1_555 1_555
C22 N7 1_555 1_555
H54 C22 1_555 1_555
H55 C22 1_555 1_555
H56 C22 1_555 1_555
C23 N5 1_555 1_555
H57 C23 1_555 1_555
H58 C23 1_555 1_555
C24 N8 1_555 1_555
H59 C24 1_555 1_555
H60 C24 1_555 1_555
C25 N6 1_555 1_555
H61 C25 1_555 1_555
H62 C25 1_555 1_555
C26 N8 1_555 1_555
H63 C26 1_555 1_555
H64 C26 1_555 1_555
C27 N7 1_555 1_555
H65 C27 1_555 1_555
H66 C27 1_555 1_555
C28 N8 1_555 1_555
H67 C28 1_555 1_555
H68 C28 1_555 1_555
C29 O2 1_555 1_555
H69 C29 1_555 1_555
H70 C29 1_555 1_555
C30 C29 1_555 1_555
H71 C30 1_555 1_555
H72 C30 1_555 1_555
C31 C30 1_555 1_555
H73 C31 1_555 1_555
H74 C31 1_555 1_555
C32 O2 1_555 1_555
H75 C32 1_555 1_555
H76 C32 1_555 1_555
N9 Li3 1_555 1_555
N10 Li3 1_555 1_555
N11 Li3 1_555 1_555
N12 Li3 1_555 1_555
O3 Li3 1_555 1_555
C40 N9 1_555 1_555
H95 C40 1_555 1_555
H96 C40 1_555 1_555
H97 C40 1_555 1_555
C41 N9 1_555 1_555
H98 C41 1_555 1_555
H99 C41 1_555 1_555
H100 C41 1_555 1_555
C42 N10 1_555 1_555
H101 C42 1_555 1_555
H102 C42 1_555 1_555
H103 C42 1_555 1_555
C43 N10 1_555 1_555
H104 C43 1_555 1_555
H105 C43 1_555 1_555
H106 C43 1_555 1_555
C44 N11 1_555 1_555
H107 C44 1_555 1_555
H108 C44 1_555 1_555
H109 C44 1_555 1_555
C45 N11 1_555 1_555
H110 C45 1_555 1_555
H111 C45 1_555 1_555
H112 C45 1_555 1_555
C46 N9 1_555 1_555
H113 C46 1_555 1_555
H114 C46 1_555 1_555
C47 N12 1_555 1_555
H115 C47 1_555 1_555
H116 C47 1_555 1_555
C48 N10 1_555 1_555
H117 C48 1_555 1_555
H118 C48 1_555 1_555
C49 N12 1_555 1_555
H119 C49 1_555 1_555
H120 C49 1_555 1_555
C50 N11 1_555 1_555
H121 C50 1_555 1_555
H122 C50 1_555 1_555
C51 N12 1_555 1_555
H123 C51 1_555 1_555
H124 C51 1_555 1_555
C52 O3 1_555 1_555
H125 C52 1_555 1_555
H126 C52 1_555 1_555
C53 C52 1_555 1_555
H127 C53 1_555 1_555
H128 C53 1_555 1_555
C54 C53 1_555 1_555
H129 C54 1_555 1_555
H130 C54 1_555 1_555
C55 O3 1_555 1_555
H131 C55 1_555 1_555
H132 C55 1_555 1_555
B1 H133 1_555 1_555
C56 B1 1_555 1_555
C57 C56 1_555 1_555
H134 C57 1_555 1_555
C58 C57 1_555 1_555
H135 C58 1_555 1_555
C59 C58 1_555 1_555
H136 C59 1_555 1_555
C60 C59 1_555 1_555
H137 C60 1_555 1_555
C61 C56 1_555 1_555
H138 C61 1_555 1_555
C62 B1 1_555 1_555
C63 C62 1_555 1_555
H139 C63 1_555 1_555
C64 C63 1_555 1_555
H140 C64 1_555 1_555
C65 C64 1_555 1_555
H141 C65 1_555 1_555
C66 C65 1_555 1_555
H142 C66 1_555 1_555
C67 C62 1_555 1_555
H143 C67 1_555 1_555
C68 B1 1_555 1_555
C69 C68 1_555 1_555
H144 C69 1_555 1_555
C70 C69 1_555 1_555
H145 C70 1_555 1_555
C71 C70 1_555 1_555
H146 C71 1_555 1_555
C72 C71 1_555 1_555
H147 C72 1_555 1_555
C73 C68 1_555 1_555
H148 C73 1_555 1_555
B2 H149 1_555 1_555
C74 B2 1_555 1_555
C75 C74 1_555 1_555
H150 C75 1_555 1_555
C76 C75 1_555 1_555
H151 C76 1_555 1_555
C77 C76 1_555 1_555
H152 C77 1_555 1_555
C78 C77 1_555 1_555
H153 C78 1_555 1_555
C79 C74 1_555 1_555
H154 C79 1_555 1_555
C80 B2 1_555 1_555
C81 C80 1_555 1_555
H155 C81 1_555 1_555
C82 C81 1_555 1_555
H156 C82 1_555 1_555
C83 C82 1_555 1_555
H157 C83 1_555 1_555
C84 C83 1_555 1_555
H158 C84 1_555 1_555
C85 C80 1_555 1_555
H159 C85 1_555 1_555
C86 B2 1_555 1_555
C87 C86 1_555 1_555
H160 C87 1_555 1_555
C88 C87 1_555 1_555
H161 C88 1_555 1_555
C89 C88 1_555 1_555
H162 C89 1_555 1_555
C90 C89 1_555 1_555
H163 C90 1_555 1_555
C91 C86 1_555 1_555
H164 C91 1_555 1_555
B3 H165 1_555 1_555
C92 B3 1_555 1_555
C93 C92 1_555 1_555
H166 C93 1_555 1_555
C94 C93 1_555 1_555
H167 C94 1_555 1_555
C95 C94 1_555 1_555
H168 C95 1_555 1_555
C96 C95 1_555 1_555
H169 C96 1_555 1_555
C97 C92 1_555 1_555
H170 C97 1_555 1_555
C98 B3 1_555 1_555
C99 C98 1_555 1_555
H171 C99 1_555 1_555
C100 C99 1_555 1_555
H172 C100 1_555 1_555
C101 C100 1_555 1_555
H173 C101 1_555 1_555
C102 C101 1_555 1_555
H174 C102 1_555 1_555
C103 C98 1_555 1_555
H175 C103 1_555 1_555
C104 B3 1_555 1_555
C105 C104 1_555 1_555
H176 C105 1_555 1_555
C106 C105 1_555 1_555
H177 C106 1_555 1_555
C107 C106 1_555 1_555
H178 C107 1_555 1_555
C108 C107 1_555 1_555
H179 C108 1_555 1_555
C109 C104 1_555 1_555
H180 C109 1_555 1_555
C7 C8 1_555 1_555
C9 C10 1_555 1_555
C11 C12 1_555 1_555
C15 C16 1_555 1_555
C23 C24 1_555 1_555
C25 C26 1_555 1_555
C27 C28 1_555 1_555
C31 C32 1_555 1_555
C46 C47 1_555 1_555
C48 C49 1_555 1_555
C50 C51 1_555 1_555
C54 C55 1_555 1_555
C60 C61 1_555 1_555
C66 C67 1_555 1_555
C72 C73 1_555 1_555
C78 C79 1_555 1_555
C84 C85 1_555 1_555
C90 C91 1_555 1_555
C96 C97 1_555 1_555
C102 C103 1_555 1_555
C108 C109 1_555 1_555

#END
