
#######################################################################
#
#                 Cambridge Crystallographic Data Centre
#                                CCDC 
#
#######################################################################
#
# If this CIF has been generated from an entry in the Cambridge 
# Structural Database, then it will include bibliographic, chemical, 
# crystal, experimental, refinement or atomic coordinate data resulting 
# from the CCDC's data processing and validation procedures.
#
#######################################################################

data_IWIMAD
_chemical_formula_moiety         'C18 H16 Br2 Si1'
_chemical_name_systematic        
2,5-Dibromo-1,1-dimethyl-3,4-diphenyl-1H-silole
_symmetry_cell_setting           monoclinic
_symmetry_space_group_name_H-M   'P 21/n'
_symmetry_Int_Tables_number      14
_space_group_name_Hall           '-P 2yn'
loop_
_symmetry_equiv_pos_site_id
_symmetry_equiv_pos_as_xyz
1 x,y,z
2 1/2-x,1/2+y,1/2-z
3 -x,-y,-z
4 1/2+x,1/2-y,1/2+z
_cell_length_a                   9.7279(16)
_cell_length_b                   16.978(3)
_cell_length_c                   11.4467(19)
_cell_angle_alpha                90
_cell_angle_beta                 111.074(2)
_cell_angle_gamma                90
_cell_volume                     1764.09
_exptl_crystal_colour            colorless
_exptl_crystal_description       block
_cell_formula_units_Z            4
loop_
_atom_site_label
_atom_site_type_symbol
_atom_site_fract_x
_atom_site_fract_y
_atom_site_fract_z
Br1 Br 0.71679(3) 0.716822(13) 0.54257(2)
Br2 Br 0.92060(3) 0.388045(15) 0.80501(2)
Si1 Si 0.85515(7) 0.57938(4) 0.75749(6)
C1 C 0.7587(3) 0.61060(12) 0.5920(2)
C2 C 0.8553(2) 0.47692(13) 0.6989(2)
C3 C 1.0396(3) 0.62517(16) 0.8267(3)
H1 H 1.0287 0.6813 0.8412
H2 H 1.0930 0.6190 0.7692
H3 H 1.0948 0.5994 0.9065
C4 C 0.7463(3) 0.58967(17) 0.8602(2)
H4 H 0.7393 0.6455 0.8791
H5 H 0.7948 0.5606 0.9382
H6 H 0.6472 0.5683 0.8175
C5 C 0.7378(2) 0.55039(12) 0.5109(2)
C6 C 0.6726(2) 0.55752(12) 0.3725(2)
C7 C 0.5348(3) 0.59140(13) 0.3146(2)
H7 H 0.4800 0.6088 0.3637
C8 C 0.4765(3) 0.59994(14) 0.1855(2)
H8 H 0.3820 0.6231 0.1468
C9 C 0.5542(3) 0.57518(14) 0.1135(2)
H9 H 0.5144 0.5818 0.0252
C10 C 0.6906(3) 0.54047(15) 0.1698(2)
H10 H 0.7441 0.5227 0.1198
C11 C 0.7499(3) 0.53145(13) 0.2984(2)
H11 H 0.8437 0.5074 0.3363
C12 C 0.7925(2) 0.47185(12) 0.5738(2)
C13 C 0.7721(2) 0.39822(12) 0.4986(2)
C14 C 0.6329(3) 0.37626(13) 0.4158(2)
H12 H 0.5502 0.4088 0.4066
C15 C 0.6144(3) 0.30753(15) 0.3469(3)
H13 H 0.5190 0.2924 0.2920
C16 C 0.7351(3) 0.26072(15) 0.3580(3)
H14 H 0.7226 0.2137 0.3102
C17 C 0.8727(3) 0.28231(14) 0.4383(3)
H15 H 0.9553 0.2502 0.4454
C18 C 0.8922(3) 0.35050(14) 0.5090(2)
H16 H 0.9878 0.3647 0.5647
loop_
_geom_bond_atom_site_label_1
_geom_bond_atom_site_label_2
_geom_bond_site_symmetry_1
_geom_bond_site_symmetry_2
Br1 C1 1_555 1_555
Br2 C2 1_555 1_555
Si1 C1 1_555 1_555
C1 C5 1_555 1_555
C2 Si1 1_555 1_555
C3 Si1 1_555 1_555
H1 C3 1_555 1_555
H2 C3 1_555 1_555
H3 C3 1_555 1_555
C4 Si1 1_555 1_555
H4 C4 1_555 1_555
H5 C4 1_555 1_555
H6 C4 1_555 1_555
C5 C6 1_555 1_555
C6 C7 1_555 1_555
C7 H7 1_555 1_555
C8 C7 1_555 1_555
H8 C8 1_555 1_555
C9 C8 1_555 1_555
H9 C9 1_555 1_555
C10 C9 1_555 1_555
H10 C10 1_555 1_555
C11 C6 1_555 1_555
H11 C11 1_555 1_555
C12 C2 1_555 1_555
C13 C12 1_555 1_555
C14 C13 1_555 1_555
H12 C14 1_555 1_555
C15 C14 1_555 1_555
H13 C15 1_555 1_555
C16 C15 1_555 1_555
H14 C16 1_555 1_555
C17 C16 1_555 1_555
H15 C17 1_555 1_555
C18 C13 1_555 1_555
H16 C18 1_555 1_555
C5 C12 1_555 1_555
C10 C11 1_555 1_555
C17 C18 1_555 1_555

#END
