
#######################################################################
#
#                 Cambridge Crystallographic Data Centre
#                                CCDC 
#
#######################################################################
#
# If this CIF has been generated from an entry in the Cambridge 
# Structural Database, then it will include bibliographic, chemical, 
# crystal, experimental, refinement or atomic coordinate data resulting 
# from the CCDC's data processing and validation procedures.
#
#######################################################################

data_IWUXAA
_chemical_formula_moiety         'C21 H20 N4 O2 S1,C3 H7 N1 O1'
_chemical_name_systematic        
'5-Amino-4-cyano-3-phenyl-N-((2-phenylethyl)carbamoyl)-2,3-dihydrothiophene-2-carboxamide N,N-dimethylformamide solvate'
_symmetry_cell_setting           monoclinic
_symmetry_space_group_name_H-M   'P 21/c'
_symmetry_Int_Tables_number      14
_space_group_name_Hall           '-P 2ybc'
loop_
_symmetry_equiv_pos_site_id
_symmetry_equiv_pos_as_xyz
1 x,y,z
2 -x,1/2+y,1/2-z
3 -x,-y,-z
4 x,1/2-y,1/2+z
_cell_length_a                   11.098(4)
_cell_length_b                   23.929(10)
_cell_length_c                   10.172(4)
_cell_angle_alpha                90
_cell_angle_beta                 110.709(4)
_cell_angle_gamma                90
_cell_volume                     2526.78
_exptl_crystal_colour            colorless
_exptl_crystal_description       block
_cell_formula_units_Z            4
loop_
_atom_site_label
_atom_site_type_symbol
_atom_site_fract_x
_atom_site_fract_y
_atom_site_fract_z
C1 C 0.8124(3) 1.20986(13) 1.2070(4)
H1 H 0.8570 1.1857 1.2796
C2 C 0.8361(5) 1.26755(17) 1.2224(5)
H2 H 0.8975 1.2814 1.3042
C3 C 0.7695(6) 1.30330(15) 1.1182(6)
H3 H 0.7850 1.3415 1.1287
C4 C 0.6807(6) 1.28308(15) 0.9991(6)
H4 H 0.6346 1.3075 0.9280
C5 C 0.6580(4) 1.22563(12) 0.9825(4)
H5 H 0.5970 1.2122 0.8999
C6 C 0.7242(2) 1.18882(9) 1.0858(3)
C7 C 0.7025(2) 1.12626(9) 1.0578(2)
H6 H 0.6130 1.1202 0.9962
C8 C 0.7299(2) 1.09117(9) 1.1877(2)
C9 C 0.6443(2) 1.08644(9) 1.2620(3)
C10 C 0.8477(2) 1.06585(10) 1.2351(2)
C11 C 0.7935(2) 1.10370(9) 0.9833(2)
H7 H 0.8222 1.1351 0.9401
C12 C 0.7302(2) 1.06008(9) 0.8701(2)
C13 C 0.7727(2) 1.01347(10) 0.6715(2)
C14 C 0.6470(3) 0.93723(10) 0.5323(3)
H8 H 0.6820 0.9490 0.4618
H9 H 0.5551 0.9316 0.4860
C15 C 0.7097(3) 0.88231(13) 0.5973(3)
H10 H 0.7960 0.8895 0.6629
H11 H 0.6603 0.8655 0.6489
C16 C 0.7319(2) 0.83929(9) 0.4954(2)
C17 C 0.6354(2) 0.80533(9) 0.4071(3)
H12 H 0.5527 0.8069 0.4101
C18 C 0.6627(4) 0.76909(10) 0.3145(3)
H13 H 0.5982 0.7464 0.2555
C19 C 0.7864(5) 0.76681(13) 0.3102(3)
H14 H 0.8046 0.7426 0.2482
C20 C 0.8828(3) 0.80077(14) 0.3984(4)
H15 H 0.9656 0.7992 0.3955
C21 C 0.8556(2) 0.83701(11) 0.4910(4)
H16 H 0.9201 0.8597 0.5501
N1 N 0.5743(2) 1.08138(10) 1.3216(3)
N2 N 0.9034(2) 1.03757(10) 1.3550(2)
H24 H 0.8637 1.0337 1.4133
H25 H 0.9787 1.0233 1.3736
N3 N 0.79710(18) 1.05165(8) 0.78216(19)
H26 H 0.8634 1.0727 0.7967
N4 N 0.66887(19) 0.98103(8) 0.6379(2)
H27 H 0.6140 0.9859 0.6790
O1 O 0.62962(17) 1.03636(8) 0.85929(19)
O2 O 0.85105(16) 1.01222(8) 0.60991(16)
S1 S 0.93402(5) 1.07328(3) 1.12053(6)
C22 C 0.1157(3) 0.09026(14) 0.8409(4)
H17 H 0.0924 0.0666 0.7633
C23 C 0.2836(5) 0.1361(3) 1.0204(5)
H18 H 0.2129 0.1587 1.0226
H19 H 0.3487 0.1595 1.0074
H20 H 0.3192 0.1161 1.1075
C24 C 0.3376(3) 0.07052(17) 0.8657(5)
H21 H 0.2981 0.0432 0.7943
H22 H 0.3992 0.0525 0.9457
H23 H 0.3804 0.0981 0.8295
N5 N 0.2391(2) 0.09744(10) 0.9078(2)
O3 O 0.02700(19) 0.11160(9) 0.8700(2)
C25? C 0.7155(2) 0.84587(9) 0.4950(2)
C26? C 0.6026(2) 0.81474(12) 0.4461(4)
C27? C 0.5897(3) 0.77216(12) 0.3491(4)
C28? C 0.6897(4) 0.76072(11) 0.3009(3)
C29? C 0.8026(4) 0.79185(11) 0.3498(3)
C30? C 0.8155(3) 0.83442(9) 0.4468(3)
H28? H 0.5356 0.8224 0.4784
H29? H 0.5141 0.7513 0.3164
H30? H 0.6811 0.7322 0.2360
H31? H 0.8695 0.7842 0.3176
H32? H 0.8911 0.8553 0.4795
loop_
_geom_bond_atom_site_label_1
_geom_bond_atom_site_label_2
_geom_bond_site_symmetry_1
_geom_bond_site_symmetry_2
C1 H1 1_555 1_555
C2 C1 1_555 1_555
H2 C2 1_555 1_555
C3 C2 1_555 1_555
H3 C3 1_555 1_555
C4 C3 1_555 1_555
H4 C4 1_555 1_555
C5 C4 1_555 1_555
H5 C5 1_555 1_555
C6 C1 1_555 1_555
C7 C6 1_555 1_555
H6 C7 1_555 1_555
C8 C7 1_555 1_555
C9 C8 1_555 1_555
C10 C8 1_555 1_555
C11 C7 1_555 1_555
H7 C11 1_555 1_555
C12 C11 1_555 1_555
C13 N3 1_555 1_555
C14 H8 1_555 1_555
H9 C14 1_555 1_555
C15 C14 1_555 1_555
H10 C15 1_555 1_555
H11 C15 1_555 1_555
C16 C15 1_555 1_555
C17 C16 1_555 1_555
H12 C17 1_555 1_555
C18 C17 1_555 1_555
H13 C18 1_555 1_555
C19 C18 1_555 1_555
H14 C19 1_555 1_555
C20 C19 1_555 1_555
H15 C20 1_555 1_555
C21 C16 1_555 1_555
H16 C21 1_555 1_555
C22 H17 1_555 1_555
C23 H18 1_555 1_555
H19 C23 1_555 1_555
H20 C23 1_555 1_555
C24 H21 1_555 1_555
H22 C24 1_555 1_555
H23 C24 1_555 1_555
N1 C9 1_555 1_555
N2 C10 1_555 1_555
H24 N2 1_555 1_555
H25 N2 1_555 1_555
N3 C12 1_555 1_555
H26 N3 1_555 1_555
N4 C13 1_555 1_555
H27 N4 1_555 1_555
N5 C22 1_555 1_555
O1 C12 1_555 1_555
O2 C13 1_555 1_555
O3 C22 1_555 1_555
S1 C10 1_555 1_555
C5 C6 1_555 1_555
C11 S1 1_555 1_555
C14 N4 1_555 1_555
C20 C21 1_555 1_555
C23 N5 1_555 1_555
C24 N5 1_555 1_555

#END
