
#######################################################################
#
#                 Cambridge Crystallographic Data Centre
#                                CCDC 
#
#######################################################################
#
# If this CIF has been generated from an entry in the Cambridge 
# Structural Database, then it will include bibliographic, chemical, 
# crystal, experimental, refinement or atomic coordinate data resulting 
# from the CCDC's data processing and validation procedures.
#
#######################################################################

data_IXACIV
_chemical_formula_moiety         'C22 H20 N2'
_chemical_name_systematic        
1-methyl-3-phenyl-4,5,6,7-tetrahydro-2,7a-diazacyclohepta[1,2,3-jk]fluorene
_symmetry_cell_setting           triclinic
_symmetry_space_group_name_H-M   'P -1'
_symmetry_Int_Tables_number      2
_space_group_name_Hall           '-P 1'
loop_
_symmetry_equiv_pos_site_id
_symmetry_equiv_pos_as_xyz
1 x,y,z
2 -x,-y,-z
_cell_length_a                   8.5834(14)
_cell_length_b                   10.076(2)
_cell_length_c                   11.212(2)
_cell_angle_alpha                76.303(16)
_cell_angle_beta                 67.953(16)
_cell_angle_gamma                65.886(16)
_cell_volume                     816.347
_exptl_crystal_colour            yellow
_exptl_crystal_description       prism
_cell_formula_units_Z            2
loop_
_atom_site_label
_atom_site_type_symbol
_atom_site_fract_x
_atom_site_fract_y
_atom_site_fract_z
N1 N 0.6275(2) 0.28244(18) 0.83667(17)
N2 N 0.4144(2) 0.70159(17) 0.67718(17)
C1 C 0.7706(3) 0.1499(2) 0.7803(2)
H1 H 0.7507 0.0645 0.8354
H2 H 0.8857 0.1486 0.7772
C2 C 0.7772(3) 0.1418(2) 0.6452(2)
H3 H 0.6548 0.1721 0.6442
H4 H 0.8374 0.0406 0.6264
C3 C 0.8715(3) 0.2337(2) 0.5372(2)
H5 H 0.8229 0.2572 0.4663
H6 H 0.9982 0.1753 0.5056
C4 C 0.8538(3) 0.3759(2) 0.5763(2)
H7 H 0.9282 0.3519 0.6311
H8 H 0.9014 0.4331 0.4989
C5 C 0.6659(3) 0.4695(2) 0.64645(19)
C6 C 0.5753(3) 0.4195(2) 0.77066(19)
C7 C 0.4138(3) 0.5103(2) 0.84903(19)
C8 C 0.3639(3) 0.4241(2) 0.9710(2)
C9 C 0.4989(3) 0.2840(2) 0.9580(2)
C10 C 0.4910(4) 0.1713(3) 1.0578(2)
H9 H 0.5788 0.0785 1.0484
C11 C 0.3492(4) 0.2017(3) 1.1706(2)
H10 H 0.3420 0.1282 1.2383
C12 C 0.2171(4) 0.3392(3) 1.1853(2)
H11 H 0.1232 0.3567 1.2627
C13 C 0.2229(3) 0.4510(3) 1.0865(2)
H12 H 0.1336 0.5431 1.0971
C14 C 0.3362(3) 0.6527(2) 0.7977(2)
C15 C 0.1607(3) 0.7569(3) 0.8730(2)
H13 H 0.1271 0.8471 0.8199
H14 H 0.1734 0.7754 0.9484
H15 H 0.0693 0.7148 0.8989
C16 C 0.5750(3) 0.6123(2) 0.60423(19)
C17 C 0.6481(3) 0.6831(2) 0.47406(19)
C18 C 0.7064(3) 0.6178(2) 0.3616(2)
H16 H 0.7052 0.5247 0.3669
C19 C 0.7663(3) 0.6894(3) 0.2414(2)
H17 H 0.8039 0.6446 0.1669
C20 C 0.7705(3) 0.8273(3) 0.2322(2)
H18 H 0.8124 0.8747 0.1517
C21 C 0.7124(3) 0.8942(2) 0.3429(2)
H19 H 0.7140 0.9873 0.3371
C22 C 0.6516(3) 0.8227(2) 0.4626(2)
H20 H 0.6124 0.8686 0.5368
loop_
_geom_bond_atom_site_label_1
_geom_bond_atom_site_label_2
_geom_bond_site_symmetry_1
_geom_bond_site_symmetry_2
N1 C1 1_555 1_555
N2 C14 1_555 1_555
C1 H1 1_555 1_555
H2 C1 1_555 1_555
C2 C1 1_555 1_555
H3 C2 1_555 1_555
H4 C2 1_555 1_555
C3 C2 1_555 1_555
H5 C3 1_555 1_555
H6 C3 1_555 1_555
C4 C3 1_555 1_555
H7 C4 1_555 1_555
H8 C4 1_555 1_555
C5 C4 1_555 1_555
C6 N1 1_555 1_555
C7 C6 1_555 1_555
C8 C7 1_555 1_555
C9 N1 1_555 1_555
C10 C9 1_555 1_555
H9 C10 1_555 1_555
C11 C10 1_555 1_555
H10 C11 1_555 1_555
C12 C11 1_555 1_555
H11 C12 1_555 1_555
C13 C8 1_555 1_555
H12 C13 1_555 1_555
C14 C7 1_555 1_555
C15 C14 1_555 1_555
H13 C15 1_555 1_555
H14 C15 1_555 1_555
H15 C15 1_555 1_555
C16 N2 1_555 1_555
C17 C16 1_555 1_555
C18 C17 1_555 1_555
H16 C18 1_555 1_555
C19 C18 1_555 1_555
H17 C19 1_555 1_555
C20 C19 1_555 1_555
H18 C20 1_555 1_555
C21 C20 1_555 1_555
H19 C21 1_555 1_555
C22 C17 1_555 1_555
H20 C22 1_555 1_555
C5 C6 1_555 1_555
C5 C16 1_555 1_555
C8 C9 1_555 1_555
C12 C13 1_555 1_555
C21 C22 1_555 1_555

#END
