
#######################################################################
#
#                 Cambridge Crystallographic Data Centre
#                                CCDC 
#
#######################################################################
#
# If this CIF has been generated from an entry in the Cambridge 
# Structural Database, then it will include bibliographic, chemical, 
# crystal, experimental, refinement or atomic coordinate data resulting 
# from the CCDC's data processing and validation procedures.
#
#######################################################################

data_IXAFAQ
_chemical_formula_moiety         'C19 H16 Br1 F3 N2 O4'
_chemical_name_systematic        
'methyl 5-(2-bromophenyl)-4-nitro-3-phenyl-3-(trifluoromethyl)prolinate'
_symmetry_cell_setting           orthorhombic
_symmetry_space_group_name_H-M   'P 21 21 21'
_symmetry_Int_Tables_number      19
_space_group_name_Hall           'P 2ac 2ab'
loop_
_symmetry_equiv_pos_site_id
_symmetry_equiv_pos_as_xyz
1 x,y,z
2 1/2-x,-y,1/2+z
3 -x,1/2+y,1/2-z
4 1/2+x,1/2-y,-z
_cell_length_a                   9.3074(19)
_cell_length_b                   10.844(2)
_cell_length_c                   18.529(4)
_cell_angle_alpha                90
_cell_angle_beta                 90
_cell_angle_gamma                90
_cell_volume                     1870.12
_exptl_crystal_colour            colorless
_exptl_crystal_description       block
_cell_formula_units_Z            4
loop_
_atom_site_label
_atom_site_type_symbol
_atom_site_fract_x
_atom_site_fract_y
_atom_site_fract_z
Br1 Br 0.91071(4) 0.36629(4) 0.52874(2)
F1 F 0.8993(3) 0.67300(18) 0.86707(13)
F2 F 1.0252(2) 0.5072(2) 0.86328(12)
F3 F 0.8481(3) 0.5216(2) 0.93710(11)
N1 N 0.9266(3) 0.3268(2) 0.75731(16)
H1 H 1.0052 0.3394 0.7837
O1 O 0.7255(3) 0.2891(2) 0.92243(15)
N2 N 0.7452(3) 0.5994(3) 0.68904(16)
O2 O 0.6518(3) 0.5354(3) 0.66209(16)
C1 C 0.9135(4) 0.4197(3) 0.70032(17)
H2 H 0.8399 0.3905 0.6649
C2 C 0.8891(4) 0.5506(3) 0.87006(18)
C3 C 1.1734(4) 0.4818(3) 0.6973(2)
H3 H 1.1655 0.4985 0.7475
O3 O 0.9562(3) 0.2459(3) 0.89559(15)
C4 C 0.8092(4) 0.3508(3) 0.80769(18)
H4 H 0.7192 0.3142 0.7874
C5 C 1.0684(4) 0.4188(3) 0.58641(19)
C6 C 0.4655(4) 0.7112(3) 0.8370(2)
H5 H 0.4469 0.7973 0.8357
C7 C 0.3545(4) 0.6299(4) 0.85105(19)
H6 H 0.2597 0.6596 0.8589
O4 O 0.7548(3) 0.7126(2) 0.68048(16)
C8 C 1.3184(4) 0.4743(4) 0.5907(2)
H7 H 1.4083 0.4853 0.5673
C9 C 0.5219(4) 0.4593(3) 0.84086(18)
H8 H 0.5402 0.3731 0.8421
C10 C 0.8551(4) 0.5386(3) 0.73744(18)
H9 H 0.9364 0.5970 0.7463
C11 C 0.3834(4) 0.5038(3) 0.8535(2)
H10 H 0.3079 0.4475 0.8638
C12 C 1.0528(4) 0.4405(3) 0.66011(18)
C13 C 0.6045(4) 0.6680(3) 0.82489(19)
H11 H 0.6797 0.7250 0.8155
C14 C 0.7894(4) 0.4965(3) 0.81219(18)
C15 C 0.6344(4) 0.5423(3) 0.82638(18)
C16 C 1.2010(4) 0.4328(4) 0.5516(2)
H12 H 1.2104 0.4141 0.5018
C17 C 0.8410(4) 0.2887(3) 0.8796(2)
C18 C 0.7499(5) 0.2554(4) 0.9974(2)
H13 H 0.7879 0.1712 0.9997
H14 H 0.6590 0.2596 1.0240
H15 H 0.8192 0.3125 1.0190
C19 C 1.3053(4) 0.4996(4) 0.6634(2)
H16 H 1.3855 0.5288 0.6900
loop_
_geom_bond_atom_site_label_1
_geom_bond_atom_site_label_2
_geom_bond_site_symmetry_1
_geom_bond_site_symmetry_2
Br1 C5 1_555 1_555
F1 C2 1_555 1_555
F2 C2 1_555 1_555
F3 C2 1_555 1_555
N1 H1 1_555 1_555
O1 C17 1_555 1_555
N2 O2 1_555 1_555
C1 N1 1_555 1_555
H2 C1 1_555 1_555
C2 C14 1_555 1_555
C3 H3 1_555 1_555
O3 C17 1_555 1_555
C4 N1 1_555 1_555
H4 C4 1_555 1_555
C5 C12 1_555 1_555
C6 H5 1_555 1_555
C7 C6 1_555 1_555
H6 C7 1_555 1_555
O4 N2 1_555 1_555
C8 H7 1_555 1_555
C9 H8 1_555 1_555
C10 N2 1_555 1_555
H9 C10 1_555 1_555
C11 C7 1_555 1_555
H10 C11 1_555 1_555
C12 C1 1_555 1_555
C13 C6 1_555 1_555
H11 C13 1_555 1_555
C14 C4 1_555 1_555
C15 C9 1_555 1_555
C16 C5 1_555 1_555
H12 C16 1_555 1_555
C17 C4 1_555 1_555
C18 O1 1_555 1_555
H13 C18 1_555 1_555
H14 C18 1_555 1_555
H15 C18 1_555 1_555
C19 C3 1_555 1_555
H16 C19 1_555 1_555
C1 C10 1_555 1_555
C3 C12 1_555 1_555
C8 C16 1_555 1_555
C8 C19 1_555 1_555
C9 C11 1_555 1_555
C10 C14 1_555 1_555
C13 C15 1_555 1_555
C14 C15 1_555 1_555

#END
