
#######################################################################
#
#                 Cambridge Crystallographic Data Centre
#                                CCDC 
#
#######################################################################
#
# If this CIF has been generated from an entry in the Cambridge 
# Structural Database, then it will include bibliographic, chemical, 
# crystal, experimental, refinement or atomic coordinate data resulting 
# from the CCDC's data processing and validation procedures.
#
#######################################################################

data_IXAJUO
_chemical_formula_moiety         'C23 H24 O3 Si1'
_chemical_name_systematic        
'methyl 4-(1-hydroxy-1-((trimethylsilyl)ethynyl)-1,2-dihydronaphthalen-2-yl)benzoate'
_symmetry_cell_setting           orthorhombic
_symmetry_space_group_name_H-M   'P b c a'
_symmetry_Int_Tables_number      61
_space_group_name_Hall           '-P 2ac 2ab'
loop_
_symmetry_equiv_pos_site_id
_symmetry_equiv_pos_as_xyz
1 x,y,z
2 1/2-x,-y,1/2+z
3 1/2+x,1/2-y,-z
4 -x,1/2+y,1/2-z
5 -x,-y,-z
6 1/2+x,y,1/2-z
7 1/2-x,1/2+y,z
8 x,1/2-y,1/2+z
_cell_length_a                   20.5235(5)
_cell_length_b                   6.70877(18)
_cell_length_c                   30.0228(8)
_cell_angle_alpha                90
_cell_angle_beta                 90
_cell_angle_gamma                90
_cell_volume                     4133.76
_exptl_crystal_colour            colorless
_exptl_crystal_description       needle
_cell_formula_units_Z            8
loop_
_atom_site_label
_atom_site_type_symbol
_atom_site_fract_x
_atom_site_fract_y
_atom_site_fract_z
C1 C 0.51221(6) 0.2466(2) 0.38727(4)
C2 C 0.53832(7) 0.0282(2) 0.39326(5)
H1 H 0.5392 -0.0333 0.3629
C3 C 0.49355(8) -0.0979(2) 0.42116(5)
H2 H 0.5114 -0.2046 0.4380
C4 C 0.42968(8) -0.0645(2) 0.42303(5)
H3 H 0.4030 -0.1510 0.4402
C5 C 0.39958(7) 0.1010(2) 0.39940(5)
C6 C 0.33156(8) 0.1153(3) 0.39533(6)
H4 H 0.3047 0.0171 0.4088
C7 C 0.30328(8) 0.2699(3) 0.37208(6)
H5 H 0.2573 0.2752 0.3689
C8 C 0.34154(8) 0.4168(3) 0.35340(6)
H6 H 0.3220 0.5242 0.3377
C9 C 0.40924(7) 0.4066(2) 0.35774(5)
H7 H 0.4356 0.5084 0.3452
C10 C 0.43820(6) 0.2497(2) 0.38009(4)
C11 C 0.54549(6) 0.3328(2) 0.34814(4)
C12 C 0.57208(7) 0.3928(2) 0.31504(5)
Si1 Si 0.61339(2) 0.47013(6) 0.26355(2)
C13 C 0.62763(9) 0.7427(3) 0.26567(6)
H8 H 0.5857 0.8122 0.2678
H9 H 0.6503 0.7851 0.2386
H10 H 0.6543 0.7749 0.2918
C14 C 0.56026(9) 0.4030(3) 0.21578(5)
H11 H 0.5839 0.4253 0.1879
H12 H 0.5210 0.4860 0.2163
H13 H 0.5479 0.2623 0.2180
C15 C 0.69220(8) 0.3337(3) 0.26033(7)
H14 H 0.7189 0.3669 0.2863
H15 H 0.7153 0.3724 0.2331
H16 H 0.6839 0.1899 0.2599
O1 O 0.52244(5) 0.36322(15) 0.42638(3)
H17 H 0.5605(10) 0.408(3) 0.4258(6)
C16 C 0.60817(7) 0.0298(2) 0.41001(5)
C17 C 0.66008(7) 0.0307(2) 0.38011(5)
H18 H 0.6516 0.0303 0.3490
C18 C 0.72405(7) 0.0322(2) 0.39511(5)
H19 H 0.7589 0.0319 0.3743
C19 C 0.73720(7) 0.03410(19) 0.44063(4)
C20 C 0.68576(7) 0.0348(2) 0.47092(5)
H20 H 0.6943 0.0366 0.5020
C21 C 0.62172(7) 0.0328(2) 0.45549(5)
H21 H 0.5868 0.0335 0.4763
C22 C 0.80671(7) 0.03313(19) 0.45493(4)
O2 O 0.85221(5) 0.03024(16) 0.42904(3)
O3 O 0.81386(5) 0.03504(15) 0.49924(3)
C23 C 0.88057(8) 0.0387(2) 0.51512(5)
H22 H 0.8808 0.0355 0.5478
H23 H 0.9020 0.1608 0.5048
H24 H 0.9040 -0.0776 0.5036
loop_
_geom_bond_atom_site_label_1
_geom_bond_atom_site_label_2
_geom_bond_site_symmetry_1
_geom_bond_site_symmetry_2
C1 C2 1_555 1_555
C2 H1 1_555 1_555
C3 C2 1_555 1_555
H2 C3 1_555 1_555
C4 C3 1_555 1_555
H3 C4 1_555 1_555
C5 C4 1_555 1_555
C6 C5 1_555 1_555
H4 C6 1_555 1_555
C7 C6 1_555 1_555
H5 C7 1_555 1_555
C8 C7 1_555 1_555
H6 C8 1_555 1_555
C9 C8 1_555 1_555
H7 C9 1_555 1_555
C10 C1 1_555 1_555
C11 C1 1_555 1_555
C12 C11 1_555 1_555
Si1 C12 1_555 1_555
C13 Si1 1_555 1_555
H8 C13 1_555 1_555
H9 C13 1_555 1_555
H10 C13 1_555 1_555
C14 Si1 1_555 1_555
H11 C14 1_555 1_555
H12 C14 1_555 1_555
H13 C14 1_555 1_555
C15 Si1 1_555 1_555
H14 C15 1_555 1_555
H15 C15 1_555 1_555
H16 C15 1_555 1_555
O1 C1 1_555 1_555
H17 O1 1_555 1_555
C16 C2 1_555 1_555
C17 C16 1_555 1_555
H18 C17 1_555 1_555
C18 C17 1_555 1_555
H19 C18 1_555 1_555
C19 C18 1_555 1_555
C20 C19 1_555 1_555
H20 C20 1_555 1_555
C21 C16 1_555 1_555
H21 C21 1_555 1_555
C22 C19 1_555 1_555
O2 C22 1_555 1_555
O3 C22 1_555 1_555
C23 O3 1_555 1_555
H22 C23 1_555 1_555
H23 C23 1_555 1_555
H24 C23 1_555 1_555
C5 C10 1_555 1_555
C9 C10 1_555 1_555
C20 C21 1_555 1_555

#END
