
#######################################################################
#
#                 Cambridge Crystallographic Data Centre
#                                CCDC 
#
#######################################################################
#
# If this CIF has been generated from an entry in the Cambridge 
# Structural Database, then it will include bibliographic, chemical, 
# crystal, experimental, refinement or atomic coordinate data resulting 
# from the CCDC's data processing and validation procedures.
#
#######################################################################

data_IXAKAV
_chemical_formula_moiety         'C29 H29 N1 O2 Si1'
_chemical_name_systematic        
N-benzyl-5-oxo-8-phenyl-7-(trimethylsilyl)-5,8-dihydrobenzo[8]annulene-6-carboxamide
_symmetry_cell_setting           monoclinic
_symmetry_space_group_name_H-M   'P 21/c'
_symmetry_Int_Tables_number      14
_space_group_name_Hall           '-P 2ybc'
loop_
_symmetry_equiv_pos_site_id
_symmetry_equiv_pos_as_xyz
1 x,y,z
2 -x,1/2+y,1/2-z
3 -x,-y,-z
4 x,1/2-y,1/2+z
_cell_length_a                   12.3808(6)
_cell_length_b                   22.3127(10)
_cell_length_c                   8.8498(4)
_cell_angle_alpha                90
_cell_angle_beta                 101.163(4)
_cell_angle_gamma                90
_cell_volume                     2398.5
_exptl_crystal_colour            colorless
_exptl_crystal_description       block
_cell_formula_units_Z            4
loop_
_atom_site_label
_atom_site_type_symbol
_atom_site_fract_x
_atom_site_fract_y
_atom_site_fract_z
C1 C 0.07502(13) 0.44554(7) 0.11053(18)
H1 H 0.0917 0.4172 0.0383
C2 C -0.01598(15) 0.43548(7) 0.17476(19)
H2 H -0.0603 0.4009 0.1479
C3 C -0.04173(15) 0.47632(8) 0.27845(19)
H3 H -0.1035 0.4699 0.3255
C4 C 0.02293(14) 0.52686(7) 0.31398(17)
H4 H 0.0035 0.5550 0.3848
C5 C 0.16882(11) 0.59767(6) 0.30052(15)
C6 C 0.22407(11) 0.63403(6) 0.19483(15)
C7 C 0.32362(11) 0.61914(6) 0.16715(15)
C8 C 0.36998(12) 0.56036(6) 0.24256(17)
H5 H 0.3240 0.5498 0.3199
C9 C 0.34176(12) 0.51621(7) 0.11438(19)
H6 H 0.3977 0.5045 0.0605
C10 C 0.24171(12) 0.49239(7) 0.07189(18)
H7 H 0.2312 0.4699 -0.0209
C11 C 0.14487(12) 0.49539(6) 0.14571(16)
C12 C 0.11571(12) 0.53824(6) 0.24990(15)
C13 C 0.48858(12) 0.56154(7) 0.32863(18)
C14 C 0.52462(15) 0.60959(8) 0.4236(2)
H8 H 0.4760 0.6420 0.4301
C15 C 0.63116(17) 0.61102(8) 0.5099(2)
H9 H 0.6550 0.6443 0.5748
C16 C 0.70233(15) 0.56391(9) 0.5012(2)
H10 H 0.7757 0.5651 0.5582
C17 C 0.66651(14) 0.51550(8) 0.4101(2)
H11 H 0.7148 0.4828 0.4057
C18 C 0.55956(13) 0.51389(7) 0.3236(2)
H12 H 0.5354 0.4800 0.2612
Si1 Si 0.39503(3) 0.65789(2) 0.01957(5)
C19 C 0.32355(13) 0.63713(9) -0.17918(18)
H13 H 0.3025 0.5947 -0.1813
H14 H 0.3732 0.6439 -0.2514
H15 H 0.2575 0.6619 -0.2091
C20 C 0.41026(15) 0.74000(8) 0.0528(2)
H16 H 0.4593 0.7565 -0.0114
H17 H 0.4416 0.7475 0.1616
H18 H 0.3379 0.7592 0.0259
C21 C 0.53940(13) 0.62917(9) 0.0387(2)
H19 H 0.5825 0.6408 0.1394
H20 H 0.5730 0.6464 -0.0430
H21 H 0.5382 0.5854 0.0299
C22 C 0.16264(11) 0.68855(6) 0.12407(15)
C23 C 0.04550(12) 0.77337(6) 0.15570(16)
H22 H 0.0973 0.8003 0.1165
H23 H 0.0227 0.7937 0.2440
C24 C -0.05495(11) 0.76444(6) 0.03036(15)
C25 C -0.10569(14) 0.70971(7) -0.0031(2)
H24 H -0.0763 0.6752 0.0531
C26 C -0.19920(14) 0.70423(8) -0.1179(2)
H25 H -0.2323 0.6660 -0.1404
C27 C -0.24389(14) 0.75345(8) -0.1986(2)
H26 H -0.3084 0.7498 -0.2761
C28 C -0.19416(15) 0.80843(8) -0.1661(2)
H27 H -0.2243 0.8429 -0.2220
C29 C -0.10045(13) 0.81383(7) -0.0523(2)
H28 H -0.0671 0.8520 -0.0308
O1 O 0.15714(9) 0.61908(4) 0.42374(11)
O2 O 0.16711(9) 0.70411(5) -0.00768(11)
N1 N 0.10316(10) 0.71833(5) 0.21038(13)
H29 H 0.1130(15) 0.7110(8) 0.305(2)
loop_
_geom_bond_atom_site_label_1
_geom_bond_atom_site_label_2
_geom_bond_site_symmetry_1
_geom_bond_site_symmetry_2
C1 H1 1_555 1_555
C2 C1 1_555 1_555
H2 C2 1_555 1_555
C3 C2 1_555 1_555
H3 C3 1_555 1_555
C4 C3 1_555 1_555
H4 C4 1_555 1_555
C5 C6 1_555 1_555
C6 C7 1_555 1_555
C7 C8 1_555 1_555
C8 H5 1_555 1_555
C9 C8 1_555 1_555
H6 C9 1_555 1_555
C10 C9 1_555 1_555
H7 C10 1_555 1_555
C11 C1 1_555 1_555
C12 C4 1_555 1_555
C13 C8 1_555 1_555
C14 C13 1_555 1_555
H8 C14 1_555 1_555
C15 C14 1_555 1_555
H9 C15 1_555 1_555
C16 C15 1_555 1_555
H10 C16 1_555 1_555
C17 C16 1_555 1_555
H11 C17 1_555 1_555
C18 C13 1_555 1_555
H12 C18 1_555 1_555
Si1 C7 1_555 1_555
C19 Si1 1_555 1_555
H13 C19 1_555 1_555
H14 C19 1_555 1_555
H15 C19 1_555 1_555
C20 Si1 1_555 1_555
H16 C20 1_555 1_555
H17 C20 1_555 1_555
H18 C20 1_555 1_555
C21 Si1 1_555 1_555
H19 C21 1_555 1_555
H20 C21 1_555 1_555
H21 C21 1_555 1_555
C22 C6 1_555 1_555
C23 H22 1_555 1_555
H23 C23 1_555 1_555
C24 C23 1_555 1_555
C25 C24 1_555 1_555
H24 C25 1_555 1_555
C26 C25 1_555 1_555
H25 C26 1_555 1_555
C27 C26 1_555 1_555
H26 C27 1_555 1_555
C28 C27 1_555 1_555
H27 C28 1_555 1_555
C29 C24 1_555 1_555
H28 C29 1_555 1_555
O1 C5 1_555 1_555
O2 C22 1_555 1_555
N1 C22 1_555 1_555
H29 N1 1_555 1_555
C5 C12 1_555 1_555
C10 C11 1_555 1_555
C11 C12 1_555 1_555
C17 C18 1_555 1_555
C23 N1 1_555 1_555
C28 C29 1_555 1_555

#END
