
#######################################################################
#
#                 Cambridge Crystallographic Data Centre
#                                CCDC 
#
#######################################################################
#
# If this CIF has been generated from an entry in the Cambridge 
# Structural Database, then it will include bibliographic, chemical, 
# crystal, experimental, refinement or atomic coordinate data resulting 
# from the CCDC's data processing and validation procedures.
#
#######################################################################

data_IXAMOJ
_chemical_formula_moiety         'C24 H18 O2'
_chemical_name_systematic        
2,6-Dimethyl-3,7-diphenylbenzo(1,2-b:4,5-b')difuran
_symmetry_cell_setting           triclinic
_symmetry_space_group_name_H-M   'P -1'
_symmetry_Int_Tables_number      2
_space_group_name_Hall           '-P 1'
loop_
_symmetry_equiv_pos_site_id
_symmetry_equiv_pos_as_xyz
1 x,y,z
2 -x,-y,-z
_cell_length_a                   9.6867(19)
_cell_length_b                   9.7435(19)
_cell_length_c                   10.723(2)
_cell_angle_alpha                116.90(3)
_cell_angle_beta                 100.35(3)
_cell_angle_gamma                99.36(3)
_cell_volume                     852.859
_exptl_crystal_colour            colorless
_exptl_crystal_description       block
_cell_formula_units_Z            2
_exptl_crystal_recrystallization_method chloroform
loop_
_atom_site_label
_atom_site_type_symbol
_atom_site_fract_x
_atom_site_fract_y
_atom_site_fract_z
O1 O 0.2211(4) 0.9354(5) 0.4659(4)
C1 C 0.2780(7) 1.0695(7) 0.6039(7)
C2 C 0.2073(6) 1.0576(7) 0.6992(6)
C3 C -0.0119(6) 0.8236(7) 0.6494(6)
H1 H -0.0264 0.8663 0.7415
O2 O -0.2075(4) 0.5783(5) 0.5433(4)
C4 C -0.2624(7) 0.4441(7) 0.4069(7)
C5 C -0.1917(6) 0.4533(7) 0.3132(6)
C6 C 0.0274(6) 0.6888(7) 0.3605(6)
H2 H 0.0408 0.6478 0.268
C7 C 0.1100(7) 0.8343(7) 0.4744(7)
C8 C 0.0970(6) 0.9051(7) 0.6174(6)
C9 C -0.0949(6) 0.6777(7) 0.5365(6)
C10 C -0.0795(6) 0.6055(7) 0.3933(6)
C11 C 0.4006(7) 1.1912(8) 0.6142(7)
H3 H 0.4185 1.1547 0.5207
H4 H 0.4868 1.207 0.6849
H5 H 0.3756 1.2905 0.6437
C12 C 0.2379(6) 1.1751(7) 0.8545(6)
C13 C 0.2687(7) 1.3386(7) 0.9044(7)
H6 H 0.2719 1.3755 0.8384
C14 C 0.2945(8) 1.4467(8) 1.0497(7)
H7 H 0.3155 1.5556 1.0807
C15 C 0.2898(7) 1.3956(7) 1.1511(7)
H8 H 0.3064 1.4689 1.2492
C16 C 0.2599(6) 1.2336(7) 1.1026(6)
H9 H 0.2565 1.1973 1.1689
C17 C 0.2348(6) 1.1244(7) 0.9569(6)
H10 H 0.2156 1.0157 0.9266
C18 C -0.3838(7) 0.3191(8) 0.3946(7)
H11 H -0.4061 0.3561 0.4861
H12 H -0.3549 0.2225 0.3699
H13 H -0.4687 0.2981 0.3198
C19 C -0.2221(6) 0.3349(7) 0.1567(6)
C20 C -0.3622(7) 0.2495(7) 0.0666(6)
H14 H -0.4408 0.2649 0.1051
C21 C -0.3886(7) 0.1400(7) -0.0820(7)
H15 H -0.4839 0.0835 -0.1408
C22 C -0.2750(7) 0.1162(8) -0.1404(7)
H16 H -0.2924 0.0437 -0.2388
C23 C -0.1338(8) 0.2008(8) -0.0519(7)
H17 H -0.0562 0.1857 -0.0918
C24 C -0.1063(7) 0.3078(7) 0.0951(6)
H18 H -0.0105 0.362 0.1535
loop_
_geom_bond_atom_site_label_1
_geom_bond_atom_site_label_2
_geom_bond_site_symmetry_1
_geom_bond_site_symmetry_2
O1 C1 1_555 1_555
C1 C2 1_555 1_555
C2 C8 1_555 1_555
C3 H1 1_555 1_555
O2 C4 1_555 1_555
C4 C5 1_555 1_555
C5 C10 1_555 1_555
C6 H2 1_555 1_555
C7 O1 1_555 1_555
C8 C3 1_555 1_555
C9 C3 1_555 1_555
C10 C6 1_555 1_555
C11 C1 1_555 1_555
H3 C11 1_555 1_555
H4 C11 1_555 1_555
H5 C11 1_555 1_555
C12 C2 1_555 1_555
C13 C12 1_555 1_555
H6 C13 1_555 1_555
C14 C13 1_555 1_555
H7 C14 1_555 1_555
C15 C14 1_555 1_555
H8 C15 1_555 1_555
C16 C15 1_555 1_555
H9 C16 1_555 1_555
C17 C12 1_555 1_555
H10 C17 1_555 1_555
C18 C4 1_555 1_555
H11 C18 1_555 1_555
H12 C18 1_555 1_555
H13 C18 1_555 1_555
C19 C5 1_555 1_555
C20 C19 1_555 1_555
H14 C20 1_555 1_555
C21 C20 1_555 1_555
H15 C21 1_555 1_555
C22 C21 1_555 1_555
H16 C22 1_555 1_555
C23 C22 1_555 1_555
H17 C23 1_555 1_555
C24 C19 1_555 1_555
H18 C24 1_555 1_555
O2 C9 1_555 1_555
C6 C7 1_555 1_555
C7 C8 1_555 1_555
C9 C10 1_555 1_555
C16 C17 1_555 1_555
C23 C24 1_555 1_555

#END
