
#######################################################################
#
#                 Cambridge Crystallographic Data Centre
#                                CCDC 
#
#######################################################################
#
# If this CIF has been generated from an entry in the Cambridge 
# Structural Database, then it will include bibliographic, chemical, 
# crystal, experimental, refinement or atomic coordinate data resulting 
# from the CCDC's data processing and validation procedures.
#
#######################################################################

data_IXANAW
_chemical_formula_moiety         'C26 H20 Cl2 O1 P1 1+,Cl1 1-'
_chemical_name_systematic        
'(2,4-Dichlorobenzoylmethyl)triphenylphosphonium chloride'
_symmetry_cell_setting           monoclinic
_symmetry_space_group_name_H-M   'P 21/c'
_symmetry_Int_Tables_number      14
_space_group_name_Hall           '-P 2ybc'
loop_
_symmetry_equiv_pos_site_id
_symmetry_equiv_pos_as_xyz
1 x,y,z
2 x,1/2-y,1/2+z
3 -x,-y,-z
4 -x,1/2+y,1/2-z
_cell_length_a                   12.5615(4)
_cell_length_b                   10.9659(4)
_cell_length_c                   17.2638(5)
_cell_angle_alpha                90
_cell_angle_beta                 104.8050(10)
_cell_angle_gamma                90
_cell_volume                     2299.11
_exptl_crystal_colour            colorless
_exptl_crystal_description       block
_chemical_melting_point          '423-425 K'
_cell_formula_units_Z            4
_exptl_crystal_recrystallization_method benzene/toluene
loop_
_atom_site_label
_atom_site_type_symbol
_atom_site_fract_x
_atom_site_fract_y
_atom_site_fract_z
Cl1 Cl 0.24361(5) 0.02437(6) 0.46942(3)
Cl2 Cl 0.61549(6) 0.25228(6) 0.60973(3)
P1 P 0.22962(4) 0.05283(4) 0.14703(3)
O1 O 0.22501(12) 0.01602(15) 0.30247(9)
C1 C 0.34476(19) 0.0414(2) 0.03147(14)
H1 H 0.3975 -0.0016 0.0692
C2 C 0.3552(2) 0.0554(2) -0.04595(17)
H2 H 0.4158 0.0222 -0.0600
C3 C 0.2771(2) 0.1178(2) -0.10228(14)
H3 H 0.2841 0.1249 -0.1544
C4 C 0.1891(2) 0.1693(2) -0.08173(13)
H4 H 0.1370 0.2126 -0.1197
C5 C 0.17726(18) 0.1571(2) -0.00459(12)
H5 H 0.1173 0.1924 0.0092
C6 C 0.25464(16) 0.09251(17) 0.05215(11)
C7 C 0.12457(19) 0.26426(19) 0.16885(14)
H6 H 0.1916 0.3016 0.1704
C8 C 0.0359(2) 0.3323(2) 0.17779(16)
H7 H 0.0437 0.4160 0.1860
C9 C -0.0634(2) 0.2784(2) 0.17482(18)
H8 H -0.1227 0.3256 0.1802
C10 C -0.0754(2) 0.1548(2) 0.16394(19)
H9 H -0.1428 0.1182 0.1621
C11 C 0.01225(18) 0.0843(2) 0.15565(15)
H10 H 0.0041 0.0003 0.1489
C12 C 0.11185(15) 0.13869(17) 0.15738(11)
C13 C 0.12664(19) -0.1564(2) 0.07666(15)
H11 H 0.0826 -0.1040 0.0396
C14 C 0.1120(2) -0.2811(2) 0.06840(17)
H12 H 0.0573 -0.3126 0.0263
C15 C 0.1787(2) -0.3588(2) 0.12276(16)
H13 H 0.1682 -0.4427 0.1176
C16 C 0.2606(2) -0.3126(2) 0.18443(14)
H14 H 0.3061 -0.3654 0.2203
C17 C 0.27572(18) -0.18827(19) 0.19343(12)
H15 H 0.3317 -0.1574 0.2349
C18 C 0.20702(15) -0.10935(16) 0.14031(11)
C19 C 0.34558(15) 0.09112(17) 0.22925(11)
H16 H 0.4089 0.0418 0.2271
H17 H 0.3649 0.1763 0.2262
C20 C 0.31270(16) 0.06657(17) 0.30704(11)
C21 C 0.38759(16) 0.10597(16) 0.38370(11)
C22 C 0.36295(17) 0.09391(17) 0.45809(12)
C23 C 0.43275(18) 0.13783(18) 0.52769(12)
H18 H 0.4153 0.1296 0.5766
C24 C 0.52900(18) 0.19413(18) 0.52286(12)
C25 C 0.55827(17) 0.20601(19) 0.45163(12)
H19 H 0.6243 0.2430 0.4500
C26 C 0.48749(16) 0.16186(18) 0.38302(12)
H20 H 0.5066 0.1694 0.3346
Cl3 Cl 0.41717(5) 0.40538(5) 0.23792(3)
loop_
_geom_bond_atom_site_label_1
_geom_bond_atom_site_label_2
_geom_bond_site_symmetry_1
_geom_bond_site_symmetry_2
Cl1 C22 1_555 1_555
Cl2 C24 1_555 1_555
P1 C6 1_555 1_555
O1 C20 1_555 1_555
C1 H1 1_555 1_555
C2 C1 1_555 1_555
H2 C2 1_555 1_555
C3 C2 1_555 1_555
H3 C3 1_555 1_555
C4 C3 1_555 1_555
H4 C4 1_555 1_555
C5 C4 1_555 1_555
H5 C5 1_555 1_555
C6 C1 1_555 1_555
C7 H6 1_555 1_555
C8 C7 1_555 1_555
H7 C8 1_555 1_555
C9 C8 1_555 1_555
H8 C9 1_555 1_555
C10 C9 1_555 1_555
H9 C10 1_555 1_555
C11 C10 1_555 1_555
H10 C11 1_555 1_555
C12 P1 1_555 1_555
C13 H11 1_555 1_555
C14 C13 1_555 1_555
H12 C14 1_555 1_555
C15 C14 1_555 1_555
H13 C15 1_555 1_555
C16 C15 1_555 1_555
H14 C16 1_555 1_555
C17 C16 1_555 1_555
H15 C17 1_555 1_555
C18 P1 1_555 1_555
C19 P1 1_555 1_555
H16 C19 1_555 1_555
H17 C19 1_555 1_555
C20 C19 1_555 1_555
C21 C20 1_555 1_555
C22 C21 1_555 1_555
C23 C22 1_555 1_555
H18 C23 1_555 1_555
C24 C23 1_555 1_555
C25 C24 1_555 1_555
H19 C25 1_555 1_555
C26 C21 1_555 1_555
H20 C26 1_555 1_555
C5 C6 1_555 1_555
C7 C12 1_555 1_555
C11 C12 1_555 1_555
C13 C18 1_555 1_555
C17 C18 1_555 1_555
C25 C26 1_555 1_555

#END
