
#######################################################################
#
#                 Cambridge Crystallographic Data Centre
#                                CCDC 
#
#######################################################################
#
# If this CIF has been generated from an entry in the Cambridge 
# Structural Database, then it will include bibliographic, chemical, 
# crystal, experimental, refinement or atomic coordinate data resulting 
# from the CCDC's data processing and validation procedures.
#
#######################################################################

data_IXAQON
_chemical_formula_moiety         'C23 H21 N3,C3 H8 O1'
_chemical_name_systematic        
'2-(4-(Dimethylamino)phenyl)-4,5-diphenyl-1H-imidazole isopropyl alcohol solvate'
_symmetry_cell_setting           triclinic
_symmetry_space_group_name_H-M   'P -1'
_symmetry_Int_Tables_number      2
_space_group_name_Hall           '-P 1'
loop_
_symmetry_equiv_pos_site_id
_symmetry_equiv_pos_as_xyz
1 x,y,z
2 -x,-y,-z
_cell_length_a                   8.764(12)
_cell_length_b                   12.087(14)
_cell_length_c                   21.07(4)
_cell_angle_alpha                97.48(9)
_cell_angle_beta                 93.12(10)
_cell_angle_gamma                91.89(10)
_cell_volume                     2207.87
_exptl_crystal_colour            colorless
_exptl_crystal_description       plates
_chemical_melting_point          '530-531 K'
_cell_formula_units_Z            4
loop_
_atom_site_label
_atom_site_type_symbol
_atom_site_fract_x
_atom_site_fract_y
_atom_site_fract_z
O1 O 1.00326(16) 0.04421(11) 0.27669(7)
C47 C 0.8794(2) 0.10395(15) 0.25164(10)
H41 H 0.8974 0.1138 0.2072
C48 C 0.7361(2) 0.03045(17) 0.25227(10)
H42 H 0.7446 -0.0374 0.2236
H43 H 0.6488 0.0692 0.2387
H44 H 0.7241 0.0130 0.2949
C49 C 0.8656(2) 0.21699(16) 0.28979(11)
H45 H 0.8422 0.2081 0.3329
H46 H 0.7853 0.2557 0.2704
H47 H 0.9605 0.2593 0.2904
H57 H 1.089(3) 0.080(2) 0.2791(12)
O2 O 0.45391(15) 0.55282(10) 0.27837(6)
C50 C 0.5789(2) 0.61192(15) 0.25372(9)
H48 H 0.5531 0.6206 0.2089
C51 C 0.6079(2) 0.72532(16) 0.29192(10)
H49 H 0.5167 0.7670 0.2903
H50 H 0.6892 0.7642 0.2742
H51 H 0.6361 0.7171 0.3357
C52 C 0.7165(2) 0.53920(16) 0.25709(10)
H52 H 0.7347 0.5231 0.3002
H53 H 0.8048 0.5779 0.2443
H54 H 0.6969 0.4706 0.2288
H58 H 0.361(3) 0.590(2) 0.2741(11)
N1 N 0.39415(18) 0.32183(13) 0.26143(7)
N2 N 0.28727(17) 0.15892(12) 0.27476(7)
N3 N 0.1504(2) 0.43948(15) 0.54869(8)
C1 C 0.3505(2) 0.15053(14) 0.21588(8)
C2 C 0.4176(2) 0.25195(14) 0.20654(8)
C3 C 0.3166(2) 0.26353(14) 0.30146(9)
C4 C 0.2756(2) 0.30913(15) 0.36510(9)
C5 C 0.1855(2) 0.24683(15) 0.40157(9)
H1 H 0.1511 0.1751 0.3842
C6 C 0.1460(2) 0.28791(16) 0.46209(9)
H2 H 0.0861 0.2439 0.4849
C7 C 0.1955(2) 0.39577(16) 0.48963(9)
C8 C 0.2901(2) 0.45655(16) 0.45402(9)
H3 H 0.3285 0.5270 0.4720
C9 C 0.3279(2) 0.41510(16) 0.39340(9)
H4 H 0.3895 0.4584 0.3709
C10 C 0.0514(2) 0.37587(19) 0.58397(10)
H5 H -0.0398 0.3517 0.5579
H6 H 0.0248 0.4216 0.6222
H7 H 0.1032 0.3119 0.5954
C11 C 0.1962(3) 0.55307(17) 0.57435(10)
H8 H 0.3043 0.5579 0.5851
H9 H 0.1424 0.5752 0.6121
H10 H 0.1724 0.6016 0.5429
C12 C 0.3421(2) 0.04430(14) 0.17335(9)
C13 C 0.3557(2) -0.05649(15) 0.19911(9)
H11 H 0.3667 -0.0555 0.2433
C14 C 0.3532(2) -0.15685(15) 0.15979(9)
H12 H 0.3622 -0.2232 0.1773
C15 C 0.3372(2) -0.15840(15) 0.09443(9)
H13 H 0.3371 -0.2259 0.0676
C16 C 0.3212(2) -0.05876(16) 0.06826(9)
H14 H 0.3090 -0.0601 0.0240
C17 C 0.3234(2) 0.04103(15) 0.10756(9)
H15 H 0.3122 0.1071 0.0898
C18 C 0.5004(2) 0.29155(15) 0.15409(8)
C19 C 0.6144(2) 0.22881(16) 0.12475(9)
H16 H 0.6363 0.1597 0.1371
C20 C 0.6953(2) 0.26938(17) 0.07715(9)
H17 H 0.7718 0.2275 0.0581
C21 C 0.6626(2) 0.37232(17) 0.05767(10)
H18 H 0.7174 0.3993 0.0259
C22 C 0.5487(2) 0.43389(16) 0.08572(9)
H19 H 0.5260 0.5022 0.0725
C23 C 0.4675(2) 0.39464(15) 0.13373(9)
H20 H 0.3911 0.4370 0.1524
H55 H 0.420(2) 0.3907(18) 0.2680(9)
N4 N 0.17083(17) 0.65444(12) 0.26835(7)
N5 N 0.05680(17) 0.81224(13) 0.25548(7)
N6 N 0.3556(2) 0.93704(15) 0.54645(8)
C24 C 0.1455(2) 0.75769(14) 0.29539(8)
C25 C 0.0222(2) 0.74141(14) 0.20004(8)
C26 C 0.0936(2) 0.64401(14) 0.20894(8)
C27 C 0.1997(2) 0.80486(15) 0.36001(9)
C28 C 0.1483(2) 0.90582(16) 0.38895(9)
H21 H 0.0797 0.9451 0.3661
C29 C 0.1965(2) 0.94830(16) 0.45018(9)
H22 H 0.1590 1.0154 0.4685
C30 C 0.3021(2) 0.89234(16) 0.48613(9)
C31 C 0.3506(2) 0.78913(16) 0.45744(9)
H23 H 0.4175 0.7488 0.4804
C32 C 0.3008(2) 0.74725(15) 0.39625(9)
H24 H 0.3349 0.6788 0.3782
C33 C 0.4602(3) 0.87672(19) 0.58327(10)
H25 H 0.4099 0.8093 0.5924
H26 H 0.4924 0.9224 0.6228
H27 H 0.5478 0.8584 0.5591
C34 C 0.3093(3) 1.04585(17) 0.57312(10)
H28 H 0.3251 1.0978 0.5431
H29 H 0.3690 1.0703 0.6123
H30 H 0.2030 1.0418 0.5818
C35 C 0.0936(2) 0.53774(14) 0.16620(9)
C36 C 0.0803(2) 0.43579(14) 0.19121(9)
H31 H 0.0721 0.4360 0.2350
C37 C 0.0794(2) 0.33573(16) 0.15178(10)
H32 H 0.0702 0.2688 0.1688
C38 C 0.0924(2) 0.33508(16) 0.08669(10)
H33 H 0.0924 0.2676 0.0599
C39 C 0.1055(2) 0.43529(16) 0.06125(9)
H34 H 0.1141 0.4345 0.0174
C40 C 0.1059(2) 0.53566(15) 0.10049(9)
H35 H 0.1144 0.6023 0.0830
C41 C -0.0746(2) 0.77615(14) 0.14765(8)
C42 C -0.1915(2) 0.70540(15) 0.11677(9)
H36 H -0.2061 0.6342 0.1282
C43 C -0.2860(2) 0.73993(16) 0.06927(9)
H37 H -0.3630 0.6914 0.0485
C44 C -0.2670(2) 0.84716(17) 0.05203(9)
H38 H -0.3331 0.8707 0.0209
C45 C -0.1502(2) 0.91767(16) 0.08133(9)
H39 H -0.1352 0.9884 0.0694
C46 C -0.0546(2) 0.88250(15) 0.12891(9)
H40 H 0.0242 0.9304 0.1487
H56 H 0.031(2) 0.8860(19) 0.2619(10)
loop_
_geom_bond_atom_site_label_1
_geom_bond_atom_site_label_2
_geom_bond_site_symmetry_1
_geom_bond_site_symmetry_2
O1 C47 1_555 1_555
O2 C50 1_555 1_555
N1 C2 1_555 1_555
N2 C1 1_555 1_555
N3 C7 1_555 1_555
N4 C24 1_555 1_555
N5 C24 1_555 1_555
N6 C30 1_555 1_555
C1 C2 1_555 1_555
C2 C18 1_555 1_555
C3 N1 1_555 1_555
C4 C3 1_555 1_555
C5 C4 1_555 1_555
H1 C5 1_555 1_555
C6 C5 1_555 1_555
H2 C6 1_555 1_555
C7 C6 1_555 1_555
C8 C7 1_555 1_555
H3 C8 1_555 1_555
C9 C4 1_555 1_555
H4 C9 1_555 1_555
C10 N3 1_555 1_555
H5 C10 1_555 1_555
H6 C10 1_555 1_555
H7 C10 1_555 1_555
C11 N3 1_555 1_555
H8 C11 1_555 1_555
H9 C11 1_555 1_555
H10 C11 1_555 1_555
C12 C1 1_555 1_555
C13 C12 1_555 1_555
H11 C13 1_555 1_555
C14 C13 1_555 1_555
H12 C14 1_555 1_555
C15 C14 1_555 1_555
H13 C15 1_555 1_555
C16 C15 1_555 1_555
H14 C16 1_555 1_555
C17 C12 1_555 1_555
H15 C17 1_555 1_555
C18 C19 1_555 1_555
C19 H16 1_555 1_555
C20 C19 1_555 1_555
H17 C20 1_555 1_555
C21 C20 1_555 1_555
H18 C21 1_555 1_555
C22 C21 1_555 1_555
H19 C22 1_555 1_555
C23 C18 1_555 1_555
H20 C23 1_555 1_555
C24 C27 1_555 1_555
C25 N5 1_555 1_555
C26 N4 1_555 1_555
C27 C28 1_555 1_555
C28 H21 1_555 1_555
C29 C28 1_555 1_555
H22 C29 1_555 1_555
C30 C29 1_555 1_555
C31 C30 1_555 1_555
H23 C31 1_555 1_555
C32 C27 1_555 1_555
H24 C32 1_555 1_555
C33 N6 1_555 1_555
H25 C33 1_555 1_555
H26 C33 1_555 1_555
H27 C33 1_555 1_555
C34 N6 1_555 1_555
H28 C34 1_555 1_555
H29 C34 1_555 1_555
H30 C34 1_555 1_555
C35 C26 1_555 1_555
C36 C35 1_555 1_555
H31 C36 1_555 1_555
C37 C36 1_555 1_555
H32 C37 1_555 1_555
C38 C37 1_555 1_555
H33 C38 1_555 1_555
C39 C38 1_555 1_555
H34 C39 1_555 1_555
C40 C35 1_555 1_555
H35 C40 1_555 1_555
C41 C25 1_555 1_555
C42 C41 1_555 1_555
H36 C42 1_555 1_555
C43 C42 1_555 1_555
H37 C43 1_555 1_555
C44 C43 1_555 1_555
H38 C44 1_555 1_555
C45 C44 1_555 1_555
H39 C45 1_555 1_555
C46 C41 1_555 1_555
H40 C46 1_555 1_555
C47 H41 1_555 1_555
C48 C47 1_555 1_555
H42 C48 1_555 1_555
H43 C48 1_555 1_555
H44 C48 1_555 1_555
C49 C47 1_555 1_555
H45 C49 1_555 1_555
H46 C49 1_555 1_555
H47 C49 1_555 1_555
C50 H48 1_555 1_555
C51 C50 1_555 1_555
H49 C51 1_555 1_555
H50 C51 1_555 1_555
H51 C51 1_555 1_555
C52 C50 1_555 1_555
H52 C52 1_555 1_555
H53 C52 1_555 1_555
H54 C52 1_555 1_555
H55 N1 1_555 1_555
H56 N5 1_555 1_555
H57 O1 1_555 1_555
H58 O2 1_555 1_555
N2 C3 1_555 1_555
C8 C9 1_555 1_555
C16 C17 1_555 1_555
C22 C23 1_555 1_555
C25 C26 1_555 1_555
C31 C32 1_555 1_555
C39 C40 1_555 1_555
C45 C46 1_555 1_555

#END
