
#######################################################################
#
#                 Cambridge Crystallographic Data Centre
#                                CCDC 
#
#######################################################################
#
# If this CIF has been generated from an entry in the Cambridge 
# Structural Database, then it will include bibliographic, chemical, 
# crystal, experimental, refinement or atomic coordinate data resulting 
# from the CCDC's data processing and validation procedures.
#
#######################################################################

data_IXEKAX
_chemical_formula_moiety         'C50 H36 O4,C12 H4 N4,1.5(C1 H1 Cl3)'
_chemical_name_systematic        
'syn-8,21-bis(Acetoxy)-5,7,10,12,17,19,22,24-octahydro-5,24:7,22:10,19:12,17-tetramethanodecacene 7,7,8,8-tetracyanoquinodimethane clathrate chloroform solvate'
_symmetry_cell_setting           monoclinic
_symmetry_space_group_name_H-M   'P 2/c'
_symmetry_Int_Tables_number      13
_space_group_name_Hall           '-P 2yc'
loop_
_symmetry_equiv_pos_site_id
_symmetry_equiv_pos_as_xyz
1 x,y,z
2 x,-y,1/2+z
3 -x,-y,-z
4 -x,y,1/2-z
_cell_length_a                   19.870(3)
_cell_length_b                   10.8438(14)
_cell_length_c                   24.554(3)
_cell_angle_alpha                90
_cell_angle_beta                 91.791(2)
_cell_angle_gamma                90
_cell_volume                     5287.98
_exptl_crystal_colour            brown
_exptl_crystal_description       block
_cell_formula_units_Z            4
_exptl_crystal_recrystallization_method chloroform/methanol
loop_
_atom_site_label
_atom_site_type_symbol
_atom_site_fract_x
_atom_site_fract_y
_atom_site_fract_z
O1 O 0.17093(7) 0.63488(14) 0.03430(6)
O2 O 0.15858(11) 0.44578(19) -0.00291(9)
O3 O 0.42729(7) 0.55997(14) 0.12976(6)
O4 O 0.46214(10) 0.75069(18) 0.11133(10)
C1 C 0.23471(10) 0.60636(18) 0.05730(8)
C2 C 0.28818(10) 0.58397(18) 0.02575(8)
C3 C 0.29624(11) 0.57061(19) -0.03540(8)
H1 H 0.2602 0.6010 -0.0587
C4 C 0.31859(11) 0.43650(19) -0.04391(8)
C5 C 0.28571(12) 0.3358(2) -0.06790(8)
H2 H 0.2411 0.3425 -0.0839
C6 C 0.32112(11) 0.2251(2) -0.06790(8)
C7 C 0.30165(12) 0.0954(2) -0.08792(9)
H3 H 0.2656 0.0898 -0.1147
C8 C 0.29450(11) 0.01859(19) -0.03636(9)
C9 C 0.23955(12) -0.0317(2) -0.01145(10)
H4 H 0.1953 -0.0253 -0.0280
C10 C 0.25020(13) -0.0912(2) 0.03838(11)
H5 H 0.2127 -0.1276 0.0561
C11 C 0.31348(14) -0.1001(2) 0.06230(10)
H6 H 0.3192 -0.1413 0.0967
C12 C 0.36967(13) -0.0492(2) 0.03762(10)
H7 H 0.4138 -0.0547 0.0544
C13 C 0.35933(11) 0.00911(19) -0.01195(9)
C14 C 0.40669(12) 0.0796(2) -0.04867(10)
H8 H 0.4539 0.0617 -0.0444
C15 C 0.38568(11) 0.2144(2) -0.04360(9)
C16 C 0.41746(11) 0.3143(2) -0.01832(9)
H9 H 0.4612 0.3066 -0.0010
C17 C 0.38329(10) 0.42558(19) -0.01983(8)
C18 C 0.40149(11) 0.5519(2) 0.00377(8)
H10 H 0.4484 0.5675 0.0116
C19 C 0.35366(10) 0.57223(18) 0.05017(8)
C20 C 0.36354(9) 0.58198(18) 0.10486(8)
C21 C 0.30871(9) 0.60584(17) 0.13926(8)
C22 C 0.31805(10) 0.61875(18) 0.19688(8)
H11 H 0.3622 0.6131 0.2137
C23 C 0.26352(10) 0.63927(18) 0.22769(8)
C24 C 0.25605(11) 0.64581(19) 0.28954(8)
H12 H 0.2951 0.6693 0.3111
C25 C 0.22389(10) 0.52209(19) 0.30264(7)
C26 C 0.25112(11) 0.4158(2) 0.32573(8)
H13 H 0.2961 0.4141 0.3412
C27 C 0.21017(11) 0.31274(19) 0.32630(8)
C28 C 0.22476(13) 0.1795(2) 0.34365(9)
H14 H 0.2615 0.1666 0.3694
C29 C 0.22623(12) 0.1076(2) 0.29006(9)
C30 C 0.27787(12) 0.0543(2) 0.26227(9)
H15 H 0.3230 0.0548 0.2774
C31 C 0.26250(15) -0.0006(2) 0.21174(10)
H16 H 0.2979 -0.0381 0.1918
C32 C 0.19778(15) -0.0016(2) 0.19055(10)
H17 H 0.1883 -0.0410 0.1561
C33 C 0.14539(14) 0.0543(2) 0.21810(10)
H18 H 0.1003 0.0549 0.2029
C34 C 0.15997(12) 0.1087(2) 0.26809(9)
C35 C 0.11771(13) 0.1824(2) 0.30729(10)
H19 H 0.0698 0.1719 0.3042
C36 C 0.14432(11) 0.3143(2) 0.30399(8)
C37 C 0.11693(11) 0.4207(2) 0.27998(8)
H20 H 0.0720 0.4221 0.2644
C38 C 0.15799(10) 0.52442(19) 0.27966(8)
C39 C 0.14954(11) 0.65028(19) 0.25190(8)
H21 H 0.1043 0.6773 0.2440
C40 C 0.19715(10) 0.64378(18) 0.20421(8)
C41 C 0.18635(10) 0.63419(18) 0.14902(8)
H22 H 0.1416 0.6396 0.1334
C42 C 0.24248(9) 0.61667(17) 0.11516(7)
C43 C 0.37225(13) 0.0497(2) -0.10476(10)
H23 H 0.3902 0.0968 -0.1341
H24 H 0.3728 -0.0367 -0.1133
C44 C 0.36625(12) 0.6358(2) -0.03990(9)
H25 H 0.3654 0.7210 -0.0292
H26 H 0.3849 0.6275 -0.0753
C45 C 0.19305(12) 0.7304(2) 0.29171(9)
H27 H 0.2012 0.8117 0.2778
H28 H 0.1751 0.7351 0.3275
C46 C 0.15304(14) 0.1416(2) 0.36159(10)
H29 H 0.1383 0.1877 0.3924
H30 H 0.1490 0.0548 0.3682
C47 C 0.13831(12) 0.5495(2) 0.00277(10)
C48 C 0.07613(15) 0.6043(3) -0.02381(14)
H31 H 0.0855 0.6298 -0.0607
H32 H 0.0622 0.6753 -0.0029
H33 H 0.0404 0.5433 -0.0248
C49 C 0.47377(11) 0.6522(2) 0.12997(9)
C50 C 0.53813(12) 0.6086(3) 0.15567(11)
H34 H 0.5716 0.6736 0.1543
H35 H 0.5538 0.5370 0.1361
H36 H 0.5310 0.5865 0.1933
N1 N 0.49118(15) 0.2258(5) 0.10986(16)
N2 N 0.41640(16) 0.3567(3) 0.26822(13)
N3 N 0.02739(14) 0.3246(4) 0.14609(15)
N4 N 0.09601(16) 0.1582(3) -0.00459(13)
C51 C 0.32615(10) 0.28258(19) 0.14873(9)
C52 C 0.27096(11) 0.31888(19) 0.18174(8)
H37 H 0.2798 0.3465 0.2184
C53 C 0.20734(11) 0.31370(19) 0.16188(9)
H38 H 0.1712 0.3408 0.1840
C54 C 0.19234(10) 0.2689(2) 0.10743(8)
C55 C 0.24776(11) 0.2365(2) 0.07370(9)
H39 H 0.2387 0.2101 0.0369
C56 C 0.31167(11) 0.2428(2) 0.09326(9)
H40 H 0.3481 0.2211 0.0703
C57 C 0.39129(12) 0.2859(2) 0.16928(11)
C58 C 0.44735(14) 0.2536(3) 0.13642(14)
C59 C 0.40623(14) 0.3258(3) 0.22381(13)
C60 C 0.12681(12) 0.2554(2) 0.08875(10)
C61 C 0.07106(14) 0.2926(3) 0.12054(13)
C62 C 0.10980(14) 0.2033(3) 0.03631(12)
Cl1 Cl 0.01106(5) 0.65432(9) 0.36950(5)
Cl2 Cl 0.03096(5) 0.88700(10) 0.31771(4)
Cl3 Cl -0.05572(5) 0.87067(11) 0.40943(4)
C63 C 0.01695(14) 0.8140(3) 0.37993(12)
H41 H 0.0547 0.8302 0.4042
Cl4? Cl 0.42822(5) -0.14841(11) 0.24149(6)
Cl5? Cl 0.48542(14) 0.0704(2) 0.27076(14)
C64? C 0.5003(4) -0.0648(8) 0.2298(3)
H42? H 0.5051 -0.0456 0.1919
loop_
_geom_bond_atom_site_label_1
_geom_bond_atom_site_label_2
_geom_bond_site_symmetry_1
_geom_bond_site_symmetry_2
O1 C1 1_555 1_555
O2 C47 1_555 1_555
O3 C20 1_555 1_555
O4 C49 1_555 1_555
C1 C2 1_555 1_555
C2 C3 1_555 1_555
C3 H1 1_555 1_555
C4 C3 1_555 1_555
C5 C4 1_555 1_555
H2 C5 1_555 1_555
C6 C5 1_555 1_555
C7 C6 1_555 1_555
H3 C7 1_555 1_555
C8 C7 1_555 1_555
C9 C8 1_555 1_555
H4 C9 1_555 1_555
C10 C9 1_555 1_555
H5 C10 1_555 1_555
C11 C10 1_555 1_555
H6 C11 1_555 1_555
C12 C11 1_555 1_555
H7 C12 1_555 1_555
C13 C8 1_555 1_555
C14 C13 1_555 1_555
H8 C14 1_555 1_555
C15 C6 1_555 1_555
C16 C15 1_555 1_555
H9 C16 1_555 1_555
C17 C4 1_555 1_555
C18 C17 1_555 1_555
H10 C18 1_555 1_555
C19 C2 1_555 1_555
C20 C19 1_555 1_555
C21 C20 1_555 1_555
C22 C21 1_555 1_555
H11 C22 1_555 1_555
C23 C22 1_555 1_555
C24 C23 1_555 1_555
H12 C24 1_555 1_555
C25 C24 1_555 1_555
C26 C25 1_555 1_555
H13 C26 1_555 1_555
C27 C26 1_555 1_555
C28 C27 1_555 1_555
H14 C28 1_555 1_555
C29 C28 1_555 1_555
C30 C29 1_555 1_555
H15 C30 1_555 1_555
C31 C30 1_555 1_555
H16 C31 1_555 1_555
C32 C31 1_555 1_555
H17 C32 1_555 1_555
C33 C32 1_555 1_555
H18 C33 1_555 1_555
C34 C29 1_555 1_555
C35 C34 1_555 1_555
H19 C35 1_555 1_555
C36 C27 1_555 1_555
C37 C36 1_555 1_555
H20 C37 1_555 1_555
C38 C25 1_555 1_555
C39 C38 1_555 1_555
H21 C39 1_555 1_555
C40 C23 1_555 1_555
C41 C40 1_555 1_555
H22 C41 1_555 1_555
C42 C1 1_555 1_555
C43 C7 1_555 1_555
H23 C43 1_555 1_555
H24 C43 1_555 1_555
C44 C3 1_555 1_555
H25 C44 1_555 1_555
H26 C44 1_555 1_555
C45 C24 1_555 1_555
H27 C45 1_555 1_555
H28 C45 1_555 1_555
C46 C28 1_555 1_555
H29 C46 1_555 1_555
H30 C46 1_555 1_555
C47 O1 1_555 1_555
C48 C47 1_555 1_555
H31 C48 1_555 1_555
H32 C48 1_555 1_555
H33 C48 1_555 1_555
C49 O3 1_555 1_555
C50 C49 1_555 1_555
H34 C50 1_555 1_555
H35 C50 1_555 1_555
H36 C50 1_555 1_555
N1 C58 1_555 1_555
N2 C59 1_555 1_555
N3 C61 1_555 1_555
N4 C62 1_555 1_555
C51 C52 1_555 1_555
C52 H37 1_555 1_555
C53 C52 1_555 1_555
H38 C53 1_555 1_555
C54 C53 1_555 1_555
C55 C54 1_555 1_555
H39 C55 1_555 1_555
C56 C51 1_555 1_555
H40 C56 1_555 1_555
C57 C51 1_555 1_555
C58 C57 1_555 1_555
C59 C57 1_555 1_555
C60 C54 1_555 1_555
C61 C60 1_555 1_555
C62 C60 1_555 1_555
Cl1 C63 1_555 1_555
Cl2 C63 1_555 1_555
Cl3 C63 1_555 1_555
C63 H41 1_555 1_555
C12 C13 1_555 1_555
C14 C15 1_555 1_555
C14 C43 1_555 1_555
C16 C17 1_555 1_555
C18 C19 1_555 1_555
C18 C44 1_555 1_555
C21 C42 1_555 1_555
C33 C34 1_555 1_555
C35 C36 1_555 1_555
C35 C46 1_555 1_555
C37 C38 1_555 1_555
C39 C40 1_555 1_555
C39 C45 1_555 1_555
C41 C42 1_555 1_555
C55 C56 1_555 1_555

#END
