
#######################################################################
#
#                 Cambridge Crystallographic Data Centre
#                                CCDC 
#
#######################################################################
#
# If this CIF has been generated from an entry in the Cambridge 
# Structural Database, then it will include bibliographic, chemical, 
# crystal, experimental, refinement or atomic coordinate data resulting 
# from the CCDC's data processing and validation procedures.
#
#######################################################################

data_IXEVUC
_chemical_formula_moiety         'C32 H24 F6 N2 O2 S2'
_chemical_name_systematic        
17,26-bis(Trifluoracetyl)-17,26-diaza-1,10-dithia(2.2.2.2)metacyclophane
_symmetry_cell_setting           monoclinic
_symmetry_space_group_name_H-M   'P 21/m'
_symmetry_Int_Tables_number      11
_space_group_name_Hall           '-P 2yb'
loop_
_symmetry_equiv_pos_site_id
_symmetry_equiv_pos_as_xyz
1 x,y,z
2 x,1/2-y,z
3 -x,-y,-z
4 -x,1/2+y,-z
_cell_length_a                   8.891(1)
_cell_length_b                   18.046(1)
_cell_length_c                   9.834(1)
_cell_angle_alpha                90
_cell_angle_beta                 106.29(1)
_cell_angle_gamma                90
_cell_volume                     1514.49
_exptl_crystal_colour            colorless
_exptl_crystal_description       blocks
_cell_formula_units_Z            2
loop_
_atom_site_label
_atom_site_type_symbol
_atom_site_fract_x
_atom_site_fract_y
_atom_site_fract_z
C1 C 0.6582(4) 0.39020(17) 0.5494(3)
H1 H 0.7359 0.3962 0.4980
H2 H 0.6734 0.4300 0.6183
S1 S 0.46614(10) 0.39971(5) 0.42636(8)
C2 C 0.3402(3) 0.38984(17) 0.5367(3)
C3 C 0.1973(4) 0.3552(2) 0.4788(3)
H3 H 0.1722 0.3370 0.3867
C4 C 0.0927(4) 0.3479(2) 0.5582(4)
H4 H -0.0032 0.3250 0.5185
C5 C 0.1273(3) 0.37361(19) 0.6946(4)
H5 H 0.0569 0.3673 0.7480
C6 C 0.2691(3) 0.40912(16) 0.7515(3)
C7 C 0.3756(3) 0.41709(16) 0.6728(3)
H6 H 0.4707 0.4408 0.7119
N1 N 0.3108(2) 0.43570(13) 0.8952(2)
C8 C 0.4211(3) 0.38886(16) 1.0007(3)
H7 H 0.4565 0.4159 1.0891
H8 H 0.5120 0.3785 0.9676
C9 C 0.3494(3) 0.31702(15) 1.0271(3)
C10 C 0.2204(3) 0.31653(17) 1.0810(3)
H9 H 0.1772 0.3610 1.1000
C11 C 0.1567(4) 0.2500 1.1061(4)
H10 H 0.0694 0.2500 1.1406
C12 C 0.4113(4) 0.2500 1.0003(4)
H11 H 0.4968 0.2500 0.9634
C13 C 0.7693(5) 0.2500 0.8461(5)
H12 H 0.8063 0.2500 0.9444
C14 C 0.7418(3) 0.31664(18) 0.7731(3)
H13 H 0.7603 0.3611 0.8227
C15 C 0.6873(3) 0.31730(16) 0.6279(3)
C16 C 0.6597(4) 0.2500 0.5557(4)
H14 H 0.6222 0.2500 0.4574
C17 C 0.2509(3) 0.49550(16) 0.9420(3)
O1 O 0.2780(3) 0.51394(14) 1.0654(2)
C18 C 0.1408(4) 0.54496(19) 0.8307(4)
F1 F 0.1906(3) 0.55937(15) 0.7201(3)
F2 F 0.1236(3) 0.60995(13) 0.8865(3)
F3 F -0.0013(3) 0.51716(17) 0.7843(3)
C10A C 0.2204(3) 0.18347(17) 1.0810(3)
C9A C 0.3494(3) 0.18298(15) 1.0271(3)
C8A C 0.4211(3) 0.11114(16) 1.0007(3)
N1A N 0.3108(2) 0.06430(13) 0.8952(2)
C6A C 0.2691(3) 0.09088(16) 0.7515(3)
C5A C 0.1273(3) 0.12639(19) 0.6946(4)
C4A C 0.0927(4) 0.1521(2) 0.5582(4)
C3A C 0.1973(4) 0.1448(2) 0.4788(3)
C2A C 0.3402(3) 0.11016(17) 0.5367(3)
S1A S 0.46614(10) 0.10029(5) 0.42636(8)
C1A C 0.6582(4) 0.10980(17) 0.5494(3)
H1A H 0.7359 0.1038 0.4980
H2A H 0.6734 0.0700 0.6183
C15A C 0.6873(3) 0.18270(16) 0.6279(3)
C14A C 0.7418(3) 0.18336(18) 0.7731(3)
H13A H 0.7603 0.1389 0.8227
C7A C 0.3756(3) 0.08291(16) 0.6728(3)
H6A H 0.4707 0.0592 0.7119
H3A H 0.1722 0.1630 0.3867
H4A H -0.0032 0.1750 0.5185
H5A H 0.0569 0.1327 0.7480
C17A C 0.2509(3) 0.00450(16) 0.9420(3)
O1A O 0.2780(3) -0.01394(14) 1.0654(2)
C18A C 0.1408(4) -0.04496(19) 0.8307(4)
F1A F 0.1906(3) -0.05937(15) 0.7201(3)
F2A F 0.1236(3) -0.10995(13) 0.8865(3)
F3A F -0.0013(3) -0.01716(17) 0.7843(3)
H7A H 0.4565 0.0841 1.0891
H8A H 0.5120 0.1215 0.9676
H9A H 0.1772 0.1390 1.1000
loop_
_geom_bond_atom_site_label_1
_geom_bond_atom_site_label_2
_geom_bond_site_symmetry_1
_geom_bond_site_symmetry_2
C1 H1 1_555 1_555
H2 C1 1_555 1_555
S1 C1 1_555 1_555
C2 S1 1_555 1_555
C3 C2 1_555 1_555
H3 C3 1_555 1_555
C4 C3 1_555 1_555
H4 C4 1_555 1_555
C5 C4 1_555 1_555
H5 C5 1_555 1_555
C6 C5 1_555 1_555
C7 C2 1_555 1_555
H6 C7 1_555 1_555
N1 C6 1_555 1_555
C8 N1 1_555 1_555
H7 C8 1_555 1_555
H8 C8 1_555 1_555
C9 C8 1_555 1_555
C10 C9 1_555 1_555
H9 C10 1_555 1_555
C11 C10 1_555 1_555
H10 C11 1_555 1_555
C12 C9 1_555 1_555
H11 C12 1_555 1_555
C13 H12 1_555 1_555
C14 C13 1_555 1_555
H13 C14 1_555 1_555
C15 C1 1_555 1_555
C16 C15 1_555 1_555
H14 C16 1_555 1_555
C17 N1 1_555 1_555
O1 C17 1_555 1_555
C18 C17 1_555 1_555
F1 C18 1_555 1_555
F2 C18 1_555 1_555
F3 C18 1_555 1_555
C10A C11 1_555 1_555
C9A C12 1_555 1_555
C8A C9A 1_555 1_555
N1A C8A 1_555 1_555
C6A N1A 1_555 1_555
C5A C6A 1_555 1_555
C4A C5A 1_555 1_555
C3A C4A 1_555 1_555
C2A C3A 1_555 1_555
S1A C2A 1_555 1_555
C1A S1A 1_555 1_555
H1A C1A 1_555 1_555
H2A C1A 1_555 1_555
C15A C16 1_555 1_555
C14A C13 1_555 1_555
H13A C14A 1_555 1_555
C7A C6A 1_555 1_555
H6A C7A 1_555 1_555
H3A C3A 1_555 1_555
H4A C4A 1_555 1_555
H5A C5A 1_555 1_555
C17A N1A 1_555 1_555
O1A C17A 1_555 1_555
C18A C17A 1_555 1_555
F1A C18A 1_555 1_555
F2A C18A 1_555 1_555
F3A C18A 1_555 1_555
H7A C8A 1_555 1_555
H8A C8A 1_555 1_555
H9A C10A 1_555 1_555
C6 C7 1_555 1_555
C14 C15 1_555 1_555
C10A C9A 1_555 1_555
C2A C7A 1_555 1_555
C1A C15A 1_555 1_555
C15A C14A 1_555 1_555

#END
