
#######################################################################
#
#                 Cambridge Crystallographic Data Centre
#                                CCDC 
#
#######################################################################
#
# If this CIF has been generated from an entry in the Cambridge 
# Structural Database, then it will include bibliographic, chemical, 
# crystal, experimental, refinement or atomic coordinate data resulting 
# from the CCDC's data processing and validation procedures.
#
#######################################################################

data_IXEWAJ
_chemical_formula_moiety         'C20 H26 N2 O4 S2'
_chemical_name_systematic        1,2-bis(p-Toluenesulfonamido)cyclohexane
_symmetry_cell_setting           orthorhombic
_symmetry_space_group_name_H-M   'P c c a'
_symmetry_Int_Tables_number      54
_space_group_name_Hall           '-P 2a 2ac'
loop_
_symmetry_equiv_pos_site_id
_symmetry_equiv_pos_as_xyz
1 x,y,z
2 1/2-x,-y,z
3 -x,y,1/2-z
4 1/2+x,-y,1/2-z
5 -x,-y,-z
6 1/2+x,y,-z
7 x,-y,1/2+z
8 1/2-x,y,1/2+z
_cell_length_a                   19.650(6)
_cell_length_b                   8.566(2)
_cell_length_c                   12.745(3)
_cell_angle_alpha                90
_cell_angle_beta                 90
_cell_angle_gamma                90
_cell_volume                     2145.26
_exptl_crystal_colour            colorless
_exptl_crystal_description       prisms
_cell_formula_units_Z            4
loop_
_atom_site_label
_atom_site_type_symbol
_atom_site_fract_x
_atom_site_fract_y
_atom_site_fract_z
S1 S 0.58463(3) 0.00433(6) 0.12479(3)
O1 O 0.56124(8) -0.11166(16) 0.05217(11)
O2 O 0.60966(8) -0.04287(19) 0.22484(11)
N1 N 0.52160(8) 0.1212(2) 0.14163(13)
H1 H 0.4953(11) 0.125(3) 0.0876(16)
C1 C 0.52752(10) 0.2608(2) 0.20795(15)
H2 H 0.5718 0.2573 0.2432
C2 C 0.52493(15) 0.4086(3) 0.1420(2)
H3 H 0.4832 0.4095 0.1015
H4 H 0.5628 0.4087 0.0932
C3 C 0.52817(18) 0.5551(3) 0.2096(3)
H5 H 0.5719 0.5599 0.2448
H6 H 0.5239 0.6466 0.1653
C4 C 0.65081(10) 0.1103(2) 0.06422(15)
C5 C 0.70362(11) 0.1672(3) 0.12347(17)
H7 H 0.7040 0.1519 0.1957
C6 C 0.75600(12) 0.2468(3) 0.0758(2)
H8 H 0.7912 0.2868 0.1165
C7 C 0.75721(12) 0.2682(3) -0.03165(19)
C8 C 0.70322(13) 0.2107(3) -0.08934(18)
H9 H 0.7029 0.2250 -0.1617
C9 C 0.64995(11) 0.1331(3) -0.04312(16)
H10 H 0.6139 0.0964 -0.0834
C10 C 0.81718(14) 0.3465(4) -0.0842(3)
H11 H 0.8029 0.3908 -0.1498
H12 H 0.8523 0.2708 -0.0966
H13 H 0.8344 0.4277 -0.0395
S1B S 0.41537(3) 0.00433(6) 0.37521(3)
O1B O 0.43876(8) -0.11166(16) 0.44783(11)
O2B O 0.39034(8) -0.04287(19) 0.27516(11)
N1B N 0.47840(8) 0.1212(2) 0.35837(13)
H1B H 0.5047(11) 0.125(3) 0.4124(16)
C1B C 0.47248(10) 0.2608(2) 0.29205(15)
H2B H 0.4282 0.2573 0.2568
C2B C 0.47507(15) 0.4086(3) 0.3580(2)
H3B H 0.5168 0.4095 0.3985
H4B H 0.4372 0.4087 0.4068
C3B C 0.47183(18) 0.5551(3) 0.2904(3)
H5B H 0.4281 0.5599 0.2552
H6B H 0.4761 0.6466 0.3347
C4B C 0.34919(10) 0.1103(2) 0.43578(15)
C5B C 0.29638(11) 0.1672(3) 0.37653(17)
H7B H 0.2960 0.1519 0.3043
C6B C 0.24400(12) 0.2468(3) 0.4242(2)
H8B H 0.2088 0.2868 0.3835
C7B C 0.24279(12) 0.2682(3) 0.53165(19)
C8B C 0.29678(13) 0.2107(3) 0.58934(18)
H9B H 0.2971 0.2250 0.6617
C9B C 0.35005(11) 0.1331(3) 0.54312(16)
H10B H 0.3861 0.0964 0.5834
C10B C 0.18282(14) 0.3465(4) 0.5842(3)
H11B H 0.1971 0.3908 0.6498
H12B H 0.1477 0.2708 0.5966
H13B H 0.1656 0.4277 0.5395
loop_
_geom_bond_atom_site_label_1
_geom_bond_atom_site_label_2
_geom_bond_site_symmetry_1
_geom_bond_site_symmetry_2
S1 O1 1_555 1_555
O2 S1 1_555 1_555
N1 S1 1_555 1_555
H1 N1 1_555 1_555
C1 N1 1_555 1_555
H2 C1 1_555 1_555
C2 C1 1_555 1_555
H3 C2 1_555 1_555
H4 C2 1_555 1_555
C3 C2 1_555 1_555
H5 C3 1_555 1_555
H6 C3 1_555 1_555
C4 S1 1_555 1_555
C5 C4 1_555 1_555
H7 C5 1_555 1_555
C6 C5 1_555 1_555
H8 C6 1_555 1_555
C7 C6 1_555 1_555
C8 C7 1_555 1_555
H9 C8 1_555 1_555
C9 C4 1_555 1_555
H10 C9 1_555 1_555
C10 C7 1_555 1_555
H11 C10 1_555 1_555
H12 C10 1_555 1_555
H13 C10 1_555 1_555
S1B O1B 1_555 1_555
O2B S1B 1_555 1_555
N1B S1B 1_555 1_555
H1B N1B 1_555 1_555
C1B C1 1_555 1_555
H2B C1B 1_555 1_555
C2B C1B 1_555 1_555
H3B C2B 1_555 1_555
H4B C2B 1_555 1_555
C3B C3 1_555 1_555
H5B C3B 1_555 1_555
H6B C3B 1_555 1_555
C4B S1B 1_555 1_555
C5B C4B 1_555 1_555
H7B C5B 1_555 1_555
C6B C5B 1_555 1_555
H8B C6B 1_555 1_555
C7B C6B 1_555 1_555
C8B C7B 1_555 1_555
H9B C8B 1_555 1_555
C9B C4B 1_555 1_555
H10B C9B 1_555 1_555
C10B C7B 1_555 1_555
H11B C10B 1_555 1_555
H12B C10B 1_555 1_555
H13B C10B 1_555 1_555
C8 C9 1_555 1_555
N1B C1B 1_555 1_555
C2B C3B 1_555 1_555
C8B C9B 1_555 1_555

#END
