
#######################################################################
#
#                 Cambridge Crystallographic Data Centre
#                                CCDC 
#
#######################################################################
#
# If this CIF has been generated from an entry in the Cambridge 
# Structural Database, then it will include bibliographic, chemical, 
# crystal, experimental, refinement or atomic coordinate data resulting 
# from the CCDC's data processing and validation procedures.
#
#######################################################################

data_IXICOJ
_chemical_formula_moiety         'C20 H12 F6 N4,0.5(C1 H1 Cl3)'
_chemical_name_systematic        
'2-(3,5-bis(trifluoromethyl)phenyl)-7-(4-methylphenyl)[1,2,4]triazolo[1,5-a]pyrimidine chloroform solvate'
_symmetry_cell_setting           monoclinic
_symmetry_space_group_name_H-M   'P 21/n'
_symmetry_Int_Tables_number      14
_space_group_name_Hall           '-P 2yn'
loop_
_symmetry_equiv_pos_site_id
_symmetry_equiv_pos_as_xyz
1 x,y,z
2 1/2-x,1/2+y,1/2-z
3 -x,-y,-z
4 1/2+x,1/2-y,1/2+z
_cell_length_a                   20.468(2)
_cell_length_b                   7.5319(7)
_cell_length_c                   27.491(3)
_cell_angle_alpha                90
_cell_angle_beta                 101.425(9)
_cell_angle_gamma                90
_cell_volume                     4154.11
_cell_formula_units_Z            8
loop_
_atom_site_label
_atom_site_type_symbol
_atom_site_fract_x
_atom_site_fract_y
_atom_site_fract_z
N1 N 0.10666(13) 0.9529(3) 0.40806(9)
N2 N 0.12993(12) 0.9496(3) 0.45792(8)
N3 N 0.02735(14) 0.8394(4) 0.44718(10)
N4 N 0.09037(16) 0.8560(4) 0.53031(10)
C1 C -0.10755(17) 0.8383(5) 0.30531(14)
C2 C -0.08062(18) 0.8294(5) 0.26295(14)
H1 H -0.1088 0.8178 0.2312
C3 C -0.01200(18) 0.8375(5) 0.26744(13)
C4 C 0.02860(17) 0.8559(5) 0.31299(12)
H2 H 0.0755 0.8615 0.3155
C5 C 0.00219(16) 0.8664(4) 0.35545(12)
C6 C -0.06634(17) 0.8556(4) 0.35116(13)
H3 H -0.0850 0.8601 0.3801
C7 C -0.1799(2) 0.8353(8) 0.3011(2)
C8 C 0.0162(2) 0.8243(8) 0.22204(17)
C9 C 0.04569(16) 0.8845(4) 0.40460(12)
C10 C 0.08134(17) 0.8800(4) 0.48093(12)
C11 C 0.19111(16) 1.0062(4) 0.48345(11)
C12 C 0.19864(18) 0.9832(5) 0.53418(12)
H4 H 0.2389 1.0196 0.5553
C13 C 0.1485(2) 0.9081(5) 0.55492(13)
H5 H 0.1573 0.8933 0.5899
C14 C 0.24227(16) 1.0804(4) 0.45876(11)
C15 C 0.23284(19) 1.1166(5) 0.40837(12)
H6 H 0.1906 1.0955 0.3877
C16 C 0.2840(2) 1.1826(5) 0.38804(15)
H7 H 0.2756 1.2069 0.3534
C17 C 0.34603(19) 1.2150(4) 0.41486(15)
C18 C 0.3550(2) 1.1839(7) 0.46472(17)
H8 H 0.3972 1.2088 0.4851
C19 C 0.3046(2) 1.1172(6) 0.48643(15)
H9 H 0.3132 1.0964 0.5212
C20 C 0.4020(2) 1.2791(6) 0.39088(18)
H10 H 0.3860 1.3771 0.3682
H11 H 0.4172 1.1815 0.3723
H12 H 0.4391 1.3204 0.4166
F1 F -0.20655(19) 0.9919(7) 0.3073(3)
F2 F -0.2143(2) 0.7705(12) 0.2598(2)
F3 F -0.1977(2) 0.7382(11) 0.3377(3)
F4 F 0.0050(4) 0.9645(7) 0.1929(2)
F5 F 0.0833(2) 0.8042(10) 0.23179(14)
F6 F -0.0055(3) 0.6833(9) 0.19395(17)
N5 N 0.16818(12) 0.5444(3) 0.39175(9)
N6 N 0.13667(12) 0.4814(3) 0.42772(9)
N7 N 0.23450(14) 0.5805(4) 0.46810(9)
N8 N 0.16100(17) 0.4569(4) 0.51647(10)
C21 C 0.31737(17) 0.7634(4) 0.32136(13)
C22 C 0.38063(17) 0.7908(4) 0.34959(15)
H13 H 0.4155 0.8322 0.3342
C23 C 0.39291(16) 0.7584(5) 0.39955(15)
C24 C 0.34176(17) 0.6991(4) 0.42207(13)
H14 H 0.3502 0.6783 0.4568
C25 C 0.27847(15) 0.6702(4) 0.39401(12)
C26 C 0.26658(16) 0.7028(4) 0.34334(12)
H15 H 0.2234 0.6835 0.3238
C27 C 0.4604(2) 0.7815(8) 0.4290(2)
C28 C 0.3057(2) 0.7978(6) 0.26694(16)
C29 C 0.22609(15) 0.5987(4) 0.41810(11)
C30 C 0.17809(17) 0.5052(4) 0.47367(11)
C31 C 0.07452(15) 0.4047(4) 0.42216(12)
C32 C 0.05820(18) 0.3537(4) 0.46643(13)
H16 H 0.0165 0.2979 0.4662
C33 C 0.1018(2) 0.3826(5) 0.51152(13)
H17 H 0.0878 0.3459 0.5409
C34 C 0.03092(15) 0.3832(4) 0.37353(12)
C35 C -0.03774(17) 0.3813(5) 0.37089(14)
H18 H -0.0550 0.3959 0.4003
C36 C -0.08105(19) 0.3583(5) 0.32566(17)
H19 H -0.1277 0.3576 0.3247
C37 C -0.05831(19) 0.3364(5) 0.28228(15)
C38 C 0.00967(19) 0.3338(5) 0.28545(14)
H20 H 0.0267 0.3147 0.2561
C39 C 0.05410(17) 0.3583(5) 0.33000(12)
H21 H 0.1007 0.3580 0.3307
C40 C -0.1056(2) 0.3181(7) 0.23296(17)
H22 H -0.0837 0.2528 0.2098
H23 H -0.1185 0.4363 0.2195
H24 H -0.1455 0.2533 0.2375
F13 F 0.5002(3) 0.8874(11) 0.4101(3)
F14 F 0.4924(2) 0.6305(7) 0.4418(3)
F15 F 0.4605(2) 0.8550(11) 0.4742(2)
F16 F 0.24121(18) 0.8166(8) 0.24621(11)
F17 F 0.3297(2) 0.6701(8) 0.24172(13)
F18 F 0.3355(3) 0.9453(5) 0.25572(14)
C41 C 0.6851(3) 0.4027(8) 0.41154(17)
H25 H 0.7226 0.4095 0.4410
Cl1 Cl 0.65820(13) 0.6207(3) 0.39397(9)
Cl2 Cl 0.71463(11) 0.3142(4) 0.36295(6)
Cl3 Cl 0.62165(13) 0.2886(5) 0.42754(9)
F7? F -0.2039(6) 0.879(2) 0.3364(9)
F8? F -0.2108(6) 0.915(3) 0.2627(6)
F9? F -0.2038(7) 0.672(3) 0.2924(9)
F10? F 0.0507(17) 0.956(3) 0.2183(8)
F11? F 0.0535(10) 0.705(4) 0.2231(7)
F12? F -0.0228(13) 0.806(4) 0.1840(8)
F19? F 0.257(2) 0.714(8) 0.2475(15)
F20? F 0.347(3) 0.774(9) 0.2523(16)
F21? F 0.301(3) 0.968(7) 0.2668(16)
F22? F 0.4782(8) 0.927(3) 0.4389(10)
F23? F 0.5028(7) 0.7095(18) 0.4066(7)
F24? F 0.4699(6) 0.710(3) 0.4714(6)
H26? H 0.7225 0.3930 0.4410
Cl4? Cl 0.6244(14) 0.506(4) 0.4235(9)
Cl5? Cl 0.7011(11) 0.524(4) 0.3733(7)
Cl6? Cl 0.6609(14) 0.184(4) 0.3824(9)
loop_
_geom_bond_atom_site_label_1
_geom_bond_atom_site_label_2
_geom_bond_site_symmetry_1
_geom_bond_site_symmetry_2
N1 N2 1_555 1_555
N2 C10 1_555 1_555
N3 C9 1_555 1_555
N4 C10 1_555 1_555
C1 C2 1_555 1_555
C2 H1 1_555 1_555
C3 C2 1_555 1_555
C4 C3 1_555 1_555
H2 C4 1_555 1_555
C5 C4 1_555 1_555
C6 C1 1_555 1_555
H3 C6 1_555 1_555
C7 C1 1_555 1_555
C8 C3 1_555 1_555
C9 N1 1_555 1_555
C10 N3 1_555 1_555
C11 N2 1_555 1_555
C12 C11 1_555 1_555
H4 C12 1_555 1_555
C13 N4 1_555 1_555
H5 C13 1_555 1_555
C14 C11 1_555 1_555
C15 C14 1_555 1_555
H6 C15 1_555 1_555
C16 C15 1_555 1_555
H7 C16 1_555 1_555
C17 C16 1_555 1_555
C18 C17 1_555 1_555
H8 C18 1_555 1_555
C19 C14 1_555 1_555
H9 C19 1_555 1_555
C20 C17 1_555 1_555
H10 C20 1_555 1_555
H11 C20 1_555 1_555
H12 C20 1_555 1_555
F1 C7 1_555 1_555
F2 C7 1_555 1_555
F3 C7 1_555 1_555
F4 C8 1_555 1_555
F5 C8 1_555 1_555
F6 C8 1_555 1_555
N5 N6 1_555 1_555
N6 C30 1_555 1_555
N7 C29 1_555 1_555
N8 C30 1_555 1_555
C21 C22 1_555 1_555
C22 H13 1_555 1_555
C23 C22 1_555 1_555
C24 C23 1_555 1_555
H14 C24 1_555 1_555
C25 C24 1_555 1_555
C26 C21 1_555 1_555
H15 C26 1_555 1_555
C27 C23 1_555 1_555
C28 C21 1_555 1_555
C29 N5 1_555 1_555
C30 N7 1_555 1_555
C31 N6 1_555 1_555
C32 C31 1_555 1_555
H16 C32 1_555 1_555
C33 N8 1_555 1_555
H17 C33 1_555 1_555
C34 C31 1_555 1_555
C35 C34 1_555 1_555
H18 C35 1_555 1_555
C36 C35 1_555 1_555
H19 C36 1_555 1_555
C37 C36 1_555 1_555
C38 C37 1_555 1_555
H20 C38 1_555 1_555
C39 C34 1_555 1_555
H21 C39 1_555 1_555
C40 C37 1_555 1_555
H22 C40 1_555 1_555
H23 C40 1_555 1_555
H24 C40 1_555 1_555
F13 C27 1_555 1_555
F14 C27 1_555 1_555
F15 C27 1_555 1_555
F16 C28 1_555 1_555
F17 C28 1_555 1_555
F18 C28 1_555 1_555
C41 H25 1_555 1_555
Cl1 C41 1_555 1_555
Cl2 C41 1_555 1_555
Cl3 C41 1_555 1_555
C5 C6 1_555 1_555
C5 C9 1_555 1_555
C12 C13 1_555 1_555
C18 C19 1_555 1_555
C25 C26 1_555 1_555
C25 C29 1_555 1_555
C32 C33 1_555 1_555
C38 C39 1_555 1_555

#END
