
#######################################################################
#
#                 Cambridge Crystallographic Data Centre
#                                CCDC 
#
#######################################################################
#
# If this CIF has been generated from an entry in the Cambridge 
# Structural Database, then it will include bibliographic, chemical, 
# crystal, experimental, refinement or atomic coordinate data resulting 
# from the CCDC's data processing and validation procedures.
#
#######################################################################

data_IXIKIL
_chemical_formula_moiety         'C24 H24 Br1 N1 O8'
_chemical_name_systematic        
'ethyl 5-(2-bromo-3,4,5-trimethoxyphenyl)-3,3a,4,5-tetrahydro[1,3]dioxolo[6,7]naphtho[1,2-c][1,2]oxazole-4-carboxylate'
_symmetry_cell_setting           triclinic
_symmetry_space_group_name_H-M   'P 1'
_symmetry_Int_Tables_number      1
_space_group_name_Hall           'P 1'
loop_
_symmetry_equiv_pos_site_id
_symmetry_equiv_pos_as_xyz
1 x,y,z
_cell_length_a                   12.0025(4)
_cell_length_b                   13.0347(7)
_cell_length_c                   17.1578(10)
_cell_angle_alpha                109.801(5)
_cell_angle_beta                 106.368(4)
_cell_angle_gamma                90.009(4)
_cell_volume                     2409.62
_cell_formula_units_Z            4
loop_
_atom_site_label
_atom_site_type_symbol
_atom_site_fract_x
_atom_site_fract_y
_atom_site_fract_z
Br1 Br 1.08052(12) 1.05056(8) 1.18997(6)
O1 O 1.3925(4) 1.1081(4) 1.6729(3)
O2 O 0.8265(5) 1.1967(5) 1.5742(5)
O3 O 0.7671(4) 1.1490(7) 1.4227(6)
O4 O 1.1219(8) 1.2708(6) 1.1783(4)
O5 O 1.2121(7) 1.4675(5) 1.3042(4)
O6 O 1.2541(6) 1.4893(4) 1.4748(4)
O7 O 1.4637(6) 1.1249(8) 1.4341(6)
O8 O 1.3443(6) 1.0054(5) 1.3154(4)
N1 N 1.2701(5) 1.1185(5) 1.6552(4)
C1 C 1.2348(5) 1.1275(5) 1.5800(4)
C2 C 1.1120(5) 1.1344(4) 1.5372(4)
C3 C 1.0308(5) 1.1625(5) 1.5858(5)
H1 H 1.0525 1.1767 1.6452
C4 C 0.9200(5) 1.1673(6) 1.5399(6)
C5 C 0.7336(8) 1.1922(12) 1.4976(10)
H2 H 0.6657 1.1473 1.4926
H3 H 0.7118 1.2655 1.5035
C6 C 0.8850(5) 1.1412(7) 1.4526(6)
C7 C 0.9598(5) 1.1129(6) 1.4036(5)
H4 H 0.9340 1.0960 1.3438
C8 C 1.0786(5) 1.1103(5) 1.4477(4)
C9 C 1.1627(5) 1.0906(4) 1.3945(4)
H5 H 1.1271 1.0283 1.3409
C10 C 1.2824(5) 1.0595(5) 1.4405(4)
H6 H 1.2706 0.9827 1.4352
C11 C 1.3271(5) 1.1274(5) 1.5369(4)
H7 H 1.3521 1.2028 1.5449
C12 C 1.4225(6) 1.0838(7) 1.5937(6)
H8 H 1.4232 1.0055 1.5663
H9 H 1.4987 1.1203 1.6046
C13 C 1.1733(5) 1.1905(5) 1.3686(4)
C14 C 1.1444(7) 1.1846(5) 1.2834(5)
C15 C 1.1555(8) 1.2786(6) 1.2632(5)
C16 C 1.1949(7) 1.3798(5) 1.3283(5)
C17 C 1.2201(6) 1.3863(5) 1.4132(5)
C18 C 1.2083(5) 1.2931(4) 1.4329(4)
H10 H 1.2243 1.2995 1.4908
C19 C 1.2138(18) 1.2830(12) 1.1441(9)
H11 H 1.1870 1.2501 1.0819
H12 H 1.2787 1.2475 1.1666
H13 H 1.2378 1.3595 1.1605
C20 C 1.1796(16) 1.5621(10) 1.3392(11)
H14 H 1.1527 1.5956 1.2962
H15 H 1.2445 1.6080 1.3853
H16 H 1.1175 1.5532 1.3622
C21 C 1.2757(11) 1.5005(7) 1.5620(6)
H17 H 1.2079 1.4708 1.5695
H18 H 1.2932 1.5767 1.5977
H19 H 1.3408 1.4616 1.5787
C22 C 1.3748(6) 1.0676(6) 1.3980(6)
C23 C 1.4254(13) 1.0139(14) 1.2661(11)
H20 H 1.4381 1.0902 1.2726
C24 C 1.377(3) 1.010(3) 1.189(2)
H21 H 1.3055 0.9627 1.1640
H22 H 1.4287 0.9833 1.1541
H23 H 1.3608 1.0828 1.1892
Br2 Br 1.59295(14) 0.44217(8) 1.17022(7)
O9 O 1.5302(6) 0.3735(5) 0.6834(4)
O10 O 1.0430(5) 0.3389(6) 0.7958(6)
O11 O 1.1088(7) 0.3756(6) 0.9457(6)
O12 O 1.5981(9) 0.2220(6) 1.1854(5)
O13 O 1.5496(6) 0.0171(5) 1.0589(4)
O14 O 1.5003(5) -0.0055(4) 0.8906(3)
O15 O 1.7853(5) 0.3259(6) 0.9201(5)
O16 O 1.7731(5) 0.4562(5) 1.0386(4)
N2 N 1.4246(6) 0.3777(5) 0.7064(5)
C25 C 1.6259(7) 0.3898(7) 0.7621(5)
H24 H 1.6569 0.4664 0.7903
H25 H 1.6884 0.3463 0.7492
C26 C 1.5711(5) 0.3521(5) 0.8185(4)
H26 H 1.5792 0.2742 0.8078
C27 C 1.4451(6) 0.3670(5) 0.7800(5)
C28 C 1.3592(5) 0.3704(4) 0.8251(5)
C29 C 1.2389(6) 0.3537(5) 0.7791(6)
H27 H 1.2122 0.3407 0.7198
C30 C 1.1644(6) 0.3579(6) 0.8269(7)
C31 C 1.0134(12) 0.3350(12) 0.8681(12)
H28 H 0.9879 0.2598 0.8582
H29 H 0.9487 0.3782 0.8751
C32 C 1.2030(7) 0.3766(6) 0.9149(7)
C33 C 1.3168(7) 0.3965(6) 0.9599(6)
H30 H 1.3416 0.4140 1.0198
C34 C 1.3973(6) 0.3895(4) 0.9125(5)
C35 C 1.5269(5) 0.3982(5) 0.9640(4)
H31 H 1.5416 0.4627 1.0172
C36 C 1.6099(5) 0.4158(5) 0.9153(4)
H32 H 1.6139 0.4937 0.9226
C37 C 1.5430(6) 0.2968(5) 0.9915(4)
C38 C 1.5721(8) 0.3049(6) 1.0768(5)
C39 C 1.5779(9) 0.2109(7) 1.1001(5)
C40 C 1.5560(8) 0.1083(6) 1.0359(5)
C41 C 1.5263(6) 0.0985(5) 0.9493(5)
C42 C 1.5193(5) 0.1921(5) 0.9280(4)
H33 H 1.4984 0.1851 0.8698
C43 C 1.7065(16) 0.1998(12) 1.2276(9)
H34 H 1.7128 0.1226 1.2047
H35 H 1.7155 0.2217 1.2886
H36 H 1.7663 0.2397 1.2189
C44 C 1.6349(11) -0.0482(9) 1.0481(8)
H37 H 1.6313 -0.0759 0.9879
H38 H 1.6249 -0.1084 1.0667
H39 H 1.7094 -0.0070 1.0820
C45 C 1.4645(10) -0.0177(6) 0.8021(5)
H40 H 1.4447 -0.0940 0.7672
H41 H 1.5269 0.0115 0.7884
H42 H 1.3975 0.0212 0.7904
C46 C 1.7322(6) 0.3935(6) 0.9558(6)
C47 C 1.8878(10) 0.4328(12) 1.0872(9)
H43 H 1.9057 0.3633 1.0515
C48 C 1.903(3) 0.483(3) 1.171(2)
H44 H 1.8826 0.5568 1.1814
H45 H 1.9834 0.4850 1.2028
H46 H 1.8543 0.4445 1.1901
Br3 Br 0.61436(8) 0.87520(8) 0.49682(8)
O17 O 1.2705(5) 0.8248(5) 0.5541(4)
O18 O 0.9595(5) 0.7773(5) 0.1469(4)
O19 O 0.7703(5) 0.7951(5) 0.1515(4)
O20 O 0.5210(4) 0.6601(6) 0.4903(4)
O21 O 0.6197(5) 0.4620(6) 0.4620(4)
O22 O 0.8115(4) 0.4400(4) 0.4127(4)
O23 O 0.9473(10) 0.8304(6) 0.6610(6)
O24 O 0.8866(5) 0.9814(5) 0.6465(3)
N3 N 1.2111(5) 0.8185(5) 0.4674(5)
C49 C 1.1015(6) 0.8086(5) 0.4562(5)
C50 C 1.0135(5) 0.8056(4) 0.3758(4)
C51 C 1.0416(6) 0.7943(5) 0.2991(5)
H47 H 1.1182 0.7894 0.2973
C52 C 0.9548(6) 0.7907(5) 0.2288(5)
C53 C 0.8415(9) 0.7720(11) 0.0954(6)
H48 H 0.8351 0.8252 0.0666
H49 H 0.8167 0.6995 0.0514
C54 C 0.8409(6) 0.8013(6) 0.2307(5)
C55 C 0.8109(6) 0.8148(6) 0.3036(5)
H50 H 0.7341 0.8227 0.3042
C56 C 0.8983(5) 0.8166(5) 0.3782(4)
C57 C 0.8619(5) 0.8352(5) 0.4591(4)
H51 H 0.8105 0.8940 0.4628
C58 C 0.9695(6) 0.8776(5) 0.5425(4)
H52 H 0.9980 0.9506 0.5472
C59 C 1.0678(6) 0.8069(5) 0.5336(5)
H53 H 1.0431 0.7317 0.5262
C60 C 1.1863(7) 0.8456(6) 0.6005(6)
H54 H 1.1915 0.9233 0.6334
H55 H 1.1995 0.8060 0.6405
C61 C 0.7914(5) 0.7357(5) 0.4538(4)
C62 C 0.6863(5) 0.7436(6) 0.4740(4)
C63 C 0.6265(5) 0.6512(7) 0.4724(5)
C64 C 0.6707(5) 0.5505(7) 0.4541(5)
C65 C 0.7741(5) 0.5414(6) 0.4310(5)
C66 C 0.8306(5) 0.6324(5) 0.4294(4)
H56 H 0.8973 0.6245 0.4113
C67 C 0.5294(10) 0.6805(13) 0.5782(8)
H57 H 0.4540 0.6930 0.5866
H58 H 0.5837 0.7441 0.6146
H59 H 0.5561 0.6183 0.5932
C68 C 0.5264(9) 0.3974(9) 0.3901(8)
H60 H 0.5535 0.3683 0.3401
H61 H 0.4646 0.4418 0.3784
H62 H 0.4979 0.3380 0.4030
C69 C 0.9217(7) 0.4282(7) 0.3977(9)
H63 H 0.9164 0.4342 0.3425
H64 H 0.9450 0.3577 0.3975
H65 H 0.9785 0.4847 0.4428
C70 C 0.9357(8) 0.8920(6) 0.6238(5)
C71 C 0.8504(13) 1.0070(10) 0.7248(7)
H66 H 0.8097 0.9420 0.7237
H67 H 0.9187 1.0297 0.7756
C72 C 0.7757(10) 1.0923(11) 0.7304(7)
H68 H 0.7106 1.0716 0.6785
H69 H 0.8183 1.1585 0.7369
H70 H 0.7477 1.1043 0.7797
Br4 Br 0.91692(7) 0.62010(7) 0.90543(6)
O25 O 1.5532(5) 0.6704(5) 0.8735(5)
O26 O 1.4881(5) 0.7012(6) 1.2542(4)
O27 O 1.2905(5) 0.6956(6) 1.2336(4)
O28 O 0.8076(4) 0.8258(6) 0.9094(4)
O29 O 0.9036(4) 1.0227(5) 0.9169(3)
O30 O 1.1319(5) 1.0568(4) 0.9436(5)
O31 O 1.1884(6) 0.6935(7) 0.7264(5)
O32 O 1.0643(5) 0.5869(4) 0.7484(3)
N4 N 1.5443(5) 0.6715(5) 0.9543(5)
C73 C 1.4411(6) 0.6935(5) 0.9585(5)
C74 C 1.3989(5) 0.6945(5) 1.0291(5)
C75 C 1.4767(6) 0.6993(6) 1.1089(5)
H71 H 1.5570 0.7042 1.1181
C76 C 1.4315(6) 0.6966(6) 1.1719(5)
C77 C 1.3976(9) 0.6895(14) 1.2920(7)
H72 H 1.3974 0.6196 1.3004
H73 H 1.4105 0.7476 1.3478
C78 C 1.3122(6) 0.6946(7) 1.1598(5)
C79 C 1.2341(6) 0.6898(6) 1.0833(5)
H74 H 1.1543 0.6867 1.0760
C80 C 1.2781(5) 0.6897(5) 1.0166(4)
C81 C 1.1893(5) 0.6745(5) 0.9284(4)
H75 H 1.1360 0.6098 0.9151
C82 C 1.2468(6) 0.6454(5) 0.8541(5)
H76 H 1.2629 0.5688 0.8429
C83 C 1.3639(6) 0.7100(5) 0.8789(5)
H77 H 1.3550 0.7879 0.8900
C84 C 1.4369(8) 0.6682(7) 0.8169(6)
H78 H 1.4070 0.5943 0.7769
H79 H 1.4372 0.7157 0.7839
C85 C 1.1131(5) 0.7688(5) 0.9316(4)
C86 C 0.9938(5) 0.7554(6) 0.9201(4)
C87 C 0.9250(5) 0.8406(6) 0.9182(4)
C88 C 0.9732(5) 0.9415(6) 0.9270(4)
C89 C 1.0923(6) 0.9567(5) 0.9392(5)
C90 C 1.1611(5) 0.8720(5) 0.9425(5)
H80 H 1.2410 0.8842 0.9522
C91 C 0.7335(7) 0.8034(11) 0.8219(7)
H81 H 0.7554 0.7399 0.7832
H82 H 0.7421 0.8653 0.8050
H83 H 0.6536 0.7901 0.8192
C92 C 0.8887(11) 1.1008(8) 0.9881(7)
H84 H 0.8477 1.1569 0.9714
H85 H 0.9636 1.1325 1.0293
H86 H 0.8443 1.0683 1.0140
C93 C 1.2432(10) 1.0706(8) 0.9377(12)
H87 H 1.2492 1.0181 0.8844
H88 H 1.2993 1.0599 0.9859
H89 H 1.2584 1.1434 0.9387
C94 C 1.1656(7) 0.6472(6) 0.7698(5)
C95 C 0.9774(10) 0.5772(10) 0.6663(7)
H90 H 0.9457 0.6467 0.6706
H91 H 1.0133 0.5576 0.6199
C96 C 0.8871(15) 0.4951(15) 0.6484(10)
H92 H 0.8350 0.4805 0.5910
H93 H 0.8447 0.5198 0.6900
H94 H 0.9203 0.4292 0.6519
H95? H 1.4758 1.0823 1.2979
H96? H 1.4747 0.9546 1.2639
C97? C 1.534(4) 0.976(4) 1.290(3)
H97? H 1.5861 1.0334 1.3382
H98? H 1.5653 0.9552 1.2419
H99? H 1.5251 0.9140 1.3066
H100? H 1.8891 0.3544 1.0740
H101? H 1.9499 0.4591 1.0706
C98? C 1.979(3) 0.506(2) 1.112(2)
H102? H 1.9640 0.5511 1.0765
H103? H 2.0468 0.4687 1.1047
H104? H 1.9935 0.5511 1.1715
H105? H 1.8791 0.4231 1.1389
H106? H 1.3876 0.9732 1.2051
loop_
_geom_bond_atom_site_label_1
_geom_bond_atom_site_label_2
_geom_bond_site_symmetry_1
_geom_bond_site_symmetry_2
Br1 C14 1_555 1_555
O1 N1 1_555 1_555
O2 C4 1_555 1_555
O3 C5 1_555 1_555
O4 C15 1_555 1_555
O5 C16 1_555 1_555
O6 C17 1_555 1_555
O7 C22 1_555 1_555
O8 C22 1_555 1_555
N1 C1 1_555 1_555
C1 C2 1_555 1_555
C2 C3 1_555 1_555
C3 H1 1_555 1_555
C4 C3 1_555 1_555
C5 O2 1_555 1_555
H2 C5 1_555 1_555
H3 C5 1_555 1_555
C6 O3 1_555 1_555
C7 C6 1_555 1_555
H4 C7 1_555 1_555
C8 C2 1_555 1_555
C9 C8 1_555 1_555
H5 C9 1_555 1_555
C10 C9 1_555 1_555
H6 C10 1_555 1_555
C11 C1 1_555 1_555
H7 C11 1_555 1_555
C12 O1 1_555 1_555
H8 C12 1_555 1_555
H9 C12 1_555 1_555
C13 C9 1_555 1_555
C14 C13 1_555 1_555
C15 C14 1_555 1_555
C16 C15 1_555 1_555
C17 C16 1_555 1_555
C18 C13 1_555 1_555
H10 C18 1_555 1_555
C19 O4 1_555 1_555
H11 C19 1_555 1_555
H12 C19 1_555 1_555
H13 C19 1_555 1_555
C20 O5 1_555 1_555
H14 C20 1_555 1_555
H15 C20 1_555 1_555
H16 C20 1_555 1_555
C21 O6 1_555 1_555
H17 C21 1_555 1_555
H18 C21 1_555 1_555
H19 C21 1_555 1_555
C22 C10 1_555 1_555
C23 O8 1_555 1_555
H20 C23 1_555 1_555
C24 C23 1_555 1_555
H21 C24 1_555 1_555
H22 C24 1_555 1_555
H23 C24 1_555 1_555
Br2 C38 1_555 1_555
O9 N2 1_555 1_555
O10 C30 1_555 1_555
O11 C31 1_555 1_555
O12 C39 1_555 1_555
O13 C40 1_555 1_555
O14 C41 1_555 1_555
O15 C46 1_555 1_555
O16 C46 1_555 1_555
N2 C27 1_555 1_555
C25 O9 1_555 1_555
H24 C25 1_555 1_555
H25 C25 1_555 1_555
C26 C25 1_555 1_555
H26 C26 1_555 1_555
C27 C26 1_555 1_555
C28 C27 1_555 1_555
C29 C28 1_555 1_555
H27 C29 1_555 1_555
C30 C29 1_555 1_555
C31 O10 1_555 1_555
H28 C31 1_555 1_555
H29 C31 1_555 1_555
C32 O11 1_555 1_555
C33 C32 1_555 1_555
H30 C33 1_555 1_555
C34 C28 1_555 1_555
C35 C34 1_555 1_555
H31 C35 1_555 1_555
C36 C26 1_555 1_555
H32 C36 1_555 1_555
C37 C35 1_555 1_555
C38 C37 1_555 1_555
C39 C38 1_555 1_555
C40 C39 1_555 1_555
C41 C40 1_555 1_555
C42 C37 1_555 1_555
H33 C42 1_555 1_555
C43 O12 1_555 1_555
H34 C43 1_555 1_555
H35 C43 1_555 1_555
H36 C43 1_555 1_555
C44 O13 1_555 1_555
H37 C44 1_555 1_555
H38 C44 1_555 1_555
H39 C44 1_555 1_555
C45 O14 1_555 1_555
H40 C45 1_555 1_555
H41 C45 1_555 1_555
H42 C45 1_555 1_555
C46 C36 1_555 1_555
C47 O16 1_555 1_555
H43 C47 1_555 1_555
C48 C47 1_555 1_555
H44 C48 1_555 1_555
H45 C48 1_555 1_555
H46 C48 1_555 1_555
Br3 C62 1_555 1_555
O17 N3 1_555 1_555
O18 C52 1_555 1_555
O19 C53 1_555 1_555
O20 C63 1_555 1_555
O21 C64 1_555 1_555
O22 C65 1_555 1_555
O23 C70 1_555 1_555
O24 C70 1_555 1_555
N3 C49 1_555 1_555
C49 C50 1_555 1_555
C50 C51 1_555 1_555
C51 H47 1_555 1_555
C52 C51 1_555 1_555
C53 O18 1_555 1_555
H48 C53 1_555 1_555
H49 C53 1_555 1_555
C54 O19 1_555 1_555
C55 C54 1_555 1_555
H50 C55 1_555 1_555
C56 C50 1_555 1_555
C57 C56 1_555 1_555
H51 C57 1_555 1_555
C58 C57 1_555 1_555
H52 C58 1_555 1_555
C59 C49 1_555 1_555
H53 C59 1_555 1_555
C60 O17 1_555 1_555
H54 C60 1_555 1_555
H55 C60 1_555 1_555
C61 C57 1_555 1_555
C62 C61 1_555 1_555
C63 C62 1_555 1_555
C64 C63 1_555 1_555
C65 C64 1_555 1_555
C66 C61 1_555 1_555
H56 C66 1_555 1_555
C67 O20 1_555 1_555
H57 C67 1_555 1_555
H58 C67 1_555 1_555
H59 C67 1_555 1_555
C68 O21 1_555 1_555
H60 C68 1_555 1_555
H61 C68 1_555 1_555
H62 C68 1_555 1_555
C69 O22 1_555 1_555
H63 C69 1_555 1_555
H64 C69 1_555 1_555
H65 C69 1_555 1_555
C70 C58 1_555 1_555
C71 O24 1_555 1_555
H66 C71 1_555 1_555
H67 C71 1_555 1_555
C72 C71 1_555 1_555
H68 C72 1_555 1_555
H69 C72 1_555 1_555
H70 C72 1_555 1_555
Br4 C86 1_555 1_555
O25 N4 1_555 1_555
O26 C76 1_555 1_555
O27 C77 1_555 1_555
O28 C87 1_555 1_555
O29 C88 1_555 1_555
O30 C89 1_555 1_555
O31 C94 1_555 1_555
O32 C94 1_555 1_555
N4 C73 1_555 1_555
C73 C74 1_555 1_555
C74 C75 1_555 1_555
C75 H71 1_555 1_555
C76 C75 1_555 1_555
C77 O26 1_555 1_555
H72 C77 1_555 1_555
H73 C77 1_555 1_555
C78 O27 1_555 1_555
C79 C78 1_555 1_555
H74 C79 1_555 1_555
C80 C74 1_555 1_555
C81 C80 1_555 1_555
H75 C81 1_555 1_555
C82 C81 1_555 1_555
H76 C82 1_555 1_555
C83 C73 1_555 1_555
H77 C83 1_555 1_555
C84 O25 1_555 1_555
H78 C84 1_555 1_555
H79 C84 1_555 1_555
C85 C81 1_555 1_555
C86 C85 1_555 1_555
C87 C86 1_555 1_555
C88 C87 1_555 1_555
C89 C88 1_555 1_555
C90 C85 1_555 1_555
H80 C90 1_555 1_555
C91 O28 1_555 1_555
H81 C91 1_555 1_555
H82 C91 1_555 1_555
H83 C91 1_555 1_555
C92 O29 1_555 1_555
H84 C92 1_555 1_555
H85 C92 1_555 1_555
H86 C92 1_555 1_555
C93 O30 1_555 1_555
H87 C93 1_555 1_555
H88 C93 1_555 1_555
H89 C93 1_555 1_555
C94 C82 1_555 1_555
C95 O32 1_555 1_555
H90 C95 1_555 1_555
H91 C95 1_555 1_555
C96 C95 1_555 1_555
H92 C96 1_555 1_555
H93 C96 1_555 1_555
H94 C96 1_555 1_555
C4 C6 1_555 1_555
C7 C8 1_555 1_555
C10 C11 1_555 1_555
C11 C12 1_555 1_555
C17 C18 1_555 1_555
C30 C32 1_555 1_555
C33 C34 1_555 1_555
C35 C36 1_555 1_555
C41 C42 1_555 1_555
C52 C54 1_555 1_555
C55 C56 1_555 1_555
C58 C59 1_555 1_555
C59 C60 1_555 1_555
C65 C66 1_555 1_555
C76 C78 1_555 1_555
C79 C80 1_555 1_555
C82 C83 1_555 1_555
C83 C84 1_555 1_555
C89 C90 1_555 1_555

#END
