
#######################################################################
#
#                 Cambridge Crystallographic Data Centre
#                                CCDC 
#
#######################################################################
#
# If this CIF has been generated from an entry in the Cambridge 
# Structural Database, then it will include bibliographic, chemical, 
# crystal, experimental, refinement or atomic coordinate data resulting 
# from the CCDC's data processing and validation procedures.
#
#######################################################################

data_IXIVUH
_chemical_formula_moiety         'C4 H8 N4 O1'
_chemical_name_systematic        
2,4-Dimethyl-1,4-dihydro-1,2,4,5-tetrazin-3(2H)-one
_symmetry_cell_setting           triclinic
_symmetry_space_group_name_H-M   'P -1'
_symmetry_Int_Tables_number      2
_space_group_name_Hall           '-P 1'
loop_
_symmetry_equiv_pos_site_id
_symmetry_equiv_pos_as_xyz
1 x,y,z
2 -x,-y,-z
_cell_length_a                   7.823(2)
_cell_length_b                   8.168(2)
_cell_length_c                   9.876(3)
_cell_angle_alpha                81.071(6)
_cell_angle_beta                 75.701(5)
_cell_angle_gamma                79.799(5)
_cell_volume                     597.718
_exptl_crystal_colour            red
_exptl_crystal_description       block
_cell_formula_units_Z            4
loop_
_atom_site_label
_atom_site_type_symbol
_atom_site_fract_x
_atom_site_fract_y
_atom_site_fract_z
O1 O 0.51252(17) 0.33138(15) 0.33082(12)
N1 N 0.32694(19) -0.04249(18) 0.36987(15)
N2 N 0.42393(18) 0.08565(16) 0.31387(13)
N3 N 0.33581(17) 0.20336(16) 0.52247(13)
N4 N 0.23377(17) 0.08011(16) 0.58480(14)
C1 C 0.42920(19) 0.21597(18) 0.38467(15)
C2 C 0.2366(2) -0.0328(2) 0.50180(17)
H1 H 0.1646 -0.1182 0.5417
C3 C 0.5228(2) 0.0794(2) 0.16770(16)
H2 H 0.5297 0.1937 0.1207
H3 H 0.4615 0.0208 0.1189
H4 H 0.6435 0.0197 0.1657
C4 C 0.3282(2) 0.3373(2) 0.60786(18)
H5 H 0.4473 0.3689 0.5923
H6 H 0.2866 0.2977 0.7076
H7 H 0.2456 0.4348 0.5808
O2 O 0.02837(17) 0.33839(15) 0.34125(12)
N5 N 0.1148(2) 0.29806(18) 0.10951(15)
N6 N 0.2004(2) 0.3428(2) -0.02622(16)
N7 N 0.2599(2) 0.5841(2) 0.05120(17)
N8 N 0.17537(19) 0.53082(17) 0.18396(15)
C5 C 0.0997(2) 0.38646(19) 0.22042(17)
C6 C 0.2670(3) 0.4835(2) -0.04494(19)
H8 H 0.3276 0.5178 -0.1382
C7 C 0.0381(3) 0.1426(2) 0.1363(2)
H9 H 0.0662 0.0899 0.0493
H10 H -0.0916 0.1671 0.1693
H11 H 0.0881 0.0663 0.2084
C8 C 0.1689(3) 0.6393(2) 0.2888(2)
H12 H 0.2868 0.6724 0.2765
H13 H 0.1341 0.5795 0.3830
H14 H 0.0815 0.7395 0.2776
loop_
_geom_bond_atom_site_label_1
_geom_bond_atom_site_label_2
_geom_bond_site_symmetry_1
_geom_bond_site_symmetry_2
O1 C1 1_555 1_555
N1 N2 1_555 1_555
N2 C1 1_555 1_555
N3 N4 1_555 1_555
N4 C2 1_555 1_555
C1 N3 1_555 1_555
C2 N1 1_555 1_555
H1 C2 1_555 1_555
C3 N2 1_555 1_555
H2 C3 1_555 1_555
H3 C3 1_555 1_555
H4 C3 1_555 1_555
C4 N3 1_555 1_555
H5 C4 1_555 1_555
H6 C4 1_555 1_555
H7 C4 1_555 1_555
O2 C5 1_555 1_555
N5 N6 1_555 1_555
N6 C6 1_555 1_555
N7 N8 1_555 1_555
N8 C5 1_555 1_555
C5 N5 1_555 1_555
C6 N7 1_555 1_555
H8 C6 1_555 1_555
C7 N5 1_555 1_555
H9 C7 1_555 1_555
H10 C7 1_555 1_555
H11 C7 1_555 1_555
C8 N8 1_555 1_555
H12 C8 1_555 1_555
H13 C8 1_555 1_555
H14 C8 1_555 1_555

#END
