
#######################################################################
#
#                 Cambridge Crystallographic Data Centre
#                                CCDC 
#
#######################################################################
#
# If this CIF has been generated from an entry in the Cambridge 
# Structural Database, then it will include bibliographic, chemical, 
# crystal, experimental, refinement or atomic coordinate data resulting 
# from the CCDC's data processing and validation procedures.
#
#######################################################################

data_IXOZIG02
_chemical_formula_moiety         'C7 H3 N2 O6 1-,C5 H6 N1 O1 1+'
_chemical_name_systematic        '3,5-dinitrobenzoate 2-hydroxypyridinium'
_symmetry_cell_setting           monoclinic
_symmetry_space_group_name_H-M   'P 21/n'
_symmetry_Int_Tables_number      14
_space_group_name_Hall           '-P 2yn'
loop_
_symmetry_equiv_pos_site_id
_symmetry_equiv_pos_as_xyz
1 x,y,z
2 1/2-x,1/2+y,1/2-z
3 -x,-y,-z
4 1/2+x,1/2-y,1/2+z
_cell_length_a                   7.6911(3)
_cell_length_b                   20.8019(9)
_cell_length_c                   8.2090(4)
_cell_angle_alpha                90
_cell_angle_beta                 97.389(4)
_cell_angle_gamma                90
_cell_volume                     1302.45
_exptl_crystal_colour            yellow
_exptl_crystal_description       plate
_cell_formula_units_Z            4
loop_
_atom_site_label
_atom_site_type_symbol
_atom_site_fract_x
_atom_site_fract_y
_atom_site_fract_z
O1 O 0.5129(2) 0.58283(7) 0.4936(2)
H1 H 0.5059 0.6213 0.5134
N1 N 0.6032(2) 0.51475(9) 0.3078(2)
C1 C 0.5825(3) 0.57531(10) 0.3628(3)
C2 C 0.7093(3) 0.61172(11) 0.1267(3)
H2 H 0.7457 0.6452 0.0638
C3 C 0.6397(3) 0.62548(10) 0.2658(3)
H3 H 0.6292 0.6680 0.2978
C4 C 0.7277(3) 0.54839(12) 0.0756(3)
H4 H 0.7762 0.5392 -0.0199
C5 C 0.6731(3) 0.50081(11) 0.1688(3)
H5 H 0.6836 0.4582 0.1373
H6 H 0.569(3) 0.4873(12) 0.369(3)
O2 O 0.5618(3) 0.69019(8) 0.6372(2)
O3 O 0.3837(3) 0.65662(9) 0.8123(2)
O4 O 0.6512(3) 0.97830(9) 0.8355(3)
O5 O 0.7230(3) 0.91580(10) 0.6459(2)
O6 O 0.4405(3) 0.78038(11) 1.3364(2)
O7 O 0.4600(3) 0.88325(11) 1.3188(3)
C6 C 0.5808(3) 0.81158(10) 0.7748(3)
H7 H 0.6123 0.8077 0.6696
N2 N 0.4640(3) 0.82963(10) 1.2612(3)
N3 N 0.6620(3) 0.92566(9) 0.7726(3)
C7 C 0.5132(3) 0.75943(10) 0.8520(3)
C8 C 0.4720(3) 0.76543(10) 1.0112(3)
H8 H 0.4267 0.7308 1.0637
C9 C 0.6000(2) 0.86936(10) 0.8584(3)
C10 C 0.5599(3) 0.87717(10) 1.0157(3)
H9 H 0.5728 0.9166 1.0693
C11 C 0.4791(3) 0.69631(10) 0.7645(3)
C12 C 0.4995(3) 0.82376(11) 1.0899(3)
loop_
_geom_bond_atom_site_label_1
_geom_bond_atom_site_label_2
_geom_bond_site_symmetry_1
_geom_bond_site_symmetry_2
O1 H1 1_555 1_555
N1 C1 1_555 1_555
C1 O1 1_555 1_555
C2 H2 1_555 1_555
C3 C1 1_555 1_555
H3 C3 1_555 1_555
C4 C2 1_555 1_555
H4 C4 1_555 1_555
C5 N1 1_555 1_555
H5 C5 1_555 1_555
H6 N1 1_555 1_555
O2 C11 1_555 1_555
O3 C11 1_555 1_555
O4 N3 1_555 1_555
O5 N3 1_555 1_555
O6 N2 1_555 1_555
O7 N2 1_555 1_555
C6 H7 1_555 1_555
N2 C12 1_555 1_555
N3 C9 1_555 1_555
C7 C6 1_555 1_555
C8 C7 1_555 1_555
H8 C8 1_555 1_555
C9 C6 1_555 1_555
C10 C9 1_555 1_555
H9 C10 1_555 1_555
C11 C7 1_555 1_555
C12 C8 1_555 1_555
C2 C3 1_555 1_555
C4 C5 1_555 1_555
C10 C12 1_555 1_555

#END
