
#######################################################################
#
#                 Cambridge Crystallographic Data Centre
#                                CCDC 
#
#######################################################################
#
# If this CIF has been generated from an entry in the Cambridge 
# Structural Database, then it will include bibliographic, chemical, 
# crystal, experimental, refinement or atomic coordinate data resulting 
# from the CCDC's data processing and validation procedures.
#
#######################################################################

data_IXUZAD
_chemical_formula_moiety         'C6 H14 N1 O1 1+,C8 H7 O3 1-'
_chemical_name_systematic        
'3-Hydroxycyclohexanaminium hydroxy(phenyl)acetate'
_symmetry_cell_setting           monoclinic
_symmetry_space_group_name_H-M   'P 21'
_symmetry_Int_Tables_number      4
_space_group_name_Hall           'P 2yb'
loop_
_symmetry_equiv_pos_site_id
_symmetry_equiv_pos_as_xyz
1 x,y,z
2 -x,1/2+y,-z
_cell_length_a                   6.555(2)
_cell_length_b                   8.305(2)
_cell_length_c                   12.769(2)
_cell_angle_alpha                90
_cell_angle_beta                 91.723(6)
_cell_angle_gamma                90
_cell_volume                     694.821
_exptl_crystal_colour            colorless
_exptl_crystal_description       needle
_cell_formula_units_Z            2
_exptl_crystal_recrystallization_method methanol/isopropanol
loop_
_atom_site_label
_atom_site_type_symbol
_atom_site_fract_x
_atom_site_fract_y
_atom_site_fract_z
C1 C 0.57590(16) 0.66167(15) 0.31646(9)
H1 H 0.6891 0.6281 0.3647
H2 H 0.5878 0.7790 0.3045
C2 C 0.37274(16) 0.62447(14) 0.36521(8)
H3 H 0.3635 0.5053 0.3750
C3 C 0.19515(16) 0.67683(15) 0.29321(8)
H4 H 0.2014 0.7946 0.2817
H5 H 0.0644 0.6517 0.3264
C4 C 0.20527(16) 0.58937(14) 0.18833(9)
H6 H 0.1824 0.4728 0.1992
H7 H 0.0955 0.6299 0.1403
C5 C 0.41144(17) 0.61429(16) 0.13832(9)
H8 H 0.4178 0.5468 0.0746
H9 H 0.4236 0.7282 0.1166
C6 C 0.59083(17) 0.57193(15) 0.21211(9)
H10 H 0.7213 0.6020 0.1785
O1 O 0.58660(14) 0.40164(11) 0.22846(8)
N1 N 0.35875(15) 0.70196(13) 0.47011(7)
H18 H 0.464(2) 0.670(2) 0.5117(12)
H19 H 0.246(2) 0.674(2) 0.4992(11)
H20 H 0.354(2) 0.810(2) 0.4644(11)
H21 H 0.691(3) 0.377(2) 0.2626(15)
C7 C 1.13302(18) 0.55326(15) 0.78250(9)
H11 H 1.2402 0.5634 0.7345
C8 C 1.1640(2) 0.46610(17) 0.87429(10)
H12 H 1.2928 0.4173 0.8890
C9 C 1.0084(2) 0.44965(16) 0.94468(9)
H13 H 1.0293 0.3880 1.0067
C10 C 0.8225(2) 0.52357(18) 0.92400(9)
H14 H 0.7163 0.5140 0.9726
C11 C 0.79020(19) 0.61211(15) 0.83219(9)
H15 H 0.6623 0.6630 0.8185
C12 C 0.94493(17) 0.62600(13) 0.76062(8)
C13 C 0.90639(16) 0.71176(14) 0.65750(8)
H16 H 0.7839 0.7825 0.6635
O2 O 1.07815(12) 0.80901(10) 0.63422(6)
H17 H 1.0469 0.8720 0.5848
C14 C 0.86110(16) 0.58228(13) 0.57317(8)
O3 O 0.67940(11) 0.53171(11) 0.56753(6)
O4 O 1.00487(12) 0.53214(11) 0.51947(6)
loop_
_geom_bond_atom_site_label_1
_geom_bond_atom_site_label_2
_geom_bond_site_symmetry_1
_geom_bond_site_symmetry_2
C1 H1 1_555 1_555
H2 C1 1_555 1_555
C2 C1 1_555 1_555
H3 C2 1_555 1_555
C3 C2 1_555 1_555
H4 C3 1_555 1_555
H5 C3 1_555 1_555
C4 C3 1_555 1_555
H6 C4 1_555 1_555
H7 C4 1_555 1_555
C5 C4 1_555 1_555
H8 C5 1_555 1_555
H9 C5 1_555 1_555
C6 C1 1_555 1_555
H10 C6 1_555 1_555
O1 C6 1_555 1_555
N1 C2 1_555 1_555
C7 H11 1_555 1_555
C8 C7 1_555 1_555
H12 C8 1_555 1_555
C9 C8 1_555 1_555
H13 C9 1_555 1_555
C10 C9 1_555 1_555
H14 C10 1_555 1_555
C11 C10 1_555 1_555
H15 C11 1_555 1_555
C12 C7 1_555 1_555
C13 C12 1_555 1_555
H16 C13 1_555 1_555
O2 C13 1_555 1_555
H17 O2 1_555 1_555
C14 C13 1_555 1_555
O3 C14 1_555 1_555
O4 C14 1_555 1_555
H18 N1 1_555 1_555
H19 N1 1_555 1_555
H20 N1 1_555 1_555
H21 O1 1_555 1_555
C5 C6 1_555 1_555
C11 C12 1_555 1_555

#END
