
#######################################################################
#
#                 Cambridge Crystallographic Data Centre
#                                CCDC 
#
#######################################################################
#
# If this CIF has been generated from an entry in the Cambridge 
# Structural Database, then it will include bibliographic, chemical, 
# crystal, experimental, refinement or atomic coordinate data resulting 
# from the CCDC's data processing and validation procedures.
#
#######################################################################

data_IYACUH
_chemical_formula_moiety         'C16 H14 N4 O4,2(C3 H7 N1 O1)'
_chemical_name_systematic        
"N'^1^,N'^2^-dibenzoylethanedihydrazide N,N-dimethylformamide solvate"
_symmetry_cell_setting           orthorhombic
_symmetry_space_group_name_H-M   'P n a 21'
_symmetry_Int_Tables_number      33
_space_group_name_Hall           'P 2c -2n'
loop_
_symmetry_equiv_pos_site_id
_symmetry_equiv_pos_as_xyz
1 x,y,z
2 -x,-y,1/2+z
3 1/2+x,1/2-y,z
4 1/2-x,1/2+y,1/2+z
_cell_length_a                   15.862(3)
_cell_length_b                   6.3965(13)
_cell_length_c                   24.237(5)
_cell_angle_alpha                90
_cell_angle_beta                 90
_cell_angle_gamma                90
_cell_volume                     2459.12
_exptl_crystal_colour            colorless
_cell_formula_units_Z            4
_exptl_crystal_recrystallization_method N,N-dimethylformamide
loop_
_atom_site_label
_atom_site_type_symbol
_atom_site_fract_x
_atom_site_fract_y
_atom_site_fract_z
N1 N 0.1428(4) -0.2516(5) 0.0787(2)
O1 O 0.2163(2) 0.0114(4) 0.00669(13)
N2 N 0.1046(3) 0.2330(5) 0.0131(2)
O2 O 0.0340(2) -0.0278(5) 0.08712(14)
C1 C 0.1785(2) 0.4742(6) -0.11560(16)
C2 C 0.1020(3) -0.0779(6) 0.06746(17)
O3 O 0.0842(3) 0.1959(7) -0.09667(17)
N3 N 0.1106(2) -0.3935(5) 0.11662(14)
C3 C 0.0767(2) -0.4910(6) 0.20978(16)
N4 N 0.1400(2) 0.3739(5) -0.02431(14)
C4 C 0.1474(3) 0.0596(6) 0.02574(16)
O4 O 0.1711(3) -0.2176(6) 0.18702(18)
C5 C 0.1993(3) 0.6758(8) -0.10101(19)
H1 H 0.1820 0.7294 -0.0672
C6 C 0.0559(3) -0.4117(8) 0.26070(18)
H2 H 0.0737 -0.2782 0.2705
C7 C 0.0090(3) -0.5278(10) 0.2973(2)
H3 H -0.0059 -0.4717 0.3314
C8 C 0.1294(3) 0.3345(7) -0.07902(19)
C9 C 0.2714(5) 0.7241(10) -0.1852(4)
H4 H 0.3026 0.8090 -0.2087
C10 C 0.1235(3) -0.3530(7) 0.17125(18)
C11 C 0.0508(3) -0.6908(8) 0.1960(2)
H5 H 0.0647 -0.7457 0.1617
C12 C 0.2033(3) 0.3985(8) -0.16650(17)
H6 H 0.1875 0.2648 -0.1775
C13 C 0.2519(3) 0.5229(10) -0.20113(19)
H7 H 0.2712 0.4709 -0.2347
C14 C 0.0050(4) -0.8087(10) 0.2325(3)
H8 H -0.0121 -0.9431 0.2230
C15 C 0.2461(4) 0.7985(9) -0.1367(3)
H9 H 0.2599 0.9345 -0.1267
C16 C -0.0157(5) -0.7256(11) 0.2836(3)
H10 H -0.0466 -0.8050 0.3086
H11 H 0.189(2) -0.279(4) 0.0697(15)
H12 H 0.049(4) 0.267(7) 0.037(2)
H13 H 0.188(4) 0.448(9) -0.011(3)
H14 H 0.060(3) -0.425(7) 0.1039(19)
O5 O 0.28500(17) 0.5574(4) 1.02802(11)
N5 N 0.3939(2) 0.5817(5) 0.96743(14)
C17 C 0.3447(3) 0.6528(7) 1.00697(18)
H15 H 0.3558 0.7864 1.0202
C18 C 0.4600(4) 0.7111(9) 0.9442(4)
H16 H 0.4411 0.7699 0.9099
H17 H 0.5093 0.6273 0.9377
H18 H 0.4735 0.8216 0.9694
C19 C 0.3811(3) 0.3788(8) 0.94409(19)
H19 H 0.3411 0.3029 0.9660
H20 H 0.4337 0.3044 0.9434
H21 H 0.3600 0.3928 0.9071
O6 O 0.96529(16) 0.4309(4) 0.06484(11)
N6 N 0.8574(2) 0.4093(5) 0.12582(14)
C20 C 0.9053(3) 0.3376(8) 0.08665(18)
H22 H 0.8934 0.2039 0.0737
C21 C 0.8713(3) 0.6155(7) 0.1504(2)
H23 H 0.8786 0.6010 0.1896
H24 H 0.8235 0.7033 0.1432
H25 H 0.9209 0.6776 0.1347
C22 C 0.7902(4) 0.2824(9) 0.1489(3)
H26 H 0.7880 0.1507 0.1299
H27 H 0.7374 0.3538 0.1446
H28 H 0.8008 0.2588 0.1874
loop_
_geom_bond_atom_site_label_1
_geom_bond_atom_site_label_2
_geom_bond_site_symmetry_1
_geom_bond_site_symmetry_2
N1 C2 1_555 1_555
O1 C4 1_555 1_555
N2 N4 1_555 1_555
O2 C2 1_555 1_555
C1 C5 1_555 1_555
C2 C4 1_555 1_555
O3 C8 1_555 1_555
N3 N1 1_555 1_555
C3 C6 1_555 1_555
N4 C8 1_555 1_555
C4 N2 1_555 1_555
O4 C10 1_555 1_555
C5 H1 1_555 1_555
C6 H2 1_555 1_555
C7 C6 1_555 1_555
H3 C7 1_555 1_555
C8 C1 1_555 1_555
C9 H4 1_555 1_555
C10 N3 1_555 1_555
C11 C3 1_555 1_555
H5 C11 1_555 1_555
C12 C1 1_555 1_555
H6 C12 1_555 1_555
C13 C9 1_555 1_555
H7 C13 1_555 1_555
C14 C11 1_555 1_555
H8 C14 1_555 1_555
C15 C5 1_555 1_555
H9 C15 1_555 1_555
C16 C7 1_555 1_555
H10 C16 1_555 1_555
H11 N1 1_555 1_555
H12 N2 1_555 1_555
H13 N4 1_555 1_555
H14 N3 1_555 1_555
O5 C17 1_555 1_555
N5 C17 1_555 1_555
C17 H15 1_555 1_555
C18 N5 1_555 1_555
H16 C18 1_555 1_555
H17 C18 1_555 1_555
H18 C18 1_555 1_555
C19 N5 1_555 1_555
H19 C19 1_555 1_555
H20 C19 1_555 1_555
H21 C19 1_555 1_555
O6 C20 1_555 1_555
N6 C20 1_555 1_555
C20 H22 1_555 1_555
C21 N6 1_555 1_555
H23 C21 1_555 1_555
H24 C21 1_555 1_555
H25 C21 1_555 1_555
C22 N6 1_555 1_555
H26 C22 1_555 1_555
H27 C22 1_555 1_555
H28 C22 1_555 1_555
C3 C10 1_555 1_555
C9 C15 1_555 1_555
C12 C13 1_555 1_555
C14 C16 1_555 1_555

#END
