
#######################################################################
#
#                 Cambridge Crystallographic Data Centre
#                                CCDC 
#
#######################################################################
#
# If this CIF has been generated from an entry in the Cambridge 
# Structural Database, then it will include bibliographic, chemical, 
# crystal, experimental, refinement or atomic coordinate data resulting 
# from the CCDC's data processing and validation procedures.
#
#######################################################################

data_IYANON
_chemical_formula_moiety         
'C12 H9 N2 1+,C120 H85 Ca4 N16 O27 S3 1-,C12 H8 N2,27(H2 O1)'
_chemical_name_systematic        
'1,10-phenanthrolinium tris(\m-5-sulfonatoisophthalato)-hexa-aqua-octakis(1,10-phenanthroline)-tetra-calcium 1,10-phenanthroline heptacosahydrate'
_symmetry_cell_setting           monoclinic
_symmetry_space_group_name_H-M   'P 2/c'
_symmetry_Int_Tables_number      13
_space_group_name_Hall           '-P 2yc'
loop_
_symmetry_equiv_pos_site_id
_symmetry_equiv_pos_as_xyz
1 x,y,z
2 -x,y,1/2-z
3 -x,-y,-z
4 x,-y,1/2+z
_cell_length_a                   21.3001(18)
_cell_length_b                   16.7400(14)
_cell_length_c                   24.780(2)
_cell_angle_alpha                90
_cell_angle_beta                 112.991(2)
_cell_angle_gamma                90
_cell_volume                     8133.8
_cell_formula_units_Z            2
loop_
_atom_site_label
_atom_site_type_symbol
_atom_site_fract_x
_atom_site_fract_y
_atom_site_fract_z
N9 N 0.5508(15) 0.681(4) 0.155(3)
N10 N 0.5698(11) 0.528(5) 0.1880(19)
H44 H 0.5613 0.5411 0.1522
C65 C 0.5411(14) 0.760(6) 0.138(3)
H45 H 0.5260 0.7742 0.0986
C66 C 0.554(2) 0.819(3) 0.180(4)
H46 H 0.5490 0.8725 0.1682
C67 C 0.5744(19) 0.802(5) 0.239(4)
H47 H 0.5815 0.8429 0.2663
C68 C 0.5837(19) 0.723(6) 0.256(5)
C69 C 0.572(2) 0.665(7) 0.214(4)
C70 C 0.579(2) 0.586(6) 0.230(5)
C71 C 0.596(2) 0.565(5) 0.288(5)
C72 C 0.6026(15) 0.486(6) 0.305(3)
H48 H 0.6093 0.4726 0.3430
C73 C 0.5990(19) 0.428(3) 0.265(4)
H49 H 0.6125 0.3759 0.2767
C74 C 0.5746(18) 0.448(5) 0.205(4)
H50 H 0.5615 0.4081 0.1768
C75 C 0.6009(17) 0.703(6) 0.313(4)
H51 H 0.6097 0.7425 0.3418
C76 C 0.6051(15) 0.624(7) 0.329(3)
H52 H 0.6142 0.6097 0.3674
O18 O 1.0000 0.0045(8) 0.2500
H53 H 0.9672 0.0340 0.2494
H53A H 1.0328 0.0340 0.2506
O19 O 0.5957(6) 0.4600(10) 0.5784(7)
H54 H 0.6221 0.4332 0.5669
H55 H 0.5810 0.4292 0.5981
O20 O 0.6269(7) 0.2027(9) 0.5090(7)
H56 H 0.5860 0.1858 0.4963
H57 H 0.6467 0.1807 0.4890
O21 O 0.6534(8) 0.6589(11) 0.4914(8)
H58 H 0.6867 0.6270 0.4988
H59 H 0.6170 0.6326 0.4736
O22 O 0.6402(8) 0.8004(11) 0.4614(7)
H60 H 0.6559 0.8256 0.4396
H61 H 0.6525 0.7518 0.4634
O23 O 0.6743(5) 0.1198(6) 0.4367(4)
H62 H 0.7108 0.1122 0.4313
H63 H 0.6427 0.0930 0.4111
O24 O 0.7386(6) 0.1159(8) 0.1598(5)
H64 H 0.7407 0.1662 0.1649
H65 H 0.6974 0.1029 0.1402
O25 O 0.8681(5) 0.0642(5) 0.2481(4)
H66 H 0.8555 0.0593 0.2765
H67 H 0.8339 0.0796 0.2182
O26 O 0.9460(5) 0.2033(6) 0.2648(5)
H68 H 0.9206 0.2444 0.2571
H69 H 0.9210 0.1621 0.2592
O27 O 0.6455(7) 0.0613(10) 0.5273(7)
H70 H 0.6446 0.0766 0.4943
H71 H 0.6054 0.0480 0.5233
O28 O 0.6036(8) 0.3431(10) 0.4156(7)
H72 H 0.6469 0.3411 0.4304
H73 H 0.5914 0.3900 0.4205
O29 O 0.5655(8) 0.4879(11) 0.4323(7)
H74 H 0.5866 0.5312 0.4458
H75 H 0.5306 0.4985 0.4015
O30 O 0.6303(9) 0.6633(12) 0.5865(9)
H76 H 0.6374 0.6619 0.5550
H77 H 0.6673 0.6759 0.6146
Ca1 Ca 0.78959(11) 0.41899(12) 0.56208(9)
Ca2 Ca 0.76633(11) -0.05754(12) 0.37279(10)
N1 N 0.8631(6) 0.5446(6) 0.5789(4)
N2 N 0.9074(4) 0.4060(6) 0.5536(4)
N3 N 0.8705(4) 0.4019(6) 0.6708(4)
N4 N 0.8224(5) 0.2751(5) 0.5968(4)
N5 N 0.7751(4) -0.2117(5) 0.3749(5)
N6 N 0.7504(4) -0.1238(6) 0.2777(4)
N7 N 0.8356(6) -0.0786(5) 0.4838(4)
N8 N 0.8926(5) -0.0761(5) 0.4057(5)
O1 O 0.7664(4) 0.3534(4) 0.4715(3)
O2 O 0.7724(4) 0.4545(5) 0.4184(3)
O3 O 0.7797(3) 0.0802(4) 0.4046(3)
O4 O 0.8012(4) 0.0580(4) 0.3262(3)
O5 O 0.8663(7) 0.3377(6) 0.2404(5)
O6 O 0.7722(5) 0.4244(5) 0.2224(4)
O7 O 0.7632(6) 0.2922(6) 0.1869(4)
O8 O 0.670(4) -0.064(3) 0.398(4)
O9 O 0.337(9) 0.004(9) 0.192(8)
O10 O 0.4881(17) 0.113(3) 0.4549(16)
O11 O 0.4557(16) -0.030(3) 0.4533(17)
O12 O 0.3717(17) 0.065(2) 0.3930(14)
O13 O 0.6820(4) 0.3535(5) 0.5491(4)
H1 H 0.6904 0.3055 0.5608
H2 H 0.6565 0.3525 0.5128
O14 O 0.7366(4) 0.4937(4) 0.6171(3)
H3 H 0.7635 0.5014 0.6525
H4 H 0.6997 0.4724 0.6156
O15 O 0.7158(4) 0.5129(5) 0.4887(3)
H5 H 0.6749 0.5068 0.4857
H6 H 0.7172 0.5026 0.4556
S1 S 0.7937(3) 0.3430(2) 0.22800(18)
S2 S 0.4445(11) 0.0475(15) 0.4210(9)
C1 C 0.7726(6) 0.3812(7) 0.4284(6)
C2 C 0.7883(6) 0.1062(7) 0.3593(6)
C3 C 0.7791(5) 0.3263(6) 0.3833(5)
C4 C 0.7823(5) 0.2442(6) 0.3908(5)
H7 H 0.7801 0.2235 0.4248
C5 C 0.7883(5) 0.1934(6) 0.3516(5)
C6 C 0.7916(5) 0.2235(7) 0.3027(5)
H8 H 0.7969 0.1887 0.2755
C7 C 0.7876(6) 0.3043(7) 0.2914(5)
C8 C 0.7824(5) 0.3561(6) 0.3325(5)
H9 H 0.7812 0.4110 0.3262
C9 C 0.8420(6) 0.6139(8) 0.5917(5)
H10 H 0.7973 0.6168 0.5889
C10 C 0.8815(8) 0.6825(8) 0.6089(5)
H11 H 0.8639 0.7304 0.6159
C11 C 0.9460(8) 0.6756(8) 0.6146(6)
H12 H 0.9754 0.7183 0.6300
C12 C 0.9709(8) 0.6075(8) 0.5985(5)
C13 C 0.9277(7) 0.5422(8) 0.5832(5)
C14 C 0.9508(7) 0.4703(8) 0.5679(5)
C15 C 1.0173(7) 0.4652(9) 0.5690(5)
C16 C 1.0356(7) 0.3919(9) 0.5552(5)
H13 H 1.0796 0.3850 0.5568
C17 C 0.9923(8) 0.3292(8) 0.5395(5)
H14 H 1.0057 0.2808 0.5289
C18 C 0.9300(7) 0.3378(7) 0.5394(5)
H15 H 0.9007 0.2941 0.5290
C19 C 1.0370(8) 0.5981(9) 0.6018(5)
H16 H 1.0676 0.6403 0.6154
C20 C 1.0572(7) 0.5322(10) 0.5863(5)
H17 H 1.1011 0.5303 0.5870
C21 C 0.8915(6) 0.4626(7) 0.7072(5)
H18 H 0.8819 0.5142 0.6924
C22 C 0.9283(6) 0.4520(8) 0.7684(5)
H19 H 0.9425 0.4960 0.7931
C23 C 0.9423(6) 0.3782(9) 0.7900(5)
H20 H 0.9670 0.3713 0.8300
C24 C 0.9214(6) 0.3122(8) 0.7547(5)
C25 C 0.8841(5) 0.3278(7) 0.6931(5)
C26 C 0.8612(5) 0.2615(7) 0.6555(5)
C27 C 0.8762(6) 0.1826(8) 0.6763(6)
C28 C 0.8509(6) 0.1207(7) 0.6376(6)
H21 H 0.8605 0.0684 0.6510
C29 C 0.8131(6) 0.1338(8) 0.5816(6)
H22 H 0.7963 0.0917 0.5554
C30 C 0.7994(6) 0.2126(8) 0.5632(6)
H23 H 0.7718 0.2216 0.5240
C31 C 0.9331(6) 0.2346(8) 0.7731(5)
H24 H 0.9557 0.2247 0.8130
C32 C 0.9139(6) 0.1736(8) 0.7373(6)
H25 H 0.9256 0.1225 0.7525
C33 C 0.7843(5) -0.2559(7) 0.4197(6)
H26 H 0.7891 -0.2316 0.4549
C34 C 0.7872(6) -0.3396(7) 0.4176(7)
H27 H 0.7965 -0.3693 0.4516
C35 C 0.7770(6) -0.3756(8) 0.3686(7)
H28 H 0.7769 -0.4311 0.3668
C36 C 0.7664(5) -0.3313(7) 0.3197(6)
C37 C 0.7649(5) -0.2509(7) 0.3228(6)
C38 C 0.7503(5) -0.2035(7) 0.2723(6)
C39 C 0.7345(5) -0.2428(8) 0.2183(6)
C40 C 0.7170(6) -0.1945(8) 0.1703(6)
H29 H 0.7057 -0.2175 0.1336
C41 C 0.7158(5) -0.1155(8) 0.1748(6)
H30 H 0.7042 -0.0834 0.1417
C42 C 0.7321(6) -0.0820(8) 0.2299(6)
H31 H 0.7298 -0.0267 0.2327
C43 C 0.7541(6) -0.3684(7) 0.2640(7)
H32 H 0.7579 -0.4236 0.2618
C44 C 0.7379(6) -0.3258(8) 0.2172(6)
H33 H 0.7281 -0.3513 0.1815
C45 C 0.8067(7) -0.0730(7) 0.5219(7)
H34 H 0.7612 -0.0575 0.5094
C46 C 0.8453(9) -0.0908(7) 0.5830(6)
H35 H 0.8238 -0.0934 0.6092
C47 C 0.9114(9) -0.1034(7) 0.6013(7)
H36 H 0.9375 -0.1078 0.6412
C48 C 0.9435(10) -0.1103(8) 0.5608(7)
C49 C 0.9028(8) -0.0925(7) 0.5028(6)
C50 C 0.9312(8) -0.0912(7) 0.4619(7)
C51 C 1.0036(9) -0.1038(7) 0.4813(7)
C52 C 1.0290(8) -0.0977(8) 0.4385(9)
H37 H 1.0756 -0.1049 0.4494
C53 C 0.9921(8) -0.0823(7) 0.3836(8)
H38 H 1.0120 -0.0788 0.3562
C54 C 0.9215(7) -0.0711(7) 0.3669(6)
H39 H 0.8945 -0.0600 0.3279
C55 C 1.0126(10) -0.1235(8) 0.5784(7)
H40 H 1.0387 -0.1356 0.6174
C56 C 1.0418(8) -0.1192(8) 0.5410(8)
H41 H 1.0887 -0.1265 0.5540
C57 C 0.636(3) -0.028(3) 0.346(3)
C58 C 0.399(4) 0.010(4) 0.201(3)
C59 C 0.563(14) -0.008(14) 0.336(15)
C60 C 0.517(3) -0.007(2) 0.279(3)
C61 C 0.449(3) 0.010(2) 0.264(3)
C62 C 0.427(2) 0.027(3) 0.309(3)
H42 H 0.3801 0.0401 0.2996
C63 C 0.474(3) 0.026(2) 0.365(2)
C64 C 0.542(3) 0.007(3) 0.381(2)
H43 H 0.5728 0.0063 0.4212
O16 O 0.422(10) 0.016(10) 0.161(11)
O17 O 0.655(8) -0.011(8) 0.306(6)
O8A O 0.330(4) -0.064(3) 0.102(4)
O9A O 0.663(9) 0.004(9) 0.308(8)
O10A O 0.5119(17) 0.113(3) 0.0451(16)
O11A O 0.5443(16) -0.030(3) 0.0467(17)
O12A O 0.6283(17) 0.065(2) 0.1070(14)
S2A S 0.5555(11) 0.0475(15) 0.0790(9)
C57A C 0.364(3) -0.028(3) 0.154(3)
C58A C 0.601(4) 0.010(4) 0.299(3)
C59A C 0.437(14) -0.008(14) 0.164(15)
C60A C 0.483(3) -0.007(2) 0.221(3)
C61A C 0.551(3) 0.010(2) 0.236(3)
C62A C 0.573(2) 0.027(3) 0.191(3)
H42A H 0.6199 0.0401 0.2004
C63A C 0.526(3) 0.026(2) 0.135(2)
C64A C 0.458(3) 0.007(3) 0.119(2)
H43A H 0.4272 0.0063 0.0788
O16A O 0.578(10) 0.016(10) 0.339(11)
O17A O 0.345(8) -0.011(8) 0.194(6)
Ca1A Ca 0.21041(11) 0.41899(12) -0.06208(9)
Ca2A Ca 0.23367(11) -0.05754(12) 0.12721(10)
N1A N 0.1369(6) 0.5446(6) -0.0789(4)
N2A N 0.0926(4) 0.4060(6) -0.0536(4)
N3A N 0.1295(4) 0.4019(6) -0.1708(4)
N4A N 0.1776(5) 0.2751(5) -0.0968(4)
N5A N 0.2249(4) -0.2117(5) 0.1251(5)
N6A N 0.2496(4) -0.1238(6) 0.2223(4)
N7A N 0.1644(6) -0.0786(5) 0.0162(4)
N8A N 0.1074(5) -0.0761(5) 0.0943(5)
O1A O 0.2336(4) 0.3534(4) 0.0285(3)
O2A O 0.2276(4) 0.4545(5) 0.0816(3)
O3A O 0.2203(3) 0.0802(4) 0.0954(3)
O4A O 0.1988(4) 0.0580(4) 0.1738(3)
O5A O 0.1337(7) 0.3377(6) 0.2596(5)
O6A O 0.2278(5) 0.4244(5) 0.2776(4)
O7A O 0.2368(6) 0.2922(6) 0.3131(4)
O13A O 0.3180(4) 0.3535(5) -0.0491(4)
H1A H 0.3096 0.3055 -0.0608
H2A H 0.3435 0.3525 -0.0128
O14A O 0.2634(4) 0.4937(4) -0.1171(3)
H3A H 0.2365 0.5014 -0.1525
H4A H 0.3003 0.4724 -0.1156
O15A O 0.2842(4) 0.5129(5) 0.0113(3)
H5A H 0.3251 0.5068 0.0143
H6A H 0.2828 0.5026 0.0444
S1A S 0.2063(3) 0.3430(2) 0.27200(18)
C1A C 0.2274(6) 0.3812(7) 0.0716(6)
C2A C 0.2117(6) 0.1062(7) 0.1407(6)
C3A C 0.2209(5) 0.3263(6) 0.1167(5)
C4A C 0.2177(5) 0.2442(6) 0.1092(5)
H7A H 0.2199 0.2235 0.0752
C5A C 0.2117(5) 0.1934(6) 0.1484(5)
C6A C 0.2084(5) 0.2235(7) 0.1973(5)
H8A H 0.2031 0.1887 0.2245
C7A C 0.2124(6) 0.3043(7) 0.2086(5)
C8A C 0.2176(5) 0.3561(6) 0.1675(5)
H9A H 0.2188 0.4110 0.1738
C9A C 0.1580(6) 0.6139(8) -0.0917(5)
H10A H 0.2027 0.6168 -0.0889
C10A C 0.1185(8) 0.6825(8) -0.1089(5)
H11A H 0.1361 0.7304 -0.1159
C11A C 0.0540(8) 0.6756(8) -0.1146(6)
H12A H 0.0246 0.7183 -0.1300
C12A C 0.0291(8) 0.6075(8) -0.0985(5)
C13A C 0.0723(7) 0.5422(8) -0.0832(5)
C14A C 0.0492(7) 0.4703(8) -0.0679(5)
C15A C -0.0173(7) 0.4652(9) -0.0690(5)
C16A C -0.0356(7) 0.3919(9) -0.0552(5)
H13A H -0.0796 0.3850 -0.0568
C17A C 0.0077(8) 0.3292(8) -0.0395(5)
H14A H -0.0057 0.2808 -0.0289
C18A C 0.0700(7) 0.3378(7) -0.0394(5)
H15A H 0.0993 0.2941 -0.0290
C19A C -0.0370(8) 0.5981(9) -0.1018(5)
H16A H -0.0676 0.6403 -0.1154
C20A C -0.0572(7) 0.5322(10) -0.0863(5)
H17A H -0.1011 0.5303 -0.0870
C21A C 0.1085(6) 0.4626(7) -0.2072(5)
H18A H 0.1181 0.5142 -0.1924
C22A C 0.0717(6) 0.4520(8) -0.2684(5)
H19A H 0.0575 0.4960 -0.2931
C23A C 0.0577(6) 0.3782(9) -0.2900(5)
H20A H 0.0330 0.3713 -0.3300
C24A C 0.0786(6) 0.3122(8) -0.2547(5)
C25A C 0.1159(5) 0.3278(7) -0.1931(5)
C26A C 0.1388(5) 0.2615(7) -0.1555(5)
C27A C 0.1238(6) 0.1826(8) -0.1763(6)
C28A C 0.1491(6) 0.1207(7) -0.1376(6)
H21A H 0.1395 0.0684 -0.1510
C29A C 0.1869(6) 0.1338(8) -0.0816(6)
H22A H 0.2037 0.0917 -0.0554
C30A C 0.2006(6) 0.2126(8) -0.0632(6)
H23A H 0.2282 0.2216 -0.0240
C31A C 0.0669(6) 0.2346(8) -0.2731(5)
H24A H 0.0443 0.2247 -0.3130
C32A C 0.0861(6) 0.1736(8) -0.2373(6)
H25A H 0.0744 0.1225 -0.2525
C33A C 0.2157(5) -0.2559(7) 0.0803(6)
H26A H 0.2109 -0.2316 0.0451
C34A C 0.2128(6) -0.3396(7) 0.0824(7)
H27A H 0.2035 -0.3693 0.0484
C35A C 0.2230(6) -0.3756(8) 0.1314(7)
H28A H 0.2231 -0.4311 0.1332
C36A C 0.2336(5) -0.3313(7) 0.1803(6)
C37A C 0.2351(5) -0.2509(7) 0.1772(6)
C38A C 0.2497(5) -0.2035(7) 0.2277(6)
C39A C 0.2655(5) -0.2428(8) 0.2817(6)
C40A C 0.2830(6) -0.1945(8) 0.3297(6)
H29A H 0.2943 -0.2175 0.3664
C41A C 0.2842(5) -0.1155(8) 0.3252(6)
H30A H 0.2958 -0.0834 0.3583
C42A C 0.2679(6) -0.0820(8) 0.2701(6)
H31A H 0.2702 -0.0267 0.2673
C43A C 0.2459(6) -0.3684(7) 0.2360(7)
H32A H 0.2421 -0.4236 0.2382
C44A C 0.2621(6) -0.3258(8) 0.2828(6)
H33A H 0.2719 -0.3513 0.3185
C45A C 0.1933(7) -0.0730(7) -0.0219(7)
H34A H 0.2388 -0.0575 -0.0094
C46A C 0.1547(9) -0.0908(7) -0.0830(6)
H35A H 0.1762 -0.0934 -0.1092
C47A C 0.0886(9) -0.1034(7) -0.1013(7)
H36A H 0.0625 -0.1078 -0.1412
C48A C 0.0565(10) -0.1103(8) -0.0608(7)
C49A C 0.0972(8) -0.0925(7) -0.0028(6)
C50A C 0.0688(8) -0.0912(7) 0.0381(7)
C51A C -0.0036(9) -0.1038(7) 0.0187(7)
C52A C -0.0290(8) -0.0977(8) 0.0615(9)
H37A H -0.0756 -0.1049 0.0506
C53A C 0.0079(8) -0.0823(7) 0.1164(8)
H38A H -0.0120 -0.0788 0.1438
C54A C 0.0785(7) -0.0711(7) 0.1331(6)
H39A H 0.1055 -0.0600 0.1721
C55A C -0.0126(10) -0.1235(8) -0.0784(7)
H40A H -0.0387 -0.1356 -0.1174
C56A C -0.0418(8) -0.1192(8) -0.0410(8)
H41A H -0.0887 -0.1265 -0.0540
O31? O 0.676(4) -0.099(3) 0.404(4)
H78? H 0.6785 -0.1481 0.4129
H79? H 0.6359 -0.0869 0.3802
O32? O 0.3650(12) 0.0907(16) 0.2856(11)
H80? H 0.3538 0.0879 0.2488
H81? H 0.3293 0.0991 0.2924
H82? H 0.5320 -0.0212 0.2483
loop_
_geom_bond_atom_site_label_1
_geom_bond_atom_site_label_2
_geom_bond_site_symmetry_1
_geom_bond_site_symmetry_2
Ca1 N1 1_555 1_555
Ca2 N5 1_555 1_555
N1 C9 1_555 1_555
N2 Ca1 1_555 1_555
N3 Ca1 1_555 1_555
N4 Ca1 1_555 1_555
N5 C33 1_555 1_555
N6 Ca2 1_555 1_555
N7 Ca2 1_555 1_555
N8 Ca2 1_555 1_555
O1 Ca1 1_555 1_555
O2 C1 1_555 1_555
O3 Ca2 1_555 1_555
O4 Ca2 1_555 1_555
O5 S1 1_555 1_555
O6 S1 1_555 1_555
O7 S1 1_555 1_555
O8 Ca2 1_555 1_555
O9 C58 1_555 1_555
O10 S2 1_555 1_555
O11 S2 1_555 1_555
O12 S2 1_555 1_555
O13 Ca1 1_555 1_555
H1 O13 1_555 1_555
H2 O13 1_555 1_555
O14 Ca1 1_555 1_555
H3 O14 1_555 1_555
H4 O14 1_555 1_555
O15 Ca1 1_555 1_555
H5 O15 1_555 1_555
H6 O15 1_555 1_555
S1 C7 1_555 1_555
S2 C63 1_555 1_555
C1 O1 1_555 1_555
C2 O3 1_555 1_555
C3 C1 1_555 1_555
C4 C3 1_555 1_555
H7 C4 1_555 1_555
C5 C2 1_555 1_555
C6 C5 1_555 1_555
H8 C6 1_555 1_555
C7 C6 1_555 1_555
C8 C3 1_555 1_555
H9 C8 1_555 1_555
C9 H10 1_555 1_555
C10 C9 1_555 1_555
H11 C10 1_555 1_555
C11 C10 1_555 1_555
H12 C11 1_555 1_555
C12 C11 1_555 1_555
C13 N1 1_555 1_555
C14 N2 1_555 1_555
C15 C14 1_555 1_555
C16 C15 1_555 1_555
H13 C16 1_555 1_555
C17 C16 1_555 1_555
H14 C17 1_555 1_555
C18 N2 1_555 1_555
H15 C18 1_555 1_555
C19 C12 1_555 1_555
H16 C19 1_555 1_555
C20 C15 1_555 1_555
H17 C20 1_555 1_555
C21 N3 1_555 1_555
H18 C21 1_555 1_555
C22 C21 1_555 1_555
H19 C22 1_555 1_555
C23 C22 1_555 1_555
H20 C23 1_555 1_555
C24 C23 1_555 1_555
C25 N3 1_555 1_555
C26 N4 1_555 1_555
C27 C26 1_555 1_555
C28 C27 1_555 1_555
H21 C28 1_555 1_555
C29 C28 1_555 1_555
H22 C29 1_555 1_555
C30 N4 1_555 1_555
H23 C30 1_555 1_555
C31 C24 1_555 1_555
H24 C31 1_555 1_555
C32 C27 1_555 1_555
H25 C32 1_555 1_555
C33 H26 1_555 1_555
C34 C33 1_555 1_555
H27 C34 1_555 1_555
C35 C34 1_555 1_555
H28 C35 1_555 1_555
C36 C35 1_555 1_555
C37 N5 1_555 1_555
C38 N6 1_555 1_555
C39 C38 1_555 1_555
C40 C39 1_555 1_555
H29 C40 1_555 1_555
C41 C40 1_555 1_555
H30 C41 1_555 1_555
C42 N6 1_555 1_555
H31 C42 1_555 1_555
C43 C36 1_555 1_555
H32 C43 1_555 1_555
C44 C39 1_555 1_555
H33 C44 1_555 1_555
C45 N7 1_555 1_555
H34 C45 1_555 1_555
C46 C45 1_555 1_555
H35 C46 1_555 1_555
C47 C46 1_555 1_555
H36 C47 1_555 1_555
C48 C47 1_555 1_555
C49 N7 1_555 1_555
C50 N8 1_555 1_555
C51 C50 1_555 1_555
C52 C51 1_555 1_555
H37 C52 1_555 1_555
C53 C52 1_555 1_555
H38 C53 1_555 1_555
C54 N8 1_555 1_555
H39 C54 1_555 1_555
C55 C48 1_555 1_555
H40 C55 1_555 1_555
C56 C51 1_555 1_555
H41 C56 1_555 1_555
C57 O8 1_555 1_555
C58 C61 1_555 1_555
C59 C57 1_555 1_555
C60 C59 1_555 1_555
C61 C60 1_555 1_555
C62 C61 1_555 1_555
H42 C62 1_555 1_555
C63 C62 1_555 1_555
C64 C59 1_555 1_555
H43 C64 1_555 1_555
O16 C58 1_555 1_555
O17 Ca2 1_555 1_555
N9 C65 1_555 1_555
N10 H44 1_555 1_555
C65 H45 1_555 1_555
C66 C65 1_555 1_555
H46 C66 1_555 1_555
C67 C66 1_555 1_555
H47 C67 1_555 1_555
C68 C67 1_555 1_555
C69 N9 1_555 1_555
C70 N10 1_555 1_555
C71 C70 1_555 1_555
C72 C71 1_555 1_555
H48 C72 1_555 1_555
C73 C72 1_555 1_555
H49 C73 1_555 1_555
C74 N10 1_555 1_555
H50 C74 1_555 1_555
C75 C68 1_555 1_555
H51 C75 1_555 1_555
C76 C71 1_555 1_555
H52 C76 1_555 1_555
O18 H53 1_555 1_555
O19 H54 1_555 1_555
H55 O19 1_555 1_555
O20 H56 1_555 1_555
H57 O20 1_555 1_555
O21 H58 1_555 1_555
H59 O21 1_555 1_555
O22 H60 1_555 1_555
H61 O22 1_555 1_555
O23 H62 1_555 1_555
H63 O23 1_555 1_555
O24 H64 1_555 1_555
H65 O24 1_555 1_555
O25 H66 1_555 1_555
H67 O25 1_555 1_555
O26 H68 1_555 1_555
H69 O26 1_555 1_555
O27 H70 1_555 1_555
H71 O27 1_555 1_555
O28 H72 1_555 1_555
H73 O28 1_555 1_555
O29 H74 1_555 1_555
H75 O29 1_555 1_555
O30 H76 1_555 1_555
H77 O30 1_555 1_555
O8A C57A 1_555 1_555
O9A Ca2 1_555 1_555
O10A S2A 1_555 1_555
O11A S2A 1_555 1_555
O12A S2A 1_555 1_555
S2A C63A 1_555 1_555
C57A O9 1_555 1_555
C58A C57 1_555 1_555
C59A C58 1_555 1_555
C60A C58 1_555 1_555
C61A C60 1_555 1_555
C62A C61A 1_555 1_555
H42A C62A 1_555 1_555
C63A C62A 1_555 1_555
C64A O16 1_555 1_555
H43A C64A 1_555 1_555
O16A C57 1_555 1_555
O17A C58 1_555 1_555
Ca1A N1A 1_555 1_555
Ca2A O9 1_555 1_555
N1A C9A 1_555 1_555
N2A Ca1A 1_555 1_555
N3A Ca1A 1_555 1_555
N4A Ca1A 1_555 1_555
N5A Ca2A 1_555 1_555
N6A Ca2A 1_555 1_555
N7A Ca2A 1_555 1_555
N8A Ca2A 1_555 1_555
O1A Ca1A 1_555 1_555
O2A C1A 1_555 1_555
O3A Ca2A 1_555 1_555
O4A Ca2A 1_555 1_555
O5A S1A 1_555 1_555
O6A S1A 1_555 1_555
O7A S1A 1_555 1_555
O13A Ca1A 1_555 1_555
H1A O13A 1_555 1_555
H2A O13A 1_555 1_555
O14A Ca1A 1_555 1_555
H3A O14A 1_555 1_555
H4A O14A 1_555 1_555
O15A Ca1A 1_555 1_555
H5A O15A 1_555 1_555
H6A O15A 1_555 1_555
S1A C7A 1_555 1_555
C1A O1A 1_555 1_555
C2A O3A 1_555 1_555
C3A C1A 1_555 1_555
C4A C3A 1_555 1_555
H7A C4A 1_555 1_555
C5A C2A 1_555 1_555
C6A C5A 1_555 1_555
H8A C6A 1_555 1_555
C7A C6A 1_555 1_555
C8A C3A 1_555 1_555
H9A C8A 1_555 1_555
C9A H10A 1_555 1_555
C10A C9A 1_555 1_555
H11A C10A 1_555 1_555
C11A C10A 1_555 1_555
H12A C11A 1_555 1_555
C12A C11A 1_555 1_555
C13A N1A 1_555 1_555
C14A N2A 1_555 1_555
C15A C14A 1_555 1_555
C16A C15A 1_555 1_555
H13A C16A 1_555 1_555
C17A C16A 1_555 1_555
H14A C17A 1_555 1_555
C18A N2A 1_555 1_555
H15A C18A 1_555 1_555
C19A C12A 1_555 1_555
H16A C19A 1_555 1_555
C20A C15A 1_555 1_555
H17A C20A 1_555 1_555
C21A N3A 1_555 1_555
H18A C21A 1_555 1_555
C22A C21A 1_555 1_555
H19A C22A 1_555 1_555
C23A C22A 1_555 1_555
H20A C23A 1_555 1_555
C24A C23A 1_555 1_555
C25A N3A 1_555 1_555
C26A N4A 1_555 1_555
C27A C26A 1_555 1_555
C28A C27A 1_555 1_555
H21A C28A 1_555 1_555
C29A C28A 1_555 1_555
H22A C29A 1_555 1_555
C30A N4A 1_555 1_555
H23A C30A 1_555 1_555
C31A C24A 1_555 1_555
H24A C31A 1_555 1_555
C32A C27A 1_555 1_555
H25A C32A 1_555 1_555
C33A N5A 1_555 1_555
H26A C33A 1_555 1_555
C34A C33A 1_555 1_555
H27A C34A 1_555 1_555
C35A C34A 1_555 1_555
H28A C35A 1_555 1_555
C36A C35A 1_555 1_555
C37A N5A 1_555 1_555
C38A N6A 1_555 1_555
C39A C38A 1_555 1_555
C40A C39A 1_555 1_555
H29A C40A 1_555 1_555
C41A C40A 1_555 1_555
H30A C41A 1_555 1_555
C42A N6A 1_555 1_555
H31A C42A 1_555 1_555
C43A C36A 1_555 1_555
H32A C43A 1_555 1_555
C44A C39A 1_555 1_555
H33A C44A 1_555 1_555
C45A N7A 1_555 1_555
H34A C45A 1_555 1_555
C46A C45A 1_555 1_555
H35A C46A 1_555 1_555
C47A C46A 1_555 1_555
H36A C47A 1_555 1_555
C48A C47A 1_555 1_555
C49A N7A 1_555 1_555
C50A N8A 1_555 1_555
C51A C50A 1_555 1_555
C52A C51A 1_555 1_555
H37A C52A 1_555 1_555
C53A C52A 1_555 1_555
H38A C53A 1_555 1_555
C54A N8A 1_555 1_555
H39A C54A 1_555 1_555
C55A C48A 1_555 1_555
H40A C55A 1_555 1_555
C56A C51A 1_555 1_555
H41A C56A 1_555 1_555
H53A O18 1_555 1_555
O4 C2 1_555 1_555
C4 C5 1_555 1_555
C7 C8 1_555 1_555
C12 C13 1_555 1_555
C13 C14 1_555 1_555
C17 C18 1_555 1_555
C19 C20 1_555 1_555
C24 C25 1_555 1_555
C25 C26 1_555 1_555
C29 C30 1_555 1_555
C31 C32 1_555 1_555
C36 C37 1_555 1_555
C37 C38 1_555 1_555
C41 C42 1_555 1_555
C43 C44 1_555 1_555
C48 C49 1_555 1_555
C49 C50 1_555 1_555
C53 C54 1_555 1_555
C55 C56 1_555 1_555
C57 O17 1_555 1_555
C57 O9A 1_555 1_555
C58 C57A 1_555 1_555
C59 C58A 1_555 1_555
C60 C58A 1_555 1_555
C60 C60A 1_555 1_555
C60 O16A 1_555 1_555
C61 C60A 1_555 1_555
C63 C64 1_555 1_555
C64 O16A 1_555 1_555
O16 C57A 1_555 1_555
O16 C60A 1_555 1_555
O17 C58A 1_555 1_555
C68 C69 1_555 1_555
C69 C70 1_555 1_555
C73 C74 1_555 1_555
C75 C76 1_555 1_555
O8A Ca2A 1_555 1_555
O9A C58A 1_555 1_555
C57A C59A 1_555 1_555
C57A O17A 1_555 1_555
C58A C61A 1_555 1_555
C58A O16A 1_555 1_555
C59A C60A 1_555 1_555
C59A C64A 1_555 1_555
C60A C61A 1_555 1_555
C63A C64A 1_555 1_555
O17A Ca2A 1_555 1_555
O4A C2A 1_555 1_555
C4A C5A 1_555 1_555
C7A C8A 1_555 1_555
C12A C13A 1_555 1_555
C13A C14A 1_555 1_555
C17A C18A 1_555 1_555
C19A C20A 1_555 1_555
C24A C25A 1_555 1_555
C25A C26A 1_555 1_555
C29A C30A 1_555 1_555
C31A C32A 1_555 1_555
C36A C37A 1_555 1_555
C37A C38A 1_555 1_555
C41A C42A 1_555 1_555
C43A C44A 1_555 1_555
C48A C49A 1_555 1_555
C49A C50A 1_555 1_555
C53A C54A 1_555 1_555
C55A C56A 1_555 1_555

#END
