
#######################################################################
#
#                 Cambridge Crystallographic Data Centre
#                                CCDC 
#
#######################################################################
#
# If this CIF has been generated from an entry in the Cambridge 
# Structural Database, then it will include bibliographic, chemical, 
# crystal, experimental, refinement or atomic coordinate data resulting 
# from the CCDC's data processing and validation procedures.
#
#######################################################################

data_IYAQIJ
_chemical_formula_moiety         'C35 H30 Cl1 N1 O13 S1'
_chemical_name_systematic        
"2-(((8a-Chloro-8-oxo-9-(3,4,5-trimethoxyphenyl)-5,5a,6,8,8a,9-hexahydrofuro[3',4':6,7]naphtho[2,3-d][1,3]dioxol-5-yl)oxy)methyl)phenyl 3-nitrobenzenesulfonate"
_symmetry_cell_setting           orthorhombic
_symmetry_space_group_name_H-M   'P 21 21 21'
_symmetry_Int_Tables_number      19
_space_group_name_Hall           'P 2ac 2ab'
loop_
_symmetry_equiv_pos_site_id
_symmetry_equiv_pos_as_xyz
1 x,y,z
2 1/2-x,-y,1/2+z
3 -x,1/2+y,1/2-z
4 1/2+x,1/2-y,-z
_cell_length_a                   10.206(5)
_cell_length_b                   12.593(6)
_cell_length_c                   26.450(12)
_cell_angle_alpha                90
_cell_angle_beta                 90
_cell_angle_gamma                90
_cell_volume                     3399.46
_exptl_crystal_colour            colorless
_exptl_crystal_description       block
_cell_formula_units_Z            4
loop_
_atom_site_label
_atom_site_type_symbol
_atom_site_fract_x
_atom_site_fract_y
_atom_site_fract_z
C1 C 0.2384(3) 0.4146(3) 0.16987(12)
H1 H 0.2734 0.3662 0.1956
C2 C 0.1052(3) 0.3724(3) 0.15501(12)
H2 H 0.0795 0.4044 0.1227
C3 C 0.0018(3) 0.3991(2) 0.19460(12)
C4 C -0.1223(3) 0.3513(3) 0.18797(12)
H3 H -0.1383 0.3055 0.1611
C5 C -0.2170(3) 0.3743(3) 0.22212(12)
C6 C -0.1946(4) 0.4409(3) 0.26240(12)
C7 C -0.0781(3) 0.4887(3) 0.26949(12)
H4 H -0.0649 0.5340 0.2968
C8 C 0.0239(3) 0.4685(3) 0.23455(12)
C9 C 0.1557(3) 0.5230(3) 0.24338(11)
H5 H 0.1379 0.5971 0.2525
C10 C 0.2307(3) 0.5236(3) 0.19401(12)
C11 C -0.4009(4) 0.3838(4) 0.26678(15)
H6 H -0.4793 0.4236 0.2584
H7 H -0.4253 0.3271 0.2897
C12 C 0.3467(4) 0.4305(3) 0.13044(13)
H8 H 0.3915 0.3642 0.1234
H9 H 0.3111 0.4584 0.0991
C13 C 0.3727(4) 0.5609(3) 0.19101(14)
C14 C 0.2331(3) 0.4725(3) 0.28732(11)
C15 C 0.3110(3) 0.5376(3) 0.31672(12)
H10 H 0.3181 0.6095 0.3091
C16 C 0.3789(3) 0.4954(3) 0.35772(12)
C17 C 0.3686(3) 0.3885(3) 0.36964(12)
C18 C 0.2895(3) 0.3239(3) 0.34018(12)
C19 C 0.2221(3) 0.3654(3) 0.29874(12)
H11 H 0.1701 0.3214 0.2789
C20 C 0.4697(4) 0.6641(3) 0.37679(16)
H12 H 0.5134 0.6712 0.3448
H13 H 0.5202 0.6990 0.4025
H14 H 0.3844 0.6959 0.3748
C21 C 0.5434(4) 0.2890(4) 0.40408(17)
H15 H 0.5217 0.2269 0.3847
H16 H 0.5802 0.2680 0.4359
H17 H 0.6059 0.3310 0.3858
C22 C 0.2320(5) 0.1445(3) 0.32015(17)
H18 H 0.1411 0.1589 0.3140
H19 H 0.2412 0.0743 0.3339
H20 H 0.2797 0.1492 0.2890
C23 C 0.1564(3) 0.2215(3) 0.10282(12)
H21 H 0.2506 0.2125 0.1054
H22 H 0.1384 0.2721 0.0760
C24 C 0.0923(3) 0.1175(3) 0.09147(11)
C25 C 0.1586(4) 0.0211(3) 0.09717(13)
H23 H 0.2455 0.0209 0.1077
C26 C 0.0956(5) -0.0739(3) 0.08724(16)
H24 H 0.1409 -0.1376 0.0908
C27 C -0.0335(5) -0.0752(3) 0.07207(16)
H25 H -0.0749 -0.1395 0.0654
C28 C -0.1015(4) 0.0189(3) 0.06682(14)
H26 H -0.1891 0.0191 0.0571
C29 C -0.0365(3) 0.1119(3) 0.07628(11)
C30 C -0.1712(3) 0.3804(3) 0.02717(11)
C31 C -0.0551(4) 0.4357(3) 0.02066(12)
H27 H 0.0217 0.4008 0.0116
C32 C -0.0567(4) 0.5428(3) 0.02792(13)
C33 C -0.1695(5) 0.5979(3) 0.04054(15)
H28 H -0.1677 0.6710 0.0454
C34 C -0.2842(5) 0.5416(4) 0.04575(18)
H29 H -0.3612 0.5774 0.0537
C35 C -0.2871(4) 0.4322(4) 0.03939(14)
H30 H -0.3648 0.3945 0.0432
Cl1 Cl 0.14979(10) 0.61774(8) 0.15088(3)
N1 N 0.0684(4) 0.6021(3) 0.02405(11)
O1 O -0.3458(2) 0.3400(2) 0.22204(9)
O2 O -0.3087(3) 0.4514(2) 0.29041(9)
O3 O 0.4353(2) 0.5070(2) 0.15406(10)
O4 O 0.4270(3) 0.6286(2) 0.21573(10)
O5 O 0.4569(3) 0.5548(2) 0.38891(9)
O6 O 0.4281(3) 0.3499(2) 0.41263(9)
O7 O 0.2826(3) 0.2200(2) 0.35519(9)
O8 O 0.1044(2) 0.25922(17) 0.14975(7)
O9 O -0.1035(2) 0.21142(17) 0.07207(7)
O10 O -0.3029(2) 0.2047(2) 0.02024(10)
O11 O -0.0879(2) 0.21036(18) -0.02028(8)
O12 O 0.0651(3) 0.6991(2) 0.02701(12)
O13 O 0.1702(3) 0.5505(2) 0.01990(11)
S1 S -0.17142(8) 0.24184(7) 0.01996(3)
loop_
_geom_bond_atom_site_label_1
_geom_bond_atom_site_label_2
_geom_bond_site_symmetry_1
_geom_bond_site_symmetry_2
C1 H1 1_555 1_555
C2 C1 1_555 1_555
H2 C2 1_555 1_555
C3 C2 1_555 1_555
C4 C3 1_555 1_555
H3 C4 1_555 1_555
C5 C4 1_555 1_555
C6 C5 1_555 1_555
C7 C6 1_555 1_555
H4 C7 1_555 1_555
C8 C3 1_555 1_555
C9 C8 1_555 1_555
H5 C9 1_555 1_555
C10 C1 1_555 1_555
C11 H6 1_555 1_555
H7 C11 1_555 1_555
C12 C1 1_555 1_555
H8 C12 1_555 1_555
H9 C12 1_555 1_555
C13 C10 1_555 1_555
C14 C9 1_555 1_555
C15 C14 1_555 1_555
H10 C15 1_555 1_555
C16 C15 1_555 1_555
C17 C16 1_555 1_555
C18 C17 1_555 1_555
C19 C14 1_555 1_555
H11 C19 1_555 1_555
C20 H12 1_555 1_555
H13 C20 1_555 1_555
H14 C20 1_555 1_555
C21 H15 1_555 1_555
H16 C21 1_555 1_555
H17 C21 1_555 1_555
C22 H18 1_555 1_555
H19 C22 1_555 1_555
H20 C22 1_555 1_555
C23 H21 1_555 1_555
H22 C23 1_555 1_555
C24 C23 1_555 1_555
C25 C24 1_555 1_555
H23 C25 1_555 1_555
C26 C25 1_555 1_555
H24 C26 1_555 1_555
C27 C26 1_555 1_555
H25 C27 1_555 1_555
C28 C27 1_555 1_555
H26 C28 1_555 1_555
C29 C24 1_555 1_555
C30 C31 1_555 1_555
C31 H27 1_555 1_555
C32 C31 1_555 1_555
C33 C32 1_555 1_555
H28 C33 1_555 1_555
C34 C33 1_555 1_555
H29 C34 1_555 1_555
C35 C30 1_555 1_555
H30 C35 1_555 1_555
Cl1 C10 1_555 1_555
N1 C32 1_555 1_555
O1 C5 1_555 1_555
O2 C6 1_555 1_555
O3 C12 1_555 1_555
O4 C13 1_555 1_555
O5 C16 1_555 1_555
O6 C17 1_555 1_555
O7 C18 1_555 1_555
O8 C2 1_555 1_555
O9 C29 1_555 1_555
O10 S1 1_555 1_555
O11 S1 1_555 1_555
O12 N1 1_555 1_555
O13 N1 1_555 1_555
S1 C30 1_555 1_555
C7 C8 1_555 1_555
C9 C10 1_555 1_555
C11 O1 1_555 1_555
C11 O2 1_555 1_555
C13 O3 1_555 1_555
C18 C19 1_555 1_555
C20 O5 1_555 1_555
C21 O6 1_555 1_555
C22 O7 1_555 1_555
C23 O8 1_555 1_555
C28 C29 1_555 1_555
C34 C35 1_555 1_555
O9 S1 1_555 1_555

#END
