
#######################################################################
#
#                 Cambridge Crystallographic Data Centre
#                                CCDC 
#
#######################################################################
#
# If this CIF has been generated from an entry in the Cambridge 
# Structural Database, then it will include bibliographic, chemical, 
# crystal, experimental, refinement or atomic coordinate data resulting 
# from the CCDC's data processing and validation procedures.
#
#######################################################################

data_IYAWOU
_chemical_formula_moiety         'C13 H9 Cl4 O3 P1'
_chemical_name_systematic        
'2-(Dichloro(phenoxy)methyl)phenyl dichlorophosphonate'
_symmetry_cell_setting           orthorhombic
_symmetry_space_group_name_H-M   'P b c a'
_symmetry_Int_Tables_number      61
_space_group_name_Hall           '-P 2ac 2ab'
loop_
_symmetry_equiv_pos_site_id
_symmetry_equiv_pos_as_xyz
1 x,y,z
2 1/2+x,y,1/2-z
3 x,1/2-y,1/2+z
4 1/2-x,1/2+y,z
5 -x,-y,-z
6 1/2-x,-y,1/2+z
7 -x,1/2+y,1/2-z
8 1/2+x,1/2-y,-z
_cell_length_a                   13.9369(14)
_cell_length_b                   19.0631(17)
_cell_length_c                   23.503(2)
_cell_angle_alpha                90
_cell_angle_beta                 90
_cell_angle_gamma                90
_cell_volume                     6244.29
_exptl_crystal_colour            colorless
_exptl_crystal_description       block
_cell_formula_units_Z            16
_exptl_crystal_recrystallization_method 'hot n-hexane'
loop_
_atom_site_label
_atom_site_type_symbol
_atom_site_fract_x
_atom_site_fract_y
_atom_site_fract_z
Cl1 Cl 0.75390(3) 0.20300(2) 0.565583(19)
Cl2 Cl 0.58374(3) 0.11310(2) 0.617510(18)
Cl3 Cl 0.76534(3) 0.03643(2) 0.753757(15)
Cl4 Cl 0.75539(3) 0.18660(2) 0.731937(15)
O1 O 0.77363(7) 0.07959(6) 0.63294(4)
O2 O 0.71173(9) 0.06158(7) 0.52993(5)
O3 O 0.89223(7) 0.12658(6) 0.79330(4)
P1 P 0.71219(3) 0.10495(2) 0.580778(16)
C1 C 0.83809(10) 0.11411(8) 0.74506(6)
C2 C 0.90601(10) 0.10631(7) 0.69486(6)
C3 C 0.87363(10) 0.08939(8) 0.63990(6)
C4 C 0.93528(11) 0.08057(8) 0.59430(7)
H1 H 0.9117 0.0682 0.5587
C5 C 1.03367(11) 0.09057(9) 0.60279(7)
H2 H 1.0762 0.0853 0.5726
C6 C 1.06761(11) 0.10838(8) 0.65624(7)
H3 H 1.1330 0.1154 0.6616
C7 C 1.00495(11) 0.11593(8) 0.70205(6)
H4 H 1.0290 0.1275 0.7377
C8 C 0.84674(10) 0.13210(8) 0.84728(6)
C9 C 0.81731(12) 0.19689(8) 0.86650(7)
H5 H 0.8230 0.2364 0.8435
C10 C 0.77882(13) 0.20220(9) 0.92121(7)
H6 H 0.7580 0.2455 0.9347
C11 C 0.77150(12) 0.14327(9) 0.95554(7)
H7 H 0.7456 0.1471 0.9919
C12 C 0.80273(12) 0.07860(9) 0.93585(7)
H8 H 0.7982 0.0393 0.9591
C13 C 0.84102(11) 0.07248(8) 0.88115(6)
H9 H 0.8623 0.0293 0.8677
Cl5 Cl 0.31866(3) 0.89005(3) 0.879373(19)
Cl6 Cl 0.48112(3) 0.78728(2) 0.92338(2)
Cl7 Cl 0.48864(3) 0.80321(2) 0.764846(15)
Cl8 Cl 0.50452(3) 0.95255(2) 0.740510(16)
O4 O 0.51036(7) 0.91373(6) 0.86173(4)
O5 O 0.45603(9) 0.92689(7) 0.96723(5)
O6 O 0.62750(7) 0.85858(6) 0.70261(4)
P2 P 0.44854(3) 0.88836(2) 0.914111(17)
C14 C 0.57410(10) 0.87376(8) 0.75055(6)
C15 C 0.64161(10) 0.88144(7) 0.80095(6)
C16 C 0.60961(11) 0.90072(8) 0.85538(6)
C17 C 0.67109(11) 0.90830(8) 0.90112(7)
H10 H 0.6479 0.9229 0.9363
C18 C 0.76860(11) 0.89371(8) 0.89372(7)
H11 H 0.8107 0.8976 0.9242
C19 C 0.80236(11) 0.87336(8) 0.84074(7)
H12 H 0.8672 0.8632 0.8360
C20 C 0.73989(11) 0.86791(8) 0.79425(6)
H13 H 0.7637 0.8552 0.7587
C21 C 0.58138(10) 0.85411(8) 0.64894(6)
C22 C 0.57809(12) 0.91356(9) 0.61514(7)
H14 H 0.6018 0.9561 0.6285
C23 C 0.53869(13) 0.90861(9) 0.56075(7)
H15 H 0.5357 0.9482 0.5377
C24 C 0.50406(12) 0.84523(10) 0.54099(7)
H16 H 0.4774 0.8423 0.5048
C25 C 0.50903(12) 0.78612(10) 0.57510(7)
H17 H 0.4859 0.7435 0.5616
C26 C 0.54851(11) 0.79006(9) 0.62969(7)
H18 H 0.5525 0.7504 0.6526
loop_
_geom_bond_atom_site_label_1
_geom_bond_atom_site_label_2
_geom_bond_site_symmetry_1
_geom_bond_site_symmetry_2
Cl1 P1 1_555 1_555
Cl2 P1 1_555 1_555
Cl3 C1 1_555 1_555
Cl4 C1 1_555 1_555
Cl5 P2 1_555 1_555
Cl6 P2 1_555 1_555
Cl7 C14 1_555 1_555
Cl8 C14 1_555 1_555
O1 P1 1_555 1_555
O2 P1 1_555 1_555
O3 C1 1_555 1_555
O4 P2 1_555 1_555
O5 P2 1_555 1_555
O6 C14 1_555 1_555
C1 C2 1_555 1_555
C2 C3 1_555 1_555
C3 O1 1_555 1_555
C4 C3 1_555 1_555
H1 C4 1_555 1_555
C5 C4 1_555 1_555
H2 C5 1_555 1_555
C6 C5 1_555 1_555
H3 C6 1_555 1_555
C7 C2 1_555 1_555
H4 C7 1_555 1_555
C8 O3 1_555 1_555
C9 C8 1_555 1_555
H5 C9 1_555 1_555
C10 C9 1_555 1_555
H6 C10 1_555 1_555
C11 C10 1_555 1_555
H7 C11 1_555 1_555
C12 C11 1_555 1_555
H8 C12 1_555 1_555
C13 C8 1_555 1_555
H9 C13 1_555 1_555
C14 C15 1_555 1_555
C15 C16 1_555 1_555
C16 O4 1_555 1_555
C17 C16 1_555 1_555
H10 C17 1_555 1_555
C18 C17 1_555 1_555
H11 C18 1_555 1_555
C19 C18 1_555 1_555
H12 C19 1_555 1_555
C20 C15 1_555 1_555
H13 C20 1_555 1_555
C21 O6 1_555 1_555
C22 C21 1_555 1_555
H14 C22 1_555 1_555
C23 C22 1_555 1_555
H15 C23 1_555 1_555
C24 C23 1_555 1_555
H16 C24 1_555 1_555
C25 C24 1_555 1_555
H17 C25 1_555 1_555
C26 C21 1_555 1_555
H18 C26 1_555 1_555
C6 C7 1_555 1_555
C12 C13 1_555 1_555
C19 C20 1_555 1_555
C25 C26 1_555 1_555

#END
