
#######################################################################
#
#                 Cambridge Crystallographic Data Centre
#                                CCDC 
#
#######################################################################
#
# If this CIF has been generated from an entry in the Cambridge 
# Structural Database, then it will include bibliographic, chemical, 
# crystal, experimental, refinement or atomic coordinate data resulting 
# from the CCDC's data processing and validation procedures.
#
#######################################################################

data_IYAZOX
_chemical_formula_moiety         'C15 H14 Cl1 N3 O4'
_chemical_name_systematic        
'2-Chloro-3,4-dimethoxybenzaldehyde (4-nitrophenyl)hydrazone'
_symmetry_cell_setting           monoclinic
_symmetry_space_group_name_H-M   'C c'
_symmetry_Int_Tables_number      9
_space_group_name_Hall           'C -2yc'
loop_
_symmetry_equiv_pos_site_id
_symmetry_equiv_pos_as_xyz
1 x,y,z
2 x,-y,1/2+z
3 1/2+x,1/2+y,z
4 1/2+x,1/2-y,1/2+z
_cell_length_a                   16.4537(10)
_cell_length_b                   8.1471(11)
_cell_length_c                   14.5814(12)
_cell_angle_alpha                90
_cell_angle_beta                 127.535(12)
_cell_angle_gamma                90
_cell_volume                     1549.99
_exptl_crystal_colour            orange
_exptl_crystal_description       prism
_cell_formula_units_Z            4
_exptl_crystal_recrystallization_method chloroform
loop_
_atom_site_label
_atom_site_type_symbol
_atom_site_fract_x
_atom_site_fract_y
_atom_site_fract_z
Cl1 Cl 0.44637(4) -0.15401(4) 0.06247(4)
O1 O 0.25282(14) 1.03537(16) 0.25904(15)
O2 O 0.21685(14) 0.9005(2) 0.35659(16)
O3 O 0.51780(9) -0.12816(13) -0.07655(10)
O4 O 0.58736(11) 0.13857(15) -0.11383(11)
N1 N 0.37370(12) 0.32405(16) 0.22007(12)
H1 H 0.3710 0.2343 0.2492
N2 N 0.41001(10) 0.32317(17) 0.15747(11)
N3 N 0.24760(12) 0.90589(19) 0.29913(14)
C1 C 0.34147(11) 0.46878(17) 0.23651(12)
C2 C 0.30626(13) 0.46636(19) 0.30309(14)
H2 H 0.3040 0.3680 0.3338
C3 C 0.27514(13) 0.6095(2) 0.32298(14)
H3 H 0.2515 0.6087 0.3669
C4 C 0.27940(12) 0.75507(18) 0.27698(14)
C5 C 0.31223(13) 0.75866(18) 0.20969(14)
H4 H 0.3137 0.8574 0.1788
C6 C 0.34274(12) 0.6164(2) 0.18844(13)
H5 H 0.3641 0.6181 0.1423
C7 C 0.44234(13) 0.18549(19) 0.14934(14)
H6 H 0.4401 0.0925 0.1847
C8 C 0.48302(11) 0.17545(17) 0.08373(12)
C9 C 0.48798(11) 0.02651(17) 0.04006(12)
C10 C 0.52255(11) 0.01684(18) -0.02598(11)
C11 C 0.55561(12) 0.16007(18) -0.04752(13)
C12 C 0.55324(12) 0.30851(19) -0.00285(14)
H7 H 0.5762 0.4036 -0.0158
C13 C 0.51669(12) 0.31525(18) 0.06104(13)
H8 H 0.5146 0.4159 0.0896
C14 C 0.61375(17) -0.2116(3) -0.0206(2)
H9 H 0.6036 -0.3115 -0.0613
H10 H 0.6410 -0.2366 0.0577
H11 H 0.6610 -0.1425 -0.0206
C15 C 0.62752(15) 0.2793(3) -0.13279(17)
H12 H 0.6468 0.2492 -0.1808
H13 H 0.6865 0.3194 -0.0599
H14 H 0.5761 0.3635 -0.1704
loop_
_geom_bond_atom_site_label_1
_geom_bond_atom_site_label_2
_geom_bond_site_symmetry_1
_geom_bond_site_symmetry_2
Cl1 C9 1_555 1_555
O1 N3 1_555 1_555
O2 N3 1_555 1_555
O3 C10 1_555 1_555
O4 C11 1_555 1_555
N1 H1 1_555 1_555
N2 N1 1_555 1_555
N3 C4 1_555 1_555
C1 N1 1_555 1_555
C2 C1 1_555 1_555
H2 C2 1_555 1_555
C3 C2 1_555 1_555
H3 C3 1_555 1_555
C4 C3 1_555 1_555
C5 C4 1_555 1_555
H4 C5 1_555 1_555
C6 C1 1_555 1_555
H5 C6 1_555 1_555
C7 N2 1_555 1_555
H6 C7 1_555 1_555
C8 C7 1_555 1_555
C9 C8 1_555 1_555
C10 C9 1_555 1_555
C11 C10 1_555 1_555
C12 C11 1_555 1_555
H7 C12 1_555 1_555
C13 C8 1_555 1_555
H8 C13 1_555 1_555
C14 O3 1_555 1_555
H9 C14 1_555 1_555
H10 C14 1_555 1_555
H11 C14 1_555 1_555
C15 O4 1_555 1_555
H12 C15 1_555 1_555
H13 C15 1_555 1_555
H14 C15 1_555 1_555
C5 C6 1_555 1_555
C12 C13 1_555 1_555

#END
