
#######################################################################
#
#                 Cambridge Crystallographic Data Centre
#                                CCDC 
#
#######################################################################
#
# If this CIF has been generated from an entry in the Cambridge 
# Structural Database, then it will include bibliographic, chemical, 
# crystal, experimental, refinement or atomic coordinate data resulting 
# from the CCDC's data processing and validation procedures.
#
#######################################################################

data_IYIWOC
_chemical_name_common            
(1R*,3aR*,9bR*)-1-isopropyl-6-methoxy-3a,8-dimethyl-2,3,3a,9b-tetrahydro-1H-cyclopenta(a)naphthalene-4,5-dione
_chemical_formula_moiety         'C19 H24 O3'
_chemical_name_systematic        
(1R*,3aR*,9bR*)-1-isopropyl-6-methoxy-3a,8-dimethyl-2,3,3a,4,5,9b-hexahydro-1H-benz(e)inden-4,5-dione
_symmetry_cell_setting           monoclinic
_symmetry_space_group_name_H-M   'P 21/n'
_symmetry_Int_Tables_number      14
_space_group_name_Hall           '-P 2yn'
loop_
_symmetry_equiv_pos_site_id
_symmetry_equiv_pos_as_xyz
1 x,y,z
2 1/2-x,1/2+y,1/2-z
3 -x,-y,-z
4 1/2+x,1/2-y,1/2+z
_cell_length_a                   18.1712(18)
_cell_length_b                   10.1261(10)
_cell_length_c                   18.5239(19)
_cell_angle_alpha                90
_cell_angle_beta                 103.557(2)
_cell_angle_gamma                90
_cell_volume                     3313.49
_cell_formula_units_Z            8
loop_
_atom_site_label
_atom_site_type_symbol
_atom_site_fract_x
_atom_site_fract_y
_atom_site_fract_z
O1 O 0.10671(6) 0.10804(12) 0.08826(7)
O2 O 0.25073(7) 0.14827(13) 0.08232(7)
O3 O 0.38935(7) 0.04577(14) 0.11073(7)
C1 C 0.13261(9) 0.03781(16) 0.15122(9)
C2 C 0.08526(9) -0.01046(16) 0.19411(9)
C3 C 0.11391(9) -0.08827(16) 0.25625(9)
C4 C 0.19120(9) -0.11432(16) 0.27640(9)
C5 C 0.24008(9) -0.06571(16) 0.23526(9)
C6 C 0.21169(9) 0.01094(16) 0.17138(9)
C7 C 0.26422(9) 0.06101(17) 0.12811(9)
C8 C 0.34556(9) -0.00015(17) 0.14375(9)
C9 C 0.36448(9) -0.11454(17) 0.19754(9)
C10 C 0.32372(9) -0.09259(16) 0.26071(9)
C11 C 0.37065(9) 0.02073(17) 0.30501(9)
C12 C 0.45319(10) -0.0173(2) 0.30493(10)
C13 C 0.44856(10) -0.11183(19) 0.23907(10)
C14 C 0.02712(10) 0.1352(2) 0.06680(10)
C15 C 0.06087(10) -0.1443(2) 0.29974(11)
C16 C 0.34134(11) -0.24146(18) 0.15288(11)
C17 C 0.35434(9) 0.05409(17) 0.38057(9)
C18 C 0.39639(12) 0.1790(2) 0.41222(11)
C19 C 0.37102(12) -0.0565(2) 0.43803(10)
H1 H 0.0328 0.0099 0.1809
H2 H 0.2110 -0.1665 0.3192
H3 H 0.3308 -0.1733 0.2927
H4 H 0.3586 0.1019 0.2737
H5 H 0.4828 0.0623 0.2990
H6 H 0.4779 -0.0614 0.3521
H7 H 0.4660 -0.2013 0.2568
H8 H 0.4804 -0.0794 0.2061
H9 H 0.0155 0.1820 0.0192
H10 H 0.0126 0.1901 0.1048
H11 H -0.0011 0.0519 0.0618
H12 H 0.0896 -0.1974 0.3410
H13 H 0.0230 -0.1999 0.2672
H14 H 0.0354 -0.0719 0.3193
H15 H 0.2871 -0.2385 0.1295
H16 H 0.3520 -0.3179 0.1862
H17 H 0.3701 -0.2492 0.1145
H18 H 0.2990 0.0739 0.3715
H19 H 0.3855 0.2494 0.3750
H20 H 0.4509 0.1615 0.4255
H21 H 0.3798 0.2064 0.4566
H22 H 0.3434 -0.1363 0.4174
H23 H 0.3549 -0.0294 0.4827
H24 H 0.4255 -0.0750 0.4508
O4 O 0.86885(8) 0.09794(15) 0.42858(7)
O5 O 0.91128(9) 0.04117(19) 0.30584(9)
O6 O 0.90494(8) 0.10696(16) 0.16582(8)
C20 C 0.80528(10) 0.15519(18) 0.38699(10)
C21 C 0.74788(10) 0.20337(18) 0.41718(10)
C22 C 0.68356(10) 0.25908(17) 0.37179(10)
C23 C 0.67877(9) 0.27067(17) 0.29594(9)
C24 C 0.73605(9) 0.22489(16) 0.26437(9)
C25 C 0.80051(9) 0.16440(17) 0.30982(9)
C26 C 0.86058(10) 0.11443(19) 0.27596(10)
C27 C 0.85887(9) 0.15630(18) 0.19510(10)
C28 C 0.80277(10) 0.25939(18) 0.15831(10)
C29 C 0.72778(9) 0.23760(17) 0.18174(9)
C30 C 0.69344(9) 0.11553(18) 0.13581(9)
C31 C 0.72180(11) 0.1244(2) 0.06322(11)
C32 C 0.77912(11) 0.2378(2) 0.07426(11)
C33 C 0.87870(14) 0.0982(3) 0.50747(11)
C34 C 0.61975(11) 0.3048(2) 0.40491(11)
C35 C 0.83944(11) 0.39392(19) 0.18115(12)
C36 C 0.60746(9) 0.09836(18) 0.12447(10)
C37 C 0.58188(11) -0.0334(2) 0.08787(11)
C38 C 0.56107(11) 0.2103(2) 0.08117(12)
H25 H 0.7524 0.1983 0.4693
H26 H 0.6353 0.3108 0.2651
H27 H 0.6942 0.3149 0.1640
H28 H 0.7177 0.0359 0.1633
H29 H 0.7461 0.0405 0.0542
H30 H 0.6790 0.1425 0.0203
H31 H 0.8234 0.2138 0.0544
H32 H 0.7557 0.3186 0.0488
H33 H 0.9287 0.0624 0.5309
H34 H 0.8394 0.0436 0.5209
H35 H 0.8747 0.1889 0.5247
H36 H 0.6404 0.3379 0.4553
H37 H 0.5856 0.2306 0.4068
H38 H 0.5917 0.3755 0.3742
H39 H 0.8517 0.4016 0.2354
H40 H 0.8042 0.4643 0.1594
H41 H 0.8859 0.4019 0.1633
H42 H 0.5964 0.0968 0.1748
H43 H 0.5272 -0.0434 0.0825
H44 H 0.6085 -0.1052 0.1187
H45 H 0.5934 -0.0365 0.0388
H46 H 0.5071 0.1942 0.0775
H47 H 0.5704 0.2146 0.0312
H48 H 0.5759 0.2941 0.1069
loop_
_geom_bond_atom_site_label_1
_geom_bond_atom_site_label_2
_geom_bond_site_symmetry_1
_geom_bond_site_symmetry_2
O1 C1 1_555 1_555
O2 C7 1_555 1_555
O3 C8 1_555 1_555
C1 C2 1_555 1_555
C2 C3 1_555 1_555
C3 C4 1_555 1_555
C4 C5 1_555 1_555
C5 C6 1_555 1_555
C6 C1 1_555 1_555
C7 C6 1_555 1_555
C8 C7 1_555 1_555
C9 C8 1_555 1_555
C10 C5 1_555 1_555
C11 C10 1_555 1_555
C12 C11 1_555 1_555
C13 C9 1_555 1_555
C14 O1 1_555 1_555
C15 C3 1_555 1_555
C16 C9 1_555 1_555
C17 C11 1_555 1_555
C18 C17 1_555 1_555
C19 C17 1_555 1_555
H1 C2 1_555 1_555
H2 C4 1_555 1_555
H3 C10 1_555 1_555
H4 C11 1_555 1_555
H5 C12 1_555 1_555
H6 C12 1_555 1_555
H7 C13 1_555 1_555
H8 C13 1_555 1_555
H9 C14 1_555 1_555
H10 C14 1_555 1_555
H11 C14 1_555 1_555
H12 C15 1_555 1_555
H13 C15 1_555 1_555
H14 C15 1_555 1_555
H15 C16 1_555 1_555
H16 C16 1_555 1_555
H17 C16 1_555 1_555
H18 C17 1_555 1_555
H19 C18 1_555 1_555
H20 C18 1_555 1_555
H21 C18 1_555 1_555
H22 C19 1_555 1_555
H23 C19 1_555 1_555
H24 C19 1_555 1_555
O4 C20 1_555 1_555
O5 C26 1_555 1_555
O6 C27 1_555 1_555
C20 C21 1_555 1_555
C21 C22 1_555 1_555
C22 C23 1_555 1_555
C23 C24 1_555 1_555
C24 C25 1_555 1_555
C25 C20 1_555 1_555
C26 C25 1_555 1_555
C27 C26 1_555 1_555
C28 C27 1_555 1_555
C29 C24 1_555 1_555
C30 C29 1_555 1_555
C31 C30 1_555 1_555
C32 C28 1_555 1_555
C33 O4 1_555 1_555
C34 C22 1_555 1_555
C35 C28 1_555 1_555
C36 C30 1_555 1_555
C37 C36 1_555 1_555
C38 C36 1_555 1_555
H25 C21 1_555 1_555
H26 C23 1_555 1_555
H27 C29 1_555 1_555
H28 C30 1_555 1_555
H29 C31 1_555 1_555
H30 C31 1_555 1_555
H31 C32 1_555 1_555
H32 C32 1_555 1_555
H33 C33 1_555 1_555
H34 C33 1_555 1_555
H35 C33 1_555 1_555
H36 C34 1_555 1_555
H37 C34 1_555 1_555
H38 C34 1_555 1_555
H39 C35 1_555 1_555
H40 C35 1_555 1_555
H41 C35 1_555 1_555
H42 C36 1_555 1_555
H43 C37 1_555 1_555
H44 C37 1_555 1_555
H45 C37 1_555 1_555
H46 C38 1_555 1_555
H47 C38 1_555 1_555
H48 C38 1_555 1_555
C9 C10 1_555 1_555
C12 C13 1_555 1_555
C28 C29 1_555 1_555
C31 C32 1_555 1_555

#END
