
#######################################################################
#
#                 Cambridge Crystallographic Data Centre
#                                CCDC 
#
#######################################################################
#
# If this CIF has been generated from an entry in the Cambridge 
# Structural Database, then it will include bibliographic, chemical, 
# crystal, experimental, refinement or atomic coordinate data resulting 
# from the CCDC's data processing and validation procedures.
#
#######################################################################

data_IYIXUL
_chemical_formula_moiety         'C31 H27 N2 1+,Br1 1-'
_chemical_name_systematic        
'2-ethyl-1,3-bis(2-naphthylmethyl)-1H-benzimidazol-3-ium bromide'
_chemical_properties_biological  'in vitro anti-tumor activity investigated'
_symmetry_cell_setting           triclinic
_symmetry_space_group_name_H-M   'P -1'
_symmetry_Int_Tables_number      2
_space_group_name_Hall           '-P 1'
loop_
_symmetry_equiv_pos_site_id
_symmetry_equiv_pos_as_xyz
1 x,y,z
2 -x,-y,-z
_cell_length_a                   9.5820(10)
_cell_length_b                   10.1627(11)
_cell_length_c                   14.0507(15)
_cell_angle_alpha                79.7760(10)
_cell_angle_beta                 89.5660(10)
_cell_angle_gamma                64.9650(10)
_cell_volume                     1216.51
_exptl_crystal_colour            colorless
_exptl_crystal_description       block
_cell_formula_units_Z            2
loop_
_atom_site_label
_atom_site_type_symbol
_atom_site_fract_x
_atom_site_fract_y
_atom_site_fract_z
Br1 Br 0.764200(14) 0.358624(14) 0.007442(9)
N1 N 0.28711(13) 0.03563(12) 0.09246(8)
N2 N 0.42839(13) 0.14807(12) 0.12166(8)
C1 C 0.28459(15) 0.16812(15) 0.09670(9)
C2 C 0.43845(15) -0.07381(15) 0.11535(9)
C3 C 0.50409(16) -0.22602(15) 0.11765(10)
H1 H 0.4455 -0.2742 0.1032
C4 C 0.66181(17) -0.30135(15) 0.14273(10)
H2 H 0.7102 -0.4030 0.1453
C5 C 0.75061(16) -0.22860(16) 0.16433(10)
H3 H 0.8556 -0.2838 0.1819
C6 C 0.68610(16) -0.07721(15) 0.16023(10)
H4 H 0.7449 -0.0287 0.1736
C7 C 0.52764(15) -0.00172(14) 0.13489(9)
C8 C 0.15228(15) 0.00358(15) 0.07667(10)
H5 H 0.1810 -0.0749 0.0397
H6 H 0.0688 0.0911 0.0397
C9 C 0.09810(15) -0.04284(15) 0.17304(10)
C10 C 0.14747(16) -0.18978(15) 0.21424(10)
H7 H 0.2079 -0.2618 0.1799
C11 C 0.10785(16) -0.23353(15) 0.30822(10)
C12 C 0.16068(17) -0.38458(16) 0.35303(11)
H8 H 0.2188 -0.4579 0.3190
C13 C 0.12714(18) -0.42366(17) 0.44581(11)
H9 H 0.1627 -0.5231 0.4744
C14 C 0.03874(18) -0.31336(18) 0.49815(11)
H10 H 0.0173 -0.3406 0.5613
C15 C -0.01571(18) -0.16639(17) 0.45650(11)
H11 H -0.0743 -0.0948 0.4916
C16 C 0.01641(16) -0.12240(16) 0.36045(11)
C17 C -0.03986(17) 0.02857(16) 0.31420(11)
H12 H -0.1040 0.1020 0.3463
C18 C -0.00105(16) 0.06739(16) 0.22314(11)
H13 H -0.0398 0.1667 0.1937
C19 C 0.47709(16) 0.26318(14) 0.13420(10)
H14 H 0.4011 0.3584 0.1000
H15 H 0.5746 0.2437 0.1055
C20 C 0.49566(15) 0.27041(14) 0.23974(10)
C21 C 0.43372(16) 0.20789(15) 0.31227(10)
H16 H 0.3809 0.1548 0.2973
C22 C 0.44848(16) 0.22238(15) 0.40984(10)
C23 C 0.37803(18) 0.16464(16) 0.48461(11)
H17 H 0.3202 0.1159 0.4699
C24 C 0.3942(2) 0.17976(18) 0.57819(12)
H18 H 0.3454 0.1435 0.6263
C25 C 0.4844(2) 0.25002(19) 0.60178(12)
H19 H 0.4977 0.2570 0.6659
C26 C 0.5530(2) 0.30836(19) 0.53120(12)
H20 H 0.6119 0.3550 0.5478
C27 C 0.53489(17) 0.29808(16) 0.43297(11)
C28 C 0.59815(17) 0.36215(17) 0.35638(11)
H21 H 0.6538 0.4132 0.3703
C29 C 0.57833(16) 0.34978(15) 0.26263(11)
H22 H 0.6193 0.3937 0.2135
C30 C 0.14817(15) 0.31427(15) 0.07512(10)
H23 H 0.0638 0.3020 0.0464
H24 H 0.1735 0.3808 0.0274
C31 C 0.09299(17) 0.38649(16) 0.16370(11)
H25 H 0.0815 0.3164 0.2150
H26 H -0.0046 0.4711 0.1464
H27 H 0.1675 0.4171 0.1851
loop_
_geom_bond_atom_site_label_1
_geom_bond_atom_site_label_2
_geom_bond_site_symmetry_1
_geom_bond_site_symmetry_2
N1 C1 1_555 1_555
N2 C1 1_555 1_555
C1 C30 1_555 1_555
C2 N1 1_555 1_555
C3 C2 1_555 1_555
H1 C3 1_555 1_555
C4 C3 1_555 1_555
H2 C4 1_555 1_555
C5 C4 1_555 1_555
H3 C5 1_555 1_555
C6 C5 1_555 1_555
H4 C6 1_555 1_555
C7 N2 1_555 1_555
C8 N1 1_555 1_555
H5 C8 1_555 1_555
H6 C8 1_555 1_555
C9 C8 1_555 1_555
C10 C9 1_555 1_555
H7 C10 1_555 1_555
C11 C10 1_555 1_555
C12 C11 1_555 1_555
H8 C12 1_555 1_555
C13 C12 1_555 1_555
H9 C13 1_555 1_555
C14 C13 1_555 1_555
H10 C14 1_555 1_555
C15 C14 1_555 1_555
H11 C15 1_555 1_555
C16 C11 1_555 1_555
C17 C16 1_555 1_555
H12 C17 1_555 1_555
C18 C9 1_555 1_555
H13 C18 1_555 1_555
C19 N2 1_555 1_555
H14 C19 1_555 1_555
H15 C19 1_555 1_555
C20 C19 1_555 1_555
C21 C20 1_555 1_555
H16 C21 1_555 1_555
C22 C21 1_555 1_555
C23 C22 1_555 1_555
H17 C23 1_555 1_555
C24 C23 1_555 1_555
H18 C24 1_555 1_555
C25 C24 1_555 1_555
H19 C25 1_555 1_555
C26 C25 1_555 1_555
H20 C26 1_555 1_555
C27 C22 1_555 1_555
C28 C27 1_555 1_555
H21 C28 1_555 1_555
C29 C20 1_555 1_555
H22 C29 1_555 1_555
C30 H23 1_555 1_555
H24 C30 1_555 1_555
C31 C30 1_555 1_555
H25 C31 1_555 1_555
H26 C31 1_555 1_555
H27 C31 1_555 1_555
C2 C7 1_555 1_555
C6 C7 1_555 1_555
C15 C16 1_555 1_555
C17 C18 1_555 1_555
C26 C27 1_555 1_555
C28 C29 1_555 1_555

#END
