
#######################################################################
#
#                 Cambridge Crystallographic Data Centre
#                                CCDC 
#
#######################################################################
#
# If this CIF has been generated from an entry in the Cambridge 
# Structural Database, then it will include bibliographic, chemical, 
# crystal, experimental, refinement or atomic coordinate data resulting 
# from the CCDC's data processing and validation procedures.
#
#######################################################################

data_IYIXEU
_chemical_compound_source        'Flueggea virosa'
_chemical_name_common            'flueggines B sesquihydrate'
_chemical_formula_moiety         'C24 H28 N2 O5,1.5(H2 O1)'
_chemical_name_systematic        
'7-(14-Hydroxy-11-oxo-12-oxa-6-azatetracyclo[5.5.2.0^1,9^.0^2,6^]tetradec-9-en-10-yl)-2-oxa-9-azatetracyclo[6.5.1.0^1,5^.0^9,13^]tetradec-4-en-3-one sesquihydrate'
_chemical_properties_biological  'Inhibitory activity'
_symmetry_cell_setting           triclinic
_symmetry_space_group_name_H-M   'P 1'
_symmetry_Int_Tables_number      1
_space_group_name_Hall           'P 1'
loop_
_symmetry_equiv_pos_site_id
_symmetry_equiv_pos_as_xyz
1 x,y,z
_cell_length_a                   7.4783(6)
_cell_length_b                   11.5713(8)
_cell_length_c                   13.3812(9)
_cell_angle_alpha                107.895(6)
_cell_angle_beta                 90.072(6)
_cell_angle_gamma                93.959(6)
_cell_volume                     1098.97
_exptl_crystal_colour            colorless
_exptl_crystal_description       block
_cell_formula_units_Z            2
loop_
_atom_site_label
_atom_site_type_symbol
_atom_site_fract_x
_atom_site_fract_y
_atom_site_fract_z
O1 O 0.2853(3) 0.4283(2) 0.06060(19)
N1 N -0.1891(3) 0.1223(2) 0.2309(2)
C1 C -0.0324(4) 0.1350(3) 0.1628(3)
H1 H -0.0618 0.0897 0.0891
C2 C 0.1242(4) 0.0813(3) 0.2011(3)
H2 H 0.1998 0.1442 0.2512
H3 H 0.1962 0.0386 0.1430
C3 C 0.0323(4) -0.0063(3) 0.2530(3)
H4 H -0.0095 -0.0825 0.2013
H5 H 0.1120 -0.0228 0.3035
C4 C -0.1237(4) 0.0636(3) 0.3070(3)
H6 H -0.2172 0.0089 0.3215
H7 H -0.0843 0.1242 0.3726
C5 C -0.2447(4) 0.2478(3) 0.2838(2)
H8 H -0.2870 0.2541 0.3545
C6 C -0.0709(4) 0.3288(3) 0.2906(2)
H9 H 0.0145 0.3191 0.3415
H10 H -0.0932 0.4140 0.3062
C7 C -0.0114(4) 0.2732(3) 0.1772(2)
O2 O 0.1666(3) 0.31536(19) 0.15748(17)
C8 C 0.1539(4) 0.3793(3) 0.0864(2)
C9 C -0.0348(4) 0.3735(3) 0.0552(3)
H11 H -0.0791 0.4085 0.0071
C10 C -0.1328(4) 0.3107(3) 0.1059(2)
C11 C -0.3289(4) 0.2762(3) 0.1075(2)
H12 H -0.3549 0.1943 0.0605
H13 H -0.3957 0.3308 0.0820
C12 C -0.3918(4) 0.2820(3) 0.2191(2)
H14 H -0.4928 0.2208 0.2105
O3 O -0.6439(3) 0.32163(19) 0.39628(17)
O4 O -0.5912(3) 0.8621(2) 0.2906(2)
H15 H -0.5731 0.8942 0.2445
N2 N -0.3043(3) 0.7651(2) 0.3769(2)
C13 C -0.4078(4) 0.6952(3) 0.4387(3)
H16 H -0.4790 0.7514 0.4907
C14 C -0.2684(4) 0.6472(3) 0.4964(3)
H17 H -0.3090 0.6478 0.5653
H18 H -0.2421 0.5650 0.4566
C15 C -0.1049(5) 0.7366(3) 0.5048(3)
H19 H -0.1141 0.8100 0.5635
H20 H 0.0049 0.7000 0.5127
C16 C -0.1119(4) 0.7635(3) 0.4009(3)
H21 H -0.0492 0.8416 0.4069
H22 H -0.0575 0.7008 0.3463
C17 C -0.3535(4) 0.7201(3) 0.2646(3)
H23 H -0.2820 0.7673 0.2274
C18 C -0.5533(4) 0.7381(3) 0.2523(3)
H24 H -0.5887 0.7060 0.1778
C19 C -0.6643(4) 0.6662(3) 0.3141(3)
H25 H -0.7291 0.7214 0.3692
H26 H -0.7507 0.6080 0.2674
C20 C -0.5353(4) 0.5996(3) 0.3619(2)
O5 O -0.6284(3) 0.52167(18) 0.41376(17)
C21 C -0.5829(4) 0.4054(3) 0.3675(2)
C22 C -0.4576(4) 0.4023(3) 0.2805(2)
C23 C -0.4314(4) 0.5168(3) 0.2773(2)
C24 C -0.3263(4) 0.5832(3) 0.2142(3)
H27 H -0.3691 0.5558 0.1417
H28 H -0.2003 0.5688 0.2159
O6 O -0.2658(3) 0.3825(2) 0.54444(18)
O7 O 0.6510(3) 0.5103(2) 0.94970(17)
O8 O 0.6748(3) -0.0149(2) 0.5525(2)
H29 H 0.6443 -0.0507 0.4913
N3 N 0.1866(3) 0.6973(2) 0.8858(2)
C25 C 0.0415(4) 0.6837(3) 0.8035(3)
H30 H 0.0800 0.7277 0.7544
C26 C -0.1230(4) 0.7383(3) 0.8627(3)
H31 H -0.1854 0.7832 0.8246
H32 H -0.2056 0.6755 0.8742
C27 C -0.0430(5) 0.8230(3) 0.9663(3)
H33 H -0.1315 0.8390 1.0209
H34 H 0.0059 0.8996 0.9587
C28 C 0.1046(4) 0.7498(3) 0.9899(3)
H35 H 0.1921 0.8020 1.0403
H36 H 0.0552 0.6861 1.0172
C29 C 0.2458(4) 0.5726(3) 0.8719(2)
H37 H 0.2845 0.5650 0.9394
C30 C 0.0755(4) 0.4907(3) 0.8304(2)
H38 H 0.1003 0.4058 0.8010
H39 H -0.0140 0.4987 0.8840
C31 C 0.0207(4) 0.5451(3) 0.7462(2)
O9 O -0.1549(3) 0.50192(19) 0.70082(16)
C32 C -0.1369(4) 0.4350(3) 0.5974(3)
C33 C 0.0531(4) 0.4416(3) 0.5713(3)
H40 H 0.1006 0.4060 0.5057
C34 C 0.1460(4) 0.5072(3) 0.6571(2)
C35 C 0.3399(4) 0.5460(3) 0.6807(3)
H41 H 0.3630 0.6281 0.6771
H42 H 0.4112 0.4928 0.6280
C36 C 0.3982(4) 0.5425(3) 0.7912(2)
H43 H 0.4957 0.6060 0.8169
N4 N 0.3646(4) 0.0528(2) 0.6838(2)
C37 C 0.4452(4) 0.1282(3) 0.7875(3)
H44 H 0.5210 0.0774 0.8137
C38 C 0.2887(5) 0.1610(3) 0.8609(3)
H45 H 0.2451 0.2381 0.8609
H46 H 0.3224 0.1657 0.9321
C39 C 0.1489(5) 0.0561(4) 0.8141(3)
H47 H 0.1737 -0.0149 0.8344
H48 H 0.0293 0.0790 0.8357
C40 C 0.1690(5) 0.0326(4) 0.6985(3)
H49 H 0.1261 -0.0502 0.6600
H50 H 0.1023 0.0883 0.6743
C41 C 0.4087(5) 0.1056(3) 0.5979(3)
H51 H 0.3461 0.0560 0.5329
C42 C 0.6128(4) 0.1041(3) 0.5826(3)
H52 H 0.6468 0.1439 0.5297
C43 C 0.7064(4) 0.1755(3) 0.6887(3)
H53 H 0.7735 0.1213 0.7145
H54 H 0.7895 0.2395 0.6796
C44 C 0.5649(4) 0.2307(3) 0.7673(3)
O10 O 0.6456(3) 0.31030(19) 0.86367(17)
C45 C 0.5937(4) 0.4256(3) 0.8767(3)
C46 C 0.4704(4) 0.4240(3) 0.7904(3)
C47 C 0.4544(4) 0.3095(3) 0.7252(2)
C48 C 0.3591(4) 0.2395(3) 0.6238(3)
H55 H 0.3970 0.2726 0.5682
H56 H 0.2305 0.2440 0.6310
O11 O -0.4536(4) 0.9409(3) 0.1307(2)
H57 H -0.368(7) 1.008(5) 0.156(4)
H58 H -0.457(7) 0.928(5) 0.066(5)
O12 O 0.4606(4) 0.8851(3) 0.9161(2)
H59 H 0.372(7) 0.828(5) 0.904(4)
H60 H 0.505(7) 0.875(5) 0.852(4)
O13 O 0.5303(6) 0.8485(3) 0.7012(2)
H61 H 0.463(8) 0.902(6) 0.681(5)
H62 H 0.660(8) 0.861(5) 0.667(5)
loop_
_geom_bond_atom_site_label_1
_geom_bond_atom_site_label_2
_geom_bond_site_symmetry_1
_geom_bond_site_symmetry_2
O1 C8 1_555 1_555
N1 C1 1_555 1_555
C1 H1 1_555 1_555
C2 C1 1_555 1_555
H2 C2 1_555 1_555
H3 C2 1_555 1_555
C3 C2 1_555 1_555
H4 C3 1_555 1_555
H5 C3 1_555 1_555
C4 N1 1_555 1_555
H6 C4 1_555 1_555
H7 C4 1_555 1_555
C5 N1 1_555 1_555
H8 C5 1_555 1_555
C6 C5 1_555 1_555
H9 C6 1_555 1_555
H10 C6 1_555 1_555
C7 C1 1_555 1_555
O2 C7 1_555 1_555
C8 O2 1_555 1_555
C9 C8 1_555 1_555
H11 C9 1_555 1_555
C10 C7 1_555 1_555
C11 C10 1_555 1_555
H12 C11 1_555 1_555
H13 C11 1_555 1_555
C12 C5 1_555 1_555
H14 C12 1_555 1_555
O3 C21 1_555 1_555
O4 H15 1_555 1_555
N2 C13 1_555 1_555
C13 H16 1_555 1_555
C14 C13 1_555 1_555
H17 C14 1_555 1_555
H18 C14 1_555 1_555
C15 C14 1_555 1_555
H19 C15 1_555 1_555
H20 C15 1_555 1_555
C16 N2 1_555 1_555
H21 C16 1_555 1_555
H22 C16 1_555 1_555
C17 N2 1_555 1_555
H23 C17 1_555 1_555
C18 O4 1_555 1_555
H24 C18 1_555 1_555
C19 C18 1_555 1_555
H25 C19 1_555 1_555
H26 C19 1_555 1_555
C20 C13 1_555 1_555
O5 C20 1_555 1_555
C21 O5 1_555 1_555
C22 C12 1_555 1_555
C23 C20 1_555 1_555
C24 C17 1_555 1_555
H27 C24 1_555 1_555
H28 C24 1_555 1_555
O6 C32 1_555 1_555
O7 C45 1_555 1_555
O8 H29 1_555 1_555
N3 C25 1_555 1_555
C25 H30 1_555 1_555
C26 C25 1_555 1_555
H31 C26 1_555 1_555
H32 C26 1_555 1_555
C27 C26 1_555 1_555
H33 C27 1_555 1_555
H34 C27 1_555 1_555
C28 N3 1_555 1_555
H35 C28 1_555 1_555
H36 C28 1_555 1_555
C29 N3 1_555 1_555
H37 C29 1_555 1_555
C30 C29 1_555 1_555
H38 C30 1_555 1_555
H39 C30 1_555 1_555
C31 C25 1_555 1_555
O9 C31 1_555 1_555
C32 O9 1_555 1_555
C33 C32 1_555 1_555
H40 C33 1_555 1_555
C34 C31 1_555 1_555
C35 C34 1_555 1_555
H41 C35 1_555 1_555
H42 C35 1_555 1_555
C36 C29 1_555 1_555
H43 C36 1_555 1_555
N4 C37 1_555 1_555
C37 H44 1_555 1_555
C38 C37 1_555 1_555
H45 C38 1_555 1_555
H46 C38 1_555 1_555
C39 C38 1_555 1_555
H47 C39 1_555 1_555
H48 C39 1_555 1_555
C40 N4 1_555 1_555
H49 C40 1_555 1_555
H50 C40 1_555 1_555
C41 N4 1_555 1_555
H51 C41 1_555 1_555
C42 O8 1_555 1_555
H52 C42 1_555 1_555
C43 C42 1_555 1_555
H53 C43 1_555 1_555
H54 C43 1_555 1_555
C44 C37 1_555 1_555
O10 C44 1_555 1_555
C45 O10 1_555 1_555
C46 C36 1_555 1_555
C47 C44 1_555 1_555
C48 C41 1_555 1_555
H55 C48 1_555 1_555
H56 C48 1_555 1_555
O11 H57 1_555 1_555
H58 O11 1_555 1_555
O12 H59 1_555 1_555
H60 O12 1_555 1_555
O13 H61 1_555 1_555
H62 O13 1_555 1_555
C3 C4 1_555 1_555
C6 C7 1_555 1_555
C9 C10 1_555 1_555
C11 C12 1_555 1_555
C15 C16 1_555 1_555
C17 C18 1_555 1_555
C19 C20 1_555 1_555
C21 C22 1_555 1_555
C22 C23 1_555 1_555
C23 C24 1_555 1_555
C27 C28 1_555 1_555
C30 C31 1_555 1_555
C33 C34 1_555 1_555
C35 C36 1_555 1_555
C39 C40 1_555 1_555
C41 C42 1_555 1_555
C43 C44 1_555 1_555
C45 C46 1_555 1_555
C46 C47 1_555 1_555
C47 C48 1_555 1_555

#END
