
#######################################################################
#
#                 Cambridge Crystallographic Data Centre
#                                CCDC 
#
#######################################################################
#
# If this CIF has been generated from an entry in the Cambridge 
# Structural Database, then it will include bibliographic, chemical, 
# crystal, experimental, refinement or atomic coordinate data resulting 
# from the CCDC's data processing and validation procedures.
#
#######################################################################

data_IYIYAS
_chemical_formula_moiety         'C33 H31 N2 1+,Br1 1-'
_chemical_name_systematic        
'2-butyl-1,3-bis(2-naphthylmethyl)-1H-benzimidazol-3-ium bromide'
_chemical_properties_biological  'anti-tumour activity'
_symmetry_cell_setting           monoclinic
_symmetry_space_group_name_H-M   'P 21/c'
_symmetry_Int_Tables_number      14
_space_group_name_Hall           '-P 2ybc'
loop_
_symmetry_equiv_pos_site_id
_symmetry_equiv_pos_as_xyz
1 x,y,z
2 -x,1/2+y,1/2-z
3 -x,-y,-z
4 x,1/2-y,1/2+z
_cell_length_a                   27.1716(10)
_cell_length_b                   9.7618(3)
_cell_length_c                   19.4068(7)
_cell_angle_alpha                90
_cell_angle_beta                 92.1326(17)
_cell_angle_gamma                90
_cell_volume                     5143.97
_exptl_crystal_colour            colorless
_exptl_crystal_description       plate
_chemical_melting_point          '266-268 deg.C'
_cell_formula_units_Z            8
loop_
_atom_site_label
_atom_site_type_symbol
_atom_site_fract_x
_atom_site_fract_y
_atom_site_fract_z
Br1 Br -0.00115(2) 0.46728(6) 0.14385(3)
Br2 Br 0.48845(2) 0.46704(7) 0.36080(3)
N1 N 0.06674(17) 0.8504(5) 0.0643(2)
N2 N 0.05483(16) 1.0350(5) 0.1246(2)
C1 C 0.0596(2) 0.8986(6) 0.1282(3)
C2 C 0.0557(2) 0.8127(6) 0.1904(3)
H1 H 0.0357 0.7307 0.1784
H2 H 0.0382 0.8649 0.2257
C3 C 0.1061(2) 0.7660(6) 0.2214(3)
H3 H 0.1255 0.7233 0.1848
H4 H 0.1246 0.8467 0.2391
C4 C 0.1001(2) 0.6646(7) 0.2791(3)
H5 H 0.0822 0.5831 0.2610
H6 H 0.0801 0.7067 0.3151
C5 C 0.1495(2) 0.6200(7) 0.3112(3)
H7 H 0.1697 0.5799 0.2755
H8 H 0.1442 0.5516 0.3472
H9 H 0.1666 0.6996 0.3316
C6 C 0.06500(19) 0.9600(6) 0.0184(3)
C7 C 0.0672(2) 0.9632(7) -0.0529(3)
H10 H 0.0717 0.8821 -0.0789
C8 C 0.0627(2) 1.0898(6) -0.0841(3)
H11 H 0.0645 1.0962 -0.1328
C9 C 0.0554(2) 1.2098(6) -0.0455(3)
H12 H 0.0526 1.2953 -0.0688
C10 C 0.0522(2) 1.2063(6) 0.0251(3)
H13 H 0.0465 1.2866 0.0514
C11 C 0.0578(2) 1.0778(6) 0.0559(3)
C12 C 0.0721(2) 0.7059(6) 0.0421(3)
H14 H 0.0467 0.6848 0.0058
H15 H 0.0668 0.6446 0.0818
C13 C 0.1227(2) 0.6787(6) 0.0145(3)
C14 C 0.1661(2) 0.7079(6) 0.0492(3)
H16 H 0.1650 0.7533 0.0924
C15 C 0.2124(2) 0.6734(6) 0.0235(3)
C16 C 0.2572(2) 0.6979(7) 0.0603(3)
H17 H 0.2568 0.7392 0.1046
C17 C 0.3013(2) 0.6637(7) 0.0335(3)
H18 H 0.3310 0.6809 0.0593
C18 C 0.3027(2) 0.6021(6) -0.0328(3)
H19 H 0.3334 0.5797 -0.0518
C19 C 0.2601(2) 0.5758(6) -0.0687(3)
H20 H 0.2614 0.5339 -0.1128
C20 C 0.2139(2) 0.6087(6) -0.0424(3)
C21 C 0.1686(2) 0.5834(6) -0.0787(3)
H21 H 0.1690 0.5440 -0.1234
C22 C 0.1243(2) 0.6139(6) -0.0511(3)
H22 H 0.0945 0.5917 -0.0758
C23 C 0.0477(2) 1.1301(6) 0.1840(3)
H23 H 0.0300 1.0814 0.2203
H24 H 0.0271 1.2085 0.1682
C24 C 0.0959(2) 1.1829(6) 0.2140(3)
C25 C 0.1266(2) 1.2652(6) 0.1773(3)
H25 H 0.1168 1.2901 0.1315
C26 C 0.1715(2) 1.3135(6) 0.2050(3)
C27 C 0.2041(2) 1.3967(7) 0.1675(3)
H26 H 0.1949 1.4240 0.1219
C28 C 0.2486(2) 1.4381(7) 0.1960(4)
H27 H 0.2698 1.4943 0.1703
C29 C 0.2626(2) 1.3970(7) 0.2634(3)
H28 H 0.2938 1.4240 0.2824
C30 C 0.2327(2) 1.3201(6) 0.3018(3)
H29 H 0.2431 1.2938 0.3471
C31 C 0.1858(2) 1.2783(6) 0.2746(3)
C32 C 0.1529(2) 1.2002(6) 0.3131(3)
H30 H 0.1608 1.1804 0.3601
C33 C 0.1093(2) 1.1522(6) 0.2833(3)
H31 H 0.0880 1.0978 0.3098
N3 N 0.43643(16) 0.3561(5) 0.0602(2)
N4 N 0.44493(17) 0.5426(5) 0.1222(2)
C34 C 0.4423(2) 0.4042(6) 0.1248(3)
C35 C 0.4457(2) 0.3161(6) 0.1872(3)
H32 H 0.4640 0.3662 0.2243
H33 H 0.4648 0.2329 0.1766
C36 C 0.3955(2) 0.2730(6) 0.2135(3)
H34 H 0.3754 0.2324 0.1752
H35 H 0.3780 0.3546 0.2304
C37 C 0.4020(2) 0.1679(7) 0.2722(3)
H36 H 0.4136 0.0802 0.2532
H37 H 0.4274 0.2013 0.3060
C38 C 0.3544(2) 0.1436(7) 0.3086(3)
H38 H 0.3473 0.2231 0.3375
H39 H 0.3578 0.0617 0.3377
H40 H 0.3275 0.1303 0.2744
C39 C 0.43686(19) 0.4652(6) 0.0140(3)
C40 C 0.43426(19) 0.4652(6) -0.0576(3)
H41 H 0.4300 0.3835 -0.0837
C41 C 0.4383(2) 0.5925(6) -0.0884(3)
H42 H 0.4375 0.5980 -0.1373
C42 C 0.4436(2) 0.7127(6) -0.0503(3)
H43 H 0.4453 0.7979 -0.0737
C43 C 0.4463(2) 0.7104(6) 0.0214(3)
H44 H 0.4506 0.7921 0.0476
C44 C 0.4425(2) 0.5838(6) 0.0529(3)
C45 C 0.4330(2) 0.2127(6) 0.0375(3)
H45 H 0.4439 0.1525 0.0762
H46 H 0.4557 0.1982 -0.0006
C46 C 0.3817(2) 0.1713(6) 0.0134(3)
C47 C 0.3400(2) 0.2442(6) 0.0230(3)
H47 H 0.3428 0.3326 0.0432
C48 C 0.2928(2) 0.1936(6) 0.0041(3)
C49 C 0.2491(2) 0.2663(7) 0.0154(3)
H48 H 0.2509 0.3567 0.0335
C50 C 0.2041(2) 0.2085(8) 0.0008(3)
H49 H 0.1750 0.2587 0.0093
C51 C 0.2005(2) 0.0764(7) -0.0265(3)
H50 H 0.1690 0.0366 -0.0355
C52 C 0.2418(2) 0.0044(7) -0.0403(3)
H51 H 0.2388 -0.0844 -0.0600
C53 C 0.2892(2) 0.0596(6) -0.0258(3)
C54 C 0.3333(2) -0.0115(6) -0.0379(3)
H52 H 0.3315 -0.0985 -0.0598
C55 C 0.3779(2) 0.0399(6) -0.0194(3)
H53 H 0.4068 -0.0109 -0.0281
C56 C 0.4513(2) 0.6390(6) 0.1816(3)
H54 H 0.4735 0.7145 0.1687
H55 H 0.4671 0.5899 0.2212
C57 C 0.4031(2) 0.6985(6) 0.2032(3)
C58 C 0.3825(2) 0.8096(6) 0.1691(3)
H56 H 0.4002 0.8524 0.1337
C59 C 0.3357(2) 0.8617(6) 0.1853(3)
C60 C 0.3133(2) 0.9727(7) 0.1491(3)
H57 H 0.3306 1.0169 0.1138
C61 C 0.2672(2) 1.0173(6) 0.1639(3)
H58 H 0.2527 1.0920 0.1392
C62 C 0.2413(2) 0.9521(6) 0.2160(3)
H59 H 0.2089 0.9813 0.2254
C63 C 0.2621(2) 0.8480(6) 0.2530(3)
H60 H 0.2442 0.8059 0.2884
C64 C 0.3101(2) 0.8012(6) 0.2394(3)
C65 C 0.3336(2) 0.6929(6) 0.2769(3)
H61 H 0.3175 0.6531 0.3146
C66 C 0.3786(2) 0.6449(6) 0.2601(3)
H62 H 0.3937 0.5742 0.2871
loop_
_geom_bond_atom_site_label_1
_geom_bond_atom_site_label_2
_geom_bond_site_symmetry_1
_geom_bond_site_symmetry_2
N1 C1 1_555 1_555
N2 C1 1_555 1_555
C1 C2 1_555 1_555
C2 H1 1_555 1_555
H2 C2 1_555 1_555
C3 C2 1_555 1_555
H3 C3 1_555 1_555
H4 C3 1_555 1_555
C4 C3 1_555 1_555
H5 C4 1_555 1_555
H6 C4 1_555 1_555
C5 C4 1_555 1_555
H7 C5 1_555 1_555
H8 C5 1_555 1_555
H9 C5 1_555 1_555
C6 N1 1_555 1_555
C7 C6 1_555 1_555
H10 C7 1_555 1_555
C8 C7 1_555 1_555
H11 C8 1_555 1_555
C9 C8 1_555 1_555
H12 C9 1_555 1_555
C10 C9 1_555 1_555
H13 C10 1_555 1_555
C11 N2 1_555 1_555
C12 N1 1_555 1_555
H14 C12 1_555 1_555
H15 C12 1_555 1_555
C13 C12 1_555 1_555
C14 C13 1_555 1_555
H16 C14 1_555 1_555
C15 C14 1_555 1_555
C16 C15 1_555 1_555
H17 C16 1_555 1_555
C17 C16 1_555 1_555
H18 C17 1_555 1_555
C18 C17 1_555 1_555
H19 C18 1_555 1_555
C19 C18 1_555 1_555
H20 C19 1_555 1_555
C20 C15 1_555 1_555
C21 C20 1_555 1_555
H21 C21 1_555 1_555
C22 C13 1_555 1_555
H22 C22 1_555 1_555
C23 N2 1_555 1_555
H23 C23 1_555 1_555
H24 C23 1_555 1_555
C24 C23 1_555 1_555
C25 C24 1_555 1_555
H25 C25 1_555 1_555
C26 C25 1_555 1_555
C27 C26 1_555 1_555
H26 C27 1_555 1_555
C28 C27 1_555 1_555
H27 C28 1_555 1_555
C29 C28 1_555 1_555
H28 C29 1_555 1_555
C30 C29 1_555 1_555
H29 C30 1_555 1_555
C31 C26 1_555 1_555
C32 C31 1_555 1_555
H30 C32 1_555 1_555
C33 C24 1_555 1_555
H31 C33 1_555 1_555
N3 C34 1_555 1_555
N4 C34 1_555 1_555
C34 C35 1_555 1_555
C35 H32 1_555 1_555
H33 C35 1_555 1_555
C36 C35 1_555 1_555
H34 C36 1_555 1_555
H35 C36 1_555 1_555
C37 C36 1_555 1_555
H36 C37 1_555 1_555
H37 C37 1_555 1_555
C38 C37 1_555 1_555
H38 C38 1_555 1_555
H39 C38 1_555 1_555
H40 C38 1_555 1_555
C39 N3 1_555 1_555
C40 C39 1_555 1_555
H41 C40 1_555 1_555
C41 C40 1_555 1_555
H42 C41 1_555 1_555
C42 C41 1_555 1_555
H43 C42 1_555 1_555
C43 C42 1_555 1_555
H44 C43 1_555 1_555
C44 N4 1_555 1_555
C45 N3 1_555 1_555
H45 C45 1_555 1_555
H46 C45 1_555 1_555
C46 C45 1_555 1_555
C47 C46 1_555 1_555
H47 C47 1_555 1_555
C48 C47 1_555 1_555
C49 C48 1_555 1_555
H48 C49 1_555 1_555
C50 C49 1_555 1_555
H49 C50 1_555 1_555
C51 C50 1_555 1_555
H50 C51 1_555 1_555
C52 C51 1_555 1_555
H51 C52 1_555 1_555
C53 C48 1_555 1_555
C54 C53 1_555 1_555
H52 C54 1_555 1_555
C55 C46 1_555 1_555
H53 C55 1_555 1_555
C56 N4 1_555 1_555
H54 C56 1_555 1_555
H55 C56 1_555 1_555
C57 C56 1_555 1_555
C58 C57 1_555 1_555
H56 C58 1_555 1_555
C59 C58 1_555 1_555
C60 C59 1_555 1_555
H57 C60 1_555 1_555
C61 C60 1_555 1_555
H58 C61 1_555 1_555
C62 C61 1_555 1_555
H59 C62 1_555 1_555
C63 C62 1_555 1_555
H60 C63 1_555 1_555
C64 C59 1_555 1_555
C65 C64 1_555 1_555
H61 C65 1_555 1_555
C66 C57 1_555 1_555
H62 C66 1_555 1_555
C6 C11 1_555 1_555
C10 C11 1_555 1_555
C19 C20 1_555 1_555
C21 C22 1_555 1_555
C30 C31 1_555 1_555
C32 C33 1_555 1_555
C39 C44 1_555 1_555
C43 C44 1_555 1_555
C52 C53 1_555 1_555
C54 C55 1_555 1_555
C63 C64 1_555 1_555
C65 C66 1_555 1_555

#END
