
#######################################################################
#
#                 Cambridge Crystallographic Data Centre
#                                CCDC 
#
#######################################################################
#
# If this CIF has been generated from an entry in the Cambridge 
# Structural Database, then it will include bibliographic, chemical, 
# crystal, experimental, refinement or atomic coordinate data resulting 
# from the CCDC's data processing and validation procedures.
#
#######################################################################

data_IYIYUK
_chemical_formula_moiety         'C9 H5 F1 N2 O2'
_chemical_name_systematic        8-Fluoro-6-nitroquinoline
_symmetry_cell_setting           triclinic
_symmetry_space_group_name_H-M   'P -1'
_symmetry_Int_Tables_number      2
_space_group_name_Hall           '-P 1'
loop_
_symmetry_equiv_pos_site_id
_symmetry_equiv_pos_as_xyz
1 x,y,z
2 -x,-y,-z
_cell_length_a                   8.790(3)
_cell_length_b                   9.748(3)
_cell_length_c                   10.395(3)
_cell_angle_alpha                86.21(1)
_cell_angle_beta                 65.30(1)
_cell_angle_gamma                77.07(1)
_cell_volume                     788.308
_exptl_crystal_colour            'pale yellow'
_exptl_crystal_description       'rhombic plate'
_cell_formula_units_Z            4
loop_
_atom_site_label
_atom_site_type_symbol
_atom_site_fract_x
_atom_site_fract_y
_atom_site_fract_z
F1 F 0.24943(13) 0.28374(12) 0.92670(11)
O1 O 0.83139(16) 0.02468(15) 0.40766(13)
O2 O 0.5814(2) 0.1266(2) 0.42650(16)
N1 N 0.46201(17) 0.20511(14) 1.05635(13)
N2 N 0.68347(18) 0.08455(15) 0.47746(14)
C1 C 0.5720(2) 0.16381(17) 1.11456(16)
H1 H 0.5343 0.1878 1.2116
C2 C 0.7411(2) 0.08681(18) 1.04256(17)
H2 H 0.8115 0.0601 1.0900
C3 C 0.80104(19) 0.05168(17) 0.90203(16)
H3 H 0.9146 -0.0004 0.8518
C4 C 0.74095(19) 0.06604(15) 0.68789(15)
H4 H 0.8515 0.0175 0.6326
C5 C 0.62556(19) 0.11086(16) 0.63003(15)
C6 C 0.4554(2) 0.18486(17) 0.70787(16)
H5 H 0.3777 0.2136 0.6649
C7 C 0.40812(19) 0.21320(16) 0.84805(16)
C8 C 0.52070(18) 0.17066(15) 0.91618(14)
C9 C 0.68950(18) 0.09490(15) 0.83334(15)
F4 F 0.25627(12) 0.23786(11) 0.43670(10)
N3 N 0.04085(16) 0.32682(14) 0.70518(13)
O3 O -0.08920(19) 0.31171(18) 0.15989(13)
O4 O -0.33222(18) 0.44280(18) 0.29274(15)
N4 N -0.18874(18) 0.37316(15) 0.27165(14)
C10 C -0.0690(2) 0.37666(17) 0.83342(16)
H6 H -0.0285 0.3674 0.9056
C11 C -0.2424(2) 0.44272(17) 0.87033(16)
H7 H -0.3127 0.4766 0.9623
C12 C -0.30581(19) 0.45646(16) 0.76973(16)
H8 H -0.4220 0.5005 0.7926
C13 C -0.24832(19) 0.41453(16) 0.51875(15)
H9 H -0.3607 0.4565 0.5348
C14 C -0.13199(19) 0.36215(15) 0.38702(15)
C15 C 0.04130(19) 0.29951(15) 0.35497(15)
H10 H 0.1192 0.2648 0.2623
C16 C 0.09145(18) 0.29123(15) 0.46330(15)
C17 C -0.02186(18) 0.34038(14) 0.60395(15)
C18 C -0.19459(18) 0.40363(15) 0.63009(15)
F2? F 0.839(2) 0.0397(19) 1.1048(19)
F3? F 0.890(2) 0.0150(19) 0.6061(19)
F5? F -0.3391(19) 0.4824(16) 0.9979(16)
F6? F -0.397(3) 0.471(2) 0.535(2)
loop_
_geom_bond_atom_site_label_1
_geom_bond_atom_site_label_2
_geom_bond_site_symmetry_1
_geom_bond_site_symmetry_2
F1 C7 1_555 1_555
O1 N2 1_555 1_555
O2 N2 1_555 1_555
N1 C1 1_555 1_555
N2 C5 1_555 1_555
C1 H1 1_555 1_555
C2 C1 1_555 1_555
H2 C2 1_555 1_555
C3 C2 1_555 1_555
H3 C3 1_555 1_555
C4 H4 1_555 1_555
C5 C4 1_555 1_555
C6 C5 1_555 1_555
H5 C6 1_555 1_555
C7 C6 1_555 1_555
C8 N1 1_555 1_555
C9 C3 1_555 1_555
F4 C16 1_555 1_555
N3 C10 1_555 1_555
O3 N4 1_555 1_555
O4 N4 1_555 1_555
N4 C14 1_555 1_555
C10 H6 1_555 1_555
C11 C10 1_555 1_555
H7 C11 1_555 1_555
C12 C11 1_555 1_555
H8 C12 1_555 1_555
C13 H9 1_555 1_555
C14 C13 1_555 1_555
C15 C14 1_555 1_555
H10 C15 1_555 1_555
C16 C15 1_555 1_555
C17 N3 1_555 1_555
C18 C12 1_555 1_555
C4 C9 1_555 1_555
C7 C8 1_555 1_555
C8 C9 1_555 1_555
C13 C18 1_555 1_555
C16 C17 1_555 1_555
C17 C18 1_555 1_555

#END
