
#######################################################################
#
#                 Cambridge Crystallographic Data Centre
#                                CCDC 
#
#######################################################################
#
# If this CIF has been generated from an entry in the Cambridge 
# Structural Database, then it will include bibliographic, chemical, 
# crystal, experimental, refinement or atomic coordinate data resulting 
# from the CCDC's data processing and validation procedures.
#
#######################################################################

data_IYOPOC
_chemical_formula_moiety         'C18 H11 Cl1 N2'
_chemical_name_systematic        7-Chloro-8,8'-biquinoline
_symmetry_cell_setting           monoclinic
_symmetry_space_group_name_H-M   'P 21/c'
_symmetry_Int_Tables_number      14
_space_group_name_Hall           '-P 2ybc'
loop_
_symmetry_equiv_pos_site_id
_symmetry_equiv_pos_as_xyz
1 x,y,z
2 -x,1/2+y,1/2-z
3 -x,-y,-z
4 x,1/2-y,1/2+z
_cell_length_a                   10.9585(14)
_cell_length_b                   8.8553(12)
_cell_length_c                   15.429(2)
_cell_angle_alpha                90
_cell_angle_beta                 109.564(2)
_cell_angle_gamma                90
_cell_volume                     1410.8
_exptl_crystal_colour            colorless
_exptl_crystal_description       block
_chemical_melting_point          '184-185 deg.C'
_cell_formula_units_Z            4
loop_
_atom_site_label
_atom_site_type_symbol
_atom_site_fract_x
_atom_site_fract_y
_atom_site_fract_z
Cl1 Cl 0.36652(7) 0.59245(8) 1.11826(5)
N1 N 0.1939(2) 1.0561(3) 0.92198(15)
N2 N 0.2810(2) 0.6865(3) 0.85931(14)
C1 C 0.2049(3) 1.1981(3) 0.9024(2)
H1 H 0.1394 1.2399 0.8509
C2 C 0.3074(3) 1.2931(3) 0.9526(2)
H2 H 0.3101 1.3957 0.9352
C3 C 0.4020(2) 1.2350(3) 1.02603(19)
H3 H 0.4723 1.2967 1.0607
C4 C 0.3957(2) 1.0837(3) 1.05061(17)
C5 C 0.2878(2) 0.9969(3) 0.99605(16)
C6 C 0.2762(2) 0.8417(3) 1.01644(16)
C7 C 0.3728(2) 0.7808(3) 1.08965(17)
C8 C 0.4809(2) 0.8659(3) 1.14404(16)
H4 H 0.5460 0.8193 1.1938
C9 C 0.4912(2) 1.0134(3) 1.12495(16)
H5 H 0.5634 1.0703 1.1619
C10 C 0.2865(3) 0.6134(4) 0.78689(19)
H6 H 0.3644 0.6199 0.7728
C11 C 0.1847(3) 0.5257(4) 0.72851(19)
H7 H 0.1942 0.4758 0.6766
C12 C 0.0731(3) 0.5140(3) 0.74764(18)
H8 H 0.0034 0.4549 0.7094
C13 C 0.0611(2) 0.5901(3) 0.82491(17)
C14 C 0.1690(2) 0.6760(3) 0.87961(16)
C15 C 0.1623(2) 0.7522(3) 0.95862(17)
C16 C 0.0507(3) 0.7446(3) 0.9795(2)
H9 H 0.0451 0.7974 1.0316
C17 C -0.0560(3) 0.6600(4) 0.9251(2)
H10 H -0.1324 0.6559 0.9411
C18 C -0.0512(3) 0.5843(3) 0.8500(2)
H11 H -0.1238 0.5269 0.8142
loop_
_geom_bond_atom_site_label_1
_geom_bond_atom_site_label_2
_geom_bond_site_symmetry_1
_geom_bond_site_symmetry_2
Cl1 C7 1_555 1_555
N1 C1 1_555 1_555
N2 C10 1_555 1_555
C1 H1 1_555 1_555
C2 C1 1_555 1_555
H2 C2 1_555 1_555
C3 C2 1_555 1_555
H3 C3 1_555 1_555
C4 C3 1_555 1_555
C5 N1 1_555 1_555
C6 C5 1_555 1_555
C7 C6 1_555 1_555
C8 C7 1_555 1_555
H4 C8 1_555 1_555
C9 C4 1_555 1_555
H5 C9 1_555 1_555
C10 H6 1_555 1_555
C11 C10 1_555 1_555
H7 C11 1_555 1_555
C12 C11 1_555 1_555
H8 C12 1_555 1_555
C13 C12 1_555 1_555
C14 N2 1_555 1_555
C15 C6 1_555 1_555
C16 C15 1_555 1_555
H9 C16 1_555 1_555
C17 C16 1_555 1_555
H10 C17 1_555 1_555
C18 C13 1_555 1_555
H11 C18 1_555 1_555
C4 C5 1_555 1_555
C8 C9 1_555 1_555
C13 C14 1_555 1_555
C14 C15 1_555 1_555
C17 C18 1_555 1_555

#END
