
#######################################################################
#
#                 Cambridge Crystallographic Data Centre
#                                CCDC 
#
#######################################################################
#
# If this CIF has been generated from an entry in the Cambridge 
# Structural Database, then it will include bibliographic, chemical, 
# crystal, experimental, refinement or atomic coordinate data resulting 
# from the CCDC's data processing and validation procedures.
#
#######################################################################

data_IZANII
_chemical_formula_moiety         'C13 H14 O2'
_chemical_name_systematic        
3a-methyl-3a,4,9,9a-tetrahydronaphtho[2,3-b]furan-2(3H)-one
_symmetry_cell_setting           monoclinic
_symmetry_space_group_name_H-M   'P 21/n'
_symmetry_Int_Tables_number      14
_space_group_name_Hall           '-P 2yn'
loop_
_symmetry_equiv_pos_site_id
_symmetry_equiv_pos_as_xyz
1 x,y,z
2 1/2-x,1/2+y,1/2-z
3 -x,-y,-z
4 1/2+x,1/2-y,1/2+z
_cell_length_a                   6.8052(4)
_cell_length_b                   10.2396(8)
_cell_length_c                   15.2160(9)
_cell_angle_alpha                90
_cell_angle_beta                 100.317(6)
_cell_angle_gamma                90
_cell_volume                     1043.15
_exptl_crystal_colour            colorless
_exptl_crystal_description       block
_cell_formula_units_Z            4
loop_
_atom_site_label
_atom_site_type_symbol
_atom_site_fract_x
_atom_site_fract_y
_atom_site_fract_z
O1 O 0.4758(2) 0.34395(14) 0.51333(9)
O2 O 0.1931(2) 0.23360(18) 0.47036(12)
C1 C 0.3428(3) 0.2487(2) 0.52471(15)
C2 C 0.4153(3) 0.1759(2) 0.61011(14)
H1 H 0.3937 0.0827 0.6022
H2 H 0.3493 0.2064 0.6577
C3 C 0.6380(3) 0.2086(2) 0.62939(12)
C4 C 0.7447(3) 0.2163(2) 0.72635(13)
H3 H 0.6577 0.2574 0.7622
H4 H 0.7750 0.1289 0.7493
C5 C 0.9367(3) 0.2942(2) 0.73401(12)
C6 C 1.0844(3) 0.2800(2) 0.80979(13)
H5 H 1.0651 0.2203 0.8535
C7 C 1.2586(3) 0.3522(3) 0.82168(15)
H6 H 1.3561 0.3395 0.8722
C8 C 1.2871(3) 0.4426(2) 0.75875(15)
H7 H 1.4025 0.4931 0.7671
C9 C 1.1441(3) 0.4582(2) 0.68314(14)
H8 H 1.1648 0.5195 0.6406
C10 C 0.9697(3) 0.3846(2) 0.66874(12)
C11 C 0.8229(3) 0.4024(2) 0.58170(13)
H9 H 0.8097 0.4944 0.5664
H10 H 0.8700 0.3567 0.5337
C12 C 0.6262(3) 0.3485(2) 0.59437(13)
H11 H 0.5751 0.4037 0.6378
C13 C 0.7489(3) 0.1163(2) 0.57608(14)
H12 H 0.6887 0.1199 0.5141
H13 H 0.7412 0.0287 0.5977
H14 H 0.8863 0.1423 0.5830
loop_
_geom_bond_atom_site_label_1
_geom_bond_atom_site_label_2
_geom_bond_site_symmetry_1
_geom_bond_site_symmetry_2
O1 C1 1_555 1_555
O2 C1 1_555 1_555
C1 C2 1_555 1_555
C2 H1 1_555 1_555
H2 C2 1_555 1_555
C3 C2 1_555 1_555
C4 C3 1_555 1_555
H3 C4 1_555 1_555
H4 C4 1_555 1_555
C5 C4 1_555 1_555
C6 C5 1_555 1_555
H5 C6 1_555 1_555
C7 C6 1_555 1_555
H6 C7 1_555 1_555
C8 C7 1_555 1_555
H7 C8 1_555 1_555
C9 C8 1_555 1_555
H8 C9 1_555 1_555
C10 C5 1_555 1_555
C11 C10 1_555 1_555
H9 C11 1_555 1_555
H10 C11 1_555 1_555
C12 O1 1_555 1_555
H11 C12 1_555 1_555
C13 C3 1_555 1_555
H12 C13 1_555 1_555
H13 C13 1_555 1_555
H14 C13 1_555 1_555
C3 C12 1_555 1_555
C9 C10 1_555 1_555
C11 C12 1_555 1_555

#END
