
#######################################################################
#
#                 Cambridge Crystallographic Data Centre
#                                CCDC 
#
#######################################################################
#
# If this CIF has been generated from an entry in the Cambridge 
# Structural Database, then it will include bibliographic, chemical, 
# crystal, experimental, refinement or atomic coordinate data resulting 
# from the CCDC's data processing and validation procedures.
#
#######################################################################

data_IZATEJ01
_chemical_formula_moiety         'C16 H11 N3'
_chemical_name_systematic        1-(pyridin-2-yl)-9H-\b-carboline
_symmetry_cell_setting           monoclinic
_symmetry_space_group_name_H-M   'P 21/c'
_symmetry_Int_Tables_number      14
_space_group_name_Hall           '-P 2ybc'
loop_
_symmetry_equiv_pos_site_id
_symmetry_equiv_pos_as_xyz
1 x,y,z
2 -x,1/2+y,1/2-z
3 -x,-y,-z
4 x,1/2-y,1/2+z
_cell_length_a                   15.0061(8)
_cell_length_b                   9.8063(4)
_cell_length_c                   16.2587(8)
_cell_angle_alpha                90
_cell_angle_beta                 98.838(5)
_cell_angle_gamma                90
_cell_volume                     2364.13
_exptl_crystal_colour            colorless
_exptl_crystal_description       block
_cell_formula_units_Z            8
loop_
_atom_site_label
_atom_site_type_symbol
_atom_site_fract_x
_atom_site_fract_y
_atom_site_fract_z
N1 N 1.07288(9) 0.64162(14) 0.43069(8)
N2 N 0.82999(9) 0.65089(14) 0.44908(8)
H1 H 0.799255 0.588987 0.419855
N3 N 0.87493(9) 0.45138(14) 0.34343(8)
C1 C 0.98596(11) 0.60298(16) 0.41555(9)
C2 C 0.79555(11) 0.74558(16) 0.49866(9)
C3 C 0.92135(10) 0.67148(16) 0.45393(9)
C4 C 0.86629(11) 0.82874(16) 0.53788(9)
C5 C 0.94723(11) 0.78213(16) 0.50857(9)
C6 C 0.96277(11) 0.48624(16) 0.35850(9)
C7 C 1.09649(11) 0.74707(17) 0.48231(10)
H2 H 1.156939 0.772331 0.491780
C8 C 0.70649(11) 0.76711(17) 0.50962(10)
H3 H 0.660017 0.712562 0.483186
C9 C 1.03716(11) 0.82062(17) 0.52233(10)
H4 H 1.056907 0.893260 0.557196
C10 C 1.02889(11) 0.41614(17) 0.32370(10)
H5 H 1.088982 0.442958 0.334810
C11 C 0.68989(12) 0.87286(18) 0.56138(10)
H6 H 0.630728 0.891658 0.568235
C12 C 1.00315(12) 0.30590(18) 0.27233(10)
H7 H 1.045692 0.258017 0.247830
C13 C 0.84819(12) 0.93154(17) 0.59244(10)
H8 H 0.894493 0.984673 0.620497
C14 C 0.85237(12) 0.34322(18) 0.29443(10)
H9 H 0.792065 0.317266 0.284377
C15 C 0.75963(12) 0.95240(18) 0.60374(10)
H10 H 0.746329 1.020184 0.639974
C16 C 0.91358(12) 0.26797(18) 0.25794(10)
H11 H 0.894827 0.193346 0.224406
N4 N 0.41689(9) 0.38869(14) 0.35101(8)
H12 H 0.405809 0.342280 0.393166
N5 N 0.65497(9) 0.49893(14) 0.37117(8)
N6 N 0.52393(9) 0.29932(15) 0.49635(9)
C17 C 0.49949(11) 0.44123(16) 0.34146(10)
C18 C 0.35418(11) 0.42195(16) 0.28226(10)
C19 C 0.59559(11) 0.36727(16) 0.47612(10)
C20 C 0.39774(11) 0.49826(16) 0.22649(10)
C21 C 0.49070(11) 0.51100(16) 0.26444(10)
C22 C 0.58269(11) 0.43649(16) 0.39390(10)
C23 C 0.26273(11) 0.39104(18) 0.26500(10)
H13 H 0.234383 0.340413 0.301855
C24 C 0.34829(12) 0.54558(18) 0.15220(10)
H14 H 0.375958 0.596656 0.115064
C25 C 0.25783(12) 0.51516(19) 0.13502(11)
H15 H 0.224151 0.545795 0.085663
C26 C 0.67761(11) 0.37380(17) 0.52905(11)
H16 H 0.726137 0.420483 0.513116
C27 C 0.61282(12) 0.24152(18) 0.62737(11)
H17 H 0.616568 0.198818 0.678860
C28 C 0.68602(12) 0.31031(18) 0.60527(11)
H18 H 0.740311 0.313602 0.641536
C29 C 0.64595(12) 0.56592(19) 0.29806(11)
H19 H 0.696711 0.608503 0.283603
C30 C 0.21584(12) 0.43871(18) 0.19085(11)
H20 H 0.154625 0.419466 0.177637
C31 C 0.53406(12) 0.23789(19) 0.57102(11)
H21 H 0.485242 0.190209 0.585597
C32 C 0.56627(12) 0.57558(18) 0.24313(10)
H22 H 0.563340 0.623738 0.193510
loop_
_geom_bond_atom_site_label_1
_geom_bond_atom_site_label_2
_geom_bond_site_symmetry_1
_geom_bond_site_symmetry_2
N1 C1 1_555 1_555
N2 H1 1_555 1_555
N3 C6 1_555 1_555
C1 C3 1_555 1_555
C2 N2 1_555 1_555
C3 N2 1_555 1_555
C4 C2 1_555 1_555
C5 C3 1_555 1_555
C6 C1 1_555 1_555
C7 N1 1_555 1_555
H2 C7 1_555 1_555
C8 C2 1_555 1_555
H3 C8 1_555 1_555
C9 C5 1_555 1_555
H4 C9 1_555 1_555
C10 C6 1_555 1_555
H5 C10 1_555 1_555
C11 C8 1_555 1_555
H6 C11 1_555 1_555
C12 C10 1_555 1_555
H7 C12 1_555 1_555
C13 C4 1_555 1_555
H8 C13 1_555 1_555
C14 N3 1_555 1_555
H9 C14 1_555 1_555
C15 C11 1_555 1_555
H10 C15 1_555 1_555
C16 C12 1_555 1_555
H11 C16 1_555 1_555
N4 H12 1_555 1_555
N5 C22 1_555 1_555
N6 C19 1_555 1_555
C17 N4 1_555 1_555
C18 N4 1_555 1_555
C19 C22 1_555 1_555
C20 C18 1_555 1_555
C21 C17 1_555 1_555
C22 C17 1_555 1_555
C23 C18 1_555 1_555
H13 C23 1_555 1_555
C24 C20 1_555 1_555
H14 C24 1_555 1_555
C25 C24 1_555 1_555
H15 C25 1_555 1_555
C26 C19 1_555 1_555
H16 C26 1_555 1_555
C27 H17 1_555 1_555
C28 C26 1_555 1_555
H18 C28 1_555 1_555
C29 N5 1_555 1_555
H19 C29 1_555 1_555
C30 C23 1_555 1_555
H20 C30 1_555 1_555
C31 N6 1_555 1_555
H21 C31 1_555 1_555
C32 C21 1_555 1_555
H22 C32 1_555 1_555
C4 C5 1_555 1_555
C7 C9 1_555 1_555
C13 C15 1_555 1_555
C14 C16 1_555 1_555
C20 C21 1_555 1_555
C25 C30 1_555 1_555
C27 C28 1_555 1_555
C27 C31 1_555 1_555
C29 C32 1_555 1_555

#END
