
#######################################################################
#
#                 Cambridge Crystallographic Data Centre
#                                CCDC 
#
#######################################################################
#
# If this CIF has been generated from an entry in the Cambridge 
# Structural Database, then it will include bibliographic, chemical, 
# crystal, experimental, refinement or atomic coordinate data resulting 
# from the CCDC's data processing and validation procedures.
#
#######################################################################

data_IZAWIR
_chemical_formula_moiety         'C27 H25 Cl1 N2 O5,C1 H4 O1'
_chemical_name_systematic        
'5-(4-chlorophenyl)-3-hydroxy-6-methyl-7-nitro-N,8-diphenyl-2-oxabicyclo[2.2.2]octane-1-carboxamide methanol solvate'
_symmetry_cell_setting           orthorhombic
_symmetry_space_group_name_H-M   'P 21 21 21'
_symmetry_Int_Tables_number      19
_space_group_name_Hall           'P 2ac 2ab'
loop_
_symmetry_equiv_pos_site_id
_symmetry_equiv_pos_as_xyz
1 x,y,z
2 1/2+x,1/2-y,-z
3 -x,1/2+y,1/2-z
4 1/2-x,-y,1/2+z
_cell_length_a                   10.896(2)
_cell_length_b                   14.575(3)
_cell_length_c                   16.414(3)
_cell_angle_alpha                90
_cell_angle_beta                 90
_cell_angle_gamma                90
_cell_volume                     2606.69
_exptl_crystal_colour            colorless
_exptl_crystal_description       block
_cell_formula_units_Z            4
loop_
_atom_site_label
_atom_site_type_symbol
_atom_site_fract_x
_atom_site_fract_y
_atom_site_fract_z
Cl1 Cl 0.99681(11) 0.38714(9) 0.09208(8)
N1 N 0.4288(3) 0.2949(3) 0.5553(2)
N2 N 0.5967(3) 0.0897(3) 0.4456(2)
H1 H 0.6674 0.1184 0.4502
O1 O 0.6383(2) 0.2662(2) 0.43982(18)
O2 O 0.6530(3) 0.3977(2) 0.5192(2)
H2 H 0.7221 0.3921 0.5413
O3 O 0.3895(3) 0.1091(2) 0.4374(2)
O4 O 0.4841(3) 0.2296(2) 0.5842(2)
O5 O 0.3756(3) 0.3528(2) 0.5964(2)
C1 C 0.6581(4) 0.3639(3) 0.4397(3)
H3 H 0.7407 0.3774 0.4160
C2 C 0.5595(3) 0.4088(3) 0.3872(3)
H4 H 0.5822 0.4741 0.3758
C3 C 0.4383(3) 0.4054(3) 0.4373(3)
H5 H 0.4538 0.4407 0.4885
C4 C 0.4204(4) 0.3036(3) 0.4632(3)
H6 H 0.3362 0.2841 0.4462
C5 C 0.5134(3) 0.2419(3) 0.4193(2)
C6 C 0.4922(4) 0.2586(3) 0.3263(2)
H7 H 0.4013 0.2619 0.3179
C7 C 0.5443(4) 0.3559(3) 0.3059(3)
H8 H 0.4786 0.3885 0.2747
C8 C 0.5392(4) 0.1807(3) 0.2721(3)
H9 H 0.5321 0.1987 0.2148
H10 H 0.4902 0.1254 0.2819
H11 H 0.6254 0.1682 0.2851
C9 C 0.6597(4) 0.3590(3) 0.2525(3)
C10 C 0.6566(4) 0.4111(3) 0.1812(3)
H12 H 0.5830 0.4421 0.1670
C11 C 0.7584(4) 0.4190(4) 0.1305(3)
H13 H 0.7547 0.4542 0.0818
C12 C 0.8652(4) 0.3741(3) 0.1529(3)
C13 C 0.8720(4) 0.3203(3) 0.2214(3)
H14 H 0.9457 0.2890 0.2349
C14 C 0.7686(4) 0.3127(3) 0.2706(3)
H15 H 0.7722 0.2751 0.3178
C15 C 0.3318(4) 0.4525(3) 0.3947(3)
C16 C 0.2386(4) 0.4066(4) 0.3524(3)
H16 H 0.2358 0.3415 0.3520
C17 C 0.1491(5) 0.4576(4) 0.3104(3)
H17 H 0.0868 0.4264 0.2810
C18 C 0.1505(4) 0.5522(4) 0.3113(3)
H18 H 0.0898 0.5859 0.2825
C19 C 0.2419(4) 0.5980(4) 0.3549(3)
H19 H 0.2430 0.6631 0.3568
C20 C 0.3312(4) 0.5478(3) 0.3956(3)
H20 H 0.3935 0.5794 0.4248
C21 C 0.4953(4) 0.1411(3) 0.4378(3)
C22 C 0.5983(4) -0.0085(3) 0.4468(3)
C23 C 0.6794(4) -0.0542(3) 0.3950(4)
H21 H 0.7333 -0.0207 0.3607
C24 C 0.6801(5) -0.1499(4) 0.3946(4)
H22 H 0.7354 -0.1819 0.3600
C25 C 0.6010(5) -0.1981(4) 0.4439(4)
H23 H 0.6009 -0.2632 0.4425
C26 C 0.5221(5) -0.1525(4) 0.4952(3)
H24 H 0.4685 -0.1865 0.5293
C27 C 0.5199(4) -0.0576(3) 0.4975(3)
H25 H 0.4656 -0.0264 0.5334
O6 O 0.1471(7) 0.1854(6) 0.2727(5)
H26 H 0.1982 0.2001 0.3088
C28 C 0.1917(9) 0.1149(7) 0.2285(9)
H27 H 0.2164 0.1371 0.1746
H28 H 0.1282 0.0678 0.2225
H29 H 0.2631 0.0886 0.2564
loop_
_geom_bond_atom_site_label_1
_geom_bond_atom_site_label_2
_geom_bond_site_symmetry_1
_geom_bond_site_symmetry_2
Cl1 C12 1_555 1_555
N1 O4 1_555 1_555
N2 H1 1_555 1_555
O1 C1 1_555 1_555
O2 H2 1_555 1_555
O3 C21 1_555 1_555
O5 N1 1_555 1_555
C1 O2 1_555 1_555
H3 C1 1_555 1_555
C2 C1 1_555 1_555
H4 C2 1_555 1_555
C3 C2 1_555 1_555
H5 C3 1_555 1_555
C4 N1 1_555 1_555
H6 C4 1_555 1_555
C5 O1 1_555 1_555
C6 C5 1_555 1_555
H7 C6 1_555 1_555
C7 C2 1_555 1_555
H8 C7 1_555 1_555
C8 C6 1_555 1_555
H9 C8 1_555 1_555
H10 C8 1_555 1_555
H11 C8 1_555 1_555
C9 C7 1_555 1_555
C10 C9 1_555 1_555
H12 C10 1_555 1_555
C11 C10 1_555 1_555
H13 C11 1_555 1_555
C12 C11 1_555 1_555
C13 C12 1_555 1_555
H14 C13 1_555 1_555
C14 C9 1_555 1_555
H15 C14 1_555 1_555
C15 C3 1_555 1_555
C16 C15 1_555 1_555
H16 C16 1_555 1_555
C17 C16 1_555 1_555
H17 C17 1_555 1_555
C18 C17 1_555 1_555
H18 C18 1_555 1_555
C19 C18 1_555 1_555
H19 C19 1_555 1_555
C20 C15 1_555 1_555
H20 C20 1_555 1_555
C21 N2 1_555 1_555
C22 N2 1_555 1_555
C23 C22 1_555 1_555
H21 C23 1_555 1_555
C24 C23 1_555 1_555
H22 C24 1_555 1_555
C25 C24 1_555 1_555
H23 C25 1_555 1_555
C26 C25 1_555 1_555
H24 C26 1_555 1_555
C27 C22 1_555 1_555
H25 C27 1_555 1_555
O6 H26 1_555 1_555
C28 O6 1_555 1_555
H27 C28 1_555 1_555
H28 C28 1_555 1_555
H29 C28 1_555 1_555
C3 C4 1_555 1_555
C4 C5 1_555 1_555
C5 C21 1_555 1_555
C6 C7 1_555 1_555
C13 C14 1_555 1_555
C19 C20 1_555 1_555
C26 C27 1_555 1_555

#END
