
#######################################################################
#
#                 Cambridge Crystallographic Data Centre
#                                CCDC 
#
#######################################################################
#
# If this CIF has been generated from an entry in the Cambridge 
# Structural Database, then it will include bibliographic, chemical, 
# crystal, experimental, refinement or atomic coordinate data resulting 
# from the CCDC's data processing and validation procedures.
#
#######################################################################

data_IZEBIA
_chemical_compound_source        'Carpesium cernuum'
_chemical_name_common            
(2S,4S,5R,6S,8R,9R)-5,8-diangeloyloxy-4,9-dihydroxy-2,9-epoxygermacran-6,12-olide
_chemical_formula_moiety         'C25 H34 O9'
_chemical_name_systematic        
'1,9-dihydroxy-9,13-dimethyl-4-methylene-5-oxo-6,14-dioxatricyclo[9.2.1.0^3,7^]tetradecane-2,8-diyl bis(2-methylbut-2-enoate)'
_symmetry_cell_setting           monoclinic
_symmetry_space_group_name_H-M   'P 21'
_symmetry_Int_Tables_number      4
_space_group_name_Hall           'P 2yb'
loop_
_symmetry_equiv_pos_site_id
_symmetry_equiv_pos_as_xyz
1 x,y,z
2 -x,1/2+y,-z
_cell_length_a                   9.0537(4)
_cell_length_b                   9.9085(5)
_cell_length_c                   13.6295(7)
_cell_angle_alpha                90
_cell_angle_beta                 93.611(2)
_cell_angle_gamma                90
_cell_volume                     1220.26
_exptl_crystal_colour            colorless
_exptl_crystal_description       block
_cell_formula_units_Z            2
loop_
_atom_site_label
_atom_site_type_symbol
_atom_site_fract_x
_atom_site_fract_y
_atom_site_fract_z
O1 O 0.78785(14) 0.08299(16) 0.86112(10)
O2 O 0.70924(16) 0.00507(17) 0.70663(11)
H1 H 0.6852 -0.0684 0.7319
O3 O 0.44269(15) 0.16781(16) 0.72810(10)
O4 O 0.3262(2) -0.0315(2) 0.70884(16)
O5 O 0.44439(14) 0.07322(15) 1.03688(10)
O6 O 0.20332(15) 0.12232(18) 1.03312(11)
O7 O 0.64136(15) 0.17027(16) 1.16718(10)
O8 O 0.43229(15) 0.29324(16) 1.17418(10)
O9 O 0.88941(15) 0.09616(16) 1.07466(11)
H2 H 0.9810 0.0967 1.0679
C1 C 0.9120(2) 0.2493(2) 0.77637(15)
H3 H 0.9800 0.1990 0.7356
H4 H 0.9462 0.3440 0.7830
C2 C 0.9024(2) 0.1832(2) 0.87674(15)
H5 H 0.9983 0.1370 0.8954
C3 C 0.8692(2) 0.2854(2) 0.95684(14)
H6 H 0.7851 0.3420 0.9316
H7 H 0.9562 0.3455 0.9671
C4 C 0.8315(2) 0.2286(2) 1.05876(14)
C5 C 0.6616(2) 0.2191(2) 1.06893(14)
H8 H 0.6181 0.3117 1.0621
C6 C 0.57858(19) 0.1249(2) 0.99444(13)
H9 H 0.6440 0.0482 0.9772
C7 C 0.52273(19) 0.2012(2) 0.90019(14)
H10 H 0.5798 0.2869 0.8939
C8 C 0.5365(2) 0.1136(2) 0.80862(14)
H11 H 0.5039 0.0196 0.8230
C9 C 0.6961(2) 0.1095(2) 0.77476(14)
C10 C 0.7523(2) 0.2423(2) 0.73201(14)
H12 H 0.6953 0.3185 0.7593
C11 C 0.3651(2) 0.2325(2) 0.92144(14)
C12 C 0.3229(2) 0.1415(2) 1.00109(15)
C13 C 0.2775(2) 0.3276(2) 0.88313(16)
H13 H 0.1819 0.3404 0.9066
H14 H 0.3100 0.3834 0.8321
C14 C 0.7398(2) 0.2525(3) 0.61985(15)
H15 H 0.7749 0.3413 0.5998
H16 H 0.6362 0.2409 0.5960
H17 H 0.8002 0.1819 0.5919
C15 C 0.8965(2) 0.3239(3) 1.13870(16)
H18 H 0.8725 0.2902 1.2034
H19 H 0.8543 0.4143 1.1284
H20 H 1.0042 0.3283 1.1354
C16 C 0.5221(2) 0.2152(2) 1.21153(15)
C17 C 0.5174(3) 0.1563(2) 1.31200(15)
C18 C 0.3873(3) 0.1229(3) 1.34724(18)
H21 H 0.3923 0.0857 1.4116
C19 C 0.2350(3) 0.1366(3) 1.2983(2)
H22 H 0.2416 0.1407 1.2269
H23 H 0.1889 0.2194 1.3211
H24 H 0.1749 0.0586 1.3151
C20 C 0.6636(3) 0.1393(3) 1.36962(17)
H25 H 0.7292 0.0832 1.3321
H26 H 0.6477 0.0955 1.4326
H27 H 0.7091 0.2280 1.3817
C21 C 0.3402(2) 0.0844(3) 0.68470(15)
C22 C 0.2498(2) 0.1548(3) 0.60483(15)
C23 C 0.1276(2) 0.0992(3) 0.56307(15)
H28 H 0.0788 0.1513 0.5122
C24 C 0.0553(2) -0.0322(3) 0.58382(19)
H29 H 0.0635 -0.0931 0.5277
H30 H -0.0494 -0.0170 0.5946
H31 H 0.1043 -0.0730 0.6428
C25 C 0.3005(3) 0.2916(3) 0.5744(2)
H32 H 0.2311 0.3276 0.5229
H33 H 0.3993 0.2844 0.5492
H34 H 0.3045 0.3524 0.6313
loop_
_geom_bond_atom_site_label_1
_geom_bond_atom_site_label_2
_geom_bond_site_symmetry_1
_geom_bond_site_symmetry_2
O1 C2 1_555 1_555
O2 H1 1_555 1_555
O3 C8 1_555 1_555
O4 C21 1_555 1_555
O5 C6 1_555 1_555
O6 C12 1_555 1_555
O7 C5 1_555 1_555
O8 C16 1_555 1_555
O9 H2 1_555 1_555
C1 H3 1_555 1_555
H4 C1 1_555 1_555
C2 C1 1_555 1_555
H5 C2 1_555 1_555
C3 C2 1_555 1_555
H6 C3 1_555 1_555
H7 C3 1_555 1_555
C4 O9 1_555 1_555
C5 C4 1_555 1_555
H8 C5 1_555 1_555
C6 C5 1_555 1_555
H9 C6 1_555 1_555
C7 C6 1_555 1_555
H10 C7 1_555 1_555
C8 C7 1_555 1_555
H11 C8 1_555 1_555
C9 O1 1_555 1_555
C10 C1 1_555 1_555
H12 C10 1_555 1_555
C11 C7 1_555 1_555
C12 O5 1_555 1_555
C13 C11 1_555 1_555
H13 C13 1_555 1_555
H14 C13 1_555 1_555
C14 C10 1_555 1_555
H15 C14 1_555 1_555
H16 C14 1_555 1_555
H17 C14 1_555 1_555
C15 C4 1_555 1_555
H18 C15 1_555 1_555
H19 C15 1_555 1_555
H20 C15 1_555 1_555
C16 O7 1_555 1_555
C17 C16 1_555 1_555
C18 C17 1_555 1_555
H21 C18 1_555 1_555
C19 C18 1_555 1_555
H22 C19 1_555 1_555
H23 C19 1_555 1_555
H24 C19 1_555 1_555
C20 C17 1_555 1_555
H25 C20 1_555 1_555
H26 C20 1_555 1_555
H27 C20 1_555 1_555
C21 O3 1_555 1_555
C22 C21 1_555 1_555
C23 C22 1_555 1_555
H28 C23 1_555 1_555
C24 C23 1_555 1_555
H29 C24 1_555 1_555
H30 C24 1_555 1_555
H31 C24 1_555 1_555
C25 C22 1_555 1_555
H32 C25 1_555 1_555
H33 C25 1_555 1_555
H34 C25 1_555 1_555
O2 C9 1_555 1_555
C3 C4 1_555 1_555
C8 C9 1_555 1_555
C9 C10 1_555 1_555
C11 C12 1_555 1_555

#END
