
#######################################################################
#
#                 Cambridge Crystallographic Data Centre
#                                CCDC 
#
#######################################################################
#
# If this CIF has been generated from an entry in the Cambridge 
# Structural Database, then it will include bibliographic, chemical, 
# crystal, experimental, refinement or atomic coordinate data resulting 
# from the CCDC's data processing and validation procedures.
#
#######################################################################

data_IZEROV
_chemical_formula_moiety         'C18 H19 N3 O2 S1,0.5(C2 H6 O1),0.5(C1 H4 O1)'
_chemical_name_systematic        
'5-((1H-Indol-3-yl-5-methoxyl)methylene)-2-(piperidin-1-yl)thiazol-4(5H)-one ethanol methanol solvate'
_symmetry_cell_setting           triclinic
_symmetry_space_group_name_H-M   'P -1'
_symmetry_Int_Tables_number      2
_space_group_name_Hall           '-P 1'
loop_
_symmetry_equiv_pos_site_id
_symmetry_equiv_pos_as_xyz
1 x,y,z
2 -x,-y,-z
_cell_length_a                   9.3426(17)
_cell_length_b                   14.619(3)
_cell_length_c                   16.462(4)
_cell_angle_alpha                111.860(4)
_cell_angle_beta                 98.029(5)
_cell_angle_gamma                99.957(3)
_cell_volume                     2003.41
_cell_formula_units_Z            4
loop_
_atom_site_label
_atom_site_type_symbol
_atom_site_fract_x
_atom_site_fract_y
_atom_site_fract_z
S1 S 0.44191(13) 0.60823(8) -0.01785(7)
N1 N 0.6480(4) 0.7807(2) 0.0267(2)
N2 N 0.5143(4) 0.7736(2) 0.1333(2)
N3 N 0.1046(5) 0.2990(3) -0.1422(2)
O1 O 0.3592(4) 0.7266(2) 0.2142(2)
O2 O -0.2124(4) 0.2573(3) 0.1045(3)
C1 C 0.6649(5) 0.7446(3) -0.0660(3)
H2 H 0.6094 0.6744 -0.0989
H3 H 0.7691 0.7481 -0.0673
C2 C 0.6081(5) 0.8092(3) -0.1095(3)
H4 H 0.5012 0.7984 -0.1151
H5 H 0.6270 0.7883 -0.1695
C3 C 0.6813(6) 0.9210(3) -0.0563(3)
H6 H 0.7853 0.9340 -0.0595
H7 H 0.6331 0.9605 -0.0823
C4 C 0.6707(6) 0.9537(3) 0.0408(3)
H8 H 0.5674 0.9508 0.0446
H9 H 0.7274 1.0236 0.0748
C5 C 0.7297(5) 0.8864(3) 0.0816(3)
H10 H 0.8353 0.8937 0.0832
H11 H 0.7160 0.9061 0.1426
C6 C 0.5435(5) 0.7323(3) 0.0539(3)
C7 C 0.4065(5) 0.7066(3) 0.1449(3)
C8 C 0.3481(5) 0.6076(3) 0.0659(3)
C9 C 0.2365(5) 0.5327(3) 0.0617(3)
H12 H 0.1986 0.5462 0.1131
C10 C 0.1677(4) 0.4353(3) -0.0102(3)
C11 C 0.1966(5) 0.3931(4) -0.0947(3)
H13 H 0.2686 0.4245 -0.1159
C12 C 0.0136(5) 0.2768(3) -0.0889(3)
C13 C -0.1005(6) 0.1896(3) -0.1055(4)
H14 H -0.1267 0.1345 -0.1610
C14 C -0.1700(6) 0.1884(4) -0.0393(5)
H15 H -0.2443 0.1313 -0.0499
C15 C -0.1340(5) 0.2698(4) 0.0445(4)
C16 C -0.0247(5) 0.3570(3) 0.0622(3)
H16 H -0.0013 0.4120 0.1177
C17 C 0.0492(5) 0.3598(3) -0.0057(3)
C18 C -0.1902(6) 0.3414(5) 0.1865(4)
H17 H -0.0899 0.3569 0.2199
H18 H -0.2589 0.3259 0.2205
H19 H -0.2064 0.3990 0.1750
S2 S 0.13472(14) 0.93155(9) 0.54066(7)
N4 N -0.0294(5) 0.8897(3) 0.6504(3)
N5 N 0.0847(4) 1.0598(3) 0.6893(2)
N6 N 0.3893(4) 0.9263(3) 0.3291(2)
O3 O 0.2076(4) 1.2128(3) 0.6951(2)
O4 O 0.6641(5) 1.3127(3) 0.3774(3)
C19 C -0.0853(7) 0.7858(4) 0.5817(4)
H20 H -0.0290 0.7756 0.5351
H21 H -0.1890 0.7754 0.5543
C20 C -0.0715(7) 0.7108(4) 0.6221(4)
H22 H 0.0331 0.7138 0.6402
H23 H -0.1196 0.6429 0.5772
C21 C -0.1404(7) 0.7306(5) 0.7018(4)
H24 H -0.2471 0.7209 0.6834
H25 H -0.1233 0.6835 0.7287
C22 C -0.0717(7) 0.8377(5) 0.7686(4)
H26 H -0.1174 0.8515 0.8200
H27 H 0.0338 0.8454 0.7896
C23 C -0.0906(6) 0.9121(4) 0.7299(3)
H28 H -0.1957 0.9095 0.7143
H29 H -0.0401 0.9801 0.7738
C24 C 0.0541(5) 0.9620(4) 0.6350(3)
C25 C 0.1728(5) 1.1184(4) 0.6578(3)
C26 C 0.2191(5) 1.0600(3) 0.5756(3)
C27 C 0.3108(5) 1.0999(3) 0.5347(3)
H30 H 0.3492 1.1699 0.5628
C28 C 0.3575(5) 1.0493(3) 0.4538(3)
C29 C 0.3262(5) 0.9458(3) 0.4013(3)
H31 H 0.2693 0.8961 0.4139
C30 C 0.4652(5) 1.0190(3) 0.3329(3)
C31 C 0.5444(5) 1.0376(4) 0.2732(3)
H32 H 0.5549 0.9851 0.2226
C32 C 0.6065(6) 1.1378(5) 0.2927(4)
H33 H 0.6588 1.1533 0.2535
C33 C 0.5940(6) 1.2166(4) 0.3688(3)
C34 C 0.5147(5) 1.1975(3) 0.4276(3)
H34 H 0.5053 1.2506 0.4781
C35 C 0.4493(5) 1.0976(3) 0.4101(3)
C36 C 0.6519(9) 1.3972(5) 0.4517(5)
H35 H 0.5487 1.3937 0.4526
H36 H 0.6958 1.4587 0.4467
H37 H 0.7030 1.3964 0.5061
O5 O 0.5293(19) 0.5069(8) 0.7137(10)
H1 H 0.6065 0.5126 0.6957
C37 C 0.3344(15) 0.3773(7) 0.6451(8)
H38 H 0.2667 0.4066 0.6797
H39 H 0.3037 0.3045 0.6225
H40 H 0.3341 0.3972 0.5957
C38 C 0.4769(18) 0.4111(12) 0.6990(12)
H41 H 0.4742 0.4051 0.7555
H42 H 0.5409 0.3701 0.6694
C39 C 0.0005(13) 0.5915(10) 0.3667(8)
H43 H -0.0704 0.6299 0.3878
H44 H 0.0558 0.5822 0.4156
H45 H -0.0512 0.5264 0.3201
O6 O 0.1141(17) 0.6524(12) 0.3275(11)
H46 H 0.0908 0.6264 0.2724
loop_
_geom_bond_atom_site_label_1
_geom_bond_atom_site_label_2
_geom_bond_site_symmetry_1
_geom_bond_site_symmetry_2
S1 C6 1_555 1_555
S2 C24 1_555 1_555
N1 C1 1_555 1_555
N2 C6 1_555 1_555
N3 C11 1_555 1_555
N4 C19 1_555 1_555
N5 C24 1_555 1_555
N6 C29 1_555 1_555
O1 C7 1_555 1_555
O2 C15 1_555 1_555
O3 C25 1_555 1_555
O4 C33 1_555 1_555
O5 H1 1_555 1_555
C1 H2 1_555 1_555
H3 C1 1_555 1_555
C2 C1 1_555 1_555
H4 C2 1_555 1_555
H5 C2 1_555 1_555
C3 C2 1_555 1_555
H6 C3 1_555 1_555
H7 C3 1_555 1_555
C4 C3 1_555 1_555
H8 C4 1_555 1_555
H9 C4 1_555 1_555
C5 N1 1_555 1_555
H10 C5 1_555 1_555
H11 C5 1_555 1_555
C6 N1 1_555 1_555
C7 N2 1_555 1_555
C8 S1 1_555 1_555
C9 C8 1_555 1_555
H12 C9 1_555 1_555
C10 C9 1_555 1_555
C11 C10 1_555 1_555
H13 C11 1_555 1_555
C12 N3 1_555 1_555
C13 C12 1_555 1_555
H14 C13 1_555 1_555
C14 C13 1_555 1_555
H15 C14 1_555 1_555
C15 C14 1_555 1_555
C16 C15 1_555 1_555
H16 C16 1_555 1_555
C17 C10 1_555 1_555
C18 O2 1_555 1_555
H17 C18 1_555 1_555
H18 C18 1_555 1_555
H19 C18 1_555 1_555
C19 H20 1_555 1_555
H21 C19 1_555 1_555
C20 C19 1_555 1_555
H22 C20 1_555 1_555
H23 C20 1_555 1_555
C21 C20 1_555 1_555
H24 C21 1_555 1_555
H25 C21 1_555 1_555
C22 C21 1_555 1_555
H26 C22 1_555 1_555
H27 C22 1_555 1_555
C23 N4 1_555 1_555
H28 C23 1_555 1_555
H29 C23 1_555 1_555
C24 N4 1_555 1_555
C25 N5 1_555 1_555
C26 S2 1_555 1_555
C27 C26 1_555 1_555
H30 C27 1_555 1_555
C28 C27 1_555 1_555
C29 C28 1_555 1_555
H31 C29 1_555 1_555
C30 N6 1_555 1_555
C31 C30 1_555 1_555
H32 C31 1_555 1_555
C32 C31 1_555 1_555
H33 C32 1_555 1_555
C33 C32 1_555 1_555
C34 C33 1_555 1_555
H34 C34 1_555 1_555
C35 C28 1_555 1_555
C36 O4 1_555 1_555
H35 C36 1_555 1_555
H36 C36 1_555 1_555
H37 C36 1_555 1_555
C37 H38 1_555 1_555
H39 C37 1_555 1_555
H40 C37 1_555 1_555
C38 O5 1_555 1_555
H41 C38 1_555 1_555
H42 C38 1_555 1_555
C39 H43 1_555 1_555
H44 C39 1_555 1_555
H45 C39 1_555 1_555
O6 C39 1_555 1_555
H46 O6 1_555 1_555
C4 C5 1_555 1_555
C7 C8 1_555 1_555
C12 C17 1_555 1_555
C16 C17 1_555 1_555
C22 C23 1_555 1_555
C25 C26 1_555 1_555
C30 C35 1_555 1_555
C34 C35 1_555 1_555
C37 C38 1_555 1_555

#END
