
#######################################################################
#
#                 Cambridge Crystallographic Data Centre
#                                CCDC 
#
#######################################################################
#
# If this CIF has been generated from an entry in the Cambridge 
# Structural Database, then it will include bibliographic, chemical, 
# crystal, experimental, refinement or atomic coordinate data resulting 
# from the CCDC's data processing and validation procedures.
#
#######################################################################

data_IZETOX
_chemical_formula_moiety         'C19 H17 N3 O3'
_chemical_name_systematic        
3-(2-((1-Phenyl-2H-pyrazol-3-yloxy)methyl)phenyl)oxazolidin-2-one
_symmetry_cell_setting           monoclinic
_symmetry_space_group_name_H-M   'P 21/c'
_symmetry_Int_Tables_number      14
_space_group_name_Hall           '-P 2ybc'
loop_
_symmetry_equiv_pos_site_id
_symmetry_equiv_pos_as_xyz
1 x,y,z
2 -x,1/2+y,1/2-z
3 -x,-y,-z
4 x,1/2-y,1/2+z
_cell_length_a                   17.788(4)
_cell_length_b                   6.0100(12)
_cell_length_c                   16.222(3)
_cell_angle_alpha                90
_cell_angle_beta                 108.87(3)
_cell_angle_gamma                90
_cell_volume                     1641.02
_exptl_crystal_colour            colorless
_exptl_crystal_description       block
_chemical_melting_point          '378 K'
_cell_formula_units_Z            4
loop_
_atom_site_label
_atom_site_type_symbol
_atom_site_fract_x
_atom_site_fract_y
_atom_site_fract_z
O1 O 0.36506(12) 0.8368(3) 0.41483(13)
N1 N 0.23427(15) 1.2430(4) 0.42682(15)
C1 C 0.0610(2) 1.5898(7) 0.4163(2)
H1 H 0.0499 1.7245 0.4381
O2 O 0.17736(13) 0.5669(4) 0.08104(14)
N2 N 0.25045(16) 1.0535(4) 0.38816(15)
C2 C 0.0001(2) 1.4603(7) 0.3665(3)
H2 H -0.0522 1.5054 0.3555
N3 N 0.27307(14) 0.4233(4) 0.19176(14)
O3 O 0.29446(13) 0.7470(3) 0.12598(14)
C3 C 0.0165(2) 1.2620(6) 0.3324(2)
H3 H -0.0247 1.1762 0.2966
C4 C 0.0940(2) 1.1926(6) 0.3519(2)
H4 H 0.1051 1.0577 0.3301
C5 C 0.1553(2) 1.3214(5) 0.40327(19)
C6 C 0.1384(2) 1.5233(6) 0.4345(2)
H5 H 0.1795 1.6136 0.4678
C7 C 0.2984(2) 1.3097(5) 0.4934(2)
H6 H 0.3009 1.4330 0.5288
C8 C 0.3583(2) 1.1646(5) 0.49936(19)
H7 H 0.4097 1.1661 0.5387
C9 C 0.32472(19) 1.0119(5) 0.43233(19)
C10 C 0.32586(18) 0.7233(5) 0.33492(17)
H8 H 0.3150 0.8265 0.2865
H9 H 0.2757 0.6631 0.3363
C11 C 0.37825(17) 0.5387(5) 0.32333(17)
C12 C 0.45351(18) 0.5042(5) 0.38091(19)
H10 H 0.4734 0.6019 0.4274
C13 C 0.50029(19) 0.3286(6) 0.3716(2)
H11 H 0.5511 0.3097 0.4111
C14 C 0.47116(19) 0.1815(5) 0.3033(2)
H12 H 0.5018 0.0610 0.2973
C15 C 0.39653(18) 0.2136(5) 0.24399(19)
H13 H 0.3769 0.1152 0.1977
C16 C 0.35057(16) 0.3925(4) 0.25315(17)
C17 C 0.21092(18) 0.2552(5) 0.1727(2)
H14 H 0.1992 0.2110 0.2248
H15 H 0.2250 0.1247 0.1457
C18 C 0.14234(19) 0.3798(6) 0.1100(2)
H16 H 0.1142 0.2859 0.0612
H17 H 0.1054 0.4293 0.1390
C19 C 0.25395(18) 0.5921(5) 0.13348(18)
loop_
_geom_bond_atom_site_label_1
_geom_bond_atom_site_label_2
_geom_bond_site_symmetry_1
_geom_bond_site_symmetry_2
O1 C9 1_555 1_555
N1 N2 1_555 1_555
C1 H1 1_555 1_555
O2 C18 1_555 1_555
N2 C9 1_555 1_555
C2 C1 1_555 1_555
H2 C2 1_555 1_555
N3 C16 1_555 1_555
O3 C19 1_555 1_555
C3 C2 1_555 1_555
H3 C3 1_555 1_555
C4 C3 1_555 1_555
H4 C4 1_555 1_555
C5 N1 1_555 1_555
C6 C1 1_555 1_555
H5 C6 1_555 1_555
C7 N1 1_555 1_555
H6 C7 1_555 1_555
C8 C7 1_555 1_555
H7 C8 1_555 1_555
C9 C8 1_555 1_555
C10 O1 1_555 1_555
H8 C10 1_555 1_555
H9 C10 1_555 1_555
C11 C10 1_555 1_555
C12 C11 1_555 1_555
H10 C12 1_555 1_555
C13 C12 1_555 1_555
H11 C13 1_555 1_555
C14 C13 1_555 1_555
H12 C14 1_555 1_555
C15 C14 1_555 1_555
H13 C15 1_555 1_555
C16 C11 1_555 1_555
C17 N3 1_555 1_555
H14 C17 1_555 1_555
H15 C17 1_555 1_555
C18 C17 1_555 1_555
H16 C18 1_555 1_555
H17 C18 1_555 1_555
C19 O2 1_555 1_555
N3 C19 1_555 1_555
C4 C5 1_555 1_555
C5 C6 1_555 1_555
C15 C16 1_555 1_555

#END
