
#######################################################################
#
#                 Cambridge Crystallographic Data Centre
#                                CCDC 
#
#######################################################################
#
# If this CIF has been generated from an entry in the Cambridge 
# Structural Database, then it will include bibliographic, chemical, 
# crystal, experimental, refinement or atomic coordinate data resulting 
# from the CCDC's data processing and validation procedures.
#
#######################################################################

data_IZEVEO
_chemical_name_common            Minoxidil
_chemical_formula_moiety         'C9 H15 N5 O1'
_chemical_name_systematic        
'(6-(1-Piperidinyl)-2,4-pyrimidinediamine 3-oxide)'
_chemical_properties_biological  'antialopecia agent'
_symmetry_cell_setting           monoclinic
_symmetry_space_group_name_H-M   'P 21'
_symmetry_Int_Tables_number      4
_space_group_name_Hall           'P 2yb'
loop_
_symmetry_equiv_pos_site_id
_symmetry_equiv_pos_as_xyz
1 x,y,z
2 -x,1/2+y,-z
_cell_length_a                   9.3799(5)
_cell_length_b                   8.3319(4)
_cell_length_c                   12.9884(7)
_cell_angle_alpha                90
_cell_angle_beta                 90.191(3)
_cell_angle_gamma                90
_cell_volume                     1015.07
_exptl_crystal_colour            colorless
_exptl_crystal_description       block
_cell_formula_units_Z            4
_exptl_crystal_recrystallization_method ethanol
loop_
_atom_site_label
_atom_site_type_symbol
_atom_site_fract_x
_atom_site_fract_y
_atom_site_fract_z
O1 O 0.9597(5) 0.8849(9) 0.8686(3)
N1 N 0.8254(6) 0.4892(8) 0.9172(4)
N2 N 0.8757(6) 0.7525(7) 0.8606(4)
N3 N 1.0077(7) 0.6384(9) 0.9896(5)
N4 N 0.7365(7) 0.8877(9) 0.7450(5)
N5 N 0.6468(7) 0.3394(8) 0.8414(5)
C1 C 0.9012(7) 0.6214(8) 0.9229(5)
C2 C 0.7624(7) 0.7517(9) 0.7954(4)
C3 C 0.6823(8) 0.6126(8) 0.7861(5)
C4 C 0.7160(7) 0.4811(8) 0.8483(5)
C5 C 0.6283(9) 0.2412(9) 0.9352(7)
C6 C 0.502(1) 0.294(1) 0.9940(6)
C7 C 0.3700(9) 0.289(1) 0.9295(7)
C8 C 0.3874(9) 0.378(1) 0.8272(8)
C9 C 0.5186(9) 0.322(1) 0.7734(6)
H1 H 1.04(1) 0.57(2) 1.06(1)
H2 H 1.053(6) 0.740(7) 0.989(4)
H3 H 0.795(9) 0.96(1) 0.748(6)
H4 H 0.6587(7) 0.8956(9) 0.6983(5)
H5 H 0.7124(9) 0.2462(9) 0.9760(7)
H6 H 0.6119(9) 0.1335(9) 0.9143(7)
H7 H 0.519(1) 0.402(1) 1.0142(6)
H8 H 0.492(1) 0.229(1) 1.0535(6)
H9 H 0.2952(9) 0.339(1) 0.9667(7)
H10 H 0.3461(9) 0.180(1) 0.9170(7)
H11 H 0.3960(9) 0.490(1) 0.8388(8)
H12 H 0.3076(9) 0.358(1) 0.7839(8)
H13 H 0.5336(9) 0.379(1) 0.7110(6)
H14 H 0.5071(9) 0.211(1) 0.7588(6)
H15 H 0.6060(8) 0.6064(8) 0.7380(5)
O2 O 0.4686(5) 0.927(1) 0.6438(4)
N6 N 0.3043(7) 0.5606(8) 0.5539(4)
N7 N 0.3754(6) 0.8022(7) 0.6369(4)
N8 N 0.5012(8) 0.700(1) 0.5023(6)
N9 N 0.2600(8) 0.9023(9) 0.7786(5)
N10 N 0.0985(8) 0.4305(9) 0.6023(6)
C10 C 0.3917(8) 0.6848(9) 0.5636(5)
C11 C 0.2655(7) 0.7894(9) 0.7045(5)
C12 C 0.1678(7) 0.6680(9) 0.6932(5)
C13 C 0.1885(8) 0.5527(9) 0.6173(5)
C14 C 0.1166(8) 0.3087(9) 0.5230(5)
C15 C 0.138(1) 0.145(1) 0.5731(6)
C16 C 0.0072(9) 0.107(1) 0.6406(6)
C17 C -0.0086(9) 0.238(1) 0.7207(6)
C18 C -0.027(1) 0.398(1) 0.6675(8)
H16 H 0.5186(8) 0.625(1) 0.4488(6)
H17 H 0.5637(8) 0.789(1) 0.5117(6)
H18 H 0.3289(8) 0.9858(9) 0.7820(5)
H19 H 0.1856(8) 0.8976(9) 0.8279(5)
H20 H 0.1973(8) 0.3328(9) 0.4817(5)
H21 H 0.0332(8) 0.3090(9) 0.4813(5)
H22 H 0.223(1) 0.145(1) 0.6129(6)
H23 H 0.144(1) 0.066(1) 0.5209(6)
H24 H 0.0231(9) 0.008(1) 0.6751(6)
H25 H -0.0773(9) 0.100(1) 0.6004(6)
H26 H 0.0735(9) 0.241(1) 0.7636(6)
H27 H -0.0907(9) 0.219(1) 0.7615(6)
H28 H -0.038(1) 0.481(1) 0.7170(8)
H29 H -0.109(1) 0.396(1) 0.6239(8)
H30 H 0.0870(7) 0.6625(9) 0.7369(5)
loop_
_geom_bond_atom_site_label_1
_geom_bond_atom_site_label_2
_geom_bond_site_symmetry_1
_geom_bond_site_symmetry_2
O1 N2 1_555 1_555
N1 C1 1_555 1_555
N2 C1 1_555 1_555
N3 C1 1_555 1_555
N4 C2 1_555 1_555
N5 C4 1_555 1_555
C2 N2 1_555 1_555
C3 C2 1_555 1_555
C4 N1 1_555 1_555
C5 N5 1_555 1_555
C6 C5 1_555 1_555
C7 C6 1_555 1_555
C8 C7 1_555 1_555
C9 N5 1_555 1_555
H1 N3 1_555 1_555
H2 N3 1_555 1_555
H3 N4 1_555 1_555
H4 N4 1_555 1_555
H5 C5 1_555 1_555
H6 C5 1_555 1_555
H7 C6 1_555 1_555
H8 C6 1_555 1_555
H9 C7 1_555 1_555
H10 C7 1_555 1_555
H11 C8 1_555 1_555
H12 C8 1_555 1_555
H13 C9 1_555 1_555
H14 C9 1_555 1_555
H15 C3 1_555 1_555
O2 N7 1_555 1_555
N6 C10 1_555 1_555
N7 C10 1_555 1_555
N8 C10 1_555 1_555
N9 C11 1_555 1_555
N10 C13 1_555 1_555
C11 N7 1_555 1_555
C12 C11 1_555 1_555
C13 N6 1_555 1_555
C14 N10 1_555 1_555
C15 C14 1_555 1_555
C16 C15 1_555 1_555
C17 C16 1_555 1_555
C18 N10 1_555 1_555
H16 N8 1_555 1_555
H17 N8 1_555 1_555
H18 N9 1_555 1_555
H19 N9 1_555 1_555
H20 C14 1_555 1_555
H21 C14 1_555 1_555
H22 C15 1_555 1_555
H23 C15 1_555 1_555
H24 C16 1_555 1_555
H25 C16 1_555 1_555
H26 C17 1_555 1_555
H27 C17 1_555 1_555
H28 C18 1_555 1_555
H29 C18 1_555 1_555
H30 C12 1_555 1_555
C3 C4 1_555 1_555
C8 C9 1_555 1_555
C12 C13 1_555 1_555
C17 C18 1_555 1_555

#END
