
#######################################################################
#
#                 Cambridge Crystallographic Data Centre
#                                CCDC 
#
#######################################################################
#
# If this CIF has been generated from an entry in the Cambridge 
# Structural Database, then it will include bibliographic, chemical, 
# crystal, experimental, refinement or atomic coordinate data resulting 
# from the CCDC's data processing and validation procedures.
#
#######################################################################

data_IZIBEA
_chemical_formula_moiety         'C3 H4 N1 S1 1+,2(C1 H4 N2 S1),Cl1 1-'
_chemical_name_systematic        '1,3-thiazol-3-ium chloride bis(thiourea)'
_symmetry_cell_setting           orthorhombic
_symmetry_space_group_name_H-M   'C m c m'
_symmetry_Int_Tables_number      63
_space_group_name_Hall           '-C 2n 2'
loop_
_symmetry_equiv_pos_site_id
_symmetry_equiv_pos_as_xyz
1 x,y,z
2 -x,-y,1/2+z
3 -x,y,1/2-z
4 x,-y,-z
5 1/2+x,1/2+y,z
6 1/2-x,1/2-y,1/2+z
7 1/2-x,1/2+y,1/2-z
8 1/2+x,1/2-y,-z
9 -x,-y,-z
10 x,y,1/2-z
11 x,-y,1/2+z
12 -x,y,z
13 1/2-x,1/2-y,-z
14 1/2+x,1/2+y,1/2-z
15 1/2+x,1/2-y,1/2+z
16 1/2-x,1/2+y,z
_cell_length_a                   14.430(9)
_cell_length_b                   10.330(9)
_cell_length_c                   8.417(7)
_cell_angle_alpha                90
_cell_angle_beta                 90
_cell_angle_gamma                90
_cell_volume                     1254.65
_exptl_crystal_colour            colorless
_exptl_crystal_description       needle-like
_cell_formula_units_Z            4
loop_
_atom_site_label
_atom_site_type_symbol
_atom_site_fract_x
_atom_site_fract_y
_atom_site_fract_z
C2 C 0.0000 0.3963(11) -0.013(2)
H3 H 0.0000 0.3140 -0.0473
S2 S -0.0890(4) 0.4785(10) -0.011(2)
C3 C -0.0590(13) 0.6050(10) 0.056(2)
H4 H -0.0938 0.6699 0.0725
C4 C 0.0426(16) 0.5985(13) 0.089(2)
H5 H 0.0760 0.6581 0.1281
N2 N 0.0722(9) 0.4745(18) 0.042(3)
H6 H 0.1285 0.4495 0.0476
C2C C 0.0000 0.6037(11) 0.013(2)
H3C H 0.0000 0.6860 0.0473
S2C S -0.0890(4) 0.5215(10) 0.011(2)
C3C C -0.0590(13) 0.3950(10) -0.056(2)
H4C H -0.0938 0.3301 -0.0725
C4C C 0.0426(16) 0.4015(13) -0.089(2)
H5C H 0.0760 0.3419 -0.1281
N2C N 0.0722(9) 0.5255(18) -0.042(3)
H6C H 0.1285 0.5505 -0.0476
S2H S 0.0890(4) 0.5215(10) 0.011(2)
C3H C 0.0590(13) 0.3950(10) -0.056(2)
H4H H 0.0938 0.3301 -0.0725
C4H C -0.0426(16) 0.4015(13) -0.089(2)
H5H H -0.0760 0.3419 -0.1281
N2H N -0.0722(9) 0.5255(18) -0.042(3)
H6H H -0.1285 0.5505 -0.0476
S2K S 0.0890(4) 0.4785(10) -0.011(2)
C3K C 0.0590(13) 0.6050(10) 0.056(2)
H4K H 0.0938 0.6699 0.0725
C4K C -0.0426(16) 0.5985(13) 0.089(2)
H5K H -0.0760 0.6581 0.1281
N2K N -0.0722(9) 0.4745(18) 0.042(3)
H6K H -0.1285 0.4495 0.0476
Cl1 Cl 0.0000 0.91294(14) 0.2500
C1 C 0.3157(3) 0.6740(4) 0.2500
N1 N 0.3523(2) 0.6318(3) 0.1154(3)
H1 H 0.3983 0.5788 0.1175
H2 H 0.3301 0.6573 0.0259
S1 S 0.22392(11) 0.77816(15) 0.2500
N1I N 0.3523(2) 0.6318(3) 0.3846(3)
H1I H 0.3983 0.5788 0.3825
H2I H 0.3301 0.6573 0.4741
loop_
_geom_bond_atom_site_label_1
_geom_bond_atom_site_label_2
_geom_bond_site_symmetry_1
_geom_bond_site_symmetry_2
C1 N1 1_555 1_555
N1 H1 1_555 1_555
H2 N1 1_555 1_555
S1 C1 1_555 1_555
C2 H3 1_555 1_555
H3 C3C 1_555 1_555
S2 C2 1_555 1_555
C3 S2 1_555 1_555
H4 C3 1_555 1_555
C4 C3 1_555 1_555
H5 C4 1_555 1_555
N2 C2 1_555 1_555
H6 N2 1_555 1_555
N1I C1 1_555 1_555
H1I N1I 1_555 1_555
H2I N1I 1_555 1_555
C2C S2 1_555 1_555
H3C C3 1_555 1_555
S2C C2 1_555 1_555
C3C C2 1_555 1_555
H4C C3C 1_555 1_555
C4C C2 1_555 1_555
H5C C4C 1_555 1_555
N2C C2 1_555 1_555
H6C N2 1_555 1_555
S2H C2 1_555 1_555
C3H C2 1_555 1_555
H4H C4C 1_555 1_555
C4H C2 1_555 1_555
H5H C3C 1_555 1_555
N2H C2 1_555 1_555
H6H S2 1_555 1_555
S2K C2 1_555 1_555
C3K C3 1_555 1_555
H4K C4 1_555 1_555
C4K S2 1_555 1_555
H5K C3 1_555 1_555
N2K C2 1_555 1_555
H6K S2 1_555 1_555
H3 C4C 1_555 1_555
H3 C3H 1_555 1_555
H3 C4H 1_555 1_555
S2 C3C 1_555 1_555
S2 C4H 1_555 1_555
S2 N2H 1_555 1_555
C3 C2C 1_555 1_555
C3 S2C 1_555 1_555
C3 N2H 1_555 1_555
C3 N2K 1_555 1_555
H4 C4K 1_555 1_555
C4 N2 1_555 1_555
C4 C2C 1_555 1_555
C4 H3C 1_555 1_555
C4 N2C 1_555 1_555
C4 S2H 1_555 1_555
C4 S2K 1_555 1_555
C4 C4K 1_555 1_555
H5 C3K 1_555 1_555
N2 C2C 1_555 1_555
N2 C4C 1_555 1_555
N2 N2C 1_555 1_555
N2 S2H 1_555 1_555
N2 C3H 1_555 1_555
N2 C3K 1_555 1_555
H6 N2C 1_555 1_555
H6 S2H 1_555 1_555
H6 S2K 1_555 1_555
C2C H3C 1_555 1_555
C2C S2C 1_555 1_555
C2C N2C 1_555 1_555
C2C S2H 1_555 1_555
C2C N2H 1_555 1_555
C2C S2K 1_555 1_555
C2C C3K 1_555 1_555
C2C C4K 1_555 1_555
C2C N2K 1_555 1_555
H3C C3K 1_555 1_555
H3C C4K 1_555 1_555
S2C C3C 1_555 1_555
S2C C4H 1_555 1_555
S2C H6H 1_555 1_555
S2C C4K 1_555 1_555
S2C N2K 1_555 1_555
S2C H6K 1_555 1_555
C3C C4C 1_555 1_555
C3C C3H 1_555 1_555
C3C N2H 1_555 1_555
C3C N2K 1_555 1_555
H4C C4H 1_555 1_555
C4C N2C 1_555 1_555
C4C S2H 1_555 1_555
C4C C4H 1_555 1_555
C4C S2K 1_555 1_555
H5C C3H 1_555 1_555
N2C H6C 1_555 1_555
N2C C3H 1_555 1_555
N2C S2K 1_555 1_555
N2C C3K 1_555 1_555
H6C S2H 1_555 1_555
H6C S2K 1_555 1_555
S2H C3H 1_555 1_555
S2H C3K 1_555 1_555
C3H H4H 1_555 1_555
C3H C4H 1_555 1_555
C3H S2K 1_555 1_555
C4H H5H 1_555 1_555
C4H N2H 1_555 1_555
C4H N2K 1_555 1_555
N2H H6H 1_555 1_555
N2H C4K 1_555 1_555
N2H N2K 1_555 1_555
N2H H6K 1_555 1_555
H6H N2K 1_555 1_555
S2K C3K 1_555 1_555
C3K H4K 1_555 1_555
C3K C4K 1_555 1_555
C4K H5K 1_555 1_555
C4K N2K 1_555 1_555
N2K H6K 1_555 1_555

#END
