
#######################################################################
#
#                 Cambridge Crystallographic Data Centre
#                                CCDC 
#
#######################################################################
#
# If this CIF has been generated from an entry in the Cambridge 
# Structural Database, then it will include bibliographic, chemical, 
# crystal, experimental, refinement or atomic coordinate data resulting 
# from the CCDC's data processing and validation procedures.
#
#######################################################################

data_IZIBAW
_chemical_formula_moiety         'C10 H7 Br1 O3'
_chemical_name_systematic        
7-bromo-3,3a-dihydrofuro[2,3,4-de]chromen-5(2H)-one
_symmetry_cell_setting           monoclinic
_symmetry_space_group_name_H-M   'P 21'
_symmetry_Int_Tables_number      4
_space_group_name_Hall           'P 2yb'
loop_
_symmetry_equiv_pos_site_id
_symmetry_equiv_pos_as_xyz
1 x,y,z
2 -x,1/2+y,-z
_cell_length_a                   7.8418(5)
_cell_length_b                   13.2528(14)
_cell_length_c                   9.4246(9)
_cell_angle_alpha                90
_cell_angle_beta                 114.168(6)
_cell_angle_gamma                90
_cell_volume                     893.609
_exptl_crystal_colour            colorless
_exptl_crystal_description       prism
_cell_formula_units_Z            4
loop_
_atom_site_label
_atom_site_type_symbol
_atom_site_fract_x
_atom_site_fract_y
_atom_site_fract_z
Br1 Br 0.23268(3) 0.342775(16) 0.24689(3)
O1 O 0.6404(3) 0.11040(15) 0.7139(2)
O2 O 0.9312(3) 0.38215(14) 0.9078(2)
O3 O 0.8370(3) 0.53443(15) 0.7945(2)
C1 C 0.4327(3) 0.31901(19) 0.4427(3)
C2 C 0.4609(3) 0.2205(2) 0.5027(3)
H1 H 0.3782 0.1676 0.4483
C3 C 0.6127(3) 0.20163(19) 0.6434(3)
C4 C 0.7968(4) 0.1037(2) 0.8689(3)
H2 H 0.9087 0.0787 0.8561
H3 H 0.7646 0.0532 0.9314
C5 C 0.8470(4) 0.2040(2) 0.9602(3)
H4 H 0.7385 0.2302 0.9772
H5 H 0.9528 0.1943 1.0626
C6 C 0.8998(4) 0.27552(19) 0.8615(3)
H6 H 1.0099 0.2485 0.8460
C7 C 0.8221(4) 0.4443(2) 0.7853(3)
C8 C 0.6941(4) 0.37910(18) 0.6584(3)
C9 C 0.5421(3) 0.40179(19) 0.5197(3)
H7 H 0.5148 0.4686 0.4803
C10 C 0.7355(4) 0.28113(19) 0.7100(3)
Br2 Br 0.78546(3) 0.515260(16) 0.24671(3)
O4 O 0.3509(3) 0.74209(15) -0.2146(2)
O5 O 0.1034(3) 0.46229(14) -0.4181(2)
O6 O 0.1939(3) 0.31314(15) -0.2929(3)
C11 C 0.6010(3) 0.53464(19) 0.0411(3)
C12 C 0.5591(3) 0.6333(2) -0.0138(3)
H8 H 0.6233 0.6890 0.0488
C13 C 0.4197(3) 0.64816(19) -0.1639(3)
C14 C 0.1780(3) 0.7467(2) -0.3572(3)
H9 H 0.2118 0.7616 -0.4454
H10 H 0.1025 0.8041 -0.3477
C15 C 0.0557(3) 0.65247(16) -0.3972(3)
H11 H -0.0527 0.6611 -0.4982
H12 H 0.0089 0.6392 -0.3161
C16 C 0.1795(3) 0.56512(16) -0.4057(3)
H13 H 0.2221 0.5774 -0.4907
C17 C 0.2225(4) 0.4023(2) -0.3007(3)
C18 C 0.3738(3) 0.46770(16) -0.1904(3)
C19 C 0.5074(3) 0.44920(19) -0.0408(3)
H14 H 0.5331 0.3833 0.0025
C20 C 0.3419(3) 0.56366(17) -0.2529(3)
loop_
_geom_bond_atom_site_label_1
_geom_bond_atom_site_label_2
_geom_bond_site_symmetry_1
_geom_bond_site_symmetry_2
Br1 C1 1_555 1_555
O1 C3 1_555 1_555
O2 C6 1_555 1_555
O3 C7 1_555 1_555
C1 C2 1_555 1_555
C2 H1 1_555 1_555
C3 C2 1_555 1_555
C4 O1 1_555 1_555
H2 C4 1_555 1_555
H3 C4 1_555 1_555
C5 C4 1_555 1_555
H4 C5 1_555 1_555
H5 C5 1_555 1_555
C6 C5 1_555 1_555
H6 C6 1_555 1_555
C7 O2 1_555 1_555
C8 C7 1_555 1_555
C9 C1 1_555 1_555
H7 C9 1_555 1_555
C10 C3 1_555 1_555
Br2 C11 1_555 1_555
O4 C13 1_555 1_555
O5 C16 1_555 1_555
O6 C17 1_555 1_555
C11 C12 1_555 1_555
C12 H8 1_555 1_555
C13 C12 1_555 1_555
C14 O4 1_555 1_555
H9 C14 1_555 1_555
H10 C14 1_555 1_555
C15 C14 1_555 1_555
H11 C15 1_555 1_555
H12 C15 1_555 1_555
C16 C15 1_555 1_555
H13 C16 1_555 1_555
C17 O5 1_555 1_555
C18 C17 1_555 1_555
C19 C11 1_555 1_555
H14 C19 1_555 1_555
C20 C13 1_555 1_555
C6 C10 1_555 1_555
C8 C9 1_555 1_555
C8 C10 1_555 1_555
C16 C20 1_555 1_555
C18 C19 1_555 1_555
C18 C20 1_555 1_555

#END
