
#######################################################################
#
#                 Cambridge Crystallographic Data Centre
#                                CCDC 
#
#######################################################################
#
# If this CIF has been generated from an entry in the Cambridge 
# Structural Database, then it will include bibliographic, chemical, 
# crystal, experimental, refinement or atomic coordinate data resulting 
# from the CCDC's data processing and validation procedures.
#
#######################################################################

data_IZIVUJ
_chemical_formula_moiety         'C11 H10 Cl1 N1 O1'
_chemical_name_systematic        (2-Chloro-7-methylquinolin-3-yl)methanol
_symmetry_cell_setting           monoclinic
_symmetry_space_group_name_H-M   'P 21/c'
_symmetry_Int_Tables_number      14
_space_group_name_Hall           '-P 2ybc'
loop_
_symmetry_equiv_pos_site_id
_symmetry_equiv_pos_as_xyz
1 x,y,z
2 -x,1/2+y,1/2-z
3 -x,-y,-z
4 x,1/2-y,1/2+z
_cell_length_a                   19.978(2)
_cell_length_b                   7.2814(12)
_cell_length_c                   13.7772(13)
_cell_angle_alpha                90
_cell_angle_beta                 104.593(10)
_cell_angle_gamma                90
_cell_volume                     1939.49
_exptl_crystal_colour            colorless
_exptl_crystal_description       block
_cell_formula_units_Z            8
loop_
_atom_site_label
_atom_site_type_symbol
_atom_site_fract_x
_atom_site_fract_y
_atom_site_fract_z
Cl1 Cl 0.30476(3) 0.33847(10) 0.63570(4)
N1 N 0.43265(9) 0.3469(2) 0.62701(13)
O1 O 0.39632(10) 0.4146(3) 0.96117(13)
H1 H 0.4041(14) 0.325(4) 0.996(2)
C1 C 0.39344(11) 0.3545(3) 0.68957(16)
C2 C 0.41582(11) 0.3728(3) 0.79550(15)
C3 C 0.48540(11) 0.3866(3) 0.83366(16)
H3 H 0.5030 0.4009 0.9025
C4 C 0.60399(12) 0.3899(3) 0.80634(17)
H4 H 0.6239 0.4027 0.8747
C5 C 0.64516(12) 0.3813(3) 0.74177(17)
H5 H 0.6929 0.3873 0.7670
C6 C 0.61757(11) 0.3634(3) 0.63724(17)
C7 C 0.54736(11) 0.3531(3) 0.60163(16)
H6 H 0.5285 0.3413 0.5330
C8 C 0.50280(11) 0.3601(3) 0.66648(16)
C9 C 0.53128(11) 0.3796(3) 0.77109(16)
C10 C 0.36491(12) 0.3757(3) 0.85973(16)
H7 H 0.3298 0.4677 0.8339
H8 H 0.3421 0.2573 0.8553
C11 C 0.66460(12) 0.3555(3) 0.56741(18)
H9 H 0.6718 0.2298 0.5517
H10 H 0.7082 0.4109 0.5992
H11 H 0.6438 0.4209 0.5068
Cl2 Cl 0.18757(3) 0.33826(10) 0.26745(5)
N2 N 0.05841(9) 0.3505(3) 0.17106(13)
O2 O 0.10376(10) 0.4107(3) 0.53399(13)
H2 H 0.0946(16) 0.321(4) 0.562(2)
C12 C 0.09939(11) 0.3557(3) 0.26149(16)
C13 C 0.07996(12) 0.3716(3) 0.35289(16)
C14 C 0.01124(12) 0.3850(3) 0.34419(16)
H12 H -0.0046 0.3978 0.4018
C15 C -0.10905(12) 0.3914(3) 0.23620(18)
H13 H -0.1271 0.4036 0.2918
C16 C -0.15240(12) 0.3848(3) 0.14334(19)
H14 H -0.1998 0.3921 0.1366
C17 C -0.12783(12) 0.3671(3) 0.05666(18)
C18 C -0.05792(12) 0.3576(3) 0.06753(17)
H15 H -0.0408 0.3479 0.0109
C19 C -0.01140(11) 0.3623(3) 0.16341(16)
C20 C -0.03700(11) 0.3802(3) 0.24977(16)
C21 C 0.13284(12) 0.3748(3) 0.45286(16)
H16 H 0.1563 0.2571 0.4635
H17 H 0.1671 0.4682 0.4511
C22 C -0.17805(13) 0.3605(4) -0.04533(18)
H18 H -0.1531 0.3677 -0.0963
H19 H -0.2095 0.4621 -0.0523
H20 H -0.2035 0.2474 -0.0524
loop_
_geom_bond_atom_site_label_1
_geom_bond_atom_site_label_2
_geom_bond_site_symmetry_1
_geom_bond_site_symmetry_2
Cl1 C1 1_555 1_555
Cl2 C12 1_555 1_555
N1 C1 1_555 1_555
N2 C12 1_555 1_555
O1 H1 1_555 1_555
O2 H2 1_555 1_555
C1 C2 1_555 1_555
C2 C3 1_555 1_555
C3 H3 1_555 1_555
C4 H4 1_555 1_555
C5 C4 1_555 1_555
H5 C5 1_555 1_555
C6 C5 1_555 1_555
C7 C6 1_555 1_555
H6 C7 1_555 1_555
C8 N1 1_555 1_555
C9 C3 1_555 1_555
C10 O1 1_555 1_555
H7 C10 1_555 1_555
H8 C10 1_555 1_555
C11 C6 1_555 1_555
H9 C11 1_555 1_555
H10 C11 1_555 1_555
H11 C11 1_555 1_555
C12 C13 1_555 1_555
C13 C14 1_555 1_555
C14 H12 1_555 1_555
C15 H13 1_555 1_555
C16 C15 1_555 1_555
H14 C16 1_555 1_555
C17 C16 1_555 1_555
C18 C17 1_555 1_555
H15 C18 1_555 1_555
C19 N2 1_555 1_555
C20 C14 1_555 1_555
C21 O2 1_555 1_555
H16 C21 1_555 1_555
H17 C21 1_555 1_555
C22 C17 1_555 1_555
H18 C22 1_555 1_555
H19 C22 1_555 1_555
H20 C22 1_555 1_555
C2 C10 1_555 1_555
C4 C9 1_555 1_555
C7 C8 1_555 1_555
C8 C9 1_555 1_555
C13 C21 1_555 1_555
C15 C20 1_555 1_555
C18 C19 1_555 1_555
C19 C20 1_555 1_555

#END
