
#######################################################################
#
#                 Cambridge Crystallographic Data Centre
#                                CCDC 
#
#######################################################################
#
# If this CIF has been generated from an entry in the Cambridge 
# Structural Database, then it will include bibliographic, chemical, 
# crystal, experimental, refinement or atomic coordinate data resulting 
# from the CCDC's data processing and validation procedures.
#
#######################################################################

data_IZIYEX
_chemical_formula_moiety         'C20 H31 N2 O1 1+,Cl1 1-'
_chemical_name_systematic        
'5,6,7,8,10,11,12,13,14,15,16,17,18,19-tetradecahydro-5,9-methano-2\l^5^-pyridinio[4,3-f]azacycloheptadecin-20-one chloride'
_symmetry_cell_setting           monoclinic
_symmetry_space_group_name_H-M   'P 21/c'
_symmetry_Int_Tables_number      14
_space_group_name_Hall           '-P 2ybc'
loop_
_symmetry_equiv_pos_site_id
_symmetry_equiv_pos_as_xyz
1 x,y,z
2 -x,1/2+y,1/2-z
3 -x,-y,-z
4 x,1/2-y,1/2+z
_cell_length_a                   19.0891(19)
_cell_length_b                   10.1206(10)
_cell_length_c                   9.7640(10)
_cell_angle_alpha                90
_cell_angle_beta                 95.083(5)
_cell_angle_gamma                90
_cell_volume                     1878.92
_exptl_crystal_colour            colorless
_exptl_crystal_description       plate
_cell_formula_units_Z            4
loop_
_atom_site_label
_atom_site_type_symbol
_atom_site_fract_x
_atom_site_fract_y
_atom_site_fract_z
Cl1 Cl 0.45363(3) 0.88205(6) 0.69418(7)
O1 O 0.77210(9) 0.48101(18) 0.48473(18)
N1 N 0.55669(11) 0.7479(2) 0.5274(2)
N2 N 0.76515(11) 0.3184(2) 0.3243(2)
C1 C 0.56000(13) 0.6179(3) 0.5526(3)
H1 H 0.5328 0.5794 0.6191
C2 C 0.60332(13) 0.5412(3) 0.4807(3)
H2 H 0.6051 0.4485 0.4961
C3 C 0.64477(12) 0.5970(3) 0.3856(2)
C4 C 0.64415(12) 0.7350(2) 0.3701(2)
C5 C 0.59713(13) 0.8055(2) 0.4407(2)
H3 H 0.5935 0.8982 0.4270
C6 C 0.74355(12) 0.4322(2) 0.3789(2)
C7 C 0.68541(13) 0.5098(2) 0.2952(3)
H4 H 0.7096 0.5703 0.2335
C8 C 0.63636(14) 0.4235(3) 0.2016(3)
H5 H 0.6061 0.3702 0.2577
H6 H 0.6057 0.4799 0.1390
C9 C 0.67970(15) 0.3331(3) 0.1187(3)
H7 H 0.6481 0.2788 0.0555
H8 H 0.7099 0.3866 0.0628
C10 C 0.72472(15) 0.2445(3) 0.2139(3)
H9 H 0.6943 0.1792 0.2554
H10 H 0.7577 0.1954 0.1600
C11 C 0.69399(14) 0.8115(3) 0.2880(3)
H11 H 0.6761 0.9026 0.2727
H12 H 0.6962 0.7692 0.1971
C12 C 0.76774(15) 0.8165(3) 0.3627(3)
H13 H 0.7670 0.8745 0.4442
H14 H 0.7812 0.7267 0.3956
C13 C 0.82229(17) 0.8667(4) 0.2735(4)
H15 H 0.8106 0.9592 0.2473
H16 H 0.8196 0.8137 0.1881
C14 C 0.89773(19) 0.8625(4) 0.3394(4)
H17 H 0.9021 0.9240 0.4186
H18 H 0.9296 0.8942 0.2717
C15 C 0.92155(18) 0.7251(4) 0.3890(4)
H19 H 0.9715 0.7300 0.4255
H20 H 0.8939 0.6991 0.4658
C16 C 0.9141(2) 0.6209(4) 0.2827(4)
H21 H 0.9481 0.6382 0.2138
H22 H 0.8663 0.6256 0.2349
C17 C 0.92623(18) 0.4843(4) 0.3389(4)
H23 H 0.9000 0.4733 0.4212
H24 H 0.9769 0.4727 0.3678
C18 C 0.90288(19) 0.3786(4) 0.2339(4)
H25 H 0.8598 0.4089 0.1788
H26 H 0.9401 0.3662 0.1705
C19 C 0.88838(18) 0.2499(4) 0.2989(4)
H27 H 0.9312 0.2217 0.3559
H28 H 0.8787 0.1833 0.2255
C20 C 0.82749(15) 0.2508(3) 0.3881(3)
H29 H 0.8149 0.1585 0.4086
H30 H 0.8426 0.2948 0.4764
H31 H 0.5242(19) 0.793(3) 0.572(4)
loop_
_geom_bond_atom_site_label_1
_geom_bond_atom_site_label_2
_geom_bond_site_symmetry_1
_geom_bond_site_symmetry_2
O1 C6 1_555 1_555
N1 C1 1_555 1_555
N2 C6 1_555 1_555
C1 H1 1_555 1_555
C2 C1 1_555 1_555
H2 C2 1_555 1_555
C3 C2 1_555 1_555
C4 C3 1_555 1_555
C5 N1 1_555 1_555
H3 C5 1_555 1_555
C6 C7 1_555 1_555
C7 C3 1_555 1_555
H4 C7 1_555 1_555
C8 C7 1_555 1_555
H5 C8 1_555 1_555
H6 C8 1_555 1_555
C9 C8 1_555 1_555
H7 C9 1_555 1_555
H8 C9 1_555 1_555
C10 N2 1_555 1_555
H9 C10 1_555 1_555
H10 C10 1_555 1_555
C11 C4 1_555 1_555
H11 C11 1_555 1_555
H12 C11 1_555 1_555
C12 C11 1_555 1_555
H13 C12 1_555 1_555
H14 C12 1_555 1_555
C13 C12 1_555 1_555
H15 C13 1_555 1_555
H16 C13 1_555 1_555
C14 C13 1_555 1_555
H17 C14 1_555 1_555
H18 C14 1_555 1_555
C15 C14 1_555 1_555
H19 C15 1_555 1_555
H20 C15 1_555 1_555
C16 C15 1_555 1_555
H21 C16 1_555 1_555
H22 C16 1_555 1_555
C17 C16 1_555 1_555
H23 C17 1_555 1_555
H24 C17 1_555 1_555
C18 C17 1_555 1_555
H25 C18 1_555 1_555
H26 C18 1_555 1_555
C19 C18 1_555 1_555
H27 C19 1_555 1_555
H28 C19 1_555 1_555
C20 N2 1_555 1_555
H29 C20 1_555 1_555
H30 C20 1_555 1_555
H31 N1 1_555 1_555
C4 C5 1_555 1_555
C9 C10 1_555 1_555
C19 C20 1_555 1_555

#END
