
#######################################################################
#
#                 Cambridge Crystallographic Data Centre
#                                CCDC 
#
#######################################################################
#
# If this CIF has been generated from an entry in the Cambridge 
# Structural Database, then it will include bibliographic, chemical, 
# crystal, experimental, refinement or atomic coordinate data resulting 
# from the CCDC's data processing and validation procedures.
#
#######################################################################

data_IZODEI
_chemical_formula_moiety         'C33 H28 N8 O2,H2 O1'
_chemical_name_systematic        
'2-(2,8,14,20-tetramethyl-2,8,14,20,25,26,27-hepta-azapentacyclo[19.3.1.1^3,7^.1^9,13^.1^15,19^]octacosa-1(25),3(28),4,6,9(27),10,12,15(26),16,18,21,23-dodecaen-28-yl)-1H-isoindole-1,3(2H)-dione monohydrate'
_symmetry_cell_setting           triclinic
_symmetry_space_group_name_H-M   'P -1'
_symmetry_Int_Tables_number      2
_space_group_name_Hall           '-P 1'
loop_
_symmetry_equiv_pos_site_id
_symmetry_equiv_pos_as_xyz
1 x,y,z
2 -x,-y,-z
_cell_length_a                   9.7124(13)
_cell_length_b                   9.7781(13)
_cell_length_c                   17.437(3)
_cell_angle_alpha                80.127(9)
_cell_angle_beta                 78.698(8)
_cell_angle_gamma                63.431(6)
_cell_volume                     1445.73
_exptl_crystal_colour            yellow
_exptl_crystal_description       block
_cell_formula_units_Z            2
loop_
_atom_site_label
_atom_site_type_symbol
_atom_site_fract_x
_atom_site_fract_y
_atom_site_fract_z
O1 O 0.98276(12) -0.03330(12) 0.19842(6)
O2 O 1.27708(12) 0.22901(12) 0.09144(6)
N1 N 1.20833(12) -0.04900(12) 0.30525(7)
N2 N 0.99470(13) -0.07638(12) 0.37712(6)
N3 N 0.76599(14) -0.08448(13) 0.44098(7)
N4 N 0.63104(12) 0.13118(13) 0.35658(6)
N5 N 0.51347(13) 0.33515(14) 0.26327(7)
N6 N 0.71393(12) 0.39853(12) 0.20519(6)
N7 N 0.92994(13) 0.44241(12) 0.15554(6)
N8 N 1.11402(12) 0.12171(12) 0.16182(6)
C1 C 1.07266(13) 0.19857(14) 0.23104(7)
C2 C 0.98627(14) 0.35835(14) 0.22754(7)
C3 C 0.95110(15) 0.43234(14) 0.29448(8)
H1 H 0.8970 0.5387 0.2923
C4 C 0.99657(16) 0.34787(15) 0.36460(8)
H2 H 0.9713 0.3981 0.4096
C5 C 1.07899(15) 0.18989(15) 0.36880(7)
H3 H 1.1077 0.1345 0.4165
C6 C 1.11914(13) 0.11364(14) 0.30180(7)
C7 C 1.14253(15) -0.14489(14) 0.34483(7)
C8 C 1.22645(17) -0.30539(16) 0.34959(9)
H4 H 1.3289 -0.3516 0.3260
C9 C 1.15118(19) -0.39189(15) 0.39058(9)
H5 H 1.2047 -0.4984 0.3959
C10 C 0.99855(19) -0.32366(15) 0.42366(8)
H6 H 0.9477 -0.3816 0.4517
C11 C 0.92286(16) -0.16309(14) 0.41335(7)
C12 C 0.70021(15) 0.07813(15) 0.42152(7)
C13 C 0.71596(16) 0.17027(16) 0.46784(8)
H7 H 0.7599 0.1294 0.5141
C14 C 0.66426(16) 0.32535(15) 0.44322(8)
H8 H 0.6727 0.3910 0.4729
C15 C 0.60017(15) 0.38112(15) 0.37432(8)
H9 H 0.5684 0.4842 0.3557
C16 C 0.58364(14) 0.28094(15) 0.33296(8)
C17 C 0.57017(15) 0.41658(15) 0.20234(8)
C18 C 0.48384(17) 0.50859(18) 0.14202(9)
H10 H 0.3842 0.5193 0.1407
C19 C 0.55360(19) 0.58271(17) 0.08459(9)
H11 H 0.4998 0.6442 0.0435
C20 C 0.70071(18) 0.56777(16) 0.08670(8)
H12 H 0.7468 0.6188 0.0483
C21 C 0.77811(15) 0.47242(14) 0.14910(7)
C22 C 1.36728(17) -0.11065(18) 0.26569(11)
H13 H 1.3919 -0.0276 0.2402
H14 H 1.3779 -0.1754 0.2272
H15 H 1.4370 -0.1696 0.3035
C23 C 0.6649(2) -0.16286(19) 0.45115(11)
H16 H 0.5594 -0.0881 0.4489
H17 H 0.6723 -0.2228 0.5012
H18 H 0.6966 -0.2291 0.4101
C24 C 0.38488(18) 0.3034(2) 0.25562(10)
H19 H 0.2900 0.3957 0.2603
H20 H 0.3779 0.2262 0.2963
H21 H 0.4016 0.2674 0.2052
C25 C 0.98911(19) 0.55531(17) 0.11891(9)
H22 H 0.9239 0.6523 0.1396
H23 H 0.9892 0.5667 0.0631
H24 H 1.0931 0.5210 0.1300
C26 C 1.21655(15) 0.14273(15) 0.09677(7)
C27 C 1.23410(14) 0.03684(14) 0.04000(7)
C28 C 1.31538(16) 0.01575(16) -0.03495(8)
H25 H 1.3716 0.0718 -0.0578
C29 C 1.30941(17) -0.09289(18) -0.07469(8)
H26 H 1.3613 -0.1086 -0.1255
C30 C 1.22746(17) -0.17843(17) -0.04002(9)
H27 H 1.2271 -0.2516 -0.0676
C31 C 1.14594(16) -0.15642(15) 0.03531(8)
H28 H 1.0906 -0.2131 0.0586
C32 C 1.15072(14) -0.04693(14) 0.07400(7)
C33 C 1.06998(14) 0.00713(14) 0.15224(7)
O3 O 0.72554(15) -0.11863(16) 0.25342(7)
H29 H 0.8131 -0.1222 0.2314
H30 H 0.6808 -0.0447 0.2823
loop_
_geom_bond_atom_site_label_1
_geom_bond_atom_site_label_2
_geom_bond_site_symmetry_1
_geom_bond_site_symmetry_2
O1 C33 1_555 1_555
O2 C26 1_555 1_555
N1 C6 1_555 1_555
N2 C7 1_555 1_555
N3 C11 1_555 1_555
N4 C12 1_555 1_555
N5 C16 1_555 1_555
N6 C17 1_555 1_555
N7 C2 1_555 1_555
N8 C1 1_555 1_555
C1 C2 1_555 1_555
C2 C3 1_555 1_555
C3 H1 1_555 1_555
C4 C3 1_555 1_555
H2 C4 1_555 1_555
C5 C4 1_555 1_555
H3 C5 1_555 1_555
C6 C1 1_555 1_555
C7 N1 1_555 1_555
C8 C7 1_555 1_555
H4 C8 1_555 1_555
C9 C8 1_555 1_555
H5 C9 1_555 1_555
C10 C9 1_555 1_555
H6 C10 1_555 1_555
C11 N2 1_555 1_555
C12 N3 1_555 1_555
C13 C12 1_555 1_555
H7 C13 1_555 1_555
C14 C13 1_555 1_555
H8 C14 1_555 1_555
C15 C14 1_555 1_555
H9 C15 1_555 1_555
C16 N4 1_555 1_555
C17 N5 1_555 1_555
C18 C17 1_555 1_555
H10 C18 1_555 1_555
C19 C18 1_555 1_555
H11 C19 1_555 1_555
C20 C19 1_555 1_555
H12 C20 1_555 1_555
C21 N6 1_555 1_555
C22 N1 1_555 1_555
H13 C22 1_555 1_555
H14 C22 1_555 1_555
H15 C22 1_555 1_555
C23 N3 1_555 1_555
H16 C23 1_555 1_555
H17 C23 1_555 1_555
H18 C23 1_555 1_555
C24 N5 1_555 1_555
H19 C24 1_555 1_555
H20 C24 1_555 1_555
H21 C24 1_555 1_555
C25 N7 1_555 1_555
H22 C25 1_555 1_555
H23 C25 1_555 1_555
H24 C25 1_555 1_555
C26 N8 1_555 1_555
C27 C26 1_555 1_555
C28 C27 1_555 1_555
H25 C28 1_555 1_555
C29 C28 1_555 1_555
H26 C29 1_555 1_555
C30 C29 1_555 1_555
H27 C30 1_555 1_555
C31 C30 1_555 1_555
H28 C31 1_555 1_555
C32 C27 1_555 1_555
C33 N8 1_555 1_555
O3 H29 1_555 1_555
H30 O3 1_555 1_555
N7 C21 1_555 1_555
C5 C6 1_555 1_555
C10 C11 1_555 1_555
C15 C16 1_555 1_555
C20 C21 1_555 1_555
C31 C32 1_555 1_555
C32 C33 1_555 1_555

#END
