
#######################################################################
#
#                 Cambridge Crystallographic Data Centre
#                                CCDC 
#
#######################################################################
#
# If this CIF has been generated from an entry in the Cambridge 
# Structural Database, then it will include bibliographic, chemical, 
# crystal, experimental, refinement or atomic coordinate data resulting 
# from the CCDC's data processing and validation procedures.
#
#######################################################################

data_IZOWUQ
_chemical_name_common            Neocytochalasin
_chemical_formula_moiety         'C28 H35 N1 O3'
_chemical_name_systematic        
3-Benzyl-4,5,10,12-tetramethyl-3,3a,4,6a,9,10,13,14-octahydro-1H-cycloundeca[d]isoindole-1,11,15(2H,12H)-trione
_symmetry_cell_setting           orthorhombic
_symmetry_space_group_name_H-M   'P 21 21 21'
_symmetry_Int_Tables_number      19
_space_group_name_Hall           'P 2ac 2ab'
loop_
_symmetry_equiv_pos_site_id
_symmetry_equiv_pos_as_xyz
1 x,y,z
2 1/2-x,-y,1/2+z
3 -x,1/2+y,1/2-z
4 1/2+x,1/2-y,-z
_cell_length_a                   8.5620(17)
_cell_length_b                   12.833(3)
_cell_length_c                   22.116(4)
_cell_angle_alpha                90
_cell_angle_beta                 90
_cell_angle_gamma                90
_cell_volume                     2430.02
_chemical_melting_point          197-199deg.C
_cell_formula_units_Z            4
loop_
_atom_site_label
_atom_site_type_symbol
_atom_site_fract_x
_atom_site_fract_y
_atom_site_fract_z
N1 N 0.5318(3) 0.3826(2) 0.24794(12)
H1 H 0.4867 0.3772 0.2825
C1 C 0.6163(4) 0.3394(2) 0.15169(15)
O1 O 0.5536(4) -0.0699(2) 0.12587(13)
O2 O 0.8681(4) 0.3196(2) 0.10735(13)
C2 C 0.7631(4) 0.2759(3) 0.13334(15)
O3 O 0.4906(3) 0.21498(18) 0.22102(11)
C3 C 0.7673(5) 0.1611(3) 0.14417(17)
H2 H 0.6614 0.1363 0.1504
H3 H 0.8256 0.1475 0.1809
C4 C 0.8403(5) 0.1001(3) 0.09275(18)
H4 H 0.9525 0.1106 0.0936
H5 H 0.8018 0.1276 0.0547
C5 C 0.8068(5) -0.0162(3) 0.09513(18)
H6 H 0.8334 -0.0407 0.1358
C6 C 0.6342(5) -0.0374(3) 0.08512(17)
C7 C 0.5597(5) -0.0235(3) 0.02324(17)
H7 H 0.6386 0.0035 -0.0048
C8 C 0.4230(5) 0.0540(3) 0.0262(2)
H8 H 0.3661 0.0515 -0.0117
H9 H 0.3521 0.0326 0.0581
C9 C 0.4734(5) 0.1638(3) 0.03773(17)
H10 H 0.5339 0.1957 0.0081
C10 C 0.4400(4) 0.2190(3) 0.08579(17)
H11 H 0.3765 0.1889 0.1151
C11 C 0.4979(4) 0.3277(2) 0.09636(16)
H12 H 0.5549 0.3485 0.0599
C12 C 0.3696(5) 0.4064(3) 0.10534(16)
H13 H 0.2656 0.3855 0.1043
C13 C 0.4055(4) 0.5052(3) 0.11471(16)
C14 C 0.5781(4) 0.5295(3) 0.11699(16)
H14 H 0.6204 0.5106 0.0773
C15 C 0.6547(4) 0.4555(2) 0.16281(15)
H15 H 0.7682 0.4645 0.1604
C16 C 0.6019(4) 0.4794(3) 0.22850(15)
H16 H 0.5204 0.5330 0.2271
C17 C 0.5399(4) 0.3024(3) 0.21041(15)
C18 C 0.9084(6) -0.0767(3) 0.0500(2)
H17 H 0.8850 -0.1497 0.0528
H18 H 1.0167 -0.0656 0.0593
H19 H 0.8871 -0.0528 0.0097
C19 C 0.5028(7) -0.1287(3) 0.0002(2)
H20 H 0.5892 -0.1763 -0.0019
H21 H 0.4580 -0.1204 -0.0393
H22 H 0.4253 -0.1558 0.0273
C20 C 0.2860(5) 0.5889(3) 0.1258(2)
H23 H 0.1831 0.5595 0.1230
H24 H 0.2975 0.6428 0.0961
H25 H 0.3009 0.6177 0.1654
C21 C 0.6225(6) 0.6432(3) 0.1275(2)
H26 H 0.5721 0.6862 0.0978
H27 H 0.7337 0.6509 0.1240
H28 H 0.5898 0.6641 0.1672
C22 C 0.7296(4) 0.5156(3) 0.27201(17)
H29 H 0.7654 0.5841 0.2597
H30 H 0.6855 0.5219 0.3122
C23 C 0.8678(4) 0.4428(3) 0.27445(16)
C24 C 0.8640(5) 0.3520(3) 0.30707(19)
H31 H 0.7769 0.3363 0.3305
C25 C 0.9898(5) 0.2833(3) 0.3053(2)
H32 H 0.9859 0.2213 0.3270
C26 C 1.1199(5) 0.3071(3) 0.2714(2)
H33 H 1.2031 0.2606 0.2695
C27 C 1.1263(5) 0.3986(4) 0.2408(2)
H34 H 1.2154 0.4158 0.2189
C28 C 1.0020(5) 0.4657(3) 0.24196(18)
H35 H 1.0077 0.5279 0.2205
loop_
_geom_bond_atom_site_label_1
_geom_bond_atom_site_label_2
_geom_bond_site_symmetry_1
_geom_bond_site_symmetry_2
N1 H1 1_555 1_555
C1 C2 1_555 1_555
O1 C6 1_555 1_555
O2 C2 1_555 1_555
C2 C3 1_555 1_555
O3 C17 1_555 1_555
C3 H2 1_555 1_555
H3 C3 1_555 1_555
C4 C3 1_555 1_555
H4 C4 1_555 1_555
H5 C4 1_555 1_555
C5 C4 1_555 1_555
H6 C5 1_555 1_555
C6 C5 1_555 1_555
C7 C6 1_555 1_555
H7 C7 1_555 1_555
C8 C7 1_555 1_555
H8 C8 1_555 1_555
H9 C8 1_555 1_555
C9 C8 1_555 1_555
H10 C9 1_555 1_555
C10 C9 1_555 1_555
H11 C10 1_555 1_555
C11 C1 1_555 1_555
H12 C11 1_555 1_555
C12 C11 1_555 1_555
H13 C12 1_555 1_555
C13 C12 1_555 1_555
C14 C13 1_555 1_555
H14 C14 1_555 1_555
C15 C1 1_555 1_555
H15 C15 1_555 1_555
C16 N1 1_555 1_555
H16 C16 1_555 1_555
C17 N1 1_555 1_555
C18 C5 1_555 1_555
H17 C18 1_555 1_555
H18 C18 1_555 1_555
H19 C18 1_555 1_555
C19 C7 1_555 1_555
H20 C19 1_555 1_555
H21 C19 1_555 1_555
H22 C19 1_555 1_555
C20 C13 1_555 1_555
H23 C20 1_555 1_555
H24 C20 1_555 1_555
H25 C20 1_555 1_555
C21 C14 1_555 1_555
H26 C21 1_555 1_555
H27 C21 1_555 1_555
H28 C21 1_555 1_555
C22 C16 1_555 1_555
H29 C22 1_555 1_555
H30 C22 1_555 1_555
C23 C22 1_555 1_555
C24 C23 1_555 1_555
H31 C24 1_555 1_555
C25 C24 1_555 1_555
H32 C25 1_555 1_555
C26 C25 1_555 1_555
H33 C26 1_555 1_555
C27 C26 1_555 1_555
H34 C27 1_555 1_555
C28 C23 1_555 1_555
H35 C28 1_555 1_555
C1 C17 1_555 1_555
C10 C11 1_555 1_555
C14 C15 1_555 1_555
C15 C16 1_555 1_555
C27 C28 1_555 1_555

#END
