
#######################################################################
#
#                 Cambridge Crystallographic Data Centre
#                                CCDC 
#
#######################################################################
#
# If this CIF has been generated from an entry in the Cambridge 
# Structural Database, then it will include bibliographic, chemical, 
# crystal, experimental, refinement or atomic coordinate data resulting 
# from the CCDC's data processing and validation procedures.
#
#######################################################################

data_IZOXAX
_chemical_compound_source        'Daldinia eschscholzii'
_chemical_name_common            'Daeschol A'
_chemical_formula_moiety         'C30 H18 O7,H2 O1'
_chemical_name_systematic        
'5,7,16,24-Tetrahydroxyoctacyclo-[19.7.1.1^2,6^.0^1,11^.0^10,30^.0^11,20^.0^12,17^.0^23,28^]triaconta-2,4,6(30),7,9,12,14,16,23,25,27-undecaene-18,22,29-trione monohydrate'
_chemical_properties_biological  
'tested for cytotoxicity against Mouse spleen cells'
_symmetry_cell_setting           monoclinic
_symmetry_space_group_name_H-M   'P 21/n'
_symmetry_Int_Tables_number      14
_space_group_name_Hall           '-P 2yn'
loop_
_symmetry_equiv_pos_site_id
_symmetry_equiv_pos_as_xyz
1 x,y,z
2 1/2-x,1/2+y,1/2-z
3 -x,-y,-z
4 1/2+x,1/2-y,1/2+z
_cell_length_a                   7.4805(2)
_cell_length_b                   24.5401(7)
_cell_length_c                   12.4338(3)
_cell_angle_alpha                90
_cell_angle_beta                 97.302(2)
_cell_angle_gamma                90
_cell_volume                     2263.99
_exptl_crystal_colour            red
_exptl_crystal_description       sheet
_chemical_melting_point          288-290deg.C
_cell_formula_units_Z            4
loop_
_atom_site_label
_atom_site_type_symbol
_atom_site_fract_x
_atom_site_fract_y
_atom_site_fract_z
O1 O 0.2366(3) 0.07717(8) 0.13980(14)
H1 H 0.1312 0.0683 0.1221
O2 O 0.5591(3) 0.12258(9) 0.12530(15)
H2 H 0.4618 0.1090 0.1016
O3 O 0.8930(3) 0.07192(8) 0.61146(16)
C1 C 0.7524(4) 0.08695(11) 0.6391(2)
O4 O 0.6414(3) 0.10569(8) 0.90531(15)
C2 C 0.6195(4) 0.12807(10) 0.5823(2)
O5 O 0.0851(3) 0.15168(10) 0.90034(17)
H3 H 0.1069 0.1199 0.9177
C3 C 0.4372(4) 0.10404(10) 0.2940(2)
O6 O 0.6552(3) 0.21064(9) 0.94109(16)
H4 H 0.6508 0.1783 0.9571
C4 C 0.7567(4) 0.15103(12) 0.4038(2)
H5 H 0.8622 0.1664 0.4385
C5 C 0.6542(4) 0.17002(11) 0.7651(2)
C6 C 0.5750(4) 0.12428(11) 0.2361(2)
C7 C 0.4697(4) 0.10833(10) 0.40732(19)
C8 C 0.6504(4) 0.17845(10) 0.6530(2)
O7 O 0.2056(3) 0.05562(9) 0.88073(17)
C9 C 0.6646(4) 0.06687(11) 0.7330(2)
H6 H 0.7293 0.0360 0.7697
C10 C 0.6252(4) 0.13240(11) 0.4630(2)
C11 C 0.1882(4) 0.06767(11) 0.4323(2)
H7 H 0.1048 0.0556 0.4765
C12 C 0.1494(4) 0.06371(11) 0.3181(2)
H8 H 0.0398 0.0490 0.2880
C13 C 0.4235(4) 0.09999(10) 0.5951(2)
C14 C 0.2989(3) 0.13661(10) 0.65060(19)
C15 C 0.2400(4) 0.12309(10) 0.7514(2)
C16 C 0.3472(4) 0.08904(10) 0.4768(2)
C17 C 0.7284(4) 0.14628(12) 0.2901(2)
H9 H 0.8175 0.1586 0.2502
C18 C 0.4825(4) 0.04913(10) 0.6653(2)
H10 H 0.5110 0.0203 0.6156
C19 C 0.1549(4) 0.22380(12) 0.6592(2)
H11 H 0.1227 0.2571 0.6267
C20 C 0.1084(4) 0.21261(12) 0.7593(2)
H12 H 0.0512 0.2390 0.7964
C21 C 0.6591(4) 0.23015(11) 0.6111(2)
H13 H 0.6601 0.2354 0.5371
C22 C 0.2496(4) 0.18634(11) 0.6047(2)
H14 H 0.2801 0.1949 0.5364
C23 C 0.2700(4) 0.08116(11) 0.2509(2)
C24 C 0.6501(4) 0.11494(11) 0.8094(2)
C25 C 0.6581(4) 0.21551(12) 0.8341(2)
C26 C 0.2592(4) 0.06868(11) 0.7946(2)
C27 C 0.6648(4) 0.26766(12) 0.7898(2)
H15 H 0.6681 0.2980 0.8348
C28 C 0.1462(4) 0.16208(12) 0.8055(2)
C29 C 0.6665(4) 0.27444(12) 0.6816(3)
H16 H 0.6728 0.3095 0.6539
C30 C 0.3401(4) 0.02676(11) 0.7290(2)
H17 H 0.2452 0.0103 0.6790
H18 H 0.3933 -0.0017 0.7770
O8 O -0.0933(3) 0.04977(11) 0.0648(2)
H19 H -0.139(5) 0.0186(9) 0.072(3)
H20 H -0.179(4) 0.0686(13) 0.044(4)
loop_
_geom_bond_atom_site_label_1
_geom_bond_atom_site_label_2
_geom_bond_site_symmetry_1
_geom_bond_site_symmetry_2
O1 H1 1_555 1_555
O2 H2 1_555 1_555
O3 C1 1_555 1_555
C1 C2 1_555 1_555
O4 C24 1_555 1_555
C2 C8 1_555 1_555
O5 H3 1_555 1_555
C3 C6 1_555 1_555
O6 H4 1_555 1_555
C4 H5 1_555 1_555
C5 C8 1_555 1_555
C6 O2 1_555 1_555
C7 C3 1_555 1_555
C8 C21 1_555 1_555
O7 C26 1_555 1_555
C9 C1 1_555 1_555
H6 C9 1_555 1_555
C10 C2 1_555 1_555
C11 H7 1_555 1_555
C12 C11 1_555 1_555
H8 C12 1_555 1_555
C13 C2 1_555 1_555
C14 C13 1_555 1_555
C15 C14 1_555 1_555
C16 C7 1_555 1_555
C17 C4 1_555 1_555
H9 C17 1_555 1_555
C18 C9 1_555 1_555
H10 C18 1_555 1_555
C19 H11 1_555 1_555
C20 C19 1_555 1_555
H12 C20 1_555 1_555
C21 H13 1_555 1_555
C22 C14 1_555 1_555
H14 C22 1_555 1_555
C23 O1 1_555 1_555
C24 C5 1_555 1_555
C25 O6 1_555 1_555
C26 C15 1_555 1_555
C27 C25 1_555 1_555
H15 C27 1_555 1_555
C28 O5 1_555 1_555
C29 C21 1_555 1_555
H16 C29 1_555 1_555
C30 C18 1_555 1_555
H17 C30 1_555 1_555
H18 C30 1_555 1_555
O8 H19 1_555 1_555
H20 O8 1_555 1_555
C3 C23 1_555 1_555
C4 C10 1_555 1_555
C5 C25 1_555 1_555
C6 C17 1_555 1_555
C7 C10 1_555 1_555
C9 C24 1_555 1_555
C11 C16 1_555 1_555
C12 C23 1_555 1_555
C13 C16 1_555 1_555
C13 C18 1_555 1_555
C15 C28 1_555 1_555
C19 C22 1_555 1_555
C20 C28 1_555 1_555
C26 C30 1_555 1_555
C27 C29 1_555 1_555

#END
