
#######################################################################
#
#                 Cambridge Crystallographic Data Centre
#                                CCDC 
#
#######################################################################
#
# If this CIF has been generated from an entry in the Cambridge 
# Structural Database, then it will include bibliographic, chemical, 
# crystal, experimental, refinement or atomic coordinate data resulting 
# from the CCDC's data processing and validation procedures.
#
#######################################################################

data_IZUHIW
_chemical_formula_moiety         'C39 H38 Si1'
_chemical_name_systematic        
tri-isopropyl((13-phenylpentacen-6-yl)ethynyl)silane
_symmetry_cell_setting           monoclinic
_symmetry_space_group_name_H-M   'C 2/c'
_symmetry_Int_Tables_number      15
_space_group_name_Hall           '-C 2yn'
loop_
_symmetry_equiv_pos_site_id
_symmetry_equiv_pos_as_xyz
1 x,y,z
2 -x,y,1/2-z
3 1/2+x,1/2+y,z
4 1/2-x,1/2+y,1/2-z
5 -x,-y,-z
6 x,-y,1/2+z
7 1/2-x,1/2-y,-z
8 1/2+x,1/2-y,1/2+z
_cell_length_a                   22.6564(6)
_cell_length_b                   23.1461(9)
_cell_length_c                   11.8317(3)
_cell_angle_alpha                90
_cell_angle_beta                 104.470(2)
_cell_angle_gamma                90
_cell_volume                     6007.81
_exptl_crystal_colour            colorless
_exptl_crystal_description       block
_cell_formula_units_Z            8
loop_
_atom_site_label
_atom_site_type_symbol
_atom_site_fract_x
_atom_site_fract_y
_atom_site_fract_z
Si1 Si 0.12067(2) 0.19520(2) 0.48504(4)
C1 C 0.18626(8) 0.26506(8) 0.69572(15)
C2 C 0.16003(8) 0.23460(8) 0.61660(16)
C3 C 0.18064(8) 0.16106(8) 0.42221(17)
H1 H 0.2097 0.1925 0.4144
C4 C 0.15432(9) 0.13699(9) 0.30015(18)
H2 H 0.1871 0.1197 0.2709
H3 H 0.1353 0.1683 0.2479
H4 H 0.1237 0.1075 0.3031
C5 C 0.21785(11) 0.11511(12) 0.5009(2)
H5 H 0.2482 0.0990 0.4635
H6 H 0.1907 0.0842 0.5140
H7 H 0.2386 0.1325 0.5758
C6 C 0.07008(8) 0.13875(8) 0.52585(16)
H8 H 0.0964 0.1043 0.5529
C7 C 0.01916(9) 0.11859(11) 0.42266(19)
H9 H -0.0056 0.0893 0.4492
H10 H 0.0370 0.1020 0.3626
H11 H -0.0066 0.1516 0.3900
C8 C 0.04307(10) 0.15600(10) 0.62651(18)
H12 H 0.0174 0.1246 0.6427
H13 H 0.0184 0.1910 0.6055
H14 H 0.0761 0.1635 0.6962
C9 C 0.07832(9) 0.25057(9) 0.38092(16)
H15 H 0.0583 0.2304 0.3065
C10 C 0.02845(10) 0.28129(10) 0.42464(19)
H16 H 0.0080 0.3097 0.3665
H17 H 0.0468 0.3010 0.4983
H18 H -0.0013 0.2528 0.4371
C11 C 0.12285(12) 0.29499(10) 0.3536(2)
H19 H 0.1002 0.3238 0.2990
H20 H 0.1523 0.2754 0.3185
H21 H 0.1446 0.3141 0.4260
C12 C 0.21816(7) 0.30181(8) 0.78795(14)
C13 C 0.19863(8) 0.35881(8) 0.79470(15)
C14 C 0.14687(8) 0.38043(8) 0.71478(16)
H22 H 0.1258 0.3561 0.6532
C15 C 0.12554(8) 0.43545(8) 0.72228(16)
C16 C 0.07060(9) 0.45585(9) 0.64526(18)
H23 H 0.0490 0.4317 0.5838
C17 C 0.04894(9) 0.50885(9) 0.65850(19)
H24 H 0.0119 0.5214 0.6074
C18 C 0.08102(9) 0.54604(9) 0.7481(2)
H25 H 0.0651 0.5834 0.7562
C19 C 0.13365(9) 0.52935(8) 0.82182(19)
H26 H 0.1548 0.5552 0.8804
C20 C 0.15801(8) 0.47318(8) 0.81289(16)
C21 C 0.21025(8) 0.45348(8) 0.88940(16)
H27 H 0.2325 0.4792 0.9470
C22 C 0.23207(8) 0.39654(8) 0.88585(15)
C23 C 0.28429(7) 0.37592(8) 0.96605(15)
C24 C 0.30311(7) 0.31811(8) 0.96049(14)
C25 C 0.35389(8) 0.29504(8) 1.04155(15)
H28 H 0.3759 0.3191 1.1028
C26 C 0.37278(7) 0.23894(8) 1.03531(15)
C27 C 0.42448(8) 0.21535(9) 1.11730(16)
H29 H 0.4464 0.2386 1.1799
C28 C 0.44243(9) 0.16062(9) 1.10691(17)
H30 H 0.4771 0.1459 1.1620
C29 C 0.41054(8) 0.12464(9) 1.01546(18)
H31 H 0.4239 0.0861 1.0099
C30 C 0.36142(8) 0.14468(8) 0.93617(17)
H32 H 0.3406 0.1201 0.8747
C31 C 0.34031(8) 0.20202(8) 0.94319(15)
C32 C 0.28949(8) 0.22372(8) 0.86469(15)
H33 H 0.2672 0.1991 0.8047
C33 C 0.26972(7) 0.28038(8) 0.87031(15)
C34 C 0.32116(8) 0.41496(8) 1.05673(16)
C35 C 0.37773(8) 0.43357(9) 1.04683(19)
H34 H 0.3921 0.4223 0.9812
C36 C 0.41353(9) 0.46851(9) 1.1317(2)
H35 H 0.4524 0.4808 1.1243
C37 C 0.39332(10) 0.48535(9) 1.2259(2)
H36 H 0.4181 0.5093 1.2841
C38 C 0.33738(11) 0.46786(9) 1.23671(19)
H37 H 0.3231 0.4798 1.3020
C39 C 0.30150(9) 0.43270(9) 1.15225(17)
H38 H 0.2627 0.4206 1.1603
loop_
_geom_bond_atom_site_label_1
_geom_bond_atom_site_label_2
_geom_bond_site_symmetry_1
_geom_bond_site_symmetry_2
Si1 C2 1_555 1_555
C1 C2 1_555 1_555
C3 Si1 1_555 1_555
H1 C3 1_555 1_555
C4 C3 1_555 1_555
H2 C4 1_555 1_555
H3 C4 1_555 1_555
H4 C4 1_555 1_555
C5 C3 1_555 1_555
H5 C5 1_555 1_555
H6 C5 1_555 1_555
H7 C5 1_555 1_555
C6 Si1 1_555 1_555
H8 C6 1_555 1_555
C7 C6 1_555 1_555
H9 C7 1_555 1_555
H10 C7 1_555 1_555
H11 C7 1_555 1_555
C8 C6 1_555 1_555
H12 C8 1_555 1_555
H13 C8 1_555 1_555
H14 C8 1_555 1_555
C9 Si1 1_555 1_555
H15 C9 1_555 1_555
C10 C9 1_555 1_555
H16 C10 1_555 1_555
H17 C10 1_555 1_555
H18 C10 1_555 1_555
C11 C9 1_555 1_555
H19 C11 1_555 1_555
H20 C11 1_555 1_555
H21 C11 1_555 1_555
C12 C1 1_555 1_555
C13 C12 1_555 1_555
C14 C13 1_555 1_555
H22 C14 1_555 1_555
C15 C14 1_555 1_555
C16 C15 1_555 1_555
H23 C16 1_555 1_555
C17 C16 1_555 1_555
H24 C17 1_555 1_555
C18 C17 1_555 1_555
H25 C18 1_555 1_555
C19 C18 1_555 1_555
H26 C19 1_555 1_555
C20 C15 1_555 1_555
C21 C20 1_555 1_555
H27 C21 1_555 1_555
C22 C13 1_555 1_555
C23 C22 1_555 1_555
C24 C23 1_555 1_555
C25 C24 1_555 1_555
H28 C25 1_555 1_555
C26 C25 1_555 1_555
C27 C26 1_555 1_555
H29 C27 1_555 1_555
C28 C27 1_555 1_555
H30 C28 1_555 1_555
C29 C28 1_555 1_555
H31 C29 1_555 1_555
C30 C29 1_555 1_555
H32 C30 1_555 1_555
C31 C26 1_555 1_555
C32 C31 1_555 1_555
H33 C32 1_555 1_555
C33 C12 1_555 1_555
C34 C23 1_555 1_555
C35 C34 1_555 1_555
H34 C35 1_555 1_555
C36 C35 1_555 1_555
H35 C36 1_555 1_555
C37 C36 1_555 1_555
H36 C37 1_555 1_555
C38 C37 1_555 1_555
H37 C38 1_555 1_555
C39 C34 1_555 1_555
H38 C39 1_555 1_555
C19 C20 1_555 1_555
C21 C22 1_555 1_555
C24 C33 1_555 1_555
C30 C31 1_555 1_555
C32 C33 1_555 1_555
C38 C39 1_555 1_555

#END
