
#######################################################################
#
#                 Cambridge Crystallographic Data Centre
#                                CCDC 
#
#######################################################################
#
# If this CIF has been generated from an entry in the Cambridge 
# Structural Database, then it will include bibliographic, chemical, 
# crystal, experimental, refinement or atomic coordinate data resulting 
# from the CCDC's data processing and validation procedures.
#
#######################################################################

data_IZUVIK
_chemical_formula_moiety         'C29 H49 N1 O5 Si2'
_chemical_name_systematic        
3-(1,4-bis((t-butyl(dimethyl)silyl)oxy)cyclohex-2-en-1-yl)-1-((4-methoxybenzyl)oxy)azetidin-2-one
_symmetry_cell_setting           monoclinic
_symmetry_space_group_name_H-M   'P 21'
_symmetry_Int_Tables_number      4
_space_group_name_Hall           'P 2yb'
loop_
_symmetry_equiv_pos_site_id
_symmetry_equiv_pos_as_xyz
1 x,y,z
2 -x,1/2+y,-z
_cell_length_a                   15.739(7)
_cell_length_b                   6.567(3)
_cell_length_c                   16.007(7)
_cell_angle_alpha                90
_cell_angle_beta                 104.164(11)
_cell_angle_gamma                90
_cell_volume                     1604.16
_exptl_crystal_colour            colorless
_exptl_crystal_description       needle
_cell_formula_units_Z            2
loop_
_atom_site_label
_atom_site_type_symbol
_atom_site_fract_x
_atom_site_fract_y
_atom_site_fract_z
O1 O 0.5825(7) -0.1114(16) 0.9224(7)
C1 C 0.5875(10) 0.071(2) 0.9338(9)
N1 N 0.6611(9) 0.195(2) 0.9597(8)
C2 C 0.6119(10) 0.381(2) 0.9707(10)
H1 H 0.6233 0.4992 0.9369
H2 H 0.6159 0.4181 1.0315
C3 C 0.5291(10) 0.258(2) 0.9277(9)
H3 H 0.4893 0.2449 0.9674
C4 C 0.4763(11) 0.325(2) 0.8354(10)
C5 C 0.4387(10) 0.539(2) 0.8417(8)
H4 H 0.4787 0.6490 0.8580
C6 C 0.3543(11) 0.579(2) 0.8257(9)
H5 H 0.3360 0.7163 0.8284
C7 C 0.2856(10) 0.414(3) 0.8032(8)
H6 H 0.2366 0.4460 0.8309
C8 C 0.3231(10) 0.207(2) 0.8331(10)
H7 H 0.2790 0.1002 0.8112
H8 H 0.3390 0.2015 0.8968
C9 C 0.4049(10) 0.172(2) 0.7985(9)
H9 H 0.4273 0.0326 0.8137
H10 H 0.3886 0.1835 0.7349
O2 O 0.7419(7) 0.1334(16) 1.0135(7)
C10 C 0.7955(11) 0.050(3) 0.9604(10)
H11 H 0.8233 0.1609 0.9347
H12 H 0.7593 -0.0329 0.9132
C11 C 0.8641(12) -0.080(3) 1.0176(10)
C12 C 0.9506(12) -0.001(3) 1.0526(11)
H13 H 0.9652 0.1311 1.0359
C13 C 1.0112(15) -0.110(4) 1.1087(13)
H14 H 1.0667 -0.0512 1.1338
C14 C 0.9957(14) -0.290(3) 1.1282(12)
C15 C 0.9181(13) -0.389(3) 1.0995(11)
H15 H 0.9098 -0.5238 1.1178
C16 C 0.8477(14) -0.279(3) 1.0389(12)
H16 H 0.7928 -0.3425 1.0150
O3 O 1.0698(9) -0.385(3) 1.1894(10)
C17 C 1.0558(14) -0.580(3) 1.2154(12)
H17 H 1.0315 -0.6642 1.1647
H18 H 1.0145 -0.5756 1.2523
H19 H 1.1115 -0.6381 1.2476
O4 O 0.5430(7) 0.3332(15) 0.7859(6)
Si1 Si 0.5461(3) 0.4328(7) 0.6927(3)
C18 C 0.4827(12) 0.279(3) 0.5994(10)
H20 H 0.4203 0.3134 0.5884
H21 H 0.4906 0.1335 0.6131
H22 H 0.5039 0.3091 0.5481
C19 C 0.5092(11) 0.705(2) 0.6768(10)
H23 H 0.5306 0.7800 0.7307
H24 H 0.4450 0.7095 0.6601
H25 H 0.5326 0.7662 0.6314
C20 C 0.6691(11) 0.418(3) 0.6966(10)
C21 C 0.6948(11) 0.189(3) 0.7041(11)
H26 H 0.7556 0.1739 0.7001
H27 H 0.6561 0.1127 0.6573
H28 H 0.6890 0.1361 0.7597
C22 C 0.6867(12) 0.509(3) 0.6148(11)
H29 H 0.6402 0.4677 0.5650
H30 H 0.7433 0.4597 0.6076
H31 H 0.6881 0.6578 0.6193
C23 C 0.7187(11) 0.538(3) 0.7732(12)
H32 H 0.7767 0.5733 0.7654
H33 H 0.7252 0.4561 0.8255
H34 H 0.6864 0.6630 0.7785
O5 O 0.2519(7) 0.4133(18) 0.7096(6)
Si2 Si 0.1624(3) 0.5313(7) 0.6558(3)
C24 C 0.0625(10) 0.414(3) 0.6799(10)
H35 H 0.0631 0.4375 0.7405
H36 H 0.0624 0.2669 0.6689
H37 H 0.0099 0.4754 0.6430
C25 C 0.1640(12) 0.808(3) 0.6882(11)
H38 H 0.2161 0.8738 0.6773
H39 H 0.1656 0.8175 0.7496
H40 H 0.1113 0.8756 0.6544
C26 C 0.1670(11) 0.495(2) 0.5397(10)
C27 C 0.1716(12) 0.269(3) 0.5176(11)
H41 H 0.2280 0.2130 0.5491
H42 H 0.1657 0.2543 0.4555
H43 H 0.1240 0.1956 0.5339
C28 C 0.2486(12) 0.604(3) 0.5228(11)
H44 H 0.2483 0.5915 0.4617
H45 H 0.3019 0.5408 0.5580
H46 H 0.2473 0.7482 0.5380
C29 C 0.0863(11) 0.591(3) 0.4799(10)
H47 H 0.0341 0.5125 0.4824
H48 H 0.0932 0.5913 0.4207
H49 H 0.0797 0.7316 0.4982
loop_
_geom_bond_atom_site_label_1
_geom_bond_atom_site_label_2
_geom_bond_site_symmetry_1
_geom_bond_site_symmetry_2
O1 C1 1_555 1_555
C1 N1 1_555 1_555
N1 C2 1_555 1_555
C2 H1 1_555 1_555
H2 C2 1_555 1_555
C3 C1 1_555 1_555
H3 C3 1_555 1_555
C4 C3 1_555 1_555
C5 C4 1_555 1_555
H4 C5 1_555 1_555
C6 C5 1_555 1_555
H5 C6 1_555 1_555
C7 C6 1_555 1_555
H6 C7 1_555 1_555
C8 C7 1_555 1_555
H7 C8 1_555 1_555
H8 C8 1_555 1_555
C9 C4 1_555 1_555
H9 C9 1_555 1_555
H10 C9 1_555 1_555
O2 N1 1_555 1_555
C10 O2 1_555 1_555
H11 C10 1_555 1_555
H12 C10 1_555 1_555
C11 C10 1_555 1_555
C12 C11 1_555 1_555
H13 C12 1_555 1_555
C13 C12 1_555 1_555
H14 C13 1_555 1_555
C14 C13 1_555 1_555
C15 C14 1_555 1_555
H15 C15 1_555 1_555
C16 C11 1_555 1_555
H16 C16 1_555 1_555
O3 C14 1_555 1_555
C17 O3 1_555 1_555
H17 C17 1_555 1_555
H18 C17 1_555 1_555
H19 C17 1_555 1_555
O4 C4 1_555 1_555
Si1 O4 1_555 1_555
C18 Si1 1_555 1_555
H20 C18 1_555 1_555
H21 C18 1_555 1_555
H22 C18 1_555 1_555
C19 Si1 1_555 1_555
H23 C19 1_555 1_555
H24 C19 1_555 1_555
H25 C19 1_555 1_555
C20 Si1 1_555 1_555
C21 C20 1_555 1_555
H26 C21 1_555 1_555
H27 C21 1_555 1_555
H28 C21 1_555 1_555
C22 C20 1_555 1_555
H29 C22 1_555 1_555
H30 C22 1_555 1_555
H31 C22 1_555 1_555
C23 C20 1_555 1_555
H32 C23 1_555 1_555
H33 C23 1_555 1_555
H34 C23 1_555 1_555
O5 C7 1_555 1_555
Si2 O5 1_555 1_555
C24 Si2 1_555 1_555
H35 C24 1_555 1_555
H36 C24 1_555 1_555
H37 C24 1_555 1_555
C25 Si2 1_555 1_555
H38 C25 1_555 1_555
H39 C25 1_555 1_555
H40 C25 1_555 1_555
C26 Si2 1_555 1_555
C27 C26 1_555 1_555
H41 C27 1_555 1_555
H42 C27 1_555 1_555
H43 C27 1_555 1_555
C28 C26 1_555 1_555
H44 C28 1_555 1_555
H45 C28 1_555 1_555
H46 C28 1_555 1_555
C29 C26 1_555 1_555
H47 C29 1_555 1_555
H48 C29 1_555 1_555
H49 C29 1_555 1_555
C2 C3 1_555 1_555
C8 C9 1_555 1_555
C15 C16 1_555 1_555

#END
