
#######################################################################
#
#                 Cambridge Crystallographic Data Centre
#                                CCDC 
#
#######################################################################
#
# If this CIF has been generated from an entry in the Cambridge 
# Structural Database, then it will include bibliographic, chemical, 
# crystal, experimental, refinement or atomic coordinate data resulting 
# from the CCDC's data processing and validation procedures.
#
#######################################################################

data_JABDUO
_chemical_formula_moiety         'C15 H21 N3 O5'
_chemical_name_systematic        
5-azido-1,5,9-trimethyl-11,14,15,16-tetraoxatetracyclo[10.3.1.0^4,13^.0^8,13^]hexadecan-10-one
_symmetry_cell_setting           monoclinic
_symmetry_space_group_name_H-M   'P 21'
_symmetry_Int_Tables_number      4
_space_group_name_Hall           'P 2yb'
loop_
_symmetry_equiv_pos_site_id
_symmetry_equiv_pos_as_xyz
1 x,y,z
2 -x,1/2+y,-z
_cell_length_a                   6.359(2)
_cell_length_b                   22.998(5)
_cell_length_c                   32.023(7)
_cell_angle_alpha                90
_cell_angle_beta                 90.0100(10)
_cell_angle_gamma                90
_cell_volume                     4683.18
_exptl_crystal_colour            colorless
_exptl_crystal_description       prism
_cell_formula_units_Z            12
loop_
_atom_site_label
_atom_site_type_symbol
_atom_site_fract_x
_atom_site_fract_y
_atom_site_fract_z
O1 O 0.6652(11) 0.9828(3) 0.0984(2)
O2 O 0.4611(11) 1.0154(3) 0.09764(18)
O3 O 0.2994(10) 0.8979(3) 0.08479(17)
O4 O 0.2896(12) 0.8534(3) 0.0240(2)
O5 O 0.2847(10) 0.9563(3) 0.14269(16)
N1 N 0.5879(12) 0.8477(3) 0.1985(2)
N2 N 0.5964(12) 0.7979(3) 0.2128(2)
N3 N 0.5865(17) 0.7533(3) 0.2264(2)
C1 C 0.6371(12) 0.9264(4) 0.1184(2)
C2 C 0.4057(14) 0.9124(4) 0.1235(2)
H1 H 0.3967 0.8773 0.1419
C3 C 0.3946(19) 0.8755(4) 0.0512(3)
C4 C 0.6306(16) 0.8830(5) 0.0471(3)
H2 H 0.6522 0.9224 0.0346
C5 C 0.7466(14) 0.8838(5) 0.0898(2)
H3 H 0.8920 0.8988 0.0848
C6 C 0.7672(16) 0.8239(4) 0.1100(3)
H4 H 0.6259 0.8078 0.1159
H5 H 0.8414 0.7971 0.0909
C7 C 0.8900(14) 0.8300(4) 0.1505(3)
H6 H 1.0339 0.8436 0.1438
H7 H 0.9023 0.7912 0.1636
C8 C 0.7925(14) 0.8721(4) 0.1822(3)
C9 C 0.7452(14) 0.9314(4) 0.1607(2)
H8 H 0.8849 0.9499 0.1553
C10 C 0.6277(16) 0.9724(4) 0.1918(2)
H9 H 0.5145 0.9501 0.2057
H10 H 0.7278 0.9851 0.2136
C11 C 0.5322(15) 1.0257(4) 0.1715(3)
H11 H 0.4607 1.0490 0.1933
H12 H 0.6469 1.0498 0.1598
C12 C 0.3764(15) 1.0126(3) 0.1372(3)
C13 C 0.724(2) 0.8388(8) 0.0149(3)
H13 H 0.6792 0.7993 0.0222
H14 H 0.8780 0.8410 0.0155
H15 H 0.6736 0.8484 -0.0132
C14 C 0.9440(15) 0.8788(4) 0.2182(3)
H16 H 0.8765 0.9009 0.2407
H17 H 1.0698 0.8995 0.2087
H18 H 0.9842 0.8403 0.2286
C15 C 0.1844(19) 1.0548(5) 0.1371(3)
H19 H 0.2341 1.0950 0.1343
H20 H 0.1069 1.0507 0.1634
H21 H 0.0914 1.0453 0.1137
O6 O 0.1326(11) 0.5556(3) 0.06276(19)
O7 O -0.0707(12) 0.5250(3) 0.0683(2)
O8 O -0.2173(11) 0.6437(3) 0.0839(2)
O9 O -0.1941(12) 0.6871(3) 0.1436(2)
O10 O -0.2604(12) 0.5866(3) 0.0254(2)
N4 N 0.031(2) 0.6919(5) -0.0343(3)
N5 N 0.045(3) 0.7403(6) -0.0530(4)
N6 N 0.038(3) 0.7837(8) -0.0686(4)
C16 C 0.0991(17) 0.6118(5) 0.0433(3)
C17 C -0.1283(15) 0.6291(5) 0.0434(3)
H22 H -0.1402 0.6647 0.0257
C18 C -0.0975(15) 0.6647(3) 0.1156(2)
C19 C 0.1355(17) 0.6551(4) 0.1149(2)
H23 H 0.1588 0.6153 0.1267
C20 C 0.2307(16) 0.6540(5) 0.0703(3)
H24 H 0.3753 0.6372 0.0726
C21 C 0.2511(18) 0.7116(5) 0.0491(3)
H25 H 0.3347 0.7381 0.0670
H26 H 0.1097 0.7289 0.0455
C22 C 0.3584(19) 0.7060(5) 0.0059(3)
H27 H 0.3637 0.7449 -0.0073
H28 H 0.5049 0.6926 0.0100
C23 C 0.248(2) 0.6646(5) -0.0229(3)
C24 C 0.1936(19) 0.6076(5) -0.0019(3)
H29 H 0.3315 0.5873 0.0018
C25 C 0.064(2) 0.5670(6) -0.0289(3)
H30 H 0.1556 0.5520 -0.0514
H31 H -0.0484 0.5902 -0.0424
C26 C -0.042(2) 0.5140(6) -0.0072(4)
H32 H -0.1297 0.4935 -0.0281
H33 H 0.0702 0.4867 0.0017
C27 C -0.1794(18) 0.5279(5) 0.0309(4)
C28 C 0.2464(15) 0.6969(4) 0.1441(3)
H34 H 0.2360 0.7365 0.1330
H35 H 0.3949 0.6859 0.1466
H36 H 0.1802 0.6953 0.1718
C29 C 0.375(3) 0.6566(6) -0.0628(3)
H37 H 0.3910 0.6942 -0.0768
H38 H 0.3011 0.6295 -0.0814
H39 H 0.5135 0.6409 -0.0558
C30 C -0.364(2) 0.4880(6) 0.0358(5)
H40 H -0.3151 0.4476 0.0360
H41 H -0.4617 0.4938 0.0125
H42 H -0.4358 0.4966 0.0622
O11 O 0.1418(11) 0.5517(3) 0.4280(2)
O12 O -0.0544(12) 0.5190(3) 0.4319(2)
O13 O -0.2323(11) 0.6361(3) 0.4417(2)
O14 O -0.2375(12) 0.6856(4) 0.5006(3)
O15 O -0.2440(12) 0.5750(3) 0.3858(2)
N7 N 0.0587(16) 0.6841(4) 0.3279(3)
N8 N 0.0659(16) 0.7111(3) 0.2959(3)
N9 N 0.055(2) 0.7375(5) 0.2642(3)
C31 C 0.1099(15) 0.6085(4) 0.4078(3)
C32 C -0.1318(15) 0.6198(4) 0.4021(3)
H43 H -0.1473 0.6535 0.3826
C33 C -0.1296(18) 0.6615(4) 0.4751(3)
C34 C 0.1019(16) 0.6528(5) 0.4778(3)
H44 H 0.1223 0.6132 0.4901
C35 C 0.2142(14) 0.6519(4) 0.4359(3)
H45 H 0.3605 0.6378 0.4411
C36 C 0.2324(17) 0.7111(4) 0.4149(3)
H46 H 0.3059 0.7387 0.4336
H47 H 0.0906 0.7267 0.4089
C37 C 0.3581(15) 0.7039(4) 0.3735(3)
H48 H 0.3674 0.7423 0.3596
H49 H 0.5031 0.6915 0.3804
C38 C 0.2641(19) 0.6604(5) 0.3429(3)
C39 C 0.2163(16) 0.6018(4) 0.3639(3)
H50 H 0.3569 0.5839 0.3696
C40 C 0.104(2) 0.5590(5) 0.3372(4)
H51 H 0.2065 0.5450 0.3161
H52 H -0.0055 0.5807 0.3217
C41 C -0.002(2) 0.5054(6) 0.3556(3)
H53 H -0.0766 0.4845 0.3330
H54 H 0.1082 0.4791 0.3667
C42 C -0.1552(18) 0.5193(5) 0.3900(3)
C43 C 0.1948(17) 0.6947(5) 0.5088(4)
H55 H 0.3427 0.6848 0.5138
H56 H 0.1170 0.6923 0.5352
H57 H 0.1853 0.7344 0.4978
C44 C 0.411(2) 0.6511(6) 0.3060(4)
H58 H 0.3437 0.6251 0.2858
H59 H 0.5424 0.6337 0.3158
H60 H 0.4407 0.6886 0.2927
C45 C -0.339(2) 0.4774(6) 0.3953(5)
H61 H -0.3918 0.4798 0.4240
H62 H -0.2915 0.4376 0.3896
H63 H -0.4514 0.4878 0.3758
O16 O 0.8519(10) 0.0759(3) 0.2503(2)
O17 O 1.0506(11) 0.0412(3) 0.24800(18)
O18 O 1.2329(11) 0.1564(4) 0.2401(2)
O19 O 1.2584(13) 0.2052(4) 0.1824(3)
O20 O 1.2273(12) 0.0969(3) 0.2971(2)
N10 N 0.9248(17) 0.2050(4) 0.3523(3)
N11 N 0.9145(18) 0.2492(4) 0.3720(3)
N12 N 0.923(2) 0.2874(6) 0.3955(4)
C46 C 0.8842(16) 0.1307(4) 0.2719(4)
C47 C 1.1143(16) 0.1422(4) 0.2790(3)
H64 H 1.1256 0.1765 0.2980
C48 C 1.1317(17) 0.1827(4) 0.2082(3)
C49 C 0.8973(18) 0.1780(4) 0.2029(4)
H65 H 0.8732 0.1393 0.1894
C50 C 0.7871(15) 0.1746(4) 0.2445(4)
H66 H 0.6416 0.1604 0.2385
C51 C 0.7611(18) 0.2324(4) 0.2668(5)
H67 H 0.6935 0.2605 0.2476
H68 H 0.9016 0.2478 0.2742
C52 C 0.625(2) 0.2269(4) 0.3075(5)
H69 H 0.6192 0.2650 0.3218
H70 H 0.4793 0.2158 0.2998
C53 C 0.714(2) 0.1821(4) 0.3370(4)
C54 C 0.7669(17) 0.1244(4) 0.3145(3)
H71 H 0.6279 0.1065 0.3075
C55 C 0.8707(18) 0.0823(5) 0.3424(3)
H72 H 0.7671 0.0699 0.3637
H73 H 0.9852 0.1029 0.3573
C56 C 0.9645(19) 0.0273(4) 0.3224(3)
H74 H 0.8497 0.0053 0.3088
H75 H 1.0236 0.0025 0.3447
C57 C 1.1383(16) 0.0391(4) 0.2897(3)
C58 C 0.821(2) 0.2219(6) 0.1719(5)
H76 H 0.6765 0.2126 0.1638
H77 H 0.9119 0.2212 0.1472
H78 H 0.8253 0.2607 0.1846
C59 C 0.559(2) 0.1731(5) 0.3720(5)
H79 H 0.6302 0.1537 0.3954
H80 H 0.4427 0.1489 0.3622
H81 H 0.5052 0.2108 0.3813
C60 C 1.3153(18) -0.0026(5) 0.2889(3)
H82 H 1.2605 -0.0422 0.2858
H83 H 1.3946 0.0003 0.3151
H84 H 1.4081 0.0065 0.2654
O21 O 0.3823(12) 0.5080(3) 0.2449(3)
O22 O 0.5829(12) 0.5385(3) 0.2513(3)
O23 O 0.7408(11) 0.4203(3) 0.2603(3)
O24 O 0.7291(15) 0.3704(3) 0.3183(3)
O25 O 0.7791(10) 0.4820(3) 0.2050(2)
N13 N 0.4892(16) 0.3804(5) 0.1397(4)
N14 N 0.480(2) 0.3390(6) 0.1174(5)
N15 N 0.492(2) 0.3020(8) 0.0929(4)
C61 C 0.4153(18) 0.4537(3) 0.2229(4)
C62 C 0.6470(19) 0.4387(4) 0.2213(4)
H85 H 0.6595 0.4047 0.2019
C63 C 0.6322(16) 0.3949(4) 0.2941(4)
C64 C 0.391(2) 0.4035(5) 0.2894(6)
H86 H 0.3681 0.4430 0.3017
C65 C 0.2999(16) 0.4088(4) 0.2484(5)
H87 H 0.1539 0.4240 0.2524
C66 C 0.2782(19) 0.3499(4) 0.2240(5)
H88 H 0.1913 0.3225 0.2404
H89 H 0.4189 0.3324 0.2201
C67 C 0.1723(18) 0.3607(4) 0.1800(6)
H90 H 0.1693 0.3236 0.1643
H91 H 0.0249 0.3733 0.1843
C68 C 0.2773(19) 0.4031(4) 0.1555(6)
C69 C 0.3267(18) 0.4609(4) 0.1771(4)
H92 H 0.1868 0.4801 0.1808
C70 C 0.454(2) 0.5034(5) 0.1534(5)
H93 H 0.3662 0.5177 0.1300
H94 H 0.5736 0.4821 0.1409
C71 C 0.5420(19) 0.5559(4) 0.1755(4)
H95 H 0.4243 0.5798 0.1862
H96 H 0.6215 0.5798 0.1552
C72 C 0.6897(17) 0.5397(4) 0.2125(4)
C73 C 0.286(2) 0.3609(6) 0.3238(6)
H97 H 0.1417 0.3737 0.3296
H98 H 0.3685 0.3620 0.3495
H99 H 0.2830 0.3210 0.3129
C74 C 0.145(2) 0.4157(6) 0.1142(6)
H100 H 0.0615 0.3814 0.1070
H101 H 0.2414 0.4247 0.0912
H102 H 0.0513 0.4489 0.1189
C75 C 0.877(2) 0.5815(5) 0.2182(4)
H103 H 0.8257 0.6217 0.2194
H104 H 0.9743 0.5773 0.1947
H105 H 0.9506 0.5723 0.2443
O26 O 0.3640(10) 0.4810(3) 0.59731(16)
O27 O 0.5569(12) 0.5145(3) 0.5978(2)
O28 O 0.7350(10) 0.3980(3) 0.60876(17)
O29 O 0.7572(12) 0.3504(3) 0.6681(2)
O30 O 0.7327(10) 0.4561(3) 0.55107(19)
N16 N 0.4272(14) 0.3448(4) 0.4996(2)
N17 N 0.4257(18) 0.3193(4) 0.4645(2)
N18 N 0.442(3) 0.2963(10) 0.4353(4)
C76 C 0.3922(14) 0.4248(3) 0.5757(2)
C77 C 0.6195(14) 0.4108(4) 0.5702(2)
H106 H 0.6295 0.3759 0.5517
C78 C 0.6457(12) 0.3733(4) 0.6423(2)
C79 C 0.4139(14) 0.3807(3) 0.6478(2)
H107 H 0.3939 0.4202 0.6602
C80 C 0.2863(13) 0.3804(3) 0.6064(2)
H108 H 0.1417 0.3949 0.6128
C81 C 0.2644(15) 0.3219(4) 0.5850(2)
H109 H 0.4057 0.3065 0.5782
H110 H 0.1953 0.2941 0.6043
C82 C 0.1364(13) 0.3270(4) 0.5455(2)
H111 H -0.0083 0.3388 0.5531
H112 H 0.1275 0.2880 0.5324
C83 C 0.2201(15) 0.3699(4) 0.5129(2)
C84 C 0.2718(13) 0.4303(4) 0.5345(2)
H113 H 0.1336 0.4487 0.5414
C85 C 0.3849(16) 0.4724(4) 0.5040(2)
H114 H 0.4994 0.4508 0.4899
H115 H 0.2832 0.4844 0.4822
C86 C 0.4790(17) 0.5274(4) 0.5238(3)
H116 H 0.3645 0.5511 0.5360
H117 H 0.5479 0.5510 0.5018
C87 C 0.6425(19) 0.5125(5) 0.5583(3)
C88 C 0.3219(17) 0.3372(4) 0.6801(3)
H118 H 0.3415 0.2973 0.6699
H119 H 0.1716 0.3449 0.6839
H120 H 0.3948 0.3418 0.7069
C89 C 0.0646(16) 0.3788(5) 0.4775(3)
H121 H 0.1307 0.4018 0.4554
H122 H -0.0596 0.3993 0.4880
H123 H 0.0222 0.3409 0.4663
C90 C 0.823(2) 0.5561(6) 0.5585(4)
H124 H 0.7715 0.5938 0.5685
H125 H 0.8781 0.5604 0.5301
H126 H 0.9347 0.5422 0.5770
loop_
_geom_bond_atom_site_label_1
_geom_bond_atom_site_label_2
_geom_bond_site_symmetry_1
_geom_bond_site_symmetry_2
O1 O2 1_555 1_555
O2 C12 1_555 1_555
O3 C2 1_555 1_555
O4 C3 1_555 1_555
O5 C2 1_555 1_555
N1 N2 1_555 1_555
N2 N3 1_555 1_555
C1 O1 1_555 1_555
C2 C1 1_555 1_555
H1 C2 1_555 1_555
C3 O3 1_555 1_555
C4 C3 1_555 1_555
H2 C4 1_555 1_555
C5 C1 1_555 1_555
H3 C5 1_555 1_555
C6 C5 1_555 1_555
H4 C6 1_555 1_555
H5 C6 1_555 1_555
C7 C6 1_555 1_555
H6 C7 1_555 1_555
H7 C7 1_555 1_555
C8 N1 1_555 1_555
C9 C1 1_555 1_555
H8 C9 1_555 1_555
C10 C9 1_555 1_555
H9 C10 1_555 1_555
H10 C10 1_555 1_555
C11 C10 1_555 1_555
H11 C11 1_555 1_555
H12 C11 1_555 1_555
C12 O5 1_555 1_555
C13 C4 1_555 1_555
H13 C13 1_555 1_555
H14 C13 1_555 1_555
H15 C13 1_555 1_555
C14 C8 1_555 1_555
H16 C14 1_555 1_555
H17 C14 1_555 1_555
H18 C14 1_555 1_555
C15 C12 1_555 1_555
H19 C15 1_555 1_555
H20 C15 1_555 1_555
H21 C15 1_555 1_555
O6 O7 1_555 1_555
O7 C27 1_555 1_555
O8 C17 1_555 1_555
O9 C18 1_555 1_555
O10 C17 1_555 1_555
N4 N5 1_555 1_555
N5 N6 1_555 1_555
C16 O6 1_555 1_555
C17 C16 1_555 1_555
H22 C17 1_555 1_555
C18 O8 1_555 1_555
C19 C18 1_555 1_555
H23 C19 1_555 1_555
C20 C16 1_555 1_555
H24 C20 1_555 1_555
C21 C20 1_555 1_555
H25 C21 1_555 1_555
H26 C21 1_555 1_555
C22 C21 1_555 1_555
H27 C22 1_555 1_555
H28 C22 1_555 1_555
C23 N4 1_555 1_555
C24 C16 1_555 1_555
H29 C24 1_555 1_555
C25 C24 1_555 1_555
H30 C25 1_555 1_555
H31 C25 1_555 1_555
C26 C25 1_555 1_555
H32 C26 1_555 1_555
H33 C26 1_555 1_555
C27 O10 1_555 1_555
C28 C19 1_555 1_555
H34 C28 1_555 1_555
H35 C28 1_555 1_555
H36 C28 1_555 1_555
C29 C23 1_555 1_555
H37 C29 1_555 1_555
H38 C29 1_555 1_555
H39 C29 1_555 1_555
C30 C27 1_555 1_555
H40 C30 1_555 1_555
H41 C30 1_555 1_555
H42 C30 1_555 1_555
O11 O12 1_555 1_555
O12 C42 1_555 1_555
O13 C32 1_555 1_555
O14 C33 1_555 1_555
O15 C32 1_555 1_555
N7 N8 1_555 1_555
N8 N9 1_555 1_555
C31 O11 1_555 1_555
C32 C31 1_555 1_555
H43 C32 1_555 1_555
C33 O13 1_555 1_555
C34 C33 1_555 1_555
H44 C34 1_555 1_555
C35 C31 1_555 1_555
H45 C35 1_555 1_555
C36 C35 1_555 1_555
H46 C36 1_555 1_555
H47 C36 1_555 1_555
C37 C36 1_555 1_555
H48 C37 1_555 1_555
H49 C37 1_555 1_555
C38 N7 1_555 1_555
C39 C31 1_555 1_555
H50 C39 1_555 1_555
C40 C39 1_555 1_555
H51 C40 1_555 1_555
H52 C40 1_555 1_555
C41 C40 1_555 1_555
H53 C41 1_555 1_555
H54 C41 1_555 1_555
C42 O15 1_555 1_555
C43 C34 1_555 1_555
H55 C43 1_555 1_555
H56 C43 1_555 1_555
H57 C43 1_555 1_555
C44 C38 1_555 1_555
H58 C44 1_555 1_555
H59 C44 1_555 1_555
H60 C44 1_555 1_555
C45 C42 1_555 1_555
H61 C45 1_555 1_555
H62 C45 1_555 1_555
H63 C45 1_555 1_555
O16 O17 1_555 1_555
O17 C57 1_555 1_555
O18 C47 1_555 1_555
O19 C48 1_555 1_555
O20 C47 1_555 1_555
N10 N11 1_555 1_555
N11 N12 1_555 1_555
C46 O16 1_555 1_555
C47 C46 1_555 1_555
H64 C47 1_555 1_555
C48 O18 1_555 1_555
C49 C48 1_555 1_555
H65 C49 1_555 1_555
C50 C46 1_555 1_555
H66 C50 1_555 1_555
C51 C50 1_555 1_555
H67 C51 1_555 1_555
H68 C51 1_555 1_555
C52 C51 1_555 1_555
H69 C52 1_555 1_555
H70 C52 1_555 1_555
C53 N10 1_555 1_555
C54 C46 1_555 1_555
H71 C54 1_555 1_555
C55 C54 1_555 1_555
H72 C55 1_555 1_555
H73 C55 1_555 1_555
C56 C55 1_555 1_555
H74 C56 1_555 1_555
H75 C56 1_555 1_555
C57 O20 1_555 1_555
C58 C49 1_555 1_555
H76 C58 1_555 1_555
H77 C58 1_555 1_555
H78 C58 1_555 1_555
C59 C53 1_555 1_555
H79 C59 1_555 1_555
H80 C59 1_555 1_555
H81 C59 1_555 1_555
C60 C57 1_555 1_555
H82 C60 1_555 1_555
H83 C60 1_555 1_555
H84 C60 1_555 1_555
O21 O22 1_555 1_555
O22 C72 1_555 1_555
O23 C62 1_555 1_555
O24 C63 1_555 1_555
O25 C62 1_555 1_555
N13 N14 1_555 1_555
N14 N15 1_555 1_555
C61 O21 1_555 1_555
C62 C61 1_555 1_555
H85 C62 1_555 1_555
C63 O23 1_555 1_555
C64 C63 1_555 1_555
H86 C64 1_555 1_555
C65 C61 1_555 1_555
H87 C65 1_555 1_555
C66 C65 1_555 1_555
H88 C66 1_555 1_555
H89 C66 1_555 1_555
C67 C66 1_555 1_555
H90 C67 1_555 1_555
H91 C67 1_555 1_555
C68 N13 1_555 1_555
C69 C61 1_555 1_555
H92 C69 1_555 1_555
C70 C69 1_555 1_555
H93 C70 1_555 1_555
H94 C70 1_555 1_555
C71 C70 1_555 1_555
H95 C71 1_555 1_555
H96 C71 1_555 1_555
C72 O25 1_555 1_555
C73 C64 1_555 1_555
H97 C73 1_555 1_555
H98 C73 1_555 1_555
H99 C73 1_555 1_555
C74 C68 1_555 1_555
H100 C74 1_555 1_555
H101 C74 1_555 1_555
H102 C74 1_555 1_555
C75 C72 1_555 1_555
H103 C75 1_555 1_555
H104 C75 1_555 1_555
H105 C75 1_555 1_555
O26 O27 1_555 1_555
O27 C87 1_555 1_555
O28 C77 1_555 1_555
O29 C78 1_555 1_555
O30 C77 1_555 1_555
N16 N17 1_555 1_555
N17 N18 1_555 1_555
C76 O26 1_555 1_555
C77 C76 1_555 1_555
H106 C77 1_555 1_555
C78 O28 1_555 1_555
C79 C78 1_555 1_555
H107 C79 1_555 1_555
C80 C76 1_555 1_555
H108 C80 1_555 1_555
C81 C80 1_555 1_555
H109 C81 1_555 1_555
H110 C81 1_555 1_555
C82 C81 1_555 1_555
H111 C82 1_555 1_555
H112 C82 1_555 1_555
C83 N16 1_555 1_555
C84 C76 1_555 1_555
H113 C84 1_555 1_555
C85 C84 1_555 1_555
H114 C85 1_555 1_555
H115 C85 1_555 1_555
C86 C85 1_555 1_555
H116 C86 1_555 1_555
H117 C86 1_555 1_555
C87 O30 1_555 1_555
C88 C79 1_555 1_555
H118 C88 1_555 1_555
H119 C88 1_555 1_555
H120 C88 1_555 1_555
C89 C83 1_555 1_555
H121 C89 1_555 1_555
H122 C89 1_555 1_555
H123 C89 1_555 1_555
C90 C87 1_555 1_555
H124 C90 1_555 1_555
H125 C90 1_555 1_555
H126 C90 1_555 1_555
C4 C5 1_555 1_555
C7 C8 1_555 1_555
C8 C9 1_555 1_555
C11 C12 1_555 1_555
C19 C20 1_555 1_555
C22 C23 1_555 1_555
C23 C24 1_555 1_555
C26 C27 1_555 1_555
C34 C35 1_555 1_555
C37 C38 1_555 1_555
C38 C39 1_555 1_555
C41 C42 1_555 1_555
C49 C50 1_555 1_555
C52 C53 1_555 1_555
C53 C54 1_555 1_555
C56 C57 1_555 1_555
C64 C65 1_555 1_555
C67 C68 1_555 1_555
C68 C69 1_555 1_555
C71 C72 1_555 1_555
C79 C80 1_555 1_555
C82 C83 1_555 1_555
C83 C84 1_555 1_555
C86 C87 1_555 1_555

#END
