
#######################################################################
#
#                 Cambridge Crystallographic Data Centre
#                                CCDC 
#
#######################################################################
#
# If this CIF has been generated from an entry in the Cambridge 
# Structural Database, then it will include bibliographic, chemical, 
# crystal, experimental, refinement or atomic coordinate data resulting 
# from the CCDC's data processing and validation procedures.
#
#######################################################################

data_JADDUO
_chemical_formula_moiety         'C22 H20 N2 O3'
_chemical_name_systematic        
'ethyl 4,5-dihydro-5-methyl-4-oxo-1,5-diphenyl-3-(cyanomethyl)-1H-pyrrole-2-carboxylate'
_symmetry_cell_setting           monoclinic
_symmetry_space_group_name_H-M   'P 21/c'
_symmetry_Int_Tables_number      14
_space_group_name_Hall           '-P 2ybc'
loop_
_symmetry_equiv_pos_site_id
_symmetry_equiv_pos_as_xyz
1 x,y,z
2 x,1/2-y,1/2+z
3 -x,-y,-z
4 -x,1/2+y,1/2-z
_cell_length_a                   9.8200(7)
_cell_length_b                   22.2309(17)
_cell_length_c                   8.6341(6)
_cell_angle_alpha                90
_cell_angle_beta                 91.317(2)
_cell_angle_gamma                90
_cell_volume                     1884.39
_exptl_crystal_colour            yellow
_chemical_melting_point          123-125deg.C
_cell_formula_units_Z            4
loop_
_atom_site_label
_atom_site_type_symbol
_atom_site_fract_x
_atom_site_fract_y
_atom_site_fract_z
O1 O -0.03497(9) 0.52070(5) 0.24692(15)
O2 O 0.50220(9) 0.58181(4) 0.44809(12)
O3 O 0.50129(8) 0.51987(4) 0.24248(10)
N1 N 0.24205(9) 0.62138(4) 0.28454(13)
N2 N 0.29306(16) 0.39564(6) 0.0653(2)
C1 C 0.09374(12) 0.61473(6) 0.25034(17)
C2 C 0.07462(13) 0.54598(6) 0.25987(18)
C3 C 0.20661(12) 0.51969(5) 0.28998(15)
C4 C 0.29783(11) 0.56529(5) 0.30063(15)
C5 C 0.06045(17) 0.63542(9) 0.0854(2)
C6 C 0.00729(12) 0.64442(5) 0.37222(17)
C7 C -0.12603(14) 0.66069(7) 0.3368(2)
C8 C -0.20636(18) 0.68646(7) 0.4483(2)
C9 C -0.15513(18) 0.69676(7) 0.5948(2)
C10 C -0.02418(18) 0.67977(8) 0.6322(2)
C11 C 0.05611(16) 0.65319(7) 0.5212(2)
C12 C 0.22875(16) 0.45357(6) 0.31382(19)
C13 C 0.26456(14) 0.42133(6) 0.1728(2)
C14 C 0.44626(12) 0.55790(5) 0.33990(16)
C15 C 0.64733(13) 0.50750(7) 0.2622(2)
C16 C 0.6782(2) 0.45652(10) 0.1605(3)
C17 C 0.31735(12) 0.67350(5) 0.24180(16)
C18 C 0.27524(16) 0.72954(6) 0.2903(2)
C19 C 0.34774(17) 0.78002(7) 0.2485(2)
C20 C 0.46193(18) 0.77525(7) 0.1616(2)
C21 C 0.50419(17) 0.71951(7) 0.1134(2)
C22 C 0.43058(14) 0.66887(7) 0.15099(18)
H1 H 0.1226(15) 0.6191(7) 0.0150(19)
H2 H -0.0331(16) 0.6187(6) 0.0551(18)
H3 H 0.0622(14) 0.6810(7) 0.0767(17)
H4 H -0.1630(14) 0.6516(6) 0.2288(19)
H5 H -0.3004(17) 0.6977(7) 0.4200(19)
H6 H -0.2110(15) 0.7152(6) 0.6703(19)
H7 H 0.0134(16) 0.6830(7) 0.729(2)
H8 H 0.1460(13) 0.6416(6) 0.5477(16)
H9 H 0.1445(14) 0.4351(6) 0.3471(16)
H10 H 0.3013(14) 0.4472(6) 0.3886(17)
H11 H 0.6982(14) 0.5446(7) 0.2408(18)
H12 H 0.6659(16) 0.4953(7) 0.377(2)
H13 H 0.7712(18) 0.4431(8) 0.1759(19)
H14 H 0.6232(19) 0.4222(9) 0.187(2)
H15 H 0.656(3) 0.4682(13) 0.048(4)
H16 H 0.1976(15) 0.7321(6) 0.3520(17)
H17 H 0.3135(14) 0.8180(6) 0.2843(17)
H18 H 0.5116(15) 0.8105(7) 0.1369(17)
H19 H 0.5879(15) 0.7151(6) 0.0484(18)
H20 H 0.4562(12) 0.6307(6) 0.1128(15)
loop_
_geom_bond_atom_site_label_1
_geom_bond_atom_site_label_2
_geom_bond_site_symmetry_1
_geom_bond_site_symmetry_2
O1 C2 1_555 1_555
O2 C14 1_555 1_555
O3 C14 1_555 1_555
N1 C1 1_555 1_555
N2 C13 1_555 1_555
C1 C2 1_555 1_555
C2 C3 1_555 1_555
C3 C4 1_555 1_555
C4 N1 1_555 1_555
C5 C1 1_555 1_555
C6 C1 1_555 1_555
C7 C6 1_555 1_555
C8 C7 1_555 1_555
C9 C8 1_555 1_555
C10 C9 1_555 1_555
C11 C6 1_555 1_555
C12 C3 1_555 1_555
C13 C12 1_555 1_555
C14 C4 1_555 1_555
C15 O3 1_555 1_555
C16 C15 1_555 1_555
C17 N1 1_555 1_555
C18 C17 1_555 1_555
C19 C18 1_555 1_555
C20 C19 1_555 1_555
C21 C20 1_555 1_555
C22 C17 1_555 1_555
H1 C5 1_555 1_555
H2 C5 1_555 1_555
H3 C5 1_555 1_555
H4 C7 1_555 1_555
H5 C8 1_555 1_555
H6 C9 1_555 1_555
H7 C10 1_555 1_555
H8 C11 1_555 1_555
H9 C12 1_555 1_555
H10 C12 1_555 1_555
H11 C15 1_555 1_555
H12 C15 1_555 1_555
H13 C16 1_555 1_555
H14 C16 1_555 1_555
H15 C16 1_555 1_555
H16 C18 1_555 1_555
H17 C19 1_555 1_555
H18 C20 1_555 1_555
H19 C21 1_555 1_555
H20 C22 1_555 1_555
C10 C11 1_555 1_555
C21 C22 1_555 1_555

#END
