
#######################################################################
#
#                 Cambridge Crystallographic Data Centre
#                                CCDC 
#
#######################################################################
#
# If this CIF has been generated from an entry in the Cambridge 
# Structural Database, then it will include bibliographic, chemical, 
# crystal, experimental, refinement or atomic coordinate data resulting 
# from the CCDC's data processing and validation procedures.
#
#######################################################################

data_JADLUY
_chemical_formula_moiety         'C37 H42 O8,C1 H1 Cl3'
_chemical_name_systematic        
'5,21-diethoxy-9,11,15,17,25,26-hexamethoxypentacyclo[18.3.1.1^2,6^.1^8,12^.1^14,18^]heptacosa-1(24),2(27),3,5,8(26),9,11,14(25),15,17,20,22-dodecaene chloroform solvate'
_symmetry_cell_setting           monoclinic
_symmetry_space_group_name_H-M   'C 2/c'
_symmetry_Int_Tables_number      15
_space_group_name_Hall           '-C 2yn'
loop_
_symmetry_equiv_pos_site_id
_symmetry_equiv_pos_as_xyz
1 x,y,z
2 -x,y,1/2-z
3 1/2+x,1/2+y,z
4 1/2-x,1/2+y,1/2-z
5 -x,-y,-z
6 x,-y,1/2+z
7 1/2-x,1/2-y,-z
8 1/2+x,1/2-y,1/2+z
_cell_length_a                   28.1180(13)
_cell_length_b                   14.1732(6)
_cell_length_c                   19.5603(11)
_cell_angle_alpha                90
_cell_angle_beta                 106.288(5)
_cell_angle_gamma                90
_cell_volume                     7482.34
_exptl_crystal_colour            colorless
_exptl_crystal_description       needle
_cell_formula_units_Z            8
loop_
_atom_site_label
_atom_site_type_symbol
_atom_site_fract_x
_atom_site_fract_y
_atom_site_fract_z
O1 O 0.43225(7) 0.67177(15) 0.73291(11)
O2 O 0.32258(8) 1.23976(14) 0.44459(11)
O3 O 0.45797(6) 1.10162(13) 0.41308(11)
O4 O 0.31767(6) 0.90562(14) 0.34018(10)
O5 O 0.47407(7) 0.77710(15) 0.34490(14)
O6 O 0.43115(6) 0.70300(14) 0.46947(11)
O7 O 0.27088(7) 0.70728(15) 0.30568(10)
O8 O 0.29415(6) 0.61791(14) 0.55162(10)
C1 C 0.39537(9) 0.7510(2) 0.62579(15)
C2 C 0.39435(10) 0.6578(2) 0.58703(15)
H1 H 0.4285 0.6410 0.5871
H2 H 0.3820 0.6078 0.6131
C3 C 0.41533(10) 0.7561(2) 0.70009(15)
C4 C 0.41764(11) 0.8416(2) 0.73501(16)
H3 H 0.4305 0.8440 0.7854
C5 C 0.40130(10) 0.9239(2) 0.69711(15)
H4 H 0.4035 0.9822 0.7218
C6 C 0.38174(9) 0.92185(19) 0.62334(14)
C7 C 0.37861(9) 0.83405(19) 0.59010(14)
H5 H 0.3641 0.8312 0.5400
C8 C 0.36678(9) 1.00849(19) 0.57987(15)
C9 C 0.34980(11) 1.0899(2) 0.60508(16)
H6 H 0.3483 1.0919 0.6530
C10 C 0.33506(11) 1.1680(2) 0.56181(17)
H7 H 0.3234 1.2227 0.5802
C11 C 0.33716(10) 1.1668(2) 0.49203(16)
C12 C 0.35480(9) 1.08683(19) 0.46481(15)
C13 C 0.36937(9) 1.01057(19) 0.50932(14)
H8 H 0.3818 0.9565 0.4913
C14 C 0.45251(13) 0.6725(3) 0.80847(17)
H9 H 0.4270 0.6922 0.8316
H10 H 0.4805 0.7174 0.8224
C15 C 0.46994(14) 0.5748(3) 0.8313(2)
H11 H 0.4969 0.5578 0.8110
H12 H 0.4424 0.5303 0.8144
H13 H 0.4819 0.5722 0.8834
C16 C 0.31300(16) 1.3289(2) 0.4712(2)
H14 H 0.3410 1.3481 0.5120
H15 H 0.2825 1.3263 0.4870
C17 C 0.3067(2) 1.3977(3) 0.4105(2)
H16 H 0.2799 1.3763 0.3697
H17 H 0.3376 1.4015 0.3968
H18 H 0.2985 1.4602 0.4256
C18 C 0.35751(10) 1.0857(2) 0.38840(15)
H19 H 0.3235 1.0806 0.3560
H20 H 0.3717 1.1461 0.3781
C19 C 0.38835(9) 1.00559(19) 0.37345(14)
C20 C 0.43959(9) 1.0146(2) 0.38784(14)
C21 C 0.46873(10) 0.9409(2) 0.37711(16)
H21 H 0.5033 0.9497 0.3843
C22 C 0.44715(10) 0.8537(2) 0.35569(17)
C23 C 0.39618(10) 0.8390(2) 0.34413(15)
C24 C 0.36837(9) 0.9175(2) 0.35137(14)
C25 C 0.51014(10) 1.1163(2) 0.42693(18)
H22 H 0.5197 1.1071 0.3829
H23 H 0.5280 1.0711 0.4630
H24 H 0.5185 1.1807 0.4444
C26 C 0.29036(11) 0.9175(3) 0.26702(17)
H25 H 0.3002 0.8688 0.2382
H26 H 0.2974 0.9800 0.2506
H27 H 0.2548 0.9120 0.2622
C27 C 0.52611(13) 0.7885(3) 0.3585(3)
H28 H 0.5328 0.8407 0.3297
H29 H 0.5405 0.7303 0.3461
H30 H 0.5408 0.8025 0.4091
C28 C 0.37285(10) 0.7419(2) 0.32825(16)
H31 H 0.3465 0.7444 0.2825
H32 H 0.3984 0.6968 0.3225
C29 C 0.35080(10) 0.70523(19) 0.38552(15)
C30 C 0.38019(9) 0.68762(19) 0.45475(16)
C31 C 0.36193(10) 0.66095(19) 0.51096(16)
C32 C 0.31094(9) 0.64552(19) 0.49541(15)
C33 C 0.28009(10) 0.65903(19) 0.42699(15)
H33 H 0.2456 0.6470 0.4168
C34 C 0.29994(10) 0.6901(2) 0.37377(15)
C35 C 0.45718(12) 0.6207(3) 0.4577(2)
H34 H 0.4449 0.6016 0.4077
H35 H 0.4518 0.5694 0.4883
H36 H 0.4927 0.6347 0.4691
C36 C 0.24270(10) 0.5945(2) 0.53709(17)
H37 H 0.2350 0.5414 0.5037
H38 H 0.2225 0.6492 0.5160
H39 H 0.2354 0.5770 0.5816
C37 C 0.21851(10) 0.7095(2) 0.29327(17)
H40 H 0.2028 0.7297 0.2442
H41 H 0.2100 0.7540 0.3264
H42 H 0.2066 0.6464 0.3007
Cl1 Cl 0.21870(3) 1.12125(7) 0.35468(5)
Cl2 Cl 0.11286(3) 1.09768(7) 0.32954(5)
Cl3 Cl 0.16301(3) 1.00589(7) 0.23811(6)
C38 C 0.16854(11) 1.0443(2) 0.32566(18)
H43 H 0.1746 0.9880 0.3577
loop_
_geom_bond_atom_site_label_1
_geom_bond_atom_site_label_2
_geom_bond_site_symmetry_1
_geom_bond_site_symmetry_2
O1 C3 1_555 1_555
O2 C11 1_555 1_555
O3 C20 1_555 1_555
O4 C24 1_555 1_555
O5 C22 1_555 1_555
O6 C30 1_555 1_555
O7 C34 1_555 1_555
O8 C32 1_555 1_555
C1 C2 1_555 1_555
C2 H1 1_555 1_555
H2 C2 1_555 1_555
C3 C1 1_555 1_555
C4 C3 1_555 1_555
H3 C4 1_555 1_555
C5 C4 1_555 1_555
H4 C5 1_555 1_555
C6 C5 1_555 1_555
C7 C1 1_555 1_555
H5 C7 1_555 1_555
C8 C6 1_555 1_555
C9 C8 1_555 1_555
H6 C9 1_555 1_555
C10 C9 1_555 1_555
H7 C10 1_555 1_555
C11 C10 1_555 1_555
C12 C11 1_555 1_555
C13 C8 1_555 1_555
H8 C13 1_555 1_555
C14 O1 1_555 1_555
H9 C14 1_555 1_555
H10 C14 1_555 1_555
C15 C14 1_555 1_555
H11 C15 1_555 1_555
H12 C15 1_555 1_555
H13 C15 1_555 1_555
C16 O2 1_555 1_555
H14 C16 1_555 1_555
H15 C16 1_555 1_555
C17 C16 1_555 1_555
H16 C17 1_555 1_555
H17 C17 1_555 1_555
H18 C17 1_555 1_555
C18 C12 1_555 1_555
H19 C18 1_555 1_555
H20 C18 1_555 1_555
C19 C18 1_555 1_555
C20 C19 1_555 1_555
C21 C20 1_555 1_555
H21 C21 1_555 1_555
C22 C21 1_555 1_555
C23 C22 1_555 1_555
C24 C19 1_555 1_555
C25 O3 1_555 1_555
H22 C25 1_555 1_555
H23 C25 1_555 1_555
H24 C25 1_555 1_555
C26 O4 1_555 1_555
H25 C26 1_555 1_555
H26 C26 1_555 1_555
H27 C26 1_555 1_555
C27 O5 1_555 1_555
H28 C27 1_555 1_555
H29 C27 1_555 1_555
H30 C27 1_555 1_555
C28 C23 1_555 1_555
H31 C28 1_555 1_555
H32 C28 1_555 1_555
C29 C28 1_555 1_555
C30 C29 1_555 1_555
C31 C2 1_555 1_555
C32 C31 1_555 1_555
C33 C32 1_555 1_555
H33 C33 1_555 1_555
C34 C29 1_555 1_555
C35 O6 1_555 1_555
H34 C35 1_555 1_555
H35 C35 1_555 1_555
H36 C35 1_555 1_555
C36 O8 1_555 1_555
H37 C36 1_555 1_555
H38 C36 1_555 1_555
H39 C36 1_555 1_555
C37 O7 1_555 1_555
H40 C37 1_555 1_555
H41 C37 1_555 1_555
H42 C37 1_555 1_555
Cl1 C38 1_555 1_555
Cl2 C38 1_555 1_555
Cl3 C38 1_555 1_555
C38 H43 1_555 1_555
C6 C7 1_555 1_555
C12 C13 1_555 1_555
C23 C24 1_555 1_555
C30 C31 1_555 1_555
C33 C34 1_555 1_555

#END
