
#######################################################################
#
#                 Cambridge Crystallographic Data Centre
#                                CCDC 
#
#######################################################################
#
# If this CIF has been generated from an entry in the Cambridge 
# Structural Database, then it will include bibliographic, chemical, 
# crystal, experimental, refinement or atomic coordinate data resulting 
# from the CCDC's data processing and validation procedures.
#
#######################################################################

data_JADQUD
_chemical_name_common            
"N,N,N',N'-tetramethyl-N'-(2-ethoxy-2-oxoethyl)-N''-(3-(1,3,3-trimethylureido)propyl)guanidinium tetraphenylborate"
_chemical_formula_moiety         'C16 H34 N5 O3 1+,C24 H20 B1 1-'
_chemical_name_systematic        
'(dimethylamino)((3-((dimethylcarbamoyl)(methyl)amino)propyl)(2-ethoxy-2-oxoethyl)amino)-N,N-dimethylmethaniminium tetraphenylborate'
_symmetry_cell_setting           monoclinic
_symmetry_space_group_name_H-M   'P 21/c'
_symmetry_Int_Tables_number      14
_space_group_name_Hall           '-P 2ybc'
loop_
_symmetry_equiv_pos_site_id
_symmetry_equiv_pos_as_xyz
1 x,y,z
2 -x,1/2+y,1/2-z
3 -x,-y,-z
4 x,1/2-y,1/2+z
_cell_length_a                   9.6650(3)
_cell_length_b                   33.8756(9)
_cell_length_c                   11.1543(5)
_cell_angle_alpha                90
_cell_angle_beta                 93.759(1)
_cell_angle_gamma                90
_cell_volume                     3644.15
_exptl_crystal_colour            colorless
_exptl_crystal_description       block
_cell_formula_units_Z            4
loop_
_atom_site_label
_atom_site_type_symbol
_atom_site_fract_x
_atom_site_fract_y
_atom_site_fract_z
C1 C 0.84093(14) 0.12384(4) 0.92515(11)
N1 N 0.73352(12) 0.14132(4) 0.97324(9)
N2 N 0.83213(12) 0.11315(4) 0.80954(10)
N3 N 0.95854(12) 0.11695(3) 0.99567(9)
C2 C 0.74939(16) 0.17100(4) 1.06782(12)
H1 H 0.8478 0.1776 1.0825
H2 H 0.7136 0.1606 1.1417
H3 H 0.6975 0.1948 1.0428
C3 C 0.59041(15) 0.13337(5) 0.92991(13)
H4 H 0.5874 0.1097 0.8793
H5 H 0.5539 0.1559 0.8828
H6 H 0.5338 0.1291 0.9985
C4 C 0.89927(16) 0.07750(5) 0.76717(12)
H7 H 0.9747 0.0850 0.7171
H8 H 0.8311 0.0615 0.7197
H9 H 0.9369 0.0621 0.8363
C5 C 0.75132(16) 0.13535(5) 0.71706(12)
H10 H 0.6674 0.1205 0.6918
H11 H 0.8070 0.1394 0.6478
H12 H 0.7254 0.1610 0.7495
C6 C 1.09650(14) 0.11774(4) 0.94674(12)
H13 H 1.0870 0.1271 0.8625
H14 H 1.1343 0.0906 0.9465
C7 C 1.19781(15) 0.14434(4) 1.01854(13)
H15 H 1.2897 0.1422 0.9848
H16 H 1.2076 0.1346 1.1024
C8 C 1.15600(16) 0.18780(4) 1.01999(12)
H17 H 1.0612 0.1899 1.0480
H18 H 1.2196 0.2021 1.0781
N4 N 1.15908(12) 0.20672(4) 0.90229(10)
C9 C 1.28789(15) 0.22640(5) 0.87719(14)
H19 H 1.2705 0.2449 0.8104
H20 H 1.3562 0.2067 0.8556
H21 H 1.3237 0.2409 0.9487
C10 C 1.03676(15) 0.21111(4) 0.83296(12)
O1 O 0.92302(10) 0.20626(3) 0.87473(8)
N5 N 1.04850(13) 0.22196(4) 0.71448(10)
C11 C 0.91878(16) 0.23147(5) 0.64557(12)
H22 H 0.8722 0.2070 0.6190
H23 H 0.9388 0.2474 0.5754
H24 H 0.8584 0.2464 0.6962
C12 C 1.14626(19) 0.20145(5) 0.64173(14)
H25 H 1.2216 0.1903 0.6943
H26 H 1.1846 0.2201 0.5856
H27 H 1.0981 0.1802 0.5965
C13 C 0.94899(15) 0.10156(4) 1.11681(11)
H28 H 0.8953 0.1203 1.1637
H29 H 1.0434 0.0996 1.1566
C14 C 0.88068(15) 0.06163(4) 1.11757(12)
O2 O 0.83182(13) 0.04434(4) 1.03091(9)
O3 O 0.87943(11) 0.04887(3) 1.23022(8)
C15 C 0.81131(17) 0.01131(5) 1.25050(13)
H30 H 0.8522 -0.0098 1.2028
H31 H 0.7111 0.0131 1.2266
C16 C 0.8328(2) 0.00251(5) 1.38170(14)
H32 H 0.9322 -0.0004 1.4034
H33 H 0.7847 -0.0220 1.3998
H34 H 0.7957 0.0242 1.4279
B1 B 0.34042(17) 0.11535(5) 0.39939(13)
C17 C 0.43843(14) 0.15505(4) 0.39351(11)
C18 C 0.49782(15) 0.17349(4) 0.49770(12)
H35 H 0.4844 0.1618 0.5734
C19 C 0.57527(15) 0.20806(5) 0.49502(14)
H36 H 0.6132 0.2193 0.5680
C20 C 0.59757(16) 0.22626(5) 0.38682(14)
H37 H 0.6523 0.2495 0.3845
C21 C 0.53821(16) 0.20976(5) 0.28209(13)
H38 H 0.5500 0.2222 0.2071
C22 C 0.46146(15) 0.17509(4) 0.28616(12)
H39 H 0.4226 0.1644 0.2127
C23 C 0.35548(15) 0.08579(4) 0.28264(11)
C24 C 0.47268(15) 0.08387(4) 0.21527(12)
H40 H 0.5494 0.1005 0.2370
C25 C 0.48122(17) 0.05850(5) 0.11770(12)
H41 H 0.5626 0.0583 0.0744
C26 C 0.37252(17) 0.03359(5) 0.08325(12)
H42 H 0.3771 0.0170 0.0150
C27 C 0.25708(16) 0.03331(5) 0.15005(12)
H43 H 0.1825 0.0158 0.1293
C28 C 0.25009(15) 0.05867(4) 0.24773(12)
H44 H 0.1703 0.0576 0.2930
C29 C 0.17692(14) 0.12955(4) 0.39947(11)
C30 C 0.12827(14) 0.16549(4) 0.34958(11)
H45 H 0.1930 0.1828 0.3163
C31 C -0.00979(15) 0.17687(4) 0.34667(11)
H46 H -0.0370 0.2017 0.3130
C32 C -0.10837(15) 0.15240(5) 0.39235(11)
H47 H -0.2029 0.1602 0.3906
C33 C -0.06588(15) 0.11628(4) 0.44077(11)
H48 H -0.1319 0.0988 0.4712
C34 C 0.07363(15) 0.10570(4) 0.44472(11)
H49 H 0.1002 0.0811 0.4798
C35 C 0.38760(14) 0.09029(4) 0.52189(11)
C36 C 0.33605(15) 0.09853(4) 0.63423(12)
H50 H 0.2684 0.1187 0.6392
C37 C 0.38038(15) 0.07824(5) 0.73862(12)
H51 H 0.3422 0.0846 0.8125
C38 C 0.47946(16) 0.04899(4) 0.73512(12)
H52 H 0.5105 0.0353 0.8063
C39 C 0.53299(15) 0.03985(4) 0.62634(12)
H53 H 0.6010 0.0197 0.6224
C40 C 0.48709(15) 0.06020(4) 0.52267(12)
H54 H 0.5251 0.0533 0.4490
loop_
_geom_bond_atom_site_label_1
_geom_bond_atom_site_label_2
_geom_bond_site_symmetry_1
_geom_bond_site_symmetry_2
C1 N1 1_555 1_555
N1 C2 1_555 1_555
N2 C1 1_555 1_555
N3 C1 1_555 1_555
C2 H1 1_555 1_555
H2 C2 1_555 1_555
H3 C2 1_555 1_555
C3 N1 1_555 1_555
H4 C3 1_555 1_555
H5 C3 1_555 1_555
H6 C3 1_555 1_555
C4 N2 1_555 1_555
H7 C4 1_555 1_555
H8 C4 1_555 1_555
H9 C4 1_555 1_555
C5 N2 1_555 1_555
H10 C5 1_555 1_555
H11 C5 1_555 1_555
H12 C5 1_555 1_555
C6 N3 1_555 1_555
H13 C6 1_555 1_555
H14 C6 1_555 1_555
C7 C6 1_555 1_555
H15 C7 1_555 1_555
H16 C7 1_555 1_555
C8 C7 1_555 1_555
H17 C8 1_555 1_555
H18 C8 1_555 1_555
N4 C8 1_555 1_555
C9 N4 1_555 1_555
H19 C9 1_555 1_555
H20 C9 1_555 1_555
H21 C9 1_555 1_555
C10 N4 1_555 1_555
O1 C10 1_555 1_555
N5 C10 1_555 1_555
C11 N5 1_555 1_555
H22 C11 1_555 1_555
H23 C11 1_555 1_555
H24 C11 1_555 1_555
C12 N5 1_555 1_555
H25 C12 1_555 1_555
H26 C12 1_555 1_555
H27 C12 1_555 1_555
C13 N3 1_555 1_555
H28 C13 1_555 1_555
H29 C13 1_555 1_555
C14 C13 1_555 1_555
O2 C14 1_555 1_555
O3 C14 1_555 1_555
C15 O3 1_555 1_555
H30 C15 1_555 1_555
H31 C15 1_555 1_555
C16 C15 1_555 1_555
H32 C16 1_555 1_555
H33 C16 1_555 1_555
H34 C16 1_555 1_555
B1 C17 1_555 1_555
C17 C18 1_555 1_555
C18 H35 1_555 1_555
C19 C18 1_555 1_555
H36 C19 1_555 1_555
C20 C19 1_555 1_555
H37 C20 1_555 1_555
C21 C20 1_555 1_555
H38 C21 1_555 1_555
C22 C17 1_555 1_555
H39 C22 1_555 1_555
C23 B1 1_555 1_555
C24 C23 1_555 1_555
H40 C24 1_555 1_555
C25 C24 1_555 1_555
H41 C25 1_555 1_555
C26 C25 1_555 1_555
H42 C26 1_555 1_555
C27 C26 1_555 1_555
H43 C27 1_555 1_555
C28 C23 1_555 1_555
H44 C28 1_555 1_555
C29 B1 1_555 1_555
C30 C29 1_555 1_555
H45 C30 1_555 1_555
C31 C30 1_555 1_555
H46 C31 1_555 1_555
C32 C31 1_555 1_555
H47 C32 1_555 1_555
C33 C32 1_555 1_555
H48 C33 1_555 1_555
C34 C29 1_555 1_555
H49 C34 1_555 1_555
C35 B1 1_555 1_555
C36 C35 1_555 1_555
H50 C36 1_555 1_555
C37 C36 1_555 1_555
H51 C37 1_555 1_555
C38 C37 1_555 1_555
H52 C38 1_555 1_555
C39 C38 1_555 1_555
H53 C39 1_555 1_555
C40 C35 1_555 1_555
H54 C40 1_555 1_555
C21 C22 1_555 1_555
C27 C28 1_555 1_555
C33 C34 1_555 1_555
C39 C40 1_555 1_555

#END
