
#######################################################################
#
#                 Cambridge Crystallographic Data Centre
#                                CCDC 
#
#######################################################################
#
# If this CIF has been generated from an entry in the Cambridge 
# Structural Database, then it will include bibliographic, chemical, 
# crystal, experimental, refinement or atomic coordinate data resulting 
# from the CCDC's data processing and validation procedures.
#
#######################################################################

data_JADQOV
_chemical_formula_moiety         'C12 H14 Br2'
_chemical_name_systematic        syn-4,9-bis(Bromomethyl)cyclodeca-1,6-diyne
_symmetry_cell_setting           monoclinic
_symmetry_space_group_name_H-M   'P 21/n'
_symmetry_Int_Tables_number      14
_space_group_name_Hall           '-P 2yn'
loop_
_symmetry_equiv_pos_site_id
_symmetry_equiv_pos_as_xyz
1 x,y,z
2 1/2-x,1/2+y,1/2-z
3 -x,-y,-z
4 1/2+x,1/2-y,1/2+z
_cell_length_a                   11.951(4)
_cell_length_b                   9.501(2)
_cell_length_c                   11.668(3)
_cell_angle_alpha                90
_cell_angle_beta                 118.58(2)
_cell_angle_gamma                90
_cell_volume                     1163.43
_exptl_crystal_colour            colorless
_chemical_melting_point          73deg.C
_cell_formula_units_Z            4
_exptl_crystal_recrystallization_method 'petroleum ether/diethyl ether'
loop_
_atom_site_label
_atom_site_type_symbol
_atom_site_fract_x
_atom_site_fract_y
_atom_site_fract_z
Br1 Br 0.04746(4) 0.34943(4) 0.91064(4)
Br2 Br 0.31232(4) 0.51856(4) 0.37192(4)
C1 C 0.0626(4) 0.1230(4) 0.7547(4)
C2 C 0.1531(4) 0.0234(5) 0.7330(4)
C3 C 0.2141(3) 0.0875(4) 0.6618(4)
C4 C 0.2514(3) 0.1476(4) 0.5984(4)
C5 C 0.2825(4) 0.2286(4) 0.5107(4)
C6 C 0.1671(4) 0.2817(4) 0.3871(4)
C7 C 0.0750(4) 0.3779(5) 0.4081(4)
C8 C 0.0152(3) 0.3133(4) 0.4796(4)
C9 C -0.0236(3) 0.2526(4) 0.5417(4)
C10 C -0.0546(4) 0.1669(5) 0.6283(4)
C11 C 0.1393(4) 0.2461(4) 0.8358(4)
C12 C 0.2078(4) 0.3503(5) 0.2960(4)
H1 H 0.040(3) 0.075(4) 0.803(3)
H2 H 0.107(4) -0.053(4) 0.685(4)
H3 H 0.216(4) -0.018(4) 0.814(4)
H4 H 0.338(4) 0.312(5) 0.556(4)
H5 H 0.334(4) 0.168(4) 0.484(4)
H6 H 0.124(4) 0.208(5) 0.338(4)
H7 H 0.117(4) 0.456(4) 0.451(4)
H8 H 0.016(4) 0.404(5) 0.326(4)
H9 H -0.109(4) 0.220(4) 0.647(3)
H10 H -0.106(4) 0.083(5) 0.586(4)
H11 H 0.155(3) 0.308(4) 0.785(4)
H12 H 0.220(4) 0.216(4) 0.910(4)
H13 H 0.259(4) 0.290(4) 0.277(4)
H14 H 0.142(4) 0.385(4) 0.219(4)
loop_
_geom_bond_atom_site_label_1
_geom_bond_atom_site_label_2
_geom_bond_site_symmetry_1
_geom_bond_site_symmetry_2
Br1 C11 1_555 1_555
Br2 C12 1_555 1_555
C1 C2 1_555 1_555
C2 C3 1_555 1_555
C3 C4 1_555 1_555
C4 C5 1_555 1_555
C5 C6 1_555 1_555
C6 C7 1_555 1_555
C7 C8 1_555 1_555
C8 C9 1_555 1_555
C9 C10 1_555 1_555
C10 C1 1_555 1_555
C11 C1 1_555 1_555
C12 C6 1_555 1_555
H1 C1 1_555 1_555
H2 C2 1_555 1_555
H3 C2 1_555 1_555
H4 C5 1_555 1_555
H5 C5 1_555 1_555
H6 C6 1_555 1_555
H7 C7 1_555 1_555
H8 C7 1_555 1_555
H9 C10 1_555 1_555
H10 C10 1_555 1_555
H11 C11 1_555 1_555
H12 C11 1_555 1_555
H13 C12 1_555 1_555
H14 C12 1_555 1_555

#END
