
#######################################################################
#
#                 Cambridge Crystallographic Data Centre
#                                CCDC 
#
#######################################################################
#
# If this CIF has been generated from an entry in the Cambridge 
# Structural Database, then it will include bibliographic, chemical, 
# crystal, experimental, refinement or atomic coordinate data resulting 
# from the CCDC's data processing and validation procedures.
#
#######################################################################

data_JADYIZ
_chemical_formula_moiety         'C30 H41 N1 O2'
_chemical_name_systematic        
2,4a,6a,9,13b,15a-hexamethyl-1,2,3,4,4a,5,6,6a,6b,7,8,13b,14,15,15a,15b-hexadecahydropiceno[2,3-d][1,3]dioxole-2-carbonitrile
_symmetry_cell_setting           orthorhombic
_symmetry_space_group_name_H-M   'P 21 21 21'
_symmetry_Int_Tables_number      19
_space_group_name_Hall           'P 2ac 2ab'
loop_
_symmetry_equiv_pos_site_id
_symmetry_equiv_pos_as_xyz
1 x,y,z
2 1/2-x,-y,1/2+z
3 -x,1/2+y,1/2-z
4 1/2+x,1/2-y,-z
_cell_length_a                   7.6302(7)
_cell_length_b                   13.9053(13)
_cell_length_c                   23.367(2)
_cell_angle_alpha                90
_cell_angle_beta                 90
_cell_angle_gamma                90
_cell_volume                     2479.24
_exptl_crystal_colour            colorless
_exptl_crystal_description       block
_cell_formula_units_Z            4
loop_
_atom_site_label
_atom_site_type_symbol
_atom_site_fract_x
_atom_site_fract_y
_atom_site_fract_z
C1 C 0.5084(3) -0.14538(19) 1.13709(9)
H1 H 0.5166 -0.0854 1.1581
H2 H 0.5480 -0.1970 1.1618
C2 C 0.3294(3) -0.13657(14) 1.06274(8)
C3 C 0.4974(2) -0.12289(15) 1.04377(8)
C4 C 0.5330(2) -0.09672(14) 0.98861(8)
H3 H 0.6477 -0.0879 0.9762
C5 C 0.3903(2) -0.08354(13) 0.95099(8)
C6 C 0.2192(2) -0.09993(13) 0.97030(8)
C7 C 0.1855(2) -0.12661(13) 1.02792(8)
C8 C 0.0023(3) -0.14027(16) 1.05047(9)
H4 H -0.0472 -0.1977 1.0344
H5 H -0.0683 -0.0859 1.0400
H6 H 0.0058 -0.1459 1.0914
C9 C 0.0627(2) -0.08685(15) 0.93152(8)
H7 H -0.0057 -0.0328 0.9453
H8 H -0.0104 -0.1437 0.9341
C10 C 0.1079(3) -0.06966(15) 0.86908(8)
H9 H 0.0078 -0.0417 0.8496
H10 H 0.1351 -0.1305 0.8508
C11 C 0.2653(2) -0.00189(13) 0.86398(7)
H11 H 0.2401 0.0509 0.8905
C12 C 0.4305(2) -0.05248(13) 0.88908(8)
C13 C 0.2858(2) 0.04753(14) 0.80393(8)
C14 C 0.4408(2) 0.12262(14) 0.80544(7)
C15 C 0.6038(2) 0.07523(14) 0.83298(8)
H12 H 0.6532 0.0311 0.8052
H13 H 0.6901 0.1254 0.8393
C16 C 0.5816(2) 0.02028(14) 0.88918(8)
C17 C 0.4902(3) -0.14434(15) 0.85741(9)
H14 H 0.5315 -0.1276 0.8199
H15 H 0.3932 -0.1880 0.8541
H16 H 0.5830 -0.1746 0.8785
C18 C 0.3129(3) -0.02834(17) 0.75599(9)
H17 H 0.2361 -0.0820 0.7625
H18 H 0.4323 -0.0500 0.7564
H19 H 0.2868 0.0001 0.7195
C19 C 0.1153(3) 0.10036(16) 0.78754(8)
H20 H 0.1271 0.1247 0.7488
H21 H 0.0197 0.0544 0.7876
C20 C 0.0679(2) 0.18297(15) 0.82656(9)
H22 H 0.0577 0.1594 0.8655
H23 H -0.0452 0.2086 0.8153
C21 C 0.2037(2) 0.26335(14) 0.82475(8)
C22 C 0.3933(2) 0.22241(13) 0.83548(7)
H24 H 0.4713 0.2692 0.8172
C23 C 0.5013(3) 0.14796(17) 0.74353(9)
H25 H 0.5896 0.1970 0.7451
H26 H 0.4029 0.1709 0.7218
H27 H 0.5486 0.0916 0.7255
C24 C 0.1914(3) 0.31631(17) 0.76687(10)
H28 H 0.2243 0.2733 0.7366
H29 H 0.2690 0.3707 0.7671
H30 H 0.0733 0.3379 0.7609
C25 C 0.4361(3) 0.23025(14) 0.89964(8)
C26 C 0.4509(3) 0.33724(15) 0.91902(9)
C27 C 0.3121(3) 0.39895(16) 0.88815(11)
H31 H 0.2738 0.4505 0.9131
H32 H 0.3630 0.4275 0.8541
C28 C 0.1569(3) 0.33734(16) 0.87164(10)
H33 H 0.0631 0.3784 0.8579
H34 H 0.1146 0.3036 0.9052
C29 C 0.6366(3) 0.37572(19) 0.90916(12)
H35 H 0.6420 0.4420 0.9205
H36 H 0.6658 0.3704 0.8693
H37 H 0.7184 0.3389 0.9314
C30 C 0.4135(4) 0.33917(18) 0.98101(11)
N1 N 0.3840(4) 0.3408(2) 1.02910(11)
O1 O 0.3326(2) -0.16185(12) 1.12038(6)
O2 O 0.61468(19) -0.14099(14) 1.08774(6)
H38 H 0.557(3) 0.0648(14) 0.9206(8)
H39 H 0.694(3) -0.0129(16) 0.8951(9)
H40 H 0.348(3) 0.1954(15) 0.9223(9)
H41 H 0.549(2) 0.2002(14) 0.9074(9)
loop_
_geom_bond_atom_site_label_1
_geom_bond_atom_site_label_2
_geom_bond_site_symmetry_1
_geom_bond_site_symmetry_2
C1 H1 1_555 1_555
H2 C1 1_555 1_555
C2 C3 1_555 1_555
C3 C4 1_555 1_555
C4 H3 1_555 1_555
C5 C4 1_555 1_555
C6 C5 1_555 1_555
C7 C2 1_555 1_555
C8 C7 1_555 1_555
H4 C8 1_555 1_555
H5 C8 1_555 1_555
H6 C8 1_555 1_555
C9 C6 1_555 1_555
H7 C9 1_555 1_555
H8 C9 1_555 1_555
C10 C9 1_555 1_555
H9 C10 1_555 1_555
H10 C10 1_555 1_555
C11 C10 1_555 1_555
H11 C11 1_555 1_555
C12 C5 1_555 1_555
C13 C11 1_555 1_555
C14 C13 1_555 1_555
C15 C14 1_555 1_555
H12 C15 1_555 1_555
H13 C15 1_555 1_555
C16 C12 1_555 1_555
C17 C12 1_555 1_555
H14 C17 1_555 1_555
H15 C17 1_555 1_555
H16 C17 1_555 1_555
C18 C13 1_555 1_555
H17 C18 1_555 1_555
H18 C18 1_555 1_555
H19 C18 1_555 1_555
C19 C13 1_555 1_555
H20 C19 1_555 1_555
H21 C19 1_555 1_555
C20 C19 1_555 1_555
H22 C20 1_555 1_555
H23 C20 1_555 1_555
C21 C20 1_555 1_555
C22 C14 1_555 1_555
H24 C22 1_555 1_555
C23 C14 1_555 1_555
H25 C23 1_555 1_555
H26 C23 1_555 1_555
H27 C23 1_555 1_555
C24 C21 1_555 1_555
H28 C24 1_555 1_555
H29 C24 1_555 1_555
H30 C24 1_555 1_555
C25 C22 1_555 1_555
C26 C25 1_555 1_555
C27 C26 1_555 1_555
H31 C27 1_555 1_555
H32 C27 1_555 1_555
C28 C21 1_555 1_555
H33 C28 1_555 1_555
H34 C28 1_555 1_555
C29 C26 1_555 1_555
H35 C29 1_555 1_555
H36 C29 1_555 1_555
H37 C29 1_555 1_555
C30 C26 1_555 1_555
N1 C30 1_555 1_555
O1 C1 1_555 1_555
O2 C1 1_555 1_555
H38 C16 1_555 1_555
H39 C16 1_555 1_555
H40 C25 1_555 1_555
H41 C25 1_555 1_555
C2 O1 1_555 1_555
C3 O2 1_555 1_555
C6 C7 1_555 1_555
C11 C12 1_555 1_555
C15 C16 1_555 1_555
C21 C22 1_555 1_555
C27 C28 1_555 1_555

#END
