
#######################################################################
#
#                 Cambridge Crystallographic Data Centre
#                                CCDC 
#
#######################################################################
#
# If this CIF has been generated from an entry in the Cambridge 
# Structural Database, then it will include bibliographic, chemical, 
# crystal, experimental, refinement or atomic coordinate data resulting 
# from the CCDC's data processing and validation procedures.
#
#######################################################################

data_JAFJOQ
_chemical_formula_moiety         'C19 H18 N2 O4'
_chemical_name_systematic        
(4S)-3-((2S,3S)-2-(4-Methoxyphenyl)-4-oxoazetidine-3-yl)-4-phenyloxazolidin-2-one
_symmetry_cell_setting           monoclinic
_symmetry_space_group_name_H-M   'P 21'
_symmetry_Int_Tables_number      4
_space_group_name_Hall           'P 2yb'
loop_
_symmetry_equiv_pos_site_id
_symmetry_equiv_pos_as_xyz
1 x,y,z
2 -x,1/2+y,-z
_cell_length_a                   11.4642(5)
_cell_length_b                   6.4312(3)
_cell_length_c                   11.8629(5)
_cell_angle_alpha                90
_cell_angle_beta                 105.9850(10)
_cell_angle_gamma                90
_cell_volume                     840.816
_exptl_crystal_colour            colorless
_exptl_crystal_description       parallelepiped
_chemical_melting_point          190-195deg.C
_cell_formula_units_Z            2
loop_
_atom_site_label
_atom_site_type_symbol
_atom_site_fract_x
_atom_site_fract_y
_atom_site_fract_z
C1 C 0.16243(19) 0.5856(4) 0.0058(2)
C2 C 0.2094(2) 0.8780(4) 0.08338(19)
H1 H 0.204(2) 0.993(3) 0.0311(19)
C3 C 0.28423(17) 0.6991(3) 0.04770(18)
H2 H 0.3350(18) 0.626(3) 0.1121(16)
N1 N 0.10555(17) 0.7372(4) 0.04606(16)
H3 H 0.035(2) 0.757(5) 0.042(2)
C4 C 0.47478(18) 0.7606(3) 0.00386(18)
C5 C 0.42494(18) 0.7676(4) -0.19539(18)
H4 H 0.4437 0.6755 -0.2528
H5 H 0.4110 0.9063 -0.2284
C6 C 0.31365(19) 0.6899(4) -0.16068(18)
H6 H 0.309(2) 0.541(3) -0.1663(19)
O1 O 0.53629(13) 0.7703(3) 0.10357(13)
O2 O 0.52253(12) 0.7686(3) -0.08839(12)
N2 N 0.35244(13) 0.7395(3) -0.03529(13)
O3 O 0.13080(14) 0.4198(3) -0.04112(14)
C7 C 0.19691(19) 0.7879(4) -0.22938(17)
C8 C 0.1150(2) 0.6675(4) -0.3111(2)
H7 H 0.1325 0.5287 -0.3212
C9 C 0.0076(2) 0.7525(6) -0.3776(2)
H8 H -0.0464 0.6711 -0.4330
C10 C -0.0199(3) 0.9547(5) -0.3627(2)
H9 H -0.0928 1.0109 -0.4071
C11 C 0.0607(2) 1.0758(4) -0.2815(2)
H10 H 0.0415 1.2135 -0.2705
C12 C 0.1699(2) 0.9937(4) -0.2163(2)
H11 H 0.2252 1.0775 -0.1636
C13 C 0.24396(19) 0.9421(3) 0.20962(18)
C14 C 0.2396(3) 0.8033(4) 0.2971(2)
H12 H 0.2112 0.6690 0.2773
C15 C 0.2769(3) 0.8614(4) 0.4138(2)
H13 H 0.2721 0.7666 0.4716
C16 C 0.3208(2) 1.0575(4) 0.4451(2)
C17 C 0.3254(2) 1.1980(4) 0.3594(2)
H14 H 0.3549 1.3315 0.3797
C18 C 0.2856(2) 1.1400(3) 0.2426(2)
H15 H 0.2872 1.2372 0.1850
O4 O 0.3578(2) 1.0949(3) 0.56283(15)
C19 C 0.3893(3) 1.2980(5) 0.6017(3)
H16 H 0.4567 1.3435 0.5747
H17 H 0.4115 1.3011 0.6859
H18 H 0.3213 1.3886 0.5713
loop_
_geom_bond_atom_site_label_1
_geom_bond_atom_site_label_2
_geom_bond_site_symmetry_1
_geom_bond_site_symmetry_2
C1 C3 1_555 1_555
C2 H1 1_555 1_555
C3 C2 1_555 1_555
H2 C3 1_555 1_555
N1 C1 1_555 1_555
H3 N1 1_555 1_555
C4 O1 1_555 1_555
C5 H4 1_555 1_555
H5 C5 1_555 1_555
C6 C5 1_555 1_555
H6 C6 1_555 1_555
O2 C4 1_555 1_555
N2 C3 1_555 1_555
O3 C1 1_555 1_555
C7 C6 1_555 1_555
C8 C7 1_555 1_555
H7 C8 1_555 1_555
C9 C8 1_555 1_555
H8 C9 1_555 1_555
C10 C9 1_555 1_555
H9 C10 1_555 1_555
C11 C10 1_555 1_555
H10 C11 1_555 1_555
C12 C7 1_555 1_555
H11 C12 1_555 1_555
C13 C2 1_555 1_555
C14 C13 1_555 1_555
H12 C14 1_555 1_555
C15 C14 1_555 1_555
H13 C15 1_555 1_555
C16 C15 1_555 1_555
C17 C16 1_555 1_555
H14 C17 1_555 1_555
C18 C13 1_555 1_555
H15 C18 1_555 1_555
O4 C16 1_555 1_555
C19 O4 1_555 1_555
H16 C19 1_555 1_555
H17 C19 1_555 1_555
H18 C19 1_555 1_555
C2 N1 1_555 1_555
C4 N2 1_555 1_555
C5 O2 1_555 1_555
C6 N2 1_555 1_555
C11 C12 1_555 1_555
C17 C18 1_555 1_555

#END
