
#######################################################################
#
#                 Cambridge Crystallographic Data Centre
#                                CCDC 
#
#######################################################################
#
# If this CIF has been generated from an entry in the Cambridge 
# Structural Database, then it will include bibliographic, chemical, 
# crystal, experimental, refinement or atomic coordinate data resulting 
# from the CCDC's data processing and validation procedures.
#
#######################################################################

data_JAGBIF
_chemical_name_common            
'2-(4-hydroxyphenyl)-1,1,1,3,3,3- hexafluoropropan-2-ol'
_chemical_formula_moiety         'C9 H6 F6 O2'
_chemical_name_systematic        
4-(1,1,1,3,3,3-hexafluoro-2-hydroxypropan-2-yl)phenol
_symmetry_cell_setting           monoclinic
_symmetry_space_group_name_H-M   'C c'
_symmetry_Int_Tables_number      9
_space_group_name_Hall           'C -2yc'
loop_
_symmetry_equiv_pos_site_id
_symmetry_equiv_pos_as_xyz
1 x,y,z
2 x,-y,1/2+z
3 1/2+x,1/2+y,z
4 1/2+x,1/2-y,1/2+z
_cell_length_a                   7.0486(7)
_cell_length_b                   20.2979(17)
_cell_length_c                   7.5929(6)
_cell_angle_alpha                90
_cell_angle_beta                 109.893(2)
_cell_angle_gamma                90
_cell_volume                     1021.51
_exptl_crystal_colour            colorless
_exptl_crystal_description       block
_chemical_melting_point          '395 K'
_cell_formula_units_Z            4
loop_
_atom_site_label
_atom_site_type_symbol
_atom_site_fract_x
_atom_site_fract_y
_atom_site_fract_z
F1 F 0.0904(6) 0.19077(19) -0.0247(5)
F2 F 0.3616(7) 0.21738(16) 0.1946(5)
F3 F 0.3525(6) 0.1305(2) 0.0284(5)
F4 F -0.1308(6) 0.1790(2) 0.2002(7)
F5 F 0.1260(6) 0.2216(2) 0.4076(6)
F6 F 0.0078(7) 0.1295(2) 0.4645(6)
O1 O 0.0653(5) 0.07496(19) 0.1393(5)
H1 H 0.955(9) 0.050(3) 0.879(8)
O2 O 0.9028(5) 0.02389(18) 0.7821(5)
H2 H 0.033(9) 0.044(3) 0.206(9)
C1 C 0.7258(7) 0.0499(2) 0.6626(6)
C2 C 0.6699(8) 0.1136(2) 0.6759(7)
H3 H 0.7506 0.1407 0.7704
C3 C 0.4919(8) 0.1377(2) 0.5473(7)
H4 H 0.4536 0.1810 0.5572
C4 C 0.3704(7) 0.0980(2) 0.4041(6)
C5 C 0.4295(7) 0.0334(2) 0.3965(6)
H5 H 0.3500 0.0058 0.3026
C6 C 0.6043(7) 0.0093(2) 0.5257(7)
H6 H 0.6403 -0.0345 0.5202
C7 C 0.1860(8) 0.1251(2) 0.2521(7)
C8 C 0.2505(9) 0.1663(3) 0.1123(8)
C9 C 0.0487(9) 0.1646(3) 0.3308(9)
loop_
_geom_bond_atom_site_label_1
_geom_bond_atom_site_label_2
_geom_bond_site_symmetry_1
_geom_bond_site_symmetry_2
F1 C8 1_555 1_555
F2 C8 1_555 1_555
F3 C8 1_555 1_555
F4 C9 1_555 1_555
F5 C9 1_555 1_555
F6 C9 1_555 1_555
O1 H2 1_555 1_555
H1 O2 1_555 1_555
O2 C1 1_555 1_555
C1 C2 1_555 1_555
C2 H3 1_555 1_555
C3 C2 1_555 1_555
H4 C3 1_555 1_555
C4 C3 1_555 1_555
C5 C4 1_555 1_555
H5 C5 1_555 1_555
C6 C1 1_555 1_555
H6 C6 1_555 1_555
C7 O1 1_555 1_555
C8 C7 1_555 1_555
C9 C7 1_555 1_555
C4 C7 1_555 1_555
C5 C6 1_555 1_555

#END
