
#######################################################################
#
#                 Cambridge Crystallographic Data Centre
#                                CCDC 
#
#######################################################################
#
# If this CIF has been generated from an entry in the Cambridge 
# Structural Database, then it will include bibliographic, chemical, 
# crystal, experimental, refinement or atomic coordinate data resulting 
# from the CCDC's data processing and validation procedures.
#
#######################################################################

data_JAGGUW
_chemical_formula_moiety         'C19 H12 N2 O3'
_chemical_name_systematic        
2-amino-5-oxo-4-phenyl-4H,5H-pyrano[3,2-c]chromene-3-carbonitrile
_symmetry_cell_setting           monoclinic
_symmetry_space_group_name_H-M   'P 21/c'
_symmetry_Int_Tables_number      14
_space_group_name_Hall           '-P 2ybc'
loop_
_symmetry_equiv_pos_site_id
_symmetry_equiv_pos_as_xyz
1 x,y,z
2 -x,1/2+y,1/2-z
3 -x,-y,-z
4 x,1/2-y,1/2+z
_cell_length_a                   9.0750(6)
_cell_length_b                   13.2729(8)
_cell_length_c                   12.6892(9)
_cell_angle_alpha                90
_cell_angle_beta                 96.975(6)
_cell_angle_gamma                90
_cell_volume                     1517.12
_exptl_crystal_colour            white
_exptl_crystal_description       Block
_cell_formula_units_Z            4
loop_
_atom_site_label
_atom_site_type_symbol
_atom_site_fract_x
_atom_site_fract_y
_atom_site_fract_z
O1 O 0.44183(15) -0.15994(11) 0.93100(10)
C1 C 0.5149(2) -0.18355(16) 0.84491(15)
C2 C 0.49023(19) -0.13227(15) 0.75307(15)
C3 C 0.37149(19) -0.05190(15) 0.73164(15)
H1 H 0.4151 0.0068 0.7003
C4 C 0.32249(19) -0.02126(15) 0.83601(15)
C5 C 0.2335(2) 0.06819(16) 0.83826(17)
O2 O 0.20233(15) 0.12517(12) 0.76403(12)
O3 O 0.17820(14) 0.09210(10) 0.93145(11)
C6 C 0.2058(2) 0.03291(16) 1.02075(16)
C7 C 0.1396(2) 0.06188(18) 1.10854(17)
H2 H 0.0782 0.1182 1.1060
C8 C 0.1668(2) 0.00529(19) 1.19962(18)
H3 H 0.1231 0.0237 1.2594
C9 C 0.2577(3) -0.07832(18) 1.20402(17)
H4 H 0.2759 -0.1151 1.2666
C10 C 0.3212(2) -0.10718(18) 1.11599(17)
H5 H 0.3813 -0.1641 1.1188
C11 C 0.2958(2) -0.05136(15) 1.02223(15)
C12 C 0.3539(2) -0.07578(15) 0.92485(15)
N1 N 0.60583(18) -0.26158(14) 0.86936(13)
H6 H 0.6582 -0.2852 0.8229
H7 H 0.6119 -0.2882 0.9315
C13 C 0.5705(2) -0.15738(16) 0.66822(16)
N2 N 0.63202(19) -0.17451(16) 0.59645(14)
C14 C 0.2418(2) -0.09015(15) 0.65390(15)
C15 C 0.2257(3) -0.0636(2) 0.54848(18)
H8 H 0.2925 -0.0189 0.5235
C16 C 0.1097(3) -0.1034(3) 0.4789(2)
H9 H 0.1000 -0.0855 0.4075
C17 C 0.0108(3) -0.1679(2) 0.5142(3)
H10 H -0.0662 -0.1940 0.4671
C18 C 0.0242(3) -0.19447(19) 0.6182(2)
H11 H -0.0441 -0.2383 0.6426
C19 C 0.1393(2) -0.15631(17) 0.68728(17)
H12 H 0.1483 -0.1755 0.7583
loop_
_geom_bond_atom_site_label_1
_geom_bond_atom_site_label_2
_geom_bond_site_symmetry_1
_geom_bond_site_symmetry_2
O1 C1 1_555 1_555
C1 C2 1_555 1_555
C2 C3 1_555 1_555
C3 H1 1_555 1_555
C4 C3 1_555 1_555
C5 C4 1_555 1_555
O2 C5 1_555 1_555
O3 C5 1_555 1_555
C6 O3 1_555 1_555
C7 C6 1_555 1_555
H2 C7 1_555 1_555
C8 C7 1_555 1_555
H3 C8 1_555 1_555
C9 C8 1_555 1_555
H4 C9 1_555 1_555
C10 C9 1_555 1_555
H5 C10 1_555 1_555
C11 C6 1_555 1_555
C12 O1 1_555 1_555
N1 C1 1_555 1_555
H6 N1 1_555 1_555
H7 N1 1_555 1_555
C13 C2 1_555 1_555
N2 C13 1_555 1_555
C14 C3 1_555 1_555
C15 C14 1_555 1_555
H8 C15 1_555 1_555
C16 C15 1_555 1_555
H9 C16 1_555 1_555
C17 C16 1_555 1_555
H10 C17 1_555 1_555
C18 C17 1_555 1_555
H11 C18 1_555 1_555
C19 C14 1_555 1_555
H12 C19 1_555 1_555
C4 C12 1_555 1_555
C10 C11 1_555 1_555
C11 C12 1_555 1_555
C18 C19 1_555 1_555

#END
