
#######################################################################
#
#                 Cambridge Crystallographic Data Centre
#                                CCDC 
#
#######################################################################
#
# If this CIF has been generated from an entry in the Cambridge 
# Structural Database, then it will include bibliographic, chemical, 
# crystal, experimental, refinement or atomic coordinate data resulting 
# from the CCDC's data processing and validation procedures.
#
#######################################################################

data_JAGHOR
_chemical_formula_moiety         'C19 H11 N3 O5,C2 H6 O1 S1'
_chemical_name_systematic        
'2-Amino-4-(3-nitrophenyl)-5-oxo-4,5-dihydropyrano[3,2-c]chromene-3-carbonitrile dimethyl sulfoxide solvate'
_symmetry_cell_setting           triclinic
_symmetry_space_group_name_H-M   'P -1'
_symmetry_Int_Tables_number      2
_space_group_name_Hall           '-P 1'
loop_
_symmetry_equiv_pos_site_id
_symmetry_equiv_pos_as_xyz
1 x,y,z
2 -x,-y,-z
_cell_length_a                   7.7970(12)
_cell_length_b                   9.0390(10)
_cell_length_c                   15.148(2)
_cell_angle_alpha                81.439(10)
_cell_angle_beta                 75.194(12)
_cell_angle_gamma                76.151(11)
_cell_volume                     997.752
_exptl_crystal_colour            white
_exptl_crystal_description       block
_cell_formula_units_Z            2
loop_
_atom_site_label
_atom_site_type_symbol
_atom_site_fract_x
_atom_site_fract_y
_atom_site_fract_z
O1 O 0.0013(6) 0.6137(5) -0.2355(3)
C1 C -0.1619(8) 0.4880(7) -0.0802(4)
H1 H -0.1614 0.5653 -0.0432
H2 H -0.1610 0.3918 -0.0434
C2 C -0.0097(11) 0.3247(7) -0.2239(5)
H3 H 0.0863 0.3007 -0.2770
H4 H -0.1233 0.3591 -0.2418
H5 H -0.0143 0.2350 -0.1812
S1 S 0.0316(2) 0.47114(19) -0.17119(13)
H6 H -0.2689 0.5160 -0.1044
O2 O 0.8171(6) 0.9819(6) 0.0634(3)
O3 O 0.9160(7) 0.8026(6) -0.0261(4)
N1 N 0.8234(7) 0.9282(7) -0.0069(4)
O4 O 0.2846(4) 1.0641(4) -0.3688(2)
O5 O 0.7393(5) 1.2335(4) -0.4942(2)
C3 C 0.4270(7) 0.7561(6) -0.1989(4)
C4 C 0.7190(6) 0.9494(6) -0.1477(4)
H7 H 0.7890 0.8522 -0.1587
C5 C 0.2909(6) 0.9399(5) -0.3034(3)
C6 C 0.4415(6) 1.1153(6) -0.4058(4)
O6 O 0.8948(5) 1.0912(5) -0.3979(3)
C7 C 0.4278(6) 1.2298(6) -0.4811(3)
C8 C 0.5924(6) 1.0670(6) -0.3749(3)
C9 C 0.4351(6) 0.8857(6) -0.2658(4)
N2 N 0.1324(5) 0.8941(5) -0.2847(3)
H8 H 0.1131 0.8199 -0.2434
H9 H 0.0504 0.9391 -0.3141
C10 C 0.5818(7) 1.2863(6) -0.5238(3)
C11 C 0.6023(7) 0.9558(6) -0.2901(3)
H10 H 0.7104 0.8740 -0.3045
C12 C 0.5152(7) 1.1765(6) -0.1893(4)
H11 H 0.4460 1.2324 -0.2296
C13 C 0.7181(7) 1.0168(6) -0.0715(4)
C14 C 0.6124(6) 1.0302(6) -0.2080(4)
C15 C 0.6192(7) 1.1620(6) -0.0529(4)
H12 H 0.6216 1.2043 -0.0010
C16 C 0.7504(7) 1.1276(6) -0.4203(4)
C17 C 0.5812(8) 1.3986(6) -0.5966(4)
H13 H 0.6857 1.4357 -0.6241
N3 N 0.4235(7) 0.6524(6) -0.1452(3)
C18 C 0.2684(8) 1.2878(6) -0.5142(4)
H14 H 0.1632 1.2517 -0.4869
C19 C 0.2707(8) 1.3982(7) -0.5873(4)
H15 H 0.1668 1.4355 -0.6100
C20 C 0.5175(7) 1.2419(6) -0.1131(4)
H16 H 0.4502 1.3401 -0.1025
C21 C 0.4265(2) 1.45465(19) -0.62771(13)
H17 H 0.4252 1.5310 -0.6762
S2? S -0.113(5) 0.489(4) -0.201(3)
H18? H -0.1205 0.2959 -0.1897
H19? H 0.0891 0.2375 -0.2249
H20? H -0.0199 0.3615 -0.2855
H21? H -0.1253 0.4661 -0.0229
H22? H -0.2328 0.4168 -0.0841
H23? H -0.2332 0.5902 -0.0839
loop_
_geom_bond_atom_site_label_1
_geom_bond_atom_site_label_2
_geom_bond_site_symmetry_1
_geom_bond_site_symmetry_2
O1 S1 1_555 1_555
C1 H1 1_555 1_555
H2 C1 1_555 1_555
C2 H3 1_555 1_555
H4 C2 1_555 1_555
H5 C2 1_555 1_555
S1 C1 1_555 1_555
H6 C1 1_555 1_555
O2 N1 1_555 1_555
O3 N1 1_555 1_555
N1 C13 1_555 1_555
O4 C5 1_555 1_555
O5 C10 1_555 1_555
C3 C9 1_555 1_555
C4 H7 1_555 1_555
C5 C9 1_555 1_555
C6 O4 1_555 1_555
O6 C16 1_555 1_555
C7 C6 1_555 1_555
C8 C6 1_555 1_555
C9 C11 1_555 1_555
N2 C5 1_555 1_555
H8 N2 1_555 1_555
H9 N2 1_555 1_555
C10 C7 1_555 1_555
C11 C8 1_555 1_555
H10 C11 1_555 1_555
C12 H11 1_555 1_555
C13 C4 1_555 1_555
C14 C4 1_555 1_555
C15 C13 1_555 1_555
H12 C15 1_555 1_555
C16 O5 1_555 1_555
C17 C10 1_555 1_555
H13 C17 1_555 1_555
N3 C3 1_555 1_555
C18 C7 1_555 1_555
H14 C18 1_555 1_555
C19 C18 1_555 1_555
H15 C19 1_555 1_555
C20 C12 1_555 1_555
H16 C20 1_555 1_555
C21 C17 1_555 1_555
H17 C21 1_555 1_555
C2 S1 1_555 1_555
C8 C16 1_555 1_555
C11 C14 1_555 1_555
C12 C14 1_555 1_555
C15 C20 1_555 1_555
C19 C21 1_555 1_555

#END
