
#######################################################################
#
#                 Cambridge Crystallographic Data Centre
#                                CCDC 
#
#######################################################################
#
# If this CIF has been generated from an entry in the Cambridge 
# Structural Database, then it will include bibliographic, chemical, 
# crystal, experimental, refinement or atomic coordinate data resulting 
# from the CCDC's data processing and validation procedures.
#
#######################################################################

data_JAGTET02
_chemical_formula_moiety         'C70 H92 N4 Si4'
_chemical_name_systematic        
1,4,9,12-tetrakis{[tris(propan-2-yl)silyl]ethynyl}quinoxalino[2'',3'':4',5']cyclopenta[1',2',3':5,6]acenaphtho[1,2-b]quinoxaline
_symmetry_cell_setting           triclinic
_symmetry_space_group_name_H-M   'P -1'
_symmetry_Int_Tables_number      2
_space_group_name_Hall           '-P 1'
loop_
_symmetry_equiv_pos_site_id
_symmetry_equiv_pos_as_xyz
1 x,y,z
2 -x,-y,-z
_cell_length_a                   7.7046(2)
_cell_length_b                   18.0195(5)
_cell_length_c                   35.6738(9)
_cell_angle_alpha                84.611(6)
_cell_angle_beta                 85.683(6)
_cell_angle_gamma                82.538(6)
_cell_volume                     4879.06
_exptl_crystal_colour            yellow
_exptl_crystal_description       prism
_cell_formula_units_Z            4
loop_
_atom_site_label
_atom_site_type_symbol
_atom_site_fract_x
_atom_site_fract_y
_atom_site_fract_z
C1 C 0.1912(5) 0.52362(19) 0.51568(10)
N1 N 0.1318(4) 0.53295(16) 0.55048(8)
C2 C 0.1865(5) 0.47409(19) 0.57621(9)
C3 C 0.1349(5) 0.4810(2) 0.61514(10)
C4 C 0.1815(5) 0.4217(2) 0.64100(10)
H1 H 0.1466 0.4259 0.6669
C5 C 0.2788(5) 0.3556(2) 0.63019(10)
H2 H 0.3059 0.3152 0.6487
C6 C 0.3360(5) 0.3478(2) 0.59326(10)
C7 C 0.2938(5) 0.4084(2) 0.56546(10)
N2 N 0.3584(4) 0.40103(16) 0.52857(8)
C8 C 0.3087(5) 0.45774(19) 0.50482(10)
C9 C 0.3540(5) 0.46906(19) 0.46366(10)
C10 C 0.4598(5) 0.4323(2) 0.43617(10)
H3 H 0.5268 0.3854 0.4427
C11 C 0.4684(5) 0.4647(2) 0.39803(10)
H4 H 0.5430 0.4396 0.3795
C12 C 0.3689(5) 0.53232(19) 0.38775(10)
C13 C 0.3353(5) 0.5835(2) 0.35351(10)
N3 N 0.4039(4) 0.57738(16) 0.31921(8)
C14 C 0.3402(5) 0.6344(2) 0.29305(10)
C15 C 0.4113(5) 0.6325(2) 0.25496(10)
C16 C 0.3439(6) 0.6868(2) 0.22832(11)
H5 H 0.3909 0.6863 0.2029
C17 C 0.2090(6) 0.7422(2) 0.23764(11)
H6 H 0.1634 0.7779 0.2184
C18 C 0.1395(5) 0.7465(2) 0.27440(10)
C19 C 0.2077(5) 0.6920(2) 0.30277(10)
N4 N 0.1408(4) 0.69907(16) 0.33936(8)
C20 C 0.2050(5) 0.6459(2) 0.36380(10)
C21 C 0.1636(5) 0.63605(19) 0.40517(10)
C22 C 0.0584(5) 0.67261(19) 0.43276(10)
H7 H -0.0130 0.7183 0.4260
C23 C 0.0563(5) 0.64208(19) 0.47135(10)
H8 H -0.0141 0.6682 0.4901
C24 C 0.1565(5) 0.5747(2) 0.48137(10)
C25 C 0.2587(5) 0.53825(19) 0.45273(10)
C26 C 0.2636(5) 0.56762(19) 0.41616(10)
C27 C 0.0368(5) 0.5501(2) 0.62621(10)
C28 C -0.0409(5) 0.6091(2) 0.63552(10)
Si1 Si -0.16013(14) 0.70076(6) 0.64503(3)
C29 C -0.2870(5) 0.7360(2) 0.60235(10)
H9 H -0.3948 0.7100 0.6048
C30 C -0.1894(5) 0.7161(2) 0.56467(10)
H10 H -0.1500 0.6620 0.5659
H11 H -0.2684 0.7298 0.5442
H12 H -0.0875 0.7439 0.5600
C31 C -0.3500(6) 0.8204(2) 0.60115(11)
H13 H -0.4118 0.8321 0.6253
H14 H -0.2488 0.8486 0.5966
H15 H -0.4297 0.8344 0.5808
C32 C -0.3076(5) 0.6857(2) 0.68893(10)
H16 H -0.2301 0.6625 0.7092
C33 C -0.4370(5) 0.6295(2) 0.68428(11)
H17 H -0.3725 0.5834 0.6753
H18 H -0.4994 0.6178 0.7086
H19 H -0.5217 0.6517 0.6659
C34 C -0.4044(5) 0.7589(2) 0.70298(11)
H20 H -0.3195 0.7937 0.7057
H21 H -0.4889 0.7817 0.6847
H22 H -0.4666 0.7478 0.7274
C35 C 0.0051(5) 0.7640(2) 0.65435(11)
H23 H -0.0596 0.8153 0.6571
C36 C 0.0901(6) 0.7376(3) 0.69177(11)
H24 H -0.0018 0.7331 0.7121
H25 H 0.1603 0.6886 0.6895
H26 H 0.1659 0.7742 0.6975
C37 C 0.1470(6) 0.7712(3) 0.62225(11)
H27 H 0.0916 0.7881 0.5986
H28 H 0.2229 0.8079 0.6278
H29 H 0.2173 0.7223 0.6198
C38 C 0.4340(5) 0.2793(2) 0.58160(10)
C39 C 0.5123(5) 0.2212(2) 0.57220(10)
Si2 Si 0.63547(14) 0.13747(6) 0.55261(3)
C40 C 0.7696(5) 0.1721(2) 0.50950(10)
H30 H 0.8768 0.1883 0.5188
C41 C 0.8332(6) 0.1098(2) 0.48361(11)
H31 H 0.8916 0.0663 0.4984
H32 H 0.7327 0.0950 0.4721
H33 H 0.9161 0.1281 0.4638
C42 C 0.6780(5) 0.2405(2) 0.48682(10)
H34 H 0.6377 0.2801 0.5036
H35 H 0.7605 0.2591 0.4670
H36 H 0.5772 0.2260 0.4753
C43 C 0.4711(5) 0.0743(2) 0.54169(11)
H37 H 0.5374 0.0320 0.5283
C44 C 0.3328(5) 0.1141(2) 0.51568(12)
H38 H 0.3910 0.1356 0.4926
H39 H 0.2576 0.0779 0.5093
H40 H 0.2612 0.1543 0.5285
C45 C 0.3846(5) 0.0402(2) 0.57799(11)
H41 H 0.4753 0.0150 0.5943
H42 H 0.3132 0.0800 0.5912
H43 H 0.3096 0.0036 0.5719
C46 C 0.7773(5) 0.0874(2) 0.59008(10)
H44 H 0.6963 0.0761 0.6125
C47 C 0.8737(5) 0.0115(2) 0.57957(12)
H45 H 0.7895 -0.0190 0.5713
H46 H 0.9630 0.0197 0.5591
H47 H 0.9301 -0.0149 0.6016
C48 C 0.9063(5) 0.1361(2) 0.60312(11)
H48 H 0.8428 0.1843 0.6097
H49 H 0.9628 0.1103 0.6253
H50 H 0.9958 0.1449 0.5827
C49 C 0.5519(6) 0.5773(2) 0.24358(10)
C50 C 0.6691(6) 0.5368(2) 0.22914(11)
Si3 Si 0.85156(15) 0.48788(6) 0.20082(3)
C51 C 0.9048(6) 0.5586(2) 0.16080(12)
H51 H 0.9956 0.5323 0.1435
C52 C 0.9842(7) 0.6249(3) 0.17370(13)
H52 H 1.0851 0.6059 0.1885
H53 H 1.0223 0.6566 0.1516
H54 H 0.8958 0.6545 0.1892
C53 C 0.7463(8) 0.5879(3) 0.13751(13)
H55 H 0.6961 0.5453 0.1293
H56 H 0.6576 0.6174 0.1530
H57 H 0.7841 0.6196 0.1153
C54 C 0.7713(6) 0.4044(3) 0.18360(11)
H58 H 0.6537 0.4265 0.1750
C55 C 0.8529(12) 0.3757(5) 0.1502(2)
H59 H 0.8792 0.4175 0.1319
H60 H 0.9620 0.3438 0.1561
H61 H 0.7740 0.3460 0.1395
C56 C 0.7210(6) 0.3473(2) 0.21518(11)
H62 H 0.6659 0.3735 0.2367
H63 H 0.6383 0.3169 0.2063
H64 H 0.8263 0.3147 0.2229
C57 C 1.0415(6) 0.4559(2) 0.23109(11)
H65 H 1.0199 0.4057 0.2438
C58 C 1.0565(7) 0.5058(3) 0.26244(12)
H66 H 0.9437 0.5134 0.2770
H67 H 1.1469 0.4817 0.2791
H68 H 1.0886 0.5544 0.2514
C59 C 1.2168(6) 0.4431(3) 0.20781(13)
H69 H 1.2051 0.4108 0.1877
H70 H 1.2495 0.4915 0.1966
H71 H 1.3078 0.4187 0.2242
C60 C 0.0009(6) 0.8052(2) 0.28210(10)
C61 C -0.1161(6) 0.8568(2) 0.28356(11)
Si4 Si -0.28937(15) 0.93615(6) 0.27599(3)
C62 C -0.3436(6) 0.9338(2) 0.22528(12)
H72 H -0.4389 0.9754 0.2192
C63 C -0.4011(8) 0.8594(3) 0.21645(13)
H73 H -0.5046 0.8491 0.2328
H74 H -0.4300 0.8629 0.1900
H75 H -0.3056 0.8187 0.2209
C64 C -0.1875(12) 0.9438(5) 0.1991(2)
H76 H -0.1431 0.9908 0.2032
H77 H -0.0960 0.9015 0.2038
H78 H -0.2204 0.9457 0.1730
C65 C -0.1891(6) 1.0245(2) 0.28108(12)
H79 H -0.0722 1.0188 0.2667
C66 C -0.2919(15) 1.0934(5) 0.2625(3)
H80 H -0.3107 1.0848 0.2365
H81 H -0.4055 1.1038 0.2765
H82 H -0.2262 1.1365 0.2624
C67 C -0.1513(8) 1.0312(3) 0.32203(14)
H83 H -0.0845 0.9845 0.3321
H84 H -0.0830 1.0731 0.3231
H85 H -0.2623 1.0404 0.3372
C68 C -0.4784(6) 0.9255(3) 0.31155(12)
H86 H -0.4491 0.9402 0.3364
C69 C -0.6570(17) 0.9712(11) 0.2998(5)
H87 H -0.6440 1.0248 0.2960
H88 H -0.6894 0.9542 0.2762
H89 H -0.7489 0.9630 0.3197
C70 C -0.5257(16) 0.8394(7) 0.3163(3)
H90 H -0.4222 0.8053 0.3238
H91 H -0.6216 0.8350 0.3358
H92 H -0.5620 0.8263 0.2923
H93? H 0.8854 0.3775 0.1740
C71? C 0.6682(12) 0.4054(5) 0.1501(2)
H94? H 0.7057 0.4431 0.1306
H95? H 0.6874 0.3558 0.1403
H96? H 0.5433 0.4181 0.1573
H97? H -0.2351 0.9417 0.2089
C72? C -0.4853(14) 0.9935(6) 0.2128(3)
H98? H -0.4552 1.0427 0.2178
H99? H -0.4975 0.9926 0.1857
H100? H -0.5963 0.9846 0.2268
H101? H -0.2816 1.0671 0.2746
C73? C -0.0251(13) 1.0353(6) 0.2508(3)
H102? H -0.0598 1.0302 0.2254
H103? H 0.0106 1.0853 0.2519
H104? H 0.0733 0.9969 0.2569
H105? H -0.4236 0.9143 0.3363
C74? C -0.5894(18) 1.0048(6) 0.3143(3)
H106? H -0.5106 1.0427 0.3160
H107? H -0.6562 1.0177 0.2918
H108? H -0.6706 1.0034 0.3368
C75? C -0.5738(18) 0.8650(8) 0.3089(3)
H109? H -0.4926 0.8187 0.3073
H110? H -0.6548 0.8600 0.3312
H111? H -0.6404 0.8743 0.2862
N5? N 0.899(2) 0.4365(6) 0.0548(3)
N6? N 0.8597(12) 0.5975(5) 0.0367(2)
C76? C -0.1310(18) 0.5316(6) -0.0703(3)
C77? C -0.2775(15) 0.5681(5) -0.0904(3)
C78? C -0.3942(13) 0.5233(5) -0.1012(2)
H112? H -0.4927 0.5464 -0.1143
C79? C -0.3726(14) 0.4460(5) -0.0937(2)
H113? H -0.4565 0.4175 -0.1016
C80? C -0.2295(19) 0.4091(7) -0.0747(3)
C81? C -0.1060(16) 0.4519(6) -0.0622(2)
N7? N -0.0132(12) 0.5755(5) -0.0591(2)
N8? N 0.0325(19) 0.4150(6) -0.0430(3)
C82? C 0.2317(17) 0.5275(6) -0.0367(2)
C83? C 1.0200(16) 0.4794(5) 0.0646(2)
C84? C 1.1652(19) 0.4444(6) 0.0852(3)
C85? C 1.2876(13) 0.4856(6) 0.0935(2)
H114? H 1.3869 0.4614 0.1060
C86? C 1.2734(17) 0.5641(6) 0.0842(3)
H115? H 1.3627 0.5915 0.0907
C87? C 1.1327(15) 0.6015(6) 0.0659(3)
C88? C 1.001(3) 0.5596(8) 0.0546(3)
C89? C 0.2515(19) 0.4456(7) -0.0273(3)
C90? C 0.4157(15) 0.4236(7) -0.0073(3)
C91? C 0.5046(18) 0.3600(7) 0.0084(3)
H116? H 0.4602 0.3133 0.0081
C92? C 0.6684(13) 0.3633(5) 0.0257(2)
H117? H 0.7336 0.3184 0.0357
C93? C 0.7295(15) 0.4321(6) 0.0276(2)
C94? C 0.881(3) 0.4604(8) 0.0417(4)
C95? C 0.8582(15) 0.5422(6) 0.0335(2)
C96? C 0.692(2) 0.5645(7) 0.0135(3)
C97? C 0.6014(14) 0.6295(6) -0.0021(2)
H118? H 0.6450 0.6762 -0.0013
C98? C 0.4410(18) 0.6268(6) -0.0198(3)
H119? H 0.3770 0.6716 -0.0303
C99? C 0.3799(14) 0.5570(6) -0.0213(2)
C100? C 0.478(3) 0.4937(10) -0.0055(4)
C101? C 0.6304(13) 0.4962(6) 0.0112(2)
C102? C 1.1699(12) 0.3670(5) 0.0976(2)
C103? C 1.1768(12) 0.3023(5) 0.1111(2)
Si5? Si 1.1782(4) 0.20175(15) 0.12624(7)
C104? C 0.9458(11) 0.1808(5) 0.1273(2)
H120? H 0.8877 0.1996 0.1513
C105? C 0.8398(13) 0.2242(5) 0.0952(3)
H121? H 0.8534 0.2777 0.0942
H122? H 0.8835 0.2046 0.0711
H123? H 0.7156 0.2177 0.1001
C106? C 0.9295(12) 0.0972(5) 0.1303(3)
H124? H 0.9980 0.0717 0.1508
H125? H 0.8060 0.0896 0.1354
H126? H 0.9739 0.0765 0.1064
C107? C 1.3356(12) 0.1536(5) 0.0898(2)
H127? H 1.4394 0.1821 0.0863
C108? C 1.4056(13) 0.0725(5) 0.1029(3)
H128? H 1.4578 0.0714 0.1272
H129? H 1.3090 0.0416 0.1056
H130? H 1.4949 0.0526 0.0841
C109? C 1.248(3) 0.1636(11) 0.0511(7)
H131? H 1.2074 0.2169 0.0450
H132? H 1.3342 0.1457 0.0313
H133? H 1.1483 0.1346 0.0529
C110? C 1.2657(13) 0.1824(5) 0.1736(3)
H134? H 1.2730 0.1269 0.1799
C111? C 1.1475(16) 0.2191(6) 0.2051(2)
H135? H 1.0282 0.2061 0.2044
H136? H 1.1934 0.2008 0.2296
H137? H 1.1454 0.2738 0.2014
C112? C 1.4523(12) 0.2031(5) 0.1749(2)
H138? H 1.5284 0.1799 0.1548
H139? H 1.4498 0.2578 0.1712
H140? H 1.4977 0.1848 0.1994
C113? C 1.1159(13) 0.6818(6) 0.0597(3)
C114? C 1.1197(19) 0.7486(10) 0.0595(4)
Si6? Si 1.0981(6) 0.8400(5) 0.0679(3)
C115? C 0.8731(12) 0.8552(5) 0.0530(3)
H141? H 0.8820 0.8599 0.0247
C116? C 0.7666(12) 0.7879(5) 0.0655(3)
H142? H 0.8335 0.7412 0.0577
H143? H 0.7456 0.7839 0.0930
H144? H 0.6541 0.7962 0.0537
C117? C 0.7679(14) 0.9297(6) 0.0653(3)
H145? H 0.8353 0.9716 0.0574
H146? H 0.6553 0.9383 0.0535
H147? H 0.7469 0.9260 0.0928
C118? C 1.1243(13) 0.8741(5) 0.1144(2)
H148? H 1.0898 0.9297 0.1120
C119? C 1.3198(16) 0.8602(7) 0.1254(4)
H149? H 1.3954 0.8805 0.1046
H150? H 1.3310 0.8853 0.1481
H151? H 1.3553 0.8061 0.1302
C120? C 1.0147(15) 0.8429(5) 0.1463(2)
H152? H 0.8915 0.8509 0.1401
H153? H 1.0521 0.7889 0.1510
H154? H 1.0278 0.8681 0.1689
C121? C 1.195(2) 0.8959(7) 0.0270(4)
H155? H 1.0876 0.9055 0.0124
C122? C 1.304(2) 0.8611(8) -0.0010(4)
H156? H 1.2825 0.8087 -0.0009
H157? H 1.2802 0.8875 -0.0257
H158? H 1.4274 0.8626 0.0039
C123? C 1.2165(10) 0.9744(4) 0.0295(2)
H159? H 1.1359 0.9946 0.0496
H160? H 1.3376 0.9782 0.0350
H161? H 1.1904 1.0031 0.0054
C124? C 1.2918(12) 0.3540(5) 0.1009(2)
C125? C 1.3034(13) 0.2879(5) 0.1119(2)
Si7? Si 1.2838(4) 0.18828(15) 0.12398(8)
C126? C 1.5120(13) 0.1345(5) 0.1213(3)
H162? H 1.5743 0.1556 0.0979
C127? C 1.5132(19) 0.0516(6) 0.1174(4)
H163? H 1.4439 0.0450 0.0963
H164? H 1.4623 0.0277 0.1408
H165? H 1.6342 0.0285 0.1127
C128? C 1.6192(13) 0.1457(6) 0.1540(3)
H166? H 1.6177 0.1995 0.1564
H167? H 1.7404 0.1227 0.1494
H168? H 1.5685 0.1219 0.1775
C129? C 1.1639(16) 0.1786(6) 0.1721(3)
H169? H 1.0419 0.2038 0.1688
C130? C 1.1451(16) 0.0983(6) 0.1859(3)
H170? H 1.0993 0.0737 0.1660
H171? H 1.0638 0.0971 0.2083
H172? H 1.2599 0.0719 0.1922
C131? C 1.2346(16) 0.2190(8) 0.2020(4)
H173? H 1.2454 0.2710 0.1923
H174? H 1.3500 0.1934 0.2085
H175? H 1.1539 0.2186 0.2246
C132? C 1.1486(12) 0.1633(5) 0.0869(2)
H176? H 1.1273 0.1099 0.0933
C133? C 1.260(4) 0.1669(16) 0.0469(7)
H177? H 1.3724 0.1352 0.0491
H178? H 1.2800 0.2189 0.0393
H179? H 1.1939 0.1487 0.0278
C134? C 0.9669(14) 0.2115(6) 0.0867(3)
H180? H 0.9070 0.2066 0.1119
H181? H 0.8962 0.1940 0.0684
H182? H 0.9823 0.2642 0.0798
C135? C 1.2008(13) 0.6718(6) 0.0707(3)
C136? C 1.1715(19) 0.7374(10) 0.0699(4)
Si8? Si 1.1491(9) 0.8451(6) 0.0659(3)
C137? C 1.2901(14) 0.8791(5) 0.0293(2)
H183? H 1.4016 0.8448 0.0329
C138? C 1.2358(11) 0.8595(4) -0.0116(2)
H184? H 1.1946 0.8099 -0.0091
H185? H 1.3381 0.8592 -0.0297
H186? H 1.1420 0.8975 -0.0206
C139? C 1.352(3) 0.9548(13) 0.0243(7)
H187? H 1.3855 0.9679 0.0486
H188? H 1.2574 0.9922 0.0151
H189? H 1.4535 0.9539 0.0061
C140? C 1.283(2) 0.8445(6) 0.1056(3)
H190? H 1.3874 0.8658 0.0928
C141? C 1.366(2) 0.7739(9) 0.1233(5)
H191? H 1.4030 0.7389 0.1040
H192? H 1.2815 0.7520 0.1418
H193? H 1.4678 0.7832 0.1361
C142? C 1.220(3) 0.9018(11) 0.1318(5)
H194? H 1.1667 0.9473 0.1177
H195? H 1.3197 0.9138 0.1448
H196? H 1.1334 0.8826 0.1505
C143? C 0.8726(16) 0.8775(7) 0.0851(4)
H197? H 0.8727 0.9263 0.0963
C144? C 0.805(2) 0.8272(10) 0.1162(5)
H198? H 0.8902 0.8163 0.1355
H199? H 0.7842 0.7802 0.1064
H200? H 0.6939 0.8516 0.1272
C145? C 0.752(3) 0.8931(13) 0.0577(6)
H201? H 0.7973 0.9265 0.0371
H202? H 0.6411 0.9175 0.0687
H203? H 0.7314 0.8462 0.0479
loop_
_geom_bond_atom_site_label_1
_geom_bond_atom_site_label_2
_geom_bond_site_symmetry_1
_geom_bond_site_symmetry_2
C1 N1 1_555 1_555
N1 C2 1_555 1_555
C2 C3 1_555 1_555
C3 C4 1_555 1_555
C4 H1 1_555 1_555
C5 C4 1_555 1_555
H2 C5 1_555 1_555
C6 C5 1_555 1_555
C7 C2 1_555 1_555
N2 C7 1_555 1_555
C8 C1 1_555 1_555
C9 C8 1_555 1_555
C10 C9 1_555 1_555
H3 C10 1_555 1_555
C11 C10 1_555 1_555
H4 C11 1_555 1_555
C12 C11 1_555 1_555
C13 C12 1_555 1_555
N3 C13 1_555 1_555
C14 N3 1_555 1_555
C15 C14 1_555 1_555
C16 C15 1_555 1_555
H5 C16 1_555 1_555
C17 C16 1_555 1_555
H6 C17 1_555 1_555
C18 C17 1_555 1_555
C19 C14 1_555 1_555
N4 C19 1_555 1_555
C20 C13 1_555 1_555
C21 C20 1_555 1_555
C22 C21 1_555 1_555
H7 C22 1_555 1_555
C23 C22 1_555 1_555
H8 C23 1_555 1_555
C24 C1 1_555 1_555
C25 C9 1_555 1_555
C26 C12 1_555 1_555
C27 C3 1_555 1_555
C28 C27 1_555 1_555
Si1 C28 1_555 1_555
C29 Si1 1_555 1_555
H9 C29 1_555 1_555
C30 C29 1_555 1_555
H10 C30 1_555 1_555
H11 C30 1_555 1_555
H12 C30 1_555 1_555
C31 C29 1_555 1_555
H13 C31 1_555 1_555
H14 C31 1_555 1_555
H15 C31 1_555 1_555
C32 Si1 1_555 1_555
H16 C32 1_555 1_555
C33 C32 1_555 1_555
H17 C33 1_555 1_555
H18 C33 1_555 1_555
H19 C33 1_555 1_555
C34 C32 1_555 1_555
H20 C34 1_555 1_555
H21 C34 1_555 1_555
H22 C34 1_555 1_555
C35 Si1 1_555 1_555
H23 C35 1_555 1_555
C36 C35 1_555 1_555
H24 C36 1_555 1_555
H25 C36 1_555 1_555
H26 C36 1_555 1_555
C37 C35 1_555 1_555
H27 C37 1_555 1_555
H28 C37 1_555 1_555
H29 C37 1_555 1_555
C38 C6 1_555 1_555
C39 C38 1_555 1_555
Si2 C39 1_555 1_555
C40 Si2 1_555 1_555
H30 C40 1_555 1_555
C41 C40 1_555 1_555
H31 C41 1_555 1_555
H32 C41 1_555 1_555
H33 C41 1_555 1_555
C42 C40 1_555 1_555
H34 C42 1_555 1_555
H35 C42 1_555 1_555
H36 C42 1_555 1_555
C43 Si2 1_555 1_555
H37 C43 1_555 1_555
C44 C43 1_555 1_555
H38 C44 1_555 1_555
H39 C44 1_555 1_555
H40 C44 1_555 1_555
C45 C43 1_555 1_555
H41 C45 1_555 1_555
H42 C45 1_555 1_555
H43 C45 1_555 1_555
C46 Si2 1_555 1_555
H44 C46 1_555 1_555
C47 C46 1_555 1_555
H45 C47 1_555 1_555
H46 C47 1_555 1_555
H47 C47 1_555 1_555
C48 C46 1_555 1_555
H48 C48 1_555 1_555
H49 C48 1_555 1_555
H50 C48 1_555 1_555
C49 C15 1_555 1_555
C50 C49 1_555 1_555
Si3 C50 1_555 1_555
C51 Si3 1_555 1_555
H51 C51 1_555 1_555
C52 C51 1_555 1_555
H52 C52 1_555 1_555
H53 C52 1_555 1_555
H54 C52 1_555 1_555
C53 C51 1_555 1_555
H55 C53 1_555 1_555
H56 C53 1_555 1_555
H57 C53 1_555 1_555
C54 Si3 1_555 1_555
H58 C54 1_555 1_555
C55 C54 1_555 1_555
H59 C55 1_555 1_555
H60 C55 1_555 1_555
H61 C55 1_555 1_555
C56 C54 1_555 1_555
H62 C56 1_555 1_555
H63 C56 1_555 1_555
H64 C56 1_555 1_555
C57 Si3 1_555 1_555
H65 C57 1_555 1_555
C58 C57 1_555 1_555
H66 C58 1_555 1_555
H67 C58 1_555 1_555
H68 C58 1_555 1_555
C59 C57 1_555 1_555
H69 C59 1_555 1_555
H70 C59 1_555 1_555
H71 C59 1_555 1_555
C60 C18 1_555 1_555
C61 C60 1_555 1_555
Si4 C61 1_555 1_555
C62 Si4 1_555 1_555
H72 C62 1_555 1_555
C63 C62 1_555 1_555
H73 C63 1_555 1_555
H74 C63 1_555 1_555
H75 C63 1_555 1_555
C64 C62 1_555 1_555
H76 C64 1_555 1_555
H77 C64 1_555 1_555
H78 C64 1_555 1_555
C65 Si4 1_555 1_555
H79 C65 1_555 1_555
C66 C65 1_555 1_555
H80 C66 1_555 1_555
H81 C66 1_555 1_555
H82 C66 1_555 1_555
C67 C65 1_555 1_555
H83 C67 1_555 1_555
H84 C67 1_555 1_555
H85 C67 1_555 1_555
C68 Si4 1_555 1_555
H86 C68 1_555 1_555
C69 C68 1_555 1_555
H87 C69 1_555 1_555
H88 C69 1_555 1_555
H89 C69 1_555 1_555
C70 C68 1_555 1_555
H90 C70 1_555 1_555
H91 C70 1_555 1_555
H92 C70 1_555 1_555
C6 C7 1_555 1_555
N2 C8 1_555 1_555
C18 C19 1_555 1_555
N4 C20 1_555 1_555
C21 C26 1_555 1_555
C23 C24 1_555 1_555
C24 C25 1_555 1_555
C25 C26 1_555 1_555

#END
