
#######################################################################
#
#                 Cambridge Crystallographic Data Centre
#                                CCDC 
#
#######################################################################
#
# If this CIF has been generated from an entry in the Cambridge 
# Structural Database, then it will include bibliographic, chemical, 
# crystal, experimental, refinement or atomic coordinate data resulting 
# from the CCDC's data processing and validation procedures.
#
#######################################################################

data_JAHSAM
_chemical_formula_moiety         'C20 H23 N1 O1'
_chemical_name_systematic        
N-Isopropyl-3-methyl-4,4-diphenyl-3-butenamide
_symmetry_cell_setting           tetragonal
_symmetry_space_group_name_H-M   'I -4'
_symmetry_Int_Tables_number      82
_space_group_name_Hall           'I -4'
loop_
_symmetry_equiv_pos_site_id
_symmetry_equiv_pos_as_xyz
1 x,y,z
2 1/2+x,1/2+y,1/2+z
3 -y,x,-z
4 1/2-y,1/2+x,1/2-z
5 -x,-y,z
6 1/2-x,1/2-y,1/2+z
7 y,-x,-z
8 1/2+y,1/2-x,1/2-z
_cell_length_a                   26.180(7)
_cell_length_b                   26.180(7)
_cell_length_c                   10.169(3)
_cell_angle_alpha                90
_cell_angle_beta                 90
_cell_angle_gamma                90
_cell_volume                     6969.76
_cell_formula_units_Z            16
loop_
_atom_site_label
_atom_site_type_symbol
_atom_site_fract_x
_atom_site_fract_y
_atom_site_fract_z
C1 C 0.6642(3) 0.1247(3) 0.5478(8)
C2 C 0.7183(3) 0.1271(3) 0.6028(8)
C3 C 0.7534(3) 0.0893(3) 0.5381(8)
C4 C 0.7959(3) 0.1006(3) 0.4718(7)
C5 C 0.7377(3) 0.0337(3) 0.5635(10)
C6 C 0.8121(3) 0.1541(3) 0.4349(8)
C7 C 0.7764(3) 0.1897(3) 0.3901(8)
C8 C 0.7925(4) 0.2385(4) 0.3599(9)
C9 C 0.8429(5) 0.2531(4) 0.3726(10)
C10 C 0.8778(4) 0.2176(4) 0.4145(10)
C11 C 0.8627(3) 0.1681(3) 0.4444(8)
C12 C 0.8328(3) 0.0599(3) 0.4314(8)
C13 C 0.8606(3) 0.0319(3) 0.5263(8)
C14 C 0.8943(4) -0.0059(3) 0.4905(9)
C15 C 0.9004(4) -0.0189(3) 0.3589(9)
C16 C 0.8735(4) 0.0080(3) 0.2663(9)
C17 C 0.8413(3) 0.0474(3) 0.2980(8)
O1 O 0.6557(2) 0.1245(2) 0.4280(5)
N1 N 0.6267(3) 0.1233(3) 0.6378(6)
C18 C 0.5726(3) 0.1208(4) 0.6043(9)
C19 C 0.5427(4) 0.1564(5) 0.6915(13)
C20 C 0.5539(5) 0.0686(5) 0.6149(19)
C21 C 0.6626(3) 0.1240(3) 0.0356(9)
C22 C 0.7172(3) 0.1339(3) 0.0728(8)
C23 C 0.7517(4) 0.0890(3) 0.0359(9)
C24 C 0.7956(3) 0.0964(3) -0.0321(8)
C25 C 0.7333(3) 0.0391(3) 0.0945(9)
C26 C 0.8153(3) 0.1473(3) -0.0626(9)
C27 C 0.8270(3) 0.1829(3) 0.0365(8)
C28 C 0.8457(4) 0.2306(3) 0.0084(10)
C29 C 0.8558(4) 0.2441(4) -0.1190(11)
C30 C 0.8458(4) 0.2100(3) -0.2218(9)
C31 C 0.8265(3) 0.1621(3) -0.1936(9)
C32 C 0.8287(3) 0.0531(3) -0.0755(7)
C33 C 0.8820(3) 0.0582(3) -0.0746(8)
C34 C 0.9132(4) 0.0188(4) -0.1108(9)
C35 C 0.8942(5) -0.0264(5) -0.1539(10)
C36 C 0.8429(5) -0.0331(4) -0.1574(10)
C37 C 0.8092(4) 0.0064(3) -0.1201(8)
O2 O 0.6505(2) 0.1143(3) -0.0788(6)
N2 N 0.6282(3) 0.1276(3) 0.1323(7)
C38 C 0.5746(4) 0.1196(4) 0.1127(10)
C39 C 0.5430(4) 0.1576(4) 0.1902(13)
C40 C 0.5598(4) 0.0671(5) 0.1429(18)
loop_
_geom_bond_atom_site_label_1
_geom_bond_atom_site_label_2
_geom_bond_site_symmetry_1
_geom_bond_site_symmetry_2
C1 C2 1_555 1_555
C2 C3 1_555 1_555
C3 C4 1_555 1_555
C4 C6 1_555 1_555
C5 C3 1_555 1_555
C6 C7 1_555 1_555
C7 C8 1_555 1_555
C8 C9 1_555 1_555
C9 C10 1_555 1_555
C10 C11 1_555 1_555
C11 C6 1_555 1_555
C12 C4 1_555 1_555
C13 C12 1_555 1_555
C14 C13 1_555 1_555
C15 C14 1_555 1_555
C16 C15 1_555 1_555
C17 C12 1_555 1_555
O1 C1 1_555 1_555
N1 C1 1_555 1_555
C18 N1 1_555 1_555
C19 C18 1_555 1_555
C20 C18 1_555 1_555
C21 C22 1_555 1_555
C22 C23 1_555 1_555
C23 C24 1_555 1_555
C24 C26 1_555 1_555
C25 C23 1_555 1_555
C26 C27 1_555 1_555
C27 C28 1_555 1_555
C28 C29 1_555 1_555
C29 C30 1_555 1_555
C30 C31 1_555 1_555
C31 C26 1_555 1_555
C32 C24 1_555 1_555
C33 C32 1_555 1_555
C34 C33 1_555 1_555
C35 C34 1_555 1_555
C36 C35 1_555 1_555
C37 C32 1_555 1_555
O2 C21 1_555 1_555
N2 C21 1_555 1_555
C38 N2 1_555 1_555
C39 C38 1_555 1_555
C40 C38 1_555 1_555
C16 C17 1_555 1_555
C36 C37 1_555 1_555

#END
