
#######################################################################
#
#                 Cambridge Crystallographic Data Centre
#                                CCDC 
#
#######################################################################
#
# If this CIF has been generated from an entry in the Cambridge 
# Structural Database, then it will include bibliographic, chemical, 
# crystal, experimental, refinement or atomic coordinate data resulting 
# from the CCDC's data processing and validation procedures.
#
#######################################################################

data_JAHSUG
_chemical_name_common            'PDB Chemical Component code: 1CS'
_chemical_formula_moiety         'C12 H12 Cl1 N5 O4 S1'
_chemical_name_systematic        
N-(2-Chlorobenzenesulfonyl)-N'-(4-methoxy-6-methyl-1,3,5-triazin-2-yl)urea
_symmetry_cell_setting           monoclinic
_symmetry_space_group_name_H-M   'P 21/c'
_symmetry_Int_Tables_number      14
_space_group_name_Hall           '-P 2ybc'
loop_
_symmetry_equiv_pos_site_id
_symmetry_equiv_pos_as_xyz
1 x,y,z
2 -x,1/2+y,1/2-z
3 -x,-y,-z
4 x,1/2-y,1/2+z
_cell_length_a                   10.158(1)
_cell_length_b                   14.166(1)
_cell_length_c                   11.131(1)
_cell_angle_alpha                90
_cell_angle_beta                 96.869(7)
_cell_angle_gamma                90
_cell_volume                     1590.23
_chemical_melting_point          '174-175 deg.C'
_cell_formula_units_Z            4
loop_
_atom_site_label
_atom_site_type_symbol
_atom_site_fract_x
_atom_site_fract_y
_atom_site_fract_z
Cl1 Cl 0.1787(2) 0.7026(1) 0.1798(2)
S1 S 0.2069(2) 0.8911(1) 0.3510(1)
O1 O 0.3192(4) 0.8377(3) 0.4017(4)
O2 O 0.1741(5) 0.9772(3) 0.4081(4)
O3 O 0.0352(3) 0.9712(3) 0.1431(3)
O4 O 0.4737(6) 0.9555(5) -0.2722(6)
N1 N 0.2385(4) 0.9156(3) 0.2141(4)
N2 N 0.1886(4) 0.9641(3) 0.0130(4)
N3 N 0.3248(5) 0.9683(4) -0.1367(4)
N4 N 0.5231(5) 0.8744(5) -0.1070(6)
N5 N 0.3889(4) 0.8801(4) 0.0427(5)
C1 C 0.1464(5) 0.9502(4) 0.1251(5)
C2 C 0.0657(5) 0.8185(4) 0.3346(5)
C3 C 0.0560(6) 0.7361(4) 0.2662(5)
C4 C -0.0581(7) 0.6814(5) 0.2638(6)
C5 C -0.1547(7) 0.7076(6) 0.3267(8)
C6 C -0.1470(8) 0.7856(6) 0.3924(8)
C7 C -0.0378(7) 0.8452(5) 0.3984(6)
C8 C 0.3055(5) 0.9362(4) -0.0279(5)
C9 C 0.4396(7) 0.9324(5) -0.1713(6)
C10 C 0.5047(9) 0.8434(6) -0.0003(7)
C11 C 0.5779(7) 0.7747(6) 0.0875(9)
C12 C 0.3980(8) 1.0131(6) -0.3442(6)
H1 H 0.293(5) 0.900(4) 0.191(4)
H2 H 0.106(5) 0.990(4) -0.042(4)
H3 H -0.046(5) 0.638(4) 0.213(4)
H4 H -0.224(5) 0.682(4) 0.325(4)
H5 H -0.177(5) 0.812(3) 0.424(4)
H6 H -0.027(5) 0.914(4) 0.436(4)
loop_
_geom_bond_atom_site_label_1
_geom_bond_atom_site_label_2
_geom_bond_site_symmetry_1
_geom_bond_site_symmetry_2
Cl1 C3 1_555 1_555
S1 O1 1_555 1_555
O2 S1 1_555 1_555
O3 C1 1_555 1_555
O4 C9 1_555 1_555
N1 S1 1_555 1_555
N2 C1 1_555 1_555
N3 C8 1_555 1_555
N4 C9 1_555 1_555
N5 C8 1_555 1_555
C1 N1 1_555 1_555
C2 S1 1_555 1_555
C3 C2 1_555 1_555
C4 C3 1_555 1_555
C5 C4 1_555 1_555
C6 C5 1_555 1_555
C7 C2 1_555 1_555
C8 N2 1_555 1_555
C9 N3 1_555 1_555
C10 N4 1_555 1_555
C11 C10 1_555 1_555
C12 O4 1_555 1_555
H1 N1 1_555 1_555
H2 N2 1_555 1_555
H3 C4 1_555 1_555
H4 C5 1_555 1_555
H5 C6 1_555 1_555
H6 C7 1_555 1_555
N5 C10 1_555 1_555
C6 C7 1_555 1_555

#END
