
#######################################################################
#
#                 Cambridge Crystallographic Data Centre
#                                CCDC 
#
#######################################################################
#
# If this CIF has been generated from an entry in the Cambridge 
# Structural Database, then it will include bibliographic, chemical, 
# crystal, experimental, refinement or atomic coordinate data resulting 
# from the CCDC's data processing and validation procedures.
#
#######################################################################

data_JAKRUI
_chemical_formula_moiety         'C13 H18 N2 O5 Si1'
_chemical_name_systematic        (2-Pyridylcarboxy)methanolsilatrane
_symmetry_cell_setting           monoclinic
_symmetry_space_group_name_H-M   'P 21/n'
_symmetry_Int_Tables_number      14
_space_group_name_Hall           '-P 2yn'
loop_
_symmetry_equiv_pos_site_id
_symmetry_equiv_pos_as_xyz
1 x,y,z
2 1/2-x,1/2+y,1/2-z
3 -x,-y,-z
4 1/2+x,1/2-y,1/2+z
_cell_length_a                   11.876(2)
_cell_length_b                   19.853(4)
_cell_length_c                   6.598(1)
_cell_angle_alpha                90
_cell_angle_beta                 110.12(2)
_cell_angle_gamma                90
_cell_volume                     1460.7
_cell_formula_units_Z            4
loop_
_atom_site_label
_atom_site_type_symbol
_atom_site_fract_x
_atom_site_fract_y
_atom_site_fract_z
Si1 Si 0.2642(1) 0.0091(1) 0.1701(3)
O1 O 0.3732(5) -0.1141(2) 0.2977(8)
O2 O 0.2211(5) 0.0596(2) 0.3315(8)
O3 O 0.3970(5) 0.0200(3) 0.1454(9)
O4 O 0.1572(5) -0.0336(3) -0.0179(8)
O5 O 0.3861(5) -0.1796(3) 0.5830(9)
N1 N 0.2106(5) 0.0902(3) -0.0512(9)
N2 N 0.5586(5) -0.2543(3) 0.4830(10)
C1 C 0.4809(6) -0.2146(3) 0.3345(11)
C2 C 0.4646(6) -0.2160(3) 0.1122(11)
C3 C 0.5371(7) -0.2597(4) 0.0438(13)
C4 C 0.6207(7) -0.3005(4) 0.1976(14)
C5 C 0.6278(7) -0.2964(4) 0.4148(14)
C6 C 0.3101(7) -0.0621(4) 0.3758(13)
C7 C 0.4088(6) -0.1684(3) 0.4202(11)
C8 C 0.1698(9) 0.1246(4) 0.2668(15)
C9 C 0.2099(8) 0.1503(4) 0.0838(14)
C10 C 0.4213(7) 0.0745(4) 0.0258(15)
C11 C 0.3059(7) 0.0953(4) -0.1471(13)
C12 C 0.0933(9) -0.0048(4) -0.2240(15)
C13 C 0.0933(8) 0.0707(5) -0.2017(14)
loop_
_geom_bond_atom_site_label_1
_geom_bond_atom_site_label_2
_geom_bond_site_symmetry_1
_geom_bond_site_symmetry_2
Si1 O2 1_555 1_555
O1 C6 1_555 1_555
O2 C8 1_555 1_555
O3 Si1 1_555 1_555
O4 Si1 1_555 1_555
O5 C7 1_555 1_555
N1 Si1 1_555 1_555
N2 C1 1_555 1_555
C1 C2 1_555 1_555
C2 C3 1_555 1_555
C3 C4 1_555 1_555
C4 C5 1_555 1_555
C5 N2 1_555 1_555
C6 Si1 1_555 1_555
C7 O1 1_555 1_555
C8 C9 1_555 1_555
C9 N1 1_555 1_555
C10 O3 1_555 1_555
C11 N1 1_555 1_555
C12 O4 1_555 1_555
C13 N1 1_555 1_555
C1 C7 1_555 1_555
C10 C11 1_555 1_555
C12 C13 1_555 1_555

#END
