
#######################################################################
#
#                 Cambridge Crystallographic Data Centre
#                                CCDC 
#
#######################################################################
#
# If this CIF has been generated from an entry in the Cambridge 
# Structural Database, then it will include bibliographic, chemical, 
# crystal, experimental, refinement or atomic coordinate data resulting 
# from the CCDC's data processing and validation procedures.
#
#######################################################################

data_JAKSET
_chemical_formula_moiety         'C26 H50 O2 Si6'
_chemical_name_systematic        
1,6-bis(p-Methoxyphenyl)dodecamethylhexasilane
_symmetry_cell_setting           monoclinic
_symmetry_space_group_name_H-M   'P 21/c'
_symmetry_Int_Tables_number      14
_space_group_name_Hall           '-P 2ybc'
loop_
_symmetry_equiv_pos_site_id
_symmetry_equiv_pos_as_xyz
1 x,y,z
2 -x,1/2+y,1/2-z
3 -x,-y,-z
4 x,1/2-y,1/2+z
_cell_length_a                   8.856(2)
_cell_length_b                   11.886(2)
_cell_length_c                   16.823(3)
_cell_angle_alpha                90
_cell_angle_beta                 99.04(1)
_cell_angle_gamma                90
_cell_volume                     1748.83
_chemical_melting_point          100-102deg.C
_cell_formula_units_Z            2
loop_
_atom_site_label
_atom_site_type_symbol
_atom_site_fract_x
_atom_site_fract_y
_atom_site_fract_z
Si1 Si 0.7410(2) 0.0482(2) 0.6416(1)
Si2 Si 0.5342(2) 0.0806(2) 0.5386(1)
Si3 Si 0.8418(2) 0.2167(2) 0.6996(1)
C1 C 0.9924(7) 0.1768(5) 0.7844(4)
C2 C 1.1419(8) 0.1513(6) 0.7719(4)
C3 C 1.2219(7) 0.0994(5) 0.9101(4)
C4 C 0.9678(7) 0.1620(6) 0.8632(4)
C5 C 0.6927(9) 0.3020(7) 0.7391(5)
C6 C 0.938(1) 0.3031(7) 0.6239(5)
C7 C 0.6754(9) -0.0371(7) 0.7240(5)
C8 C 0.9006(9) -0.0283(7) 0.6050(5)
C9 C 0.3672(8) 0.1263(8) 0.5879(5)
C10 C 0.585(1) 0.1935(6) 0.4677(5)
O1 O 1.3379(5) 0.0618(5) 0.9656(3)
C11 C 1.3118(9) 0.0429(7) 1.0452(4)
C12 C 1.2532(7) 0.1151(7) 0.8326(4)
C13 C 1.0768(7) 0.1247(6) 0.9250(4)
Si2B Si 0.4658(2) -0.0806(2) 0.4614(1)
Si1B Si 0.2590(2) -0.0482(2) 0.3584(1)
C9B C 0.6328(8) -0.1263(8) 0.4121(5)
C10B C 0.415(1) -0.1935(6) 0.5323(5)
Si3B Si 0.1582(2) -0.2167(2) 0.3004(1)
C7B C 0.3246(9) 0.0371(7) 0.2760(5)
C8B C 0.0994(9) 0.0283(7) 0.3950(5)
C1B C 0.0076(7) -0.1768(5) 0.2156(4)
C5B C 0.3073(9) -0.3020(7) 0.2609(5)
C6B C 0.062(1) -0.3031(7) 0.3761(5)
C2B C -0.1419(8) -0.1513(6) 0.2281(4)
C4B C 0.0322(7) -0.1620(6) 0.1368(4)
C12B C -0.2532(7) -0.1151(7) 0.1674(4)
C13B C -0.0768(7) -0.1247(6) 0.0750(4)
C3B C -0.2219(7) -0.0994(5) 0.0899(4)
O1B O -0.3379(5) -0.0618(5) 0.0344(3)
C11B C -0.3118(9) -0.0429(7) -0.0452(4)
loop_
_geom_bond_atom_site_label_1
_geom_bond_atom_site_label_2
_geom_bond_site_symmetry_1
_geom_bond_site_symmetry_2
Si1 Si2 1_555 1_555
Si2 C9 1_555 1_555
Si3 Si1 1_555 1_555
C1 Si3 1_555 1_555
C2 C1 1_555 1_555
C3 O1 1_555 1_555
C4 C1 1_555 1_555
C5 Si3 1_555 1_555
C6 Si3 1_555 1_555
C7 Si1 1_555 1_555
C8 Si1 1_555 1_555
C10 Si2 1_555 1_555
O1 C11 1_555 1_555
C12 C2 1_555 1_555
C13 C3 1_555 1_555
Si2B Si2 1_555 1_555
Si1B Si2B 1_555 1_555
C9B Si2B 1_555 1_555
C10B Si2B 1_555 1_555
Si3B Si1B 1_555 1_555
C7B Si1B 1_555 1_555
C8B Si1B 1_555 1_555
C1B Si3B 1_555 1_555
C5B Si3B 1_555 1_555
C6B Si3B 1_555 1_555
C2B C1B 1_555 1_555
C4B C1B 1_555 1_555
C12B C2B 1_555 1_555
C13B C4B 1_555 1_555
C3B C12B 1_555 1_555
O1B C3B 1_555 1_555
C11B O1B 1_555 1_555
C3 C12 1_555 1_555
C4 C13 1_555 1_555
C13B C3B 1_555 1_555

#END
