
#######################################################################
#
#                 Cambridge Crystallographic Data Centre
#                                CCDC 
#
#######################################################################
#
# If this CIF has been generated from an entry in the Cambridge 
# Structural Database, then it will include bibliographic, chemical, 
# crystal, experimental, refinement or atomic coordinate data resulting 
# from the CCDC's data processing and validation procedures.
#
#######################################################################

data_JAKYEC
_chemical_formula_moiety         'C28 H22 N2 O3'
_chemical_name_systematic        
1-benzoyl-1'-methyl-3-phenyl-3a,6a-dihydro-1H-spiro[pentalene-2,3'-pyrrolo[2,3-b]pyridine]-2',4(1'H,3H)-dione
_symmetry_cell_setting           monoclinic
_symmetry_space_group_name_H-M   'P 21'
_symmetry_Int_Tables_number      4
_space_group_name_Hall           'P 2yb'
loop_
_symmetry_equiv_pos_site_id
_symmetry_equiv_pos_as_xyz
1 x,y,z
2 -x,1/2+y,-z
_cell_length_a                   8.72405(13)
_cell_length_b                   12.40698(17)
_cell_length_c                   10.56285(13)
_cell_angle_alpha                90
_cell_angle_beta                 91.0399(13)
_cell_angle_gamma                90
_cell_volume                     1143.13
_exptl_crystal_colour            colorless
_exptl_crystal_description       block
_cell_formula_units_Z            2
loop_
_atom_site_label
_atom_site_type_symbol
_atom_site_fract_x
_atom_site_fract_y
_atom_site_fract_z
O1 O -0.37574(18) -0.19269(13) -0.81080(15)
C1 C -0.2652(2) -0.13308(15) -0.80060(17)
C2 C -0.0755(2) -0.01379(14) -0.72205(19)
C3 C -0.22444(19) -0.06487(13) -0.68357(15)
C4 C -0.3582(2) 0.11001(16) -0.75830(17)
N1 N -0.1611(2) -0.11314(14) -0.89207(15)
N2 N 0.0657(2) -0.01206(19) -0.9183(2)
C5 C -0.35682(19) 0.01839(15) -0.66429(16)
H1 H -0.4534 -0.0209 -0.6768
C6 C -0.4395(3) 0.1760(3) -0.9638(2)
H2 H -0.4944 0.1659 -1.0392
C7 C -0.0626(3) -0.17338(18) -0.5266(2)
C8 C -0.3454(2) 0.04755(15) -0.52306(18)
H3 H -0.2774 0.1093 -0.5080
O2 O -0.5842(3) 0.14425(16) -0.49115(19)
C9 C -0.2226(2) -0.13061(15) -0.55756(16)
H4 H -0.2927 -0.1919 -0.5673
C10 C 0.0294(2) 0.05215(19) -0.6631(3)
H5 H 0.0192 0.0736 -0.5793
C11 C -0.2860(3) -0.05414(18) -0.45605(18)
H6 H -0.2050 -0.0354 -0.3944
C12 C -0.4379(2) 0.0961(2) -0.8729(2)
H7 H -0.4906 0.0321 -0.8882
C13 C -0.2779(3) 0.2846(2) -0.8321(3)
H8 H -0.2221 0.3476 -0.8192
C14 C -0.5040(3) 0.06670(18) -0.4702(2)
C15 C -0.0481(2) -0.04295(17) -0.8473(2)
C16 C 0.1547(3) 0.0859(2) -0.7375(4)
H9 H 0.2304 0.1300 -0.7023
O3 O 0.0074(3) -0.14612(19) -0.43176(17)
C17 C 0.0109(3) -0.24420(17) -0.6222(2)
C18 C -0.2778(3) 0.20522(17) -0.7390(2)
H10 H -0.2235 0.2161 -0.6635
C19 C -0.0712(3) -0.32240(18) -0.6880(2)
H11 H -0.1743 -0.3335 -0.6713
C20 C -0.4255(4) -0.0951(2) -0.3887(3)
H12 H -0.4286 -0.1610 -0.3470
C21 C -0.3608(4) 0.2700(3) -0.9439(3)
H13 H -0.3629 0.3239 -1.0051
C22 C -0.1635(4) -0.1644(3) -1.0158(2)
H14 H -0.0734 -0.2080 -1.0244
H15 H -0.1656 -0.1101 -1.0805
H16 H -0.2531 -0.2089 -1.0242
C23 C 0.1637(3) 0.0535(3) -0.8606(4)
H17 H 0.2451 0.0795 -0.9074
C24 C 0.1652(3) -0.2288(2) -0.6473(2)
H18 H 0.2215 -0.1775 -0.6020
C25 C -0.5427(4) -0.0281(2) -0.3950(3)
H19 H -0.6366 -0.0395 -0.3569
C26 C 0.0012(4) -0.3843(2) -0.7793(3)
H20 H -0.0530 -0.4376 -0.8228
C27 C 0.2352(3) -0.2898(3) -0.7398(3)
H21 H 0.3380 -0.2787 -0.7577
C28 C 0.1524(4) -0.3664(2) -0.8046(3)
H22 H 0.1996 -0.4070 -0.8668
loop_
_geom_bond_atom_site_label_1
_geom_bond_atom_site_label_2
_geom_bond_site_symmetry_1
_geom_bond_site_symmetry_2
O1 C1 1_555 1_555
C1 C3 1_555 1_555
C2 C3 1_555 1_555
C3 C5 1_555 1_555
C4 C5 1_555 1_555
N1 C1 1_555 1_555
N2 C15 1_555 1_555
C5 H1 1_555 1_555
C6 H2 1_555 1_555
C7 C9 1_555 1_555
C8 C5 1_555 1_555
H3 C8 1_555 1_555
O2 C14 1_555 1_555
C9 C3 1_555 1_555
H4 C9 1_555 1_555
C10 C2 1_555 1_555
H5 C10 1_555 1_555
C11 C8 1_555 1_555
H6 C11 1_555 1_555
C12 C4 1_555 1_555
H7 C12 1_555 1_555
C13 H8 1_555 1_555
C14 C8 1_555 1_555
C15 C2 1_555 1_555
C16 C10 1_555 1_555
H9 C16 1_555 1_555
O3 C7 1_555 1_555
C17 C7 1_555 1_555
C18 C4 1_555 1_555
H10 C18 1_555 1_555
C19 C17 1_555 1_555
H11 C19 1_555 1_555
C20 C11 1_555 1_555
H12 C20 1_555 1_555
C21 C6 1_555 1_555
H13 C21 1_555 1_555
C22 N1 1_555 1_555
H14 C22 1_555 1_555
H15 C22 1_555 1_555
H16 C22 1_555 1_555
C23 N2 1_555 1_555
H17 C23 1_555 1_555
C24 C17 1_555 1_555
H18 C24 1_555 1_555
C25 C14 1_555 1_555
H19 C25 1_555 1_555
C26 C19 1_555 1_555
H20 C26 1_555 1_555
C27 C24 1_555 1_555
H21 C27 1_555 1_555
C28 C26 1_555 1_555
H22 C28 1_555 1_555
N1 C15 1_555 1_555
C6 C12 1_555 1_555
C9 C11 1_555 1_555
C13 C18 1_555 1_555
C13 C21 1_555 1_555
C16 C23 1_555 1_555
C20 C25 1_555 1_555
C27 C28 1_555 1_555

#END
