
#######################################################################
#
#                 Cambridge Crystallographic Data Centre
#                                CCDC 
#
#######################################################################
#
# If this CIF has been generated from an entry in the Cambridge 
# Structural Database, then it will include bibliographic, chemical, 
# crystal, experimental, refinement or atomic coordinate data resulting 
# from the CCDC's data processing and validation procedures.
#
#######################################################################

data_JALDIM
_chemical_formula_moiety         'C26 H22 N2 O2,C10 H2 N4'
_chemical_name_systematic        
'benzene-1,2,4,5-tetracarbonitrile 1-(5-(9-anthryl)-3-(4-methoxyphenyl)-4,5-dihydro-1H-pyrazol-1-yl)ethanone'
_symmetry_cell_setting           triclinic
_symmetry_space_group_name_H-M   'P -1'
_symmetry_Int_Tables_number      2
_space_group_name_Hall           '-P 1'
loop_
_symmetry_equiv_pos_site_id
_symmetry_equiv_pos_as_xyz
1 x,y,z
2 -x,-y,-z
_cell_length_a                   7.6650(15)
_cell_length_b                   9.4610(19)
_cell_length_c                   20.649(4)
_cell_angle_alpha                95.22(3)
_cell_angle_beta                 97.82(3)
_cell_angle_gamma                94.54(3)
_cell_volume                     1470.99
_exptl_crystal_colour            orange
_exptl_crystal_description       Block
_cell_formula_units_Z            2
loop_
_atom_site_label
_atom_site_type_symbol
_atom_site_fract_x
_atom_site_fract_y
_atom_site_fract_z
O1 O 0.9722(5) 0.2396(3) 0.62177(15)
N1 N 0.1277(5) 0.2492(4) 0.37612(15)
C1 C 0.2062(6) 0.3579(4) 0.33924(18)
H1 H 0.1481 0.4452 0.3471
N2 N 0.2481(5) 0.2237(4) 0.43009(15)
O2 O -0.1501(4) 0.2771(3) 0.34089(15)
C2 C 0.3946(6) 0.3851(4) 0.37308(18)
H2 H 0.4771 0.3547 0.3441
H3 H 0.4244 0.4852 0.3884
C3 C 0.3943(6) 0.2955(4) 0.42961(19)
C4 C 0.5441(6) 0.2875(4) 0.48116(19)
C5 C 0.6976(6) 0.3762(5) 0.4850(2)
H4 H 0.7038 0.4447 0.4556
C6 C 0.8437(6) 0.3656(5) 0.5318(2)
H5 H 0.9452 0.4275 0.5337
C7 C 0.8387(6) 0.2640(5) 0.57517(19)
C8 C 0.6835(6) 0.1780(5) 0.5727(2)
H6 H 0.6771 0.1109 0.6027
C9 C 0.5398(6) 0.1886(4) 0.5275(2)
H7 H 0.4370 0.1293 0.5275
C10 C 1.1422(7) 0.3082(6) 0.6204(3)
H8 H 1.2236 0.2817 0.6558
H9 H 1.1811 0.2797 0.5793
H10 H 1.1372 0.4096 0.6251
C11 C -0.0449(6) 0.2150(5) 0.3747(2)
C12 C -0.1031(6) 0.0940(5) 0.4105(2)
H11 H -0.0016 0.0591 0.4343
H12 H -0.1798 0.1261 0.4408
H13 H -0.1655 0.0189 0.3797
C13 C 0.1749(5) 0.3131(4) 0.26441(18)
C14 C 0.0973(5) 0.4084(4) 0.22082(19)
C15 C 0.0589(6) 0.5486(5) 0.2415(2)
H14 H 0.0847 0.5816 0.2859
C16 C -0.0131(7) 0.6349(5) 0.1995(3)
H15 H -0.0387 0.7250 0.2153
C17 C -0.0501(7) 0.5917(6) 0.1328(3)
H16 H -0.1025 0.6520 0.1044
C18 C -0.0103(6) 0.4618(6) 0.1087(2)
H17 H -0.0322 0.4345 0.0638
C19 C 0.0653(5) 0.3666(5) 0.1525(2)
C20 C 0.1089(6) 0.2347(5) 0.1276(2)
H18 H 0.0870 0.2087 0.0825
C21 C 0.1847(5) 0.1403(4) 0.1688(2)
C22 C 0.2279(6) 0.0044(5) 0.1423(2)
H19 H 0.2020 -0.0228 0.0973
C23 C 0.3053(7) -0.0834(5) 0.1820(3)
H20 H 0.3322 -0.1718 0.1645
C24 C 0.3466(6) -0.0440(5) 0.2502(2)
H21 H 0.4025 -0.1055 0.2771
C25 C 0.3059(6) 0.0819(4) 0.2765(2)
H22 H 0.3339 0.1050 0.3217
C26 C 0.2210(5) 0.1825(4) 0.23804(19)
N3 N 0.7195(7) -0.0659(5) 0.0379(2)
N4 N 0.3805(7) 0.5884(6) 0.0576(2)
N5 N 0.8129(6) -0.0357(5) 0.2330(2)
N6 N 0.5114(5) 0.6220(5) 0.2522(2)
C27 C 0.6372(6) 0.1555(5) 0.1065(2)
C28 C 0.6767(5) 0.1677(5) 0.1749(2)
C29 C 0.6409(5) 0.2883(5) 0.2119(2)
H23 H 0.6659 0.2964 0.2575
C30 C 0.5670(5) 0.3978(5) 0.1800(2)
C31 C 0.5229(6) 0.3850(5) 0.1129(2)
C32 C 0.5629(6) 0.2642(5) 0.0755(2)
H24 H 0.5395 0.2572 0.0299
C33 C 0.6829(7) 0.0332(6) 0.0679(3)
C34 C 0.4412(7) 0.4979(6) 0.0816(2)
C35 C 0.7531(6) 0.0535(5) 0.2066(2)
C36 C 0.5342(5) 0.5219(5) 0.2203(2)
loop_
_geom_bond_atom_site_label_1
_geom_bond_atom_site_label_2
_geom_bond_site_symmetry_1
_geom_bond_site_symmetry_2
O1 C7 1_555 1_555
N1 C1 1_555 1_555
C1 H1 1_555 1_555
N2 N1 1_555 1_555
O2 C11 1_555 1_555
C2 C1 1_555 1_555
H2 C2 1_555 1_555
H3 C2 1_555 1_555
C3 N2 1_555 1_555
C4 C3 1_555 1_555
C5 C4 1_555 1_555
H4 C5 1_555 1_555
C6 C5 1_555 1_555
H5 C6 1_555 1_555
C7 C6 1_555 1_555
C8 C7 1_555 1_555
H6 C8 1_555 1_555
C9 C4 1_555 1_555
H7 C9 1_555 1_555
C10 O1 1_555 1_555
H8 C10 1_555 1_555
H9 C10 1_555 1_555
H10 C10 1_555 1_555
C11 N1 1_555 1_555
C12 C11 1_555 1_555
H11 C12 1_555 1_555
H12 C12 1_555 1_555
H13 C12 1_555 1_555
C13 C1 1_555 1_555
C14 C13 1_555 1_555
C15 C14 1_555 1_555
H14 C15 1_555 1_555
C16 C15 1_555 1_555
H15 C16 1_555 1_555
C17 C16 1_555 1_555
H16 C17 1_555 1_555
C18 C17 1_555 1_555
H17 C18 1_555 1_555
C19 C14 1_555 1_555
C20 C19 1_555 1_555
H18 C20 1_555 1_555
C21 C20 1_555 1_555
C22 C21 1_555 1_555
H19 C22 1_555 1_555
C23 C22 1_555 1_555
H20 C23 1_555 1_555
C24 C23 1_555 1_555
H21 C24 1_555 1_555
C25 C24 1_555 1_555
H22 C25 1_555 1_555
C26 C13 1_555 1_555
N3 C33 1_555 1_555
N4 C34 1_555 1_555
N5 C35 1_555 1_555
N6 C36 1_555 1_555
C27 C28 1_555 1_555
C28 C29 1_555 1_555
C29 H23 1_555 1_555
C30 C29 1_555 1_555
C31 C30 1_555 1_555
C32 C27 1_555 1_555
H24 C32 1_555 1_555
C33 C27 1_555 1_555
C34 C31 1_555 1_555
C35 C28 1_555 1_555
C36 C30 1_555 1_555
C2 C3 1_555 1_555
C8 C9 1_555 1_555
C18 C19 1_555 1_555
C21 C26 1_555 1_555
C25 C26 1_555 1_555
C31 C32 1_555 1_555

#END
