
#######################################################################
#
#                 Cambridge Crystallographic Data Centre
#                                CCDC 
#
#######################################################################
#
# If this CIF has been generated from an entry in the Cambridge 
# Structural Database, then it will include bibliographic, chemical, 
# crystal, experimental, refinement or atomic coordinate data resulting 
# from the CCDC's data processing and validation procedures.
#
#######################################################################

data_JALDEF
_chemical_formula_moiety         'C14 H17 N1 O2'
_chemical_name_systematic        3-(4-Morpholino)-1-phenyl-but-2-en-1-one
_symmetry_cell_setting           monoclinic
_symmetry_space_group_name_H-M   'P 21/a'
_symmetry_Int_Tables_number      14
_space_group_name_Hall           '-P 2yab'
loop_
_symmetry_equiv_pos_site_id
_symmetry_equiv_pos_as_xyz
1 x,y,z
2 1/2-x,1/2+y,-z
3 -x,-y,-z
4 1/2+x,1/2-y,z
_cell_length_a                   10.781(2)
_cell_length_b                   10.603(1)
_cell_length_c                   10.891(4)
_cell_angle_alpha                90
_cell_angle_beta                 94.72(2)
_cell_angle_gamma                90
_cell_volume                     1240.74
_chemical_melting_point          145deg.C
_cell_formula_units_Z            4
loop_
_atom_site_label
_atom_site_type_symbol
_atom_site_fract_x
_atom_site_fract_y
_atom_site_fract_z
C1 C 0.7324(7) 0.0468(8) 0.1393(7)
C2 C 0.8626(7) 0.0510(9) 0.1583(8)
C3 C 0.9273(7) 0.123(1) 0.0790(9)
C4 C 0.8694(8) 0.1905(9) -0.0154(8)
C5 C 0.7430(8) 0.1836(9) -0.0349(8)
C6 C 0.6739(7) 0.1134(9) 0.0415(7)
C7 C 0.6634(6) -0.0309(7) 0.2280(7)
O1 O 0.7190(5) -0.1203(5) 0.2795(5)
C8 C 0.5386(7) 0.0071(7) 0.2448(8)
C9 C 0.4521(7) -0.0532(7) 0.3089(7)
C10 C 0.4757(8) -0.1823(8) 0.3626(8)
N1 N 0.3402(6) -0.0010(6) 0.3265(7)
C11 C 0.3061(8) 0.124(1) 0.283(1)
C12 C 0.2198(9) 0.1855(9) 0.365(1)
O2 O 0.1147(5) 0.1129(6) 0.3853(6)
C13 C 0.1526(8) -0.0050(9) 0.4362(9)
C14 C 0.2300(8) -0.0750(8) 0.356(1)
loop_
_geom_bond_atom_site_label_1
_geom_bond_atom_site_label_2
_geom_bond_site_symmetry_1
_geom_bond_site_symmetry_2
C1 C2 1_555 1_555
C2 C3 1_555 1_555
C3 C4 1_555 1_555
C4 C5 1_555 1_555
C5 C6 1_555 1_555
C6 C1 1_555 1_555
C7 C1 1_555 1_555
O1 C7 1_555 1_555
C8 C7 1_555 1_555
C9 C8 1_555 1_555
C10 C9 1_555 1_555
N1 C9 1_555 1_555
C11 N1 1_555 1_555
C12 C11 1_555 1_555
O2 C12 1_555 1_555
C13 O2 1_555 1_555
C14 N1 1_555 1_555
C13 C14 1_555 1_555

#END
