
#######################################################################
#
#                 Cambridge Crystallographic Data Centre
#                                CCDC 
#
#######################################################################
#
# If this CIF has been generated from an entry in the Cambridge 
# Structural Database, then it will include bibliographic, chemical, 
# crystal, experimental, refinement or atomic coordinate data resulting 
# from the CCDC's data processing and validation procedures.
#
#######################################################################

data_JARDAK
_chemical_formula_moiety         'C18 H16 N2 O3'
_chemical_name_systematic        
'ethyl 1-(phenylcarbamoyl)indolizine-3-carboxylate'
_symmetry_cell_setting           monoclinic
_symmetry_space_group_name_H-M   'P 21/n'
_symmetry_Int_Tables_number      14
_space_group_name_Hall           '-P 2yn'
loop_
_symmetry_equiv_pos_site_id
_symmetry_equiv_pos_as_xyz
1 x,y,z
2 1/2-x,1/2+y,1/2-z
3 -x,-y,-z
4 1/2+x,1/2-y,1/2+z
_cell_length_a                   17.128(5)
_cell_length_b                   4.9001(13)
_cell_length_c                   18.218(5)
_cell_angle_alpha                90
_cell_angle_beta                 90.966(8)
_cell_angle_gamma                90
_cell_volume                     1528.8
_exptl_crystal_colour            yellow
_exptl_crystal_description       needle
_chemical_melting_point          '415-417 K'
_cell_formula_units_Z            4
_exptl_crystal_recrystallization_method 'ethyl acetate/petroleum ether'
_exptl_crystal_preparation       Luminescent
loop_
_atom_site_label
_atom_site_type_symbol
_atom_site_fract_x
_atom_site_fract_y
_atom_site_fract_z
C1 C 0.2862(2) 0.6982(9) -0.0661(2)
C2 C 0.2946(2) 0.6936(9) 0.0092(2)
H1 H 0.2686 0.5761 0.0405
C3 C 0.3483(2) 0.8920(9) 0.0313(2)
C4 C 0.3747(2) 1.0186(9) -0.0325(2)
C5 C 0.4298(2) 1.2267(9) -0.0460(3)
H2 H 0.4566 1.3077 -0.0069
C6 C 0.4438(3) 1.3087(11) -0.1156(3)
H3 H 0.4803 1.4446 -0.1245
C7 C 0.4024(3) 1.1860(12) -0.1741(3)
H4 H 0.4111 1.2450 -0.2218
C8 C 0.3503(3) 0.9846(11) -0.1627(2)
H5 H 0.3240 0.9039 -0.2021
C9 C 0.2344(3) 0.5440(10) -0.1145(3)
C10 C 0.1386(3) 0.1978(11) -0.1219(3)
H6 H 0.1673 0.0838 -0.1557
H7 H 0.1043 0.3167 -0.1502
C11 C 0.0920(3) 0.0238(12) -0.0708(3)
H8 H 0.1268 -0.0831 -0.0406
H9 H 0.0586 -0.0954 -0.0989
H10 H 0.0609 0.1387 -0.0402
C12 C 0.3701(2) 0.9797(9) 0.1059(2)
C13 C 0.3706(2) 0.8263(9) 0.2356(2)
C14 C 0.3286(3) 0.6605(11) 0.2813(3)
H11 H 0.2968 0.5246 0.2613
C15 C 0.3330(3) 0.6938(13) 0.3566(3)
H12 H 0.3044 0.5805 0.3870
C16 C 0.3797(3) 0.8940(14) 0.3864(3)
H13 H 0.3824 0.9185 0.4370
C17 C 0.4223(3) 1.0567(12) 0.3414(3)
H14 H 0.4542 1.1908 0.3621
C18 C 0.4192(3) 1.0279(10) 0.2663(3)
H15 H 0.4488 1.1401 0.2365
N1 N 0.33651(19) 0.8998(7) -0.09211(18)
N2 N 0.3628(2) 0.7874(8) 0.1589(2)
H16 H 0.355(3) 0.623(5) 0.145(2)
O1 O 0.19258(17) 0.3591(7) -0.07690(16)
O2 O 0.2270(2) 0.5757(7) -0.17974(19)
O3 O 0.39077(19) 1.2165(6) 0.11911(16)
loop_
_geom_bond_atom_site_label_1
_geom_bond_atom_site_label_2
_geom_bond_site_symmetry_1
_geom_bond_site_symmetry_2
C1 C2 1_555 1_555
C2 H1 1_555 1_555
C3 C2 1_555 1_555
C4 C3 1_555 1_555
C5 C4 1_555 1_555
H2 C5 1_555 1_555
C6 C5 1_555 1_555
H3 C6 1_555 1_555
C7 C6 1_555 1_555
H4 C7 1_555 1_555
C8 C7 1_555 1_555
H5 C8 1_555 1_555
C9 C1 1_555 1_555
C10 H6 1_555 1_555
H7 C10 1_555 1_555
C11 C10 1_555 1_555
H8 C11 1_555 1_555
H9 C11 1_555 1_555
H10 C11 1_555 1_555
C12 C3 1_555 1_555
C13 C14 1_555 1_555
C14 H11 1_555 1_555
C15 C14 1_555 1_555
H12 C15 1_555 1_555
C16 C15 1_555 1_555
H13 C16 1_555 1_555
C17 C16 1_555 1_555
H14 C17 1_555 1_555
C18 C13 1_555 1_555
H15 C18 1_555 1_555
N1 C1 1_555 1_555
N2 C12 1_555 1_555
H16 N2 1_555 1_555
O1 C9 1_555 1_555
O2 C9 1_555 1_555
O3 C12 1_555 1_555
C4 N1 1_555 1_555
C8 N1 1_555 1_555
C10 O1 1_555 1_555
C13 N2 1_555 1_555
C17 C18 1_555 1_555

#END
