
#######################################################################
#
#                 Cambridge Crystallographic Data Centre
#                                CCDC 
#
#######################################################################
#
# If this CIF has been generated from an entry in the Cambridge 
# Structural Database, then it will include bibliographic, chemical, 
# crystal, experimental, refinement or atomic coordinate data resulting 
# from the CCDC's data processing and validation procedures.
#
#######################################################################

data_JARMIB
_chemical_formula_moiety         'C6 H9 N17'
_chemical_name_systematic        
5,5',5''-(pentaaza-1,4-diene-1,3,5-triyl)tris(2-methyl-2H-tetrazole)
_symmetry_cell_setting           monoclinic
_symmetry_space_group_name_H-M   'P 21/c'
_symmetry_Int_Tables_number      14
_space_group_name_Hall           '-P 2ybc'
loop_
_symmetry_equiv_pos_site_id
_symmetry_equiv_pos_as_xyz
1 x,y,z
2 -x,1/2+y,1/2-z
3 -x,-y,-z
4 x,1/2-y,1/2+z
_cell_length_a                   15.804(3)
_cell_length_b                   10.785(2)
_cell_length_c                   8.1924(16)
_cell_angle_alpha                90
_cell_angle_beta                 99.10(3)
_cell_angle_gamma                90
_cell_volume                     1378.79
_exptl_crystal_colour            colorless
_exptl_crystal_description       Prism
_cell_formula_units_Z            4
loop_
_atom_site_label
_atom_site_type_symbol
_atom_site_fract_x
_atom_site_fract_y
_atom_site_fract_z
N1 N 0.0940(5) 0.8692(7) -0.0850(10)
N2 N 0.0489(5) 0.9252(7) -0.2176(11)
N3 N 0.0441(6) 1.0464(8) -0.2029(10)
N4 N 0.0868(5) 1.0752(7) -0.0559(10)
N5 N 0.1651(6) 0.9633(8) 0.1715(10)
N6 N 0.1896(5) 0.8557(8) 0.2110(10)
N7 N 0.2394(5) 0.8522(8) 0.3633(10)
N8 N 0.2754(5) 0.7364(7) 0.3907(10)
N9 N 0.3304(5) 0.7329(7) 0.5223(11)
N10 N 0.3294(7) 0.5075(8) 0.4718(14)
N11 N 0.3770(6) 0.4161(8) 0.5375(13)
N12 N 0.4359(5) 0.4661(8) 0.6540(10)
N13 N 0.4289(6) 0.5887(8) 0.6658(11)
N14 N 0.3399(6) 1.0154(8) 0.4674(13)
N15 N 0.3371(6) 1.1121(8) 0.5630(12)
N16 N 0.2606(6) 1.1108(7) 0.6110(10)
N17 N 0.2109(6) 1.0152(8) 0.5475(11)
C1 C 0.0101(8) 0.8575(10) -0.3626(15)
H1 H 0.0534 0.8405 -0.4330
H2 H -0.0362 0.9072 -0.4242
H3 H -0.0132 0.7791 -0.3288
C2 C 0.1154(6) 0.9650(9) 0.0111(12)
C3 C 0.3619(6) 0.6105(10) 0.5481(13)
C4 C 0.4964(8) 0.3886(11) 0.7590(17)
H4 H 0.4937 0.4074 0.8752
H5 H 0.5544 0.4048 0.7362
H6 H 0.4819 0.3012 0.7369
C5 C 0.2643(6) 0.9586(9) 0.4621(13)
C6 C 0.2325(7) 1.2080(10) 0.7139(12)
H7 H 0.2265 1.1736 0.8223
H8 H 0.1771 1.2407 0.6605
H9 H 0.2748 1.2751 0.7281
loop_
_geom_bond_atom_site_label_1
_geom_bond_atom_site_label_2
_geom_bond_site_symmetry_1
_geom_bond_site_symmetry_2
N1 N2 1_555 1_555
N2 N3 1_555 1_555
N3 N4 1_555 1_555
N4 C2 1_555 1_555
N5 N6 1_555 1_555
N6 N7 1_555 1_555
N7 N8 1_555 1_555
N8 N9 1_555 1_555
N9 C3 1_555 1_555
N10 N11 1_555 1_555
N11 N12 1_555 1_555
N12 N13 1_555 1_555
N13 C3 1_555 1_555
N14 N15 1_555 1_555
N15 N16 1_555 1_555
N16 N17 1_555 1_555
N17 C5 1_555 1_555
C1 N2 1_555 1_555
H1 C1 1_555 1_555
H2 C1 1_555 1_555
H3 C1 1_555 1_555
C2 N1 1_555 1_555
C3 N10 1_555 1_555
C4 N12 1_555 1_555
H4 C4 1_555 1_555
H5 C4 1_555 1_555
H6 C4 1_555 1_555
C5 N7 1_555 1_555
C6 N16 1_555 1_555
H7 C6 1_555 1_555
H8 C6 1_555 1_555
H9 C6 1_555 1_555
N5 C2 1_555 1_555
N14 C5 1_555 1_555

#END
