
#######################################################################
#
#                 Cambridge Crystallographic Data Centre
#                                CCDC 
#
#######################################################################
#
# If this CIF has been generated from an entry in the Cambridge 
# Structural Database, then it will include bibliographic, chemical, 
# crystal, experimental, refinement or atomic coordinate data resulting 
# from the CCDC's data processing and validation procedures.
#
#######################################################################

data_JASTAY01
_chemical_formula_moiety         'C16 H10 Cl8'
_chemical_name_systematic        
endo,endo,exo-1,5,6,7,8,12,13,14-Octachloro-pentacyclo(10.2.1.1^3,10^.0^2,11^.0^4,9^)hexadeca-5,7,13-triene
_symmetry_cell_setting           monoclinic
_symmetry_space_group_name_H-M   'C 2/c'
_symmetry_Int_Tables_number      15
_space_group_name_Hall           '-C 2yn'
loop_
_symmetry_equiv_pos_site_id
_symmetry_equiv_pos_as_xyz
1 x,y,z
2 1/2+x,1/2+y,z
3 -x,y,1/2-z
4 1/2-x,1/2+y,1/2-z
5 -x,-y,-z
6 1/2-x,1/2-y,-z
7 x,-y,1/2+z
8 1/2+x,1/2-y,1/2+z
_cell_length_a                   30.450(1)
_cell_length_b                   8.4599(4)
_cell_length_c                   14.1661(1)
_cell_angle_alpha                90
_cell_angle_beta                 97.023(3)
_cell_angle_gamma                90
_cell_volume                     3621.86
_cell_formula_units_Z            8
loop_
_atom_site_label
_atom_site_type_symbol
_atom_site_fract_x
_atom_site_fract_y
_atom_site_fract_z
Cl1 Cl 0.0472(1) 0.1349(1) -0.1216(1)
Cl2 Cl 0.1314(1) -0.0631(1) 0.2021(1)
Cl3 Cl 0.2058(1) 0.0137(1) 0.3702(1)
Cl4 Cl 0.2426(1) 0.3560(1) 0.3972(1)
Cl5 Cl 0.2028(1) 0.6282(1) 0.2651(1)
Cl6 Cl 0.1023(1) 0.7553(1) -0.0602(1)
Cl7 Cl 0.0532(1) 0.6365(1) 0.1232(1)
Cl8 Cl 0.0198(1) 0.2522(1) 0.0860(1)
C1 C 0.0738(1) 0.3000(2) -0.0638(1)
C2 C 0.1249(1) 0.2821(2) -0.0413(1)
C3 C 0.1509(1) 0.1942(2) 0.0429(1)
C4 C 0.1364(1) 0.2379(2) 0.1417(1)
C5 C 0.1550(1) 0.1210(2) 0.2157(1)
C6 C 0.1865(1) 0.1556(2) 0.2883(1)
C7 C 0.2034(1) 0.3181(2) 0.3021(1)
C8 C 0.1870(1) 0.4346(2) 0.2435(1)
C9 C 0.1533(1) 0.4119(2) 0.1577(1)
C10 C 0.1743(1) 0.4486(2) 0.0658(1)
C11 C 0.1406(1) 0.4581(2) -0.0247(1)
C12 C 0.0961(1) 0.5512(2) -0.0390(1)
C13 C 0.0659(1) 0.5116(2) 0.0364(1)
C14 C 0.0525(1) 0.3610(2) 0.0211(1)
C15 C 0.0723(1) 0.4549(2) -0.1230(1)
C16 C 0.1952(1) 0.2860(2) 0.0482(1)
H1 H 0.1359(1) 0.2347(5) -0.1074(3)
H2 H 0.1525(1) 0.0666(4) 0.0322(3)
H3 H 0.1004(1) 0.2313(4) 0.1402(3)
H4 H 0.1260(1) 0.4932(4) 0.1661(3)
H5 H 0.1971(1) 0.5506(4) 0.0741(3)
H6 H 0.1589(1) 0.4970(5) -0.0831(3)
H7 H 0.0915(1) 0.4464(5) -0.1831(3)
H8 H 0.0387(1) 0.4955(4) -0.1460(3)
H9 H 0.2198(1) 0.2472(4) 0.1069(3)
H10 H 0.2098(1) 0.2823(5) -0.0190(3)
loop_
_geom_bond_atom_site_label_1
_geom_bond_atom_site_label_2
_geom_bond_site_symmetry_1
_geom_bond_site_symmetry_2
Cl1 C1 1_555 1_555
Cl2 C5 1_555 1_555
Cl3 C6 1_555 1_555
Cl4 C7 1_555 1_555
Cl5 C8 1_555 1_555
Cl6 C12 1_555 1_555
Cl7 C13 1_555 1_555
Cl8 C14 1_555 1_555
C1 C2 1_555 1_555
C2 C3 1_555 1_555
C3 C4 1_555 1_555
C4 C5 1_555 1_555
C5 C6 1_555 1_555
C6 C7 1_555 1_555
C7 C8 1_555 1_555
C8 C9 1_555 1_555
C9 C4 1_555 1_555
C10 C9 1_555 1_555
C11 C2 1_555 1_555
C12 C11 1_555 1_555
C13 C12 1_555 1_555
C14 C1 1_555 1_555
C15 C1 1_555 1_555
C16 C3 1_555 1_555
H1 C2 1_555 1_555
H2 C3 1_555 1_555
H3 C4 1_555 1_555
H4 C9 1_555 1_555
H5 C10 1_555 1_555
H6 C11 1_555 1_555
H7 C15 1_555 1_555
H8 C15 1_555 1_555
H9 C16 1_555 1_555
H10 C16 1_555 1_555
C10 C11 1_555 1_555
C10 C16 1_555 1_555
C12 C15 1_555 1_555
C13 C14 1_555 1_555

#END
