
#######################################################################
#
#                 Cambridge Crystallographic Data Centre
#                                CCDC 
#
#######################################################################
#
# If this CIF has been generated from an entry in the Cambridge 
# Structural Database, then it will include bibliographic, chemical, 
# crystal, experimental, refinement or atomic coordinate data resulting 
# from the CCDC's data processing and validation procedures.
#
#######################################################################

data_JATDEO
_chemical_formula_moiety         'C16 H16 N3 1+,I1 1-'
_chemical_name_systematic        '3-Benzyl-1-picolylimidazolium iodide'
_symmetry_cell_setting           triclinic
_symmetry_space_group_name_H-M   'P -1'
_symmetry_Int_Tables_number      2
_space_group_name_Hall           '-P 1'
loop_
_symmetry_equiv_pos_site_id
_symmetry_equiv_pos_as_xyz
1 x,y,z
2 -x,-y,-z
_cell_length_a                   8.920(3)
_cell_length_b                   9.506(3)
_cell_length_c                   9.630(3)
_cell_angle_alpha                76.053(4)
_cell_angle_beta                 84.896(4)
_cell_angle_gamma                77.858(4)
_cell_volume                     774.13
_exptl_crystal_colour            red
_cell_formula_units_Z            2
_exptl_crystal_recrystallization_method 'diethyl ether/methanol'
loop_
_atom_site_label
_atom_site_type_symbol
_atom_site_fract_x
_atom_site_fract_y
_atom_site_fract_z
I1 I 0.45305(2) 0.32420(3) 0.35321(2)
N1 N 0.8475(3) 0.7314(3) 0.0511(3)
N2 N 0.5231(3) 0.7211(3) 0.1010(3)
N3 N 0.3724(3) 0.8675(3) 0.2131(3)
C1 C 0.9911(4) 0.7352(4) 0.0743(4)
C2 C 1.0903(4) 0.6177(5) 0.1512(4)
C3 C 1.0379(4) 0.4921(4) 0.2100(4)
C4 C 0.8881(4) 0.4864(4) 0.1902(4)
C5 C 0.7986(3) 0.6077(3) 0.1076(3)
C6 C 0.6419(4) 0.5991(4) 0.0716(4)
C7 C 0.4358(4) 0.8259(4) 0.0020(4)
C8 C 0.3416(4) 0.9179(4) 0.0707(4)
C9 C 0.4819(4) 0.7484(4) 0.2296(4)
C10 C 0.2923(4) 0.9337(5) 0.3299(4)
C11 C 0.1267(3) 0.9241(3) 0.3430(3)
C12 C 0.0188(4) 1.0453(4) 0.2870(4)
C13 C -0.1344(5) 1.0391(6) 0.2982(5)
C14 C -0.1803(6) 0.9128(8) 0.3632(6)
C15 C -0.0761(8) 0.7919(8) 0.4189(6)
C16 C 0.0805(6) 0.7949(5) 0.4108(4)
H1 H 1.020(5) 0.823(5) 0.029(5)
H2 H 1.192(6) 0.622(5) 0.177(6)
H3 H 1.113(7) 0.412(6) 0.287(7)
H4 H 0.837(5) 0.408(5) 0.237(5)
H5 H 0.459(5) 0.824(5) -0.082(6)
H6 H 0.295(5) 0.989(4) 0.047(4)
H7 H 0.515(4) 0.691(4) 0.315(5)
H8 H 0.060(5) 1.132(5) 0.250(5)
H9 H -0.211(10) 1.138(10) 0.255(9)
H10 H -0.278(8) 0.915(7) 0.394(7)
H11 H -0.100(7) 0.726(7) 0.455(7)
H12 H 0.158(6) 0.720(5) 0.451(5)
H13 H 0.647(4) 0.607(4) -0.026(4)
H14 H 0.290(4) 1.035(5) 0.304(4)
H15 H 0.619(4) 0.504(4) 0.133(4)
H16 H 0.334(5) 0.877(5) 0.408(5)
loop_
_geom_bond_atom_site_label_1
_geom_bond_atom_site_label_2
_geom_bond_site_symmetry_1
_geom_bond_site_symmetry_2
N1 C1 1_555 1_555
N2 C6 1_555 1_555
N3 C8 1_555 1_555
C1 C2 1_555 1_555
C2 C3 1_555 1_555
C3 C4 1_555 1_555
C4 C5 1_555 1_555
C5 N1 1_555 1_555
C6 C5 1_555 1_555
C7 N2 1_555 1_555
C8 C7 1_555 1_555
C9 N2 1_555 1_555
C10 N3 1_555 1_555
C11 C10 1_555 1_555
C12 C11 1_555 1_555
C13 C12 1_555 1_555
C14 C13 1_555 1_555
C15 C14 1_555 1_555
C16 C11 1_555 1_555
H1 C1 1_555 1_555
H2 C2 1_555 1_555
H3 C3 1_555 1_555
H4 C4 1_555 1_555
H5 C7 1_555 1_555
H6 C8 1_555 1_555
H7 C9 1_555 1_555
H8 C12 1_555 1_555
H9 C13 1_555 1_555
H10 C14 1_555 1_555
H11 C15 1_555 1_555
H12 C16 1_555 1_555
H13 C6 1_555 1_555
H14 C10 1_555 1_555
H15 C6 1_555 1_555
H16 C10 1_555 1_555
N3 C9 1_555 1_555
C15 C16 1_555 1_555

#END
