
#######################################################################
#
#                 Cambridge Crystallographic Data Centre
#                                CCDC 
#
#######################################################################
#
# If this CIF has been generated from an entry in the Cambridge 
# Structural Database, then it will include bibliographic, chemical, 
# crystal, experimental, refinement or atomic coordinate data resulting 
# from the CCDC's data processing and validation procedures.
#
#######################################################################

data_JAVCEO01
_chemical_formula_moiety         'C16 H15 N1 O3'
_chemical_name_systematic        4-Methoxy-3-methyl-4'-nitrostilbene
_symmetry_cell_setting           orthorhombic
_symmetry_space_group_name_H-M   'A b a 2'
_symmetry_Int_Tables_number      41
_space_group_name_Hall           'A 2 -2ab'
loop_
_symmetry_equiv_pos_site_id
_symmetry_equiv_pos_as_xyz
1 x,y,z
2 x,1/2+y,1/2+z
3 1/2-x,1/2+y,z
4 1/2-x,y,1/2+z
5 1/2+x,1/2-y,z
6 1/2+x,-y,1/2+z
7 -x,-y,z
8 -x,1/2-y,1/2+z
_cell_length_a                   15.750(3)
_cell_length_b                   13.470(2)
_cell_length_c                   13.356(2)
_cell_angle_alpha                90
_cell_angle_beta                 90
_cell_angle_gamma                90
_cell_volume                     2833.51
_exptl_crystal_colour            yellow
_cell_formula_units_Z            8
loop_
_atom_site_label
_atom_site_type_symbol
_atom_site_fract_x
_atom_site_fract_y
_atom_site_fract_z
O1 O 0.4588(4) -0.1941(4) -0.6357(6)
O2 O 0.5353(5) -0.2812(5) -0.5342(6)
O3 O 0.2689(3) 0.2193(3) 0.2064
N1 N 0.4838(4) -0.2151(6) -0.5524(6)
C1 C 0.4535(4) -0.1569(5) -0.4663(8)
C2 C 0.4717(4) -0.1872(5) -0.3703(8)
C3 C 0.4435(4) -0.1324(4) -0.2911(6)
C4 C 0.3973(4) -0.0459(4) -0.3058(7)
C5 C 0.3785(6) -0.0185(6) -0.4061(7)
C6 C 0.4064(5) -0.0738(6) -0.4844(7)
C7 C 0.3664(5) 0.0159(6) -0.2235(7)
C8 C 0.3787(5) 0.0006(6) -0.1274(7)
C9 C 0.3469(4) 0.0616(5) -0.0431(7)
C10 C 0.3711(5) 0.0370(6) 0.0529(7)
C11 C 0.3472(4) 0.0899(5) 0.1358(6)
C12 C 0.2928(4) 0.1712(5) 0.1223(6)
C13 C 0.2665(4) 0.1974(5) 0.0258(7)
C14 C 0.2938(5) 0.1410(5) -0.0549(7)
C15 C 0.3772(7) 0.0612(8) 0.2395(7)
C16 C 0.2126(6) 0.3005(7) 0.1968(9)
H1 H 0.498(3) -0.249(4) -0.368(4)
H2 H 0.460(4) -0.156(5) -0.215(5)
H3 H 0.338(5) 0.032(5) -0.422(5)
H4 H 0.396(3) -0.054(3) -0.545(4)
H5 H 0.343(4) 0.081(5) -0.243(4)
H6 H 0.416(4) -0.058(4) -0.112(4)
H7 H 0.407(4) -0.019(5) 0.060(5)
H8 H 0.217(4) 0.250(5) 0.018(5)
H9 H 0.269(4) 0.159(4) -0.116(4)
H10 H 0.330(5) 0.048(6) 0.278(6)
H11 H 0.402(6) -0.018(8) 0.241(7)
H12 H 0.406(5) 0.111(5) 0.271(5)
H13 H 0.158(4) 0.284(5) 0.158(6)
H14 H 0.233(3) 0.350(4) 0.146(4)
H15 H 0.207(4) 0.321(4) 0.259(5)
loop_
_geom_bond_atom_site_label_1
_geom_bond_atom_site_label_2
_geom_bond_site_symmetry_1
_geom_bond_site_symmetry_2
O1 N1 1_555 1_555
O2 N1 1_555 1_555
O3 C12 1_555 1_555
N1 C1 1_555 1_555
C1 C2 1_555 1_555
C2 C3 1_555 1_555
C3 C4 1_555 1_555
C4 C5 1_555 1_555
C5 C6 1_555 1_555
C6 C1 1_555 1_555
C7 C4 1_555 1_555
C8 C7 1_555 1_555
C9 C8 1_555 1_555
C10 C9 1_555 1_555
C11 C10 1_555 1_555
C12 C11 1_555 1_555
C13 C12 1_555 1_555
C14 C9 1_555 1_555
C15 C11 1_555 1_555
C16 O3 1_555 1_555
H1 C2 1_555 1_555
H2 C3 1_555 1_555
H3 C5 1_555 1_555
H4 C6 1_555 1_555
H5 C7 1_555 1_555
H6 C8 1_555 1_555
H7 C10 1_555 1_555
H8 C13 1_555 1_555
H9 C14 1_555 1_555
H10 C15 1_555 1_555
H11 C15 1_555 1_555
H12 C15 1_555 1_555
H13 C16 1_555 1_555
H14 C16 1_555 1_555
H15 C16 1_555 1_555
C13 C14 1_555 1_555

#END
