
#######################################################################
#
#                 Cambridge Crystallographic Data Centre
#                                CCDC 
#
#######################################################################
#
# If this CIF has been generated from an entry in the Cambridge 
# Structural Database, then it will include bibliographic, chemical, 
# crystal, experimental, refinement or atomic coordinate data resulting 
# from the CCDC's data processing and validation procedures.
#
#######################################################################

data_JAVCUF
_chemical_formula_moiety         'C26 H24 N2 O2'
_chemical_name_systematic        
(2,10-dimethyl-1,9-dioxadispiro(4.2.4.2)tetradecane-4,12-diylidene)dimethanimine
_symmetry_cell_setting           triclinic
_symmetry_space_group_name_H-M   'P -1'
_symmetry_Int_Tables_number      2
_space_group_name_Hall           '-P 1'
loop_
_symmetry_equiv_pos_site_id
_symmetry_equiv_pos_as_xyz
1 x,y,z
2 -x,-y,-z
_cell_length_a                   5.910(3)
_cell_length_b                   10.2167(19)
_cell_length_c                   10.529(3)
_cell_angle_alpha                117.75(2)
_cell_angle_beta                 92.61(3)
_cell_angle_gamma                97.43(3)
_cell_volume                     553.84
_cell_formula_units_Z            1
loop_
_atom_site_label
_atom_site_type_symbol
_atom_site_fract_x
_atom_site_fract_y
_atom_site_fract_z
O1 O 0.1791(5) 0.7414(3) 0.6042(2)
C1 C 0.0177(7) 0.7373(4) 0.8003(4)
C2 C 0.0391(6) 0.6410(4) 0.6401(4)
C3 C 0.3280(9) 0.8511(5) 0.7276(5)
H1 H 0.4633 0.8102 0.7402
C4 C 0.1839(8) 0.8812(5) 0.8542(4)
H2 H 0.2799 0.9026 0.9411
H3 H 0.1038 0.9646 0.8745
C5 C -0.1213(8) 0.7002(5) 0.8732(4)
C6 C 0.1607(7) 0.5074(4) 0.6145(4)
H4 H 0.3108 0.5448 0.6712
H5 H 0.0717 0.4443 0.6467
C7 C -0.1889(6) 0.5848(4) 0.5429(4)
H6 H -0.2916 0.5244 0.5721
H7 H -0.2590 0.6701 0.5554
C8 C 0.4021(8) 0.9892(4) 0.7113(4)
C9 C 0.6285(9) 1.0625(6) 0.7629(5)
H8 H 0.7314 1.0261 0.8027
C10 C 0.6963(10) 1.1973(7) 0.7517(6)
H9 H 0.8450 1.2512 0.7842
C11 C 0.5343(12) 1.2431(6) 0.6917(6)
H10 H 0.5726 1.3320 0.6874
C12 C 0.3284(12) 1.1659(7) 0.6404(6)
H11 H 0.2259 1.1975 0.5952
C13 C 0.2626(9) 1.0440(6) 0.6513(5)
H12 H 0.1125 0.9935 0.6158
N1 N -0.2636(11) 0.6630(6) 0.9494(5)
O1A O -0.1791(5) 0.2586(3) 0.3958(2)
C1A C -0.0177(7) 0.2627(4) 0.1997(4)
C2A C -0.0391(6) 0.3590(4) 0.3599(4)
C3A C -0.3280(9) 0.1489(5) 0.2724(5)
H1A H -0.4633 0.1898 0.2598
C4A C -0.1839(8) 0.1188(5) 0.1458(4)
H2A H -0.2799 0.0974 0.0589
H3A H -0.1038 0.0354 0.1255
C5A C 0.1213(8) 0.2998(5) 0.1268(4)
C6A C -0.1607(7) 0.4926(4) 0.3855(4)
H4A H -0.3108 0.4552 0.3288
H5A H -0.0717 0.5557 0.3533
C7A C 0.1889(6) 0.4152(4) 0.4571(4)
H6A H 0.2916 0.4756 0.4279
H7A H 0.2590 0.3299 0.4446
C8A C -0.4021(8) 0.0108(4) 0.2887(4)
C9A C -0.6285(9) -0.0625(6) 0.2371(5)
H8A H -0.7314 -0.0261 0.1973
C10A C -0.6963(10) -0.1973(7) 0.2483(6)
H9A H -0.8450 -0.2512 0.2158
C11A C -0.5343(12) -0.2431(6) 0.3083(6)
H10A H -0.5726 -0.3320 0.3126
C12A C -0.3284(12) -0.1659(7) 0.3596(6)
H11A H -0.2259 -0.1975 0.4048
C13A C -0.2626(9) -0.0440(6) 0.3487(5)
H12A H -0.1125 0.0065 0.3842
N1A N 0.2636(11) 0.3370(6) 0.0506(5)
loop_
_geom_bond_atom_site_label_1
_geom_bond_atom_site_label_2
_geom_bond_site_symmetry_1
_geom_bond_site_symmetry_2
O1 C2 1_555 1_555
C1 C2 1_555 1_555
C2 C6 1_555 1_555
C3 O1 1_555 1_555
H1 C3 1_555 1_555
C4 C1 1_555 1_555
H2 C4 1_555 1_555
H3 C4 1_555 1_555
C5 C1 1_555 1_555
C6 H4 1_555 1_555
H5 C6 1_555 1_555
C7 C2 1_555 1_555
H6 C7 1_555 1_555
H7 C7 1_555 1_555
C8 C3 1_555 1_555
C9 C8 1_555 1_555
H8 C9 1_555 1_555
C10 C9 1_555 1_555
H9 C10 1_555 1_555
C11 C10 1_555 1_555
H10 C11 1_555 1_555
C12 C11 1_555 1_555
H11 C12 1_555 1_555
C13 C8 1_555 1_555
H12 C13 1_555 1_555
N1 C5 1_555 1_555
O1A C2A 1_555 1_555
C1A C2A 1_555 1_555
C2A C6A 1_555 1_555
C3A O1A 1_555 1_555
H1A C3A 1_555 1_555
C4A C1A 1_555 1_555
H2A C4A 1_555 1_555
H3A C4A 1_555 1_555
C5A C1A 1_555 1_555
C6A C7 1_555 1_555
H4A C6A 1_555 1_555
H5A C6A 1_555 1_555
C7A C6 1_555 1_555
H6A C7A 1_555 1_555
H7A C7A 1_555 1_555
C8A C3A 1_555 1_555
C9A C8A 1_555 1_555
H8A C9A 1_555 1_555
C10A C9A 1_555 1_555
H9A C10A 1_555 1_555
C11A C10A 1_555 1_555
H10A C11A 1_555 1_555
C12A C11A 1_555 1_555
H11A C12A 1_555 1_555
C13A C8A 1_555 1_555
H12A C13A 1_555 1_555
N1A C5A 1_555 1_555
C3 C4 1_555 1_555
C12 C13 1_555 1_555
C2A C7A 1_555 1_555
C3A C4A 1_555 1_555
C12A C13A 1_555 1_555

#END
