
#######################################################################
#
#                 Cambridge Crystallographic Data Centre
#                                CCDC 
#
#######################################################################
#
# If this CIF has been generated from an entry in the Cambridge 
# Structural Database, then it will include bibliographic, chemical, 
# crystal, experimental, refinement or atomic coordinate data resulting 
# from the CCDC's data processing and validation procedures.
#
#######################################################################

data_JAVDIW
_chemical_formula_moiety         'C6 H16 N1 1+,C7 H4 Br1 O3 1-'
_chemical_name_systematic        
'N-isopropylpropan-2-aminium 5-bromo-2-hydroxybenzoate'
_symmetry_cell_setting           monoclinic
_symmetry_space_group_name_H-M   'P 21/c'
_symmetry_Int_Tables_number      14
_space_group_name_Hall           '-P 2ybc'
loop_
_symmetry_equiv_pos_site_id
_symmetry_equiv_pos_as_xyz
1 x,y,z
2 -x,1/2+y,1/2-z
3 -x,-y,-z
4 x,1/2-y,1/2+z
_cell_length_a                   10.3071(7)
_cell_length_b                   13.0882(11)
_cell_length_c                   11.5536(9)
_cell_angle_alpha                90
_cell_angle_beta                 96.3620(10)
_cell_angle_gamma                90
_cell_volume                     1549
_exptl_crystal_colour            colorless
_exptl_crystal_description       block
_cell_formula_units_Z            4
loop_
_atom_site_label
_atom_site_type_symbol
_atom_site_fract_x
_atom_site_fract_y
_atom_site_fract_z
Br1 Br 0.61994(4) 0.18093(3) 0.77474(4)
O1 O 0.1994(2) 0.39291(19) 0.5867(2)
O2 O 0.1347(2) 0.49640(19) 0.7212(2)
O3 O 0.2474(2) 0.4931(2) 0.9283(2)
H1 H 0.1941 0.5113 0.8744
C1 C 0.2097(3) 0.4284(3) 0.6854(3)
C2 C 0.3159(3) 0.3897(2) 0.7744(3)
C3 C 0.3279(3) 0.4228(3) 0.8899(3)
C4 C 0.4262(4) 0.3830(3) 0.9694(3)
H2 H 0.4342 0.4048 1.0465
C5 C 0.5108(3) 0.3123(3) 0.9345(3)
H3 H 0.5765 0.2860 0.9880
C6 C 0.4996(3) 0.2796(3) 0.8211(3)
C7 C 0.4031(3) 0.3172(2) 0.7413(3)
H4 H 0.3959 0.2941 0.6648
N1 N 0.8828(2) 0.55121(18) 0.6363(2)
H5 H 0.8704 0.5641 0.5594
H6 H 0.9666 0.5319 0.6531
C8 C 0.8653(3) 0.6503(3) 0.6990(3)
H7 H 0.7760 0.6747 0.6773
C9 C 0.9590(4) 0.7266(3) 0.6565(3)
H8 H 1.0467 0.7019 0.6733
H9 H 0.9505 0.7908 0.6952
H10 H 0.9393 0.7358 0.5740
C10 C 0.8851(5) 0.6353(4) 0.8294(3)
H11 H 0.8280 0.5822 0.8510
H12 H 0.8657 0.6978 0.8675
H13 H 0.9741 0.6162 0.8528
C11 C 0.7991(3) 0.4621(3) 0.6595(3)
H14 H 0.8167 0.4430 0.7418
C12 C 0.8364(4) 0.3737(3) 0.5850(4)
H15 H 0.8124 0.3895 0.5043
H16 H 0.7915 0.3131 0.6051
H17 H 0.9289 0.3627 0.5984
C13 C 0.6550(4) 0.4891(4) 0.6329(5)
H18 H 0.6301 0.5350 0.6915
H19 H 0.6035 0.4280 0.6327
H20 H 0.6405 0.5213 0.5580
loop_
_geom_bond_atom_site_label_1
_geom_bond_atom_site_label_2
_geom_bond_site_symmetry_1
_geom_bond_site_symmetry_2
Br1 C6 1_555 1_555
O1 C1 1_555 1_555
O2 C1 1_555 1_555
O3 H1 1_555 1_555
C1 C2 1_555 1_555
C2 C3 1_555 1_555
C3 O3 1_555 1_555
C4 C3 1_555 1_555
H2 C4 1_555 1_555
C5 C4 1_555 1_555
H3 C5 1_555 1_555
C6 C5 1_555 1_555
C7 C2 1_555 1_555
H4 C7 1_555 1_555
N1 H5 1_555 1_555
H6 N1 1_555 1_555
C8 N1 1_555 1_555
H7 C8 1_555 1_555
C9 C8 1_555 1_555
H8 C9 1_555 1_555
H9 C9 1_555 1_555
H10 C9 1_555 1_555
C10 C8 1_555 1_555
H11 C10 1_555 1_555
H12 C10 1_555 1_555
H13 C10 1_555 1_555
C11 N1 1_555 1_555
H14 C11 1_555 1_555
C12 C11 1_555 1_555
H15 C12 1_555 1_555
H16 C12 1_555 1_555
H17 C12 1_555 1_555
C13 C11 1_555 1_555
H18 C13 1_555 1_555
H19 C13 1_555 1_555
H20 C13 1_555 1_555
C6 C7 1_555 1_555

#END
