
#######################################################################
#
#                 Cambridge Crystallographic Data Centre
#                                CCDC 
#
#######################################################################
#
# If this CIF has been generated from an entry in the Cambridge 
# Structural Database, then it will include bibliographic, chemical, 
# crystal, experimental, refinement or atomic coordinate data resulting 
# from the CCDC's data processing and validation procedures.
#
#######################################################################

data_JAVGOF
_chemical_formula_moiety         'C7 H6 Br1 N2 S1 1+,Cl1 1-'
_chemical_name_systematic        
'6-bromo-1,3-benzothiazol-2(3H)-iminium chloride'
_symmetry_cell_setting           monoclinic
_symmetry_space_group_name_H-M   'C 2/c'
_symmetry_Int_Tables_number      15
_space_group_name_Hall           '-C 2yn'
loop_
_symmetry_equiv_pos_site_id
_symmetry_equiv_pos_as_xyz
1 x,y,z
2 -x,y,1/2-z
3 1/2+x,1/2+y,z
4 1/2-x,1/2+y,1/2-z
5 -x,-y,-z
6 x,-y,1/2+z
7 1/2-x,1/2-y,-z
8 1/2+x,1/2-y,1/2+z
_cell_length_a                   13.2681(13)
_cell_length_b                   13.4428(9)
_cell_length_c                   11.0489(11)
_cell_angle_alpha                90
_cell_angle_beta                 111.785(2)
_cell_angle_gamma                90
_cell_volume                     1829.95
_exptl_crystal_colour            colorless
_exptl_crystal_description       BLOCK
_cell_formula_units_Z            8
loop_
_atom_site_label
_atom_site_type_symbol
_atom_site_fract_x
_atom_site_fract_y
_atom_site_fract_z
Br1 Br 0.19528(3) 0.08294(3) 0.88213(4)
S1 S 0.41765(8) 0.11583(6) 0.53413(9)
N1 N 0.4128(2) 0.3028(2) 0.5743(3)
H1 H 0.4227 0.3658 0.5713
N2 N 0.4927(2) 0.2618(2) 0.4254(3)
H2 H 0.5061 0.3232 0.4156
H3 H 0.5112 0.2163 0.3829
C1 C 0.4445(3) 0.2377(3) 0.5043(3)
C2 C 0.3629(3) 0.2610(2) 0.6520(3)
C3 C 0.3575(3) 0.1580(2) 0.6421(3)
C4 C 0.3083(3) 0.1020(2) 0.7096(3)
H4 H 0.3037 0.0331 0.7024
C5 C 0.2666(3) 0.1532(3) 0.7875(3)
C6 C 0.2727(3) 0.2558(3) 0.8001(3)
H5 H 0.2433 0.2875 0.8543
C7 C 0.3216(3) 0.3106(3) 0.7333(4)
H6 H 0.3270 0.3794 0.7422
Cl1 Cl 0.0000 0.0000 0.0000
Cl2 Cl 0.5000 0.08787(10) 0.2500
loop_
_geom_bond_atom_site_label_1
_geom_bond_atom_site_label_2
_geom_bond_site_symmetry_1
_geom_bond_site_symmetry_2
Br1 C5 1_555 1_555
S1 C1 1_555 1_555
N1 H1 1_555 1_555
N2 H2 1_555 1_555
H3 N2 1_555 1_555
C1 N1 1_555 1_555
C2 N1 1_555 1_555
C3 S1 1_555 1_555
C4 C3 1_555 1_555
H4 C4 1_555 1_555
C5 C4 1_555 1_555
C6 C5 1_555 1_555
H5 C6 1_555 1_555
C7 C2 1_555 1_555
H6 C7 1_555 1_555
N2 C1 1_555 1_555
C2 C3 1_555 1_555
C6 C7 1_555 1_555

#END
