
#######################################################################
#
#                 Cambridge Crystallographic Data Centre
#                                CCDC 
#
#######################################################################
#
# If this CIF has been generated from an entry in the Cambridge 
# Structural Database, then it will include bibliographic, chemical, 
# crystal, experimental, refinement or atomic coordinate data resulting 
# from the CCDC's data processing and validation procedures.
#
#######################################################################

data_JAVHIA
_chemical_formula_moiety         'C10 H12 N3 1+,3(H2 O1),Cl1 1-'
_chemical_name_systematic        
'7-amino-2,4-dimethyl-1,8-naphthyridin-1-ium chloride trihydrate'
_symmetry_cell_setting           triclinic
_symmetry_space_group_name_H-M   'P -1'
_symmetry_Int_Tables_number      2
_space_group_name_Hall           '-P 1'
loop_
_symmetry_equiv_pos_site_id
_symmetry_equiv_pos_as_xyz
1 x,y,z
2 -x,-y,-z
_cell_length_a                   7.2840(6)
_cell_length_b                   9.7149(8)
_cell_length_c                   9.8571(9)
_cell_angle_alpha                73.4880(10)
_cell_angle_beta                 83.6630(10)
_cell_angle_gamma                89.266(2)
_cell_volume                     664.543
_exptl_crystal_colour            colorless
_exptl_crystal_description       BLOCK
_cell_formula_units_Z            2
loop_
_atom_site_label
_atom_site_type_symbol
_atom_site_fract_x
_atom_site_fract_y
_atom_site_fract_z
Cl1 Cl 0.39458(9) 0.44874(7) 0.28845(7)
N1 N 0.1928(2) -0.01190(19) 1.14979(18)
N2 N 0.1749(2) -0.15905(18) 1.00638(18)
H1 H 0.1228 -0.2214 1.0807
N3 N 0.2134(3) 0.1343(2) 1.2939(2)
H2 H 0.1612 0.0674 1.3642
H3 H 0.2453 0.2142 1.3066
C1 C 0.2447(3) 0.1141(2) 1.1652(2)
C2 C 0.3316(3) 0.2263(2) 1.0490(2)
H4 H 0.3673 0.3122 1.0635
C3 C 0.3613(3) 0.2068(2) 0.9183(2)
H5 H 0.4166 0.2797 0.8423
C4 C 0.3081(3) 0.0748(2) 0.8965(2)
C5 C 0.2259(3) -0.0291(2) 1.0193(2)
C6 C 0.2019(3) -0.1948(2) 0.8835(2)
C7 C 0.2799(3) -0.0941(3) 0.7628(2)
H6 H 0.2969 -0.1175 0.6771
C8 C 0.3334(3) 0.0408(2) 0.7660(2)
C9 C 0.1485(4) -0.3435(3) 0.8870(3)
H7 H 0.2518 -0.4054 0.9075
H8 H 0.1121 -0.3432 0.7962
H9 H 0.0471 -0.3777 0.9595
C10 C 0.4192(4) 0.1480(3) 0.6324(2)
H10 H 0.4300 0.1051 0.5553
H11 H 0.5396 0.1763 0.6469
H12 H 0.3427 0.2308 0.6097
O1 O 0.7597(2) 0.4614(2) 0.42925(19)
H13 H 0.6648 0.4567 0.3876
H14 H 0.7253 0.4849 0.5047
O2 O 0.0391(3) 0.6283(2) 0.2424(2)
H15 H 0.1377 0.5807 0.2536
H16 H -0.0484 0.5791 0.2988
O3 O 0.9400(3) 0.1739(2) 0.5417(2)
H17 H 0.8858 0.2535 0.5149
H18 H 0.8992 0.1327 0.6278
loop_
_geom_bond_atom_site_label_1
_geom_bond_atom_site_label_2
_geom_bond_site_symmetry_1
_geom_bond_site_symmetry_2
N1 C1 1_555 1_555
N2 H1 1_555 1_555
N3 H2 1_555 1_555
H3 N3 1_555 1_555
C1 N3 1_555 1_555
C2 C1 1_555 1_555
H4 C2 1_555 1_555
C3 C2 1_555 1_555
H5 C3 1_555 1_555
C4 C3 1_555 1_555
C5 N1 1_555 1_555
C6 N2 1_555 1_555
C7 C6 1_555 1_555
H6 C7 1_555 1_555
C8 C4 1_555 1_555
C9 C6 1_555 1_555
H7 C9 1_555 1_555
H8 C9 1_555 1_555
H9 C9 1_555 1_555
C10 C8 1_555 1_555
H10 C10 1_555 1_555
H11 C10 1_555 1_555
H12 C10 1_555 1_555
O1 H13 1_555 1_555
H14 O1 1_555 1_555
O2 H15 1_555 1_555
H16 O2 1_555 1_555
O3 H17 1_555 1_555
H18 O3 1_555 1_555
N2 C5 1_555 1_555
C4 C5 1_555 1_555
C7 C8 1_555 1_555

#END
