
#######################################################################
#
#                 Cambridge Crystallographic Data Centre
#                                CCDC 
#
#######################################################################
#
# If this CIF has been generated from an entry in the Cambridge 
# Structural Database, then it will include bibliographic, chemical, 
# crystal, experimental, refinement or atomic coordinate data resulting 
# from the CCDC's data processing and validation procedures.
#
#######################################################################

data_JAVHAS
_chemical_formula_moiety         'C7 H6 Br1 N2 S1 1+,H1 O4 S1 1-'
_chemical_name_systematic        
'6-bromo-1,3-benzothiazol-2(3H)-iminium hydrogen sulfate'
_symmetry_cell_setting           triclinic
_symmetry_space_group_name_H-M   'P -1'
_symmetry_Int_Tables_number      2
_space_group_name_Hall           '-P 1'
loop_
_symmetry_equiv_pos_site_id
_symmetry_equiv_pos_as_xyz
1 x,y,z
2 -x,-y,-z
_cell_length_a                   4.9662(6)
_cell_length_b                   8.5090(10)
_cell_length_c                   12.8141(13)
_cell_angle_alpha                86.0360(10)
_cell_angle_beta                 86.2580(10)
_cell_angle_gamma                87.047(2)
_cell_volume                     538.442
_exptl_crystal_colour            colorless
_exptl_crystal_description       BLOCK
_cell_formula_units_Z            2
loop_
_atom_site_label
_atom_site_type_symbol
_atom_site_fract_x
_atom_site_fract_y
_atom_site_fract_z
Br1 Br 0.06741(8) 0.76552(4) 0.53455(3)
S1 S 0.83218(18) 1.01743(9) 0.22801(7)
N1 N 0.9515(6) 0.7290(3) 0.1916(2)
H1 H 1.0302 0.6467 0.1657
N2 N 1.2206(6) 0.9113(3) 0.0921(2)
H2 H 1.3136 0.8378 0.0614
H3 H 1.2561 1.0084 0.0770
C1 C 1.0232(7) 0.8750(4) 0.1624(3)
C2 C 0.7377(7) 0.7210(4) 0.2677(3)
C3 C 0.6494(6) 0.8708(3) 0.2987(3)
C4 C 0.4440(7) 0.8885(4) 0.3761(3)
H4 H 0.3837 0.9876 0.3969
C5 C 0.3319(7) 0.7514(4) 0.4214(3)
C6 C 0.4139(8) 0.6033(4) 0.3879(3)
H5 H 0.3278 0.5147 0.4172
C7 C 0.6198(7) 0.5863(4) 0.3124(3)
H6 H 0.6789 0.4870 0.2918
S2 S 0.36366(16) 0.34169(9) 0.11346(7)
O1 O 0.2318(5) 0.4955(3) 0.08376(19)
O2 O 0.6726(5) 0.3714(3) 0.1110(2)
H7 H 0.7216 0.4123 0.0535
O3 O 0.3313(5) 0.2310(3) 0.0342(2)
O4 O 0.2974(5) 0.2829(3) 0.2183(2)
loop_
_geom_bond_atom_site_label_1
_geom_bond_atom_site_label_2
_geom_bond_site_symmetry_1
_geom_bond_site_symmetry_2
Br1 C5 1_555 1_555
S1 C1 1_555 1_555
N1 H1 1_555 1_555
N2 H2 1_555 1_555
H3 N2 1_555 1_555
C1 N1 1_555 1_555
C2 N1 1_555 1_555
C3 S1 1_555 1_555
C4 C3 1_555 1_555
H4 C4 1_555 1_555
C5 C4 1_555 1_555
C6 C5 1_555 1_555
H5 C6 1_555 1_555
C7 C2 1_555 1_555
H6 C7 1_555 1_555
S2 O1 1_555 1_555
O2 S2 1_555 1_555
H7 O2 1_555 1_555
O3 S2 1_555 1_555
O4 S2 1_555 1_555
N2 C1 1_555 1_555
C2 C3 1_555 1_555
C6 C7 1_555 1_555

#END
