
#######################################################################
#
#                 Cambridge Crystallographic Data Centre
#                                CCDC 
#
#######################################################################
#
# If this CIF has been generated from an entry in the Cambridge 
# Structural Database, then it will include bibliographic, chemical, 
# crystal, experimental, refinement or atomic coordinate data resulting 
# from the CCDC's data processing and validation procedures.
#
#######################################################################

data_JAVNOM
_chemical_formula_moiety         'C10 H11 O3 1-,C6 H16 N1 1+'
_chemical_name_systematic        
'N,N-diisopropylammonium 2-methyl-2-phenoxypropanoate'
_symmetry_cell_setting           orthorhombic
_symmetry_space_group_name_H-M   'P b c a'
_symmetry_Int_Tables_number      61
_space_group_name_Hall           '-P 2ac 2ab'
loop_
_symmetry_equiv_pos_site_id
_symmetry_equiv_pos_as_xyz
1 x,y,z
2 1/2-x,-y,1/2+z
3 1/2+x,1/2-y,-z
4 -x,1/2+y,1/2-z
5 -x,-y,-z
6 1/2+x,y,1/2-z
7 1/2-x,1/2+y,z
8 x,1/2-y,1/2+z
_cell_length_a                   9.133(6)
_cell_length_b                   16.821(12)
_cell_length_c                   22.694(15)
_cell_angle_alpha                90
_cell_angle_beta                 90
_cell_angle_gamma                90
_cell_volume                     3486.39
_exptl_crystal_colour            colorless
_exptl_crystal_description       block
_cell_formula_units_Z            8
loop_
_atom_site_label
_atom_site_type_symbol
_atom_site_fract_x
_atom_site_fract_y
_atom_site_fract_z
N1 N 0.8596(3) 0.29509(17) 0.05035(11)
H1 H 0.7692 0.2789 0.0606
H2 H 0.8620 0.2970 0.0107
C1 C 0.9660(5) 0.2320(3) 0.06986(18)
H3 H 1.0643 0.2467 0.0564
C2 C 0.9236(5) 0.1539(2) 0.04174(18)
H4 H 0.8253 0.1403 0.0530
H5 H 0.9894 0.1130 0.0547
H6 H 0.9291 0.1587 -0.0004
C3 C 0.9663(4) 0.2275(3) 0.13755(17)
H7 H 1.0058 0.2758 0.1534
H8 H 1.0253 0.1833 0.1500
H9 H 0.8679 0.2204 0.1515
C4 C 0.8790(5) 0.3787(2) 0.07289(16)
H10 H 0.8696 0.3776 0.1159
C5 C 1.0311(5) 0.4091(3) 0.05782(17)
H11 H 1.1028 0.3800 0.0800
H12 H 1.0377 0.4646 0.0675
H13 H 1.0490 0.4020 0.0165
C6 C 0.7574(5) 0.4294(2) 0.04856(17)
H14 H 0.7641 0.4308 0.0064
H15 H 0.7658 0.4824 0.0639
H16 H 0.6647 0.4072 0.0599
O1 O 0.3506(3) 0.18449(16) 0.07135(10)
O2 O 0.5816(3) 0.22843(14) 0.06689(10)
O3 O 0.5839(3) 0.24482(16) 0.18809(9)
C7 C 0.4724(5) 0.2014(2) 0.09325(16)
C8 C 0.4895(4) 0.1858(2) 0.16127(14)
C9 C 0.5773(4) 0.1088(2) 0.16751(14)
H17 H 0.6656 0.1127 0.1447
H18 H 0.5198 0.0649 0.1535
H19 H 0.6016 0.1005 0.2082
C10 C 0.3442(4) 0.1790(2) 0.19360(14)
H20 H 0.3619 0.1667 0.2343
H21 H 0.2866 0.1374 0.1761
H22 H 0.2923 0.2284 0.1908
C11 C 0.5501(4) 0.3243(3) 0.18617(15)
C12 C 0.4371(4) 0.3587(3) 0.15448(16)
H23 H 0.3735 0.3269 0.1329
C13 C 0.4187(5) 0.4408(3) 0.15479(18)
H24 H 0.3428 0.4634 0.1332
C14 C 0.5106(6) 0.4887(3) 0.1865(2)
H25 H 0.4972 0.5435 0.1870
C15 C 0.6240(6) 0.4540(3) 0.21777(19)
H26 H 0.6877 0.4863 0.2390
C16 C 0.6445(4) 0.3733(3) 0.21827(15)
H27 H 0.7209 0.3513 0.2399
loop_
_geom_bond_atom_site_label_1
_geom_bond_atom_site_label_2
_geom_bond_site_symmetry_1
_geom_bond_site_symmetry_2
N1 H1 1_555 1_555
H2 N1 1_555 1_555
C1 N1 1_555 1_555
H3 C1 1_555 1_555
C2 C1 1_555 1_555
H4 C2 1_555 1_555
H5 C2 1_555 1_555
H6 C2 1_555 1_555
C3 C1 1_555 1_555
H7 C3 1_555 1_555
H8 C3 1_555 1_555
H9 C3 1_555 1_555
C4 N1 1_555 1_555
H10 C4 1_555 1_555
C5 C4 1_555 1_555
H11 C5 1_555 1_555
H12 C5 1_555 1_555
H13 C5 1_555 1_555
C6 C4 1_555 1_555
H14 C6 1_555 1_555
H15 C6 1_555 1_555
H16 C6 1_555 1_555
O1 C7 1_555 1_555
O2 C7 1_555 1_555
O3 C8 1_555 1_555
C7 C8 1_555 1_555
C8 C9 1_555 1_555
C9 H17 1_555 1_555
H18 C9 1_555 1_555
H19 C9 1_555 1_555
C10 C8 1_555 1_555
H20 C10 1_555 1_555
H21 C10 1_555 1_555
H22 C10 1_555 1_555
C11 O3 1_555 1_555
C12 C11 1_555 1_555
H23 C12 1_555 1_555
C13 C12 1_555 1_555
H24 C13 1_555 1_555
C14 C13 1_555 1_555
H25 C14 1_555 1_555
C15 C14 1_555 1_555
H26 C15 1_555 1_555
C16 C11 1_555 1_555
H27 C16 1_555 1_555
C15 C16 1_555 1_555

#END
