
#######################################################################
#
#                 Cambridge Crystallographic Data Centre
#                                CCDC 
#
#######################################################################
#
# If this CIF has been generated from an entry in the Cambridge 
# Structural Database, then it will include bibliographic, chemical, 
# crystal, experimental, refinement or atomic coordinate data resulting 
# from the CCDC's data processing and validation procedures.
#
#######################################################################

data_JAVPUU
_chemical_formula_moiety         'C6 H16 N1 1+,C7 H6 N1 O2 1-'
_chemical_name_systematic        'di-isopropylammonium 4-aminobenzoate'
_symmetry_cell_setting           monoclinic
_symmetry_space_group_name_H-M   'C 2/c'
_symmetry_Int_Tables_number      15
_space_group_name_Hall           '-C 2yn'
loop_
_symmetry_equiv_pos_site_id
_symmetry_equiv_pos_as_xyz
1 x,y,z
2 -x,y,1/2-z
3 1/2+x,1/2+y,z
4 1/2-x,1/2+y,1/2-z
5 -x,-y,-z
6 x,-y,1/2+z
7 1/2-x,1/2-y,-z
8 1/2+x,1/2-y,1/2+z
_cell_length_a                   20.2934(19)
_cell_length_b                   8.8947(9)
_cell_length_c                   16.0010(15)
_cell_angle_alpha                90
_cell_angle_beta                 107.218(2)
_cell_angle_gamma                90
_cell_volume                     2758.8
_exptl_crystal_colour            colorless
_exptl_crystal_description       block
_cell_formula_units_Z            8
loop_
_atom_site_label
_atom_site_type_symbol
_atom_site_fract_x
_atom_site_fract_y
_atom_site_fract_z
N1 N 0.59380(11) 0.1010(3) 0.48187(18)
H1 H 0.6057 0.0109 0.5074
H2 H 0.5476 0.1085 0.4686
C1 C 0.62497(17) 0.2198(4) 0.5481(2)
H3 H 0.6750 0.2044 0.5684
C2 C 0.5970(2) 0.1993(5) 0.6248(3)
H4 H 0.5485 0.2210 0.6070
H5 H 0.6204 0.2663 0.6711
H6 H 0.6043 0.0973 0.6452
C3 C 0.6110(2) 0.3742(5) 0.5089(3)
H7 H 0.6345 0.3864 0.4653
H8 H 0.6273 0.4483 0.5539
H9 H 0.5623 0.3868 0.4823
C4 C 0.61222(16) 0.1020(5) 0.3980(2)
H10 H 0.5957 0.1959 0.3668
C5 C 0.5751(2) -0.0286(6) 0.3433(3)
H11 H 0.5894 -0.1209 0.3744
H12 H 0.5860 -0.0311 0.2889
H13 H 0.5262 -0.0164 0.3318
C6 C 0.68875(18) 0.0906(5) 0.4132(3)
H14 H 0.7112 0.1749 0.4474
H15 H 0.6984 0.0906 0.3580
H16 H 0.7056 -0.0009 0.4440
N2 N 0.69732(16) 0.3747(4) 0.8865(3)
H17 H 0.7404 0.3522 0.9057
H18 H 0.6686 0.3365 0.9108
O1 O 0.64795(12) 0.8336(3) 0.5655(2)
O2 O 0.54308(11) 0.8219(3) 0.5794(2)
C7 C 0.60489(17) 0.7829(4) 0.6018(3)
C8 C 0.62947(15) 0.6754(4) 0.6761(3)
C9 C 0.58368(16) 0.6116(4) 0.7152(3)
H19 H 0.5372 0.6367 0.6944
C10 C 0.60503(16) 0.5123(4) 0.7837(3)
H20 H 0.5729 0.4714 0.8083
C11 C 0.67429(18) 0.4721(4) 0.8169(3)
C12 C 0.72013(17) 0.5339(4) 0.7776(3)
H21 H 0.7666 0.5082 0.7979
C13 C 0.69824(16) 0.6324(4) 0.7089(3)
H22 H 0.7303 0.6716 0.6836
loop_
_geom_bond_atom_site_label_1
_geom_bond_atom_site_label_2
_geom_bond_site_symmetry_1
_geom_bond_site_symmetry_2
N1 H1 1_555 1_555
H2 N1 1_555 1_555
C1 N1 1_555 1_555
H3 C1 1_555 1_555
C2 C1 1_555 1_555
H4 C2 1_555 1_555
H5 C2 1_555 1_555
H6 C2 1_555 1_555
C3 C1 1_555 1_555
H7 C3 1_555 1_555
H8 C3 1_555 1_555
H9 C3 1_555 1_555
C4 N1 1_555 1_555
H10 C4 1_555 1_555
C5 C4 1_555 1_555
H11 C5 1_555 1_555
H12 C5 1_555 1_555
H13 C5 1_555 1_555
C6 C4 1_555 1_555
H14 C6 1_555 1_555
H15 C6 1_555 1_555
H16 C6 1_555 1_555
N2 H17 1_555 1_555
H18 N2 1_555 1_555
O1 C7 1_555 1_555
O2 C7 1_555 1_555
C7 C8 1_555 1_555
C8 C9 1_555 1_555
C9 H19 1_555 1_555
C10 C9 1_555 1_555
H20 C10 1_555 1_555
C11 N2 1_555 1_555
C12 C11 1_555 1_555
H21 C12 1_555 1_555
C13 C8 1_555 1_555
H22 C13 1_555 1_555
C10 C11 1_555 1_555
C12 C13 1_555 1_555

#END
