
#######################################################################
#
#                 Cambridge Crystallographic Data Centre
#                                CCDC 
#
#######################################################################
#
# If this CIF has been generated from an entry in the Cambridge 
# Structural Database, then it will include bibliographic, chemical, 
# crystal, experimental, refinement or atomic coordinate data resulting 
# from the CCDC's data processing and validation procedures.
#
#######################################################################

data_JAVPOO
_chemical_formula_moiety         'C6 H16 N1 1+,C7 H5 O3 1-'
_chemical_name_systematic        'N,N-diisopropylammonium 4-hydroxybenzoate'
_symmetry_cell_setting           monoclinic
_symmetry_space_group_name_H-M   'P 21/n'
_symmetry_Int_Tables_number      14
_space_group_name_Hall           '-P 2yn'
loop_
_symmetry_equiv_pos_site_id
_symmetry_equiv_pos_as_xyz
1 x,y,z
2 1/2-x,1/2+y,1/2-z
3 -x,-y,-z
4 1/2+x,1/2-y,1/2+z
_cell_length_a                   18.8492(16)
_cell_length_b                   8.3435(7)
_cell_length_c                   18.9365(17)
_cell_angle_alpha                90
_cell_angle_beta                 109.5790(10)
_cell_angle_gamma                90
_cell_volume                     2805.92
_exptl_crystal_colour            colorless
_exptl_crystal_description       block
_cell_formula_units_Z            8
loop_
_atom_site_label
_atom_site_type_symbol
_atom_site_fract_x
_atom_site_fract_y
_atom_site_fract_z
N1 N 0.48579(17) 0.1122(4) 0.60665(17)
H1 H 0.4672 0.1177 0.5563
H2 H 0.5131 0.0216 0.6185
C1 C 0.4212(3) 0.0965(5) 0.6345(3)
H3 H 0.3900 0.1930 0.6200
C2 C 0.4460(3) 0.0809(7) 0.7175(3)
H4 H 0.4786 -0.0102 0.7329
H5 H 0.4027 0.0670 0.7329
H6 H 0.4726 0.1760 0.7402
C3 C 0.3745(3) -0.0466(7) 0.5957(3)
H7 H 0.3589 -0.0321 0.5424
H8 H 0.3310 -0.0559 0.6109
H9 H 0.4043 -0.1423 0.6093
C4 C 0.5384(2) 0.2510(5) 0.6342(2)
H10 H 0.5646 0.2383 0.6881
C5 C 0.4963(3) 0.4080(5) 0.6208(3)
H11 H 0.4670 0.4175 0.5687
H12 H 0.5315 0.4950 0.6352
H13 H 0.4635 0.4113 0.6502
C6 C 0.5957(3) 0.2462(5) 0.5945(3)
H14 H 0.6199 0.1433 0.6021
H15 H 0.6326 0.3284 0.6143
H16 H 0.5709 0.2637 0.5418
N2 N 0.92861(17) 0.1141(3) 0.55283(17)
H17 H 0.9182 0.0309 0.5207
H18 H 0.9790 0.1201 0.5736
C7 C 0.9013(2) 0.2650(5) 0.5084(2)
H19 H 0.8469 0.2738 0.4977
C8 C 0.9386(3) 0.4085(5) 0.5535(3)
H20 H 0.9919 0.4034 0.5631
H21 H 0.9291 0.4094 0.6002
H22 H 0.9187 0.5044 0.5260
C9 C 0.9159(3) 0.2538(6) 0.4354(3)
H23 H 0.8967 0.3480 0.4061
H24 H 0.8911 0.1607 0.4085
H25 H 0.9691 0.2456 0.4449
C10 C 0.8971(2) 0.0780(5) 0.6134(2)
H26 H 0.9077 0.1684 0.6484
C11 C 0.9357(3) -0.0688(6) 0.6545(3)
H27 H 0.9232 -0.1594 0.6214
H28 H 0.9193 -0.0881 0.6966
H29 H 0.9892 -0.0526 0.6719
C12 C 0.8130(3) 0.0544(6) 0.5810(3)
H30 H 0.7891 0.1550 0.5628
H31 H 0.7947 0.0142 0.6193
H32 H 0.8015 -0.0210 0.5405
O1 O 0.42286(15) 0.1502(3) 0.34087(16)
O2 O 0.42440(19) 0.1670(4) 0.45650(17)
O3 O 0.13612(16) 0.5840(3) 0.30010(16)
H33 H 0.1242 0.6100 0.2559
C13 C 0.3977(2) 0.2031(5) 0.3905(2)
C14 C 0.3295(2) 0.3087(4) 0.3654(2)
C15 C 0.2928(2) 0.3486(5) 0.4138(2)
H34 H 0.3115 0.3121 0.4630
C16 C 0.2287(3) 0.4416(6) 0.3917(2)
H35 H 0.2047 0.4676 0.4258
C17 C 0.2005(2) 0.4958(5) 0.3195(2)
C18 C 0.2375(2) 0.4608(5) 0.2706(2)
H36 H 0.2195 0.5000 0.2219
C19 C 0.3015(2) 0.3676(5) 0.2933(2)
H37 H 0.3261 0.3440 0.2595
O4 O 0.08348(15) 0.1567(3) 0.63806(15)
O5 O 0.10418(17) 0.1629(3) 0.53019(16)
O6 O 0.37716(15) 0.5906(3) 0.71729(16)
H38 H 0.3856 0.6104 0.7618
C20 C 0.1205(2) 0.2011(4) 0.5973(2)
C21 C 0.1878(2) 0.3073(4) 0.6305(2)
C22 C 0.2293(2) 0.3582(5) 0.5875(2)
H39 H 0.2150 0.3273 0.5375
C23 C 0.2920(2) 0.4544(5) 0.6170(2)
H40 H 0.3193 0.4882 0.5870
C24 C 0.3138(2) 0.5001(4) 0.6909(2)
C25 C 0.2728(2) 0.4535(5) 0.7341(2)
H41 H 0.2872 0.4850 0.7841
C26 C 0.2091(2) 0.3588(5) 0.7036(2)
H42 H 0.1805 0.3297 0.7331
loop_
_geom_bond_atom_site_label_1
_geom_bond_atom_site_label_2
_geom_bond_site_symmetry_1
_geom_bond_site_symmetry_2
N1 H1 1_555 1_555
H2 N1 1_555 1_555
C1 N1 1_555 1_555
H3 C1 1_555 1_555
C2 C1 1_555 1_555
H4 C2 1_555 1_555
H5 C2 1_555 1_555
H6 C2 1_555 1_555
C3 C1 1_555 1_555
H7 C3 1_555 1_555
H8 C3 1_555 1_555
H9 C3 1_555 1_555
C4 N1 1_555 1_555
H10 C4 1_555 1_555
C5 C4 1_555 1_555
H11 C5 1_555 1_555
H12 C5 1_555 1_555
H13 C5 1_555 1_555
C6 C4 1_555 1_555
H14 C6 1_555 1_555
H15 C6 1_555 1_555
H16 C6 1_555 1_555
N2 H17 1_555 1_555
H18 N2 1_555 1_555
C7 N2 1_555 1_555
H19 C7 1_555 1_555
C8 C7 1_555 1_555
H20 C8 1_555 1_555
H21 C8 1_555 1_555
H22 C8 1_555 1_555
C9 C7 1_555 1_555
H23 C9 1_555 1_555
H24 C9 1_555 1_555
H25 C9 1_555 1_555
C10 N2 1_555 1_555
H26 C10 1_555 1_555
C11 C10 1_555 1_555
H27 C11 1_555 1_555
H28 C11 1_555 1_555
H29 C11 1_555 1_555
C12 C10 1_555 1_555
H30 C12 1_555 1_555
H31 C12 1_555 1_555
H32 C12 1_555 1_555
O1 C13 1_555 1_555
O2 C13 1_555 1_555
O3 H33 1_555 1_555
C13 C14 1_555 1_555
C14 C15 1_555 1_555
C15 H34 1_555 1_555
C16 C15 1_555 1_555
H35 C16 1_555 1_555
C17 O3 1_555 1_555
C18 C17 1_555 1_555
H36 C18 1_555 1_555
C19 C14 1_555 1_555
H37 C19 1_555 1_555
O4 C20 1_555 1_555
O5 C20 1_555 1_555
O6 H38 1_555 1_555
C20 C21 1_555 1_555
C21 C22 1_555 1_555
C22 H39 1_555 1_555
C23 C22 1_555 1_555
H40 C23 1_555 1_555
C24 O6 1_555 1_555
C25 C24 1_555 1_555
H41 C25 1_555 1_555
C26 C21 1_555 1_555
H42 C26 1_555 1_555
C16 C17 1_555 1_555
C18 C19 1_555 1_555
C23 C24 1_555 1_555
C25 C26 1_555 1_555

#END
