
#######################################################################
#
#                 Cambridge Crystallographic Data Centre
#                                CCDC 
#
#######################################################################
#
# If this CIF has been generated from an entry in the Cambridge 
# Structural Database, then it will include bibliographic, chemical, 
# crystal, experimental, refinement or atomic coordinate data resulting 
# from the CCDC's data processing and validation procedures.
#
#######################################################################

data_JAVPAA
_chemical_formula_moiety         'C6 H16 N1 1+,C10 H8 N1 O2 1-'
_chemical_name_systematic        'N,N-diisopropylammonium 1H-indol-3-ylacetate'
_symmetry_cell_setting           triclinic
_symmetry_space_group_name_H-M   'P -1'
_symmetry_Int_Tables_number      2
_space_group_name_Hall           '-P 1'
loop_
_symmetry_equiv_pos_site_id
_symmetry_equiv_pos_as_xyz
1 x,y,z
2 -x,-y,-z
_cell_length_a                   8.0450(8)
_cell_length_b                   11.7860(9)
_cell_length_c                   18.3155(18)
_cell_angle_alpha                89.793(2)
_cell_angle_beta                 78.2700(10)
_cell_angle_gamma                78.8300(10)
_cell_volume                     1667.01
_exptl_crystal_colour            colorless
_exptl_crystal_description       block
_cell_formula_units_Z            4
loop_
_atom_site_label
_atom_site_type_symbol
_atom_site_fract_x
_atom_site_fract_y
_atom_site_fract_z
N1 N 0.5089(4) 0.1857(3) 0.03841(17)
H1 H 0.4962 0.1196 0.0617
H2 H 0.5159 0.1717 -0.0105
C1 C 0.6769(5) 0.2124(4) 0.0475(2)
H3 H 0.6986 0.2796 0.0180
C2 C 0.8152(6) 0.1091(4) 0.0165(3)
H4 H 0.7991 0.0439 0.0469
H5 H 0.9271 0.1263 0.0167
H6 H 0.8077 0.0913 -0.0336
C3 C 0.6722(6) 0.2406(5) 0.1287(3)
H7 H 0.5974 0.3143 0.1433
H8 H 0.7869 0.2434 0.1350
H9 H 0.6292 0.1818 0.1591
C4 C 0.3478(5) 0.2747(4) 0.0664(2)
H10 H 0.3339 0.2855 0.1205
C5 C 0.1968(6) 0.2269(5) 0.0515(3)
H11 H 0.2095 0.2143 -0.0013
H12 H 0.0912 0.2811 0.0704
H13 H 0.1935 0.1549 0.0759
C6 C 0.3615(6) 0.3880(4) 0.0315(3)
H14 H 0.4510 0.4185 0.0475
H15 H 0.2531 0.4414 0.0463
H16 H 0.3890 0.3772 -0.0219
N2 N 0.1308(5) 0.3420(3) 0.5628(2)
H17 H 0.0352 0.3982 0.5708
H18 H 0.1825 0.3436 0.5144
C7 C 0.2503(8) 0.3727(6) 0.6087(3)
H19 H 0.1942 0.3727 0.6615
C8 C 0.4186(9) 0.2857(8) 0.5958(4)
H20 H 0.3950 0.2094 0.6040
H21 H 0.4876 0.3028 0.6299
H22 H 0.4804 0.2896 0.5455
C9 C 0.2753(9) 0.4942(7) 0.5902(4)
H23 H 0.3351 0.4950 0.5393
H24 H 0.3423 0.5193 0.6226
H25 H 0.1645 0.5453 0.5971
C10 C 0.0738(8) 0.2289(5) 0.5743(3)
H26 H 0.1750 0.1655 0.5672
C11 C -0.0372(11) 0.2242(6) 0.6490(4)
H27 H 0.0278 0.2312 0.6867
H28 H -0.0753 0.1517 0.6532
H29 H -0.1360 0.2865 0.6555
C12 C -0.0332(12) 0.2177(7) 0.5153(5)
H30 H -0.1165 0.2880 0.5152
H31 H -0.0923 0.1544 0.5266
H32 H 0.0422 0.2035 0.4670
N3 N 0.3123(5) 0.6395(3) 0.18062(19)
H33 H 0.3453 0.6986 0.1590
O1 O 0.1663(5) 0.4886(4) 0.40330(19)
O2 O 0.3198(4) 0.3212(3) 0.42152(16)
C13 C 0.2733(6) 0.4022(4) 0.3808(2)
C14 C 0.3665(6) 0.3874(4) 0.2991(2)
H34 H 0.4898 0.3790 0.2970
H35 H 0.3480 0.3160 0.2789
C15 C 0.3993(6) 0.5672(4) 0.2245(2)
H36 H 0.5045 0.5751 0.2354
C16 C 0.3134(5) 0.4826(4) 0.2503(2)
C17 C 0.1610(5) 0.5034(3) 0.2192(2)
C18 C 0.1642(5) 0.6023(4) 0.1769(2)
C19 C 0.0344(7) 0.6451(4) 0.1389(3)
H37 H 0.0383 0.7107 0.1107
C20 C -0.0988(7) 0.5883(6) 0.1443(3)
H38 H -0.1881 0.6160 0.1197
C21 C -0.1046(7) 0.4905(6) 0.1854(3)
H39 H -0.1977 0.4537 0.1877
C22 C 0.0230(6) 0.4462(4) 0.2228(3)
H40 H 0.0180 0.3797 0.2500
N4 N 0.4770(6) 0.8840(3) 0.6503(2)
H41 H 0.5223 0.8324 0.6151
O3 O 0.5107(5) 1.0042(3) 0.8775(2)
O4 O 0.5421(4) 1.1819(3) 0.88877(16)
C23 C 0.5154(5) 1.1001(4) 0.8529(2)
C24 C 0.4936(7) 1.1243(4) 0.7737(2)
H42 H 0.4026 1.1921 0.7754
H43 H 0.6000 1.1437 0.7460
C25 C 0.5610(7) 0.9592(4) 0.6770(3)
H44 H 0.6775 0.9613 0.6602
C26 C 0.4519(6) 1.0307(4) 0.7315(2)
C27 C 0.2894(6) 0.9956(4) 0.7396(2)
C28 C 0.3089(7) 0.9040(4) 0.6885(3)
C29 C 0.1760(9) 0.8469(5) 0.6830(3)
H45 H 0.1910 0.7850 0.6493
C30 C 0.0189(9) 0.8888(6) 0.7315(4)
H46 H -0.0750 0.8547 0.7291
C31 C -0.0037(8) 0.9778(6) 0.7823(4)
H47 H -0.1108 1.0017 0.8142
C32 C 0.1297(7) 1.0321(5) 0.7868(3)
H48 H 0.1133 1.0931 0.8213
loop_
_geom_bond_atom_site_label_1
_geom_bond_atom_site_label_2
_geom_bond_site_symmetry_1
_geom_bond_site_symmetry_2
N1 H1 1_555 1_555
H2 N1 1_555 1_555
C1 N1 1_555 1_555
H3 C1 1_555 1_555
C2 C1 1_555 1_555
H4 C2 1_555 1_555
H5 C2 1_555 1_555
H6 C2 1_555 1_555
C3 C1 1_555 1_555
H7 C3 1_555 1_555
H8 C3 1_555 1_555
H9 C3 1_555 1_555
C4 N1 1_555 1_555
H10 C4 1_555 1_555
C5 C4 1_555 1_555
H11 C5 1_555 1_555
H12 C5 1_555 1_555
H13 C5 1_555 1_555
C6 C4 1_555 1_555
H14 C6 1_555 1_555
H15 C6 1_555 1_555
H16 C6 1_555 1_555
N2 H17 1_555 1_555
H18 N2 1_555 1_555
C7 N2 1_555 1_555
H19 C7 1_555 1_555
C8 C7 1_555 1_555
H20 C8 1_555 1_555
H21 C8 1_555 1_555
H22 C8 1_555 1_555
C9 C7 1_555 1_555
H23 C9 1_555 1_555
H24 C9 1_555 1_555
H25 C9 1_555 1_555
C10 N2 1_555 1_555
H26 C10 1_555 1_555
C11 C10 1_555 1_555
H27 C11 1_555 1_555
H28 C11 1_555 1_555
H29 C11 1_555 1_555
C12 C10 1_555 1_555
H30 C12 1_555 1_555
H31 C12 1_555 1_555
H32 C12 1_555 1_555
N3 H33 1_555 1_555
O1 C13 1_555 1_555
O2 C13 1_555 1_555
C13 C14 1_555 1_555
C14 H34 1_555 1_555
H35 C14 1_555 1_555
C15 N3 1_555 1_555
H36 C15 1_555 1_555
C16 C14 1_555 1_555
C17 C16 1_555 1_555
C18 N3 1_555 1_555
C19 C18 1_555 1_555
H37 C19 1_555 1_555
C20 C19 1_555 1_555
H38 C20 1_555 1_555
C21 C20 1_555 1_555
H39 C21 1_555 1_555
C22 C17 1_555 1_555
H40 C22 1_555 1_555
N4 H41 1_555 1_555
O3 C23 1_555 1_555
O4 C23 1_555 1_555
C23 C24 1_555 1_555
C24 H42 1_555 1_555
H43 C24 1_555 1_555
C25 N4 1_555 1_555
H44 C25 1_555 1_555
C26 C24 1_555 1_555
C27 C26 1_555 1_555
C28 N4 1_555 1_555
C29 C28 1_555 1_555
H45 C29 1_555 1_555
C30 C29 1_555 1_555
H46 C30 1_555 1_555
C31 C30 1_555 1_555
H47 C31 1_555 1_555
C32 C27 1_555 1_555
H48 C32 1_555 1_555
C15 C16 1_555 1_555
C17 C18 1_555 1_555
C21 C22 1_555 1_555
C25 C26 1_555 1_555
C27 C28 1_555 1_555
C31 C32 1_555 1_555

#END
