
#######################################################################
#
#                 Cambridge Crystallographic Data Centre
#                                CCDC 
#
#######################################################################
#
# If this CIF has been generated from an entry in the Cambridge 
# Structural Database, then it will include bibliographic, chemical, 
# crystal, experimental, refinement or atomic coordinate data resulting 
# from the CCDC's data processing and validation procedures.
#
#######################################################################

data_JAVWAF
_chemical_formula_moiety         'C30 H22 Cl3 N5 O9'
_chemical_name_systematic        
endo-4-Amino-6-imino-5-nitro-1-N-(2,3,5-tri-O-p-chlorobenzoyl-\b-D-ribofuranosyl)pyrimidine
_symmetry_cell_setting           monoclinic
_symmetry_space_group_name_H-M   'P 21'
_symmetry_Int_Tables_number      4
_space_group_name_Hall           'P 2yb'
loop_
_symmetry_equiv_pos_site_id
_symmetry_equiv_pos_as_xyz
1 x,y,z
2 -x,1/2+y,-z
_cell_length_a                   14.6041(11)
_cell_length_b                   6.8064(5)
_cell_length_c                   16.1106(12)
_cell_angle_alpha                90
_cell_angle_beta                 108.0770(10)
_cell_angle_gamma                90
_cell_volume                     1522.37
_exptl_crystal_colour            yellow
_exptl_crystal_description       plate
_cell_formula_units_Z            2
loop_
_atom_site_label
_atom_site_type_symbol
_atom_site_fract_x
_atom_site_fract_y
_atom_site_fract_z
Cl1 Cl -0.35225(7) -0.24363(18) 0.25940(6)
Cl2 Cl 0.53170(6) 0.18393(17) 0.05672(6)
Cl3 Cl 0.60915(5) 1.30915(12) 0.39900(5)
O1 O -0.03210(12) 0.7763(3) 0.18934(11)
O2 O -0.10129(14) 0.4145(3) 0.11566(12)
O3 O -0.13436(16) 0.2077(4) 0.00120(13)
O4 O 0.17801(12) 0.4965(3) 0.19943(12)
O5 O 0.11892(14) 0.1934(3) 0.15784(13)
O6 O 0.20276(11) 0.8067(3) 0.30440(11)
O7 O 0.29415(13) 0.5774(3) 0.39316(12)
O8 O -0.20489(16) 0.7208(3) 0.51274(15)
O9 O -0.1593(2) 0.4867(3) 0.4452(2)
N1 N -0.01732(15) 0.8825(3) 0.33122(14)
N2 N -0.06907(15) 1.1348(3) 0.40675(14)
N3 N -0.17305(18) 1.0814(4) 0.48288(17)
N4 N -0.16129(17) 0.6646(4) 0.46201(17)
N5 N -0.04283(16) 0.5519(3) 0.34514(16)
C1 C 0.02146(19) 0.6603(5) 0.14650(17)
C2 C 0.09263(18) 0.5487(4) 0.22091(18)
C3 C 0.11647(17) 0.6941(4) 0.29633(17)
C4 C 0.03388(18) 0.8430(4) 0.26854(17)
C5 C -0.0464(2) 0.5399(5) 0.0753(2)
C6 C -0.14168(19) 0.2525(4) 0.07165(19)
C7 C -0.19628(18) 0.1379(5) 0.11852(17)
C8 C -0.2144(2) 0.2065(6) 0.19325(19)
C9 C -0.2636(2) 0.0912(6) 0.2358(2)
C10 C -0.2924(2) -0.0937(6) 0.2048(2)
C11 C -0.2761(2) -0.1659(6) 0.1306(2)
C12 C -0.2284(2) -0.0482(5) 0.0873(2)
C13 C 0.18129(18) 0.3154(5) 0.16654(16)
C14 C 0.27101(19) 0.2865(4) 0.14269(17)
C15 C 0.2872(2) 0.1025(5) 0.1123(2)
C16 C 0.3679(2) 0.0700(6) 0.0863(2)
C17 C 0.4319(2) 0.2218(6) 0.09270(19)
C18 C 0.4185(2) 0.4042(6) 0.1240(2)
C19 C 0.3370(2) 0.4362(5) 0.1493(2)
C20 C 0.28687(18) 0.7366(4) 0.35849(17)
C21 C 0.36643(18) 0.8798(4) 0.36848(17)
C22 C 0.46128(18) 0.8150(5) 0.39959(19)
C23 C 0.5367(2) 0.9460(5) 0.4095(2)
C24 C 0.51615(19) 1.1404(4) 0.38909(17)
C25 C 0.4225(2) 1.2088(5) 0.3602(2)
C26 C 0.3478(2) 1.0781(4) 0.35022(19)
C27 C -0.02359(19) 1.0692(4) 0.35497(18)
C28 C -0.11966(18) 0.9998(4) 0.43904(17)
C29 C -0.11369(17) 0.7980(4) 0.42321(17)
C30 C -0.05931(18) 0.7251(4) 0.36675(17)
H1 H 0.0563(17) 0.743(4) 0.1197(15)
H2 H 0.067(2) 0.429(4) 0.2369(18)
H3 H 0.1211(16) 0.628(4) 0.3493(16)
H4 H 0.0593(17) 0.962(4) 0.2559(16)
H5 H -0.016(2) 0.458(4) 0.0424(18)
H6 H -0.092(2) 0.627(5) 0.0290(19)
H7 H -0.1946(18) 0.338(4) 0.2110(17)
H8 H -0.2735(18) 0.140(4) 0.2845(18)
H9 H -0.297(2) -0.302(5) 0.1086(19)
H10 H -0.220(2) -0.096(5) 0.033(2)
H11 H 0.2442(19) 0.009(4) 0.1096(17)
H12 H 0.387(3) -0.063(6) 0.064(2)
H13 H 0.466(2) 0.509(5) 0.130(2)
H14 H 0.3262(18) 0.573(4) 0.1730(17)
H15 H 0.477(2) 0.673(5) 0.4141(18)
H16 H 0.600(2) 0.900(5) 0.4324(19)
H17 H 0.409(2) 1.343(5) 0.348(2)
H18 H 0.2873(18) 1.121(4) 0.3321(15)
H19 H 0.0108(16) 1.165(4) 0.3269(14)
H20 H -0.175(2) 1.200(5) 0.4824(19)
H21 H -0.205(3) 0.998(6) 0.507(2)
H22 H -0.073(2) 0.474(5) 0.368(2)
loop_
_geom_bond_atom_site_label_1
_geom_bond_atom_site_label_2
_geom_bond_site_symmetry_1
_geom_bond_site_symmetry_2
Cl1 C10 1_555 1_555
Cl2 C17 1_555 1_555
Cl3 C24 1_555 1_555
O1 C1 1_555 1_555
O2 C5 1_555 1_555
O3 C6 1_555 1_555
O4 C2 1_555 1_555
O5 C13 1_555 1_555
O6 C3 1_555 1_555
O7 C20 1_555 1_555
O8 N4 1_555 1_555
O9 N4 1_555 1_555
N1 C4 1_555 1_555
N2 C27 1_555 1_555
N3 C28 1_555 1_555
N4 C29 1_555 1_555
N5 C30 1_555 1_555
C1 C2 1_555 1_555
C2 C3 1_555 1_555
C3 C4 1_555 1_555
C4 O1 1_555 1_555
C5 C1 1_555 1_555
C6 O2 1_555 1_555
C7 C6 1_555 1_555
C8 C7 1_555 1_555
C9 C8 1_555 1_555
C10 C9 1_555 1_555
C11 C10 1_555 1_555
C12 C7 1_555 1_555
C13 O4 1_555 1_555
C14 C13 1_555 1_555
C15 C14 1_555 1_555
C16 C15 1_555 1_555
C17 C16 1_555 1_555
C18 C17 1_555 1_555
C19 C14 1_555 1_555
C20 O6 1_555 1_555
C21 C20 1_555 1_555
C22 C21 1_555 1_555
C23 C22 1_555 1_555
C24 C23 1_555 1_555
C25 C24 1_555 1_555
C26 C21 1_555 1_555
C27 N1 1_555 1_555
C28 N2 1_555 1_555
C29 C28 1_555 1_555
C30 N1 1_555 1_555
H1 C1 1_555 1_555
H2 C2 1_555 1_555
H3 C3 1_555 1_555
H4 C4 1_555 1_555
H5 C5 1_555 1_555
H6 C5 1_555 1_555
H7 C8 1_555 1_555
H8 C9 1_555 1_555
H9 C11 1_555 1_555
H10 C12 1_555 1_555
H11 C15 1_555 1_555
H12 C16 1_555 1_555
H13 C18 1_555 1_555
H14 C19 1_555 1_555
H15 C22 1_555 1_555
H16 C23 1_555 1_555
H17 C25 1_555 1_555
H18 C26 1_555 1_555
H19 C27 1_555 1_555
H20 N3 1_555 1_555
H21 N3 1_555 1_555
H22 N5 1_555 1_555
C11 C12 1_555 1_555
C18 C19 1_555 1_555
C25 C26 1_555 1_555
C29 C30 1_555 1_555

#END
