
#######################################################################
#
#                 Cambridge Crystallographic Data Centre
#                                CCDC 
#
#######################################################################
#
# If this CIF has been generated from an entry in the Cambridge 
# Structural Database, then it will include bibliographic, chemical, 
# crystal, experimental, refinement or atomic coordinate data resulting 
# from the CCDC's data processing and validation procedures.
#
#######################################################################

data_JAVWOV
_chemical_formula_moiety         'C20 H16 N2 O1'
_chemical_name_systematic        
1-methyl-6'H-spiro[indole-3,5'-pyrrolo[2,1-a]isoquinolin]-2(1H)-one
_symmetry_cell_setting           orthorhombic
_symmetry_space_group_name_H-M   'P b c a'
_symmetry_Int_Tables_number      61
_space_group_name_Hall           '-P 2ac 2ab'
loop_
_symmetry_equiv_pos_site_id
_symmetry_equiv_pos_as_xyz
1 x,y,z
2 1/2-x,-y,1/2+z
3 -x,1/2+y,1/2-z
4 1/2+x,1/2-y,-z
5 -x,-y,-z
6 1/2+x,y,1/2-z
7 x,1/2-y,1/2+z
8 1/2-x,1/2+y,z
_cell_length_a                   24.5581(3)
_cell_length_b                   8.95560(10)
_cell_length_c                   28.2429(5)
_cell_angle_alpha                90
_cell_angle_beta                 90
_cell_angle_gamma                90
_cell_volume                     6211.53
_exptl_crystal_description       block
_cell_formula_units_Z            16
loop_
_atom_site_label
_atom_site_type_symbol
_atom_site_fract_x
_atom_site_fract_y
_atom_site_fract_z
O1 O 0.05466(5) 0.63955(12) 0.80125(5)
N1 N 0.15320(5) 0.46329(14) 0.82791(5)
N2 N 0.01638(5) 0.40653(14) 0.80507(5)
C1 C 0.09172(6) 0.25603(16) 0.80415(5)
C2 C 0.11141(6) 0.41249(15) 0.79515(5)
C3 C 0.03536(6) 0.25866(16) 0.80827(5)
C4 C 0.05824(6) 0.50483(16) 0.80096(5)
C5 C 0.13386(7) 0.43119(18) 0.74480(6)
H1 H 0.1622 0.3576 0.7395
H2 H 0.1049 0.4121 0.7223
C6 C 0.15679(6) 0.58424(19) 0.73587(7)
C7 C 0.11925(7) 0.12251(17) 0.80684(6)
H3 H 0.1570 0.1197 0.8039
C8 C 0.18675(6) 0.58350(19) 0.81872(7)
C9 C 0.00568(7) 0.13021(18) 0.81530(6)
H4 H -0.0320 0.1329 0.8181
C10 C 0.18414(7) 0.65634(19) 0.77267(8)
C11 C 0.16035(7) 0.4183(2) 0.87378(6)
H5 H 0.1418 0.3413 0.8888
C12 C 0.08975(8) -0.00827(18) 0.81406(6)
H6 H 0.1078 -0.0993 0.8162
C13 C 0.03410(8) -0.00330(19) 0.81803(6)
H7 H 0.0150 -0.0917 0.8227
C14 C -0.04027(6) 0.4502(2) 0.80921(7)
H8 H -0.0611 0.4024 0.7848
H9 H -0.0433 0.5566 0.8060
H10 H -0.0540 0.4205 0.8396
C15 C 0.21639(7) 0.6091(2) 0.85913(9)
H11 H 0.2430 0.6820 0.8630
C16 C 0.19959(8) 0.5065(3) 0.89352(8)
H12 H 0.2128 0.4996 0.9243
C17 C 0.15232(7) 0.6533(2) 0.69201(8)
H13 H 0.1346 0.6051 0.6672
C18 C 0.20652(8) 0.7979(2) 0.76493(10)
H14 H 0.2251 0.8462 0.7892
C19 C 0.17424(10) 0.7940(3) 0.68534(12)
H15 H 0.1707 0.8406 0.6561
C20 C 0.20113(11) 0.8659(3) 0.72142(14)
H16 H 0.2157 0.9604 0.7165
N3 N 0.35112(5) 0.73892(13) 0.57943(4)
N4 N 0.48896(5) 0.70161(13) 0.56529(4)
O2 O 0.44901(5) 0.93253(12) 0.56373(6)
C21 C 0.39545(5) 0.70600(15) 0.54680(5)
C22 C 0.34830(6) 0.89327(16) 0.49255(6)
C23 C 0.31572(5) 0.85715(15) 0.57371(5)
C24 C 0.47153(6) 0.55300(15) 0.56140(5)
C25 C 0.31708(5) 0.94497(16) 0.53051(6)
C26 C 0.41625(6) 0.54854(15) 0.55123(5)
C27 C 0.37598(6) 0.74334(17) 0.49661(5)
H17 H 0.4070 0.7416 0.4754
H18 H 0.3508 0.6664 0.4863
C28 C 0.44673(6) 0.79880(16) 0.55971(6)
C29 C 0.34331(6) 0.67648(18) 0.62320(5)
H19 H 0.3627 0.5967 0.6358
C30 C 0.50164(6) 0.42446(17) 0.56736(6)
H20 H 0.5387 0.4284 0.5741
C31 C 0.39006(7) 0.41363(16) 0.54697(6)
H21 H 0.3530 0.4098 0.5401
C32 C 0.28472(6) 0.86492(19) 0.61399(6)
H22 H 0.2570 0.9332 0.6198
C33 C 0.28887(6) 1.07940(17) 0.52619(7)
H23 H 0.2679 1.1142 0.5513
C34 C 0.54455(6) 0.7473(2) 0.57494(7)
H24 H 0.5551 0.7125 0.6057
H25 H 0.5469 0.8543 0.5740
H26 H 0.5684 0.7054 0.5515
C35 C 0.35132(7) 0.97724(19) 0.45146(6)
H27 H 0.3723 0.9435 0.4262
C36 C 0.41987(7) 0.28261(17) 0.55304(6)
H28 H 0.4026 0.1905 0.5504
C37 C 0.30216(7) 0.7515(2) 0.64495(6)
H29 H 0.2881 0.7315 0.6749
C38 C 0.47464(7) 0.28894(17) 0.56300(6)
H30 H 0.4940 0.2005 0.5669
C39 C 0.29206(7) 1.1610(2) 0.48480(8)
H31 H 0.2729 1.2502 0.4820
C40 C 0.32338(7) 1.1109(2) 0.44769(7)
H32 H 0.3258 1.1670 0.4200
loop_
_geom_bond_atom_site_label_1
_geom_bond_atom_site_label_2
_geom_bond_site_symmetry_1
_geom_bond_site_symmetry_2
O1 C4 1_555 1_555
N1 C2 1_555 1_555
N2 C3 1_555 1_555
C1 C2 1_555 1_555
C2 C4 1_555 1_555
C3 C1 1_555 1_555
C4 N2 1_555 1_555
C5 C2 1_555 1_555
H1 C5 1_555 1_555
H2 C5 1_555 1_555
C6 C5 1_555 1_555
C7 C1 1_555 1_555
H3 C7 1_555 1_555
C8 N1 1_555 1_555
C9 C3 1_555 1_555
H4 C9 1_555 1_555
C10 C6 1_555 1_555
C11 N1 1_555 1_555
H5 C11 1_555 1_555
C12 C7 1_555 1_555
H6 C12 1_555 1_555
C13 C9 1_555 1_555
H7 C13 1_555 1_555
C14 N2 1_555 1_555
H8 C14 1_555 1_555
H9 C14 1_555 1_555
H10 C14 1_555 1_555
C15 C8 1_555 1_555
H11 C15 1_555 1_555
C16 C11 1_555 1_555
H12 C16 1_555 1_555
C17 C6 1_555 1_555
H13 C17 1_555 1_555
C18 C10 1_555 1_555
H14 C18 1_555 1_555
C19 C17 1_555 1_555
H15 C19 1_555 1_555
C20 C18 1_555 1_555
H16 C20 1_555 1_555
N3 C21 1_555 1_555
N4 C24 1_555 1_555
O2 C28 1_555 1_555
C21 C26 1_555 1_555
C22 C25 1_555 1_555
C23 N3 1_555 1_555
C24 C26 1_555 1_555
C25 C23 1_555 1_555
C26 C31 1_555 1_555
C27 C21 1_555 1_555
H17 C27 1_555 1_555
H18 C27 1_555 1_555
C28 N4 1_555 1_555
C29 N3 1_555 1_555
H19 C29 1_555 1_555
C30 C24 1_555 1_555
H20 C30 1_555 1_555
C31 H21 1_555 1_555
C32 C23 1_555 1_555
H22 C32 1_555 1_555
C33 C25 1_555 1_555
H23 C33 1_555 1_555
C34 N4 1_555 1_555
H24 C34 1_555 1_555
H25 C34 1_555 1_555
H26 C34 1_555 1_555
C35 C22 1_555 1_555
H27 C35 1_555 1_555
C36 C31 1_555 1_555
H28 C36 1_555 1_555
C37 C29 1_555 1_555
H29 C37 1_555 1_555
C38 C30 1_555 1_555
H30 C38 1_555 1_555
C39 C33 1_555 1_555
H31 C39 1_555 1_555
C40 C35 1_555 1_555
H32 C40 1_555 1_555
C8 C10 1_555 1_555
C12 C13 1_555 1_555
C15 C16 1_555 1_555
C19 C20 1_555 1_555
C21 C28 1_555 1_555
C22 C27 1_555 1_555
C32 C37 1_555 1_555
C36 C38 1_555 1_555
C39 C40 1_555 1_555

#END
