
#######################################################################
#
#                 Cambridge Crystallographic Data Centre
#                                CCDC 
#
#######################################################################
#
# If this CIF has been generated from an entry in the Cambridge 
# Structural Database, then it will include bibliographic, chemical, 
# crystal, experimental, refinement or atomic coordinate data resulting 
# from the CCDC's data processing and validation procedures.
#
#######################################################################

data_JAWNEB01
_chemical_formula_moiety         'C12 H16 N4 O2'
_chemical_name_systematic        'bis(3,5-dimethylpyrazol-1-yl)acetic acid'
_symmetry_cell_setting           monoclinic
_symmetry_space_group_name_H-M   'P 21/c'
_symmetry_Int_Tables_number      14
_space_group_name_Hall           '-P 2ybc'
loop_
_symmetry_equiv_pos_site_id
_symmetry_equiv_pos_as_xyz
1 x,y,z
2 -x,1/2+y,1/2-z
3 -x,-y,-z
4 x,1/2-y,1/2+z
_cell_length_a                   8.4317(8)
_cell_length_b                   18.8569(16)
_cell_length_c                   8.6083(7)
_cell_angle_alpha                90
_cell_angle_beta                 114.576(7)
_cell_angle_gamma                90
_cell_volume                     1244.69
_exptl_crystal_colour            colorless
_exptl_crystal_description       block
_cell_formula_units_Z            4
_exptl_crystal_recrystallization_method ether/THF
loop_
_atom_site_label
_atom_site_type_symbol
_atom_site_fract_x
_atom_site_fract_y
_atom_site_fract_z
C1 C 0.01420(18) 0.19070(8) 0.40486(18)
H1 H 0.0399 0.2115 0.3135
N1 N 0.17999(15) 0.17643(7) 0.54704(15)
N2 N 0.19887(16) 0.18728(7) 0.71087(15)
C2 C 0.36285(19) 0.16958(8) 0.80788(19)
C3 C 0.4348(2) 0.17514(10) 0.9979(2)
H2 H 0.3425 0.1868 1.0313
H3 H 0.5223 0.2115 1.0366
H4 H 0.4858 0.1306 1.0481
C4 C 0.4481(2) 0.14729(9) 0.7074(2)
H5 H 0.5633 0.1323 0.7462
C5 C 0.3290(2) 0.15185(8) 0.5408(2)
C6 C 0.3447(2) 0.13593(11) 0.3783(2)
H6 H 0.2877 0.0918 0.3328
H7 H 0.4657 0.1326 0.4000
H8 H 0.2908 0.1732 0.2975
N3 N -0.08641(16) 0.12648(7) 0.33639(15)
N4 N -0.10877(16) 0.10578(7) 0.17637(15)
C7 C -0.1927(2) 0.04440(8) 0.1485(2)
C8 C -0.2378(3) 0.00510(10) -0.0153(2)
H9 H -0.1900 0.0296 -0.0838
H10 H -0.3623 0.0023 -0.0763
H11 H -0.1900 -0.0419 0.0089
C9 C -0.2243(2) 0.02556(9) 0.2895(2)
H12 H -0.2817 -0.0150 0.3004
C10 C -0.15508(19) 0.07794(8) 0.4088(2)
C11 C -0.1488(3) 0.08317(11) 0.5835(2)
H13 H -0.0345 0.0981 0.6619
H14 H -0.1743 0.0377 0.6178
H15 H -0.2335 0.1171 0.5838
C12 C -0.0880(2) 0.24644(8) 0.45592(19)
O1 O -0.22573(17) 0.23504(8) 0.4587(2)
O2 O -0.00521(16) 0.30749(6) 0.49036(15)
H16 H -0.052(3) 0.3382(14) 0.551(3)
loop_
_geom_bond_atom_site_label_1
_geom_bond_atom_site_label_2
_geom_bond_site_symmetry_1
_geom_bond_site_symmetry_2
C1 H1 1_555 1_555
N1 C1 1_555 1_555
N2 N1 1_555 1_555
C2 N2 1_555 1_555
C3 C2 1_555 1_555
H2 C3 1_555 1_555
H3 C3 1_555 1_555
H4 C3 1_555 1_555
C4 C2 1_555 1_555
H5 C4 1_555 1_555
C5 N1 1_555 1_555
C6 C5 1_555 1_555
H6 C6 1_555 1_555
H7 C6 1_555 1_555
H8 C6 1_555 1_555
N3 C1 1_555 1_555
N4 N3 1_555 1_555
C7 N4 1_555 1_555
C8 C7 1_555 1_555
H9 C8 1_555 1_555
H10 C8 1_555 1_555
H11 C8 1_555 1_555
C9 C7 1_555 1_555
H12 C9 1_555 1_555
C10 N3 1_555 1_555
C11 C10 1_555 1_555
H13 C11 1_555 1_555
H14 C11 1_555 1_555
H15 C11 1_555 1_555
C12 C1 1_555 1_555
O1 C12 1_555 1_555
O2 C12 1_555 1_555
H16 O2 1_555 1_555
C4 C5 1_555 1_555
C9 C10 1_555 1_555

#END
