
#######################################################################
#
#                 Cambridge Crystallographic Data Centre
#                                CCDC 
#
#######################################################################
#
# If this CIF has been generated from an entry in the Cambridge 
# Structural Database, then it will include bibliographic, chemical, 
# crystal, experimental, refinement or atomic coordinate data resulting 
# from the CCDC's data processing and validation procedures.
#
#######################################################################

data_JAWXEK01
_chemical_formula_moiety         'C30 H48 N4 O8 S2'
_chemical_name_systematic        
N,N'-(1,4,10,13-Tetraoxa-7,16-diazacyclo-octadecane-7,16-diyldi-1,2-ethanediyl)bis(4-methylbenzenesulfonamide)
_symmetry_cell_setting           triclinic
_symmetry_space_group_name_H-M   'P -1'
_symmetry_Int_Tables_number      2
_space_group_name_Hall           '-P 1'
loop_
_symmetry_equiv_pos_site_id
_symmetry_equiv_pos_as_xyz
1 x,y,z
2 -x,-y,-z
_cell_length_a                   7.880(3)
_cell_length_b                   10.559(4)
_cell_length_c                   10.984(4)
_cell_angle_alpha                72.63(3)
_cell_angle_beta                 77.67(3)
_cell_angle_gamma                71.87(3)
_cell_volume                     821.575
_exptl_crystal_colour            colorless
_exptl_crystal_description       prisms
_cell_formula_units_Z            1
_exptl_crystal_recrystallization_method methanol
loop_
_atom_site_label
_atom_site_type_symbol
_atom_site_fract_x
_atom_site_fract_y
_atom_site_fract_z
O1 O 0.5677(2) 0.25467(15) 0.4439(2)
C1 C 0.7188(4) 0.1897(3) 0.3671(3)
C2 C 0.8760(4) 0.2393(2) 0.3626(3)
O2 O 0.8618(3) 0.3771(2) 0.2927(2)
C3 C 0.7724(3) 0.4735(2) 0.3640(3)
C4 C 0.8172(3) 0.6064(2) 0.2927(2)
N1 N 0.7024(2) 0.7211(2) 0.3428(2)
C5 C 0.7390(3) 0.7160(3) 0.4680(2)
C6 C 0.4179(3) 0.2032(2) 0.4595(3)
C7 C 0.7053(3) 0.8528(2) 0.2498(2)
C8 C 0.5515(3) 0.8991(3) 0.1725(2)
N2 N 0.3848(2) 0.9079(2) 0.2616(2)
S1 S 0.20441(7) 0.91884(6) 0.20896(6)
O3 O 0.1801(3) 1.0324(2) 0.1001(2)
O4 O 0.0675(2) 0.9167(2) 0.3165(2)
C9 C 0.2393(3) 0.7695(2) 0.1583(2)
C10 C 0.1758(3) 0.7759(3) 0.0490(2)
C11 C 0.1915(3) 0.6563(3) 0.0178(2)
C12 C 0.2718(3) 0.5299(3) 0.0923(2)
C13 C 0.3388(3) 0.5273(3) 0.1982(3)
C14 C 0.3228(3) 0.6443(2) 0.2326(2)
C15 C 0.2829(6) 0.4004(5) 0.0600(5)
H1 H 0.6813(41) 0.2121(32) 0.2785(32)
H2 H 0.7427(35) 0.0979(29) 0.4026(25)
H3 H 0.9734(42) 0.1906(30) 0.3204(27)
H4 H 0.8935(32) 0.2295(24) 0.4492(26)
H5 H 0.8188(40) 0.4333(31) 0.4494(31)
H6 H 0.6477(46) 0.4892(33) 0.3743(30)
H7 H 0.8037(38) 0.6269(29) 0.2005(29)
H8 H 0.9432(40) 0.5964(28) 0.2979(26)
H9 H 0.7623(34) 0.6273(28) 0.5170(25)
H10 H 0.8467(33) 0.7445(24) 0.4617(22)
H11 H 0.4477(34) 0.1038(27) 0.5109(24)
H12 H 0.3951(34) 0.2109(25) 0.3751(26)
H13 H 0.8159(34) 0.8547(24) 0.1924(23)
H14 H 0.7003(35) 0.9207(27) 0.2912(25)
H15 H 0.5639(39) 0.8358(31) 0.1177(28)
H16 H 0.5499(35) 0.9850(30) 0.1160(27)
H17 H 0.3960(36) 0.8452(28) 0.3313(27)
H18 H 0.1235(37) 0.8584(29) -0.0031(27)
H19 H 0.1502(39) 0.6652(30) -0.0530(30)
H20 H 0.3939(40) 0.4474(31) 0.2469(28)
H21 H 0.3701(32) 0.6404(25) 0.3055(24)
H22 H 0.3967(75) 0.3362(54) 0.0642(50)
H23 H 0.2567(86) 0.4266(65) -0.0164(65)
H24 H 0.1880(70) 0.3646(50) 0.1005(47)
C6A C 0.5821(3) 0.7968(2) 0.5405(3)
O1A O 0.4323(2) 0.74533(15) 0.5561(2)
C1A C 0.2812(4) 0.8103(3) 0.6329(3)
C2A C 0.1240(4) 0.7607(2) 0.6374(3)
O2A O 0.1382(3) 0.6229(2) 0.7073(2)
C3A C 0.2276(3) 0.5265(2) 0.6360(3)
C4A C 0.1828(3) 0.3936(2) 0.7073(2)
N1A N 0.2976(2) 0.2789(2) 0.6572(2)
C5A C 0.2610(3) 0.2840(3) 0.5320(2)
H9A H 0.2377(34) 0.3727(28) 0.4830(25)
H10A H 0.1533(33) 0.2555(24) 0.5383(22)
C7A C 0.2947(3) 0.1472(2) 0.7502(2)
C8A C 0.4485(3) 0.1009(3) 0.8275(2)
N2A N 0.6152(2) 0.0921(2) 0.7384(2)
S1A S 0.79559(7) 0.08116(6) 0.79104(6)
O3A O 0.8199(3) -0.0324(2) 0.8999(2)
O4A O 0.9325(2) 0.0833(2) 0.6835(2)
C9A C 0.7607(3) 0.2305(2) 0.8417(2)
C10A C 0.8242(3) 0.2241(3) 0.9510(2)
C11A C 0.8085(3) 0.3437(3) 0.9822(2)
C12A C 0.7282(3) 0.4701(3) 0.9077(2)
C13A C 0.6612(3) 0.4727(3) 0.8018(3)
C14A C 0.6772(3) 0.3557(2) 0.7674(2)
H21A H 0.6299(32) 0.3596(25) 0.6945(24)
H20A H 0.6061(40) 0.5526(31) 0.7531(28)
C15A C 0.7171(6) 0.5996(5) 0.9400(5)
H22A H 0.6033(75) 0.6638(54) 0.9358(50)
H23A H 0.7433(86) 0.5734(65) 1.0164(65)
H24A H 0.8120(70) 0.6354(50) 0.8995(47)
H19A H 0.8498(39) 0.3348(30) 1.0530(30)
H18A H 0.8765(37) 0.1416(29) 1.0031(27)
H17A H 0.6040(36) 0.1548(28) 0.6687(27)
H15A H 0.4361(39) 0.1642(31) 0.8823(28)
H16A H 0.4501(35) 0.0150(30) 0.8840(27)
H13A H 0.1841(34) 0.1453(24) 0.8076(23)
H14A H 0.2997(35) 0.0793(27) 0.7088(25)
H7A H 0.1963(38) 0.3731(29) 0.7995(29)
H8A H 0.0568(40) 0.4036(28) 0.7021(26)
H5A H 0.1812(40) 0.5667(31) 0.5506(31)
H6A H 0.3523(46) 0.5108(33) 0.6257(30)
H3A H 0.0266(42) 0.8094(30) 0.6796(27)
H4A H 0.1065(32) 0.7705(24) 0.5508(26)
H1A H 0.3187(41) 0.7879(32) 0.7215(32)
H2A H 0.2573(35) 0.9021(29) 0.5974(25)
H11A H 0.5523(34) 0.8962(27) 0.4891(24)
H12A H 0.6049(34) 0.7891(25) 0.6249(26)
loop_
_geom_bond_atom_site_label_1
_geom_bond_atom_site_label_2
_geom_bond_site_symmetry_1
_geom_bond_site_symmetry_2
O1 C1 1_555 1_555
C1 C2 1_555 1_555
C2 O2 1_555 1_555
O2 C3 1_555 1_555
C3 C4 1_555 1_555
C4 N1 1_555 1_555
N1 C5 1_555 1_555
C5 H9 1_555 1_555
C6 O1 1_555 1_555
C7 N1 1_555 1_555
C8 C7 1_555 1_555
N2 C8 1_555 1_555
S1 N2 1_555 1_555
O3 S1 1_555 1_555
O4 S1 1_555 1_555
C9 S1 1_555 1_555
C10 C9 1_555 1_555
C11 C10 1_555 1_555
C12 C11 1_555 1_555
C13 C12 1_555 1_555
C14 C9 1_555 1_555
C15 C12 1_555 1_555
H1 C1 1_555 1_555
H2 C1 1_555 1_555
H3 C2 1_555 1_555
H4 C2 1_555 1_555
H5 C3 1_555 1_555
H6 C3 1_555 1_555
H7 C4 1_555 1_555
H8 C4 1_555 1_555
H10 C5 1_555 1_555
H11 C6 1_555 1_555
H12 C6 1_555 1_555
H13 C7 1_555 1_555
H14 C7 1_555 1_555
H15 C8 1_555 1_555
H16 C8 1_555 1_555
H17 N2 1_555 1_555
H18 C10 1_555 1_555
H19 C11 1_555 1_555
H20 C13 1_555 1_555
H21 C14 1_555 1_555
H22 C15 1_555 1_555
H23 C15 1_555 1_555
H24 C15 1_555 1_555
C6A C5 1_555 1_555
O1A C6A 1_555 1_555
C1A O1A 1_555 1_555
C2A C1A 1_555 1_555
O2A C2A 1_555 1_555
C3A O2A 1_555 1_555
C4A C3A 1_555 1_555
N1A C4A 1_555 1_555
C5A C6 1_555 1_555
H9A C5A 1_555 1_555
H10A C5A 1_555 1_555
C7A N1A 1_555 1_555
C8A C7A 1_555 1_555
N2A C8A 1_555 1_555
S1A N2A 1_555 1_555
O3A S1A 1_555 1_555
O4A S1A 1_555 1_555
C9A S1A 1_555 1_555
C10A C9A 1_555 1_555
C11A C10A 1_555 1_555
C12A C11A 1_555 1_555
C13A C12A 1_555 1_555
C14A C9A 1_555 1_555
H21A C14A 1_555 1_555
H20A C13A 1_555 1_555
C15A C12A 1_555 1_555
H22A C15A 1_555 1_555
H23A C15A 1_555 1_555
H24A C15A 1_555 1_555
H19A C11A 1_555 1_555
H18A C10A 1_555 1_555
H17A N2A 1_555 1_555
H15A C8A 1_555 1_555
H16A C8A 1_555 1_555
H13A C7A 1_555 1_555
H14A C7A 1_555 1_555
H7A C4A 1_555 1_555
H8A C4A 1_555 1_555
H5A C3A 1_555 1_555
H6A C3A 1_555 1_555
H3A C2A 1_555 1_555
H4A C2A 1_555 1_555
H1A C1A 1_555 1_555
H2A C1A 1_555 1_555
H11A C6A 1_555 1_555
H12A C6A 1_555 1_555
C13 C14 1_555 1_555
N1A C5A 1_555 1_555
C13A C14A 1_555 1_555

#END
