
#######################################################################
#
#                 Cambridge Crystallographic Data Centre
#                                CCDC 
#
#######################################################################
#
# If this CIF has been generated from an entry in the Cambridge 
# Structural Database, then it will include bibliographic, chemical, 
# crystal, experimental, refinement or atomic coordinate data resulting 
# from the CCDC's data processing and validation procedures.
#
#######################################################################

data_JAWXAG
_chemical_formula_moiety         'C12 H8 Br1 N3 O4,H2 O1'
_chemical_name_systematic        
"p-Bromo-(N'-nitrofurfurylidene)benzhydrazide monohydrate"
_symmetry_cell_setting           monoclinic
_symmetry_space_group_name_H-M   'P 1 1 21/b'
_symmetry_Int_Tables_number      14
_space_group_name_Hall           '-P 2bc'
loop_
_symmetry_equiv_pos_site_id
_symmetry_equiv_pos_as_xyz
1 x,y,z
2 -x,1/2-y,1/2+z
3 -x,-y,-z
4 x,1/2+y,1/2-z
_cell_length_a                   10.920(3)
_cell_length_b                   11.536(3)
_cell_length_c                   11.917(2)
_cell_angle_alpha                90
_cell_angle_beta                 90
_cell_angle_gamma                112.26(2)
_cell_volume                     1389.34
_exptl_crystal_colour            yellow
_cell_formula_units_Z            4
loop_
_atom_site_label
_atom_site_type_symbol
_atom_site_fract_x
_atom_site_fract_y
_atom_site_fract_z
Br1 Br 0.0512(1) 0.4783(1) 0.6294
O1 O 0.1849(4) 0.3760(3) 1.1712(3)
O2 O 0.3683(3) 0.5809(3) 1.5083(2)
O3 O 0.3829(4) 0.4084(4) 1.6384(3)
O4 O 0.4455(4) 0.5366(4) 1.7799(3)
N1 N 0.2498(4) 0.5868(4) 1.1831(3)
N2 N 0.2877(4) 0.5824(4) 1.2916(3)
N3 N 0.4109(4) 0.5108(5) 1.6816(4)
C1 C 0.1995(5) 0.4753(5) 1.1242(4)
C2 C 0.3237(5) 0.6863(5) 1.3473(4)
C3 C 0.3626(5) 0.6878(5) 1.4609(4)
C4 C 0.3961(5) 0.7807(5) 1.5407(5)
C5 C 0.4211(5) 0.7305(5) 1.6404(4)
C6 C 0.4022(5) 0.6104(5) 1.6157(4)
C7 C 0.1652(5) 0.4825(5) 1.0068(4)
C8 C 0.0983(5) 0.3703(5) 0.9495(5)
C9 C 0.0627(6) 0.3671(6) 0.8404(1)
C10 C 0.0955(5) 0.4791(6) 0.7820(4)
C11 C 0.1607(6) 0.5920(6) 0.8357(4)
C12 C 0.1957(5) 0.5927(6) 0.9457(4)
H1 H 0.260(5) 0.654(5) 1.150(5)
H2 H 0.318(5) 0.763(5) 1.306(5)
H3 H 0.398(5) 0.859(5) 1.530(4)
H4 H 0.440(5) 0.760(5) 1.711(5)
H5 H 0.068(5) 0.307(5) 0.994(4)
H6 H 0.010(5) 0.292(5) 0.784(5)
H7 H 0.194(5) 0.666(5) 0.786(5)
H8 H 0.263(5) 0.650(5) 0.974(5)
O5 O 0.2759(5) 0.3336(3) 1.3854(3)
H9 H 0.258(5) 0.362(5) 1.343(5)
H10 H 0.285(5) 0.364(5) 1.430(5)
loop_
_geom_bond_atom_site_label_1
_geom_bond_atom_site_label_2
_geom_bond_site_symmetry_1
_geom_bond_site_symmetry_2
Br1 C10 1_555 1_555
O1 C1 1_555 1_555
O2 C3 1_555 1_555
O3 N3 1_555 1_555
O4 N3 1_555 1_555
N1 N2 1_555 1_555
N2 C2 1_555 1_555
N3 C6 1_555 1_555
C1 N1 1_555 1_555
C2 C3 1_555 1_555
C3 C4 1_555 1_555
C4 C5 1_555 1_555
C5 C6 1_555 1_555
C6 O2 1_555 1_555
C7 C1 1_555 1_555
C8 C7 1_555 1_555
C9 C8 1_555 1_555
C10 C9 1_555 1_555
C11 C10 1_555 1_555
C12 C7 1_555 1_555
H1 N1 1_555 1_555
H2 C2 1_555 1_555
H3 C4 1_555 1_555
H4 C5 1_555 1_555
H5 C8 1_555 1_555
H6 C9 1_555 1_555
H7 C11 1_555 1_555
H8 C12 1_555 1_555
O5 H9 1_555 1_555
H10 O5 1_555 1_555
C11 C12 1_555 1_555

#END
