
#######################################################################
#
#                 Cambridge Crystallographic Data Centre
#                                CCDC 
#
#######################################################################
#
# If this CIF has been generated from an entry in the Cambridge 
# Structural Database, then it will include bibliographic, chemical, 
# crystal, experimental, refinement or atomic coordinate data resulting 
# from the CCDC's data processing and validation procedures.
#
#######################################################################

data_JAWYOY
_chemical_formula_moiety         'C14 H10 Br2 N2 O3'
_chemical_name_systematic        
2,4-dibromo-6-(((4-methyl-2-nitrophenyl)imino)methyl)phenol
_symmetry_cell_setting           monoclinic
_symmetry_space_group_name_H-M   'P 21/c'
_symmetry_Int_Tables_number      14
_space_group_name_Hall           '-P 2ybc'
loop_
_symmetry_equiv_pos_site_id
_symmetry_equiv_pos_as_xyz
1 x,y,z
2 -x,1/2+y,1/2-z
3 -x,-y,-z
4 x,1/2-y,1/2+z
_cell_length_a                   13.458(2)
_cell_length_b                   7.2464(13)
_cell_length_c                   15.027(3)
_cell_angle_alpha                90
_cell_angle_beta                 96.846(3)
_cell_angle_gamma                90
_cell_volume                     1455.02
_exptl_crystal_colour            colorless
_exptl_crystal_description       Prism
_cell_formula_units_Z            4
_exptl_crystal_recrystallization_method ethanol
loop_
_atom_site_label
_atom_site_type_symbol
_atom_site_fract_x
_atom_site_fract_y
_atom_site_fract_z
Br1 Br 0.42470(3) -0.08083(7) 0.22617(3)
Br2 Br 0.33951(4) 0.12776(8) 0.57074(3)
C1 C 0.3315(2) -0.0009(5) 0.3031(2)
C2 C 0.3642(2) 0.0345(5) 0.3912(2)
H1 H 0.4317 0.0244 0.4127
C3 C 0.2948(3) 0.0856(5) 0.4480(2)
C4 C 0.2312(2) 0.0149(5) 0.2679(2)
C5 C 0.1950(3) 0.1060(4) 0.4165(2)
H2 H 0.1496 0.1431 0.4551
C6 C 0.1624(2) 0.0706(4) 0.3265(2)
C7 C 0.0566(2) 0.0962(4) 0.2943(2)
H3 H 0.0129 0.1364 0.3337
C8 C -0.0794(2) 0.0806(4) 0.1820(2)
C9 C -0.1097(2) 0.1342(4) 0.0934(2)
C10 C -0.2087(2) 0.1283(4) 0.0550(2)
H4 H -0.2256 0.1612 -0.0047
C11 C -0.2819(2) 0.0731(5) 0.1063(2)
C12 C -0.2538(2) 0.0242(5) 0.1948(2)
H5 H -0.3029 -0.0099 0.2302
C13 C -0.1542(2) 0.0247(5) 0.2324(2)
H6 H -0.1375 -0.0126 0.2915
C14 C -0.3897(3) 0.0651(6) 0.0655(3)
H7 H -0.4132 -0.0599 0.0665
H8 H -0.3950 0.1082 0.0048
H9 H -0.4296 0.1419 0.0994
N1 N 0.02343(19) 0.0638(4) 0.21228(18)
N2 N -0.03684(19) 0.2107(4) 0.03842(18)
O1 O 0.20455(17) -0.0221(4) 0.18116(16)
H10 H 0.1454 0.0045 0.1677
O2 O 0.03179(18) 0.3047(4) 0.07455(17)
O3 O -0.0484(2) 0.1801(4) -0.04213(17)
loop_
_geom_bond_atom_site_label_1
_geom_bond_atom_site_label_2
_geom_bond_site_symmetry_1
_geom_bond_site_symmetry_2
Br1 C1 1_555 1_555
Br2 C3 1_555 1_555
C1 C2 1_555 1_555
C2 H1 1_555 1_555
C3 C2 1_555 1_555
C4 C1 1_555 1_555
C5 C3 1_555 1_555
H2 C5 1_555 1_555
C6 C4 1_555 1_555
C7 C6 1_555 1_555
H3 C7 1_555 1_555
C8 C9 1_555 1_555
C9 C10 1_555 1_555
C10 H4 1_555 1_555
C11 C10 1_555 1_555
C12 C11 1_555 1_555
H5 C12 1_555 1_555
C13 C8 1_555 1_555
H6 C13 1_555 1_555
C14 C11 1_555 1_555
H7 C14 1_555 1_555
H8 C14 1_555 1_555
H9 C14 1_555 1_555
N1 C7 1_555 1_555
N2 C9 1_555 1_555
O1 C4 1_555 1_555
H10 O1 1_555 1_555
O2 N2 1_555 1_555
O3 N2 1_555 1_555
C5 C6 1_555 1_555
C8 N1 1_555 1_555
C12 C13 1_555 1_555

#END
