
#######################################################################
#
#                 Cambridge Crystallographic Data Centre
#                                CCDC 
#
#######################################################################
#
# If this CIF has been generated from an entry in the Cambridge 
# Structural Database, then it will include bibliographic, chemical, 
# crystal, experimental, refinement or atomic coordinate data resulting 
# from the CCDC's data processing and validation procedures.
#
#######################################################################

data_JAXDUK
_chemical_formula_moiety         'C31 H21 N1 Se1'
_chemical_name_systematic        
5-methyl-6,7-diphenyl-5H-[1]benzoselenopheno[3,2-c]carbazole
_symmetry_cell_setting           monoclinic
_symmetry_space_group_name_H-M   'C c'
_symmetry_Int_Tables_number      9
_space_group_name_Hall           'C -2yc'
loop_
_symmetry_equiv_pos_site_id
_symmetry_equiv_pos_as_xyz
1 x,y,z
2 x,-y,1/2+z
3 1/2+x,1/2+y,z
4 1/2+x,1/2-y,1/2+z
_cell_length_a                   9.699(2)
_cell_length_b                   22.592(6)
_cell_length_c                   10.541(2)
_cell_angle_alpha                90
_cell_angle_beta                 91.713(10)
_cell_angle_gamma                90
_cell_volume                     2308.71
_exptl_crystal_colour            yellow
_exptl_crystal_description       prism
_cell_formula_units_Z            4
loop_
_atom_site_label
_atom_site_type_symbol
_atom_site_fract_x
_atom_site_fract_y
_atom_site_fract_z
C1 C 0.5291(5) 0.6607(2) 0.6087(4)
C2 C 0.6490(6) 0.6906(3) 0.5670(5)
H1 H 0.6526 0.7316 0.5611
C3 C 0.7593(6) 0.6557(3) 0.5357(5)
H2 H 0.8402 0.6735 0.5099
C4 C 0.7523(6) 0.5959(3) 0.5417(6)
H3 H 0.8286 0.5737 0.5192
C5 C 0.6340(5) 0.5662(3) 0.5807(5)
H4 H 0.6313 0.5251 0.5827
C6 C 0.5183(5) 0.6001(2) 0.6171(4)
C7 C 0.3844(5) 0.57946(15) 0.6637(5)
C8 C 0.2983(4) 0.62623(15) 0.6915(4)
C9 C 0.3346(4) 0.52019(16) 0.6792(4)
C10 C 0.4233(4) 0.46832(16) 0.6519(4)
C11 C 0.5121(5) 0.4447(2) 0.7447(5)
H5 H 0.5177 0.4623 0.8245
C12 C 0.5914(6) 0.3959(3) 0.7211(6)
H6 H 0.6523 0.3815 0.7836
C13 C 0.5808(6) 0.3682(2) 0.6047(5)
H7 H 0.6329 0.3346 0.5894
C14 C 0.4928(6) 0.3904(2) 0.5109(5)
H8 H 0.4864 0.3718 0.4321
C15 C 0.4143(5) 0.4399(2) 0.5337(4)
H9 H 0.3551 0.4546 0.4702
C16 C 0.2036(4) 0.50995(16) 0.7238(4)
C17 C 0.1545(4) 0.44778(16) 0.7426(4)
C18 C 0.1728(5) 0.42072(19) 0.8604(4)
H10 H 0.2186 0.4409 0.9260
C19 C 0.1237(6) 0.3643(2) 0.8809(5)
H11 H 0.1358 0.3467 0.9602
C20 C 0.0568(6) 0.33434(19) 0.7839(5)
H12 H 0.0233 0.2964 0.7975
C21 C 0.0394(7) 0.3604(2) 0.6668(5)
H13 H -0.0057 0.3400 0.6011
C22 C 0.0890(6) 0.4168(2) 0.6466(5)
H14 H 0.0778 0.4340 0.5668
C23 C 0.1193(4) 0.55916(19) 0.7515(4)
C24 C 0.1649(4) 0.61723(17) 0.7387(4)
C25 C -0.1079(6) 0.5133(3) 0.8251(8)
H15 H -0.1994 0.5287 0.8336
H16 H -0.0791 0.4939 0.9025
H17 H -0.1076 0.4853 0.7565
C26 C -0.0519(5) 0.6194(2) 0.8128(4)
C27 C 0.0586(5) 0.65624(19) 0.7760(4)
C28 C 0.0405(6) 0.7178(2) 0.7817(5)
H18 H 0.1103 0.7430 0.7564
C29 C -0.0794(6) 0.7405(2) 0.8242(5)
H19 H -0.0902 0.7813 0.8299
C30 C -0.1855(6) 0.7036(2) 0.8592(5)
H20 H -0.2672 0.7204 0.8861
C31 C -0.1744(5) 0.6437(2) 0.8558(5)
H21 H -0.2462 0.6196 0.8812
N1 N -0.0148(3) 0.56085(16) 0.7992(4)
Se1 Se 0.37168(5) 0.701477(15) 0.66271(5)
loop_
_geom_bond_atom_site_label_1
_geom_bond_atom_site_label_2
_geom_bond_site_symmetry_1
_geom_bond_site_symmetry_2
C1 C2 1_555 1_555
C2 H1 1_555 1_555
C3 C2 1_555 1_555
H2 C3 1_555 1_555
C4 C3 1_555 1_555
H3 C4 1_555 1_555
C5 C4 1_555 1_555
H4 C5 1_555 1_555
C6 C1 1_555 1_555
C7 C6 1_555 1_555
C8 C7 1_555 1_555
C9 C7 1_555 1_555
C10 C9 1_555 1_555
C11 C10 1_555 1_555
H5 C11 1_555 1_555
C12 C11 1_555 1_555
H6 C12 1_555 1_555
C13 C12 1_555 1_555
H7 C13 1_555 1_555
C14 C13 1_555 1_555
H8 C14 1_555 1_555
C15 C10 1_555 1_555
H9 C15 1_555 1_555
C16 C9 1_555 1_555
C17 C16 1_555 1_555
C18 C17 1_555 1_555
H10 C18 1_555 1_555
C19 C18 1_555 1_555
H11 C19 1_555 1_555
C20 C19 1_555 1_555
H12 C20 1_555 1_555
C21 C20 1_555 1_555
H13 C21 1_555 1_555
C22 C17 1_555 1_555
H14 C22 1_555 1_555
C23 C16 1_555 1_555
C24 C8 1_555 1_555
C25 H15 1_555 1_555
H16 C25 1_555 1_555
H17 C25 1_555 1_555
C26 C27 1_555 1_555
C27 C24 1_555 1_555
C28 C27 1_555 1_555
H18 C28 1_555 1_555
C29 C28 1_555 1_555
H19 C29 1_555 1_555
C30 C29 1_555 1_555
H20 C30 1_555 1_555
C31 C26 1_555 1_555
H21 C31 1_555 1_555
N1 C23 1_555 1_555
Se1 C1 1_555 1_555
C5 C6 1_555 1_555
C8 Se1 1_555 1_555
C14 C15 1_555 1_555
C21 C22 1_555 1_555
C23 C24 1_555 1_555
C25 N1 1_555 1_555
C26 N1 1_555 1_555
C30 C31 1_555 1_555

#END
