
#######################################################################
#
#                 Cambridge Crystallographic Data Centre
#                                CCDC 
#
#######################################################################
#
# If this CIF has been generated from an entry in the Cambridge 
# Structural Database, then it will include bibliographic, chemical, 
# crystal, experimental, refinement or atomic coordinate data resulting 
# from the CCDC's data processing and validation procedures.
#
#######################################################################

data_JAXQEE
_chemical_formula_moiety         'C60 H56 N4 O8 S4,3(C1 H2 Cl2)'
_chemical_name_systematic        
"2,17,26,35-tetrakis(4-Tolylsulfonyl)-2,17,26,35-tetra-aza-(3.3.3.3)(3,3')(3,3')biphenylo(5,5')(5,5')biphenylo(2)phane dichloromethane clathrate"
_symmetry_cell_setting           monoclinic
_symmetry_space_group_name_H-M   'P 21/n'
_symmetry_Int_Tables_number      14
_space_group_name_Hall           '-P 2yn'
loop_
_symmetry_equiv_pos_site_id
_symmetry_equiv_pos_as_xyz
1 x,y,z
2 1/2+x,1/2-y,1/2+z
3 -x,-y,-z
4 1/2-x,1/2+y,1/2-z
_cell_length_a                   16.7508(9)
_cell_length_b                   23.1611(17)
_cell_length_c                   17.3134(9)
_cell_angle_alpha                90
_cell_angle_beta                 111.759(3)
_cell_angle_gamma                90
_cell_volume                     6238.45
_exptl_crystal_colour            colorless
_exptl_crystal_description       plates
_chemical_melting_point          'above 300 deg.C'
_cell_formula_units_Z            4
loop_
_atom_site_label
_atom_site_type_symbol
_atom_site_fract_x
_atom_site_fract_y
_atom_site_fract_z
C1 C 0.8375(2) 0.48148(18) 0.47183(19)
H1 H 0.8935 0.5001 0.4812
H2 H 0.8073 0.5052 0.5001
N1 N 0.85322(16) 0.42356(15) 0.50995(15)
C2 C 0.78306(19) 0.39936(18) 0.5333(2)
H3 H 0.7675 0.4272 0.5688
H4 H 0.8026 0.3632 0.5653
C3 C 0.7060(2) 0.38735(18) 0.45547(19)
C4 C 0.7126(2) 0.34972(18) 0.3957(2)
H5 H 0.7610 0.3249 0.4096
C5 C 0.6505(2) 0.34764(18) 0.31675(19)
C6 C 0.5770(2) 0.38162(17) 0.2989(2)
H6 H 0.5337 0.3802 0.2447
C7 C 0.5657(2) 0.41783(17) 0.35889(19)
C8 C 0.6316(2) 0.41956(17) 0.4378(2)
H7 H 0.6250 0.4432 0.4799
C9 C 0.4926(2) 0.45942(17) 0.33644(19)
C10 C 0.5031(2) 0.51229(18) 0.3768(2)
H8 H 0.5551 0.5195 0.4226
C11 C 0.4400(2) 0.55531(19) 0.3526(2)
C12 C 0.3637(2) 0.54366(18) 0.2870(2)
H9 H 0.3181 0.5709 0.2727
C13 C 0.3528(2) 0.49320(19) 0.2422(2)
C14 C 0.4162(2) 0.45016(18) 0.2676(2)
H10 H 0.4074 0.4146 0.2382
C15 C 0.4588(2) 0.61325(18) 0.3950(2)
H11 H 0.4307 0.6153 0.4361
H12 H 0.5216 0.6168 0.4256
N2 N 0.42892(17) 0.66259(14) 0.33641(16)
C16 C 0.4888(2) 0.68331(18) 0.2963(2)
H13 H 0.5449 0.6941 0.3392
H14 H 0.4644 0.7176 0.2613
C17 C 0.5003(2) 0.63400(17) 0.24279(19)
C18 C 0.4299(2) 0.61340(19) 0.17761(19)
H15 H 0.3780 0.6350 0.1586
C19 C 0.4342(2) 0.56181(19) 0.1399(2)
C20 C 0.5120(2) 0.53203(17) 0.16561(19)
H16 H 0.5150 0.4962 0.1402
C21 C 0.5859(2) 0.55387(18) 0.22816(19)
C22 C 0.5779(2) 0.60565(18) 0.26558(19)
H17 H 0.6270 0.6218 0.3077
C23 C 0.66483(19) 0.51717(17) 0.26026(19)
C24 C 0.7186(2) 0.52018(18) 0.3441(2)
H18 H 0.7096 0.5498 0.3779
C25 C 0.78472(19) 0.48090(17) 0.37914(19)
C26 C 0.7990(2) 0.43852(18) 0.32895(19)
H19 H 0.8459 0.4126 0.3515
C27 C 0.7448(2) 0.43393(18) 0.24569(19)
C28 C 0.6800(2) 0.47326(18) 0.21200(19)
H20 H 0.6447 0.4706 0.1547
C29 C 0.7532(2) 0.38083(18) 0.1968(2)
H21 H 0.7060 0.3805 0.1415
H22 H 0.8084 0.3823 0.1882
N3 N 0.74959(16) 0.32752(15) 0.24328(17)
C30 C 0.6655(2) 0.31411(19) 0.2480(2)
H23 H 0.6624 0.2722 0.2581
H24 H 0.6194 0.3235 0.1941
C31 C 0.2777(2) 0.48601(19) 0.1599(2)
H25 H 0.2817 0.4482 0.1350
H26 H 0.2229 0.4873 0.1692
N4 N 0.27985(16) 0.53353(15) 0.10232(16)
C32 C 0.3549(2) 0.5337(2) 0.0762(2)
H27 H 0.3392 0.5547 0.0227
H28 H 0.3688 0.4935 0.0668
S1 S 0.95149(5) 0.41233(5) 0.57631(5)
O1 O 1.00782(13) 0.42811(12) 0.53414(13)
O2 O 0.95389(14) 0.35444(13) 0.60762(14)
C33 C 0.9667(2) 0.46176(19) 0.65781(19)
C34 C 0.9380(2) 0.4477(2) 0.7211(2)
H29 H 0.9152 0.4106 0.7240
C35 C 0.9437(2) 0.4900(2) 0.7806(2)
H30 H 0.9240 0.4813 0.8241
C36 C 0.9773(2) 0.5442(2) 0.7778(2)
C37 C 1.0074(2) 0.55640(19) 0.7154(2)
H31 H 1.0326 0.5930 0.7141
C38 C 1.0013(2) 0.51545(19) 0.6541(2)
H32 H 1.0207 0.5244 0.6104
C39 C 0.9808(3) 0.5905(2) 0.8406(2)
H33 H 0.9242 0.6087 0.8251
H34 H 1.0234 0.6197 0.8413
H35 H 0.9971 0.5731 0.8959
S2 S 0.37896(5) 0.71367(5) 0.36787(5)
O3 O 0.31268(13) 0.68479(13) 0.38782(13)
O4 O 0.35641(14) 0.75782(12) 0.30600(13)
C40 C 0.4553(2) 0.74078(17) 0.46053(19)
C41 C 0.5174(2) 0.77974(18) 0.4562(2)
H36 H 0.5171 0.7919 0.4037
C42 C 0.5787(2) 0.80032(18) 0.5283(2)
H37 H 0.6202 0.8272 0.5249
C43 C 0.5814(2) 0.78268(18) 0.6057(2)
C44 C 0.5207(2) 0.74332(19) 0.6091(2)
H38 H 0.5228 0.7300 0.6617
C45 C 0.4568(2) 0.72279(18) 0.5375(2)
H39 H 0.4146 0.6967 0.5412
C46 C 0.6492(2) 0.8066(2) 0.6850(2)
H40 H 0.7019 0.7838 0.6995
H41 H 0.6277 0.8045 0.7305
H42 H 0.6613 0.8469 0.6761
S3 S 0.80895(6) 0.27274(5) 0.23614(5)
O5 O 0.80671(15) 0.23076(13) 0.29608(14)
O6 O 0.88944(13) 0.29653(13) 0.24030(14)
C47 C 0.7579(2) 0.24224(19) 0.1361(2)
C48 C 0.7660(2) 0.26954(19) 0.0678(2)
H43 H 0.8027 0.3021 0.0754
C49 C 0.7205(2) 0.2491(2) -0.0105(2)
H44 H 0.7268 0.2677 -0.0568
C50 C 0.6658(2) 0.2023(2) -0.0245(2)
C51 C 0.6599(2) 0.1744(2) 0.0452(3)
H45 H 0.6249 0.1410 0.0379
C52 C 0.7047(2) 0.1952(2) 0.1243(2)
H46 H 0.6988 0.1769 0.1709
C53 C 0.6126(3) 0.1822(2) -0.1108(2)
H47 H 0.5525 0.1933 -0.1241
H48 H 0.6167 0.1402 -0.1138
H49 H 0.6339 0.2002 -0.1507
S4 S 0.18671(5) 0.54825(5) 0.02836(5)
O7 O 0.20148(14) 0.59675(12) -0.01670(14)
O8 O 0.12546(13) 0.55359(12) 0.06776(13)
C54 C 0.1589(2) 0.48814(18) -0.03776(19)
C55 C 0.1105(2) 0.44275(19) -0.0247(2)
H50 H 0.0878 0.4455 0.0180
C56 C 0.0957(2) 0.3941(2) -0.0735(2)
H51 H 0.0635 0.3632 -0.0634
C57 C 0.1269(2) 0.3892(2) -0.1371(2)
C58 C 0.1731(2) 0.4350(2) -0.1509(2)
H52 H 0.1936 0.4326 -0.1952
C59 C 0.1901(2) 0.4840(2) -0.1023(2)
H53 H 0.2226 0.5147 -0.1124
C60 C 0.1119(2) 0.3359(2) -0.1898(2)
H54 H 0.0947 0.3041 -0.1620
H55 H 0.1650 0.3255 -0.1979
H56 H 0.0663 0.3433 -0.2439
C61 C 0.6599(3) 0.6305(2) 0.6021(2)
H57 H 0.6531 0.6629 0.5629
H58 H 0.6024 0.6209 0.6022
Cl1 Cl 0.72559(7) 0.65234(6) 0.70111(7)
Cl2 Cl 0.70030(8) 0.57046(8) 0.56674(8)
C62 C 0.3394(2) 0.2607(2) 0.0848(2)
H59 H 0.3110 0.2322 0.1089
H60 H 0.3626 0.2397 0.0479
Cl3 Cl 0.42365(7) 0.29369(6) 0.16477(6)
Cl4 Cl 0.26303(7) 0.31170(7) 0.02613(8)
C63 C 0.4429(3) 0.3470(2) -0.0490(2)
H61 H 0.3823 0.3373 -0.0588
H62 H 0.4459 0.3580 -0.1031
Cl5 Cl 0.47450(10) 0.40591(7) 0.01913(7)
Cl6 Cl 0.50598(10) 0.28679(8) -0.01131(8)
loop_
_geom_bond_atom_site_label_1
_geom_bond_atom_site_label_2
_geom_bond_site_symmetry_1
_geom_bond_site_symmetry_2
C1 H1 1_555 1_555
H2 C1 1_555 1_555
N1 C1 1_555 1_555
C2 N1 1_555 1_555
H3 C2 1_555 1_555
H4 C2 1_555 1_555
C3 C2 1_555 1_555
C4 C3 1_555 1_555
H5 C4 1_555 1_555
C5 C4 1_555 1_555
C6 C5 1_555 1_555
H6 C6 1_555 1_555
C7 C6 1_555 1_555
C8 C3 1_555 1_555
H7 C8 1_555 1_555
C9 C7 1_555 1_555
C10 C9 1_555 1_555
H8 C10 1_555 1_555
C11 C10 1_555 1_555
C12 C11 1_555 1_555
H9 C12 1_555 1_555
C13 C12 1_555 1_555
C14 C9 1_555 1_555
H10 C14 1_555 1_555
C15 C11 1_555 1_555
H11 C15 1_555 1_555
H12 C15 1_555 1_555
N2 C15 1_555 1_555
C16 N2 1_555 1_555
H13 C16 1_555 1_555
H14 C16 1_555 1_555
C17 C16 1_555 1_555
C18 C17 1_555 1_555
H15 C18 1_555 1_555
C19 C18 1_555 1_555
C20 C19 1_555 1_555
H16 C20 1_555 1_555
C21 C20 1_555 1_555
C22 C17 1_555 1_555
H17 C22 1_555 1_555
C23 C21 1_555 1_555
C24 C23 1_555 1_555
H18 C24 1_555 1_555
C25 C1 1_555 1_555
C26 C25 1_555 1_555
H19 C26 1_555 1_555
C27 C26 1_555 1_555
C28 C23 1_555 1_555
H20 C28 1_555 1_555
C29 C27 1_555 1_555
H21 C29 1_555 1_555
H22 C29 1_555 1_555
N3 C29 1_555 1_555
C30 C5 1_555 1_555
H23 C30 1_555 1_555
H24 C30 1_555 1_555
C31 C13 1_555 1_555
H25 C31 1_555 1_555
H26 C31 1_555 1_555
N4 C31 1_555 1_555
C32 C19 1_555 1_555
H27 C32 1_555 1_555
H28 C32 1_555 1_555
S1 N1 1_555 1_555
O1 S1 1_555 1_555
O2 S1 1_555 1_555
C33 S1 1_555 1_555
C34 C33 1_555 1_555
H29 C34 1_555 1_555
C35 C34 1_555 1_555
H30 C35 1_555 1_555
C36 C35 1_555 1_555
C37 C36 1_555 1_555
H31 C37 1_555 1_555
C38 C33 1_555 1_555
H32 C38 1_555 1_555
C39 C36 1_555 1_555
H33 C39 1_555 1_555
H34 C39 1_555 1_555
H35 C39 1_555 1_555
S2 N2 1_555 1_555
O3 S2 1_555 1_555
O4 S2 1_555 1_555
C40 S2 1_555 1_555
C41 C40 1_555 1_555
H36 C41 1_555 1_555
C42 C41 1_555 1_555
H37 C42 1_555 1_555
C43 C42 1_555 1_555
C44 C43 1_555 1_555
H38 C44 1_555 1_555
C45 C40 1_555 1_555
H39 C45 1_555 1_555
C46 C43 1_555 1_555
H40 C46 1_555 1_555
H41 C46 1_555 1_555
H42 C46 1_555 1_555
S3 N3 1_555 1_555
O5 S3 1_555 1_555
O6 S3 1_555 1_555
C47 S3 1_555 1_555
C48 C47 1_555 1_555
H43 C48 1_555 1_555
C49 C48 1_555 1_555
H44 C49 1_555 1_555
C50 C49 1_555 1_555
C51 C50 1_555 1_555
H45 C51 1_555 1_555
C52 C47 1_555 1_555
H46 C52 1_555 1_555
C53 C50 1_555 1_555
H47 C53 1_555 1_555
H48 C53 1_555 1_555
H49 C53 1_555 1_555
S4 N4 1_555 1_555
O7 S4 1_555 1_555
O8 S4 1_555 1_555
C54 S4 1_555 1_555
C55 C54 1_555 1_555
H50 C55 1_555 1_555
C56 C55 1_555 1_555
H51 C56 1_555 1_555
C57 C56 1_555 1_555
C58 C57 1_555 1_555
H52 C58 1_555 1_555
C59 C54 1_555 1_555
H53 C59 1_555 1_555
C60 C57 1_555 1_555
H54 C60 1_555 1_555
H55 C60 1_555 1_555
H56 C60 1_555 1_555
C61 H57 1_555 1_555
H58 C61 1_555 1_555
Cl1 C61 1_555 1_555
Cl2 C61 1_555 1_555
C62 H59 1_555 1_555
H60 C62 1_555 1_555
Cl3 C62 1_555 1_555
Cl4 C62 1_555 1_555
C63 H61 1_555 1_555
H62 C63 1_555 1_555
Cl5 C63 1_555 1_555
Cl6 C63 1_555 1_555
C7 C8 1_555 1_555
C13 C14 1_555 1_555
C21 C22 1_555 1_555
C24 C25 1_555 1_555
C27 C28 1_555 1_555
N3 C30 1_555 1_555
N4 C32 1_555 1_555
C37 C38 1_555 1_555
C44 C45 1_555 1_555
C51 C52 1_555 1_555
C58 C59 1_555 1_555

#END
