
#######################################################################
#
#                 Cambridge Crystallographic Data Centre
#                                CCDC 
#
#######################################################################
#
# If this CIF has been generated from an entry in the Cambridge 
# Structural Database, then it will include bibliographic, chemical, 
# crystal, experimental, refinement or atomic coordinate data resulting 
# from the CCDC's data processing and validation procedures.
#
#######################################################################

data_JAYWIS
_chemical_formula_moiety         'C37 H61 B1 Li1 N5 O1 Si2,2(C4 H8 O1)'
_chemical_name_systematic        
'[1-(butoxy)-N-[dimethyl(4,7,10-trimethyl-1,4,7,10-tetraazacyclododecan-1-yl)silyl]-1,1-dimethyl-N-(triphenylboranyl)silanamine]-lithium tetrahydrofuran solvate'
_symmetry_cell_setting           triclinic
_symmetry_space_group_name_H-M   'P -1'
_symmetry_Int_Tables_number      2
_space_group_name_Hall           '-P 1'
loop_
_symmetry_equiv_pos_site_id
_symmetry_equiv_pos_as_xyz
1 x,y,z
2 -x,-y,-z
_cell_length_a                   11.063(4)
_cell_length_b                   11.919(7)
_cell_length_c                   19.901(11)
_cell_angle_alpha                87.199(12)
_cell_angle_beta                 77.299(12)
_cell_angle_gamma                65.471(11)
_cell_volume                     2326.24
_exptl_crystal_colour            colorless
_exptl_crystal_description       plate
_cell_formula_units_Z            2
_chemical_properties_physical    
Air-sensitive,Moisture-sensitive,Oxygen-sensitive
_exptl_crystal_recrystallization_method 'n-pentane / tetrahydrofuran'
loop_
_atom_site_label
_atom_site_type_symbol
_atom_site_fract_x
_atom_site_fract_y
_atom_site_fract_z
Si1 Si 0.54508(13) 0.17695(12) 0.71012(7)
Si2 Si 0.54114(13) 0.19970(12) 0.85724(8)
O1 O 0.6301(3) 0.0437(3) 0.84152(16)
N1 N 0.5343(3) 0.0307(3) 0.7086(2)
N2 N 0.4416(4) -0.1107(3) 0.8176(2)
N3 N 0.7032(4) -0.2987(3) 0.8275(2)
N4 N 0.7881(4) -0.2052(3) 0.6919(2)
N5 N 0.4645(3) 0.2560(3) 0.7894(2)
Li1 Li 0.6333(8) -0.0941(7) 0.7829(5)
B1 B 0.3298(5) 0.3905(5) 0.7955(3)
C1 C 0.3918(4) 0.0464(4) 0.7294(3)
H1 H 0.3513 0.0667 0.6883
H2 H 0.3411 0.1179 0.7629
C2 C 0.3712(5) -0.0646(4) 0.7613(3)
H3 H 0.2726 -0.0412 0.7789
H4 H 0.4050 -0.1314 0.7252
C3 C 0.4562(4) -0.2359(4) 0.8352(2)
H5 H 0.4680 -0.2832 0.7929
H6 H 0.3722 -0.2315 0.8676
C4 C 0.5771(4) -0.3020(4) 0.8679(3)
H7 H 0.5567 -0.2636 0.9144
H8 H 0.5909 -0.3892 0.8736
C5 C 0.7467(5) -0.3707(4) 0.7607(3)
H9 H 0.6654 -0.3555 0.7423
H10 H 0.7900 -0.4599 0.7688
C6 C 0.8459(5) -0.3369(4) 0.7077(3)
H11 H 0.9291 -0.3561 0.7251
H12 H 0.8723 -0.3880 0.6647
C7 C 0.6863(5) -0.1809(4) 0.6496(3)
H13 H 0.6221 -0.2174 0.6710
H14 H 0.7332 -0.2213 0.6031
C8 C 0.6059(4) -0.0413(4) 0.6426(3)
H15 H 0.6698 -0.0074 0.6170
H16 H 0.5381 -0.0300 0.6147
C9 C 0.3702(5) -0.0261(4) 0.8787(3)
H17 H 0.2803 -0.0263 0.8961
H18 H 0.3595 0.0576 0.8662
H19 H 0.4232 -0.0530 0.9145
C10 C 0.8118(4) -0.3542(4) 0.8666(3)
H20 H 0.7820 -0.3107 0.9118
H21 H 0.8946 -0.3471 0.8411
H22 H 0.8306 -0.4415 0.8728
C11 C 0.9034(5) -0.1796(5) 0.6528(3)
H23 H 0.9494 -0.2360 0.6120
H24 H 0.9679 -0.1917 0.6822
H25 H 0.8692 -0.0942 0.6385
C12 C 0.7205(5) -0.0215(5) 0.8878(3)
H26 H 0.6961 -0.0883 0.9089
H27 H 0.7076 0.0367 0.9253
C13 C 0.8668(5) -0.0756(5) 0.8505(3)
H28 H 0.8867 -0.0059 0.8303
H29 H 0.8735 -0.1274 0.8112
C14 C 0.9846(17) -0.1535(15) 0.8852(11)
H30 H 1.0714 -0.1883 0.8503
H31 H 0.9678 -0.2225 0.9086
C15 C 0.9925(11) -0.0659(9) 0.9392(6)
H32 H 1.0076 0.0028 0.9156
H33 H 1.0679 -0.1125 0.9617
H34 H 0.9068 -0.0333 0.9740
C16 C 0.7314(4) 0.1437(4) 0.6890(3)
H35 H 0.7424 0.2190 0.6973
H36 H 0.7703 0.1155 0.6405
H37 H 0.7787 0.0793 0.7184
C17 C 0.4776(4) 0.2539(4) 0.6344(2)
H38 H 0.3825 0.2663 0.6408
H39 H 0.5318 0.2020 0.5925
H40 H 0.4830 0.3340 0.6301
C18 C 0.6741(5) 0.2550(4) 0.8660(3)
H41 H 0.7647 0.1870 0.8531
H42 H 0.6577 0.2835 0.9138
H43 H 0.6689 0.3233 0.8355
C19 C 0.4261(5) 0.2177(4) 0.9444(2)
H44 H 0.3431 0.2110 0.9395
H45 H 0.4021 0.2987 0.9657
H46 H 0.4730 0.1528 0.9736
C20 C 0.2041(4) 0.3589(4) 0.7836(3)
C21 C 0.1491(4) 0.2933(4) 0.8314(3)
H47 H 0.1802 0.2739 0.8731
C22 C 0.0514(4) 0.2548(4) 0.8214(3)
H48 H 0.0156 0.2121 0.8560
C23 C 0.0069(5) 0.2798(4) 0.7601(3)
H49 H -0.0574 0.2517 0.7516
C24 C 0.0567(4) 0.3454(4) 0.7117(3)
H50 H 0.0253 0.3640 0.6700
C25 C 0.1529(4) 0.3849(4) 0.7235(3)
H51 H 0.1849 0.4309 0.6896
C26 C 0.3633(4) 0.4868(4) 0.7434(2)
C27 C 0.4946(4) 0.4775(4) 0.7143(2)
H52 H 0.5698 0.4091 0.7252
C28 C 0.5207(5) 0.5620(4) 0.6707(3)
H53 H 0.6122 0.5494 0.6513
C29 C 0.4147(5) 0.6652(4) 0.6551(3)
H54 H 0.4325 0.7233 0.6248
C30 C 0.2820(5) 0.6828(4) 0.6843(3)
H55 H 0.2077 0.7535 0.6746
C31 C 0.2588(5) 0.5958(4) 0.7281(3)
H56 H 0.1672 0.6106 0.7488
C32 C 0.2869(4) 0.4636(4) 0.8715(2)
C33 C 0.1605(4) 0.5025(4) 0.9159(3)
H57 H 0.0936 0.4828 0.9030
C34 C 0.1243(5) 0.5686(4) 0.9785(3)
H58 H 0.0355 0.5922 1.0066
C35 C 0.2185(5) 0.5998(4) 0.9993(3)
H59 H 0.1971 0.6419 1.0426
C36 C 0.3441(5) 0.5678(4) 0.9553(3)
H60 H 0.4097 0.5896 0.9679
C37 C 0.3759(4) 0.5040(4) 0.8928(3)
H61 H 0.4619 0.4868 0.8629
O2 O 0.8089(5) 0.5488(5) 0.5433(3)
C40 C 0.8651(6) 0.4173(6) 0.5440(4)
H69 H 0.8665 0.3903 0.5918
H70 H 0.9595 0.3813 0.5161
C41 C 0.7758(7) 0.3768(5) 0.5142(4)
H71 H 0.7150 0.3537 0.5509
H72 H 0.8309 0.3057 0.4808
C42 C 0.6947(8) 0.4902(7) 0.4786(4)
H73 H 0.7077 0.4700 0.4291
H74 H 0.5964 0.5218 0.5002
C43 C 0.7460(8) 0.5801(7) 0.4866(4)
H75 H 0.8127 0.5801 0.4443
H76 H 0.6705 0.6635 0.4949
O3 O 0.8796(11) 0.0358(11) 0.4201(7)
C44 C 0.7566(11) 0.0893(9) 0.4726(6)
H77 H 0.7085 0.1792 0.4677
H78 H 0.7756 0.0744 0.5193
C45 C 0.6762(9) 0.0220(9) 0.4586(7)
H79 H 0.6260 0.0611 0.4222
H80 H 0.6104 0.0200 0.5009
C46 C 0.7883(11) -0.1128(8) 0.4339(6)
H81 H 0.8009 -0.1679 0.4731
H82 H 0.7637 -0.1490 0.3982
C47 C 0.9127(11) -0.0922(11) 0.4053(8)
H83 H 0.9880 -0.1464 0.4270
H84 H 0.9414 -0.1110 0.3549
H62? H 0.8923 -0.0140 0.8231
H63? H 0.8892 -0.1482 0.8202
C38? C 0.9361(17) -0.1136(16) 0.9154(12)
H64? H 0.8984 -0.0435 0.9497
H65? H 0.9215 -0.1843 0.9378
C39? C 1.0816(12) -0.1477(13) 0.8864(8)
H66? H 1.1189 -0.2222 0.8561
H67? H 1.1302 -0.1639 0.9240
H68? H 1.0929 -0.0799 0.8599
O4? O 0.8471(12) -0.1486(10) 0.4743(7)
C48? C 0.9288(12) -0.0853(13) 0.4640(9)
H85? H 0.9934 -0.1102 0.4187
H86? H 0.9813 -0.1022 0.5005
C49? C 0.837(2) 0.0449(15) 0.4666(15)
H87? H 0.8827 0.0932 0.4386
H88? H 0.8019 0.0803 0.5145
C50? C 0.7168(12) 0.0413(10) 0.4338(7)
H89? H 0.6292 0.1131 0.4506
H90? H 0.7406 0.0380 0.3828
C51? C 0.7124(13) -0.0784(13) 0.4612(8)
H91? H 0.6414 -0.0625 0.5042
H92? H 0.6938 -0.1227 0.4267
loop_
_geom_bond_atom_site_label_1
_geom_bond_atom_site_label_2
_geom_bond_site_symmetry_1
_geom_bond_site_symmetry_2
Si1 N1 1_555 1_555
Si2 O1 1_555 1_555
O1 Li1 1_555 1_555
N1 Li1 1_555 1_555
N2 Li1 1_555 1_555
N3 Li1 1_555 1_555
N4 Li1 1_555 1_555
N5 Si1 1_555 1_555
B1 N5 1_555 1_555
C1 N1 1_555 1_555
H1 C1 1_555 1_555
H2 C1 1_555 1_555
C2 N2 1_555 1_555
H3 C2 1_555 1_555
H4 C2 1_555 1_555
C3 N2 1_555 1_555
H5 C3 1_555 1_555
H6 C3 1_555 1_555
C4 N3 1_555 1_555
H7 C4 1_555 1_555
H8 C4 1_555 1_555
C5 N3 1_555 1_555
H9 C5 1_555 1_555
H10 C5 1_555 1_555
C6 N4 1_555 1_555
H11 C6 1_555 1_555
H12 C6 1_555 1_555
C7 N4 1_555 1_555
H13 C7 1_555 1_555
H14 C7 1_555 1_555
C8 N1 1_555 1_555
H15 C8 1_555 1_555
H16 C8 1_555 1_555
C9 N2 1_555 1_555
H17 C9 1_555 1_555
H18 C9 1_555 1_555
H19 C9 1_555 1_555
C10 N3 1_555 1_555
H20 C10 1_555 1_555
H21 C10 1_555 1_555
H22 C10 1_555 1_555
C11 N4 1_555 1_555
H23 C11 1_555 1_555
H24 C11 1_555 1_555
H25 C11 1_555 1_555
C12 O1 1_555 1_555
H26 C12 1_555 1_555
H27 C12 1_555 1_555
C13 C12 1_555 1_555
H28 C13 1_555 1_555
H29 C13 1_555 1_555
C14 C13 1_555 1_555
H30 C14 1_555 1_555
H31 C14 1_555 1_555
C15 C14 1_555 1_555
H32 C15 1_555 1_555
H33 C15 1_555 1_555
H34 C15 1_555 1_555
C16 Si1 1_555 1_555
H35 C16 1_555 1_555
H36 C16 1_555 1_555
H37 C16 1_555 1_555
C17 Si1 1_555 1_555
H38 C17 1_555 1_555
H39 C17 1_555 1_555
H40 C17 1_555 1_555
C18 Si2 1_555 1_555
H41 C18 1_555 1_555
H42 C18 1_555 1_555
H43 C18 1_555 1_555
C19 Si2 1_555 1_555
H44 C19 1_555 1_555
H45 C19 1_555 1_555
H46 C19 1_555 1_555
C20 B1 1_555 1_555
C21 C20 1_555 1_555
H47 C21 1_555 1_555
C22 C21 1_555 1_555
H48 C22 1_555 1_555
C23 C22 1_555 1_555
H49 C23 1_555 1_555
C24 C23 1_555 1_555
H50 C24 1_555 1_555
C25 C20 1_555 1_555
H51 C25 1_555 1_555
C26 B1 1_555 1_555
C27 C26 1_555 1_555
H52 C27 1_555 1_555
C28 C27 1_555 1_555
H53 C28 1_555 1_555
C29 C28 1_555 1_555
H54 C29 1_555 1_555
C30 C29 1_555 1_555
H55 C30 1_555 1_555
C31 C26 1_555 1_555
H56 C31 1_555 1_555
C32 B1 1_555 1_555
C33 C32 1_555 1_555
H57 C33 1_555 1_555
C34 C33 1_555 1_555
H58 C34 1_555 1_555
C35 C34 1_555 1_555
H59 C35 1_555 1_555
C36 C35 1_555 1_555
H60 C36 1_555 1_555
C37 C32 1_555 1_555
H61 C37 1_555 1_555
O2 C40 1_555 1_555
C40 H69 1_555 1_555
H70 C40 1_555 1_555
C41 C40 1_555 1_555
H71 C41 1_555 1_555
H72 C41 1_555 1_555
C42 C41 1_555 1_555
H73 C42 1_555 1_555
H74 C42 1_555 1_555
C43 O2 1_555 1_555
H75 C43 1_555 1_555
H76 C43 1_555 1_555
O3 C44 1_555 1_555
C44 H77 1_555 1_555
H78 C44 1_555 1_555
C45 C44 1_555 1_555
H79 C45 1_555 1_555
H80 C45 1_555 1_555
C46 C45 1_555 1_555
H81 C46 1_555 1_555
H82 C46 1_555 1_555
C47 O3 1_555 1_555
H83 C47 1_555 1_555
H84 C47 1_555 1_555
Si2 N5 1_555 1_555
C1 C2 1_555 1_555
C3 C4 1_555 1_555
C5 C6 1_555 1_555
C7 C8 1_555 1_555
C24 C25 1_555 1_555
C30 C31 1_555 1_555
C36 C37 1_555 1_555
C42 C43 1_555 1_555
C46 C47 1_555 1_555

#END
