
#######################################################################
#
#                 Cambridge Crystallographic Data Centre
#                                CCDC 
#
#######################################################################
#
# If this CIF has been generated from an entry in the Cambridge 
# Structural Database, then it will include bibliographic, chemical, 
# crystal, experimental, refinement or atomic coordinate data resulting 
# from the CCDC's data processing and validation procedures.
#
#######################################################################

data_JAZVEO
_chemical_formula_moiety         'C42 H30 F6 N2 O4'
_chemical_name_systematic        
"3,5-bis(trifluoromethyl)benzyl 5'-oxo-1,1',3',5-tetraphenyl-1',5'-dihydrospiro[7-oxabicyclo[4.1.0]heptane-2,4'-pyrazole]-4-carboxylate"
_symmetry_cell_setting           orthorhombic
_symmetry_space_group_name_H-M   'P 21 21 21'
_symmetry_Int_Tables_number      19
_space_group_name_Hall           'P 2ac 2ab'
loop_
_symmetry_equiv_pos_site_id
_symmetry_equiv_pos_as_xyz
1 x,y,z
2 1/2-x,-y,1/2+z
3 1/2+x,1/2-y,-z
4 -x,1/2+y,1/2-z
_cell_length_a                   8.8643(8)
_cell_length_b                   17.5771(8)
_cell_length_c                   22.5359(8)
_cell_angle_alpha                90
_cell_angle_beta                 90
_cell_angle_gamma                90
_cell_volume                     3511.29
_cell_formula_units_Z            4
loop_
_atom_site_label
_atom_site_type_symbol
_atom_site_fract_x
_atom_site_fract_y
_atom_site_fract_z
F1 F 0.06840(17) 0.64660(7) 0.06928(5)
F2 F -0.30408(14) 0.72946(7) -0.14932(6)
O1 O 0.00846(15) 0.39801(7) -0.01958(6)
F3 F 0.00638(19) 0.74811(7) 0.02278(6)
O2 O 0.19086(18) 0.31844(9) -0.05109(6)
N1 N -0.10007(18) 0.15024(9) 0.16709(7)
O3 O 0.12493(15) 0.09826(7) 0.13403(6)
F4 F 0.21334(17) 0.69042(8) 0.00163(7)
O4 O 0.35956(14) 0.22642(7) 0.13033(6)
C1 C -0.0975(2) 0.35385(10) 0.16589(8)
F5 F -0.41966(17) 0.62309(9) -0.15521(9)
N2 N -0.16083(17) 0.22283(9) 0.17646(7)
F6 F -0.2319(2) 0.64600(9) -0.21248(6)
C2 C 0.2588(2) 0.24545(10) 0.23025(8)
C3 C 0.0820(2) 0.23678(10) 0.13676(8)
C4 C 0.0833(2) 0.25119(10) 0.06867(8)
H1 H 0.1497 0.2133 0.0493
H2 H -0.0199 0.2444 0.0528
C5 C -0.0606(2) 0.27216(10) 0.16244(7)
C6 C -0.3004(2) 0.09475(12) 0.22595(9)
H3 H -0.3176 0.1430 0.2437
C7 C 0.3179(2) 0.22268(12) 0.35100(9)
H4 H 0.3378 0.2150 0.3920
C8 C -0.1607(2) 0.01508(11) 0.15793(9)
H5 H -0.0842 0.0091 0.1288
C9 C -0.2347(2) 0.37901(11) 0.14284(9)
H6 H -0.3014 0.3439 0.1244
C10 C -0.1872(2) 0.08567(11) 0.18375(8)
C11 C 0.1393(2) 0.33143(10) 0.05387(8)
H7 H 0.0793 0.3693 0.0771
C12 C -0.0116(2) 0.63206(11) -0.02962(8)
C13 C 0.0185(2) 0.55483(11) -0.03189(8)
H8 H 0.0870 0.5327 -0.0045
C14 C -0.0011(2) 0.40611(11) 0.19282(8)
H9 H 0.0931 0.3897 0.2083
C15 C 0.3078(2) 0.33992(10) 0.06980(8)
H10 H 0.3653 0.3081 0.0408
C16 C -0.1787(2) 0.62071(11) -0.11205(9)
C17 C 0.0682(3) 0.67926(11) 0.01594(10)
C18 C 0.0447(2) 0.15198(10) 0.14540(8)
C19 C -0.1518(2) 0.54302(11) -0.11466(8)
H11 H -0.2013 0.5128 -0.1437
C20 C -0.0422(2) 0.48185(11) 0.19709(9)
H12 H 0.0234 0.5171 0.2159
C21 C 0.3176(2) 0.47870(11) 0.10048(9)
H13 H 0.2514 0.4674 0.1324
C22 C 0.4064(2) 0.23596(12) 0.25056(9)
H14 H 0.4877 0.2373 0.2231
C23 C 0.1715(2) 0.23201(12) 0.33126(9)
H15 H 0.0905 0.2307 0.3588
C24 C -0.2477(2) -0.04648(12) 0.17543(10)
H16 H -0.2291 -0.0951 0.1586
C25 C 0.1420(2) 0.24326(11) 0.27133(9)
H17 H 0.0408 0.2495 0.2583
C26 C -0.0199(2) 0.42583(11) -0.07925(8)
H18 H -0.1073 0.3990 -0.0969
H19 H 0.0693 0.4170 -0.1048
C27 C 0.3396(2) 0.30728(10) 0.13082(8)
H20 H 0.4133 0.3364 0.1555
C28 C 0.2347(2) 0.25631(10) 0.16437(8)
C29 C 0.5093(3) 0.51322(13) 0.00714(10)
H21 H 0.5746 0.5250 -0.0250
C30 C 0.1185(2) 0.34689(10) -0.01208(8)
C31 C 0.3625(2) 0.42101(11) 0.06199(8)
C32 C -0.3615(3) -0.03817(12) 0.21724(10)
H22 H -0.4207 -0.0807 0.2288
C33 C -0.2842(3) 0.65468(12) -0.15660(10)
C34 C -0.0522(2) 0.50947(10) -0.07470(8)
C35 C 0.4590(3) 0.43892(12) 0.01520(9)
H23 H 0.4906 0.4001 -0.0114
C36 C -0.1781(3) 0.50631(11) 0.17411(11)
H24 H -0.2059 0.5584 0.1771
C37 C -0.1101(2) 0.66593(10) -0.06970(9)
H25 H -0.1299 0.7190 -0.0680
C38 C 0.3688(2) 0.55266(12) 0.09243(10)
H26 H 0.3382 0.5916 0.1190
C39 C -0.2739(2) 0.45507(12) 0.14680(10)
H27 H -0.3669 0.4721 0.1307
C40 C 0.4356(2) 0.22461(13) 0.31038(10)
H28 H 0.5365 0.2181 0.3236
C41 C 0.4647(3) 0.56983(12) 0.04569(11)
H29 H 0.4995 0.6205 0.0402
C42 C -0.3879(2) 0.03251(13) 0.24192(10)
H30 H -0.4667 0.0386 0.2701
loop_
_geom_bond_atom_site_label_1
_geom_bond_atom_site_label_2
_geom_bond_site_symmetry_1
_geom_bond_site_symmetry_2
F1 C17 1_555 1_555
F2 C33 1_555 1_555
O1 C26 1_555 1_555
F3 C17 1_555 1_555
O2 C30 1_555 1_555
N1 N2 1_555 1_555
O3 C18 1_555 1_555
F4 C17 1_555 1_555
O4 C27 1_555 1_555
C1 C5 1_555 1_555
F5 C33 1_555 1_555
N2 C5 1_555 1_555
F6 C33 1_555 1_555
C2 C22 1_555 1_555
C3 C4 1_555 1_555
C4 H1 1_555 1_555
H2 C4 1_555 1_555
C5 C3 1_555 1_555
C6 H3 1_555 1_555
C7 H4 1_555 1_555
C8 H5 1_555 1_555
C9 C1 1_555 1_555
H6 C9 1_555 1_555
C10 N1 1_555 1_555
C11 C4 1_555 1_555
H7 C11 1_555 1_555
C12 C13 1_555 1_555
C13 H8 1_555 1_555
C14 C1 1_555 1_555
H9 C14 1_555 1_555
C15 C11 1_555 1_555
H10 C15 1_555 1_555
C16 C19 1_555 1_555
C17 C12 1_555 1_555
C18 N1 1_555 1_555
C19 H11 1_555 1_555
C20 C14 1_555 1_555
H12 C20 1_555 1_555
C21 H13 1_555 1_555
C22 H14 1_555 1_555
C23 C7 1_555 1_555
H15 C23 1_555 1_555
C24 C8 1_555 1_555
H16 C24 1_555 1_555
C25 C2 1_555 1_555
H17 C25 1_555 1_555
C26 H18 1_555 1_555
H19 C26 1_555 1_555
C27 C15 1_555 1_555
H20 C27 1_555 1_555
C28 O4 1_555 1_555
C29 H21 1_555 1_555
C30 O1 1_555 1_555
C31 C15 1_555 1_555
C32 C24 1_555 1_555
H22 C32 1_555 1_555
C33 C16 1_555 1_555
C34 C13 1_555 1_555
C35 C29 1_555 1_555
H23 C35 1_555 1_555
C36 C20 1_555 1_555
H24 C36 1_555 1_555
C37 C12 1_555 1_555
H25 C37 1_555 1_555
C38 C21 1_555 1_555
H26 C38 1_555 1_555
C39 C9 1_555 1_555
H27 C39 1_555 1_555
C40 C7 1_555 1_555
H28 C40 1_555 1_555
C41 C29 1_555 1_555
H29 C41 1_555 1_555
C42 C6 1_555 1_555
H30 C42 1_555 1_555
C2 C28 1_555 1_555
C3 C18 1_555 1_555
C3 C28 1_555 1_555
C6 C10 1_555 1_555
C8 C10 1_555 1_555
C11 C30 1_555 1_555
C16 C37 1_555 1_555
C19 C34 1_555 1_555
C21 C31 1_555 1_555
C22 C40 1_555 1_555
C23 C25 1_555 1_555
C26 C34 1_555 1_555
C27 C28 1_555 1_555
C31 C35 1_555 1_555
C32 C42 1_555 1_555
C36 C39 1_555 1_555
C38 C41 1_555 1_555

#END
