
#######################################################################
#
#                 Cambridge Crystallographic Data Centre
#                                CCDC 
#
#######################################################################
#
# If this CIF has been generated from an entry in the Cambridge 
# Structural Database, then it will include bibliographic, chemical, 
# crystal, experimental, refinement or atomic coordinate data resulting 
# from the CCDC's data processing and validation procedures.
#
#######################################################################

data_JECCUS
_chemical_formula_moiety         'C21 H56 N6 Si4 Sr1'
_chemical_name_systematic        
(N-(dimethylsilyl)-1,1-dimethyl-1-(4,7,10-trimethyl-1,4,7,10-tetraazacyclododecan-1-yl)silanaminato)-(N,N-bis(trimethylsilyl)amino)-strontium
_symmetry_cell_setting           orthorhombic
_symmetry_space_group_name_H-M   'P 21 21 21'
_symmetry_Int_Tables_number      19
_space_group_name_Hall           'P 2ac 2ab'
loop_
_symmetry_equiv_pos_site_id
_symmetry_equiv_pos_as_xyz
1 x,y,z
2 1/2-x,-y,1/2+z
3 1/2+x,1/2-y,-z
4 -x,1/2+y,1/2-z
_cell_length_a                   10.6835(18)
_cell_length_b                   17.274(3)
_cell_length_c                   17.745(3)
_cell_angle_alpha                90
_cell_angle_beta                 90
_cell_angle_gamma                90
_cell_volume                     3274.78
_exptl_crystal_colour            colorless
_exptl_crystal_description       block
_cell_formula_units_Z            4
_chemical_properties_physical    
Air-sensitive,Moisture-sensitive,Oxygen-sensitive
_exptl_crystal_recrystallization_method tetrahydrofuran/pentane
loop_
_atom_site_label
_atom_site_type_symbol
_atom_site_fract_x
_atom_site_fract_y
_atom_site_fract_z
Sr1 Sr 0.41193(5) -0.00244(5) 0.11580(4)
Si1 Si 0.42579(19) -0.18559(13) 0.07230(14)
Si2 Si 0.18787(18) -0.16920(15) 0.16240(15)
H1 H 0.175(7) -0.252(4) 0.158(5)
Si3 Si 0.17332(19) 0.10079(15) 0.02978(15)
Si4 Si 0.16379(18) 0.12345(15) 0.19670(15)
N1 N 0.5627(5) -0.1244(4) 0.0699(4)
N2 N 0.5728(5) -0.0453(4) 0.2265(4)
N3 N 0.5877(5) 0.1105(4) 0.1489(4)
N4 N 0.5817(6) 0.0324(4) -0.0066(4)
N5 N 0.3258(5) -0.1378(4) 0.1278(4)
N6 N 0.2214(5) 0.0839(4) 0.1176(4)
C1 C 0.6568(7) -0.1380(5) 0.1292(5)
H2 H 0.7292 -0.1035 0.1198
H3 H 0.6868 -0.1920 0.1249
C2 C 0.6124(8) -0.1250(5) 0.2084(5)
H4 H 0.5411 -0.1602 0.2181
H5 H 0.6807 -0.1398 0.2433
C3 C 0.6799(6) 0.0070(6) 0.2318(5)
H6 H 0.7403 -0.0057 0.1913
H7 H 0.7224 -0.0012 0.2808
C4 C 0.6428(7) 0.0904(6) 0.2251(6)
H8 H 0.7173 0.1232 0.2341
H9 H 0.5805 0.1025 0.2647
C5 C 0.6873(7) 0.1140(5) 0.0925(5)
H10 H 0.7461 0.0706 0.1012
H11 H 0.7344 0.1629 0.0992
C6 C 0.6401(7) 0.1099(6) 0.0133(6)
H12 H 0.7105 0.1201 -0.0216
H13 H 0.5770 0.1511 0.0057
C7 C 0.6781(7) -0.0283(5) -0.0105(5)
H14 H 0.7397 -0.0198 0.0303
H15 H 0.7230 -0.0238 -0.0592
C8 C 0.6251(7) -0.1097(5) -0.0035(6)
H16 H 0.5640 -0.1183 -0.0445
H17 H 0.6939 -0.1475 -0.0100
C9 C 0.5112(7) -0.0500(5) 0.3007(5)
H18 H 0.4334 -0.0796 0.2961
H19 H 0.4921 0.0024 0.3187
H20 H 0.5671 -0.0757 0.3366
C10 C 0.5245(7) 0.1866(5) 0.1551(5)
H21 H 0.5833 0.2248 0.1755
H22 H 0.4523 0.1820 0.1889
H23 H 0.4962 0.2032 0.1052
C11 C 0.5242(7) 0.0409(5) -0.0823(5)
H24 H 0.5885 0.0564 -0.1187
H25 H 0.4586 0.0805 -0.0803
H26 H 0.4876 -0.0086 -0.0978
C12 C 0.4727(8) -0.2848(5) 0.1044(6)
H27 H 0.4984 -0.2828 0.1574
H28 H 0.5426 -0.3034 0.0736
H29 H 0.4015 -0.3202 0.0991
C13 C 0.3690(7) -0.1961(5) -0.0262(5)
H30 H 0.2938 -0.2287 -0.0268
H31 H 0.4343 -0.2203 -0.0570
H32 H 0.3488 -0.1450 -0.0468
C14 C 0.0480(7) -0.1219(5) 0.1179(6)
H33 H 0.0538 -0.0656 0.1242
H34 H -0.0285 -0.1408 0.1422
H35 H 0.0457 -0.1345 0.0641
C15 C 0.1730(8) -0.1523(6) 0.2655(5)
H36 H 0.2476 -0.1722 0.2912
H37 H 0.0986 -0.1793 0.2845
H38 H 0.1648 -0.0967 0.2751
C16 C 0.2047(7) 0.0144(6) -0.0325(5)
H39 H 0.2936 0.0007 -0.0297
H40 H 0.1828 0.0272 -0.0847
H41 H 0.1539 -0.0295 -0.0155
C17 C 0.2566(8) 0.1860(5) -0.0145(6)
H42 H 0.2353 0.2334 0.0130
H43 H 0.2304 0.1912 -0.0672
H44 H 0.3472 0.1776 -0.0123
C18 C 0.0016(7) 0.1220(6) 0.0176(6)
H45 H -0.0471 0.0756 0.0298
H46 H -0.0146 0.1371 -0.0348
H47 H -0.0227 0.1643 0.0513
C19 C 0.0008(7) 0.0919(6) 0.2224(6)
H48 H -0.0564 0.1040 0.1809
H49 H -0.0263 0.1193 0.2679
H50 H 0.0001 0.0360 0.2318
C20 C 0.1588(8) 0.2319(5) 0.1937(6)
H51 H 0.2423 0.2520 0.1820
H52 H 0.1316 0.2518 0.2427
H53 H 0.0997 0.2487 0.1547
C21 C 0.2613(8) 0.0958(6) 0.2804(5)
H54 H 0.2528 0.0402 0.2899
H55 H 0.2329 0.1247 0.3248
H56 H 0.3493 0.1081 0.2704
loop_
_geom_bond_atom_site_label_1
_geom_bond_atom_site_label_2
_geom_bond_site_symmetry_1
_geom_bond_site_symmetry_2
Sr1 N1 1_555 1_555
Si1 N1 1_555 1_555
Si2 H1 1_555 1_555
Si3 N6 1_555 1_555
Si4 N6 1_555 1_555
N1 C1 1_555 1_555
N2 Sr1 1_555 1_555
N3 Sr1 1_555 1_555
N4 Sr1 1_555 1_555
N5 Sr1 1_555 1_555
N6 Sr1 1_555 1_555
C1 H2 1_555 1_555
H3 C1 1_555 1_555
C2 N2 1_555 1_555
H4 C2 1_555 1_555
H5 C2 1_555 1_555
C3 N2 1_555 1_555
H6 C3 1_555 1_555
H7 C3 1_555 1_555
C4 N3 1_555 1_555
H8 C4 1_555 1_555
H9 C4 1_555 1_555
C5 N3 1_555 1_555
H10 C5 1_555 1_555
H11 C5 1_555 1_555
C6 N4 1_555 1_555
H12 C6 1_555 1_555
H13 C6 1_555 1_555
C7 N4 1_555 1_555
H14 C7 1_555 1_555
H15 C7 1_555 1_555
C8 N1 1_555 1_555
H16 C8 1_555 1_555
H17 C8 1_555 1_555
C9 N2 1_555 1_555
H18 C9 1_555 1_555
H19 C9 1_555 1_555
H20 C9 1_555 1_555
C10 N3 1_555 1_555
H21 C10 1_555 1_555
H22 C10 1_555 1_555
H23 C10 1_555 1_555
C11 N4 1_555 1_555
H24 C11 1_555 1_555
H25 C11 1_555 1_555
H26 C11 1_555 1_555
C12 Si1 1_555 1_555
H27 C12 1_555 1_555
H28 C12 1_555 1_555
H29 C12 1_555 1_555
C13 Si1 1_555 1_555
H30 C13 1_555 1_555
H31 C13 1_555 1_555
H32 C13 1_555 1_555
C14 Si2 1_555 1_555
H33 C14 1_555 1_555
H34 C14 1_555 1_555
H35 C14 1_555 1_555
C15 Si2 1_555 1_555
H36 C15 1_555 1_555
H37 C15 1_555 1_555
H38 C15 1_555 1_555
C16 Si3 1_555 1_555
H39 C16 1_555 1_555
H40 C16 1_555 1_555
H41 C16 1_555 1_555
C17 Si3 1_555 1_555
H42 C17 1_555 1_555
H43 C17 1_555 1_555
H44 C17 1_555 1_555
C18 Si3 1_555 1_555
H45 C18 1_555 1_555
H46 C18 1_555 1_555
H47 C18 1_555 1_555
C19 Si4 1_555 1_555
H48 C19 1_555 1_555
H49 C19 1_555 1_555
H50 C19 1_555 1_555
C20 Si4 1_555 1_555
H51 C20 1_555 1_555
H52 C20 1_555 1_555
H53 C20 1_555 1_555
C21 Si4 1_555 1_555
H54 C21 1_555 1_555
H55 C21 1_555 1_555
H56 C21 1_555 1_555
Si1 N5 1_555 1_555
Si2 N5 1_555 1_555
C1 C2 1_555 1_555
C3 C4 1_555 1_555
C5 C6 1_555 1_555
C7 C8 1_555 1_555

#END
