
#######################################################################
#
#                 Cambridge Crystallographic Data Centre
#                                CCDC 
#
#######################################################################
#
# If this CIF has been generated from an entry in the Cambridge 
# Structural Database, then it will include bibliographic, chemical, 
# crystal, experimental, refinement or atomic coordinate data resulting 
# from the CCDC's data processing and validation procedures.
#
#######################################################################

data_JECKUA
_chemical_formula_moiety         'C26 H43 N1 O1 Si4'
_chemical_name_systematic        
3-{2-[1,1,1,3,3,3-hexamethyl-2-(trimethylsilyl)trisilan-2-yl]-1-(4-methoxyphenyl)ethyl}-1H-indole
_symmetry_cell_setting           monoclinic
_symmetry_space_group_name_H-M   'P 21/c'
_symmetry_Int_Tables_number      14
_space_group_name_Hall           '-P 2ybc'
loop_
_symmetry_equiv_pos_site_id
_symmetry_equiv_pos_as_xyz
1 x,y,z
2 -x,1/2+y,1/2-z
3 -x,-y,-z
4 x,1/2-y,1/2+z
_cell_length_a                   11.9398(6)
_cell_length_b                   9.9934(5)
_cell_length_c                   26.0387(14)
_cell_angle_alpha                90
_cell_angle_beta                 97.3820(10)
_cell_angle_gamma                90
_cell_volume                     3081.17
_exptl_crystal_colour            colorless
_cell_formula_units_Z            4
loop_
_atom_site_label
_atom_site_type_symbol
_atom_site_fract_x
_atom_site_fract_y
_atom_site_fract_z
Si1 Si 0.75439(4) 0.00246(5) 0.882762(19)
O1 O 1.28025(14) 0.52676(17) 0.93612(7)
C1 C 1.3842(2) 0.5245(4) 0.91713(13)
H1 H 1.4355 0.5844 0.9371
H2 H 1.3743 0.5522 0.8815
H3 H 1.4143 0.4353 0.9197
N1 N 0.93271(15) 0.08872(18) 0.71698(7)
H4 H 0.9550 0.0326 0.6954
Si2 Si 0.68658(6) -0.11905(7) 0.80821(2)
C2 C 1.19461(18) 0.4467(2) 0.91252(8)
Si3 Si 0.62036(5) 0.16335(7) 0.89965(3)
C3 C 1.0909(2) 0.4678(2) 0.92843(9)
H5 H 1.0826 0.5315 0.9537
Si4 Si 0.78519(5) -0.14463(6) 0.95361(2)
C4 C 0.99916(18) 0.3945(2) 0.90687(8)
H6 H 0.9290 0.4108 0.9176
C5 C 1.00801(15) 0.29695(18) 0.86963(7)
C6 C 1.11320(17) 0.2774(2) 0.85458(8)
H7 H 1.1220 0.2131 0.8296
C7 C 1.20707(18) 0.3516(2) 0.87591(8)
H8 H 1.2774 0.3364 0.8653
C8 C 0.90523(15) 0.21274(18) 0.84897(7)
H9 H 0.8383 0.2671 0.8524
C9 C 0.89802(15) 0.08746(19) 0.88315(7)
H10 H 0.9248 0.1123 0.9186
H11 H 0.9503 0.0215 0.8727
C10 C 0.94721(17) 0.0748(2) 0.76983(8)
H12 H 0.9826 0.0027 0.7877
C11 C 0.90243(15) 0.18154(18) 0.79230(7)
C12 C 0.85625(15) 0.26724(18) 0.75066(7)
C13 C 0.79823(17) 0.3891(2) 0.74825(8)
H13 H 0.7835 0.4316 0.7784
C14 C 0.7632(2) 0.4453(2) 0.70055(9)
H14 H 0.7236 0.5257 0.6987
C15 C 0.7862(2) 0.3836(3) 0.65523(9)
H15 H 0.7629 0.4244 0.6236
C16 C 0.8425(2) 0.2639(3) 0.65614(8)
H16 H 0.8572 0.2228 0.6257
C17 C 0.87700(17) 0.2062(2) 0.70394(8)
C18 C 0.5552(3) -0.2118(4) 0.82002(12)
H17 H 0.5713 -0.2669 0.8503
H18 H 0.5302 -0.2670 0.7906
H19 H 0.4970 -0.1488 0.8252
C19 C 0.6501(3) -0.0155(3) 0.74903(10)
H20 H 0.7158 0.0328 0.7417
H21 H 0.5916 0.0467 0.7546
H22 H 0.6242 -0.0725 0.7203
C20 C 0.7957(3) -0.2449(3) 0.79450(14)
H23 H 0.8157 -0.2997 0.8246
H24 H 0.8616 -0.1991 0.7861
H25 H 0.7656 -0.3002 0.7659
C21 C 0.5678(3) 0.2626(4) 0.84048(13)
H26 H 0.6301 0.3068 0.8278
H27 H 0.5144 0.3281 0.8490
H28 H 0.5318 0.2037 0.8142
C22 C 0.4954(3) 0.0813(4) 0.92174(15)
H29 H 0.4629 0.0196 0.8957
H30 H 0.4405 0.1480 0.9275
H31 H 0.5183 0.0338 0.9534
C23 C 0.6806(3) 0.2815(4) 0.95042(15)
H32 H 0.7455 0.3247 0.9397
H33 H 0.7025 0.2335 0.9821
H34 H 0.6250 0.3476 0.9559
C24 C 0.6679(3) -0.2650(3) 0.95893(13)
H35 H 0.6542 -0.3169 0.9277
H36 H 0.6007 -0.2166 0.9639
H37 H 0.6884 -0.3235 0.9878
C25 C 0.8065(3) -0.0491(3) 1.01565(10)
H38 H 0.7392 0.0005 1.0195
H39 H 0.8687 0.0115 1.0153
H40 H 0.8224 -0.1103 1.0441
C26 C 0.9192(3) -0.2381(4) 0.94943(14)
H41 H 0.9123 -0.2889 0.9179
H42 H 0.9337 -0.2977 0.9784
H43 H 0.9806 -0.1759 0.9498
loop_
_geom_bond_atom_site_label_1
_geom_bond_atom_site_label_2
_geom_bond_site_symmetry_1
_geom_bond_site_symmetry_2
Si1 Si2 1_555 1_555
O1 C1 1_555 1_555
C1 H1 1_555 1_555
H2 C1 1_555 1_555
H3 C1 1_555 1_555
N1 H4 1_555 1_555
Si2 C18 1_555 1_555
C2 O1 1_555 1_555
Si3 Si1 1_555 1_555
C3 C2 1_555 1_555
H5 C3 1_555 1_555
Si4 Si1 1_555 1_555
C4 C3 1_555 1_555
H6 C4 1_555 1_555
C5 C4 1_555 1_555
C6 C5 1_555 1_555
H7 C6 1_555 1_555
C7 C2 1_555 1_555
H8 C7 1_555 1_555
C8 C5 1_555 1_555
H9 C8 1_555 1_555
C9 Si1 1_555 1_555
H10 C9 1_555 1_555
H11 C9 1_555 1_555
C10 N1 1_555 1_555
H12 C10 1_555 1_555
C11 C8 1_555 1_555
C12 C11 1_555 1_555
C13 C12 1_555 1_555
H13 C13 1_555 1_555
C14 C13 1_555 1_555
H14 C14 1_555 1_555
C15 C14 1_555 1_555
H15 C15 1_555 1_555
C16 C15 1_555 1_555
H16 C16 1_555 1_555
C17 N1 1_555 1_555
C18 H17 1_555 1_555
H18 C18 1_555 1_555
H19 C18 1_555 1_555
C19 Si2 1_555 1_555
H20 C19 1_555 1_555
H21 C19 1_555 1_555
H22 C19 1_555 1_555
C20 Si2 1_555 1_555
H23 C20 1_555 1_555
H24 C20 1_555 1_555
H25 C20 1_555 1_555
C21 Si3 1_555 1_555
H26 C21 1_555 1_555
H27 C21 1_555 1_555
H28 C21 1_555 1_555
C22 Si3 1_555 1_555
H29 C22 1_555 1_555
H30 C22 1_555 1_555
H31 C22 1_555 1_555
C23 Si3 1_555 1_555
H32 C23 1_555 1_555
H33 C23 1_555 1_555
H34 C23 1_555 1_555
C24 Si4 1_555 1_555
H35 C24 1_555 1_555
H36 C24 1_555 1_555
H37 C24 1_555 1_555
C25 Si4 1_555 1_555
H38 C25 1_555 1_555
H39 C25 1_555 1_555
H40 C25 1_555 1_555
C26 Si4 1_555 1_555
H41 C26 1_555 1_555
H42 C26 1_555 1_555
H43 C26 1_555 1_555
C6 C7 1_555 1_555
C8 C9 1_555 1_555
C10 C11 1_555 1_555
C12 C17 1_555 1_555
C16 C17 1_555 1_555

#END
