
#######################################################################
#
#                 Cambridge Crystallographic Data Centre
#                                CCDC 
#
#######################################################################
#
# If this CIF has been generated from an entry in the Cambridge 
# Structural Database, then it will include bibliographic, chemical, 
# crystal, experimental, refinement or atomic coordinate data resulting 
# from the CCDC's data processing and validation procedures.
#
#######################################################################

data_JECPUC02
_chemical_compound_source        'Ainsliaea fragrans'
_chemical_formula_moiety         'C14 H14 O4'
_chemical_name_systematic        
2-(2-hydroxypropan-2-yl)-2,3-dihydro-7H-furo[3,2-g]chromen-7-one
_symmetry_cell_setting           monoclinic
_symmetry_space_group_name_H-M   'P 21'
_symmetry_Int_Tables_number      4
_space_group_name_Hall           'P 2yb'
loop_
_symmetry_equiv_pos_site_id
_symmetry_equiv_pos_as_xyz
1 x,y,z
2 -x,1/2+y,-z
_cell_length_a                   5.72240(10)
_cell_length_b                   13.8219(3)
_cell_length_c                   7.8652(2)
_cell_angle_alpha                90
_cell_angle_beta                 100.5080(10)
_cell_angle_gamma                90
_cell_volume                     611.661
_exptl_crystal_colour            colorless
_exptl_crystal_description       needles
_chemical_melting_point          '461 K'
_cell_formula_units_Z            2
_exptl_crystal_recrystallization_method methanol
loop_
_atom_site_label
_atom_site_type_symbol
_atom_site_fract_x
_atom_site_fract_y
_atom_site_fract_z
C1 C 1.2218(2) 0.28076(9) 0.34371(16)
C2 C 1.3008(3) 0.21732(11) 0.48735(19)
H1 H 1.4185 0.1719 0.4803
C3 C 1.2070(3) 0.22259(10) 0.63196(17)
H2 H 1.2588 0.1801 0.7226
C4 C 0.9270(2) 0.30340(9) 0.79709(16)
H3 H 0.9739 0.2631 0.8919
C5 C 0.7593(2) 0.37307(9) 0.80204(16)
C6 C 0.6910(2) 0.43381(9) 0.65917(16)
C7 C 0.7880(3) 0.42727(10) 0.51168(16)
H4 H 0.7428 0.4689 0.4185
C8 C 0.9567(2) 0.35540(9) 0.50925(15)
C9 C 1.0290(2) 0.29259(8) 0.64811(15)
C10 C 0.6256(3) 0.40448(11) 0.93979(18)
H5 H 0.7292 0.4374 1.0333
H6 H 0.5515 0.3498 0.9863
C11 C 0.4392(2) 0.47351(10) 0.84181(16)
H7 H 0.2888 0.4383 0.8104
C12 C 0.3930(2) 0.56617(10) 0.93511(15)
C13 C 0.2994(3) 0.53922(13) 1.0991(2)
H8 H 0.4187 0.5033 1.1752
H9 H 0.1589 0.5004 1.0688
H10 H 0.2620 0.5971 1.1561
C14 C 0.2150(3) 0.62951(13) 0.81827(18)
H11 H 0.1958 0.6894 0.8759
H12 H 0.0649 0.5967 0.7920
H13 H 0.2719 0.6424 0.7130
O1 O 1.05341(19) 0.34861(7) 0.36211(11)
O2 O 1.2873(2) 0.27957(8) 0.20593(13)
O3 O 0.52424(19) 0.49920(8) 0.68229(11)
O4 O 0.61086(18) 0.61619(8) 0.98994(12)
H14 H 0.6396 0.6501 0.9107
loop_
_geom_bond_atom_site_label_1
_geom_bond_atom_site_label_2
_geom_bond_site_symmetry_1
_geom_bond_site_symmetry_2
C1 C2 1_555 1_555
C2 H1 1_555 1_555
C3 C2 1_555 1_555
H2 C3 1_555 1_555
C4 H3 1_555 1_555
C5 C4 1_555 1_555
C6 C5 1_555 1_555
C7 C6 1_555 1_555
H4 C7 1_555 1_555
C8 C7 1_555 1_555
C9 C3 1_555 1_555
C10 C5 1_555 1_555
H5 C10 1_555 1_555
H6 C10 1_555 1_555
C11 C10 1_555 1_555
H7 C11 1_555 1_555
C12 C11 1_555 1_555
C13 C12 1_555 1_555
H8 C13 1_555 1_555
H9 C13 1_555 1_555
H10 C13 1_555 1_555
C14 C12 1_555 1_555
H11 C14 1_555 1_555
H12 C14 1_555 1_555
H13 C14 1_555 1_555
O1 C1 1_555 1_555
O2 C1 1_555 1_555
O3 C6 1_555 1_555
O4 C12 1_555 1_555
H14 O4 1_555 1_555
C4 C9 1_555 1_555
C8 C9 1_555 1_555
C8 O1 1_555 1_555
C11 O3 1_555 1_555

#END
