
#######################################################################
#
#                 Cambridge Crystallographic Data Centre
#                                CCDC 
#
#######################################################################
#
# If this CIF has been generated from an entry in the Cambridge 
# Structural Database, then it will include bibliographic, chemical, 
# crystal, experimental, refinement or atomic coordinate data resulting 
# from the CCDC's data processing and validation procedures.
#
#######################################################################

data_JECQOA
_chemical_formula_moiety         'C28 H23 Br1 N2 O3'
_chemical_name_systematic        
"ethyl 6'-bromo-2'-oxo-2-phenyl-1,1',2,2',4,9-hexahydrospiro[carbazole-3,3'-indole]-4-carboxylate unknown solvate"
_symmetry_cell_setting           monoclinic
_symmetry_space_group_name_H-M   'P 21'
_symmetry_Int_Tables_number      4
_space_group_name_Hall           'P 2yb'
loop_
_symmetry_equiv_pos_site_id
_symmetry_equiv_pos_as_xyz
1 x,y,z
2 -x,1/2+y,-z
_cell_length_a                   8.6541(2)
_cell_length_b                   10.3345(2)
_cell_length_c                   14.6137(4)
_cell_angle_alpha                90
_cell_angle_beta                 96.5887(18)
_cell_angle_gamma                90
_cell_volume                     1298.36
_exptl_crystal_colour            colorless
_exptl_crystal_description       bar
_chemical_melting_point          '278-279 deg.C'
_cell_formula_units_Z            2
loop_
_atom_site_label
_atom_site_type_symbol
_atom_site_fract_x
_atom_site_fract_y
_atom_site_fract_z
Br1 Br -0.34898(5) -0.14648(3) -0.41730(3)
N1 N -0.1351(3) 0.2002(2) -0.16973(17)
H1 H -0.0866 0.1477 -0.1308
N2 N -0.1024(3) 0.7611(3) -0.1480(2)
H2 H -0.1412 0.8104 -0.1091
C1 C -0.0721(4) 0.5965(3) -0.2433(2)
O1 O -0.0813(3) 0.3850(2) -0.08888(15)
C2 C -0.3258(4) 0.0231(3) -0.3689(2)
C3 C -0.2787(3) 0.2684(3) -0.2997(2)
C4 C -0.1388(3) 0.3294(3) -0.1577(2)
C5 C -0.2378(4) 0.0377(3) -0.2850(2)
H3 H -0.1937 -0.0328 -0.2522
C6 C -0.3661(4) 0.4728(3) -0.2191(2)
H4 H -0.4202 0.5057 -0.2770
C7 C -0.4596(4) 0.3530(5) -0.0841(2)
H5 H -0.3715 0.3822 -0.0475
C8 C -0.1693(4) 0.6485(3) -0.1855(2)
C9 C -0.3917(5) 0.1272(3) -0.4174(2)
H6 H -0.4526 0.1145 -0.4733
C10 C -0.3144(4) 0.5920(3) -0.1595(2)
H7 H -0.3959 0.6568 -0.1665
H8 H -0.2988 0.5666 -0.0952
C11 C -0.1699(4) 0.4998(3) -0.3926(2)
C12 C -0.1095(4) 0.4713(3) -0.2936(2)
H9 H -0.0130 0.4215 -0.2930
C13 C -0.2280(3) 0.3892(3) -0.2445(2)
C14 C -0.6167(4) 0.3466(4) -0.2259(3)
H10 H -0.6365 0.3698 -0.2876
C15 C 0.0575(4) 0.6802(3) -0.2443(2)
C16 C -0.3670(4) 0.2514(3) -0.3824(2)
H11 H -0.4102 0.3224 -0.4151
C17 C -0.2186(3) 0.1612(3) -0.2524(2)
C18 C -0.4830(3) 0.3903(3) -0.1743(2)
C19 C 0.0379(4) 0.7812(3) -0.1837(3)
C20 C 0.1942(5) 0.6770(4) -0.2882(3)
H12 H 0.2114 0.6108 -0.3289
C21 C 0.2790(5) 0.8733(5) -0.2098(4)
H13 H 0.3542 0.9377 -0.2001
C22 C -0.7218(5) 0.2684(4) -0.1865(4)
H14 H -0.8113 0.2400 -0.2222
C23 C -0.5631(5) 0.2730(5) -0.0455(4)
H15 H -0.5421 0.2467 0.0156
C24 C -0.6959(6) 0.2329(4) -0.0971(4)
H16 H -0.7676 0.1817 -0.0710
C25 C 0.1458(5) 0.8792(4) -0.1640(4)
H17 H 0.1306 0.9451 -0.1226
O2 O -0.2929(4) 0.5452(3) -0.41927(17)
O3 O -0.0647(4) 0.4661(4) -0.4477(2)
C26 C 0.2999(6) 0.7728(5) -0.2695(4)
H18 H 0.3905 0.7709 -0.2980
C27 C -0.1017(9) 0.4942(7) -0.5467(4)
H19 H -0.0425 0.4365 -0.5817
H20 H -0.2113 0.4777 -0.5648
C28 C -0.0677(13) 0.6235(9) -0.5682(5)
H21 H -0.0922 0.6374 -0.6332
H22 H 0.0409 0.6402 -0.5508
H23 H -0.1286 0.6810 -0.5352
loop_
_geom_bond_atom_site_label_1
_geom_bond_atom_site_label_2
_geom_bond_site_symmetry_1
_geom_bond_site_symmetry_2
Br1 C2 1_555 1_555
N1 H1 1_555 1_555
N2 H2 1_555 1_555
C1 C8 1_555 1_555
O1 C4 1_555 1_555
C2 C5 1_555 1_555
C3 C13 1_555 1_555
C4 N1 1_555 1_555
C5 H3 1_555 1_555
C6 H4 1_555 1_555
C7 H5 1_555 1_555
C8 N2 1_555 1_555
C9 C2 1_555 1_555
H6 C9 1_555 1_555
C10 C6 1_555 1_555
H7 C10 1_555 1_555
H8 C10 1_555 1_555
C11 C12 1_555 1_555
C12 C1 1_555 1_555
H9 C12 1_555 1_555
C13 C4 1_555 1_555
C14 H10 1_555 1_555
C15 C1 1_555 1_555
C16 C3 1_555 1_555
H11 C16 1_555 1_555
C17 N1 1_555 1_555
C18 C6 1_555 1_555
C19 N2 1_555 1_555
C20 C15 1_555 1_555
H12 C20 1_555 1_555
C21 H13 1_555 1_555
C22 C14 1_555 1_555
H14 C22 1_555 1_555
C23 C7 1_555 1_555
H15 C23 1_555 1_555
C24 C22 1_555 1_555
H16 C24 1_555 1_555
C25 C19 1_555 1_555
H17 C25 1_555 1_555
O2 C11 1_555 1_555
O3 C11 1_555 1_555
C26 C20 1_555 1_555
H18 C26 1_555 1_555
C27 O3 1_555 1_555
H19 C27 1_555 1_555
H20 C27 1_555 1_555
C28 C27 1_555 1_555
H21 C28 1_555 1_555
H22 C28 1_555 1_555
H23 C28 1_555 1_555
C3 C17 1_555 1_555
C5 C17 1_555 1_555
C6 C13 1_555 1_555
C7 C18 1_555 1_555
C8 C10 1_555 1_555
C9 C16 1_555 1_555
C12 C13 1_555 1_555
C14 C18 1_555 1_555
C15 C19 1_555 1_555
C21 C25 1_555 1_555
C21 C26 1_555 1_555
C23 C24 1_555 1_555

#END
