
#######################################################################
#
#                 Cambridge Crystallographic Data Centre
#                                CCDC 
#
#######################################################################
#
# If this CIF has been generated from an entry in the Cambridge 
# Structural Database, then it will include bibliographic, chemical, 
# crystal, experimental, refinement or atomic coordinate data resulting 
# from the CCDC's data processing and validation procedures.
#
#######################################################################

data_JECZUP
_chemical_name_common            
'2-(1-benzyl-3-phenyl-1H-pyrazol-5-yl)-5-(4- nitrobenzylthio)-1,3,4-oxadiazole'
_chemical_formula_moiety         'C25 H19 N5 O3 S1'
_chemical_name_systematic        
2-(1-benzyl-3-phenyl-1H-pyrazol-5-yl)-5-{[(4-nitrophenyl)methyl]sulfanyl}-1,3,4-oxadiazole
_symmetry_cell_setting           monoclinic
_symmetry_space_group_name_H-M   'P 21/c'
_symmetry_Int_Tables_number      14
_space_group_name_Hall           '-P 2ybc'
loop_
_symmetry_equiv_pos_site_id
_symmetry_equiv_pos_as_xyz
1 x,y,z
2 -x,1/2+y,1/2-z
3 -x,-y,-z
4 x,1/2-y,1/2+z
_cell_length_a                   16.715(2)
_cell_length_b                   11.2677(15)
_cell_length_c                   12.6490(17)
_cell_angle_alpha                90
_cell_angle_beta                 110.818(2)
_cell_angle_gamma                90
_cell_volume                     2226.78
_exptl_crystal_colour            colorless
_exptl_crystal_description       block
_cell_formula_units_Z            4
loop_
_atom_site_label
_atom_site_type_symbol
_atom_site_fract_x
_atom_site_fract_y
_atom_site_fract_z
C1 C 0.69047(13) 0.81330(19) 0.57214(18)
C2 C 0.73757(16) 0.7629(2) 0.67605(19)
H1 H 0.7094 0.7284 0.7198
C3 C 0.82537(17) 0.7639(2) 0.7144(2)
H2 H 0.8560 0.7294 0.7838
C4 C 0.86874(17) 0.8148(3) 0.6522(2)
H3 H 0.9283 0.8156 0.6793
C5 C 0.82338(16) 0.8644(3) 0.5496(2)
H4 H 0.8522 0.8988 0.5066
C6 C 0.73495(14) 0.8636(2) 0.5094(2)
H5 H 0.7049 0.8972 0.4394
C7 C 0.59664(13) 0.81612(18) 0.53056(17)
C8 C 0.53994(13) 0.87462(18) 0.43681(16)
H6 H 0.5537 0.9203 0.3844
C9 C 0.45989(13) 0.85112(18) 0.43770(16)
C10 C 0.37760(13) 0.88568(18) 0.35780(16)
C11 C 0.29425(14) 0.96622(19) 0.20685(17)
C12 C 0.40620(15) 0.73272(19) 0.57105(18)
H7 H 0.4270 0.6584 0.6097
H8 H 0.3542 0.7159 0.5074
C13 C 0.38511(16) 0.81563(19) 0.65103(18)
C14 C 0.30147(18) 0.8438(2) 0.6342(2)
H9 H 0.2578 0.8136 0.5716
C15 C 0.2814(2) 0.9165(3) 0.7093(3)
H10 H 0.2246 0.9347 0.6972
C16 C 0.3452(3) 0.9615(3) 0.8011(3)
H11 H 0.3317 1.0100 0.8519
C17 C 0.4290(3) 0.9353(3) 0.8188(2)
H12 H 0.4723 0.9669 0.8809
C18 C 0.44936(18) 0.8619(2) 0.7441(2)
H13 H 0.5063 0.8437 0.7567
C19 C 0.15511(15) 1.0298(2) 0.0300(2)
H14 H 0.1343 1.0473 0.0908
H15 H 0.1306 1.0882 -0.0290
C20 C 0.12273(14) 0.9093(2) -0.01682(18)
C21 C 0.07051(16) 0.8456(3) 0.0251(2)
H16 H 0.0583 0.8752 0.0864
C22 C 0.03604(16) 0.7391(3) -0.0217(2)
H17 H 0.0007 0.6967 0.0071
C23 C 0.05456(14) 0.6962(2) -0.11166(18)
C24 C 0.10822(15) 0.7555(3) -0.1537(2)
H18 H 0.1214 0.7243 -0.2137
C25 C 0.14214(15) 0.8615(3) -0.10595(19)
H19 H 0.1789 0.9023 -0.1337
N1 N 0.55387(12) 0.75836(16) 0.58665(14)
N2 N 0.47038(11) 0.78019(15) 0.52856(14)
N3 N 0.30126(11) 0.86406(17) 0.35354(14)
N4 N 0.24527(11) 0.91708(18) 0.25261(15)
N5 N 0.01303(14) 0.5867(2) -0.1677(2)
O1 O 0.37939(8) 0.95170(12) 0.26730(11)
O2 O -0.03015(15) 0.5310(2) -0.12505(17)
O3 O 0.02109(13) 0.55763(19) -0.25589(18)
S1 S 0.27062(4) 1.04711(6) 0.08351(5)
loop_
_geom_bond_atom_site_label_1
_geom_bond_atom_site_label_2
_geom_bond_site_symmetry_1
_geom_bond_site_symmetry_2
C1 C2 1_555 1_555
C2 H1 1_555 1_555
C3 C2 1_555 1_555
H2 C3 1_555 1_555
C4 C3 1_555 1_555
H3 C4 1_555 1_555
C5 C4 1_555 1_555
H4 C5 1_555 1_555
C6 C1 1_555 1_555
H5 C6 1_555 1_555
C7 C1 1_555 1_555
C8 C7 1_555 1_555
H6 C8 1_555 1_555
C9 C8 1_555 1_555
C10 C9 1_555 1_555
C11 N4 1_555 1_555
C12 H7 1_555 1_555
H8 C12 1_555 1_555
C13 C12 1_555 1_555
C14 C13 1_555 1_555
H9 C14 1_555 1_555
C15 C14 1_555 1_555
H10 C15 1_555 1_555
C16 C15 1_555 1_555
H11 C16 1_555 1_555
C17 C16 1_555 1_555
H12 C17 1_555 1_555
C18 C13 1_555 1_555
H13 C18 1_555 1_555
C19 H14 1_555 1_555
H15 C19 1_555 1_555
C20 C19 1_555 1_555
C21 C20 1_555 1_555
H16 C21 1_555 1_555
C22 C21 1_555 1_555
H17 C22 1_555 1_555
C23 C22 1_555 1_555
C24 C23 1_555 1_555
H18 C24 1_555 1_555
C25 C20 1_555 1_555
H19 C25 1_555 1_555
N1 C7 1_555 1_555
N2 C9 1_555 1_555
N3 C10 1_555 1_555
N4 N3 1_555 1_555
N5 C23 1_555 1_555
O1 C10 1_555 1_555
O2 N5 1_555 1_555
O3 N5 1_555 1_555
S1 C11 1_555 1_555
C5 C6 1_555 1_555
C11 O1 1_555 1_555
C12 N2 1_555 1_555
C17 C18 1_555 1_555
C19 S1 1_555 1_555
C24 C25 1_555 1_555
N1 N2 1_555 1_555

#END
