
#######################################################################
#
#                 Cambridge Crystallographic Data Centre
#                                CCDC 
#
#######################################################################
#
# If this CIF has been generated from an entry in the Cambridge 
# Structural Database, then it will include bibliographic, chemical, 
# crystal, experimental, refinement or atomic coordinate data resulting 
# from the CCDC's data processing and validation procedures.
#
#######################################################################

data_JEDBUS
_chemical_formula_moiety         'C3 H1 I2 N3 O2,0.5(H2 O1)'
_chemical_name_systematic        '2,5-diiodo-4-nitro-1H-imidazole hemihydrate'
_symmetry_cell_setting           orthorhombic
_symmetry_space_group_name_H-M   'P n a 21'
_symmetry_Int_Tables_number      33
_space_group_name_Hall           'P 2c -2n'
loop_
_symmetry_equiv_pos_site_id
_symmetry_equiv_pos_as_xyz
1 x,y,z
2 -x,-y,1/2+z
3 1/2-x,1/2+y,1/2+z
4 1/2+x,1/2-y,z
_cell_length_a                   16.6477(8)
_cell_length_b                   8.1899(4)
_cell_length_c                   12.2143(6)
_cell_angle_alpha                90
_cell_angle_beta                 90
_cell_angle_gamma                90
_cell_volume                     1665.33
_exptl_crystal_colour            colorless
_exptl_crystal_description       block
_chemical_melting_point          '498.2 K'
_cell_formula_units_Z            8
loop_
_atom_site_label
_atom_site_type_symbol
_atom_site_fract_x
_atom_site_fract_y
_atom_site_fract_z
I1 I -0.14312(5) -0.88353(9) 0.40901(6)
I2 I -0.44147(5) -0.55554(9) 0.23468(7)
N1 N -0.2932(6) -0.7256(11) 0.3181(8)
H1 H -0.2788 -0.7496 0.2507
N2 N -0.2894(5) -0.7149(11) 0.5013(7)
C1 C -0.3610(6) -0.6420(15) 0.3484(10)
C2 C -0.3571(7) -0.6371(13) 0.4624(10)
C3 C -0.2519(6) -0.7651(13) 0.4110(10)
O1 O -0.3993(5) -0.5673(11) 0.6331(8)
N3 N -0.4131(6) -0.5641(11) 0.5348(9)
O2 O -0.4750(5) -0.5059(11) 0.4962(8)
I3 I -0.36380(4) -0.88314(10) -0.18561(7)
I4 I -0.07061(5) -0.53633(10) -0.36457(7)
N4 N -0.2201(6) -0.7017(11) -0.2809(9)
H2 H -0.2394 -0.7089 -0.3478
N5 N -0.2107(5) -0.7342(11) -0.0995(8)
C4 C -0.1437(7) -0.6494(16) -0.1412(11)
C5 C -0.2544(6) -0.7631(13) -0.1870(9)
C6 C -0.1511(7) -0.6283(13) -0.2503(11)
O3 O -0.0343(5) -0.4983(11) -0.1007(8)
O4 O -0.0848(6) -0.6476(14) 0.0278(7)
N6 N -0.0841(7) -0.5957(13) -0.0647(9)
O5 O -0.2339(5) -0.8185(12) 0.1276(8)
H3 H -0.2006 -0.8961 0.1364
H4 H -0.2264 -0.7756 0.0650
loop_
_geom_bond_atom_site_label_1
_geom_bond_atom_site_label_2
_geom_bond_site_symmetry_1
_geom_bond_site_symmetry_2
I1 C3 1_555 1_555
I2 C1 1_555 1_555
N1 H1 1_555 1_555
N2 C2 1_555 1_555
C1 N1 1_555 1_555
C2 C1 1_555 1_555
C3 N1 1_555 1_555
O1 N3 1_555 1_555
N3 C2 1_555 1_555
O2 N3 1_555 1_555
I3 C5 1_555 1_555
I4 C6 1_555 1_555
N4 H2 1_555 1_555
N5 C4 1_555 1_555
C4 C6 1_555 1_555
C5 N4 1_555 1_555
C6 N4 1_555 1_555
O3 N6 1_555 1_555
O4 N6 1_555 1_555
N6 C4 1_555 1_555
O5 H3 1_555 1_555
H4 O5 1_555 1_555
N2 C3 1_555 1_555
N5 C5 1_555 1_555

#END
