
#######################################################################
#
#                 Cambridge Crystallographic Data Centre
#                                CCDC 
#
#######################################################################
#
# If this CIF has been generated from an entry in the Cambridge 
# Structural Database, then it will include bibliographic, chemical, 
# crystal, experimental, refinement or atomic coordinate data resulting 
# from the CCDC's data processing and validation procedures.
#
#######################################################################

data_JEDQER
_chemical_formula_moiety         'C24 H24 N5 O1 1+,C2 H6 O1,C1 H3 O3 S1 1-'
_chemical_name_systematic        
'4-{[(3-{[4-(1-cyanocyclopentyl)phenyl]carbamoyl}pyridin-2-yl)amino]methyl}pyridinium methanesulfonate ethanol solvate'
_symmetry_cell_setting           monoclinic
_symmetry_space_group_name_H-M   'C c'
_symmetry_Int_Tables_number      9
_space_group_name_Hall           'C -2yc'
loop_
_symmetry_equiv_pos_site_id
_symmetry_equiv_pos_as_xyz
1 x,y,z
2 x,-y,1/2+z
3 1/2+x,1/2+y,z
4 1/2+x,1/2-y,1/2+z
_cell_length_a                   9.0304(9)
_cell_length_b                   15.9901(15)
_cell_length_c                   18.9833(19)
_cell_angle_alpha                90
_cell_angle_beta                 99.722(8)
_cell_angle_gamma                90
_cell_volume                     2701.77
_exptl_crystal_colour            'light white'
_exptl_crystal_description       block
_cell_formula_units_Z            4
loop_
_atom_site_label
_atom_site_type_symbol
_atom_site_fract_x
_atom_site_fract_y
_atom_site_fract_z
S1 S 0.81295(15) 0.66939(9) 0.75165(7)
O1 O 0.7373(4) 0.7243(3) 0.6951(2)
O2 O 0.9468(4) 0.7080(3) 0.7889(2)
O3 O 0.7105(5) 0.6403(2) 0.7968(2)
C1 C 0.8563(11) 0.5834(6) 0.7024(6)
H1 H 0.7650 0.5636 0.6716
H2 H 0.8976 0.5386 0.7351
H3 H 0.9307 0.5998 0.6729
O4 O 0.6556(4) 0.6719(2) 0.53141(19)
N1 N 0.5176(5) 0.6983(3) 0.4229(2)
H7 H 0.5148 0.7247 0.3820
N2 N 0.8891(5) 0.7760(3) 0.5747(2)
H8 H 0.8301 0.7374 0.5880
N3 N 1.4439(6) 0.7455(4) 0.6731(3)
H9 H 1.5392 0.7311 0.6827
N4 N 0.9913(5) 0.8404(3) 0.4866(2)
C3 C 0.7746(6) 0.7753(3) 0.3801(3)
H10 H 0.7004 0.7533 0.3432
C4 C -0.1327(8) 0.4501(3) 0.5471(4)
H11 H -0.2356 0.4473 0.5192
H12 H -0.1372 0.4449 0.5986
C5 C -0.0531(7) 0.5279(3) 0.5313(3)
H13 H 0.0391 0.5364 0.5669
H14 H -0.1190 0.5774 0.5316
C6 C -0.0134(6) 0.5134(3) 0.4551(3)
C7 C 0.1279(6) 0.5607(3) 0.4448(3)
C8 C 0.1214(6) 0.6389(3) 0.4117(3)
H15 H 0.0261 0.6622 0.3930
C9 C 0.2496(6) 0.6833(3) 0.4054(3)
H16 H 0.2412 0.7361 0.3821
C10 C 0.3894(6) 0.6519(3) 0.4327(3)
C11 C 0.6454(6) 0.7051(3) 0.4724(3)
C12 C 0.7680(5) 0.7567(3) 0.4514(3)
C13 C 0.8833(6) 0.7913(3) 0.5035(3)
C14 C 0.9895(6) 0.8215(3) 0.6287(3)
H17 H 0.9486 0.8192 0.6738
H18 H 0.9895 0.8809 0.6140
C15 C 1.1495(6) 0.7914(3) 0.6434(3)
C16 C 1.2468(7) 0.8296(4) 0.6990(3)
H19 H 1.2113 0.8715 0.7276
C17 C 1.3932(7) 0.8058(4) 0.7115(4)
H20 H 1.4609 0.8325 0.7484
C18 C 1.2029(6) 0.7280(4) 0.6054(3)
H21 H 1.1366 0.6993 0.5692
C19 C 0.9906(7) 0.8562(3) 0.4173(3)
H22 H 1.0671 0.8916 0.4052
C20 C 0.8872(6) 0.8249(3) 0.3628(3)
H23 H 0.8930 0.8372 0.3143
C21 C 0.2705(7) 0.5299(3) 0.4721(3)
H24 H 0.2795 0.4772 0.4955
C22 C 0.3982(6) 0.5740(3) 0.4659(3)
H25 H 0.4939 0.5511 0.4845
C23 C -0.0030(7) 0.4162(3) 0.4504(3)
H26 H -0.0809 0.3946 0.4117
H27 H 0.0969 0.3994 0.4404
C24 C -0.1393(7) 0.5409(3) 0.4013(3)
N5 N -0.2388(7) 0.5609(3) 0.3579(3)
C25 C 1.3520(7) 0.7065(4) 0.6200(3)
H28 H 1.3902 0.6643 0.5927
C26 C -0.0270(15) 0.3817(6) 0.5219(6)
H29 H 0.0690 0.3771 0.5556
H30 H -0.0765 0.3263 0.5166
C28 C 0.4003(8) 0.5262(4) 0.2644(4)
H37 H 0.3992 0.5009 0.3119
H38 H 0.4460 0.5825 0.2717
O5 O 0.4875(7) 0.4754(4) 0.2247(3)
H39 H 0.5315 0.4379 0.2515
C29 C 0.2506(10) 0.5331(6) 0.2265(6)
H40 H 0.2530 0.5481 0.1766
H41 H 0.1971 0.5765 0.2486
H42 H 0.1988 0.4795 0.2281
C2? C 0.918(3) 0.5854(17) 0.7272(16)
H4? H 0.8502 0.5409 0.7061
H5? H 0.9844 0.5639 0.7696
H6? H 0.9790 0.6044 0.6921
H31? H -0.1033 0.4354 0.5982
H32? H -0.2426 0.4596 0.5374
C27? C -0.094(2) 0.3808(8) 0.5025(9)
H33? H -0.1868 0.3545 0.4765
H34? H -0.0356 0.3378 0.5327
H35? H -0.0432 0.3970 0.4014
H36? H 0.1029 0.3979 0.4629
loop_
_geom_bond_atom_site_label_1
_geom_bond_atom_site_label_2
_geom_bond_site_symmetry_1
_geom_bond_site_symmetry_2
S1 O1 1_555 1_555
O2 S1 1_555 1_555
O3 S1 1_555 1_555
C1 S1 1_555 1_555
H1 C1 1_555 1_555
H2 C1 1_555 1_555
H3 C1 1_555 1_555
O4 C11 1_555 1_555
N1 H7 1_555 1_555
N2 H8 1_555 1_555
N3 H9 1_555 1_555
N4 C13 1_555 1_555
C3 H10 1_555 1_555
C4 H11 1_555 1_555
H12 C4 1_555 1_555
C5 C4 1_555 1_555
H13 C5 1_555 1_555
H14 C5 1_555 1_555
C6 C5 1_555 1_555
C7 C6 1_555 1_555
C8 C7 1_555 1_555
H15 C8 1_555 1_555
C9 C8 1_555 1_555
H16 C9 1_555 1_555
C10 N1 1_555 1_555
C11 N1 1_555 1_555
C12 C3 1_555 1_555
C13 N2 1_555 1_555
C14 N2 1_555 1_555
H17 C14 1_555 1_555
H18 C14 1_555 1_555
C15 C14 1_555 1_555
C16 C15 1_555 1_555
H19 C16 1_555 1_555
C17 N3 1_555 1_555
H20 C17 1_555 1_555
C18 C15 1_555 1_555
H21 C18 1_555 1_555
C19 N4 1_555 1_555
H22 C19 1_555 1_555
C20 C3 1_555 1_555
H23 C20 1_555 1_555
C21 C7 1_555 1_555
H24 C21 1_555 1_555
C22 C10 1_555 1_555
H25 C22 1_555 1_555
C23 C6 1_555 1_555
H26 C23 1_555 1_555
H27 C23 1_555 1_555
C24 C6 1_555 1_555
N5 C24 1_555 1_555
C25 N3 1_555 1_555
H28 C25 1_555 1_555
C26 C4 1_555 1_555
H29 C26 1_555 1_555
H30 C26 1_555 1_555
C28 H37 1_555 1_555
H38 C28 1_555 1_555
O5 C28 1_555 1_555
H39 O5 1_555 1_555
C29 C28 1_555 1_555
H40 C29 1_555 1_555
H41 C29 1_555 1_555
H42 C29 1_555 1_555
C9 C10 1_555 1_555
C11 C12 1_555 1_555
C12 C13 1_555 1_555
C16 C17 1_555 1_555
C18 C25 1_555 1_555
C19 C20 1_555 1_555
C21 C22 1_555 1_555
C23 C26 1_555 1_555

#END
