
#######################################################################
#
#                 Cambridge Crystallographic Data Centre
#                                CCDC 
#
#######################################################################
#
# If this CIF has been generated from an entry in the Cambridge 
# Structural Database, then it will include bibliographic, chemical, 
# crystal, experimental, refinement or atomic coordinate data resulting 
# from the CCDC's data processing and validation procedures.
#
#######################################################################

data_JEDWAT
_chemical_formula_moiety         'C21 H16 I1 N3 O1'
_chemical_name_systematic        
1-(3-iodo-2-phenoxyphenyl)-4-(4-methylphenyl)-1H-1,2,3-triazole
_symmetry_cell_setting           triclinic
_symmetry_space_group_name_H-M   'P -1'
_symmetry_Int_Tables_number      2
_space_group_name_Hall           '-P 1'
loop_
_symmetry_equiv_pos_site_id
_symmetry_equiv_pos_as_xyz
1 x,y,z
2 -x,-y,-z
_cell_length_a                   6.3464(2)
_cell_length_b                   9.1661(3)
_cell_length_c                   15.9388(6)
_cell_angle_alpha                88.1410(10)
_cell_angle_beta                 86.7690(10)
_cell_angle_gamma                83.7350(10)
_cell_volume                     919.862
_exptl_crystal_colour            yellow
_exptl_crystal_description       block
_cell_formula_units_Z            2
loop_
_atom_site_label
_atom_site_type_symbol
_atom_site_fract_x
_atom_site_fract_y
_atom_site_fract_z
I1 I 0.23292(2) -0.14890(2) 0.04220(2)
C1 C 0.0200(5) 0.4410(3) 0.10695(18)
H1 H -0.0147 0.5336 0.0828
C2 C 0.2225(5) 0.3708(3) 0.09407(17)
H2 H 0.3236 0.4166 0.0615
C3 C -0.1288(5) 0.3753(3) 0.1547(2)
H3 H -0.2646 0.4236 0.1633
C4 C -0.0799(4) 0.2368(3) 0.19080(18)
H4 H -0.1812 0.1921 0.2239
C5 C 0.2760(4) 0.2322(3) 0.12945(15)
H5 H 0.4125 0.1848 0.1214
C6 C 0.1226(3) 0.1665(2) 0.17658(13)
C7 C 0.3603(3) -0.0447(2) 0.20877(13)
C8 C 0.4276(4) -0.1350(2) 0.14247(14)
C9 C 0.4956(3) -0.0352(2) 0.27472(14)
C10 C 0.6928(4) -0.1180(3) 0.27381(17)
H6 H 0.7811 -0.1138 0.3181
C11 C 0.6266(4) -0.2144(3) 0.14072(16)
H7 H 0.6725 -0.2729 0.0952
C12 C 0.7564(4) -0.2064(3) 0.20678(18)
H8 H 0.8886 -0.2614 0.2060
N1 N 0.4372(3) 0.0613(2) 0.34185(12)
C13 C 0.2485(4) 0.0991(2) 0.38363(14)
H9 H 0.1176 0.0689 0.3730
C14 C 0.2913(3) 0.1907(3) 0.44474(14)
C15 C 0.1499(3) 0.2639(2) 0.51047(13)
C16 C -0.0496(4) 0.2185(3) 0.52941(16)
H10 H -0.0927 0.1410 0.5007
C17 C 0.2097(4) 0.3804(3) 0.55422(15)
H11 H 0.3422 0.4128 0.5422
C18 C 0.0741(4) 0.4483(3) 0.61531(15)
H12 H 0.1172 0.5254 0.6443
C19 C -0.1839(4) 0.2872(3) 0.59034(15)
H13 H -0.3165 0.2547 0.6022
C20 C -0.1276(4) 0.4033(3) 0.63451(16)
C21 C -0.2788(6) 0.4785(4) 0.6994(2)
H14 H -0.4144 0.5039 0.6760
H15 H -0.2242 0.5660 0.7164
H16 H -0.2944 0.4137 0.7474
N2 N 0.5921(4) 0.1286(4) 0.37515(18)
N3 N 0.5032(4) 0.2063(4) 0.43669(18)
O1 O 0.1587(2) 0.02752(16) 0.21402(10)
loop_
_geom_bond_atom_site_label_1
_geom_bond_atom_site_label_2
_geom_bond_site_symmetry_1
_geom_bond_site_symmetry_2
I1 C8 1_555 1_555
C1 H1 1_555 1_555
C2 C1 1_555 1_555
H2 C2 1_555 1_555
C3 C1 1_555 1_555
H3 C3 1_555 1_555
C4 C3 1_555 1_555
H4 C4 1_555 1_555
C5 C2 1_555 1_555
H5 C5 1_555 1_555
C6 C4 1_555 1_555
C7 C8 1_555 1_555
C8 C11 1_555 1_555
C9 C7 1_555 1_555
C10 C9 1_555 1_555
H6 C10 1_555 1_555
C11 H7 1_555 1_555
C12 C10 1_555 1_555
H8 C12 1_555 1_555
N1 C9 1_555 1_555
C13 N1 1_555 1_555
H9 C13 1_555 1_555
C14 C13 1_555 1_555
C15 C14 1_555 1_555
C16 C15 1_555 1_555
H10 C16 1_555 1_555
C17 C15 1_555 1_555
H11 C17 1_555 1_555
C18 C17 1_555 1_555
H12 C18 1_555 1_555
C19 C16 1_555 1_555
H13 C19 1_555 1_555
C20 C18 1_555 1_555
C21 C20 1_555 1_555
H14 C21 1_555 1_555
H15 C21 1_555 1_555
H16 C21 1_555 1_555
N2 N1 1_555 1_555
N3 C14 1_555 1_555
O1 C6 1_555 1_555
C5 C6 1_555 1_555
C7 O1 1_555 1_555
C11 C12 1_555 1_555
C19 C20 1_555 1_555
N2 N3 1_555 1_555

#END
