
#######################################################################
#
#                 Cambridge Crystallographic Data Centre
#                                CCDC 
#
#######################################################################
#
# If this CIF has been generated from an entry in the Cambridge 
# Structural Database, then it will include bibliographic, chemical, 
# crystal, experimental, refinement or atomic coordinate data resulting 
# from the CCDC's data processing and validation procedures.
#
#######################################################################

data_JEFRUH10
_chemical_formula_moiety         'C60 H80 Cl2 N4 O20 Rb2,C2 H6 O1'
_chemical_name_systematic        
'(\m~2~-1,7,10,16,17,23,26,32,35,38,43,46-Dodecaoxa-4,13,20,29-tetra-aza(16.8^4,13^.16.8^20,29^)(9,10)anthracenophane)-bis(perchlorato-O)-di-rubidium ethanol clathrate'
_symmetry_cell_setting           triclinic
_symmetry_space_group_name_H-M   'P -1'
_symmetry_Int_Tables_number      2
_space_group_name_Hall           '-P 1'
loop_
_symmetry_equiv_pos_site_id
_symmetry_equiv_pos_as_xyz
1 x,y,z
2 -x,-y,-z
_cell_length_a                   13.089(1)
_cell_length_b                   13.166(1)
_cell_length_c                   13.824(1)
_cell_angle_alpha                105.15(1)
_cell_angle_beta                 94.99(1)
_cell_angle_gamma                126.97(1)
_cell_volume                     1742.67
_exptl_crystal_colour            yellow
_cell_formula_units_Z            1
loop_
_atom_site_label
_atom_site_type_symbol
_atom_site_fract_x
_atom_site_fract_y
_atom_site_fract_z
O1 O 0.6267(9) 0.7474(10) 0.2444(6)
C1 C 0.4358(10) 0.5529(10) 0.0646(9)
C2 C 0.5074(17) 0.5913(15) 0.1882(13)
C3 C 0.4151(8) -0.1298(8) 0.3047(6)
C4 C 0.5529(7) -0.0306(8) 0.3587(6)
C5 C 0.6409(8) 0.0825(8) 0.3292(7)
C6 C 0.7721(9) 0.1725(9) 0.3840(7)
C7 C 0.8271(8) 0.1623(9) 0.4676(7)
C8 C 0.7473(8) 0.0577(8) 0.4993(7)
C9 C 0.6075(8) -0.0427(8) 0.4442(6)
C10 C 0.5189(8) -0.1578(8) 0.4727(6)
C11 C 0.3803(8) -0.2518(8) 0.4217(6)
C12 C 0.2908(8) -0.3586(8) 0.4556(7)
C13 C 0.1581(9) -0.4465(9) 0.4032(7)
C14 C 0.1053(8) -0.4362(9) 0.3199(7)
C15 C 0.1851(8) -0.3365(9) 0.2844(7)
C16 C 0.3257(7) -0.2406(8) 0.3357(6)
O2 O 0.3626(5) -0.1232(6) 0.2159(4)
C17 C 0.3753(9) -0.1879(9) 0.1218(7)
C18 C 0.3493(9) -0.1502(10) 0.0357(7)
N1 N 0.2190(7) -0.1835(7) 0.0076(5)
C19 C 0.1068(9) -0.3264(9) -0.0128(7)
C20 C -0.0157(9) -0.3453(9) 0.0007(7)
O3 O 0.0093(6) -0.2812(6) 0.1104(5)
C21 C -0.1074(9) -0.3227(10) 0.1407(8)
C22 C -0.0701(9) -0.2483(10) 0.2526(8)
O4 O -0.0022(6) -0.1078(6) 0.2721(5)
C23 C 0.0029(9) -0.0358(11) 0.3637(9)
C24 C 0.2029(10) -0.1543(11) -0.0857(7)
C25 C 0.2710(10) -0.0056(11) -0.0612(8)
O5 O 0.2051(6) 0.0289(6) -0.0056(5)
C26 C 0.2552(12) 0.1629(11) 0.0089(9)
C27 C 0.1908(11) 0.2017(11) 0.0704(9)
O6 O 0.2283(7) 0.2183(7) 0.1767(3)
C28 C 0.1857(11) 0.2754(11) 0.2435(8)
C29 C 0.2494(11) 0.3115(10) 0.3540(8)
N2 N 0.2078(7) 0.1916(7) 0.3791(6)
C30 C 0.0653(10) 0.1066(11) 0.3774(9)
O7 O 0.5754(5) -0.1699(5) 0.5525(4)
C31 C 0.5688(9) -0.2878(9) 0.5162(7)
C32 C 0.2975(10) 0.2459(10) 0.4854(7)
Rb1 Rb 0.2570(1) 0.0238(1) 0.2131(1)
O8 O 0.5349(8) 0.2286(8) 0.2135(8)
O9 O 0.6124(8) 0.3994(10) 0.1567(7)
O10 O 0.7536(8) 0.4046(10) 0.2699(9)
O11 O 0.6218(14) 0.4439(12) 0.3195(9)
Cl1 Cl 0.6337(2) 0.3704(3) 0.2403(2)
H1 H 0.5915(59) 0.0941(61) 0.2756(46)
H2 H 0.7971(64) 0.2279(67) 0.3701(50)
H3 H 0.9116(59) 0.2171(62) 0.5083(47)
H4 H 0.7989(50) 0.0576(52) 0.5641(39)
H5 H 0.3374(62) -0.3515(64) 0.5280(48)
H6 H 0.1221(70) -0.5024(72) 0.4339(54)
H7 H 0.0274(67) -0.4885(70) 0.2981(52)
H8 H 0.1473(68) -0.3235(71) 0.2390(53)
H9 H 0.4713(71) -0.1484(73) 0.1470(54)
H10 H 0.3126(64) -0.2937(67) 0.1036(50)
H11 H 0.4325(81) -0.0201(85) 0.0694(62)
H12 H 0.3590(85) -0.1864(89) -0.0159(66)
H13 H 0.0897(69) -0.3866(71) -0.0805(53)
H14 H 0.1487(68) -0.3402(71) 0.0436(53)
H15 H -0.0257(72) -0.2884(76) -0.0302(56)
H16 H -0.1019(92) -0.4473(95) -0.0362(72)
H17 H -0.1512(85) -0.2932(88) 0.1119(65)
H18 H -0.1487(79) -0.4021(82) 0.1173(61)
H19 H -0.1453(91) -0.2605(96) 0.2886(71)
H20 H 0.0182(78) -0.2362(81) 0.2969(60)
H21 H -0.0835(81) -0.0735(84) 0.3797(62)
H22 H 0.0808(93) -0.0270(97) 0.4253(71)
H23 H 0.0145(70) 0.0955(73) 0.3093(54)
H24 H 0.0669(82) 0.1581(85) 0.4399(62)
H25 H 0.2385(71) 0.3692(74) 0.3983(55)
H26 H 0.3689(80) 0.3804(83) 0.3835(62)
H27 H 0.0960(76) 0.1981(79) 0.2257(59)
H28 H 0.2318(81) 0.3711(85) 0.2527(63)
H29 H 0.0974(74) 0.1273(75) 0.0398(58)
H30 H 0.2413(80) 0.3085(83) 0.0912(61)
H31 H 0.2434(96) 0.1563(99) -0.0620(73)
H32 H 0.3694(91) 0.2391(96) 0.0738(71)
H33 H 0.2501(71) 0.0084(74) -0.1304(55)
H34 H 0.3833(88) 0.0666(90) -0.0080(67)
H35 H 0.1062(74) -0.1965(77) -0.1242(58)
H36 H 0.2458(80) -0.1753(84) -0.1436(63)
H37 H 0.3259(72) 0.3412(74) 0.5392(56)
H38 H 0.2510(73) 0.1731(75) 0.5178(56)
H39 H 0.5346(69) -0.3478(71) 0.5713(54)
H40 H 0.5047(77) -0.3529(79) 0.4382(59)
Rb1A Rb 0.7430(1) -0.0238(1) 0.7869(1)
C32A C 0.7025(10) -0.2459(10) 0.5146(7)
C31A C 0.4312(9) 0.2878(9) 0.4838(7)
O7A O 0.4246(5) 0.1699(5) 0.4475(4)
O2A O 0.6374(5) 0.1232(6) 0.7841(4)
N1A N 0.7810(7) 0.1835(7) 0.9924(5)
O3A O 0.9907(6) 0.2812(6) 0.8896(5)
O4A O 1.0022(6) 0.1078(6) 0.7279(5)
O5A O 0.7949(6) -0.0289(6) 1.0056(5)
O6A O 0.7717(7) -0.2183(7) 0.8233(3)
N2A N 0.7922(7) -0.1916(7) 0.6209(6)
O8A O 0.4651(8) -0.2286(8) 0.7865(8)
H37A H 0.6741(72) -0.3412(74) 0.4608(56)
H38A H 0.7490(73) -0.1731(75) 0.4822(56)
H39A H 0.4654(69) 0.3478(71) 0.4287(54)
H40A H 0.4953(77) 0.3529(79) 0.5618(59)
C10A C 0.4811(8) 0.1578(8) 0.5273(6)
C3A C 0.5849(8) 0.1298(8) 0.6953(6)
C17A C 0.6247(9) 0.1879(9) 0.8782(7)
C18A C 0.6507(9) 0.1502(10) 0.9643(7)
C19A C 0.8932(9) 0.3264(9) 1.0128(7)
C24A C 0.7971(10) 0.1543(11) 1.0857(7)
C20A C 1.0157(9) 0.3453(9) 0.9993(7)
C21A C 1.1074(9) 0.3227(10) 0.8593(8)
C22A C 1.0701(9) 0.2483(10) 0.7474(8)
C23A C 0.9971(9) 0.0358(11) 0.6363(9)
C25A C 0.7290(10) 0.0056(11) 1.0612(8)
C26A C 0.7448(12) -0.1629(11) 0.9911(9)
C27A C 0.8092(11) -0.2017(11) 0.9296(9)
C28A C 0.8143(11) -0.2754(11) 0.7565(8)
C29A C 0.7506(11) -0.3115(10) 0.6460(8)
C30A C 0.9347(10) -0.1066(11) 0.6226(9)
Cl1A Cl 0.3663(2) -0.3704(3) 0.7597(2)
C9A C 0.3925(8) 0.0427(8) 0.5558(6)
C11A C 0.6197(8) 0.2518(8) 0.5783(6)
C4A C 0.4471(7) 0.0306(8) 0.6413(6)
C16A C 0.6743(7) 0.2406(8) 0.6643(6)
H9A H 0.5287(71) 0.1484(73) 0.8530(54)
H10A H 0.6874(64) 0.2937(67) 0.8964(50)
H11A H 0.5675(81) 0.0201(85) 0.9306(62)
H12A H 0.6410(85) 0.1864(89) 1.0159(66)
H13A H 0.9103(69) 0.3866(71) 1.0805(53)
H14A H 0.8513(68) 0.3402(71) 0.9564(53)
H35A H 0.8938(74) 0.1965(77) 1.1242(58)
H36A H 0.7542(80) 0.1753(84) 1.1436(63)
H15A H 1.0257(72) 0.2884(76) 1.0302(56)
H16A H 1.1019(92) 0.4473(95) 1.0362(72)
H17A H 1.1512(85) 0.2932(88) 0.8881(65)
H18A H 1.1487(79) 0.4021(82) 0.8827(61)
H19A H 1.1453(91) 0.2605(96) 0.7114(71)
H20A H 0.9818(78) 0.2362(81) 0.7031(60)
H21A H 1.0835(81) 0.0735(84) 0.6203(62)
H22A H 0.9192(93) 0.0270(97) 0.5747(71)
H33A H 0.7499(71) -0.0084(74) 1.1304(55)
H34A H 0.6167(88) -0.0666(90) 1.0080(67)
H31A H 0.7566(96) -0.1563(99) 1.0620(73)
H32A H 0.6306(91) -0.2391(96) 0.9262(71)
H29A H 0.9026(74) -0.1273(75) 0.9602(58)
H30A H 0.7587(80) -0.3085(83) 0.9088(61)
H27A H 0.9040(76) -0.1981(79) 0.7743(59)
H28A H 0.7682(81) -0.3711(85) 0.7473(63)
H25A H 0.7615(71) -0.3692(74) 0.6017(55)
H26A H 0.6311(80) -0.3804(83) 0.6165(62)
H23A H 0.9855(70) -0.0955(73) 0.6907(54)
H24A H 0.9331(82) -0.1581(85) 0.5601(62)
O9A O 0.3876(8) -0.3994(10) 0.8433(7)
O10A O 0.2464(8) -0.4046(10) 0.7301(9)
O11A O 0.3782(14) -0.4439(12) 0.6805(9)
C8A C 0.2527(8) -0.0577(8) 0.5007(7)
C12A C 0.7092(8) 0.3586(8) 0.5444(7)
C5A C 0.3591(8) -0.0825(8) 0.6708(7)
C15A C 0.8149(8) 0.3365(9) 0.7156(7)
C7A C 0.1729(8) -0.1623(9) 0.5324(7)
H4A H 0.2011(50) -0.0576(52) 0.4359(39)
C13A C 0.8419(9) 0.4465(9) 0.5968(7)
H5A H 0.6626(62) 0.3515(64) 0.4720(48)
C6A C 0.2279(9) -0.1725(9) 0.6160(7)
H1A H 0.4085(59) -0.0941(61) 0.7244(46)
C14A C 0.8947(8) 0.4362(9) 0.6801(7)
H8A H 0.8527(68) 0.3235(71) 0.7610(53)
H3A H 0.0884(59) -0.2171(62) 0.4917(47)
H6A H 0.8779(70) 0.5024(72) 0.5661(54)
H2A H 0.2029(64) -0.2279(67) 0.6299(50)
H7A H 0.9726(67) 0.4885(70) 0.7019(52)
loop_
_geom_bond_atom_site_label_1
_geom_bond_atom_site_label_2
_geom_bond_site_symmetry_1
_geom_bond_site_symmetry_2
O1 C2 1_555 1_555
C1 C2 1_555 1_555
C3 C4 1_555 1_555
C4 C5 1_555 1_555
C5 C6 1_555 1_555
C6 C7 1_555 1_555
C7 C8 1_555 1_555
C8 C9 1_555 1_555
C9 C4 1_555 1_555
C10 C9 1_555 1_555
C11 C10 1_555 1_555
C12 C11 1_555 1_555
C13 C12 1_555 1_555
C14 C13 1_555 1_555
C15 C14 1_555 1_555
C16 C3 1_555 1_555
O2 C3 1_555 1_555
C17 O2 1_555 1_555
C18 C17 1_555 1_555
N1 C18 1_555 1_555
C19 N1 1_555 1_555
C20 C19 1_555 1_555
O3 C20 1_555 1_555
C21 O3 1_555 1_555
C22 C21 1_555 1_555
O4 C22 1_555 1_555
C23 O4 1_555 1_555
C24 N1 1_555 1_555
C25 C24 1_555 1_555
O5 C25 1_555 1_555
C26 O5 1_555 1_555
C27 C26 1_555 1_555
O6 C27 1_555 1_555
C28 O6 1_555 1_555
C29 C28 1_555 1_555
N2 C29 1_555 1_555
C30 C23 1_555 1_555
O7 C10 1_555 1_555
C31 O7 1_555 1_555
C32 N2 1_555 1_555
Rb1 O2 1_555 1_555
O8 Rb1 1_555 1_555
O9 Cl1 1_555 1_555
O10 Cl1 1_555 1_555
O11 Cl1 1_555 1_555
Cl1 O8 1_555 1_555
H1 C5 1_555 1_555
H2 C6 1_555 1_555
H3 C7 1_555 1_555
H4 C8 1_555 1_555
H5 C12 1_555 1_555
H6 C13 1_555 1_555
H7 C14 1_555 1_555
H8 C15 1_555 1_555
H9 C17 1_555 1_555
H10 C17 1_555 1_555
H11 C18 1_555 1_555
H12 C18 1_555 1_555
H13 C19 1_555 1_555
H14 C19 1_555 1_555
H15 C20 1_555 1_555
H16 C20 1_555 1_555
H17 C21 1_555 1_555
H18 C21 1_555 1_555
H19 C22 1_555 1_555
H20 C22 1_555 1_555
H21 C23 1_555 1_555
H22 C23 1_555 1_555
H23 C30 1_555 1_555
H24 C30 1_555 1_555
H25 C29 1_555 1_555
H26 C29 1_555 1_555
H27 C28 1_555 1_555
H28 C28 1_555 1_555
H29 C27 1_555 1_555
H30 C27 1_555 1_555
H31 C26 1_555 1_555
H32 C26 1_555 1_555
H33 C25 1_555 1_555
H34 C25 1_555 1_555
H35 C24 1_555 1_555
H36 C24 1_555 1_555
H37 C32 1_555 1_555
H38 C32 1_555 1_555
H39 C31 1_555 1_555
H40 C31 1_555 1_555
Rb1A O7 1_555 1_555
C32A C31 1_555 1_555
C31A C32 1_555 1_555
O7A Rb1 1_555 1_555
O2A Rb1A 1_555 1_555
N1A Rb1A 1_555 1_555
O3A Rb1A 1_555 1_555
O4A Rb1A 1_555 1_555
O5A Rb1A 1_555 1_555
O6A Rb1A 1_555 1_555
N2A Rb1A 1_555 1_555
O8A Rb1A 1_555 1_555
H37A C32A 1_555 1_555
H38A C32A 1_555 1_555
H39A C31A 1_555 1_555
H40A C31A 1_555 1_555
C10A O7A 1_555 1_555
C3A O2A 1_555 1_555
C17A O2A 1_555 1_555
C18A N1A 1_555 1_555
C19A N1A 1_555 1_555
C24A N1A 1_555 1_555
C20A O3A 1_555 1_555
C21A O3A 1_555 1_555
C22A O4A 1_555 1_555
C23A O4A 1_555 1_555
C25A O5A 1_555 1_555
C26A O5A 1_555 1_555
C27A O6A 1_555 1_555
C28A O6A 1_555 1_555
C29A N2A 1_555 1_555
C30A N2A 1_555 1_555
Cl1A O8A 1_555 1_555
C9A C10A 1_555 1_555
C11A C10A 1_555 1_555
C4A C3A 1_555 1_555
C16A C3A 1_555 1_555
H9A C17A 1_555 1_555
H10A C17A 1_555 1_555
H11A C18A 1_555 1_555
H12A C18A 1_555 1_555
H13A C19A 1_555 1_555
H14A C19A 1_555 1_555
H35A C24A 1_555 1_555
H36A C24A 1_555 1_555
H15A C20A 1_555 1_555
H16A C20A 1_555 1_555
H17A C21A 1_555 1_555
H18A C21A 1_555 1_555
H19A C22A 1_555 1_555
H20A C22A 1_555 1_555
H21A C23A 1_555 1_555
H22A C23A 1_555 1_555
H33A C25A 1_555 1_555
H34A C25A 1_555 1_555
H31A C26A 1_555 1_555
H32A C26A 1_555 1_555
H29A C27A 1_555 1_555
H30A C27A 1_555 1_555
H27A C28A 1_555 1_555
H28A C28A 1_555 1_555
H25A C29A 1_555 1_555
H26A C29A 1_555 1_555
H23A C30A 1_555 1_555
H24A C30A 1_555 1_555
O9A Cl1A 1_555 1_555
O10A Cl1A 1_555 1_555
O11A Cl1A 1_555 1_555
C8A C9A 1_555 1_555
C12A C11A 1_555 1_555
C5A C4A 1_555 1_555
C15A C16A 1_555 1_555
C7A C8A 1_555 1_555
H4A C8A 1_555 1_555
C13A C12A 1_555 1_555
H5A C12A 1_555 1_555
C6A C5A 1_555 1_555
H1A C5A 1_555 1_555
C14A C15A 1_555 1_555
H8A C15A 1_555 1_555
H3A C7A 1_555 1_555
H6A C13A 1_555 1_555
H2A C6A 1_555 1_555
H7A C14A 1_555 1_555
C11 C16 1_555 1_555
C15 C16 1_555 1_555
N1 Rb1 1_555 1_555
O3 Rb1 1_555 1_555
O4 Rb1 1_555 1_555
O5 Rb1 1_555 1_555
O6 Rb1 1_555 1_555
N2 C30 1_555 1_555
N2 Rb1 1_555 1_555
C32A N2A 1_555 1_555
C31A O7A 1_555 1_555
C17A C18A 1_555 1_555
C19A C20A 1_555 1_555
C24A C25A 1_555 1_555
C21A C22A 1_555 1_555
C23A C30A 1_555 1_555
C26A C27A 1_555 1_555
C28A C29A 1_555 1_555
C9A C4A 1_555 1_555
C11A C16A 1_555 1_555
C7A C6A 1_555 1_555
C13A C14A 1_555 1_555

#END
