
#######################################################################
#
#                 Cambridge Crystallographic Data Centre
#                                CCDC 
#
#######################################################################
#
# If this CIF has been generated from an entry in the Cambridge 
# Structural Database, then it will include bibliographic, chemical, 
# crystal, experimental, refinement or atomic coordinate data resulting 
# from the CCDC's data processing and validation procedures.
#
#######################################################################

data_JEGJEN
_chemical_compound_source        
'South China Sea soft coral Sarcophyton elegans'
_chemical_name_common            'sarelengan A acetonitrile solvate'
_chemical_formula_moiety         'C41 H60 O9,C2 H3 N1'
_chemical_name_systematic        
'methyl 3,4,27-trihydroxy-18-isopropyl-6,11,21,24,28-pentamethyl-2-methylene-13,17,20-trioxo-31-oxatetracyclo[26.2.1.0^5,22^.0^8,21^]hentriaconta-5,11,23-triene-15-carboxylate acetonitrile solvate'
_symmetry_cell_setting           monoclinic
_symmetry_space_group_name_H-M   'P 21'
_symmetry_Int_Tables_number      4
_space_group_name_Hall           'P 2yb'
loop_
_symmetry_equiv_pos_site_id
_symmetry_equiv_pos_as_xyz
1 x,y,z
2 -x,1/2+y,-z
_cell_length_a                   13.28203(9)
_cell_length_b                   9.73686(7)
_cell_length_c                   16.15823(13)
_cell_angle_alpha                90
_cell_angle_beta                 100.9378(7)
_cell_angle_gamma                90
_cell_volume                     2051.71
_exptl_crystal_colour            colorless
_exptl_crystal_description       block
_cell_formula_units_Z            2
loop_
_atom_site_label
_atom_site_type_symbol
_atom_site_fract_x
_atom_site_fract_y
_atom_site_fract_z
O1 O 0.25106(11) 0.39807(15) 0.44817(9)
O2 O 0.22412(11) 0.58866(14) 0.01093(9)
O3 O 0.27540(11) 0.87939(14) 0.15732(9)
H1 H 0.33592(11) 0.88941(14) 0.15439(9)
O4 O 0.15528(11) 0.10676(15) 0.11579(9)
H2 H 0.12471(11) 0.07395(15) 0.07132(9)
O5 O 0.22896(11) 0.11824(15) 0.54937(9)
O6 O 0.51725(11) 0.36865(18) 0.76555(9)
O7 O 0.12831(13) 0.21571(16) -0.03538(10)
H3 H 0.101(2) 0.152(2) -0.0143(2)
O8 O 0.25200(12) 0.08079(18) 0.73538(10)
O9 O 0.41209(12) 0.08830(18) 0.70921(12)
C1 C 0.23181(14) 0.29889(19) 0.24642(11)
H4 H 0.16509(14) 0.25292(19) 0.23251(11)
C2 C 0.28757(14) 0.0920(2) 0.33872(12)
H5 H 0.2236(5) 0.0564(2) 0.3086(9)
H6 H 0.3425(8) 0.0597(2) 0.3129(9)
H7 H 0.2983(13) 0.0615(2) 0.39622(12)
C3 C 0.28474(14) 0.25079(19) 0.33619(11)
C4 C 0.30704(15) 0.2921(2) 0.68724(12)
H8 H 0.30979(15) 0.3434(2) 0.73979(12)
C5 C 0.11592(15) 0.6720(2) 0.21718(13)
H9 H 0.04976(15) 0.6988(2) 0.22906(13)
H10 H 0.16866(15) 0.7093(2) 0.26131(13)
C6 C 0.26014(16) 0.7254(2) 0.03457(12)
C7 C 0.59255(14) 0.2934(2) 0.56961(13)
C8 C 0.19323(15) 0.29135(19) 0.02953(12)
H11 H 0.15267(15) 0.36096(19) 0.05231(12)
C9 C 0.24109(14) 0.7469(2) 0.12499(12)
H12 H 0.28025(14) 0.6772(2) 0.16133(12)
C10 C 0.12371(14) 0.5173(2) 0.21728(12)
C11 C 0.22094(14) 0.3053(2) 0.39912(12)
C12 C 0.08563(14) 0.2555(2) 0.48719(12)
H13 H 0.06614(14) 0.3512(2) 0.49445(12)
C13 C 0.31036(15) 0.4970(2) 0.03096(12)
H14 H 0.32814(15) 0.4859(2) 0.09228(12)
C14 C 0.19949(14) 0.3111(2) 0.63340(12)
H15 H 0.14906(14) 0.2932(2) 0.66834(12)
H16 H 0.19179(14) 0.4060(2) 0.61520(12)
C15 C 0.21269(14) 0.45256(19) 0.24358(11)
H17 H 0.26943(14) 0.50807(19) 0.26228(11)
C16 C 0.11698(14) 0.2404(2) 0.40089(12)
H18 H 0.06542(14) 0.2833(2) 0.35818(12)
H19 H 0.11951(14) 0.1436(2) 0.38718(12)
C17 C 0.38839(15) 0.3527(2) 0.64142(12)
H20 H 0.38295(15) 0.3079(2) 0.58713(12)
H21 H 0.37425(15) 0.4496(2) 0.63122(12)
C18 C 0.29628(14) 0.25179(19) 0.18226(11)
C19 C 0.39860(15) 0.2506(2) 0.20305(12)
C20 C 0.39472(17) 0.5777(2) 0.00141(14)
H22 H 0.46207(17) 0.5436(2) 0.02702(14)
H23 H 0.38734(17) 0.5747(2) -0.05945(14)
C21 C 0.23899(14) 0.19034(19) 0.09976(12)
H24 H 0.28676(14) 0.13025(19) 0.07752(12)
C22 C 0.52088(14) 0.3598(2) 0.49676(12)
H25 H 0.47867(14) 0.4272(2) 0.51830(12)
H26 H 0.56078(14) 0.4072(2) 0.46114(12)
C23 C 0.17658(14) 0.2193(2) 0.55631(12)
C24 C 0.27628(15) 0.3612(2) -0.00813(12)
C25 C 0.39380(14) 0.3110(2) 0.35945(11)
H27 H 0.38703(14) 0.4104(2) 0.36634(11)
C26 C 0.37660(19) 0.7231(2) 0.03234(15)
H28 H 0.39356(19) 0.7919(2) -0.00621(15)
H29 H 0.41730(19) 0.7394(2) 0.08796(15)
C27 C 0.68806(16) 0.2368(3) 0.54607(14)
H30 H 0.67008(18) 0.1789(18) 0.4974(8)
H31 H 0.7303(8) 0.3110(3) 0.5335(13)
H32 H 0.7251(9) 0.1841(19) 0.5922(5)
C28 C 0.57986(15) 0.2837(2) 0.64986(13)
H33 H 0.63137(15) 0.2362(2) 0.68555(13)
C29 C 0.12847(14) 0.7322(2) 0.13151(12)
H34 H 0.09433(14) 0.6728(2) 0.08664(12)
H35 H 0.09574(14) 0.8216(2) 0.12410(12)
C30 C 0.31509(19) 0.3032(2) -0.06960(14)
C31 C 0.45172(14) 0.2531(2) 0.44419(12)
H36 H 0.49330(14) 0.1757(2) 0.43315(12)
H37 H 0.40224(14) 0.2196(2) 0.47650(12)
C32 C 0.33085(16) 0.1436(2) 0.70984(13)
C33 C -0.00691(16) 0.1619(2) 0.49246(14)
H38 H 0.00958(16) 0.0692(2) 0.47558(14)
C34 C 0.02372(15) 0.4453(2) 0.18241(16)
H39 H -0.0233(6) 0.4582(19) 0.2202(7)
H40 H -0.0052(9) 0.4831(16) 0.1282(6)
H41 H 0.0362(3) 0.3490(4) 0.1767(13)
C35 C -0.03006(18) 0.1532(3) 0.58172(15)
H42 H 0.0247(9) 0.106(2) 0.6178(4)
H43 H -0.0362(17) 0.2442(3) 0.6031(6)
H44 H -0.0932(9) 0.104(2) 0.5802(3)
C36 C 0.2671(2) -0.0637(3) 0.7533(2)
H45 H 0.278(2) -0.1106(5) 0.7036(5)
H46 H 0.3257(12) -0.0759(3) 0.7977(11)
H47 H 0.2074(8) -0.1007(7) 0.7706(16)
C37 C 0.49718(15) 0.3366(2) 0.69026(13)
C38 C 0.45609(15) 0.2880(2) 0.28947(13)
H48 H 0.50558(15) 0.2159(2) 0.30799(13)
H49 H 0.49454(15) 0.3713(2) 0.28436(13)
C39 C 0.1998(2) 0.8241(2) -0.02797(13)
H50 H 0.2125(13) 0.8045(15) -0.0833(2)
H51 H 0.1280(2) 0.8139(16) -0.0277(10)
H52 H 0.2206(12) 0.9165(3) -0.0126(8)
C40 C 0.46984(16) 0.2065(3) 0.14543(14)
H53 H 0.5002(12) 0.1196(11) 0.1640(8)
H54 H 0.4318(3) 0.198(2) 0.0889(3)
H55 H 0.5228(9) 0.2740(11) 0.1468(10)
C41 C -0.10175(17) 0.2109(3) 0.43073(15)
H56 H -0.1161(11) 0.3045(9) 0.4430(10)
H57 H -0.0895(7) 0.205(2) 0.37419(18)
H58 H -0.1593(5) 0.1543(16) 0.4362(11)
H59 H 0.377(3) 0.343(4) -0.089(2)
H60 H 0.284(3) 0.214(4) -0.094(2)
N1 N -0.2272(2) 0.0985(3) 0.22698(15)
C42 C -0.1600(2) 0.0567(2) 0.20018(15)
C43 C -0.0738(2) 0.0025(3) 0.16695(19)
H61 H -0.0665(13) 0.0531(19) 0.1174(10)
H62 H -0.0123(4) 0.011(3) 0.2087(7)
H63 H -0.0857(10) -0.0926(8) 0.1527(16)
loop_
_geom_bond_atom_site_label_1
_geom_bond_atom_site_label_2
_geom_bond_site_symmetry_1
_geom_bond_site_symmetry_2
O1 C11 1_555 1_555
O2 C6 1_555 1_555
O3 H1 1_555 1_555
O4 H2 1_555 1_555
O5 C23 1_555 1_555
O6 C37 1_555 1_555
O7 H3 1_555 1_555
O8 C32 1_555 1_555
O9 C32 1_555 1_555
C1 H4 1_555 1_555
C2 H5 1_555 1_555
H6 C2 1_555 1_555
H7 C2 1_555 1_555
C3 C1 1_555 1_555
C4 H8 1_555 1_555
C5 H9 1_555 1_555
H10 C5 1_555 1_555
C6 C9 1_555 1_555
C7 C22 1_555 1_555
C8 O7 1_555 1_555
H11 C8 1_555 1_555
C9 O3 1_555 1_555
H12 C9 1_555 1_555
C10 C5 1_555 1_555
C11 C3 1_555 1_555
C12 H13 1_555 1_555
C13 O2 1_555 1_555
H14 C13 1_555 1_555
C14 C4 1_555 1_555
H15 C14 1_555 1_555
H16 C14 1_555 1_555
C15 C1 1_555 1_555
H17 C15 1_555 1_555
C16 C11 1_555 1_555
H18 C16 1_555 1_555
H19 C16 1_555 1_555
C17 C4 1_555 1_555
H20 C17 1_555 1_555
H21 C17 1_555 1_555
C18 C1 1_555 1_555
C19 C18 1_555 1_555
C20 C13 1_555 1_555
H22 C20 1_555 1_555
H23 C20 1_555 1_555
C21 O4 1_555 1_555
H24 C21 1_555 1_555
C22 H25 1_555 1_555
H26 C22 1_555 1_555
C23 C12 1_555 1_555
C24 C8 1_555 1_555
C25 C3 1_555 1_555
H27 C25 1_555 1_555
C26 C6 1_555 1_555
H28 C26 1_555 1_555
H29 C26 1_555 1_555
C27 C7 1_555 1_555
H30 C27 1_555 1_555
H31 C27 1_555 1_555
H32 C27 1_555 1_555
C28 C7 1_555 1_555
H33 C28 1_555 1_555
C29 C5 1_555 1_555
H34 C29 1_555 1_555
H35 C29 1_555 1_555
C30 C24 1_555 1_555
C31 C22 1_555 1_555
H36 C31 1_555 1_555
H37 C31 1_555 1_555
C32 C4 1_555 1_555
C33 C12 1_555 1_555
H38 C33 1_555 1_555
C34 C10 1_555 1_555
H39 C34 1_555 1_555
H40 C34 1_555 1_555
H41 C34 1_555 1_555
C35 C33 1_555 1_555
H42 C35 1_555 1_555
H43 C35 1_555 1_555
H44 C35 1_555 1_555
C36 O8 1_555 1_555
H45 C36 1_555 1_555
H46 C36 1_555 1_555
H47 C36 1_555 1_555
C37 C17 1_555 1_555
C38 C19 1_555 1_555
H48 C38 1_555 1_555
H49 C38 1_555 1_555
C39 C6 1_555 1_555
H50 C39 1_555 1_555
H51 C39 1_555 1_555
H52 C39 1_555 1_555
C40 C19 1_555 1_555
H53 C40 1_555 1_555
H54 C40 1_555 1_555
H55 C40 1_555 1_555
C41 C33 1_555 1_555
H56 C41 1_555 1_555
H57 C41 1_555 1_555
H58 C41 1_555 1_555
H59 C30 1_555 1_555
H60 C30 1_555 1_555
N1 C42 1_555 1_555
C42 C43 1_555 1_555
C43 H61 1_555 1_555
H62 C43 1_555 1_555
H63 C43 1_555 1_555
C2 C3 1_555 1_555
C8 C21 1_555 1_555
C9 C29 1_555 1_555
C10 C15 1_555 1_555
C12 C16 1_555 1_555
C13 C24 1_555 1_555
C14 C23 1_555 1_555
C18 C21 1_555 1_555
C20 C26 1_555 1_555
C25 C31 1_555 1_555
C25 C38 1_555 1_555
C28 C37 1_555 1_555

#END
