
#######################################################################
#
#                 Cambridge Crystallographic Data Centre
#                                CCDC 
#
#######################################################################
#
# If this CIF has been generated from an entry in the Cambridge 
# Structural Database, then it will include bibliographic, chemical, 
# crystal, experimental, refinement or atomic coordinate data resulting 
# from the CCDC's data processing and validation procedures.
#
#######################################################################

data_JEJDEK
_chemical_formula_moiety         'C30 H30 Br1 N3 O4'
_chemical_name_systematic        
't-butyl [1-benzyl-5-bromo-2-oxo-3-(2,3,8,8a-tetrahydro-3aH-furo[2,3-b]indol-3a-yl)-2,3-dihydro-1H-indol-3-yl]carbamate'
_symmetry_cell_setting           orthorhombic
_symmetry_space_group_name_H-M   'P 21 21 21'
_symmetry_Int_Tables_number      19
_space_group_name_Hall           'P 2ac 2ab'
loop_
_symmetry_equiv_pos_site_id
_symmetry_equiv_pos_as_xyz
1 x,y,z
2 1/2+x,1/2-y,-z
3 -x,1/2+y,1/2-z
4 1/2-x,-y,1/2+z
_cell_length_a                   8.2547(2)
_cell_length_b                   11.7633(2)
_cell_length_c                   28.9888(7)
_cell_angle_alpha                90
_cell_angle_beta                 90
_cell_angle_gamma                90
_cell_volume                     2814.89
_exptl_crystal_colour            colorless
_exptl_crystal_description       prism
_cell_formula_units_Z            4
loop_
_atom_site_label
_atom_site_type_symbol
_atom_site_fract_x
_atom_site_fract_y
_atom_site_fract_z
Br1 Br -0.77548(7) -0.53717(5) -0.00085(2)
O1 O -0.0463(5) -0.2667(3) -0.03358(13)
O2 O -0.3351(5) -0.1968(3) -0.18854(12)
O3 O -0.6491(5) -0.1143(3) -0.13450(13)
O4 O -0.5557(5) 0.0082(3) -0.07953(13)
N1 N -0.2058(5) -0.4346(3) -0.03230(14)
H1 H -0.2888 -0.4544 -0.0163
N2 N -0.5115(5) -0.3459(3) -0.17767(13)
N3 N -0.4305(5) -0.1553(3) -0.08971(14)
H2 H -0.3681 -0.1314 -0.0680
C1 C -0.4011(5) -0.2662(4) -0.10980(16)
C2 C -0.2254(5) -0.3057(3) -0.09624(15)
C3 C -0.1995(5) -0.3145(4) -0.04281(15)
H3 H -0.2848 -0.2733 -0.0262
C4 C -0.1886(6) -0.4971(4) -0.07297(18)
C5 C -0.1718(7) -0.6140(5) -0.0777(2)
H4 H -0.1696 -0.6612 -0.0520
C6 C -0.1584(8) -0.6583(5) -0.1217(3)
H5 H -0.1477 -0.7364 -0.1255
C7 C -0.1605(8) -0.5894(6) -0.1594(2)
H6 H -0.1502 -0.6210 -0.1887
C8 C -0.1781(6) -0.4721(5) -0.15480(19)
H7 H -0.1771 -0.4250 -0.1806
C9 C -0.1969(5) -0.4276(4) -0.11134(17)
C10 C -0.0901(6) -0.2241(4) -0.11147(19)
H8 H -0.0510 -0.2425 -0.1421
H9 H -0.1263 -0.1457 -0.1109
C11 C 0.0383(6) -0.2457(5) -0.0753(2)
H10 H 0.1039 -0.3110 -0.0837
H11 H 0.1085 -0.1801 -0.0721
C12 C -0.4106(6) -0.2606(4) -0.16375(16)
C13 C -0.5259(5) -0.3550(4) -0.09898(15)
C14 C -0.5814(5) -0.3947(4) -0.05708(16)
H12 H -0.5437 -0.3648 -0.0294
C15 C -0.6959(6) -0.4814(4) -0.05805(17)
C16 C -0.7532(6) -0.5269(4) -0.09825(17)
H13 H -0.8297 -0.5850 -0.0973
C17 C -0.6973(6) -0.4866(4) -0.14083(17)
H14 H -0.7352 -0.5166 -0.1685
C18 C -0.5839(5) -0.4008(4) -0.14003(16)
C19 C -0.5396(7) -0.3744(5) -0.22602(17)
H15 H -0.5076 -0.4528 -0.2311
H16 H -0.4712 -0.3267 -0.2451
C20 C -0.7132(7) -0.3599(4) -0.24113(16)
C21 C -0.7811(10) -0.4369(5) -0.2715(2)
H17 H -0.7199 -0.4979 -0.2821
C22 C -0.9381(11) -0.4240(7) -0.2861(3)
H18 H -0.9822 -0.4764 -0.3066
C23 C -1.0310(10) -0.3348(8) -0.2708(2)
H19 H -1.1370 -0.3263 -0.2811
C24 C -0.9662(8) -0.2581(6) -0.2400(2)
H20 H -1.0287 -0.1981 -0.2291
C25 C -0.8065(7) -0.2707(5) -0.22546(17)
H21 H -0.7623 -0.2184 -0.2050
C26 C -0.5548(6) -0.0879(4) -0.10430(18)
C27 C -0.6447(9) 0.1084(5) -0.0960(2)
C28 C -0.5957(12) 0.1387(6) -0.1440(3)
H22 H -0.4801 0.1475 -0.1453
H23 H -0.6467 0.2088 -0.1527
H24 H -0.6286 0.0795 -0.1647
C29 C -0.5844(14) 0.1991(6) -0.0624(3)
H25 H -0.6207 0.1810 -0.0318
H26 H -0.6265 0.2719 -0.0713
H27 H -0.4682 0.2013 -0.0629
C30 C -0.8227(10) 0.0859(8) -0.0920(3)
H28 H -0.8538 0.0290 -0.1140
H29 H -0.8816 0.1547 -0.0979
H30 H -0.8469 0.0594 -0.0614
loop_
_geom_bond_atom_site_label_1
_geom_bond_atom_site_label_2
_geom_bond_site_symmetry_1
_geom_bond_site_symmetry_2
Br1 C15 1_555 1_555
O1 C3 1_555 1_555
O2 C12 1_555 1_555
O3 C26 1_555 1_555
O4 C26 1_555 1_555
N1 H1 1_555 1_555
N2 C12 1_555 1_555
N3 H2 1_555 1_555
C1 N3 1_555 1_555
C2 C1 1_555 1_555
C3 N1 1_555 1_555
H3 C3 1_555 1_555
C4 N1 1_555 1_555
C5 C4 1_555 1_555
H4 C5 1_555 1_555
C6 C5 1_555 1_555
H5 C6 1_555 1_555
C7 C6 1_555 1_555
H6 C7 1_555 1_555
C8 C7 1_555 1_555
H7 C8 1_555 1_555
C9 C2 1_555 1_555
C10 C2 1_555 1_555
H8 C10 1_555 1_555
H9 C10 1_555 1_555
C11 O1 1_555 1_555
H10 C11 1_555 1_555
H11 C11 1_555 1_555
C12 C1 1_555 1_555
C13 C1 1_555 1_555
C14 C13 1_555 1_555
H12 C14 1_555 1_555
C15 C14 1_555 1_555
C16 C15 1_555 1_555
H13 C16 1_555 1_555
C17 C16 1_555 1_555
H14 C17 1_555 1_555
C18 N2 1_555 1_555
C19 N2 1_555 1_555
H15 C19 1_555 1_555
H16 C19 1_555 1_555
C20 C19 1_555 1_555
C21 C20 1_555 1_555
H17 C21 1_555 1_555
C22 C21 1_555 1_555
H18 C22 1_555 1_555
C23 C22 1_555 1_555
H19 C23 1_555 1_555
C24 C23 1_555 1_555
H20 C24 1_555 1_555
C25 C20 1_555 1_555
H21 C25 1_555 1_555
C26 N3 1_555 1_555
C27 O4 1_555 1_555
C28 C27 1_555 1_555
H22 C28 1_555 1_555
H23 C28 1_555 1_555
H24 C28 1_555 1_555
C29 C27 1_555 1_555
H25 C29 1_555 1_555
H26 C29 1_555 1_555
H27 C29 1_555 1_555
C30 C27 1_555 1_555
H28 C30 1_555 1_555
H29 C30 1_555 1_555
H30 C30 1_555 1_555
C2 C3 1_555 1_555
C4 C9 1_555 1_555
C8 C9 1_555 1_555
C10 C11 1_555 1_555
C13 C18 1_555 1_555
C17 C18 1_555 1_555
C24 C25 1_555 1_555

#END
