
#######################################################################
#
#                 Cambridge Crystallographic Data Centre
#                                CCDC 
#
#######################################################################
#
# If this CIF has been generated from an entry in the Cambridge 
# Structural Database, then it will include bibliographic, chemical, 
# crystal, experimental, refinement or atomic coordinate data resulting 
# from the CCDC's data processing and validation procedures.
#
#######################################################################

data_JEJGUB
_chemical_formula_moiety         'C52 H46 N4 O8,2(C1 H2 Cl2)'
_chemical_name_systematic        
'tetrakis(3,5-Dimethoxyphenyl)porphyrin dichloromethane solvate'
_symmetry_cell_setting           triclinic
_symmetry_space_group_name_H-M   'P -1'
_symmetry_Int_Tables_number      2
_space_group_name_Hall           '-P 1'
loop_
_symmetry_equiv_pos_site_id
_symmetry_equiv_pos_as_xyz
1 x,y,z
2 -x,-y,-z
_cell_length_a                   11.2953(14)
_cell_length_b                   11.2551(14)
_cell_length_c                   11.7971(14)
_cell_angle_alpha                108.904(2)
_cell_angle_beta                 101.091(2)
_cell_angle_gamma                110.992(2)
_cell_volume                     1241.31
_exptl_crystal_colour            red
_exptl_crystal_description       plate
_cell_formula_units_Z            1
loop_
_atom_site_label
_atom_site_type_symbol
_atom_site_fract_x
_atom_site_fract_y
_atom_site_fract_z
C1 C -0.13602(16) 0.19059(16) 0.08461(15)
C2 C -0.12837(17) 0.29853(18) 0.19586(15)
H1 H -0.1809 0.3484 0.1978
C3 C -0.03225(17) 0.31676(17) 0.29826(15)
H2 H -0.0053 0.3822 0.3844
C4 C 0.02106(16) 0.21986(16) 0.25328(15)
C5 C 0.12304(15) 0.20490(16) 0.32636(14)
C6 C 0.17697(15) 0.11270(17) 0.27851(15)
C7 C 0.27999(16) 0.09688(17) 0.35823(15)
H3 H 0.3205 0.1446 0.4487
C8 C 0.30714(16) 0.00118(17) 0.27887(15)
H4 H 0.3703 -0.0316 0.3027
C9 C 0.22083(15) -0.04197(16) 0.14982(15)
C10 C -0.21955(16) 0.14229(16) -0.04085(15)
C11 C 0.18284(15) 0.29873(16) 0.46722(14)
C12 C 0.10586(16) 0.27831(17) 0.54561(15)
H5 H 0.0155 0.2056 0.5104
C13 C 0.16432(16) 0.36629(17) 0.67542(15)
C14 C 0.29673(16) 0.47467(16) 0.72837(14)
H6 H 0.3357 0.5340 0.8175
C15 C 0.37034(16) 0.49432(16) 0.64897(15)
C16 C 0.31402(16) 0.40509(17) 0.51793(15)
H7 H 0.3656 0.4176 0.4642
C17 C -0.0357(2) 0.2503(3) 0.71337(19)
H8 H -0.0911 0.2660 0.6505
H9 H -0.0704 0.2543 0.7838
H10 H -0.0393 0.1575 0.6724
C18 C 0.55349(18) 0.70184(17) 0.81933(15)
H11 H 0.4950 0.7473 0.8348
H12 H 0.6442 0.7730 0.8364
H13 H 0.5591 0.6553 0.8761
C19 C -0.31360(16) 0.20562(17) -0.06170(14)
C20 C -0.45049(17) 0.12961(17) -0.08835(15)
H14 H -0.4849 0.0390 -0.0888
C21 C -0.53824(16) 0.18688(17) -0.11469(15)
C22 C -0.48883(17) 0.31856(18) -0.11506(16)
H15 H -0.5484 0.3570 -0.1339
C23 C -0.35025(18) 0.39383(17) -0.08725(16)
C24 C -0.26174(17) 0.33951(17) -0.05983(15)
H16 H -0.1675 0.3923 -0.0401
C25 C -0.76574(18) 0.1511(2) -0.1819(2)
H17 H -0.7608 0.1578 -0.2618
H18 H -0.8574 0.0834 -0.1968
H19 H -0.7441 0.2437 -0.1171
C26 C -0.1760(2) 0.5976(2) -0.0794(2)
H20 H -0.1557 0.5396 -0.1474
H21 H -0.1635 0.6849 -0.0875
H22 H -0.1148 0.6204 0.0040
N1 N -0.04465(13) 0.14549(14) 0.12357(12)
H23 H -0.0303 0.0791 0.0731
N2 N 0.14148(13) 0.02605(14) 0.15208(12)
O1 O 0.10066(12) 0.35635(13) 0.76186(11)
O2 O 0.49828(12) 0.59937(12) 0.68891(11)
O3 O -0.67089(12) 0.10494(13) -0.13810(13)
O4 O -0.31247(13) 0.52200(13) -0.09019(14)
C1A C 0.13602(16) -0.19059(16) -0.08461(15)
C2A C 0.12837(17) -0.29853(18) -0.19586(15)
H1A H 0.1809 -0.3484 -0.1978
C3A C 0.03225(17) -0.31676(17) -0.29826(15)
H2A H 0.0053 -0.3822 -0.3844
C4A C -0.02106(16) -0.21986(16) -0.25328(15)
C5A C -0.12304(15) -0.20490(16) -0.32636(14)
C6A C -0.17697(15) -0.11270(17) -0.27851(15)
C7A C -0.27999(16) -0.09688(17) -0.35823(15)
H3A H -0.3205 -0.1446 -0.4487
C8A C -0.30714(16) -0.00118(17) -0.27887(15)
H4A H -0.3703 0.0316 -0.3027
C9A C -0.22083(15) 0.04197(16) -0.14982(15)
C10A C 0.21955(16) -0.14229(16) 0.04085(15)
C11A C -0.18284(15) -0.29873(16) -0.46722(14)
C12A C -0.10586(16) -0.27831(17) -0.54561(15)
H5A H -0.0155 -0.2056 -0.5104
C13A C -0.16432(16) -0.36629(17) -0.67542(15)
C14A C -0.29673(16) -0.47467(16) -0.72837(14)
H6A H -0.3357 -0.5340 -0.8175
C15A C -0.37034(16) -0.49432(16) -0.64897(15)
C16A C -0.31402(16) -0.40509(17) -0.51793(15)
H7A H -0.3656 -0.4176 -0.4642
C17A C 0.0357(2) -0.2503(3) -0.71337(19)
H8A H 0.0911 -0.2660 -0.6505
H9A H 0.0704 -0.2543 -0.7838
H10A H 0.0393 -0.1575 -0.6724
C18A C -0.55349(18) -0.70184(17) -0.81933(15)
H11A H -0.4950 -0.7473 -0.8348
H12A H -0.6442 -0.7730 -0.8364
H13A H -0.5591 -0.6553 -0.8761
C19A C 0.31360(16) -0.20562(17) 0.06170(14)
C20A C 0.45049(17) -0.12961(17) 0.08835(15)
H14A H 0.4849 -0.0390 0.0888
C21A C 0.53824(16) -0.18688(17) 0.11469(15)
C22A C 0.48883(17) -0.31856(18) 0.11506(16)
H15A H 0.5484 -0.3570 0.1339
C23A C 0.35025(18) -0.39383(17) 0.08725(16)
C24A C 0.26174(17) -0.33951(17) 0.05983(15)
H16A H 0.1675 -0.3923 0.0401
C25A C 0.76574(18) -0.1511(2) 0.1819(2)
H17A H 0.7608 -0.1578 0.2618
H18A H 0.8574 -0.0834 0.1968
H19A H 0.7441 -0.2437 0.1171
C26A C 0.1760(2) -0.5976(2) 0.0794(2)
H20A H 0.1557 -0.5396 0.1474
H21A H 0.1635 -0.6849 0.0875
H22A H 0.1148 -0.6204 -0.0040
N1A N 0.04465(13) -0.14549(14) -0.12357(12)
H23A H 0.0303 -0.0791 -0.0731
N2A N -0.14148(13) -0.02605(14) -0.15208(12)
O1A O -0.10066(12) -0.35635(13) -0.76186(11)
O2A O -0.49828(12) -0.59937(12) -0.68891(11)
O3A O 0.67089(12) -0.10494(13) 0.13810(13)
O4A O 0.31247(13) -0.52200(13) 0.09019(14)
C27 C 0.657(2) 0.2527(15) 0.4597(15)
H24 H 0.5786 0.2372 0.3917
H25 H 0.7377 0.3334 0.4683
Cl1 Cl 0.6266(5) 0.2932(8) 0.6039(6)
Cl2 Cl 0.6820(4) 0.1035(5) 0.4159(6)
C28? C 0.656(3) 0.273(2) 0.4736(18)
H26? H 0.5781 0.2716 0.4160
H27? H 0.7365 0.3617 0.4958
C29? C 0.6380(13) 0.3143(12) 0.5142(12)
H28? H 0.5571 0.3160 0.4660
H29? H 0.7019 0.4118 0.5781
Cl3? Cl 0.6241(10) 0.2768(15) 0.6132(8)
Cl4? Cl 0.6820(4) 0.1339(13) 0.3913(6)
Cl5? Cl 0.5909(7) 0.2082(8) 0.5920(6)
Cl6? Cl 0.7131(8) 0.2541(13) 0.4114(7)
loop_
_geom_bond_atom_site_label_1
_geom_bond_atom_site_label_2
_geom_bond_site_symmetry_1
_geom_bond_site_symmetry_2
C1 C2 1_555 1_555
C2 H1 1_555 1_555
C3 C2 1_555 1_555
H2 C3 1_555 1_555
C4 C3 1_555 1_555
C5 C4 1_555 1_555
C6 C5 1_555 1_555
C7 C6 1_555 1_555
H3 C7 1_555 1_555
C8 C7 1_555 1_555
H4 C8 1_555 1_555
C9 C8 1_555 1_555
C10 C1 1_555 1_555
C11 C5 1_555 1_555
C12 C11 1_555 1_555
H5 C12 1_555 1_555
C13 C12 1_555 1_555
C14 C13 1_555 1_555
H6 C14 1_555 1_555
C15 C14 1_555 1_555
C16 C11 1_555 1_555
H7 C16 1_555 1_555
C17 H8 1_555 1_555
H9 C17 1_555 1_555
H10 C17 1_555 1_555
C18 H11 1_555 1_555
H12 C18 1_555 1_555
H13 C18 1_555 1_555
C19 C10 1_555 1_555
C20 C19 1_555 1_555
H14 C20 1_555 1_555
C21 C20 1_555 1_555
C22 C21 1_555 1_555
H15 C22 1_555 1_555
C23 C22 1_555 1_555
C24 C19 1_555 1_555
H16 C24 1_555 1_555
C25 H17 1_555 1_555
H18 C25 1_555 1_555
H19 C25 1_555 1_555
C26 H20 1_555 1_555
H21 C26 1_555 1_555
H22 C26 1_555 1_555
N1 C1 1_555 1_555
H23 N1 1_555 1_555
N2 C6 1_555 1_555
O1 C13 1_555 1_555
O2 C15 1_555 1_555
O3 C21 1_555 1_555
O4 C23 1_555 1_555
C27 H24 1_555 1_555
H25 C27 1_555 1_555
Cl1 C27 1_555 1_555
Cl2 C27 1_555 1_555
C1A C2A 1_555 1_555
C2A H1A 1_555 1_555
C3A C2A 1_555 1_555
H2A C3A 1_555 1_555
C4A C3A 1_555 1_555
C5A C4A 1_555 1_555
C6A C5A 1_555 1_555
C7A C6A 1_555 1_555
H3A C7A 1_555 1_555
C8A C7A 1_555 1_555
H4A C8A 1_555 1_555
C9A C10 1_555 1_555
C10A C9 1_555 1_555
C11A C5A 1_555 1_555
C12A C11A 1_555 1_555
H5A C12A 1_555 1_555
C13A C12A 1_555 1_555
C14A C13A 1_555 1_555
H6A C14A 1_555 1_555
C15A C14A 1_555 1_555
C16A C11A 1_555 1_555
H7A C16A 1_555 1_555
C17A H8A 1_555 1_555
H9A C17A 1_555 1_555
H10A C17A 1_555 1_555
C18A H11A 1_555 1_555
H12A C18A 1_555 1_555
H13A C18A 1_555 1_555
C19A C10A 1_555 1_555
C20A C19A 1_555 1_555
H14A C20A 1_555 1_555
C21A C20A 1_555 1_555
C22A C21A 1_555 1_555
H15A C22A 1_555 1_555
C23A C22A 1_555 1_555
C24A C19A 1_555 1_555
H16A C24A 1_555 1_555
C25A H17A 1_555 1_555
H18A C25A 1_555 1_555
H19A C25A 1_555 1_555
C26A H20A 1_555 1_555
H21A C26A 1_555 1_555
H22A C26A 1_555 1_555
N1A C1A 1_555 1_555
H23A N1A 1_555 1_555
N2A C6A 1_555 1_555
O1A C13A 1_555 1_555
O2A C15A 1_555 1_555
O3A C21A 1_555 1_555
O4A C23A 1_555 1_555
C4 N1 1_555 1_555
C9 N2 1_555 1_555
C15 C16 1_555 1_555
C17 O1 1_555 1_555
C18 O2 1_555 1_555
C23 C24 1_555 1_555
C25 O3 1_555 1_555
C26 O4 1_555 1_555
C1A C10A 1_555 1_555
C4A N1A 1_555 1_555
C8A C9A 1_555 1_555
C9A N2A 1_555 1_555
C15A C16A 1_555 1_555
C17A O1A 1_555 1_555
C18A O2A 1_555 1_555
C23A C24A 1_555 1_555
C25A O3A 1_555 1_555
C26A O4A 1_555 1_555

#END
