
#######################################################################
#
#                 Cambridge Crystallographic Data Centre
#                                CCDC 
#
#######################################################################
#
# If this CIF has been generated from an entry in the Cambridge 
# Structural Database, then it will include bibliographic, chemical, 
# crystal, experimental, refinement or atomic coordinate data resulting 
# from the CCDC's data processing and validation procedures.
#
#######################################################################

data_JEJQIZ
_chemical_formula_moiety         'C1 H6 N1 1+,C17 H13 O7 S1 1-,H2 O1'
_chemical_name_systematic        
"Methylammonium 4',7-dimethoxyisoflavone-3'-sulfonate monohydrate"
_chemical_properties_biological  'potential biological activity'
_symmetry_cell_setting           monoclinic
_symmetry_space_group_name_H-M   'P 21/c'
_symmetry_Int_Tables_number      14
_space_group_name_Hall           '-P 2ybc'
loop_
_symmetry_equiv_pos_site_id
_symmetry_equiv_pos_as_xyz
1 x,y,z
2 -x,1/2+y,1/2-z
3 -x,-y,-z
4 x,1/2-y,1/2+z
_cell_length_a                   21.069(5)
_cell_length_b                   11.494(3)
_cell_length_c                   7.9961(18)
_cell_angle_alpha                90
_cell_angle_beta                 97.257(3)
_cell_angle_gamma                90
_cell_volume                     1920.88
_exptl_crystal_colour            colorless
_exptl_crystal_description       rhomboid
_cell_formula_units_Z            4
loop_
_atom_site_label
_atom_site_type_symbol
_atom_site_fract_x
_atom_site_fract_y
_atom_site_fract_z
O1 O 0.43436(8) 0.73462(15) 0.4202(2)
O2 O 0.37244(9) 1.00798(18) 0.1176(3)
O3 O 0.64954(9) 0.86715(17) 0.4673(3)
O4 O 0.08078(8) 0.84907(15) 0.0718(2)
O5 O 0.17832(8) 1.14126(15) 0.3278(3)
O6 O 0.08806(9) 1.01856(17) 0.3536(3)
O7 O 0.10089(9) 1.10822(17) 0.0853(3)
S1 S 0.13181(3) 1.06054(6) 0.24114(9)
C1 C 0.37201(12) 0.7490(2) 0.3585(3)
H1 H 0.3433 0.6930 0.3867
C2 C 0.34820(12) 0.8367(2) 0.2605(3)
C3 C 0.39125(13) 0.9267(2) 0.2120(3)
C4 C 0.45800(12) 0.9108(2) 0.2792(3)
C5 C 0.50613(14) 0.9875(2) 0.2423(4)
H2 H 0.4952 1.0515 0.1735
C6 C 0.56861(14) 0.9699(3) 0.3054(4)
H3 H 0.5998 1.0216 0.2786
C7 C 0.58603(13) 0.8751(2) 0.4098(4)
C8 C 0.54061(12) 0.7974(2) 0.4477(3)
H4 H 0.5518 0.7336 0.5167
C9 C 0.47749(12) 0.8167(2) 0.3802(3)
C10 C 0.27829(12) 0.8391(2) 0.2017(3)
C11 C 0.24190(12) 0.9365(2) 0.2331(3)
H5 H 0.2622 1.0015 0.2842
C12 C 0.17657(11) 0.9381(2) 0.1898(3)
C13 C 0.14512(12) 0.8417(2) 0.1091(3)
C14 C 0.18117(13) 0.7455(2) 0.0752(4)
H6 H 0.1612 0.6811 0.0213
C15 C 0.24661(13) 0.7453(2) 0.1212(3)
H7 H 0.2701 0.6802 0.0974
C16 C 0.66882(15) 0.7747(3) 0.5811(5)
H8 H 0.6471 0.7816 0.6792
H9 H 0.7142 0.7786 0.6138
H10 H 0.6581 0.7015 0.5268
C17 C 0.04700(14) 0.7508(3) -0.0059(4)
H11 H 0.0623 0.7343 -0.1115
H12 H 0.0021 0.7680 -0.0252
H13 H 0.0540 0.6844 0.0669
N1 N 0.14627(13) 1.1307(2) 0.6810(3)
H14 H 0.1509 1.2038 0.7172
H15 H 0.1101 1.1015 0.7099
H16 H 0.1449 1.1292 0.5694
C18 C 0.20014(17) 1.0614(3) 0.7573(5)
H17 H 0.1914 0.9805 0.7356
H18 H 0.2065 1.0747 0.8768
H19 H 0.2380 1.0834 0.7098
O8 O 0.04178(10) 1.0202(2) 0.7673(3)
H20 H 0.0471 1.0235 0.8743
H21 H 0.0020 1.0104 0.7375
loop_
_geom_bond_atom_site_label_1
_geom_bond_atom_site_label_2
_geom_bond_site_symmetry_1
_geom_bond_site_symmetry_2
O1 C1 1_555 1_555
O2 C3 1_555 1_555
O3 C7 1_555 1_555
O4 C13 1_555 1_555
O5 S1 1_555 1_555
O6 S1 1_555 1_555
O7 S1 1_555 1_555
S1 C12 1_555 1_555
C1 H1 1_555 1_555
C2 C1 1_555 1_555
C3 C2 1_555 1_555
C4 C3 1_555 1_555
C5 C4 1_555 1_555
H2 C5 1_555 1_555
C6 C5 1_555 1_555
H3 C6 1_555 1_555
C7 C6 1_555 1_555
C8 C7 1_555 1_555
H4 C8 1_555 1_555
C9 O1 1_555 1_555
C10 C2 1_555 1_555
C11 C10 1_555 1_555
H5 C11 1_555 1_555
C12 C11 1_555 1_555
C13 C12 1_555 1_555
C14 C13 1_555 1_555
H6 C14 1_555 1_555
C15 C10 1_555 1_555
H7 C15 1_555 1_555
C16 O3 1_555 1_555
H8 C16 1_555 1_555
H9 C16 1_555 1_555
H10 C16 1_555 1_555
C17 O4 1_555 1_555
H11 C17 1_555 1_555
H12 C17 1_555 1_555
H13 C17 1_555 1_555
N1 H14 1_555 1_555
H15 N1 1_555 1_555
H16 N1 1_555 1_555
C18 N1 1_555 1_555
H17 C18 1_555 1_555
H18 C18 1_555 1_555
H19 C18 1_555 1_555
O8 H20 1_555 1_555
H21 O8 1_555 1_555
C4 C9 1_555 1_555
C8 C9 1_555 1_555
C14 C15 1_555 1_555

#END
