
#######################################################################
#
#                 Cambridge Crystallographic Data Centre
#                                CCDC 
#
#######################################################################
#
# If this CIF has been generated from an entry in the Cambridge 
# Structural Database, then it will include bibliographic, chemical, 
# crystal, experimental, refinement or atomic coordinate data resulting 
# from the CCDC's data processing and validation procedures.
#
#######################################################################

data_JEJRUM
_chemical_formula_moiety         'C21 H23 N1 O5'
_chemical_name_systematic        
3-(2-(4-Methoxyphenoxy)-2-methylbutyryl)-4-phenyloxazolidin-2-one
_symmetry_cell_setting           monoclinic
_symmetry_space_group_name_H-M   'P 21'
_symmetry_Int_Tables_number      4
_space_group_name_Hall           'P 2yb'
loop_
_symmetry_equiv_pos_site_id
_symmetry_equiv_pos_as_xyz
1 x,y,z
2 -x,1/2+y,-z
_cell_length_a                   10.544(2)
_cell_length_b                   5.766(3)
_cell_length_c                   15.589(2)
_cell_angle_alpha                90
_cell_angle_beta                 92.36(1)
_cell_angle_gamma                90
_cell_volume                     946.956
_exptl_crystal_colour            colorless
_cell_formula_units_Z            2
loop_
_atom_site_label
_atom_site_type_symbol
_atom_site_fract_x
_atom_site_fract_y
_atom_site_fract_z
O1 O 0.4651(4) 1.2915(9) 0.9682(3)
O2 O 0.5912(4) 1.1859(10) 0.8661(3)
O3 O 0.3389(5) 0.6633(9) 0.8413(3)
O4 O 0.3913(4) 0.6776(9) 0.6767(3)
O5 O -0.1274(5) 0.6481(13) 0.6046(4)
N1 N 0.3870(4) 1.0345(10) 0.8725(3)
C1 C 0.4906(5) 1.1734(14) 0.8974(4)
C2 C 0.3396(6) 1.2438(15) 0.9938(4)
H1 H 0.28520 1.37730 0.98320
H2 H 0.34000 1.20660 1.05440
C3 C 0.2923(5) 1.0364(14) 0.9400(4)
H3 H 0.30070 0.89440 0.97430
C4 C 0.1581(5) 1.0594(12) 0.9056(4)
C5 C 0.1201(6) 1.2562(12) 0.8571(4)
H4 H 0.17940 1.36940 0.84450
C6 C -0.0033(6) 1.2811(15) 0.8285(5)
H5 H -0.02710 1.40970 0.79570
C7 C -0.0935(6) 1.1159(18) 0.8481(5)
H6 H -0.17810 1.13600 0.83040
C8 C -0.0566(6) 0.9245(17) 0.8935(5)
H7 H -0.11630 0.81120 0.90500
C9 C 0.0672(6) 0.8944(14) 0.9228(5)
H8 H 0.08980 0.76280 0.95440
C10 C 0.3904(6) 0.8359(12) 0.8199(4)
C11 C 0.4547(6) 0.8428(13) 0.7315(4)
C12 C 0.2624(6) 0.6858(12) 0.6582(4)
C13 C 0.2145(7) 0.5104(14) 0.6069(4)
H9 H 0.26950 0.40150 0.58490
C14 C 0.0858(7) 0.4932(14) 0.5876(4)
H10 H 0.05530 0.37280 0.55280
C15 C 0.0022(6) 0.6518(15) 0.6192(4)
C16 C 0.0501(7) 0.8348(15) 0.6678(4)
H11 H -0.00480 0.94760 0.68730
C17 C 0.1777(6) 0.8516(13) 0.6874(4)
H12 H 0.20830 0.97490 0.72070
C18 C -0.1813(8) 0.452(2) 0.5655(7)
H13 H -0.27170 0.47120 0.55990
H14 H -0.16160 0.31800 0.59990
H15 H -0.14770 0.43270 0.50960
C19 C 0.4600(7) 1.0806(13) 0.6902(4)
H16 H 0.37680 1.15160 0.69220
H17 H 0.51890 1.17640 0.72400
C20 C 0.4998(9) 1.081(2) 0.5983(5)
H18 H 0.50260 1.23730 0.57760
H19 H 0.43980 0.99310 0.56350
H20 H 0.58240 1.01170 0.59530
C21 C 0.5883(6) 0.7386(14) 0.7447(4)
H21 H 0.58230 0.58820 0.77060
H22 H 0.63920 0.83810 0.78160
H23 H 0.62680 0.72450 0.69020
loop_
_geom_bond_atom_site_label_1
_geom_bond_atom_site_label_2
_geom_bond_site_symmetry_1
_geom_bond_site_symmetry_2
O1 C1 1_555 1_555
O2 C1 1_555 1_555
O3 C10 1_555 1_555
O4 C11 1_555 1_555
O5 C15 1_555 1_555
N1 C1 1_555 1_555
C2 O1 1_555 1_555
H1 C2 1_555 1_555
H2 C2 1_555 1_555
C3 N1 1_555 1_555
H3 C3 1_555 1_555
C4 C3 1_555 1_555
C5 C4 1_555 1_555
H4 C5 1_555 1_555
C6 C5 1_555 1_555
H5 C6 1_555 1_555
C7 C6 1_555 1_555
H6 C7 1_555 1_555
C8 C7 1_555 1_555
H7 C8 1_555 1_555
C9 C4 1_555 1_555
H8 C9 1_555 1_555
C10 N1 1_555 1_555
C11 C10 1_555 1_555
C12 O4 1_555 1_555
C13 C12 1_555 1_555
H9 C13 1_555 1_555
C14 C13 1_555 1_555
H10 C14 1_555 1_555
C15 C14 1_555 1_555
C16 C15 1_555 1_555
H11 C16 1_555 1_555
C17 C12 1_555 1_555
H12 C17 1_555 1_555
C18 O5 1_555 1_555
H13 C18 1_555 1_555
H14 C18 1_555 1_555
H15 C18 1_555 1_555
C19 C11 1_555 1_555
H16 C19 1_555 1_555
H17 C19 1_555 1_555
C20 C19 1_555 1_555
H18 C20 1_555 1_555
H19 C20 1_555 1_555
H20 C20 1_555 1_555
C21 C11 1_555 1_555
H21 C21 1_555 1_555
H22 C21 1_555 1_555
H23 C21 1_555 1_555
C2 C3 1_555 1_555
C8 C9 1_555 1_555
C16 C17 1_555 1_555

#END
