
#######################################################################
#
#                 Cambridge Crystallographic Data Centre
#                                CCDC 
#
#######################################################################
#
# If this CIF has been generated from an entry in the Cambridge 
# Structural Database, then it will include bibliographic, chemical, 
# crystal, experimental, refinement or atomic coordinate data resulting 
# from the CCDC's data processing and validation procedures.
#
#######################################################################

data_JEJTUQ
_chemical_formula_moiety         'C24 H19 F1 N2 O4 S1'
_chemical_name_systematic        
5-fluoro-5'-hydroxy-4'-nitro-3',5'-diphenyl-3',4',5',6'-tetrahydrospiro[indole-3,2'-thiopyran]-2(1H)-one
_symmetry_cell_setting           orthorhombic
_symmetry_space_group_name_H-M   'P 21 21 21'
_symmetry_Int_Tables_number      19
_space_group_name_Hall           'P 2ac 2ab'
loop_
_symmetry_equiv_pos_site_id
_symmetry_equiv_pos_as_xyz
1 x,y,z
2 1/2-x,-y,1/2+z
3 -x,1/2+y,1/2-z
4 1/2+x,1/2-y,-z
_cell_length_a                   12.8776(9)
_cell_length_b                   13.0363(9)
_cell_length_c                   25.8899(18)
_cell_angle_alpha                90
_cell_angle_beta                 90
_cell_angle_gamma                90
_cell_volume                     4346.3
_exptl_crystal_colour            yellow
_exptl_crystal_description       block
_cell_formula_units_Z            8
loop_
_atom_site_label
_atom_site_type_symbol
_atom_site_fract_x
_atom_site_fract_y
_atom_site_fract_z
S1 S 0.12468(6) 1.17014(7) 0.07760(3)
O1 O -0.11260(16) 1.17759(18) 0.02813(8)
O2 O 0.23935(15) 1.04865(17) -0.00742(8)
H1 H 0.2555 1.1159 0.0053
O3 O 0.19974(18) 1.12576(18) -0.10864(8)
O4 O 0.0494(2) 1.0650(2) -0.12613(9)
N1 N -0.0851(2) 1.3418(2) 0.05641(9)
H2 H -0.1479 1.3564 0.0649
N2 N 0.1113(2) 1.10092(19) -0.09613(9)
F1 F 0.26772(18) 1.57182(17) 0.05865(10)
C1 C 0.1810(3) 1.4155(3) 0.04463(13)
H3 H 0.2425 1.3843 0.0343
C2 C 0.1780(3) 1.5170(3) 0.06018(15)
C3 C 0.0890(3) 1.5654(3) 0.07505(17)
H4 H 0.0906 1.6342 0.0846
C4 C -0.0035(3) 1.5118(3) 0.07581(15)
H5 H -0.0649 1.5431 0.0862
C5 C -0.0021(2) 1.4108(3) 0.06073(11)
C6 C 0.0885(2) 1.3635(2) 0.04521(11)
C7 C 0.0634(2) 1.2540(2) 0.02993(10)
C8 C -0.0555(2) 1.2501(3) 0.03738(10)
C9 C 0.1002(2) 1.2291(2) -0.02613(10)
H6 H 0.1758 1.2376 -0.0268
C10 C 0.0552(2) 1.3068(2) -0.06336(10)
C11 C 0.1200(3) 1.3816(2) -0.08397(13)
H7 H 0.1908 1.3797 -0.0769
C12 C 0.0807(3) 1.4587(3) -0.11472(17)
H8 H 0.1252 1.5075 -0.1287
C13 C -0.0243(3) 1.4637(3) -0.12483(15)
H9 H -0.0512 1.5173 -0.1444
C14 C -0.0880(3) 1.3898(3) -0.10591(13)
H10 H -0.1586 1.3920 -0.1134
C15 C -0.0496(2) 1.3117(2) -0.07584(11)
H11 H -0.0944 1.2614 -0.0636
C16 C 0.0773(2) 1.1174(2) -0.04103(10)
H12 H 0.0020 1.1072 -0.0394
C17 C 0.1295(2) 1.0347(2) -0.00613(11)
C18 C 0.0894(2) 1.0487(2) 0.04920(11)
H13 H 0.1167 0.9938 0.0706
H14 H 0.0143 1.0427 0.0491
C19 C 0.1035(3) 0.9258(2) -0.02212(12)
C20 C 0.0050(3) 0.8979(3) -0.03615(15)
H15 H -0.0456 0.9484 -0.0389
C21 C -0.0220(4) 0.7968(3) -0.04643(17)
H16 H -0.0893 0.7800 -0.0563
C22 C 0.0519(5) 0.7229(3) -0.0417(2)
H17 H 0.0358 0.6549 -0.0491
C23 C 0.1500(5) 0.7487(4) -0.0262(3)
H18 H 0.1995 0.6976 -0.0217
C24 C 0.1767(4) 0.8506(3) -0.0172(2)
H19 H 0.2443 0.8675 -0.0078
S2 S 0.07444(7) 0.75627(7) 0.31875(3)
O5 O 0.0438(2) 0.60970(16) 0.21597(9)
O6 O 0.22979(18) 0.91545(15) 0.27559(8)
H20 H 0.2708 0.9167 0.2998
O7 O 0.1897(2) 0.98169(19) 0.17245(9)
O8 O 0.2203(2) 0.8506(2) 0.12475(9)
N3 N -0.1212(2) 0.63416(19) 0.24704(10)
H21 H -0.1469 0.5755 0.2388
N4 N 0.1907(2) 0.8893(2) 0.16465(10)
F2 F -0.29316(18) 0.96781(17) 0.34060(9)
C25 C -0.1509(3) 0.8831(2) 0.30313(12)
H22 H -0.1094 0.9406 0.3083
C26 C -0.2527(3) 0.8816(3) 0.31845(14)
C27 C -0.3161(3) 0.7992(3) 0.31169(14)
H23 H -0.3845 0.8018 0.3230
C28 C -0.2790(3) 0.7118(3) 0.28810(14)
H24 H -0.3213 0.6547 0.2833
C29 C -0.1779(3) 0.7120(2) 0.27200(12)
C30 C -0.1127(3) 0.7966(2) 0.27982(11)
C31 C -0.0058(3) 0.7698(2) 0.26053(11)
C32 C -0.0230(3) 0.6616(2) 0.23757(11)
C33 C 0.0417(2) 0.8498(2) 0.22278(10)
H25 H 0.0471 0.9149 0.2416
C34 C -0.0282(2) 0.8686(2) 0.17604(11)
C35 C -0.0749(3) 0.9631(2) 0.17030(12)
H26 H -0.0651 1.0131 0.1954
C36 C -0.1360(3) 0.9847(3) 0.12796(14)
H27 H -0.1667 1.0489 0.1247
C37 C -0.1515(3) 0.9128(3) 0.09108(14)
H28 H -0.1934 0.9272 0.0627
C38 C -0.1050(3) 0.8184(3) 0.09574(14)
H29 H -0.1144 0.7691 0.0702
C39 C -0.0448(3) 0.7965(3) 0.13810(12)
H30 H -0.0146 0.7320 0.1412
C40 C 0.1525(2) 0.8183(2) 0.20683(10)
H31 H 0.1490 0.7489 0.1924
C41 C 0.2330(3) 0.8171(2) 0.25150(11)
C42 C 0.1989(3) 0.7339(2) 0.28969(11)
H32 H 0.2506 0.7287 0.3168
H33 H 0.1970 0.6686 0.2718
C43 C 0.3400(3) 0.7915(3) 0.23062(12)
C44 C 0.3584(3) 0.6989(4) 0.20501(15)
H34 H 0.3043 0.6521 0.2014
C45 C 0.4539(5) 0.6753(5) 0.18512(19)
H35 H 0.4641 0.6134 0.1680
C46 C 0.5339(5) 0.7426(7) 0.1904(2)
H36 H 0.5986 0.7267 0.1766
C47 C 0.5202(4) 0.8335(6) 0.2159(2)
H37 H 0.5758 0.8784 0.2199
C48 C 0.4215(3) 0.8595(3) 0.23620(14)
H38 H 0.4118 0.9217 0.2531
loop_
_geom_bond_atom_site_label_1
_geom_bond_atom_site_label_2
_geom_bond_site_symmetry_1
_geom_bond_site_symmetry_2
S1 C7 1_555 1_555
O1 C8 1_555 1_555
O2 H1 1_555 1_555
O3 N2 1_555 1_555
O4 N2 1_555 1_555
N1 H2 1_555 1_555
N2 C16 1_555 1_555
F1 C2 1_555 1_555
C1 H3 1_555 1_555
C2 C1 1_555 1_555
C3 C2 1_555 1_555
H4 C3 1_555 1_555
C4 C3 1_555 1_555
H5 C4 1_555 1_555
C5 N1 1_555 1_555
C6 C1 1_555 1_555
C7 C6 1_555 1_555
C8 N1 1_555 1_555
C9 C7 1_555 1_555
H6 C9 1_555 1_555
C10 C9 1_555 1_555
C11 C10 1_555 1_555
H7 C11 1_555 1_555
C12 C11 1_555 1_555
H8 C12 1_555 1_555
C13 C12 1_555 1_555
H9 C13 1_555 1_555
C14 C13 1_555 1_555
H10 C14 1_555 1_555
C15 C10 1_555 1_555
H11 C15 1_555 1_555
C16 C9 1_555 1_555
H12 C16 1_555 1_555
C17 O2 1_555 1_555
C18 S1 1_555 1_555
H13 C18 1_555 1_555
H14 C18 1_555 1_555
C19 C17 1_555 1_555
C20 C19 1_555 1_555
H15 C20 1_555 1_555
C21 C20 1_555 1_555
H16 C21 1_555 1_555
C22 C21 1_555 1_555
H17 C22 1_555 1_555
C23 C22 1_555 1_555
H18 C23 1_555 1_555
C24 C19 1_555 1_555
H19 C24 1_555 1_555
S2 C31 1_555 1_555
O5 C32 1_555 1_555
O6 H20 1_555 1_555
O7 N4 1_555 1_555
O8 N4 1_555 1_555
N3 H21 1_555 1_555
N4 C40 1_555 1_555
F2 C26 1_555 1_555
C25 H22 1_555 1_555
C26 C25 1_555 1_555
C27 C26 1_555 1_555
H23 C27 1_555 1_555
C28 C27 1_555 1_555
H24 C28 1_555 1_555
C29 N3 1_555 1_555
C30 C25 1_555 1_555
C31 C30 1_555 1_555
C32 N3 1_555 1_555
C33 C31 1_555 1_555
H25 C33 1_555 1_555
C34 C33 1_555 1_555
C35 C34 1_555 1_555
H26 C35 1_555 1_555
C36 C35 1_555 1_555
H27 C36 1_555 1_555
C37 C36 1_555 1_555
H28 C37 1_555 1_555
C38 C37 1_555 1_555
H29 C38 1_555 1_555
C39 C34 1_555 1_555
H30 C39 1_555 1_555
C40 C33 1_555 1_555
H31 C40 1_555 1_555
C41 O6 1_555 1_555
C42 S2 1_555 1_555
H32 C42 1_555 1_555
H33 C42 1_555 1_555
C43 C41 1_555 1_555
C44 C43 1_555 1_555
H34 C44 1_555 1_555
C45 C44 1_555 1_555
H35 C45 1_555 1_555
C46 C45 1_555 1_555
H36 C46 1_555 1_555
C47 C46 1_555 1_555
H37 C47 1_555 1_555
C48 C43 1_555 1_555
H38 C48 1_555 1_555
C4 C5 1_555 1_555
C5 C6 1_555 1_555
C7 C8 1_555 1_555
C14 C15 1_555 1_555
C16 C17 1_555 1_555
C17 C18 1_555 1_555
C23 C24 1_555 1_555
C28 C29 1_555 1_555
C29 C30 1_555 1_555
C31 C32 1_555 1_555
C38 C39 1_555 1_555
C40 C41 1_555 1_555
C41 C42 1_555 1_555
C47 C48 1_555 1_555

#END
