
#######################################################################
#
#                 Cambridge Crystallographic Data Centre
#                                CCDC 
#
#######################################################################
#
# If this CIF has been generated from an entry in the Cambridge 
# Structural Database, then it will include bibliographic, chemical, 
# crystal, experimental, refinement or atomic coordinate data resulting 
# from the CCDC's data processing and validation procedures.
#
#######################################################################

data_JEKCIO
_chemical_formula_moiety         'C18 H18 Cl2 N2 O4 S1'
_chemical_name_systematic        
3-(3,4-dichloro-1,2-thiazol-5-yl)-3-(3,4-dimethoxyphenyl)-1-(morpholin-4-yl)prop-2-en-1-one
_symmetry_cell_setting           triclinic
_symmetry_space_group_name_H-M   'P -1'
_symmetry_Int_Tables_number      2
_space_group_name_Hall           '-P 1'
loop_
_symmetry_equiv_pos_site_id
_symmetry_equiv_pos_as_xyz
1 x,y,z
2 -x,-y,-z
_cell_length_a                   8.6136(12)
_cell_length_b                   11.2490(15)
_cell_length_c                   11.7697(17)
_cell_angle_alpha                113.5820(10)
_cell_angle_beta                 108.764(2)
_cell_angle_gamma                96.299(2)
_cell_volume                     951.551
_exptl_crystal_colour            colorless
_exptl_crystal_description       Prism
_cell_formula_units_Z            2
loop_
_atom_site_label
_atom_site_type_symbol
_atom_site_fract_x
_atom_site_fract_y
_atom_site_fract_z
S1 S -0.00534(4) 0.13086(3) 0.95406(3)
Cl1 Cl -0.00836(5) 0.51612(3) 1.17347(3)
Cl2 Cl 0.34962(4) 0.50306(3) 1.12137(4)
O1 O 0.33421(13) 0.06115(11) 1.13016(10)
O2 O 0.79533(19) 0.45007(14) 1.49658(11)
O3 O 0.53510(12) 0.15430(11) 0.58880(9)
O4 O 0.26136(13) 0.17886(11) 0.44138(10)
N1 N -0.08024(15) 0.25370(12) 1.03340(12)
N2 N 0.58187(15) 0.22792(12) 1.24690(11)
C1 C 0.03349(17) 0.36834(14) 1.08519(13)
C2 C 0.18611(16) 0.36382(13) 1.06306(12)
C3 C 0.18303(16) 0.23359(13) 0.98780(12)
C4 C 0.31128(16) 0.18485(12) 0.93476(12)
C5 C 0.43484(17) 0.14866(13) 1.00575(12)
H1 H 0.5209 0.1253 0.9739
C6 C 0.44444(16) 0.14315(13) 1.13319(13)
C7 C 0.71652(18) 0.32575(15) 1.25445(14)
H2 H 0.6791 0.3347 1.1701
H3 H 0.8204 0.2939 1.2638
C8 C 0.7561(3) 0.46087(18) 1.37411(16)
H4 H 0.8542 0.5242 1.3834
H5 H 0.6567 0.4980 1.3583
C9 C 0.6529(2) 0.36220(16) 1.48613(15)
H6 H 0.5527 0.3982 1.4688
H7 H 0.6791 0.3588 1.5729
C10 C 0.61056(18) 0.22182(14) 1.37371(13)
H8 H 0.7057 0.1815 1.3950
H9 H 0.5069 0.1644 1.3644
C11 C 0.29537(16) 0.18413(12) 0.80499(12)
C12 C 0.14744(17) 0.19746(14) 0.72389(13)
H10 H 0.0565 0.2083 0.7527
C13 C 0.12977(17) 0.19518(14) 0.60055(13)
H11 H 0.0272 0.2037 0.5463
C14 C 0.26120(17) 0.18050(13) 0.55762(12)
C15 C 0.41302(16) 0.16699(13) 0.63952(12)
C16 C 0.42923(16) 0.16866(13) 0.76084(12)
H12 H 0.5313 0.1593 0.8149
C17 C 0.10989(19) 0.18787(16) 0.35227(14)
H13 H 0.0127 0.1152 0.3280
H14 H 0.1237 0.1793 0.2701
H15 H 0.0895 0.2753 0.3976
C18 C 0.68870(16) 0.13637(15) 0.66591(14)
H16 H 0.7470 0.2170 0.7538
H17 H 0.7634 0.1220 0.6169
H18 H 0.6609 0.0578 0.6798
loop_
_geom_bond_atom_site_label_1
_geom_bond_atom_site_label_2
_geom_bond_site_symmetry_1
_geom_bond_site_symmetry_2
S1 N1 1_555 1_555
Cl1 C1 1_555 1_555
Cl2 C2 1_555 1_555
O1 C6 1_555 1_555
O2 C8 1_555 1_555
O3 C15 1_555 1_555
O4 C14 1_555 1_555
N1 C1 1_555 1_555
N2 C6 1_555 1_555
C1 C2 1_555 1_555
C2 C3 1_555 1_555
C3 S1 1_555 1_555
C4 C3 1_555 1_555
C5 C4 1_555 1_555
H1 C5 1_555 1_555
C6 C5 1_555 1_555
C7 N2 1_555 1_555
H2 C7 1_555 1_555
H3 C7 1_555 1_555
C8 C7 1_555 1_555
H4 C8 1_555 1_555
H5 C8 1_555 1_555
C9 O2 1_555 1_555
H6 C9 1_555 1_555
H7 C9 1_555 1_555
C10 N2 1_555 1_555
H8 C10 1_555 1_555
H9 C10 1_555 1_555
C11 C4 1_555 1_555
C12 C11 1_555 1_555
H10 C12 1_555 1_555
C13 C12 1_555 1_555
H11 C13 1_555 1_555
C14 C13 1_555 1_555
C15 C14 1_555 1_555
C16 C11 1_555 1_555
H12 C16 1_555 1_555
C17 O4 1_555 1_555
H13 C17 1_555 1_555
H14 C17 1_555 1_555
H15 C17 1_555 1_555
C18 O3 1_555 1_555
H16 C18 1_555 1_555
H17 C18 1_555 1_555
H18 C18 1_555 1_555
C9 C10 1_555 1_555
C15 C16 1_555 1_555

#END
