
#######################################################################
#
#                 Cambridge Crystallographic Data Centre
#                                CCDC 
#
#######################################################################
#
# If this CIF has been generated from an entry in the Cambridge 
# Structural Database, then it will include bibliographic, chemical, 
# crystal, experimental, refinement or atomic coordinate data resulting 
# from the CCDC's data processing and validation procedures.
#
#######################################################################

data_JEKNUL
_chemical_formula_moiety         'C18 H16 N2 O1'
_chemical_name_systematic        
3-(biphenyl-4-yl)-2-cyano-N,N-dimethylacrylamide
_symmetry_cell_setting           triclinic
_symmetry_space_group_name_H-M   'P -1'
_symmetry_Int_Tables_number      2
_space_group_name_Hall           '-P 1'
loop_
_symmetry_equiv_pos_site_id
_symmetry_equiv_pos_as_xyz
1 x,y,z
2 -x,-y,-z
_cell_length_a                   7.8375(9)
_cell_length_b                   9.2459(10)
_cell_length_c                   22.239(3)
_cell_angle_alpha                86.735(3)
_cell_angle_beta                 82.286(3)
_cell_angle_gamma                64.911(3)
_cell_volume                     1446.29
_exptl_crystal_colour            colorless
_exptl_crystal_description       needle
_cell_formula_units_Z            4
loop_
_atom_site_label
_atom_site_type_symbol
_atom_site_fract_x
_atom_site_fract_y
_atom_site_fract_z
C1 C 0.3960(7) 0.2851(6) 0.4720(2)
H1 H 0.4032 0.1900 0.4924
C2 C 0.5065(6) 0.2607(6) 0.4180(2)
C3 C 0.6402(7) 0.0896(6) 0.39948(19)
O1 O 0.7088(5) -0.0084(4) 0.43888(14)
N1 N 0.6855(5) 0.0516(4) 0.33989(15)
C4 C 0.5707(7) 0.1436(6) 0.2929(2)
H2 H 0.6391 0.1964 0.2671
H3 H 0.4500 0.2243 0.3119
H4 H 0.5460 0.0719 0.2681
C5 C 0.8297(7) -0.1048(7) 0.3217(2)
H5 H 0.8974 -0.0973 0.2821
H6 H 0.7699 -0.1778 0.3187
H7 H 0.9196 -0.1455 0.3518
C6 C 0.5203(6) 0.3857(5) 0.3791(2)
N2 N 0.5372(6) 0.4800(5) 0.34716(17)
C7 C 0.2700(6) 0.4290(6) 0.5039(2)
C8 C 0.2327(7) 0.5876(5) 0.4848(2)
H8 H 0.2919 0.6041 0.4466
C9 C 0.1142(7) 0.7176(6) 0.5197(2)
H9 H 0.0916 0.8217 0.5048
C10 C 0.0263(6) 0.7006(6) 0.57642(19)
C11 C 0.0599(6) 0.5461(5) 0.59587(19)
H10 H 0.0002 0.5306 0.6342
C12 C 0.1788(6) 0.4143(5) 0.56033(19)
H11 H 0.1985 0.3107 0.5751
C13 C -0.0942(6) 0.8427(5) 0.61430(19)
C14 C -0.2227(6) 0.9787(5) 0.5894(2)
H12 H -0.2333 0.9829 0.5472
C15 C -0.3371(6) 1.1100(5) 0.6262(2)
H13 H -0.4262 1.2030 0.6088
C16 C -0.3233(7) 1.1073(7) 0.6872(2)
H14 H -0.4023 1.1974 0.7119
C17 C -0.1929(7) 0.9716(6) 0.7123(2)
H15 H -0.1810 0.9699 0.7543
C18 C -0.0800(6) 0.8390(5) 0.6772(2)
H16 H 0.0068 0.7457 0.6951
C19 C 0.3145(7) 0.7798(5) 0.03194(19)
H17 H 0.4033 0.6847 0.0116
C20 C 0.2287(6) 0.7550(5) 0.0862(2)
C21 C 0.2670(6) 0.5832(6) 0.10267(19)
O2 O 0.2978(4) 0.4869(4) 0.06214(13)
N3 N 0.2630(5) 0.5412(4) 0.16198(15)
C22 C 0.2841(7) 0.6270(6) 0.2107(2)
H18 H 0.3846 0.5535 0.2338
H19 H 0.1643 0.6727 0.2376
H20 H 0.3178 0.7129 0.1937
C23 C 0.2793(7) 0.3819(6) 0.1769(2)
H21 H 0.2214 0.3803 0.2187
H22 H 0.4136 0.3068 0.1731
H23 H 0.2139 0.3506 0.1491
C24 C 0.0933(6) 0.8782(5) 0.12477(18)
N4 N -0.0199(5) 0.9770(5) 0.15729(17)
C25 C 0.2946(7) 0.9276(6) -0.0011(2)
C26 C 0.1778(7) 1.0799(6) 0.0195(2)
H24 H 0.1047 1.0948 0.0582
C27 C 0.1658(7) 1.2137(6) -0.0164(2)
H25 H 0.0861 1.3180 -0.0013
C28 C 0.2690(6) 1.1951(6) -0.0735(2)
C29 C 0.3892(6) 1.0387(5) -0.09259(19)
H26 H 0.4630 1.0222 -0.1312
C30 C 0.4035(6) 0.9077(5) -0.05682(19)
H27 H 0.4888 0.8035 -0.0706
C31 C 0.2498(6) 1.3341(6) -0.1121(2)
C32 C 0.2366(7) 1.4736(6) -0.0883(2)
H28 H 0.2414 1.4798 -0.0461
C33 C 0.2164(6) 1.6049(6) -0.1248(2)
H29 H 0.2102 1.6991 -0.1077
C34 C 0.2054(7) 1.5995(7) -0.1854(2)
H30 H 0.1881 1.6906 -0.2102
C35 C 0.2197(7) 1.4590(7) -0.2109(2)
H31 H 0.2152 1.4544 -0.2532
C36 C 0.2406(6) 1.3269(6) -0.17473(19)
H32 H 0.2486 1.2322 -0.1920
loop_
_geom_bond_atom_site_label_1
_geom_bond_atom_site_label_2
_geom_bond_site_symmetry_1
_geom_bond_site_symmetry_2
C1 H1 1_555 1_555
C2 C1 1_555 1_555
C3 C2 1_555 1_555
O1 C3 1_555 1_555
N1 C3 1_555 1_555
C4 N1 1_555 1_555
H2 C4 1_555 1_555
H3 C4 1_555 1_555
H4 C4 1_555 1_555
C5 N1 1_555 1_555
H5 C5 1_555 1_555
H6 C5 1_555 1_555
H7 C5 1_555 1_555
C6 C2 1_555 1_555
N2 C6 1_555 1_555
C7 C1 1_555 1_555
C8 C7 1_555 1_555
H8 C8 1_555 1_555
C9 C8 1_555 1_555
H9 C9 1_555 1_555
C10 C9 1_555 1_555
C11 C10 1_555 1_555
H10 C11 1_555 1_555
C12 C7 1_555 1_555
H11 C12 1_555 1_555
C13 C10 1_555 1_555
C14 C13 1_555 1_555
H12 C14 1_555 1_555
C15 C14 1_555 1_555
H13 C15 1_555 1_555
C16 C15 1_555 1_555
H14 C16 1_555 1_555
C17 C16 1_555 1_555
H15 C17 1_555 1_555
C18 C13 1_555 1_555
H16 C18 1_555 1_555
C19 H17 1_555 1_555
C20 C19 1_555 1_555
C21 C20 1_555 1_555
O2 C21 1_555 1_555
N3 C21 1_555 1_555
C22 N3 1_555 1_555
H18 C22 1_555 1_555
H19 C22 1_555 1_555
H20 C22 1_555 1_555
C23 N3 1_555 1_555
H21 C23 1_555 1_555
H22 C23 1_555 1_555
H23 C23 1_555 1_555
C24 C20 1_555 1_555
N4 C24 1_555 1_555
C25 C19 1_555 1_555
C26 C25 1_555 1_555
H24 C26 1_555 1_555
C27 C26 1_555 1_555
H25 C27 1_555 1_555
C28 C27 1_555 1_555
C29 C28 1_555 1_555
H26 C29 1_555 1_555
C30 C25 1_555 1_555
H27 C30 1_555 1_555
C31 C28 1_555 1_555
C32 C31 1_555 1_555
H28 C32 1_555 1_555
C33 C32 1_555 1_555
H29 C33 1_555 1_555
C34 C33 1_555 1_555
H30 C34 1_555 1_555
C35 C34 1_555 1_555
H31 C35 1_555 1_555
C36 C31 1_555 1_555
H32 C36 1_555 1_555
C11 C12 1_555 1_555
C17 C18 1_555 1_555
C29 C30 1_555 1_555
C35 C36 1_555 1_555

#END
