
#######################################################################
#
#                 Cambridge Crystallographic Data Centre
#                                CCDC 
#
#######################################################################
#
# If this CIF has been generated from an entry in the Cambridge 
# Structural Database, then it will include bibliographic, chemical, 
# crystal, experimental, refinement or atomic coordinate data resulting 
# from the CCDC's data processing and validation procedures.
#
#######################################################################

data_JEKYIK
_chemical_formula_moiety         'C18 H14 O4 2-,2(C4 H12 N1 1+)'
_chemical_name_systematic        
'bis(butan-1-aminium) 2,4-diphenylcyclobutane-1,3-dicarboxylate'
_symmetry_cell_setting           triclinic
_symmetry_space_group_name_H-M   'P -1'
_symmetry_Int_Tables_number      2
_space_group_name_Hall           '-P 1'
loop_
_symmetry_equiv_pos_site_id
_symmetry_equiv_pos_as_xyz
1 x,y,z
2 -x,-y,-z
_cell_length_a                   6.1667(5)
_cell_length_b                   9.3491(6)
_cell_length_c                   10.8378(9)
_cell_angle_alpha                98.608(5)
_cell_angle_beta                 91.191(7)
_cell_angle_gamma                96.935(5)
_cell_volume                     612.794
_exptl_crystal_colour            colorless
_exptl_crystal_description       plate
_cell_formula_units_Z            1
loop_
_atom_site_label
_atom_site_type_symbol
_atom_site_fract_x
_atom_site_fract_y
_atom_site_fract_z
C1 C 0.7175(4) 0.2307(2) 0.5370(2)
C2 C 0.5425(4) 0.1083(2) 0.5561(2)
H1 H 0.456323 0.138568 0.630578
C3 C 0.6159(4) -0.0437(2) 0.5611(2)
H2 H 0.771642 -0.043616 0.537160
C4 C 0.5830(4) -0.1041(2) 0.6817(2)
C5 C 0.7429(4) -0.1769(3) 0.7295(2)
H3 H 0.870351 -0.191009 0.683781
C6 C 0.7195(5) -0.2290(3) 0.8424(3)
H4 H 0.829474 -0.279259 0.872623
C7 C 0.5369(5) -0.2079(3) 0.9109(2)
H5 H 0.521784 -0.242252 0.988890
C8 C 0.3754(4) -0.1362(3) 0.8651(2)
H6 H 0.249448 -0.121191 0.912015
C9 C 0.3974(4) -0.0861(3) 0.7508(2)
H7 H 0.284517 -0.039021 0.719424
O1 O 0.6593(3) 0.35913(18) 0.55741(17)
O2 O 0.9020(3) 0.20333(18) 0.50489(16)
C1A C 0.2825(4) -0.2307(2) 0.4630(2)
C2A C 0.4575(4) -0.1083(2) 0.4439(2)
H1A H 0.543677 -0.138568 0.369422
C3A C 0.3841(4) 0.0437(2) 0.4389(2)
H2A H 0.228358 0.043616 0.462840
C4A C 0.4170(4) 0.1041(2) 0.3183(2)
C5A C 0.2571(4) 0.1769(3) 0.2705(2)
H3A H 0.129649 0.191009 0.316219
C6A C 0.2805(5) 0.2290(3) 0.1576(3)
H4A H 0.170526 0.279259 0.127377
C7A C 0.4631(5) 0.2079(3) 0.0891(2)
H5A H 0.478216 0.242252 0.011110
C8A C 0.6246(4) 0.1362(3) 0.1349(2)
H6A H 0.750552 0.121191 0.087985
C9A C 0.6026(4) 0.0861(3) 0.2492(2)
H7A H 0.715483 0.039021 0.280576
O1A O 0.3407(3) -0.35913(18) 0.44259(17)
O2A O 0.0980(3) -0.20333(18) 0.49511(16)
C10 C 0.7983(5) 0.5054(3) 0.2896(2)
H8 H 0.705552 0.409929 0.272612
H9 H 0.952776 0.487332 0.282192
C11 C 0.7422(5) 0.5990(3) 0.1927(3)
H10 H 0.741327 0.540010 0.108742
H11 H 0.592315 0.624290 0.206321
C12 C 0.8961(5) 0.7394(3) 0.1937(3)
H12 H 0.830473 0.800844 0.139987
H13 H 0.910770 0.793568 0.279873
C13 C 1.1225(5) 0.7147(3) 0.1487(3)
H14 H 1.110174 0.664433 0.062283
H15 H 1.189640 0.654999 0.202021
H16 H 1.213455 0.808939 0.152701
N1 N 0.7649(3) 0.5761(2) 0.41877(19)
H17 H 0.635795 0.614214 0.420902
H18 H 0.876328 0.648602 0.443102
H19 H 0.762026 0.508712 0.471442
loop_
_geom_bond_atom_site_label_1
_geom_bond_atom_site_label_2
_geom_bond_site_symmetry_1
_geom_bond_site_symmetry_2
C1 C2 1_555 1_555
C2 H1 1_555 1_555
C3 C2 1_555 1_555
H2 C3 1_555 1_555
C4 C3 1_555 1_555
C5 C4 1_555 1_555
H3 C5 1_555 1_555
C6 C5 1_555 1_555
H4 C6 1_555 1_555
C7 C6 1_555 1_555
H5 C7 1_555 1_555
C8 C7 1_555 1_555
H6 C8 1_555 1_555
C9 C4 1_555 1_555
H7 C9 1_555 1_555
O1 C1 1_555 1_555
O2 C1 1_555 1_555
C10 H8 1_555 1_555
H9 C10 1_555 1_555
C11 C10 1_555 1_555
H10 C11 1_555 1_555
H11 C11 1_555 1_555
C12 C11 1_555 1_555
H12 C12 1_555 1_555
H13 C12 1_555 1_555
C13 C12 1_555 1_555
H14 C13 1_555 1_555
H15 C13 1_555 1_555
H16 C13 1_555 1_555
N1 C10 1_555 1_555
H17 N1 1_555 1_555
H18 N1 1_555 1_555
H19 N1 1_555 1_555
C1A C2A 1_555 1_555
C2A C3 1_555 1_555
H1A C2A 1_555 1_555
C3A C2 1_555 1_555
H2A C3A 1_555 1_555
C4A C3A 1_555 1_555
C5A C4A 1_555 1_555
H3A C5A 1_555 1_555
C6A C5A 1_555 1_555
H4A C6A 1_555 1_555
C7A C6A 1_555 1_555
H5A C7A 1_555 1_555
C8A C7A 1_555 1_555
H6A C8A 1_555 1_555
C9A C4A 1_555 1_555
H7A C9A 1_555 1_555
O1A C1A 1_555 1_555
O2A C1A 1_555 1_555
C8 C9 1_555 1_555
C2A C3A 1_555 1_555
C8A C9A 1_555 1_555

#END
