
#######################################################################
#
#                 Cambridge Crystallographic Data Centre
#                                CCDC 
#
#######################################################################
#
# If this CIF has been generated from an entry in the Cambridge 
# Structural Database, then it will include bibliographic, chemical, 
# crystal, experimental, refinement or atomic coordinate data resulting 
# from the CCDC's data processing and validation procedures.
#
#######################################################################

data_JENXUY
_chemical_formula_moiety         'C17 H12 F2 O2'
_chemical_name_systematic        
3-(difluoromethyl)-7-methyl-4-phenyl-2H-1-benzopyran-2-one
_symmetry_cell_setting           monoclinic
_symmetry_space_group_name_H-M   'P 21/c'
_symmetry_Int_Tables_number      14
_space_group_name_Hall           '-P 2ybc'
loop_
_symmetry_equiv_pos_site_id
_symmetry_equiv_pos_as_xyz
1 x,y,z
2 -x,1/2+y,1/2-z
3 -x,-y,-z
4 x,1/2-y,1/2+z
_cell_length_a                   9.9567(6)
_cell_length_b                   26.208(2)
_cell_length_c                   11.6346(9)
_cell_angle_alpha                90
_cell_angle_beta                 109.833(8)
_cell_angle_gamma                90
_cell_volume                     2855.91
_exptl_crystal_colour            colorless
_exptl_crystal_description       block
_cell_formula_units_Z            8
loop_
_atom_site_label
_atom_site_type_symbol
_atom_site_fract_x
_atom_site_fract_y
_atom_site_fract_z
O1 O 0.40513(19) 0.34148(8) 0.41865(19)
O2 O 0.3180(2) 0.30920(10) 0.2345(2)
F1 F 0.5647(3) 0.29209(13) 0.1341(2)
C1 C 0.5182(3) 0.35408(11) 0.5222(3)
C2 C 0.6570(3) 0.34017(12) 0.5337(3)
C3 C 0.6804(3) 0.31084(11) 0.4366(3)
C4 C 0.4229(3) 0.31528(13) 0.3224(3)
C5 C 0.8300(3) 0.29562(12) 0.4497(3)
F2 F 0.4862(3) 0.22879(12) 0.2080(3)
C6 C 0.4864(3) 0.38145(12) 0.6106(3)
H1 H 0.3922 0.3902 0.5990
C7 C 0.5674(3) 0.29845(12) 0.3368(3)
C8 C 0.5931(3) 0.39597(13) 0.7161(3)
C9 C 0.8999(3) 0.31946(14) 0.3806(3)
H2 H 0.8529 0.3443 0.3242
C10 C 0.7645(3) 0.35632(15) 0.6394(3)
H3 H 0.8593 0.3488 0.6501
C11 C 0.7321(4) 0.38315(15) 0.7276(3)
H4 H 0.8059 0.3931 0.7976
C12 C 0.9010(4) 0.25881(15) 0.5328(3)
H5 H 0.8551 0.2427 0.5804
C13 C 1.1087(4) 0.27005(17) 0.4773(4)
H6 H 1.2026 0.2616 0.4871
C14 C 0.5607(4) 0.42282(16) 0.8179(3)
H7 H 0.4707 0.4402 0.7855
H8 H 0.6346 0.4471 0.8556
H9 H 0.5559 0.3983 0.8777
C15 C 1.0401(4) 0.30666(16) 0.3946(4)
H10 H 1.0869 0.3229 0.3480
C16 C 0.5851(4) 0.26549(16) 0.2379(4)
H11 H 0.6806 0.2502 0.2654
C17 C 1.0401(4) 0.24565(16) 0.5459(4)
H12 H 1.0869 0.2204 0.6010
O3 O 0.3078(2) 0.45605(9) 0.33333(19)
F3 F -0.0556(2) 0.37806(10) 0.1309(2)
F4 F -0.0902(2) 0.44829(10) 0.0270(2)
O4 O 0.0775(3) 0.45476(14) 0.3010(3)
C18 C 0.4012(3) 0.43326(11) 0.1737(3)
C19 C 0.5556(3) 0.45920(12) 0.3756(3)
H13 H 0.5650 0.4693 0.4546
C20 C 0.4224(3) 0.44923(11) 0.2927(3)
C21 C 0.2318(3) 0.40354(12) -0.0341(3)
C22 C 0.6762(3) 0.45429(12) 0.3423(3)
C23 C 0.2584(3) 0.42104(11) 0.0945(3)
C24 C 0.6575(3) 0.43984(13) 0.2228(3)
H14 H 0.7367 0.4371 0.1980
C25 C 0.5244(3) 0.42955(12) 0.1410(3)
H15 H 0.5153 0.4199 0.0618
C26 C 0.1484(3) 0.42538(13) 0.1383(3)
C27 C 0.2725(4) 0.35569(14) -0.0579(3)
H16 H 0.3217 0.3342 0.0062
C28 C 0.0011(4) 0.40823(16) 0.0641(3)
H17 H 0.0045 0.3893 -0.0075
C29 C 0.8224(3) 0.46345(15) 0.4347(3)
H18 H 0.8215 0.4945 0.4784
H19 H 0.8908 0.4663 0.3935
H20 H 0.8478 0.4354 0.4911
C30 C 0.1697(4) 0.3710(2) -0.2729(4)
H21 H 0.1483 0.3599 -0.3530
C31 C 0.1613(4) 0.43518(14) -0.1308(3)
H22 H 0.1340 0.4678 -0.1159
C32 C 0.2401(4) 0.33948(16) -0.1778(4)
H23 H 0.2665 0.3069 -0.1937
C33 C 0.1706(3) 0.44568(15) 0.2596(3)
C34 C 0.1313(4) 0.41847(19) -0.2497(3)
H24 H 0.0843 0.4400 -0.3144
loop_
_geom_bond_atom_site_label_1
_geom_bond_atom_site_label_2
_geom_bond_site_symmetry_1
_geom_bond_site_symmetry_2
O1 C1 1_555 1_555
O2 C4 1_555 1_555
F1 C16 1_555 1_555
C1 C2 1_555 1_555
C2 C3 1_555 1_555
C3 C5 1_555 1_555
C4 O1 1_555 1_555
C5 C9 1_555 1_555
F2 C16 1_555 1_555
C6 C1 1_555 1_555
H1 C6 1_555 1_555
C7 C3 1_555 1_555
C8 C6 1_555 1_555
C9 H2 1_555 1_555
C10 C2 1_555 1_555
H3 C10 1_555 1_555
C11 C8 1_555 1_555
H4 C11 1_555 1_555
C12 C5 1_555 1_555
H5 C12 1_555 1_555
C13 H6 1_555 1_555
C14 C8 1_555 1_555
H7 C14 1_555 1_555
H8 C14 1_555 1_555
H9 C14 1_555 1_555
C15 C9 1_555 1_555
H10 C15 1_555 1_555
C16 C7 1_555 1_555
H11 C16 1_555 1_555
C17 C12 1_555 1_555
H12 C17 1_555 1_555
O3 C20 1_555 1_555
F3 C28 1_555 1_555
F4 C28 1_555 1_555
O4 C33 1_555 1_555
C18 C20 1_555 1_555
C19 H13 1_555 1_555
C20 C19 1_555 1_555
C21 C23 1_555 1_555
C22 C19 1_555 1_555
C23 C18 1_555 1_555
C24 C22 1_555 1_555
H14 C24 1_555 1_555
C25 C18 1_555 1_555
H15 C25 1_555 1_555
C26 C23 1_555 1_555
C27 C21 1_555 1_555
H16 C27 1_555 1_555
C28 C26 1_555 1_555
H17 C28 1_555 1_555
C29 C22 1_555 1_555
H18 C29 1_555 1_555
H19 C29 1_555 1_555
H20 C29 1_555 1_555
C30 H21 1_555 1_555
C31 C21 1_555 1_555
H22 C31 1_555 1_555
C32 C27 1_555 1_555
H23 C32 1_555 1_555
C33 O3 1_555 1_555
C34 C30 1_555 1_555
H24 C34 1_555 1_555
C4 C7 1_555 1_555
C10 C11 1_555 1_555
C13 C15 1_555 1_555
C13 C17 1_555 1_555
C24 C25 1_555 1_555
C26 C33 1_555 1_555
C30 C32 1_555 1_555
C31 C34 1_555 1_555

#END
