
#######################################################################
#
#                 Cambridge Crystallographic Data Centre
#                                CCDC 
#
#######################################################################
#
# If this CIF has been generated from an entry in the Cambridge 
# Structural Database, then it will include bibliographic, chemical, 
# crystal, experimental, refinement or atomic coordinate data resulting 
# from the CCDC's data processing and validation procedures.
#
#######################################################################

data_JESTOT
_chemical_formula_moiety         'K1 1+,C34 H43 Cl1 F2 N5 O9 S1 1-'
_chemical_name_systematic        
'potassium t-butyl ((S)-1-((2S,4R)-4-((7-chloro-4-methoxyisoquinolin-1-yl)oxy)-2-(((1R,2R)-1-((cyclopropylsulfonyl)carbamoyl)-2-(difluoromethyl)cyclopropyl)carbamoyl)pyrrolidin-1-yl)-3,3-dimethyl-1-oxobutan-2-yl)carbamate'
_chemical_properties_biological  'potent inhibitor of HCV NS3/4A protease'
_symmetry_cell_setting           monoclinic
_symmetry_space_group_name_H-M   'P 21'
_symmetry_Int_Tables_number      4
_space_group_name_Hall           'P 2yb'
loop_
_symmetry_equiv_pos_site_id
_symmetry_equiv_pos_as_xyz
1 x,y,z
2 -x,1/2+y,-z
_cell_length_a                   15.2478(8)
_cell_length_b                   6.5503(4)
_cell_length_c                   20.7800(9)
_cell_angle_alpha                90
_cell_angle_beta                 102.873(3)
_cell_angle_gamma                90
_cell_volume                     2023.29
_exptl_crystal_description       blade
_cell_formula_units_Z            2
_exptl_crystal_recrystallization_method acetone/water
loop_
_atom_site_label
_atom_site_type_symbol
_atom_site_fract_x
_atom_site_fract_y
_atom_site_fract_z
S1 S 0.45805(10) 0.0563(4) 0.61816(8)
O1 O 0.5998(3) 0.0044(10) 0.5532(2)
Cl1 Cl 0.80766(14) 0.5695(6) 1.13151(10)
O2 O 0.6046(2) 0.6038(8) 0.89254(17)
O3 O 0.3602(3) 0.5794(10) 1.0475(2)
O4 O 0.8028(3) 0.9516(7) 0.81508(18)
O5 O 1.0029(4) 0.7819(11) 0.6918(3)
O6 O 0.9502(4) 0.4658(12) 0.7090(3)
O7 O 0.6763(3) 0.5255(7) 0.66824(16)
N1 N 0.4564(3) 0.5803(9) 0.9003(2)
N2 N 0.7161(3) 0.6709(7) 0.79889(19)
N3 N 0.9341(3) 0.7386(10) 0.7723(2)
H1 H 0.9487 0.8643 0.7806
N4 N 0.7289(3) 0.2152(8) 0.70505(19)
H2 H 0.7561 0.1463 0.7389
C1 C 0.3954(4) 0.5759(11) 0.9395(3)
H3 H 0.3346 0.5703 0.9192
C2 C 0.5109(4) 0.5780(11) 1.0384(3)
C3 C 0.4185(4) 0.5792(11) 1.0064(3)
C4 C 0.5403(4) 0.5855(10) 0.9283(2)
C5 C 0.6665(4) 0.5775(12) 1.0272(3)
H4 H 0.7087 0.5773 1.0011
C6 C 0.5749(4) 0.5798(10) 0.9986(3)
C7 C 0.6301(5) 0.5743(14) 1.1346(3)
H5 H 0.6499 0.5738 1.1803
C8 C 0.6932(5) 0.5754(13) 1.0941(3)
C9 C 0.5421(5) 0.5740(12) 1.1075(3)
H6 H 0.5010 0.5712 1.1345
C10 C 0.2665(5) 0.5746(17) 1.0186(5)
H7 H 0.2515 0.6856 0.9879
H8 H 0.2332 0.5874 1.0525
H9 H 0.2516 0.4476 0.9957
C11 C 0.6965(4) 0.4553(10) 0.7837(2)
H10 H 0.7358 0.3658 0.8154
C12 C 0.6342(4) 0.7834(12) 0.8014(3)
H11 H 0.6066 0.8400 0.7586
H12 H 0.6468 0.8933 0.8335
C13 C 0.5965(5) 0.4345(15) 0.7883(3)
H13 H 0.5577 0.4227 0.7446
H14 H 0.5883 0.3149 0.8138
C14 C 0.5753(4) 0.6254(12) 0.8218(3)
H15 H 0.5114 0.6618 0.8085
C15 C 0.7955(3) 0.7639(9) 0.8081(2)
C16 C 0.8802(3) 0.6348(10) 0.8114(2)
H16 H 0.8619 0.5024 0.7908
C17 C 0.9323(4) 0.5962(14) 0.8838(3)
C18 C 0.8696(5) 0.502(2) 0.9228(3)
H17 H 0.8558 0.3640 0.9081
H18 H 0.8151 0.5799 0.9161
H19 H 0.8983 0.5014 0.9689
C19 C 0.9697(7) 0.797(2) 0.9165(4)
H20 H 1.0102 0.7692 0.9579
H21 H 0.9210 0.8807 0.9238
H22 H 1.0013 0.8686 0.8881
C20 C 1.0084(6) 0.454(2) 0.8832(5)
H23 H 1.0351 0.4129 0.9276
H24 H 1.0527 0.5223 0.8645
H25 H 0.9865 0.3363 0.8572
C21 C 0.9618(4) 0.6411(15) 0.7231(3)
C22 C 1.0473(6) 0.727(2) 0.6381(5)
C23 C 0.9814(9) 0.643(3) 0.5820(5)
H26 H 0.9384 0.5617 0.5979
H27 H 1.0117 0.5601 0.5557
H28 H 0.9508 0.7531 0.5556
C24 C 1.1253(8) 0.590(4) 0.6671(7)
H29 H 1.1049 0.4513 0.6663
H30 H 1.1504 0.6302 0.7119
H31 H 1.1705 0.6014 0.6417
C25 C 0.6166(4) 0.0793(12) 0.6095(2)
C26 C 0.7012(3) 0.4053(9) 0.7129(2)
C27 C 0.7136(4) 0.1252(10) 0.6405(2)
C28 C 0.7788(4) 0.1885(13) 0.5993(3)
H32 H 0.8273 0.2771 0.6227
C29 C 0.7817(5) -0.0209(14) 0.6269(3)
H33 H 0.7607 -0.1320 0.5965
H34 H 0.8316 -0.0552 0.6631
F1 F 0.8247(4) 0.2062(16) 0.5013(2)
C30 C 0.7532(5) 0.227(2) 0.5279(3)
H35 H 0.7040 0.1366 0.5064
F2 F 0.7294(5) 0.4279(15) 0.5180(3)
C31 C 0.3075(6) 0.188(3) 0.6597(7)
H36 H 0.2808 0.1867 0.6127
H37 H 0.2669 0.1486 0.6875
N5 N 0.5612(3) 0.1021(10) 0.6498(2)
C32 C 1.0847(11) 0.933(3) 0.6241(7)
H38 H 1.1057 0.9252 0.5839
H39 H 1.1337 0.9692 0.6598
H40 H 1.0383 1.0342 0.6196
O8 O 0.4218(4) 0.2016(12) 0.5636(3)
O9 O 0.4406(4) -0.1510(10) 0.6015(3)
C33 C 0.4076(5) 0.121(2) 0.6821(4)
H41 H 0.4259 0.0470 0.7238
C34 C 0.3742(6) 0.345(2) 0.6845(7)
H42 H 0.3747 0.4031 0.7276
H43 H 0.3886 0.4412 0.6528
K1 K 0.45152(11) 0.0659(3) 0.44356(6)
loop_
_geom_bond_atom_site_label_1
_geom_bond_atom_site_label_2
_geom_bond_site_symmetry_1
_geom_bond_site_symmetry_2
S1 N5 1_555 1_555
O1 C25 1_555 1_555
Cl1 C8 1_555 1_555
O2 C4 1_555 1_555
O3 C3 1_555 1_555
O4 C15 1_555 1_555
O5 C21 1_555 1_555
O6 C21 1_555 1_555
O7 C26 1_555 1_555
N1 C1 1_555 1_555
N2 C11 1_555 1_555
N3 H1 1_555 1_555
N4 H2 1_555 1_555
C1 H3 1_555 1_555
C2 C3 1_555 1_555
C3 C1 1_555 1_555
C4 N1 1_555 1_555
C5 H4 1_555 1_555
C6 C2 1_555 1_555
C7 H5 1_555 1_555
C8 C5 1_555 1_555
C9 C2 1_555 1_555
H6 C9 1_555 1_555
C10 O3 1_555 1_555
H7 C10 1_555 1_555
H8 C10 1_555 1_555
H9 C10 1_555 1_555
C11 H10 1_555 1_555
C12 N2 1_555 1_555
H11 C12 1_555 1_555
H12 C12 1_555 1_555
C13 C11 1_555 1_555
H13 C13 1_555 1_555
H14 C13 1_555 1_555
C14 O2 1_555 1_555
H15 C14 1_555 1_555
C15 N2 1_555 1_555
C16 N3 1_555 1_555
H16 C16 1_555 1_555
C17 C16 1_555 1_555
C18 C17 1_555 1_555
H17 C18 1_555 1_555
H18 C18 1_555 1_555
H19 C18 1_555 1_555
C19 C17 1_555 1_555
H20 C19 1_555 1_555
H21 C19 1_555 1_555
H22 C19 1_555 1_555
C20 C17 1_555 1_555
H23 C20 1_555 1_555
H24 C20 1_555 1_555
H25 C20 1_555 1_555
C21 N3 1_555 1_555
C22 O5 1_555 1_555
C23 C22 1_555 1_555
H26 C23 1_555 1_555
H27 C23 1_555 1_555
H28 C23 1_555 1_555
C24 C22 1_555 1_555
H29 C24 1_555 1_555
H30 C24 1_555 1_555
H31 C24 1_555 1_555
C25 C27 1_555 1_555
C26 N4 1_555 1_555
C27 N4 1_555 1_555
C28 C27 1_555 1_555
H32 C28 1_555 1_555
C29 C27 1_555 1_555
H33 C29 1_555 1_555
H34 C29 1_555 1_555
F1 C30 1_555 1_555
C30 C28 1_555 1_555
H35 C30 1_555 1_555
F2 C30 1_555 1_555
C31 H36 1_555 1_555
H37 C31 1_555 1_555
N5 C25 1_555 1_555
C32 C22 1_555 1_555
H38 C32 1_555 1_555
H39 C32 1_555 1_555
H40 C32 1_555 1_555
O8 S1 1_555 1_555
O9 S1 1_555 1_555
C33 S1 1_555 1_555
H41 C33 1_555 1_555
C34 C31 1_555 1_555
H42 C34 1_555 1_555
H43 C34 1_555 1_555
C4 C6 1_555 1_555
C5 C6 1_555 1_555
C7 C8 1_555 1_555
C7 C9 1_555 1_555
C11 C26 1_555 1_555
C12 C14 1_555 1_555
C13 C14 1_555 1_555
C15 C16 1_555 1_555
C28 C29 1_555 1_555
C31 C33 1_555 1_555
C33 C34 1_555 1_555

#END
