
#######################################################################
#
#                 Cambridge Crystallographic Data Centre
#                                CCDC 
#
#######################################################################
#
# If this CIF has been generated from an entry in the Cambridge 
# Structural Database, then it will include bibliographic, chemical, 
# crystal, experimental, refinement or atomic coordinate data resulting 
# from the CCDC's data processing and validation procedures.
#
#######################################################################

data_JESVAH
_chemical_formula_moiety         'C12 H13 N1 O2,H2 O1'
_chemical_name_systematic        
'8-methyl-2,3,4,5,6,8-hexahydrodicyclopenta[b,e]pyridine-1,7-dione monohydrate'
_symmetry_cell_setting           orthorhombic
_symmetry_space_group_name_H-M   'C m c 21'
_symmetry_Int_Tables_number      36
_space_group_name_Hall           'C 2n -2'
loop_
_symmetry_equiv_pos_site_id
_symmetry_equiv_pos_as_xyz
1 x,y,z
2 -x,-y,1/2+z
3 -x,y,z
4 x,-y,1/2+z
5 1/2+x,1/2+y,z
6 1/2-x,1/2-y,1/2+z
7 1/2-x,1/2+y,z
8 1/2+x,1/2-y,1/2+z
_cell_length_a                   11.0829(12)
_cell_length_b                   9.2852(10)
_cell_length_c                   10.6667(12)
_cell_angle_alpha                90
_cell_angle_beta                 90
_cell_angle_gamma                90
_cell_volume                     1097.68
_exptl_crystal_colour            colorless
_exptl_crystal_description       block
_cell_formula_units_Z            4
loop_
_atom_site_label
_atom_site_type_symbol
_atom_site_fract_x
_atom_site_fract_y
_atom_site_fract_z
O1 O -0.22900(15) -0.0157(2) -0.1470(2)
N1 N -0.5000 0.2569(3) 0.0953(4)
H1 H -0.5000 0.3214 0.1532
C1 C -0.3949(2) 0.2038(3) 0.0476(3)
C2 C -0.2747(3) 0.2435(3) 0.0996(4)
C3 C -0.1880(3) 0.1636(4) 0.0136(4)
C4 C -0.2672(2) 0.0735(3) -0.0713(3)
C5 C -0.3908(2) 0.1075(3) -0.0472(3)
C6 C -0.5000 0.0518(4) -0.1164(4)
H2 H -0.5000 -0.0536 -0.1122
C7 C -0.5000 0.0971(5) -0.2533(5)
H3 H -0.5000 0.197(3) -0.261(5)
H4 H -0.572(3) 0.061(3) -0.294(4)
H5 H -0.145(3) 0.229(3) -0.037(3)
H6 H -0.130(3) 0.101(3) 0.054(4)
H7 H -0.262(2) 0.351(3) 0.099(4)
H8 H -0.265(3) 0.207(3) 0.188(4)
O1B O -0.77100(15) -0.0157(2) -0.1470(2)
C1B C -0.6051(2) 0.2038(3) 0.0476(3)
C2B C -0.7253(3) 0.2435(3) 0.0996(4)
C3B C -0.8120(3) 0.1636(4) 0.0136(4)
C4B C -0.7328(2) 0.0735(3) -0.0713(3)
C5B C -0.6092(2) 0.1075(3) -0.0472(3)
H4B H -0.428(3) 0.061(3) -0.294(4)
H5B H -0.855(3) 0.229(3) -0.037(3)
H6B H -0.870(3) 0.101(3) 0.054(4)
H7B H -0.738(2) 0.351(3) 0.099(4)
H8B H -0.735(3) 0.207(3) 0.188(4)
O2 O -0.5000 0.5133(4) -0.2414(4)
H9 H -0.570(3) 0.487(4) -0.204(4)
H9B H -0.430(3) 0.487(4) -0.204(4)
loop_
_geom_bond_atom_site_label_1
_geom_bond_atom_site_label_2
_geom_bond_site_symmetry_1
_geom_bond_site_symmetry_2
O1 C4 1_555 1_555
N1 H1 1_555 1_555
C1 N1 1_555 1_555
C2 C1 1_555 1_555
C3 C2 1_555 1_555
C4 C3 1_555 1_555
C5 C1 1_555 1_555
C6 C5 1_555 1_555
H2 C6 1_555 1_555
C7 C6 1_555 1_555
H3 C7 1_555 1_555
H4 C7 1_555 1_555
H5 C3 1_555 1_555
H6 C3 1_555 1_555
H7 C2 1_555 1_555
H8 C2 1_555 1_555
O2 H9 1_555 1_555
O1B C4B 1_555 1_555
C1B N1 1_555 1_555
C2B C1B 1_555 1_555
C3B C2B 1_555 1_555
C4B C3B 1_555 1_555
C5B C6 1_555 1_555
H4B C7 1_555 1_555
H5B C3B 1_555 1_555
H6B C3B 1_555 1_555
H7B C2B 1_555 1_555
H8B C2B 1_555 1_555
H9B O2 1_555 1_555
C4 C5 1_555 1_555
C1B C5B 1_555 1_555
C4B C5B 1_555 1_555

#END
