
#######################################################################
#
#                 Cambridge Crystallographic Data Centre
#                                CCDC 
#
#######################################################################
#
# If this CIF has been generated from an entry in the Cambridge 
# Structural Database, then it will include bibliographic, chemical, 
# crystal, experimental, refinement or atomic coordinate data resulting 
# from the CCDC's data processing and validation procedures.
#
#######################################################################

data_JETGEV
_chemical_formula_moiety         'C30 H30 N4 O2'
_chemical_name_systematic        
2-(3-Cyano-4-((E)-2-(4-(3-ethoxypropyl)-1,2,3,4-tetrahydrobenzo(f)quinolin-8-yl)vinyl)-5,5-dimethyl-5H-furan-2-ylidene)malononitrile
_symmetry_cell_setting           triclinic
_symmetry_space_group_name_H-M   'P -1'
_symmetry_Int_Tables_number      2
_space_group_name_Hall           '-P 1'
loop_
_symmetry_equiv_pos_site_id
_symmetry_equiv_pos_as_xyz
1 x,y,z
2 -x,-y,-z
_cell_length_a                   9.484(2)
_cell_length_b                   10.296(3)
_cell_length_c                   14.516(4)
_cell_angle_alpha                83.188(4)
_cell_angle_beta                 73.346(4)
_cell_angle_gamma                70.007(4)
_cell_volume                     1275.81
_exptl_crystal_colour            colorless
_exptl_crystal_description       irregular
_chemical_melting_point          198deg.C
_cell_formula_units_Z            2
loop_
_atom_site_label
_atom_site_type_symbol
_atom_site_fract_x
_atom_site_fract_y
_atom_site_fract_z
O1 O 1.26844(15) 0.44970(14) 1.22671(10)
O2 O 0.99183(17) 1.28832(15) 0.44328(10)
N1 N 1.6011(2) 0.2258(2) 1.28935(14)
N2 N 1.7372(2) 0.5643(2) 1.11700(14)
N3 N 1.4773(2) 0.74393(19) 0.99001(13)
N4 N 0.64165(19) 1.24499(18) 0.62416(12)
C1 C 1.3768(2) 0.5050(2) 1.17710(14)
C2 C 1.3143(2) 0.6135(2) 1.11349(13)
C3 C 1.1641(2) 0.62076(19) 1.12086(14)
C4 C 1.1266(2) 0.5106(2) 1.19277(14)
C5 C 1.5242(2) 0.4515(2) 1.19106(14)
C6 C 1.5651(2) 0.3278(2) 1.24653(15)
C7 C 1.6414(2) 0.5144(2) 1.14843(15)
C8 C 1.4050(2) 0.6873(2) 1.04668(14)
C9 C 0.9907(2) 0.5642(2) 1.27936(15)
H1 H 0.9842 0.4885 1.3265
H2 H 0.8941 0.6008 1.2590
H3 H 1.0058 0.6378 1.3086
C10 C 1.1118(2) 0.3953(2) 1.14271(15)
H4 H 1.2059 0.3597 1.0905
H5 H 1.0212 0.4320 1.1162
H6 H 1.0986 0.3205 1.1893
C11 C 1.0537(2) 0.7029(2) 1.07057(14)
H7 H 0.9533 0.6929 1.0898
C12 C 1.0797(2) 0.7942(2) 0.99772(14)
H8 H 1.1782 0.8076 0.9815
C13 C 0.9731(2) 0.87284(19) 0.94243(14)
C14 C 1.0274(2) 0.9409(2) 0.85917(14)
H9 H 1.1328 0.9385 0.8419
C15 C 0.9321(2) 1.0135(2) 0.79938(14)
C16 C 0.7728(2) 1.0188(2) 0.82372(14)
C17 C 0.7180(2) 0.9507(2) 0.91123(14)
H10 H 0.6124 0.9537 0.9302
C18 C 0.8128(2) 0.8816(2) 0.96815(14)
H11 H 0.7718 0.8382 1.0262
C19 C 0.9887(2) 1.0823(2) 0.71394(14)
H12 H 1.0952 1.0765 0.6950
C20 C 0.8937(2) 1.1566(2) 0.65838(14)
H13 H 0.9347 1.2029 0.6019
C21 C 0.7332(2) 1.1664(2) 0.68305(14)
C22 C 0.6753(2) 1.0920(2) 0.76369(14)
C23 C 0.4785(2) 1.2531(2) 0.64639(16)
H14 H 0.4447 1.2710 0.5863
H15 H 0.4137 1.3313 0.6896
C24 C 0.4543(3) 1.1210(2) 0.69401(17)
H16 H 0.5127 1.0437 0.6491
H17 H 0.3425 1.1305 0.7102
C25 C 0.5100(2) 1.0894(2) 0.78516(16)
H18 H 0.4406 1.1587 0.8342
H19 H 0.5059 0.9971 0.8114
C26 C 0.6750(2) 1.3639(2) 0.56840(15)
H20 H 0.7605 1.3804 0.5863
H21 H 0.5818 1.4468 0.5856
C27 C 0.7206(3) 1.3454(2) 0.46001(15)
H22 H 0.6421 1.3159 0.4434
H23 H 0.7188 1.4358 0.4273
C28 C 0.8801(3) 1.2406(2) 0.42228(15)
H24 H 0.8841 1.1491 0.4536
H25 H 0.9026 1.2313 0.3520
C29 C 1.1470(3) 1.1952(2) 0.41668(16)
H26 H 1.1862 1.1912 0.3458
H27 H 1.1499 1.1012 0.4424
C30 C 1.2464(3) 1.2465(3) 0.45752(18)
H28 H 1.2385 1.3414 0.4343
H29 H 1.3550 1.1869 0.4370
H30 H 1.2107 1.2447 0.5279
loop_
_geom_bond_atom_site_label_1
_geom_bond_atom_site_label_2
_geom_bond_site_symmetry_1
_geom_bond_site_symmetry_2
O1 C1 1_555 1_555
O2 C28 1_555 1_555
N1 C6 1_555 1_555
N2 C7 1_555 1_555
N3 C8 1_555 1_555
N4 C21 1_555 1_555
C1 C2 1_555 1_555
C2 C3 1_555 1_555
C3 C4 1_555 1_555
C4 O1 1_555 1_555
C5 C1 1_555 1_555
C6 C5 1_555 1_555
C7 C5 1_555 1_555
C8 C2 1_555 1_555
C9 C4 1_555 1_555
H1 C9 1_555 1_555
H2 C9 1_555 1_555
H3 C9 1_555 1_555
C10 C4 1_555 1_555
H4 C10 1_555 1_555
H5 C10 1_555 1_555
H6 C10 1_555 1_555
C11 C3 1_555 1_555
H7 C11 1_555 1_555
C12 C11 1_555 1_555
H8 C12 1_555 1_555
C13 C12 1_555 1_555
C14 C13 1_555 1_555
H9 C14 1_555 1_555
C15 C14 1_555 1_555
C16 C15 1_555 1_555
C17 C16 1_555 1_555
H10 C17 1_555 1_555
C18 C13 1_555 1_555
H11 C18 1_555 1_555
C19 C15 1_555 1_555
H12 C19 1_555 1_555
C20 C19 1_555 1_555
H13 C20 1_555 1_555
C21 C20 1_555 1_555
C22 C16 1_555 1_555
C23 N4 1_555 1_555
H14 C23 1_555 1_555
H15 C23 1_555 1_555
C24 C23 1_555 1_555
H16 C24 1_555 1_555
H17 C24 1_555 1_555
C25 C22 1_555 1_555
H18 C25 1_555 1_555
H19 C25 1_555 1_555
C26 N4 1_555 1_555
H20 C26 1_555 1_555
H21 C26 1_555 1_555
C27 C26 1_555 1_555
H22 C27 1_555 1_555
H23 C27 1_555 1_555
C28 C27 1_555 1_555
H24 C28 1_555 1_555
H25 C28 1_555 1_555
C29 O2 1_555 1_555
H26 C29 1_555 1_555
H27 C29 1_555 1_555
C30 C29 1_555 1_555
H28 C30 1_555 1_555
H29 C30 1_555 1_555
H30 C30 1_555 1_555
C17 C18 1_555 1_555
C21 C22 1_555 1_555
C24 C25 1_555 1_555

#END
