
#######################################################################
#
#                 Cambridge Crystallographic Data Centre
#                                CCDC 
#
#######################################################################
#
# If this CIF has been generated from an entry in the Cambridge 
# Structural Database, then it will include bibliographic, chemical, 
# crystal, experimental, refinement or atomic coordinate data resulting 
# from the CCDC's data processing and validation procedures.
#
#######################################################################

data_JEVBIY
_chemical_formula_moiety         'C33 H36 O4'
_chemical_name_systematic        
(4'S,6S)-4'-(3,5-di-t-butyl-4-hydroxyphenyl)-8,9-dihydro-2'H,4'H-spiro[benzo[7]annulene-6,3'-[1]benzopyran]-2',5(7H)-dione
_symmetry_cell_setting           orthorhombic
_symmetry_space_group_name_H-M   'P 21 21 21'
_symmetry_Int_Tables_number      19
_space_group_name_Hall           'P 2ac 2ab'
loop_
_symmetry_equiv_pos_site_id
_symmetry_equiv_pos_as_xyz
1 x,y,z
2 1/2-x,-y,1/2+z
3 -x,1/2+y,1/2-z
4 1/2+x,1/2-y,-z
_cell_length_a                   10.53430(10)
_cell_length_b                   11.36660(10)
_cell_length_c                   23.7867(2)
_cell_angle_alpha                90
_cell_angle_beta                 90
_cell_angle_gamma                90
_cell_volume                     2848.2
_chemical_melting_point          '196-198 deg.C'
_cell_formula_units_Z            4
loop_
_atom_site_label
_atom_site_type_symbol
_atom_site_fract_x
_atom_site_fract_y
_atom_site_fract_z
O1 O 0.63007(14) -0.04368(11) 0.65391(7)
O2 O 0.82764(17) -0.08029(14) 0.63144(8)
O3 O 0.76774(19) -0.05709(12) 0.76340(8)
O4 O 0.7577(2) 0.42386(18) 0.47030(7)
C1 C 0.75594(19) -0.01801(16) 0.65644(9)
C2 C 0.79451(15) 0.08857(14) 0.69175(8)
C3 C 0.70133(14) 0.19177(13) 0.68041(6)
H1 H 0.7182 0.2521 0.7089
C4 C 0.56848(15) 0.14699(13) 0.69061(7)
C5 C 0.54067(17) 0.03037(15) 0.67869(9)
C6 C 0.4214(2) -0.0167(2) 0.68898(12)
H2 H 0.4045 -0.0954 0.6812
C7 C 0.3282(2) 0.0553(3) 0.71089(13)
H3 H 0.2477 0.0248 0.7176
C8 C 0.3526(2) 0.1705(2) 0.72281(11)
H4 H 0.2890 0.2181 0.7376
C9 C 0.47231(17) 0.21614(16) 0.71277(8)
H5 H 0.4885 0.2947 0.7211
C10 C 0.78150(16) 0.04602(15) 0.75314(8)
C11 C 0.78190(17) 0.13424(15) 0.79962(7)
C12 C 0.6779(2) 0.13559(19) 0.83514(9)
H6 H 0.6110 0.0837 0.8290
C13 C 0.6727(3) 0.2138(2) 0.87978(9)
H7 H 0.6022 0.2153 0.9033
C14 C 0.7724(3) 0.2887(2) 0.88894(9)
H8 H 0.7689 0.3419 0.9186
C15 C 0.8772(2) 0.2860(2) 0.85485(9)
H9 H 0.9449 0.3361 0.8625
C16 C 0.88507(18) 0.21020(18) 0.80903(8)
C17 C 1.00384(19) 0.2056(3) 0.77359(10)
H10 H 1.0435 0.1294 0.7791
H11 H 1.0624 0.2647 0.7875
C18 C 0.98601(19) 0.2249(2) 0.71078(9)
H12 H 0.9292 0.2911 0.7054
H13 H 1.0674 0.2459 0.6945
C19 C 0.93335(17) 0.1202(2) 0.67893(9)
H14 H 0.9858 0.0522 0.6872
H15 H 0.9409 0.1359 0.6390
C20 C 0.71682(15) 0.25030(13) 0.62304(6)
C21 C 0.72369(16) 0.37174(14) 0.61989(7)
H16 H 0.7206 0.4150 0.6531
C22 C 0.73499(18) 0.43188(15) 0.56917(7)
C23 C 0.74270(18) 0.36311(18) 0.52017(7)
C24 C 0.73467(17) 0.24039(18) 0.52090(7)
C25 C 0.71985(16) 0.18704(16) 0.57317(7)
H17 H 0.7116 0.1056 0.5747
C26 C 0.7358(2) 0.56744(17) 0.56743(9)
C27 C 0.8607(3) 0.6130(3) 0.54262(16)
H18 H 0.9299 0.5904 0.5666
H19 H 0.8576 0.6972 0.5399
H20 H 0.8729 0.5800 0.5059
C28 C 0.6223(3) 0.6099(2) 0.53256(11)
H21 H 0.6284 0.5787 0.4952
H22 H 0.6226 0.6943 0.5310
H23 H 0.5449 0.5833 0.5497
C29 C 0.7188(4) 0.61919(19) 0.62643(11)
H24 H 0.6431 0.5877 0.6432
H25 H 0.7118 0.7032 0.6239
H26 H 0.7908 0.5990 0.6492
C30 C 0.7398(2) 0.1643(2) 0.46708(8)
C31 C 0.8678(3) 0.1811(4) 0.43665(13)
H27 H 0.8779 0.2623 0.4265
H28 H 0.8695 0.1335 0.4033
H29 H 0.9358 0.1579 0.4611
C32 C 0.6284(4) 0.1953(4) 0.42788(12)
H30 H 0.5498 0.1866 0.4479
H31 H 0.6289 0.1435 0.3960
H32 H 0.6370 0.2752 0.4153
C33 C 0.7268(4) 0.0327(3) 0.48083(12)
H33 H 0.7974 0.0081 0.5035
H34 H 0.7256 -0.0118 0.4465
H35 H 0.6492 0.0196 0.5010
H36 H 0.757(5) 0.383(4) 0.445(2)
loop_
_geom_bond_atom_site_label_1
_geom_bond_atom_site_label_2
_geom_bond_site_symmetry_1
_geom_bond_site_symmetry_2
O1 C1 1_555 1_555
O2 C1 1_555 1_555
O3 C10 1_555 1_555
O4 C23 1_555 1_555
C1 C2 1_555 1_555
C2 C3 1_555 1_555
C3 H1 1_555 1_555
C4 C3 1_555 1_555
C5 O1 1_555 1_555
C6 C5 1_555 1_555
H2 C6 1_555 1_555
C7 C6 1_555 1_555
H3 C7 1_555 1_555
C8 C7 1_555 1_555
H4 C8 1_555 1_555
C9 C4 1_555 1_555
H5 C9 1_555 1_555
C10 C2 1_555 1_555
C11 C10 1_555 1_555
C12 C11 1_555 1_555
H6 C12 1_555 1_555
C13 C12 1_555 1_555
H7 C13 1_555 1_555
C14 C13 1_555 1_555
H8 C14 1_555 1_555
C15 C14 1_555 1_555
H9 C15 1_555 1_555
C16 C11 1_555 1_555
C17 C16 1_555 1_555
H10 C17 1_555 1_555
H11 C17 1_555 1_555
C18 C17 1_555 1_555
H12 C18 1_555 1_555
H13 C18 1_555 1_555
C19 C2 1_555 1_555
H14 C19 1_555 1_555
H15 C19 1_555 1_555
C20 C3 1_555 1_555
C21 C20 1_555 1_555
H16 C21 1_555 1_555
C22 C21 1_555 1_555
C23 C22 1_555 1_555
C24 C23 1_555 1_555
C25 C20 1_555 1_555
H17 C25 1_555 1_555
C26 C22 1_555 1_555
C27 C26 1_555 1_555
H18 C27 1_555 1_555
H19 C27 1_555 1_555
H20 C27 1_555 1_555
C28 C26 1_555 1_555
H21 C28 1_555 1_555
H22 C28 1_555 1_555
H23 C28 1_555 1_555
C29 C26 1_555 1_555
H24 C29 1_555 1_555
H25 C29 1_555 1_555
H26 C29 1_555 1_555
C30 C24 1_555 1_555
C31 C30 1_555 1_555
H27 C31 1_555 1_555
H28 C31 1_555 1_555
H29 C31 1_555 1_555
C32 C30 1_555 1_555
H30 C32 1_555 1_555
H31 C32 1_555 1_555
H32 C32 1_555 1_555
C33 C30 1_555 1_555
H33 C33 1_555 1_555
H34 C33 1_555 1_555
H35 C33 1_555 1_555
H36 O4 1_555 1_555
C4 C5 1_555 1_555
C8 C9 1_555 1_555
C15 C16 1_555 1_555
C18 C19 1_555 1_555
C24 C25 1_555 1_555

#END
