
#######################################################################
#
#                 Cambridge Crystallographic Data Centre
#                                CCDC 
#
#######################################################################
#
# If this CIF has been generated from an entry in the Cambridge 
# Structural Database, then it will include bibliographic, chemical, 
# crystal, experimental, refinement or atomic coordinate data resulting 
# from the CCDC's data processing and validation procedures.
#
#######################################################################

data_JEVGUP
_chemical_formula_moiety         'C18 H16 N2 O2,C1 H1 Cl3,H2 O1'
_chemical_name_systematic        
'12-ethyl-2-methoxyindolizino[1,2-b]quinolin-9(11H)-one chloroform solvate monohydrate'
_symmetry_cell_setting           triclinic
_symmetry_space_group_name_H-M   'P -1'
_symmetry_Int_Tables_number      2
_space_group_name_Hall           '-P 1'
loop_
_symmetry_equiv_pos_site_id
_symmetry_equiv_pos_as_xyz
1 x,y,z
2 -x,-y,-z
_cell_length_a                   8.3599(4)
_cell_length_b                   9.3828(4)
_cell_length_c                   12.7708(6)
_cell_angle_alpha                78.609(2)
_cell_angle_beta                 87.494(2)
_cell_angle_gamma                76.577(2)
_cell_volume                     955.172
_exptl_crystal_colour            colorless
_exptl_crystal_description       block
_cell_formula_units_Z            2
loop_
_atom_site_label
_atom_site_type_symbol
_atom_site_fract_x
_atom_site_fract_y
_atom_site_fract_z
Cl1 Cl 0.78480(7) 0.64163(6) 0.02338(5)
Cl2 Cl 1.07458(7) 0.71482(8) 0.08865(5)
Cl3 Cl 0.76307(11) 0.93080(7) 0.07376(6)
C1 C 0.8606(3) 0.7409(2) 0.10511(16)
H1 H 0.8369 0.7010 0.1813
O1 O 0.51785(18) -0.38554(15) 0.84533(12)
N1 N 0.80595(18) -0.12229(16) 0.48421(12)
C2 C 0.5775(2) -0.3068(2) 0.75659(16)
O2 O 0.80951(18) 0.50118(15) 0.32000(12)
N2 N 0.81199(19) 0.25555(17) 0.37827(12)
C3 C 0.6772(2) -0.3979(2) 0.69119(16)
H2 H 0.6949 -0.5035 0.7102
C4 C 0.7475(2) -0.3346(2) 0.60151(16)
H3 H 0.8120 -0.3964 0.5574
C5 C 0.7255(2) -0.1771(2) 0.57293(15)
C6 C 0.6237(2) -0.0843(2) 0.63791(14)
C7 C 0.5490(2) -0.1538(2) 0.72992(15)
H4 H 0.4791 -0.0943 0.7732
C8 C 0.6038(2) 0.0746(2) 0.60884(14)
C9 C 0.6895(2) 0.1252(2) 0.52059(14)
C10 C 0.7860(2) 0.0239(2) 0.46190(14)
C11 C 0.8623(2) 0.1064(2) 0.37220(15)
C12 C 0.9650(2) 0.0612(2) 0.29365(15)
H5 H 0.9991 -0.0412 0.2890
C13 C 1.0187(2) 0.1729(2) 0.21927(15)
H6 H 1.0909 0.1450 0.1635
C14 C 0.9694(2) 0.3202(2) 0.22556(16)
H7 H 1.0083 0.3921 0.1740
C15 C 0.8603(2) 0.3695(2) 0.30791(15)
C16 C 0.7028(2) 0.2813(2) 0.47014(15)
H8 H 0.5940 0.3455 0.4464
H9 H 0.7522 0.3275 0.5200
C17 C 0.5010(2) 0.1808(2) 0.67341(15)
H10 H 0.4016 0.1444 0.6995
H11 H 0.4648 0.2802 0.6270
C18 C 0.5963(3) 0.1957(2) 0.76895(17)
H12 H 0.6215 0.0999 0.8192
H13 H 0.5294 0.2723 0.8048
H14 H 0.6990 0.2244 0.7439
C19 C 0.4061(3) -0.3025(2) 0.91076(18)
H15 H 0.4597 -0.2338 0.9370
H16 H 0.3730 -0.3712 0.9715
H17 H 0.3087 -0.2453 0.8688
O3 O -0.0168(2) 0.31885(19) 0.63666(14)
H18 H 0.045(4) 0.263(3) 0.602(2)
H19 H 0.037(4) 0.375(3) 0.646(2)
loop_
_geom_bond_atom_site_label_1
_geom_bond_atom_site_label_2
_geom_bond_site_symmetry_1
_geom_bond_site_symmetry_2
Cl1 C1 1_555 1_555
Cl2 C1 1_555 1_555
Cl3 C1 1_555 1_555
C1 H1 1_555 1_555
O1 C2 1_555 1_555
N1 C5 1_555 1_555
C2 C3 1_555 1_555
O2 C15 1_555 1_555
N2 C11 1_555 1_555
C3 H2 1_555 1_555
C4 C3 1_555 1_555
H3 C4 1_555 1_555
C5 C4 1_555 1_555
C6 C5 1_555 1_555
C7 C2 1_555 1_555
H4 C7 1_555 1_555
C8 C6 1_555 1_555
C9 C8 1_555 1_555
C10 N1 1_555 1_555
C11 C10 1_555 1_555
C12 C11 1_555 1_555
H5 C12 1_555 1_555
C13 C12 1_555 1_555
H6 C13 1_555 1_555
C14 C13 1_555 1_555
H7 C14 1_555 1_555
C15 N2 1_555 1_555
C16 N2 1_555 1_555
H8 C16 1_555 1_555
H9 C16 1_555 1_555
C17 C8 1_555 1_555
H10 C17 1_555 1_555
H11 C17 1_555 1_555
C18 C17 1_555 1_555
H12 C18 1_555 1_555
H13 C18 1_555 1_555
H14 C18 1_555 1_555
C19 O1 1_555 1_555
H15 C19 1_555 1_555
H16 C19 1_555 1_555
H17 C19 1_555 1_555
O3 H18 1_555 1_555
H19 O3 1_555 1_555
C6 C7 1_555 1_555
C9 C10 1_555 1_555
C9 C16 1_555 1_555
C14 C15 1_555 1_555

#END
