
#######################################################################
#
#                 Cambridge Crystallographic Data Centre
#                                CCDC 
#
#######################################################################
#
# If this CIF has been generated from an entry in the Cambridge 
# Structural Database, then it will include bibliographic, chemical, 
# crystal, experimental, refinement or atomic coordinate data resulting 
# from the CCDC's data processing and validation procedures.
#
#######################################################################

data_JEVNEE
_chemical_formula_moiety         'C7 H7 N1 O5'
_chemical_name_systematic        
'(Z)-3-(2-Oxo-1,3-oxazolidin-3-ylcarbonyl)prop-2-enoic acid'
_symmetry_cell_setting           monoclinic
_symmetry_space_group_name_H-M   'P 21/c'
_symmetry_Int_Tables_number      14
_space_group_name_Hall           '-P 2ybc'
loop_
_symmetry_equiv_pos_site_id
_symmetry_equiv_pos_as_xyz
1 x,y,z
2 -x,1/2+y,1/2-z
3 -x,-y,-z
4 x,1/2-y,1/2+z
_cell_length_a                   8.4248(16)
_cell_length_b                   5.0585(9)
_cell_length_c                   18.060(3)
_cell_angle_alpha                90
_cell_angle_beta                 91.128(3)
_cell_angle_gamma                90
_cell_volume                     769.511
_exptl_crystal_colour            colorless
_exptl_crystal_description       block
_cell_formula_units_Z            4
_exptl_crystal_recrystallization_method acetone/dichloromethane
loop_
_atom_site_label
_atom_site_type_symbol
_atom_site_fract_x
_atom_site_fract_y
_atom_site_fract_z
O1 O 0.90111(13) 0.4439(2) 0.26552(6)
O2 O 0.98177(13) 0.3142(2) 0.37801(6)
O3 O 0.63174(13) -0.2561(2) 0.34184(6)
O4 O 0.65093(14) 0.3475(2) 0.55956(6)
H1 H 0.5764 0.4519 0.5589
O5 O 0.56083(13) 0.2567(2) 0.44481(6)
N1 N 0.77961(14) 0.0962(2) 0.31313(6)
C1 C 0.7940(2) 0.3500(3) 0.20755(9)
H2 H 0.8532 0.2883 0.1654
H3 H 0.7231 0.4903 0.1912
C2 C 0.7015(2) 0.1261(3) 0.24105(9)
H4 H 0.5904 0.1719 0.2459
H5 H 0.7098 -0.0339 0.2118
C3 C 0.89582(17) 0.2859(3) 0.32499(8)
C4 C 0.73216(17) -0.0978(3) 0.36154(8)
C5 C 0.81197(18) -0.1235(3) 0.43577(9)
H6 H 0.8977 -0.2390 0.4394
C6 C 0.77215(17) 0.0025(3) 0.49670(8)
H7 H 0.8226 -0.0437 0.5411
C7 C 0.65092(17) 0.2137(3) 0.49747(8)
loop_
_geom_bond_atom_site_label_1
_geom_bond_atom_site_label_2
_geom_bond_site_symmetry_1
_geom_bond_site_symmetry_2
O1 C1 1_555 1_555
O2 C3 1_555 1_555
O3 C4 1_555 1_555
O4 H1 1_555 1_555
O5 C7 1_555 1_555
N1 C2 1_555 1_555
C1 H2 1_555 1_555
H3 C1 1_555 1_555
C2 C1 1_555 1_555
H4 C2 1_555 1_555
H5 C2 1_555 1_555
C3 O1 1_555 1_555
C4 N1 1_555 1_555
C5 C4 1_555 1_555
H6 C5 1_555 1_555
C6 C5 1_555 1_555
H7 C6 1_555 1_555
C7 O4 1_555 1_555
N1 C3 1_555 1_555
C6 C7 1_555 1_555

#END
