
#######################################################################
#
#                 Cambridge Crystallographic Data Centre
#                                CCDC 
#
#######################################################################
#
# If this CIF has been generated from an entry in the Cambridge 
# Structural Database, then it will include bibliographic, chemical, 
# crystal, experimental, refinement or atomic coordinate data resulting 
# from the CCDC's data processing and validation procedures.
#
#######################################################################

data_JEVNAC
_chemical_name_common            
'C-(4-hydroxyphenyl)calix(4)resorcinarene tridecahydrate'
_chemical_formula_moiety         'C52 H40 O12,13(H2 O1)'
_chemical_name_systematic        
'2,8,14,20-tetrakis(4-hydroxyphenyl)-4,6,10,12,16,18,22,24-octahydroxycalix(4)arene tridecahydrate'
_symmetry_cell_setting           tetragonal
_symmetry_space_group_name_H-M   'P 42/n c m'
_symmetry_Int_Tables_number      138
_space_group_name_Hall           '-P 4ac 2ac'
loop_
_symmetry_equiv_pos_site_id
_symmetry_equiv_pos_as_xyz
1 x,y,z
2 1/2-y,x,1/2+z
3 1/2-x,1/2-y,z
4 y,1/2-x,1/2+z
5 1/2+x,-y,1/2-z
6 -x,1/2+y,1/2-z
7 1/2+y,1/2+x,-z
8 -y,-x,-z
9 -x,-y,-z
10 1/2+y,-x,1/2-z
11 1/2+x,1/2+y,-z
12 -y,1/2+x,1/2-z
13 1/2-x,y,1/2+z
14 x,1/2-y,1/2+z
15 1/2-y,1/2-x,z
16 y,x,z
_cell_length_a                   14.606(3)
_cell_length_b                   14.606(3)
_cell_length_c                   24.957(5)
_cell_angle_alpha                90
_cell_angle_beta                 90
_cell_angle_gamma                90
_cell_volume                     5324.21
_exptl_crystal_colour            colorless
_exptl_crystal_description       Plate
_cell_formula_units_Z            4
loop_
_atom_site_label
_atom_site_type_symbol
_atom_site_fract_x
_atom_site_fract_y
_atom_site_fract_z
O1 O 0.72627(12) 0.54371(12) 0.56760(6)
H1 H 0.7285 0.5567 0.6004
C1 C 0.84136(16) 0.65864(16) 0.56748(12)
H2 H 0.8301 0.6699 0.6044
O2 O 0.61028(12) 0.37840(11) 0.43282(7)
H3 H 0.5641 0.3448 0.4367
C2 C 0.79164(15) 0.59253(15) 0.54070(9)
O3 O 0.94791(14) 0.38945(17) 0.27217(8)
H4 H 0.9142 0.3851 0.2450
C3 C 0.80641(15) 0.57526(15) 0.48659(9)
C4 C 0.87280(16) 0.62720(16) 0.46108(13)
H5 H 0.8833 0.6167 0.4240
C5 C 0.75055(16) 0.50297(16) 0.45731(9)
H6 H 0.7481 0.4483 0.4814
C6 C 0.49394(16) 0.49394(16) 0.43145(12)
H7 H 0.4491 0.4491 0.4231
C7 C 0.58467(17) 0.46898(16) 0.43755(9)
C8 C 0.65201(16) 0.53349(16) 0.44875(9)
C9 C 0.62424(16) 0.62424(16) 0.45318(13)
H8 H 0.6696 0.6696 0.4595
C10 C 0.79842(17) 0.47226(16) 0.40606(9)
C11 C 0.8788(2) 0.4209(2) 0.41002(11)
H9 H 0.9006 0.4036 0.4444
C12 C 0.9272(2) 0.3949(2) 0.36540(12)
H10 H 0.9821 0.3606 0.3693
C13 C 0.89663(18) 0.4182(2) 0.31515(10)
C14 C 0.8179(2) 0.4688(2) 0.31013(11)
H11 H 0.7961 0.4856 0.2756
C15 C 0.76982(18) 0.49570(19) 0.35589(10)
H12 H 0.7158 0.5312 0.3520
O1N O 0.95629(12) 0.77373(12) 0.56760(6)
H1N H 0.9433 0.7715 0.6004
O2N O 1.12160(11) 0.88972(12) 0.43282(7)
H3N H 1.1552 0.9359 0.4367
C2N C 0.90747(15) 0.70836(15) 0.54070(9)
O3N O 1.11055(17) 0.55209(14) 0.27217(8)
H4N H 1.1149 0.5858 0.2450
C3N C 0.92474(15) 0.69359(15) 0.48659(9)
C5N C 0.99703(16) 0.74945(16) 0.45731(9)
H6N H 1.0517 0.7519 0.4814
C6B C 1.00606(16) 1.00606(16) 0.43145(12)
H7B H 1.0509 1.0509 0.4231
C7N C 1.03102(16) 0.91533(17) 0.43755(9)
C8N C 0.96651(16) 0.84799(16) 0.44875(9)
C9B C 0.87576(16) 0.87576(16) 0.45318(13)
H8B H 0.8304 0.8304 0.4595
C10N C 1.02774(16) 0.70158(17) 0.40606(9)
C11N C 1.0791(2) 0.6212(2) 0.41002(11)
H9N H 1.0964 0.5994 0.4444
C12N C 1.1051(2) 0.5728(2) 0.36540(12)
H10N H 1.1394 0.5179 0.3693
C13N C 1.0818(2) 0.60337(18) 0.31515(10)
C14N C 1.0312(2) 0.6821(2) 0.31013(11)
H11N H 1.0144 0.7039 0.2756
C15N C 1.00430(19) 0.73018(18) 0.35589(10)
H12N H 0.9688 0.7842 0.3520
O1O O 0.54371(12) 0.72627(12) 0.56760(6)
H1O H 0.5567 0.7285 0.6004
C1B C 0.65864(16) 0.84136(16) 0.56748(12)
H2B H 0.6699 0.8301 0.6044
O2O O 0.37840(11) 0.61028(12) 0.43282(7)
H3O H 0.3448 0.5641 0.4367
C2O C 0.59253(15) 0.79164(15) 0.54070(9)
O3O O 0.38945(17) 0.94791(14) 0.27217(8)
H4O H 0.3851 0.9142 0.2450
C3O C 0.57526(15) 0.80641(15) 0.48659(9)
C4B C 0.62720(16) 0.87280(16) 0.46108(13)
H5B H 0.6167 0.8833 0.4240
C5O C 0.50297(16) 0.75055(16) 0.45731(9)
H6O H 0.4483 0.7481 0.4814
C7O C 0.46898(16) 0.58467(17) 0.43755(9)
C8O C 0.53349(16) 0.65201(16) 0.44875(9)
C10O C 0.47226(16) 0.79842(17) 0.40606(9)
C11O C 0.4209(2) 0.8788(2) 0.41002(11)
H9O H 0.4036 0.9006 0.4444
C12O C 0.3949(2) 0.9272(2) 0.36540(12)
H10O H 0.3606 0.9821 0.3693
C13O C 0.4182(2) 0.89663(18) 0.31515(10)
C14O C 0.4688(2) 0.8179(2) 0.31013(11)
H11O H 0.4856 0.7961 0.2756
C15O C 0.49570(19) 0.76982(18) 0.35589(10)
H12O H 0.5312 0.7158 0.3520
O1B O 0.77373(12) 0.95629(12) 0.56760(6)
H1B H 0.7715 0.9433 0.6004
O2B O 0.88972(12) 1.12160(11) 0.43282(7)
H3B H 0.9359 1.1552 0.4367
C2B C 0.70836(15) 0.90747(15) 0.54070(9)
O3B O 0.55209(14) 1.11055(17) 0.27217(8)
H4B H 0.5858 1.1149 0.2450
C3B C 0.69359(15) 0.92474(15) 0.48659(9)
C5B C 0.74945(16) 0.99703(16) 0.45731(9)
H6B H 0.7519 1.0517 0.4814
C7B C 0.91533(17) 1.03102(16) 0.43755(9)
C8B C 0.84799(16) 0.96651(16) 0.44875(9)
C10B C 0.70158(17) 1.02774(16) 0.40606(9)
C11B C 0.6212(2) 1.0791(2) 0.41002(11)
H9B H 0.5994 1.0964 0.4444
C12B C 0.5728(2) 1.1051(2) 0.36540(12)
H10B H 0.5179 1.1394 0.3693
C13B C 0.60337(18) 1.0818(2) 0.31515(10)
C14B C 0.6821(2) 1.0312(2) 0.31013(11)
H11B H 0.7039 1.0144 0.2756
C15B C 0.73018(18) 1.00430(19) 0.35589(10)
H12B H 0.7842 0.9688 0.3520
O4 O 0.70541(14) 0.57150(14) 0.67336(7)
O5 O 0.85229(15) 0.64771(15) 0.72777(13)
O6 O 0.7500 0.7500 0.8007(3)
O7 O 0.7500 0.2500 0.5000
O8 O 0.7500 0.2500 0.2500
O9 O 0.83437(15) 0.38599(14) 0.18435(8)
loop_
_geom_bond_atom_site_label_1
_geom_bond_atom_site_label_2
_geom_bond_site_symmetry_1
_geom_bond_site_symmetry_2
O1 H1 1_555 1_555
C1 H2 1_555 1_555
O2 H3 1_555 1_555
C2 O1 1_555 1_555
O3 H4 1_555 1_555
C3 C2 1_555 1_555
C4 C3 1_555 1_555
H5 C4 1_555 1_555
C5 C3 1_555 1_555
H6 C5 1_555 1_555
C6 H7 1_555 1_555
C7 O2 1_555 1_555
C8 C5 1_555 1_555
C9 C8 1_555 1_555
H8 C9 1_555 1_555
C10 C5 1_555 1_555
C11 C10 1_555 1_555
H9 C11 1_555 1_555
C12 C11 1_555 1_555
H10 C12 1_555 1_555
C13 O3 1_555 1_555
C14 C13 1_555 1_555
H11 C14 1_555 1_555
C15 C10 1_555 1_555
H12 C15 1_555 1_555
O1N H1N 1_555 1_555
O2N H3N 1_555 1_555
C2N C1 1_555 1_555
O3N H4N 1_555 1_555
C3N C4 1_555 1_555
C5N C3N 1_555 1_555
H6N C5N 1_555 1_555
C6B H7B 1_555 1_555
C7N O2N 1_555 1_555
C8N C5N 1_555 1_555
C9B C8N 1_555 1_555
H8B C9B 1_555 1_555
C10N C5N 1_555 1_555
C11N C10N 1_555 1_555
H9N C11N 1_555 1_555
C12N C11N 1_555 1_555
H10N C12N 1_555 1_555
C13N O3N 1_555 1_555
C14N C13N 1_555 1_555
H11N C14N 1_555 1_555
C15N C10N 1_555 1_555
H12N C15N 1_555 1_555
O1O H1O 1_555 1_555
C1B H2B 1_555 1_555
O2O H3O 1_555 1_555
C2O O1O 1_555 1_555
O3O H4O 1_555 1_555
C3O C2O 1_555 1_555
C4B C3O 1_555 1_555
H5B C4B 1_555 1_555
C5O C3O 1_555 1_555
H6O C5O 1_555 1_555
C7O C6 1_555 1_555
C8O C9 1_555 1_555
C10O C5O 1_555 1_555
C11O C10O 1_555 1_555
H9O C11O 1_555 1_555
C12O C11O 1_555 1_555
H10O C12O 1_555 1_555
C13O O3O 1_555 1_555
C14O C13O 1_555 1_555
H11O C14O 1_555 1_555
C15O C10O 1_555 1_555
H12O C15O 1_555 1_555
O1B H1B 1_555 1_555
O2B H3B 1_555 1_555
C2B C1B 1_555 1_555
O3B H4B 1_555 1_555
C3B C4B 1_555 1_555
C5B C3B 1_555 1_555
H6B C5B 1_555 1_555
C7B C6B 1_555 1_555
C8B C9B 1_555 1_555
C10B C5B 1_555 1_555
C11B C10B 1_555 1_555
H9B C11B 1_555 1_555
C12B C11B 1_555 1_555
H10B C12B 1_555 1_555
C13B O3B 1_555 1_555
C14B C13B 1_555 1_555
H11B C14B 1_555 1_555
C15B C10B 1_555 1_555
H12B C15B 1_555 1_555
C1 C2 1_555 1_555
C6 C7 1_555 1_555
C7 C8 1_555 1_555
C12 C13 1_555 1_555
C14 C15 1_555 1_555
O1N C2N 1_555 1_555
C2N C3N 1_555 1_555
C6B C7N 1_555 1_555
C7N C8N 1_555 1_555
C12N C13N 1_555 1_555
C14N C15N 1_555 1_555
C1B C2O 1_555 1_555
O2O C7O 1_555 1_555
C5O C8O 1_555 1_555
C7O C8O 1_555 1_555
C12O C13O 1_555 1_555
C14O C15O 1_555 1_555
O1B C2B 1_555 1_555
O2B C7B 1_555 1_555
C2B C3B 1_555 1_555
C5B C8B 1_555 1_555
C7B C8B 1_555 1_555
C12B C13B 1_555 1_555
C14B C15B 1_555 1_555

#END
