
#######################################################################
#
#                 Cambridge Crystallographic Data Centre
#                                CCDC 
#
#######################################################################
#
# If this CIF has been generated from an entry in the Cambridge 
# Structural Database, then it will include bibliographic, chemical, 
# crystal, experimental, refinement or atomic coordinate data resulting 
# from the CCDC's data processing and validation procedures.
#
#######################################################################

data_JEVPAE
_chemical_formula_moiety         'C30 H25 N2 P1 Se1'
_chemical_name_systematic        
"N,N,N',N',P-pentaphenylphosphonoselenoic diamide"
_symmetry_cell_setting           monoclinic
_symmetry_space_group_name_H-M   'P 21/n'
_symmetry_Int_Tables_number      14
_space_group_name_Hall           '-P 2yn'
loop_
_symmetry_equiv_pos_site_id
_symmetry_equiv_pos_as_xyz
1 x,y,z
2 1/2-x,1/2+y,1/2-z
3 -x,-y,-z
4 1/2+x,1/2-y,1/2+z
_cell_length_a                   11.612(3)
_cell_length_b                   17.433(5)
_cell_length_c                   12.594(3)
_cell_angle_alpha                90
_cell_angle_beta                 103.247(6)
_cell_angle_gamma                90
_cell_volume                     2481.59
_exptl_crystal_description       block
_cell_formula_units_Z            4
loop_
_atom_site_label
_atom_site_type_symbol
_atom_site_fract_x
_atom_site_fract_y
_atom_site_fract_z
C1 C 0.78643(13) 0.66130(8) 1.01733(12)
C2 C 0.68126(16) 0.63711(12) 0.95003(17)
H1 H 0.6682 0.6437 0.8749
C3 C 0.59576(19) 0.60322(14) 0.9947(2)
H2 H 0.5256 0.5860 0.9495
C4 C 0.6142(2) 0.59481(12) 1.1065(2)
H3 H 0.5565 0.5720 1.1365
C5 C 0.7170(2) 0.62010(12) 1.17258(18)
H4 H 0.7285 0.6154 1.2478
C6 C 0.80433(17) 0.65269(10) 1.12881(14)
H5 H 0.8750 0.6688 1.1744
C7 C 0.93128(13) 0.63713(8) 0.91008(11)
C8 C 0.87995(15) 0.62194(9) 0.80141(13)
H6 H 0.8129 0.6487 0.7657
C9 C 0.92913(18) 0.56685(11) 0.74666(14)
H7 H 0.8942 0.5558 0.6742
C10 C 1.02913(19) 0.52830(10) 0.79843(16)
H8 H 1.0624 0.4917 0.7608
C11 C 1.08041(17) 0.54364(10) 0.90618(16)
H9 H 1.1486 0.5177 0.9409
C12 C 1.03070(15) 0.59754(9) 0.96286(13)
H10 H 1.0642 0.6070 1.0361
C13 C 0.95304(13) 0.85411(8) 0.83946(12)
C14 C 0.95107(16) 0.93192(10) 0.85812(14)
H11 H 0.9942 0.9524 0.9234
C15 C 0.88475(18) 0.97931(11) 0.77938(18)
H12 H 0.8825 1.0318 0.7921
C16 C 0.82211(17) 0.94925(12) 0.68238(17)
H13 H 0.7763 0.9813 0.6303
C17 C 0.82696(16) 0.87246(12) 0.66232(14)
H14 H 0.7863 0.8524 0.5958
C18 C 0.89240(15) 0.82448(10) 0.74105(13)
H15 H 0.8955 0.7722 0.7275
C19 C 1.13948(13) 0.79089(9) 0.92432(12)
C20 C 1.16788(17) 0.73479(10) 0.85751(15)
H16 H 1.1086 0.7053 0.8140
C21 C 1.28522(19) 0.72265(12) 0.85555(19)
H17 H 1.3046 0.6847 0.8107
C22 C 1.37296(19) 0.76600(14) 0.9191(2)
H18 H 1.4516 0.7572 0.9178
C23 C 1.34483(16) 0.82217(14) 0.98430(18)
H19 H 1.4045 0.8517 1.0273
C24 C 1.22786(15) 0.83546(11) 0.98678(15)
H20 H 1.2089 0.8743 1.0304
C25 C 0.83748(13) 0.83721(8) 1.02897(12)
C26 C 0.73334(14) 0.83947(10) 0.94834(14)
H21 H 0.7211 0.8046 0.8909
C27 C 0.64793(17) 0.89370(12) 0.95370(19)
H22 H 0.5780 0.8952 0.9001
C28 C 0.6663(2) 0.94515(13) 1.0378(2)
H23 H 0.6091 0.9819 1.0406
C29 C 0.7685(2) 0.94305(13) 1.1181(2)
H24 H 0.7800 0.9780 1.1753
C30 C 0.85413(17) 0.88913(10) 1.11399(15)
H25 H 0.9233 0.8877 1.1686
N1 N 0.87663(10) 0.69320(6) 0.96738(9)
N2 N 1.01731(10) 0.80477(7) 0.92514(10)
P1 P 0.95427(3) 0.77080(2) 1.02134(3)
Se1 Se 1.079179(15) 0.757006(11) 1.169572(13)
loop_
_geom_bond_atom_site_label_1
_geom_bond_atom_site_label_2
_geom_bond_site_symmetry_1
_geom_bond_site_symmetry_2
C1 C2 1_555 1_555
C2 H1 1_555 1_555
C3 C2 1_555 1_555
H2 C3 1_555 1_555
C4 C3 1_555 1_555
H3 C4 1_555 1_555
C5 C4 1_555 1_555
H4 C5 1_555 1_555
C6 C1 1_555 1_555
H5 C6 1_555 1_555
C7 C8 1_555 1_555
C8 H6 1_555 1_555
C9 C8 1_555 1_555
H7 C9 1_555 1_555
C10 C9 1_555 1_555
H8 C10 1_555 1_555
C11 C10 1_555 1_555
H9 C11 1_555 1_555
C12 C7 1_555 1_555
H10 C12 1_555 1_555
C13 C14 1_555 1_555
C14 H11 1_555 1_555
C15 C14 1_555 1_555
H12 C15 1_555 1_555
C16 C15 1_555 1_555
H13 C16 1_555 1_555
C17 C16 1_555 1_555
H14 C17 1_555 1_555
C18 C13 1_555 1_555
H15 C18 1_555 1_555
C19 C20 1_555 1_555
C20 H16 1_555 1_555
C21 C20 1_555 1_555
H17 C21 1_555 1_555
C22 C21 1_555 1_555
H18 C22 1_555 1_555
C23 C22 1_555 1_555
H19 C23 1_555 1_555
C24 C19 1_555 1_555
H20 C24 1_555 1_555
C25 C26 1_555 1_555
C26 H21 1_555 1_555
C27 C26 1_555 1_555
H22 C27 1_555 1_555
C28 C27 1_555 1_555
H23 C28 1_555 1_555
C29 C28 1_555 1_555
H24 C29 1_555 1_555
C30 C25 1_555 1_555
H25 C30 1_555 1_555
N1 C1 1_555 1_555
N2 C13 1_555 1_555
P1 C25 1_555 1_555
Se1 P1 1_555 1_555
C5 C6 1_555 1_555
C7 N1 1_555 1_555
C11 C12 1_555 1_555
C17 C18 1_555 1_555
C19 N2 1_555 1_555
C23 C24 1_555 1_555
C29 C30 1_555 1_555
N1 P1 1_555 1_555
N2 P1 1_555 1_555

#END
