
#######################################################################
#
#                 Cambridge Crystallographic Data Centre
#                                CCDC 
#
#######################################################################
#
# If this CIF has been generated from an entry in the Cambridge 
# Structural Database, then it will include bibliographic, chemical, 
# crystal, experimental, refinement or atomic coordinate data resulting 
# from the CCDC's data processing and validation procedures.
#
#######################################################################

data_JEVWEN
_chemical_compound_source        'Fruits of Daphniphyllum macropodum'
_chemical_name_common            'Paxdaphnine B'
_chemical_formula_moiety         'C21 H31 N1 O3'
_chemical_name_systematic        
'Methyl 5-ethyl-2-methoxy-6-azapentacyclo(9.5.1.0^1,5^.0^2,8^.0^14,17^)heptadec-11(17)-ene-15-carboxylate'
_chemical_properties_biological  
'used as an anti-inflammatory in Chinese medicine'
_symmetry_cell_setting           monoclinic
_symmetry_space_group_name_H-M   'P 21'
_symmetry_Int_Tables_number      4
_space_group_name_Hall           'P 2yb'
loop_
_symmetry_equiv_pos_site_id
_symmetry_equiv_pos_as_xyz
1 x,y,z
2 -x,1/2+y,-z
_cell_length_a                   7.7500(15)
_cell_length_b                   24.717(3)
_cell_length_c                   9.605(2)
_cell_angle_alpha                90
_cell_angle_beta                 94.619(7)
_cell_angle_gamma                90
_cell_volume                     1833.93
_exptl_crystal_colour            colorless
_exptl_crystal_description       prism
_cell_formula_units_Z            4
_exptl_crystal_recrystallization_method acetone
loop_
_atom_site_label
_atom_site_type_symbol
_atom_site_fract_x
_atom_site_fract_y
_atom_site_fract_z
O1 O 0.9069(4) 0.21141(18) 0.3615(4)
H1 H 1.0036 0.1983 0.3583
O2 O 0.9294(4) 0.15803(19) 0.7967(4)
O3 O 0.8505(4) 0.12301(13) 0.9931(3)
N1 N 0.2678(4) 0.17681(15) 0.4208(4)
H2 H 0.251(6) 0.1936(19) 0.494(5)
C1 C 0.3733(4) 0.12989(16) 0.4737(4)
C2 C 0.4488(5) 0.10087(19) 0.3518(4)
H3 H 0.3699 0.1035 0.2684
H4 H 0.4677 0.0629 0.3739
C3 C 0.6227(5) 0.1290(2) 0.3282(4)
H5 H 0.6212 0.1431 0.2339
H6 H 0.7183 0.1037 0.3433
C4 C 0.6400(4) 0.17582(16) 0.4373(4)
C5 C 0.5427(5) 0.22602(17) 0.3719(4)
H7 H 0.5989 0.2341 0.2865
C6 C 0.3561(5) 0.21161(18) 0.3235(4)
H8 H 0.2905 0.2448 0.3092
H9 H 0.3551 0.1934 0.2340
C7 C 0.5426(4) 0.15135(14) 0.5579(4)
C8 C 0.5024(5) 0.18855(15) 0.6758(4)
C9 C 0.4663(5) 0.24074(17) 0.6902(4)
C10 C 0.4453(6) 0.28359(18) 0.5813(5)
H10 H 0.4701 0.3182 0.6260
H11 H 0.3248 0.2842 0.5450
C11 C 0.5556(6) 0.27866(18) 0.4589(5)
H12 H 0.6756 0.2832 0.4942
H13 H 0.5268 0.3086 0.3961
C12 C 0.6457(5) 0.10440(15) 0.6382(4)
H14 H 0.5896 0.0700 0.6161
H15 H 0.7649 0.1017 0.6150
C13 C 0.6518(5) 0.11470(16) 0.7981(4)
H16 H 0.6203 0.0815 0.8459
C14 C 0.5108(5) 0.15819(17) 0.8117(4)
H17 H 0.3998 0.1398 0.8186
C15 C 0.5265(6) 0.2042(2) 0.9219(5)
H18 H 0.4661 0.1949 1.0033
H19 H 0.6467 0.2119 0.9510
C16 C 0.4399(7) 0.2523(2) 0.8426(6)
H20 H 0.3177 0.2541 0.8572
H21 H 0.4945 0.2861 0.8725
C17 C 0.2536(5) 0.09474(18) 0.5560(4)
H22 H 0.1960 0.1175 0.6201
H23 H 0.3230 0.0685 0.6109
C18 C 0.1160(6) 0.06455(19) 0.4607(5)
H24 H 0.0345 0.0475 0.5169
H25 H 0.1713 0.0375 0.4080
H26 H 0.0564 0.0898 0.3979
C19 C 0.8288(4) 0.19042(19) 0.4795(4)
H27 H 0.8341 0.2172 0.5535
H28 H 0.8911 0.1585 0.5143
C20 C 0.8251(5) 0.13440(17) 0.8590(4)
C21 C 1.0104(7) 0.1436(2) 1.0657(5)
H29 H 1.0178 0.1318 1.1612
H30 H 1.0101 0.1824 1.0625
H31 H 1.1080 0.1301 1.0210
O4 O 0.5459(4) 0.93016(18) -0.1833(4)
H32 H 0.4518 0.9244 -0.1528
O5 O 0.5479(4) 0.91780(15) 0.2038(4)
O6 O 0.6255(4) 0.96447(12) 0.3971(3)
N2 N 1.2233(4) 0.91365(15) -0.0858(4)
H33 H 1.246(6) 0.8976(19) 0.003(5)
C22 C 1.1023(4) 0.95842(16) -0.0550(4)
C23 C 1.0353(5) 0.9858(2) -0.1916(5)
H34 H 1.1227 0.9849 -0.2584
H35 H 1.0053 1.0233 -0.1749
C24 C 0.8744(5) 0.9537(2) -0.2468(5)
H36 H 0.8897 0.9394 -0.3390
H37 H 0.7729 0.9768 -0.2527
C25 C 0.8532(4) 0.90690(18) -0.1416(4)
C26 C 0.9650(5) 0.85839(19) -0.1843(5)
H38 H 0.9204 0.8489 -0.2795
C27 C 1.1521(5) 0.8764(2) -0.1954(5)
H39 H 1.2248 0.8444 -0.1938
H40 H 1.1594 0.8937 -0.2853
C28 C 0.9327(4) 0.93272(15) -0.0014(4)
C29 C 0.9743(4) 0.89697(14) 0.1233(4)
C30 C 1.0187(5) 0.84529(16) 0.1468(5)
C31 C 1.0539(6) 0.80220(18) 0.0429(6)
H41 H 1.0294 0.7673 0.0831
H42 H 1.1763 0.8029 0.0284
C32 C 0.9523(6) 0.80648(18) -0.0981(6)
H43 H 0.8312 0.8009 -0.0836
H44 H 0.9874 0.7766 -0.1549
C33 C 0.8101(5) 0.97558(15) 0.0586(4)
H45 H 0.8472 1.0117 0.0355
H46 H 0.6927 0.9704 0.0175
C34 C 0.8152(5) 0.96904(15) 0.2194(4)
H47 H 0.8442 1.0037 0.2652
C35 C 0.9604(5) 0.92774(16) 0.2553(4)
H48 H 1.0687 0.9477 0.2760
C36 C 0.9515(6) 0.8826(2) 0.3648(5)
H49 H 1.0107 0.8934 0.4534
H50 H 0.8323 0.8737 0.3792
C37 C 1.0411(6) 0.8356(2) 0.3030(5)
H51 H 0.9880 0.8017 0.3272
H52 H 1.1628 0.8348 0.3359
C38 C 1.2026(5) 0.99628(18) 0.0480(5)
H53 H 1.2615 0.9747 0.1216
H54 H 1.1208 1.0195 0.0906
C39 C 1.3362(6) 1.0318(2) -0.0171(6)
H55 H 1.4049 1.0505 0.0554
H56 H 1.2778 1.0577 -0.0787
H57 H 1.4099 1.0095 -0.0689
C40 C 0.6628(5) 0.8881(2) -0.1400(5)
H58 H 0.6433 0.8573 -0.2017
H59 H 0.6413 0.8767 -0.0463
C41 C 0.6463(5) 0.94773(17) 0.2668(4)
C42 C 0.4792(7) 0.9427(2) 0.4631(6)
H60 H 0.4889 0.9522 0.5603
H61 H 0.4776 0.9040 0.4537
H62 H 0.3740 0.9575 0.4191
loop_
_geom_bond_atom_site_label_1
_geom_bond_atom_site_label_2
_geom_bond_site_symmetry_1
_geom_bond_site_symmetry_2
O1 H1 1_555 1_555
O2 C20 1_555 1_555
O3 C20 1_555 1_555
N1 H2 1_555 1_555
C1 N1 1_555 1_555
C2 C1 1_555 1_555
H3 C2 1_555 1_555
H4 C2 1_555 1_555
C3 C2 1_555 1_555
H5 C3 1_555 1_555
H6 C3 1_555 1_555
C4 C3 1_555 1_555
C5 C4 1_555 1_555
H7 C5 1_555 1_555
C6 N1 1_555 1_555
H8 C6 1_555 1_555
H9 C6 1_555 1_555
C7 C1 1_555 1_555
C8 C7 1_555 1_555
C9 C8 1_555 1_555
C10 C9 1_555 1_555
H10 C10 1_555 1_555
H11 C10 1_555 1_555
C11 C5 1_555 1_555
H12 C11 1_555 1_555
H13 C11 1_555 1_555
C12 C7 1_555 1_555
H14 C12 1_555 1_555
H15 C12 1_555 1_555
C13 C12 1_555 1_555
H16 C13 1_555 1_555
C14 C8 1_555 1_555
H17 C14 1_555 1_555
C15 C14 1_555 1_555
H18 C15 1_555 1_555
H19 C15 1_555 1_555
C16 C9 1_555 1_555
H20 C16 1_555 1_555
H21 C16 1_555 1_555
C17 C1 1_555 1_555
H22 C17 1_555 1_555
H23 C17 1_555 1_555
C18 C17 1_555 1_555
H24 C18 1_555 1_555
H25 C18 1_555 1_555
H26 C18 1_555 1_555
C19 O1 1_555 1_555
H27 C19 1_555 1_555
H28 C19 1_555 1_555
C20 C13 1_555 1_555
C21 O3 1_555 1_555
H29 C21 1_555 1_555
H30 C21 1_555 1_555
H31 C21 1_555 1_555
O4 H32 1_555 1_555
O5 C41 1_555 1_555
O6 C41 1_555 1_555
N2 H33 1_555 1_555
C22 N2 1_555 1_555
C23 C22 1_555 1_555
H34 C23 1_555 1_555
H35 C23 1_555 1_555
C24 C23 1_555 1_555
H36 C24 1_555 1_555
H37 C24 1_555 1_555
C25 C24 1_555 1_555
C26 C25 1_555 1_555
H38 C26 1_555 1_555
C27 N2 1_555 1_555
H39 C27 1_555 1_555
H40 C27 1_555 1_555
C28 C22 1_555 1_555
C29 C28 1_555 1_555
C30 C29 1_555 1_555
C31 C30 1_555 1_555
H41 C31 1_555 1_555
H42 C31 1_555 1_555
C32 C26 1_555 1_555
H43 C32 1_555 1_555
H44 C32 1_555 1_555
C33 C28 1_555 1_555
H45 C33 1_555 1_555
H46 C33 1_555 1_555
C34 C33 1_555 1_555
H47 C34 1_555 1_555
C35 C29 1_555 1_555
H48 C35 1_555 1_555
C36 C35 1_555 1_555
H49 C36 1_555 1_555
H50 C36 1_555 1_555
C37 C30 1_555 1_555
H51 C37 1_555 1_555
H52 C37 1_555 1_555
C38 C22 1_555 1_555
H53 C38 1_555 1_555
H54 C38 1_555 1_555
C39 C38 1_555 1_555
H55 C39 1_555 1_555
H56 C39 1_555 1_555
H57 C39 1_555 1_555
C40 O4 1_555 1_555
H58 C40 1_555 1_555
H59 C40 1_555 1_555
C41 C34 1_555 1_555
C42 O6 1_555 1_555
H60 C42 1_555 1_555
H61 C42 1_555 1_555
H62 C42 1_555 1_555
C4 C7 1_555 1_555
C4 C19 1_555 1_555
C5 C6 1_555 1_555
C10 C11 1_555 1_555
C13 C14 1_555 1_555
C15 C16 1_555 1_555
C25 C28 1_555 1_555
C25 C40 1_555 1_555
C26 C27 1_555 1_555
C31 C32 1_555 1_555
C34 C35 1_555 1_555
C36 C37 1_555 1_555

#END
