
#######################################################################
#
#                 Cambridge Crystallographic Data Centre
#                                CCDC 
#
#######################################################################
#
# If this CIF has been generated from an entry in the Cambridge 
# Structural Database, then it will include bibliographic, chemical, 
# crystal, experimental, refinement or atomic coordinate data resulting 
# from the CCDC's data processing and validation procedures.
#
#######################################################################

data_JEWFAS
_chemical_formula_moiety         'C12 H18 Cl2 N3 O2 P1'
_chemical_name_systematic        4-(3'-Pyridyl)cyclophosphamide
_symmetry_cell_setting           triclinic
_symmetry_space_group_name_H-M   'P -1'
_symmetry_Int_Tables_number      2
_space_group_name_Hall           '-P 1'
loop_
_symmetry_equiv_pos_site_id
_symmetry_equiv_pos_as_xyz
1 x,y,z
2 -x,-y,-z
_cell_length_a                   9.575(3)
_cell_length_b                   9.798(4)
_cell_length_c                   10.143(4)
_cell_angle_alpha                113.92(4)
_cell_angle_beta                 87.47(4)
_cell_angle_gamma                114.84(3)
_cell_volume                     780.185
_chemical_melting_point          126-127deg.C
_cell_formula_units_Z            2
loop_
_atom_site_label
_atom_site_type_symbol
_atom_site_fract_x
_atom_site_fract_y
_atom_site_fract_z
P1 P 0.73300(8) 0.11224(9) 0.48517(7)
Cl1 Cl 0.71964(12) -0.35307(13) 0.60227(11)
Cl2 Cl 0.81332(15) -0.17750(13) -0.01412(10)
O1 O 0.9084(2) 0.2479(2) 0.5186(2)
O2 O 0.6311(2) 0.1301(2) 0.3947(2)
N1 N 0.6930(3) 0.1295(3) 0.6488(2)
N2 N 0.7358(3) -0.0680(3) 0.4018(2)
N3 N 0.6366(4) 0.4281(4) 1.1442(3)
C1 C 0.7370(3) 0.2990(3) 0.7649(3)
C2 C 0.9096(4) 0.4069(4) 0.7736(3)
C3 C 0.9478(4) 0.4147(4) 0.6306(3)
C4 C 0.7911(3) -0.1394(4) 0.4788(3)
C5 C 0.6535(4) -0.2739(4) 0.5000(4)
C6 C 0.7087(4) -0.1506(4) 0.2422(3)
C7 C 0.8565(5) -0.0868(5) 0.1806(4)
C8 C 0.6639(4) 0.4142(4) 1.0105(3)
C9 C 0.7004(3) 0.2927(3) 0.9091(3)
C10 C 0.7076(4) 0.1782(4) 0.9507(3)
C11 C 0.6771(5) 0.1900(5) 1.0882(4)
C12 C 0.6438(4) 0.3150(5) 1.1806(4)
H1 H 0.603(3) 0.057(3) 0.645(3)
H2 H 0.676(3) 0.350(3) 0.742(3)
H3 H 0.939(4) 0.524(4) 0.847(4)
H4 H 0.972(4) 0.362(4) 0.802(3)
H5 H 1.056(4) 0.476(4) 0.633(3)
H6 H 0.888(4) 0.464(4) 0.601(3)
H7 H 0.860(4) -0.046(4) 0.574(3)
H8 H 0.869(4) -0.184(4) 0.421(3)
H9 H 0.588(4) -0.365(5) 0.405(4)
H10 H 0.579(4) -0.231(4) 0.555(3)
H11 H 0.657(4) -0.270(4) 0.212(3)
H12 H 0.629(4) -0.132(4) 0.209(3)
H13 H 0.903(4) 0.022(5) 0.212(4)
H14 H 0.951(4) -0.134(4) 0.179(4)
H15 H 0.649(4) 0.489(4) 0.981(4)
H16 H 0.732(4) 0.085(4) 0.880(4)
H17 H 0.675(4) 0.117(5) 1.118(4)
H18 H 0.612(4) 0.319(4) 1.275(4)
loop_
_geom_bond_atom_site_label_1
_geom_bond_atom_site_label_2
_geom_bond_site_symmetry_1
_geom_bond_site_symmetry_2
P1 O1 1_555 1_555
Cl1 C5 1_555 1_555
Cl2 C7 1_555 1_555
O1 C3 1_555 1_555
O2 P1 1_555 1_555
N1 P1 1_555 1_555
N2 P1 1_555 1_555
N3 C8 1_555 1_555
C1 N1 1_555 1_555
C2 C1 1_555 1_555
C3 C2 1_555 1_555
C4 N2 1_555 1_555
C5 C4 1_555 1_555
C6 N2 1_555 1_555
C7 C6 1_555 1_555
C8 C9 1_555 1_555
C9 C1 1_555 1_555
C10 C9 1_555 1_555
C11 C10 1_555 1_555
C12 N3 1_555 1_555
H1 N1 1_555 1_555
H2 C1 1_555 1_555
H3 C2 1_555 1_555
H4 C2 1_555 1_555
H5 C3 1_555 1_555
H6 C3 1_555 1_555
H7 C4 1_555 1_555
H8 C4 1_555 1_555
H9 C5 1_555 1_555
H10 C5 1_555 1_555
H11 C6 1_555 1_555
H12 C6 1_555 1_555
H13 C7 1_555 1_555
H14 C7 1_555 1_555
H15 C8 1_555 1_555
H16 C10 1_555 1_555
H17 C11 1_555 1_555
H18 C12 1_555 1_555
C11 C12 1_555 1_555

#END
