
#######################################################################
#
#                 Cambridge Crystallographic Data Centre
#                                CCDC 
#
#######################################################################
#
# If this CIF has been generated from an entry in the Cambridge 
# Structural Database, then it will include bibliographic, chemical, 
# crystal, experimental, refinement or atomic coordinate data resulting 
# from the CCDC's data processing and validation procedures.
#
#######################################################################

data_JEWRIP
_chemical_formula_moiety         'C21 H23 N1 O3'
_chemical_name_systematic        
8a-hydroxy-3,12a-dimethyl-1,3,4,6a,7,8,8a,9,12a,12b-decahydro-6H-11,2,12-(prop[1]ene[1,3]diyl[3]ylidene)azuleno[5,6-a]indolizine-6,10(2H)-dione
_symmetry_cell_setting           orthorhombic
_symmetry_space_group_name_H-M   'P 21 21 21'
_symmetry_Int_Tables_number      19
_space_group_name_Hall           'P 2ac 2ab'
loop_
_symmetry_equiv_pos_site_id
_symmetry_equiv_pos_as_xyz
1 x,y,z
2 1/2-x,-y,1/2+z
3 1/2+x,1/2-y,-z
4 -x,1/2+y,1/2-z
_cell_length_a                   7.756(2)
_cell_length_b                   11.881(2)
_cell_length_c                   17.884(4)
_cell_angle_alpha                90
_cell_angle_beta                 90
_cell_angle_gamma                90
_cell_volume                     1647.99
_exptl_crystal_colour            colorless
_exptl_crystal_description       block
_cell_formula_units_Z            4
loop_
_atom_site_label
_atom_site_type_symbol
_atom_site_fract_x
_atom_site_fract_y
_atom_site_fract_z
O1 O -0.23124(17) 0.51653(11) -0.07454(7)
O2 O 0.44674(15) 0.55133(10) -0.01409(7)
H1 H 0.5489 0.5479 -0.0294
O3 O 0.59063(19) 0.25188(12) -0.14925(9)
N1 N -0.14657(18) 0.64641(11) -0.16270(8)
C1 C -0.2453(2) 0.61059(15) -0.22769(9)
H2 H -0.3111 0.6737 -0.2470
H3 H -0.3259 0.5521 -0.2132
C2 C -0.1244(2) 0.56565(14) -0.28912(10)
H4 H -0.1052 0.4853 -0.2801
C3 C 0.0547(2) 0.62657(14) -0.28803(9)
H5 H 0.0948 0.6346 -0.3397
C4 C 0.0377(2) 0.74330(13) -0.25420(9)
H6 H 0.1445 0.7848 -0.2599
H7 H -0.0539 0.7849 -0.2787
C5 C -0.0037(2) 0.72708(13) -0.17223(9)
H8 H -0.0354 0.7995 -0.1499
C6 C 0.1384(2) 0.67125(13) -0.12504(9)
C7 C 0.2139(2) 0.57005(12) -0.16771(9)
C8 C 0.1862(2) 0.55858(13) -0.24534(9)
C9 C 0.2772(2) 0.47695(14) -0.28679(9)
H9 H 0.2621 0.4739 -0.3383
C10 C 0.3870(2) 0.40213(15) -0.25350(10)
H10 H 0.4498 0.3505 -0.2816
C11 C 0.4010(2) 0.40619(14) -0.17595(9)
C12 C 0.3176(2) 0.48735(13) -0.13338(9)
C13 C 0.3468(2) 0.46519(14) -0.04918(9)
C14 C 0.4452(2) 0.35161(14) -0.04840(10)
H11 H 0.5470 0.3571 -0.0171
H12 H 0.3719 0.2923 -0.0289
C15 C 0.4955(2) 0.32646(15) -0.12811(11)
C16 C 0.1765(2) 0.45723(14) -0.00726(9)
H13 H 0.1964 0.4189 0.0399
H14 H 0.0975 0.4114 -0.0363
C17 C 0.0911(2) 0.57020(15) 0.00869(9)
H15 H -0.0049 0.5569 0.0423
H16 H 0.1736 0.6167 0.0353
C18 C 0.0242(2) 0.63768(14) -0.05727(8)
H17 H -0.0143 0.7093 -0.0358
C19 C -0.1334(2) 0.59081(14) -0.09732(9)
C20 C -0.2124(3) 0.57855(18) -0.36508(11)
H18 H -0.2163 0.6567 -0.3785
H19 H -0.3277 0.5494 -0.3623
H20 H -0.1486 0.5376 -0.4022
C21 C 0.2794(2) 0.75606(14) -0.10534(10)
H21 H 0.3313 0.7839 -0.1504
H22 H 0.3657 0.7199 -0.0752
H23 H 0.2299 0.8176 -0.0780
loop_
_geom_bond_atom_site_label_1
_geom_bond_atom_site_label_2
_geom_bond_site_symmetry_1
_geom_bond_site_symmetry_2
O1 C19 1_555 1_555
O2 H1 1_555 1_555
O3 C15 1_555 1_555
N1 C1 1_555 1_555
C1 H2 1_555 1_555
H3 C1 1_555 1_555
C2 C1 1_555 1_555
H4 C2 1_555 1_555
C3 C2 1_555 1_555
H5 C3 1_555 1_555
C4 C3 1_555 1_555
H6 C4 1_555 1_555
H7 C4 1_555 1_555
C5 N1 1_555 1_555
H8 C5 1_555 1_555
C6 C5 1_555 1_555
C7 C6 1_555 1_555
C8 C3 1_555 1_555
C9 C8 1_555 1_555
H9 C9 1_555 1_555
C10 C9 1_555 1_555
H10 C10 1_555 1_555
C11 C10 1_555 1_555
C12 C7 1_555 1_555
C13 O2 1_555 1_555
C14 C13 1_555 1_555
H11 C14 1_555 1_555
H12 C14 1_555 1_555
C15 C11 1_555 1_555
C16 C13 1_555 1_555
H13 C16 1_555 1_555
H14 C16 1_555 1_555
C17 C16 1_555 1_555
H15 C17 1_555 1_555
H16 C17 1_555 1_555
C18 C6 1_555 1_555
H17 C18 1_555 1_555
C19 N1 1_555 1_555
C20 C2 1_555 1_555
H18 C20 1_555 1_555
H19 C20 1_555 1_555
H20 C20 1_555 1_555
C21 C6 1_555 1_555
H21 C21 1_555 1_555
H22 C21 1_555 1_555
H23 C21 1_555 1_555
C4 C5 1_555 1_555
C7 C8 1_555 1_555
C11 C12 1_555 1_555
C12 C13 1_555 1_555
C14 C15 1_555 1_555
C17 C18 1_555 1_555
C18 C19 1_555 1_555

#END
