
#######################################################################
#
#                 Cambridge Crystallographic Data Centre
#                                CCDC 
#
#######################################################################
#
# If this CIF has been generated from an entry in the Cambridge 
# Structural Database, then it will include bibliographic, chemical, 
# crystal, experimental, refinement or atomic coordinate data resulting 
# from the CCDC's data processing and validation procedures.
#
#######################################################################

data_JEXHAV01
_chemical_formula_moiety         'C26 H29 B1'
_chemical_name_systematic        2-(Phenyl)ethenyl(dimesityl)borane
_symmetry_cell_setting           monoclinic
_symmetry_space_group_name_H-M   'P 21/n'
_symmetry_Int_Tables_number      14
_space_group_name_Hall           '-P 2yn'
loop_
_symmetry_equiv_pos_site_id
_symmetry_equiv_pos_as_xyz
1 x,y,z
2 1/2-x,1/2+y,1/2-z
3 -x,-y,-z
4 1/2+x,1/2-y,1/2+z
_cell_length_a                   9.754(2)
_cell_length_b                   11.550(2)
_cell_length_c                   18.930(3)
_cell_angle_alpha                90
_cell_angle_beta                 103.88(1)
_cell_angle_gamma                90
_cell_volume                     2070.36
_exptl_crystal_colour            colorless
_exptl_crystal_description       block
_cell_formula_units_Z            4
_exptl_crystal_recrystallization_method hexane
loop_
_atom_site_label
_atom_site_type_symbol
_atom_site_fract_x
_atom_site_fract_y
_atom_site_fract_z
B1 B 0.52387(13) 0.42020(12) 0.21718(7)
C1 C 0.50426(13) 0.33172(12) 0.41572(7)
C2 C 0.57717(14) 0.22808(13) 0.43464(7)
H1 H 0.6317 0.1968 0.4038
C3 C 0.57110(16) 0.16990(15) 0.49800(8)
H2 H 0.6215 0.0995 0.5101
C4 C 0.49260(18) 0.21374(16) 0.54349(8)
H3 H 0.4885 0.1734 0.5867
C5 C 0.42000(19) 0.31619(16) 0.52598(8)
H4 H 0.3657 0.3466 0.5572
C6 C 0.42595(16) 0.37526(14) 0.46265(8)
H5 H 0.3762 0.4461 0.4512
C7 C 0.50451(13) 0.39414(11) 0.34809(7)
H6 H 0.4703 0.4714 0.3448
C8 C 0.54788(13) 0.35413(11) 0.29063(7)
H7 H 0.5956 0.2818 0.2950
C9 C 0.50700(12) 0.34756(10) 0.14493(6)
C10 C 0.58255(12) 0.37595(11) 0.09208(7)
C11 C 0.56764(14) 0.30843(11) 0.02970(7)
H8 H 0.6218 0.3271 -0.0043
C12 C 0.47614(14) 0.21468(12) 0.01565(7)
C13 C 0.39961(13) 0.18833(11) 0.06668(7)
H9 H 0.3352 0.1253 0.0576
C14 C 0.41421(12) 0.25152(10) 0.13086(6)
C15 C 0.68076(14) 0.47891(12) 0.10068(7)
H10 H 0.7477(10) 0.4676(5) 0.0716(6)
H11 H 0.7298(11) 0.4867(6) 0.1508(5)
H12 H 0.6271(6) 0.5477(8) 0.0851(6)
C16 C 0.45747(19) 0.14496(15) -0.05342(8)
H13 H 0.3960(16) 0.0813(12) -0.0520(4)
H14 H 0.5471(12) 0.1167(12) -0.0576(4)
H15 H 0.4176(17) 0.1927(7) -0.0943(6)
C17 C 0.32250(14) 0.21701(11) 0.18142(7)
H16 H 0.2480(10) 0.1647(9) 0.1559(3)
H17 H 0.2798(10) 0.2862(7) 0.1969(5)
H18 H 0.3803(6) 0.1778(9) 0.2241(5)
C18 C 0.50764(12) 0.55576(10) 0.21798(6)
C19 C 0.61054(12) 0.62738(11) 0.26251(6)
C20 C 0.58658(13) 0.74607(11) 0.26658(7)
H19 H 0.6573 0.7931 0.2963
C21 C 0.46200(13) 0.79706(11) 0.22821(7)
C22 C 0.36207(12) 0.72685(11) 0.18334(7)
H20 H 0.2767 0.7606 0.1564
C23 C 0.38313(12) 0.60889(10) 0.17671(6)
C24 C 0.75219(14) 0.58123(12) 0.30385(8)
H21 H 0.8255(10) 0.6205(11) 0.2882(6)
H22 H 0.7574(6) 0.5006(11) 0.2947(7)
H23 H 0.7629(7) 0.5936(12) 0.3546(7)
C25 C 0.43545(14) 0.92472(11) 0.23242(8)
H24 H 0.4932(10) 0.9554(4) 0.2779(5)
H25 H 0.3359(10) 0.93780(19) 0.2307(6)
H26 H 0.4600(11) 0.9638(4) 0.1914(5)
C26 C 0.26946(13) 0.54056(12) 0.12525(7)
H27 H 0.1905(10) 0.5912(6) 0.1047(5)
H28 H 0.2376(9) 0.4780(9) 0.1517(3)
H29 H 0.3072(5) 0.5086(9) 0.0864(5)
loop_
_geom_bond_atom_site_label_1
_geom_bond_atom_site_label_2
_geom_bond_site_symmetry_1
_geom_bond_site_symmetry_2
B1 C8 1_555 1_555
C1 C2 1_555 1_555
C2 H1 1_555 1_555
C3 C2 1_555 1_555
H2 C3 1_555 1_555
C4 C3 1_555 1_555
H3 C4 1_555 1_555
C5 C4 1_555 1_555
H4 C5 1_555 1_555
C6 C1 1_555 1_555
H5 C6 1_555 1_555
C7 C1 1_555 1_555
H6 C7 1_555 1_555
C8 C7 1_555 1_555
H7 C8 1_555 1_555
C9 B1 1_555 1_555
C10 C9 1_555 1_555
C11 C10 1_555 1_555
H8 C11 1_555 1_555
C12 C11 1_555 1_555
C13 C12 1_555 1_555
H9 C13 1_555 1_555
C14 C9 1_555 1_555
C15 C10 1_555 1_555
H10 C15 1_555 1_555
H11 C15 1_555 1_555
H12 C15 1_555 1_555
C16 C12 1_555 1_555
H13 C16 1_555 1_555
H14 C16 1_555 1_555
H15 C16 1_555 1_555
C17 C14 1_555 1_555
H16 C17 1_555 1_555
H17 C17 1_555 1_555
H18 C17 1_555 1_555
C18 B1 1_555 1_555
C19 C18 1_555 1_555
C20 C19 1_555 1_555
H19 C20 1_555 1_555
C21 C20 1_555 1_555
C22 C21 1_555 1_555
H20 C22 1_555 1_555
C23 C18 1_555 1_555
C24 C19 1_555 1_555
H21 C24 1_555 1_555
H22 C24 1_555 1_555
H23 C24 1_555 1_555
C25 C21 1_555 1_555
H24 C25 1_555 1_555
H25 C25 1_555 1_555
H26 C25 1_555 1_555
C26 C23 1_555 1_555
H27 C26 1_555 1_555
H28 C26 1_555 1_555
H29 C26 1_555 1_555
C5 C6 1_555 1_555
C13 C14 1_555 1_555
C22 C23 1_555 1_555

#END
