
#######################################################################
#
#                 Cambridge Crystallographic Data Centre
#                                CCDC 
#
#######################################################################
#
# If this CIF has been generated from an entry in the Cambridge 
# Structural Database, then it will include bibliographic, chemical, 
# crystal, experimental, refinement or atomic coordinate data resulting 
# from the CCDC's data processing and validation procedures.
#
#######################################################################

data_JEXRIQ
_chemical_formula_moiety         'C8 H7 N5 O2 2+,2(N1 O3 1-),2(H2 O1)'
_chemical_name_systematic        
"4-nitro-3,5-dihydrobenzo[1,2-d:4,5-d']diimidazole-1,7-diium dinitrate dihydrate"
_symmetry_cell_setting           monoclinic
_symmetry_space_group_name_H-M   'P 21/c'
_symmetry_Int_Tables_number      14
_space_group_name_Hall           '-P 2ybc'
loop_
_symmetry_equiv_pos_site_id
_symmetry_equiv_pos_as_xyz
1 x,y,z
2 -x,1/2+y,1/2-z
3 -x,-y,-z
4 x,1/2-y,1/2+z
_cell_length_a                   6.9070(16)
_cell_length_b                   13.021(3)
_cell_length_c                   15.871(3)
_cell_angle_alpha                90
_cell_angle_beta                 94.656(6)
_cell_angle_gamma                90
_cell_volume                     1422.66
_exptl_crystal_colour            colorless
_exptl_crystal_description       block
_cell_formula_units_Z            4
_exptl_crystal_recrystallization_method water
loop_
_atom_site_label
_atom_site_type_symbol
_atom_site_fract_x
_atom_site_fract_y
_atom_site_fract_z
O1 O 0.5578(5) -0.0970(3) 0.6781(2)
O2 O 0.6643(6) -0.2377(3) 0.6276(3)
O3 O 0.7123(6) -0.0930(3) 0.5643(3)
N1 N 0.6476(6) -0.1440(4) 0.6223(3)
O4 O 0.5883(5) 0.4789(3) 0.6658(2)
O5 O 0.6970(6) 0.5281(3) 0.5475(3)
N2 N 0.8263(6) 0.3850(3) 0.4348(3)
H1 H 0.8316 0.4525 0.4324
N3 N 0.5720(6) 0.1111(3) 0.6604(3)
H2 H 0.5677 0.0436 0.6610
N4 N 0.5399(6) 0.2704(3) 0.7006(3)
H3 H 0.5123 0.3236 0.7317
N5 N 0.8599(6) 0.2256(4) 0.3989(3)
H4 H 0.8900 0.1712 0.3698
N6 N 0.6508(6) 0.4607(3) 0.5974(3)
C1 C 0.6203(6) 0.2745(4) 0.6231(3)
C2 C 0.6425(6) 0.1705(4) 0.5977(3)
C3 C 0.7505(6) 0.3296(4) 0.4971(3)
C4 C 0.6742(7) 0.3545(4) 0.5723(3)
C5 C 0.7707(6) 0.2242(4) 0.4753(3)
C6 C 0.7168(6) 0.1431(4) 0.5240(3)
H5 H 0.7304 0.0735 0.5075
C7 C 0.5119(7) 0.1723(4) 0.7196(3)
H6 H 0.4562 0.1493 0.7691
C8 C 0.8907(8) 0.3210(4) 0.3782(3)
H7 H 0.9510 0.3417 0.3292
O6 O 0.8839(7) 0.5738(3) 0.3774(2)
H8 H 0.8590 0.6343 0.3934
H9 H 0.9108 0.5752 0.3260
O7 O 0.9657(6) 0.0765(4) 0.2849(3)
O8 O 0.8593(6) -0.0127(4) 0.3877(3)
O9 O 0.9611(7) -0.0899(4) 0.2827(3)
N7 N 0.9284(6) -0.0090(5) 0.3185(3)
O10 O 0.8167(6) 0.7683(3) 0.4309(3)
H10 H 0.7921 0.7557 0.4815
H11 H 0.8043 0.8322 0.4213
loop_
_geom_bond_atom_site_label_1
_geom_bond_atom_site_label_2
_geom_bond_site_symmetry_1
_geom_bond_site_symmetry_2
O1 N1 1_555 1_555
O2 N1 1_555 1_555
O3 N1 1_555 1_555
O4 N6 1_555 1_555
O5 N6 1_555 1_555
N2 H1 1_555 1_555
N3 H2 1_555 1_555
N4 H3 1_555 1_555
N5 H4 1_555 1_555
N6 C4 1_555 1_555
C1 N4 1_555 1_555
C2 N3 1_555 1_555
C3 N2 1_555 1_555
C4 C1 1_555 1_555
C5 N5 1_555 1_555
C6 C2 1_555 1_555
H5 C6 1_555 1_555
C7 N3 1_555 1_555
H6 C7 1_555 1_555
C8 N2 1_555 1_555
H7 C8 1_555 1_555
O6 H8 1_555 1_555
H9 O6 1_555 1_555
O7 N7 1_555 1_555
O8 N7 1_555 1_555
O9 N7 1_555 1_555
O10 H10 1_555 1_555
H11 O10 1_555 1_555
N4 C7 1_555 1_555
N5 C8 1_555 1_555
C1 C2 1_555 1_555
C3 C4 1_555 1_555
C3 C5 1_555 1_555
C5 C6 1_555 1_555

#END
