
#######################################################################
#
#                 Cambridge Crystallographic Data Centre
#                                CCDC 
#
#######################################################################
#
# If this CIF has been generated from an entry in the Cambridge 
# Structural Database, then it will include bibliographic, chemical, 
# crystal, experimental, refinement or atomic coordinate data resulting 
# from the CCDC's data processing and validation procedures.
#
#######################################################################

data_JEYLII
_chemical_formula_moiety         'C26 H20'
_chemical_name_systematic        
5,6-Didehydro-1,1,14,14-tetramethyl-10,11-methano-1H-benzo(5,6)cyclo-octa(1,2,3,4-def)fluorene
_symmetry_cell_setting           monoclinic
_symmetry_space_group_name_H-M   'P 21/n'
_symmetry_Int_Tables_number      14
_space_group_name_Hall           '-P 2yn'
loop_
_symmetry_equiv_pos_site_id
_symmetry_equiv_pos_as_xyz
1 x,y,z
2 1/2-x,1/2+y,1/2-z
3 -x,-y,-z
4 1/2+x,1/2-y,1/2+z
_cell_length_a                   15.809(7)
_cell_length_b                   12.799(2)
_cell_length_c                   28.297(3)
_cell_angle_alpha                90
_cell_angle_beta                 102.99(2)
_cell_angle_gamma                90
_cell_volume                     5579.08
_exptl_crystal_colour            'light yellow'
_chemical_melting_point          203-205deg.C
_cell_formula_units_Z            12
loop_
_atom_site_label
_atom_site_type_symbol
_atom_site_fract_x
_atom_site_fract_y
_atom_site_fract_z
C1 C 0.3089(7) 0.8193(10) 0.2105(4)
C2 C 0.3056(8) 0.9077(10) 0.1975(4)
C3 C 0.2994(6) 1.0935(9) 0.1694(4)
C4 C 0.2855(6) 1.1656(8) 0.1319(4)
C5 C 0.2632(6) 1.1281(9) 0.0848(4)
C6 C 0.2314(7) 0.9704(9) 0.0275(3)
C7 C 0.2244(6) 0.7775(9) 0.0073(3)
C8 C 0.2351(6) 0.6774(9) 0.0229(4)
C9 C 0.2760(7) 0.5484(8) 0.0936(4)
C10 C 0.3134(8) 0.4964(9) 0.1843(5)
C11 C 0.3301(9) 0.5314(10) 0.2305(5)
C12 C 0.3291(7) 0.6364(10) 0.2409(4)
C13 C 0.2917(6) 0.9857(9) 0.1619(4)
C14 C 0.2702(6) 0.9482(8) 0.1130(4)
C15 C 0.2564(6) 1.0230(8) 0.0760(4)
C16 C 0.2382(6) 0.8575(8) 0.0414(3)
C17 C 0.2605(6) 0.8414(8) 0.0918(3)
C18 C 0.2693(6) 0.7338(8) 0.1075(3)
C19 C 0.2582(6) 0.6547(9) 0.0715(4)
C20 C 0.2937(7) 0.5695(10) 0.1470(4)
C21 C 0.2912(6) 0.6772(9) 0.1552(4)
C22 C 0.3095(7) 0.7093(9) 0.2034(4)
C23 C 0.1405(6) 1.0020(8) 0.0007(3)
C24 C 0.2978(7) 0.9976(8) -0.0045(3)
C25 C 0.1974(6) 0.4763(7) 0.0770(3)
C26 C 0.3528(6) 0.4968(7) 0.0776(3)
H1 H 0.3126 1.1203 0.2019
H2 H 0.2945 1.2390 0.1380
H3 H 0.2494 1.1767 0.0583
H4 H 0.2070 0.7929 -0.0267
H5 H 0.2281 0.6213 -0.0001
H6 H 0.3140 0.4229 0.1776
H7 H 0.3447 0.4830 0.2570
H8 H 0.3425 0.6608 0.2738
H9 H 0.1005 0.9841 0.0204
H10 H 0.1392 1.0761 -0.0046
H11 H 0.1241 0.9666 -0.0300
H12 H 0.3548 0.9760 0.0124
H13 H 0.2824 0.9622 -0.0352
H14 H 0.2975 1.0717 -0.0099
H15 H 0.1493 0.5071 0.0874
H16 H 0.1829 0.4686 0.0424
H17 H 0.2100 0.4090 0.0919
H18 H 0.4026 0.5415 0.0870
H19 H 0.3657 0.4295 0.0925
H20 H 0.3386 0.4890 0.0430
C27 C 0.8089(8) 0.9882(8) 0.1430(4)
C28 C 0.7310(7) 1.0047(8) 0.1386(4)
C29 C 0.5768(7) 1.0415(9) 0.1191(4)
C30 C 0.5068(7) 1.1085(10) 0.1079(4)
C31 C 0.5201(7) 1.2144(9) 0.1032(4)
C32 C 0.6298(6) 1.3621(8) 0.1052(3)
C33 C 0.7813(6) 1.4348(8) 0.1078(3)
C34 C 0.8676(6) 1.4145(8) 0.1102(3)
C35 C 0.9886(6) 1.2798(8) 0.1151(3)
C36 C 1.0526(6) 1.0969(9) 0.1248(3)
C37 C 1.0377(7) 0.9926(9) 0.1322(4)
C38 C 0.9597(7) 0.9576(8) 0.1384(3)
C39 C 0.6616(7) 1.0778(8) 0.1243(3)
C40 C 0.6757(6) 1.1853(8) 0.1171(3)
C41 C 0.6037(7) 1.2503(8) 0.1068(3)
C42 C 0.7254(6) 1.3519(8) 0.1101(3)
C43 C 0.7550(6) 1.2491(7) 0.1183(3)
C44 C 0.8455(6) 1.2288(7) 0.1220(3)
C45 C 0.8974(6) 1.3133(8) 0.1161(3)
C46 C 0.9842(6) 1.1657(8) 0.1237(3)
C47 C 0.9036(6) 1.1340(8) 0.1275(3)
C48 C 0.8904(7) 1.0281(8) 0.1370(3)
C49 C 0.5866(6) 1.4119(7) 0.0555(3)
C50 C 0.6071(6) 1.4279(7) 0.1462(3)
C51 C 1.0092(5) 1.3059(7) 0.0663(3)
C52 C 1.0558(5) 1.3346(7) 0.1560(3)
H21 H 0.5670 0.9684 0.1232
H22 H 0.4488 1.0820 0.1037
H23 H 0.4718 1.2618 0.0967
H24 H 0.7592 1.5048 0.1032
H25 H 0.9067 1.4701 0.1070
H26 H 1.1077 1.1222 0.1209
H27 H 1.0842 0.9444 0.1322
H28 H 0.9518 0.8849 0.1445
H29 H 0.6000 1.3700 0.0300
H30 H 0.5248 1.4159 0.0516
H31 H 0.6097 1.4809 0.0541
H32 H 0.6328 1.3960 0.1768
H33 H 0.6303 1.4969 0.1451
H34 H 0.5454 1.4319 0.1425
H35 H 0.9676 1.2720 0.0410
H36 H 1.0058 1.3801 0.0614
H37 H 1.0666 1.2822 0.0656
H38 H 1.0439 1.3183 0.1870
H39 H 1.1131 1.3109 0.1552
H40 H 1.0523 1.4088 0.1510
C53 C -0.2963(7) 0.7254(8) 0.0563(3)
C54 C -0.2213(7) 0.7132(8) 0.0576(3)
C55 C -0.0648(7) 0.6987(8) 0.0586(3)
C56 C 0.0194(8) 0.6874(8) 0.0852(4)
C57 C 0.0363(6) 0.6772(7) 0.1351(4)
C58 C -0.0263(6) 0.6715(8) 0.2121(3)
C59 C -0.1505(7) 0.6833(8) 0.2570(3)
C60 C -0.2366(7) 0.6977(9) 0.2545(4)
C61 C -0.3870(6) 0.7328(8) 0.2054(3)
C62 C -0.5023(7) 0.7620(8) 0.1269(4)
C63 C -0.5198(6) 0.7680(8) 0.0764(4)
C64 C -0.4526(6) 0.7565(8) 0.0529(3)
C65 C -0.1335(6) 0.7009(8) 0.0819(3)
C66 C -0.1165(6) 0.6921(7) 0.1328(3)
C67 C -0.0317(7) 0.6804(7) 0.1586(3)
C68 C -0.1202(6) 0.6826(8) 0.2143(3)
C69 C -0.1745(6) 0.6969(7) 0.1684(3)
C70 C -0.2646(6) 0.7119(7) 0.1658(3)
C71 C -0.2916(6) 0.7116(7) 0.2101(4)
C72 C -0.4182(7) 0.7413(7) 0.1516(3)
C73 C -0.3497(6) 0.7295(6) 0.1289(3)
C74 C -0.3684(6) 0.7378(7) 0.0783(3)
C75 C 0.0079(6) 0.5629(7) 0.2304(3)
C76 C 0.0306(6) 0.7571(7) 0.2406(3)
C77 C -0.4007(6) 0.8352(8) 0.2316(3)
C78 C -0.4333(6) 0.6429(7) 0.2273(3)
H41 H -0.0760 0.7042 0.0240
H42 H 0.0669 0.6864 0.0691
H43 H 0.0947 0.6691 0.1537
H44 H -0.1098 0.6754 0.2875
H45 H -0.2585 0.6963 0.2835
H46 H -0.5468 0.7715 0.1446
H47 H -0.5785 0.7796 0.0589
H48 H -0.4656 0.7626 0.0182
H49 H -0.0291 0.5108 0.2120
H50 H 0.0661 0.5539 0.2262
H51 H 0.0075 0.5559 0.2641
H52 H 0.0076 0.8237 0.2283
H53 H 0.0304 0.7522 0.2744
H54 H 0.0890 0.7503 0.2365
H55 H -0.3723 0.8903 0.2182
H56 H -0.4616 0.8506 0.2265
H57 H -0.3761 0.8297 0.2658
H58 H -0.4245 0.5793 0.2111
H59 H -0.4088 0.6360 0.2614
H60 H -0.4943 0.6568 0.2221
loop_
_geom_bond_atom_site_label_1
_geom_bond_atom_site_label_2
_geom_bond_site_symmetry_1
_geom_bond_site_symmetry_2
C1 C2 1_555 1_555
C2 C13 1_555 1_555
C3 C4 1_555 1_555
C4 C5 1_555 1_555
C5 C15 1_555 1_555
C6 C15 1_555 1_555
C7 C8 1_555 1_555
C8 C19 1_555 1_555
C9 C19 1_555 1_555
C10 C11 1_555 1_555
C11 C12 1_555 1_555
C12 C22 1_555 1_555
C13 C3 1_555 1_555
C14 C13 1_555 1_555
C15 C14 1_555 1_555
C16 C6 1_555 1_555
C17 C14 1_555 1_555
C18 C17 1_555 1_555
C19 C18 1_555 1_555
C20 C9 1_555 1_555
C21 C18 1_555 1_555
C22 C1 1_555 1_555
C23 C6 1_555 1_555
C24 C6 1_555 1_555
C25 C9 1_555 1_555
C26 C9 1_555 1_555
C27 C28 1_555 1_555
C28 C39 1_555 1_555
C29 C30 1_555 1_555
C30 C31 1_555 1_555
C31 C41 1_555 1_555
C32 C41 1_555 1_555
C33 C34 1_555 1_555
C34 C45 1_555 1_555
C35 C45 1_555 1_555
C36 C37 1_555 1_555
C37 C38 1_555 1_555
C38 C48 1_555 1_555
C39 C29 1_555 1_555
C40 C39 1_555 1_555
C41 C40 1_555 1_555
C42 C32 1_555 1_555
C43 C40 1_555 1_555
C44 C43 1_555 1_555
C45 C44 1_555 1_555
C46 C35 1_555 1_555
C47 C44 1_555 1_555
C48 C27 1_555 1_555
C49 C32 1_555 1_555
C50 C32 1_555 1_555
C51 C35 1_555 1_555
C52 C35 1_555 1_555
C53 C54 1_555 1_555
C54 C65 1_555 1_555
C55 C56 1_555 1_555
C56 C57 1_555 1_555
C57 C67 1_555 1_555
C58 C67 1_555 1_555
C59 C60 1_555 1_555
C60 C71 1_555 1_555
C61 C71 1_555 1_555
C62 C63 1_555 1_555
C63 C64 1_555 1_555
C64 C74 1_555 1_555
C65 C55 1_555 1_555
C66 C65 1_555 1_555
C67 C66 1_555 1_555
C68 C58 1_555 1_555
C69 C66 1_555 1_555
C70 C69 1_555 1_555
C71 C70 1_555 1_555
C72 C61 1_555 1_555
C73 C70 1_555 1_555
C74 C53 1_555 1_555
C75 C58 1_555 1_555
C76 C58 1_555 1_555
C77 C61 1_555 1_555
C78 C61 1_555 1_555
H1 C3 1_555 1_555
H2 C4 1_555 1_555
H3 C5 1_555 1_555
H4 C7 1_555 1_555
H5 C8 1_555 1_555
H6 C10 1_555 1_555
H7 C11 1_555 1_555
H8 C12 1_555 1_555
H9 C23 1_555 1_555
H10 C23 1_555 1_555
H11 C23 1_555 1_555
H12 C24 1_555 1_555
H13 C24 1_555 1_555
H14 C24 1_555 1_555
H15 C25 1_555 1_555
H16 C25 1_555 1_555
H17 C25 1_555 1_555
H18 C26 1_555 1_555
H19 C26 1_555 1_555
H20 C26 1_555 1_555
H21 C29 1_555 1_555
H22 C30 1_555 1_555
H23 C31 1_555 1_555
H24 C33 1_555 1_555
H25 C34 1_555 1_555
H26 C36 1_555 1_555
H27 C37 1_555 1_555
H28 C38 1_555 1_555
H29 C49 1_555 1_555
H30 C49 1_555 1_555
H31 C49 1_555 1_555
H32 C50 1_555 1_555
H33 C50 1_555 1_555
H34 C50 1_555 1_555
H35 C51 1_555 1_555
H36 C51 1_555 1_555
H37 C51 1_555 1_555
H38 C52 1_555 1_555
H39 C52 1_555 1_555
H40 C52 1_555 1_555
H41 C55 1_555 1_555
H42 C56 1_555 1_555
H43 C57 1_555 1_555
H44 C59 1_555 1_555
H45 C60 1_555 1_555
H46 C62 1_555 1_555
H47 C63 1_555 1_555
H48 C64 1_555 1_555
H49 C75 1_555 1_555
H50 C75 1_555 1_555
H51 C75 1_555 1_555
H52 C76 1_555 1_555
H53 C76 1_555 1_555
H54 C76 1_555 1_555
H55 C77 1_555 1_555
H56 C77 1_555 1_555
H57 C77 1_555 1_555
H58 C78 1_555 1_555
H59 C78 1_555 1_555
H60 C78 1_555 1_555
C7 C16 1_555 1_555
C10 C20 1_555 1_555
C16 C17 1_555 1_555
C20 C21 1_555 1_555
C21 C22 1_555 1_555
C33 C42 1_555 1_555
C36 C46 1_555 1_555
C42 C43 1_555 1_555
C46 C47 1_555 1_555
C47 C48 1_555 1_555
C59 C68 1_555 1_555
C62 C72 1_555 1_555
C68 C69 1_555 1_555
C72 C73 1_555 1_555
C73 C74 1_555 1_555

#END
