
#######################################################################
#
#                 Cambridge Crystallographic Data Centre
#                                CCDC 
#
#######################################################################
#
# If this CIF has been generated from an entry in the Cambridge 
# Structural Database, then it will include bibliographic, chemical, 
# crystal, experimental, refinement or atomic coordinate data resulting 
# from the CCDC's data processing and validation procedures.
#
#######################################################################

data_JEYWOA
_chemical_formula_moiety         'C28 H44 B2 N2 O2'
_chemical_name_systematic        
syn-2,4-Bis(4-methoxybenzylidene)-trans-1,3-dithexyldi-2,4-azadi-1,3-boracyclobutane
_symmetry_cell_setting           monoclinic
_symmetry_space_group_name_H-M   'P 21'
_symmetry_Int_Tables_number      4
_space_group_name_Hall           'P 2yb'
loop_
_symmetry_equiv_pos_site_id
_symmetry_equiv_pos_as_xyz
1 x,y,z
2 -x,1/2+y,-z
_cell_length_a                   8.801(5)
_cell_length_b                   11.141(4)
_cell_length_c                   14.568(7)
_cell_angle_alpha                90
_cell_angle_beta                 104.25(5)
_cell_angle_gamma                90
_cell_volume                     1384.47
_exptl_crystal_colour            yellow
_exptl_crystal_description       block
_chemical_melting_point          '378 K'
_cell_formula_units_Z            2
_exptl_crystal_recrystallization_method pentane
loop_
_atom_site_label
_atom_site_type_symbol
_atom_site_fract_x
_atom_site_fract_y
_atom_site_fract_z
N1 N 0.7246(2) 0.58089(19) 0.31185(15)
O1 O 0.5710(2) 0.68092(18) 0.71995(13)
B1 B 0.7124(4) 0.5591(3) 0.2023(2)
C1 C 0.5352(4) 0.5973(3) 0.7864(2)
H1 H 0.5192 0.6408 0.8417
H2 H 0.6223 0.5407 0.8064
H3 H 0.4395 0.5531 0.7564
O2 O 1.1012(2) 1.19588(16) 0.12099(13)
N2 N 0.8114(2) 0.67932(18) 0.20450(15)
C2 C 0.5979(3) 0.6359(3) 0.63783(18)
B2 B 0.8430(3) 0.6898(3) 0.3164(2)
C3 C 0.5956(3) 0.5146(3) 0.61506(19)
H4 H 0.5801 0.4555 0.6588
C4 C 0.6164(3) 0.4818(2) 0.52745(19)
H5 H 0.6117 0.3991 0.5109
C5 C 0.6442(3) 0.5659(2) 0.46236(18)
C6 C 0.6481(3) 0.6879(2) 0.48783(19)
H6 H 0.6665 0.7473 0.4450
C7 C 0.6255(3) 0.7220(2) 0.57467(19)
H7 H 0.6289 0.8046 0.5913
C8 C 0.6579(3) 0.5260(2) 0.36878(18)
H8 H 0.6119 0.4505 0.3478
C9 C 0.8454(3) 0.7370(2) 0.13665(18)
H9 H 0.8233 0.6972 0.0771
C10 C 0.9147(3) 0.8573(2) 0.13914(17)
C11 C 0.9014(3) 0.9439(2) 0.20568(19)
H10 H 0.8506 0.9246 0.2542
C12 C 0.9621(3) 1.0585(2) 0.20147(18)
H11 H 0.9514 1.1175 0.2466
C13 C 1.0381(3) 1.0867(2) 0.13168(18)
C14 C 1.0531(3) 0.9997(2) 0.06448(18)
H12 H 1.1060 1.0184 0.0168
C15 C 0.9902(3) 0.8873(2) 0.06860(18)
H13 H 0.9984 0.8289 0.0225
C16 C 1.0777(3) 1.2903(2) 0.1831(2)
H14 H 1.1288 1.3638 0.1689
H15 H 1.1231 1.2667 0.2490
H16 H 0.9651 1.3050 0.1739
C17 C 1.0244(3) 0.6512(2) 0.36967(17)
C18 C 1.0717(3) 0.5323(2) 0.3296(2)
H17 H 1.1798 0.5120 0.3624
H18 H 1.0642 0.5416 0.2617
H19 H 1.0013 0.4680 0.3393
C19 C 1.1384(3) 0.7473(3) 0.3492(2)
H20 H 1.2463 0.7246 0.3804
H21 H 1.1141 0.8251 0.3735
H22 H 1.1271 0.7530 0.2807
C20 C 1.0413(3) 0.6380(2) 0.47786(19)
H23 H 0.9521 0.5870 0.4861
C21 C 1.0302(3) 0.7575(3) 0.52779(19)
H24 H 1.0420 0.7432 0.5956
H25 H 0.9280 0.7945 0.5007
H26 H 1.1136 0.8114 0.5191
C22 C 1.1942(3) 0.5755(3) 0.5317(2)
H27 H 1.1961 0.5700 0.5991
H28 H 1.2847 0.6222 0.5240
H29 H 1.1989 0.4946 0.5060
C23 C 0.5388(3) 0.5510(3) 0.1317(2)
C24 C 0.4875(6) 0.4160(5) 0.1374(4)
H30 H 0.3826 0.4042 0.0959
H31 H 0.4860 0.3966 0.2028
H32 H 0.5622 0.3633 0.1170
C25 C 0.5323(7) 0.5788(6) 0.0283(4)
H33 H 0.4239 0.5722 -0.0094
H34 H 0.5983 0.5216 0.0047
H35 H 0.5706 0.6606 0.0232
C26 C 0.4142(6) 0.6260(4) 0.1648(3)
H36 H 0.4074 0.5932 0.2276
C27 C 0.2485(6) 0.6195(5) 0.0987(4)
H37 H 0.1772 0.6702 0.1239
H38 H 0.2113 0.5363 0.0945
H39 H 0.2514 0.6479 0.0355
C28 C 0.4642(17) 0.7592(11) 0.1803(10)
H40 H 0.3826 0.8044 0.2007
H41 H 0.4786 0.7930 0.1210
H42 H 0.5629 0.7646 0.2292
H56 H 0.784(3) 0.483(3) 0.189(2)
H57 H 0.805(3) 0.781(3) 0.3441(17)
C29? C 0.5388(3) 0.5510(3) 0.1317(2)
C30? C 0.4275(10) 0.4715(8) 0.1635(6)
H43? H 0.4095 0.5021 0.2230
H44? H 0.4713 0.3903 0.1735
H45? H 0.3280 0.4694 0.1152
C31? C 0.5640(12) 0.5080(9) 0.0332(6)
H46? H 0.4622 0.5018 -0.0128
H47? H 0.6154 0.4293 0.0408
H48? H 0.6300 0.5661 0.0105
C32? C 0.4664(9) 0.6789(7) 0.1040(5)
H49? H 0.5464 0.7254 0.0805
C33? C 0.3109(8) 0.6813(8) 0.0217(6)
H50? H 0.2750 0.7644 0.0094
H51? H 0.2296 0.6341 0.0405
H52? H 0.3318 0.6469 -0.0359
C34? C 0.439(3) 0.7487(19) 0.1902(17)
H53? H 0.3938 0.8275 0.1695
H54? H 0.5387 0.7591 0.2372
H55? H 0.3661 0.7036 0.2185
loop_
_geom_bond_atom_site_label_1
_geom_bond_atom_site_label_2
_geom_bond_site_symmetry_1
_geom_bond_site_symmetry_2
N1 B1 1_555 1_555
O1 C1 1_555 1_555
B1 N2 1_555 1_555
C1 H1 1_555 1_555
H2 C1 1_555 1_555
H3 C1 1_555 1_555
O2 C13 1_555 1_555
N2 B2 1_555 1_555
C2 O1 1_555 1_555
B2 N1 1_555 1_555
C3 C2 1_555 1_555
H4 C3 1_555 1_555
C4 C3 1_555 1_555
H5 C4 1_555 1_555
C5 C4 1_555 1_555
C6 C5 1_555 1_555
H6 C6 1_555 1_555
C7 C2 1_555 1_555
H7 C7 1_555 1_555
C8 N1 1_555 1_555
H8 C8 1_555 1_555
C9 N2 1_555 1_555
H9 C9 1_555 1_555
C10 C9 1_555 1_555
C11 C10 1_555 1_555
H10 C11 1_555 1_555
C12 C11 1_555 1_555
H11 C12 1_555 1_555
C13 C12 1_555 1_555
C14 C13 1_555 1_555
H12 C14 1_555 1_555
C15 C10 1_555 1_555
H13 C15 1_555 1_555
C16 O2 1_555 1_555
H14 C16 1_555 1_555
H15 C16 1_555 1_555
H16 C16 1_555 1_555
C17 B2 1_555 1_555
C18 C17 1_555 1_555
H17 C18 1_555 1_555
H18 C18 1_555 1_555
H19 C18 1_555 1_555
C19 C17 1_555 1_555
H20 C19 1_555 1_555
H21 C19 1_555 1_555
H22 C19 1_555 1_555
C20 C17 1_555 1_555
H23 C20 1_555 1_555
C21 C20 1_555 1_555
H24 C21 1_555 1_555
H25 C21 1_555 1_555
H26 C21 1_555 1_555
C22 C20 1_555 1_555
H27 C22 1_555 1_555
H28 C22 1_555 1_555
H29 C22 1_555 1_555
C23 B1 1_555 1_555
C24 C23 1_555 1_555
H30 C24 1_555 1_555
H31 C24 1_555 1_555
H32 C24 1_555 1_555
C25 C23 1_555 1_555
H33 C25 1_555 1_555
H34 C25 1_555 1_555
H35 C25 1_555 1_555
C26 C23 1_555 1_555
H36 C26 1_555 1_555
C27 C26 1_555 1_555
H37 C27 1_555 1_555
H38 C27 1_555 1_555
H39 C27 1_555 1_555
C28 C26 1_555 1_555
H40 C28 1_555 1_555
H41 C28 1_555 1_555
H42 C28 1_555 1_555
H56 B1 1_555 1_555
H57 B2 1_555 1_555
C5 C8 1_555 1_555
C6 C7 1_555 1_555
C14 C15 1_555 1_555

#END
