
#######################################################################
#
#                 Cambridge Crystallographic Data Centre
#                                CCDC 
#
#######################################################################
#
# If this CIF has been generated from an entry in the Cambridge 
# Structural Database, then it will include bibliographic, chemical, 
# crystal, experimental, refinement or atomic coordinate data resulting 
# from the CCDC's data processing and validation procedures.
#
#######################################################################

data_JEYZIZ
_chemical_formula_moiety         'C22 H12 Br1 F3 O5'
_chemical_name_systematic        
'3-(5-bromo-2-(trifluoromethyl)-1-benzofuran-3-yl)-6-methyl-2-oxo-2H-pyran-4-yl benzoate'
_symmetry_cell_setting           monoclinic
_symmetry_space_group_name_H-M   'P 21/n'
_symmetry_Int_Tables_number      14
_space_group_name_Hall           '-P 2yn'
loop_
_symmetry_equiv_pos_site_id
_symmetry_equiv_pos_as_xyz
1 x,y,z
2 1/2-x,1/2+y,1/2-z
3 -x,-y,-z
4 1/2+x,1/2-y,1/2+z
_cell_length_a                   7.2285(10)
_cell_length_b                   23.253(4)
_cell_length_c                   11.7568(17)
_cell_angle_alpha                90
_cell_angle_beta                 98.366(2)
_cell_angle_gamma                90
_cell_volume                     1955.11
_exptl_crystal_colour            colorless
_exptl_crystal_description       prism
_cell_formula_units_Z            4
loop_
_atom_site_label
_atom_site_type_symbol
_atom_site_fract_x
_atom_site_fract_y
_atom_site_fract_z
C1 C 0.2865(4) 0.00928(12) 0.7129(3)
C2 C 0.2591(3) 0.06206(12) 0.6593(2)
H1 H 0.2551 0.0966 0.7021
C3 C 0.2376(3) 0.06240(11) 0.5388(2)
C4 C 0.2401(4) 0.01059(11) 0.4801(2)
C5 C 0.2623(4) -0.04239(12) 0.5336(3)
H2 H 0.2604 -0.0771 0.4907
C6 C 0.2875(4) -0.04262(13) 0.6526(3)
H3 H 0.3055 -0.0779 0.6933
C7 C 0.1997(3) 0.07839(12) 0.3505(2)
C8 C 0.1785(4) 0.09753(13) 0.2289(3)
C9 C 0.2106(3) 0.10678(11) 0.4517(2)
C10 C 0.1867(3) 0.16902(11) 0.4712(2)
C11 C 0.0225(4) 0.19703(12) 0.4108(2)
C12 C 0.1196(4) 0.28416(12) 0.5138(2)
C13 C 0.0546(4) 0.34365(13) 0.5295(3)
H4 H -0.0546 0.3450 0.5566
H5 H 0.0295 0.3651 0.4560
H6 H 0.1459 0.3659 0.5850
C14 C 0.2714(4) 0.25919(12) 0.5709(3)
H7 H 0.3540 0.2800 0.6264
C15 C 0.3062(3) 0.20074(11) 0.5465(2)
C16 C 0.6299(4) 0.20095(13) 0.6221(2)
C17 C 0.7653(3) 0.17334(12) 0.7120(2)
C18 C 0.7369(4) 0.11945(14) 0.7575(3)
H8 H 0.6282 0.0978 0.7296
C19 C 0.8690(4) 0.09753(16) 0.8443(3)
H9 H 0.8521 0.0604 0.8750
C20 C 1.0241(4) 0.12946(17) 0.8857(3)
H10 H 1.1117 0.1147 0.9468
C21 C 1.0543(4) 0.18251(16) 0.8399(3)
H11 H 1.1633 0.2039 0.8681
C22 C 0.9252(4) 0.20445(14) 0.7525(3)
H12 H 0.9458 0.2409 0.7201
O1 O 0.2163(3) 0.01986(8) 0.36339(16)
O2 O -0.0981(3) 0.17548(9) 0.34186(18)
O3 O 0.0016(2) 0.25508(8) 0.43277(17)
O4 O 0.4586(2) 0.17285(8) 0.60796(17)
O5 O 0.6584(3) 0.24191(10) 0.5663(2)
F1 F 0.2927(3) 0.06853(8) 0.17012(15)
F2 F 0.0064(2) 0.09039(9) 0.17213(15)
F3 F 0.2204(3) 0.15326(8) 0.22179(15)
Br1 Br 0.33186(4) 0.006923(13) 0.87580(3)
loop_
_geom_bond_atom_site_label_1
_geom_bond_atom_site_label_2
_geom_bond_site_symmetry_1
_geom_bond_site_symmetry_2
C1 C2 1_555 1_555
C2 H1 1_555 1_555
C3 C2 1_555 1_555
C4 C3 1_555 1_555
C5 C4 1_555 1_555
H2 C5 1_555 1_555
C6 C1 1_555 1_555
H3 C6 1_555 1_555
C7 C8 1_555 1_555
C8 F1 1_555 1_555
C9 C3 1_555 1_555
C10 C9 1_555 1_555
C11 C10 1_555 1_555
C12 C13 1_555 1_555
C13 H4 1_555 1_555
H5 C13 1_555 1_555
H6 C13 1_555 1_555
C14 C12 1_555 1_555
H7 C14 1_555 1_555
C15 C10 1_555 1_555
C16 C17 1_555 1_555
C17 C18 1_555 1_555
C18 H8 1_555 1_555
C19 C18 1_555 1_555
H9 C19 1_555 1_555
C20 C19 1_555 1_555
H10 C20 1_555 1_555
C21 C20 1_555 1_555
H11 C21 1_555 1_555
C22 C17 1_555 1_555
H12 C22 1_555 1_555
O1 C4 1_555 1_555
O2 C11 1_555 1_555
O3 C11 1_555 1_555
O4 C15 1_555 1_555
O5 C16 1_555 1_555
F2 C8 1_555 1_555
F3 C8 1_555 1_555
Br1 C1 1_555 1_555
C5 C6 1_555 1_555
C7 C9 1_555 1_555
C7 O1 1_555 1_555
C12 O3 1_555 1_555
C14 C15 1_555 1_555
C16 O4 1_555 1_555
C21 C22 1_555 1_555

#END
