
#######################################################################
#
#                 Cambridge Crystallographic Data Centre
#                                CCDC 
#
#######################################################################
#
# If this CIF has been generated from an entry in the Cambridge 
# Structural Database, then it will include bibliographic, chemical, 
# crystal, experimental, refinement or atomic coordinate data resulting 
# from the CCDC's data processing and validation procedures.
#
#######################################################################

data_JEZCID
_chemical_formula_moiety         'C54 H75 N3 O1 P2'
_chemical_name_systematic        
1,3-bis[2,6-diisopropylphenyl]-2-[({1-[2,6-diisopropylphenyl]-5,5-dimethyl-2H-spiro[pyrrolidine-3,2'-tricyclo[3.3.1.1^3,7^]decan]-2-ylidene}methylidene)phosphanyl]-2,3-dihydro-1H-1,3,2-diazaphosphol-2-one
_symmetry_cell_setting           triclinic
_symmetry_space_group_name_H-M   'P -1'
_symmetry_Int_Tables_number      2
_space_group_name_Hall           '-P 1'
loop_
_symmetry_equiv_pos_site_id
_symmetry_equiv_pos_as_xyz
1 x,y,z
2 -x,-y,-z
_cell_length_a                   12.6222(4)
_cell_length_b                   13.0245(4)
_cell_length_c                   17.4868(6)
_cell_angle_alpha                78.837(3)
_cell_angle_beta                 72.543(3)
_cell_angle_gamma                63.109(3)
_cell_volume                     2440.17
_exptl_crystal_colour            pink
_exptl_crystal_description       block
_cell_formula_units_Z            2
loop_
_atom_site_label
_atom_site_type_symbol
_atom_site_fract_x
_atom_site_fract_y
_atom_site_fract_z
P1 P 0.32953(4) 0.63847(4) 0.83112(3)
P2 P 0.49412(4) 0.60019(4) 0.72880(3)
O1 O 0.46611(13) 0.61015(12) 0.65124(8)
N1 N 0.57163(13) 0.67309(12) 0.73832(9)
N2 N 0.60335(13) 0.47459(12) 0.75681(9)
N3 N 0.04355(13) 0.78013(12) 0.74279(8)
C1 C 0.12963(15) 0.67188(14) 0.76131(10)
C2 C 0.03160(15) 0.88499(14) 0.76724(10)
C3 C 0.55862(15) 0.78485(15) 0.69992(10)
C4 C 0.07493(16) 0.95814(15) 0.71026(11)
C5 C 0.68249(16) 0.59872(16) 0.76033(11)
H1 H 0.7372 0.6238 0.7670
C6 C 0.00536(17) 0.65074(15) 0.69282(11)
H2 H 0.0493 0.6428 0.6368
H3 H -0.0577 0.6234 0.7025
C7 C 0.09472(15) 0.57874(14) 0.74725(10)
C8 C -0.02609(17) 0.91442(16) 0.84760(11)
C9 C 0.69984(17) 0.48867(16) 0.77048(12)
H4 H 0.7680 0.4282 0.7849
C10 C 0.49187(16) 0.88165(15) 0.74602(11)
C11 C 0.03557(16) 0.52949(14) 0.82846(10)
H5 H -0.0304 0.5935 0.8596
C12 C 0.61680(16) 0.79346(16) 0.61833(11)
C13 C 0.22594(17) 0.65550(15) 0.78626(11)
C14 C -0.05289(16) 0.77713(15) 0.71196(11)
C15 C 0.60532(16) 0.36177(15) 0.76289(12)
C16 C 0.43000(17) 0.87295(15) 0.83461(11)
H6 H 0.4543 0.7909 0.8519
C17 C -0.01714(17) 0.45188(16) 0.81276(12)
H7 H -0.0545 0.4221 0.8635
H8 H -0.0799 0.4967 0.7834
C18 C 0.5388(2) 0.99927(17) 0.62736(12)
H9 H 0.5319 1.0714 0.6029
C19 C 0.04876(19) 1.06581(16) 0.73331(13)
H10 H 0.0747 1.1162 0.6959
C20 C 0.48282(18) 0.98889(16) 0.70762(12)
H11 H 0.4383 1.0544 0.7367
C21 C 0.64258(17) 0.30548(16) 0.69220(13)
C22 C 0.60513(19) 0.90266(18) 0.58304(11)
H12 H 0.6424 0.9107 0.5290
C23 C 0.57495(18) 0.31010(16) 0.83931(12)
C24 C -0.05839(18) 0.83220(17) 0.91439(11)
H13 H -0.0429 0.7635 0.8900
C25 C 0.69028(17) 0.68928(17) 0.56799(11)
H14 H 0.6920 0.6208 0.6037
C26 C 0.08465(19) 0.35167(16) 0.76422(12)
H15 H 0.0499 0.3043 0.7526
C27 C -0.0145(2) 1.09878(18) 0.81015(14)
H16 H -0.0337 1.1719 0.8237
C28 C -0.04956(19) 1.02281(18) 0.86729(13)
H17 H -0.0894 1.0444 0.9196
C29 C 0.29052(17) 0.93078(17) 0.84869(12)
H18 H 0.2639 1.0121 0.8349
H19 H 0.2539 0.9181 0.9042
H20 H 0.2662 0.8984 0.8157
C30 C 0.20151(18) 0.47378(16) 0.70263(11)
H21 H 0.2428 0.5014 0.6517
C31 C 0.15626(17) 0.92176(16) 0.62737(11)
H22 H 0.1587 0.8482 0.6194
C32 C -0.0747(2) 0.85818(18) 0.63716(13)
H23 H -0.1050 0.9363 0.6504
H24 H -0.1337 0.8506 0.6173
H25 H 0.0009 0.8388 0.5967
C33 C 0.13063(18) 0.45560(16) 0.87788(12)
H26 H 0.1652 0.5023 0.8894
H27 H 0.0911 0.4277 0.9286
C34 C 0.4712(2) 0.9242(2) 0.88589(12)
H28 H 0.5587 0.8861 0.8772
H29 H 0.4340 0.9136 0.9416
H30 H 0.4468 1.0051 0.8710
C35 C 0.17962(19) 0.27816(16) 0.81299(14)
H31 H 0.2446 0.2141 0.7827
H32 H 0.1415 0.2471 0.8628
C36 C 0.1471(2) 0.39819(17) 0.68511(12)
H33 H 0.0879 0.4437 0.6533
H34 H 0.2118 0.3343 0.6545
C37 C 0.5798(2) 0.19991(18) 0.84389(15)
H35 H 0.5594 0.1639 0.8938
C38 C 0.6834(2) 0.35712(19) 0.60960(13)
H36 H 0.6573 0.4393 0.6145
C39 C 0.23272(18) 0.35325(17) 0.83133(14)
H37 H 0.2928 0.3069 0.8633
C40 C -0.17597(17) 0.81059(17) 0.77442(13)
H38 H -0.1672 0.7553 0.8199
H39 H -0.2362 0.8116 0.7510
H40 H -0.2016 0.8858 0.7915
C41 C 0.29550(17) 0.39828(16) 0.75207(14)
H41 H 0.3597 0.3338 0.7218
H42 H 0.3326 0.4432 0.7629
C42 C -0.1927(2) 0.8833(2) 0.96117(14)
H43 H -0.2083 0.9467 0.9896
H44 H -0.2096 0.8251 0.9988
H45 H -0.2446 0.9101 0.9244
C43 C 0.5440(2) 0.36696(18) 0.91618(12)
H46 H 0.5333 0.4470 0.9013
C44 C 0.1098(2) 1.00882(19) 0.55920(12)
H47 H 0.0269 1.0228 0.5630
H48 H 0.1606 0.9784 0.5084
H49 H 0.1126 1.0799 0.5634
C45 C 0.8234(2) 0.6726(2) 0.53154(14)
H50 H 0.8248 0.7374 0.4948
H51 H 0.8680 0.6032 0.5034
H52 H 0.8605 0.6669 0.5736
C46 C 0.6455(2) 0.19490(17) 0.70097(15)
H53 H 0.6690 0.1555 0.6554
C47 C 0.28701(18) 0.9025(2) 0.62290(13)
H54 H 0.2866 0.9734 0.6313
H55 H 0.3384 0.8775 0.5710
H56 H 0.3179 0.8446 0.6637
C48 C 0.0251(2) 0.7942(2) 0.97246(13)
H57 H 0.1091 0.7652 0.9427
H58 H 0.0117 0.7348 1.0105
H59 H 0.0065 0.8591 1.0005
C49 C 0.6284(2) 0.6976(2) 0.50288(12)
H60 H 0.5461 0.7059 0.5272
H61 H 0.6733 0.6289 0.4741
H62 H 0.6267 0.7634 0.4664
C50 C 0.6145(2) 0.14368(17) 0.77508(16)
H63 H 0.6168 0.0705 0.7792
C51 C 0.4253(2) 0.3694(2) 0.97446(15)
H64 H 0.3592 0.4083 0.9481
H65 H 0.4077 0.4097 1.0204
H66 H 0.4343 0.2919 0.9914
C52 C 0.6515(2) 0.3059(2) 0.95653(15)
H67 H 0.6654 0.2266 0.9704
H68 H 0.6326 0.3430 1.0043
H69 H 0.7238 0.3099 0.9202
C53 C 0.6252(5) 0.3488(4) 0.5487(2)
H70 H 0.6463 0.2692 0.5440
H71 H 0.6543 0.3822 0.4975
H72 H 0.5378 0.3897 0.5657
C54 C 0.8222(3) 0.3026(5) 0.5818(3)
H73 H 0.8563 0.3137 0.6201
H74 H 0.8471 0.3381 0.5304
H75 H 0.8509 0.2215 0.5773
loop_
_geom_bond_atom_site_label_1
_geom_bond_atom_site_label_2
_geom_bond_site_symmetry_1
_geom_bond_site_symmetry_2
P1 P2 1_555 1_555
P2 O1 1_555 1_555
N1 P2 1_555 1_555
N2 P2 1_555 1_555
N3 C1 1_555 1_555
C1 C7 1_555 1_555
C2 N3 1_555 1_555
C3 N1 1_555 1_555
C4 C2 1_555 1_555
C5 N1 1_555 1_555
H1 C5 1_555 1_555
C6 H2 1_555 1_555
H3 C6 1_555 1_555
C7 C6 1_555 1_555
C8 C2 1_555 1_555
C9 N2 1_555 1_555
H4 C9 1_555 1_555
C10 C3 1_555 1_555
C11 C7 1_555 1_555
H5 C11 1_555 1_555
C12 C3 1_555 1_555
C13 P1 1_555 1_555
C14 N3 1_555 1_555
C15 N2 1_555 1_555
C16 C10 1_555 1_555
H6 C16 1_555 1_555
C17 C11 1_555 1_555
H7 C17 1_555 1_555
H8 C17 1_555 1_555
C18 H9 1_555 1_555
C19 C4 1_555 1_555
H10 C19 1_555 1_555
C20 C10 1_555 1_555
H11 C20 1_555 1_555
C21 C15 1_555 1_555
C22 C12 1_555 1_555
H12 C22 1_555 1_555
C23 C15 1_555 1_555
C24 C8 1_555 1_555
H13 C24 1_555 1_555
C25 C12 1_555 1_555
H14 C25 1_555 1_555
C26 C17 1_555 1_555
H15 C26 1_555 1_555
C27 C19 1_555 1_555
H16 C27 1_555 1_555
C28 C8 1_555 1_555
H17 C28 1_555 1_555
C29 C16 1_555 1_555
H18 C29 1_555 1_555
H19 C29 1_555 1_555
H20 C29 1_555 1_555
C30 C7 1_555 1_555
H21 C30 1_555 1_555
C31 C4 1_555 1_555
H22 C31 1_555 1_555
C32 C14 1_555 1_555
H23 C32 1_555 1_555
H24 C32 1_555 1_555
H25 C32 1_555 1_555
C33 C11 1_555 1_555
H26 C33 1_555 1_555
H27 C33 1_555 1_555
C34 C16 1_555 1_555
H28 C34 1_555 1_555
H29 C34 1_555 1_555
H30 C34 1_555 1_555
C35 C26 1_555 1_555
H31 C35 1_555 1_555
H32 C35 1_555 1_555
C36 C26 1_555 1_555
H33 C36 1_555 1_555
H34 C36 1_555 1_555
C37 C23 1_555 1_555
H35 C37 1_555 1_555
C38 C21 1_555 1_555
H36 C38 1_555 1_555
C39 C33 1_555 1_555
H37 C39 1_555 1_555
C40 C14 1_555 1_555
H38 C40 1_555 1_555
H39 C40 1_555 1_555
H40 C40 1_555 1_555
C41 C30 1_555 1_555
H41 C41 1_555 1_555
H42 C41 1_555 1_555
C42 C24 1_555 1_555
H43 C42 1_555 1_555
H44 C42 1_555 1_555
H45 C42 1_555 1_555
C43 C23 1_555 1_555
H46 C43 1_555 1_555
C44 C31 1_555 1_555
H47 C44 1_555 1_555
H48 C44 1_555 1_555
H49 C44 1_555 1_555
C45 C25 1_555 1_555
H50 C45 1_555 1_555
H51 C45 1_555 1_555
H52 C45 1_555 1_555
C46 C21 1_555 1_555
H53 C46 1_555 1_555
C47 C31 1_555 1_555
H54 C47 1_555 1_555
H55 C47 1_555 1_555
H56 C47 1_555 1_555
C48 C24 1_555 1_555
H57 C48 1_555 1_555
H58 C48 1_555 1_555
H59 C48 1_555 1_555
C49 C25 1_555 1_555
H60 C49 1_555 1_555
H61 C49 1_555 1_555
H62 C49 1_555 1_555
C50 C37 1_555 1_555
H63 C50 1_555 1_555
C51 C43 1_555 1_555
H64 C51 1_555 1_555
H65 C51 1_555 1_555
H66 C51 1_555 1_555
C52 C43 1_555 1_555
H67 C52 1_555 1_555
H68 C52 1_555 1_555
H69 C52 1_555 1_555
C53 C38 1_555 1_555
H70 C53 1_555 1_555
H71 C53 1_555 1_555
H72 C53 1_555 1_555
C54 C38 1_555 1_555
H73 C54 1_555 1_555
H74 C54 1_555 1_555
H75 C54 1_555 1_555
C1 C13 1_555 1_555
C5 C9 1_555 1_555
C6 C14 1_555 1_555
C18 C20 1_555 1_555
C18 C22 1_555 1_555
C27 C28 1_555 1_555
C30 C36 1_555 1_555
C35 C39 1_555 1_555
C39 C41 1_555 1_555
C46 C50 1_555 1_555

#END
