
#######################################################################
#
#                 Cambridge Crystallographic Data Centre
#                                CCDC 
#
#######################################################################
#
# If this CIF has been generated from an entry in the Cambridge 
# Structural Database, then it will include bibliographic, chemical, 
# crystal, experimental, refinement or atomic coordinate data resulting 
# from the CCDC's data processing and validation procedures.
#
#######################################################################

data_JIBLUE
_chemical_formula_moiety         'C32 H30 O2 S4'
_chemical_name_systematic        
1,1,4,4-tetrakis(4-(methylsulfanyl)phenyl)but-2-yne-1,4-diol
_symmetry_cell_setting           monoclinic
_symmetry_space_group_name_H-M   'C 2/c'
_symmetry_Int_Tables_number      15
_space_group_name_Hall           '-C 2yn'
loop_
_symmetry_equiv_pos_site_id
_symmetry_equiv_pos_as_xyz
1 x,y,z
2 -x,y,1/2-z
3 1/2+x,1/2+y,z
4 1/2-x,1/2+y,1/2-z
5 -x,-y,-z
6 x,-y,1/2+z
7 1/2-x,1/2-y,-z
8 1/2+x,1/2-y,1/2+z
_cell_length_a                   80.636(5)
_cell_length_b                   12.0346(7)
_cell_length_c                   23.7036(15)
_cell_angle_alpha                90
_cell_angle_beta                 95.299(4)
_cell_angle_gamma                90
_cell_volume                     22904.2
_exptl_crystal_colour            'light yellow'
_exptl_crystal_description       plate
_cell_formula_units_Z            32
_exptl_crystal_recrystallization_method fluorobenzene
loop_
_atom_site_label
_atom_site_type_symbol
_atom_site_fract_x
_atom_site_fract_y
_atom_site_fract_z
S1 S 0.48177(2) 0.84938(6) 0.58796(3)
S2 S 0.53718(2) 0.70430(6) 0.21059(3)
S3 S 0.64338(2) 1.02384(7) 0.41011(4)
S4 S 0.59703(2) 1.04899(8) 0.75400(3)
O1 O 0.54760(2) 1.14287(15) 0.51600(8)
H1 H 0.5392 1.1456 0.4925
O2 O 0.57763(2) 0.72509(16) 0.47166(8)
H2 H 0.5822 0.7425 0.5037
C1 C 0.56141(3) 1.0386(2) 0.59267(12)
C2 C 0.56599(3) 0.7898(2) 0.38041(11)
C3 C 0.54953(3) 1.0310(2) 0.53850(12)
C4 C 0.53238(3) 0.9874(2) 0.55069(11)
C5 C 0.55193(3) 0.8432(2) 0.29001(12)
H3 H 0.5482 0.9000 0.2641
C6 C 0.56481(3) 0.9016(2) 0.46765(11)
C7 C 0.56044(3) 0.8715(2) 0.34145(12)
H4 H 0.5625 0.9475 0.3503
C8 C 0.55733(3) 0.9602(2) 0.49717(12)
C9 C 0.54883(3) 0.7317(2) 0.27592(12)
C10 C 0.57511(3) 0.8227(2) 0.43758(12)
C11 C 0.59220(2) 0.87548(16) 0.43020(10)
C12 C 0.59370(2) 0.99023(15) 0.42636(12)
H5 H 0.5842 1.0362 0.4282
C13 C 0.60912(2) 1.03772(12) 0.41977(12)
H6 H 0.6101 1.1161 0.4171
C14 C 0.62303(2) 0.97046(15) 0.41702(10)
C15 C 0.62153(2) 0.85571(15) 0.42086(10)
H7 H 0.6310 0.8097 0.4190
C16 C 0.60612(2) 0.80822(12) 0.42745(10)
H8 H 0.6051 0.7298 0.4301
C17 C 0.50897(3) 0.8634(2) 0.53081(12)
H9 H 0.5038 0.8043 0.5091
C18 C 0.50071(3) 0.9126(2) 0.57293(12)
C19 C 0.56336(3) 1.1371(2) 0.62315(12)
H10 H 0.5573 1.2012 0.6099
C20 C 0.56310(3) 0.6792(2) 0.36609(12)
H11 H 0.5669 0.6225 0.3920
C21 C 0.52474(3) 0.8997(2) 0.52005(12)
H12 H 0.5304 0.8643 0.4915
C22 C 0.57036(3) 0.9455(2) 0.61288(12)
H13 H 0.5691 0.8771 0.5929
C23 C 0.55470(3) 0.6506(2) 0.31418(13)
H14 H 0.5530 0.5744 0.3049
C24 C 0.52393(3) 1.0379(2) 0.59242(12)
H15 H 0.5289 1.0985 0.6134
C25 C 0.58107(3) 0.9518(3) 0.66168(13)
H16 H 0.5871 0.8877 0.6747
C26 C 0.50821(3) 1.0005(2) 0.60376(13)
H17 H 0.5026 1.0350 0.6326
C27 C 0.57396(3) 1.1435(2) 0.67259(12)
H18 H 0.5750 1.2112 0.6932
C28 C 0.58315(3) 1.0506(3) 0.69216(12)
C29 C 0.47244(3) 0.9502(3) 0.63093(15)
H19 H 0.4719 1.0221 0.6115
H20 H 0.4792 0.9575 0.6674
H21 H 0.4612 0.9261 0.6375
C30 C 0.53568(4) 0.5555(3) 0.20915(14)
H22 H 0.5296 0.5319 0.1735
H23 H 0.5298 0.5301 0.2411
H24 H 0.5469 0.5233 0.2121
C31 C 0.63986(4) 1.1708(3) 0.39975(17)
H25 H 0.6328 1.1828 0.3644
H26 H 0.6506 1.2085 0.3977
H27 H 0.6343 1.2008 0.4316
C32 C 0.59913(4) 1.1923(3) 0.77295(15)
H28 H 0.6023 1.2349 0.7404
H29 H 0.6077 1.2004 0.8047
H30 H 0.5885 1.2202 0.7841
S6 S 0.23210(2) 0.67293(7) 0.61817(4)
S7 S 0.39022(2) 0.77987(9) 0.38845(4)
S8 S 0.34675(2) 0.77225(8) 0.76732(4)
S9 S 0.28432(2) 0.42023(8) 0.21981(4)
O3 O 0.29999(2) 0.88278(15) 0.52239(9)
H38 H 0.3088 0.8981 0.5075
O4 O 0.32866(2) 0.46375(16) 0.47005(9)
H39 H 0.3200 0.4339 0.4798
C40 C 0.30124(3) 0.7729(2) 0.54587(12)
C41 C 0.30782(3) 0.6954(2) 0.50506(12)
C42 C 0.31474(3) 0.6376(2) 0.47387(12)
C43 C 0.31309(3) 0.7717(2) 0.60045(12)
C44 C 0.32438(3) 0.5643(2) 0.43883(12)
C45 C 0.31410(3) 0.5335(2) 0.38330(12)
C46 C 0.34104(3) 0.6201(2) 0.42848(12)
C47 C 0.28355(2) 0.74349(17) 0.56168(9)
C48 C 0.27437(2) 0.65653(17) 0.53595(9)
H40 H 0.2789 0.6132 0.5076
C49 C 0.25857(2) 0.63290(16) 0.55177(10)
H41 H 0.2523 0.5735 0.5342
C50 C 0.25196(2) 0.69624(17) 0.59331(9)
C51 C 0.26114(2) 0.78320(17) 0.61904(9)
H42 H 0.2566 0.8265 0.6474
C52 C 0.27694(2) 0.80683(15) 0.60323(9)
H43 H 0.2832 0.8663 0.6208
C53 C 0.32013(3) 0.6733(2) 0.62151(13)
H44 H 0.3179 0.6065 0.6008
C54 C 0.31648(4) 0.8687(3) 0.63226(14)
H45 H 0.3118 0.9374 0.6190
C55 C 0.32662(4) 0.8650(3) 0.68318(14)
H46 H 0.3287 0.9314 0.7044
C56 C 0.30091(4) 0.5967(2) 0.36125(13)
H47 H 0.2981 0.6627 0.3803
C57 C 0.29562(4) 0.4719(3) 0.28194(13)
C58 C 0.30924(4) 0.4090(3) 0.30312(14)
H48 H 0.3124 0.3453 0.2830
C59 C 0.31827(4) 0.4385(3) 0.35342(14)
H49 H 0.3274 0.3938 0.3679
C60 C 0.33036(4) 0.6694(3) 0.67216(13)
H50 H 0.3351 0.6008 0.6854
C61 C 0.37153(3) 0.7204(3) 0.40793(13)
C62 C 0.33372(4) 0.7664(3) 0.70339(14)
C63 C 0.35204(4) 0.5687(3) 0.39445(14)
H51 H 0.3492 0.4982 0.3782
C64 C 0.36102(4) 0.7711(3) 0.44231(15)
H52 H 0.3640 0.8405 0.4595
C65 C 0.34587(4) 0.7209(3) 0.45219(15)
H53 H 0.3387 0.7575 0.4759
C66 C 0.29147(4) 0.5659(3) 0.31137(14)
H54 H 0.2822 0.6096 0.2975
C67 C 0.36691(4) 0.6180(3) 0.38385(13)
H55 H 0.3741 0.5819 0.3599
C68 C 0.39502(4) 0.8872(3) 0.43888(16)
H56 H 0.4053 0.9248 0.4304
H57 H 0.3966 0.8551 0.4770
H58 H 0.3859 0.9410 0.4370
C69 C 0.22632(4) 0.5398(3) 0.58996(19)
H59 H 0.2242 0.5450 0.5487
H60 H 0.2162 0.5144 0.6060
H61 H 0.2354 0.4868 0.5997
C70 C 0.35560(4) 0.6350(3) 0.77363(16)
H62 H 0.3611 0.6177 0.7396
H63 H 0.3467 0.5806 0.7778
H64 H 0.3637 0.6318 0.8070
C71 C 0.26595(6) 0.5042(4) 0.2137(2)
H65 H 0.2580 0.4741 0.1839
H66 H 0.2689 0.5805 0.2040
H67 H 0.2609 0.5042 0.2498
S11 S 0.46312(2) 0.84387(7) 0.79503(4)
S12 S 0.51837(2) 0.59511(7) 0.38307(5)
S13 S 0.39992(2) 0.45345(8) 0.27023(5)
O5 O 0.45405(2) 0.35586(15) 0.49491(9)
H75 H 0.4448 0.3349 0.5044
O6 O 0.42424(2) 0.77673(16) 0.53659(9)
H76 H 0.4327 0.7994 0.5220
C79 C 0.43846(2) 0.36482(15) 0.38406(9)
H77 H 0.4452 0.3020 0.3942
C80 C 0.44025(2) 0.46152(18) 0.41611(7)
C81 C 0.43035(3) 0.55345(15) 0.40127(8)
H78 H 0.4316 0.6195 0.4232
C82 C 0.41867(2) 0.54867(16) 0.35438(9)
H79 H 0.4119 0.6115 0.3442
C83 C 0.41689(2) 0.45196(18) 0.32233(7)
C84 C 0.42678(2) 0.36004(15) 0.33717(8)
H80 H 0.4256 0.2939 0.3153
C85 C 0.46948(3) 0.5016(2) 0.45361(12)
C86 C 0.43779(3) 0.7174(2) 0.62702(12)
C87 C 0.47306(3) 0.6130(2) 0.44568(12)
H81 H 0.4653 0.6682 0.4549
C88 C 0.45247(3) 0.4648(2) 0.47083(12)
C89 C 0.48782(3) 0.6448(2) 0.42438(12)
H82 H 0.4900 0.7213 0.4186
C90 C 0.43082(3) 0.8006(2) 0.65895(12)
H83 H 0.4205 0.8332 0.6452
C91 C 0.42848(3) 0.6815(2) 0.57107(12)
C92 C 0.44585(3) 0.5425(2) 0.51098(12)
C93 C 0.43855(3) 0.6040(2) 0.53961(12)
C94 C 0.45275(3) 0.6703(2) 0.64862(12)
H84 H 0.4576 0.6133 0.6278
C95 C 0.46070(4) 0.7048(2) 0.69988(13)
H85 H 0.4709 0.6712 0.7140
C96 C 0.43871(4) 0.8360(2) 0.70995(13)
H86 H 0.4338 0.8927 0.7308
C97 C 0.45377(4) 0.7888(2) 0.73089(13)
C98 C 0.49939(3) 0.5654(3) 0.41145(14)
C99 C 0.49599(4) 0.4537(3) 0.42072(16)
H87 H 0.5039 0.3987 0.4129
C100 C 0.48114(4) 0.4223(2) 0.44128(15)
H88 H 0.4789 0.3458 0.4470
C101 C 0.39830(4) 0.3132(3) 0.24509(16)
H89 H 0.3899 0.3091 0.2126
H90 H 0.3951 0.2647 0.2754
H91 H 0.4091 0.2892 0.2334
C102 C 0.51747(5) 0.7403(3) 0.37294(19)
H92 H 0.5082 0.7586 0.3448
H93 H 0.5279 0.7662 0.3594
H94 H 0.5158 0.7769 0.4089
C103 C 0.48013(7) 0.7527(4) 0.8116(2)
H95 H 0.4881 0.7603 0.7831
H96 H 0.4761 0.6759 0.8119
H97 H 0.4856 0.7714 0.8491
S14 S 0.36639(2) 0.43094(13) 0.63073(7)
C104 C 0.41233(5) 0.6186(6) 0.5841(3)
C105 C 0.41304(5) 0.5433(6) 0.6287(3)
H98 H 0.4232 0.5319 0.6515
C106 C 0.39886(6) 0.4849(4) 0.6401(2)
H99 H 0.3993 0.4334 0.6706
C107 C 0.38396(4) 0.5017(3) 0.6068(2)
C108 C 0.38325(4) 0.5770(4) 0.56212(19)
H100 H 0.3731 0.5885 0.5394
C109 C 0.39743(6) 0.6354(5) 0.5508(2)
H101 H 0.3969 0.6869 0.5203
C110 C 0.35005(7) 0.4625(6) 0.5776(3)
H102 H 0.3534 0.4411 0.5404
H103 H 0.3477 0.5425 0.5779
H104 H 0.3400 0.4214 0.5852
S17 S 0.28657(2) -0.03732(9) 0.21195(4)
S18 S 0.39416(2) 0.26408(8) 0.40711(4)
S19 S 0.23269(2) 0.09773(9) 0.59521(4)
S20 S 0.33928(2) 0.30367(10) 0.76642(4)
O7 O 0.32910(2) -0.03707(15) 0.47053(8)
H119 H 0.3357 -0.0232 0.4991
O8 O 0.29866(2) 0.38327(16) 0.51158(10)
H120 H 0.2903 0.3873 0.4876
C125 C 0.28236(3) 0.2316(2) 0.54691(12)
C126 C 0.31543(3) 0.1382(2) 0.46863(11)
C127 C 0.34272(3) 0.1191(2) 0.42943(12)
C128 C 0.31697(2) 0.03090(16) 0.38009(6)
C129 C 0.31464(2) -0.07892(14) 0.36300(8)
H121 H 0.3192 -0.1375 0.3864
C130 C 0.30560(3) -0.10310(12) 0.31167(8)
H122 H 0.3040 -0.1782 0.3000
C131 C 0.29890(2) -0.01745(16) 0.27743(7)
C132 C 0.30124(3) 0.09237(14) 0.29451(8)
H123 H 0.2967 0.1509 0.2711
C133 C 0.31028(3) 0.11654(12) 0.34584(8)
H124 H 0.3119 0.1916 0.3575
C134 C 0.32605(3) 0.0630(2) 0.43766(11)
C135 C 0.29976(3) 0.2728(2) 0.53538(12)
C136 C 0.30772(3) 0.1971(2) 0.49657(12)
C137 C 0.31051(3) 0.2801(2) 0.59197(13)
C138 C 0.27906(3) 0.1186(2) 0.54874(14)
H125 H 0.2873 0.0667 0.5397
C139 C 0.25153(3) 0.1555(3) 0.57598(13)
C140 C 0.26382(4) 0.0808(3) 0.56366(14)
H126 H 0.2618 0.0032 0.5655
C141 C 0.32143(4) 0.1952(3) 0.61020(14)
H127 H 0.3228 0.1335 0.5861
C142 C 0.25481(4) 0.2678(3) 0.57368(14)
H128 H 0.2465 0.3197 0.5823
C143 C 0.30862(4) 0.3706(3) 0.62804(15)
H129 H 0.3012 0.4290 0.6164
C144 C 0.27007(4) 0.3057(3) 0.55891(14)
H130 H 0.2721 0.3833 0.5570
C145 C 0.37399(3) 0.2127(3) 0.41631(14)
C146 C 0.34743(4) 0.2190(3) 0.45364(15)
H131 H 0.3399 0.2571 0.4756
C147 C 0.35398(4) 0.0663(3) 0.39611(14)
H132 H 0.3510 -0.0022 0.3780
C148 C 0.33040(4) 0.1992(3) 0.66296(16)
H133 H 0.3378 0.1406 0.6746
C149 C 0.36296(4) 0.2665(3) 0.44698(16)
H134 H 0.3658 0.3363 0.4638
C150 C 0.36926(4) 0.1128(3) 0.38944(15)
H135 H 0.3766 0.0768 0.3664
C151 C 0.31759(4) 0.3746(3) 0.68037(16)
H136 H 0.3163 0.4367 0.7043
C152 C 0.28190(6) -0.1817(3) 0.21147(16)
H137 H 0.2744 -0.1994 0.1779
H138 H 0.2765 -0.2008 0.2456
H139 H 0.2922 -0.2244 0.2106
C153 C 0.32853(4) 0.2893(3) 0.69906(16)
C154 C 0.39503(4) 0.3927(3) 0.44305(19)
H140 H 0.3865 0.4425 0.4252
H141 H 0.4060 0.4262 0.4411
H142 H 0.3931 0.3808 0.4828
C155 C 0.22256(5) 0.2115(4) 0.6234(2)
H143 H 0.2199 0.2667 0.5936
H144 H 0.2299 0.2450 0.6541
H145 H 0.2123 0.1861 0.6383
C156 C 0.35093(7) 0.1762(5) 0.7742(2)
H146 H 0.3590 0.1735 0.7459
H147 H 0.3433 0.1129 0.7687
H148 H 0.3568 0.1727 0.8123
S5? S 0.64173(12) 1.0233(10) 0.3827(6)
C33? C 0.59213(12) 0.8743(15) 0.4237(4)
C34? C 0.5953(2) 0.9865(16) 0.4337(14)
H31? H 0.5872 1.0316 0.4493
C35? C 0.6102(3) 1.0328(15) 0.4208(18)
H32? H 0.6124 1.1095 0.4276
C36? C 0.6221(2) 0.9669(17) 0.3979(15)
C37? C 0.6190(2) 0.8547(16) 0.3880(14)
H33? H 0.6271 0.8096 0.3723
C38? C 0.6040(2) 0.8084(14) 0.4009(11)
H34? H 0.6018 0.7317 0.3940
C39? C 0.6435(5) 1.150(3) 0.423(2)
H35? H 0.6540 1.1867 0.4169
H36? H 0.6341 1.1991 0.4104
H37? H 0.6432 1.1330 0.4632
C72? C 0.28376(11) 0.7300(12) 0.5537(7)
C73? C 0.2764(2) 0.650(2) 0.5171(10)
H68? H 0.2823 0.6215 0.4874
C74? C 0.2604(2) 0.613(2) 0.5238(11)
H69? H 0.2554 0.5581 0.4987
C75? C 0.25177(16) 0.6547(18) 0.5671(10)
C76? C 0.2591(2) 0.734(2) 0.6038(11)
H70? H 0.2532 0.7631 0.6335
C77? C 0.2751(2) 0.772(2) 0.5971(10)
H71? H 0.2801 0.8265 0.6222
S10? S 0.23220(11) 0.5936(9) 0.5792(5)
C78? C 0.2245(5) 0.690(3) 0.628(2)
H72? H 0.2232 0.7629 0.6101
H73? H 0.2324 0.6944 0.6619
H74? H 0.2137 0.6639 0.6385
S15? S 0.36184(3) 0.4515(2) 0.58028(12)
C111? C 0.41177(7) 0.6256(10) 0.5743(4)
C112? C 0.40905(8) 0.5615(9) 0.6213(4)
H105? H 0.4175 0.5545 0.6517
C113? C 0.39391(9) 0.5074(7) 0.6239(3)
H106? H 0.3920 0.4635 0.6561
C114? C 0.38148(6) 0.5175(6) 0.5795(3)
C115? C 0.38421(7) 0.5817(6) 0.5325(3)
H107? H 0.3757 0.5886 0.5021
C116? C 0.39935(9) 0.6358(7) 0.5299(3)
H108? H 0.4012 0.6796 0.4978
C117? C 0.36215(15) 0.3930(11) 0.6488(5)
H109? H 0.3515 0.3564 0.6529
H110? H 0.3640 0.4519 0.6772
H111? H 0.3712 0.3384 0.6541
C118? C 0.4324(3) 0.5518(17) 0.3962(8)
H112? H 0.4323 0.6181 0.4179
C119? C 0.44199(14) 0.4620(15) 0.4165(4)
C120? C 0.4422(3) 0.3649(16) 0.3848(8)
H113? H 0.4487 0.3035 0.3986
C121? C 0.4327(4) 0.3577(18) 0.3328(9)
H114? H 0.4329 0.2913 0.3111
C122? C 0.4231(3) 0.4475(19) 0.3125(7)
C123? C 0.4230(4) 0.5446(19) 0.3442(9)
H115? H 0.4164 0.6060 0.3304
S16? S 0.40935(17) 0.4375(11) 0.2383(5)
C124? C 0.4167(5) 0.323(3) 0.1995(14)
H116? H 0.4100 0.3172 0.1629
H117? H 0.4156 0.2544 0.2211
H118? H 0.4284 0.3351 0.1934
C157? C 0.31615(16) 0.0290(14) 0.3810(4)
C158? C 0.3201(3) -0.0722(17) 0.3572(8)
H149? H 0.3286 -0.1175 0.3755
C159? C 0.3115(3) -0.1072(18) 0.3068(9)
H150? H 0.3142 -0.1764 0.2906
C160? C 0.2990(3) -0.0410(18) 0.2801(6)
C161? C 0.2951(3) 0.0601(18) 0.3038(8)
H151? H 0.2865 0.1054 0.2856
C162? C 0.3037(3) 0.0951(16) 0.3543(7)
H152? H 0.3010 0.1643 0.3705
S21? S 0.29005(19) -0.0842(12) 0.2121(5)
C163? C 0.2817(9) -0.215(3) 0.2221(19)
H153? H 0.2790 -0.2509 0.1852
H154? H 0.2716 -0.2082 0.2418
H155? H 0.2899 -0.2608 0.2448
loop_
_geom_bond_atom_site_label_1
_geom_bond_atom_site_label_2
_geom_bond_site_symmetry_1
_geom_bond_site_symmetry_2
S1 C18 1_555 1_555
S2 C9 1_555 1_555
S3 C14 1_555 1_555
S4 C28 1_555 1_555
O1 H1 1_555 1_555
O2 H2 1_555 1_555
C1 C3 1_555 1_555
C2 C7 1_555 1_555
C3 O1 1_555 1_555
C4 C3 1_555 1_555
C5 H3 1_555 1_555
C6 C8 1_555 1_555
C7 C5 1_555 1_555
H4 C7 1_555 1_555
C8 C3 1_555 1_555
C9 C5 1_555 1_555
C10 O2 1_555 1_555
C11 C10 1_555 1_555
C12 C11 1_555 1_555
H5 C12 1_555 1_555
C13 C12 1_555 1_555
H6 C13 1_555 1_555
C14 C13 1_555 1_555
C15 C14 1_555 1_555
H7 C15 1_555 1_555
C16 C11 1_555 1_555
H8 C16 1_555 1_555
C17 H9 1_555 1_555
C18 C17 1_555 1_555
C19 C1 1_555 1_555
H10 C19 1_555 1_555
C20 C2 1_555 1_555
H11 C20 1_555 1_555
C21 C4 1_555 1_555
H12 C21 1_555 1_555
C22 C1 1_555 1_555
H13 C22 1_555 1_555
C23 C9 1_555 1_555
H14 C23 1_555 1_555
C24 C4 1_555 1_555
H15 C24 1_555 1_555
C25 C22 1_555 1_555
H16 C25 1_555 1_555
C26 C18 1_555 1_555
H17 C26 1_555 1_555
C27 C19 1_555 1_555
H18 C27 1_555 1_555
C28 C25 1_555 1_555
C29 S1 1_555 1_555
H19 C29 1_555 1_555
H20 C29 1_555 1_555
H21 C29 1_555 1_555
C30 S2 1_555 1_555
H22 C30 1_555 1_555
H23 C30 1_555 1_555
H24 C30 1_555 1_555
C31 S3 1_555 1_555
H25 C31 1_555 1_555
H26 C31 1_555 1_555
H27 C31 1_555 1_555
C32 S4 1_555 1_555
H28 C32 1_555 1_555
H29 C32 1_555 1_555
H30 C32 1_555 1_555
S6 C50 1_555 1_555
S7 C61 1_555 1_555
S8 C62 1_555 1_555
S9 C57 1_555 1_555
O3 H38 1_555 1_555
O4 H39 1_555 1_555
C40 O3 1_555 1_555
C41 C40 1_555 1_555
C42 C41 1_555 1_555
C43 C40 1_555 1_555
C44 O4 1_555 1_555
C45 C44 1_555 1_555
C46 C44 1_555 1_555
C47 C40 1_555 1_555
C48 C47 1_555 1_555
H40 C48 1_555 1_555
C49 C48 1_555 1_555
H41 C49 1_555 1_555
C50 C49 1_555 1_555
C51 C50 1_555 1_555
H42 C51 1_555 1_555
C52 C47 1_555 1_555
H43 C52 1_555 1_555
C53 C43 1_555 1_555
H44 C53 1_555 1_555
C54 C43 1_555 1_555
H45 C54 1_555 1_555
C55 C54 1_555 1_555
H46 C55 1_555 1_555
C56 C45 1_555 1_555
H47 C56 1_555 1_555
C57 C58 1_555 1_555
C58 H48 1_555 1_555
C59 C45 1_555 1_555
H49 C59 1_555 1_555
C60 C53 1_555 1_555
H50 C60 1_555 1_555
C61 C64 1_555 1_555
C62 C55 1_555 1_555
C63 C46 1_555 1_555
H51 C63 1_555 1_555
C64 H52 1_555 1_555
C65 C46 1_555 1_555
H53 C65 1_555 1_555
C66 C56 1_555 1_555
H54 C66 1_555 1_555
C67 C61 1_555 1_555
H55 C67 1_555 1_555
C68 S7 1_555 1_555
H56 C68 1_555 1_555
H57 C68 1_555 1_555
H58 C68 1_555 1_555
C69 S6 1_555 1_555
H59 C69 1_555 1_555
H60 C69 1_555 1_555
H61 C69 1_555 1_555
C70 S8 1_555 1_555
H62 C70 1_555 1_555
H63 C70 1_555 1_555
H64 C70 1_555 1_555
C71 S9 1_555 1_555
H65 C71 1_555 1_555
H66 C71 1_555 1_555
H67 C71 1_555 1_555
S11 C97 1_555 1_555
S12 C98 1_555 1_555
S13 C83 1_555 1_555
O5 H75 1_555 1_555
O6 H76 1_555 1_555
C79 H77 1_555 1_555
C80 C79 1_555 1_555
C81 C80 1_555 1_555
H78 C81 1_555 1_555
C82 C81 1_555 1_555
H79 C82 1_555 1_555
C83 C82 1_555 1_555
C84 C79 1_555 1_555
H80 C84 1_555 1_555
C85 C87 1_555 1_555
C86 C90 1_555 1_555
C87 H81 1_555 1_555
C88 O5 1_555 1_555
C89 C87 1_555 1_555
H82 C89 1_555 1_555
C90 H83 1_555 1_555
C91 O6 1_555 1_555
C92 C88 1_555 1_555
C93 C91 1_555 1_555
C94 C86 1_555 1_555
H84 C94 1_555 1_555
C95 C94 1_555 1_555
H85 C95 1_555 1_555
C96 C90 1_555 1_555
H86 C96 1_555 1_555
C97 C95 1_555 1_555
C98 C89 1_555 1_555
C99 C98 1_555 1_555
H87 C99 1_555 1_555
C100 C85 1_555 1_555
H88 C100 1_555 1_555
C101 S13 1_555 1_555
H89 C101 1_555 1_555
H90 C101 1_555 1_555
H91 C101 1_555 1_555
C102 S12 1_555 1_555
H92 C102 1_555 1_555
H93 C102 1_555 1_555
H94 C102 1_555 1_555
C103 S11 1_555 1_555
H95 C103 1_555 1_555
H96 C103 1_555 1_555
H97 C103 1_555 1_555
S14 C107 1_555 1_555
C104 C91 1_555 1_555
C105 C104 1_555 1_555
H98 C105 1_555 1_555
C106 C105 1_555 1_555
H99 C106 1_555 1_555
C107 C106 1_555 1_555
C108 C107 1_555 1_555
H100 C108 1_555 1_555
C109 C104 1_555 1_555
H101 C109 1_555 1_555
C110 S14 1_555 1_555
H102 C110 1_555 1_555
H103 C110 1_555 1_555
H104 C110 1_555 1_555
S17 C131 1_555 1_555
S18 C145 1_555 1_555
S19 C139 1_555 1_555
S20 C153 1_555 1_555
O7 H119 1_555 1_555
O8 H120 1_555 1_555
C125 C135 1_555 1_555
C126 C134 1_555 1_555
C127 C134 1_555 1_555
C128 C129 1_555 1_555
C129 H121 1_555 1_555
C130 C129 1_555 1_555
H122 C130 1_555 1_555
C131 C130 1_555 1_555
C132 C131 1_555 1_555
H123 C132 1_555 1_555
C133 C128 1_555 1_555
H124 C133 1_555 1_555
C134 O7 1_555 1_555
C135 O8 1_555 1_555
C136 C126 1_555 1_555
C137 C135 1_555 1_555
C138 C125 1_555 1_555
H125 C138 1_555 1_555
C139 C140 1_555 1_555
C140 C138 1_555 1_555
H126 C140 1_555 1_555
C141 C137 1_555 1_555
H127 C141 1_555 1_555
C142 C139 1_555 1_555
H128 C142 1_555 1_555
C143 C137 1_555 1_555
H129 C143 1_555 1_555
C144 C125 1_555 1_555
H130 C144 1_555 1_555
C145 C149 1_555 1_555
C146 C127 1_555 1_555
H131 C146 1_555 1_555
C147 C127 1_555 1_555
H132 C147 1_555 1_555
C148 C141 1_555 1_555
H133 C148 1_555 1_555
C149 C146 1_555 1_555
H134 C149 1_555 1_555
C150 C145 1_555 1_555
H135 C150 1_555 1_555
C151 C143 1_555 1_555
H136 C151 1_555 1_555
C152 S17 1_555 1_555
H137 C152 1_555 1_555
H138 C152 1_555 1_555
H139 C152 1_555 1_555
C153 C148 1_555 1_555
C154 S18 1_555 1_555
H140 C154 1_555 1_555
H141 C154 1_555 1_555
H142 C154 1_555 1_555
C155 S19 1_555 1_555
H143 C155 1_555 1_555
H144 C155 1_555 1_555
H145 C155 1_555 1_555
C156 S20 1_555 1_555
H146 C156 1_555 1_555
H147 C156 1_555 1_555
H148 C156 1_555 1_555
C2 C10 1_555 1_555
C6 C10 1_555 1_555
C15 C16 1_555 1_555
C17 C21 1_555 1_555
C20 C23 1_555 1_555
C24 C26 1_555 1_555
C27 C28 1_555 1_555
C42 C44 1_555 1_555
C51 C52 1_555 1_555
C57 C66 1_555 1_555
C58 C59 1_555 1_555
C60 C62 1_555 1_555
C63 C67 1_555 1_555
C64 C65 1_555 1_555
C80 C88 1_555 1_555
C83 C84 1_555 1_555
C85 C88 1_555 1_555
C86 C91 1_555 1_555
C92 C93 1_555 1_555
C96 C97 1_555 1_555
C99 C100 1_555 1_555
C108 C109 1_555 1_555
C128 C134 1_555 1_555
C132 C133 1_555 1_555
C135 C136 1_555 1_555
C142 C144 1_555 1_555
C147 C150 1_555 1_555
C151 C153 1_555 1_555

#END
