
#######################################################################
#
#                 Cambridge Crystallographic Data Centre
#                                CCDC 
#
#######################################################################
#
# If this CIF has been generated from an entry in the Cambridge 
# Structural Database, then it will include bibliographic, chemical, 
# crystal, experimental, refinement or atomic coordinate data resulting 
# from the CCDC's data processing and validation procedures.
#
#######################################################################

data_JIBMAL
_chemical_formula_moiety         'C28 H18 F4 O2'
_chemical_name_systematic        
1,1,4,4-tetrakis(4-fluorophenyl)but-2-yne-1,4-diol
_symmetry_cell_setting           triclinic
_symmetry_space_group_name_H-M   'P -1'
_symmetry_Int_Tables_number      2
_space_group_name_Hall           '-P 1'
loop_
_symmetry_equiv_pos_site_id
_symmetry_equiv_pos_as_xyz
1 x,y,z
2 -x,-y,-z
_cell_length_a                   5.91660(10)
_cell_length_b                   12.3345(3)
_cell_length_c                   15.0362(4)
_cell_angle_alpha                77.255(2)
_cell_angle_beta                 88.630(2)
_cell_angle_gamma                84.084(2)
_cell_volume                     1064.58
_exptl_crystal_colour            colorless
_exptl_crystal_description       plate
_cell_formula_units_Z            2
_exptl_crystal_recrystallization_method dichloromethane
loop_
_atom_site_label
_atom_site_type_symbol
_atom_site_fract_x
_atom_site_fract_y
_atom_site_fract_z
F1 F 0.57067(16) 0.76682(8) 0.06033(6)
F2 F 0.27037(19) 0.04141(9) 0.37244(8)
O1 O 0.07455(17) 0.53681(9) 0.40576(8)
H1 H 0.074(7) 0.6097(18) 0.409(3)
C1 C 0.5098(3) 0.69916(13) 0.14001(11)
C2 C 0.3118(3) 0.64852(13) 0.14180(11)
H2 H 0.2203 0.6601 0.0888
C3 C 0.2504(3) 0.58039(13) 0.22292(11)
H3 H 0.1145 0.5449 0.2258
C4 C 0.3857(2) 0.56317(12) 0.30057(10)
C5 C 0.3034(2) 0.49173(12) 0.38985(10)
C6 C 0.4463(3) 0.49722(12) 0.46763(11)
C7 C 0.2972(3) 0.36964(13) 0.38331(10)
C8 C 0.4813(3) 0.29089(13) 0.41180(11)
H4 H 0.6132 0.3133 0.4346
C9 C 0.4750(3) 0.18001(14) 0.40734(12)
H5 H 0.6004 0.1261 0.4271
C10 C 0.2822(3) 0.15038(14) 0.37356(12)
C11 C 0.0984(3) 0.22636(15) 0.34234(12)
H6 H -0.0305 0.2036 0.3176
C12 C 0.1059(3) 0.33666(14) 0.34790(11)
H7 H -0.0199 0.3901 0.3275
C13 C 0.5858(3) 0.61468(12) 0.29524(11)
H8 H 0.6800 0.6024 0.3475
C14 C 0.6492(3) 0.68380(13) 0.21440(11)
H9 H 0.7851 0.7194 0.2107
F1A F 0.42933(16) 0.23318(8) 0.93967(6)
F2A F 0.72963(19) 0.95859(9) 0.62756(8)
O1A O 0.92545(17) 0.46319(9) 0.59424(8)
H1A H 0.926(7) 0.3903(18) 0.591(3)
C1A C 0.4902(3) 0.30084(13) 0.85999(11)
C2A C 0.6882(3) 0.35148(13) 0.85820(11)
H2A H 0.7797 0.3399 0.9112
C3A C 0.7496(3) 0.41961(13) 0.77708(11)
H3A H 0.8855 0.4551 0.7742
C4A C 0.6143(2) 0.43683(12) 0.69943(10)
C5A C 0.6966(2) 0.50827(12) 0.61015(10)
C6A C 0.5537(3) 0.50278(12) 0.53237(11)
C7A C 0.7028(3) 0.63036(13) 0.61669(10)
C8A C 0.5187(3) 0.70911(13) 0.58820(11)
H4A H 0.3868 0.6867 0.5654
C9A C 0.5250(3) 0.81999(14) 0.59266(12)
H5A H 0.3996 0.8739 0.5729
C10A C 0.7178(3) 0.84962(14) 0.62644(12)
C11A C 0.9016(3) 0.77364(15) 0.65766(12)
H6A H 1.0305 0.7964 0.6824
C12A C 0.8941(3) 0.66334(14) 0.65210(11)
H7A H 1.0199 0.6099 0.6725
C13A C 0.4142(3) 0.38532(12) 0.70476(11)
H8A H 0.3200 0.3976 0.6525
C14A C 0.3508(3) 0.31620(13) 0.78560(11)
H9A H 0.2149 0.2806 0.7893
H11 H 0.530(3) 0.0737(15) 0.0345(11)
F3 F 0.85498(18) 0.49331(8) 0.11802(8)
F4 F 1.03776(18) -0.23270(9) 0.44679(7)
O2 O 0.56575(17) 0.02779(9) 0.08703(7)
C15 C 0.8433(3) 0.38420(13) 0.11657(12)
C16 C 0.6494(3) 0.33562(14) 0.14885(12)
H12 H 0.5277 0.3766 0.1733
C17 C 0.6366(3) 0.22522(13) 0.14473(11)
H13 H 0.5045 0.1900 0.1666
C18 C 0.8153(2) 0.16549(12) 0.10893(10)
C19 C 0.7970(2) 0.04328(12) 0.10413(10)
C20 C 0.9428(3) 0.01269(12) 0.03025(11)
C21 C 0.8631(3) -0.03412(12) 0.19603(10)
C22 C 0.7038(3) -0.04805(13) 0.26628(11)
H14 H 0.5544 -0.0114 0.2560
C23 C 0.7613(3) -0.11485(14) 0.35112(11)
H15 H 0.6532 -0.1247 0.3993
C24 C 0.9795(3) -0.16652(13) 0.36365(11)
C25 C 1.0818(3) -0.08750(13) 0.21177(11)
H16 H 1.1914 -0.0776 0.1642
C26 C 1.1413(3) -0.15502(13) 0.29617(11)
H17 H 1.2900 -0.1923 0.3070
C27 C 1.0256(3) 0.32770(13) 0.08261(11)
H18 H 1.1580 0.3632 0.0619
C28 C 1.0102(3) 0.21670(13) 0.07945(11)
H19 H 1.1347 0.1755 0.0569
H11A H 1.470(3) -0.0737(15) -0.0345(11)
F3A F 1.14502(18) -0.49331(8) -0.11802(8)
F4A F 0.96224(18) 0.23270(9) -0.44679(7)
O2A O 1.43425(17) -0.02779(9) -0.08703(7)
C15A C 1.1567(3) -0.38420(13) -0.11657(12)
C16A C 1.3506(3) -0.33562(14) -0.14885(12)
H12A H 1.4723 -0.3766 -0.1733
C17A C 1.3634(3) -0.22522(13) -0.14473(11)
H13A H 1.4955 -0.1900 -0.1666
C18A C 1.1847(2) -0.16549(12) -0.10893(10)
C19A C 1.2030(2) -0.04328(12) -0.10413(10)
C20A C 1.0572(3) -0.01269(12) -0.03025(11)
C21A C 1.1369(3) 0.03412(12) -0.19603(10)
C22A C 1.2962(3) 0.04805(13) -0.26628(11)
H14A H 1.4456 0.0114 -0.2560
C23A C 1.2387(3) 0.11485(14) -0.35112(11)
H15A H 1.3468 0.1247 -0.3993
C24A C 1.0205(3) 0.16652(13) -0.36365(11)
C25A C 0.9182(3) 0.08750(13) -0.21177(11)
H16A H 0.8086 0.0776 -0.1642
C26A C 0.8587(3) 0.15502(13) -0.29617(11)
H17A H 0.7100 0.1923 -0.3070
C27A C 0.9744(3) -0.32770(13) -0.08261(11)
H18A H 0.8420 -0.3632 -0.0619
C28A C 0.9898(3) -0.21670(13) -0.07945(11)
H19A H 0.8653 -0.1755 -0.0569
H10? H 0.031(7) 0.516(3) 0.4644(15)
loop_
_geom_bond_atom_site_label_1
_geom_bond_atom_site_label_2
_geom_bond_site_symmetry_1
_geom_bond_site_symmetry_2
F1 C1 1_555 1_555
F2 C10 1_555 1_555
O1 H1 1_555 1_555
C1 C2 1_555 1_555
C2 H2 1_555 1_555
C3 C2 1_555 1_555
H3 C3 1_555 1_555
C4 C3 1_555 1_555
C5 O1 1_555 1_555
C6 C5 1_555 1_555
C7 C5 1_555 1_555
C8 C7 1_555 1_555
H4 C8 1_555 1_555
C9 C8 1_555 1_555
H5 C9 1_555 1_555
C10 C9 1_555 1_555
C11 C10 1_555 1_555
H6 C11 1_555 1_555
C12 C7 1_555 1_555
H7 C12 1_555 1_555
C13 C4 1_555 1_555
H8 C13 1_555 1_555
C14 C1 1_555 1_555
H9 C14 1_555 1_555
H11 O2 1_555 1_555
F3 C15 1_555 1_555
F4 C24 1_555 1_555
O2 C19 1_555 1_555
C15 C16 1_555 1_555
C16 H12 1_555 1_555
C17 C16 1_555 1_555
H13 C17 1_555 1_555
C18 C17 1_555 1_555
C19 C18 1_555 1_555
C20 C19 1_555 1_555
C21 C19 1_555 1_555
C22 C21 1_555 1_555
H14 C22 1_555 1_555
C23 C22 1_555 1_555
H15 C23 1_555 1_555
C24 C23 1_555 1_555
C25 C21 1_555 1_555
H16 C25 1_555 1_555
C26 C24 1_555 1_555
H17 C26 1_555 1_555
C27 C15 1_555 1_555
H18 C27 1_555 1_555
C28 C18 1_555 1_555
H19 C28 1_555 1_555
F1A C1A 1_555 1_555
F2A C10A 1_555 1_555
O1A H1A 1_555 1_555
C1A C2A 1_555 1_555
C2A H2A 1_555 1_555
C3A C2A 1_555 1_555
H3A C3A 1_555 1_555
C4A C3A 1_555 1_555
C5A O1A 1_555 1_555
C6A C6 1_555 1_555
C7A C5A 1_555 1_555
C8A C7A 1_555 1_555
H4A C8A 1_555 1_555
C9A C8A 1_555 1_555
H5A C9A 1_555 1_555
C10A C9A 1_555 1_555
C11A C10A 1_555 1_555
H6A C11A 1_555 1_555
C12A C7A 1_555 1_555
H7A C12A 1_555 1_555
C13A C4A 1_555 1_555
H8A C13A 1_555 1_555
C14A C1A 1_555 1_555
H9A C14A 1_555 1_555
H11A O2A 1_555 1_555
F3A C15A 1_555 1_555
F4A C24A 1_555 1_555
O2A C19A 1_555 1_555
C15A C16A 1_555 1_555
C16A H12A 1_555 1_555
C17A C16A 1_555 1_555
H13A C17A 1_555 1_555
C18A C17A 1_555 1_555
C19A C18A 1_555 1_555
C20A C20 1_555 1_555
C21A C19A 1_555 1_555
C22A C21A 1_555 1_555
H14A C22A 1_555 1_555
C23A C22A 1_555 1_555
H15A C23A 1_555 1_555
C24A C23A 1_555 1_555
C25A C21A 1_555 1_555
H16A C25A 1_555 1_555
C26A C24A 1_555 1_555
H17A C26A 1_555 1_555
C27A C15A 1_555 1_555
H18A C27A 1_555 1_555
C28A C18A 1_555 1_555
H19A C28A 1_555 1_555
C4 C5 1_555 1_555
C11 C12 1_555 1_555
C13 C14 1_555 1_555
C25 C26 1_555 1_555
C27 C28 1_555 1_555
C4A C5A 1_555 1_555
C5A C6A 1_555 1_555
C11A C12A 1_555 1_555
C13A C14A 1_555 1_555
C19A C20A 1_555 1_555
C25A C26A 1_555 1_555
C27A C28A 1_555 1_555

#END
