
#######################################################################
#
#                 Cambridge Crystallographic Data Centre
#                                CCDC 
#
#######################################################################
#
# If this CIF has been generated from an entry in the Cambridge 
# Structural Database, then it will include bibliographic, chemical, 
# crystal, experimental, refinement or atomic coordinate data resulting 
# from the CCDC's data processing and validation procedures.
#
#######################################################################

data_JIBWEZ
_chemical_formula_moiety         'C20 H17 N3 O2 S1'
_chemical_name_systematic        
N,7-bis(4-methoxyphenyl)-2,1,3-benzothiadiazol-4-amine
_symmetry_cell_setting           monoclinic
_symmetry_space_group_name_H-M   'P 21/c'
_symmetry_Int_Tables_number      14
_space_group_name_Hall           '-P 2ybc'
loop_
_symmetry_equiv_pos_site_id
_symmetry_equiv_pos_as_xyz
1 x,y,z
2 -x,1/2+y,1/2-z
3 -x,-y,-z
4 x,1/2-y,1/2+z
_cell_length_a                   15.0345(12)
_cell_length_b                   7.1821(6)
_cell_length_c                   31.643(3)
_cell_angle_alpha                90
_cell_angle_beta                 93.706(9)
_cell_angle_gamma                90
_cell_volume                     3409.64
_exptl_crystal_colour            red
_exptl_crystal_description       needle
_cell_formula_units_Z            8
loop_
_atom_site_label
_atom_site_type_symbol
_atom_site_fract_x
_atom_site_fract_y
_atom_site_fract_z
S1 S 1.10156(9) 0.7674(3) 0.05471(5)
O1 O 0.6036(3) 0.8452(7) -0.15931(12)
O2 O 0.8996(2) 0.7168(6) 0.28613(12)
N1 N 1.0454(3) 0.7481(7) 0.09586(15)
N2 N 1.0222(3) 0.7590(7) 0.01717(15)
N3 N 0.8617(3) 0.7363(7) -0.02808(15)
H1 H 0.913820 0.721558 -0.037245
C1 C 0.9585(3) 0.7348(7) 0.08198(17)
C2 C 0.9465(3) 0.7400(7) 0.03758(17)
C3 C 0.8607(3) 0.7326(7) 0.01530(17)
C4 C 0.7909(3) 0.7155(8) 0.04025(18)
H2 H 0.733729 0.706016 0.027396
C5 C 0.8017(3) 0.7113(7) 0.08480(17)
H3 H 0.750709 0.704558 0.099861
C6 C 0.8836(3) 0.7168(7) 0.10760(16)
C7 C 0.7941(4) 0.7593(8) -0.06029(17)
C8 C 0.8098(4) 0.6988(8) -0.10024(17)
H4 H 0.862820 0.636791 -0.104415
C9 C 0.7497(4) 0.7268(9) -0.13437(18)
H5 H 0.763317 0.689187 -0.161326
C10 C 0.6693(4) 0.8112(8) -0.12814(17)
C11 C 0.6518(3) 0.8707(8) -0.08741(16)
H6 H 0.597990 0.929833 -0.083351
C12 C 0.7121(3) 0.8446(8) -0.05290(18)
H7 H 0.698936 0.882002 -0.025869
C13 C 0.6246(5) 0.8044(12) -0.2013(2)
H8 H 0.577851 0.849684 -0.220787
H9 H 0.630314 0.672117 -0.204636
H10 H 0.679722 0.863648 -0.207100
C14 C 0.8907(3) 0.7151(7) 0.15430(16)
C15 C 0.8283(3) 0.8050(7) 0.17795(17)
H11 H 0.782098 0.869541 0.163545
C16 C 0.8317(3) 0.8031(7) 0.22075(17)
H12 H 0.788129 0.863445 0.235192
C17 C 0.9006(3) 0.7108(7) 0.24279(16)
C18 C 0.9661(3) 0.6220(8) 0.22104(17)
H13 H 1.013314 0.561298 0.235629
C19 C 0.9594(3) 0.6259(7) 0.17731(16)
H14 H 1.002884 0.565973 0.162736
C20 C 0.9704(4) 0.6266(10) 0.31039(19)
H15 H 0.970776 0.496565 0.303386
H16 H 0.961767 0.641000 0.340008
H17 H 1.026211 0.681537 0.304090
S2 S 0.89896(9) 0.2122(2) 0.07357(5)
O3 O 0.4030(3) 0.2397(6) -0.13988(12)
O4 O 0.6985(3) 0.2038(7) 0.30659(12)
N4 N 0.8431(3) 0.2148(6) 0.11546(14)
N5 N 0.8204(3) 0.2424(6) 0.03673(14)
N6 N 0.6607(3) 0.3145(7) -0.00693(14)
H18 H 0.712388 0.340205 -0.015507
C21 C 0.7572(3) 0.2408(6) 0.10180(16)
C22 C 0.7456(3) 0.2563(7) 0.05728(17)
C23 C 0.6592(3) 0.2907(7) 0.03563(16)
C24 C 0.5891(3) 0.3039(7) 0.06152(16)
H19 H 0.532099 0.328461 0.049622
C25 C 0.6023(3) 0.2807(7) 0.10559(17)
H20 H 0.551864 0.284521 0.121085
C26 C 0.6819(3) 0.2533(7) 0.12779(16)
C27 C 0.5916(3) 0.3044(8) -0.03978(16)
C28 C 0.6093(3) 0.3664(7) -0.07897(16)
H21 H 0.663816 0.423379 -0.082672
C29 C 0.5492(4) 0.3473(8) -0.11322(17)
H22 H 0.563391 0.390063 -0.139697
C30 C 0.4676(3) 0.2643(7) -0.10825(17)
C31 C 0.4494(3) 0.2014(8) -0.06868(17)
H23 H 0.394439 0.146050 -0.065091
C32 C 0.5095(4) 0.2176(7) -0.03422(16)
H24 H 0.496082 0.172010 -0.007864
C33 C 0.4217(4) 0.3038(10) -0.18095(19)
H25 H 0.369742 0.288308 -0.199917
H26 H 0.470121 0.233174 -0.191114
H27 H 0.437712 0.433128 -0.179515
C34 C 0.6902(3) 0.2387(7) 0.17487(17)
C35 C 0.6215(4) 0.1626(8) 0.19691(17)
H28 H 0.571184 0.116524 0.181782
C36 C 0.6262(3) 0.1538(8) 0.24002(17)
H29 H 0.579150 0.102195 0.253735
C37 C 0.7001(4) 0.2209(8) 0.26366(17)
C38 C 0.7697(4) 0.2969(8) 0.24243(18)
H30 H 0.820273 0.341980 0.257562
C39 C 0.7632(3) 0.3050(8) 0.19889(17)
H31 H 0.809982 0.357352 0.185105
C40 C 0.7762(5) 0.2609(11) 0.3316(2)
H32 H 0.824565 0.177896 0.326761
H33 H 0.764241 0.258116 0.361031
H34 H 0.792121 0.385209 0.323840
loop_
_geom_bond_atom_site_label_1
_geom_bond_atom_site_label_2
_geom_bond_site_symmetry_1
_geom_bond_site_symmetry_2
S1 N1 1_555 1_555
O1 C10 1_555 1_555
O2 C17 1_555 1_555
N1 C1 1_555 1_555
N2 S1 1_555 1_555
N3 H1 1_555 1_555
C1 C2 1_555 1_555
C2 N2 1_555 1_555
C3 N3 1_555 1_555
C4 C3 1_555 1_555
H2 C4 1_555 1_555
C5 C4 1_555 1_555
H3 C5 1_555 1_555
C6 C1 1_555 1_555
C7 N3 1_555 1_555
C8 C7 1_555 1_555
H4 C8 1_555 1_555
C9 C8 1_555 1_555
H5 C9 1_555 1_555
C10 C9 1_555 1_555
C11 C10 1_555 1_555
H6 C11 1_555 1_555
C12 C7 1_555 1_555
H7 C12 1_555 1_555
C13 O1 1_555 1_555
H8 C13 1_555 1_555
H9 C13 1_555 1_555
H10 C13 1_555 1_555
C14 C6 1_555 1_555
C15 C14 1_555 1_555
H11 C15 1_555 1_555
C16 C15 1_555 1_555
H12 C16 1_555 1_555
C17 C16 1_555 1_555
C18 C17 1_555 1_555
H13 C18 1_555 1_555
C19 C14 1_555 1_555
H14 C19 1_555 1_555
C20 O2 1_555 1_555
H15 C20 1_555 1_555
H16 C20 1_555 1_555
H17 C20 1_555 1_555
S2 N4 1_555 1_555
O3 C30 1_555 1_555
O4 C37 1_555 1_555
N4 C21 1_555 1_555
N5 S2 1_555 1_555
N6 H18 1_555 1_555
C21 C22 1_555 1_555
C22 N5 1_555 1_555
C23 N6 1_555 1_555
C24 C23 1_555 1_555
H19 C24 1_555 1_555
C25 C24 1_555 1_555
H20 C25 1_555 1_555
C26 C21 1_555 1_555
C27 N6 1_555 1_555
C28 C27 1_555 1_555
H21 C28 1_555 1_555
C29 C28 1_555 1_555
H22 C29 1_555 1_555
C30 C29 1_555 1_555
C31 C30 1_555 1_555
H23 C31 1_555 1_555
C32 C27 1_555 1_555
H24 C32 1_555 1_555
C33 O3 1_555 1_555
H25 C33 1_555 1_555
H26 C33 1_555 1_555
H27 C33 1_555 1_555
C34 C26 1_555 1_555
C35 C34 1_555 1_555
H28 C35 1_555 1_555
C36 C35 1_555 1_555
H29 C36 1_555 1_555
C37 C36 1_555 1_555
C38 C37 1_555 1_555
H30 C38 1_555 1_555
C39 C34 1_555 1_555
H31 C39 1_555 1_555
C40 O4 1_555 1_555
H32 C40 1_555 1_555
H33 C40 1_555 1_555
H34 C40 1_555 1_555
C2 C3 1_555 1_555
C5 C6 1_555 1_555
C11 C12 1_555 1_555
C18 C19 1_555 1_555
C22 C23 1_555 1_555
C25 C26 1_555 1_555
C31 C32 1_555 1_555
C38 C39 1_555 1_555

#END
