
#######################################################################
#
#                 Cambridge Crystallographic Data Centre
#                                CCDC 
#
#######################################################################
#
# If this CIF has been generated from an entry in the Cambridge 
# Structural Database, then it will include bibliographic, chemical, 
# crystal, experimental, refinement or atomic coordinate data resulting 
# from the CCDC's data processing and validation procedures.
#
#######################################################################

data_JIBWID
_chemical_formula_moiety         'C20 H14 N4 O1 S1'
_chemical_name_systematic        
4-{[7-(4-methoxyphenyl)-2,1,3-benzothiadiazol-4-yl]amino}benzonitrile
_symmetry_cell_setting           monoclinic
_symmetry_space_group_name_H-M   'P 21/c'
_symmetry_Int_Tables_number      14
_space_group_name_Hall           '-P 2ybc'
loop_
_symmetry_equiv_pos_site_id
_symmetry_equiv_pos_as_xyz
1 x,y,z
2 -x,1/2+y,1/2-z
3 -x,-y,-z
4 x,1/2-y,1/2+z
_cell_length_a                   9.1703(8)
_cell_length_b                   19.850(3)
_cell_length_c                   18.7033(18)
_cell_angle_alpha                90
_cell_angle_beta                 102.929(9)
_cell_angle_gamma                90
_cell_volume                     3318.26
_exptl_crystal_colour            yellow
_exptl_crystal_description       needle
_cell_formula_units_Z            8
loop_
_atom_site_label
_atom_site_type_symbol
_atom_site_fract_x
_atom_site_fract_y
_atom_site_fract_z
S1 S 1.10439(7) 0.72018(3) 0.57254(3)
O1 O 0.71454(16) 0.39403(9) 0.35109(9)
N1 N 0.9983(2) 0.66567(10) 0.52194(10)
N2 N 1.0415(2) 0.78950(10) 0.53185(10)
N3 N 0.8890(2) 0.88554(10) 0.43456(10)
H1 H 0.975145 0.891849 0.465813
N4 N 0.5838(3) 1.18203(13) 0.29875(14)
C1 C 0.9058(2) 0.70075(12) 0.46802(12)
C2 C 0.7932(2) 0.67333(12) 0.40940(12)
C3 C 0.7122(2) 0.72118(13) 0.36333(12)
H2 H 0.634136 0.705597 0.324503
C4 C 0.7363(2) 0.79160(13) 0.36948(13)
H3 H 0.675364 0.820735 0.334921
C5 C 0.8457(2) 0.81876(12) 0.42425(12)
C6 C 0.9311(2) 0.77146(12) 0.47443(12)
C7 C 0.7686(2) 0.60012(12) 0.39676(11)
C8 C 0.8862(2) 0.55356(13) 0.41508(12)
H4 H 0.983034 0.568877 0.438943
C9 C 0.8640(2) 0.48603(13) 0.39911(12)
H5 H 0.945593 0.455587 0.412041
C10 C 0.7233(2) 0.46181(12) 0.36423(12)
C11 C 0.6049(2) 0.50685(12) 0.34632(11)
H6 H 0.508038 0.491269 0.322942
C12 C 0.6287(2) 0.57482(12) 0.36273(12)
H7 H 0.546633 0.605060 0.350277
C13 C 0.5750(2) 0.36707(14) 0.31155(14)
H8 H 0.545127 0.389737 0.263967
H9 H 0.498264 0.374330 0.339773
H10 H 0.585947 0.318669 0.303828
C14 C 0.8196(2) 0.94415(12) 0.40395(12)
C15 C 0.6667(2) 0.94941(13) 0.37335(12)
H11 H 0.604253 0.910921 0.370880
C16 C 0.6061(2) 1.01055(13) 0.34663(12)
H12 H 0.502039 1.013556 0.325487
C17 C 0.6952(2) 1.06796(13) 0.35017(12)
C18 C 0.8479(2) 1.06299(12) 0.38155(12)
H13 H 0.909965 1.101695 0.384888
C19 C 0.9082(2) 1.00212(12) 0.40758(11)
H14 H 1.012386 0.999198 0.428539
C20 C 0.6321(3) 1.13140(14) 0.32187(13)
S2 S 0.61704(6) 0.77754(3) 0.55926(3)
O2 O 0.21773(17) 1.10906(9) 0.35673(8)
N5 N 0.5170(2) 0.83326(10) 0.50729(10)
N6 N 0.5309(2) 0.70924(10) 0.52789(10)
N7 N 0.3295(2) 0.61501(10) 0.45091(10)
H15 H 0.379760 0.608362 0.496260
N8 N 0.1219(3) 0.31827(13) 0.28075(13)
C21 C 0.4058(2) 0.79951(12) 0.46182(12)
C22 C 0.2893(2) 0.82809(12) 0.40537(12)
C23 C 0.1906(2) 0.78145(13) 0.36654(12)
H16 H 0.110994 0.797981 0.329067
C24 C 0.1988(2) 0.71106(13) 0.37824(13)
H17 H 0.125493 0.682832 0.348850
C25 C 0.3099(2) 0.68246(12) 0.43096(12)
C26 C 0.4154(2) 0.72831(12) 0.47355(12)
C27 C 0.2739(2) 0.90144(12) 0.39149(12)
C28 C 0.3187(2) 0.94953(12) 0.44726(12)
H18 H 0.362539 0.934678 0.495567
C29 C 0.3008(2) 1.01743(12) 0.43381(11)
H19 H 0.333394 1.048722 0.472522
C30 C 0.2349(2) 1.04069(12) 0.36341(12)
C31 C 0.1918(2) 0.99474(12) 0.30717(12)
H20 H 0.148743 1.009935 0.258896
C32 C 0.2114(2) 0.92629(13) 0.32139(12)
H21 H 0.181486 0.895292 0.282148
C33 C 0.1551(3) 1.13568(14) 0.28551(13)
H22 H 0.217233 1.122344 0.251554
H23 H 0.151400 1.184937 0.288135
H24 H 0.053555 1.118002 0.267979
C34 C 0.2840(2) 0.55644(12) 0.41201(12)
C35 C 0.2252(2) 0.55448(12) 0.33617(12)
H25 H 0.212982 0.594987 0.308414
C36 C 0.1849(2) 0.49337(12) 0.30181(12)
H26 H 0.144941 0.492277 0.250375
C37 C 0.2021(2) 0.43332(12) 0.34163(12)
C38 C 0.2635(2) 0.43536(13) 0.41720(12)
H27 H 0.277146 0.394805 0.444869
C39 C 0.3041(2) 0.49574(12) 0.45125(12)
H28 H 0.346587 0.496507 0.502457
C40 C 0.1569(3) 0.36976(14) 0.30700(13)
loop_
_geom_bond_atom_site_label_1
_geom_bond_atom_site_label_2
_geom_bond_site_symmetry_1
_geom_bond_site_symmetry_2
S1 N1 1_555 1_555
O1 C10 1_555 1_555
N1 C1 1_555 1_555
N2 S1 1_555 1_555
N3 H1 1_555 1_555
N4 C20 1_555 1_555
C1 C2 1_555 1_555
C2 C3 1_555 1_555
C3 H2 1_555 1_555
C4 C3 1_555 1_555
H3 C4 1_555 1_555
C5 N3 1_555 1_555
C6 N2 1_555 1_555
C7 C2 1_555 1_555
C8 C7 1_555 1_555
H4 C8 1_555 1_555
C9 C8 1_555 1_555
H5 C9 1_555 1_555
C10 C9 1_555 1_555
C11 C10 1_555 1_555
H6 C11 1_555 1_555
C12 C7 1_555 1_555
H7 C12 1_555 1_555
C13 O1 1_555 1_555
H8 C13 1_555 1_555
H9 C13 1_555 1_555
H10 C13 1_555 1_555
C14 N3 1_555 1_555
C15 C14 1_555 1_555
H11 C15 1_555 1_555
C16 C15 1_555 1_555
H12 C16 1_555 1_555
C17 C16 1_555 1_555
C18 C17 1_555 1_555
H13 C18 1_555 1_555
C19 C14 1_555 1_555
H14 C19 1_555 1_555
C20 C17 1_555 1_555
S2 N5 1_555 1_555
O2 C30 1_555 1_555
N5 C21 1_555 1_555
N6 S2 1_555 1_555
N7 H15 1_555 1_555
N8 C40 1_555 1_555
C21 C22 1_555 1_555
C22 C23 1_555 1_555
C23 H16 1_555 1_555
C24 C23 1_555 1_555
H17 C24 1_555 1_555
C25 N7 1_555 1_555
C26 N6 1_555 1_555
C27 C22 1_555 1_555
C28 C27 1_555 1_555
H18 C28 1_555 1_555
C29 C28 1_555 1_555
H19 C29 1_555 1_555
C30 C29 1_555 1_555
C31 C30 1_555 1_555
H20 C31 1_555 1_555
C32 C27 1_555 1_555
H21 C32 1_555 1_555
C33 O2 1_555 1_555
H22 C33 1_555 1_555
H23 C33 1_555 1_555
H24 C33 1_555 1_555
C34 N7 1_555 1_555
C35 C34 1_555 1_555
H25 C35 1_555 1_555
C36 C35 1_555 1_555
H26 C36 1_555 1_555
C37 C36 1_555 1_555
C38 C37 1_555 1_555
H27 C38 1_555 1_555
C39 C34 1_555 1_555
H28 C39 1_555 1_555
C40 C37 1_555 1_555
C1 C6 1_555 1_555
C4 C5 1_555 1_555
C5 C6 1_555 1_555
C11 C12 1_555 1_555
C18 C19 1_555 1_555
C21 C26 1_555 1_555
C24 C25 1_555 1_555
C25 C26 1_555 1_555
C31 C32 1_555 1_555
C38 C39 1_555 1_555

#END
