
#######################################################################
#
#                 Cambridge Crystallographic Data Centre
#                                CCDC 
#
#######################################################################
#
# If this CIF has been generated from an entry in the Cambridge 
# Structural Database, then it will include bibliographic, chemical, 
# crystal, experimental, refinement or atomic coordinate data resulting 
# from the CCDC's data processing and validation procedures.
#
#######################################################################

data_JIBYIF
_chemical_formula_moiety         'C16 H13 Br1 N2 O4'
_chemical_name_systematic        
11-bromo-2,4-dimethyl-4,12b-dihydro-1H,7H-[1]benzopyrano[4',3':4,5]pyrano[2,3-d]pyrimidine-1,3(2H)-dione
_symmetry_cell_setting           monoclinic
_symmetry_space_group_name_H-M   'P 21/c'
_symmetry_Int_Tables_number      14
_space_group_name_Hall           '-P 2ybc'
loop_
_symmetry_equiv_pos_site_id
_symmetry_equiv_pos_as_xyz
1 x,y,z
2 -x,1/2+y,1/2-z
3 -x,-y,-z
4 x,1/2-y,1/2+z
_cell_length_a                   20.446(7)
_cell_length_b                   4.4278(15)
_cell_length_c                   16.165(6)
_cell_angle_alpha                90
_cell_angle_beta                 94.367(11)
_cell_angle_gamma                90
_cell_volume                     1459.18
_exptl_crystal_colour            colorless
_exptl_crystal_description       block
_cell_formula_units_Z            4
loop_
_atom_site_label
_atom_site_type_symbol
_atom_site_fract_x
_atom_site_fract_y
_atom_site_fract_z
Br1 Br 0.90032(2) 0.10432(7) 0.53004(2)
O1 O 0.54020(11) 0.1221(5) 0.37114(14)
O2 O 0.67433(10) 0.4096(4) 0.17706(11)
O3 O 0.70174(10) 0.7917(5) 0.44888(11)
N1 N 0.62168(11) 0.4524(6) 0.41117(14)
N2 N 0.60888(11) 0.2704(5) 0.27542(13)
O4 O 0.88185(11) 0.7800(5) 0.20701(13)
C1 C 0.59848(17) 0.4675(10) 0.4944(2)
H1 H 0.5722 0.6454 0.4991
H2 H 0.6354 0.4752 0.5348
H3 H 0.5726 0.2918 0.5040
C2 C 0.67692(13) 0.6211(6) 0.39554(16)
C3 C 0.70093(12) 0.5849(5) 0.31497(15)
C4 C 0.76209(12) 0.7438(6) 0.29340(15)
H4 H 0.7604 0.9525 0.3133
C5 C 0.82711(12) 0.6037(5) 0.32722(16)
C6 C 0.83359(12) 0.4416(6) 0.40052(16)
H5 H 0.7973 0.4137 0.4310
C7 C 0.89312(13) 0.3213(6) 0.42875(17)
C8 C 0.94782(14) 0.3603(7) 0.3847(2)
H6 H 0.9881 0.2808 0.4044
C9 C 0.58717(14) 0.2708(7) 0.35397(17)
C10 C 0.66355(12) 0.4279(6) 0.25812(15)
C11 C 0.57144(15) 0.0927(7) 0.2108(2)
H7 H 0.5428 -0.0448 0.2364
H8 H 0.6013 -0.0193 0.1794
H9 H 0.5459 0.2263 0.1745
C12 C 0.72541(14) 0.5876(6) 0.15073(17)
H10 H 0.7320 0.5909 0.0944
C13 C 0.76445(13) 0.7495(6) 0.20106(16)
C14 C 0.82189(16) 0.9123(6) 0.1726(2)
H11 H 0.8206 0.9053 0.1125
H12 H 0.8201 1.1224 0.1892
C15 C 0.88173(14) 0.6377(6) 0.28210(18)
C16 C 0.94192(15) 0.5166(8) 0.3121(2)
H13 H 0.9785 0.5431 0.2820
loop_
_geom_bond_atom_site_label_1
_geom_bond_atom_site_label_2
_geom_bond_site_symmetry_1
_geom_bond_site_symmetry_2
Br1 C7 1_555 1_555
O1 C9 1_555 1_555
O2 C10 1_555 1_555
O3 C2 1_555 1_555
N1 C1 1_555 1_555
N2 C9 1_555 1_555
O4 C14 1_555 1_555
C1 H1 1_555 1_555
H2 C1 1_555 1_555
H3 C1 1_555 1_555
C2 N1 1_555 1_555
C3 C2 1_555 1_555
C4 C3 1_555 1_555
H4 C4 1_555 1_555
C5 C4 1_555 1_555
C6 C5 1_555 1_555
H5 C6 1_555 1_555
C7 C6 1_555 1_555
C8 C7 1_555 1_555
H6 C8 1_555 1_555
C9 N1 1_555 1_555
C10 N2 1_555 1_555
C11 N2 1_555 1_555
H7 C11 1_555 1_555
H8 C11 1_555 1_555
H9 C11 1_555 1_555
C12 O2 1_555 1_555
H10 C12 1_555 1_555
C13 C4 1_555 1_555
C14 C13 1_555 1_555
H11 C14 1_555 1_555
H12 C14 1_555 1_555
C15 O4 1_555 1_555
C16 C8 1_555 1_555
H13 C16 1_555 1_555
C3 C10 1_555 1_555
C5 C15 1_555 1_555
C12 C13 1_555 1_555
C15 C16 1_555 1_555

#END
