
#######################################################################
#
#                 Cambridge Crystallographic Data Centre
#                                CCDC 
#
#######################################################################
#
# If this CIF has been generated from an entry in the Cambridge 
# Structural Database, then it will include bibliographic, chemical, 
# crystal, experimental, refinement or atomic coordinate data resulting 
# from the CCDC's data processing and validation procedures.
#
#######################################################################

data_JICJUA
_chemical_formula_moiety         'C20 H25 F1 O1'
_chemical_name_systematic        
9-Fluoro-1,2,3,4-tetrahydro-7-isopropyl-1,1-dimethyl-6-methoxyphenanthrene
_symmetry_cell_setting           monoclinic
_symmetry_space_group_name_H-M   'P 21/n'
_symmetry_Int_Tables_number      14
_space_group_name_Hall           '-P 2yn'
loop_
_symmetry_equiv_pos_site_id
_symmetry_equiv_pos_as_xyz
1 x,y,z
2 1/2-x,1/2+y,1/2-z
3 -x,-y,-z
4 1/2+x,1/2-y,1/2+z
_cell_length_a                   9.6842(8)
_cell_length_b                   15.090(2)
_cell_length_c                   11.730(2)
_cell_angle_alpha                90
_cell_angle_beta                 96.62(1)
_cell_angle_gamma                90
_cell_volume                     1702.73
_exptl_crystal_colour            colorless
_chemical_melting_point          88.5-89.5deg.C
_cell_formula_units_Z            4
loop_
_atom_site_label
_atom_site_type_symbol
_atom_site_fract_x
_atom_site_fract_y
_atom_site_fract_z
H1 H -0.1128 0.1105 1.0073
H2 H -0.1148 -0.0051 0.6355
H3 H 0.2793 0.1689 0.6858
H4 H 0.1056 0.1584 1.0834
H5 H 0.0223 0.2415 1.0335
H6 H -0.4045 0.0153 1.0899
H7 H -0.3230 0.1008 1.0616
H8 H -0.2416 0.0150 1.1039
H9 H -0.3750 -0.0900 0.7871
H10 H -0.2355 -0.1638 0.6748
H11 H -0.2817 -0.0992 0.5727
H12 H -0.3902 -0.1635 0.6181
H13 H -0.5402 -0.0333 0.6421
H14 H -0.4314 0.0375 0.6125
H15 H -0.4905 0.0407 0.7314
H16 H 0.4878 0.1975 0.8148
H17 H 0.4635 0.1569 0.9339
H18 H 0.5375 0.2489 0.9282
H19 H 0.3607 0.3107 0.7296
H20 H 0.3989 0.3762 0.8322
H21 H 0.2426 0.3591 0.7863
F1 F 0.1058(2) 0.0629(1) 0.5868(2)
O1 O -0.3251(2) 0.0086(2) 0.9441(2)
C1 C -0.1119(3) 0.0881(2) 0.9309(2)
C2 C -0.2162(3) 0.0338(2) 0.8856(2)
C3 C -0.2217(3) -0.0023(2) 0.7728(2)
C4 C -0.1150(3) 0.0190(2) 0.7112(2)
C5 C 0.1053(3) 0.0991(2) 0.6933(2)
C6 C 0.2077(3) 0.1546(2) 0.7329(3)
C7 C 0.3288(3) 0.2565(2) 0.8846(3)
C8 C 0.2806(5) 0.3172(4) 0.9881(5)
C10 C 0.2280(4) 0.2662(3) 1.0725(4)
C11 C 0.1059(3) 0.2076(2) 1.0316(3)
C12 C -0.0017(3) 0.1123(2) 0.8668(2)
C13 C -0.0049(3) 0.0754(2) 0.7549(2)
C14 C 0.1072(3) 0.1711(2) 0.9106(2)
C15 C 0.2110(3) 0.1925(2) 0.8439(3)
C16 C -0.3234(3) 0.0372(2) 1.0591(3)
C17 C -0.3449(3) -0.0575(2) 0.7241(3)
C18 C -0.3099(4) -0.1274(3) 0.6397(4)
C19 C -0.4626(3) 0.0024(3) 0.6728(3)
C20 C 0.4668(4) 0.2109(3) 0.8909(5)
C21 C 0.3332(5) 0.3326(3) 0.8004(4)
C9? C 0.3498(6) 0.2600(5) 1.0160(6)
loop_
_geom_bond_atom_site_label_1
_geom_bond_atom_site_label_2
_geom_bond_site_symmetry_1
_geom_bond_site_symmetry_2
H1 C1 1_555 1_555
H2 C4 1_555 1_555
H3 C6 1_555 1_555
H4 C11 1_555 1_555
H5 C11 1_555 1_555
H6 C16 1_555 1_555
H7 C16 1_555 1_555
H8 C16 1_555 1_555
H9 C17 1_555 1_555
H10 C18 1_555 1_555
H11 C18 1_555 1_555
H12 C18 1_555 1_555
H13 C19 1_555 1_555
H14 C19 1_555 1_555
H15 C19 1_555 1_555
H16 C20 1_555 1_555
H17 C20 1_555 1_555
H18 C20 1_555 1_555
H19 C21 1_555 1_555
H20 C21 1_555 1_555
H21 C21 1_555 1_555
F1 C5 1_555 1_555
O1 C2 1_555 1_555
C1 C2 1_555 1_555
C2 C3 1_555 1_555
C3 C4 1_555 1_555
C4 C13 1_555 1_555
C5 C6 1_555 1_555
C6 C15 1_555 1_555
C7 C8 1_555 1_555
C8 C10 1_555 1_555
C10 C11 1_555 1_555
C11 C14 1_555 1_555
C12 C1 1_555 1_555
C13 C5 1_555 1_555
C14 C12 1_555 1_555
C15 C7 1_555 1_555
C16 O1 1_555 1_555
C17 C3 1_555 1_555
C18 C17 1_555 1_555
C19 C17 1_555 1_555
C20 C7 1_555 1_555
C21 C7 1_555 1_555
C12 C13 1_555 1_555
C14 C15 1_555 1_555

#END
