
#######################################################################
#
#                 Cambridge Crystallographic Data Centre
#                                CCDC 
#
#######################################################################
#
# If this CIF has been generated from an entry in the Cambridge 
# Structural Database, then it will include bibliographic, chemical, 
# crystal, experimental, refinement or atomic coordinate data resulting 
# from the CCDC's data processing and validation procedures.
#
#######################################################################

data_JICKOY
_chemical_formula_moiety         'C23 H19 N1 O2 S1'
_chemical_name_systematic        
N-(1,4-diphenylbut-1-en-3-yn-2-yl)-N-phenylmethanesulfonamide
_symmetry_cell_setting           monoclinic
_symmetry_space_group_name_H-M   'P 21/n'
_symmetry_Int_Tables_number      14
_space_group_name_Hall           '-P 2yn'
loop_
_symmetry_equiv_pos_site_id
_symmetry_equiv_pos_as_xyz
1 x,y,z
2 1/2-x,1/2+y,1/2-z
3 -x,-y,-z
4 1/2+x,1/2-y,1/2+z
_cell_length_a                   9.5466(13)
_cell_length_b                   22.634(3)
_cell_length_c                   9.7879(12)
_cell_angle_alpha                90
_cell_angle_beta                 109.311(2)
_cell_angle_gamma                90
_cell_volume                     1995.96
_exptl_crystal_colour            white
_exptl_crystal_description       block
_cell_formula_units_Z            4
loop_
_atom_site_label
_atom_site_type_symbol
_atom_site_fract_x
_atom_site_fract_y
_atom_site_fract_z
S1 S 0.58739(6) 0.53370(2) 0.26867(6)
O1 O 0.5097(2) 0.48055(6) 0.21243(18)
O2 O 0.72006(19) 0.53115(7) 0.39052(18)
N1 N 0.47117(19) 0.57600(7) 0.31305(17)
C1 C 0.5859(2) 0.78028(9) 0.2150(2)
C2 C 0.5674(3) 0.72409(9) 0.2750(2)
C3 C 0.5472(2) 0.67993(9) 0.3323(2)
C4 C 0.5980(2) 0.66842(9) 0.6590(2)
C5 C 0.5263(2) 0.62754(8) 0.4042(2)
C6 C 0.5511(2) 0.62246(9) 0.5463(2)
H1 H 0.5369 0.5850 0.5783
C7 C 0.3149(2) 0.57411(9) 0.2288(2)
C8 C 0.7232(3) 0.80784(10) 0.2554(2)
H2 H 0.8060 0.7889 0.3182
C9 C 0.5709(3) 0.72824(10) 0.6328(2)
H3 H 0.5227 0.7414 0.5389
C10 C 0.2206(3) 0.54460(11) 0.2854(3)
H4 H 0.2576 0.5263 0.3752
C11 C 0.4648(3) 0.80885(11) 0.1203(3)
H5 H 0.3722 0.7908 0.0910
C12 C 0.2587(3) 0.60132(11) 0.0959(2)
H6 H 0.3216 0.6219 0.0578
C13 C 0.6704(3) 0.65055(11) 0.8003(2)
H7 H 0.6890 0.6106 0.8207
C14 C 0.7376(3) 0.86307(11) 0.2028(3)
H8 H 0.8299 0.8814 0.2302
C15 C 0.6149(3) 0.76850(11) 0.7450(3)
H9 H 0.5951 0.8085 0.7262
C16 C 0.1090(3) 0.59796(12) 0.0194(3)
H10 H 0.0713 0.6159 -0.0708
C17 C 0.6871(3) 0.75015(12) 0.8828(3)
H11 H 0.7172 0.7775 0.9578
C18 C 0.6163(4) 0.89100(11) 0.1104(3)
H12 H 0.6262 0.9285 0.0756
C19 C 0.7151(3) 0.69123(12) 0.9107(3)
H13 H 0.7645 0.6787 1.0048
C20 C 0.0163(3) 0.56857(13) 0.0754(3)
H14 H -0.0846 0.5663 0.0233
C21 C 0.6328(3) 0.56789(12) 0.1284(3)
H15 H 0.7031 0.5439 0.1025
H16 H 0.6754 0.6060 0.1600
H17 H 0.5447 0.5725 0.0458
C22 C 0.4815(4) 0.86422(12) 0.0693(3)
H18 H 0.3996 0.8835 0.0060
C23 C 0.0715(3) 0.54236(14) 0.2082(3)
H19 H 0.0075 0.5228 0.2469
loop_
_geom_bond_atom_site_label_1
_geom_bond_atom_site_label_2
_geom_bond_site_symmetry_1
_geom_bond_site_symmetry_2
S1 O1 1_555 1_555
O2 S1 1_555 1_555
N1 S1 1_555 1_555
C1 C2 1_555 1_555
C2 C3 1_555 1_555
C3 C5 1_555 1_555
C4 C6 1_555 1_555
C5 N1 1_555 1_555
C6 C5 1_555 1_555
H1 C6 1_555 1_555
C7 N1 1_555 1_555
C8 C1 1_555 1_555
H2 C8 1_555 1_555
C9 C4 1_555 1_555
H3 C9 1_555 1_555
C10 C7 1_555 1_555
H4 C10 1_555 1_555
C11 C1 1_555 1_555
H5 C11 1_555 1_555
C12 C7 1_555 1_555
H6 C12 1_555 1_555
C13 C4 1_555 1_555
H7 C13 1_555 1_555
C14 C8 1_555 1_555
H8 C14 1_555 1_555
C15 C9 1_555 1_555
H9 C15 1_555 1_555
C16 C12 1_555 1_555
H10 C16 1_555 1_555
C17 C15 1_555 1_555
H11 C17 1_555 1_555
C18 C14 1_555 1_555
H12 C18 1_555 1_555
C19 C13 1_555 1_555
H13 C19 1_555 1_555
C20 C16 1_555 1_555
H14 C20 1_555 1_555
C21 S1 1_555 1_555
H15 C21 1_555 1_555
H16 C21 1_555 1_555
H17 C21 1_555 1_555
C22 C11 1_555 1_555
H18 C22 1_555 1_555
C23 C10 1_555 1_555
H19 C23 1_555 1_555
C17 C19 1_555 1_555
C18 C22 1_555 1_555
C20 C23 1_555 1_555

#END
