
#######################################################################
#
#                 Cambridge Crystallographic Data Centre
#                                CCDC 
#
#######################################################################
#
# If this CIF has been generated from an entry in the Cambridge 
# Structural Database, then it will include bibliographic, chemical, 
# crystal, experimental, refinement or atomic coordinate data resulting 
# from the CCDC's data processing and validation procedures.
#
#######################################################################

data_JIFBIM
_chemical_formula_moiety         'C60 H49 N1 O2,C1 H2 Cl2'
_chemical_name_systematic        
"2-hexyl-4,17-bis(2,4,6-trimethylphenyl)-4,17-dihydro-1H-benzo[6,7]diindeno[1',2':8,9;2'',1'':2,3]fluorantheno[1,10-efg]isoindole-1,3(2H)-dione dichloromethane solvate"
_symmetry_cell_setting           triclinic
_symmetry_space_group_name_H-M   'P -1'
_symmetry_Int_Tables_number      2
_space_group_name_Hall           '-P 1'
loop_
_symmetry_equiv_pos_site_id
_symmetry_equiv_pos_as_xyz
1 x,y,z
2 -x,-y,-z
_cell_length_a                   10.80380(10)
_cell_length_b                   14.6053(2)
_cell_length_c                   15.6714(2)
_cell_angle_alpha                92.5390(10)
_cell_angle_beta                 104.8920(10)
_cell_angle_gamma                105.8990(10)
_cell_volume                     2280.79
_exptl_crystal_colour            'yellowish black'
_exptl_crystal_description       block
_cell_formula_units_Z            2
loop_
_atom_site_label
_atom_site_type_symbol
_atom_site_fract_x
_atom_site_fract_y
_atom_site_fract_z
Cl1 Cl 0.23783(17) 0.23114(11) 0.24863(10)
Cl2 Cl 0.3293(3) 0.11593(15) 0.37776(14)
C1 C 0.2887(8) 0.1255(4) 0.2754(4)
H1 H 0.2156 0.0692 0.2451
H2 H 0.3643 0.1263 0.2525
O1 O 0.49766(19) 0.46382(13) 0.29640(13)
O2 O 0.6724(2) 0.22404(14) 0.38938(13)
N1 N 0.5838(2) 0.35026(15) 0.36525(14)
C2 C 0.7449(2) 0.24210(15) 0.04878(14)
C3 C 0.6086(2) 0.37231(15) 0.22507(14)
C4 C 0.6482(2) 0.35255(15) 0.08764(14)
C5 C 0.6947(2) 0.37997(16) 0.01337(14)
C6 C 0.7560(2) 0.31274(16) -0.00946(14)
C7 C 0.7457(2) 0.15370(14) 0.20051(15)
C8 C 0.6222(2) 0.41473(15) 0.14506(14)
C9 C 0.6844(2) 0.23130(14) 0.19030(14)
C10 C 0.6420(2) 0.28906(15) 0.24780(15)
C11 C 0.8299(2) 0.18618(15) 0.06675(15)
C12 C 0.6349(2) 0.50941(15) 0.11759(15)
C13 C 0.6156(2) 0.02124(15) 0.28228(15)
C14 C 0.6774(2) 0.26602(14) 0.10892(14)
C15 C 0.7480(2) 0.08512(15) 0.27086(15)
H3 H 0.7998 0.1230 0.3284
C16 C 0.6111(2) 0.59590(15) 0.16212(15)
H4 H 0.5154 0.5794 0.1583
C17 C 0.7210(2) 0.47147(16) -0.00981(14)
C18 C 0.6765(2) 0.53465(16) 0.04155(15)
C19 C 0.8183(2) 0.13480(15) 0.14257(15)
C20 C 0.6894(2) 0.63736(15) 0.25837(16)
C21 C 0.6773(2) 0.63353(16) 0.03019(16)
C22 C 0.8304(2) 0.02518(16) 0.24531(17)
C23 C 0.5573(2) 0.40503(16) 0.29657(16)
C24 C 0.8263(2) 0.64723(16) 0.29267(16)
C25 C 0.8721(2) 0.05603(16) 0.17166(16)
C26 C 0.6363(3) 0.27954(17) 0.34104(16)
C27 C 0.6386(2) 0.67015(16) 0.09915(16)
C28 C 0.5025(2) -0.02049(16) 0.21067(17)
C29 C 0.8525(2) 0.33346(17) -0.05418(15)
C30 C 0.6141(3) -0.00311(17) 0.36828(17)
C31 C 0.9233(2) 0.19958(17) 0.01370(16)
H5 H 0.9782 0.1599 0.0179
C32 C 0.8071(3) 0.48924(18) -0.06833(16)
H6 H 0.8203 0.5466 -0.0931
C33 C 0.8695(3) 0.42506(19) -0.08845(16)
H7 H 0.9249 0.4408 -0.1255
C34 C 0.7045(3) 0.68901(19) -0.03712(19)
H8 H 0.7291 0.6646 -0.0840
C35 C 0.8621(3) -0.05291(18) 0.2831(2)
H9 H 0.8318 -0.0750 0.3310
C36 C 0.6292(3) 0.76355(17) 0.10395(19)
H10 H 0.6049 0.7887 0.1506
C37 C 0.4987(3) -0.06729(19) 0.3798(2)
H11 H 0.4979 -0.0826 0.4367
C38 C 0.9340(3) 0.26936(18) -0.04320(17)
H12 H 0.9963 0.2750 -0.0755
C39 C 0.3896(3) -0.08460(18) 0.2260(2)
H13 H 0.3145 -0.1118 0.1781
C40 C 0.3858(3) -0.10873(19) 0.3095(2)
C41 C 0.9484(3) 0.01016(18) 0.1358(2)
H14 H 0.9760 0.0302 0.0864
C42 C 0.8927(3) 0.6914(2) 0.37944(18)
H15 H 0.9826 0.6952 0.4024
C43 C 0.6243(3) 0.67579(17) 0.31184(18)
C44 C 0.9078(2) 0.6168(2) 0.23871(19)
H16 H 0.8786 0.5482 0.2257
H17 H 1.0008 0.6378 0.2718
H18 H 0.8962 0.6450 0.1841
C45 C 0.6570(3) 0.81757(19) 0.0373(2)
H19 H 0.6507 0.8798 0.0393
C46 C 0.4928(3) -0.0021(2) 0.11531(18)
H20 H 0.4835 0.0608 0.1080
H21 H 0.4162 -0.0491 0.0763
H22 H 0.5726 -0.0062 0.1011
C47 C 0.5522(3) 0.3635(2) 0.44957(18)
H23 H 0.5505 0.3063 0.4789
H24 H 0.4637 0.3720 0.4376
C48 C 0.6970(3) 0.7212(2) 0.3966(2)
H25 H 0.6536 0.7473 0.4310
C49 C 0.6937(3) 0.78177(19) -0.0318(2)
H26 H 0.7115 0.8200 -0.0757
C50 C 0.7311(3) 0.0363(2) 0.44936(19)
H27 H 0.8063 0.0170 0.4421
H28 H 0.7074 0.0120 0.5008
H29 H 0.7544 0.1051 0.4570
C51 C 0.8314(3) 0.7295(2) 0.43230(19)
C52 C 0.9390(3) -0.0969(2) 0.2483(2)
H30 H 0.9625 -0.1482 0.2740
C53 C 0.4782(3) 0.6706(2) 0.2806(2)
H31 H 0.4633 0.7043 0.2296
H32 H 0.4535 0.6993 0.3274
H33 H 0.4249 0.6046 0.2649
C54 C 0.9822(3) -0.0659(2) 0.1755(2)
H34 H 1.0343 -0.0965 0.1531
C55 C 0.6533(3) 0.4494(2) 0.5111(2)
H35 H 0.6586 0.5058 0.4802
H36 H 0.6220 0.4600 0.5623
C56 C 0.8664(4) 0.5455(3) 0.6896(2)
H37 H 0.8466 0.4869 0.7169
H38 H 0.7872 0.5674 0.6770
C57 C 0.7906(4) 0.4378(3) 0.5426(2)
H39 H 0.8205 0.4256 0.4911
H40 H 0.7849 0.3818 0.5742
C58 C 0.2627(3) -0.1781(3) 0.3238(3)
H41 H 0.2305 -0.2327 0.2790
H42 H 0.1943 -0.1469 0.3199
H43 H 0.2852 -0.1988 0.3816
C59 C 0.8959(4) 0.5239(3) 0.6034(3)
H44 H 0.9824 0.5118 0.6166
H45 H 0.9022 0.5799 0.5719
C60 C 0.9082(5) 0.7812(3) 0.5243(2)
H46 H 0.9976 0.7759 0.5390
H47 H 0.8640 0.7530 0.5668
H48 H 0.9117 0.8477 0.5255
C61 C 0.9809(4) 0.6208(3) 0.7546(3)
H49 H 0.9960 0.6806 0.7301
H50 H 1.0606 0.6009 0.7655
H51 H 0.9589 0.6287 0.8095
loop_
_geom_bond_atom_site_label_1
_geom_bond_atom_site_label_2
_geom_bond_site_symmetry_1
_geom_bond_site_symmetry_2
Cl1 C1 1_555 1_555
Cl2 C1 1_555 1_555
C1 H1 1_555 1_555
H2 C1 1_555 1_555
O1 C23 1_555 1_555
O2 C26 1_555 1_555
N1 C23 1_555 1_555
C2 C6 1_555 1_555
C3 C8 1_555 1_555
C4 C5 1_555 1_555
C5 C6 1_555 1_555
C6 C29 1_555 1_555
C7 C9 1_555 1_555
C8 C4 1_555 1_555
C9 C10 1_555 1_555
C10 C3 1_555 1_555
C11 C2 1_555 1_555
C12 C8 1_555 1_555
C13 C15 1_555 1_555
C14 C2 1_555 1_555
C15 C7 1_555 1_555
H3 C15 1_555 1_555
C16 C12 1_555 1_555
H4 C16 1_555 1_555
C17 C5 1_555 1_555
C18 C12 1_555 1_555
C19 C7 1_555 1_555
C20 C16 1_555 1_555
C21 C18 1_555 1_555
C22 C15 1_555 1_555
C23 C3 1_555 1_555
C24 C20 1_555 1_555
C25 C19 1_555 1_555
C26 N1 1_555 1_555
C27 C16 1_555 1_555
C28 C13 1_555 1_555
C29 C33 1_555 1_555
C30 C13 1_555 1_555
C31 C11 1_555 1_555
H5 C31 1_555 1_555
C32 C17 1_555 1_555
H6 C32 1_555 1_555
C33 C32 1_555 1_555
H7 C33 1_555 1_555
C34 C21 1_555 1_555
H8 C34 1_555 1_555
C35 C22 1_555 1_555
H9 C35 1_555 1_555
C36 C27 1_555 1_555
H10 C36 1_555 1_555
C37 C30 1_555 1_555
H11 C37 1_555 1_555
C38 C29 1_555 1_555
H12 C38 1_555 1_555
C39 C28 1_555 1_555
H13 C39 1_555 1_555
C40 C37 1_555 1_555
C41 C25 1_555 1_555
H14 C41 1_555 1_555
C42 C24 1_555 1_555
H15 C42 1_555 1_555
C43 C20 1_555 1_555
C44 C24 1_555 1_555
H16 C44 1_555 1_555
H17 C44 1_555 1_555
H18 C44 1_555 1_555
C45 C36 1_555 1_555
H19 C45 1_555 1_555
C46 C28 1_555 1_555
H20 C46 1_555 1_555
H21 C46 1_555 1_555
H22 C46 1_555 1_555
C47 N1 1_555 1_555
H23 C47 1_555 1_555
H24 C47 1_555 1_555
C48 C43 1_555 1_555
H25 C48 1_555 1_555
C49 C34 1_555 1_555
H26 C49 1_555 1_555
C50 C30 1_555 1_555
H27 C50 1_555 1_555
H28 C50 1_555 1_555
H29 C50 1_555 1_555
C51 C42 1_555 1_555
C52 C35 1_555 1_555
H30 C52 1_555 1_555
C53 C43 1_555 1_555
H31 C53 1_555 1_555
H32 C53 1_555 1_555
H33 C53 1_555 1_555
C54 C41 1_555 1_555
H34 C54 1_555 1_555
C55 C47 1_555 1_555
H35 C55 1_555 1_555
H36 C55 1_555 1_555
C56 H37 1_555 1_555
H38 C56 1_555 1_555
C57 C55 1_555 1_555
H39 C57 1_555 1_555
H40 C57 1_555 1_555
C58 C40 1_555 1_555
H41 C58 1_555 1_555
H42 C58 1_555 1_555
H43 C58 1_555 1_555
C59 C56 1_555 1_555
H44 C59 1_555 1_555
H45 C59 1_555 1_555
C60 C51 1_555 1_555
H46 C60 1_555 1_555
H47 C60 1_555 1_555
H48 C60 1_555 1_555
C61 C56 1_555 1_555
H49 C61 1_555 1_555
H50 C61 1_555 1_555
H51 C61 1_555 1_555
C4 C14 1_555 1_555
C9 C14 1_555 1_555
C10 C26 1_555 1_555
C11 C19 1_555 1_555
C17 C18 1_555 1_555
C21 C27 1_555 1_555
C22 C25 1_555 1_555
C31 C38 1_555 1_555
C39 C40 1_555 1_555
C45 C49 1_555 1_555
C48 C51 1_555 1_555
C52 C54 1_555 1_555
C57 C59 1_555 1_555

#END
