
#######################################################################
#
#                 Cambridge Crystallographic Data Centre
#                                CCDC 
#
#######################################################################
#
# If this CIF has been generated from an entry in the Cambridge 
# Structural Database, then it will include bibliographic, chemical, 
# crystal, experimental, refinement or atomic coordinate data resulting 
# from the CCDC's data processing and validation procedures.
#
#######################################################################

data_JIFCOT
_chemical_formula_moiety         'C24 H24 N5 O1 1+,C7 H4 N1 O3 S1 1-'
_chemical_name_systematic        
'4-{[(3-{[4-(1-cyanocyclopentyl)phenyl]carbamoyl}pyridin-2-yl)amino]methyl}pyridin-1-ium 1,1,3-trioxo-1,3-dihydro-1,2-benzothiazol-2-ide'
_symmetry_cell_setting           monoclinic
_symmetry_space_group_name_H-M   'C 2/c'
_symmetry_Int_Tables_number      15
_space_group_name_Hall           '-C 2yn'
loop_
_symmetry_equiv_pos_site_id
_symmetry_equiv_pos_as_xyz
1 x,y,z
2 -x,y,1/2-z
3 1/2+x,1/2+y,z
4 1/2-x,1/2+y,1/2-z
5 -x,-y,-z
6 x,-y,1/2+z
7 1/2-x,1/2-y,-z
8 1/2+x,1/2-y,1/2+z
_cell_length_a                   18.1887(17)
_cell_length_b                   8.4040(11)
_cell_length_c                   36.630(4)
_cell_angle_alpha                90
_cell_angle_beta                 98.093(6)
_cell_angle_gamma                90
_cell_volume                     5543.42
_exptl_crystal_colour            'light colorless'
_exptl_crystal_description       needle
_cell_formula_units_Z            8
loop_
_atom_site_label
_atom_site_type_symbol
_atom_site_fract_x
_atom_site_fract_y
_atom_site_fract_z
S1 S 0.12685(4) 1.29279(11) 0.19539(2)
O1 O 0.13030(11) 1.3505(3) 0.29422(5)
O2 O 0.05792(11) 1.2784(3) 0.17120(6)
O3 O 0.18946(12) 1.2152(3) 0.18315(6)
N1 N 0.11702(14) 1.2394(3) 0.23686(7)
C1 C 0.14951(13) 1.5129(4) 0.24250(7)
C2 C 0.16715(14) 1.6585(4) 0.25873(8)
H1 H 0.1688 1.6725 0.2846
C3 C 0.13126(14) 1.3602(4) 0.26021(8)
C4 C 0.14825(13) 1.4936(4) 0.20518(7)
C5 C 0.18237(14) 1.7834(4) 0.23645(9)
H2 H 0.1936 1.8851 0.2471
C6 C 0.16476(15) 1.6184(5) 0.18275(8)
H3 H 0.1644 1.6036 0.1570
C7 C 0.18162(15) 1.7639(5) 0.19901(9)
H4 H 0.1928 1.8515 0.1844
O4 O 0.20568(9) 0.2848(2) 0.38981(5)
N2 N 0.19652(11) 0.1576(3) 0.44347(6)
H5 H 0.1752 0.1593 0.4636
N3 N 0.09707(11) 0.5047(3) 0.36951(6)
H6 H 0.1322 0.4465 0.3620
N4 N 0.04490(12) 0.6176(3) 0.41644(6)
N5 N 0.10421(15) 1.0599(4) 0.31626(7)
C8 C 0.06875(13) 0.7563(3) 0.33430(6)
C9 C 0.09266(13) 0.5107(3) 0.40595(7)
C10 C 0.33618(12) -0.2369(3) 0.43450(6)
C11 C 0.24296(12) 0.0261(3) 0.43868(6)
C12 C 0.13540(13) 0.4089(3) 0.43211(7)
C13 C 0.18195(13) 0.2815(3) 0.41967(7)
C14 C 0.12951(14) 0.4334(4) 0.46874(7)
H7 H 0.1586 0.3712 0.4870
C15 C 0.38606(13) -0.3801(3) 0.43159(6)
C16 C 0.35217(14) -0.0898(4) 0.42045(7)
H8 H 0.3955 -0.0786 0.4089
C17 C 0.30723(13) 0.0404(4) 0.42263(7)
H9 H 0.3202 0.1402 0.4131
C18 C 0.27145(13) -0.2492(3) 0.45019(7)
H10 H 0.2585 -0.3487 0.4598
C19 C 0.22525(13) -0.1199(4) 0.45221(7)
H11 H 0.1810 -0.1318 0.4630
C20 C 0.36461(14) -0.4727(3) 0.39520(7)
H12 H 0.3224 -0.5452 0.3970
H13 H 0.3507 -0.3986 0.3744
C21 C 0.13368(14) 0.8270(4) 0.35035(7)
H14 H 0.1669 0.7703 0.3680
C22 C 0.04675(14) 0.5895(3) 0.34238(7)
H15 H -0.0026 0.5928 0.3508
H16 H 0.0413 0.5281 0.3191
C23 C 0.02220(14) 0.8451(4) 0.30873(7)
H17 H -0.0230 0.8002 0.2970
C24 C 0.04088(17) 0.9948(4) 0.30052(8)
H18 H 0.0083 1.0549 0.2832
C25 C 0.08225(17) 0.5463(4) 0.47919(8)
H19 H 0.0785 0.5642 0.5045
C26 C 0.15024(17) 0.9785(4) 0.34083(8)
H20 H 0.1952 1.0264 0.3519
C27 C 0.04088(17) 0.6317(4) 0.45223(8)
H21 H 0.0067 0.7068 0.4595
C28 C 0.38032(17) -0.4888(4) 0.46253(8)
N6 N 0.37537(19) -0.5737(4) 0.48626(8)
C29 C 0.46979(14) -0.3453(4) 0.43129(9)
H22 H 0.4765 -0.2378 0.4212
H23 H 0.4970 -0.3507 0.4566
C30 C 0.43336(16) -0.5653(4) 0.39005(9)
H24 H 0.4331 -0.6709 0.4020
H25 H 0.4362 -0.5810 0.3635
C31 C 0.49795(16) -0.4672(5) 0.40780(10)
H26 H 0.5345 -0.5363 0.4229
H27 H 0.5230 -0.4156 0.3886
H28 H 0.1188(18) 1.167(5) 0.3095(9)
loop_
_geom_bond_atom_site_label_1
_geom_bond_atom_site_label_2
_geom_bond_site_symmetry_1
_geom_bond_site_symmetry_2
S1 O2 1_555 1_555
O1 C3 1_555 1_555
O3 S1 1_555 1_555
N1 S1 1_555 1_555
C1 C2 1_555 1_555
C2 H1 1_555 1_555
C3 N1 1_555 1_555
C4 S1 1_555 1_555
C5 C2 1_555 1_555
H2 C5 1_555 1_555
C6 C4 1_555 1_555
H3 C6 1_555 1_555
C7 C5 1_555 1_555
H4 C7 1_555 1_555
O4 C13 1_555 1_555
N2 H5 1_555 1_555
N3 H6 1_555 1_555
N4 C9 1_555 1_555
N5 C24 1_555 1_555
C8 C21 1_555 1_555
C9 N3 1_555 1_555
C10 C15 1_555 1_555
C11 N2 1_555 1_555
C12 C9 1_555 1_555
C13 N2 1_555 1_555
C14 C12 1_555 1_555
H7 C14 1_555 1_555
C15 C20 1_555 1_555
C16 C10 1_555 1_555
H8 C16 1_555 1_555
C17 C11 1_555 1_555
H9 C17 1_555 1_555
C18 C10 1_555 1_555
H10 C18 1_555 1_555
C19 C11 1_555 1_555
H11 C19 1_555 1_555
C20 H12 1_555 1_555
H13 C20 1_555 1_555
C21 H14 1_555 1_555
C22 N3 1_555 1_555
H15 C22 1_555 1_555
H16 C22 1_555 1_555
C23 C8 1_555 1_555
H17 C23 1_555 1_555
C24 C23 1_555 1_555
H18 C24 1_555 1_555
C25 C14 1_555 1_555
H19 C25 1_555 1_555
C26 N5 1_555 1_555
H20 C26 1_555 1_555
C27 N4 1_555 1_555
H21 C27 1_555 1_555
C28 C15 1_555 1_555
N6 C28 1_555 1_555
C29 C15 1_555 1_555
H22 C29 1_555 1_555
H23 C29 1_555 1_555
C30 C20 1_555 1_555
H24 C30 1_555 1_555
H25 C30 1_555 1_555
C31 C29 1_555 1_555
H26 C31 1_555 1_555
H27 C31 1_555 1_555
H28 N5 1_555 1_555
C1 C3 1_555 1_555
C1 C4 1_555 1_555
C6 C7 1_555 1_555
C8 C22 1_555 1_555
C12 C13 1_555 1_555
C16 C17 1_555 1_555
C18 C19 1_555 1_555
C21 C26 1_555 1_555
C25 C27 1_555 1_555
C30 C31 1_555 1_555

#END
