
#######################################################################
#
#                 Cambridge Crystallographic Data Centre
#                                CCDC 
#
#######################################################################
#
# If this CIF has been generated from an entry in the Cambridge 
# Structural Database, then it will include bibliographic, chemical, 
# crystal, experimental, refinement or atomic coordinate data resulting 
# from the CCDC's data processing and validation procedures.
#
#######################################################################

data_JIFJUG
_chemical_formula_moiety         'C17 H20 N2 O2 S1'
_chemical_name_systematic        'pentyl (1-naphthylcarbamothioyl)carbamate'
_symmetry_cell_setting           triclinic
_symmetry_space_group_name_H-M   'P -1'
_symmetry_Int_Tables_number      2
_space_group_name_Hall           '-P 1'
loop_
_symmetry_equiv_pos_site_id
_symmetry_equiv_pos_as_xyz
1 x,y,z
2 -x,-y,-z
_cell_length_a                   7.139(5)
_cell_length_b                   10.751(5)
_cell_length_c                   12.442(5)
_cell_angle_alpha                109.738(5)
_cell_angle_beta                 99.872(5)
_cell_angle_gamma                106.335(5)
_cell_volume                     824.174
_exptl_crystal_colour            colorless
_exptl_crystal_description       prism
_cell_formula_units_Z            2
loop_
_atom_site_label
_atom_site_type_symbol
_atom_site_fract_x
_atom_site_fract_y
_atom_site_fract_z
S1 S 1.27788(5) 1.02379(3) 0.61651(3)
O1 O 0.83935(15) 0.56226(10) 0.47063(10)
O2 O 0.63881(14) 0.64925(10) 0.37971(9)
N1 N 1.21641(17) 0.75954(12) 0.59619(10)
H1 H 1.140(3) 0.675(2) 0.5683(16)
N2 N 0.95302(17) 0.79258(12) 0.48651(10)
H2 H 0.912(3) 0.854(2) 0.4651(16)
C1 C 1.4102(2) 0.80383(13) 0.68130(12)
C2 C 1.5866(2) 0.84324(15) 0.65090(13)
H3 H 1.5809 0.8437 0.5742
C3 C 1.7768(2) 0.88316(16) 0.73424(13)
H4 H 1.8993 0.9107 0.7135
C4 C 1.7855(2) 0.88244(15) 0.84470(13)
H5 H 1.9143 0.9073 0.8992
C5 C 1.6062(2) 0.84542(14) 0.87927(12)
C6 C 1.6127(2) 0.85144(16) 0.99583(13)
H6 H 1.7405 0.8773 1.0517
C7 C 1.4381(2) 0.82065(17) 1.02867(13)
H7 H 1.4453 0.8271 1.1074
C8 C 1.2468(2) 0.77928(16) 0.94566(13)
H8 H 1.1257 0.7573 0.9688
C9 C 1.2341(2) 0.77059(15) 0.83213(13)
H9 H 1.1041 0.7413 0.7769
C10 C 1.4130(2) 0.80492(13) 0.79618(12)
C11 C 1.1473(2) 0.84912(14) 0.56513(11)
C12 C 0.8111(2) 0.65732(14) 0.44722(12)
C13 C 0.467(2) 0.5149(15) 0.3335(7)
H10 H 0.4042 0.5069 0.3969
H11 H 0.5142 0.4346 0.3049
C14 C 0.3155(4) 0.5122(3) 0.2320(3)
H12 H 0.2065 0.4166 0.1928
H13 H 0.3853 0.5263 0.1725
C15 C 0.2166(3) 0.6211(2) 0.26550(19)
H14 H 0.3236 0.7174 0.3033
H15 H 0.1452 0.6078 0.3246
C16 C 0.0648(3) 0.6090(2) 0.15709(19)
H16 H 0.1346 0.6137 0.0956
H17 H -0.0467 0.5148 0.1233
C17 C -0.0265(6) 0.7207(5) 0.1825(4)
H18 H -0.1122 0.7112 0.1075
H19 H 0.0828 0.8147 0.2209
H20 H -0.1102 0.7097 0.2359
C18? C 0.455(7) 0.518(5) 0.337(2)
H21? H 0.3614 0.5321 0.3855
H22? H 0.4953 0.4381 0.3412
C19? C 0.3543(17) 0.4861(11) 0.2091(10)
H23? H 0.4497 0.4668 0.1622
H24? H 0.2321 0.3979 0.1773
C20? C 0.2897(9) 0.5989(7) 0.1873(6)
H25? H 0.4114 0.6872 0.2179
H26? H 0.2362 0.5686 0.1000
C21? C 0.1313(13) 0.6307(8) 0.2438(7)
H27? H 0.0132 0.5416 0.2189
H28? H 0.1883 0.6706 0.3318
C22? C 0.062(2) 0.7326(14) 0.2097(13)
H29? H 0.0214 0.7896 0.2748
H30? H -0.0553 0.6807 0.1373
H31? H 0.1732 0.7951 0.1942
loop_
_geom_bond_atom_site_label_1
_geom_bond_atom_site_label_2
_geom_bond_site_symmetry_1
_geom_bond_site_symmetry_2
S1 C11 1_555 1_555
O1 C12 1_555 1_555
O2 C12 1_555 1_555
N1 H1 1_555 1_555
N2 H2 1_555 1_555
C1 N1 1_555 1_555
C2 C1 1_555 1_555
H3 C2 1_555 1_555
C3 C2 1_555 1_555
H4 C3 1_555 1_555
C4 C3 1_555 1_555
H5 C4 1_555 1_555
C5 C4 1_555 1_555
C6 C5 1_555 1_555
H6 C6 1_555 1_555
C7 C6 1_555 1_555
H7 C7 1_555 1_555
C8 C7 1_555 1_555
H8 C8 1_555 1_555
C9 C8 1_555 1_555
H9 C9 1_555 1_555
C10 C1 1_555 1_555
C11 N1 1_555 1_555
C12 N2 1_555 1_555
C13 O2 1_555 1_555
H10 C13 1_555 1_555
H11 C13 1_555 1_555
C14 C13 1_555 1_555
H12 C14 1_555 1_555
H13 C14 1_555 1_555
C15 C14 1_555 1_555
H14 C15 1_555 1_555
H15 C15 1_555 1_555
C16 C15 1_555 1_555
H16 C16 1_555 1_555
H17 C16 1_555 1_555
C17 C16 1_555 1_555
H18 C17 1_555 1_555
H19 C17 1_555 1_555
H20 C17 1_555 1_555
N2 C11 1_555 1_555
C5 C10 1_555 1_555
C9 C10 1_555 1_555

#END
