
#######################################################################
#
#                 Cambridge Crystallographic Data Centre
#                                CCDC 
#
#######################################################################
#
# If this CIF has been generated from an entry in the Cambridge 
# Structural Database, then it will include bibliographic, chemical, 
# crystal, experimental, refinement or atomic coordinate data resulting 
# from the CCDC's data processing and validation procedures.
#
#######################################################################

data_JIFRIC
_chemical_formula_moiety         'C18 H20 O4'
_chemical_name_systematic        
7a-(benzyloxy)-7-methylhexahydro-2,7-ethanocyclopenta[b]pyran-4,6-dione
_symmetry_cell_setting           orthorhombic
_symmetry_space_group_name_H-M   'P 21 21 21'
_symmetry_Int_Tables_number      19
_space_group_name_Hall           'P 2ac 2ab'
loop_
_symmetry_equiv_pos_site_id
_symmetry_equiv_pos_as_xyz
1 x,y,z
2 1/2-x,-y,1/2+z
3 -x,1/2+y,1/2-z
4 1/2+x,1/2-y,-z
_cell_length_a                   10.2087(2)
_cell_length_b                   11.6717(2)
_cell_length_c                   13.2472(2)
_cell_angle_alpha                90
_cell_angle_beta                 90
_cell_angle_gamma                90
_cell_volume                     1578.44
_exptl_crystal_colour            colorless
_exptl_crystal_description       prismatic
_cell_formula_units_Z            4
loop_
_atom_site_label
_atom_site_type_symbol
_atom_site_fract_x
_atom_site_fract_y
_atom_site_fract_z
O1 O 0.02775(17) 0.61743(12) -0.02956(11)
O2 O -0.0253(3) 0.3965(2) -0.26181(18)
O3 O 0.2993(3) 0.2873(3) -0.0077(3)
O4 O 0.03607(15) 0.47959(17) 0.08944(11)
C1 C -0.0277(3) 0.5861(2) -0.20357(18)
H1 H -0.1184 0.6084 -0.1944
H2 H -0.0027 0.6059 -0.2720
C2 C -0.0169(2) 0.4605(2) -0.19087(18)
C3 C -0.0026(2) 0.41705(19) -0.0842(2)
H3 H -0.0900 0.3995 -0.0578
C4 C 0.06418(19) 0.50328(18) -0.01186(15)
C5 C 0.2118(2) 0.4792(2) -0.02467(17)
C6 C 0.2110(3) 0.3501(3) -0.0317(2)
C7 C 0.0819(3) 0.3100(2) -0.0751(3)
H4 H 0.0409 0.2545 -0.0307
H5 H 0.0948 0.2750 -0.1407
C8 C 0.2545(2) 0.5249(3) -0.12979(18)
H6 H 0.3493 0.5255 -0.1337
H7 H 0.2220 0.4738 -0.1819
C9 C 0.2032(3) 0.6446(3) -0.1489(2)
H8 H 0.2218 0.6660 -0.2182
H9 H 0.2485 0.6981 -0.1051
C10 C 0.0568(3) 0.6535(2) -0.13039(19)
H10 H 0.0323 0.7345 -0.1362
C11 C 0.2980(3) 0.5265(4) 0.0589(2)
H11 H 0.2631 0.5042 0.1233
H12 H 0.3003 0.6086 0.0546
H13 H 0.3852 0.4967 0.0518
C12 C -0.0966(3) 0.4997(4) 0.1211(2)
H14 H -0.1567 0.4540 0.0811
H15 H -0.1191 0.5799 0.1126
C13 C -0.1058(2) 0.4667(2) 0.22968(17)
C14 C -0.0944(3) 0.3544(3) 0.2595(2)
H16 H -0.0811 0.2980 0.2109
C15 C -0.1022(3) 0.3236(3) 0.3586(3)
H17 H -0.0935 0.2471 0.3770
C16 C -0.1225(3) 0.4040(4) 0.4300(3)
H18 H -0.1284 0.3822 0.4974
C17 C -0.1344(3) 0.5154(4) 0.4053(2)
H19 H -0.1482 0.5701 0.4552
C18 C -0.1259(3) 0.5483(3) 0.3038(2)
H20 H -0.1337 0.6251 0.2863
loop_
_geom_bond_atom_site_label_1
_geom_bond_atom_site_label_2
_geom_bond_site_symmetry_1
_geom_bond_site_symmetry_2
O1 C4 1_555 1_555
O2 C2 1_555 1_555
O3 C6 1_555 1_555
O4 C4 1_555 1_555
C1 H1 1_555 1_555
H2 C1 1_555 1_555
C2 C1 1_555 1_555
C3 C2 1_555 1_555
H3 C3 1_555 1_555
C4 C3 1_555 1_555
C5 C4 1_555 1_555
C6 C5 1_555 1_555
C7 C3 1_555 1_555
H4 C7 1_555 1_555
H5 C7 1_555 1_555
C8 C5 1_555 1_555
H6 C8 1_555 1_555
H7 C8 1_555 1_555
C9 C8 1_555 1_555
H8 C9 1_555 1_555
H9 C9 1_555 1_555
C10 O1 1_555 1_555
H10 C10 1_555 1_555
C11 C5 1_555 1_555
H11 C11 1_555 1_555
H12 C11 1_555 1_555
H13 C11 1_555 1_555
C12 O4 1_555 1_555
H14 C12 1_555 1_555
H15 C12 1_555 1_555
C13 C12 1_555 1_555
C14 C13 1_555 1_555
H16 C14 1_555 1_555
C15 C14 1_555 1_555
H17 C15 1_555 1_555
C16 C15 1_555 1_555
H18 C16 1_555 1_555
C17 C16 1_555 1_555
H19 C17 1_555 1_555
C18 C13 1_555 1_555
H20 C18 1_555 1_555
C1 C10 1_555 1_555
C6 C7 1_555 1_555
C9 C10 1_555 1_555
C17 C18 1_555 1_555

#END
