
#######################################################################
#
#                 Cambridge Crystallographic Data Centre
#                                CCDC 
#
#######################################################################
#
# If this CIF has been generated from an entry in the Cambridge 
# Structural Database, then it will include bibliographic, chemical, 
# crystal, experimental, refinement or atomic coordinate data resulting 
# from the CCDC's data processing and validation procedures.
#
#######################################################################

data_JIHTOM
_chemical_formula_moiety         'C26 H26 N2 O5'
_chemical_name_systematic        
'diethyl 3-[(3-methyl-5-oxo-1-phenyl-1,5-dihydro-4H-pyrazol-4-ylidene)(phenyl)methyl]cyclopropane-1,2-dicarboxylate'
_symmetry_cell_setting           monoclinic
_symmetry_space_group_name_H-M   'P 21/c'
_symmetry_Int_Tables_number      14
_space_group_name_Hall           '-P 2ybc'
loop_
_symmetry_equiv_pos_site_id
_symmetry_equiv_pos_as_xyz
1 x,y,z
2 -x,1/2+y,1/2-z
3 -x,-y,-z
4 x,1/2-y,1/2+z
_cell_length_a                   10.3102(3)
_cell_length_b                   11.9698(2)
_cell_length_c                   19.0597(5)
_cell_angle_alpha                90
_cell_angle_beta                 98.525(2)
_cell_angle_gamma                90
_cell_volume                     2326.19
_exptl_crystal_colour            yellow
_exptl_crystal_description       block
_cell_formula_units_Z            4
loop_
_atom_site_label
_atom_site_type_symbol
_atom_site_fract_x
_atom_site_fract_y
_atom_site_fract_z
O1 O 0.89304(13) 0.18622(12) 0.48546(7)
O2 O 0.69872(14) 0.54971(11) 0.64543(9)
N1 N 0.49135(15) 0.62671(11) 0.62555(9)
O3 O 0.90143(17) 0.10532(14) 0.70400(10)
N2 N 0.36360(15) 0.59425(12) 0.59631(9)
C1 C 0.50136(16) 0.44581(13) 0.59308(9)
O4 O 0.8855(2) 0.28415(17) 0.73442(12)
C2 C 0.45248(16) 0.24392(13) 0.57582(9)
C3 C 0.54543(16) 0.33956(13) 0.58886(8)
C4 C 0.68702(17) 0.31348(14) 0.60420(10)
H1 H 0.7440 0.3780 0.6172
C5 C 0.58195(17) 0.54267(13) 0.62349(10)
O5 O 0.9558(2) 0.3081(2) 0.57157(14)
C6 C 0.36821(17) 0.49069(14) 0.57783(9)
C7 C 0.74666(18) 0.22236(15) 0.56297(11)
H2 H 0.6851 0.1802 0.5288
C8 C 0.43844(19) 0.18190(15) 0.51344(10)
H3 H 0.4836 0.2027 0.4767
C9 C 0.73336(19) 0.20653(15) 0.63999(11)
H4 H 0.6630 0.1555 0.6484
C10 C 0.50934(19) 0.73157(14) 0.66015(9)
C11 C 0.3837(2) 0.21238(16) 0.62966(11)
H5 H 0.3919 0.2534 0.6715
C12 C 0.87648(18) 0.24613(17) 0.54182(12)
C13 C 0.4032(2) 0.78335(16) 0.68331(11)
H6 H 0.3214 0.7490 0.6766
C14 C 0.6317(2) 0.78247(16) 0.67023(11)
H7 H 0.7034 0.7477 0.6551
C15 C 0.2465(2) 0.43663(18) 0.54063(13)
H8 H 0.2140 0.3843 0.5720
H9 H 0.2660 0.3982 0.4993
H10 H 0.1812 0.4927 0.5267
C16 C 0.8498(2) 0.20615(18) 0.69696(12)
C17 C 0.3573(2) 0.08946(18) 0.50605(13)
H11 H 0.3480 0.0483 0.4642
C18 C 0.3024(2) 0.11954(18) 0.62113(14)
H12 H 0.2556 0.0990 0.6572
C19 C 0.2903(2) 0.05788(17) 0.55999(14)
H13 H 0.2370 -0.0051 0.5550
C20 C 0.6453(3) 0.88590(17) 0.70318(12)
H14 H 0.7268 0.9207 0.7101
C21 C 0.4191(3) 0.88598(18) 0.71639(12)
H15 H 0.3481 0.9204 0.7324
C22 C 0.5399(3) 0.93781(17) 0.72585(12)
H16 H 0.5501 1.0076 0.7475
C23 C 1.0153(2) 0.2025(2) 0.45784(14)
H17 H 1.0890 0.1944 0.4955
H18 H 1.0182 0.2766 0.4376
C24 C 1.0214(3) 0.1157(3) 0.40202(15)
H19 H 0.9487 0.1252 0.3648
H20 H 1.0175 0.0427 0.4225
H21 H 1.1021 0.1234 0.3829
C25 C 1.0102(3) 0.0866(3) 0.76143(16)
H22 H 1.0733 0.0362 0.7454
H23 H 1.0541 0.1569 0.7744
C26 C 0.9622(3) 0.0389(3) 0.82331(17)
H24 H 0.9186 -0.0306 0.8104
H25 H 0.9017 0.0899 0.8400
H26 H 1.0348 0.0260 0.8602
loop_
_geom_bond_atom_site_label_1
_geom_bond_atom_site_label_2
_geom_bond_site_symmetry_1
_geom_bond_site_symmetry_2
O1 C12 1_555 1_555
O2 C5 1_555 1_555
N1 N2 1_555 1_555
O3 C16 1_555 1_555
N2 C6 1_555 1_555
C1 C3 1_555 1_555
O4 C16 1_555 1_555
C2 C3 1_555 1_555
C3 C4 1_555 1_555
C4 H1 1_555 1_555
C5 N1 1_555 1_555
O5 C12 1_555 1_555
C6 C1 1_555 1_555
C7 C4 1_555 1_555
H2 C7 1_555 1_555
C8 C2 1_555 1_555
H3 C8 1_555 1_555
C9 C4 1_555 1_555
H4 C9 1_555 1_555
C10 N1 1_555 1_555
C11 C2 1_555 1_555
H5 C11 1_555 1_555
C12 C7 1_555 1_555
C13 C10 1_555 1_555
H6 C13 1_555 1_555
C14 C10 1_555 1_555
H7 C14 1_555 1_555
C15 C6 1_555 1_555
H8 C15 1_555 1_555
H9 C15 1_555 1_555
H10 C15 1_555 1_555
C16 C9 1_555 1_555
C17 C8 1_555 1_555
H11 C17 1_555 1_555
C18 C11 1_555 1_555
H12 C18 1_555 1_555
C19 C17 1_555 1_555
H13 C19 1_555 1_555
C20 C14 1_555 1_555
H14 C20 1_555 1_555
C21 C13 1_555 1_555
H15 C21 1_555 1_555
C22 C20 1_555 1_555
H16 C22 1_555 1_555
C23 O1 1_555 1_555
H17 C23 1_555 1_555
H18 C23 1_555 1_555
C24 C23 1_555 1_555
H19 C24 1_555 1_555
H20 C24 1_555 1_555
H21 C24 1_555 1_555
C25 O3 1_555 1_555
H22 C25 1_555 1_555
H23 C25 1_555 1_555
C26 C25 1_555 1_555
H24 C26 1_555 1_555
H25 C26 1_555 1_555
H26 C26 1_555 1_555
C1 C5 1_555 1_555
C7 C9 1_555 1_555
C18 C19 1_555 1_555
C21 C22 1_555 1_555

#END
