
#######################################################################
#
#                 Cambridge Crystallographic Data Centre
#                                CCDC 
#
#######################################################################
#
# If this CIF has been generated from an entry in the Cambridge 
# Structural Database, then it will include bibliographic, chemical, 
# crystal, experimental, refinement or atomic coordinate data resulting 
# from the CCDC's data processing and validation procedures.
#
#######################################################################

data_JIJKIZ
_chemical_formula_moiety         'C10 H9 N1 O1'
_chemical_name_systematic        4-oxo-4-phenylbutanenitrile
_symmetry_cell_setting           monoclinic
_symmetry_space_group_name_H-M   'P 21'
_symmetry_Int_Tables_number      4
_space_group_name_Hall           'P 2yb'
loop_
_symmetry_equiv_pos_site_id
_symmetry_equiv_pos_as_xyz
1 x,y,z
2 -x,1/2+y,-z
_cell_length_a                   7.5235(7)
_cell_length_b                   5.5446(8)
_cell_length_c                   10.2976(10)
_cell_angle_alpha                90
_cell_angle_beta                 99.850(10)
_cell_angle_gamma                90
_cell_volume                     423.23
_exptl_crystal_colour            colorless
_exptl_crystal_description       prism
_cell_formula_units_Z            2
loop_
_atom_site_label
_atom_site_type_symbol
_atom_site_fract_x
_atom_site_fract_y
_atom_site_fract_z
C1 C 0.7224(9) 0.5607(17) 1.0188(6)
C2 C 0.7918(8) 0.3550(17) 0.9528(5)
H1 H 0.7389 0.2069 0.9787
H2 H 0.9216 0.3445 0.9796
C3 C 0.7462(8) 0.3839(14) 0.8031(5)
H3 H 0.6172 0.4070 0.7773
H4 H 0.8063 0.5261 0.7768
C4 C 0.8041(6) 0.1653(15) 0.7328(6)
C5 C 0.7686(6) 0.1703(14) 0.5853(5)
C6 C 0.6758(7) 0.3530(14) 0.5132(5)
H5 H 0.6314 0.4807 0.5567
C7 C 0.6469(7) 0.3503(15) 0.3762(6)
H6 H 0.5865 0.4767 0.3282
C8 C 0.7101(7) 0.1547(15) 0.3119(6)
H7 H 0.6899 0.1485 0.2203
C9 C 0.8008(7) -0.0259(15) 0.3829(5)
H8 H 0.8428 -0.1551 0.3391
C10 C 0.8322(7) -0.0221(14) 0.5188(6)
H9 H 0.8954 -0.1473 0.5659
N1 N 0.6669(10) 0.7182(19) 1.0703(6)
O1 O 0.8785(6) -0.0035(9) 0.7936(4)
loop_
_geom_bond_atom_site_label_1
_geom_bond_atom_site_label_2
_geom_bond_site_symmetry_1
_geom_bond_site_symmetry_2
C1 C2 1_555 1_555
C2 H1 1_555 1_555
H2 C2 1_555 1_555
C3 C2 1_555 1_555
H3 C3 1_555 1_555
H4 C3 1_555 1_555
C4 C3 1_555 1_555
C5 C4 1_555 1_555
C6 C5 1_555 1_555
H5 C6 1_555 1_555
C7 C6 1_555 1_555
H6 C7 1_555 1_555
C8 C7 1_555 1_555
H7 C8 1_555 1_555
C9 C8 1_555 1_555
H8 C9 1_555 1_555
C10 C5 1_555 1_555
H9 C10 1_555 1_555
N1 C1 1_555 1_555
O1 C4 1_555 1_555
C9 C10 1_555 1_555

#END
