
#######################################################################
#
#                 Cambridge Crystallographic Data Centre
#                                CCDC 
#
#######################################################################
#
# If this CIF has been generated from an entry in the Cambridge 
# Structural Database, then it will include bibliographic, chemical, 
# crystal, experimental, refinement or atomic coordinate data resulting 
# from the CCDC's data processing and validation procedures.
#
#######################################################################

data_JIKBUD
_chemical_formula_moiety         'C33 H39 N1 O4'
_chemical_name_systematic        
15'-methoxy-17'-methylidene-19'-phenyl-2',3',7',8',10',11'-hexahydro-1'H,5'H-spiro[cyclohexane-1,9'-[6,18,20]trioxa[12]aza[4,16b,4](epoxymethanetriyloxymethano)cyclopenta[b][1,5]oxazecino[5,4-a]indole]
_symmetry_cell_setting           orthorhombic
_symmetry_space_group_name_H-M   'P b c a'
_symmetry_Int_Tables_number      61
_space_group_name_Hall           '-P 2ac 2ab'
loop_
_symmetry_equiv_pos_site_id
_symmetry_equiv_pos_as_xyz
1 x,y,z
2 1/2-x,-y,1/2+z
3 -x,1/2+y,1/2-z
4 1/2+x,1/2-y,-z
5 -x,-y,-z
6 1/2+x,y,1/2-z
7 x,1/2-y,1/2+z
8 1/2-x,1/2+y,z
_cell_length_a                   15.7847(15)
_cell_length_b                   11.9178(8)
_cell_length_c                   29.113(3)
_cell_angle_alpha                90
_cell_angle_beta                 90
_cell_angle_gamma                90
_cell_volume                     5476.71
_exptl_crystal_description       block
_cell_formula_units_Z            8
loop_
_atom_site_label
_atom_site_type_symbol
_atom_site_fract_x
_atom_site_fract_y
_atom_site_fract_z
O1 O -0.42387(14) -0.32391(16) -0.56424(7)
O2 O -0.41621(12) -0.51194(15) -0.56296(6)
O3 O -0.16612(14) -0.61147(18) -0.72417(8)
O4 O -0.63410(14) -0.5848(2) -0.57895(7)
N1 N -0.48693(15) -0.59710(19) -0.64847(8)
C1 C -0.24564(19) -0.6054(2) -0.70404(9)
C2 C -0.27427(18) -0.5154(2) -0.67782(9)
H1 H -0.2393 -0.4541 -0.6721
C3 C -0.35546(18) -0.5189(2) -0.66061(8)
C4 C -0.40411(18) -0.4299(2) -0.63487(9)
C5 C -0.37704(19) -0.4182(2) -0.58365(9)
C6 C -0.5051(2) -0.3637(3) -0.55889(10)
C7 C -0.50279(18) -0.4845(2) -0.57569(9)
C8 C -0.49547(17) -0.4831(2) -0.62933(9)
C9 C -0.40811(18) -0.6099(2) -0.66861(8)
C10 C -0.37946(19) -0.6995(2) -0.69466(9)
H2 H -0.4143 -0.7609 -0.7002
C11 C -0.29815(19) -0.6960(2) -0.71220(10)
H3 H -0.2784 -0.7557 -0.7298
C12 C -0.5551(2) -0.4058(3) -0.65636(10)
H4 H -0.5968 -0.4493 -0.6732
H5 H -0.5845 -0.3547 -0.6359
C13 C -0.4980(3) -0.3422(4) -0.68890(16)
H6 H -0.4869 -0.3862 -0.7163
H7 H -0.5240 -0.2718 -0.6979
C14 C -0.4170(2) -0.3212(2) -0.66264(10)
H8 H -0.4228 -0.2569 -0.6425
H9 H -0.3700 -0.3084 -0.6834
C15 C -0.1087(2) -0.5271(3) -0.71410(15)
H10 H -0.0549 -0.5448 -0.7276
H11 H -0.1025 -0.5209 -0.6814
H12 H -0.1290 -0.4573 -0.7263
C16 C -0.28528(19) -0.4101(2) -0.57276(9)
C17 C -0.2405(2) -0.3135(3) -0.58301(12)
H13 H -0.2687 -0.2519 -0.5953
C18 C -0.1547(3) -0.3078(4) -0.57517(14)
H14 H -0.1251 -0.2424 -0.5820
C19 C -0.1129(3) -0.3985(4) -0.55730(15)
H15 H -0.0548 -0.3951 -0.5521
C20 C -0.1570(3) -0.4944(4) -0.54715(16)
H16 H -0.1286 -0.5561 -0.5350
C21 C -0.2428(2) -0.5003(3) -0.55474(12)
H17 H -0.2722 -0.5656 -0.5476
C22 C -0.5673(3) -0.3052(4) -0.54129(13)
H18 H -0.559(2) -0.228(3) -0.5341(13)
H19 H -0.620(3) -0.334(3) -0.5378(12)
C23 C -0.5612(2) -0.5667(3) -0.55215(10)
H20 H -0.5318 -0.6373 -0.5475
H21 H -0.5774 -0.5375 -0.5223
C24 C -0.6838(2) -0.6790(3) -0.56433(12)
H22 H -0.7311 -0.6536 -0.5458
H23 H -0.6494 -0.7292 -0.5459
C25 C -0.7160(2) -0.7394(3) -0.60638(12)
H24 H -0.7334 -0.6832 -0.6285
H25 H -0.7664 -0.7808 -0.5976
C26 C -0.6557(2) -0.8216(3) -0.63096(10)
C27 C -0.6521(2) -0.9346(3) -0.60535(12)
H26 H -0.6232 -0.9236 -0.5763
H27 H -0.7095 -0.9586 -0.5986
C28 C -0.6079(3) -1.0268(3) -0.63160(16)
H28 H -0.5479 -1.0095 -0.6336
H29 H -0.6138 -1.0968 -0.6149
C29 C -0.6429(4) -1.0415(4) -0.67948(16)
H30 H -0.6083 -1.0953 -0.6960
H31 H -0.6999 -1.0714 -0.6776
C30 C -0.6445(3) -0.9328(4) -0.70553(13)
H32 H -0.6714 -0.9445 -0.7351
H33 H -0.5869 -0.9077 -0.7110
C31 C -0.6921(2) -0.8436(3) -0.67938(12)
H34 H -0.7509 -0.8662 -0.6765
H35 H -0.6906 -0.7742 -0.6968
C32 C -0.56506(18) -0.7736(2) -0.63475(10)
H36 H -0.5437 -0.7595 -0.6040
H37 H -0.5289 -0.8298 -0.6487
C33 C -0.55848(18) -0.6652(2) -0.66271(9)
H38 H -0.5526 -0.6837 -0.6950
H39 H -0.6103 -0.6223 -0.6590
loop_
_geom_bond_atom_site_label_1
_geom_bond_atom_site_label_2
_geom_bond_site_symmetry_1
_geom_bond_site_symmetry_2
O1 C5 1_555 1_555
O2 C5 1_555 1_555
O3 C1 1_555 1_555
O4 C23 1_555 1_555
N1 C8 1_555 1_555
C1 C2 1_555 1_555
C2 H1 1_555 1_555
C3 C2 1_555 1_555
C4 C3 1_555 1_555
C5 C4 1_555 1_555
C6 O1 1_555 1_555
C7 O2 1_555 1_555
C8 C4 1_555 1_555
C9 N1 1_555 1_555
C10 C9 1_555 1_555
H2 C10 1_555 1_555
C11 C1 1_555 1_555
H3 C11 1_555 1_555
C12 C8 1_555 1_555
H4 C12 1_555 1_555
H5 C12 1_555 1_555
C13 C12 1_555 1_555
H6 C13 1_555 1_555
H7 C13 1_555 1_555
C14 C4 1_555 1_555
H8 C14 1_555 1_555
H9 C14 1_555 1_555
C15 O3 1_555 1_555
H10 C15 1_555 1_555
H11 C15 1_555 1_555
H12 C15 1_555 1_555
C16 C5 1_555 1_555
C17 C16 1_555 1_555
H13 C17 1_555 1_555
C18 C17 1_555 1_555
H14 C18 1_555 1_555
C19 C18 1_555 1_555
H15 C19 1_555 1_555
C20 C19 1_555 1_555
H16 C20 1_555 1_555
C21 C16 1_555 1_555
H17 C21 1_555 1_555
C22 C6 1_555 1_555
H18 C22 1_555 1_555
H19 C22 1_555 1_555
C23 C7 1_555 1_555
H20 C23 1_555 1_555
H21 C23 1_555 1_555
C24 O4 1_555 1_555
H22 C24 1_555 1_555
H23 C24 1_555 1_555
C25 C24 1_555 1_555
H24 C25 1_555 1_555
H25 C25 1_555 1_555
C26 C25 1_555 1_555
C27 C26 1_555 1_555
H26 C27 1_555 1_555
H27 C27 1_555 1_555
C28 C27 1_555 1_555
H28 C28 1_555 1_555
H29 C28 1_555 1_555
C29 C28 1_555 1_555
H30 C29 1_555 1_555
H31 C29 1_555 1_555
C30 C29 1_555 1_555
H32 C30 1_555 1_555
H33 C30 1_555 1_555
C31 C26 1_555 1_555
H34 C31 1_555 1_555
H35 C31 1_555 1_555
C32 C26 1_555 1_555
H36 C32 1_555 1_555
H37 C32 1_555 1_555
C33 N1 1_555 1_555
H38 C33 1_555 1_555
H39 C33 1_555 1_555
C3 C9 1_555 1_555
C6 C7 1_555 1_555
C7 C8 1_555 1_555
C10 C11 1_555 1_555
C13 C14 1_555 1_555
C20 C21 1_555 1_555
C30 C31 1_555 1_555
C32 C33 1_555 1_555

#END
