
#######################################################################
#
#                 Cambridge Crystallographic Data Centre
#                                CCDC 
#
#######################################################################
#
# If this CIF has been generated from an entry in the Cambridge 
# Structural Database, then it will include bibliographic, chemical, 
# crystal, experimental, refinement or atomic coordinate data resulting 
# from the CCDC's data processing and validation procedures.
#
#######################################################################

data_JILCEP
_chemical_formula_moiety         'C40 H88 K4 Li4 O8'
_chemical_name_systematic        
octakis(\m-2-methylbutan-2-olato)-tetra-lithium-tetra-potassium
_symmetry_cell_setting           triclinic
_symmetry_space_group_name_H-M   'P -1'
_symmetry_Int_Tables_number      2
_space_group_name_Hall           '-P 1'
loop_
_symmetry_equiv_pos_site_id
_symmetry_equiv_pos_as_xyz
1 x,y,z
2 -x,-y,-z
_cell_length_a                   11.0933(6)
_cell_length_b                   11.0993(6)
_cell_length_c                   22.0550(11)
_cell_angle_alpha                97.1450(10)
_cell_angle_beta                 94.9960(10)
_cell_angle_gamma                90.0780(10)
_cell_volume                     2684.06
_exptl_crystal_colour            colorless
_exptl_crystal_description       block
_cell_formula_units_Z            2
_chemical_properties_physical    Moisture-sensitive
_exptl_crystal_recrystallization_method 
'Re-crystallisation from solvent: n-hexane'
loop_
_atom_site_label
_atom_site_type_symbol
_atom_site_fract_x
_atom_site_fract_y
_atom_site_fract_z
Li1 Li 0.7959(3) 0.2614(3) 0.35745(16)
Li2 Li 0.6135(3) 0.3886(3) 0.35541(16)
Li3 Li 0.5971(3) 0.1747(3) 0.14476(16)
Li4 Li 0.7253(3) 0.3553(3) 0.14209(16)
K1 K 0.63526(5) 0.53308(5) 0.24374(2)
K2 K 0.92300(4) 0.33853(4) 0.25134(2)
K3 K 0.44365(4) 0.24703(4) 0.25596(2)
K4 K 0.72741(4) 0.05609(5) 0.24872(2)
O1 O 0.90815(13) 0.16278(13) 0.32080(7)
C1 C 1.00448(19) 0.0916(2) 0.33960(10)
C2 C 0.9820(3) -0.0419(3) 0.31194(17)
H1 H 0.9753 -0.0475 0.2680
H2 H 0.9084 -0.0710 0.3252
H3 H 1.0484 -0.0903 0.3254
C3 C 1.1205(2) 0.1346(3) 0.31631(13)
H4 H 1.1370 0.2176 0.3330
H5 H 1.1111 0.1283 0.2723
H6 H 1.1865 0.0849 0.3289
C4 C 1.0174(3) 0.1005(3) 0.40921(12)
H7 H 0.9412 0.0742 0.4221
H8 H 1.0286 0.1855 0.4252
C5 C 1.1185(3) 0.0296(4) 0.44008(16)
H9 H 1.1160 0.0438 0.4838
H10 H 1.1954 0.0562 0.4294
H11 H 1.1075 -0.0555 0.4264
O2 O 0.48538(13) 0.46394(13) 0.31936(6)
C6 C 0.39123(19) 0.5354(2) 0.34035(10)
C7 C 0.2705(2) 0.4682(3) 0.32120(15)
H12 H 0.2707 0.3932 0.3387
H13 H 0.2596 0.4516 0.2773
H14 H 0.2055 0.5178 0.3357
C8 C 0.4067(3) 0.5602(3) 0.41075(11)
H15 H 0.4063 0.4846 0.4277
H16 H 0.3413 0.6094 0.4250
H17 H 0.4822 0.6022 0.4235
C9 C 0.3919(2) 0.6563(2) 0.31349(12)
H18 H 0.3846 0.6384 0.2691
H19 H 0.4703 0.6950 0.3254
C10 C 0.2940(3) 0.7488(3) 0.33147(16)
H20 H 0.3035 0.8198 0.3114
H21 H 0.3020 0.7711 0.3751
H22 H 0.2154 0.7132 0.3191
O3 O 0.51853(13) 0.06376(13) 0.18222(6)
C11 C 0.44929(19) -0.04098(19) 0.16254(10)
C12 C 0.4325(3) -0.0609(3) 0.09242(11)
H23 H 0.5101 -0.0704 0.0764
H24 H 0.3926 0.0078 0.0777
H25 H 0.3842 -0.1328 0.0792
C13 C 0.5130(2) -0.1508(2) 0.18553(13)
H26 H 0.5247 -0.1385 0.2295
H27 H 0.5901 -0.1606 0.1690
H28 H 0.4642 -0.2224 0.1726
C14 C 0.3252(2) -0.0273(2) 0.18830(12)
H29 H 0.3384 -0.0141 0.2327
H30 H 0.2883 0.0454 0.1752
C15 C 0.2341(3) -0.1326(3) 0.17075(15)
H31 H 0.1600 -0.1125 0.1889
H32 H 0.2669 -0.2047 0.1854
H33 H 0.2184 -0.1464 0.1269
O4 O 0.82068(13) 0.48443(13) 0.17706(6)
C16 C 0.8914(2) 0.5728(2) 0.15710(10)
C17 C 1.0230(3) 0.5650(3) 0.18533(19)
H34 H 1.0539 0.4857 0.1733
H35 H 1.0249 0.5794 0.2292
H36 H 1.0720 0.6251 0.1710
C18 C 0.8447(3) 0.6982(2) 0.17748(15)
H37 H 0.7632 0.7053 0.1598
H38 H 0.8952 0.7583 0.1641
H39 H 0.8462 0.7105 0.2214
C19 C 0.8894(3) 0.5520(3) 0.08769(12)
H40 H 0.8057 0.5533 0.0708
H41 H 0.9194 0.4711 0.0762
C20 C 0.9622(4) 0.6421(3) 0.05670(16)
H42 H 0.9534 0.6199 0.0131
H43 H 1.0461 0.6397 0.0713
H44 H 0.9324 0.7227 0.0664
O5 O 0.77718(12) 0.42915(13) 0.34582(6)
C21 C 0.8281(10) 0.5365(11) 0.3857(5)
C22 C 0.7832(12) 0.6549(7) 0.3638(5)
H45 H 0.8123 0.6624 0.3247
H46 H 0.8127 0.7221 0.3930
H47 H 0.6963 0.6546 0.3600
C23 C 0.7767(12) 0.5497(8) 0.4475(5)
H48 H 0.7994 0.4811 0.4683
H49 H 0.6901 0.5537 0.4418
H50 H 0.8082 0.6227 0.4716
C24 C 0.9652(6) 0.5298(9) 0.3887(5)
H51 H 0.9908 0.5247 0.3475
H52 H 0.9914 0.4568 0.4058
C25 C 1.0268(6) 0.6436(7) 0.4290(3)
H53 H 1.1131 0.6343 0.4319
H54 H 0.9991 0.6506 0.4693
H55 H 1.0059 0.7154 0.4105
O6 O 0.62773(12) 0.21511(13) 0.34859(6)
C26 C 0.58714(19) 0.1484(2) 0.39417(10)
C27 C 0.6537(3) 0.1940(3) 0.45591(12)
H56 H 0.7391 0.1831 0.4537
H57 H 0.6266 0.1491 0.4868
H58 H 0.6375 0.2786 0.4663
C28 C 0.4522(3) 0.1643(4) 0.39753(18)
H59 H 0.4352 0.2487 0.4080
H60 H 0.4255 0.1188 0.4283
H61 H 0.4105 0.1353 0.3585
C29 C 0.6154(3) 0.0154(2) 0.37816(12)
H62 H 0.7018 0.0080 0.3749
H63 H 0.5749 -0.0126 0.3381
C30 C 0.5783(4) -0.0687(3) 0.42396(16)
H64 H 0.6005 -0.1506 0.4104
H65 H 0.4924 -0.0651 0.4263
H66 H 0.6189 -0.0431 0.4637
O7 O 0.77021(13) 0.19259(12) 0.15270(6)
C31 C 0.8434(8) 0.1302(7) 0.1103(4)
C32 C 0.8401(5) -0.0063(4) 0.1155(3)
H67 H 0.7579 -0.0353 0.1094
H68 H 0.8743 -0.0204 0.1554
H69 H 0.8862 -0.0487 0.0848
C33 C 0.7870(5) 0.1507(7) 0.0457(2)
H70 H 0.7057 0.1188 0.0397
H71 H 0.8343 0.1099 0.0152
H72 H 0.7859 0.2361 0.0423
C34 C 0.9738(5) 0.1779(6) 0.1204(3)
H73 H 1.0055 0.1677 0.1618
H74 H 0.9733 0.2643 0.1172
C35 C 1.0597(4) 0.1168(7) 0.0756(2)
H75 H 1.1387 0.1535 0.0846
H76 H 1.0298 0.1267 0.0344
H77 H 1.0645 0.0319 0.0798
O8 O 0.55505(13) 0.34268(12) 0.15247(6)
C36 C 0.4551(11) 0.3737(10) 0.1078(5)
C37 C 0.3371(9) 0.3209(9) 0.1233(5)
H78 H 0.3429 0.2341 0.1205
H79 H 0.2722 0.3418 0.0949
H80 H 0.3214 0.3532 0.1642
C38 C 0.4854(12) 0.3203(12) 0.0428(5)
H81 H 0.5597 0.3557 0.0337
H82 H 0.4212 0.3381 0.0132
H83 H 0.4940 0.2339 0.0411
C39 C 0.4512(9) 0.5116(6) 0.1113(5)
H84 H 0.5263 0.5407 0.0986
H85 H 0.4455 0.5457 0.1537
C40 C 0.3445(6) 0.5575(5) 0.0712(3)
H86 H 0.3480 0.6446 0.0747
H87 H 0.2696 0.5324 0.0848
H88 H 0.3494 0.5243 0.0292
C41? C 0.8359(14) 0.5134(15) 0.3877(7)
C42? C 0.8205(16) 0.6358(15) 0.3637(9)
H89? H 0.7359 0.6535 0.3578
H90? H 0.8556 0.6331 0.3253
H91? H 0.8602 0.6980 0.3928
C43? C 0.9696(12) 0.4900(13) 0.3994(6)
H92? H 0.9807 0.4119 0.4134
H93? H 1.0052 0.5518 0.4301
H94? H 1.0079 0.4914 0.3621
C44? C 0.7842(14) 0.5158(11) 0.4510(5)
H95? H 0.8156 0.4472 0.4704
H96? H 0.6969 0.5065 0.4446
C45? C 0.8162(8) 0.6351(8) 0.4948(4)
H97? H 0.7802 0.6323 0.5327
H98? H 0.7855 0.7035 0.4759
H99? H 0.9024 0.6430 0.5029
C46? C 0.8274(16) 0.5227(16) 0.3901(8)
C47? C 0.8167(13) 0.4906(13) 0.4550(6)
H100? H 0.7328 0.4864 0.4624
H101? H 0.8571 0.5519 0.4844
H102? H 0.8535 0.4134 0.4591
C48? C 0.9591(17) 0.538(3) 0.3773(12)
H103? H 0.9624 0.5559 0.3359
H104? H 1.0020 0.4646 0.3826
H105? H 0.9958 0.6039 0.4053
C49? C 0.7705(17) 0.6467(15) 0.3799(8)
H106? H 0.6854 0.6459 0.3870
H107? H 0.7772 0.6624 0.3381
C50? C 0.8387(18) 0.7470(16) 0.4254(9)
H108? H 0.8064 0.8249 0.4187
H109? H 0.9232 0.7456 0.4189
H110? H 0.8288 0.7327 0.4667
C51? C 0.4604(18) 0.368(2) 0.1147(11)
C52? C 0.455(4) 0.505(2) 0.114(2)
H111? H 0.4581 0.5448 0.1557
H112? H 0.3807 0.5257 0.0922
H113? H 0.5222 0.5321 0.0947
C53? C 0.472(2) 0.306(2) 0.0488(10)
H114? H 0.4735 0.2192 0.0488
H115? H 0.5447 0.3327 0.0342
H116? H 0.4033 0.3264 0.0224
C54? C 0.3323(17) 0.342(2) 0.1355(9)
H117? H 0.3212 0.3882 0.1750
H118? H 0.3208 0.2566 0.1382
C55? C 0.243(2) 0.385(3) 0.0836(12)
H119? H 0.1612 0.3725 0.0924
H120? H 0.2570 0.3399 0.0449
H121? H 0.2565 0.4703 0.0816
C56? C 0.4671(14) 0.3842(14) 0.1129(7)
C57? C 0.3455(10) 0.3849(11) 0.1399(6)
H122? H 0.3510 0.4352 0.1787
H123? H 0.3235 0.3036 0.1455
H124? H 0.2850 0.4165 0.1124
C58? C 0.5003(13) 0.5082(11) 0.0979(6)
H125? H 0.5047 0.5652 0.1346
H126? H 0.4400 0.5336 0.0684
H127? H 0.5775 0.5048 0.0812
C59? C 0.4463(10) 0.2907(11) 0.0556(5)
H128? H 0.5243 0.2768 0.0394
H129? H 0.4223 0.2152 0.0693
C60? C 0.3580(8) 0.3123(8) 0.0029(4)
H130? H 0.3721 0.2556 -0.0322
H131? H 0.3683 0.3936 -0.0065
H132? H 0.2771 0.3016 0.0138
C61? C 0.8339(13) 0.1328(13) 0.1034(7)
C62? C 0.8001(10) -0.0015(9) 0.0911(5)
H133? H 0.8155 -0.0380 0.1282
H134? H 0.8476 -0.0408 0.0602
H135? H 0.7158 -0.0103 0.0771
C63? C 0.8128(10) 0.1897(10) 0.0437(5)
H136? H 0.8331 0.2746 0.0514
H137? H 0.7293 0.1797 0.0283
H138? H 0.8628 0.1504 0.0139
C64? C 0.9681(10) 0.1480(10) 0.1256(6)
H139? H 0.9836 0.1086 0.1623
H140? H 0.9864 0.2338 0.1367
C65? C 1.0548(18) 0.095(2) 0.0776(10)
H141? H 1.1371 0.1089 0.0943
H142? H 1.0407 0.1337 0.0411
H143? H 1.0399 0.0091 0.0676
loop_
_geom_bond_atom_site_label_1
_geom_bond_atom_site_label_2
_geom_bond_site_symmetry_1
_geom_bond_site_symmetry_2
Li1 O1 1_555 1_555
Li2 O2 1_555 1_555
Li3 O3 1_555 1_555
Li4 O4 1_555 1_555
K1 O2 1_555 1_555
K2 O1 1_555 1_555
K3 O2 1_555 1_555
K4 O1 1_555 1_555
O1 C1 1_555 1_555
C1 C2 1_555 1_555
C2 H1 1_555 1_555
H2 C2 1_555 1_555
H3 C2 1_555 1_555
C3 C1 1_555 1_555
H4 C3 1_555 1_555
H5 C3 1_555 1_555
H6 C3 1_555 1_555
C4 C1 1_555 1_555
H7 C4 1_555 1_555
H8 C4 1_555 1_555
C5 C4 1_555 1_555
H9 C5 1_555 1_555
H10 C5 1_555 1_555
H11 C5 1_555 1_555
O2 C6 1_555 1_555
C6 C7 1_555 1_555
C7 H12 1_555 1_555
H13 C7 1_555 1_555
H14 C7 1_555 1_555
C8 C6 1_555 1_555
H15 C8 1_555 1_555
H16 C8 1_555 1_555
H17 C8 1_555 1_555
C9 C6 1_555 1_555
H18 C9 1_555 1_555
H19 C9 1_555 1_555
C10 C9 1_555 1_555
H20 C10 1_555 1_555
H21 C10 1_555 1_555
H22 C10 1_555 1_555
O3 K3 1_555 1_555
C11 O3 1_555 1_555
C12 C11 1_555 1_555
H23 C12 1_555 1_555
H24 C12 1_555 1_555
H25 C12 1_555 1_555
C13 C11 1_555 1_555
H26 C13 1_555 1_555
H27 C13 1_555 1_555
H28 C13 1_555 1_555
C14 C11 1_555 1_555
H29 C14 1_555 1_555
H30 C14 1_555 1_555
C15 C14 1_555 1_555
H31 C15 1_555 1_555
H32 C15 1_555 1_555
H33 C15 1_555 1_555
O4 K1 1_555 1_555
C16 O4 1_555 1_555
C17 C16 1_555 1_555
H34 C17 1_555 1_555
H35 C17 1_555 1_555
H36 C17 1_555 1_555
C18 C16 1_555 1_555
H37 C18 1_555 1_555
H38 C18 1_555 1_555
H39 C18 1_555 1_555
C19 C16 1_555 1_555
H40 C19 1_555 1_555
H41 C19 1_555 1_555
C20 C19 1_555 1_555
H42 C20 1_555 1_555
H43 C20 1_555 1_555
H44 C20 1_555 1_555
O5 Li1 1_555 1_555
C21 O5 1_555 1_555
C22 C21 1_555 1_555
H45 C22 1_555 1_555
H46 C22 1_555 1_555
H47 C22 1_555 1_555
C23 C21 1_555 1_555
H48 C23 1_555 1_555
H49 C23 1_555 1_555
H50 C23 1_555 1_555
C24 C21 1_555 1_555
H51 C24 1_555 1_555
H52 C24 1_555 1_555
C25 C24 1_555 1_555
H53 C25 1_555 1_555
H54 C25 1_555 1_555
H55 C25 1_555 1_555
O6 Li1 1_555 1_555
C26 O6 1_555 1_555
C27 C26 1_555 1_555
H56 C27 1_555 1_555
H57 C27 1_555 1_555
H58 C27 1_555 1_555
C28 C26 1_555 1_555
H59 C28 1_555 1_555
H60 C28 1_555 1_555
H61 C28 1_555 1_555
C29 C26 1_555 1_555
H62 C29 1_555 1_555
H63 C29 1_555 1_555
C30 C29 1_555 1_555
H64 C30 1_555 1_555
H65 C30 1_555 1_555
H66 C30 1_555 1_555
O7 Li3 1_555 1_555
C31 O7 1_555 1_555
C32 C31 1_555 1_555
H67 C32 1_555 1_555
H68 C32 1_555 1_555
H69 C32 1_555 1_555
C33 C31 1_555 1_555
H70 C33 1_555 1_555
H71 C33 1_555 1_555
H72 C33 1_555 1_555
C34 C31 1_555 1_555
H73 C34 1_555 1_555
H74 C34 1_555 1_555
C35 C34 1_555 1_555
H75 C35 1_555 1_555
H76 C35 1_555 1_555
H77 C35 1_555 1_555
O8 Li3 1_555 1_555
C36 O8 1_555 1_555
C37 C36 1_555 1_555
H78 C37 1_555 1_555
H79 C37 1_555 1_555
H80 C37 1_555 1_555
C38 C36 1_555 1_555
H81 C38 1_555 1_555
H82 C38 1_555 1_555
H83 C38 1_555 1_555
C39 C36 1_555 1_555
H84 C39 1_555 1_555
H85 C39 1_555 1_555
C40 C39 1_555 1_555
H86 C40 1_555 1_555
H87 C40 1_555 1_555
H88 C40 1_555 1_555
Li2 O5 1_555 1_555
Li2 O6 1_555 1_555
Li4 O7 1_555 1_555
Li4 O8 1_555 1_555
K1 O5 1_555 1_555
K1 O8 1_555 1_555
K2 O4 1_555 1_555
K2 O5 1_555 1_555
K2 O7 1_555 1_555
K3 O6 1_555 1_555
K3 O8 1_555 1_555
K4 O3 1_555 1_555
K4 O6 1_555 1_555
K4 O7 1_555 1_555

#END
