
#######################################################################
#
#                 Cambridge Crystallographic Data Centre
#                                CCDC 
#
#######################################################################
#
# If this CIF has been generated from an entry in the Cambridge 
# Structural Database, then it will include bibliographic, chemical, 
# crystal, experimental, refinement or atomic coordinate data resulting 
# from the CCDC's data processing and validation procedures.
#
#######################################################################

data_JILQON
_chemical_formula_moiety         'C18 H25 N1 O4 S1'
_chemical_name_systematic        
4-[(4-methylphenyl)sulfonyl]-3-(2-methylpropyl)-6-(prop-1-en-2-yl)morpholin-2-one
_symmetry_cell_setting           triclinic
_symmetry_space_group_name_H-M   'P -1'
_symmetry_Int_Tables_number      2
_space_group_name_Hall           '-P 1'
loop_
_symmetry_equiv_pos_site_id
_symmetry_equiv_pos_as_xyz
1 x,y,z
2 -x,-y,-z
_cell_length_a                   8.2097(6)
_cell_length_b                   11.3718(10)
_cell_length_c                   11.4320(9)
_cell_angle_alpha                63.440(8)
_cell_angle_beta                 84.691(6)
_cell_angle_gamma                84.975(7)
_cell_volume                     949.271
_exptl_crystal_colour            colorless
_exptl_crystal_description       block
_cell_formula_units_Z            2
loop_
_atom_site_label
_atom_site_type_symbol
_atom_site_fract_x
_atom_site_fract_y
_atom_site_fract_z
S1 S 0.24305(8) 0.51516(6) 0.19149(6)
O1 O 0.6053(3) 0.35798(18) 0.50561(17)
O2 O 0.6188(2) 0.26023(16) 0.37669(16)
O3 O 0.2243(2) 0.63576(15) 0.20260(16)
O4 O 0.1901(2) 0.50792(17) 0.07903(16)
N1 N 0.4395(2) 0.47282(18) 0.19503(17)
C1 C 0.5388(3) 0.4955(2) 0.2843(2)
H1 H 0.469605 0.547617 0.320367
C2 C 0.5898(3) 0.3679(3) 0.3980(2)
C3 C 0.6360(3) 0.2818(2) 0.2405(2)
H2 H 0.730823 0.334835 0.196480
C4 C 0.4841(3) 0.3547(2) 0.1739(2)
H3 H 0.501261 0.380951 0.080600
H4 H 0.394017 0.296254 0.206988
C5 C 0.6885(3) 0.5750(2) 0.2113(2)
H5 H 0.757037 0.576972 0.274985
H6 H 0.751760 0.529890 0.166020
C6 C 0.6471(4) 0.7161(2) 0.1120(2)
H7 H 0.565797 0.713781 0.055583
C7 C 0.8013(5) 0.7757(3) 0.0257(3)
H8 H 0.882984 0.778370 0.079174
H9 H 0.774308 0.863343 -0.038919
H10 H 0.842969 0.722498 -0.017280
C8 C 0.5753(4) 0.8012(3) 0.1762(3)
H11 H 0.477535 0.764034 0.228073
H12 H 0.549191 0.888284 0.109998
H13 H 0.653498 0.805550 0.231478
C9 C 0.6628(4) 0.1505(3) 0.2372(3)
C10 C 0.7603(4) 0.1421(3) 0.1406(3)
H14 H 0.791875 0.060122 0.143936
H15 H 0.796645 0.218196 0.070076
C11 C 0.1442(3) 0.3932(2) 0.3313(2)
C12 C 0.1398(3) 0.3991(3) 0.4502(2)
H16 H 0.190587 0.465669 0.456764
C13 C 0.0590(4) 0.3048(3) 0.5589(3)
H17 H 0.054309 0.309690 0.638176
C14 C -0.0146(3) 0.2038(3) 0.5522(3)
C15 C -0.0060(4) 0.1984(3) 0.4328(3)
H18 H -0.054313 0.130591 0.426640
C16 C 0.0729(3) 0.2919(3) 0.3232(3)
H19 H 0.077984 0.286778 0.244037
C17 C -0.1106(4) 0.1060(3) 0.6706(3)
H20 H -0.083970 0.111906 0.747718
H21 H -0.082877 0.018487 0.680100
H22 H -0.225794 0.125622 0.658846
C18 C 0.605(4) 0.0365(13) 0.3462(19)
H23 H 0.640200 0.033599 0.425353
H24 H 0.648642 -0.040552 0.337537
H25 H 0.487712 0.039324 0.349588
C19? C 0.521(3) 0.054(3) 0.303(3)
H26? H 0.477956 0.060062 0.381007
H27? H 0.561995 -0.034040 0.323974
H28? H 0.435453 0.078269 0.242805
loop_
_geom_bond_atom_site_label_1
_geom_bond_atom_site_label_2
_geom_bond_site_symmetry_1
_geom_bond_site_symmetry_2
S1 O3 1_555 1_555
O1 C2 1_555 1_555
O2 C2 1_555 1_555
O4 S1 1_555 1_555
N1 S1 1_555 1_555
C1 N1 1_555 1_555
H1 C1 1_555 1_555
C2 C1 1_555 1_555
C3 O2 1_555 1_555
H2 C3 1_555 1_555
C4 N1 1_555 1_555
H3 C4 1_555 1_555
H4 C4 1_555 1_555
C5 C1 1_555 1_555
H5 C5 1_555 1_555
H6 C5 1_555 1_555
C6 C5 1_555 1_555
H7 C6 1_555 1_555
C7 C6 1_555 1_555
H8 C7 1_555 1_555
H9 C7 1_555 1_555
H10 C7 1_555 1_555
C8 C6 1_555 1_555
H11 C8 1_555 1_555
H12 C8 1_555 1_555
H13 C8 1_555 1_555
C9 C3 1_555 1_555
C10 C9 1_555 1_555
H14 C10 1_555 1_555
H15 C10 1_555 1_555
C11 S1 1_555 1_555
C12 C11 1_555 1_555
H16 C12 1_555 1_555
C13 C12 1_555 1_555
H17 C13 1_555 1_555
C14 C13 1_555 1_555
C15 C14 1_555 1_555
H18 C15 1_555 1_555
C16 C11 1_555 1_555
H19 C16 1_555 1_555
C17 C14 1_555 1_555
H20 C17 1_555 1_555
H21 C17 1_555 1_555
H22 C17 1_555 1_555
C18 C9 1_555 1_555
H23 C18 1_555 1_555
H24 C18 1_555 1_555
H25 C18 1_555 1_555
C3 C4 1_555 1_555
C15 C16 1_555 1_555

#END
