
#######################################################################
#
#                 Cambridge Crystallographic Data Centre
#                                CCDC 
#
#######################################################################
#
# If this CIF has been generated from an entry in the Cambridge 
# Structural Database, then it will include bibliographic, chemical, 
# crystal, experimental, refinement or atomic coordinate data resulting 
# from the CCDC's data processing and validation procedures.
#
#######################################################################

data_JIMVOR
_chemical_formula_moiety         'C72 H114 Na2 O7,C7 H8'
_chemical_name_systematic        
"(\m~2~-2,2'-Ethylidene-(4,6-di-t-butylphenol)-(4,6-di-t-butylphenolato-O,O',O'))-(\m~2~-2,2'-ethylidene-(4,6-di-t-butylphenol)-(4,6-di-t-butylphenolato-O,O'))-tris(tetrahydrofuran)-di-sodium toluene solvate"
_symmetry_cell_setting           monoclinic
_symmetry_space_group_name_H-M   'P 21/n'
_symmetry_Int_Tables_number      14
_space_group_name_Hall           '-P 2yn'
loop_
_symmetry_equiv_pos_site_id
_symmetry_equiv_pos_as_xyz
1 x,y,z
2 1/2-x,1/2+y,1/2-z
3 -x,-y,-z
4 1/2+x,1/2-y,1/2+z
_cell_length_a                   16.035(5)
_cell_length_b                   19.797(5)
_cell_length_c                   24.936(5)
_cell_angle_alpha                90
_cell_angle_beta                 104.979(5)
_cell_angle_gamma                90
_cell_volume                     7646.83
_exptl_crystal_colour            colorless
_exptl_crystal_description       block
_cell_formula_units_Z            4
loop_
_atom_site_label
_atom_site_type_symbol
_atom_site_fract_x
_atom_site_fract_y
_atom_site_fract_z
Na1 Na 0.81269(6) 0.19584(4) 0.68850(4)
Na2 Na 0.92149(5) 0.09460(4) 0.59927(4)
O1 O 0.78330(8) 0.08324(7) 0.69570(6)
H1 H 0.8072(18) 0.0561(15) 0.6689(12)
O2 O 0.85153(8) 0.01729(7) 0.63607(6)
C1 C 0.64144(12) 0.05288(9) 0.64126(8)
C2 C 0.69899(12) 0.06942(9) 0.69252(8)
C3 C 0.66963(13) 0.07300(10) 0.74122(8)
C4 C 0.58161(14) 0.06459(10) 0.73553(9)
H2 H 0.5607 0.0694 0.7677
C5 C 0.52266(13) 0.04963(10) 0.68559(9)
C6 C 0.55462(12) 0.04316(9) 0.63905(8)
H3 H 0.5158 0.0317 0.6045
C7 C 0.73248(15) 0.08256(13) 0.79891(9)
C8 C 0.7940(2) 0.02210(17) 0.81157(12)
H4 H 0.8256 0.0185 0.7829
H5 H 0.7608 -0.0193 0.8121
H6 H 0.8351 0.0285 0.8479
C9 C 0.78550(19) 0.14784(16) 0.80286(11)
H7 H 0.8178 0.1474 0.7744
H8 H 0.8260 0.1509 0.8397
H9 H 0.7466 0.1869 0.7970
C10 C 0.6847(2) 0.08665(18) 0.84469(11)
H10 H 0.7266 0.0926 0.8807
H11 H 0.6522 0.0448 0.8451
H12 H 0.6448 0.1251 0.8375
C11 C 0.42607(14) 0.04454(12) 0.68261(10)
C12 C 0.39144(17) 0.11647(14) 0.68629(13)
H13 H 0.4237 0.1377 0.7210
H14 H 0.3301 0.1143 0.6856
H15 H 0.3985 0.1432 0.6547
C13 C 0.40963(17) 0.00278(16) 0.73032(12)
H16 H 0.4309 -0.0433 0.7284
H17 H 0.3475 0.0015 0.7274
H18 H 0.4399 0.0233 0.7658
C14 C 0.37505(15) 0.01247(15) 0.62848(12)
H19 H 0.3960 -0.0336 0.6258
H20 H 0.3826 0.0393 0.5970
H21 H 0.3137 0.0111 0.6278
C15 C 0.67471(12) 0.04527(9) 0.58907(8)
H22 H 0.7229 0.0784 0.5927
C16 C 0.60652(13) 0.06311(11) 0.53552(8)
H23 H 0.6312 0.0575 0.5037
H24 H 0.5882 0.1101 0.5373
H25 H 0.5566 0.0331 0.5313
C17 C 0.71355(12) -0.02490(9) 0.58710(7)
C18 C 0.80176(12) -0.03583(9) 0.61406(7)
C19 C 0.83502(13) -0.10182(10) 0.61804(8)
C20 C 0.78147(13) -0.15394(10) 0.59120(8)
H26 H 0.8044 -0.1984 0.5934
C21 C 0.69605(12) -0.14376(10) 0.56141(8)
C22 C 0.66374(12) -0.07856(10) 0.56108(8)
H27 H 0.6051 -0.0705 0.5422
C23 C 0.92745(14) -0.11675(12) 0.65336(10)
C24 C 0.93657(17) -0.09260(15) 0.71323(11)
H28 H 0.9951 -0.1023 0.7358
H29 H 0.8945 -0.1162 0.7288
H30 H 0.9260 -0.0438 0.7132
C25 C 0.99452(15) -0.08140(15) 0.62912(12)
H31 H 0.9884 -0.0971 0.5910
H32 H 1.0526 -0.0921 0.6518
H33 H 0.9854 -0.0324 0.6290
C26 C 0.9477(2) -0.19261(14) 0.65554(16)
H34 H 0.9426 -0.2094 0.6178
H35 H 0.9069 -0.2167 0.6719
H36 H 1.0067 -0.2002 0.6783
C27 C 0.63905(14) -0.20071(10) 0.52977(9)
C28 C 0.61037(16) -0.18212(13) 0.46812(10)
H37 H 0.6613 -0.1770 0.4536
H38 H 0.5781 -0.1395 0.4637
H39 H 0.5733 -0.2180 0.4476
C29 C 0.68632(18) -0.26823(12) 0.53502(12)
H40 H 0.7378 -0.2636 0.5211
H41 H 0.6480 -0.3025 0.5133
H42 H 0.7035 -0.2819 0.5741
C30 C 0.55859(18) -0.20908(15) 0.55146(12)
H43 H 0.5760 -0.2212 0.5909
H44 H 0.5220 -0.2449 0.5305
H45 H 0.5263 -0.1665 0.5468
O3 O 0.83404(10) 0.20101(7) 0.56453(7)
O4 O 0.93536(9) 0.18753(7) 0.65909(6)
H46 H 0.874(2) 0.2064(17) 0.6052(16)
C31 C 0.90270(13) 0.30553(10) 0.55274(9)
C32 C 0.85695(13) 0.24708(10) 0.52993(9)
C33 C 0.83502(13) 0.23590(10) 0.47218(9)
C34 C 0.86750(14) 0.28109(11) 0.43959(9)
H47 H 0.8543 0.2735 0.4007
C35 C 0.91809(14) 0.33654(10) 0.46129(9)
C36 C 0.93308(13) 0.34843(10) 0.51797(9)
H48 H 0.9652 0.3873 0.5334
C37 C 0.77510(15) 0.17755(11) 0.44485(10)
C38 C 0.80793(17) 0.10884(12) 0.46956(12)
H49 H 0.8138 0.1094 0.5097
H50 H 0.8642 0.0995 0.4626
H51 H 0.7668 0.0736 0.4523
C39 C 0.68529(16) 0.19044(14) 0.45384(13)
H52 H 0.6897 0.1931 0.4937
H53 H 0.6465 0.1534 0.4375
H54 H 0.6624 0.2331 0.4360
C40 C 0.7664(2) 0.17345(15) 0.38234(11)
H55 H 0.7456 0.2168 0.3650
H56 H 0.7254 0.1377 0.3661
H57 H 0.8229 0.1632 0.3759
C41 C 0.95598(17) 0.38458(12) 0.42537(10)
C42 C 0.9384(2) 0.36122(15) 0.36516(11)
H58 H 0.9637 0.3164 0.3639
H59 H 0.9642 0.3933 0.3442
H60 H 0.8759 0.3590 0.3488
C43 C 0.9170(3) 0.45499(15) 0.42666(16)
H61 H 0.9279 0.4704 0.4652
H62 H 0.8546 0.4531 0.4100
H63 H 0.9434 0.4866 0.4056
C44 C 1.0539(2) 0.3880(2) 0.44899(13)
H64 H 1.0786 0.3428 0.4483
H65 H 1.0672 0.4044 0.4873
H66 H 1.0786 0.4189 0.4265
C45 C 0.92075(13) 0.32002(10) 0.61463(9)
H67 H 0.8748 0.2960 0.6278
C46 C 0.91232(18) 0.39538(11) 0.62749(11)
H68 H 0.8566 0.4124 0.6054
H69 H 0.9591 0.4207 0.6182
H70 H 0.9158 0.4009 0.6671
C47 C 1.00656(13) 0.28989(10) 0.64710(8)
C48 C 1.00825(13) 0.22486(10) 0.67105(9)
C49 C 1.08709(14) 0.20153(11) 0.70603(9)
C50 C 1.16133(14) 0.23958(12) 0.70895(9)
H71 H 1.2147 0.2227 0.7310
C51 C 1.16210(14) 0.30035(12) 0.68165(10)
C52 C 1.08291(15) 0.32519(11) 0.65220(9)
H72 H 1.0807 0.3681 0.6348
C53 C 1.09482(15) 0.13597(13) 0.74072(11)
C54 C 1.0714(9) 0.0744(4) 0.7077(4)
H73 H 1.0776 0.0353 0.7325
H74 H 1.1095 0.0690 0.6829
H75 H 1.0114 0.0777 0.6855
C55 C 1.0375(7) 0.1450(7) 0.7823(5)
H76 H 0.9771 0.1512 0.7616
H77 H 1.0570 0.1846 0.8057
H78 H 1.0423 0.1047 0.8058
C56 C 1.1868(8) 0.1280(6) 0.7795(5)
H79 H 1.2282 0.1218 0.7570
H80 H 1.1884 0.0886 0.8035
H81 H 1.2019 0.1686 0.8024
C65 C 1.24667(16) 0.33806(14) 0.68356(11)
C66 C 1.2595(6) 0.3368(8) 0.6254(3)
H100 H 1.2118 0.3608 0.6001
H101 H 1.2608 0.2899 0.6131
H102 H 1.3142 0.3590 0.6255
C67 C 1.2488(4) 0.4035(3) 0.7087(5)
H103 H 1.1993 0.4302 0.6882
H104 H 1.3024 0.4267 0.7077
H105 H 1.2463 0.3984 0.7473
C68 C 1.3287(3) 0.2986(3) 0.7213(4)
H106 H 1.3318 0.2533 0.7061
H107 H 1.3227 0.2949 0.7593
H108 H 1.3815 0.3236 0.7215
O5 O 0.68128(13) 0.24485(11) 0.64351(10)
C69 C 0.6009(2) 0.2365(2) 0.65644(18)
H109 H 0.6098 0.2256 0.6963
H110 H 0.5675 0.1994 0.6341
C70 C 0.5545(2) 0.3011(2) 0.64313(16)
H111 H 0.5661 0.3312 0.6759
H112 H 0.4915 0.2937 0.6296
C71 C 0.5914(3) 0.3301(2) 0.5977(2)
H113 H 0.5497 0.3250 0.5609
H114 H 0.6049 0.3787 0.6044
C72 C 0.6678(3) 0.2926(3) 0.5999(2)
H115 H 0.6625 0.2690 0.5642
H116 H 0.7179 0.3236 0.6061
O6 O 1.03079(11) 0.10173(9) 0.55611(9)
C73 C 1.0938(2) 0.05451(16) 0.54786(16)
H117 H 1.0681 0.0246 0.5160
H118 H 1.1144 0.0261 0.5814
C74 C 1.1646(2) 0.0920(2) 0.5371(2)
H119 H 1.1738 0.0788 0.5008
H120 H 1.2183 0.0829 0.5663
C75 C 1.1419(3) 0.1633(2) 0.5369(2)
H121 H 1.1840 0.1874 0.5669
H122 H 1.1430 0.1841 0.5009
C76 C 1.0584(2) 0.16812(16) 0.54519(17)
H123 H 1.0180 0.1872 0.5117
H124 H 1.0592 0.1983 0.5770
O7 O 0.85022(15) 0.28905(10) 0.74330(10)
C77 C 0.7893(3) 0.3358(2) 0.7542(2)
H125 H 0.7604 0.3597 0.7195
H126 H 0.7447 0.3112 0.7674
C78 C 0.8301(4) 0.38247(19) 0.79410(16)
H127 H 0.8145 0.3743 0.8295
H128 H 0.8127 0.4290 0.7815
C79 C 0.9228(4) 0.3734(2) 0.80159(18)
H129 H 0.9543 0.3773 0.8412
H130 H 0.9459 0.4074 0.7800
C80 C 0.9306(3) 0.30306(18) 0.78013(15)
H131 H 0.9771 0.3011 0.7607
H132 H 0.9437 0.2701 0.8110
C88 C 0.6833(9) 0.4787(6) 0.4836(4)
C89 C 0.6852(9) 0.4136(6) 0.4718(5)
H141 H 0.7389 0.3904 0.4793
C90 C 0.6144(11) 0.3815(7) 0.4500(6)
H142 H 0.6166 0.3349 0.4416
C91 C 0.5394(10) 0.4124(9) 0.4394(5)
H143 H 0.4877 0.3884 0.4235
C92 C 0.5372(10) 0.4755(9) 0.4508(5)
H144 H 0.4835 0.4985 0.4432
C93 C 0.6082(9) 0.5078(7) 0.4725(5)
H145 H 0.6052 0.5545 0.4806
C94 C 0.7608(12) 0.5147(9) 0.5065(7)
H146 H 0.7471 0.5619 0.5125
H147 H 0.7977 0.5129 0.4808
H148 H 0.7910 0.4943 0.5420
C57? C 1.09482(15) 0.13597(13) 0.74072(11)
C58? C 1.1174(11) 0.0765(6) 0.7016(6)
H82? H 1.0724 0.0747 0.6665
H83? H 1.1202 0.0330 0.7207
H84? H 1.1732 0.0860 0.6940
C59? C 1.0113(5) 0.1128(5) 0.7539(5)
H85? H 0.9648 0.1110 0.7196
H86? H 0.9958 0.1448 0.7798
H87? H 1.0198 0.0679 0.7709
C60? C 1.1639(13) 0.1376(12) 0.7938(8)
H88? H 1.1646 0.0946 0.8134
H89? H 1.1526 0.1746 0.8171
H90? H 1.2200 0.1447 0.7859
C61? C 1.24667(16) 0.33806(14) 0.68356(11)
C62? C 1.2996(7) 0.3040(5) 0.6590(7)
H91? H 1.3089 0.2583 0.6744
H92? H 1.3550 0.3277 0.6657
H93? H 1.2732 0.3014 0.6189
C63? C 1.2255(5) 0.4140(3) 0.6576(5)
H94? H 1.1900 0.4107 0.6193
H95? H 1.2796 0.4373 0.6581
H96? H 1.1942 0.4395 0.6799
C64? C 1.2858(6) 0.3588(5) 0.7460(3)
H97? H 1.3042 0.3181 0.7684
H98? H 1.2420 0.3826 0.7598
H99? H 1.3357 0.3884 0.7487
C81? C 0.6124(5) 0.4298(3) 0.4439(3)
C82? C 0.5807(5) 0.4944(4) 0.4293(4)
H133? H 0.5249 0.5002 0.4049
C83? C 0.6291(6) 0.5492(4) 0.4499(4)
H134? H 0.6068 0.5931 0.4396
C84? C 0.7100(6) 0.5423(5) 0.4855(4)
H135? H 0.7435 0.5809 0.4998
C85? C 0.7411(6) 0.4797(4) 0.4997(5)
H136? H 0.7969 0.4741 0.5242
C86? C 0.6927(6) 0.4246(4) 0.4791(4)
H137? H 0.7158 0.3810 0.4896
C87? C 0.5606(7) 0.3692(5) 0.4207(5)
H138? H 0.5929 0.3283 0.4354
H139? H 0.5490 0.3696 0.3801
H140? H 0.5059 0.3699 0.4313
loop_
_geom_bond_atom_site_label_1
_geom_bond_atom_site_label_2
_geom_bond_site_symmetry_1
_geom_bond_site_symmetry_2
Na1 O1 1_555 1_555
Na2 O2 1_555 1_555
O1 H1 1_555 1_555
O2 C18 1_555 1_555
C1 C2 1_555 1_555
C2 O1 1_555 1_555
C3 C2 1_555 1_555
C4 C3 1_555 1_555
H2 C4 1_555 1_555
C5 C4 1_555 1_555
C6 C1 1_555 1_555
H3 C6 1_555 1_555
C7 C3 1_555 1_555
C8 C7 1_555 1_555
H4 C8 1_555 1_555
H5 C8 1_555 1_555
H6 C8 1_555 1_555
C9 C7 1_555 1_555
H7 C9 1_555 1_555
H8 C9 1_555 1_555
H9 C9 1_555 1_555
C10 C7 1_555 1_555
H10 C10 1_555 1_555
H11 C10 1_555 1_555
H12 C10 1_555 1_555
C11 C5 1_555 1_555
C12 C11 1_555 1_555
H13 C12 1_555 1_555
H14 C12 1_555 1_555
H15 C12 1_555 1_555
C13 C11 1_555 1_555
H16 C13 1_555 1_555
H17 C13 1_555 1_555
H18 C13 1_555 1_555
C14 C11 1_555 1_555
H19 C14 1_555 1_555
H20 C14 1_555 1_555
H21 C14 1_555 1_555
C15 C1 1_555 1_555
H22 C15 1_555 1_555
C16 C15 1_555 1_555
H23 C16 1_555 1_555
H24 C16 1_555 1_555
H25 C16 1_555 1_555
C17 C15 1_555 1_555
C18 C17 1_555 1_555
C19 C18 1_555 1_555
C20 C19 1_555 1_555
H26 C20 1_555 1_555
C21 C20 1_555 1_555
C22 C17 1_555 1_555
H27 C22 1_555 1_555
C23 C19 1_555 1_555
C24 C23 1_555 1_555
H28 C24 1_555 1_555
H29 C24 1_555 1_555
H30 C24 1_555 1_555
C25 C23 1_555 1_555
H31 C25 1_555 1_555
H32 C25 1_555 1_555
H33 C25 1_555 1_555
C26 C23 1_555 1_555
H34 C26 1_555 1_555
H35 C26 1_555 1_555
H36 C26 1_555 1_555
C27 C21 1_555 1_555
C28 C27 1_555 1_555
H37 C28 1_555 1_555
H38 C28 1_555 1_555
H39 C28 1_555 1_555
C29 C27 1_555 1_555
H40 C29 1_555 1_555
H41 C29 1_555 1_555
H42 C29 1_555 1_555
C30 C27 1_555 1_555
H43 C30 1_555 1_555
H44 C30 1_555 1_555
H45 C30 1_555 1_555
O3 Na2 1_555 1_555
O4 Na1 1_555 1_555
H46 O3 1_555 1_555
C31 C32 1_555 1_555
C32 O3 1_555 1_555
C33 C32 1_555 1_555
C34 C33 1_555 1_555
H47 C34 1_555 1_555
C35 C34 1_555 1_555
C36 C31 1_555 1_555
H48 C36 1_555 1_555
C37 C33 1_555 1_555
C38 C37 1_555 1_555
H49 C38 1_555 1_555
H50 C38 1_555 1_555
H51 C38 1_555 1_555
C39 C37 1_555 1_555
H52 C39 1_555 1_555
H53 C39 1_555 1_555
H54 C39 1_555 1_555
C40 C37 1_555 1_555
H55 C40 1_555 1_555
H56 C40 1_555 1_555
H57 C40 1_555 1_555
C41 C35 1_555 1_555
C42 C41 1_555 1_555
H58 C42 1_555 1_555
H59 C42 1_555 1_555
H60 C42 1_555 1_555
C43 C41 1_555 1_555
H61 C43 1_555 1_555
H62 C43 1_555 1_555
H63 C43 1_555 1_555
C44 C41 1_555 1_555
H64 C44 1_555 1_555
H65 C44 1_555 1_555
H66 C44 1_555 1_555
C45 C31 1_555 1_555
H67 C45 1_555 1_555
C46 C45 1_555 1_555
H68 C46 1_555 1_555
H69 C46 1_555 1_555
H70 C46 1_555 1_555
C47 C45 1_555 1_555
C48 O4 1_555 1_555
C49 C48 1_555 1_555
C50 C49 1_555 1_555
H71 C50 1_555 1_555
C51 C50 1_555 1_555
C52 C47 1_555 1_555
H72 C52 1_555 1_555
C53 C49 1_555 1_555
C54 C53 1_555 1_555
H73 C54 1_555 1_555
H74 C54 1_555 1_555
H75 C54 1_555 1_555
C55 C53 1_555 1_555
H76 C55 1_555 1_555
H77 C55 1_555 1_555
H78 C55 1_555 1_555
C56 C53 1_555 1_555
H79 C56 1_555 1_555
H80 C56 1_555 1_555
H81 C56 1_555 1_555
C65 C51 1_555 1_555
C66 C65 1_555 1_555
H100 C66 1_555 1_555
H101 C66 1_555 1_555
H102 C66 1_555 1_555
C67 C65 1_555 1_555
H103 C67 1_555 1_555
H104 C67 1_555 1_555
H105 C67 1_555 1_555
C68 C65 1_555 1_555
H106 C68 1_555 1_555
H107 C68 1_555 1_555
H108 C68 1_555 1_555
O5 Na1 1_555 1_555
C69 O5 1_555 1_555
H109 C69 1_555 1_555
H110 C69 1_555 1_555
C70 C69 1_555 1_555
H111 C70 1_555 1_555
H112 C70 1_555 1_555
C71 C70 1_555 1_555
H113 C71 1_555 1_555
H114 C71 1_555 1_555
C72 O5 1_555 1_555
H115 C72 1_555 1_555
H116 C72 1_555 1_555
O6 Na2 1_555 1_555
C73 O6 1_555 1_555
H117 C73 1_555 1_555
H118 C73 1_555 1_555
C74 C73 1_555 1_555
H119 C74 1_555 1_555
H120 C74 1_555 1_555
C75 C74 1_555 1_555
H121 C75 1_555 1_555
H122 C75 1_555 1_555
C76 O6 1_555 1_555
H123 C76 1_555 1_555
H124 C76 1_555 1_555
O7 Na1 1_555 1_555
C77 O7 1_555 1_555
H125 C77 1_555 1_555
H126 C77 1_555 1_555
C78 C77 1_555 1_555
H127 C78 1_555 1_555
H128 C78 1_555 1_555
C79 C78 1_555 1_555
H129 C79 1_555 1_555
H130 C79 1_555 1_555
C80 O7 1_555 1_555
H131 C80 1_555 1_555
H132 C80 1_555 1_555
C88 C89 1_555 1_555
C89 H141 1_555 1_555
C90 C89 1_555 1_555
H142 C90 1_555 1_555
C91 C90 1_555 1_555
H143 C91 1_555 1_555
C92 C91 1_555 1_555
H144 C92 1_555 1_555
C93 C88 1_555 1_555
H145 C93 1_555 1_555
C94 C88 1_555 1_555
H146 C94 1_555 1_555
H147 C94 1_555 1_555
H148 C94 1_555 1_555
Na2 O4 1_555 1_555
C5 C6 1_555 1_555
C21 C22 1_555 1_555
C35 C36 1_555 1_555
C47 C48 1_555 1_555
C51 C52 1_555 1_555
C71 C72 1_555 1_555
C75 C76 1_555 1_555
C79 C80 1_555 1_555
C92 C93 1_555 1_555

#END
