
#######################################################################
#
#                 Cambridge Crystallographic Data Centre
#                                CCDC 
#
#######################################################################
#
# If this CIF has been generated from an entry in the Cambridge 
# Structural Database, then it will include bibliographic, chemical, 
# crystal, experimental, refinement or atomic coordinate data resulting 
# from the CCDC's data processing and validation procedures.
#
#######################################################################

data_JINGAP
_chemical_formula_moiety         'C25 H31 N3 O1 S1'
_chemical_name_systematic        
1-(1-(4-Isopropyl-4,5-dihydro-oxazol-2-yl)-1-methylethyl)-3-(2-anti-isopropylphenyl)-1,3-dihydrobenzimidazole-2-thione
_symmetry_cell_setting           monoclinic
_symmetry_space_group_name_H-M   'P 21'
_symmetry_Int_Tables_number      4
_space_group_name_Hall           'P 2yb'
loop_
_symmetry_equiv_pos_site_id
_symmetry_equiv_pos_as_xyz
1 x,y,z
2 -x,1/2+y,-z
_cell_length_a                   11.8406(9)
_cell_length_b                   15.1380(12)
_cell_length_c                   12.8126(12)
_cell_angle_alpha                90
_cell_angle_beta                 90.95(1)
_cell_angle_gamma                90
_cell_volume                     2296.25
_exptl_crystal_colour            colorless
_exptl_crystal_description       irregular
_chemical_melting_point          '398 K'
_cell_formula_units_Z            4
loop_
_atom_site_label
_atom_site_type_symbol
_atom_site_fract_x
_atom_site_fract_y
_atom_site_fract_z
S1 S 0.10934(5) 0.52427(4) 1.07995(4)
O1 O 0.35520(13) 0.34062(11) 0.86007(14)
N1 N 0.23771(14) 0.50172(12) 0.90229(13)
C1 C 0.13963(17) 0.52337(15) 0.95365(16)
N2 N 0.06315(15) 0.54971(12) 0.87761(13)
C2 C 0.11363(18) 0.55231(14) 0.78106(16)
C3 C 0.22428(17) 0.52354(16) 0.79577(15)
C4 C 0.29817(17) 0.52279(16) 0.71229(16)
H1 H 0.3744 0.5042 0.7207
C5 C 0.2552(2) 0.55068(15) 0.61577(17)
H2 H 0.3039 0.5504 0.5576
C6 C 0.14536(19) 0.57852(16) 0.60099(18)
H3 H 0.1199 0.5969 0.5337
C7 C 0.07156(19) 0.57986(16) 0.68485(17)
H4 H -0.0045 0.5988 0.6763
C8 C 0.35083(18) 0.48170(14) 0.94971(17)
C9 C 0.41134(18) 0.41697(15) 0.87927(17)
N3 N 0.51005(16) 0.42674(12) 0.84667(14)
C10 C 0.54238(19) 0.34220(15) 0.79741(18)
H5 H 0.5624 0.3535 0.7231
C11 C 0.4327(2) 0.28647(17) 0.8000(2)
H6 H 0.4026 0.2757 0.7286
H7 H 0.4465 0.2289 0.8346
C12 C 0.34728(19) 0.43512(17) 1.05582(18)
H8 H 0.2932 0.3861 1.0523
H9 H 0.3237 0.4773 1.1094
H10 H 0.4225 0.4121 1.0741
C13 C 0.41584(19) 0.56823(16) 0.95969(19)
H11 H 0.4260 0.5939 0.8902
H12 H 0.4900 0.5569 0.9922
H13 H 0.3735 0.6096 1.0031
C14 C 0.64425(19) 0.30291(16) 0.85443(18)
H14 H 0.7086 0.3450 0.8461
C15 C 0.6783(2) 0.21530(16) 0.8045(2)
H15 H 0.7462 0.1923 0.8399
H16 H 0.6940 0.2249 0.7305
H17 H 0.6166 0.1726 0.8110
C16 C 0.6233(2) 0.29340(17) 0.97220(19)
H18 H 0.6858 0.2607 1.0051
H19 H 0.5524 0.2613 0.9827
H20 H 0.6180 0.3521 1.0040
C17 C -0.04517(18) 0.58951(15) 0.89847(17)
C18 C -0.05290(19) 0.68103(16) 0.90602(18)
C19 C -0.1615(2) 0.71546(17) 0.9198(2)
H21 H -0.1708 0.7776 0.9250
C20 C -0.2554(2) 0.66179(18) 0.92611(19)
H22 H -0.3278 0.6875 0.9347
C21 C -0.2452(2) 0.57155(19) 0.92006(18)
H23 H -0.3098 0.5348 0.9258
C22 C -0.13896(17) 0.53447(16) 0.90539(16)
H24 H -0.1305 0.4722 0.9002
C23 C 0.0490(2) 0.74137(17) 0.9055(2)
H25 H 0.1178 0.7034 0.9009
C24 C 0.0579(2) 0.79382(19) 1.0070(2)
H26 H 0.0637 0.7531 1.0662
H27 H -0.0094 0.8308 1.0142
H28 H 0.1253 0.8314 1.0055
C25 C 0.0477(3) 0.80371(19) 0.8114(2)
H29 H 0.0452 0.7690 0.7468
H30 H 0.1161 0.8401 0.8131
H31 H -0.0190 0.8420 0.8141
S2 S 0.63895(6) 0.50132(5) 0.17524(5)
O2 O 0.79378(13) 0.75025(11) 0.36625(13)
N4 N 0.74344(15) 0.57029(13) 0.35255(13)
C26 C 0.65665(18) 0.52645(16) 0.30021(16)
N5 N 0.58087(14) 0.50256(13) 0.37627(13)
C27 C 0.62064(16) 0.52670(15) 0.47452(15)
C28 C 0.72444(18) 0.56860(14) 0.46071(16)
C29 C 0.78718(19) 0.59759(15) 0.54628(18)
H32 H 0.8587 0.6250 0.5381
C30 C 0.7417(2) 0.58479(16) 0.64482(18)
H33 H 0.7824 0.6049 0.7047
C31 C 0.63758(19) 0.54330(16) 0.65734(17)
H34 H 0.6088 0.5355 0.7255
C32 C 0.57590(17) 0.51333(15) 0.57213(16)
H35 H 0.5053 0.4846 0.5803
C33 C 0.85127(18) 0.60532(15) 0.30843(17)
C34 C 0.87956(18) 0.69001(15) 0.36695(17)
N6 N 0.97264(16) 0.70942(13) 0.40904(14)
C35 C 0.9604(2) 0.80079(16) 0.45032(18)
H36 H 0.9597 0.7977 0.5283
C36 C 0.8434(2) 0.82984(16) 0.4115(2)
H37 H 0.7974 0.8517 0.4700
H38 H 0.8493 0.8771 0.3585
C37 C 0.8431(2) 0.63256(17) 0.19328(18)
H39 H 0.7734 0.6663 0.1807
H40 H 0.8423 0.5795 0.1492
H41 H 0.9084 0.6693 0.1757
C38 C 0.94316(19) 0.53598(16) 0.32522(19)
H42 H 0.9522 0.5238 0.4000
H43 H 1.0147 0.5580 0.2978
H44 H 0.9217 0.4815 0.2887
C39 C 1.0578(2) 0.86050(17) 0.4182(2)
H45 H 1.0384 0.9222 0.4391
C40 C 1.1664(2) 0.8351(2) 0.4760(3)
H46 H 1.2275 0.8745 0.4547
H47 H 1.1860 0.7740 0.4589
H48 H 1.1557 0.8404 0.5514
C41 C 1.0752(2) 0.86015(19) 0.3010(2)
H49 H 1.1303 0.9058 0.2828
H50 H 1.0032 0.8723 0.2649
H51 H 1.1035 0.8022 0.2794
C42 C 0.47162(19) 0.46453(17) 0.35625(17)
C43 C 0.4577(2) 0.37390(18) 0.35036(19)
C44 C 0.3458(3) 0.3441(2) 0.3321(2)
H52 H 0.3320 0.2824 0.3264
C45 C 0.2570(3) 0.4015(3) 0.3218(2)
H53 H 0.1830 0.3792 0.3092
C46 C 0.2737(2) 0.4915(2) 0.32999(19)
H54 H 0.2119 0.5313 0.3235
C47 C 0.38157(19) 0.5225(2) 0.34767(17)
H55 H 0.3943 0.5843 0.3540
C48 C 0.5543(3) 0.30997(18) 0.3634(2)
H56 H 0.6250 0.3454 0.3731
C49 C 0.5687(4) 0.2521(2) 0.2659(3)
H57 H 0.5786 0.2899 0.2047
H58 H 0.5015 0.2151 0.2556
H59 H 0.6353 0.2143 0.2754
C50 C 0.5408(3) 0.2522(2) 0.4613(2)
H60 H 0.5331 0.2902 0.5227
H61 H 0.6073 0.2142 0.4704
H62 H 0.4731 0.2154 0.4531
loop_
_geom_bond_atom_site_label_1
_geom_bond_atom_site_label_2
_geom_bond_site_symmetry_1
_geom_bond_site_symmetry_2
S1 C1 1_555 1_555
O1 C9 1_555 1_555
N1 C1 1_555 1_555
C1 N2 1_555 1_555
N2 C2 1_555 1_555
C2 C3 1_555 1_555
C3 N1 1_555 1_555
C4 C3 1_555 1_555
H1 C4 1_555 1_555
C5 C4 1_555 1_555
H2 C5 1_555 1_555
C6 C5 1_555 1_555
H3 C6 1_555 1_555
C7 C2 1_555 1_555
H4 C7 1_555 1_555
C8 N1 1_555 1_555
C9 C8 1_555 1_555
N3 C9 1_555 1_555
C10 N3 1_555 1_555
H5 C10 1_555 1_555
C11 O1 1_555 1_555
H6 C11 1_555 1_555
H7 C11 1_555 1_555
C12 C8 1_555 1_555
H8 C12 1_555 1_555
H9 C12 1_555 1_555
H10 C12 1_555 1_555
C13 C8 1_555 1_555
H11 C13 1_555 1_555
H12 C13 1_555 1_555
H13 C13 1_555 1_555
C14 C10 1_555 1_555
H14 C14 1_555 1_555
C15 C14 1_555 1_555
H15 C15 1_555 1_555
H16 C15 1_555 1_555
H17 C15 1_555 1_555
C16 C14 1_555 1_555
H18 C16 1_555 1_555
H19 C16 1_555 1_555
H20 C16 1_555 1_555
C17 N2 1_555 1_555
C18 C17 1_555 1_555
C19 C18 1_555 1_555
H21 C19 1_555 1_555
C20 C19 1_555 1_555
H22 C20 1_555 1_555
C21 C20 1_555 1_555
H23 C21 1_555 1_555
C22 C17 1_555 1_555
H24 C22 1_555 1_555
C23 C18 1_555 1_555
H25 C23 1_555 1_555
C24 C23 1_555 1_555
H26 C24 1_555 1_555
H27 C24 1_555 1_555
H28 C24 1_555 1_555
C25 C23 1_555 1_555
H29 C25 1_555 1_555
H30 C25 1_555 1_555
H31 C25 1_555 1_555
S2 C26 1_555 1_555
O2 C34 1_555 1_555
N4 C26 1_555 1_555
C26 N5 1_555 1_555
N5 C27 1_555 1_555
C27 C28 1_555 1_555
C28 N4 1_555 1_555
C29 C28 1_555 1_555
H32 C29 1_555 1_555
C30 C29 1_555 1_555
H33 C30 1_555 1_555
C31 C30 1_555 1_555
H34 C31 1_555 1_555
C32 C27 1_555 1_555
H35 C32 1_555 1_555
C33 N4 1_555 1_555
C34 C33 1_555 1_555
N6 C34 1_555 1_555
C35 N6 1_555 1_555
H36 C35 1_555 1_555
C36 O2 1_555 1_555
H37 C36 1_555 1_555
H38 C36 1_555 1_555
C37 C33 1_555 1_555
H39 C37 1_555 1_555
H40 C37 1_555 1_555
H41 C37 1_555 1_555
C38 C33 1_555 1_555
H42 C38 1_555 1_555
H43 C38 1_555 1_555
H44 C38 1_555 1_555
C39 C35 1_555 1_555
H45 C39 1_555 1_555
C40 C39 1_555 1_555
H46 C40 1_555 1_555
H47 C40 1_555 1_555
H48 C40 1_555 1_555
C41 C39 1_555 1_555
H49 C41 1_555 1_555
H50 C41 1_555 1_555
H51 C41 1_555 1_555
C42 N5 1_555 1_555
C43 C42 1_555 1_555
C44 C43 1_555 1_555
H52 C44 1_555 1_555
C45 C44 1_555 1_555
H53 C45 1_555 1_555
C46 C45 1_555 1_555
H54 C46 1_555 1_555
C47 C42 1_555 1_555
H55 C47 1_555 1_555
C48 C43 1_555 1_555
H56 C48 1_555 1_555
C49 C48 1_555 1_555
H57 C49 1_555 1_555
H58 C49 1_555 1_555
H59 C49 1_555 1_555
C50 C48 1_555 1_555
H60 C50 1_555 1_555
H61 C50 1_555 1_555
H62 C50 1_555 1_555
C6 C7 1_555 1_555
C10 C11 1_555 1_555
C21 C22 1_555 1_555
C31 C32 1_555 1_555
C35 C36 1_555 1_555
C46 C47 1_555 1_555

#END
