
#######################################################################
#
#                 Cambridge Crystallographic Data Centre
#                                CCDC 
#
#######################################################################
#
# If this CIF has been generated from an entry in the Cambridge 
# Structural Database, then it will include bibliographic, chemical, 
# crystal, experimental, refinement or atomic coordinate data resulting 
# from the CCDC's data processing and validation procedures.
#
#######################################################################

data_JIPDIY
_chemical_formula_moiety         'C25 H19 N1 O1'
_chemical_name_systematic        6-ethoxy-12-phenylbenzo[c]phenanthridine
_symmetry_cell_setting           triclinic
_symmetry_space_group_name_H-M   'P -1'
_symmetry_Int_Tables_number      2
_space_group_name_Hall           '-P 1'
loop_
_symmetry_equiv_pos_site_id
_symmetry_equiv_pos_as_xyz
1 x,y,z
2 -x,-y,-z
_cell_length_a                   7.9143(16)
_cell_length_b                   10.606(2)
_cell_length_c                   11.553(2)
_cell_angle_alpha                103.60(3)
_cell_angle_beta                 94.08(3)
_cell_angle_gamma                108.42(3)
_cell_volume                     883.072
_exptl_crystal_colour            colorless
_exptl_crystal_description       BLOCK
_cell_formula_units_Z            2
loop_
_atom_site_label
_atom_site_type_symbol
_atom_site_fract_x
_atom_site_fract_y
_atom_site_fract_z
N1 N 0.30243(19) 0.53086(16) 0.45525(13)
O1 O 0.45177(17) 0.70935(14) 0.61832(11)
C1 C 0.2643(3) 0.4096(2) 0.21036(17)
H1 H 0.3540 0.4945 0.2462
C2 C 0.2486(3) 0.3512(2) 0.09123(18)
H2 H 0.3277 0.3953 0.0457
C3 C 0.1144(3) 0.2257(2) 0.03690(18)
H3 H 0.1034 0.1860 -0.0454
C4 C -0.0008(3) 0.1601(2) 0.10218(17)
H4 H -0.0902 0.0758 0.0642
C5 C 0.0128(2) 0.21764(19) 0.22626(16)
C6 C 0.1482(2) 0.34460(19) 0.28101(16)
C7 C 0.1700(2) 0.40431(19) 0.40807(15)
C8 C 0.0598(2) 0.33512(19) 0.47709(15)
C9 C -0.0747(2) 0.20680(19) 0.41866(16)
H5 H -0.1485 0.1600 0.4653
C10 C -0.1018(2) 0.14862(19) 0.29903(16)
C11 C 0.0901(2) 0.39650(19) 0.60483(15)
C12 C -0.0115(3) 0.3366(2) 0.68482(16)
H6 H -0.1060 0.2529 0.6552
C13 C 0.0263(3) 0.3991(2) 0.80439(17)
H7 H -0.0430 0.3582 0.8561
C14 C 0.1660(3) 0.5227(2) 0.85090(18)
H8 H 0.1913 0.5637 0.9336
C15 C 0.2670(3) 0.5849(2) 0.77638(17)
H9 H 0.3608 0.6687 0.8078
C16 C 0.2291(2) 0.52233(19) 0.65258(15)
C17 C -0.2439(2) 0.0127(2) 0.24604(16)
C18 C -0.2373(3) -0.1005(2) 0.28104(17)
H10 H -0.1402 -0.0913 0.3366
C19 C -0.3696(3) -0.2268(2) 0.23638(19)
H11 H -0.3606 -0.3025 0.2603
C20 C -0.5142(3) -0.2415(2) 0.15705(18)
H12 H -0.6061 -0.3267 0.1281
C21 C -0.5236(3) -0.1310(3) 0.12035(19)
H13 H -0.6214 -0.1411 0.0649
C22 C -0.3904(3) -0.0047(2) 0.16430(17)
H14 H -0.3989 0.0702 0.1386
C23 C 0.3268(2) 0.5843(2) 0.56932(16)
C24 C 0.5447(3) 0.7786(2) 0.53724(18)
H15 H 0.4591 0.7873 0.4779
H16 H 0.6139 0.7267 0.4953
C25 C 0.6666(3) 0.9173(3) 0.6093(2)
H17 H 0.7309 0.9663 0.5569
H18 H 0.5967 0.9679 0.6502
H19 H 0.7509 0.9076 0.6676
loop_
_geom_bond_atom_site_label_1
_geom_bond_atom_site_label_2
_geom_bond_site_symmetry_1
_geom_bond_site_symmetry_2
N1 C7 1_555 1_555
O1 C23 1_555 1_555
C1 H1 1_555 1_555
C2 C1 1_555 1_555
H2 C2 1_555 1_555
C3 C2 1_555 1_555
H3 C3 1_555 1_555
C4 C3 1_555 1_555
H4 C4 1_555 1_555
C5 C4 1_555 1_555
C6 C1 1_555 1_555
C7 C6 1_555 1_555
C8 C7 1_555 1_555
C9 C8 1_555 1_555
H5 C9 1_555 1_555
C10 C5 1_555 1_555
C11 C8 1_555 1_555
C12 C11 1_555 1_555
H6 C12 1_555 1_555
C13 C12 1_555 1_555
H7 C13 1_555 1_555
C14 C13 1_555 1_555
H8 C14 1_555 1_555
C15 C14 1_555 1_555
H9 C15 1_555 1_555
C16 C11 1_555 1_555
C17 C10 1_555 1_555
C18 C17 1_555 1_555
H10 C18 1_555 1_555
C19 C18 1_555 1_555
H11 C19 1_555 1_555
C20 C19 1_555 1_555
H12 C20 1_555 1_555
C21 C20 1_555 1_555
H13 C21 1_555 1_555
C22 C17 1_555 1_555
H14 C22 1_555 1_555
C23 N1 1_555 1_555
C24 O1 1_555 1_555
H15 C24 1_555 1_555
H16 C24 1_555 1_555
C25 C24 1_555 1_555
H17 C25 1_555 1_555
H18 C25 1_555 1_555
H19 C25 1_555 1_555
C5 C6 1_555 1_555
C9 C10 1_555 1_555
C15 C16 1_555 1_555
C16 C23 1_555 1_555
C21 C22 1_555 1_555

#END
