
#######################################################################
#
#                 Cambridge Crystallographic Data Centre
#                                CCDC 
#
#######################################################################
#
# If this CIF has been generated from an entry in the Cambridge 
# Structural Database, then it will include bibliographic, chemical, 
# crystal, experimental, refinement or atomic coordinate data resulting 
# from the CCDC's data processing and validation procedures.
#
#######################################################################

data_JIPFEW
_chemical_formula_moiety         'C21 H21 F3 N4 O3'
_chemical_name_systematic        
N-[2-(dimethylamino)ethyl]-2-(1,3-dioxo-1,3-dihydro-2H-isoindol-2-yl)-3-[6-(trifluoromethyl)pyridin-2-yl]propanamide
_symmetry_cell_setting           orthorhombic
_symmetry_space_group_name_H-M   'P 21 21 21'
_symmetry_Int_Tables_number      19
_space_group_name_Hall           'P 2ac 2ab'
loop_
_symmetry_equiv_pos_site_id
_symmetry_equiv_pos_as_xyz
1 x,y,z
2 1/2-x,-y,1/2+z
3 1/2+x,1/2-y,-z
4 -x,1/2+y,1/2-z
_cell_length_a                   9.9175(7)
_cell_length_b                   20.2882(17)
_cell_length_c                   22.6996(17)
_cell_angle_alpha                90
_cell_angle_beta                 90
_cell_angle_gamma                90
_cell_volume                     4567.35
_exptl_crystal_colour            colorless
_exptl_crystal_description       prismatic
_cell_formula_units_Z            8
loop_
_atom_site_label
_atom_site_type_symbol
_atom_site_fract_x
_atom_site_fract_y
_atom_site_fract_z
N1 N 0.8813(4) 0.3599(2) 0.10993(18)
N2 N 0.8180(6) 0.2482(3) 0.1744(3)
N3 N 0.889(2) 0.1095(5) 0.2718(5)
N4 N 0.7505(7) 0.4754(3) 0.0500(3)
O1 O 0.9712(4) 0.4409(2) 0.16798(19)
O2 O 0.8473(5) 0.2861(2) 0.03418(19)
O3 O 0.5991(4) 0.2684(2) 0.1621(3)
C1 C 0.9819(6) 0.4045(3) 0.1264(2)
C2 C 0.9168(6) 0.3264(3) 0.0581(2)
C3 C 1.0532(6) 0.3505(3) 0.0425(2)
C4 C 1.0925(6) 0.3970(3) 0.0834(2)
C5 C 1.2160(7) 0.4263(3) 0.0800(3)
H1 H 1.2436 0.4575 0.1075
C6 C 1.2994(7) 0.4074(4) 0.0330(4)
H2 H 1.3838 0.4270 0.0294
C7 C 1.2621(7) 0.3619(4) -0.0070(3)
H3 H 1.3209 0.3505 -0.0373
C8 C 1.1375(7) 0.3321(3) -0.0036(3)
H4 H 1.1107 0.3008 -0.0311
C9 C 0.7488(5) 0.3558(3) 0.1374(2)
H5 H 0.7532 0.3833 0.1728
C10 C 0.6395(6) 0.3851(3) 0.0992(3)
H6 H 0.6393 0.3631 0.0612
H7 H 0.5525 0.3777 0.1175
C11 C 0.6598(7) 0.4572(3) 0.0901(3)
C12 C 0.5915(9) 0.5022(4) 0.1242(4)
H8 H 0.5280 0.4881 0.1515
C13 C 0.6182(12) 0.5687(5) 0.1172(6)
H9 H 0.5734 0.5997 0.1402
C14 C 0.7091(12) 0.5882(5) 0.0771(5)
H10 H 0.7265 0.6327 0.0709
C15 C 0.7768(9) 0.5400(5) 0.0452(4)
C16 C 0.8857(17) 0.5563(7) 0.0033(6)
C17 C 0.7158(5) 0.2859(3) 0.1587(3)
C18 C 0.8014(8) 0.1811(4) 0.1979(5)
H11 H 0.7069 0.1728 0.2060
H12 H 0.8319 0.1492 0.1691
C19 C 0.8800(18) 0.1743(5) 0.2521(5)
H13 H 0.9703 0.1910 0.2453
H14 H 0.8391 0.2011 0.2826
C20 C 1.011(3) 0.1020(11) 0.3096(13)
H15 H 1.0885 0.1176 0.2884
H16 H 1.0229 0.0562 0.3190
H17 H 1.0010 0.1268 0.3453
C21 C 0.777(3) 0.0895(9) 0.3050(11)
H18 H 0.7482 0.1252 0.3298
H19 H 0.8030 0.0527 0.3291
H20 H 0.7048 0.0767 0.2794
F1 F 0.9962(11) 0.5318(7) 0.0134(6)
F2 F 0.8556(17) 0.5428(8) -0.0484(5)
F3 F 0.9046(13) 0.6176(4) -0.0067(5)
H21 H 0.895(6) 0.262(2) 0.167(2)
N5 N 0.3764(4) 0.3131(2) 0.27398(19)
N6 N 0.3152(5) 0.2598(3) 0.1655(2)
N7 N 0.2282(19) 0.1238(6) 0.1460(6)
N8 N 0.1637(6) 0.3542(4) 0.3733(3)
O4 O 0.4300(7) 0.4087(3) 0.2250(2)
O5 O 0.3895(7) 0.2226(3) 0.3346(3)
O6 O 0.0946(4) 0.2795(2) 0.17694(19)
C22 C 0.4577(7) 0.3657(4) 0.2594(3)
C23 C 0.4388(7) 0.2716(4) 0.3151(3)
C24 C 0.5720(8) 0.3024(5) 0.3262(4)
C25 C 0.5825(7) 0.3576(6) 0.2934(4)
C26 C 0.6956(10) 0.3993(7) 0.2932(5)
H22 H 0.7030 0.4372 0.2705
C27 C 0.7973(15) 0.3760(11) 0.3322(9)
H23 H 0.8749 0.4014 0.3362
C28 C 0.7895(16) 0.3201(11) 0.3637(7)
H24 H 0.8636 0.3071 0.3860
C29 C 0.6726(11) 0.2803(8) 0.3642(5)
H25 H 0.6638 0.2430 0.3876
C30 C 0.2358(5) 0.3064(3) 0.2579(2)
H26 H 0.1986 0.2728 0.2843
C31 C 0.1540(8) 0.3691(4) 0.2693(3)
H27 H 0.1792 0.4023 0.2406
H28 H 0.0589 0.3595 0.2640
C32 C 0.1750(7) 0.3956(5) 0.3288(3)
C33 C 0.2052(15) 0.4606(6) 0.3379(5)
H29 H 0.2121 0.4899 0.3065
C34 C 0.225(2) 0.4816(8) 0.3967(6)
H30 H 0.2471 0.5254 0.4044
C35 C 0.2128(16) 0.4376(8) 0.4426(5)
H31 H 0.2252 0.4505 0.4815
C36 C 0.1822(10) 0.3757(7) 0.4285(4)
C37 C 0.176(2) 0.3267(12) 0.4742(5)
C38 C 0.2112(6) 0.2808(3) 0.1951(2)
C39 C 0.3053(7) 0.2271(4) 0.1088(3)
H32 H 0.3689 0.2469 0.0815
H33 H 0.2153 0.2332 0.0929
C40 C 0.3341(14) 0.1549(6) 0.1140(4)
H34 H 0.3412 0.1355 0.0751
H35 H 0.4192 0.1483 0.1343
C41 C 0.271(4) 0.0677(12) 0.1764(11)
H36 H 0.2561 0.0294 0.1524
H37 H 0.2172 0.0644 0.2116
H38 H 0.3642 0.0706 0.1867
C42 C 0.104(2) 0.1110(16) 0.1102(13)
H39 H 0.0556 0.0748 0.1272
H40 H 0.1287 0.1004 0.0704
H41 H 0.0479 0.1496 0.1103
F4 F 0.0647(19) 0.2965(10) 0.4755(5)
F5 F 0.1942(15) 0.3519(6) 0.5270(3)
F6 F 0.267(2) 0.2847(8) 0.4732(6)
H42 H 0.386(11) 0.263(5) 0.191(4)
loop_
_geom_bond_atom_site_label_1
_geom_bond_atom_site_label_2
_geom_bond_site_symmetry_1
_geom_bond_site_symmetry_2
N1 C1 1_555 1_555
N2 C17 1_555 1_555
N3 C19 1_555 1_555
N4 C11 1_555 1_555
O1 C1 1_555 1_555
O2 C2 1_555 1_555
O3 C17 1_555 1_555
C1 C4 1_555 1_555
C2 N1 1_555 1_555
C3 C2 1_555 1_555
C4 C3 1_555 1_555
C5 C4 1_555 1_555
H1 C5 1_555 1_555
C6 C5 1_555 1_555
H2 C6 1_555 1_555
C7 C6 1_555 1_555
H3 C7 1_555 1_555
C8 C3 1_555 1_555
H4 C8 1_555 1_555
C9 N1 1_555 1_555
H5 C9 1_555 1_555
C10 C9 1_555 1_555
H6 C10 1_555 1_555
H7 C10 1_555 1_555
C11 C10 1_555 1_555
C12 C11 1_555 1_555
H8 C12 1_555 1_555
C13 C12 1_555 1_555
H9 C13 1_555 1_555
C14 C13 1_555 1_555
H10 C14 1_555 1_555
C15 N4 1_555 1_555
C16 C15 1_555 1_555
C17 C9 1_555 1_555
C18 N2 1_555 1_555
H11 C18 1_555 1_555
H12 C18 1_555 1_555
C19 C18 1_555 1_555
H13 C19 1_555 1_555
H14 C19 1_555 1_555
C20 N3 1_555 1_555
H15 C20 1_555 1_555
H16 C20 1_555 1_555
H17 C20 1_555 1_555
C21 N3 1_555 1_555
H18 C21 1_555 1_555
H19 C21 1_555 1_555
H20 C21 1_555 1_555
F1 C16 1_555 1_555
F2 C16 1_555 1_555
F3 C16 1_555 1_555
H21 N2 1_555 1_555
N5 C22 1_555 1_555
N6 C38 1_555 1_555
N7 C40 1_555 1_555
N8 C32 1_555 1_555
O4 C22 1_555 1_555
O5 C23 1_555 1_555
O6 C38 1_555 1_555
C22 C25 1_555 1_555
C23 N5 1_555 1_555
C24 C23 1_555 1_555
C25 C24 1_555 1_555
C26 C25 1_555 1_555
H22 C26 1_555 1_555
C27 C26 1_555 1_555
H23 C27 1_555 1_555
C28 C27 1_555 1_555
H24 C28 1_555 1_555
C29 C24 1_555 1_555
H25 C29 1_555 1_555
C30 N5 1_555 1_555
H26 C30 1_555 1_555
C31 C30 1_555 1_555
H27 C31 1_555 1_555
H28 C31 1_555 1_555
C32 C31 1_555 1_555
C33 C32 1_555 1_555
H29 C33 1_555 1_555
C34 C33 1_555 1_555
H30 C34 1_555 1_555
C35 C34 1_555 1_555
H31 C35 1_555 1_555
C36 N8 1_555 1_555
C37 C36 1_555 1_555
C38 C30 1_555 1_555
C39 N6 1_555 1_555
H32 C39 1_555 1_555
H33 C39 1_555 1_555
C40 C39 1_555 1_555
H34 C40 1_555 1_555
H35 C40 1_555 1_555
C41 N7 1_555 1_555
H36 C41 1_555 1_555
H37 C41 1_555 1_555
H38 C41 1_555 1_555
C42 N7 1_555 1_555
H39 C42 1_555 1_555
H40 C42 1_555 1_555
H41 C42 1_555 1_555
F4 C37 1_555 1_555
F5 C37 1_555 1_555
F6 C37 1_555 1_555
H42 N6 1_555 1_555
C7 C8 1_555 1_555
C14 C15 1_555 1_555
C28 C29 1_555 1_555
C35 C36 1_555 1_555

#END
