
#######################################################################
#
#                 Cambridge Crystallographic Data Centre
#                                CCDC 
#
#######################################################################
#
# If this CIF has been generated from an entry in the Cambridge 
# Structural Database, then it will include bibliographic, chemical, 
# crystal, experimental, refinement or atomic coordinate data resulting 
# from the CCDC's data processing and validation procedures.
#
#######################################################################

data_JIPRIK
_chemical_formula_moiety         'C28 H30 N2 O4 S1'
_chemical_name_systematic        
'anti-Ethyl 2-(3,3-dimethyl-1-(p-tosyl)aziridin-2-yl)-2-(diphenylmethyleneamino)acetate'
_symmetry_cell_setting           monoclinic
_symmetry_space_group_name_H-M   'P 21/c'
_symmetry_Int_Tables_number      14
_space_group_name_Hall           '-P 2ybc'
loop_
_symmetry_equiv_pos_site_id
_symmetry_equiv_pos_as_xyz
1 x,y,z
2 -x,1/2+y,1/2-z
3 -x,-y,-z
4 x,1/2-y,1/2+z
_cell_length_a                   11.0966(3)
_cell_length_b                   12.1982(4)
_cell_length_c                   19.3775(7)
_cell_angle_alpha                90
_cell_angle_beta                 94.928(2)
_cell_angle_gamma                90
_cell_volume                     2613.21
_exptl_crystal_colour            colorless
_exptl_crystal_description       block
_chemical_melting_point          147-148deg.C
_cell_formula_units_Z            4
_exptl_crystal_recrystallization_method 'hexane/ethyl acetate'
loop_
_atom_site_label
_atom_site_type_symbol
_atom_site_fract_x
_atom_site_fract_y
_atom_site_fract_z
S1 S 0.35351(6) -0.35819(5) 0.14774(3)
O1 O 0.26018(18) -0.37301(15) 0.19388(10)
O2 O 0.46646(16) -0.41475(15) 0.16223(9)
N1 N 0.21808(17) 0.03396(16) 0.15997(10)
N2 N 0.38742(16) -0.22729(15) 0.13770(10)
O3 O 0.07952(15) -0.11522(19) 0.06611(10)
O4 O 0.22872(14) -0.08307(15) -0.00170(8)
C1 C 0.1808(2) -0.0857(2) 0.05887(13)
C2 C 0.3085(2) -0.14267(19) 0.16475(12)
H1 H 0.2422 -0.1716 0.1915
C3 C 0.2727(2) -0.04844(19) 0.11659(12)
H2 H 0.3458 -0.0174 0.0968
C4 C 0.4327(2) -0.1567(2) 0.19903(12)
C5 C 0.21444(19) 0.13490(19) 0.14065(12)
C6 C 0.2612(2) 0.17708(19) 0.07561(12)
C7 C 0.1800(2) 0.2110(2) 0.02169(14)
H3 H 0.0959 0.2112 0.0274
C8 C 0.2203(3) 0.2448(3) -0.04064(15)
H4 H 0.1641 0.2677 -0.0775
C9 C 0.3425(3) 0.2451(2) -0.04882(15)
H5 H 0.3706 0.2689 -0.0913
C10 C 0.4238(3) 0.2111(2) 0.00456(16)
H6 H 0.5079 0.2103 -0.0015
C11 C 0.3842(2) 0.1781(2) 0.06654(14)
H7 H 0.4411 0.1560 0.1034
C12 C 0.15570(19) 0.21343(19) 0.18655(12)
C13 C 0.1849(2) 0.3242(2) 0.18781(13)
H8 H 0.2385 0.3522 0.1564
C14 C 0.1366(2) 0.3943(2) 0.23449(13)
H9 H 0.1585 0.4696 0.2356
C15 C 0.0567(2) 0.3549(2) 0.27948(13)
H10 H 0.0244 0.4027 0.3119
C16 C 0.0240(2) 0.2457(2) 0.27705(13)
H11 H -0.0328 0.2190 0.3069
C17 C 0.0735(2) 0.17474(19) 0.23146(12)
H12 H 0.0514 0.0995 0.2307
C18 C 0.2934(2) -0.39134(19) 0.06378(13)
C19 C 0.3718(2) -0.4188(2) 0.01457(14)
H13 H 0.4566 -0.4203 0.0265
C20 C 0.3256(3) -0.4439(2) -0.05188(15)
H14 H 0.3795 -0.4639 -0.0853
C21 C 0.2026(3) -0.4406(2) -0.07102(17)
C22 C 0.1264(3) -0.4134(3) -0.02121(18)
H15 H 0.0417 -0.4116 -0.0334
C23 C 0.1695(2) -0.3886(2) 0.04582(17)
H16 H 0.1152 -0.3699 0.0793
C24 C 0.1551(4) -0.4665(3) -0.14445(19)
H17 H 0.0737 -0.4978 -0.1447
H18 H 0.2089 -0.5195 -0.1643
H19 H 0.1519 -0.3991 -0.1721
C25 C 0.1512(2) -0.1136(2) -0.06264(13)
H20 H 0.0857 -0.0590 -0.0717
H21 H 0.1140 -0.1862 -0.0559
C26 C 0.2284(3) -0.1174(3) -0.12162(15)
H22 H 0.2625 -0.0446 -0.1287
H23 H 0.1794 -0.1401 -0.1637
H24 H 0.2942 -0.1701 -0.1114
C27 C 0.4488(3) -0.2060(2) 0.27070(14)
H25 H 0.4602 -0.1473 0.3052
H26 H 0.5199 -0.2540 0.2742
H27 H 0.3768 -0.2488 0.2792
C28 C 0.5340(2) -0.0812(2) 0.18263(15)
H28 H 0.5239 -0.0611 0.1335
H29 H 0.6117 -0.1186 0.1926
H30 H 0.5321 -0.0149 0.2111
loop_
_geom_bond_atom_site_label_1
_geom_bond_atom_site_label_2
_geom_bond_site_symmetry_1
_geom_bond_site_symmetry_2
S1 O1 1_555 1_555
O2 S1 1_555 1_555
N1 C3 1_555 1_555
N2 S1 1_555 1_555
O3 C1 1_555 1_555
O4 C1 1_555 1_555
C1 C3 1_555 1_555
C2 N2 1_555 1_555
H1 C2 1_555 1_555
C3 C2 1_555 1_555
H2 C3 1_555 1_555
C4 N2 1_555 1_555
C5 N1 1_555 1_555
C6 C5 1_555 1_555
C7 C6 1_555 1_555
H3 C7 1_555 1_555
C8 C7 1_555 1_555
H4 C8 1_555 1_555
C9 C8 1_555 1_555
H5 C9 1_555 1_555
C10 C9 1_555 1_555
H6 C10 1_555 1_555
C11 C6 1_555 1_555
H7 C11 1_555 1_555
C12 C5 1_555 1_555
C13 C12 1_555 1_555
H8 C13 1_555 1_555
C14 C13 1_555 1_555
H9 C14 1_555 1_555
C15 C14 1_555 1_555
H10 C15 1_555 1_555
C16 C15 1_555 1_555
H11 C16 1_555 1_555
C17 C12 1_555 1_555
H12 C17 1_555 1_555
C18 S1 1_555 1_555
C19 C18 1_555 1_555
H13 C19 1_555 1_555
C20 C19 1_555 1_555
H14 C20 1_555 1_555
C21 C20 1_555 1_555
C22 C21 1_555 1_555
H15 C22 1_555 1_555
C23 C18 1_555 1_555
H16 C23 1_555 1_555
C24 C21 1_555 1_555
H17 C24 1_555 1_555
H18 C24 1_555 1_555
H19 C24 1_555 1_555
C25 O4 1_555 1_555
H20 C25 1_555 1_555
H21 C25 1_555 1_555
C26 C25 1_555 1_555
H22 C26 1_555 1_555
H23 C26 1_555 1_555
H24 C26 1_555 1_555
C27 C4 1_555 1_555
H25 C27 1_555 1_555
H26 C27 1_555 1_555
H27 C27 1_555 1_555
C28 C4 1_555 1_555
H28 C28 1_555 1_555
H29 C28 1_555 1_555
H30 C28 1_555 1_555
C2 C4 1_555 1_555
C10 C11 1_555 1_555
C16 C17 1_555 1_555
C22 C23 1_555 1_555

#END
