
#######################################################################
#
#                 Cambridge Crystallographic Data Centre
#                                CCDC 
#
#######################################################################
#
# If this CIF has been generated from an entry in the Cambridge 
# Structural Database, then it will include bibliographic, chemical, 
# crystal, experimental, refinement or atomic coordinate data resulting 
# from the CCDC's data processing and validation procedures.
#
#######################################################################

data_JIQMAY
_chemical_formula_moiety         'C16 H36 N1 1+,C18 H13 O4 1-'
_chemical_name_systematic        
'tetra-n-butylammonium trans-9,10-dihydro-11-carboxy-9,10-ethanoanthracene-12-carboxylate'
_symmetry_cell_setting           monoclinic
_symmetry_space_group_name_H-M   'C 2/c'
_symmetry_Int_Tables_number      15
_space_group_name_Hall           '-C 2yn'
loop_
_symmetry_equiv_pos_site_id
_symmetry_equiv_pos_as_xyz
1 x,y,z
2 1/2+x,1/2+y,z
3 -x,y,1/2-z
4 1/2-x,1/2+y,1/2-z
5 -x,-y,-z
6 1/2-x,1/2-y,-z
7 x,-y,1/2+z
8 1/2+x,1/2-y,1/2+z
_cell_length_a                   14.005(3)
_cell_length_b                   12.8212(16)
_cell_length_c                   17.657(3)
_cell_angle_alpha                90
_cell_angle_beta                 100.388(13)
_cell_angle_gamma                90
_cell_volume                     3118.54
_exptl_crystal_colour            colorless
_exptl_crystal_description       block
_cell_formula_units_Z            4
loop_
_atom_site_label
_atom_site_type_symbol
_atom_site_fract_x
_atom_site_fract_y
_atom_site_fract_z
O1 O 0.2940(2) 0.2038(2) 0.20759(19)
O2 O 0.4111(2) 0.3214(2) 0.2398(2)
H1 H 0.5000 0.3014 0.2500
C1 C 0.4103(2) -0.01478(17) 0.27529(15)
C2 C 0.5028(2) -0.01521(18) 0.17118(14)
C3 C 0.5017(3) -0.0582(2) 0.09913(16)
H2 H 0.4450 -0.0573 0.0625
C4 C 0.5851(4) -0.1023(2) 0.0818(2)
H3 H 0.5838 -0.1320 0.0336
C5 C 0.6698(3) -0.1029(2) 0.1347(2)
H4 H 0.7257 -0.1324 0.1224
C6 C 0.3285(2) -0.0593(2) 0.29359(18)
H5 H 0.2713 -0.0602 0.2574
C7 C 0.4207(2) 0.03706(18) 0.19984(14)
H6 H 0.3614 0.0336 0.1629
C8 C 0.4552(2) 0.15128(18) 0.21847(15)
H7 H 0.4802 0.1726 0.1737
C9 C 0.3798(4) 0.2274(3) 0.2218(3)
O1B O 0.7060(2) 0.2038(2) 0.29241(19)
O2B O 0.5889(2) 0.3214(2) 0.2602(2)
C1B C 0.5897(2) -0.01478(17) 0.22471(15)
C2B C 0.4972(2) -0.01521(18) 0.32882(14)
C3B C 0.4983(3) -0.0582(2) 0.40087(16)
H2B H 0.5550 -0.0573 0.4375
C4B C 0.4149(4) -0.1023(2) 0.4182(2)
H3B H 0.4162 -0.1320 0.4664
C5B C 0.3302(3) -0.1029(2) 0.3653(2)
H4B H 0.2743 -0.1324 0.3776
C6B C 0.6715(2) -0.0593(2) 0.20641(18)
H5B H 0.7287 -0.0602 0.2426
C7B C 0.5793(2) 0.03706(18) 0.30016(14)
H6B H 0.6386 0.0336 0.3371
C8B C 0.5448(2) 0.15128(18) 0.28153(15)
H7B H 0.5198 0.1726 0.3263
C9B C 0.6202(4) 0.2274(3) 0.2782(3)
N1 N 0.0000 0.1336(2) 0.2500
C10 C 0.0788(2) 0.20547(18) 0.29126(14)
H8 H 0.1022 0.2477 0.2528
H9 H 0.0495 0.2525 0.3235
C11 C 0.1655(2) 0.1544(2) 0.34079(16)
H10 H 0.1958 0.1063 0.3100
H11 H 0.1446 0.1154 0.3820
C12 C 0.2379(2) 0.2379(2) 0.37455(17)
H12 H 0.2571 0.2773 0.3329
H13 H 0.2067 0.2856 0.4050
C13 C 0.3277(2) 0.1930(3) 0.42459(18)
H14 H 0.3710 0.2486 0.4443
H15 H 0.3596 0.1466 0.3945
H16 H 0.3093 0.1553 0.4667
C14 C 0.0388(2) 0.06248(19) 0.19369(15)
H17 H 0.0896 0.0195 0.2227
H18 H -0.0132 0.0162 0.1708
C15 C 0.0786(2) 0.1143(2) 0.12986(16)
H19 H 0.1286 0.1637 0.1515
H20 H 0.0272 0.1525 0.0972
C16 C 0.1208(2) 0.0346(3) 0.08223(17)
H21 H 0.0704 -0.0143 0.0607
H22 H 0.1713 -0.0041 0.1154
C17 C 0.1629(3) 0.0835(3) 0.0174(2)
H23 H 0.1894 0.0298 -0.0107
H24 H 0.2134 0.1315 0.0384
H25 H 0.1128 0.1200 -0.0166
C10B C -0.0788(2) 0.20547(18) 0.20874(14)
H8B H -0.1022 0.2477 0.2472
H9B H -0.0495 0.2525 0.1765
C11B C -0.1655(2) 0.1544(2) 0.15921(16)
H10B H -0.1958 0.1063 0.1900
H11B H -0.1446 0.1154 0.1180
C12B C -0.2379(2) 0.2379(2) 0.12545(17)
H12B H -0.2571 0.2773 0.1671
H13B H -0.2067 0.2856 0.0950
C13B C -0.3277(2) 0.1930(3) 0.07541(18)
H14B H -0.3710 0.2486 0.0557
H15B H -0.3596 0.1466 0.1055
H16B H -0.3093 0.1553 0.0333
C14B C -0.0388(2) 0.06248(19) 0.30631(15)
H17B H -0.0896 0.0195 0.2773
H18B H 0.0132 0.0162 0.3292
C15B C -0.0786(2) 0.1143(2) 0.37014(16)
H19B H -0.1286 0.1637 0.3485
H20B H -0.0272 0.1525 0.4028
C16B C -0.1208(2) 0.0346(3) 0.41777(17)
H21B H -0.0704 -0.0143 0.4393
H22B H -0.1713 -0.0041 0.3846
C17B C -0.1629(3) 0.0835(3) 0.4826(2)
H23B H -0.1894 0.0298 0.5107
H24B H -0.2134 0.1315 0.4616
H25B H -0.1128 0.1200 0.5166
O3? O 0.3892(6) 0.2105(5) 0.0990(4)
O4? O 0.4627(7) 0.3272(5) 0.1814(5)
H26? H 0.5000 0.3369 0.2500
H27? H 0.4083 0.1699 0.2496
C18? C 0.4296(8) 0.2349(7) 0.1621(6)
loop_
_geom_bond_atom_site_label_1
_geom_bond_atom_site_label_2
_geom_bond_site_symmetry_1
_geom_bond_site_symmetry_2
O1 C9 1_555 1_555
O2 H1 1_555 1_555
H1 O2B 1_555 1_555
C1 C6 1_555 1_555
C2 C3 1_555 1_555
C3 H2 1_555 1_555
C4 C3 1_555 1_555
H3 C4 1_555 1_555
C5 C4 1_555 1_555
H4 C5 1_555 1_555
C6 H5 1_555 1_555
C7 C1 1_555 1_555
H6 C7 1_555 1_555
C8 C7 1_555 1_555
H7 C8 1_555 1_555
C9 O2 1_555 1_555
N1 C10 1_555 1_555
C10 H8 1_555 1_555
H9 C10 1_555 1_555
C11 C10 1_555 1_555
H10 C11 1_555 1_555
H11 C11 1_555 1_555
C12 C11 1_555 1_555
H12 C12 1_555 1_555
H13 C12 1_555 1_555
C13 C12 1_555 1_555
H14 C13 1_555 1_555
H15 C13 1_555 1_555
H16 C13 1_555 1_555
C14 N1 1_555 1_555
H17 C14 1_555 1_555
H18 C14 1_555 1_555
C15 C14 1_555 1_555
H19 C15 1_555 1_555
H20 C15 1_555 1_555
C16 C15 1_555 1_555
H21 C16 1_555 1_555
H22 C16 1_555 1_555
C17 C16 1_555 1_555
H23 C17 1_555 1_555
H24 C17 1_555 1_555
H25 C17 1_555 1_555
O1B C9B 1_555 1_555
O2B C9B 1_555 1_555
C1B C2 1_555 1_555
C2B C1 1_555 1_555
C3B C2B 1_555 1_555
H2B C3B 1_555 1_555
C4B C3B 1_555 1_555
H3B C4B 1_555 1_555
C5B C6 1_555 1_555
H4B C5B 1_555 1_555
C6B C5 1_555 1_555
H5B C6B 1_555 1_555
C7B C1B 1_555 1_555
H6B C7B 1_555 1_555
C8B C8 1_555 1_555
H7B C8B 1_555 1_555
C9B C8B 1_555 1_555
C10B N1 1_555 1_555
H8B C10B 1_555 1_555
H9B C10B 1_555 1_555
C11B C10B 1_555 1_555
H10B C11B 1_555 1_555
H11B C11B 1_555 1_555
C12B C11B 1_555 1_555
H12B C12B 1_555 1_555
H13B C12B 1_555 1_555
C13B C12B 1_555 1_555
H14B C13B 1_555 1_555
H15B C13B 1_555 1_555
H16B C13B 1_555 1_555
C14B N1 1_555 1_555
H17B C14B 1_555 1_555
H18B C14B 1_555 1_555
C15B C14B 1_555 1_555
H19B C15B 1_555 1_555
H20B C15B 1_555 1_555
C16B C15B 1_555 1_555
H21B C16B 1_555 1_555
H22B C16B 1_555 1_555
C17B C16B 1_555 1_555
H23B C17B 1_555 1_555
H24B C17B 1_555 1_555
H25B C17B 1_555 1_555
C2 C7 1_555 1_555
C8 C9 1_555 1_555
C1B C6B 1_555 1_555
C2B C7B 1_555 1_555
C4B C5B 1_555 1_555
C7B C8B 1_555 1_555

#END
