
#######################################################################
#
#                 Cambridge Crystallographic Data Centre
#                                CCDC 
#
#######################################################################
#
# If this CIF has been generated from an entry in the Cambridge 
# Structural Database, then it will include bibliographic, chemical, 
# crystal, experimental, refinement or atomic coordinate data resulting 
# from the CCDC's data processing and validation procedures.
#
#######################################################################

data_JIRSEJ
_chemical_formula_moiety         'C38 H30 N4 O8 Sr1'
_chemical_name_systematic        
Diaqua-bis(2-hydroxybenzoato-\kO)-bis(1,10-phenanthroline-\k^2^N,N')-strontium(ii)
_symmetry_cell_setting           orthorhombic
_symmetry_space_group_name_H-M   'P b c n'
_symmetry_Int_Tables_number      60
_space_group_name_Hall           '-P 2n 2ab'
loop_
_symmetry_equiv_pos_site_id
_symmetry_equiv_pos_as_xyz
1 x,y,z
2 1/2-x,1/2-y,1/2+z
3 1/2+x,1/2-y,-z
4 -x,y,1/2-z
5 -x,-y,-z
6 1/2+x,1/2+y,1/2-z
7 1/2-x,1/2+y,z
8 x,-y,1/2+z
_cell_length_a                   23.411(4)
_cell_length_b                   10.409(2)
_cell_length_c                   13.722(3)
_cell_angle_alpha                90
_cell_angle_beta                 90
_cell_angle_gamma                90
_cell_volume                     3343.85
_exptl_crystal_colour            colorless
_exptl_crystal_description       block
_cell_formula_units_Z            4
loop_
_atom_site_label
_atom_site_type_symbol
_atom_site_fract_x
_atom_site_fract_y
_atom_site_fract_z
Sr1 Sr 0.5000 0.32513(4) 0.7500
N1 N 0.56638(12) 0.1605(3) 0.6259(2)
N2 N 0.45108(12) 0.1306(3) 0.6475(2)
O1 O 0.59582(12) 0.4250(3) 0.7793(2)
O2 O 0.63015(12) 0.5102(3) 0.6429(2)
O3 O 0.70757(12) 0.6744(3) 0.6475(2)
H1 H 0.6739 0.6294 0.6234
O4 O 0.47715(12) 0.4445(3) 0.9133(2)
H2 H 0.4388 0.4614 0.9116
H3 H 0.4980 0.4617 0.9582
C1 C 0.62949(15) 0.4969(3) 0.7347(3)
C2 C 0.67216(14) 0.5724(3) 0.7920(3)
C3 C 0.70825(14) 0.6612(3) 0.7462(3)
C4 C 0.74526(16) 0.7365(4) 0.8010(4)
H5 H 0.7686 0.7965 0.7703
C5 C 0.74730(18) 0.7222(4) 0.8997(4)
H6 H 0.7722 0.7730 0.9358
C6 C 0.71325(17) 0.6340(4) 0.9470(3)
H7 H 0.7155 0.6241 1.0142
C7 C 0.67561(15) 0.5606(4) 0.8927(3)
H8 H 0.6521 0.5019 0.9243
C8 C 0.62195(15) 0.1738(4) 0.6138(3)
H9 H 0.6372 0.2563 0.6158
C9 C 0.65907(16) 0.0719(4) 0.5981(3)
H10 H 0.6980 0.0865 0.5901
C10 C 0.63777(17) -0.0490(4) 0.5945(3)
H11 H 0.6621 -0.1185 0.5847
C11 C 0.57861(16) -0.0692(3) 0.6057(3)
C12 C 0.55293(19) -0.1938(4) 0.6034(3)
H12 H 0.5758 -0.2659 0.5947
C13 C 0.4960(2) -0.2084(3) 0.6138(3)
H13 H 0.4803 -0.2904 0.6122
C14 C 0.45953(16) -0.1000(3) 0.6273(3)
C15 C 0.39992(18) -0.1094(4) 0.6365(3)
H14 H 0.3825 -0.1897 0.6348
C16 C 0.36765(16) -0.0022(4) 0.6479(3)
H15 H 0.3281 -0.0076 0.6515
C17 C 0.39512(15) 0.1152(4) 0.6541(3)
H16 H 0.3728 0.1881 0.6634
C18 C 0.48331(14) 0.0243(3) 0.6326(2)
C19 C 0.54446(15) 0.0399(3) 0.6210(2)
N1C N 0.43362(12) 0.1605(3) 0.8741(2)
N2C N 0.54892(12) 0.1306(3) 0.8525(2)
O1C O 0.40418(12) 0.4250(3) 0.7207(2)
O2C O 0.36985(12) 0.5102(3) 0.8571(2)
O3C O 0.29243(12) 0.6744(3) 0.8525(2)
H1C H 0.3261 0.6294 0.8766
O4C O 0.52285(12) 0.4445(3) 0.5867(2)
H2C H 0.5612 0.4614 0.5884
H3C H 0.5020 0.4617 0.5418
C1C C 0.37051(15) 0.4969(3) 0.7653(3)
C2C C 0.32784(14) 0.5724(3) 0.7080(3)
C3C C 0.29175(14) 0.6612(3) 0.7538(3)
C4C C 0.25474(16) 0.7365(4) 0.6990(4)
H5C H 0.2314 0.7965 0.7297
C5C C 0.25270(18) 0.7222(4) 0.6003(4)
H6C H 0.2278 0.7730 0.5642
C6C C 0.28675(17) 0.6340(4) 0.5530(3)
H7C H 0.2845 0.6241 0.4858
C7C C 0.32439(15) 0.5606(4) 0.6073(3)
H8C H 0.3479 0.5019 0.5757
C8C C 0.37805(15) 0.1738(4) 0.8862(3)
H9C H 0.3628 0.2563 0.8842
C9C C 0.34093(16) 0.0719(4) 0.9019(3)
H10C H 0.3020 0.0865 0.9099
C10C C 0.36223(17) -0.0490(4) 0.9055(3)
H11C H 0.3379 -0.1185 0.9153
C11C C 0.42139(16) -0.0692(3) 0.8943(3)
C12C C 0.44707(19) -0.1938(4) 0.8966(3)
H12C H 0.4242 -0.2659 0.9053
C13C C 0.5040(2) -0.2084(3) 0.8862(3)
H13C H 0.5197 -0.2904 0.8878
C14C C 0.54047(16) -0.1000(3) 0.8727(3)
C15C C 0.60008(18) -0.1094(4) 0.8635(3)
H14C H 0.6175 -0.1897 0.8652
C16C C 0.63235(16) -0.0022(4) 0.8521(3)
H15C H 0.6719 -0.0076 0.8485
C17C C 0.60488(15) 0.1152(4) 0.8459(3)
H16C H 0.6272 0.1881 0.8366
C18C C 0.51669(14) 0.0243(3) 0.8674(2)
C19C C 0.45554(15) 0.0399(3) 0.8790(2)
H4? H 0.4804 0.3805 0.9570
loop_
_geom_bond_atom_site_label_1
_geom_bond_atom_site_label_2
_geom_bond_site_symmetry_1
_geom_bond_site_symmetry_2
Sr1 N1 1_555 1_555
N1 C8 1_555 1_555
N2 Sr1 1_555 1_555
O1 Sr1 1_555 1_555
O2 C1 1_555 1_555
O3 H1 1_555 1_555
O4 Sr1 1_555 1_555
H2 O4 1_555 1_555
H3 O4 1_555 1_555
C1 O1 1_555 1_555
C2 C1 1_555 1_555
C3 O3 1_555 1_555
C4 C3 1_555 1_555
H5 C4 1_555 1_555
C5 C4 1_555 1_555
H6 C5 1_555 1_555
C6 C5 1_555 1_555
H7 C6 1_555 1_555
C7 C2 1_555 1_555
H8 C7 1_555 1_555
C8 H9 1_555 1_555
C9 C8 1_555 1_555
H10 C9 1_555 1_555
C10 C9 1_555 1_555
H11 C10 1_555 1_555
C11 C10 1_555 1_555
C12 C11 1_555 1_555
H12 C12 1_555 1_555
C13 C12 1_555 1_555
H13 C13 1_555 1_555
C14 C13 1_555 1_555
C15 C14 1_555 1_555
H14 C15 1_555 1_555
C16 C15 1_555 1_555
H15 C16 1_555 1_555
C17 N2 1_555 1_555
H16 C17 1_555 1_555
C18 N2 1_555 1_555
C19 N1 1_555 1_555
N1C Sr1 1_555 1_555
N2C Sr1 1_555 1_555
O1C Sr1 1_555 1_555
O2C C1C 1_555 1_555
O3C H1C 1_555 1_555
O4C Sr1 1_555 1_555
H2C O4C 1_555 1_555
H3C O4C 1_555 1_555
C1C O1C 1_555 1_555
C2C C1C 1_555 1_555
C3C O3C 1_555 1_555
C4C C3C 1_555 1_555
H5C C4C 1_555 1_555
C5C C4C 1_555 1_555
H6C C5C 1_555 1_555
C6C C5C 1_555 1_555
H7C C6C 1_555 1_555
C7C C2C 1_555 1_555
H8C C7C 1_555 1_555
C8C N1C 1_555 1_555
H9C C8C 1_555 1_555
C9C C8C 1_555 1_555
H10C C9C 1_555 1_555
C10C C9C 1_555 1_555
H11C C10C 1_555 1_555
C11C C10C 1_555 1_555
C12C C11C 1_555 1_555
H12C C12C 1_555 1_555
C13C C12C 1_555 1_555
H13C C13C 1_555 1_555
C14C C13C 1_555 1_555
C15C C14C 1_555 1_555
H14C C15C 1_555 1_555
C16C C15C 1_555 1_555
H15C C16C 1_555 1_555
C17C N2C 1_555 1_555
H16C C17C 1_555 1_555
C18C N2C 1_555 1_555
C19C N1C 1_555 1_555
C2 C3 1_555 1_555
C6 C7 1_555 1_555
C11 C19 1_555 1_555
C14 C18 1_555 1_555
C16 C17 1_555 1_555
C18 C19 1_555 1_555
C2C C3C 1_555 1_555
C6C C7C 1_555 1_555
C11C C19C 1_555 1_555
C14C C18C 1_555 1_555
C16C C17C 1_555 1_555
C18C C19C 1_555 1_555

#END
