
#######################################################################
#
#                 Cambridge Crystallographic Data Centre
#                                CCDC 
#
#######################################################################
#
# If this CIF has been generated from an entry in the Cambridge 
# Structural Database, then it will include bibliographic, chemical, 
# crystal, experimental, refinement or atomic coordinate data resulting 
# from the CCDC's data processing and validation procedures.
#
#######################################################################

data_JISCAS
_chemical_formula_moiety         'C6 H4 N4 O8,0.667(H2 O1)'
_chemical_name_systematic        
'5-amino-2,4,6-trinitrobenzene-1,3-diol monohydrate'
_symmetry_cell_setting           trigonal
_symmetry_space_group_name_H-M   'P -3 c 1'
_symmetry_Int_Tables_number      165
_space_group_name_Hall           '-P 3 2"c'
loop_
_symmetry_equiv_pos_site_id
_symmetry_equiv_pos_as_xyz
1 x,y,z
2 -y,x-y,z
3 -x+y,-x,z
4 y,x,1/2-z
5 -x,-x+y,1/2-z
6 x-y,-y,1/2-z
7 -x,-y,-z
8 y,-x+y,-z
9 x-y,x,-z
10 -y,-x,1/2+z
11 x,x-y,1/2+z
12 -x+y,y,1/2+z
_cell_length_a                   13.0221(6)
_cell_length_b                   13.0221(6)
_cell_length_c                   9.4211(8)
_cell_angle_alpha                90
_cell_angle_beta                 90
_cell_angle_gamma                120
_cell_volume                     1383.55
_exptl_crystal_description       plate
_cell_formula_units_Z            6
loop_
_atom_site_label
_atom_site_type_symbol
_atom_site_fract_x
_atom_site_fract_y
_atom_site_fract_z
O5 O 0.3333 0.6667 0.8935(5)
C1 C 0.0000 0.2267(3) 0.2500
O1 O 0.0000 0.1255(2) 0.2500
H1 H 0.061(4) 0.131(5) 0.215(6)
C2 C 0.0000 0.4407(3) 0.2500
N1 N 0.0000 0.5531(2) 0.2500
O2 O -0.08513(19) 0.55422(19) 0.1970(2)
N2 N 0.16919(19) 0.53295(18) 0.1136(2)
C3 C 0.0896(2) 0.4350(2) 0.1771(3)
C4 C 0.0874(2) 0.3255(2) 0.1747(3)
N3 N 0.1730(2) 0.3152(2) 0.0897(2)
O3 O 0.17741(19) 0.22269(18) 0.0919(2)
O4 O 0.24153(18) 0.39952(19) 0.0131(2)
H1D H -0.061(4) 0.070(6) 0.285(6)
O2D O 0.08513(19) 0.63935(27) 0.3030(2)
N2D N -0.16919(19) 0.36376(26) 0.3864(2)
C3D C -0.0896(2) 0.3454(3) 0.3229(3)
C4D C -0.0874(2) 0.2381(3) 0.3253(3)
N3D N -0.1730(2) 0.1422(3) 0.4103(2)
O3D O -0.17741(19) 0.04528(26) 0.4081(2)
O4D O -0.24153(18) 0.15799(26) 0.4869(2)
O6? O 0.16919(19) 0.53295(18) 0.1136(2)
H2? H 0.209(2) 0.517(3) 0.071(3)
H3? H 0.1755 0.6027 0.1219
H4? H 0.375(6) 0.650(7) 0.838(5)
loop_
_geom_bond_atom_site_label_1
_geom_bond_atom_site_label_2
_geom_bond_site_symmetry_1
_geom_bond_site_symmetry_2
C1 O1 1_555 1_555
O1 H1 1_555 1_555
C2 N1 1_555 1_555
N1 O2 1_555 1_555
N2 C3 1_555 1_555
C3 C2 1_555 1_555
C4 C1 1_555 1_555
N3 C4 1_555 1_555
O3 N3 1_555 1_555
O4 N3 1_555 1_555
H1D O1 1_555 1_555
O2D N1 1_555 1_555
N2D C3D 1_555 1_555
C3D C2 1_555 1_555
C4D C1 1_555 1_555
N3D C4D 1_555 1_555
O3D N3D 1_555 1_555
O4D N3D 1_555 1_555
C3 C4 1_555 1_555
C3D C4D 1_555 1_555

#END
