
#######################################################################
#
#                 Cambridge Crystallographic Data Centre
#                                CCDC 
#
#######################################################################
#
# If this CIF has been generated from an entry in the Cambridge 
# Structural Database, then it will include bibliographic, chemical, 
# crystal, experimental, refinement or atomic coordinate data resulting 
# from the CCDC's data processing and validation procedures.
#
#######################################################################

data_JISXIV
_chemical_formula_moiety         'C18 H24 Ca1 N10 O8'
_chemical_name_systematic        
tetraaqua-bis(2-[5-(pyridin-2-yl)-2H-tetrazol-2-yl]propanoato)-calcium(ii)
_symmetry_cell_setting           monoclinic
_symmetry_space_group_name_H-M   'C 2/c'
_symmetry_Int_Tables_number      15
_space_group_name_Hall           '-C 2yn'
loop_
_symmetry_equiv_pos_site_id
_symmetry_equiv_pos_as_xyz
1 x,y,z
2 -x,y,1/2-z
3 1/2+x,1/2+y,z
4 1/2-x,1/2+y,1/2-z
5 -x,-y,-z
6 x,-y,1/2+z
7 1/2-x,1/2-y,-z
8 1/2+x,1/2-y,1/2+z
_cell_length_a                   18.068(4)
_cell_length_b                   10.012(2)
_cell_length_c                   13.796(3)
_cell_angle_alpha                90
_cell_angle_beta                 104.194(2)
_cell_angle_gamma                90
_cell_volume                     2419.46
_exptl_crystal_colour            colorless
_exptl_crystal_description       block
_cell_formula_units_Z            4
loop_
_atom_site_label
_atom_site_type_symbol
_atom_site_fract_x
_atom_site_fract_y
_atom_site_fract_z
Ca1 Ca 0.0000 0.25860(3) 0.2500
O1 O 0.39496(5) 0.54796(10) 0.47688(7)
O2 O 0.28663(5) 0.56672(13) 0.35903(7)
O3 O -0.00655(5) 0.10121(11) 0.12234(8)
O4 O -0.13121(6) 0.19685(12) 0.24873(8)
N1 N 0.20054(5) 0.47573(10) 0.47769(7)
N2 N 0.17460(6) 0.36301(10) 0.43233(8)
N3 N 0.10116(6) 0.38167(10) 0.39412(8)
N4 N 0.14789(6) 0.56935(10) 0.47098(8)
N5 N -0.04505(5) 0.48351(10) 0.33397(8)
C1 C 0.32434(6) 0.54137(12) 0.44498(9)
C2 C 0.28244(6) 0.49492(12) 0.52400(9)
H1 H 0.3037 0.4082 0.5497
C3 C 0.29444(7) 0.59087(15) 0.61195(10)
H2 H 0.2759 0.6778 0.5884
H3 H 0.3479 0.5962 0.6440
H4 H 0.2671 0.5592 0.6589
C4 C 0.08568(6) 0.50720(12) 0.41814(8)
C5 C 0.00915(7) 0.56564(12) 0.38560(9)
C6 C -0.00380(8) 0.69766(14) 0.40547(12)
H5 H 0.0354 0.7517 0.4411
C7 C -0.07720(10) 0.74683(15) 0.37045(16)
H6 H -0.0880 0.8356 0.3814
C8 C -0.13375(8) 0.66344(16) 0.31947(11)
H7 H -0.1835 0.6943 0.2963
C9 C -0.11536(7) 0.53320(14) 0.30328(10)
H8 H -0.1540 0.4770 0.2692
H9 H -0.1543(9) 0.1634(15) 0.2840(11)
H10 H 0.0303(7) 0.0853(16) 0.1006(11)
H11 H -0.0411(7) 0.0588(15) 0.0895(12)
H12 H -0.1631(8) 0.2289(16) 0.2044(10)
O1A O -0.39496(5) 0.54796(10) 0.02312(7)
O2A O -0.28663(5) 0.56672(13) 0.14097(7)
O3A O 0.00655(5) 0.10121(11) 0.37766(8)
O4A O 0.13121(6) 0.19685(12) 0.25127(8)
N1A N -0.20054(5) 0.47573(10) 0.02231(7)
N2A N -0.17460(6) 0.36301(10) 0.06767(8)
N3A N -0.10116(6) 0.38167(10) 0.10588(8)
N4A N -0.14789(6) 0.56935(10) 0.02902(8)
N5A N 0.04505(5) 0.48351(10) 0.16603(8)
C1A C -0.32434(6) 0.54137(12) 0.05502(9)
C2A C -0.28244(6) 0.49492(12) -0.02400(9)
H1A H -0.3037 0.4082 -0.0497
C3A C -0.29444(7) 0.59087(15) -0.11195(10)
H2A H -0.2759 0.6778 -0.0884
H3A H -0.3479 0.5962 -0.1440
H4A H -0.2671 0.5592 -0.1589
C4A C -0.08568(6) 0.50720(12) 0.08186(8)
C5A C -0.00915(7) 0.56564(12) 0.11440(9)
C6A C 0.00380(8) 0.69766(14) 0.09453(12)
H5A H -0.0354 0.7517 0.0589
C7A C 0.07720(10) 0.74683(15) 0.12955(16)
H6A H 0.0880 0.8356 0.1186
C8A C 0.13375(8) 0.66344(16) 0.18053(11)
H7A H 0.1835 0.6943 0.2037
C9A C 0.11536(7) 0.53320(14) 0.19672(10)
H8A H 0.1540 0.4770 0.2308
H9A H 0.1543(9) 0.1634(15) 0.2160(11)
H10A H -0.0303(7) 0.0853(16) 0.3994(11)
H11A H 0.0411(7) 0.0588(15) 0.4105(12)
H12A H 0.1631(8) 0.2289(16) 0.2956(10)
loop_
_geom_bond_atom_site_label_1
_geom_bond_atom_site_label_2
_geom_bond_site_symmetry_1
_geom_bond_site_symmetry_2
Ca1 O3 1_555 1_555
O1 C1 1_555 1_555
O2 C1 1_555 1_555
O3 H10 1_555 1_555
O4 Ca1 1_555 1_555
N1 N2 1_555 1_555
N2 N3 1_555 1_555
N3 Ca1 1_555 1_555
N4 N1 1_555 1_555
N5 Ca1 1_555 1_555
C1 C2 1_555 1_555
C2 N1 1_555 1_555
H1 C2 1_555 1_555
C3 C2 1_555 1_555
H2 C3 1_555 1_555
H3 C3 1_555 1_555
H4 C3 1_555 1_555
C4 N3 1_555 1_555
C5 N5 1_555 1_555
C6 C5 1_555 1_555
H5 C6 1_555 1_555
C7 C6 1_555 1_555
H6 C7 1_555 1_555
C8 C7 1_555 1_555
H7 C8 1_555 1_555
C9 N5 1_555 1_555
H8 C9 1_555 1_555
H9 O4 1_555 1_555
H11 O3 1_555 1_555
H12 O4 1_555 1_555
O1A C1A 1_555 1_555
O2A C1A 1_555 1_555
O3A Ca1 1_555 1_555
O4A Ca1 1_555 1_555
N1A N2A 1_555 1_555
N2A N3A 1_555 1_555
N3A Ca1 1_555 1_555
N4A N1A 1_555 1_555
N5A Ca1 1_555 1_555
C1A C2A 1_555 1_555
C2A N1A 1_555 1_555
H1A C2A 1_555 1_555
C3A C2A 1_555 1_555
H2A C3A 1_555 1_555
H3A C3A 1_555 1_555
H4A C3A 1_555 1_555
C4A N3A 1_555 1_555
C5A N5A 1_555 1_555
C6A C5A 1_555 1_555
H5A C6A 1_555 1_555
C7A C6A 1_555 1_555
H6A C7A 1_555 1_555
C8A C7A 1_555 1_555
H7A C8A 1_555 1_555
C9A N5A 1_555 1_555
H8A C9A 1_555 1_555
H9A O4A 1_555 1_555
H10A O3A 1_555 1_555
H11A O3A 1_555 1_555
H12A O4A 1_555 1_555
N4 C4 1_555 1_555
C4 C5 1_555 1_555
C8 C9 1_555 1_555
N4A C4A 1_555 1_555
C4A C5A 1_555 1_555
C8A C9A 1_555 1_555

#END
