
#######################################################################
#
#                 Cambridge Crystallographic Data Centre
#                                CCDC 
#
#######################################################################
#
# If this CIF has been generated from an entry in the Cambridge 
# Structural Database, then it will include bibliographic, chemical, 
# crystal, experimental, refinement or atomic coordinate data resulting 
# from the CCDC's data processing and validation procedures.
#
#######################################################################

data_JISXAN
_chemical_name_common            
'25,26-bis(benzoyloxy)-27,28-dihydroxypentacyclo[19.3.1.1$3,7!.1$9,13!.1$15,19!]octacosa-1(25),3(28),4,6,9(27),10,12,15(26),16,18,21,23-dodecaene-5,17-dicarboxylic acid methanol solvate'
_chemical_formula_moiety         'C44 H32 O10,C1 H4 O1'
_chemical_name_systematic        
'5,17-dicarboxy-25,26-bis(benzoyloxy)-27,28-dihydroxycalix[4]arene methanol solvate'
_symmetry_cell_setting           triclinic
_symmetry_space_group_name_H-M   'P -1'
_symmetry_Int_Tables_number      2
_space_group_name_Hall           '-P 1'
loop_
_symmetry_equiv_pos_site_id
_symmetry_equiv_pos_as_xyz
1 x,y,z
2 -x,-y,-z
_cell_length_a                   10.236(2)
_cell_length_b                   13.402(3)
_cell_length_c                   15.695(4)
_cell_angle_alpha                64.813(6)
_cell_angle_beta                 74.226(6)
_cell_angle_gamma                83.780(6)
_cell_volume                     1874.94
_cell_formula_units_Z            2
loop_
_atom_site_label
_atom_site_type_symbol
_atom_site_fract_x
_atom_site_fract_y
_atom_site_fract_z
C1 C 0.3376(4) 0.3208(3) -0.1603(2)
C2 C 0.2380(4) 0.2399(3) -0.1167(2)
H1 H 0.1603 0.2509 -0.1417
C3 C 0.2493(3) 0.1436(3) -0.0379(2)
C4 C 0.3643(4) 0.1288(3) -0.0029(2)
C5 C 0.4687(3) 0.2083(3) -0.0464(2)
C6 C 0.4526(4) 0.3038(3) -0.1246(2)
H2 H 0.5213 0.3592 -0.1548
C7 C 0.3220(4) 0.4255(3) -0.2419(3)
C8 C 0.5914(4) 0.1939(3) -0.0056(3)
H3 H 0.6208 0.1161 0.0154
H4 H 0.6671 0.2405 -0.0572
C9 C 0.5605(3) 0.2247(3) 0.0790(2)
C10 C 0.5623(4) 0.3344(3) 0.0633(3)
H5 H 0.5849 0.3895 -0.0015
C11 C 0.5318(4) 0.3652(3) 0.1399(3)
H6 H 0.5361 0.4407 0.1279
C12 C 0.4952(4) 0.2857(3) 0.2342(3)
H7 H 0.4726 0.3074 0.2867
C13 C 0.4907(4) 0.1755(3) 0.2535(2)
C14 C 0.5266(3) 0.1460(3) 0.1752(3)
C15 C 0.4523(4) 0.0903(3) 0.3579(2)
H8 H 0.5350 0.0476 0.3718
H9 H 0.4280 0.1308 0.4001
C16 C 0.3393(4) 0.0080(3) 0.3906(2)
C17 C 0.2157(4) 0.0315(3) 0.3629(2)
C18 C 0.3527(4) -0.0983(3) 0.4583(2)
H10 H 0.4340 -0.1181 0.4795
C19 C 0.2494(4) -0.1768(3) 0.4958(2)
C20 C 0.1309(4) -0.1496(3) 0.4653(2)
H11 H 0.0621 -0.2042 0.4900
C21 C 0.1104(3) -0.0450(3) 0.3996(2)
C22 C 0.2705(5) -0.2896(3) 0.5649(3)
C23 C 0.1766(4) 0.2248(3) 0.3070(3)
C24 C 0.1598(4) 0.3224(3) 0.2194(3)
C25 C 0.1855(4) 0.3199(3) 0.1304(3)
H12 H 0.2146 0.2533 0.1235
C26 C 0.1693(5) 0.4134(4) 0.0504(3)
H13 H 0.1876 0.4111 -0.0114
C27 C 0.1276(5) 0.5083(4) 0.0598(4)
H14 H 0.1152 0.5720 0.0046
C28 C 0.1032(6) 0.5134(4) 0.1471(4)
H15 H 0.0736 0.5801 0.1534
C29 C 0.1219(5) 0.4194(4) 0.2277(4)
H16 H 0.1080 0.4229 0.2887
C30 C -0.0257(4) -0.0168(3) 0.3754(2)
H17 H -0.0773 0.0241 0.4134
H18 H -0.0751 -0.0870 0.3996
C31 C -0.0318(3) 0.0496(3) 0.2702(2)
C32 C -0.1184(4) 0.1385(3) 0.2469(3)
H19 H -0.1712 0.1596 0.2965
C33 C -0.1289(4) 0.1966(3) 0.1529(3)
H20 H -0.1912 0.2557 0.1383
C34 C -0.0501(4) 0.1696(3) 0.0804(3)
H21 H -0.0575 0.2118 0.0156
C35 C 0.0413(3) 0.0818(3) 0.0985(2)
C36 C 0.0428(3) 0.0219(2) 0.1951(2)
C37 C 0.0707(5) -0.1681(3) 0.2434(3)
C38 C 0.1522(5) -0.2639(3) 0.2925(3)
C39 C 0.0944(7) -0.3671(4) 0.3361(4)
H22 H 0.0071 -0.3763 0.3301
C40 C 0.1614(11) -0.4570(5) 0.3882(5)
H23 H 0.1207 -0.5280 0.4167
C41 C 0.2812(11) -0.4462(7) 0.3993(5)
H24 H 0.3244 -0.5087 0.4384
C42 C 0.3447(7) -0.3431(6) 0.3537(4)
H25 H 0.4331 -0.3355 0.3589
C43 C 0.2777(6) -0.2519(4) 0.3006(3)
H26 H 0.3194 -0.1810 0.2700
C44 C 0.1348(4) 0.0601(3) 0.0156(2)
H27 H 0.0826 0.0634 -0.0301
H28 H 0.1729 -0.0149 0.0414
O1 O 0.4109(3) 0.5007(2) -0.2736(2)
O2 O 0.2217(3) 0.4392(2) -0.2772(2)
H29 H 0.2062 0.5164 -0.3252
O3 O 0.3694(3) 0.03235(18) 0.07557(16)
H30 H 0.4224 0.0397 0.1051
O4 O 0.3825(3) -0.3117(2) 0.5869(2)
H31 H 0.4013 -0.3873 0.6390
O5 O 0.1774(3) -0.3609(2) 0.5984(2)
O6 O 0.1712(3) 0.2226(2) 0.3851(2)
O7 O 0.1997(3) 0.13415(18) 0.28865(16)
O8 O 0.1267(2) -0.07162(18) 0.22227(15)
O9 O -0.0344(4) -0.1757(2) 0.2269(3)
O10 O 0.5234(3) 0.03650(18) 0.18962(18)
H32 H 0.5708 -0.0014 0.2282
C45 C 0.6726(8) 0.7886(7) 0.3697(8)
H33 H 0.7412 0.7403 0.3501
H34 H 0.5818 0.7603 0.3823
H35 H 0.6841 0.7906 0.4289
O11 O 0.6883(4) 0.8968(3) 0.2941(3)
H36 H 0.7787 0.9053 0.2530
loop_
_geom_bond_atom_site_label_1
_geom_bond_atom_site_label_2
_geom_bond_site_symmetry_1
_geom_bond_site_symmetry_2
C1 C2 1_555 1_555
C2 H1 1_555 1_555
C3 C2 1_555 1_555
C4 C3 1_555 1_555
C5 C4 1_555 1_555
C6 C1 1_555 1_555
H2 C6 1_555 1_555
C7 C1 1_555 1_555
C8 C5 1_555 1_555
H3 C8 1_555 1_555
H4 C8 1_555 1_555
C9 C8 1_555 1_555
C10 C9 1_555 1_555
H5 C10 1_555 1_555
C11 C10 1_555 1_555
H6 C11 1_555 1_555
C12 C11 1_555 1_555
H7 C12 1_555 1_555
C13 C12 1_555 1_555
C14 C9 1_555 1_555
C15 C13 1_555 1_555
H8 C15 1_555 1_555
H9 C15 1_555 1_555
C16 C15 1_555 1_555
C17 C16 1_555 1_555
C18 C16 1_555 1_555
H10 C18 1_555 1_555
C19 C18 1_555 1_555
C20 C19 1_555 1_555
H11 C20 1_555 1_555
C21 C17 1_555 1_555
C22 C19 1_555 1_555
C23 C24 1_555 1_555
C24 C25 1_555 1_555
C25 H12 1_555 1_555
C26 C25 1_555 1_555
H13 C26 1_555 1_555
C27 C26 1_555 1_555
H14 C27 1_555 1_555
C28 C27 1_555 1_555
H15 C28 1_555 1_555
C29 C24 1_555 1_555
H16 C29 1_555 1_555
C30 C21 1_555 1_555
H17 C30 1_555 1_555
H18 C30 1_555 1_555
C31 C30 1_555 1_555
C32 C31 1_555 1_555
H19 C32 1_555 1_555
C33 C32 1_555 1_555
H20 C33 1_555 1_555
C34 C33 1_555 1_555
H21 C34 1_555 1_555
C35 C34 1_555 1_555
C36 C31 1_555 1_555
C37 C38 1_555 1_555
C38 C39 1_555 1_555
C39 H22 1_555 1_555
C40 C39 1_555 1_555
H23 C40 1_555 1_555
C41 C40 1_555 1_555
H24 C41 1_555 1_555
C42 C41 1_555 1_555
H25 C42 1_555 1_555
C43 C38 1_555 1_555
H26 C43 1_555 1_555
C44 C3 1_555 1_555
H27 C44 1_555 1_555
H28 C44 1_555 1_555
O1 C7 1_555 1_555
O2 C7 1_555 1_555
H29 O2 1_555 1_555
O3 C4 1_555 1_555
H30 O3 1_555 1_555
O4 C22 1_555 1_555
H31 O4 1_555 1_555
O5 C22 1_555 1_555
O6 C23 1_555 1_555
O7 C17 1_555 1_555
O8 C36 1_555 1_555
O9 C37 1_555 1_555
O10 C14 1_555 1_555
H32 O10 1_555 1_555
C45 H33 1_555 1_555
H34 C45 1_555 1_555
H35 C45 1_555 1_555
O11 C45 1_555 1_555
H36 O11 1_555 1_555
C5 C6 1_555 1_555
C13 C14 1_555 1_555
C20 C21 1_555 1_555
C23 O7 1_555 1_555
C28 C29 1_555 1_555
C35 C36 1_555 1_555
C35 C44 1_555 1_555
C37 O8 1_555 1_555
C42 C43 1_555 1_555

#END
