
#######################################################################
#
#                 Cambridge Crystallographic Data Centre
#                                CCDC 
#
#######################################################################
#
# If this CIF has been generated from an entry in the Cambridge 
# Structural Database, then it will include bibliographic, chemical, 
# crystal, experimental, refinement or atomic coordinate data resulting 
# from the CCDC's data processing and validation procedures.
#
#######################################################################

data_JITLOQ
_chemical_formula_moiety         'C28 H34 O3 S1'
_chemical_name_systematic        
2,6-di-t-butyl-4-{[(4-methylphenyl)sulfonyl](phenyl)methyl}phenol
_symmetry_cell_setting           orthorhombic
_symmetry_space_group_name_H-M   'P b c a'
_symmetry_Int_Tables_number      61
_space_group_name_Hall           '-P 2ac 2ab'
loop_
_symmetry_equiv_pos_site_id
_symmetry_equiv_pos_as_xyz
1 x,y,z
2 1/2-x,-y,1/2+z
3 1/2+x,1/2-y,-z
4 -x,1/2+y,1/2-z
5 -x,-y,-z
6 1/2+x,y,1/2-z
7 1/2-x,1/2+y,z
8 x,1/2-y,1/2+z
_cell_length_a                   11.5431(5)
_cell_length_b                   20.4820(9)
_cell_length_c                   21.3814(9)
_cell_angle_alpha                90
_cell_angle_beta                 90
_cell_angle_gamma                90
_cell_volume                     5055.11
_exptl_crystal_colour            colorless
_exptl_crystal_description       block
_cell_formula_units_Z            8
loop_
_atom_site_label
_atom_site_type_symbol
_atom_site_fract_x
_atom_site_fract_y
_atom_site_fract_z
C1 C -0.1979(3) 0.4029(2) 0.6070(2)
H1 H -0.2417 0.4025 0.5689
H2 H -0.2419 0.4244 0.6392
H3 H -0.1816 0.3589 0.6196
C2 C -0.0864(3) 0.43883(16) 0.59686(15)
C3 C -0.0596(3) 0.49443(18) 0.63141(15)
H4 H -0.1133 0.5103 0.6601
C4 C 0.0448(3) 0.52657(17) 0.62410(14)
H5 H 0.0617 0.5633 0.6479
C5 C 0.1240(2) 0.50333(13) 0.58087(11)
C6 C 0.0986(3) 0.44892(13) 0.54564(12)
H6 H 0.1519 0.4330 0.5168
C7 C -0.0068(3) 0.41820(15) 0.55350(13)
H7 H -0.0245 0.3823 0.5286
C8 C 0.3352(2) 0.50639(11) 0.64423(11)
H8 H 0.2901 0.5202 0.6807
C9 C 0.4529(2) 0.53810(11) 0.65116(11)
C10 C 0.4731(3) 0.57671(15) 0.70343(13)
H9 H 0.4148 0.5819 0.7330
C11 C 0.5785(3) 0.60753(17) 0.71220(16)
H10 H 0.5907 0.6329 0.7477
C12 C 0.6645(3) 0.60075(16) 0.66886(17)
H11 H 0.7352 0.6217 0.6747
C13 C 0.6468(3) 0.56277(17) 0.61623(16)
H12 H 0.7055 0.5581 0.5867
C14 C 0.5422(3) 0.53187(14) 0.60773(13)
H13 H 0.5308 0.5063 0.5723
C15 C 0.3266(2) 0.43243(11) 0.64228(10)
C16 C 0.3859(2) 0.39447(11) 0.59957(10)
H14 H 0.4394 0.4143 0.5732
C17 C 0.3680(2) 0.32697(12) 0.59466(11)
C18 C 0.2859(2) 0.29922(12) 0.63512(12)
C19 C 0.2225(2) 0.33630(13) 0.67837(11)
C20 C 0.2459(2) 0.40263(13) 0.68139(11)
H15 H 0.2064 0.4280 0.7105
C21 C 0.4331(2) 0.28677(12) 0.54510(12)
C22 C 0.5197(3) 0.32883(16) 0.50800(15)
H16 H 0.4796 0.3648 0.4890
H17 H 0.5554 0.3027 0.4761
H18 H 0.5783 0.3452 0.5358
C23 C 0.5032(4) 0.23075(18) 0.57530(17)
H19 H 0.5560 0.2485 0.6055
H20 H 0.5459 0.2080 0.5435
H21 H 0.4512 0.2010 0.5956
C24 C 0.3470(3) 0.25947(17) 0.49720(14)
H22 H 0.2974 0.2281 0.5172
H23 H 0.3887 0.2387 0.4638
H24 H 0.3009 0.2945 0.4806
C25 C 0.1261(2) 0.30525(14) 0.71875(12)
C26 C 0.1763(3) 0.25328(18) 0.76256(16)
H25 H 0.2157 0.2206 0.7383
H26 H 0.1147 0.2333 0.7859
H27 H 0.2301 0.2734 0.7909
C27 C 0.0643(3) 0.35598(18) 0.75913(16)
H28 H 0.1188 0.3754 0.7875
H29 H 0.0035 0.3352 0.7825
H30 H 0.0318 0.3892 0.7328
C28 C 0.0327(3) 0.27512(18) 0.67600(17)
H31 H 0.0064 0.3073 0.6466
H32 H -0.0315 0.2606 0.7010
H33 H 0.0649 0.2387 0.6538
O1 O 0.2474(2) 0.60923(10) 0.58621(13)
O2 O 0.31691(19) 0.51899(10) 0.52004(8)
O3 O 0.2621(3) 0.23345(10) 0.63615(12)
H34 H 0.2905 0.2160 0.6052
S1 S 0.26079(6) 0.54040(3) 0.57599(3)
loop_
_geom_bond_atom_site_label_1
_geom_bond_atom_site_label_2
_geom_bond_site_symmetry_1
_geom_bond_site_symmetry_2
C1 H1 1_555 1_555
H2 C1 1_555 1_555
H3 C1 1_555 1_555
C2 C1 1_555 1_555
C3 C2 1_555 1_555
H4 C3 1_555 1_555
C4 C3 1_555 1_555
H5 C4 1_555 1_555
C5 C4 1_555 1_555
C6 C5 1_555 1_555
H6 C6 1_555 1_555
C7 C2 1_555 1_555
H7 C7 1_555 1_555
C8 H8 1_555 1_555
C9 C8 1_555 1_555
C10 C9 1_555 1_555
H9 C10 1_555 1_555
C11 C10 1_555 1_555
H10 C11 1_555 1_555
C12 C11 1_555 1_555
H11 C12 1_555 1_555
C13 C12 1_555 1_555
H12 C13 1_555 1_555
C14 C9 1_555 1_555
H13 C14 1_555 1_555
C15 C8 1_555 1_555
C16 C15 1_555 1_555
H14 C16 1_555 1_555
C17 C16 1_555 1_555
C18 C17 1_555 1_555
C19 C18 1_555 1_555
C20 C15 1_555 1_555
H15 C20 1_555 1_555
C21 C17 1_555 1_555
C22 C21 1_555 1_555
H16 C22 1_555 1_555
H17 C22 1_555 1_555
H18 C22 1_555 1_555
C23 C21 1_555 1_555
H19 C23 1_555 1_555
H20 C23 1_555 1_555
H21 C23 1_555 1_555
C24 C21 1_555 1_555
H22 C24 1_555 1_555
H23 C24 1_555 1_555
H24 C24 1_555 1_555
C25 C19 1_555 1_555
C26 C25 1_555 1_555
H25 C26 1_555 1_555
H26 C26 1_555 1_555
H27 C26 1_555 1_555
C27 C25 1_555 1_555
H28 C27 1_555 1_555
H29 C27 1_555 1_555
H30 C27 1_555 1_555
C28 C25 1_555 1_555
H31 C28 1_555 1_555
H32 C28 1_555 1_555
H33 C28 1_555 1_555
O1 S1 1_555 1_555
O2 S1 1_555 1_555
O3 C18 1_555 1_555
H34 O3 1_555 1_555
S1 C5 1_555 1_555
C6 C7 1_555 1_555
C8 S1 1_555 1_555
C13 C14 1_555 1_555
C19 C20 1_555 1_555

#END
