
#######################################################################
#
#                 Cambridge Crystallographic Data Centre
#                                CCDC 
#
#######################################################################
#
# If this CIF has been generated from an entry in the Cambridge 
# Structural Database, then it will include bibliographic, chemical, 
# crystal, experimental, refinement or atomic coordinate data resulting 
# from the CCDC's data processing and validation procedures.
#
#######################################################################

data_JIVCUN
_chemical_formula_moiety         'C86 H42 N2 O13,4(C1 H1 Cl3)'
_chemical_name_systematic        
'epoxy-(4-methoxyphenylimino)-(4-methoxyphenylcarbamoyl)-tris(t-butylperoxy)-(open-cage)-C59fullerene-trione chloroform solvate'
_symmetry_cell_setting           triclinic
_symmetry_space_group_name_H-M   'P -1'
_symmetry_Int_Tables_number      2
_space_group_name_Hall           '-P 1'
loop_
_symmetry_equiv_pos_site_id
_symmetry_equiv_pos_as_xyz
1 x,y,z
2 -x,-y,-z
_cell_length_a                   13.586(3)
_cell_length_b                   17.026(3)
_cell_length_c                   17.336(4)
_cell_angle_alpha                87.21(3)
_cell_angle_beta                 77.50(3)
_cell_angle_gamma                75.58(3)
_cell_volume                     3791.63
_exptl_crystal_colour            red
_exptl_crystal_description       block
_cell_formula_units_Z            2
_exptl_crystal_recrystallization_method 'carbon disulfide/chloroform/methanol'
loop_
_atom_site_label
_atom_site_type_symbol
_atom_site_fract_x
_atom_site_fract_y
_atom_site_fract_z
Cl1 Cl 0.31680(11) 0.77846(9) 0.30580(10)
Cl2 Cl 0.15304(14) 0.74176(15) 0.42755(10)
Cl3 Cl 0.27364(14) 0.62028(10) 0.30975(15)
C87 C 0.2201(4) 0.7241(4) 0.3267(4)
H43 H 0.1705 0.7437 0.2925
Cl4 Cl 0.90474(14) 1.00575(9) 0.14132(9)
Cl5 Cl 0.87333(19) 1.14489(11) 0.24012(13)
Cl6 Cl 0.70311(16) 1.11444(15) 0.18013(12)
C88 C 0.8165(5) 1.0716(3) 0.2136(3)
H44 H 0.7985 1.0395 0.2606
Cl7 Cl 0.5180(2) 0.40991(18) 0.07864(16)
Cl8 Cl 0.4380(2) 0.29384(19) 0.0185(2)
Cl9 Cl 0.29604(18) 0.4322(2) 0.08049(11)
C89 C 0.4208(7) 0.4031(7) 0.0342(5)
H45 H 0.4299 0.4300 -0.0172
Cl10 Cl 0.4428(2) 0.89600(16) 0.12523(15)
Cl11 Cl 0.3810(3) 0.9916(2) 0.26390(17)
Cl12 Cl 0.4847(2) 1.05264(16) 0.12379(18)
C90 C 0.4712(5) 0.9668(5) 0.1800(4)
H46 H 0.5379 0.9422 0.1945
O1 O -0.4505(3) 0.8137(2) 0.3204(2)
O2 O -0.0855(3) 0.73602(19) 0.42447(18)
O3 O -0.3170(3) 0.9128(2) 0.2265(2)
O4 O -0.1757(2) 0.89568(18) 0.28076(19)
O5 O -0.2721(2) 0.77323(18) 0.37918(17)
O6 O -0.4046(2) 0.70675(19) 0.56335(17)
O7 O -0.3351(3) 0.72564(19) 0.61231(18)
O8 O -0.2482(3) 0.7931(2) 0.0914(2)
O9 O -0.1577(3) 0.8209(3) 0.0488(2)
O10 O 0.0951(2) 0.71367(19) 0.18455(18)
O11 O 0.0799(3) 0.7828(2) 0.1302(2)
O12 O -0.3696(3) 1.1621(2) 0.4200(3)
O13 O 0.0028(4) 1.1383(3) 0.4300(3)
N1 N -0.0045(3) 0.8452(2) 0.2988(2)
N2 N -0.3657(4) 0.8403(2) 0.4931(2)
H1 H -0.3974 0.8301 0.5477
C1 C -0.0808(4) 0.3306(3) 0.2585(3)
C2 C -0.1664(4) 0.3314(3) 0.3254(3)
C3 C -0.2621(4) 0.3526(3) 0.2966(3)
C4 C -0.2359(4) 0.3647(3) 0.2126(3)
C5 C -0.1236(4) 0.3502(3) 0.1890(3)
C6 C -0.0790(4) 0.3974(3) 0.1301(3)
C7 C 0.0102(4) 0.4261(3) 0.1386(3)
C8 C 0.0495(4) 0.4088(3) 0.2070(3)
C9 C 0.0038(4) 0.3590(3) 0.2675(3)
C10 C 0.0039(4) 0.3918(3) 0.3439(3)
C11 C -0.0769(4) 0.3914(3) 0.4070(3)
C12 C -0.1647(4) 0.3613(3) 0.3986(3)
C13 C -0.2580(4) 0.4119(3) 0.4459(3)
C14 C -0.3490(4) 0.4312(3) 0.4181(3)
C15 C -0.3527(4) 0.4028(3) 0.3422(3)
C16 C -0.4170(4) 0.4657(3) 0.3051(3)
C17 C -0.3916(4) 0.4785(3) 0.2241(3)
C18 C -0.2999(4) 0.4266(3) 0.1761(3)
C19 C -0.2529(4) 0.4756(3) 0.1164(3)
C20 C -0.1448(4) 0.4606(3) 0.0928(3)
C21 C -0.0966(4) 0.5279(3) 0.0777(2)
C22 C -0.0008(4) 0.5068(3) 0.1062(3)
C23 C 0.0279(3) 0.5659(3) 0.1419(3)
C24 C 0.0632(3) 0.5486(3) 0.2153(3)
C25 C 0.0763(3) 0.4717(3) 0.2455(3)
C26 C 0.0483(3) 0.4609(3) 0.3288(3)
C27 C 0.0051(3) 0.5294(3) 0.3762(3)
C28 C -0.0778(3) 0.5293(3) 0.4430(2)
C29 C -0.1182(4) 0.4617(3) 0.4595(3)
C30 C -0.2288(4) 0.4736(3) 0.4837(2)
C31 C -0.2900(4) 0.5520(3) 0.4933(2)
C32 C -0.3862(3) 0.5722(3) 0.4658(2)
C33 C -0.4137(4) 0.5137(3) 0.4284(3)
C34 C -0.4556(4) 0.5353(3) 0.3585(3)
C35 C -0.4602(3) 0.6128(3) 0.3295(3)
C36 C -0.4296(4) 0.6260(3) 0.2457(3)
C37 C -0.3987(4) 0.5603(3) 0.1944(3)
C38 C -0.3150(4) 0.5592(3) 0.1286(3)
C39 C -0.2679(4) 0.6229(3) 0.1183(3)
C40 C -0.1568(4) 0.6078(3) 0.0894(3)
C41 C -0.1199(4) 0.6697(3) 0.1185(3)
C42 C -0.0292(3) 0.6493(3) 0.1441(3)
C43 C -0.0037(3) 0.6928(3) 0.2089(3)
C44 C 0.0246(3) 0.6212(3) 0.2646(3)
C45 C -0.0032(3) 0.6106(3) 0.3456(3)
C46 C -0.0797(3) 0.6668(3) 0.4115(3)
C47 C -0.1414(4) 0.6109(3) 0.4589(2)
C48 C -0.2486(4) 0.6229(3) 0.4857(2)
C49 C -0.3404(4) 0.6949(3) 0.4846(3)
C50 C -0.4050(3) 0.6563(3) 0.4417(3)
C51 C -0.4402(3) 0.6760(3) 0.3721(3)
C52 C -0.4255(3) 0.7415(3) 0.3111(3)
C53 C -0.3852(4) 0.6948(3) 0.2330(3)
C54 C -0.3019(4) 0.6935(3) 0.1704(3)
C55 C -0.2133(4) 0.7395(3) 0.1510(3)
C56 C -0.1824(4) 0.7842(3) 0.2111(3)
C57 C -0.0912(4) 0.7656(3) 0.2351(2)
C58 C -0.0832(4) 0.8363(3) 0.2771(3)
C59 C -0.3209(4) 0.7739(3) 0.4468(3)
C60 C -0.2370(4) 0.8684(3) 0.2377(3)
C61 C -0.3631(4) 0.9216(3) 0.4735(3)
C62 C -0.3408(5) 0.9689(3) 0.5268(3)
H2 H -0.3244 0.9460 0.5737
C63 C -0.3422(5) 1.0504(3) 0.5116(4)
H3 H -0.3280 1.0823 0.5478
C64 C -0.3658(4) 1.0825(3) 0.4401(3)
C65 C -0.3887(4) 1.0363(3) 0.3887(3)
H4 H -0.4040 1.0588 0.3414
C66 C -0.3897(4) 0.9569(3) 0.4049(3)
H5 H -0.4083 0.9266 0.3696
C67 C -0.3420(5) 1.2105(3) 0.4704(4)
H6 H -0.3488 1.2644 0.4493
H7 H -0.2713 1.1880 0.4748
H8 H -0.3870 1.2125 0.5216
C68 C -0.0040(4) 0.9206(3) 0.3325(3)
C69 C -0.0837(5) 0.9617(3) 0.3923(3)
H9 H -0.1421 0.9415 0.4109
C70 C -0.0760(5) 1.0329(4) 0.4242(4)
H10 H -0.1281 1.0593 0.4653
C71 C 0.0061(5) 1.0632(4) 0.3957(4)
C72 C 0.0882(5) 1.0240(4) 0.3380(4)
H11 H 0.1459 1.0451 0.3200
C73 C 0.0814(5) 0.9501(3) 0.3070(4)
H12 H 0.1362 0.9216 0.2689
C74 C 0.0879(6) 1.1701(4) 0.4054(5)
H13 H 0.0768 1.2203 0.4328
H14 H 0.0977 1.1799 0.3496
H15 H 0.1485 1.1325 0.4166
C75 C -0.3671(4) 0.6974(3) 0.6922(3)
C76 C -0.2941(4) 0.7266(3) 0.7338(3)
H16 H -0.2234 0.6997 0.7113
H17 H -0.3096 0.7144 0.7891
H18 H -0.3036 0.7842 0.7272
C77 C -0.4815(4) 0.7369(3) 0.7246(3)
H19 H -0.5235 0.7166 0.6963
H20 H -0.4936 0.7946 0.7182
H21 H -0.4995 0.7244 0.7796
C78 C -0.3449(4) 0.6047(3) 0.6923(3)
H22 H -0.3912 0.5880 0.6656
H23 H -0.3551 0.5857 0.7458
H24 H -0.2743 0.5824 0.6656
C79 C -0.1856(5) 0.8550(4) -0.0243(3)
C80 C -0.2033(7) 0.7976(5) -0.0767(5)
H25 H -0.2634 0.7787 -0.0517
H26 H -0.1437 0.7524 -0.0874
H27 H -0.2145 0.8240 -0.1253
C81 C -0.2746(7) 0.9279(4) -0.0038(5)
H28 H -0.2579 0.9631 0.0305
H29 H -0.3357 0.9111 0.0226
H30 H -0.2872 0.9564 -0.0512
C82 C -0.0908(7) 0.8894(5) -0.0590(4)
H31 H -0.0837 0.9267 -0.0219
H32 H -0.1003 0.9172 -0.1074
H33 H -0.0292 0.8459 -0.0693
C83 C 0.1734(4) 0.7726(4) 0.0694(3)
C84 C 0.1798(6) 0.7063(4) 0.0148(4)
H34 H 0.1184 0.7178 -0.0068
H35 H 0.1854 0.6561 0.0430
H36 H 0.2398 0.7022 -0.0274
C85 C 0.1551(5) 0.8568(4) 0.0339(4)
H37 H 0.1526 0.8957 0.0730
H38 H 0.0904 0.8693 0.0167
H39 H 0.2108 0.8587 -0.0104
C86 C 0.2683(5) 0.7598(5) 0.1070(4)
H40 H 0.2594 0.8043 0.1418
H41 H 0.3296 0.7567 0.0663
H42 H 0.2754 0.7102 0.1365
loop_
_geom_bond_atom_site_label_1
_geom_bond_atom_site_label_2
_geom_bond_site_symmetry_1
_geom_bond_site_symmetry_2
Cl1 C87 1_555 1_555
Cl2 C87 1_555 1_555
Cl3 C87 1_555 1_555
Cl4 C88 1_555 1_555
Cl5 C88 1_555 1_555
Cl6 C88 1_555 1_555
Cl7 C89 1_555 1_555
Cl8 C89 1_555 1_555
Cl9 C89 1_555 1_555
Cl10 C90 1_555 1_555
Cl11 C90 1_555 1_555
Cl12 C90 1_555 1_555
O1 C52 1_555 1_555
O2 C46 1_555 1_555
O3 C60 1_555 1_555
O4 C58 1_555 1_555
O5 C59 1_555 1_555
O6 O7 1_555 1_555
O7 C75 1_555 1_555
O8 O9 1_555 1_555
O9 C79 1_555 1_555
O10 O11 1_555 1_555
O11 C83 1_555 1_555
O12 C64 1_555 1_555
O13 C71 1_555 1_555
N1 C58 1_555 1_555
N2 H1 1_555 1_555
C1 C2 1_555 1_555
C2 C3 1_555 1_555
C3 C4 1_555 1_555
C4 C5 1_555 1_555
C5 C1 1_555 1_555
C6 C5 1_555 1_555
C7 C6 1_555 1_555
C8 C7 1_555 1_555
C9 C1 1_555 1_555
C10 C9 1_555 1_555
C11 C10 1_555 1_555
C12 C2 1_555 1_555
C13 C12 1_555 1_555
C14 C13 1_555 1_555
C15 C3 1_555 1_555
C16 C15 1_555 1_555
C17 C16 1_555 1_555
C18 C4 1_555 1_555
C19 C18 1_555 1_555
C20 C6 1_555 1_555
C21 C20 1_555 1_555
C22 C7 1_555 1_555
C23 C22 1_555 1_555
C24 C23 1_555 1_555
C25 C8 1_555 1_555
C26 C10 1_555 1_555
C27 C26 1_555 1_555
C28 C27 1_555 1_555
C29 C11 1_555 1_555
C30 C13 1_555 1_555
C31 C30 1_555 1_555
C32 C31 1_555 1_555
C33 C14 1_555 1_555
C34 C16 1_555 1_555
C35 C34 1_555 1_555
C36 C35 1_555 1_555
C37 C17 1_555 1_555
C38 C19 1_555 1_555
C39 C38 1_555 1_555
C40 C21 1_555 1_555
C41 C40 1_555 1_555
C42 C23 1_555 1_555
C43 O10 1_555 1_555
C44 C24 1_555 1_555
C45 C27 1_555 1_555
C46 C45 1_555 1_555
C47 C28 1_555 1_555
C48 C31 1_555 1_555
C49 O6 1_555 1_555
C50 C32 1_555 1_555
C51 C35 1_555 1_555
C52 C51 1_555 1_555
C53 C36 1_555 1_555
C54 C39 1_555 1_555
C55 O8 1_555 1_555
C56 C55 1_555 1_555
C57 C43 1_555 1_555
C58 C57 1_555 1_555
C59 N2 1_555 1_555
C60 O4 1_555 1_555
C61 N2 1_555 1_555
C62 C61 1_555 1_555
H2 C62 1_555 1_555
C63 C62 1_555 1_555
H3 C63 1_555 1_555
C64 C63 1_555 1_555
C65 C64 1_555 1_555
H4 C65 1_555 1_555
C66 C61 1_555 1_555
H5 C66 1_555 1_555
C67 O12 1_555 1_555
H6 C67 1_555 1_555
H7 C67 1_555 1_555
H8 C67 1_555 1_555
C68 N1 1_555 1_555
C69 C68 1_555 1_555
H9 C69 1_555 1_555
C70 C69 1_555 1_555
H10 C70 1_555 1_555
C71 C70 1_555 1_555
C72 C71 1_555 1_555
H11 C72 1_555 1_555
C73 C68 1_555 1_555
H12 C73 1_555 1_555
C74 O13 1_555 1_555
H13 C74 1_555 1_555
H14 C74 1_555 1_555
H15 C74 1_555 1_555
C75 C76 1_555 1_555
C76 H16 1_555 1_555
H17 C76 1_555 1_555
H18 C76 1_555 1_555
C77 C75 1_555 1_555
H19 C77 1_555 1_555
H20 C77 1_555 1_555
H21 C77 1_555 1_555
C78 C75 1_555 1_555
H22 C78 1_555 1_555
H23 C78 1_555 1_555
H24 C78 1_555 1_555
C79 C80 1_555 1_555
C80 H25 1_555 1_555
H26 C80 1_555 1_555
H27 C80 1_555 1_555
C81 C79 1_555 1_555
H28 C81 1_555 1_555
H29 C81 1_555 1_555
H30 C81 1_555 1_555
C82 C79 1_555 1_555
H31 C82 1_555 1_555
H32 C82 1_555 1_555
H33 C82 1_555 1_555
C83 C84 1_555 1_555
C84 H34 1_555 1_555
H35 C84 1_555 1_555
H36 C84 1_555 1_555
C85 C83 1_555 1_555
H37 C85 1_555 1_555
H38 C85 1_555 1_555
H39 C85 1_555 1_555
C86 C83 1_555 1_555
H40 C86 1_555 1_555
H41 C86 1_555 1_555
H42 C86 1_555 1_555
C87 H43 1_555 1_555
C88 H44 1_555 1_555
C89 H45 1_555 1_555
C90 H46 1_555 1_555
C8 C9 1_555 1_555
C11 C12 1_555 1_555
C14 C15 1_555 1_555
C17 C18 1_555 1_555
C19 C20 1_555 1_555
C21 C22 1_555 1_555
C24 C25 1_555 1_555
C25 C26 1_555 1_555
C28 C29 1_555 1_555
C29 C30 1_555 1_555
C32 C33 1_555 1_555
C33 C34 1_555 1_555
C36 C37 1_555 1_555
C37 C38 1_555 1_555
C39 C40 1_555 1_555
C41 C42 1_555 1_555
C41 C55 1_555 1_555
C42 C43 1_555 1_555
C43 C44 1_555 1_555
C44 C45 1_555 1_555
C46 C47 1_555 1_555
C47 C48 1_555 1_555
C48 C49 1_555 1_555
C49 C50 1_555 1_555
C49 C59 1_555 1_555
C50 C51 1_555 1_555
C52 C53 1_555 1_555
C53 C54 1_555 1_555
C54 C55 1_555 1_555
C56 C57 1_555 1_555
C56 C60 1_555 1_555
C65 C66 1_555 1_555
C72 C73 1_555 1_555

#END
