
#######################################################################
#
#                 Cambridge Crystallographic Data Centre
#                                CCDC 
#
#######################################################################
#
# If this CIF has been generated from an entry in the Cambridge 
# Structural Database, then it will include bibliographic, chemical, 
# crystal, experimental, refinement or atomic coordinate data resulting 
# from the CCDC's data processing and validation procedures.
#
#######################################################################

data_JIVDEY
_chemical_formula_moiety         'C69 H14 Br1 N1 O8,C1 S2,C2 H4 Cl2'
_chemical_name_systematic        
'epoxy-(4-bromophenylimino)-(t-butylperoxy)-(hydroxy)-(open-cage)-C59fullerene-tetraone 1,2-dichloroethane carbon disulfide solvate'
_symmetry_cell_setting           triclinic
_symmetry_space_group_name_H-M   'P -1'
_symmetry_Int_Tables_number      2
_space_group_name_Hall           '-P 1'
loop_
_symmetry_equiv_pos_site_id
_symmetry_equiv_pos_as_xyz
1 x,y,z
2 -x,-y,-z
_cell_length_a                   11.6078(3)
_cell_length_b                   14.2697(4)
_cell_length_c                   14.6697(4)
_cell_angle_alpha                87.253(2)
_cell_angle_beta                 85.787(2)
_cell_angle_gamma                88.3700(10)
_cell_volume                     2419.78
_exptl_crystal_colour            red
_exptl_crystal_description       block
_cell_formula_units_Z            2
_exptl_crystal_recrystallization_method 
'carbon disulfide/chloroform/dichloroethane'
loop_
_atom_site_label
_atom_site_type_symbol
_atom_site_fract_x
_atom_site_fract_y
_atom_site_fract_z
Br1 Br 0.36855(5) 0.04698(4) 0.83273(3)
O1 O 0.7113(2) 0.3083(2) 0.52723(17)
O2 O 0.7805(2) 0.4539(2) 0.52336(19)
O3 O 0.6200(2) 0.2128(2) 0.28201(18)
H1 H 0.5977 0.1754 0.3253
O4 O 0.8664(3) 0.1048(2) 0.46223(19)
O5 O 1.0613(3) 0.1744(2) 0.5528(2)
O6 O 1.0080(3) 0.3726(2) 0.49665(19)
O7 O 0.7886(2) 0.51675(19) 0.32425(18)
O8 O 0.6640(2) 0.4975(2) 0.3242(2)
N1 N 0.6275(3) 0.1742(3) 0.4751(2)
C1 C 0.6932(4) 0.2436(3) 0.4635(3)
C2 C 0.7700(4) 0.3835(3) 0.4838(3)
C3 C 0.8007(3) 0.3584(3) 0.3886(3)
C4 C 0.7542(3) 0.2756(3) 0.3764(2)
C5 C 0.7388(3) 0.2304(3) 0.2872(3)
C6 C 0.8111(3) 0.1430(3) 0.2556(2)
C7 C 0.8797(3) 0.0770(3) 0.2990(3)
C8 C 0.9186(4) 0.0766(3) 0.3933(3)
C9 C 1.0444(4) 0.0444(3) 0.3843(3)
C10 C 1.1344(4) 0.0845(3) 0.4233(3)
C11 C 1.1247(4) 0.1657(3) 0.4861(3)
C12 C 1.2124(4) 0.2337(3) 0.4426(3)
C13 C 1.1930(3) 0.3282(3) 0.4204(3)
C14 C 1.0788(4) 0.3802(3) 0.4337(3)
C15 C 1.0675(4) 0.4376(3) 0.3444(3)
C16 C 0.9729(3) 0.4517(3) 0.2940(3)
C17 C 0.8446(3) 0.4258(3) 0.3123(3)
C18 C 0.8228(3) 0.3864(3) 0.2208(3)
C19 C 0.7760(3) 0.3017(3) 0.2095(3)
C20 C 0.8102(3) 0.2518(3) 0.1292(3)
C21 C 0.8277(3) 0.1551(3) 0.1558(3)
C22 C 0.9079(3) 0.1009(3) 0.1047(3)
C23 C 0.9775(4) 0.0322(3) 0.1511(3)
C24 C 0.9633(4) 0.0233(3) 0.2452(3)
C25 C 1.0647(4) 0.0048(3) 0.2968(3)
C26 C 1.1743(4) 0.0003(3) 0.2519(3)
C27 C 1.2661(4) 0.0464(3) 0.2906(3)
C28 C 1.2443(4) 0.0898(3) 0.3726(3)
C29 C 1.2927(4) 0.1809(3) 0.3835(3)
C30 C 1.3597(3) 0.2234(3) 0.3124(3)
C31 C 1.3433(3) 0.3215(3) 0.2919(3)
C32 C 1.2571(3) 0.3699(3) 0.3437(3)
C33 C 1.1827(3) 0.4382(3) 0.2974(3)
C34 C 1.2013(4) 0.4569(3) 0.2046(3)
C35 C 1.1030(4) 0.4720(3) 0.1512(3)
C36 C 0.9925(4) 0.4673(3) 0.1955(3)
C37 C 0.9020(4) 0.4254(3) 0.1506(3)
C38 C 0.9257(4) 0.3828(3) 0.0685(3)
C39 C 0.8781(3) 0.2927(3) 0.0571(2)
C40 C 0.9646(4) 0.2379(3) 0.0059(2)
C41 C 0.9778(4) 0.1429(3) 0.0278(3)
C42 C 1.0925(4) 0.0992(3) 0.0285(3)
C43 C 1.0917(4) 0.0292(3) 0.1037(3)
C44 C 1.1880(4) 0.0149(3) 0.1525(3)
C45 C 1.2895(4) 0.0707(3) 0.1305(3)
C46 C 1.3381(4) 0.0908(3) 0.2152(3)
C47 C 1.3833(3) 0.1780(3) 0.2274(3)
C48 C 1.3824(3) 0.2499(3) 0.1535(3)
C49 C 1.3582(3) 0.3383(3) 0.1939(3)
C50 C 1.2897(4) 0.4057(3) 0.1510(3)
C51 C 1.2439(4) 0.3864(3) 0.0657(3)
C52 C 1.1284(4) 0.4286(3) 0.0651(3)
C53 C 1.0422(4) 0.3839(3) 0.0249(3)
C54 C 1.0661(4) 0.2935(3) -0.0148(2)
C55 C 1.1755(4) 0.2536(3) -0.0145(2)
C56 C 1.1897(4) 0.1530(3) 0.0074(3)
C57 C 1.2891(4) 0.1389(3) 0.0599(3)
C58 C 1.3373(4) 0.2297(3) 0.0725(3)
C59 C 1.2663(4) 0.2999(3) 0.0262(3)
C60 C 0.5714(3) 0.1472(3) 0.5606(3)
C61 C 0.4696(4) 0.0978(3) 0.5595(3)
H2 H 0.4426 0.0845 0.5020
C62 C 0.4061(4) 0.0673(3) 0.6385(3)
H3 H 0.3362 0.0347 0.6361
C63 C 0.4491(4) 0.0864(3) 0.7211(3)
C64 C 0.5534(4) 0.1329(3) 0.7249(3)
H4 H 0.5823 0.1439 0.7822
C65 C 0.6135(4) 0.1621(3) 0.6451(3)
H5 H 0.6846 0.1929 0.6475
C66 C 0.6053(4) 0.5866(3) 0.3061(3)
C67 C 0.4802(4) 0.5575(4) 0.3111(4)
H6 H 0.4693 0.5153 0.2619
H7 H 0.4299 0.6134 0.3042
H8 H 0.4605 0.5252 0.3704
C68 C 0.6262(4) 0.6524(3) 0.3803(4)
H9 H 0.7073 0.6705 0.3748
H10 H 0.6084 0.6209 0.4403
H11 H 0.5764 0.7087 0.3740
C69 C 0.6435(4) 0.6266(4) 0.2113(3)
H12 H 0.6277 0.5818 0.1656
H13 H 0.7265 0.6383 0.2081
H14 H 0.6010 0.6857 0.1992
C70 C 0.3945(5) -0.2729(5) 1.0215(4)
S1 S 0.38370(13) -0.16571(14) 1.02084(10)
S2 S 0.40540(16) -0.38412(17) 1.01834(16)
C71 C 0.9108(4) 0.2872(4) 0.7015(3)
H15 H 0.9087 0.2345 0.6602
H16 H 0.8828 0.3445 0.6686
C72 C 1.0330(4) 0.3003(3) 0.7235(3)
H17 H 1.0340 0.3489 0.7694
H18 H 1.0781 0.3235 0.6675
Cl1 Cl 0.81764(13) 0.26389(12) 0.79958(9)
Cl2 Cl 1.10077(12) 0.19630(9) 0.76656(8)
loop_
_geom_bond_atom_site_label_1
_geom_bond_atom_site_label_2
_geom_bond_site_symmetry_1
_geom_bond_site_symmetry_2
Br1 C63 1_555 1_555
O1 C1 1_555 1_555
O2 C2 1_555 1_555
O3 H1 1_555 1_555
O4 C8 1_555 1_555
O5 C11 1_555 1_555
O6 C14 1_555 1_555
O7 O8 1_555 1_555
O8 C66 1_555 1_555
N1 C1 1_555 1_555
C1 C4 1_555 1_555
C2 O1 1_555 1_555
C3 C2 1_555 1_555
C4 C3 1_555 1_555
C5 O3 1_555 1_555
C6 C5 1_555 1_555
C7 C6 1_555 1_555
C8 C7 1_555 1_555
C9 C8 1_555 1_555
C10 C9 1_555 1_555
C11 C10 1_555 1_555
C12 C11 1_555 1_555
C13 C12 1_555 1_555
C14 C13 1_555 1_555
C15 C14 1_555 1_555
C16 C15 1_555 1_555
C17 O7 1_555 1_555
C18 C17 1_555 1_555
C19 C5 1_555 1_555
C20 C19 1_555 1_555
C21 C6 1_555 1_555
C22 C21 1_555 1_555
C23 C22 1_555 1_555
C24 C7 1_555 1_555
C25 C9 1_555 1_555
C26 C25 1_555 1_555
C27 C26 1_555 1_555
C28 C10 1_555 1_555
C29 C12 1_555 1_555
C30 C29 1_555 1_555
C31 C30 1_555 1_555
C32 C13 1_555 1_555
C33 C15 1_555 1_555
C34 C33 1_555 1_555
C35 C34 1_555 1_555
C36 C16 1_555 1_555
C37 C18 1_555 1_555
C38 C37 1_555 1_555
C39 C20 1_555 1_555
C40 C39 1_555 1_555
C41 C22 1_555 1_555
C42 C41 1_555 1_555
C43 C23 1_555 1_555
C44 C26 1_555 1_555
C45 C44 1_555 1_555
C46 C27 1_555 1_555
C47 C30 1_555 1_555
C48 C47 1_555 1_555
C49 C31 1_555 1_555
C50 C34 1_555 1_555
C51 C50 1_555 1_555
C52 C35 1_555 1_555
C53 C38 1_555 1_555
C54 C40 1_555 1_555
C55 C54 1_555 1_555
C56 C42 1_555 1_555
C57 C45 1_555 1_555
C58 C48 1_555 1_555
C59 C51 1_555 1_555
C60 N1 1_555 1_555
C61 C60 1_555 1_555
H2 C61 1_555 1_555
C62 C61 1_555 1_555
H3 C62 1_555 1_555
C63 C62 1_555 1_555
C64 C63 1_555 1_555
H4 C64 1_555 1_555
C65 C60 1_555 1_555
H5 C65 1_555 1_555
C66 C67 1_555 1_555
C67 H6 1_555 1_555
H7 C67 1_555 1_555
H8 C67 1_555 1_555
C68 C66 1_555 1_555
H9 C68 1_555 1_555
H10 C68 1_555 1_555
H11 C68 1_555 1_555
C69 C66 1_555 1_555
H12 C69 1_555 1_555
H13 C69 1_555 1_555
H14 C69 1_555 1_555
C70 S1 1_555 1_555
S2 C70 1_555 1_555
C71 H15 1_555 1_555
H16 C71 1_555 1_555
C72 C71 1_555 1_555
H17 C72 1_555 1_555
H18 C72 1_555 1_555
Cl1 C71 1_555 1_555
Cl2 C72 1_555 1_555
C3 C17 1_555 1_555
C4 C5 1_555 1_555
C16 C17 1_555 1_555
C18 C19 1_555 1_555
C20 C21 1_555 1_555
C23 C24 1_555 1_555
C24 C25 1_555 1_555
C27 C28 1_555 1_555
C28 C29 1_555 1_555
C31 C32 1_555 1_555
C32 C33 1_555 1_555
C35 C36 1_555 1_555
C36 C37 1_555 1_555
C38 C39 1_555 1_555
C40 C41 1_555 1_555
C42 C43 1_555 1_555
C43 C44 1_555 1_555
C45 C46 1_555 1_555
C46 C47 1_555 1_555
C48 C49 1_555 1_555
C49 C50 1_555 1_555
C51 C52 1_555 1_555
C52 C53 1_555 1_555
C53 C54 1_555 1_555
C55 C56 1_555 1_555
C55 C59 1_555 1_555
C56 C57 1_555 1_555
C57 C58 1_555 1_555
C58 C59 1_555 1_555
C64 C65 1_555 1_555

#END
