
#######################################################################
#
#                 Cambridge Crystallographic Data Centre
#                                CCDC 
#
#######################################################################
#
# If this CIF has been generated from an entry in the Cambridge 
# Structural Database, then it will include bibliographic, chemical, 
# crystal, experimental, refinement or atomic coordinate data resulting 
# from the CCDC's data processing and validation procedures.
#
#######################################################################

data_JIVVAM
_chemical_formula_moiety         'C25 H17 B1 N2 S4'
_chemical_name_systematic        
3,4,4,8-tetrakis(3-Thienyl)-4-bora-3a,4a-diaza-s-indacene
_symmetry_cell_setting           triclinic
_symmetry_space_group_name_H-M   'P -1'
_symmetry_Int_Tables_number      2
_space_group_name_Hall           '-P 1'
loop_
_symmetry_equiv_pos_site_id
_symmetry_equiv_pos_as_xyz
1 x,y,z
2 -x,-y,-z
_cell_length_a                   10.1117(6)
_cell_length_b                   10.1902(6)
_cell_length_c                   13.0217(7)
_cell_angle_alpha                75.6350(10)
_cell_angle_beta                 71.7000(10)
_cell_angle_gamma                64.2070(10)
_cell_volume                     1137.19
_exptl_crystal_colour            red
_chemical_melting_point          178deg.C
_cell_formula_units_Z            2
_exptl_crystal_recrystallization_method hexane/dichloromethane
_exptl_crystal_preparation       fluorescent
loop_
_atom_site_label
_atom_site_type_symbol
_atom_site_fract_x
_atom_site_fract_y
_atom_site_fract_z
B1 B -0.1373(4) 1.2206(4) 0.2561(3)
N1 N -0.2013(3) 1.1199(3) 0.2283(2)
N2 N -0.1621(3) 1.1892(3) 0.3851(2)
C1 C -0.2258(4) 0.9789(3) 0.4110(3)
C2 C -0.2347(4) 1.1237(4) 0.1340(3)
C3 C -0.2898(4) 1.0136(4) 0.1462(3)
H1 H -0.3231 0.9955 0.0934
C4 C -0.2858(4) 0.9379(4) 0.2493(3)
H2 H -0.3142 0.8574 0.2794
C5 C -0.2311(4) 1.0033(3) 0.3015(2)
C6 C -0.1380(5) 1.2597(4) 0.4466(3)
H3 H -0.1123 1.3423 0.4206
C7 C -0.1561(4) 1.1939(4) 0.5554(3)
H4 H -0.1464 1.2245 0.6141
C8 C -0.1911(4) 1.0758(4) 0.5599(3)
H5 H -0.2084 1.0097 0.6221
C9 C -0.1960(4) 1.0731(4) 0.4531(2)
C10 C -0.2586(4) 0.8538(4) 0.4831(3)
S1 S -0.2497(3) 0.5950(2) 0.5590(2)
C11 C -0.1870(15) 0.7115(10) 0.4592(9)
H6 H -0.1123 0.6825 0.3952
C12 C -0.3625(16) 0.8588(13) 0.5805(11)
H7 H -0.4187 0.9489 0.6089
C13 C -0.3874(14) 0.7322(15) 0.6397(11)
H8 H -0.4586 0.7233 0.7049
C14 C -0.2338(4) 1.3934(4) 0.2272(3)
S2 S -0.32740(19) 1.66164(13) 0.13332(12)
C15 C -0.1952(5) 1.4868(4) 0.1352(3)
H9 H -0.1058 1.4562 0.0804
C16 C -0.3742(4) 1.4745(4) 0.2953(4)
H10 H -0.4202 1.4311 0.3608
C17 C -0.4428(4) 1.6363(4) 0.2533(3)
H11 H -0.5322 1.7079 0.2878
C18 C 0.0432(4) 1.1650(4) 0.2040(2)
S3 S 0.32179(13) 1.00217(14) 0.13012(9)
C19 C 0.1347(4) 1.0295(4) 0.1708(3)
H12 H 0.0983 0.9590 0.1705
C20 C 0.1329(4) 1.2444(5) 0.1948(3)
H13 H 0.0926 1.3389 0.2156
C21 C 0.2989(4) 1.1628(5) 0.1487(3)
H14 H 0.3753 1.1987 0.1334
C22 C -0.2154(4) 1.2236(4) 0.0329(3)
S4 S -0.1040(8) 1.3490(8) -0.1471(5)
C23 C -0.0683(15) 1.2256(18) -0.0274(11)
H15 H 0.0246 1.1733 -0.0073
C24 C -0.259(3) 1.398(2) -0.150(2)
H16 H -0.3104 1.4619 -0.2033
C25 C -0.331(2) 1.2970(18) -0.0181(13)
H17 H -0.4287 1.2973 0.0079
S5? S -0.373(3) 0.713(2) 0.6406(12)
C26? C -0.378(5) 0.891(4) 0.591(3)
H18? H -0.4352 0.9799 0.6200
C27? C -0.196(8) 0.707(8) 0.478(5)
H19? H -0.1218 0.6613 0.4192
C28? C -0.268(5) 0.623(5) 0.591(4)
H20? H -0.2318 0.5212 0.6126
S6? S -0.2815(14) 1.3964(14) -0.1278(10)
C29? C -0.334(4) 1.332(3) -0.026(3)
H21? H -0.4372 1.3557 0.0050
C30? C -0.103(3) 1.255(3) -0.030(3)
H22? H -0.0181 1.2159 -0.0002
C31? C -0.084(4) 1.328(4) -0.124(2)
H23? H 0.0008 1.3412 -0.1737
loop_
_geom_bond_atom_site_label_1
_geom_bond_atom_site_label_2
_geom_bond_site_symmetry_1
_geom_bond_site_symmetry_2
B1 N1 1_555 1_555
N1 C2 1_555 1_555
N2 B1 1_555 1_555
C1 C5 1_555 1_555
C2 C3 1_555 1_555
C3 H1 1_555 1_555
C4 C3 1_555 1_555
H2 C4 1_555 1_555
C5 N1 1_555 1_555
C6 N2 1_555 1_555
H3 C6 1_555 1_555
C7 C6 1_555 1_555
H4 C7 1_555 1_555
C8 C7 1_555 1_555
H5 C8 1_555 1_555
C9 N2 1_555 1_555
C10 C1 1_555 1_555
S1 C11 1_555 1_555
C11 C10 1_555 1_555
H6 C11 1_555 1_555
C12 C10 1_555 1_555
H7 C12 1_555 1_555
C13 S1 1_555 1_555
H8 C13 1_555 1_555
C14 B1 1_555 1_555
S2 C15 1_555 1_555
C15 C14 1_555 1_555
H9 C15 1_555 1_555
C16 C14 1_555 1_555
H10 C16 1_555 1_555
C17 S2 1_555 1_555
H11 C17 1_555 1_555
C18 B1 1_555 1_555
S3 C19 1_555 1_555
C19 C18 1_555 1_555
H12 C19 1_555 1_555
C20 C18 1_555 1_555
H13 C20 1_555 1_555
C21 S3 1_555 1_555
H14 C21 1_555 1_555
C22 C2 1_555 1_555
S4 C23 1_555 1_555
C23 C22 1_555 1_555
H15 C23 1_555 1_555
C24 S4 1_555 1_555
H16 C24 1_555 1_555
C25 C22 1_555 1_555
H17 C25 1_555 1_555
C1 C9 1_555 1_555
C4 C5 1_555 1_555
C8 C9 1_555 1_555
C12 C13 1_555 1_555
C16 C17 1_555 1_555
C20 C21 1_555 1_555
C24 C25 1_555 1_555

#END
