
#######################################################################
#
#                 Cambridge Crystallographic Data Centre
#                                CCDC 
#
#######################################################################
#
# If this CIF has been generated from an entry in the Cambridge 
# Structural Database, then it will include bibliographic, chemical, 
# crystal, experimental, refinement or atomic coordinate data resulting 
# from the CCDC's data processing and validation procedures.
#
#######################################################################

data_JIWFEB
_chemical_formula_moiety         'C25 H24 O3'
_chemical_name_systematic        
5-endo-6-exo-8,9-Dibenzoylhexahydro-3a,6-ethanoinden-5-one
_symmetry_cell_setting           monoclinic
_symmetry_space_group_name_H-M   'P 21/c'
_symmetry_Int_Tables_number      14
_space_group_name_Hall           '-P 2ybc'
loop_
_symmetry_equiv_pos_site_id
_symmetry_equiv_pos_as_xyz
1 x,y,z
2 -x,1/2+y,1/2-z
3 -x,-y,-z
4 x,1/2-y,1/2+z
_cell_length_a                   9.005(5)
_cell_length_b                   14.836(8)
_cell_length_c                   14.242(8)
_cell_angle_alpha                90.00
_cell_angle_beta                 91.149(9)
_cell_angle_gamma                90.00
_cell_volume                     1902.32
_exptl_crystal_colour            colorless
_exptl_crystal_description       Prism
_chemical_melting_point          174-176deg.C
_cell_formula_units_Z            4
loop_
_atom_site_label
_atom_site_type_symbol
_atom_site_fract_x
_atom_site_fract_y
_atom_site_fract_z
O1 O 0.60969(13) 1.01367(9) 0.11109(7)
O2 O 0.13539(14) 1.12801(9) -0.03848(8)
O3 O 0.22236(15) 0.88107(8) 0.25172(7)
C1 C 0.63127(16) 0.96723(10) 0.26855(10)
C2 C 0.21840(16) 0.80796(10) 0.10501(10)
C3 C 0.24126(16) 0.88740(10) 0.16775(10)
C4 C 0.28832(16) 0.97711(10) 0.12611(9)
H1 H 0.3441 0.9653 0.0690
C5 C 0.38678(16) 1.03306(10) 0.19385(9)
H2 H 0.3558 1.0204 0.2581
C6 C 0.54787(16) 1.00552(10) 0.18574(10)
C7 C 0.14929(17) 1.03441(10) 0.09938(10)
H3 H 0.0711 0.9971 0.0704
C8 C 0.35791(17) 1.13489(10) 0.17337(10)
C9 C 0.57031(19) 0.95692(12) 0.35661(10)
H4 H 0.4725 0.9742 0.3662
C10 C 0.7972(2) 0.89466(12) 0.41699(12)
H5 H 0.8527 0.8708 0.4668
C11 C 0.17461(19) 0.72704(11) 0.14497(12)
H6 H 0.1552 0.7247 0.2088
C12 C 0.77683(17) 0.93910(11) 0.25612(11)
H7 H 0.8193 0.9444 0.1974
C13 C 0.20183(18) 1.10647(10) 0.03229(10)
C14 C 0.20593(18) 1.15630(11) 0.21599(11)
H8 H 0.1714 1.2137 0.1893
C15 C 0.09284(17) 1.08342(11) 0.18718(11)
H9 H -0.0030 1.1108 0.1735
H10 H 0.0812 1.0408 0.2381
C16 C 0.2431(2) 0.80992(12) 0.00950(11)
H11 H 0.2706 0.8637 -0.0189
C17 C 0.85900(18) 0.90342(11) 0.32997(12)
H12 H 0.9565 0.8852 0.3209
C18 C 0.2394(2) 1.17149(13) 0.32041(12)
H13 H 0.2292 1.1157 0.3552
H14 H 0.1722 1.2158 0.3459
C19 C 0.34400(19) 1.15044(11) 0.06706(10)
H15 H 0.3417 1.2145 0.0536
H16 H 0.4284 1.1243 0.0358
C20 C 0.4625(2) 1.19802(12) 0.22775(11)
H17 H 0.5624 1.1735 0.2305
H18 H 0.4655 1.2568 0.1980
C21 C 0.1869(2) 0.65299(13) -0.00317(14)
H19 H 0.1782 0.6010 -0.0393
C22 C 0.1595(2) 0.65010(12) 0.09114(14)
H20 H 0.1307 0.5963 0.1189
C23 C 0.3994(2) 1.20534(14) 0.32619(12)
H21 H 0.4020 1.2675 0.3474
H22 H 0.4573 1.1690 0.3701
C24 C 0.2273(2) 0.73256(14) -0.04410(13)
H23 H 0.2441 0.7347 -0.1083
C25 C 0.6533(2) 0.92132(13) 0.42993(11)
H24 H 0.6113 0.9153 0.4887
loop_
_geom_bond_atom_site_label_1
_geom_bond_atom_site_label_2
_geom_bond_site_symmetry_1
_geom_bond_site_symmetry_2
O1 C6 1_555 1_555
O2 C13 1_555 1_555
O3 C3 1_555 1_555
C1 C6 1_555 1_555
C2 C3 1_555 1_555
C3 C4 1_555 1_555
C4 H1 1_555 1_555
C5 C4 1_555 1_555
H2 C5 1_555 1_555
C6 C5 1_555 1_555
C7 C4 1_555 1_555
H3 C7 1_555 1_555
C8 C5 1_555 1_555
C9 C1 1_555 1_555
H4 C9 1_555 1_555
C10 H5 1_555 1_555
C11 C2 1_555 1_555
H6 C11 1_555 1_555
C12 C1 1_555 1_555
H7 C12 1_555 1_555
C13 C7 1_555 1_555
C14 C8 1_555 1_555
H8 C14 1_555 1_555
C15 C7 1_555 1_555
H9 C15 1_555 1_555
H10 C15 1_555 1_555
C16 C2 1_555 1_555
H11 C16 1_555 1_555
C17 C10 1_555 1_555
H12 C17 1_555 1_555
C18 C14 1_555 1_555
H13 C18 1_555 1_555
H14 C18 1_555 1_555
C19 C8 1_555 1_555
H15 C19 1_555 1_555
H16 C19 1_555 1_555
C20 C8 1_555 1_555
H17 C20 1_555 1_555
H18 C20 1_555 1_555
C21 H19 1_555 1_555
C22 C11 1_555 1_555
H20 C22 1_555 1_555
C23 C18 1_555 1_555
H21 C23 1_555 1_555
H22 C23 1_555 1_555
C24 C16 1_555 1_555
H23 C24 1_555 1_555
C25 C9 1_555 1_555
H24 C25 1_555 1_555
C10 C25 1_555 1_555
C12 C17 1_555 1_555
C13 C19 1_555 1_555
C14 C15 1_555 1_555
C20 C23 1_555 1_555
C21 C22 1_555 1_555
C21 C24 1_555 1_555

#END
