
#######################################################################
#
#                 Cambridge Crystallographic Data Centre
#                                CCDC 
#
#######################################################################
#
# If this CIF has been generated from an entry in the Cambridge 
# Structural Database, then it will include bibliographic, chemical, 
# crystal, experimental, refinement or atomic coordinate data resulting 
# from the CCDC's data processing and validation procedures.
#
#######################################################################

data_JIWKEI
_chemical_formula_moiety         'C29 H24 N2 O2 S1'
_chemical_name_systematic        
4-benzyl-5-(4-methoxyphenyl)-2-phenyl-4-(phenylsulfanyl)-2,4-dihydro-3H-pyrazol-3-one
_symmetry_cell_setting           monoclinic
_symmetry_space_group_name_H-M   'P 21'
_symmetry_Int_Tables_number      4
_space_group_name_Hall           'P 2yb'
loop_
_symmetry_equiv_pos_site_id
_symmetry_equiv_pos_as_xyz
1 x,y,z
2 -x,1/2+y,-z
_cell_length_a                   10.2478(2)
_cell_length_b                   8.1523(2)
_cell_length_c                   28.2987(6)
_cell_angle_alpha                90
_cell_angle_beta                 93.4810(10)
_cell_angle_gamma                90
_cell_volume                     2359.8
_exptl_crystal_colour            colorless
_exptl_crystal_description       prismatic
_cell_formula_units_Z            4
loop_
_atom_site_label
_atom_site_type_symbol
_atom_site_fract_x
_atom_site_fract_y
_atom_site_fract_z
N1 N 0.24781(19) 0.6269(4) 0.36933(7)
N2 N 0.1429(2) 0.5205(3) 0.35587(8)
O1 O 0.29353(18) 0.8249(3) 0.42674(7)
O2 O -0.4166(2) 0.1869(3) 0.35238(8)
S1 S 0.07291(7) 0.63251(13) 0.47952(2)
C1 C 0.2215(2) 0.7248(4) 0.40669(9)
C2 C 0.0801(2) 0.6870(4) 0.41734(9)
C3 C 0.0480(3) 0.5508(4) 0.38272(9)
C4 C -0.0754(3) 0.4597(4) 0.37637(9)
C5 C -0.1773(3) 0.4786(4) 0.40651(10)
H1 H -0.1672 0.5533 0.4323
C6 C -0.2927(3) 0.3909(4) 0.39966(10)
H2 H -0.3608 0.4057 0.4206
C7 C -0.3086(3) 0.2813(4) 0.36226(10)
C8 C -0.2085(3) 0.2634(4) 0.33135(10)
H3 H -0.2191 0.1900 0.3053
C9 C -0.0950(3) 0.3512(4) 0.33842(9)
H4 H -0.0279 0.3379 0.3170
C10 C -0.5254(3) 0.2071(5) 0.38093(12)
H5 H -0.4995 0.1781 0.4138
H6 H -0.5970 0.1355 0.3691
H7 H -0.5545 0.3216 0.3795
C11 C -0.0070(2) 0.8498(4) 0.40819(8)
H8 H -0.1004 0.8254 0.4120
H9 H 0.0212 0.9367 0.4310
C12 C 0.0130(3) 0.9062(4) 0.35717(10)
C13 C -0.0623(3) 0.8426(5) 0.31878(11)
H10 H -0.1279 0.7632 0.3238
C14 C -0.0411(4) 0.8959(6) 0.27284(13)
H11 H -0.0927 0.8530 0.2467
C15 C 0.0546(4) 1.0107(6) 0.26546(14)
H12 H 0.0693 1.0459 0.2342
C16 C 0.1282(4) 1.0739(5) 0.30314(14)
H13 H 0.1936 1.1533 0.2980
C17 C 0.1080(3) 1.0230(4) 0.34831(13)
H14 H 0.1597 1.0683 0.3741
C18 C 0.3586(2) 0.6279(4) 0.34146(9)
C19 C 0.3592(3) 0.5316(4) 0.30130(10)
H15 H 0.2856 0.4653 0.2922
C20 C 0.4681(3) 0.5321(5) 0.27426(11)
H16 H 0.4689 0.4648 0.2469
C21 C 0.5742(3) 0.6287(6) 0.28675(10)
H17 H 0.6488 0.6271 0.2684
C22 C 0.5723(3) 0.7286(5) 0.32623(12)
H18 H 0.6444 0.7985 0.3343
C23 C 0.4653(3) 0.7271(5) 0.35421(11)
H19 H 0.4651 0.7934 0.3818
C24 C 0.1943(3) 0.4796(4) 0.48687(10)
C25 C 0.1755(3) 0.3230(4) 0.46895(10)
H20 H 0.0992 0.2981 0.4495
C26 C 0.2684(3) 0.2021(4) 0.47947(11)
H21 H 0.2557 0.0945 0.4672
C27 C 0.3795(3) 0.2386(4) 0.50791(12)
H22 H 0.4423 0.1556 0.5156
C28 C 0.3985(3) 0.3948(5) 0.52487(13)
H23 H 0.4754 0.4204 0.5438
C29 C 0.3066(3) 0.5146(4) 0.51456(11)
H24 H 0.3205 0.6224 0.5266
N3 N 0.2471(2) 0.3726(3) 0.13041(7)
N4 N 0.3535(2) 0.4729(3) 0.14528(8)
O3 O 0.19714(17) 0.1877(2) 0.06924(7)
O4 O 0.9060(2) 0.8258(3) 0.14343(8)
S2 S 0.51081(6) 0.13975(10) 0.08727(2)
C30 C 0.2707(2) 0.2822(3) 0.09089(9)
C31 C 0.4092(2) 0.3265(3) 0.07907(9)
C32 C 0.4457(2) 0.4509(4) 0.11690(9)
C33 C 0.5699(2) 0.5409(3) 0.12319(9)
C34 C 0.6742(3) 0.5155(4) 0.09484(10)
H25 H 0.6672 0.4333 0.0710
C35 C 0.7883(3) 0.6070(4) 0.10037(10)
H26 H 0.8583 0.5871 0.0806
C36 C 0.7995(3) 0.7275(4) 0.13491(10)
C37 C 0.6972(3) 0.7534(4) 0.16379(10)
H27 H 0.7052 0.8352 0.1877
C38 C 0.5842(2) 0.6627(4) 0.15839(9)
H28 H 0.5152 0.6823 0.1786
C39 C 1.0148(3) 0.8019(5) 0.11520(12)
H29 H 1.0504 0.6916 0.1207
H30 H 1.0823 0.8836 0.1238
H31 H 0.9864 0.8142 0.0817
C40 C 0.4109(2) 0.3831(4) 0.02701(9)
H32 H 0.5001 0.4200 0.0206
H33 H 0.3882 0.2894 0.0058
C41 C 0.3147(2) 0.5225(4) 0.01641(9)
C42 C 0.3405(3) 0.6821(4) 0.03147(9)
H34 H 0.4197 0.7058 0.0493
C43 C 0.2520(3) 0.8070(4) 0.02077(10)
H35 H 0.2708 0.9156 0.0313
C44 C 0.1367(3) 0.7742(4) -0.00514(11)
H36 H 0.0766 0.8603 -0.0127
C45 C 0.1086(3) 0.6158(5) -0.02010(11)
H37 H 0.0288 0.5926 -0.0376
C46 C 0.1975(3) 0.4909(4) -0.00938(11)
H38 H 0.1781 0.3824 -0.0198
C47 C 0.1340(2) 0.3732(4) 0.15720(9)
C48 C 0.1324(3) 0.4723(4) 0.19726(10)
H39 H 0.2061 0.5373 0.2069
C49 C 0.0210(3) 0.4742(4) 0.22285(11)
H40 H 0.0191 0.5411 0.2503
C50 C -0.0867(3) 0.3811(5) 0.20924(11)
H41 H -0.1625 0.3845 0.2269
C51 C -0.0837(3) 0.2831(5) 0.16977(11)
H42 H -0.1577 0.2181 0.1604
C52 C 0.0261(3) 0.2778(4) 0.14344(11)
H43 H 0.0274 0.2096 0.1163
C53 C 0.4695(3) 0.0832(4) 0.14533(10)
C54 C 0.5395(3) 0.1455(5) 0.18491(10)
H44 H 0.6088 0.2211 0.1814
C55 C 0.5073(3) 0.0960(5) 0.22993(11)
H45 H 0.5553 0.1375 0.2571
C56 C 0.4057(4) -0.0131(5) 0.23514(13)
H46 H 0.3845 -0.0469 0.2659
C57 C 0.3356(3) -0.0725(5) 0.19602(12)
H47 H 0.2650 -0.1459 0.1997
C58 C 0.3676(3) -0.0256(4) 0.15096(11)
H48 H 0.3196 -0.0682 0.1239
loop_
_geom_bond_atom_site_label_1
_geom_bond_atom_site_label_2
_geom_bond_site_symmetry_1
_geom_bond_site_symmetry_2
N1 N2 1_555 1_555
N2 C3 1_555 1_555
O1 C1 1_555 1_555
O2 C7 1_555 1_555
S1 C2 1_555 1_555
C1 N1 1_555 1_555
C2 C1 1_555 1_555
C3 C2 1_555 1_555
C4 C3 1_555 1_555
C5 C4 1_555 1_555
H1 C5 1_555 1_555
C6 C5 1_555 1_555
H2 C6 1_555 1_555
C7 C6 1_555 1_555
C8 C7 1_555 1_555
H3 C8 1_555 1_555
C9 C4 1_555 1_555
H4 C9 1_555 1_555
C10 O2 1_555 1_555
H5 C10 1_555 1_555
H6 C10 1_555 1_555
H7 C10 1_555 1_555
C11 C2 1_555 1_555
H8 C11 1_555 1_555
H9 C11 1_555 1_555
C12 C11 1_555 1_555
C13 C12 1_555 1_555
H10 C13 1_555 1_555
C14 C13 1_555 1_555
H11 C14 1_555 1_555
C15 C14 1_555 1_555
H12 C15 1_555 1_555
C16 C15 1_555 1_555
H13 C16 1_555 1_555
C17 C12 1_555 1_555
H14 C17 1_555 1_555
C18 N1 1_555 1_555
C19 C18 1_555 1_555
H15 C19 1_555 1_555
C20 C19 1_555 1_555
H16 C20 1_555 1_555
C21 C20 1_555 1_555
H17 C21 1_555 1_555
C22 C21 1_555 1_555
H18 C22 1_555 1_555
C23 C18 1_555 1_555
H19 C23 1_555 1_555
C24 S1 1_555 1_555
C25 C24 1_555 1_555
H20 C25 1_555 1_555
C26 C25 1_555 1_555
H21 C26 1_555 1_555
C27 C26 1_555 1_555
H22 C27 1_555 1_555
C28 C27 1_555 1_555
H23 C28 1_555 1_555
C29 C24 1_555 1_555
H24 C29 1_555 1_555
N3 N4 1_555 1_555
N4 C32 1_555 1_555
O3 C30 1_555 1_555
O4 C36 1_555 1_555
S2 C31 1_555 1_555
C30 N3 1_555 1_555
C31 C30 1_555 1_555
C32 C31 1_555 1_555
C33 C32 1_555 1_555
C34 C33 1_555 1_555
H25 C34 1_555 1_555
C35 C34 1_555 1_555
H26 C35 1_555 1_555
C36 C35 1_555 1_555
C37 C36 1_555 1_555
H27 C37 1_555 1_555
C38 C33 1_555 1_555
H28 C38 1_555 1_555
C39 O4 1_555 1_555
H29 C39 1_555 1_555
H30 C39 1_555 1_555
H31 C39 1_555 1_555
C40 C31 1_555 1_555
H32 C40 1_555 1_555
H33 C40 1_555 1_555
C41 C40 1_555 1_555
C42 C41 1_555 1_555
H34 C42 1_555 1_555
C43 C42 1_555 1_555
H35 C43 1_555 1_555
C44 C43 1_555 1_555
H36 C44 1_555 1_555
C45 C44 1_555 1_555
H37 C45 1_555 1_555
C46 C41 1_555 1_555
H38 C46 1_555 1_555
C47 N3 1_555 1_555
C48 C47 1_555 1_555
H39 C48 1_555 1_555
C49 C48 1_555 1_555
H40 C49 1_555 1_555
C50 C49 1_555 1_555
H41 C50 1_555 1_555
C51 C50 1_555 1_555
H42 C51 1_555 1_555
C52 C47 1_555 1_555
H43 C52 1_555 1_555
C53 S2 1_555 1_555
C54 C53 1_555 1_555
H44 C54 1_555 1_555
C55 C54 1_555 1_555
H45 C55 1_555 1_555
C56 C55 1_555 1_555
H46 C56 1_555 1_555
C57 C56 1_555 1_555
H47 C57 1_555 1_555
C58 C53 1_555 1_555
H48 C58 1_555 1_555
C8 C9 1_555 1_555
C16 C17 1_555 1_555
C22 C23 1_555 1_555
C28 C29 1_555 1_555
C37 C38 1_555 1_555
C45 C46 1_555 1_555
C51 C52 1_555 1_555
C57 C58 1_555 1_555

#END
