
#######################################################################
#
#                 Cambridge Crystallographic Data Centre
#                                CCDC 
#
#######################################################################
#
# If this CIF has been generated from an entry in the Cambridge 
# Structural Database, then it will include bibliographic, chemical, 
# crystal, experimental, refinement or atomic coordinate data resulting 
# from the CCDC's data processing and validation procedures.
#
#######################################################################

data_JIWXAR
_chemical_name_common            4-iodo-2,1,3-benzothiadiazole
_chemical_formula_moiety         'C6 H3 I1 N2 S1'
_chemical_name_systematic        4-Iodobenzo[c][1,2,5]thiadiazole
_symmetry_cell_setting           triclinic
_symmetry_space_group_name_H-M   'P -1'
_symmetry_Int_Tables_number      2
_space_group_name_Hall           '-P 1'
loop_
_symmetry_equiv_pos_site_id
_symmetry_equiv_pos_as_xyz
1 x,y,z
2 -x,-y,-z
_cell_length_a                   7.2180(5)
_cell_length_b                   7.5244(6)
_cell_length_c                   8.3417(6)
_cell_angle_alpha                63.970(2)
_cell_angle_beta                 65.288(2)
_cell_angle_gamma                67.157(2)
_cell_volume                     357.988
_exptl_crystal_colour            'light brown'
_exptl_crystal_description       plate
_cell_formula_units_Z            2
loop_
_atom_site_label
_atom_site_type_symbol
_atom_site_fract_x
_atom_site_fract_y
_atom_site_fract_z
I1 I 0.89356(3) 0.74891(2) 0.09527(2)
S1 S 0.59841(11) 0.69832(10) 0.76203(9)
N1 N 0.7168(4) 0.7171(3) 0.5446(3)
N2 N 0.3598(4) 0.7222(3) 0.7808(3)
C1 C 0.5947(4) 0.7619(4) 0.2892(3)
C2 C 0.3623(4) 0.7459(4) 0.6094(3)
C3 C 0.1864(4) 0.7705(4) 0.5589(4)
H1 H 0.0504 0.7735 0.6477
C4 C 0.2183(4) 0.7896(4) 0.3801(4)
H2 H 0.1024 0.8056 0.3443
C5 C 0.5659(4) 0.7426(4) 0.4748(3)
C6 C 0.4208(4) 0.7861(4) 0.2453(4)
H3 H 0.4364 0.8010 0.1215
loop_
_geom_bond_atom_site_label_1
_geom_bond_atom_site_label_2
_geom_bond_site_symmetry_1
_geom_bond_site_symmetry_2
I1 C1 1_555 1_555
S1 N1 1_555 1_555
N1 C5 1_555 1_555
N2 S1 1_555 1_555
C1 C5 1_555 1_555
C2 N2 1_555 1_555
C3 C2 1_555 1_555
H1 C3 1_555 1_555
C4 C3 1_555 1_555
H2 C4 1_555 1_555
C5 C2 1_555 1_555
C6 C1 1_555 1_555
H3 C6 1_555 1_555
C4 C6 1_555 1_555

#END
