
#######################################################################
#
#                 Cambridge Crystallographic Data Centre
#                                CCDC 
#
#######################################################################
#
# If this CIF has been generated from an entry in the Cambridge 
# Structural Database, then it will include bibliographic, chemical, 
# crystal, experimental, refinement or atomic coordinate data resulting 
# from the CCDC's data processing and validation procedures.
#
#######################################################################

data_JIXGUV
_chemical_formula_moiety         'C14 H12 N2 O2'
_chemical_name_systematic        
2-amino-4-ethynyl-4-(3-methoxyphenyl)-4,5-dihydrofuran-3-carbonitrile
_symmetry_cell_setting           monoclinic
_symmetry_space_group_name_H-M   'P 21'
_symmetry_Int_Tables_number      4
_space_group_name_Hall           'P 2yb'
loop_
_symmetry_equiv_pos_site_id
_symmetry_equiv_pos_as_xyz
1 x,y,z
2 -x,1/2+y,-z
_cell_length_a                   6.79580(10)
_cell_length_b                   11.8007(2)
_cell_length_c                   15.6771(3)
_cell_angle_alpha                90
_cell_angle_beta                 90.4400(10)
_cell_angle_gamma                90
_cell_volume                     1257.19
_exptl_crystal_colour            colorless
_exptl_crystal_description       prismatic
_cell_formula_units_Z            4
loop_
_atom_site_label
_atom_site_type_symbol
_atom_site_fract_x
_atom_site_fract_y
_atom_site_fract_z
N1 N -0.0854(3) 0.66386(18) 1.18556(11)
N2 N 0.4715(2) 0.62204(17) 1.18709(12)
O1 O -0.14807(16) 0.60837(12) 1.05035(8)
O2 O 0.7103(2) 0.69800(14) 0.81685(10)
C1 C -0.0142(2) 0.62467(15) 1.11294(11)
C2 C 0.1731(2) 0.59879(15) 1.08933(11)
C3 C 0.1751(2) 0.56396(15) 0.99532(11)
C4 C -0.0511(3) 0.55264(18) 0.98028(12)
H1 H -0.0885 0.5880 0.9267
H2 H -0.0885 0.4734 0.9781
C5 C 0.2679(3) 0.65521(14) 0.93860(11)
C6 C 0.4477(3) 0.63905(14) 0.90088(11)
H3 H 0.5154 0.5716 0.9099
C7 C 0.5300(3) 0.72254(16) 0.84918(11)
C8 C 0.4284(4) 0.82194(16) 0.83394(14)
H4 H 0.4802 0.8773 0.7983
C9 C 0.2492(4) 0.83766(19) 0.87238(19)
H5 H 0.1806 0.9047 0.8625
C10 C 0.1686(4) 0.75705(18) 0.92494(17)
H6 H 0.0486 0.7704 0.9512
C11 C 0.3380(2) 0.61128(15) 1.14227(11)
C12 C 0.2683(3) 0.45287(16) 0.98146(12)
C13 C 0.3403(4) 0.36380(18) 0.96975(16)
C14 C 0.7978(4) 0.7813(3) 0.76265(18)
H7 H 0.7140 0.7942 0.7141
H8 H 0.9237 0.7546 0.7438
H9 H 0.8144 0.8508 0.7937
H10 H 0.394(5) 0.291(3) 0.962(2)
H11 H 0.007(4) 0.678(3) 1.2287(19)
H12 H -0.213(4) 0.668(2) 1.1882(18)
N3 N 0.6576(3) 0.5147(3) 0.35410(14)
N4 N 0.1019(3) 0.5441(2) 0.35830(15)
O3 O 0.6945(2) 0.39038(18) 0.46238(11)
O4 O -0.1641(2) 0.34876(14) 0.71473(9)
C15 C 0.5732(3) 0.4514(2) 0.41307(13)
C16 C 0.3803(3) 0.43667(18) 0.43184(12)
C17 C 0.3578(3) 0.3508(2) 0.50327(12)
C18 C 0.5802(3) 0.3236(3) 0.52032(17)
H13 H 0.6151 0.3422 0.5788
H14 H 0.6053 0.2437 0.5112
C19 C 0.2565(3) 0.40237(18) 0.58195(12)
C20 C 0.3321(4) 0.5018(2) 0.61761(16)
H15 H 0.4425 0.5361 0.5942
C21 C 0.2423(4) 0.5489(2) 0.68778(16)
H16 H 0.2942 0.6146 0.7116
C22 C 0.0779(4) 0.5009(2) 0.72328(14)
H17 H 0.0197 0.5333 0.7709
C23 C 0.0006(3) 0.40394(17) 0.68718(11)
C24 C 0.0926(3) 0.35437(17) 0.61698(11)
H18 H 0.0418 0.2879 0.5938
C25 C 0.2550(3) 0.2470(2) 0.47446(13)
C26 C 0.1740(5) 0.1639(2) 0.45221(17)
C27 C 0.2273(3) 0.4954(2) 0.39174(13)
C28 C -0.2747(5) 0.3979(3) 0.78173(18)
H19 H -0.3050 0.4752 0.7678
H20 H -0.1992 0.3955 0.8337
H21 H -0.3947 0.3561 0.7890
H22 H 0.101(6) 0.101(4) 0.433(3)
H23 H 0.579(4) 0.551(3) 0.317(2)
H24 H 0.778(5) 0.515(3) 0.355(2)
loop_
_geom_bond_atom_site_label_1
_geom_bond_atom_site_label_2
_geom_bond_site_symmetry_1
_geom_bond_site_symmetry_2
N1 C1 1_555 1_555
N2 C11 1_555 1_555
O1 C1 1_555 1_555
O2 C7 1_555 1_555
C1 C2 1_555 1_555
C2 C3 1_555 1_555
C3 C4 1_555 1_555
C4 O1 1_555 1_555
H1 C4 1_555 1_555
H2 C4 1_555 1_555
C5 C3 1_555 1_555
C6 C5 1_555 1_555
H3 C6 1_555 1_555
C7 C6 1_555 1_555
C8 C7 1_555 1_555
H4 C8 1_555 1_555
C9 C8 1_555 1_555
H5 C9 1_555 1_555
C10 C5 1_555 1_555
H6 C10 1_555 1_555
C11 C2 1_555 1_555
C12 C3 1_555 1_555
C13 C12 1_555 1_555
C14 O2 1_555 1_555
H7 C14 1_555 1_555
H8 C14 1_555 1_555
H9 C14 1_555 1_555
H10 C13 1_555 1_555
H11 N1 1_555 1_555
H12 N1 1_555 1_555
N3 C15 1_555 1_555
N4 C27 1_555 1_555
O3 C15 1_555 1_555
O4 C23 1_555 1_555
C15 C16 1_555 1_555
C16 C17 1_555 1_555
C17 C18 1_555 1_555
C18 O3 1_555 1_555
H13 C18 1_555 1_555
H14 C18 1_555 1_555
C19 C17 1_555 1_555
C20 C19 1_555 1_555
H15 C20 1_555 1_555
C21 C20 1_555 1_555
H16 C21 1_555 1_555
C22 C21 1_555 1_555
H17 C22 1_555 1_555
C23 C22 1_555 1_555
C24 C19 1_555 1_555
H18 C24 1_555 1_555
C25 C17 1_555 1_555
C26 C25 1_555 1_555
C27 C16 1_555 1_555
C28 O4 1_555 1_555
H19 C28 1_555 1_555
H20 C28 1_555 1_555
H21 C28 1_555 1_555
H22 C26 1_555 1_555
H23 N3 1_555 1_555
H24 N3 1_555 1_555
C9 C10 1_555 1_555
C23 C24 1_555 1_555

#END
