
#######################################################################
#
#                 Cambridge Crystallographic Data Centre
#                                CCDC 
#
#######################################################################
#
# If this CIF has been generated from an entry in the Cambridge 
# Structural Database, then it will include bibliographic, chemical, 
# crystal, experimental, refinement or atomic coordinate data resulting 
# from the CCDC's data processing and validation procedures.
#
#######################################################################

data_JIXMUY
_chemical_formula_moiety         'C37 H40 N2 O8 S2'
_chemical_name_systematic        
2,3-bis(Methoxycarbonyl)-5(Z)-((1,2-bis(methoxycarbonyl)vinyl)thio)-7,7-dimethyl-7,8-dihydro-1',3'-dibenzylbenzo(b)thiopyran-4-spiro-2'-imidazolidine
_symmetry_cell_setting           monoclinic
_symmetry_space_group_name_H-M   'P 21/c'
_symmetry_Int_Tables_number      14
_space_group_name_Hall           '-P 2ybc'
loop_
_symmetry_equiv_pos_site_id
_symmetry_equiv_pos_as_xyz
1 x,y,z
2 -x,1/2+y,1/2-z
3 -x,-y,-z
4 x,1/2-y,1/2+z
_cell_length_a                   14.690(7)
_cell_length_b                   11.473(5)
_cell_length_c                   21.367(7)
_cell_angle_alpha                90
_cell_angle_beta                 101.48(3)
_cell_angle_gamma                90
_cell_volume                     3529.12
_exptl_crystal_colour            yellow
_chemical_melting_point          186-188deg.C
_cell_formula_units_Z            4
loop_
_atom_site_label
_atom_site_type_symbol
_atom_site_fract_x
_atom_site_fract_y
_atom_site_fract_z
S1 S 0.6786(1) 0.1894(1) 0.3747(1)
S2 S 0.6800(1) 0.5025(2) 0.1768(1)
O1 O 0.9781(4) 0.3693(6) 0.4145(3)
O2 O 0.9890(3) 0.2306(5) 0.3446(7)
O3 O 0.9345(3) 0.1388(5) 0.4569(2)
O4 O 0.7939(3) 0.0864(4) 0.4717(2)
O5 O 0.4209(3) 0.4483(4) 0.1005(2)
O6 O 0.5272(3) 0.3124(4) 0.1331(3)
O7 O 0.7020(4) 0.6906(4) 0.0917(3)
O8 O 0.5768(4) 0.7756(4) 0.0363(3)
N1 N 0.8255(3) 0.4751(4) 0.2923(2)
N2 N 0.8187(3) 0.3108(4) 0.2347(2)
C1 C 0.7978(4) 0.2114(5) 0.3866(3)
C2 C 0.8405(4) 0.2836(5) 0.3523(3)
C3 C 0.7933(4) 0.3545(5) 0.2930(3)
C4 C 0.6885(4) 0.3585(5) 0.2852(2)
C5 C 0.6375(4) 0.2926(5) 0.3171(3)
C6 C 0.5338(4) 0.3093(5) 0.3074(3)
C7 C 0.5095(4) 0.4393(5) 0.3045(3)
C8 C 0.5567(4) 0.4916(5) 0.2547(3)
C9 C 0.6370(4) 0.4489(5) 0.2432(3)
C10 C 0.4048(5) 0.4548(7) 0.2852(3)
C11 C 0.5447(5) 0.4984(7) 0.3694(3)
C12 C 0.9111(4) 0.4760(5) 0.2665(3)
C13 C 0.8991(4) 0.3737(5) 0.2201(3)
C14 C 0.5766(4) 0.5093(5) 0.1201(3)
C15 C 0.5566(4) 0.5916(5) 0.0745(3)
C16 C 1.0907(6) 0.2499(10) 0.3696(5)
C17 C 0.9432(5) 0.3001(8) 0.3749(4)
C18 C 0.8364(6) 0.0310(7) 0.5311(3)
C19 C 0.8525(5) 0.1429(5) 0.4414(3)
C20 C 0.3483(4) 0.3620(4) 0.0982(4)
C21 C 0.5062(4) 0.4119(5) 0.1192(3)
C22 C 0.6354(6) 0.8765(6) 0.0302(4)
C23 C 0.6209(5) 0.6867(6) 0.0693(3)
C24 C 0.8239(5) 0.5427(5) 0.3506(3)
C25 C 0.8956(4) 0.7299(6) 0.3939(3)
C26 C 0.9138(5) 0.8476(6) 0.3900(4)
C27 C 0.8823(5) 0.9072(6) 0.3350(3)
C28 C 0.8329(5) 0.8508(6) 0.2849(4)
C29 C 0.8111(4) 0.7339(6) 0.2880(3)
C30 C 0.8439(4) 0.6715(5) 0.3427(3)
C31 C 0.8141(5) 0.1858(5) 0.2212(3)
C32 C 0.8672(5) 0.1157(7) 0.1227(3)
C33 C 0.8521(6) 0.0956(7) 0.0573(4)
C34 C 0.7706(6) 0.1210(6) 0.0206(4)
C35 C 0.6993(6) 0.1688(6) 0.0461(4)
C36 C 0.7161(5) 0.1899(6) 0.1121(3)
C37 C 0.7989(4) 0.1627(4) 0.1508(3)
H1 H 0.5150 0.2500 0.3414
H2 H 0.5011 0.2764 0.2589
H3 H 0.5174 0.5594 0.2287
H4 H 0.3889 0.5355 0.2854
H5 H 0.3858 0.4128 0.2457
H6 H 0.3754 0.4241 0.3169
H7 H 0.5188 0.5777 0.3640
H8 H 0.5147 0.4523 0.3978
H9 H 0.6242 0.4980 0.3844
H10 H 0.9766 0.4672 0.3011
H11 H 0.8947 0.5552 0.2366
H12 H 0.8763 0.4123 0.1725
H13 H 0.9657 0.3196 0.2319
H14 H 0.5006 0.5885 0.0433
H15 H 1.1143 0.2016 0.3571
H17 H 1.0895 0.2790 0.4226
H18 H 0.7792 0.0101 0.5456
H19 H 0.8522 -0.0293 0.5212
H20 H 0.8885 0.0836 0.5583
H21 H 0.3134 0.3986 0.1188
H22 H 0.3393 0.3305 0.0714
H23 H 0.3786 0.3031 0.1402
H24 H 0.5921 0.9224 0.0093
H25 H 0.6848 0.8930 0.0782
H26 H 0.7028 0.8468 0.0151
H27 H 0.8816 0.5132 0.3913
H28 H 0.7576 0.5447 0.3562
H29 H 0.9224 0.6847 0.4314
H30 H 0.9494 0.8770 0.4196
H31 H 0.9117 0.9817 0.3348
H32 H 0.7998 0.8981 0.2433
H33 H 0.7893 0.6880 0.2569
H34 H 0.7561 0.1528 0.2361
H35 H 0.8722 0.1500 0.2425
H36 H 0.9315 0.1103 0.1539
H37 H 0.8807 0.0371 0.0339
H38 H 0.7632 0.1065 -0.0234
H39 H 0.6399 0.1911 0.0189
H40 H 0.6634 0.2142 0.1376
H16? H 1.1117 0.3373 0.4123
loop_
_geom_bond_atom_site_label_1
_geom_bond_atom_site_label_2
_geom_bond_site_symmetry_1
_geom_bond_site_symmetry_2
S1 C1 1_555 1_555
S2 C9 1_555 1_555
O1 C17 1_555 1_555
O2 C16 1_555 1_555
O3 C19 1_555 1_555
O4 C18 1_555 1_555
O5 C20 1_555 1_555
O6 C21 1_555 1_555
O7 C23 1_555 1_555
O8 C22 1_555 1_555
N1 C3 1_555 1_555
N2 C3 1_555 1_555
C1 C2 1_555 1_555
C2 C3 1_555 1_555
C3 C4 1_555 1_555
C4 C5 1_555 1_555
C5 S1 1_555 1_555
C6 C5 1_555 1_555
C7 C6 1_555 1_555
C8 C7 1_555 1_555
C9 C4 1_555 1_555
C10 C7 1_555 1_555
C11 C7 1_555 1_555
C12 N1 1_555 1_555
C13 N2 1_555 1_555
C14 S2 1_555 1_555
C15 C14 1_555 1_555
C16 H15 1_555 1_555
C17 O2 1_555 1_555
C18 H18 1_555 1_555
C19 O4 1_555 1_555
C20 H21 1_555 1_555
C21 O5 1_555 1_555
C22 H24 1_555 1_555
C23 O8 1_555 1_555
C24 N1 1_555 1_555
C25 C26 1_555 1_555
C26 C27 1_555 1_555
C27 C28 1_555 1_555
C28 C29 1_555 1_555
C29 C30 1_555 1_555
C30 C24 1_555 1_555
C31 N2 1_555 1_555
C32 C33 1_555 1_555
C33 C34 1_555 1_555
C34 C35 1_555 1_555
C35 C36 1_555 1_555
C36 C37 1_555 1_555
C37 C31 1_555 1_555
H1 C6 1_555 1_555
H2 C6 1_555 1_555
H3 C8 1_555 1_555
H4 C10 1_555 1_555
H5 C10 1_555 1_555
H6 C10 1_555 1_555
H7 C11 1_555 1_555
H8 C11 1_555 1_555
H9 C11 1_555 1_555
H10 C12 1_555 1_555
H11 C12 1_555 1_555
H12 C13 1_555 1_555
H13 C13 1_555 1_555
H14 C15 1_555 1_555
H17 C16 1_555 1_555
H19 C18 1_555 1_555
H20 C18 1_555 1_555
H22 C20 1_555 1_555
H23 C20 1_555 1_555
H25 C22 1_555 1_555
H26 C22 1_555 1_555
H27 C24 1_555 1_555
H28 C24 1_555 1_555
H29 C25 1_555 1_555
H30 C26 1_555 1_555
H31 C27 1_555 1_555
H32 C28 1_555 1_555
H33 C29 1_555 1_555
H34 C31 1_555 1_555
H35 C31 1_555 1_555
H36 C32 1_555 1_555
H37 C33 1_555 1_555
H38 C34 1_555 1_555
H39 C35 1_555 1_555
H40 C36 1_555 1_555
C1 C19 1_555 1_555
C2 C17 1_555 1_555
C8 C9 1_555 1_555
C12 C13 1_555 1_555
C14 C21 1_555 1_555
C15 C23 1_555 1_555
C25 C30 1_555 1_555
C32 C37 1_555 1_555

#END
