
#######################################################################
#
#                 Cambridge Crystallographic Data Centre
#                                CCDC 
#
#######################################################################
#
# If this CIF has been generated from an entry in the Cambridge 
# Structural Database, then it will include bibliographic, chemical, 
# crystal, experimental, refinement or atomic coordinate data resulting 
# from the CCDC's data processing and validation procedures.
#
#######################################################################

data_JIXRIS
_chemical_name_common            N,N'-bis(paeonol)-1,3-propylenediamine
_chemical_formula_moiety         'C21 H26 N2 O4'
_chemical_name_systematic        
N,N'-bis(1-(2-Hydroxy-4-methyoxyphenyl)ethylidene)-1,3-propylenediamine
_symmetry_cell_setting           triclinic
_symmetry_space_group_name_H-M   'P -1'
_symmetry_Int_Tables_number      2
_space_group_name_Hall           '-P 1'
loop_
_symmetry_equiv_pos_site_id
_symmetry_equiv_pos_as_xyz
1 x,y,z
2 -x,-y,-z
_cell_length_a                   6.878(2)
_cell_length_b                   12.141(4)
_cell_length_c                   12.414(4)
_cell_angle_alpha                101.023(6)
_cell_angle_beta                 103.415(6)
_cell_angle_gamma                102.337(6)
_cell_volume                     952.926
_exptl_crystal_colour            yellow
_chemical_melting_point          '175 deg.C (dec.)'
_cell_formula_units_Z            2
_exptl_crystal_recrystallization_method methanol
loop_
_atom_site_label
_atom_site_type_symbol
_atom_site_fract_x
_atom_site_fract_y
_atom_site_fract_z
N1 N -0.1327(5) 0.8830(3) 0.7842(3)
N2 N 0.1492(6) 0.7613(3) 0.5247(3)
O1 O 0.1696(4) 1.0592(3) 0.8619(2)
H1 H 0.1054 0.9912 0.8300
O2 O 0.0769(6) 1.4065(3) 1.0686(3)
O3 O 0.3240(5) 0.6029(2) 0.4982(2)
H2 H 0.2481 0.6398 0.5208
O4 O 0.7684(5) 0.6114(3) 0.2567(2)
C1 C -0.4742(7) 0.8776(4) 0.8135(4)
H3 H -0.5081 0.7987 0.7689
H4 H -0.5613 0.9186 0.7747
H5 H -0.4961 0.8780 0.8872
C2 C -0.2506(7) 0.9367(4) 0.8286(3)
C3 C -0.1611(7) 1.0571(4) 0.8932(3)
C4 C 0.0478(7) 1.1135(4) 0.9050(3)
C5 C 0.1299(7) 1.2311(4) 0.9627(3)
H6 H 0.2663 1.2689 0.9691
C6 C 0.0088(8) 1.2915(4) 1.0102(3)
C7 C -0.1930(8) 1.2371(4) 1.0019(4)
H7 H -0.2724 1.2780 1.0358
C8 C -0.2761(7) 1.1229(4) 0.9438(4)
H8 H -0.4137 1.0874 0.9374
C9 C 0.2703(8) 1.4727(4) 1.0645(4)
H9 H 0.2985 1.5515 1.1084
H10 H 0.2653 1.4722 0.9864
H11 H 0.3782 1.4393 1.0958
C10 C 0.1676(8) 0.9134(4) 0.4215(4)
H12 H 0.0750 0.9365 0.4629
H13 H 0.1010 0.8950 0.3408
H14 H 0.2916 0.9761 0.4409
C11 C 0.2225(7) 0.8082(4) 0.4525(4)
C12 C 0.3616(7) 0.7555(4) 0.4020(3)
C13 C 0.4076(7) 0.6530(4) 0.4272(3)
C14 C 0.5433(7) 0.6041(4) 0.3802(3)
H15 H 0.5729 0.5375 0.3982
C15 C 0.6337(7) 0.6531(4) 0.3075(3)
C16 C 0.5932(7) 0.7538(4) 0.2808(3)
H16 H 0.6565 0.7874 0.2320
C17 C 0.4605(7) 0.8027(4) 0.3267(3)
H17 H 0.4338 0.8696 0.3078
C18 C 0.8251(8) 0.5111(4) 0.2836(4)
H18 H 0.9180 0.4905 0.2412
H19 H 0.7027 0.4473 0.2635
H20 H 0.8926 0.5283 0.3641
C19 C -0.2092(7) 0.7629(4) 0.7140(3)
H21 H -0.3353 0.7547 0.6549
H22 H -0.2422 0.7107 0.7614
C20 C -0.0489(7) 0.7300(4) 0.6595(3)
H23 H -0.1010 0.6491 0.6162
H24 H 0.0757 0.7370 0.7193
C21 C 0.0067(7) 0.8045(4) 0.5811(3)
H25 H -0.1181 0.8025 0.5240
H26 H 0.0713 0.8847 0.6249
loop_
_geom_bond_atom_site_label_1
_geom_bond_atom_site_label_2
_geom_bond_site_symmetry_1
_geom_bond_site_symmetry_2
N1 C2 1_555 1_555
N2 C11 1_555 1_555
O1 H1 1_555 1_555
O2 C6 1_555 1_555
O3 H2 1_555 1_555
O4 C15 1_555 1_555
C1 H3 1_555 1_555
H4 C1 1_555 1_555
H5 C1 1_555 1_555
C2 C1 1_555 1_555
C3 C2 1_555 1_555
C4 O1 1_555 1_555
C5 C4 1_555 1_555
H6 C5 1_555 1_555
C6 C5 1_555 1_555
C7 C6 1_555 1_555
H7 C7 1_555 1_555
C8 C3 1_555 1_555
H8 C8 1_555 1_555
C9 O2 1_555 1_555
H9 C9 1_555 1_555
H10 C9 1_555 1_555
H11 C9 1_555 1_555
C10 H12 1_555 1_555
H13 C10 1_555 1_555
H14 C10 1_555 1_555
C11 C10 1_555 1_555
C12 C11 1_555 1_555
C13 O3 1_555 1_555
C14 C13 1_555 1_555
H15 C14 1_555 1_555
C15 C14 1_555 1_555
C16 C15 1_555 1_555
H16 C16 1_555 1_555
C17 C12 1_555 1_555
H17 C17 1_555 1_555
C18 O4 1_555 1_555
H18 C18 1_555 1_555
H19 C18 1_555 1_555
H20 C18 1_555 1_555
C19 N1 1_555 1_555
H21 C19 1_555 1_555
H22 C19 1_555 1_555
C20 C19 1_555 1_555
H23 C20 1_555 1_555
H24 C20 1_555 1_555
C21 N2 1_555 1_555
H25 C21 1_555 1_555
H26 C21 1_555 1_555
C3 C4 1_555 1_555
C7 C8 1_555 1_555
C12 C13 1_555 1_555
C16 C17 1_555 1_555
C20 C21 1_555 1_555

#END
