
#######################################################################
#
#                 Cambridge Crystallographic Data Centre
#                                CCDC 
#
#######################################################################
#
# If this CIF has been generated from an entry in the Cambridge 
# Structural Database, then it will include bibliographic, chemical, 
# crystal, experimental, refinement or atomic coordinate data resulting 
# from the CCDC's data processing and validation procedures.
#
#######################################################################

data_JIYDIH
_chemical_formula_moiety         'C34 H26 Si2'
_chemical_name_systematic        
'[1,4-phenylenebis(ethyne-2,1-diyl)]bis(diphenylsilane)'
_symmetry_cell_setting           monoclinic
_symmetry_space_group_name_H-M   'P 21/c'
_symmetry_Int_Tables_number      14
_space_group_name_Hall           '-P 2ybc'
loop_
_symmetry_equiv_pos_site_id
_symmetry_equiv_pos_as_xyz
1 x,y,z
2 -x,1/2+y,1/2-z
3 -x,-y,-z
4 x,1/2-y,1/2+z
_cell_length_a                   7.4422(10)
_cell_length_b                   13.4830(18)
_cell_length_c                   14.2968(19)
_cell_angle_alpha                90
_cell_angle_beta                 98.765(5)
_cell_angle_gamma                90
_cell_volume                     1417.83
_exptl_crystal_colour            colorless
_exptl_crystal_description       plate
_cell_formula_units_Z            2
_exptl_crystal_recrystallization_method 
'Re-crystallisation from solvent: hexane'
loop_
_atom_site_label
_atom_site_type_symbol
_atom_site_fract_x
_atom_site_fract_y
_atom_site_fract_z
Si1 Si 0.67035(6) 0.58059(4) 0.26024(3)
C1 C 0.4738(3) 0.54730(14) 0.17320(12)
C2 C 0.3338(3) 0.53198(14) 0.12082(12)
C3 C 0.1647(2) 0.51514(13) 0.05914(11)
C4 C 0.0222(2) 0.46732(15) 0.09295(12)
H1 H 0.037293 0.445061 0.156716
C5 C -0.1411(3) 0.45188(16) 0.03471(13)
C6 C 0.7993(2) 0.46592(14) 0.30002(12)
C7 C 0.7413(3) 0.37145(15) 0.26933(13)
H2 H 0.632650 0.364366 0.225394
C8 C 0.8395(3) 0.28760(16) 0.30189(15)
H3 H 0.799375 0.223819 0.279464
C9 C 0.9965(3) 0.29722(17) 0.36721(15)
H4 H 1.062121 0.239834 0.391004
C10 C 1.0573(3) 0.38997(18) 0.39768(15)
H5 H 1.166343 0.396486 0.441376
C11 C 0.9603(2) 0.47334(16) 0.36495(13)
H6 H 1.003271 0.536875 0.386709
C12 C 0.5864(2) 0.64408(13) 0.36067(12)
C13 C 0.6523(3) 0.73617(14) 0.39439(13)
H7 H 0.741200 0.769167 0.364595
C14 C 0.5896(3) 0.78014(14) 0.47103(14)
H8 H 0.635965 0.842915 0.493210
C15 C 0.4616(3) 0.73393(15) 0.51495(14)
H9 H 0.419383 0.764565 0.567361
C16 C 0.3939(3) 0.64276(16) 0.48298(15)
H10 H 0.305613 0.610279 0.513553
C17 C 0.4551(3) 0.59876(15) 0.40623(15)
H11 H 0.406716 0.536371 0.384115
H12 H -0.233(3) 0.4183(17) 0.0580(16)
H13 H 0.778(2) 0.6459(13) 0.2207(13)
Si1B Si -0.67035(6) 0.41941(4) -0.26024(3)
C1B C -0.4738(3) 0.45270(14) -0.17320(12)
C2B C -0.3338(3) 0.46802(14) -0.12082(12)
C3B C -0.1647(2) 0.48486(13) -0.05914(11)
C4B C -0.0222(2) 0.53268(15) -0.09295(12)
H1B H -0.037293 0.554939 -0.156716
C5B C 0.1411(3) 0.54812(16) -0.03471(13)
C6B C -0.7993(2) 0.53408(14) -0.30002(12)
C7B C -0.7413(3) 0.62855(15) -0.26933(13)
H2B H -0.632650 0.635634 -0.225394
C8B C -0.8395(3) 0.71240(16) -0.30189(15)
H3B H -0.799375 0.776181 -0.279464
C9B C -0.9965(3) 0.70278(17) -0.36721(15)
H4B H -1.062121 0.760166 -0.391004
C10B C -1.0573(3) 0.61003(18) -0.39768(15)
H5B H -1.166343 0.603514 -0.441376
C11B C -0.9603(2) 0.52666(16) -0.36495(13)
H6B H -1.003271 0.463125 -0.386709
C12B C -0.5864(2) 0.35592(13) -0.36067(12)
C13B C -0.6523(3) 0.26383(14) -0.39439(13)
H7B H -0.741200 0.230833 -0.364595
C14B C -0.5896(3) 0.21986(14) -0.47103(14)
H8B H -0.635965 0.157085 -0.493210
C15B C -0.4616(3) 0.26607(15) -0.51495(14)
H9B H -0.419383 0.235435 -0.567361
C16B C -0.3939(3) 0.35724(16) -0.48298(15)
H10B H -0.305613 0.389721 -0.513553
C17B C -0.4551(3) 0.40124(15) -0.40623(15)
H11B H -0.406716 0.463629 -0.384115
H12B H 0.233(3) 0.5817(17) -0.0580(16)
H13B H -0.778(2) 0.3541(13) -0.2207(13)
loop_
_geom_bond_atom_site_label_1
_geom_bond_atom_site_label_2
_geom_bond_site_symmetry_1
_geom_bond_site_symmetry_2
Si1 C1 1_555 1_555
C1 C2 1_555 1_555
C2 C3 1_555 1_555
C3 C4 1_555 1_555
C4 H1 1_555 1_555
C5 C4 1_555 1_555
C6 Si1 1_555 1_555
C7 C6 1_555 1_555
H2 C7 1_555 1_555
C8 C7 1_555 1_555
H3 C8 1_555 1_555
C9 C8 1_555 1_555
H4 C9 1_555 1_555
C10 C9 1_555 1_555
H5 C10 1_555 1_555
C11 C6 1_555 1_555
H6 C11 1_555 1_555
C12 Si1 1_555 1_555
C13 C12 1_555 1_555
H7 C13 1_555 1_555
C14 C13 1_555 1_555
H8 C14 1_555 1_555
C15 C14 1_555 1_555
H9 C15 1_555 1_555
C16 C15 1_555 1_555
H10 C16 1_555 1_555
C17 C12 1_555 1_555
H11 C17 1_555 1_555
H12 C5 1_555 1_555
H13 Si1 1_555 1_555
Si1B C1B 1_555 1_555
C1B C2B 1_555 1_555
C2B C3B 1_555 1_555
C3B C5 1_555 1_555
C4B C3B 1_555 1_555
H1B C4B 1_555 1_555
C5B C3 1_555 1_555
C6B Si1B 1_555 1_555
C7B C6B 1_555 1_555
H2B C7B 1_555 1_555
C8B C7B 1_555 1_555
H3B C8B 1_555 1_555
C9B C8B 1_555 1_555
H4B C9B 1_555 1_555
C10B C9B 1_555 1_555
H5B C10B 1_555 1_555
C11B C6B 1_555 1_555
H6B C11B 1_555 1_555
C12B Si1B 1_555 1_555
C13B C12B 1_555 1_555
H7B C13B 1_555 1_555
C14B C13B 1_555 1_555
H8B C14B 1_555 1_555
C15B C14B 1_555 1_555
H9B C15B 1_555 1_555
C16B C15B 1_555 1_555
H10B C16B 1_555 1_555
C17B C12B 1_555 1_555
H11B C17B 1_555 1_555
H12B C5B 1_555 1_555
H13B Si1B 1_555 1_555
C10 C11 1_555 1_555
C16 C17 1_555 1_555
C4B C5B 1_555 1_555
C10B C11B 1_555 1_555
C16B C17B 1_555 1_555

#END
