
#######################################################################
#
#                 Cambridge Crystallographic Data Centre
#                                CCDC 
#
#######################################################################
#
# If this CIF has been generated from an entry in the Cambridge 
# Structural Database, then it will include bibliographic, chemical, 
# crystal, experimental, refinement or atomic coordinate data resulting 
# from the CCDC's data processing and validation procedures.
#
#######################################################################

data_JIYNOX
_chemical_formula_moiety         'C20 H7 F8 N1 O1'
_chemical_name_systematic        
(pentafluorophenyl)[3-(trifluoromethyl)-9H-carbazol-9-yl]methanone
_symmetry_cell_setting           monoclinic
_symmetry_space_group_name_H-M   'P 21/c'
_symmetry_Int_Tables_number      14
_space_group_name_Hall           '-P 2ybc'
loop_
_symmetry_equiv_pos_site_id
_symmetry_equiv_pos_as_xyz
1 x,y,z
2 -x,1/2+y,1/2-z
3 -x,-y,-z
4 x,1/2-y,1/2+z
_cell_length_a                   11.1689(17)
_cell_length_b                   11.5878(15)
_cell_length_c                   13.639(2)
_cell_angle_alpha                90
_cell_angle_beta                 112.019(5)
_cell_angle_gamma                90
_cell_volume                     1636.45
_exptl_crystal_colour            colorless
_exptl_crystal_description       parallelepiped
_cell_formula_units_Z            4
loop_
_atom_site_label
_atom_site_type_symbol
_atom_site_fract_x
_atom_site_fract_y
_atom_site_fract_z
F1 F 0.90176(14) 0.38000(13) 0.23500(12)
F2 F 0.75889(17) 0.44493(15) 0.34817(13)
F3 F 0.54504(17) 0.32591(18) 0.33114(14)
F4 F 0.46652(16) 0.14343(18) 0.19628(15)
F5 F 0.61184(17) 0.07505(15) 0.08607(14)
F6 F 1.39145(18) 0.2619(2) -0.04319(19)
F7 F 1.2827(2) 0.3819(2) -0.15857(19)
F8 F 1.2623(3) 0.2028(3) -0.1937(3)
O1 O 0.9005(2) 0.08965(16) 0.12934(16)
N1 N 0.86780(19) 0.25436(17) 0.03128(15)
C1 C 0.7948(2) 0.3206(2) 0.22427(18)
C2 C 0.7229(2) 0.3553(2) 0.28229(19)
C3 C 0.6132(2) 0.2944(3) 0.2732(2)
C4 C 0.5748(2) 0.2010(3) 0.2065(2)
C5 C 0.6494(2) 0.1661(2) 0.14994(19)
C6 C 0.7601(2) 0.2255(2) 0.15748(18)
C7 C 0.8473(2) 0.1820(2) 0.10456(19)
C8 C 0.7961(2) 0.35443(19) -0.01923(17)
C9 C 0.6770(2) 0.3954(2) -0.02354(18)
H1 H 0.6309 0.3577 0.0134
C10 C 0.6282(2) 0.4934(2) -0.08399(19)
H2 H 0.5473 0.5234 -0.0879
C11 C 0.6943(2) 0.5491(2) -0.13905(19)
H3 H 0.6597 0.6175 -0.1775
C12 C 0.8104(2) 0.5053(2) -0.13810(18)
H4 H 0.8544 0.5416 -0.1774
C13 C 0.8610(2) 0.40677(19) -0.07815(17)
C14 C 0.9742(2) 0.3380(2) -0.06510(17)
C15 C 0.9756(2) 0.2450(2) 0.00038(18)
C16 C 1.0729(2) 0.1614(2) 0.0276(2)
H5 H 1.0729 0.0978 0.0716
C17 C 1.1689(2) 0.1752(2) -0.0120(2)
H6 H 1.2366 0.1200 0.0054
C18 C 1.1690(2) 0.2688(2) -0.0774(2)
C19 C 1.0712(2) 0.3505(2) -0.10519(19)
H7 H 1.0704 0.4133 -0.1503
C20 C 1.2746(3) 0.2774(3) -0.1189(2)
loop_
_geom_bond_atom_site_label_1
_geom_bond_atom_site_label_2
_geom_bond_site_symmetry_1
_geom_bond_site_symmetry_2
F1 C1 1_555 1_555
F2 C2 1_555 1_555
F3 C3 1_555 1_555
F4 C4 1_555 1_555
F5 C5 1_555 1_555
F6 C20 1_555 1_555
F7 C20 1_555 1_555
F8 C20 1_555 1_555
O1 C7 1_555 1_555
N1 C7 1_555 1_555
C1 C2 1_555 1_555
C2 C3 1_555 1_555
C3 C4 1_555 1_555
C4 C5 1_555 1_555
C5 C6 1_555 1_555
C6 C1 1_555 1_555
C7 C6 1_555 1_555
C8 N1 1_555 1_555
C9 C8 1_555 1_555
H1 C9 1_555 1_555
C10 C9 1_555 1_555
H2 C10 1_555 1_555
C11 C10 1_555 1_555
H3 C11 1_555 1_555
C12 C11 1_555 1_555
H4 C12 1_555 1_555
C13 C8 1_555 1_555
C14 C13 1_555 1_555
C15 N1 1_555 1_555
C16 C15 1_555 1_555
H5 C16 1_555 1_555
C17 C16 1_555 1_555
H6 C17 1_555 1_555
C18 C17 1_555 1_555
C19 C14 1_555 1_555
H7 C19 1_555 1_555
C20 C18 1_555 1_555
C12 C13 1_555 1_555
C14 C15 1_555 1_555
C18 C19 1_555 1_555

#END
