
#######################################################################
#
#                 Cambridge Crystallographic Data Centre
#                                CCDC 
#
#######################################################################
#
# If this CIF has been generated from an entry in the Cambridge 
# Structural Database, then it will include bibliographic, chemical, 
# crystal, experimental, refinement or atomic coordinate data resulting 
# from the CCDC's data processing and validation procedures.
#
#######################################################################

data_JIYNAJ
_chemical_formula_moiety         'C33 H20 F8 N1 O3 P1'
_chemical_name_systematic        
N-[2'-(diphenylphosphoryl)-4'-methoxy-5-(trifluoromethyl)[1,1'-biphenyl]-2-yl]-2,3,4,5,6-pentafluorobenzamide
_symmetry_cell_setting           triclinic
_symmetry_space_group_name_H-M   'P -1'
_symmetry_Int_Tables_number      2
_space_group_name_Hall           '-P 1'
loop_
_symmetry_equiv_pos_site_id
_symmetry_equiv_pos_as_xyz
1 x,y,z
2 -x,-y,-z
_cell_length_a                   9.8389(7)
_cell_length_b                   11.2800(7)
_cell_length_c                   14.2157(10)
_cell_angle_alpha                95.115(2)
_cell_angle_beta                 93.500(2)
_cell_angle_gamma                105.084(2)
_cell_volume                     1511.44
_exptl_crystal_colour            colorless
_exptl_crystal_description       parallelepiped
_cell_formula_units_Z            2
loop_
_atom_site_label
_atom_site_type_symbol
_atom_site_fract_x
_atom_site_fract_y
_atom_site_fract_z
P1 P 0.27964(7) 0.82552(6) 0.21004(5)
F1 F 0.3308(5) 0.7596(4) -0.2219(2)
F2 F 0.1660(4) 0.6065(4) -0.2716(2)
F3 F 0.3707(5) 0.5943(5) -0.2621(2)
F4 F 0.0513(3) 0.2143(2) 0.25604(19)
F5 F 0.0060(5) 0.2009(3) 0.4390(3)
F6 F 0.1670(7) 0.3734(4) 0.5727(2)
F7 F 0.3709(6) 0.5625(3) 0.5213(2)
F8 F 0.4139(4) 0.5784(2) 0.33974(19)
O1 O 0.1693(2) 0.71382(17) 0.22947(14)
O2 O 0.7990(2) 0.9061(3) 0.32055(17)
O3 O 0.2828(4) 0.3213(2) 0.1389(2)
N1 N 0.2365(3) 0.5085(2) 0.15739(18)
H1 H 0.212(4) 0.563(4) 0.198(3)
C1 C 0.0955(3) 0.8328(3) 0.0600(2)
H2 H 0.0306 0.7769 0.0904
C2 C 0.0550(4) 0.8660(3) -0.0269(3)
H3 H -0.0368 0.8327 -0.0545
C3 C 0.1512(4) 0.9484(3) -0.0722(3)
H4 H 0.1251 0.9694 -0.1311
C4 C 0.2861(4) 0.9998(3) -0.0299(3)
H5 H 0.3498 1.0575 -0.0596
C5 C 0.3274(3) 0.9664(3) 0.0558(2)
H6 H 0.4193 1.0000 0.0832
C6 C 0.2313(3) 0.8820(2) 0.10161(18)
C7 C 0.3077(3) 0.9450(3) 0.3074(2)
C8 C 0.3602(4) 1.0703(3) 0.2985(2)
H7 H 0.3773 1.0968 0.2392
C9 C 0.3868(5) 1.1555(3) 0.3787(3)
H8 H 0.4234 1.2391 0.3730
C10 C 0.3596(5) 1.1172(4) 0.4665(3)
H9 H 0.3786 1.1747 0.5200
C11 C 0.3047(4) 0.9947(4) 0.4753(2)
H10 H 0.2836 0.9692 0.5344
C12 C 0.2803(3) 0.9084(3) 0.3963(2)
H11 H 0.2452 0.8249 0.4030
C13 C 0.4513(3) 0.7965(2) 0.19528(17)
C14 C 0.5644(3) 0.8584(3) 0.25981(19)
H12 H 0.5511 0.9146 0.3080
C15 C 0.6983(3) 0.8381(3) 0.2539(2)
C16 C 0.7173(3) 0.7542(3) 0.1827(2)
H13 H 0.8053 0.7389 0.1782
C17 C 0.6042(3) 0.6925(3) 0.1175(2)
H14 H 0.6186 0.6368 0.0693
C18 C 0.4706(3) 0.7111(2) 0.12191(18)
C19 C 0.3588(3) 0.6416(2) 0.04622(19)
C20 C 0.3676(3) 0.6721(3) -0.0463(2)
H15 H 0.4406 0.7378 -0.0596
C21 C 0.2691(3) 0.6059(3) -0.1194(2)
C22 C 0.1622(3) 0.5066(3) -0.1009(2)
H16 H 0.0960 0.4625 -0.1495
C23 C 0.1541(3) 0.4728(3) -0.0096(2)
H17 H 0.0831 0.4050 0.0028
C24 C 0.2514(3) 0.5396(2) 0.06311(19)
C25 C 0.2546(3) 0.4043(3) 0.1874(2)
C26 C 0.2326(4) 0.3977(3) 0.2916(2)
C27 C 0.1298(5) 0.3021(3) 0.3199(3)
C28 C 0.1054(7) 0.2948(5) 0.4138(4)
C29 C 0.1881(9) 0.3816(5) 0.4810(3)
C30 C 0.2910(8) 0.4764(4) 0.4555(3)
C31 C 0.3118(5) 0.4838(3) 0.3613(3)
C32 C 0.9390(3) 0.8920(4) 0.3185(3)
H18 H 0.9990 0.9453 0.3695
H19 H 0.9374 0.8078 0.3256
H20 H 0.9746 0.9133 0.2592
C33 C 0.2824(5) 0.6408(4) -0.2176(3)
loop_
_geom_bond_atom_site_label_1
_geom_bond_atom_site_label_2
_geom_bond_site_symmetry_1
_geom_bond_site_symmetry_2
P1 O1 1_555 1_555
F1 C33 1_555 1_555
F2 C33 1_555 1_555
F3 C33 1_555 1_555
F4 C27 1_555 1_555
F5 C28 1_555 1_555
F6 C29 1_555 1_555
F7 C30 1_555 1_555
F8 C31 1_555 1_555
O2 C15 1_555 1_555
O3 C25 1_555 1_555
N1 H1 1_555 1_555
C1 H2 1_555 1_555
C2 C1 1_555 1_555
H3 C2 1_555 1_555
C3 C2 1_555 1_555
H4 C3 1_555 1_555
C4 C3 1_555 1_555
H5 C4 1_555 1_555
C5 C4 1_555 1_555
H6 C5 1_555 1_555
C6 P1 1_555 1_555
C7 P1 1_555 1_555
C8 C7 1_555 1_555
H7 C8 1_555 1_555
C9 C8 1_555 1_555
H8 C9 1_555 1_555
C10 C9 1_555 1_555
H9 C10 1_555 1_555
C11 C10 1_555 1_555
H10 C11 1_555 1_555
C12 C7 1_555 1_555
H11 C12 1_555 1_555
C13 P1 1_555 1_555
C14 C13 1_555 1_555
H12 C14 1_555 1_555
C15 C14 1_555 1_555
C16 C15 1_555 1_555
H13 C16 1_555 1_555
C17 C16 1_555 1_555
H14 C17 1_555 1_555
C18 C13 1_555 1_555
C19 C18 1_555 1_555
C20 C19 1_555 1_555
H15 C20 1_555 1_555
C21 C20 1_555 1_555
C22 C21 1_555 1_555
H16 C22 1_555 1_555
C23 C22 1_555 1_555
H17 C23 1_555 1_555
C24 N1 1_555 1_555
C25 N1 1_555 1_555
C26 C25 1_555 1_555
C27 C26 1_555 1_555
C28 C27 1_555 1_555
C29 C28 1_555 1_555
C30 C29 1_555 1_555
C31 C26 1_555 1_555
C32 O2 1_555 1_555
H18 C32 1_555 1_555
H19 C32 1_555 1_555
H20 C32 1_555 1_555
C33 C21 1_555 1_555
C1 C6 1_555 1_555
C5 C6 1_555 1_555
C11 C12 1_555 1_555
C17 C18 1_555 1_555
C19 C24 1_555 1_555
C23 C24 1_555 1_555
C30 C31 1_555 1_555

#END
