
#######################################################################
#
#                 Cambridge Crystallographic Data Centre
#                                CCDC 
#
#######################################################################
#
# If this CIF has been generated from an entry in the Cambridge 
# Structural Database, then it will include bibliographic, chemical, 
# crystal, experimental, refinement or atomic coordinate data resulting 
# from the CCDC's data processing and validation procedures.
#
#######################################################################

data_JOBNIX
_chemical_formula_moiety         'C18 H14 S4 1+,C18 H14 S4,C14 H8 N4 1-'
_chemical_name_systematic        
"bis(3,4,8,9-Tetramethylanthra(1,9-c,d:4,10-c',d')dithiole) 2,5-dimethyltetracyanoquinodimethane"
_symmetry_cell_setting           monoclinic
_symmetry_space_group_name_H-M   'P 21/n'
_symmetry_Int_Tables_number      14
_space_group_name_Hall           '-P 2yn'
loop_
_symmetry_equiv_pos_site_id
_symmetry_equiv_pos_as_xyz
1 x,y,z
2 1/2-x,1/2+y,1/2-z
3 -x,-y,-z
4 1/2+x,1/2-y,1/2+z
_cell_length_a                   9.942(1)
_cell_length_b                   20.542(2)
_cell_length_c                   10.500(1)
_cell_angle_alpha                90
_cell_angle_beta                 98.65(1)
_cell_angle_gamma                90
_cell_volume                     2120.01
_exptl_crystal_colour            black
_chemical_melting_point          241deg.C
_cell_formula_units_Z            2
loop_
_atom_site_label
_atom_site_type_symbol
_atom_site_fract_x
_atom_site_fract_y
_atom_site_fract_z
S1 S 0.2349(2) 0.06144(8) 0.2784(2)
S2 S 0.1042(2) -0.01635(8) 0.2204(2)
C8 C 0.2300(8) -0.07729(28) 0.2472(5)
C9 C 0.2056(6) -0.14288(30) 0.2285(5)
C10 C 0.3193(7) -0.18705(28) 0.2525(5)
C11 C 0.4472(6) -0.16333(26) 0.2949(5)
S3 S 0.5947(2) -0.21114(7) 0.3342(2)
S4 S 0.7278(2) -0.13305(8) 0.3810(2)
C12 C 0.6030(6) -0.07188(26) 0.3522(5)
C13 C 0.6295(5) -0.00503(26) 0.3675(5)
C14 C 0.7614(5) 0.02059(28) 0.4020(5)
C15 C 0.7859(5) 0.08633(28) 0.4161(5)
C16 C 0.6724(6) 0.13131(26) 0.3976(5)
C17 C 0.5434(6) 0.10761(26) 0.3640(5)
C18 C 0.5150(5) 0.03981(24) 0.3460(5)
C19 C 0.3832(5) 0.01478(25) 0.3075(5)
C20 C 0.3624(5) -0.05180(26) 0.2899(5)
C21 C 0.4729(5) -0.09556(25) 0.3128(5)
C22 C 0.0627(7) -0.16718(35) 0.1841(7)
C23 C 0.2971(8) -0.26030(31) 0.2352(7)
C24 C 0.9294(6) 0.11053(33) 0.4515(7)
C25 C 0.6979(7) 0.20323(28) 0.4132(6)
C1 C 1.0753(6) 0.44188(28) 0.5288(5)
C2 C 0.9291(7) 0.43978(27) 0.4926(5)
C3 C 1.1396(6) 0.50458(30) 0.5344(5)
C4 C 1.1534(7) 0.38672(29) 0.5591(6)
C5 C 1.1057(7) 0.32125(34) 0.5613(6)
N1 N 1.0775(7) 0.26810(32) 0.5677(7)
C6 C 1.3006(9) 0.38985(32) 0.5927(6)
N2 N 1.4174(7) 0.38914(32) 0.6215(6)
C7 C 0.8397(9) 0.37937(35) 0.4833(8)
C3B C 0.8604(6) 0.49542(30) 0.4656(5)
C2B C 1.0709(7) 0.56022(27) 0.5074(5)
C1B C 0.9247(6) 0.55812(28) 0.4712(5)
C7B C 1.1603(9) 0.62063(35) 0.5167(8)
C4B C 0.8466(7) 0.61328(29) 0.4409(6)
C5B C 0.8943(7) 0.67875(34) 0.4387(6)
C6B C 0.6994(9) 0.61015(32) 0.4073(6)
N1B N 0.9225(7) 0.73190(32) 0.4323(7)
N2B N 0.5826(7) 0.61086(32) 0.3785(6)
loop_
_geom_bond_atom_site_label_1
_geom_bond_atom_site_label_2
_geom_bond_site_symmetry_1
_geom_bond_site_symmetry_2
C1 C2 1_555 1_555
C2 C7 1_555 1_555
C3 C1 1_555 1_555
C4 C1 1_555 1_555
C5 C4 1_555 1_555
N1 C5 1_555 1_555
C6 C4 1_555 1_555
N2 C6 1_555 1_555
S1 S2 1_555 1_555
S2 C8 1_555 1_555
C8 C9 1_555 1_555
C9 C10 1_555 1_555
C10 C11 1_555 1_555
C11 S3 1_555 1_555
S3 S4 1_555 1_555
S4 C12 1_555 1_555
C12 C13 1_555 1_555
C13 C14 1_555 1_555
C14 C15 1_555 1_555
C15 C16 1_555 1_555
C16 C17 1_555 1_555
C17 C18 1_555 1_555
C18 C13 1_555 1_555
C19 S1 1_555 1_555
C20 C8 1_555 1_555
C21 C11 1_555 1_555
C22 C9 1_555 1_555
C23 C10 1_555 1_555
C24 C15 1_555 1_555
C25 C16 1_555 1_555
C3B C2 1_555 1_555
C2B C3 1_555 1_555
C1B C3B 1_555 1_555
C7B C2B 1_555 1_555
C4B C1B 1_555 1_555
C5B C4B 1_555 1_555
C6B C4B 1_555 1_555
N1B C5B 1_555 1_555
N2B C6B 1_555 1_555
C12 C21 1_555 1_555
C18 C19 1_555 1_555
C19 C20 1_555 1_555
C20 C21 1_555 1_555
C2B C1B 1_555 1_555

#END
