
#######################################################################
#
#                 Cambridge Crystallographic Data Centre
#                                CCDC 
#
#######################################################################
#
# If this CIF has been generated from an entry in the Cambridge 
# Structural Database, then it will include bibliographic, chemical, 
# crystal, experimental, refinement or atomic coordinate data resulting 
# from the CCDC's data processing and validation procedures.
#
#######################################################################

data_JOCBUA
_chemical_formula_moiety         'C18 H30 N2 O5 S1'
_chemical_name_systematic        
't-butyl (2-(isobutyl((4-methoxyphenyl)sulfonyl)amino)ethyl)carbamate'
_symmetry_cell_setting           monoclinic
_symmetry_space_group_name_H-M   'P 21/c'
_symmetry_Int_Tables_number      14
_space_group_name_Hall           '-P 2ybc'
loop_
_symmetry_equiv_pos_site_id
_symmetry_equiv_pos_as_xyz
1 x,y,z
2 -x,1/2+y,1/2-z
3 -x,-y,-z
4 x,1/2-y,1/2+z
_cell_length_a                   19.2484(5)
_cell_length_b                   5.29088(12)
_cell_length_c                   20.1825(6)
_cell_angle_alpha                90
_cell_angle_beta                 92.497(3)
_cell_angle_gamma                90
_cell_volume                     2053.45
_exptl_crystal_colour            colorless
_exptl_crystal_description       block
_cell_formula_units_Z            4
loop_
_atom_site_label
_atom_site_type_symbol
_atom_site_fract_x
_atom_site_fract_y
_atom_site_fract_z
C1 C 0.85965(7) 0.6201(3) 0.54057(7)
C2 C 0.82937(9) 0.6078(3) 0.60169(8)
H1 H 0.7921 0.7121 0.6107
C3 C 0.85494(9) 0.4403(4) 0.64878(8)
H2 H 0.8347 0.4314 0.6897
C4 C 0.91066(8) 0.2845(3) 0.63579(8)
C5 C 0.94134(8) 0.2961(3) 0.57509(8)
H3 H 0.9788 0.1921 0.5662
C6 C 0.91528(8) 0.4657(3) 0.52769(7)
H4 H 0.9356 0.4754 0.4868
C7 C 0.98789(12) -0.0418(4) 0.67445(11)
H5 H 0.9749 -0.1530 0.6384
H6 H 0.9983 -0.1396 0.7137
H7 H 1.0282 0.0537 0.6634
C8 C 0.70575(8) 0.5843(3) 0.45894(8)
H8 H 0.6984 0.6863 0.4980
H9 H 0.7095 0.4093 0.4730
C9 C 0.64333(8) 0.6121(3) 0.41093(8)
H10 H 0.6499 0.5001 0.3730
C10 C 0.57790(9) 0.5294(4) 0.44490(10)
H11 H 0.5853 0.3658 0.4645
H12 H 0.5397 0.5213 0.4128
H13 H 0.5675 0.6491 0.4788
C11 C 0.63562(11) 0.8797(4) 0.38541(12)
H14 H 0.6288 0.9921 0.4219
H15 H 0.5963 0.8894 0.3546
H16 H 0.6769 0.9276 0.3635
C12 C 0.80312(8) 0.4772(3) 0.38535(8)
H17 H 0.7712 0.3368 0.3783
H18 H 0.8454 0.4114 0.4069
C13 C 0.82046(9) 0.5869(4) 0.31821(8)
H19 H 0.8475 0.7399 0.3254
H20 H 0.8493 0.4669 0.2956
C14 C 0.72163(8) 0.4609(3) 0.24696(7)
C15 C 0.62067(9) 0.3966(3) 0.17124(8)
C16 C 0.57907(11) 0.2465(4) 0.21953(10)
H21 H 0.6083 0.1208 0.2407
H22 H 0.5408 0.1655 0.1961
H23 H 0.5617 0.3581 0.2525
C17 C 0.65827(11) 0.2296(4) 0.12362(9)
H24 H 0.6895 0.3305 0.0989
H25 H 0.6250 0.1496 0.0936
H26 H 0.6842 0.1028 0.1481
C18 C 0.57448(13) 0.5846(4) 0.13381(13)
H27 H 0.5534 0.6958 0.1647
H28 H 0.5388 0.4956 0.1086
H29 H 0.6019 0.6816 0.1044
N1 N 0.77172(6) 0.6617(2) 0.42986(6)
N2 N 0.76011(8) 0.6456(3) 0.27567(7)
O1 O 0.93204(7) 0.1260(3) 0.68599(6)
O2 O 0.78598(6) 1.0150(2) 0.50924(6)
O3 O 0.88216(6) 0.8952(2) 0.43790(5)
O4 O 0.73211(6) 0.2357(2) 0.25588(6)
O5 O 0.67038(6) 0.5608(2) 0.20784(6)
S1 S 0.825787(18) 0.82405(6) 0.478139(18)
H30 H 0.7503(11) 0.793(4) 0.2665(10)
loop_
_geom_bond_atom_site_label_1
_geom_bond_atom_site_label_2
_geom_bond_site_symmetry_1
_geom_bond_site_symmetry_2
C1 C2 1_555 1_555
C2 H1 1_555 1_555
C3 C2 1_555 1_555
H2 C3 1_555 1_555
C4 C3 1_555 1_555
C5 C4 1_555 1_555
H3 C5 1_555 1_555
C6 C1 1_555 1_555
H4 C6 1_555 1_555
C7 H5 1_555 1_555
H6 C7 1_555 1_555
H7 C7 1_555 1_555
C8 H8 1_555 1_555
H9 C8 1_555 1_555
C9 C8 1_555 1_555
H10 C9 1_555 1_555
C10 C9 1_555 1_555
H11 C10 1_555 1_555
H12 C10 1_555 1_555
H13 C10 1_555 1_555
C11 C9 1_555 1_555
H14 C11 1_555 1_555
H15 C11 1_555 1_555
H16 C11 1_555 1_555
C12 H17 1_555 1_555
H18 C12 1_555 1_555
C13 C12 1_555 1_555
H19 C13 1_555 1_555
H20 C13 1_555 1_555
C14 N2 1_555 1_555
C15 C16 1_555 1_555
C16 H21 1_555 1_555
H22 C16 1_555 1_555
H23 C16 1_555 1_555
C17 C15 1_555 1_555
H24 C17 1_555 1_555
H25 C17 1_555 1_555
H26 C17 1_555 1_555
C18 C15 1_555 1_555
H27 C18 1_555 1_555
H28 C18 1_555 1_555
H29 C18 1_555 1_555
N1 C8 1_555 1_555
N2 C13 1_555 1_555
O1 C4 1_555 1_555
O2 S1 1_555 1_555
O3 S1 1_555 1_555
O4 C14 1_555 1_555
O5 C14 1_555 1_555
S1 C1 1_555 1_555
H30 N2 1_555 1_555
C5 C6 1_555 1_555
C7 O1 1_555 1_555
C12 N1 1_555 1_555
C15 O5 1_555 1_555
N1 S1 1_555 1_555

#END
