
#######################################################################
#
#                 Cambridge Crystallographic Data Centre
#                                CCDC 
#
#######################################################################
#
# If this CIF has been generated from an entry in the Cambridge 
# Structural Database, then it will include bibliographic, chemical, 
# crystal, experimental, refinement or atomic coordinate data resulting 
# from the CCDC's data processing and validation procedures.
#
#######################################################################

data_JOCLEU
_chemical_compound_source        'Capparis spinosa'
_chemical_name_common            'capparisine A'
_chemical_formula_moiety         'C12 H15 N1 O5'
_chemical_name_systematic        
4-hydroxy-5-(hydroxymethyl)-4,5-dihydro-1'H,3H-spiro[furan-2,3'-pyrrolo[2,1-c][1,4]oxazine]-6'-carbaldehyde
_symmetry_cell_setting           monoclinic
_symmetry_space_group_name_H-M   'P 21'
_symmetry_Int_Tables_number      4
_space_group_name_Hall           'P 2yb'
loop_
_symmetry_equiv_pos_site_id
_symmetry_equiv_pos_as_xyz
1 x,y,z
2 -x,1/2+y,-z
_cell_length_a                   7.2654(18)
_cell_length_b                   7.1007(18)
_cell_length_c                   11.634(3)
_cell_angle_alpha                90
_cell_angle_beta                 97.892(5)
_cell_angle_gamma                90
_cell_volume                     594.507
_exptl_crystal_colour            colorless
_exptl_crystal_description       prismatic
_chemical_melting_point          '434.95-438.25 K'
_cell_formula_units_Z            2
_chemical_properties_physical    unkown
_exptl_crystal_recrystallization_method methanol
_exptl_crystal_preparation       unkown
loop_
_atom_site_label
_atom_site_type_symbol
_atom_site_fract_x
_atom_site_fract_y
_atom_site_fract_z
O1 O 0.5708(3) 0.7131(4) 0.8390(2)
O2 O 0.9269(3) 0.1117(3) 0.82129(17)
O3 O 0.8240(3) 0.4205(3) 0.78346(16)
O4 O 0.7457(4) 0.2556(5) 1.0506(2)
O5 O 0.5778(4) 0.1583(6) 0.39091(18)
N1 N 0.8898(3) 0.1646(4) 0.58654(19)
C1 C 0.8979(5) 0.1610(6) 0.4682(2)
C2 C 1.0856(5) 0.1500(6) 0.4547(3)
H1 H 1.1330 0.1469 0.3844
C3 C 1.1893(5) 0.1446(6) 0.5639(3)
H2 H 1.3180 0.1362 0.5799
C4 C 1.0667(4) 0.1539(5) 0.6447(2)
C5 C 0.7232(4) 0.1795(6) 0.6439(2)
H3 H 0.6561 0.0610 0.6366
H4 H 0.6422 0.2765 0.6063
C6 C 0.7752(4) 0.2278(5) 0.7723(2)
C7 C 0.6178(5) 0.2041(6) 0.8444(3)
H5 H 0.6127 0.0758 0.8725
H6 H 0.4992 0.2352 0.7993
C8 C 0.6649(5) 0.3420(5) 0.9452(2)
H7 H 0.5534 0.4123 0.9580
C9 C 0.8080(4) 0.4769(5) 0.9023(2)
H8 H 0.9286 0.4617 0.9507
C10 C 0.7548(5) 0.6825(6) 0.8972(3)
H9 H 0.7636 0.7316 0.9756
H10 H 0.8422 0.7516 0.8572
C11 C 0.7427(6) 0.1593(7) 0.3796(3)
H11 H 0.7697 0.1589 0.3037
C12 C 1.0956(4) 0.1528(6) 0.7746(2)
H12 H 1.1887 0.0591 0.8019
H13 H 1.1421 0.2748 0.8027
H14 H 0.564(6) 0.684(7) 0.7710(18)
H15 H 0.661(4) 0.222(6) 1.088(3)
loop_
_geom_bond_atom_site_label_1
_geom_bond_atom_site_label_2
_geom_bond_site_symmetry_1
_geom_bond_site_symmetry_2
O1 C10 1_555 1_555
O2 C6 1_555 1_555
O3 C6 1_555 1_555
O4 C8 1_555 1_555
O5 C11 1_555 1_555
N1 C1 1_555 1_555
C1 C2 1_555 1_555
C2 H1 1_555 1_555
C3 C2 1_555 1_555
H2 C3 1_555 1_555
C4 N1 1_555 1_555
C5 N1 1_555 1_555
H3 C5 1_555 1_555
H4 C5 1_555 1_555
C6 C5 1_555 1_555
C7 C6 1_555 1_555
H5 C7 1_555 1_555
H6 C7 1_555 1_555
C8 C7 1_555 1_555
H7 C8 1_555 1_555
C9 O3 1_555 1_555
H8 C9 1_555 1_555
C10 C9 1_555 1_555
H9 C10 1_555 1_555
H10 C10 1_555 1_555
C11 C1 1_555 1_555
H11 C11 1_555 1_555
C12 O2 1_555 1_555
H12 C12 1_555 1_555
H13 C12 1_555 1_555
H14 O1 1_555 1_555
H15 O4 1_555 1_555
C3 C4 1_555 1_555
C4 C12 1_555 1_555
C8 C9 1_555 1_555

#END
