
#######################################################################
#
#                 Cambridge Crystallographic Data Centre
#                                CCDC 
#
#######################################################################
#
# If this CIF has been generated from an entry in the Cambridge 
# Structural Database, then it will include bibliographic, chemical, 
# crystal, experimental, refinement or atomic coordinate data resulting 
# from the CCDC's data processing and validation procedures.
#
#######################################################################

data_JOCNEW
_chemical_formula_moiety         'C23 H19 N3 O2 S1'
_chemical_name_systematic        
2-(3-(4-methoxyphenyl)-5-(2-naphthyl)-4,5-dihydro-1H-pyrazol-1-yl)-1,3-thiazol-4(5H)-one
_symmetry_cell_setting           monoclinic
_symmetry_space_group_name_H-M   'P 21/c'
_symmetry_Int_Tables_number      14
_space_group_name_Hall           '-P 2ybc'
loop_
_symmetry_equiv_pos_site_id
_symmetry_equiv_pos_as_xyz
1 x,y,z
2 -x,1/2+y,1/2-z
3 -x,-y,-z
4 x,1/2-y,1/2+z
_cell_length_a                   11.7565(6)
_cell_length_b                   9.0469(5)
_cell_length_c                   19.2557(10)
_cell_angle_alpha                90
_cell_angle_beta                 104.632(2)
_cell_angle_gamma                90
_cell_volume                     1981.61
_cell_formula_units_Z            4
loop_
_atom_site_label
_atom_site_type_symbol
_atom_site_fract_x
_atom_site_fract_y
_atom_site_fract_z
S1 S 0.23158(8) -0.14461(11) 0.16224(5)
N1 N 0.0180(3) -0.0337(3) 0.15048(15)
N2 N 0.1541(2) 0.0149(3) 0.25726(15)
N3 N 0.2715(2) 0.0147(3) 0.29657(15)
C1 C 0.3938(3) 0.1402(4) 0.39794(17)
C2 C -0.1281(3) 0.0201(4) 0.27402(17)
C3 C -0.1803(4) -0.1609(4) 0.3543(2)
C4 C -0.0144(3) 0.0191(4) 0.31221(17)
C5 C 0.2812(3) 0.1091(4) 0.34783(17)
C6 C 0.0763(3) 0.1111(4) 0.28810(17)
C7 C 0.1250(3) -0.0460(4) 0.19200(17)
C8 C -0.0613(4) -0.1586(5) 0.3945(2)
C9 C 0.6098(3) 0.2037(4) 0.49237(18)
C10 C 0.0106(3) -0.1049(4) 0.08611(18)
C11 C 0.4953(3) 0.0696(4) 0.3921(2)
C12 C 0.4017(3) 0.2439(4) 0.45253(19)
C13 C -0.2147(3) -0.0694(4) 0.29304(18)
C14 C 0.0192(3) -0.0723(4) 0.37404(19)
C15 C 0.1688(3) 0.1885(4) 0.34865(19)
C16 C 0.6024(3) 0.0999(5) 0.4386(2)
C17 C -0.2649(4) -0.2565(5) 0.3724(3)
C18 C 0.5096(4) 0.2764(4) 0.4996(2)
C19 C 0.7341(5) 0.3300(6) 0.5928(3)
C20 C -0.3323(3) -0.0753(6) 0.2519(2)
C21 C 0.1218(4) -0.1826(5) 0.0805(2)
C22 C -0.4113(4) -0.1683(6) 0.2692(3)
C23 C -0.3774(5) -0.2607(6) 0.3302(3)
O1 O -0.0784(3) -0.1088(4) 0.03747(14)
O2 O 0.7201(2) 0.2265(4) 0.53520(15)
loop_
_geom_bond_atom_site_label_1
_geom_bond_atom_site_label_2
_geom_bond_site_symmetry_1
_geom_bond_site_symmetry_2
S1 C7 1_555 1_555
N1 C7 1_555 1_555
N2 N3 1_555 1_555
N3 C5 1_555 1_555
C1 C5 1_555 1_555
C2 C4 1_555 1_555
C3 C8 1_555 1_555
C4 C6 1_555 1_555
C5 C15 1_555 1_555
C6 N2 1_555 1_555
C7 N2 1_555 1_555
C8 C14 1_555 1_555
C9 C16 1_555 1_555
C10 N1 1_555 1_555
C11 C1 1_555 1_555
C12 C1 1_555 1_555
C13 C2 1_555 1_555
C14 C4 1_555 1_555
C15 C6 1_555 1_555
C16 C11 1_555 1_555
C17 C3 1_555 1_555
C18 C9 1_555 1_555
C19 O2 1_555 1_555
C20 C13 1_555 1_555
C21 S1 1_555 1_555
C22 C20 1_555 1_555
C23 C17 1_555 1_555
O1 C10 1_555 1_555
O2 C9 1_555 1_555
C3 C13 1_555 1_555
C10 C21 1_555 1_555
C12 C18 1_555 1_555
C22 C23 1_555 1_555

#END
