
#######################################################################
#
#                 Cambridge Crystallographic Data Centre
#                                CCDC 
#
#######################################################################
#
# If this CIF has been generated from an entry in the Cambridge 
# Structural Database, then it will include bibliographic, chemical, 
# crystal, experimental, refinement or atomic coordinate data resulting 
# from the CCDC's data processing and validation procedures.
#
#######################################################################

data_JODTOL02
_chemical_formula_moiety         'C9 H12 N2 O1'
_chemical_name_systematic        1,1-dimethyl-3-phenylurea
_symmetry_cell_setting           orthorhombic
_symmetry_space_group_name_H-M   'P b c a'
_symmetry_Int_Tables_number      61
_space_group_name_Hall           '-P 2ac 2ab'
loop_
_symmetry_equiv_pos_site_id
_symmetry_equiv_pos_as_xyz
1 x,y,z
2 1/2-x,-y,1/2+z
3 1/2+x,1/2-y,-z
4 -x,1/2+y,1/2-z
5 -x,-y,-z
6 1/2+x,y,1/2-z
7 1/2-x,1/2+y,z
8 x,1/2-y,1/2+z
_cell_length_a                   10.4264(4)
_cell_length_b                   10.5761(4)
_cell_length_c                   15.2672(6)
_cell_angle_alpha                90
_cell_angle_beta                 90
_cell_angle_gamma                90
_cell_volume                     1683.52
_exptl_crystal_colour            colorless
_exptl_crystal_description       block
_cell_formula_units_Z            8
loop_
_atom_site_label
_atom_site_type_symbol
_atom_site_fract_x
_atom_site_fract_y
_atom_site_fract_z
N1 N 0.22819(18) 0.1003(2) 0.29497(13)
H1 H 0.1547 0.0694 0.2811
C1 C 0.2307(2) 0.1930(2) 0.36158(14)
N2 N 0.30759(19) -0.0360(2) 0.19031(13)
C2 C 0.3291(2) 0.3047(3) 0.48085(16)
H2 H 0.3995 0.3179 0.5171
C3 C 0.1855(2) -0.1023(3) 0.18730(17)
H3 H 0.1679 -0.1389 0.2436
H4 H 0.1894 -0.1680 0.1440
H5 H 0.1186 -0.0438 0.1723
C4 C 0.1213(2) 0.2656(3) 0.37258(16)
H6 H 0.0507 0.2524 0.3365
C5 C 0.3352(2) 0.2117(2) 0.41695(15)
H7 H 0.4084 0.1623 0.4111
C6 C 0.1164(2) 0.3581(3) 0.43733(17)
H8 H 0.0428 0.4068 0.4441
C7 C 0.4130(2) -0.0920(3) 0.14106(17)
H9 H 0.4813 -0.0316 0.1357
H10 H 0.3834 -0.1156 0.0838
H11 H 0.4437 -0.1656 0.1713
C8 C 0.2209(2) 0.3779(3) 0.49181(17)
H12 H 0.2181 0.4397 0.5351
O1 O 0.44331(15) 0.09547(17) 0.26279(11)
C9 C 0.3339(2) 0.0552(2) 0.25034(15)
loop_
_geom_bond_atom_site_label_1
_geom_bond_atom_site_label_2
_geom_bond_site_symmetry_1
_geom_bond_site_symmetry_2
N1 H1 1_555 1_555
C1 N1 1_555 1_555
N2 C3 1_555 1_555
C2 H2 1_555 1_555
C3 H3 1_555 1_555
H4 C3 1_555 1_555
H5 C3 1_555 1_555
C4 C1 1_555 1_555
H6 C4 1_555 1_555
C5 C1 1_555 1_555
H7 C5 1_555 1_555
C6 C4 1_555 1_555
H8 C6 1_555 1_555
C7 N2 1_555 1_555
H9 C7 1_555 1_555
H10 C7 1_555 1_555
H11 C7 1_555 1_555
C8 C2 1_555 1_555
H12 C8 1_555 1_555
O1 C9 1_555 1_555
C9 N1 1_555 1_555
N2 C9 1_555 1_555
C2 C5 1_555 1_555
C6 C8 1_555 1_555

#END
