
#######################################################################
#
#                 Cambridge Crystallographic Data Centre
#                                CCDC 
#
#######################################################################
#
# If this CIF has been generated from an entry in the Cambridge 
# Structural Database, then it will include bibliographic, chemical, 
# crystal, experimental, refinement or atomic coordinate data resulting 
# from the CCDC's data processing and validation procedures.
#
#######################################################################

data_JODTAZ
_chemical_formula_moiety         'C20 H24 O2'
_chemical_name_systematic        
2,5-dimethyl-10-methylene-7-(prop-1-en-2-yl)-2,3,6a,7,8,9,10,10a-octahydrobenzo[e]azulene-1,4-dione
_symmetry_cell_setting           orthorhombic
_symmetry_space_group_name_H-M   'P 21 21 21'
_symmetry_Int_Tables_number      19
_space_group_name_Hall           'P 2ac 2ab'
loop_
_symmetry_equiv_pos_site_id
_symmetry_equiv_pos_as_xyz
1 x,y,z
2 1/2+x,1/2-y,-z
3 -x,1/2+y,1/2-z
4 1/2-x,-y,1/2+z
_cell_length_a                   10.1035(4)
_cell_length_b                   10.4542(5)
_cell_length_c                   15.8794(7)
_cell_angle_alpha                90
_cell_angle_beta                 90
_cell_angle_gamma                90
_cell_volume                     1677.25
_exptl_crystal_colour            yellow
_exptl_crystal_description       prism
_cell_formula_units_Z            4
loop_
_atom_site_label
_atom_site_type_symbol
_atom_site_fract_x
_atom_site_fract_y
_atom_site_fract_z
O1 O 0.12747(13) 0.36871(13) 0.11176(7)
O2 O 0.46105(12) 0.04296(13) 0.31177(9)
C1 C -0.08974(19) 0.10192(18) 0.53923(12)
H1 H -0.0860 0.0584 0.5917
H2 H -0.1597 0.0845 0.5009
C2 C 0.00289(17) 0.18723(17) 0.51944(10)
C3 C -0.00207(15) 0.25811(16) 0.43622(10)
H3 H -0.0837 0.2290 0.4061
C4 C 0.11761(15) 0.22550(14) 0.37885(9)
H4 H 0.1999 0.2550 0.4079
C5 C 0.10762(15) 0.29679(14) 0.29356(9)
H5 H 0.0238 0.2688 0.2655
C6 C 0.21986(15) 0.26850(14) 0.23448(9)
C7 C 0.22272(17) 0.32384(16) 0.14786(10)
C8 C 0.35881(17) 0.30221(16) 0.11088(10)
H6 H 0.4104 0.3835 0.1156
C9 C 0.3538(2) 0.2633(2) 0.01840(11)
H7 H 0.3110 0.1795 0.0133
H8 H 0.4440 0.2584 -0.0040
H9 H 0.3032 0.3269 -0.0135
C10 C 0.11510(18) 0.2171(2) 0.57866(11)
H10 H 0.1074 0.1638 0.6292
H11 H 0.1114 0.3076 0.5947
H12 H 0.1996 0.1994 0.5507
C11 C -0.01470(17) 0.40312(17) 0.44903(10)
H13 H 0.0628 0.4347 0.4810
H14 H -0.0951 0.4216 0.4825
C12 C -0.02295(19) 0.47350(16) 0.36426(10)
H15 H -0.1049 0.4482 0.3343
H16 H -0.0259 0.5670 0.3740
C13 C 0.09603(16) 0.44033(15) 0.31138(10)
C14 C 0.32565(15) 0.19184(15) 0.24223(10)
C15 C 0.42116(17) 0.20279(17) 0.16940(10)
H17 H 0.4311 0.1196 0.1403
H18 H 0.5092 0.2316 0.1891
C16 C 0.34908(15) 0.08560(15) 0.30295(10)
C17 C 0.23100(16) 0.01966(15) 0.33769(9)
C18 C 0.12681(16) 0.08250(15) 0.36768(9)
H19 H 0.0518 0.0332 0.3834
C19 C 0.23737(18) -0.12421(16) 0.33357(10)
H20 H 0.1507 -0.1601 0.3480
H21 H 0.3039 -0.1554 0.3735
H22 H 0.2617 -0.1507 0.2764
C20 C 0.1856(2) 0.52602(16) 0.29014(11)
H23 H 0.1764 0.6122 0.3083
H24 H 0.2594 0.5017 0.2567
loop_
_geom_bond_atom_site_label_1
_geom_bond_atom_site_label_2
_geom_bond_site_symmetry_1
_geom_bond_site_symmetry_2
O1 C7 1_555 1_555
O2 C16 1_555 1_555
C1 H1 1_555 1_555
H2 C1 1_555 1_555
C2 C1 1_555 1_555
C3 C2 1_555 1_555
H3 C3 1_555 1_555
C4 C3 1_555 1_555
H4 C4 1_555 1_555
C5 C4 1_555 1_555
H5 C5 1_555 1_555
C6 C5 1_555 1_555
C7 C6 1_555 1_555
C8 C7 1_555 1_555
H6 C8 1_555 1_555
C9 C8 1_555 1_555
H7 C9 1_555 1_555
H8 C9 1_555 1_555
H9 C9 1_555 1_555
C10 C2 1_555 1_555
H10 C10 1_555 1_555
H11 C10 1_555 1_555
H12 C10 1_555 1_555
C11 C3 1_555 1_555
H13 C11 1_555 1_555
H14 C11 1_555 1_555
C12 C11 1_555 1_555
H15 C12 1_555 1_555
H16 C12 1_555 1_555
C13 C5 1_555 1_555
C14 C6 1_555 1_555
C15 C8 1_555 1_555
H17 C15 1_555 1_555
H18 C15 1_555 1_555
C16 C14 1_555 1_555
C17 C16 1_555 1_555
C18 C4 1_555 1_555
H19 C18 1_555 1_555
C19 C17 1_555 1_555
H20 C19 1_555 1_555
H21 C19 1_555 1_555
H22 C19 1_555 1_555
C20 C13 1_555 1_555
H23 C20 1_555 1_555
H24 C20 1_555 1_555
C12 C13 1_555 1_555
C14 C15 1_555 1_555
C17 C18 1_555 1_555

#END
