
#######################################################################
#
#                 Cambridge Crystallographic Data Centre
#                                CCDC 
#
#######################################################################
#
# If this CIF has been generated from an entry in the Cambridge 
# Structural Database, then it will include bibliographic, chemical, 
# crystal, experimental, refinement or atomic coordinate data resulting 
# from the CCDC's data processing and validation procedures.
#
#######################################################################

data_JOFREB01
_chemical_formula_moiety         'C16 H18 N1 O2 P1'
_chemical_name_systematic        
(2S,4S,5R)-3,4-Dimethyl-2,5-diphenyl-1,3,2-oxazaphospholidin-2-one
_symmetry_cell_setting           orthorhombic
_symmetry_space_group_name_H-M   'P 21 21 21'
_symmetry_Int_Tables_number      19
_space_group_name_Hall           'P 2ac 2ab'
loop_
_symmetry_equiv_pos_site_id
_symmetry_equiv_pos_as_xyz
1 x,y,z
2 1/2+x,1/2-y,-z
3 -x,1/2+y,1/2-z
4 1/2-x,-y,1/2+z
_cell_length_a                   8.9374(14)
_cell_length_b                   10.3937(19)
_cell_length_c                   16.001(3)
_cell_angle_alpha                90
_cell_angle_beta                 90
_cell_angle_gamma                90
_cell_volume                     1486.38
_chemical_melting_point          '140-141 deg.C'
_cell_formula_units_Z            4
loop_
_atom_site_label
_atom_site_type_symbol
_atom_site_fract_x
_atom_site_fract_y
_atom_site_fract_z
P1 P 0.66146(10) 0.01694(8) 0.15459(5)
O1 O 0.7411(3) -0.10033(20) 0.20044(14)
O2 O 0.6241(3) 0.12766(21) 0.20783(15)
N1 N 0.5226(3) -0.0675(3) 0.11682(17)
C1 C 0.5458(4) -0.2080(3) 0.12294(22)
C2 C 0.6556(4) -0.2201(3) 0.19677(20)
C3 C 0.7902(4) 0.0645(3) 0.07440(22)
C4 C 0.9254(4) 0.1224(4) 0.0962(3)
C5 C 1.0234(6) 0.1606(5) 0.0348(3)
C6 C 0.9902(5) 0.1440(4) -0.0476(3)
C7 C 0.8585(6) 0.0863(4) -0.0697(3)
C8 C 0.7599(5) 0.0467(4) -0.00964(23)
C9 C 0.7655(4) -0.3307(3) 0.19262(21)
C10 C 0.9155(5) -0.3134(4) 0.17653(22)
C11 C 1.0114(5) -0.4171(5) 0.17318(24)
C12 C 0.9576(5) -0.5394(5) 0.1847(3)
C13 C 0.8092(5) -0.5587(4) 0.2001(3)
C14 C 0.7130(5) -0.4549(4) 0.2050(3)
C15 C 0.3906(5) -0.0152(5) 0.0758(3)
C16 C 0.5981(6) -0.2664(5) 0.0410(3)
H1 H 0.450(4) -0.248(3) 0.1452(18)
H2 H 0.599(3) -0.223(3) 0.2497(17)
H3 H 0.957(4) 0.134(3) 0.1629(23)
H4 H 1.112(5) 0.191(4) 0.0510(23)
H5 H 1.057(4) 0.166(4) -0.0842(23)
H6 H 0.839(4) 0.079(4) -0.130(3)
H7 H 0.665(4) 0.013(3) -0.0265(20)
H8 H 0.949(4) -0.230(3) 0.1651(20)
H9 H 1.116(5) -0.403(4) 0.1630(24)
H10 H 1.023(5) -0.609(4) 0.183(3)
H11 H 0.760(5) -0.638(4) 0.2061(24)
H12 H 0.615(4) -0.464(3) 0.2200(18)
H13 H 0.298(4) -0.049(4) 0.1035(23)
H14 H 0.395(5) -0.030(4) 0.015(3)
H15 H 0.382(5) 0.071(5) 0.083(3)
H16 H 0.528(5) -0.246(4) -0.004(3)
H17 H 0.609(5) -0.353(4) 0.0440(25)
H18 H 0.700(5) -0.244(4) 0.025(3)
loop_
_geom_bond_atom_site_label_1
_geom_bond_atom_site_label_2
_geom_bond_site_symmetry_1
_geom_bond_site_symmetry_2
P1 O1 1_555 1_555
O1 C2 1_555 1_555
O2 P1 1_555 1_555
N1 P1 1_555 1_555
C1 N1 1_555 1_555
C2 C1 1_555 1_555
C3 P1 1_555 1_555
C4 C3 1_555 1_555
C5 C4 1_555 1_555
C6 C5 1_555 1_555
C7 C6 1_555 1_555
C8 C3 1_555 1_555
C9 C2 1_555 1_555
C10 C9 1_555 1_555
C11 C10 1_555 1_555
C12 C11 1_555 1_555
C13 C12 1_555 1_555
C14 C9 1_555 1_555
C15 N1 1_555 1_555
C16 C1 1_555 1_555
H1 C1 1_555 1_555
H2 C2 1_555 1_555
H3 C4 1_555 1_555
H4 C5 1_555 1_555
H5 C6 1_555 1_555
H6 C7 1_555 1_555
H7 C8 1_555 1_555
H8 C10 1_555 1_555
H9 C11 1_555 1_555
H10 C12 1_555 1_555
H11 C13 1_555 1_555
H12 C14 1_555 1_555
H13 C15 1_555 1_555
H14 C15 1_555 1_555
H15 C15 1_555 1_555
H16 C16 1_555 1_555
H17 C16 1_555 1_555
H18 C16 1_555 1_555
C7 C8 1_555 1_555
C13 C14 1_555 1_555

#END
