
#######################################################################
#
#                 Cambridge Crystallographic Data Centre
#                                CCDC 
#
#######################################################################
#
# If this CIF has been generated from an entry in the Cambridge 
# Structural Database, then it will include bibliographic, chemical, 
# crystal, experimental, refinement or atomic coordinate data resulting 
# from the CCDC's data processing and validation procedures.
#
#######################################################################

data_JOGYIP
_chemical_formula_moiety         'C28 H21 N1 O3'
_chemical_name_systematic        
2,4,6-Triphenyl-7a,8-dihydro-4H-furo[2,3-f]isoindole-5,7(4aH,6H)-dione
_symmetry_cell_setting           triclinic
_symmetry_space_group_name_H-M   'P -1'
_symmetry_Int_Tables_number      2
_space_group_name_Hall           '-P 1'
loop_
_symmetry_equiv_pos_site_id
_symmetry_equiv_pos_as_xyz
1 x,y,z
2 -x,-y,-z
_cell_length_a                   10.3953(8)
_cell_length_b                   10.7904(8)
_cell_length_c                   11.6091(9)
_cell_angle_alpha                101.511(2)
_cell_angle_beta                 103.718(2)
_cell_angle_gamma                117.778(2)
_cell_volume                     1043.89
_exptl_crystal_colour            colorless
_exptl_crystal_description       block
_cell_formula_units_Z            2
loop_
_atom_site_label
_atom_site_type_symbol
_atom_site_fract_x
_atom_site_fract_y
_atom_site_fract_z
O1 O 0.6337(2) -0.1321(2) -0.40144(19)
O2 O 1.0528(2) 0.1463(2) -0.02252(18)
O3 O 0.6732(2) 0.2567(2) 0.12930(17)
N1 N 0.8654(3) -0.0049(3) -0.2256(2)
C1 C 0.9400(4) -0.1562(4) -0.3416(3)
H1 H 0.8580 -0.2426 -0.3367
C2 C 1.0344(4) -0.1694(4) -0.4025(3)
H2 H 1.0169 -0.2654 -0.4403
C3 C 1.1535(4) -0.0443(5) -0.4087(3)
H3 H 1.2181 -0.0539 -0.4510
C4 C 1.1797(4) 0.0951(4) -0.3539(3)
H4 H 1.2627 0.1814 -0.3581
C5 C 1.0856(3) 0.1102(4) -0.2926(3)
H5 H 1.1036 0.2063 -0.2545
C6 C 0.9656(3) -0.0162(3) -0.2876(3)
C7 C 0.8820(3) 0.3267(3) -0.1561(3)
H6 H 0.9139 0.3280 -0.0719
C8 C 0.9889(4) 0.4328(3) -0.1909(3)
H7 H 1.0932 0.5052 -0.1315
C9 C 0.9418(4) 0.4324(4) -0.3133(4)
H8 H 1.0138 0.5052 -0.3379
C10 C 0.7915(4) 0.3268(4) -0.3987(3)
H9 H 0.7595 0.3275 -0.4822
C11 C 0.6855(4) 0.2189(4) -0.3643(3)
H10 H 0.5823 0.1449 -0.4249
C12 C 0.7294(3) 0.2184(3) -0.2417(3)
C13 C 0.5375(3) 0.3827(3) 0.1612(3)
C14 C 0.4143(3) 0.4016(3) 0.1151(3)
H11 H 0.3556 0.3621 0.0262
C15 C 0.3765(4) 0.4779(4) 0.1983(4)
H12 H 0.2920 0.4902 0.1658
C16 C 0.4603(4) 0.5357(4) 0.3269(3)
H13 H 0.4341 0.5877 0.3836
C17 C 0.5828(4) 0.5176(4) 0.3729(3)
H14 H 0.6409 0.5572 0.4620
C18 C 0.6223(4) 0.4430(4) 0.2917(3)
H15 H 0.7079 0.4325 0.3250
C19 C 0.7060(3) -0.0646(3) -0.2884(3)
C20 C 0.6438(3) -0.0252(3) -0.1910(3)
H16 H 0.5432 -0.1171 -0.2038
C21 C 0.6119(3) 0.1009(3) -0.2041(3)
H17 H 0.5052 0.0515 -0.2717
C22 C 0.6075(3) 0.1708(3) -0.0813(3)
C23 C 0.5319(3) 0.2493(3) -0.0538(3)
H18 H 0.4650 0.2633 -0.1139
C24 C 0.5744(3) 0.2998(3) 0.0743(3)
C25 C 0.6904(3) 0.1790(3) 0.0309(3)
C26 C 0.7915(3) 0.1192(3) 0.0600(3)
H19 H 0.7622 0.0622 0.1163
H20 H 0.9028 0.2033 0.1047
C27 C 0.7715(3) 0.0160(3) -0.0639(3)
H21 H 0.7436 -0.0813 -0.0519
C28 C 0.9164(3) 0.0658(3) -0.0946(3)
loop_
_geom_bond_atom_site_label_1
_geom_bond_atom_site_label_2
_geom_bond_site_symmetry_1
_geom_bond_site_symmetry_2
O1 C19 1_555 1_555
O2 C28 1_555 1_555
O3 C24 1_555 1_555
N1 C6 1_555 1_555
C1 H1 1_555 1_555
C2 C1 1_555 1_555
H2 C2 1_555 1_555
C3 C2 1_555 1_555
H3 C3 1_555 1_555
C4 C3 1_555 1_555
H4 C4 1_555 1_555
C5 C4 1_555 1_555
H5 C5 1_555 1_555
C6 C1 1_555 1_555
C7 H6 1_555 1_555
C8 C7 1_555 1_555
H7 C8 1_555 1_555
C9 C8 1_555 1_555
H8 C9 1_555 1_555
C10 C9 1_555 1_555
H9 C10 1_555 1_555
C11 C10 1_555 1_555
H10 C11 1_555 1_555
C12 C7 1_555 1_555
C13 C14 1_555 1_555
C14 H11 1_555 1_555
C15 C14 1_555 1_555
H12 C15 1_555 1_555
C16 C15 1_555 1_555
H13 C16 1_555 1_555
C17 C16 1_555 1_555
H14 C17 1_555 1_555
C18 C13 1_555 1_555
H15 C18 1_555 1_555
C19 N1 1_555 1_555
C20 C19 1_555 1_555
H16 C20 1_555 1_555
C21 C12 1_555 1_555
H17 C21 1_555 1_555
C22 C21 1_555 1_555
C23 C22 1_555 1_555
H18 C23 1_555 1_555
C24 C13 1_555 1_555
C25 O3 1_555 1_555
C26 C25 1_555 1_555
H19 C26 1_555 1_555
H20 C26 1_555 1_555
C27 C20 1_555 1_555
H21 C27 1_555 1_555
C28 N1 1_555 1_555
C5 C6 1_555 1_555
C11 C12 1_555 1_555
C17 C18 1_555 1_555
C20 C21 1_555 1_555
C22 C25 1_555 1_555
C23 C24 1_555 1_555
C26 C27 1_555 1_555
C27 C28 1_555 1_555

#END
