
#######################################################################
#
#                 Cambridge Crystallographic Data Centre
#                                CCDC 
#
#######################################################################
#
# If this CIF has been generated from an entry in the Cambridge 
# Structural Database, then it will include bibliographic, chemical, 
# crystal, experimental, refinement or atomic coordinate data resulting 
# from the CCDC's data processing and validation procedures.
#
#######################################################################

data_JOHCUE
_chemical_formula_moiety         'C14 H24 N2 O4'
_chemical_name_systematic        Bi(4,5,5-trimethyl-2-oxomorpholin-3-yl)
_symmetry_cell_setting           orthorhombic
_symmetry_space_group_name_H-M   'P b c a'
_symmetry_Int_Tables_number      61
_space_group_name_Hall           '-P 2ac 2ab'
loop_
_symmetry_equiv_pos_site_id
_symmetry_equiv_pos_as_xyz
1 x,y,z
2 1/2-x,1/2+y,z
3 x,1/2-y,1/2+z
4 1/2-x,-y,1/2+z
5 -x,-y,-z
6 1/2+x,1/2-y,-z
7 -x,1/2+y,1/2-z
8 1/2+x,y,1/2-z
_cell_length_a                   9.324(2)
_cell_length_b                   12.435(2)
_cell_length_c                   26.161(5)
_cell_angle_alpha                90
_cell_angle_beta                 90
_cell_angle_gamma                90
_cell_volume                     3033.21
_exptl_crystal_colour            colorless
_chemical_melting_point          154-156deg.C
_cell_formula_units_Z            8
loop_
_atom_site_label
_atom_site_type_symbol
_atom_site_fract_x
_atom_site_fract_y
_atom_site_fract_z
O1 O 0.2062(2) 0.4776(1) 0.4176(1)
C1 C 0.1805(2) 0.3771(2) 0.4043(1)
O2 O 0.2413(2) 0.3056(2) 0.4262(1)
C2 C 0.0733(2) 0.3541(2) 0.3625(1)
N1 N 0.0441(2) 0.4402(1) 0.3261(1)
C3 C 0.1272(2) 0.5396(2) 0.3341(1)
C4 C 0.1265(3) 0.5595(2) 0.3906(1)
C5 C 0.0498(3) 0.4002(2) 0.2735(1)
C6 C 0.2808(3) 0.5334(2) 0.3141(1)
C7 C 0.0488(3) 0.6334(2) 0.3089(1)
O3 O -0.2753(2) 0.3251(2) 0.3329(1)
C8 C -0.1614(3) 0.2682(2) 0.3468(1)
O4 O -0.1353(2) 0.1854(2) 0.3254(1)
C9 C -0.0658(2) 0.3109(2) 0.3888(1)
N2 N -0.1283(2) 0.3885(1) 0.4242(1)
C10 C -0.2818(2) 0.4109(2) 0.4168(1)
C11 C -0.3018(3) 0.4239(2) 0.3599(1)
C12 C -0.0904(3) 0.3630(2) 0.4770(1)
C13 C -0.3803(3) 0.3225(2) 0.4375(1)
C14 C -0.3194(3) 0.5171(2) 0.4417(1)
H1 H 0.1094(23) 0.2914(18) 0.3478(8)
H2 H 0.0292 0.5594 0.4026
H3 H 0.1692 0.6283 0.3973
H4 H 0.0360 0.4599 0.2508
H5 H -0.0248 0.3482 0.2682
H6 H 0.1413 0.3676 0.2669
H7 H 0.2738 0.5329 0.2775
H8 H 0.3305 0.4700 0.3253
H9 H 0.3326 0.5961 0.3249
H10 H 0.0483 0.6251 0.2724
H11 H 0.0974 0.6989 0.3177
H12 H -0.0481 0.6360 0.3212
H13 H -0.0391(20) 0.2479(16) 0.4043(7)
H14 H -0.2366 0.4779 0.3478
H15 H -0.3986 0.4463 0.3534
H16 H -0.1273 0.4186 0.4988
H17 H 0.0123 0.3612 0.4795
H18 H -0.1290 0.2948 0.4874
H19 H -0.3532 0.2551 0.4224
H20 H -0.4782 0.3382 0.4291
H21 H -0.3703 0.3180 0.4740
H22 H -0.4178 0.5324 0.4337
H23 H -0.2595 0.5735 0.4286
H24 H -0.3081 0.5126 0.4781
loop_
_geom_bond_atom_site_label_1
_geom_bond_atom_site_label_2
_geom_bond_site_symmetry_1
_geom_bond_site_symmetry_2
O1 C1 1_555 1_555
C1 O2 1_555 1_555
C2 C1 1_555 1_555
N1 C2 1_555 1_555
C3 N1 1_555 1_555
C4 O1 1_555 1_555
C5 N1 1_555 1_555
C6 C3 1_555 1_555
C7 C3 1_555 1_555
O3 C8 1_555 1_555
C8 O4 1_555 1_555
C9 C2 1_555 1_555
N2 C9 1_555 1_555
C10 N2 1_555 1_555
C11 O3 1_555 1_555
C12 N2 1_555 1_555
C13 C10 1_555 1_555
C14 C10 1_555 1_555
H1 C2 1_555 1_555
H2 C4 1_555 1_555
H3 C4 1_555 1_555
H4 C5 1_555 1_555
H5 C5 1_555 1_555
H6 C5 1_555 1_555
H7 C6 1_555 1_555
H8 C6 1_555 1_555
H9 C6 1_555 1_555
H10 C7 1_555 1_555
H11 C7 1_555 1_555
H12 C7 1_555 1_555
H13 C9 1_555 1_555
H14 C11 1_555 1_555
H15 C11 1_555 1_555
H16 C12 1_555 1_555
H17 C12 1_555 1_555
H18 C12 1_555 1_555
H19 C13 1_555 1_555
H20 C13 1_555 1_555
H21 C13 1_555 1_555
H22 C14 1_555 1_555
H23 C14 1_555 1_555
H24 C14 1_555 1_555
C3 C4 1_555 1_555
C8 C9 1_555 1_555
C10 C11 1_555 1_555

#END
