
#######################################################################
#
#                 Cambridge Crystallographic Data Centre
#                                CCDC 
#
#######################################################################
#
# If this CIF has been generated from an entry in the Cambridge 
# Structural Database, then it will include bibliographic, chemical, 
# crystal, experimental, refinement or atomic coordinate data resulting 
# from the CCDC's data processing and validation procedures.
#
#######################################################################

data_JOHFUI
_chemical_formula_moiety         'C75 H96 S3'
_chemical_name_systematic        
2,2',2''-(5,5,10,10,15,15-hexakis(n-Hexyl)-10,15-dihydro-5H-di-indeno[1,2-a:1',2'-c]fluorene-2,7,12-triyl)trithiophene
_symmetry_cell_setting           cubic
_symmetry_space_group_name_H-M   'P a -3'
_symmetry_Int_Tables_number      205
_space_group_name_Hall           '-P 2ac 2ab 3'
loop_
_symmetry_equiv_pos_site_id
_symmetry_equiv_pos_as_xyz
1 x,y,z
2 z,x,y
3 y,z,x
4 1/2-x,-y,1/2+z
5 -x,1/2+y,1/2-z
6 1/2+x,1/2-y,-z
7 1/2+z,1/2-x,-y
8 1/2-z,-x,1/2+y
9 -z,1/2+x,1/2-y
10 -y,1/2+z,1/2-x
11 1/2+y,1/2-z,-x
12 1/2-y,-z,1/2+x
13 -x,-y,-z
14 -z,-x,-y
15 -y,-z,-x
16 1/2+x,y,1/2-z
17 x,1/2-y,1/2+z
18 1/2-x,1/2+y,z
19 1/2-z,1/2+x,y
20 1/2+z,x,1/2-y
21 z,1/2-x,1/2+y
22 y,1/2-z,1/2+x
23 1/2-y,1/2+z,x
24 1/2+y,z,1/2-x
_cell_length_a                   24.8817(8)
_cell_length_b                   24.8817(8)
_cell_length_c                   24.8817(8)
_cell_angle_alpha                90
_cell_angle_beta                 90
_cell_angle_gamma                90
_cell_volume                     15404.2
_exptl_crystal_colour            colorless
_exptl_crystal_description       block
_cell_formula_units_Z            8
_exptl_crystal_recrystallization_method dichloromethane/ethanol
loop_
_atom_site_label
_atom_site_type_symbol
_atom_site_fract_x
_atom_site_fract_y
_atom_site_fract_z
C1 C 0.63039(16) 0.59902(14) 0.35280(18)
H1 H 0.6086 0.6293 0.3502
C2 C 0.65130(15) 0.58175(16) 0.39802(17)
H2 H 0.6455 0.5988 0.4308
C3 C 0.68358(13) 0.53493(12) 0.39297(13)
H3 H 0.7019 0.5182 0.4209
C4 C 0.68347(12) 0.51811(11) 0.33969(12)
C5 C 0.71025(12) 0.47038(12) 0.31789(12)
C6 C 0.75472(13) 0.44906(12) 0.34393(12)
H4 H 0.7677 0.4658 0.3748
C7 C 0.78002(12) 0.40369(12) 0.32498(12)
H5 H 0.8094 0.3898 0.3434
C8 C 0.76203(11) 0.37826(11) 0.27841(12)
C9 C 0.77980(11) 0.33043(11) 0.24810(11)
C10 C 0.82311(11) 0.29526(11) 0.25576(11)
C11 C 0.86626(11) 0.29556(11) 0.29852(11)
C12 C 0.90261(12) 0.34557(11) 0.29591(13)
H6 H 0.8827 0.3762 0.3094
H7 H 0.9331 0.3400 0.3195
C13 C 0.92316(15) 0.35878(14) 0.24037(16)
H8 H 0.9391 0.3266 0.2253
H9 H 0.8927 0.3683 0.2180
C14 C 0.96305(17) 0.40266(15) 0.23710(19)
H10 H 0.9956 0.3913 0.2554
H11 H 0.9490 0.4336 0.2562
C15 C 0.97773(19) 0.41989(19) 0.1797(2)
H12 H 0.9884 0.3880 0.1600
H13 H 0.9455 0.4338 0.1627
C16 C 1.0182(3) 0.4582(2) 0.1739(3)
H14 H 1.0516 0.4426 0.1867
H15 H 1.0098 0.4883 0.1973
C17 C 1.0276(2) 0.4794(2) 0.1195(2)
H16 H 1.0390 0.4507 0.0963
H17 H 1.0550 0.5065 0.1208
H18 H 0.9950 0.4947 0.1058
C18 C 0.71780(11) 0.39938(11) 0.25324(11)
C19 C 0.69195(12) 0.44454(12) 0.27170(12)
H19 H 0.6622 0.4579 0.2534
C20 C 0.84416(12) 0.28497(12) 0.35575(12)
H20 H 0.8738 0.2745 0.3788
H21 H 0.8296 0.3183 0.3698
C21 C 0.80144(14) 0.24241(14) 0.35868(13)
H22 H 0.7689 0.2565 0.3425
H23 H 0.8129 0.2120 0.3372
C22 C 0.78817(15) 0.22284(15) 0.41379(15)
H24 H 0.7795 0.2534 0.4363
H25 H 0.8197 0.2055 0.4290
C23 C 0.74121(17) 0.18324(18) 0.41500(17)
H26 H 0.7085 0.2025 0.4063
H27 H 0.7468 0.1564 0.3873
C24 C 0.7336(2) 0.1551(2) 0.4679(2)
H28 H 0.7659 0.1350 0.4764
H29 H 0.7285 0.1818 0.4958
C25 C 0.6869(3) 0.1178(3) 0.4678(3)
H30 H 0.6582 0.1331 0.4470
H31 H 0.6748 0.1122 0.5041
H32 H 0.6974 0.0840 0.4524
S1 S 0.64713(5) 0.56066(4) 0.30034(4)
C1J C 1.09902(14) 0.14720(18) 0.36961(16)
C1H C 0.64720(18) 0.13039(16) -0.09902(14)
H1J H 1.1293 0.1498 0.3914
H1H H 0.6498 0.1086 -0.1293
C2J C 1.08175(16) 0.10198(17) 0.34870(15)
C2H C 0.60198(17) 0.15130(15) -0.08175(16)
H2J H 1.0988 0.0692 0.3545
H2H H 0.5692 0.1455 -0.0988
C3J C 1.03493(12) 0.10703(13) 0.31642(13)
C3H C 0.60703(13) 0.18358(13) -0.03493(12)
H3J H 1.0182 0.0791 0.2981
H3H H 0.5791 0.2019 -0.0182
C4J C 1.01811(11) 0.16031(12) 0.31653(12)
C4H C 0.66031(12) 0.18347(12) -0.01811(11)
C5J C 0.97038(12) 0.18211(12) 0.28975(12)
C5H C 0.68211(12) 0.21025(12) 0.02962(12)
C6J C 0.94906(12) 0.15607(12) 0.24528(13)
C6H C 0.65607(12) 0.25472(13) 0.05094(12)
H4J H 0.9658 0.1252 0.2323
H4H H 0.6252 0.2677 0.0342
C7J C 0.90369(12) 0.17502(12) 0.21998(12)
C7H C 0.67502(12) 0.28002(12) 0.09631(12)
H5J H 0.8898 0.1566 0.1906
H5H H 0.6566 0.3094 0.1102
C8J C 0.87826(11) 0.22159(12) 0.23797(11)
C8H C 0.72159(12) 0.26203(11) 0.12174(11)
C9J C 0.83043(11) 0.25190(11) 0.22020(11)
C9H C 0.75190(11) 0.27980(11) 0.16957(11)
C10J C 0.79526(11) 0.24424(11) 0.17689(11)
C10H C 0.74424(11) 0.32311(11) 0.20474(11)
C11J C 0.79556(11) 0.20148(11) 0.13374(11)
C11H C 0.70148(11) 0.36626(11) 0.20444(11)
C12J C 0.84557(11) 0.20409(13) 0.09739(12)
C12H C 0.70409(13) 0.40261(12) 0.15443(11)
H6J H 0.8762 0.1906 0.1173
H6H H 0.6906 0.3827 0.1238
H7J H 0.8400 0.1805 0.0669
H7H H 0.6805 0.4331 0.1600
C13J C 0.85878(14) 0.25963(16) 0.07684(15)
C13H C 0.75963(16) 0.42316(15) 0.14122(14)
H8J H 0.8266 0.2747 0.0609
H8H H 0.7747 0.4391 0.1734
H9J H 0.8683 0.2820 0.1073
H9H H 0.7820 0.3927 0.1317
C14J C 0.90266(15) 0.26290(19) 0.03695(17)
C14H C 0.76290(19) 0.46305(17) 0.09734(15)
H10J H 0.8913 0.2446 0.0044
H10H H 0.7446 0.4956 0.1087
H11J H 0.9336 0.2438 0.0510
H11H H 0.7438 0.4490 0.0664
C15J C 0.91989(19) 0.3203(2) 0.02227(19)
C15H C 0.8203(2) 0.47773(19) 0.08011(19)
H12J H 0.8880 0.3400 0.0116
H12H H 0.8400 0.4884 0.1120
H13J H 0.9338 0.3373 0.0545
H13H H 0.8373 0.4455 0.0662
C16J C 0.9582(2) 0.3261(3) -0.0182(3)
C16H C 0.8261(3) 0.5182(3) 0.0418(2)
H14J H 0.9426 0.3133 -0.0516
H14H H 0.8133 0.5516 0.0574
H15J H 0.9883 0.3027 -0.0098
H15H H 0.8027 0.5098 0.0117
C17J C 0.9794(2) 0.3805(2) -0.0276(2)
C17H C 0.8805(2) 0.5276(2) 0.0206(2)
H16J H 0.9507 0.4037 -0.0390
H16H H 0.9037 0.5390 0.0493
H17J H 1.0065 0.3792 -0.0550
H17H H 0.8792 0.5550 -0.0065
H18J H 0.9947 0.3942 0.0050
H18H H 0.8942 0.4950 0.0053
C18J C 0.89938(11) 0.24676(11) 0.28220(11)
C18H C 0.74676(11) 0.21780(11) 0.10062(11)
C19J C 0.94454(12) 0.22830(12) 0.30805(12)
C19H C 0.72830(12) 0.19195(12) 0.05546(12)
H19J H 0.9579 0.2466 0.3378
H19H H 0.7466 0.1622 0.0421
C20J C 0.78497(12) 0.14425(12) 0.15584(12)
C20H C 0.64425(12) 0.34416(12) 0.21503(12)
H20J H 0.7745 0.1212 0.1262
H20H H 0.6212 0.3738 0.2255
H21J H 0.8183 0.1302 0.1704
H21H H 0.6302 0.3296 0.1817
C21J C 0.74241(14) 0.14132(13) 0.19856(14)
C21H C 0.64132(13) 0.30144(14) 0.25759(14)
H22J H 0.7565 0.1575 0.2311
H22H H 0.6575 0.2689 0.2435
H23J H 0.7120 0.1628 0.1871
H23H H 0.6628 0.3129 0.2880
C22J C 0.72284(15) 0.08621(15) 0.21183(15)
C22H C 0.58621(15) 0.28817(15) 0.27716(15)
H24J H 0.7534 0.0637 0.2205
H24H H 0.5637 0.2795 0.2466
H25J H 0.7055 0.0710 0.1803
H25H H 0.5710 0.3197 0.2945
C23J C 0.68324(18) 0.08500(17) 0.25879(17)
C23H C 0.58500(17) 0.24121(17) 0.31676(18)
H26J H 0.7025 0.0937 0.2915
H26H H 0.5937 0.2085 0.2975
H27J H 0.6564 0.1127 0.2532
H27H H 0.6127 0.2468 0.3436
C24J C 0.6551(2) 0.0321(2) 0.2664(2)
C24H C 0.5321(2) 0.2336(2) 0.3449(2)
H28J H 0.6350 0.0236 0.2341
H28H H 0.5236 0.2659 0.3650
H29J H 0.6818 0.0042 0.2715
H29H H 0.5042 0.2285 0.3182
C25J C 0.6178(3) 0.0322(3) 0.3131(3)
C25H C 0.5322(3) 0.1869(3) 0.3822(3)
H30J H 0.6331 0.0530 0.3418
H30H H 0.5530 0.1582 0.3669
H31J H 0.6122 -0.0041 0.3252
H31H H 0.4959 0.1748 0.3878
H32J H 0.5840 0.0476 0.3026
H32H H 0.5476 0.1974 0.4160
S1J S 1.06066(4) 0.19966(4) 0.35287(5)
S1H S 0.69966(4) 0.14713(5) -0.06066(4)
loop_
_geom_bond_atom_site_label_1
_geom_bond_atom_site_label_2
_geom_bond_site_symmetry_1
_geom_bond_site_symmetry_2
C1 H1 1_555 1_555
C2 C1 1_555 1_555
H2 C2 1_555 1_555
C3 C2 1_555 1_555
H3 C3 1_555 1_555
C4 C3 1_555 1_555
C5 C4 1_555 1_555
C6 C5 1_555 1_555
H4 C6 1_555 1_555
C7 C6 1_555 1_555
H5 C7 1_555 1_555
C8 C7 1_555 1_555
C9 C8 1_555 1_555
C10 C9 1_555 1_555
C11 C10 1_555 1_555
C12 C11 1_555 1_555
H6 C12 1_555 1_555
H7 C12 1_555 1_555
C13 C12 1_555 1_555
H8 C13 1_555 1_555
H9 C13 1_555 1_555
C14 C13 1_555 1_555
H10 C14 1_555 1_555
H11 C14 1_555 1_555
C15 C14 1_555 1_555
H12 C15 1_555 1_555
H13 C15 1_555 1_555
C16 C15 1_555 1_555
H14 C16 1_555 1_555
H15 C16 1_555 1_555
C17 C16 1_555 1_555
H16 C17 1_555 1_555
H17 C17 1_555 1_555
H18 C17 1_555 1_555
C18 C8 1_555 1_555
C19 C5 1_555 1_555
H19 C19 1_555 1_555
C20 C11 1_555 1_555
H20 C20 1_555 1_555
H21 C20 1_555 1_555
C21 C20 1_555 1_555
H22 C21 1_555 1_555
H23 C21 1_555 1_555
C22 C21 1_555 1_555
H24 C22 1_555 1_555
H25 C22 1_555 1_555
C23 C22 1_555 1_555
H26 C23 1_555 1_555
H27 C23 1_555 1_555
C24 C23 1_555 1_555
H28 C24 1_555 1_555
H29 C24 1_555 1_555
C25 C24 1_555 1_555
H30 C25 1_555 1_555
H31 C25 1_555 1_555
H32 C25 1_555 1_555
S1 C1 1_555 1_555
C1J H1J 1_555 1_555
C1H H1H 1_555 1_555
C2J C1J 1_555 1_555
C2H C1H 1_555 1_555
H2J C2J 1_555 1_555
H2H C2H 1_555 1_555
C3J C2J 1_555 1_555
C3H C2H 1_555 1_555
H3J C3J 1_555 1_555
H3H C3H 1_555 1_555
C4J C3J 1_555 1_555
C4H C3H 1_555 1_555
C5J C4J 1_555 1_555
C5H C4H 1_555 1_555
C6J C5J 1_555 1_555
C6H C5H 1_555 1_555
H4J C6J 1_555 1_555
H4H C6H 1_555 1_555
C7J C6J 1_555 1_555
C7H C6H 1_555 1_555
H5J C7J 1_555 1_555
H5H C7H 1_555 1_555
C8J C7J 1_555 1_555
C8H C7H 1_555 1_555
C9J C10 1_555 1_555
C9H C8H 1_555 1_555
C10J C9J 1_555 1_555
C10H C9 1_555 1_555
C11J C10J 1_555 1_555
C11H C18 1_555 1_555
C12J C11J 1_555 1_555
C12H C11H 1_555 1_555
H6J C12J 1_555 1_555
H6H C12H 1_555 1_555
H7J C12J 1_555 1_555
H7H C12H 1_555 1_555
C13J C12J 1_555 1_555
C13H C12H 1_555 1_555
H8J C13J 1_555 1_555
H8H C13H 1_555 1_555
H9J C13J 1_555 1_555
H9H C13H 1_555 1_555
C14J C13J 1_555 1_555
C14H C13H 1_555 1_555
H10J C14J 1_555 1_555
H10H C14H 1_555 1_555
H11J C14J 1_555 1_555
H11H C14H 1_555 1_555
C15J C14J 1_555 1_555
C15H C14H 1_555 1_555
H12J C15J 1_555 1_555
H12H C15H 1_555 1_555
H13J C15J 1_555 1_555
H13H C15H 1_555 1_555
C16J C15J 1_555 1_555
C16H C15H 1_555 1_555
H14J C16J 1_555 1_555
H14H C16H 1_555 1_555
H15J C16J 1_555 1_555
H15H C16H 1_555 1_555
C17J C16J 1_555 1_555
C17H C16H 1_555 1_555
H16J C17J 1_555 1_555
H16H C17H 1_555 1_555
H17J C17J 1_555 1_555
H17H C17H 1_555 1_555
H18J C17J 1_555 1_555
H18H C17H 1_555 1_555
C18J C11 1_555 1_555
C18H C8H 1_555 1_555
C19J C5J 1_555 1_555
C19H C5H 1_555 1_555
H19J C19J 1_555 1_555
H19H C19H 1_555 1_555
C20J C11J 1_555 1_555
C20H C11H 1_555 1_555
H20J C20J 1_555 1_555
H20H C20H 1_555 1_555
H21J C20J 1_555 1_555
H21H C20H 1_555 1_555
C21J C20J 1_555 1_555
C21H C20H 1_555 1_555
H22J C21J 1_555 1_555
H22H C21H 1_555 1_555
H23J C21J 1_555 1_555
H23H C21H 1_555 1_555
C22J C21J 1_555 1_555
C22H C21H 1_555 1_555
H24J C22J 1_555 1_555
H24H C22H 1_555 1_555
H25J C22J 1_555 1_555
H25H C22H 1_555 1_555
C23J C22J 1_555 1_555
C23H C22H 1_555 1_555
H26J C23J 1_555 1_555
H26H C23H 1_555 1_555
H27J C23J 1_555 1_555
H27H C23H 1_555 1_555
C24J C23J 1_555 1_555
C24H C23H 1_555 1_555
H28J C24J 1_555 1_555
H28H C24H 1_555 1_555
H29J C24J 1_555 1_555
H29H C24H 1_555 1_555
C25J C24J 1_555 1_555
C25H C24H 1_555 1_555
H30J C25J 1_555 1_555
H30H C25H 1_555 1_555
H31J C25J 1_555 1_555
H31H C25H 1_555 1_555
H32J C25J 1_555 1_555
H32H C25H 1_555 1_555
S1J C1J 1_555 1_555
S1H C1H 1_555 1_555
C4 S1 1_555 1_555
C18 C19 1_555 1_555
C4J S1J 1_555 1_555
C4H S1H 1_555 1_555
C8J C9J 1_555 1_555
C8J C18J 1_555 1_555
C9H C10J 1_555 1_555
C9H C10H 1_555 1_555
C10H C11H 1_555 1_555
C11J C18H 1_555 1_555
C18J C19J 1_555 1_555
C18H C19H 1_555 1_555

#END
