
#######################################################################
#
#                 Cambridge Crystallographic Data Centre
#                                CCDC 
#
#######################################################################
#
# If this CIF has been generated from an entry in the Cambridge 
# Structural Database, then it will include bibliographic, chemical, 
# crystal, experimental, refinement or atomic coordinate data resulting 
# from the CCDC's data processing and validation procedures.
#
#######################################################################

data_JOHJEX
_chemical_formula_moiety         'C24 H23 N3 O5'
_chemical_name_systematic        
'ethyl 3,3-dicyano-2-hydroxy-2-methyl-5-nitro-4,6-diphenylcyclohexanecarboxylate'
_symmetry_cell_setting           monoclinic
_symmetry_space_group_name_H-M   'P 21'
_symmetry_Int_Tables_number      4
_space_group_name_Hall           'P 2yb'
loop_
_symmetry_equiv_pos_site_id
_symmetry_equiv_pos_as_xyz
1 x,y,z
2 -x,1/2+y,-z
_cell_length_a                   8.5311(3)
_cell_length_b                   19.2561(8)
_cell_length_c                   13.4110(5)
_cell_angle_alpha                90
_cell_angle_beta                 93.333(2)
_cell_angle_gamma                90
_cell_volume                     2199.38
_exptl_crystal_colour            colorless
_exptl_crystal_description       irregular
_cell_formula_units_Z            4
loop_
_atom_site_label
_atom_site_type_symbol
_atom_site_fract_x
_atom_site_fract_y
_atom_site_fract_z
O1 O 0.57040(11) 0.48045(7) 0.30457(6)
C1 C 0.72256(14) 0.46534(9) 0.00452(9)
C2 C 0.72575(16) 0.40642(10) -0.18489(10)
C3 C 0.70895(15) 0.49471(9) 0.10922(9)
C4 C 1.00642(16) 0.61688(9) 0.37971(9)
C5 C 0.43551(15) 0.45205(9) 0.10107(8)
C6 C 0.81155(14) 0.57442(8) 0.24702(8)
C7 C 0.72633(17) 0.36405(9) -0.10127(10)
C8 C 0.81550(14) 0.55707(8) 0.13489(8)
C9 C 0.26113(17) 0.39839(9) -0.01924(10)
C10 C 0.93085(14) 0.62776(9) 0.28596(9)
C11 C 0.63026(15) 0.60967(9) 0.37647(9)
C12 C 0.59069(15) 0.65899(9) 0.21136(9)
C13 C 0.71991(16) 0.50744(9) -0.07977(9)
C14 C 1.07303(18) 0.73522(9) 0.27312(10)
C15 C 0.96433(16) 0.68755(9) 0.23270(9)
C16 C 0.53787(15) 0.51489(8) 0.12787(9)
C17 C 0.51931(15) 0.53474(9) 0.23917(9)
C18 C 1.11457(18) 0.66477(10) 0.41952(10)
C19 C 0.63794(15) 0.59536(9) 0.26778(9)
C20 C 0.72325(17) 0.47779(9) -0.17421(10)
C21 C 0.72693(16) 0.39377(9) -0.00685(10)
C22 C 1.14778(17) 0.72389(10) 0.36617(10)
C23 C 0.14030(17) 0.42264(10) -0.09716(11)
N1 N 0.98193(12) 0.53854(8) 0.11238(7)
N2 N 0.55270(15) 0.70624(9) 0.16466(9)
N3 N 0.62508(15) 0.61993(9) 0.46003(9)
O2 O 0.43967(11) 0.39987(8) 0.15185(7)
O3 O 1.03575(11) 0.48431(8) 0.14716(7)
O4 O 0.35086(10) 0.45964(7) 0.01627(6)
O5 O 1.05377(12) 0.57818(8) 0.06090(7)
C24 C 0.35204(17) 0.55579(9) 0.25767(11)
H1 H 0.8311(16) 0.5297(7) 0.2818(9)
H2 H 0.335(2) 0.3669(8) -0.0455(11)
H3 H 0.916(2) 0.6961(8) 0.1676(13)
H4 H 0.7426(16) 0.4580(7) 0.1543(10)
H5 H 0.722(2) 0.3130(10) -0.1087(13)
H6 H 0.214(2) 0.3771(8) 0.0375(12)
H7 H 0.5029(16) 0.5532(7) 0.0847(10)
H8 H 0.715(2) 0.5570(9) -0.0706(11)
H9 H 0.065(3) 0.4539(10) -0.0677(14)
H10 H 0.983(2) 0.5755(9) 0.4174(12)
H11 H 0.536(2) 0.4440(10) 0.2800(12)
H12 H 0.346(2) 0.5721(9) 0.3268(14)
H13 H 0.287(2) 0.5152(10) 0.2441(14)
H14 H 0.315(2) 0.5928(10) 0.2144(14)
H15 H 0.729(2) 0.3653(9) 0.0535(13)
H16 H 1.229(2) 0.7560(8) 0.3953(11)
H17 H 1.171(2) 0.6553(10) 0.4851(14)
H18 H 0.7233(19) 0.5084(8) -0.2288(12)
H19 H 0.728(2) 0.3851(9) -0.2494(13)
H20 H 0.7928(18) 0.5969(8) 0.0935(11)
H21 H 1.090(2) 0.7760(9) 0.2349(12)
H22 H 0.191(2) 0.4488(10) -0.1536(13)
H23 H 0.083(3) 0.382(6) -0.1224(14)
C25 C 0.16545(14) 0.22698(9) 0.21939(9)
C26 C 0.29554(14) 0.35008(9) 0.48972(9)
C27 C 0.12760(16) 0.16139(9) 0.27012(10)
C28 C 0.45810(15) 0.19645(9) 0.20376(9)
C29 C 0.08476(15) 0.30348(9) 0.36265(9)
C30 C 0.34124(15) 0.24809(8) 0.24311(8)
C31 C 0.30086(18) 0.33485(10) 0.66867(10)
C32 C 0.25840(15) 0.32493(8) 0.38356(8)
C33 C -0.01770(14) 0.36396(9) 0.39135(8)
C34 C 0.14263(15) 0.21681(9) 0.10950(9)
C35 C 0.26213(17) 0.31002(9) 0.57281(9)
C36 C 0.67782(16) 0.10649(9) 0.12547(10)
C37 C 0.36715(16) 0.41432(9) 0.50423(10)
C38 C -0.12106(16) 0.26354(9) 0.23075(11)
C39 C 0.62046(17) 0.16281(9) 0.06997(10)
C40 C 0.40699(18) 0.43834(10) 0.60025(11)
C41 C 0.62401(17) 0.09513(9) 0.22017(11)
C42 C 0.51263(16) 0.20763(9) 0.10904(9)
C43 C 0.51384(16) 0.13932(9) 0.25912(10)
C44 C -0.18406(18) 0.40810(9) 0.51169(10)
N4 N 0.53100(12) 0.28243(8) 0.38043(7)
N5 N 0.09823(16) 0.11256(9) 0.31281(10)
N6 N 0.13026(15) 0.21022(9) 0.02494(9)
O6 O 0.58251(10) 0.33388(7) 0.34001(6)
O7 O -0.09266(10) 0.35084(7) 0.47245(6)
O8 O -0.02484(12) 0.41807(7) 0.34491(7)
O9 O 0.60735(12) 0.24597(8) 0.43931(8)
C45 C 0.37371(17) 0.39873(10) 0.68194(10)
C46 C 0.04879(14) 0.28563(9) 0.25082(8)
O10 O 0.08596(11) 0.34188(7) 0.18793(6)
C47 C -0.0793(2) 0.45265(11) 0.57851(12)
C48 C 0.36198(14) 0.26322(8) 0.35572(8)
H24 H 0.2823(17) 0.3645(7) 0.3389(10)
H25 H 0.0600(17) 0.2632(7) 0.4028(10)
H26 H 0.407(2) 0.4141(9) 0.7505(13)
H27 H -0.233(2) 0.4320(9) 0.4566(13)
H28 H 0.4777(18) 0.1311(8) 0.3253(11)
H29 H 0.656(2) 0.1706(9) 0.0050(14)
H30 H 0.212(2) 0.2643(9) 0.5654(11)
H31 H 0.395(2) 0.4413(9) 0.4467(12)
H32 H -0.265(2) 0.3849(9) 0.5485(12)
H33 H -0.191(2) 0.3031(8) 0.2467(11)
H34 H 0.668(2) 0.0571(9) 0.2590(12)
H35 H -0.140(2) 0.4935(11) 0.6050(14)
H36 H 0.008(2) 0.4713(10) 0.5412(14)
H37 H -0.038(2) 0.4263(9) 0.6338(13)
H38 H 0.3442(17) 0.2245(8) 0.3934(10)
H39 H -0.139(2) 0.2272(9) 0.2755(12)
H40 H 0.057(2) 0.3781(10) 0.2127(14)
H41 H 0.755(2) 0.0773(9) 0.0969(12)
H42 H 0.477(2) 0.2493(8) 0.0706(11)
H43 H 0.273(2) 0.3074(9) 0.7253(14)
H44 H 0.3576(15) 0.2923(7) 0.2067(9)
H45 H 0.456(2) 0.4836(11) 0.6050(13)
H46 H -0.139(2) 0.2533(8) 0.1613(13)
loop_
_geom_bond_atom_site_label_1
_geom_bond_atom_site_label_2
_geom_bond_site_symmetry_1
_geom_bond_site_symmetry_2
O1 C17 1_555 1_555
C1 C3 1_555 1_555
C2 C7 1_555 1_555
C3 C8 1_555 1_555
C4 C10 1_555 1_555
C5 C16 1_555 1_555
C6 C8 1_555 1_555
C7 C21 1_555 1_555
C8 N1 1_555 1_555
C9 C23 1_555 1_555
C10 C6 1_555 1_555
C11 C19 1_555 1_555
C12 C19 1_555 1_555
C13 C1 1_555 1_555
C14 C15 1_555 1_555
C15 C10 1_555 1_555
C16 C3 1_555 1_555
C17 C16 1_555 1_555
C18 C4 1_555 1_555
C19 C6 1_555 1_555
C20 C2 1_555 1_555
C21 C1 1_555 1_555
C22 C14 1_555 1_555
C23 H9 1_555 1_555
N1 O3 1_555 1_555
N2 C12 1_555 1_555
N3 C11 1_555 1_555
O2 C5 1_555 1_555
O4 C5 1_555 1_555
O5 N1 1_555 1_555
C24 C17 1_555 1_555
H1 C6 1_555 1_555
H2 C9 1_555 1_555
H3 C15 1_555 1_555
H4 C3 1_555 1_555
H5 C7 1_555 1_555
H6 C9 1_555 1_555
H7 C16 1_555 1_555
H8 C13 1_555 1_555
H10 C4 1_555 1_555
H11 O1 1_555 1_555
H12 C24 1_555 1_555
H13 C24 1_555 1_555
H14 C24 1_555 1_555
H15 C21 1_555 1_555
H16 C22 1_555 1_555
H17 C18 1_555 1_555
H18 C20 1_555 1_555
H19 C2 1_555 1_555
H20 C8 1_555 1_555
H21 C14 1_555 1_555
H22 C23 1_555 1_555
H23 C23 1_555 1_555
C25 C27 1_555 1_555
C26 C32 1_555 1_555
C27 N5 1_555 1_555
C28 C30 1_555 1_555
C29 C32 1_555 1_555
C30 C25 1_555 1_555
C31 C35 1_555 1_555
C32 C48 1_555 1_555
C33 C29 1_555 1_555
C34 C25 1_555 1_555
C35 C26 1_555 1_555
C36 C39 1_555 1_555
C37 C26 1_555 1_555
C38 C46 1_555 1_555
C39 C42 1_555 1_555
C40 C37 1_555 1_555
C41 C36 1_555 1_555
C42 C28 1_555 1_555
C43 C28 1_555 1_555
C44 O7 1_555 1_555
N4 O6 1_555 1_555
N6 C34 1_555 1_555
O7 C33 1_555 1_555
O8 C33 1_555 1_555
O9 N4 1_555 1_555
C45 C31 1_555 1_555
C46 C25 1_555 1_555
O10 C46 1_555 1_555
C47 C44 1_555 1_555
C48 C30 1_555 1_555
H24 C32 1_555 1_555
H25 C29 1_555 1_555
H26 C45 1_555 1_555
H27 C44 1_555 1_555
H28 C43 1_555 1_555
H29 C39 1_555 1_555
H30 C35 1_555 1_555
H31 C37 1_555 1_555
H32 C44 1_555 1_555
H33 C38 1_555 1_555
H34 C41 1_555 1_555
H35 C47 1_555 1_555
H36 C47 1_555 1_555
H37 C47 1_555 1_555
H38 C48 1_555 1_555
H39 C38 1_555 1_555
H40 O10 1_555 1_555
H41 C36 1_555 1_555
H42 C42 1_555 1_555
H43 C31 1_555 1_555
H44 C30 1_555 1_555
H45 C40 1_555 1_555
H46 C38 1_555 1_555
C9 O4 1_555 1_555
C13 C20 1_555 1_555
C17 C19 1_555 1_555
C18 C22 1_555 1_555
C29 C46 1_555 1_555
C40 C45 1_555 1_555
C41 C43 1_555 1_555
N4 C48 1_555 1_555

#END
