
#######################################################################
#
#                 Cambridge Crystallographic Data Centre
#                                CCDC 
#
#######################################################################
#
# If this CIF has been generated from an entry in the Cambridge 
# Structural Database, then it will include bibliographic, chemical, 
# crystal, experimental, refinement or atomic coordinate data resulting 
# from the CCDC's data processing and validation procedures.
#
#######################################################################

data_JOHXIP
_chemical_formula_moiety         'C28 H26 B2 N4'
_chemical_name_systematic        
1,1''-dimethyl-1,1'',4,12''-tetrahydrodispiro[1,4-benzazaborinine-4,6'-dipyrido[2,1-c:2',1'-f][1,4,2,5]diazadiborinine-12',4''-[1,4]benzazaborinine]
_symmetry_cell_setting           monoclinic
_symmetry_space_group_name_H-M   'P 21/n'
_symmetry_Int_Tables_number      14
_space_group_name_Hall           '-P 2yn'
loop_
_symmetry_equiv_pos_site_id
_symmetry_equiv_pos_as_xyz
1 x,y,z
2 1/2-x,1/2+y,1/2-z
3 -x,-y,-z
4 1/2+x,1/2-y,1/2+z
_cell_length_a                   8.690(8)
_cell_length_b                   8.007(7)
_cell_length_c                   16.614(14)
_cell_angle_alpha                90
_cell_angle_beta                 104.502(15)
_cell_angle_gamma                90
_cell_volume                     1119.18
_exptl_crystal_colour            yellow
_exptl_crystal_description       block
_cell_formula_units_Z            2
_chemical_properties_physical    'air- and moisture-sensitive'
loop_
_atom_site_label
_atom_site_type_symbol
_atom_site_fract_x
_atom_site_fract_y
_atom_site_fract_z
N1 N 1.00797(17) 0.30874(19) 0.25965(8)
N2 N 1.07195(16) 0.33345(18) 0.02754(9)
B1 B 1.0215(2) 0.4533(2) 0.09556(12)
C1 C 1.1572(2) 0.4629(2) 0.17937(11)
C2 C 1.1418(2) 0.3931(2) 0.24936(11)
C3 C 0.86821(19) 0.3044(2) 0.19588(9)
C4 C 0.86597(19) 0.37238(19) 0.11708(9)
C5 C 0.7202(2) 0.3668(2) 0.05761(11)
C6 C 0.5841(2) 0.2971(2) 0.07203(12)
C7 C 0.5911(2) 0.2282(2) 0.14928(12)
C8 C 0.7308(2) 0.2320(2) 0.21056(12)
C9 C 1.0060(3) 0.2490(3) 0.34200(12)
C10 C 1.0613(2) 0.2434(2) -0.10908(12)
C11 C 1.1363(2) 0.0963(2) -0.08097(14)
C12 C 1.1835(2) 0.0685(2) 0.00361(14)
C13 C 1.1482(2) 0.1853(2) 0.05614(13)
H1 H 1.258(2) 0.517(2) 0.1814(11)
H2 H 1.226(2) 0.393(2) 0.3011(11)
H3 H 0.7182(18) 0.412(2) 0.0048(10)
H4 H 0.482(2) 0.299(2) 0.0273(11)
H5 H 0.497(2) 0.177(2) 0.1626(12)
H6 H 0.7362(19) 0.180(2) 0.2655(10)
H7 H 0.973(3) 0.126(3) 0.3386(13)
H8 H 1.117(3) 0.261(3) 0.3766(13)
H9 H 0.930(2) 0.322(3) 0.3677(12)
H10 H 1.025(2) 0.274(2) -0.1667(12)
H11 H 1.155(2) 0.018(3) -0.1204(12)
H12 H 1.240(2) -0.038(3) 0.0271(13)
H13 H 1.177(2) 0.169(2) 0.1192(12)
C14 C 0.96806(16) 0.63521(18) 0.05580(9)
N1B N 0.99203(17) 0.69126(19) -0.25965(8)
N2B N 0.92805(16) 0.66655(18) -0.02754(9)
B1B B 0.9785(2) 0.5467(2) -0.09556(12)
C1B C 0.8428(2) 0.5371(2) -0.17937(11)
C2B C 0.8582(2) 0.6069(2) -0.24936(11)
C3B C 1.13179(19) 0.6956(2) -0.19588(9)
C4B C 1.13403(19) 0.62762(19) -0.11708(9)
C5B C 1.2798(2) 0.6332(2) -0.05761(11)
C6B C 1.4159(2) 0.7029(2) -0.07203(12)
C7B C 1.4089(2) 0.7718(2) -0.14928(12)
C8B C 1.2692(2) 0.7680(2) -0.21056(12)
C9B C 0.9940(3) 0.7510(3) -0.34200(12)
C10B C 0.9387(2) 0.7566(2) 0.10908(12)
C11B C 0.8637(2) 0.9037(2) 0.08097(14)
C12B C 0.8165(2) 0.9315(2) -0.00361(14)
C13B C 0.8518(2) 0.8147(2) -0.05614(13)
H1B H 0.742(2) 0.483(2) -0.1814(11)
H2B H 0.774(2) 0.607(2) -0.3011(11)
H3B H 1.2818(18) 0.588(2) -0.0048(10)
H4B H 1.518(2) 0.701(2) -0.0273(11)
H5B H 1.503(2) 0.823(2) -0.1626(12)
H6B H 1.2638(19) 0.820(2) -0.2655(10)
H7B H 1.027(3) 0.874(3) -0.3386(13)
H8B H 0.883(3) 0.739(3) -0.3766(13)
H9B H 1.070(2) 0.678(3) -0.3677(12)
H10B H 0.975(2) 0.726(2) 0.1667(12)
H11B H 0.845(2) 0.982(3) 0.1204(12)
H12B H 0.760(2) 1.038(3) -0.0271(13)
H13B H 0.823(2) 0.831(2) -0.1192(12)
C14B C 1.03194(16) 0.36479(18) -0.05580(9)
C15? C 0.92805(16) 0.66655(18) -0.02754(9)
N3? N 0.96806(16) 0.63521(18) 0.05580(9)
loop_
_geom_bond_atom_site_label_1
_geom_bond_atom_site_label_2
_geom_bond_site_symmetry_1
_geom_bond_site_symmetry_2
N1 C2 1_555 1_555
N2 B1 1_555 1_555
B1 C1 1_555 1_555
C1 C2 1_555 1_555
C2 H2 1_555 1_555
C3 N1 1_555 1_555
C4 B1 1_555 1_555
C5 C4 1_555 1_555
C6 C5 1_555 1_555
C7 C6 1_555 1_555
C8 C3 1_555 1_555
C9 N1 1_555 1_555
C10 C11 1_555 1_555
C11 C12 1_555 1_555
C12 C13 1_555 1_555
C13 N2 1_555 1_555
H1 C1 1_555 1_555
H3 C5 1_555 1_555
H4 C6 1_555 1_555
H5 C7 1_555 1_555
H6 C8 1_555 1_555
H7 C9 1_555 1_555
H8 C9 1_555 1_555
H9 C9 1_555 1_555
H10 C10 1_555 1_555
H11 C11 1_555 1_555
H12 C12 1_555 1_555
H13 C13 1_555 1_555
C14 B1 1_555 1_555
N1B C2B 1_555 1_555
N2B C14 1_555 1_555
B1B N2B 1_555 1_555
C1B B1B 1_555 1_555
C2B C1B 1_555 1_555
C3B N1B 1_555 1_555
C4B B1B 1_555 1_555
C5B C4B 1_555 1_555
C6B C5B 1_555 1_555
C7B C6B 1_555 1_555
C8B C3B 1_555 1_555
C9B N1B 1_555 1_555
C10B C14 1_555 1_555
C11B C10B 1_555 1_555
C12B C11B 1_555 1_555
C13B N2B 1_555 1_555
H1B C1B 1_555 1_555
H2B C2B 1_555 1_555
H3B C5B 1_555 1_555
H4B C6B 1_555 1_555
H5B C7B 1_555 1_555
H6B C8B 1_555 1_555
H7B C9B 1_555 1_555
H8B C9B 1_555 1_555
H9B C9B 1_555 1_555
H10B C10B 1_555 1_555
H11B C11B 1_555 1_555
H12B C12B 1_555 1_555
H13B C13B 1_555 1_555
C14B N2 1_555 1_555
C3 C4 1_555 1_555
C7 C8 1_555 1_555
C10 C14B 1_555 1_555
B1B C14B 1_555 1_555
C3B C4B 1_555 1_555
C7B C8B 1_555 1_555
C12B C13B 1_555 1_555

#END
