
#######################################################################
#
#                 Cambridge Crystallographic Data Centre
#                                CCDC 
#
#######################################################################
#
# If this CIF has been generated from an entry in the Cambridge 
# Structural Database, then it will include bibliographic, chemical, 
# crystal, experimental, refinement or atomic coordinate data resulting 
# from the CCDC's data processing and validation procedures.
#
#######################################################################

data_JOJXEM
_chemical_formula_moiety         'C21 H14 O1'
_chemical_name_systematic        2-(9H-Fluoren-9-ylidene)-1-phenylethanone
_symmetry_cell_setting           monoclinic
_symmetry_space_group_name_H-M   'P 21/c'
_symmetry_Int_Tables_number      14
_space_group_name_Hall           '-P 2ybc'
loop_
_symmetry_equiv_pos_site_id
_symmetry_equiv_pos_as_xyz
1 x,y,z
2 -x,1/2+y,1/2-z
3 -x,-y,-z
4 x,1/2-y,1/2+z
_cell_length_a                   8.8665(8)
_cell_length_b                   16.4000(14)
_cell_length_c                   10.0460(9)
_cell_angle_alpha                90
_cell_angle_beta                 103.9660(10)
_cell_angle_gamma                90
_cell_volume                     1417.61
_exptl_crystal_colour            yellow
_exptl_crystal_description       block
_cell_formula_units_Z            4
_exptl_crystal_recrystallization_method 'diethyl ether/pentane'
loop_
_atom_site_label
_atom_site_type_symbol
_atom_site_fract_x
_atom_site_fract_y
_atom_site_fract_z
C1 C -0.10801(14) 0.34856(8) 0.70458(12)
H1 H -0.0409(17) 0.3013(9) 0.7281(14)
C2 C -0.18803(14) 0.37786(8) 0.79806(13)
H2 H -0.1747(17) 0.3504(9) 0.8852(15)
C3 C -0.28868(14) 0.44381(8) 0.76608(13)
H3 H -0.3476(17) 0.4633(9) 0.8334(15)
C4 C -0.30971(14) 0.48271(8) 0.63966(12)
H4 H -0.3822(17) 0.5295(9) 0.6155(14)
C5 C -0.22871(13) 0.45438(7) 0.54683(12)
C6 C -0.22694(13) 0.48445(7) 0.40960(11)
C7 C -0.30558(14) 0.54882(7) 0.33330(12)
H5 H -0.3776(15) 0.5830(8) 0.3688(13)
C8 C -0.28079(14) 0.56373(7) 0.20405(13)
H6 H -0.3345(16) 0.6082(9) 0.1505(14)
C9 C -0.17880(14) 0.51540(8) 0.15215(12)
H7 H -0.1622(16) 0.5272(8) 0.0614(14)
C10 C -0.09963(13) 0.45086(7) 0.22846(12)
H8 H -0.0291(16) 0.4175(8) 0.1915(13)
C11 C -0.12487(13) 0.43557(7) 0.35755(12)
C12 C -0.05847(13) 0.37158(7) 0.45950(11)
C13 C -0.12805(13) 0.38665(7) 0.57818(12)
C14 C 0.04777(13) 0.31748(7) 0.43861(12)
H9 H 0.0832(15) 0.3226(8) 0.3549(14)
C15 C 0.12074(14) 0.25030(7) 0.53024(12)
O1 O 0.04795(10) 0.21096(5) 0.59766(9)
C16 C 0.28710(14) 0.23022(7) 0.53842(11)
C17 C 0.37859(14) 0.27534(7) 0.47045(13)
H10 H 0.3336(16) 0.3206(9) 0.4130(14)
C18 C 0.53448(15) 0.25648(8) 0.48594(14)
H11 H 0.5981(18) 0.2888(9) 0.4363(15)
C19 C 0.60039(15) 0.19239(8) 0.57000(13)
H12 H 0.7121(18) 0.1806(9) 0.5818(15)
C20 C 0.50983(15) 0.14591(8) 0.63611(13)
H13 H 0.5565(17) 0.0995(9) 0.6944(15)
C21 C 0.35444(15) 0.16457(7) 0.62082(12)
H14 H 0.2886(16) 0.1310(9) 0.6670(14)
loop_
_geom_bond_atom_site_label_1
_geom_bond_atom_site_label_2
_geom_bond_site_symmetry_1
_geom_bond_site_symmetry_2
C1 H1 1_555 1_555
C2 C1 1_555 1_555
H2 C2 1_555 1_555
C3 C2 1_555 1_555
H3 C3 1_555 1_555
C4 C3 1_555 1_555
H4 C4 1_555 1_555
C5 C4 1_555 1_555
C6 C5 1_555 1_555
C7 C6 1_555 1_555
H5 C7 1_555 1_555
C8 C7 1_555 1_555
H6 C8 1_555 1_555
C9 C8 1_555 1_555
H7 C9 1_555 1_555
C10 C9 1_555 1_555
H8 C10 1_555 1_555
C11 C6 1_555 1_555
C12 C11 1_555 1_555
C13 C1 1_555 1_555
C14 C12 1_555 1_555
H9 C14 1_555 1_555
C15 C14 1_555 1_555
O1 C15 1_555 1_555
C16 C15 1_555 1_555
C17 C16 1_555 1_555
H10 C17 1_555 1_555
C18 C17 1_555 1_555
H11 C18 1_555 1_555
C19 C18 1_555 1_555
H12 C19 1_555 1_555
C20 C19 1_555 1_555
H13 C20 1_555 1_555
C21 C16 1_555 1_555
H14 C21 1_555 1_555
C5 C13 1_555 1_555
C10 C11 1_555 1_555
C12 C13 1_555 1_555
C20 C21 1_555 1_555

#END
