
#######################################################################
#
#                 Cambridge Crystallographic Data Centre
#                                CCDC 
#
#######################################################################
#
# If this CIF has been generated from an entry in the Cambridge 
# Structural Database, then it will include bibliographic, chemical, 
# crystal, experimental, refinement or atomic coordinate data resulting 
# from the CCDC's data processing and validation procedures.
#
#######################################################################

data_JOJZAL
_chemical_formula_moiety         'C3 H5 N2 1+,I1 O4 1-'
_chemical_name_systematic        '1H-Imidazol-3-ium periodate'
_symmetry_cell_setting           monoclinic
_symmetry_space_group_name_H-M   'P 21'
_symmetry_Int_Tables_number      4
_space_group_name_Hall           'P 2yb'
loop_
_symmetry_equiv_pos_site_id
_symmetry_equiv_pos_as_xyz
1 x,y,z
2 -x,1/2+y,-z
_cell_length_a                   5.1173(4)
_cell_length_b                   12.2494(2)
_cell_length_c                   5.5464(8)
_cell_angle_alpha                90
_cell_angle_beta                 94.75
_cell_angle_gamma                90
_cell_volume                     346.476
_exptl_crystal_colour            colorless
_exptl_crystal_description       block
_cell_formula_units_Z            2
loop_
_atom_site_label
_atom_site_type_symbol
_atom_site_fract_x
_atom_site_fract_y
_atom_site_fract_z
C1 C 0.382(3) -0.0120(11) 0.642(2)
H1 H 0.2973 -0.0258 0.7804
N1 N 0.648(3) -0.0193(8) 0.355(2)
H2 H 0.7729 -0.0398 0.2701
N2 N 0.3219(16) 0.0679(7) 0.4675(19)
H3 H 0.1973 0.1149 0.4704
C2 C 0.585(2) -0.0634(11) 0.567(3)
H4 H 0.6730 -0.1211 0.6480
C3 C 0.482(2) 0.0603(8) 0.3013(16)
H5 H 0.4806 0.1045 0.1647
I1 I 0.85828(6) 0.25005(17) 0.84467(5)
O1 O 0.9805(18) 0.3779(7) 0.9369(15)
O2 O 0.9207(12) 0.2305(7) 0.5384(9)
O3 O 0.5160(8) 0.2487(11) 0.8714(9)
O4 O 1.0027(19) 0.1407(8) 1.0219(13)
loop_
_geom_bond_atom_site_label_1
_geom_bond_atom_site_label_2
_geom_bond_site_symmetry_1
_geom_bond_site_symmetry_2
C1 H1 1_555 1_555
N1 H2 1_555 1_555
N2 C1 1_555 1_555
H3 N2 1_555 1_555
C2 C1 1_555 1_555
H4 C2 1_555 1_555
C3 N1 1_555 1_555
H5 C3 1_555 1_555
I1 O1 1_555 1_555
O2 I1 1_555 1_555
O3 I1 1_555 1_555
O4 I1 1_555 1_555
N1 C2 1_555 1_555
N2 C3 1_555 1_555

#END
