
#######################################################################
#
#                 Cambridge Crystallographic Data Centre
#                                CCDC 
#
#######################################################################
#
# If this CIF has been generated from an entry in the Cambridge 
# Structural Database, then it will include bibliographic, chemical, 
# crystal, experimental, refinement or atomic coordinate data resulting 
# from the CCDC's data processing and validation procedures.
#
#######################################################################

data_JOKLOM
_chemical_formula_moiety         '2(C19 H20 N2 O2),C1 H4 O1,H2 O1'
_chemical_name_systematic        
'4,16-cyclocoryn-19-en-4-ium-17-oate methanol solvate monohydrate'
_symmetry_cell_setting           triclinic
_symmetry_space_group_name_H-M   'P 1'
_symmetry_Int_Tables_number      1
_space_group_name_Hall           'P 1'
loop_
_symmetry_equiv_pos_site_id
_symmetry_equiv_pos_as_xyz
1 x,y,z
_cell_length_a                   8.8460(6)
_cell_length_b                   9.6866(6)
_cell_length_c                   10.3165(6)
_cell_angle_alpha                99.952(5)
_cell_angle_beta                 92.362(5)
_cell_angle_gamma                96.435(6)
_cell_volume                     863.55
_cell_formula_units_Z            1
loop_
_atom_site_label
_atom_site_type_symbol
_atom_site_fract_x
_atom_site_fract_y
_atom_site_fract_z
O1 O 0.46307(18) 0.60968(15) 0.13206(16)
O2 O 0.50190(19) 0.84543(15) 0.16254(16)
N1 N 0.53142(18) 0.60832(16) 0.40491(16)
C1 C 0.4927(2) 0.7282(2) 0.2012(2)
N2 N 0.42352(18) 0.73767(17) 0.75055(17)
H1 H 0.5015 0.7731 0.8031
C2 C 0.2730(2) 0.7311(2) 0.7827(2)
C3 C 0.6735(2) 0.5546(2) 0.3467(2)
H2 H 0.7179 0.4949 0.4006
H3 H 0.6513 0.5023 0.2577
C4 C 0.4270(2) 0.67776(19) 0.6201(2)
C5 C 0.5241(2) 0.74516(19) 0.3511(2)
H4 H 0.4496 0.8002 0.3973
C6 C 0.7778(2) 0.6902(2) 0.3481(2)
C7 C 0.1819(2) 0.6684(2) 0.6674(2)
C8 C 0.2835(2) 0.6341(2) 0.5655(2)
C9 C 0.6863(2) 0.8077(2) 0.4042(2)
H5 H 0.7206 0.9002 0.3824
C10 C 0.6748(2) 0.8060(2) 0.5524(2)
H6 H 0.6275 0.8859 0.5955
H7 H 0.7743 0.8066 0.5958
C11 C 0.5723(2) 0.6642(2) 0.5522(2)
H8 H 0.6307 0.5987 0.5896
C12 C 0.2107(2) 0.7713(2) 0.9033(2)
H9 H 0.2722 0.8097 0.9791
C13 C 0.2525(2) 0.5585(2) 0.4260(2)
H10 H 0.2234 0.6236 0.3705
H11 H 0.1692 0.4833 0.4212
C14 C 0.0543(3) 0.7519(2) 0.9056(3)
H12 H 0.0094 0.7786 0.9845
C15 C 0.3954(2) 0.4973(2) 0.3776(2)
H13 H 0.4128 0.4192 0.4216
H14 H 0.3814 0.4613 0.2836
C16 C 0.0223(2) 0.6498(2) 0.6732(2)
H15 H -0.0401 0.6093 0.5985
C17 C -0.0394(2) 0.6926(2) 0.7914(2)
H16 H -0.1447 0.6822 0.7961
C18 C 0.9172(2) 0.6967(2) 0.3063(2)
H17 H 0.9526 0.6115 0.2729
C19 C 1.0238(3) 0.8292(3) 0.3079(3)
H18 H 1.0949 0.8439 0.3832
H19 H 0.9663 0.9081 0.3127
H20 H 1.0781 0.8202 0.2288
O3 O 0.5026(2) 0.09097(17) 0.54544(17)
O4 O 0.5490(2) 0.32720(17) 0.58343(17)
N3 N 0.48325(18) 0.34234(16) 0.85547(17)
N4 N 0.61126(19) 0.23283(17) 1.17086(18)
H21 H 0.5365 0.2008 1.2123
C20 C 0.6163(2) 0.4559(2) 0.8659(2)
H22 H 0.5994 0.5358 0.9323
H23 H 0.6248 0.4881 0.7823
C21 C 0.3369(2) 0.3889(2) 0.8052(2)
H24 H 0.3538 0.4362 0.7306
H25 H 0.2936 0.4512 0.8740
C22 C 0.5166(3) 0.2107(2) 0.6166(2)
C23 C 0.4509(2) 0.2941(2) 0.9873(2)
H26 H 0.3923 0.3602 1.0409
C24 C 0.4911(2) 0.20206(19) 0.7623(2)
H27 H 0.5695 0.1519 0.7969
C25 C 0.2356(2) 0.2494(2) 0.7648(2)
C26 C 0.7640(2) 0.2376(2) 1.2064(2)
C27 C 0.5999(2) 0.28816(19) 1.0578(2)
C28 C 0.7409(2) 0.3308(2) 1.0191(2)
C29 C 0.3334(2) 0.1371(2) 0.7921(2)
H28 H 0.3003 0.0419 0.7428
C30 C 0.3524(2) 0.1483(2) 0.9431(2)
H29 H 0.4045 0.0723 0.9664
H30 H 0.2545 0.1468 0.9823
C31 C 0.8489(2) 0.2964(2) 1.1128(2)
C32 C 1.0091(3) 0.3049(2) 1.1223(2)
H31 H 1.0674 0.3431 1.0612
C33 C 1.0772(3) 0.2550(2) 1.2244(3)
H32 H 1.1824 0.2549 1.2295
C34 C 0.7636(2) 0.4007(2) 0.9027(2)
H33 H 0.7916 0.3336 0.8291
H34 H 0.8452 0.4782 0.9234
C35 C 0.8330(3) 0.1949(2) 1.3144(2)
H35 H 0.7761 0.1618 1.3790
C36 C 0.0929(3) 0.2344(3) 0.7160(2)
H36 H 0.0516 0.3161 0.7054
C37 C 0.9905(3) 0.2042(2) 1.3209(3)
H37 H 1.0403 0.1759 1.3912
C38 C -0.0080(3) 0.0972(3) 0.6765(3)
H38 H -0.0945 0.0972 0.7296
H39 H 0.0480 0.0207 0.6891
H40 H -0.0421 0.0859 0.5853
O5 O 0.65918(18) 0.82164(18) 0.94452(17)
H41 H 0.6000 0.8246 1.0038
C39 C 0.7531(3) 0.9510(2) 0.9596(3)
H42 H 0.8143 0.9655 1.0410
H43 H 0.6911 1.0263 0.9607
H44 H 0.8183 0.9495 0.8874
O6 O 0.39240(18) 0.08623(16) 0.29415(16)
H45 H 0.4269 0.0119 0.2569
H46 H 0.3176 0.1025 0.2470
loop_
_geom_bond_atom_site_label_1
_geom_bond_atom_site_label_2
_geom_bond_site_symmetry_1
_geom_bond_site_symmetry_2
O1 C1 1_555 1_555
O2 C1 1_555 1_555
N1 C3 1_555 1_555
C1 C5 1_555 1_555
N2 H1 1_555 1_555
C2 N2 1_555 1_555
C3 H2 1_555 1_555
H3 C3 1_555 1_555
C4 N2 1_555 1_555
C5 N1 1_555 1_555
H4 C5 1_555 1_555
C6 C3 1_555 1_555
C7 C2 1_555 1_555
C8 C4 1_555 1_555
C9 C5 1_555 1_555
H5 C9 1_555 1_555
C10 C9 1_555 1_555
H6 C10 1_555 1_555
H7 C10 1_555 1_555
C11 N1 1_555 1_555
H8 C11 1_555 1_555
C12 C2 1_555 1_555
H9 C12 1_555 1_555
C13 C8 1_555 1_555
H10 C13 1_555 1_555
H11 C13 1_555 1_555
C14 C12 1_555 1_555
H12 C14 1_555 1_555
C15 N1 1_555 1_555
H13 C15 1_555 1_555
H14 C15 1_555 1_555
C16 C7 1_555 1_555
H15 C16 1_555 1_555
C17 C14 1_555 1_555
H16 C17 1_555 1_555
C18 C6 1_555 1_555
H17 C18 1_555 1_555
C19 C18 1_555 1_555
H18 C19 1_555 1_555
H19 C19 1_555 1_555
H20 C19 1_555 1_555
O3 C22 1_555 1_555
O4 C22 1_555 1_555
N3 C20 1_555 1_555
N4 H21 1_555 1_555
C20 H22 1_555 1_555
H23 C20 1_555 1_555
C21 N3 1_555 1_555
H24 C21 1_555 1_555
H25 C21 1_555 1_555
C22 C24 1_555 1_555
C23 N3 1_555 1_555
H26 C23 1_555 1_555
C24 N3 1_555 1_555
H27 C24 1_555 1_555
C25 C21 1_555 1_555
C26 N4 1_555 1_555
C27 N4 1_555 1_555
C28 C27 1_555 1_555
C29 C24 1_555 1_555
H28 C29 1_555 1_555
C30 C23 1_555 1_555
H29 C30 1_555 1_555
H30 C30 1_555 1_555
C31 C26 1_555 1_555
C32 C31 1_555 1_555
H31 C32 1_555 1_555
C33 C32 1_555 1_555
H32 C33 1_555 1_555
C34 C20 1_555 1_555
H33 C34 1_555 1_555
H34 C34 1_555 1_555
C35 C26 1_555 1_555
H35 C35 1_555 1_555
C36 C25 1_555 1_555
H36 C36 1_555 1_555
C37 C33 1_555 1_555
H37 C37 1_555 1_555
C38 C36 1_555 1_555
H38 C38 1_555 1_555
H39 C38 1_555 1_555
H40 C38 1_555 1_555
O5 H41 1_555 1_555
C39 O5 1_555 1_555
H42 C39 1_555 1_555
H43 C39 1_555 1_555
H44 C39 1_555 1_555
O6 H45 1_555 1_555
H46 O6 1_555 1_555
C4 C11 1_555 1_555
C6 C9 1_555 1_555
C7 C8 1_555 1_555
C10 C11 1_555 1_555
C13 C15 1_555 1_555
C16 C17 1_555 1_555
C23 C27 1_555 1_555
C25 C29 1_555 1_555
C28 C31 1_555 1_555
C28 C34 1_555 1_555
C29 C30 1_555 1_555
C35 C37 1_555 1_555

#END
