
#######################################################################
#
#                 Cambridge Crystallographic Data Centre
#                                CCDC 
#
#######################################################################
#
# If this CIF has been generated from an entry in the Cambridge 
# Structural Database, then it will include bibliographic, chemical, 
# crystal, experimental, refinement or atomic coordinate data resulting 
# from the CCDC's data processing and validation procedures.
#
#######################################################################

data_JOPKOO
_chemical_formula_moiety         'C24 H28 O2'
_chemical_name_systematic        
2,8-Dimethoxy-cis-5,11-diethyl-5,6,11,12-tetrahydrochrysene
_symmetry_cell_setting           orthorhombic
_symmetry_space_group_name_H-M   'P 21 21 21'
_symmetry_Int_Tables_number      19
_space_group_name_Hall           'P 2ac 2ab'
loop_
_symmetry_equiv_pos_site_id
_symmetry_equiv_pos_as_xyz
1 x,y,z
2 1/2+x,1/2-y,-z
3 -x,1/2+y,1/2-z
4 1/2-x,-y,1/2+z
_cell_length_a                   9.061(1)
_cell_length_b                   11.741(2)
_cell_length_c                   18.735(3)
_cell_angle_alpha                90
_cell_angle_beta                 90
_cell_angle_gamma                90
_cell_volume                     1993.13
_exptl_crystal_colour            colorless
_chemical_melting_point          104-107deg.C
_cell_formula_units_Z            4
loop_
_atom_site_label
_atom_site_type_symbol
_atom_site_fract_x
_atom_site_fract_y
_atom_site_fract_z
H1 H 0.3366 0.8539 0.5145
H2 H 0.3551 1.0207 0.4466
H3 H 0.3136 0.8301 0.2659
H4 H 0.4067 0.5911 0.3205
H5 H 0.2657 0.6253 0.2771
H6 H 0.2290 0.4612 0.3481
H7 H 0.4325 0.6963 0.5637
H8 H 0.5223 0.5255 0.5484
H9 H 0.4461 0.5308 0.6235
H10 H 0.1168 0.3414 0.4256
H11 H 0.0950 0.1835 0.4999
H12 H 0.3738 0.3318 0.6408
H13 H 0.0343 0.6411 0.3734
H14 H -0.0011 0.5166 0.3983
H15 H -0.1191 0.5538 0.2912
H16 H -0.0023 0.4569 0.2802
H17 H 0.0331 0.5814 0.2554
H18 H 0.1792 0.7355 0.5794
H19 H 0.1516 0.6050 0.5913
H20 H 0.1625 0.6978 0.7027
H21 H 0.3216 0.7420 0.6849
H22 H 0.2940 0.6116 0.6968
H23 H 0.3948 1.1937 0.2978
H24 H 0.4771 1.1323 0.3605
H25 H 0.3076 1.1573 0.3665
H26 H 0.1405 0.0149 0.6500
H27 H 0.1629 0.0322 0.5678
H28 H 0.0367 0.0976 0.6077
C1 C 0.334(1) 0.849(1) 0.4634(6)
C2 C 0.345(1) 0.948(1) 0.4238(6)
C3 C 0.339(1) 0.939(1) 0.3493(6)
C4 C 0.321(1) 0.835(1) 0.3169(6)
C5 C 0.313(1) 0.740(1) 0.3570(5)
C6 C 0.308(1) 0.620(1) 0.3240(6)
C7 C 0.216(1) 0.536(1) 0.3678(5)
C8 C 0.270(1) 0.537(1) 0.4447(5)
C9 C 0.318(1) 0.636(1) 0.4738(6)
C10 C 0.322(1) 0.746(1) 0.4333(5)
C11 C 0.361(1) 0.638(1) 0.5536(5)
C12 C 0.430(1) 0.5315(10) 0.5729(5)
C13 C 0.336(1) 0.432(1) 0.5535(5)
C14 C 0.257(1) 0.4374(10) 0.4881(5)
C15 C 0.170(1) 0.341(1) 0.4700(6)
C16 C 0.158(1) 0.246(1) 0.5133(6)
C17 C 0.238(1) 0.242(1) 0.5762(6)
C18 C 0.323(1) 0.334(1) 0.5960(6)
C19 C 0.049(1) 0.562(1) 0.3632(6)
C20 C -0.016(2) 0.536(1) 0.2909(6)
C21 C 0.221(1) 0.666(1) 0.5973(6)
C22 C 0.253(2) 0.681(2) 0.6781(7)
O1 O 0.356(1) 1.0350(8) 0.3044(4)
C23 C 0.386(2) 1.137(1) 0.3345(8)
O2 O 0.2310(10) 0.1576(7) 0.6250(4)
C24 C 0.136(2) 0.069(1) 0.6116(7)
loop_
_geom_bond_atom_site_label_1
_geom_bond_atom_site_label_2
_geom_bond_site_symmetry_1
_geom_bond_site_symmetry_2
H1 C1 1_555 1_555
H2 C2 1_555 1_555
H3 C4 1_555 1_555
H4 C6 1_555 1_555
H5 C6 1_555 1_555
H6 C7 1_555 1_555
H7 C11 1_555 1_555
H8 C12 1_555 1_555
H9 C12 1_555 1_555
H10 C15 1_555 1_555
H11 C16 1_555 1_555
H12 C18 1_555 1_555
H13 C19 1_555 1_555
H14 C19 1_555 1_555
H15 C20 1_555 1_555
H16 C20 1_555 1_555
H17 C20 1_555 1_555
H18 C21 1_555 1_555
H19 C21 1_555 1_555
H20 C22 1_555 1_555
H21 C22 1_555 1_555
H22 C22 1_555 1_555
H23 C23 1_555 1_555
H24 C23 1_555 1_555
H25 C23 1_555 1_555
H26 C24 1_555 1_555
H27 C24 1_555 1_555
H28 C24 1_555 1_555
C1 C2 1_555 1_555
C2 C3 1_555 1_555
C3 C4 1_555 1_555
C4 C5 1_555 1_555
C5 C6 1_555 1_555
C6 C7 1_555 1_555
C7 C8 1_555 1_555
C8 C9 1_555 1_555
C9 C10 1_555 1_555
C10 C1 1_555 1_555
C11 C9 1_555 1_555
C12 C11 1_555 1_555
C13 C12 1_555 1_555
C14 C8 1_555 1_555
C15 C14 1_555 1_555
C16 C15 1_555 1_555
C17 C16 1_555 1_555
C18 C13 1_555 1_555
C19 C7 1_555 1_555
C20 C19 1_555 1_555
C21 C11 1_555 1_555
C22 C21 1_555 1_555
O1 C3 1_555 1_555
C23 O1 1_555 1_555
O2 C17 1_555 1_555
C24 O2 1_555 1_555
C5 C10 1_555 1_555
C13 C14 1_555 1_555
C17 C18 1_555 1_555

#END
