
#######################################################################
#
#                 Cambridge Crystallographic Data Centre
#                                CCDC 
#
#######################################################################
#
# If this CIF has been generated from an entry in the Cambridge 
# Structural Database, then it will include bibliographic, chemical, 
# crystal, experimental, refinement or atomic coordinate data resulting 
# from the CCDC's data processing and validation procedures.
#
#######################################################################

data_JOPPIN
_chemical_formula_moiety         'C20 H14 N4 S1,C1 H1 Cl3'
_chemical_name_systematic        'Stelletamine chloroform solvate'
_symmetry_cell_setting           monoclinic
_symmetry_space_group_name_H-M   'P 21/c'
_symmetry_Int_Tables_number      14
_space_group_name_Hall           '-P 2ybc'
loop_
_symmetry_equiv_pos_site_id
_symmetry_equiv_pos_as_xyz
1 x,y,z
2 -x,1/2+y,1/2-z
3 -x,-y,-z
4 x,1/2-y,1/2+z
_cell_length_a                   13.812(3)
_cell_length_b                   12.638(4)
_cell_length_c                   11.987(3)
_cell_angle_alpha                90
_cell_angle_beta                 106.567(15)
_cell_angle_gamma                90
_cell_volume                     2005.54
_exptl_crystal_colour            'dark brown'
_chemical_melting_point          280-282deg.C
_cell_formula_units_Z            4
loop_
_atom_site_label
_atom_site_type_symbol
_atom_site_fract_x
_atom_site_fract_y
_atom_site_fract_z
N1 N 0.2749(2) 0.3212(3) 0.3003(3)
C1 C 0.2917(3) 0.2647(3) 0.3986(4)
C2 C 0.3821(3) 0.2578(3) 0.4860(4)
C3 C 0.4639(3) 0.3157(3) 0.4754(3)
C4 C 0.5647(3) 0.3220(3) 0.5614(3)
C5 C 0.5843(3) 0.2673(3) 0.6669(3)
C6 C 0.6759(3) 0.2750(3) 0.7503(4)
C7 C 0.7500(3) 0.3405(3) 0.7310(4)
C8 C 0.7341(3) 0.3967(3) 0.6284(3)
C9 C 0.6422(3) 0.3858(3) 0.5410(3)
N2 N 0.6237(3) 0.4385(2) 0.4332(3)
C10 C 0.5280(3) 0.4351(3) 0.3546(3)
C11 C 0.5247(3) 0.4969(3) 0.2587(3)
C12 C 0.4294(3) 0.4977(3) 0.1714(3)
S1 S 0.3943(1) 0.5637(1) 0.0403(1)
C13 C 0.2746(3) 0.5107(3) 0.0150(4)
N3 N 0.2591(2) 0.4490(3) 0.0945(3)
C14 C 0.3467(3) 0.4402(3) 0.1852(3)
C15 C 0.3543(3) 0.3770(3) 0.2864(3)
C16 C 0.4500(3) 0.3754(3) 0.3738(3)
C17 C 0.6227(3) 0.5393(3) 0.2762(3)
C18 C 0.6829(3) 0.5035(3) 0.3817(3)
N4 N 0.7857(2) 0.5199(3) 0.4366(3)
C19 C 0.8247(3) 0.6141(4) 0.3950(4)
C20 C 0.8488(3) 0.4275(4) 0.4355(4)
H1 H 0.2356 0.2251 0.4090
H2 H 0.3877 0.2135 0.5527
H3 H 0.5317 0.2250 0.6819
H4 H 0.6884 0.2338 0.8203
H5 H 0.8132 0.3478 0.7903
H6 H 0.7852 0.4431 0.6162
H7 H 0.2220 0.5265 -0.0548
H8 H 0.6437 0.5844 0.2229
H9 H 0.7820 0.6733 0.3982
H10 H 0.8920 0.6281 0.4429
H11 H 0.8256 0.6030 0.3161
H12 H 0.8216 0.3666 0.4638
H13 H 0.8499 0.4151 0.3568
H14 H 0.9163 0.4402 0.4836
Cl1 Cl 0.0130(1) 0.4879(1) 0.2212(1)
Cl2 Cl -0.0221(1) 0.3426(1) 0.0293(1)
Cl3 Cl 0.0148(1) 0.2641(1) 0.2624(2)
C21 C 0.0430(3) 0.3628(3) 0.1758(4)
H15 H 0.1141 0.3606 0.1841
loop_
_geom_bond_atom_site_label_1
_geom_bond_atom_site_label_2
_geom_bond_site_symmetry_1
_geom_bond_site_symmetry_2
N1 C1 1_555 1_555
C1 C2 1_555 1_555
C2 C3 1_555 1_555
C3 C4 1_555 1_555
C4 C5 1_555 1_555
C5 C6 1_555 1_555
C6 C7 1_555 1_555
C7 C8 1_555 1_555
C8 C9 1_555 1_555
C9 C4 1_555 1_555
N2 C9 1_555 1_555
C10 N2 1_555 1_555
C11 C10 1_555 1_555
C12 C11 1_555 1_555
S1 C12 1_555 1_555
C13 S1 1_555 1_555
N3 C13 1_555 1_555
C14 C12 1_555 1_555
C15 N1 1_555 1_555
C16 C3 1_555 1_555
C17 C11 1_555 1_555
C18 N2 1_555 1_555
N4 C18 1_555 1_555
C19 N4 1_555 1_555
C20 N4 1_555 1_555
Cl1 C21 1_555 1_555
Cl2 C21 1_555 1_555
Cl3 C21 1_555 1_555
C21 H15 1_555 1_555
H1 C1 1_555 1_555
H2 C2 1_555 1_555
H3 C5 1_555 1_555
H4 C6 1_555 1_555
H5 C7 1_555 1_555
H6 C8 1_555 1_555
H7 C13 1_555 1_555
H8 C17 1_555 1_555
H9 C19 1_555 1_555
H10 C19 1_555 1_555
H11 C19 1_555 1_555
H12 C20 1_555 1_555
H13 C20 1_555 1_555
H14 C20 1_555 1_555
C10 C16 1_555 1_555
N3 C14 1_555 1_555
C14 C15 1_555 1_555
C15 C16 1_555 1_555
C17 C18 1_555 1_555

#END
