
#######################################################################
#
#                 Cambridge Crystallographic Data Centre
#                                CCDC 
#
#######################################################################
#
# If this CIF has been generated from an entry in the Cambridge 
# Structural Database, then it will include bibliographic, chemical, 
# crystal, experimental, refinement or atomic coordinate data resulting 
# from the CCDC's data processing and validation procedures.
#
#######################################################################

data_JOPXOD
_chemical_formula_moiety         'C29 H23 I1 N2 O2'
_chemical_name_systematic        
'phenyl 2-(13-iodo-1,9-diazatetracyclo[7.7.1.0^2,7^.0^10,15^]heptadeca-2,4,6,10,12,14-hexaen-5-yl)-3-methylbenzoate'
_symmetry_cell_setting           monoclinic
_symmetry_space_group_name_H-M   'P 21/c'
_symmetry_Int_Tables_number      14
_space_group_name_Hall           '-P 2ybc'
loop_
_symmetry_equiv_pos_site_id
_symmetry_equiv_pos_as_xyz
1 x,y,z
2 -x,1/2+y,1/2-z
3 -x,-y,-z
4 x,1/2-y,1/2+z
_cell_length_a                   10.8737(4)
_cell_length_b                   10.8770(4)
_cell_length_c                   20.1779(7)
_cell_angle_alpha                90
_cell_angle_beta                 98.0340(10)
_cell_angle_gamma                90
_cell_volume                     2363.08
_exptl_crystal_colour            yellow
_exptl_crystal_description       prism
_chemical_melting_point          '424-426 K'
_cell_formula_units_Z            4
_exptl_crystal_recrystallization_method dichloromethane/n-pentane
loop_
_atom_site_label
_atom_site_type_symbol
_atom_site_fract_x
_atom_site_fract_y
_atom_site_fract_z
I1 I 0.70685(2) 0.68786(2) 0.18281(2)
O1 O 0.75527(11) 0.11638(11) -0.03569(6)
O2 O 0.56298(11) 0.04876(12) -0.07544(7)
N1 N 0.69694(13) 0.12507(13) 0.25522(7)
N2 N 0.91690(13) 0.10920(13) 0.24729(6)
C1 C 0.70399(15) 0.50259(15) 0.21179(8)
C2 C 0.59141(15) 0.44465(16) 0.21515(8)
H1 H 0.5158 0.4897 0.2081
C3 C 0.59120(15) 0.32015(15) 0.22897(8)
H2 H 0.5147 0.2796 0.2316
C4 C 0.70177(15) 0.25325(15) 0.23914(8)
C5 C 0.65958(15) 0.04689(15) 0.19619(8)
H3 H 0.5926 0.0886 0.1662
H4 H 0.6257 -0.0314 0.2109
C6 C 0.76607(15) 0.01905(15) 0.15742(8)
C7 C 0.74430(15) -0.04369(14) 0.09658(8)
H5 H 0.6622 -0.0692 0.0800
C8 C 0.84003(15) -0.06961(15) 0.05975(8)
C9 C 0.81493(15) -0.13929(16) -0.00450(8)
C10 C 0.73107(15) -0.09383(15) -0.05814(8)
C11 C 0.67031(15) 0.02875(16) -0.05698(8)
C12 C 0.71645(15) 0.23724(16) -0.02578(8)
C13 C 0.7597(2) 0.28789(18) 0.03542(9)
H6 H 0.8068 0.2401 0.0693
C14 C 0.7332(2) 0.40992(19) 0.04683(10)
H7 H 0.7634 0.4466 0.0887
C15 C 0.66313(19) 0.47862(18) -0.00212(10)
H8 H 0.6433 0.5617 0.0064
C16 C 0.81457(15) 0.31304(15) 0.23580(8)
C17 C 0.93623(15) 0.24297(15) 0.24621(8)
H9 H 0.9849 0.2637 0.2098
H10 H 0.9850 0.2689 0.2891
C18 C 0.81852(16) 0.08407(16) 0.28774(8)
H11 H 0.8382 0.1262 0.3314
H12 H 0.8154 -0.0054 0.2963
C19 C 0.87109(16) -0.25388(16) -0.01162(8)
C20 C 0.84270(18) -0.31769(17) -0.07163(9)
H13 H 0.8819 -0.3944 -0.0769
C21 C 0.75886(18) -0.27218(18) -0.12376(9)
H14 H 0.7407 -0.3177 -0.1641
C22 C 0.70193(17) -0.16086(17) -0.11691(9)
H15 H 0.6430 -0.1299 -0.1522
C23 C 0.62218(19) 0.42627(18) -0.06317(10)
H16 H 0.5749 0.4740 -0.0970
C24 C 0.64894(18) 0.30475(17) -0.07605(9)
H17 H 0.6214 0.2689 -0.1185
C25 C 0.95712(17) -0.31211(17) 0.04489(9)
H18 H 0.9706 -0.3986 0.0343
H19 H 0.9198 -0.3070 0.0863
H20 H 1.0368 -0.2686 0.0508
C26 C 0.95956(15) -0.02809(15) 0.08384(8)
H21 H 1.0256 -0.0430 0.0587
C27 C 0.98250(15) 0.03429(15) 0.14379(8)
H22 H 1.0640 0.0630 0.1592
C28 C 0.88728(15) 0.05563(14) 0.18201(8)
C29 C 0.81472(15) 0.43865(15) 0.22225(7)
H23 H 0.8909 0.4803 0.2202
loop_
_geom_bond_atom_site_label_1
_geom_bond_atom_site_label_2
_geom_bond_site_symmetry_1
_geom_bond_site_symmetry_2
I1 C1 1_555 1_555
O1 C11 1_555 1_555
O2 C11 1_555 1_555
N1 C4 1_555 1_555
N2 C17 1_555 1_555
C1 C2 1_555 1_555
C2 H1 1_555 1_555
C3 C2 1_555 1_555
H2 C3 1_555 1_555
C4 C3 1_555 1_555
C5 N1 1_555 1_555
H3 C5 1_555 1_555
H4 C5 1_555 1_555
C6 C5 1_555 1_555
C7 C6 1_555 1_555
H5 C7 1_555 1_555
C8 C7 1_555 1_555
C9 C8 1_555 1_555
C10 C9 1_555 1_555
C11 C10 1_555 1_555
C12 O1 1_555 1_555
C13 C12 1_555 1_555
H6 C13 1_555 1_555
C14 C13 1_555 1_555
H7 C14 1_555 1_555
C15 C14 1_555 1_555
H8 C15 1_555 1_555
C16 C4 1_555 1_555
C17 C16 1_555 1_555
H9 C17 1_555 1_555
H10 C17 1_555 1_555
C18 N1 1_555 1_555
H11 C18 1_555 1_555
H12 C18 1_555 1_555
C19 C9 1_555 1_555
C20 C19 1_555 1_555
H13 C20 1_555 1_555
C21 C20 1_555 1_555
H14 C21 1_555 1_555
C22 C10 1_555 1_555
H15 C22 1_555 1_555
C23 C15 1_555 1_555
H16 C23 1_555 1_555
C24 C12 1_555 1_555
H17 C24 1_555 1_555
C25 C19 1_555 1_555
H18 C25 1_555 1_555
H19 C25 1_555 1_555
H20 C25 1_555 1_555
C26 C8 1_555 1_555
H21 C26 1_555 1_555
C27 C26 1_555 1_555
H22 C27 1_555 1_555
C28 N2 1_555 1_555
C29 C1 1_555 1_555
H23 C29 1_555 1_555
N2 C18 1_555 1_555
C6 C28 1_555 1_555
C16 C29 1_555 1_555
C21 C22 1_555 1_555
C23 C24 1_555 1_555
C27 C28 1_555 1_555

#END
