
#######################################################################
#
#                 Cambridge Crystallographic Data Centre
#                                CCDC 
#
#######################################################################
#
# If this CIF has been generated from an entry in the Cambridge 
# Structural Database, then it will include bibliographic, chemical, 
# crystal, experimental, refinement or atomic coordinate data resulting 
# from the CCDC's data processing and validation procedures.
#
#######################################################################

data_JOQYIZ
_chemical_formula_moiety         'C19 H20 N2 O3 S1'
_chemical_name_systematic        
'methyl 9-(2-(S-methylsulfonimidoyl)phenyl)-11-azatricyclo[6.2.1.0^2,7^]undeca-2,4,6-triene-11-carboxylate'
_symmetry_cell_setting           monoclinic
_symmetry_space_group_name_H-M   'P 21/c'
_symmetry_Int_Tables_number      14
_space_group_name_Hall           '-P 2ybc'
loop_
_symmetry_equiv_pos_site_id
_symmetry_equiv_pos_as_xyz
1 x,y,z
2 -x,1/2+y,1/2-z
3 -x,-y,-z
4 x,1/2-y,1/2+z
_cell_length_a                   9.6704(8)
_cell_length_b                   8.5715(7)
_cell_length_c                   21.3697(18)
_cell_angle_alpha                90
_cell_angle_beta                 93.373(2)
_cell_angle_gamma                90
_cell_volume                     1768.26
_exptl_crystal_colour            colorless
_exptl_crystal_description       block
_cell_formula_units_Z            4
loop_
_atom_site_label
_atom_site_type_symbol
_atom_site_fract_x
_atom_site_fract_y
_atom_site_fract_z
S1 S -0.32184(5) -0.03696(6) 0.28850(3)
O1 O -0.45419(15) 0.0087(2) 0.25834(9)
O2 O 0.26061(18) 0.1755(2) 0.49629(8)
O3 O 0.42089(15) 0.15223(19) 0.42447(8)
N1 N -0.2238(2) -0.1384(2) 0.25402(10)
H1 H -0.1877 -0.0860 0.2241
N2 N 0.20048(15) 0.09039(18) 0.39790(7)
C1 C -0.24472(19) 0.1396(2) 0.31840(9)
C2 C -0.3280(2) 0.2713(2) 0.31295(11)
H2 H -0.4178 0.2635 0.2951
C3 C -0.2780(3) 0.4134(3) 0.33388(12)
H3 H -0.3339 0.5016 0.3303
C4 C -0.1456(3) 0.4246(2) 0.36011(11)
H4 H -0.1116 0.5207 0.3742
C5 C -0.0625(2) 0.2939(2) 0.36560(10)
H5 H 0.0272 0.3038 0.3834
C6 C -0.10901(18) 0.1470(2) 0.34529(9)
C7 C -0.01324(17) 0.0071(2) 0.35273(9)
H6 H -0.0685 -0.0886 0.3491
C8 C 0.10055(19) 0.0021(2) 0.30395(9)
H7 H 0.0875 -0.0866 0.2761
H8 H 0.1001 0.0971 0.2792
C9 C 0.23616(18) -0.0133(2) 0.34528(9)
H9 H 0.3215 0.0125 0.3250
C10 C 0.07608(18) 0.0039(2) 0.41557(8)
H10 H 0.0311 0.0437 0.4523
C11 C 0.13436(19) -0.1605(2) 0.42161(9)
C12 C 0.1029(2) -0.2866(2) 0.45821(10)
H11 H 0.0353 -0.2797 0.4873
C13 C 0.1757(3) -0.4250(3) 0.45019(12)
H12 H 0.1593 -0.5105 0.4755
C14 C 0.2714(2) -0.4366(3) 0.40543(13)
H13 H 0.3175 -0.5306 0.4004
C15 C 0.3009(2) -0.3107(3) 0.36740(11)
H14 H 0.3641 -0.3199 0.3364
C16 C 0.23328(18) -0.1714(2) 0.37709(9)
C17 C 0.2923(2) 0.1397(2) 0.44463(10)
C18 C 0.5239(3) 0.2191(4) 0.46929(14)
H15 H 0.4944 0.3210 0.4815
H16 H 0.6112 0.2270 0.4503
H17 H 0.5341 0.1532 0.5056
C19 C -0.3551(3) -0.1430(3) 0.35551(14)
H18 H -0.4176 -0.0854 0.3800
H19 H -0.2699 -0.1607 0.3798
H20 H -0.3961 -0.2414 0.3436
loop_
_geom_bond_atom_site_label_1
_geom_bond_atom_site_label_2
_geom_bond_site_symmetry_1
_geom_bond_site_symmetry_2
S1 O1 1_555 1_555
O2 C17 1_555 1_555
O3 C17 1_555 1_555
N1 S1 1_555 1_555
H1 N1 1_555 1_555
N2 C9 1_555 1_555
C1 S1 1_555 1_555
C2 C1 1_555 1_555
H2 C2 1_555 1_555
C3 C2 1_555 1_555
H3 C3 1_555 1_555
C4 C3 1_555 1_555
H4 C4 1_555 1_555
C5 C4 1_555 1_555
H5 C5 1_555 1_555
C6 C1 1_555 1_555
C7 C6 1_555 1_555
H6 C7 1_555 1_555
C8 C7 1_555 1_555
H7 C8 1_555 1_555
H8 C8 1_555 1_555
C9 C8 1_555 1_555
H9 C9 1_555 1_555
C10 N2 1_555 1_555
H10 C10 1_555 1_555
C11 C10 1_555 1_555
C12 C11 1_555 1_555
H11 C12 1_555 1_555
C13 C12 1_555 1_555
H12 C13 1_555 1_555
C14 C13 1_555 1_555
H13 C14 1_555 1_555
C15 C14 1_555 1_555
H14 C15 1_555 1_555
C16 C9 1_555 1_555
C17 N2 1_555 1_555
C18 O3 1_555 1_555
H15 C18 1_555 1_555
H16 C18 1_555 1_555
H17 C18 1_555 1_555
C19 S1 1_555 1_555
H18 C19 1_555 1_555
H19 C19 1_555 1_555
H20 C19 1_555 1_555
C5 C6 1_555 1_555
C7 C10 1_555 1_555
C11 C16 1_555 1_555
C15 C16 1_555 1_555

#END
