
#######################################################################
#
#                 Cambridge Crystallographic Data Centre
#                                CCDC 
#
#######################################################################
#
# If this CIF has been generated from an entry in the Cambridge 
# Structural Database, then it will include bibliographic, chemical, 
# crystal, experimental, refinement or atomic coordinate data resulting 
# from the CCDC's data processing and validation procedures.
#
#######################################################################

data_JORZOH
_chemical_formula_moiety         'C20 H18 O5,0.25(C4 H8 O2)'
_chemical_name_systematic        
'Ethyl 8-methoxy-2-phenylbenzopyran-4-one-3-acetate ethyl acetate solvate'
_symmetry_cell_setting           monoclinic
_symmetry_space_group_name_H-M   'P 21/n'
_symmetry_Int_Tables_number      14
_space_group_name_Hall           '-P 2yn'
loop_
_symmetry_equiv_pos_site_id
_symmetry_equiv_pos_as_xyz
1 x,y,z
2 1/2-x,1/2+y,1/2-z
3 -x,-y,-z
4 1/2+x,1/2-y,1/2+z
_cell_length_a                   10.9340(14)
_cell_length_b                   13.6000(15)
_cell_length_c                   24.148(2)
_cell_angle_alpha                90
_cell_angle_beta                 92.073(6)
_cell_angle_gamma                90
_cell_volume                     3588.52
_exptl_crystal_colour            colorless
_exptl_crystal_description       prism
_cell_formula_units_Z            8
loop_
_atom_site_label
_atom_site_type_symbol
_atom_site_fract_x
_atom_site_fract_y
_atom_site_fract_z
O6 O 0.93891(6) 0.13283(5) 0.66547(3)
O7 O 0.93204(7) 0.14795(6) 0.77270(3)
O8 O 0.63715(6) 0.12222(6) 0.56130(3)
O9 O 0.85561(10) 0.27981(6) 0.49871(3)
O10 O 0.82094(8) 0.18063(6) 0.42580(3)
C21 C 0.82462(8) 0.14094(7) 0.68664(4)
C22 C 0.82137(9) 0.14847(7) 0.74490(4)
C23 C 0.70830(10) 0.15560(7) 0.76860(4)
H19 H 0.7035 0.1599 0.8077
C24 C 0.60031(10) 0.15648(8) 0.73498(4)
H20 H 0.5234 0.1624 0.7518
C25 C 0.60414(9) 0.14896(8) 0.67829(4)
H21 H 0.5306 0.1494 0.6561
C26 C 0.71823(8) 0.14056(7) 0.65334(4)
C27 C 0.72780(8) 0.12766(7) 0.59328(4)
C28 C 0.85187(8) 0.11960(7) 0.57329(4)
C29 C 0.94976(8) 0.12342(7) 0.60952(4)
C30 C 1.08040(8) 0.11738(7) 0.59636(4)
C31 C 1.12843(9) 0.17749(7) 0.55543(4)
H22 H 1.0763 0.2210 0.5348
C32 C 1.25289(9) 0.17339(8) 0.54496(4)
H23 H 1.2857 0.2148 0.5175
C33 C 1.32919(9) 0.10878(8) 0.57459(4)
H24 H 1.4137 0.1055 0.5670
C34 C 1.28179(9) 0.04896(8) 0.61534(4)
H25 H 1.3339 0.0047 0.6354
C35 C 1.15812(9) 0.05396(8) 0.62672(4)
H26 H 1.1263 0.0142 0.6552
C36 C 0.86283(9) 0.10401(7) 0.51197(4)
H27 H 0.8007 0.0555 0.4990
H28 H 0.9446 0.0766 0.5049
C37 C 0.84526(9) 0.19859(7) 0.47941(4)
C38 C 0.80548(13) 0.26746(9) 0.39054(5)
H29 H 0.8828 0.3052 0.3899
H30 H 0.7408 0.3107 0.4047
C39 C 0.76992(15) 0.23122(10) 0.33339(5)
H31 H 0.8360 0.1905 0.3194
H32 H 0.7557 0.2875 0.3087
H33 H 0.6949 0.1920 0.3349
C40 C 0.92998(11) 0.14283(9) 0.83208(4)
H34 H 0.8890 0.2012 0.8463
H35 H 1.0140 0.1400 0.8475
H36 H 0.8855 0.0837 0.8430
O1 O 0.51561(6) 0.90687(5) 0.71679(3)
O2 O 0.81751(6) 0.91044(6) 0.82089(3)
O3 O 0.51887(6) 0.89946(6) 0.61133(3)
O4 O 0.57992(9) 1.07416(6) 0.87625(3)
O5 O 0.63721(7) 0.98563(6) 0.95156(3)
C1 C 0.62987(8) 0.90260(7) 0.69553(4)
C2 C 0.63104(9) 0.89714(7) 0.63716(4)
C3 C 0.74285(9) 0.88851(7) 0.61251(4)
H1 H 0.7461 0.8832 0.5734
C4 C 0.85208(9) 0.88765(7) 0.64549(4)
H2 H 0.9284 0.8819 0.6282
C5 C 0.85013(9) 0.89502(7) 0.70239(4)
H3 H 0.9245 0.8957 0.7240
C6 C 0.73650(8) 0.90158(7) 0.72832(4)
C7 C 0.72711(8) 0.90462(7) 0.78894(4)
C8 C 0.60250(8) 0.89960(7) 0.80904(4)
C9 C 0.50495(8) 0.90210(7) 0.77299(4)
C10 C 0.37348(8) 0.90099(7) 0.78623(4)
C11 C 0.29956(10) 0.98148(8) 0.77196(5)
H4 H 0.3340 1.0375 0.7550
C12 C 0.17514(10) 0.97947(10) 0.78264(5)
H5 H 0.1249 1.0342 0.7729
C13 C 0.12452(10) 0.89766(11) 0.80743(5)
H6 H 0.0400 0.8968 0.8152
C14 C 0.19772(10) 0.81723(11) 0.82081(5)
H7 H 0.1628 0.7610 0.8374
C15 C 0.32206(9) 0.81821(9) 0.81009(4)
H8 H 0.3716 0.7626 0.8190
C16 C 0.58983(9) 0.89612(7) 0.87087(4)
H9 H 0.6531 0.8516 0.8871
H10 H 0.5088 0.8683 0.8790
C17 C 0.60247(9) 0.99621(7) 0.89830(4)
C18 C 0.64480(12) 1.07479(9) 0.98483(5)
H11 H 0.5632 1.1057 0.9871
H12 H 0.7013 1.1226 0.9684
C19 C 0.69225(11) 1.04342(9) 1.04163(4)
H13 H 0.6343 0.9975 1.0577
H14 H 0.7014 1.1013 1.0656
H15 H 0.7718 1.0111 1.0385
C20 C 0.51361(10) 0.88830(9) 0.55228(4)
H16 H 0.5621 0.9402 0.5355
H17 H 0.4284 0.8931 0.5385
H18 H 0.5468 0.8239 0.5425
O11? O 0.5099(12) 0.4954(13) 0.5019(8)
C41? C 0.4470(8) 0.6301(5) 0.4475(4)
H37? H 0.3594 0.6149 0.4464
H38? H 0.4858 0.5971 0.4166
H39? H 0.4584 0.7014 0.4443
C42? C 0.5037(2) 0.59545(16) 0.50041(9)
C43? C 0.5467(2) 0.45559(16) 0.55685(9)
H40? H 0.4887 0.4773 0.5849
H41? H 0.6296 0.4791 0.5682
C44? C 0.5458(9) 0.3464(5) 0.5522(4)
H42? H 0.4614 0.3234 0.5459
H43? H 0.5801 0.3176 0.5866
H44? H 0.5951 0.3263 0.5211
O12? O 0.5504(2) 0.64679(13) 0.53601(8)
loop_
_geom_bond_atom_site_label_1
_geom_bond_atom_site_label_2
_geom_bond_site_symmetry_1
_geom_bond_site_symmetry_2
O1 C1 1_555 1_555
O2 C7 1_555 1_555
O3 C2 1_555 1_555
O4 C17 1_555 1_555
O5 C17 1_555 1_555
C1 C2 1_555 1_555
C2 C3 1_555 1_555
C3 H1 1_555 1_555
C4 C3 1_555 1_555
H2 C4 1_555 1_555
C5 C4 1_555 1_555
H3 C5 1_555 1_555
C6 C1 1_555 1_555
C7 C6 1_555 1_555
C8 C7 1_555 1_555
C9 O1 1_555 1_555
C10 C9 1_555 1_555
C11 C10 1_555 1_555
H4 C11 1_555 1_555
C12 C11 1_555 1_555
H5 C12 1_555 1_555
C13 C12 1_555 1_555
H6 C13 1_555 1_555
C14 C13 1_555 1_555
H7 C14 1_555 1_555
C15 C10 1_555 1_555
H8 C15 1_555 1_555
C16 C8 1_555 1_555
H9 C16 1_555 1_555
H10 C16 1_555 1_555
C17 C16 1_555 1_555
C18 O5 1_555 1_555
H11 C18 1_555 1_555
H12 C18 1_555 1_555
C19 C18 1_555 1_555
H13 C19 1_555 1_555
H14 C19 1_555 1_555
H15 C19 1_555 1_555
C20 O3 1_555 1_555
H16 C20 1_555 1_555
H17 C20 1_555 1_555
H18 C20 1_555 1_555
O6 C21 1_555 1_555
O7 C22 1_555 1_555
O8 C27 1_555 1_555
O9 C37 1_555 1_555
O10 C37 1_555 1_555
C21 C22 1_555 1_555
C22 C23 1_555 1_555
C23 H19 1_555 1_555
C24 C23 1_555 1_555
H20 C24 1_555 1_555
C25 C24 1_555 1_555
H21 C25 1_555 1_555
C26 C21 1_555 1_555
C27 C26 1_555 1_555
C28 C27 1_555 1_555
C29 O6 1_555 1_555
C30 C29 1_555 1_555
C31 C30 1_555 1_555
H22 C31 1_555 1_555
C32 C31 1_555 1_555
H23 C32 1_555 1_555
C33 C32 1_555 1_555
H24 C33 1_555 1_555
C34 C33 1_555 1_555
H25 C34 1_555 1_555
C35 C30 1_555 1_555
H26 C35 1_555 1_555
C36 C28 1_555 1_555
H27 C36 1_555 1_555
H28 C36 1_555 1_555
C37 C36 1_555 1_555
C38 O10 1_555 1_555
H29 C38 1_555 1_555
H30 C38 1_555 1_555
C39 C38 1_555 1_555
H31 C39 1_555 1_555
H32 C39 1_555 1_555
H33 C39 1_555 1_555
C40 O7 1_555 1_555
H34 C40 1_555 1_555
H35 C40 1_555 1_555
H36 C40 1_555 1_555
C5 C6 1_555 1_555
C8 C9 1_555 1_555
C14 C15 1_555 1_555
C25 C26 1_555 1_555
C28 C29 1_555 1_555
C34 C35 1_555 1_555

#END
