
#######################################################################
#
#                 Cambridge Crystallographic Data Centre
#                                CCDC 
#
#######################################################################
#
# If this CIF has been generated from an entry in the Cambridge 
# Structural Database, then it will include bibliographic, chemical, 
# crystal, experimental, refinement or atomic coordinate data resulting 
# from the CCDC's data processing and validation procedures.
#
#######################################################################

data_JOSHEG
_chemical_formula_moiety         'C20 H12 Br1 N3 O1'
_chemical_name_systematic        
2-(8-bromo-11-oxo-5,11-dihydro-10H-dibenzo[b,e][1,4]diazepin-10-yl)benzonitrile
_symmetry_cell_setting           triclinic
_symmetry_space_group_name_H-M   'P -1'
_symmetry_Int_Tables_number      2
_space_group_name_Hall           '-P 1'
loop_
_symmetry_equiv_pos_site_id
_symmetry_equiv_pos_as_xyz
1 x,y,z
2 -x,-y,-z
_cell_length_a                   8.5347(10)
_cell_length_b                   13.1716(17)
_cell_length_c                   16.084(2)
_cell_angle_alpha                77.655(3)
_cell_angle_beta                 87.808(2)
_cell_angle_gamma                79.418(2)
_cell_volume                     1736.25
_exptl_crystal_colour            colorless
_exptl_crystal_description       prism
_cell_formula_units_Z            4
loop_
_atom_site_label
_atom_site_type_symbol
_atom_site_fract_x
_atom_site_fract_y
_atom_site_fract_z
C1 C 0.9153(7) 0.7475(5) 0.2374(3)
C2 C 0.8276(8) 0.8488(4) 0.2357(4)
H1 H 0.8760 0.9009 0.2492
C3 C 0.6705(8) 0.8700(4) 0.2140(4)
H2 H 0.6126 0.9376 0.2119
C4 C 0.5950(7) 0.7932(4) 0.1949(3)
C5 C 0.6797(7) 0.6918(4) 0.1993(3)
C6 C 0.8396(8) 0.6698(4) 0.2201(3)
H3 H 0.8972 0.6021 0.2224
C7 C 0.6618(7) 0.5036(4) 0.2394(4)
C8 C 0.6273(7) 0.4844(4) 0.3260(4)
C9 C 0.5325(8) 0.5660(5) 0.3651(4)
C10 C 0.6814(8) 0.3852(5) 0.3774(4)
H4 H 0.6576 0.3726 0.4352
C11 C 0.7693(8) 0.3063(5) 0.3430(5)
H5 H 0.8061 0.2404 0.3773
C12 C 0.8027(8) 0.3252(5) 0.2572(5)
H6 H 0.8623 0.2713 0.2342
C13 C 0.7491(8) 0.4237(4) 0.2038(4)
H7 H 0.7716 0.4353 0.1459
C14 C 0.5015(7) 0.6122(4) 0.1221(4)
C15 C 0.4408(7) 0.7141(4) 0.0632(3)
C16 C 0.4091(7) 0.7092(5) -0.0196(4)
H8 H 0.4371 0.6451 -0.0367
C17 C 0.3369(8) 0.7972(6) -0.0772(4)
H9 H 0.3201 0.7931 -0.1331
C18 C 0.2895(9) 0.8925(5) -0.0507(5)
H10 H 0.2375 0.9519 -0.0883
C19 C 0.3202(8) 0.8978(5) 0.0314(4)
H11 H 0.2881 0.9612 0.0490
C20 C 0.3984(7) 0.8100(4) 0.0887(4)
N1 N 0.6050(6) 0.6068(3) 0.1869(3)
N2 N 0.4586(8) 0.6256(5) 0.3982(4)
N3 N 0.4357(6) 0.8188(3) 0.1708(3)
H12 H 0.3626 0.8392 0.2050
O1 O 0.4579(5) 0.5317(3) 0.1125(3)
Br1 Br 1.13470(8) 0.72046(5) 0.26294(5)
C21 C 0.8509(8) 0.6766(5) 0.5732(4)
C22 C 0.8161(8) 0.5832(5) 0.6199(4)
H13 H 0.8315 0.5234 0.5965
C23 C 0.7579(8) 0.5783(4) 0.7021(4)
H14 H 0.7388 0.5144 0.7346
C24 C 0.7279(7) 0.6686(4) 0.7361(4)
C25 C 0.7592(7) 0.7625(4) 0.6871(3)
C26 C 0.8225(7) 0.7670(4) 0.6065(4)
H15 H 0.8459 0.8302 0.5747
C27 C 0.6495(7) 0.9531(4) 0.6573(3)
C28 C 0.7444(8) 1.0266(5) 0.6210(4)
C29 C 0.9135(12) 1.0026(5) 0.6382(5)
C30 C 0.6762(10) 1.1212(5) 0.5679(4)
H16 H 0.7386 1.1709 0.5441
C31 C 0.5165(11) 1.1403(5) 0.5510(4)
H17 H 0.4702 1.2038 0.5162
C32 C 0.4226(9) 1.0662(6) 0.5850(4)
H18 H 0.3144 1.0794 0.5721
C33 C 0.4904(8) 0.9723(4) 0.6382(4)
H19 H 0.4277 0.9224 0.6611
C34 C 0.7496(7) 0.8729(4) 0.7976(4)
C35 C 0.8126(7) 0.7823(4) 0.8662(3)
C36 C 0.9084(8) 0.8022(5) 0.9260(4)
H20 H 0.9403 0.8675 0.9172
C37 C 0.9574(8) 0.7276(6) 0.9982(4)
H21 H 1.0249 0.7405 1.0372
C38 C 0.9033(9) 0.6319(5) 1.0112(4)
H22 H 0.9317 0.5815 1.0608
C39 C 0.8092(8) 0.6108(5) 0.9525(4)
H23 H 0.7745 0.5464 0.9623
C40 C 0.7655(7) 0.6849(4) 0.8785(4)
N4 N 0.7177(6) 0.8593(3) 0.7176(3)
N5 N 1.0478(10) 0.9787(5) 0.6499(5)
N6 N 0.6686(6) 0.6612(4) 0.8191(3)
H24 H 0.5778 0.6431 0.8330
O2 O 0.7206(6) 0.9630(3) 0.8109(3)
Br2 Br 0.94300(11) 0.68354(6) 0.46308(4)
loop_
_geom_bond_atom_site_label_1
_geom_bond_atom_site_label_2
_geom_bond_site_symmetry_1
_geom_bond_site_symmetry_2
C1 C2 1_555 1_555
C2 H1 1_555 1_555
C3 C2 1_555 1_555
H2 C3 1_555 1_555
C4 C3 1_555 1_555
C5 C4 1_555 1_555
C6 C1 1_555 1_555
H3 C6 1_555 1_555
C7 C8 1_555 1_555
C8 C9 1_555 1_555
C9 N2 1_555 1_555
C10 C8 1_555 1_555
H4 C10 1_555 1_555
C11 C10 1_555 1_555
H5 C11 1_555 1_555
C12 C11 1_555 1_555
H6 C12 1_555 1_555
C13 C7 1_555 1_555
H7 C13 1_555 1_555
C14 C15 1_555 1_555
C15 C16 1_555 1_555
C16 H8 1_555 1_555
C17 C16 1_555 1_555
H9 C17 1_555 1_555
C18 C17 1_555 1_555
H10 C18 1_555 1_555
C19 C18 1_555 1_555
H11 C19 1_555 1_555
C20 C15 1_555 1_555
N1 C5 1_555 1_555
N3 C4 1_555 1_555
H12 N3 1_555 1_555
O1 C14 1_555 1_555
Br1 C1 1_555 1_555
C21 C22 1_555 1_555
C22 H13 1_555 1_555
C23 C22 1_555 1_555
H14 C23 1_555 1_555
C24 C23 1_555 1_555
C25 C24 1_555 1_555
C26 C21 1_555 1_555
H15 C26 1_555 1_555
C27 C28 1_555 1_555
C28 C29 1_555 1_555
C29 N5 1_555 1_555
C30 C28 1_555 1_555
H16 C30 1_555 1_555
C31 C30 1_555 1_555
H17 C31 1_555 1_555
C32 C31 1_555 1_555
H18 C32 1_555 1_555
C33 C27 1_555 1_555
H19 C33 1_555 1_555
C34 C35 1_555 1_555
C35 C36 1_555 1_555
C36 H20 1_555 1_555
C37 C36 1_555 1_555
H21 C37 1_555 1_555
C38 C37 1_555 1_555
H22 C38 1_555 1_555
C39 C38 1_555 1_555
H23 C39 1_555 1_555
C40 C35 1_555 1_555
N4 C25 1_555 1_555
N6 C24 1_555 1_555
H24 N6 1_555 1_555
O2 C34 1_555 1_555
Br2 C21 1_555 1_555
C5 C6 1_555 1_555
C7 N1 1_555 1_555
C12 C13 1_555 1_555
C14 N1 1_555 1_555
C19 C20 1_555 1_555
C20 N3 1_555 1_555
C25 C26 1_555 1_555
C27 N4 1_555 1_555
C32 C33 1_555 1_555
C34 N4 1_555 1_555
C39 C40 1_555 1_555
C40 N6 1_555 1_555

#END
