
#######################################################################
#
#                 Cambridge Crystallographic Data Centre
#                                CCDC 
#
#######################################################################
#
# If this CIF has been generated from an entry in the Cambridge 
# Structural Database, then it will include bibliographic, chemical, 
# crystal, experimental, refinement or atomic coordinate data resulting 
# from the CCDC's data processing and validation procedures.
#
#######################################################################

data_JOSKOT
_chemical_name_common            
1-(4-benzoyl-2-methyl-5-phenyl-3-furyl)ethanone
_chemical_formula_moiety         'C20 H16 O3'
_chemical_name_systematic        
1-(4-benzoyl-2-methyl-5-phenylfuran-3-yl)ethanone
_symmetry_cell_setting           monoclinic
_symmetry_space_group_name_H-M   'P 21/n'
_symmetry_Int_Tables_number      14
_space_group_name_Hall           '-P 2yn'
loop_
_symmetry_equiv_pos_site_id
_symmetry_equiv_pos_as_xyz
1 x,y,z
2 1/2-x,1/2+y,1/2-z
3 -x,-y,-z
4 1/2+x,1/2-y,1/2+z
_cell_length_a                   7.6539(15)
_cell_length_b                   17.326(4)
_cell_length_c                   11.663(2)
_cell_angle_alpha                90
_cell_angle_beta                 96.80(3)
_cell_angle_gamma                90
_cell_volume                     1535.77
_exptl_crystal_colour            yellow
_exptl_crystal_description       block
_cell_formula_units_Z            4
loop_
_atom_site_label
_atom_site_type_symbol
_atom_site_fract_x
_atom_site_fract_y
_atom_site_fract_z
O1 O 0.7304(3) 0.02994(13) 0.94727(18)
C1 C 0.7216(5) -0.10706(19) 0.9758(3)
O2 O 1.0389(4) -0.06374(17) 1.2564(2)
C2 C 0.8864(5) -0.04362(19) 1.2393(3)
C3 C 0.7624(4) -0.03042(19) 1.0249(3)
C4 C 0.8288(4) 0.08128(19) 1.1174(3)
C5 C 0.7739(4) 0.09700(19) 1.0046(3)
C6 C 0.7621(5) -0.06144(19) 1.3243(3)
O3 O 0.9037(4) 0.10941(16) 1.3111(2)
C7 C 0.8225(4) -0.0015(2) 1.1303(3)
C8 C 0.7347(6) -0.1725(2) 1.0444(3)
H1 H 0.7745 -0.1681 1.1226
C9 C 0.5816(5) -0.0595(2) 1.2922(3)
H2 H 0.5367 -0.0456 1.2175
C10 C 0.6892(6) -0.2445(2) 0.9977(4)
H3 H 0.6972 -0.2880 1.0447
C11 C 0.6324(6) -0.2511(2) 0.8822(4)
H4 H 0.6019 -0.2993 0.8509
C12 C 0.8263(5) -0.0812(2) 1.4361(3)
H5 H 0.9471 -0.0825 1.4577
C13 C 0.6649(6) -0.1158(2) 0.8588(3)
H6 H 0.6571 -0.0728 0.8108
C14 C 0.7495(6) 0.1676(2) 0.9312(3)
H7 H 0.7066 0.1531 0.8535
H8 H 0.8602 0.1938 0.9318
H9 H 0.6662 0.2013 0.9611
C15 C 0.4690(5) -0.0784(2) 1.3728(4)
H10 H 0.3481 -0.0783 1.3512
C16 C 0.7143(6) -0.0990(2) 1.5157(3)
H11 H 0.7587 -0.1123 1.5908
C17 C 0.8800(5) 0.1343(2) 1.2129(3)
C18 C 0.6202(6) -0.1874(2) 0.8129(4)
H12 H 0.5817 -0.1924 0.7345
C19 C 0.5334(6) -0.0971(2) 1.4830(4)
H13 H 0.4565 -0.1087 1.5366
C20 C 0.9019(6) 0.2187(2) 1.1897(4)
H14 H 0.9366 0.2450 1.2612
H15 H 0.7924 0.2395 1.1542
H16 H 0.9907 0.2255 1.1390
loop_
_geom_bond_atom_site_label_1
_geom_bond_atom_site_label_2
_geom_bond_site_symmetry_1
_geom_bond_site_symmetry_2
O1 C3 1_555 1_555
C1 C3 1_555 1_555
O2 C2 1_555 1_555
C2 C6 1_555 1_555
C3 C7 1_555 1_555
C4 C5 1_555 1_555
C5 O1 1_555 1_555
C6 C9 1_555 1_555
O3 C17 1_555 1_555
C7 C2 1_555 1_555
C8 C1 1_555 1_555
H1 C8 1_555 1_555
C9 H2 1_555 1_555
C10 C8 1_555 1_555
H3 C10 1_555 1_555
C11 C10 1_555 1_555
H4 C11 1_555 1_555
C12 C6 1_555 1_555
H5 C12 1_555 1_555
C13 C1 1_555 1_555
H6 C13 1_555 1_555
C14 C5 1_555 1_555
H7 C14 1_555 1_555
H8 C14 1_555 1_555
H9 C14 1_555 1_555
C15 C9 1_555 1_555
H10 C15 1_555 1_555
C16 C12 1_555 1_555
H11 C16 1_555 1_555
C17 C4 1_555 1_555
C18 C11 1_555 1_555
H12 C18 1_555 1_555
C19 C15 1_555 1_555
H13 C19 1_555 1_555
C20 C17 1_555 1_555
H14 C20 1_555 1_555
H15 C20 1_555 1_555
H16 C20 1_555 1_555
C4 C7 1_555 1_555
C13 C18 1_555 1_555
C16 C19 1_555 1_555

#END
