
#######################################################################
#
#                 Cambridge Crystallographic Data Centre
#                                CCDC 
#
#######################################################################
#
# If this CIF has been generated from an entry in the Cambridge 
# Structural Database, then it will include bibliographic, chemical, 
# crystal, experimental, refinement or atomic coordinate data resulting 
# from the CCDC's data processing and validation procedures.
#
#######################################################################

data_JOSLAG
_chemical_formula_moiety         'C14 H13 N2 O1 1+,C2 F3 O2 1-'
_chemical_name_systematic        
"1'-methyl-2'-oxo-1',2'-dihydro-4H-spiro[cyclohexa-2,5-diene-1,3'-indol]-4-iminium trifluoroacetate"
_symmetry_cell_setting           triclinic
_symmetry_space_group_name_H-M   'P -1'
_symmetry_Int_Tables_number      2
_space_group_name_Hall           '-P 1'
loop_
_symmetry_equiv_pos_site_id
_symmetry_equiv_pos_as_xyz
1 x,y,z
2 -x,-y,-z
_cell_length_a                   6.9032(8)
_cell_length_b                   9.0525(11)
_cell_length_c                   12.7496(14)
_cell_angle_alpha                94.994(10)
_cell_angle_beta                 104.358(10)
_cell_angle_gamma                94.916(10)
_cell_volume                     764.156
_exptl_crystal_colour            'light colorless'
_exptl_crystal_description       block
_cell_formula_units_Z            2
_chemical_properties_physical    'Moisture-sensitive, Heat-sensitive'
loop_
_atom_site_label
_atom_site_type_symbol
_atom_site_fract_x
_atom_site_fract_y
_atom_site_fract_z
F1 F 0.2603(5) 0.3775(4) 0.0763(3)
F2 F 0.1378(5) 0.3045(4) 0.2023(2)
F3 F 0.0373(5) 0.4873(3) 0.1239(3)
O1 O -0.0157(4) 0.1783(3) -0.0508(2)
O2 O -0.2408(4) 0.2468(3) 0.0389(2)
C1 C -0.0717(5) 0.2494(4) 0.0221(3)
C2 C 0.0927(6) 0.3525(4) 0.1056(3)
O3 O 0.7354(4) 0.0047(3) 0.5148(2)
N1 N 0.7461(4) 0.2600(3) 0.5416(2)
N2 N 0.6281(5) -0.1400(3) 0.0784(2)
H1 H 0.7315 -0.1663 0.0585
H2 H 0.5091 -0.1744 0.0403
C3 C 0.7369(4) 0.3792(4) 0.4782(3)
C4 C 0.7505(5) 0.5299(4) 0.5101(3)
H3 H 0.7694 0.5660 0.5828
C5 C 0.7350(6) 0.6264(4) 0.4298(4)
H4 H 0.7430 0.7285 0.4494
C6 C 0.7078(6) 0.5736(4) 0.3216(4)
H5 H 0.6974 0.6403 0.2695
C7 C 0.6959(5) 0.4206(4) 0.2898(3)
H6 H 0.6779 0.3842 0.2171
C8 C 0.7115(5) 0.3256(4) 0.3692(3)
C9 C 0.7018(5) 0.1560(4) 0.3598(3)
C10 C 0.7285(5) 0.1249(4) 0.4813(3)
C11 C 0.7798(6) 0.2757(5) 0.6593(3)
H7 H 0.8937 0.3481 0.6916
H8 H 0.8053 0.1814 0.6859
H9 H 0.6628 0.3080 0.6782
C12 C 0.8743(5) 0.1029(4) 0.3203(3)
H10 H 1.0047 0.1367 0.3607
C13 C 0.8490(5) 0.0100(4) 0.2305(3)
H11 H 0.9612 -0.0177 0.2090
C14 C 0.6515(5) -0.0485(4) 0.1660(3)
C15 C 0.4769(5) -0.0069(4) 0.2013(3)
H12 H 0.3483 -0.0455 0.1609
C16 C 0.5011(5) 0.0863(4) 0.2913(3)
H13 H 0.3869 0.1094 0.3128
loop_
_geom_bond_atom_site_label_1
_geom_bond_atom_site_label_2
_geom_bond_site_symmetry_1
_geom_bond_site_symmetry_2
F1 C2 1_555 1_555
F2 C2 1_555 1_555
F3 C2 1_555 1_555
O1 C1 1_555 1_555
O2 C1 1_555 1_555
C1 C2 1_555 1_555
O3 C10 1_555 1_555
N1 C3 1_555 1_555
N2 H1 1_555 1_555
H2 N2 1_555 1_555
C3 C4 1_555 1_555
C4 H3 1_555 1_555
C5 C4 1_555 1_555
H4 C5 1_555 1_555
C6 C5 1_555 1_555
H5 C6 1_555 1_555
C7 C6 1_555 1_555
H6 C7 1_555 1_555
C8 C3 1_555 1_555
C9 C8 1_555 1_555
C10 N1 1_555 1_555
C11 N1 1_555 1_555
H7 C11 1_555 1_555
H8 C11 1_555 1_555
H9 C11 1_555 1_555
C12 C9 1_555 1_555
H10 C12 1_555 1_555
C13 C12 1_555 1_555
H11 C13 1_555 1_555
C14 N2 1_555 1_555
C15 C14 1_555 1_555
H12 C15 1_555 1_555
C16 C9 1_555 1_555
H13 C16 1_555 1_555
C7 C8 1_555 1_555
C9 C10 1_555 1_555
C13 C14 1_555 1_555
C15 C16 1_555 1_555

#END
