
#######################################################################
#
#                 Cambridge Crystallographic Data Centre
#                                CCDC 
#
#######################################################################
#
# If this CIF has been generated from an entry in the Cambridge 
# Structural Database, then it will include bibliographic, chemical, 
# crystal, experimental, refinement or atomic coordinate data resulting 
# from the CCDC's data processing and validation procedures.
#
#######################################################################

data_JOTHEH
_chemical_formula_moiety         'C23 H20 O3'
_chemical_name_systematic        
rac-1,5,17-trimethoxypentacyclo[10.6.2.0^2,11^.0^4,9^.0^13,18^]icosa-2,4,6,8,10,13,15,17,19-nonaene
_symmetry_cell_setting           monoclinic
_symmetry_space_group_name_H-M   'P 21/n'
_symmetry_Int_Tables_number      14
_space_group_name_Hall           '-P 2yn'
loop_
_symmetry_equiv_pos_site_id
_symmetry_equiv_pos_as_xyz
1 x,y,z
2 1/2-x,1/2+y,1/2-z
3 -x,-y,-z
4 1/2+x,1/2-y,1/2+z
_cell_length_a                   15.6250(4)
_cell_length_b                   8.1280(2)
_cell_length_c                   27.1324(7)
_cell_angle_alpha                90
_cell_angle_beta                 103.758(3)
_cell_angle_gamma                90
_cell_volume                     3346.95
_exptl_crystal_colour            colorless
_exptl_crystal_description       irregular
_cell_formula_units_Z            8
loop_
_atom_site_label
_atom_site_type_symbol
_atom_site_fract_x
_atom_site_fract_y
_atom_site_fract_z
C1 C 0.41532(8) 0.31227(17) 0.69572(5)
H1 H 0.4751 0.2975 0.7099
C2 C 0.38147(9) 0.46772(17) 0.68201(5)
H2 H 0.4190 0.5582 0.6870
C3 C 0.29232(8) 0.48953(17) 0.66098(5)
H3 H 0.2705 0.5945 0.6520
C4 C 0.23491(8) 0.35534(16) 0.65322(4)
C5 C 0.22021(8) 0.02791(16) 0.65823(5)
C6 C 0.23193(8) -0.13165(15) 0.57803(5)
H4 H 0.1717 -0.1209 0.5643
C7 C 0.24943(8) -0.29248(16) 0.50307(5)
C8 C 0.30226(9) -0.37025(16) 0.47643(5)
H5 H 0.2778 -0.4186 0.4452
C9 C 0.39395(9) -0.37593(17) 0.49696(5)
H6 H 0.4299 -0.4268 0.4787
C10 C 0.43121(8) -0.30842(16) 0.54311(5)
H7 H 0.4918 -0.3154 0.5561
C11 C 0.41408(8) -0.15703(15) 0.61984(5)
H8 H 0.4744 -0.1632 0.6339
C12 C 0.38749(8) 0.00138(16) 0.69769(5)
H9 H 0.4506 -0.0092 0.7134
C13 C 0.26762(8) 0.19751(15) 0.66651(4)
C14 C 0.35828(8) 0.17938(16) 0.68784(4)
C15 C 0.24419(9) -0.06033(16) 0.70958(5)
H10 H 0.2019 -0.1012 0.7254
C16 C 0.32970(9) -0.07380(17) 0.72966(5)
H11 H 0.3526 -0.1249 0.7607
C17 C 0.26896(8) -0.06626(15) 0.62420(5)
C18 C 0.36090(8) -0.08034(15) 0.64579(4)
C19 C 0.28554(8) -0.21669(15) 0.55078(5)
C20 C 0.37814(8) -0.22790(15) 0.57127(5)
C21 C 0.11557(9) 0.53406(18) 0.61701(7)
H12 H 0.1432 0.5718 0.5910
H13 H 0.1301 0.6072 0.6456
H14 H 0.0528 0.5319 0.6040
C22 C 0.07010(9) 0.06921(19) 0.66403(6)
H15 H 0.0160 0.1088 0.6426
H16 H 0.0954 0.1530 0.6880
H17 H 0.0585 -0.0271 0.6819
C23 C 0.11952(9) -0.3536(2) 0.43956(5)
H18 H 0.1439 -0.3053 0.4137
H19 H 0.0572 -0.3341 0.4319
H20 H 0.1304 -0.4700 0.4409
O1 O 0.14623(6) 0.37245(11) 0.63256(4)
O2 O 0.13006(6) 0.02900(12) 0.63369(3)
O3 O 0.15967(6) -0.28161(13) 0.48743(3)
C24 C 0.39280(9) 0.54475(17) 0.36319(5)
H21 H 0.4540 0.5474 0.3734
C25 C 0.34763(10) 0.39704(17) 0.35976(5)
H22 H 0.3789 0.2993 0.3674
C26 C 0.25653(10) 0.39274(17) 0.34516(5)
H23 H 0.2273 0.2925 0.3434
C27 C 0.20830(9) 0.53779(17) 0.33311(5)
C28 C 0.21495(8) 0.86554(16) 0.32633(5)
C29 C 0.19890(8) 1.02549(16) 0.40562(5)
H24 H 0.1378 1.0250 0.3946
C30 C 0.19105(9) 1.18033(17) 0.48353(5)
C31 C 0.23184(10) 1.25437(18) 0.52798(5)
H25 H 0.1986 1.3047 0.5480
C32 C 0.32493(10) 1.25441(18) 0.54365(5)
H26 H 0.3526 1.3052 0.5740
C33 C 0.37459(9) 1.18107(17) 0.51489(5)
H27 H 0.4357 1.1825 0.5257
C34 C 0.38367(8) 1.02301(16) 0.43788(5)
H28 H 0.4448 1.0208 0.4482
C35 C 0.38520(9) 0.86024(17) 0.35609(5)
H29 H 0.4497 0.8588 0.3667
C36 C 0.34462(9) 0.68872(16) 0.35110(5)
C37 C 0.25241(8) 0.68819(16) 0.33538(5)
C38 C 0.35051(9) 0.94394(17) 0.30510(5)
H30 H 0.3873 0.9888 0.2862
C39 C 0.26331(9) 0.94747(17) 0.28991(5)
H31 H 0.2339 0.9959 0.2595
C40 C 0.34246(8) 0.95018(16) 0.39353(5)
C41 C 0.24910(8) 0.95214(15) 0.37720(5)
C42 C 0.33394(9) 1.10274(16) 0.46866(5)
C43 C 0.24033(8) 1.10260(16) 0.45205(5)
C44 C 0.04848(10) 1.2273(2) 0.49777(6)
H32 H -0.0126 1.2095 0.4818
H33 H 0.0585 1.3424 0.5047
H34 H 0.0638 1.1665 0.5290
C45 C 0.08316(9) 0.8399(2) 0.26087(5)
H35 H 0.0791 0.9371 0.2403
H36 H 0.0252 0.7965 0.2585
H37 H 0.1184 0.7591 0.2491
C46 C 0.07435(10) 0.3853(2) 0.31988(6)
H38 H 0.0914 0.3104 0.2966
H39 H 0.0117 0.4016 0.3103
H40 H 0.0906 0.3404 0.3536
O4 O 0.11766(6) 0.53845(13) 0.31876(4)
O5 O 0.12278(6) 0.88010(12) 0.31231(3)
O6 O 0.10147(6) 1.17301(15) 0.46481(4)
loop_
_geom_bond_atom_site_label_1
_geom_bond_atom_site_label_2
_geom_bond_site_symmetry_1
_geom_bond_site_symmetry_2
C1 H1 1_555 1_555
C2 C1 1_555 1_555
H2 C2 1_555 1_555
C3 C2 1_555 1_555
H3 C3 1_555 1_555
C4 C3 1_555 1_555
C5 C13 1_555 1_555
C6 H4 1_555 1_555
C7 C8 1_555 1_555
C8 H5 1_555 1_555
C9 C8 1_555 1_555
H6 C9 1_555 1_555
C10 C9 1_555 1_555
H7 C10 1_555 1_555
C11 H8 1_555 1_555
C12 H9 1_555 1_555
C13 C4 1_555 1_555
C14 C1 1_555 1_555
C15 C5 1_555 1_555
H10 C15 1_555 1_555
C16 C12 1_555 1_555
H11 C16 1_555 1_555
C17 C5 1_555 1_555
C18 C11 1_555 1_555
C19 C6 1_555 1_555
C20 C10 1_555 1_555
C21 H12 1_555 1_555
H13 C21 1_555 1_555
H14 C21 1_555 1_555
C22 H15 1_555 1_555
H16 C22 1_555 1_555
H17 C22 1_555 1_555
C23 H18 1_555 1_555
H19 C23 1_555 1_555
H20 C23 1_555 1_555
O1 C4 1_555 1_555
O2 C5 1_555 1_555
O3 C7 1_555 1_555
C24 H21 1_555 1_555
C25 C24 1_555 1_555
H22 C25 1_555 1_555
C26 C25 1_555 1_555
H23 C26 1_555 1_555
C27 C26 1_555 1_555
C28 C37 1_555 1_555
C29 H24 1_555 1_555
C30 C31 1_555 1_555
C31 H25 1_555 1_555
C32 C31 1_555 1_555
H26 C32 1_555 1_555
C33 C32 1_555 1_555
H27 C33 1_555 1_555
C34 H28 1_555 1_555
C35 H29 1_555 1_555
C36 C24 1_555 1_555
C37 C27 1_555 1_555
C38 C35 1_555 1_555
H30 C38 1_555 1_555
C39 C28 1_555 1_555
H31 C39 1_555 1_555
C40 C34 1_555 1_555
C41 C28 1_555 1_555
C42 C33 1_555 1_555
C43 C29 1_555 1_555
C44 H32 1_555 1_555
H33 C44 1_555 1_555
H34 C44 1_555 1_555
C45 H35 1_555 1_555
H36 C45 1_555 1_555
H37 C45 1_555 1_555
C46 H38 1_555 1_555
H39 C46 1_555 1_555
H40 C46 1_555 1_555
O4 C27 1_555 1_555
O5 C28 1_555 1_555
O6 C30 1_555 1_555
C6 C17 1_555 1_555
C7 C19 1_555 1_555
C11 C20 1_555 1_555
C12 C14 1_555 1_555
C12 C18 1_555 1_555
C13 C14 1_555 1_555
C15 C16 1_555 1_555
C17 C18 1_555 1_555
C19 C20 1_555 1_555
C21 O1 1_555 1_555
C22 O2 1_555 1_555
C23 O3 1_555 1_555
C29 C41 1_555 1_555
C30 C43 1_555 1_555
C34 C42 1_555 1_555
C35 C36 1_555 1_555
C35 C40 1_555 1_555
C36 C37 1_555 1_555
C38 C39 1_555 1_555
C40 C41 1_555 1_555
C42 C43 1_555 1_555
C44 O6 1_555 1_555
C45 O5 1_555 1_555
C46 O4 1_555 1_555

#END
