
#######################################################################
#
#                 Cambridge Crystallographic Data Centre
#                                CCDC 
#
#######################################################################
#
# If this CIF has been generated from an entry in the Cambridge 
# Structural Database, then it will include bibliographic, chemical, 
# crystal, experimental, refinement or atomic coordinate data resulting 
# from the CCDC's data processing and validation procedures.
#
#######################################################################

data_JOVHIN
_chemical_formula_moiety         'C17 H21 N5,0.5(C4 H8 O2)'
_chemical_name_systematic        
'N-(1,4-Dihydro-4,4,6-trimethyl-2-pyrimidinyl)-4,6-dimethyl-2-quinazolinamine ethyl acetate solvate'
_symmetry_cell_setting           monoclinic
_symmetry_space_group_name_H-M   'P 21/c'
_symmetry_Int_Tables_number      14
_space_group_name_Hall           '-P 2ybc'
loop_
_symmetry_equiv_pos_site_id
_symmetry_equiv_pos_as_xyz
1 x,y,z
2 -x,1/2+y,1/2-z
3 -x,-y,-z
4 x,1/2-y,1/2+z
_cell_length_a                   19.3750(5)
_cell_length_b                   8.9247(2)
_cell_length_c                   21.9665(5)
_cell_angle_alpha                90
_cell_angle_beta                 112.5220(10)
_cell_angle_gamma                90
_cell_volume                     3508.67
_cell_formula_units_Z            8
loop_
_atom_site_label
_atom_site_type_symbol
_atom_site_fract_x
_atom_site_fract_y
_atom_site_fract_z
O1 O 0.9678(4) 0.2493(8) 0.4913(3)
O2 O 1.0000 0.0000 0.5000
C18 C 1.0655(5) 0.0405(9) 0.5417(5)
C19 C 0.9403(5) 0.1251(8) 0.4751(4)
C20 C 0.8791(4) 0.0953(7) 0.4344(3)
O1B O 1.0322(4) -0.2493(8) 0.5087(3)
C18B C 0.9345(5) -0.0405(9) 0.4583(5)
C19B C 1.0597(5) -0.1251(8) 0.5249(4)
C20B C 1.1209(4) -0.0953(7) 0.5656(3)
N6 N 0.49925(9) 0.6814(2) 0.32983(9)
N7 N 0.49306(9) 0.5056(2) 0.41018(8)
N8 N 0.60386(9) 0.53728(19) 0.39780(8)
N9 N 0.72378(9) 0.5558(2) 0.40432(9)
H21 H 0.7329(12) 0.501(3) 0.4352(12)
N10 N 0.63548(9) 0.7117(2) 0.33121(9)
C21 C 0.42542(11) 0.7156(2) 0.31430(10)
C22 C 0.38949(12) 0.8197(3) 0.26372(12)
H22 H 0.4167 0.8680 0.2414
C23 C 0.31535(12) 0.8509(3) 0.24700(12)
H23 H 0.2917 0.9200 0.2124
C24 C 0.27271(12) 0.7840(3) 0.27941(12)
C25 C 0.30745(11) 0.6846(2) 0.32932(11)
H24 H 0.2800 0.6397 0.3523
C26 C 0.38398(11) 0.6478(2) 0.34716(10)
C27 C 0.42279(11) 0.5398(2) 0.39625(10)
C28 C 0.53026(10) 0.5801(2) 0.37687(10)
C29 C 0.65200(10) 0.6042(2) 0.37642(10)
C30 C 0.77996(10) 0.6213(2) 0.38726(10)
C31 C 0.76407(11) 0.7289(3) 0.34246(10)
H25 H 0.8034 0.7675 0.3313
C32 C 0.68721(11) 0.7929(3) 0.30836(11)
C33 C 0.19121(13) 0.8246(3) 0.25921(15)
H26 H 0.1701 0.7691 0.2865
H27 H 0.1640 0.7985 0.2128
H28 H 0.1867 0.9324 0.2652
C34 C 0.38333(11) 0.4565(3) 0.43319(11)
H29 H 0.4183 0.3872 0.4646
H30 H 0.3413 0.4000 0.4019
H31 H 0.3646 0.5282 0.4570
C35 C 0.85593(11) 0.5555(3) 0.42215(12)
H32 H 0.8918 0.6066 0.4078
H33 H 0.8548 0.4485 0.4118
H34 H 0.8710 0.5683 0.4698
C36 C 0.68459(14) 0.9608(3) 0.32428(14)
H35 H 0.7026 0.9743 0.3721
H36 H 0.6331 0.9971 0.3038
H37 H 0.7165 1.0175 0.3070
C37 C 0.65915(12) 0.7756(3) 0.23354(11)
H38 H 0.6602 0.6695 0.2224
H39 H 0.6914 0.8328 0.2169
H40 H 0.6079 0.8134 0.2133
N1 N 0.86070(10) 0.1931(2) 0.59044(10)
C1 C 0.93226(11) 0.1940(3) 0.63527(11)
N2 N 0.86821(9) 0.4576(2) 0.57468(9)
C2 C 0.96507(13) 0.0581(3) 0.66594(13)
H1 H 0.9375 -0.0326 0.6545
N3 N 0.75921(9) 0.3335(2) 0.51587(9)
C3 C 1.03705(13) 0.0576(3) 0.71233(13)
H2 H 1.0586 -0.0346 0.7322
N4 N 0.64351(9) 0.2371(2) 0.45530(10)
H3 H 0.6315(13) 0.325(3) 0.4386(12)
C4 C 1.07959(12) 0.1898(3) 0.73122(11)
N5 N 0.72973(11) 0.0793(2) 0.52810(10)
C5 C 1.04841(11) 0.3222(3) 0.70034(11)
H4 H 1.0769 0.4119 0.7119
C6 C 0.97489(11) 0.3272(2) 0.65191(10)
C7 C 0.93772(11) 0.4592(2) 0.61758(11)
C8 C 0.83021(11) 0.3221(2) 0.56188(11)
C9 C 0.71262(11) 0.2157(2) 0.50147(10)
C10 C 0.59264(13) 0.1189(3) 0.43141(14)
C11 C 0.61118(13) -0.0205(3) 0.45795(12)
H5 H 0.5807 -0.1037 0.4371
C12 C 0.67752(16) -0.0436(3) 0.51816(14)
C13 C 1.15622(12) 0.1835(4) 0.78539(13)
H6 H 1.1784 0.2838 0.7927
H7 H 1.1879 0.1149 0.7727
H8 H 1.1522 0.1476 0.8261
C14 C 0.97777(12) 0.6072(3) 0.62842(12)
H9 H 0.9438 0.6841 0.6011
H10 H 1.0213 0.5986 0.6163
H11 H 0.9943 0.6355 0.6750
C15 C 0.52701(12) 0.1497(3) 0.37037(13)
H12 H 0.4951 0.0606 0.3580
H13 H 0.5438 0.1751 0.3348
H14 H 0.4987 0.2338 0.3778
C16 C 0.6522(2) -0.0454(4) 0.57941(16)
H15 H 0.6251 0.0472 0.5796
H16 H 0.6964 -0.0527 0.6205
H17 H 0.6196 -0.1317 0.5757
C17 C 0.72017(16) -0.1890(3) 0.51785(13)
H18 H 0.7356 -0.1880 0.4803
H19 H 0.6876 -0.2754 0.5142
H20 H 0.7644 -0.1962 0.5589
H41? H 0.589(2) 0.733(4) 0.3109(19)
H42? H 0.765(2) 0.060(4) 0.562(2)
loop_
_geom_bond_atom_site_label_1
_geom_bond_atom_site_label_2
_geom_bond_site_symmetry_1
_geom_bond_site_symmetry_2
N1 C1 1_555 1_555
C1 C2 1_555 1_555
N2 C7 1_555 1_555
C2 H1 1_555 1_555
N3 C8 1_555 1_555
C3 C2 1_555 1_555
H2 C3 1_555 1_555
N4 H3 1_555 1_555
C4 C3 1_555 1_555
N5 C9 1_555 1_555
C5 C4 1_555 1_555
H4 C5 1_555 1_555
C6 C1 1_555 1_555
C7 C6 1_555 1_555
C8 N1 1_555 1_555
C9 N3 1_555 1_555
C10 N4 1_555 1_555
C11 C10 1_555 1_555
H5 C11 1_555 1_555
C12 N5 1_555 1_555
C13 C4 1_555 1_555
H6 C13 1_555 1_555
H7 C13 1_555 1_555
H8 C13 1_555 1_555
C14 C7 1_555 1_555
H9 C14 1_555 1_555
H10 C14 1_555 1_555
H11 C14 1_555 1_555
C15 C10 1_555 1_555
H12 C15 1_555 1_555
H13 C15 1_555 1_555
H14 C15 1_555 1_555
C16 C12 1_555 1_555
H15 C16 1_555 1_555
H16 C16 1_555 1_555
H17 C16 1_555 1_555
C17 C12 1_555 1_555
H18 C17 1_555 1_555
H19 C17 1_555 1_555
H20 C17 1_555 1_555
O1 C19 1_555 1_555
O2 C18 1_555 1_555
C18 C19B 1_555 1_555
C19 O2 1_555 1_555
C20 C19 1_555 1_555
N6 C21 1_555 1_555
N7 C27 1_555 1_555
N8 C28 1_555 1_555
N9 H21 1_555 1_555
N10 C29 1_555 1_555
C21 C22 1_555 1_555
C22 H22 1_555 1_555
C23 C22 1_555 1_555
H23 C23 1_555 1_555
C24 C23 1_555 1_555
C25 C24 1_555 1_555
H24 C25 1_555 1_555
C26 C21 1_555 1_555
C27 C26 1_555 1_555
C28 N6 1_555 1_555
C29 N8 1_555 1_555
C30 N9 1_555 1_555
C31 C30 1_555 1_555
H25 C31 1_555 1_555
C32 N10 1_555 1_555
C33 C24 1_555 1_555
H26 C33 1_555 1_555
H27 C33 1_555 1_555
H28 C33 1_555 1_555
C34 C27 1_555 1_555
H29 C34 1_555 1_555
H30 C34 1_555 1_555
H31 C34 1_555 1_555
C35 C30 1_555 1_555
H32 C35 1_555 1_555
H33 C35 1_555 1_555
H34 C35 1_555 1_555
C36 C32 1_555 1_555
H35 C36 1_555 1_555
H36 C36 1_555 1_555
H37 C36 1_555 1_555
C37 C32 1_555 1_555
H38 C37 1_555 1_555
H39 C37 1_555 1_555
H40 C37 1_555 1_555
O1B C19B 1_555 1_555
C18B O2 1_555 1_555
C19B O2 1_555 1_555
C20B C18 1_555 1_555
N2 C8 1_555 1_555
N4 C9 1_555 1_555
C5 C6 1_555 1_555
C11 C12 1_555 1_555
C19 C18B 1_555 1_555
C20 C18B 1_555 1_555
N7 C28 1_555 1_555
N9 C29 1_555 1_555
C25 C26 1_555 1_555
C31 C32 1_555 1_555
C19B C20B 1_555 1_555

#END
