
#######################################################################
#
#                 Cambridge Crystallographic Data Centre
#                                CCDC 
#
#######################################################################
#
# If this CIF has been generated from an entry in the Cambridge 
# Structural Database, then it will include bibliographic, chemical, 
# crystal, experimental, refinement or atomic coordinate data resulting 
# from the CCDC's data processing and validation procedures.
#
#######################################################################

data_JOWQUJ
_chemical_formula_moiety         'C9 H15 N3 2+,2(H2 O4 P1 1-)'
_chemical_name_systematic        
'4-(pyridinium-4-yl)piperazin-1-ium bis(dihydrogen phosphate)'
_symmetry_cell_setting           orthorhombic
_symmetry_space_group_name_H-M   'P b c a'
_symmetry_Int_Tables_number      61
_space_group_name_Hall           '-P 2ac 2ab'
loop_
_symmetry_equiv_pos_site_id
_symmetry_equiv_pos_as_xyz
1 x,y,z
2 1/2-x,-y,1/2+z
3 1/2+x,1/2-y,-z
4 -x,1/2+y,1/2-z
5 -x,-y,-z
6 1/2+x,y,1/2-z
7 1/2-x,1/2+y,z
8 x,1/2-y,1/2+z
_cell_length_a                   17.989(5)
_cell_length_b                   7.572(5)
_cell_length_c                   20.891(5)
_cell_angle_alpha                90
_cell_angle_beta                 90
_cell_angle_gamma                90
_cell_volume                     2845.62
_exptl_crystal_colour            colorless
_exptl_crystal_description       needle
_cell_formula_units_Z            8
loop_
_atom_site_label
_atom_site_type_symbol
_atom_site_fract_x
_atom_site_fract_y
_atom_site_fract_z
N1 N 0.85322(9) 0.0296(2) 0.46739(8)
H1 H 0.8952(14) -0.008(3) 0.4483(12)
C1 C 0.78653(10) 0.0073(3) 0.43935(9)
H2 H 0.7842 -0.0370 0.3979
C2 C 0.72247(10) 0.0484(3) 0.47055(9)
H3 H 0.6770 0.0323 0.4502
C3 C 0.72436(9) 0.1154(2) 0.53353(8)
C4 C 0.79545(10) 0.1362(3) 0.56106(9)
H4 H 0.8000 0.1793 0.6026
C5 C 0.85749(10) 0.0933(3) 0.52694(9)
H5 H 0.9040 0.1086 0.5456
N2 N 0.66098(8) 0.1593(2) 0.56616(7)
C6 C 0.58978(9) 0.0938(2) 0.54116(9)
H6 H 0.5868 -0.0325 0.5483
H7 H 0.5880 0.1140 0.4953
C7 C 0.52333(10) 0.1820(3) 0.57202(9)
H8 H 0.5204 0.3038 0.5579
H9 H 0.4782 0.1223 0.5587
N3 N 0.52901(8) 0.1769(2) 0.64260(8)
H10 H 0.5319 0.0643 0.6561
H11 H 0.4884 0.2266 0.6602
C8 C 0.59653(10) 0.2751(3) 0.66230(9)
H12 H 0.5994 0.2788 0.7087
H13 H 0.5937 0.3956 0.6467
C9 C 0.66540(10) 0.1869(3) 0.63575(9)
H14 H 0.7084 0.2595 0.6453
H15 H 0.6722 0.0738 0.6567
P1 P 0.52600(2) 0.28969(6) 0.35849(2)
O1 O 0.52031(7) 0.40937(18) 0.41519(6)
O2 O 0.59019(8) 0.1578(2) 0.37366(7)
H16 H 0.6080(16) 0.104(4) 0.3439(13)
O3 O 0.54712(9) 0.3952(2) 0.29666(7)
H17 H 0.5723(17) 0.474(4) 0.3055(15)
O4 O 0.45731(7) 0.18470(17) 0.34318(7)
P2 P 0.33206(2) 0.29833(6) 0.21789(2)
O5 O 0.38922(8) 0.19787(17) 0.18037(7)
O6 O 0.33344(8) 0.2400(2) 0.28945(7)
H18 H 0.3733(15) 0.237(4) 0.3039(13)
O7 O 0.33980(7) 0.49559(17) 0.21240(7)
O8 O 0.25117(8) 0.2581(2) 0.19603(8)
H19 H 0.2321(16) 0.165(4) 0.2104(14)
loop_
_geom_bond_atom_site_label_1
_geom_bond_atom_site_label_2
_geom_bond_site_symmetry_1
_geom_bond_site_symmetry_2
N1 H1 1_555 1_555
C1 N1 1_555 1_555
H2 C1 1_555 1_555
C2 C1 1_555 1_555
H3 C2 1_555 1_555
C3 C2 1_555 1_555
C4 C3 1_555 1_555
H4 C4 1_555 1_555
C5 N1 1_555 1_555
H5 C5 1_555 1_555
N2 C3 1_555 1_555
C6 N2 1_555 1_555
H6 C6 1_555 1_555
H7 C6 1_555 1_555
C7 C6 1_555 1_555
H8 C7 1_555 1_555
H9 C7 1_555 1_555
N3 C7 1_555 1_555
H10 N3 1_555 1_555
H11 N3 1_555 1_555
C8 N3 1_555 1_555
H12 C8 1_555 1_555
H13 C8 1_555 1_555
C9 N2 1_555 1_555
H14 C9 1_555 1_555
H15 C9 1_555 1_555
P1 O1 1_555 1_555
O2 P1 1_555 1_555
H16 O2 1_555 1_555
O3 P1 1_555 1_555
H17 O3 1_555 1_555
O4 P1 1_555 1_555
P2 O5 1_555 1_555
O6 P2 1_555 1_555
H18 O6 1_555 1_555
O7 P2 1_555 1_555
O8 P2 1_555 1_555
H19 O8 1_555 1_555
C4 C5 1_555 1_555
C8 C9 1_555 1_555

#END
