
#######################################################################
#
#                 Cambridge Crystallographic Data Centre
#                                CCDC 
#
#######################################################################
#
# If this CIF has been generated from an entry in the Cambridge 
# Structural Database, then it will include bibliographic, chemical, 
# crystal, experimental, refinement or atomic coordinate data resulting 
# from the CCDC's data processing and validation procedures.
#
#######################################################################

data_JOYJAK01
_chemical_formula_moiety         'C5 H8 O4,C4 H5 N3'
_chemical_name_systematic        'pentanedioic acid pyrimidin-2-amine'
_symmetry_cell_setting           orthorhombic
_symmetry_space_group_name_H-M   'P b c m'
_symmetry_Int_Tables_number      57
_space_group_name_Hall           '-P 2c 2b'
loop_
_symmetry_equiv_pos_site_id
_symmetry_equiv_pos_as_xyz
1 x,y,z
2 -x,-y,1/2+z
3 x,1/2-y,-z
4 -x,1/2+y,1/2-z
5 -x,-y,-z
6 x,y,1/2-z
7 -x,1/2+y,z
8 x,1/2-y,1/2+z
_cell_length_a                   4.1667(4)
_cell_length_b                   12.6657(11)
_cell_length_c                   20.3238(18)
_cell_angle_alpha                90
_cell_angle_beta                 90
_cell_angle_gamma                90
_cell_volume                     1072.57
_exptl_crystal_colour            'light colorless'
_exptl_crystal_description       prism
_cell_formula_units_Z            4
loop_
_atom_site_label
_atom_site_type_symbol
_atom_site_fract_x
_atom_site_fract_y
_atom_site_fract_z
O1 O 0.0812(3) 0.45503(8) 0.42387(5)
O2 O 0.2865(3) 0.30700(9) 0.38120(5)
C1 C 0.2530(3) 0.36731(11) 0.42703(7)
C2 C 0.4034(4) 0.35156(11) 0.49387(7)
C3 C 0.5961(5) 0.2500 0.5000
H1 H -0.012(7) 0.4621(19) 0.3836(12)
H2 H 0.232(4) 0.3555(14) 0.5261(9)
H3 H 0.539(5) 0.4150(16) 0.5018(10)
H4 H 0.732(5) 0.2443(16) 0.4620(10)
O1B O 0.0812(3) 0.04497(8) 0.57613(5)
O2B O 0.2865(3) 0.19300(9) 0.61880(5)
C1B C 0.2530(3) 0.13269(11) 0.57297(7)
C2B C 0.4034(4) 0.14844(11) 0.50613(7)
H1B H -0.012(7) 0.0379(19) 0.6164(12)
H2B H 0.232(4) 0.1445(14) 0.4739(9)
H3B H 0.539(5) 0.0850(16) 0.4982(10)
H4B H 0.732(5) 0.2557(16) 0.5380(10)
N1 N 0.0630(5) 0.37091(15) 0.2500
N2 N -0.2000(3) 0.50020(10) 0.30879(6)
C4 C -0.1154(5) 0.45857(16) 0.2500
C5 C -0.3857(4) 0.58639(11) 0.30791(7)
C6 C -0.4894(6) 0.63265(16) 0.2500
H5 H 0.132(6) 0.3467(18) 0.2868(11)
H6 H -0.444(5) 0.6172(15) 0.3487(10)
H7 H -0.620(7) 0.692(2) 0.2500
N2E N -0.2000(3) 0.50020(10) 0.19121(6)
C5E C -0.3857(4) 0.58639(11) 0.19209(7)
H5E H 0.132(6) 0.3467(18) 0.2132(11)
H6E H -0.444(5) 0.6172(15) 0.1513(10)
loop_
_geom_bond_atom_site_label_1
_geom_bond_atom_site_label_2
_geom_bond_site_symmetry_1
_geom_bond_site_symmetry_2
O1 C1 1_555 1_555
O2 C1 1_555 1_555
C1 C2 1_555 1_555
C2 C3 1_555 1_555
C3 H4 1_555 1_555
H1 O1 1_555 1_555
H2 C2 1_555 1_555
H3 C2 1_555 1_555
N1 C4 1_555 1_555
N2 C4 1_555 1_555
C4 N2E 1_555 1_555
C5 N2 1_555 1_555
C6 C5 1_555 1_555
H5 N1 1_555 1_555
H6 C5 1_555 1_555
H7 C6 1_555 1_555
O1B C1B 1_555 1_555
O2B C1B 1_555 1_555
C1B C2B 1_555 1_555
C2B C3 1_555 1_555
H1B O1B 1_555 1_555
H2B C2B 1_555 1_555
H3B C2B 1_555 1_555
H4B C3 1_555 1_555
N2E C5E 1_555 1_555
C5E C6 1_555 1_555
H5E N1 1_555 1_555
H6E C5E 1_555 1_555

#END
