
#######################################################################
#
#                 Cambridge Crystallographic Data Centre
#                                CCDC 
#
#######################################################################
#
# If this CIF has been generated from an entry in the Cambridge 
# Structural Database, then it will include bibliographic, chemical, 
# crystal, experimental, refinement or atomic coordinate data resulting 
# from the CCDC's data processing and validation procedures.
#
#######################################################################

data_JOYSUN
_chemical_formula_moiety         'C38 H26 N4 S4'
_chemical_name_systematic        
"4''',5-Dimethyl-2,2',2'',2'''-tetraphenyl-4,5':4',5'':4'',5'''-quater-1,3-thiazole unknown solvate"
_symmetry_cell_setting           triclinic
_symmetry_space_group_name_H-M   'P -1'
_symmetry_Int_Tables_number      2
_space_group_name_Hall           '-P 1'
loop_
_symmetry_equiv_pos_site_id
_symmetry_equiv_pos_as_xyz
1 x,y,z
2 -x,-y,-z
_cell_length_a                   9.4427(2)
_cell_length_b                   12.4782(3)
_cell_length_c                   16.0379(3)
_cell_angle_alpha                69.8502(7)
_cell_angle_beta                 77.4790(7)
_cell_angle_gamma                69.3838(7)
_cell_volume                     1650.6
_exptl_crystal_colour            colorless
_exptl_crystal_description       block
_cell_formula_units_Z            2
loop_
_atom_site_label
_atom_site_type_symbol
_atom_site_fract_x
_atom_site_fract_y
_atom_site_fract_z
S1 S 1.10188(5) 0.16045(4) 0.76843(3)
S2 S 0.69638(5) 0.29027(4) 0.55370(3)
S3 S 0.98870(5) -0.16952(4) 0.61593(3)
S4 S 0.84141(4) -0.03045(4) 0.90480(3)
N1 N 0.82518(16) 0.25198(13) 0.73205(10)
N2 N 0.70782(16) 0.08524(13) 0.54507(10)
N3 N 0.95356(16) -0.21848(13) 0.78743(10)
N4 N 0.56498(16) 0.09511(13) 0.87828(10)
C1 C 1.1687(3) 0.0364(2) 0.64142(15)
C2 C 1.0526(2) 0.11741(16) 0.69011(12)
C3 C 0.91765(19) 0.25273(15) 0.78210(11)
C4 C 0.8720(2) 0.32450(15) 0.84447(11)
C5 C 0.9786(3) 0.3374(2) 0.88549(15)
C6 C 0.9308(3) 0.4093(3) 0.94194(16)
C7 C 0.7781(3) 0.46920(19) 0.95727(14)
C8 C 0.6711(3) 0.45491(18) 0.91813(13)
C9 C 0.7172(2) 0.38129(16) 0.86300(12)
C10 C 0.90053(19) 0.17490(15) 0.68097(11)
C11 C 0.81319(19) 0.16404(15) 0.62083(11)
C12 C 0.64502(19) 0.20007(15) 0.51100(11)
C13 C 0.53552(19) 0.25326(15) 0.44395(11)
C14 C 0.4861(3) 0.37669(16) 0.40437(13)
C15 C 0.3815(3) 0.42642(17) 0.34179(13)
C16 C 0.3257(2) 0.35259(18) 0.31837(13)
C17 C 0.3748(2) 0.22951(17) 0.35745(13)
C18 C 0.4793(2) 0.17951(16) 0.42007(12)
C19 C 0.80144(18) 0.06426(15) 0.60779(11)
C20 C 0.87143(18) -0.05853(15) 0.66223(11)
C21 C 1.02467(19) -0.26526(15) 0.72268(11)
C22 C 1.13161(19) -0.38757(15) 0.73567(12)
C23 C 1.1560(3) -0.45049(16) 0.67453(13)
C24 C 1.2608(3) -0.56466(17) 0.68761(14)
C25 C 1.3409(3) -0.61599(16) 0.76188(14)
C26 C 1.3152(2) -0.55394(16) 0.82337(13)
C27 C 1.2113(2) -0.43971(16) 0.81078(12)
C28 C 0.86401(18) -0.10171(15) 0.75407(11)
C29 C 0.76943(19) -0.03371(14) 0.81546(11)
C30 C 0.66857(19) 0.06971(15) 0.93065(11)
C31 C 0.6443(2) 0.12168(15) 1.00385(11)
C32 C 0.7665(2) 0.11979(16) 1.04072(12)
C33 C 0.7422(3) 0.17356(18) 1.10764(13)
C34 C 0.5941(3) 0.22920(17) 1.13906(13)
C35 C 0.4718(3) 0.23021(17) 1.10367(13)
C36 C 0.4957(2) 0.17756(16) 1.03591(12)
C37 C 0.62028(19) 0.03730(15) 0.81343(11)
C38 C 0.5126(2) 0.05259(16) 0.75082(12)
H1 H 1.1875 -0.0468 0.6793
H2 H 1.2637 0.0575 0.6268
H3 H 1.1313 0.0454 0.5862
H4 H 1.0838 0.2970 0.8748
H5 H 1.0035 0.4175 0.9702
H6 H 0.7465 0.5201 0.9946
H7 H 0.5662 0.4956 0.9291
H8 H 0.6435 0.3695 0.8379
H9 H 0.5241 0.4273 0.4202
H10 H 0.3483 0.5107 0.3151
H11 H 0.2542 0.3863 0.2757
H12 H 0.3367 0.1791 0.3413
H13 H 0.5124 0.0952 0.4466
H14 H 1.1011 -0.4156 0.6237
H15 H 1.2774 -0.6073 0.6457
H16 H 1.4132 -0.6934 0.7705
H17 H 1.3689 -0.5898 0.8747
H18 H 1.1948 -0.3975 0.8530
H19 H 0.8675 0.0813 1.0198
H20 H 0.8263 0.1724 1.1319
H21 H 0.5770 0.2663 1.1846
H22 H 0.3709 0.2671 1.1258
H23 H 0.4114 0.1796 1.0115
H24 H 0.4179 0.0391 0.7852
H25 H 0.5594 -0.0054 0.7167
H26 H 0.4903 0.1340 0.7096
loop_
_geom_bond_atom_site_label_1
_geom_bond_atom_site_label_2
_geom_bond_site_symmetry_1
_geom_bond_site_symmetry_2
S1 C2 1_555 1_555
S2 C11 1_555 1_555
S3 C20 1_555 1_555
S4 C29 1_555 1_555
N1 C3 1_555 1_555
N2 C12 1_555 1_555
N3 C21 1_555 1_555
N4 C30 1_555 1_555
C1 C2 1_555 1_555
C2 C10 1_555 1_555
C3 S1 1_555 1_555
C4 C3 1_555 1_555
C5 C4 1_555 1_555
C6 C5 1_555 1_555
C7 C6 1_555 1_555
C8 C7 1_555 1_555
C9 C4 1_555 1_555
C10 N1 1_555 1_555
C11 C10 1_555 1_555
C12 S2 1_555 1_555
C13 C12 1_555 1_555
C14 C13 1_555 1_555
C15 C14 1_555 1_555
C16 C15 1_555 1_555
C17 C16 1_555 1_555
C18 C13 1_555 1_555
C19 N2 1_555 1_555
C20 C19 1_555 1_555
C21 S3 1_555 1_555
C22 C21 1_555 1_555
C23 C22 1_555 1_555
C24 C23 1_555 1_555
C25 C24 1_555 1_555
C26 C25 1_555 1_555
C27 C22 1_555 1_555
C28 N3 1_555 1_555
C29 C28 1_555 1_555
C30 S4 1_555 1_555
C31 C30 1_555 1_555
C32 C31 1_555 1_555
C33 C32 1_555 1_555
C34 C33 1_555 1_555
C35 C34 1_555 1_555
C36 C31 1_555 1_555
C37 N4 1_555 1_555
C38 C37 1_555 1_555
H1 C1 1_555 1_555
H2 C1 1_555 1_555
H3 C1 1_555 1_555
H4 C5 1_555 1_555
H5 C6 1_555 1_555
H6 C7 1_555 1_555
H7 C8 1_555 1_555
H8 C9 1_555 1_555
H9 C14 1_555 1_555
H10 C15 1_555 1_555
H11 C16 1_555 1_555
H12 C17 1_555 1_555
H13 C18 1_555 1_555
H14 C23 1_555 1_555
H15 C24 1_555 1_555
H16 C25 1_555 1_555
H17 C26 1_555 1_555
H18 C27 1_555 1_555
H19 C32 1_555 1_555
H20 C33 1_555 1_555
H21 C34 1_555 1_555
H22 C35 1_555 1_555
H23 C36 1_555 1_555
H24 C38 1_555 1_555
H25 C38 1_555 1_555
H26 C38 1_555 1_555
C8 C9 1_555 1_555
C11 C19 1_555 1_555
C17 C18 1_555 1_555
C20 C28 1_555 1_555
C26 C27 1_555 1_555
C29 C37 1_555 1_555
C35 C36 1_555 1_555

#END
