
#######################################################################
#
#                 Cambridge Crystallographic Data Centre
#                                CCDC 
#
#######################################################################
#
# If this CIF has been generated from an entry in the Cambridge 
# Structural Database, then it will include bibliographic, chemical, 
# crystal, experimental, refinement or atomic coordinate data resulting 
# from the CCDC's data processing and validation procedures.
#
#######################################################################

data_JOYVIE
_chemical_formula_moiety         'C17 H11 N1 O3 S1'
_chemical_name_systematic        
'2-(1-Naphthyl)-1,2-benzothiazol-3(2H)-one 1,1-dioxide'
_symmetry_cell_setting           orthorhombic
_symmetry_space_group_name_H-M   'P n a 21'
_symmetry_Int_Tables_number      33
_space_group_name_Hall           'P 2c -2n'
loop_
_symmetry_equiv_pos_site_id
_symmetry_equiv_pos_as_xyz
1 x,y,z
2 -x,-y,1/2+z
3 1/2+x,1/2-y,z
4 1/2-x,1/2+y,1/2+z
_cell_length_a                   20.003(7)
_cell_length_b                   10.948(4)
_cell_length_c                   12.975(4)
_cell_angle_alpha                90
_cell_angle_beta                 90
_cell_angle_gamma                90
_cell_volume                     2841.43
_exptl_crystal_colour            colorless
_exptl_crystal_description       block
_cell_formula_units_Z            8
loop_
_atom_site_label
_atom_site_type_symbol
_atom_site_fract_x
_atom_site_fract_y
_atom_site_fract_z
S1 S 0.22763(5) 0.80358(11) 0.80703(9)
O1 O 0.21671(17) 0.6755(3) 0.7913(3)
O2 O 0.17395(16) 0.8840(4) 0.7835(3)
O3 O 0.40455(15) 0.9109(3) 0.7727(3)
N1 N 0.29626(19) 0.8474(4) 0.7433(3)
C1 C 0.2945(2) 0.8554(4) 0.6328(4)
C2 C 0.2652(2) 0.9518(4) 0.5853(4)
H1 H 0.2460 1.0129 0.6254
C3 C 0.2628(2) 0.9623(5) 0.4779(4)
H2 H 0.2425 1.0292 0.4469
C4 C 0.2916(2) 0.8705(6) 0.4186(5)
H3 H 0.2907 0.8764 0.3472
C5 C 0.3226(2) 0.7669(5) 0.4663(4)
C6 C 0.3524(3) 0.6738(7) 0.4076(6)
H4 H 0.3513 0.6785 0.3360
C7 C 0.3827(3) 0.5773(7) 0.4533(7)
H5 H 0.4027 0.5167 0.4136
C8 C 0.3836(3) 0.5697(6) 0.5617(6)
H6 H 0.4042 0.5028 0.5924
C9 C 0.3558(3) 0.6557(5) 0.6229(5)
H7 H 0.3569 0.6480 0.6943
C10 C 0.3241(2) 0.7605(5) 0.5745(4)
C11 C 0.3504(2) 0.8804(4) 0.8054(4)
C12 C 0.3298(2) 0.8705(4) 0.9159(4)
C13 C 0.3678(2) 0.8954(4) 1.0008(4)
H8 H 0.4122 0.9195 0.9937
C14 C 0.3389(3) 0.8842(6) 1.0985(4)
H9 H 0.3639 0.9010 1.1572
C15 C 0.2728(3) 0.8479(7) 1.1075(4)
H10 H 0.2541 0.8404 1.1728
C16 C 0.2337(2) 0.8224(6) 1.0222(4)
H11 H 0.1892 0.7993 1.0286
C17 C 0.2639(2) 0.8329(5) 0.9272(4)
S2 S 0.37360(5) 0.23713(9) 0.79815(10)
O4 O 0.36451(16) 0.3658(3) 0.7833(3)
O5 O 0.32001(14) 0.1584(3) 0.7688(3)
O6 O 0.54801(14) 0.1120(3) 0.7808(3)
N2 N 0.44511(18) 0.1927(3) 0.7411(3)
C18 C 0.4521(2) 0.2041(4) 0.6314(4)
C19 C 0.4165(2) 0.1289(4) 0.5687(4)
H12 H 0.3888 0.0697 0.5974
C20 C 0.4212(2) 0.1399(5) 0.4612(4)
H13 H 0.3965 0.0879 0.4191
C21 C 0.4617(2) 0.2264(4) 0.4179(4)
H14 H 0.4638 0.2339 0.3465
C22 C 0.5006(2) 0.3051(4) 0.4812(4)
C23 C 0.5442(3) 0.3934(5) 0.4380(4)
H15 H 0.5478 0.4007 0.3668
C24 C 0.5808(3) 0.4672(5) 0.5001(6)
H16 H 0.6102 0.5230 0.4707
C25 C 0.5753(3) 0.4614(5) 0.6074(5)
H17 H 0.6000 0.5144 0.6485
C26 C 0.5333(2) 0.3772(4) 0.6523(4)
H18 H 0.5297 0.3736 0.7237
C27 C 0.4953(2) 0.2955(4) 0.5899(4)
C28 C 0.4945(2) 0.1511(4) 0.8077(4)
C29 C 0.4700(2) 0.1634(4) 0.9159(4)
C30 C 0.5052(2) 0.1386(4) 1.0041(4)
H19 H 0.5497 0.1143 1.0006
C31 C 0.4732(2) 0.1505(5) 1.0993(4)
H20 H 0.4964 0.1341 1.1598
C32 C 0.4067(2) 0.1869(5) 1.1034(4)
H21 H 0.3857 0.1928 1.1672
C33 C 0.3705(2) 0.2150(4) 1.0145(4)
H22 H 0.3261 0.2402 1.0176
C34 C 0.4041(2) 0.2034(4) 0.9211(4)
loop_
_geom_bond_atom_site_label_1
_geom_bond_atom_site_label_2
_geom_bond_site_symmetry_1
_geom_bond_site_symmetry_2
S1 O1 1_555 1_555
O2 S1 1_555 1_555
O3 C11 1_555 1_555
N1 S1 1_555 1_555
C1 N1 1_555 1_555
C2 C1 1_555 1_555
H1 C2 1_555 1_555
C3 C2 1_555 1_555
H2 C3 1_555 1_555
C4 C3 1_555 1_555
H3 C4 1_555 1_555
C5 C4 1_555 1_555
C6 C5 1_555 1_555
H4 C6 1_555 1_555
C7 C6 1_555 1_555
H5 C7 1_555 1_555
C8 C7 1_555 1_555
H6 C8 1_555 1_555
C9 C8 1_555 1_555
H7 C9 1_555 1_555
C10 C1 1_555 1_555
C11 N1 1_555 1_555
C12 C11 1_555 1_555
C13 C12 1_555 1_555
H8 C13 1_555 1_555
C14 C13 1_555 1_555
H9 C14 1_555 1_555
C15 C14 1_555 1_555
H10 C15 1_555 1_555
C16 C15 1_555 1_555
H11 C16 1_555 1_555
C17 S1 1_555 1_555
S2 O4 1_555 1_555
O5 S2 1_555 1_555
O6 C28 1_555 1_555
N2 S2 1_555 1_555
C18 N2 1_555 1_555
C19 C18 1_555 1_555
H12 C19 1_555 1_555
C20 C19 1_555 1_555
H13 C20 1_555 1_555
C21 C20 1_555 1_555
H14 C21 1_555 1_555
C22 C21 1_555 1_555
C23 C22 1_555 1_555
H15 C23 1_555 1_555
C24 C23 1_555 1_555
H16 C24 1_555 1_555
C25 C24 1_555 1_555
H17 C25 1_555 1_555
C26 C25 1_555 1_555
H18 C26 1_555 1_555
C27 C18 1_555 1_555
C28 N2 1_555 1_555
C29 C28 1_555 1_555
C30 C29 1_555 1_555
H19 C30 1_555 1_555
C31 C30 1_555 1_555
H20 C31 1_555 1_555
C32 C31 1_555 1_555
H21 C32 1_555 1_555
C33 C32 1_555 1_555
H22 C33 1_555 1_555
C34 S2 1_555 1_555
C5 C10 1_555 1_555
C9 C10 1_555 1_555
C12 C17 1_555 1_555
C16 C17 1_555 1_555
C22 C27 1_555 1_555
C26 C27 1_555 1_555
C29 C34 1_555 1_555
C33 C34 1_555 1_555

#END
