
#######################################################################
#
#                 Cambridge Crystallographic Data Centre
#                                CCDC 
#
#######################################################################
#
# If this CIF has been generated from an entry in the Cambridge 
# Structural Database, then it will include bibliographic, chemical, 
# crystal, experimental, refinement or atomic coordinate data resulting 
# from the CCDC's data processing and validation procedures.
#
#######################################################################

data_JOZFUB01
_chemical_formula_moiety         'C14 H10 F3 N1 O1'
_chemical_name_systematic        N-(2-(Trifluoromethyl)phenyl)benzamide
_symmetry_cell_setting           tetragonal
_symmetry_space_group_name_H-M   'P 43'
_symmetry_Int_Tables_number      78
_space_group_name_Hall           'P 4cw'
loop_
_symmetry_equiv_pos_site_id
_symmetry_equiv_pos_as_xyz
1 x,y,z
2 -y,x,3/4+z
3 y,-x,1/4+z
4 -x,-y,1/2+z
_cell_length_a                   9.0490(2)
_cell_length_b                   9.0490(2)
_cell_length_c                   15.1189(4)
_cell_angle_alpha                90
_cell_angle_beta                 90
_cell_angle_gamma                90
_cell_volume                     1238
_cell_formula_units_Z            4
loop_
_atom_site_label
_atom_site_type_symbol
_atom_site_fract_x
_atom_site_fract_y
_atom_site_fract_z
F1 F 1.239372 0.373126 0.09843
F2 F 1.341825 0.392308 -0.030109
F3 F 1.104894 0.406564 -0.017779
O1 O 0.791444 0.133437 0.013544
N1 N 0.997695 0.162842 0.098285
C1 C 1.096318 0.09209 0.038181
C2 C 1.21308 0.170427 -0.000136
C3 C 1.316618 0.095941 -0.052405
C4 C 1.301763 -0.055613 -0.067928
C5 C 1.182172 -0.132341 -0.032094
C6 C 1.080356 -0.05881 0.020792
C7 C 0.850569 0.173317 0.083242
C8 C 0.759474 0.239784 0.155858
C9 C 0.819255 0.336753 0.218348
C10 C 0.72832 0.40005 0.282659
C11 C 0.578239 0.366035 0.285471
C12 C 0.518244 0.268805 0.223146
C13 C 0.608367 0.206751 0.158136
C14 C 1.225291 0.334515 0.012748
H1 H 1.037711 0.182201 0.159922
H2 H 1.412393 0.155028 -0.078116
H3 H 1.383716 -0.109223 -0.109905
H4 H 1.182873 -0.249189 -0.049599
H5 H 0.987669 -0.11717 0.050793
H6 H 0.937937 0.356955 0.215954
H7 H 0.780109 0.476987 0.328664
H8 H 0.497082 0.410409 0.331654
H9 H 0.400453 0.243756 0.221528
H10 H 0.558166 0.13089 0.110878
Unknown1? Unknown 0.000 0.000 0.000
loop_
_geom_bond_atom_site_label_1
_geom_bond_atom_site_label_2
_geom_bond_site_symmetry_1
_geom_bond_site_symmetry_2
F1 C14 1_555 1_555
F2 C14 1_555 1_555
F3 C14 1_555 1_555
O1 C7 1_555 1_555
N1 C1 1_555 1_555
C1 C2 1_555 1_555
C2 C3 1_555 1_555
C3 C4 1_555 1_555
C4 C5 1_555 1_555
C5 C6 1_555 1_555
C6 C1 1_555 1_555
C7 N1 1_555 1_555
C8 C7 1_555 1_555
C9 C8 1_555 1_555
C10 C9 1_555 1_555
C11 C10 1_555 1_555
C12 C11 1_555 1_555
C13 C8 1_555 1_555
C14 C2 1_555 1_555
H1 N1 1_555 1_555
H2 C3 1_555 1_555
H3 C4 1_555 1_555
H4 C5 1_555 1_555
H5 C6 1_555 1_555
H6 C9 1_555 1_555
H7 C10 1_555 1_555
H8 C11 1_555 1_555
H9 C12 1_555 1_555
H10 C13 1_555 1_555
C12 C13 1_555 1_555

#END
