
#######################################################################
#
#                 Cambridge Crystallographic Data Centre
#                                CCDC 
#
#######################################################################
#
# If this CIF has been generated from an entry in the Cambridge 
# Structural Database, then it will include bibliographic, chemical, 
# crystal, experimental, refinement or atomic coordinate data resulting 
# from the CCDC's data processing and validation procedures.
#
#######################################################################

data_JOZFAH
_chemical_formula_moiety         'C18 H23 N1 S1'
_chemical_name_systematic        
1-(1-(1-Benzothiophen-2-yl)cyclohexyl)pyrrolidine
_symmetry_cell_setting           triclinic
_symmetry_space_group_name_H-M   'P -1'
_symmetry_Int_Tables_number      2
_space_group_name_Hall           '-P 1'
loop_
_symmetry_equiv_pos_site_id
_symmetry_equiv_pos_as_xyz
1 x,y,z
2 -x,-y,-z
_cell_length_a                   6.3549(6)
_cell_length_b                   10.8296(10)
_cell_length_c                   11.5606(11)
_cell_angle_alpha                76.393(3)
_cell_angle_beta                 80.211(3)
_cell_angle_gamma                75.066(3)
_cell_volume                     742.076
_exptl_crystal_colour            colorless
_chemical_melting_point          '364 K'
_cell_formula_units_Z            2
loop_
_atom_site_label
_atom_site_type_symbol
_atom_site_fract_x
_atom_site_fract_y
_atom_site_fract_z
S1 S -0.02843(12) 0.13816(5) 0.22891(5)
N1 N 0.30864(12) -0.17388(7) 0.21617(6)
C1 C 0.20010(14) 0.03115(9) 0.29554(8)
C2 C 0.3411(5) 0.0988(2) 0.3037(2)
H1 H 0.4929 0.0490 0.3405
C3 C 0.29321(16) 0.24031(9) 0.26324(8)
C4 C 0.39440(17) 0.34221(11) 0.25662(9)
H2 H 0.536(2) 0.3250(14) 0.2855(13)
C5 C 0.29365(19) 0.46718(10) 0.20520(10)
H3 H 0.362(2) 0.5388(13) 0.1996(12)
C6 C 0.09414(19) 0.49147(10) 0.15967(10)
H4 H 0.023(2) 0.5802(15) 0.1216(12)
C7 C -0.00794(17) 0.39239(11) 0.16550(9)
H5 H -0.147(2) 0.4115(14) 0.1325(12)
C8 C 0.09152(17) 0.26535(10) 0.21828(9)
C9 C 0.53529(16) -0.16776(10) 0.16880(9)
H6 H 0.634(2) -0.2196(12) 0.2265(11)
H7 H 0.559(2) -0.0748(12) 0.1483(11)
C10 C 0.57277(18) -0.22231(12) 0.05515(10)
H8 H 0.636(2) -0.3195(15) 0.0749(14)
H9 H 0.682(3) -0.1793(15) -0.0077(14)
C11 C 0.34500(19) -0.19366(11) 0.01454(9)
H10 H 0.310(2) -0.2768(14) 0.0109(12)
H11 H 0.336(2) -0.1352(14) -0.0669(14)
C12 C 0.18796(17) -0.13050(11) 0.11096(9)
H12 H 0.158(2) -0.0367(13) 0.0815(12)
H13 H 0.050(2) -0.1573(12) 0.1269(11)
C13 C 0.21307(14) -0.11532(8) 0.32242(8)
C14 C 0.35678(15) -0.18382(9) 0.42409(8)
H14 H 0.5044(18) -0.1642(11) 0.4038(10)
H15 H 0.2847(19) -0.1489(12) 0.4953(11)
C15 C 0.37463(16) -0.33108(9) 0.45367(9)
H16 H 0.4464(19) -0.3682(11) 0.3847(10)
H17 H 0.471(2) -0.3743(13) 0.5166(12)
C16 C 0.14851(17) -0.36155(10) 0.49083(9)
H18 H 0.080(2) -0.3346(12) 0.5688(11)
H19 H 0.161(2) -0.4551(14) 0.5032(11)
C17 C -0.00815(16) -0.28968(9) 0.39757(9)
H20 H 0.0342(19) -0.3237(12) 0.3248(11)
H21 H -0.161(2) -0.3043(12) 0.4256(11)
C18 C -0.01588(15) -0.14343(9) 0.36556(9)
H22 H -0.0729(19) -0.1054(12) 0.4356(11)
H23 H -0.119(2) -0.1006(12) 0.3069(11)
S2? S 0.41755(14) 0.08562(7) 0.32987(7)
C19? C 0.0550(7) 0.1311(3) 0.2447(3)
H24? H -0.0925 0.1151 0.2220
loop_
_geom_bond_atom_site_label_1
_geom_bond_atom_site_label_2
_geom_bond_site_symmetry_1
_geom_bond_site_symmetry_2
S1 C1 1_555 1_555
N1 C9 1_555 1_555
C1 C2 1_555 1_555
C2 H1 1_555 1_555
C3 C2 1_555 1_555
C4 C3 1_555 1_555
H2 C4 1_555 1_555
C5 C4 1_555 1_555
H3 C5 1_555 1_555
C6 C5 1_555 1_555
H4 C6 1_555 1_555
C7 C6 1_555 1_555
H5 C7 1_555 1_555
C8 S1 1_555 1_555
C9 H6 1_555 1_555
H7 C9 1_555 1_555
C10 C9 1_555 1_555
H8 C10 1_555 1_555
H9 C10 1_555 1_555
C11 C10 1_555 1_555
H10 C11 1_555 1_555
H11 C11 1_555 1_555
C12 N1 1_555 1_555
H12 C12 1_555 1_555
H13 C12 1_555 1_555
C13 N1 1_555 1_555
C14 C13 1_555 1_555
H14 C14 1_555 1_555
H15 C14 1_555 1_555
C15 C14 1_555 1_555
H16 C15 1_555 1_555
H17 C15 1_555 1_555
C16 C15 1_555 1_555
H18 C16 1_555 1_555
H19 C16 1_555 1_555
C17 C16 1_555 1_555
H20 C17 1_555 1_555
H21 C17 1_555 1_555
C18 C13 1_555 1_555
H22 C18 1_555 1_555
H23 C18 1_555 1_555
C1 C13 1_555 1_555
C3 C8 1_555 1_555
C7 C8 1_555 1_555
C11 C12 1_555 1_555
C17 C18 1_555 1_555

#END
