
#######################################################################
#
#                 Cambridge Crystallographic Data Centre
#                                CCDC 
#
#######################################################################
#
# If this CIF has been generated from an entry in the Cambridge 
# Structural Database, then it will include bibliographic, chemical, 
# crystal, experimental, refinement or atomic coordinate data resulting 
# from the CCDC's data processing and validation procedures.
#
#######################################################################

data_JUCQEF01
_chemical_formula_moiety         'C17 H16 F1 N1 O3'
_chemical_name_systematic        
3-(4-(dimethylamino)phenyl)-1-(4-fluoro-2-hydroxyphenyl)-3-hydroxyprop-2-en-1-one
_symmetry_cell_setting           monoclinic
_symmetry_space_group_name_H-M   'P 21/n'
_symmetry_Int_Tables_number      14
_space_group_name_Hall           '-P 2yn'
loop_
_symmetry_equiv_pos_site_id
_symmetry_equiv_pos_as_xyz
1 x,y,z
2 1/2-x,1/2+y,1/2-z
3 -x,-y,-z
4 1/2+x,1/2-y,1/2+z
_cell_length_a                   11.931(4)
_cell_length_b                   10.515(3)
_cell_length_c                   12.710(5)
_cell_angle_alpha                90
_cell_angle_beta                 117.644(4)
_cell_angle_gamma                90
_cell_volume                     1412.51
_exptl_crystal_colour            yellow
_exptl_crystal_description       plate
_cell_formula_units_Z            4
loop_
_atom_site_label
_atom_site_type_symbol
_atom_site_fract_x
_atom_site_fract_y
_atom_site_fract_z
F1 F 0.14592(9) 0.85738(11) 0.29920(10)
O1 O 0.23516(11) 0.60465(12) 0.04497(10)
O2 O 0.46336(10) 0.55636(11) 0.10128(9)
O3 O 0.68567(11) 0.49856(12) 0.15049(10)
N1 N 1.25641(12) 0.61132(13) 0.50799(12)
C1 C 0.23338(15) 0.80041(16) 0.27564(15)
C2 C 0.19190(15) 0.72776(16) 0.17504(15)
H1 H 0.1058 0.7165 0.1258
C3 C 0.28071(14) 0.67080(15) 0.14753(13)
C4 C 0.41162(13) 0.68541(14) 0.22484(13)
C5 C 0.44743(14) 0.75983(14) 0.32729(13)
H2 H 0.5331 0.7698 0.3792
C6 C 0.36002(15) 0.81874(15) 0.35370(14)
H3 H 0.3853 0.8687 0.4213
C7 C 0.50535(14) 0.62396(14) 0.19549(12)
C8 C 0.63730(14) 0.63868(14) 0.26836(13)
H4 H 0.6661 0.6920 0.3342
C9 C 0.72428(13) 0.57553(14) 0.24381(12)
C10 C 0.86083(13) 0.58614(14) 0.31345(12)
C11 C 0.91892(14) 0.66809(15) 0.41085(13)
H5 H 0.8686 0.7169 0.4333
C12 C 1.04793(14) 0.67846(15) 0.47410(13)
H6 H 1.0833 0.7347 0.5377
C13 C 1.12789(13) 0.60461(14) 0.44381(12)
C14 C 1.06962(14) 0.52392(15) 0.34457(13)
H7 H 1.1196 0.4755 0.3213
C15 C 0.94009(14) 0.51543(15) 0.28140(13)
H8 H 0.9042 0.4616 0.2160
C16 C 1.33701(15) 0.52929(16) 0.48072(15)
H9 H 1.3128 0.4422 0.4809
H10 H 1.4235 0.5407 0.5394
H11 H 1.3281 0.5505 0.4038
C17 C 1.31472(15) 0.69731(18) 0.60878(15)
H12 H 1.2955 0.7836 0.5816
H13 H 1.4047 0.6852 0.6475
H14 H 1.2824 0.6799 0.6638
H15 H 0.309(3) 0.569(2) 0.040(2)
H16 H 0.597(2) 0.503(2) 0.113(2)
loop_
_geom_bond_atom_site_label_1
_geom_bond_atom_site_label_2
_geom_bond_site_symmetry_1
_geom_bond_site_symmetry_2
F1 C1 1_555 1_555
O1 C3 1_555 1_555
O2 C7 1_555 1_555
O3 C9 1_555 1_555
N1 C13 1_555 1_555
C1 C2 1_555 1_555
C2 H1 1_555 1_555
C3 C2 1_555 1_555
C4 C3 1_555 1_555
C5 C4 1_555 1_555
H2 C5 1_555 1_555
C6 C1 1_555 1_555
H3 C6 1_555 1_555
C7 C4 1_555 1_555
C8 C7 1_555 1_555
H4 C8 1_555 1_555
C9 C8 1_555 1_555
C10 C9 1_555 1_555
C11 C10 1_555 1_555
H5 C11 1_555 1_555
C12 C11 1_555 1_555
H6 C12 1_555 1_555
C13 C12 1_555 1_555
C14 C13 1_555 1_555
H7 C14 1_555 1_555
C15 C10 1_555 1_555
H8 C15 1_555 1_555
C16 N1 1_555 1_555
H9 C16 1_555 1_555
H10 C16 1_555 1_555
H11 C16 1_555 1_555
C17 N1 1_555 1_555
H12 C17 1_555 1_555
H13 C17 1_555 1_555
H14 C17 1_555 1_555
H15 O1 1_555 1_555
H16 O3 1_555 1_555
C5 C6 1_555 1_555
C14 C15 1_555 1_555

#END
