
#######################################################################
#
#                 Cambridge Crystallographic Data Centre
#                                CCDC 
#
#######################################################################
#
# If this CIF has been generated from an entry in the Cambridge 
# Structural Database, then it will include bibliographic, chemical, 
# crystal, experimental, refinement or atomic coordinate data resulting 
# from the CCDC's data processing and validation procedures.
#
#######################################################################

data_JUCQIJ
_chemical_formula_moiety         'C18 H19 N1 O4'
_chemical_name_systematic        
3-(4-(Dimethylamino)phenyl)-3-hydroxy-1-(2-hydroxy-4-methoxyphenyl)prop-2-en-1-one
_symmetry_cell_setting           monoclinic
_symmetry_space_group_name_H-M   'P 21/c'
_symmetry_Int_Tables_number      14
_space_group_name_Hall           '-P 2ybc'
loop_
_symmetry_equiv_pos_site_id
_symmetry_equiv_pos_as_xyz
1 x,y,z
2 -x,1/2+y,1/2-z
3 -x,-y,-z
4 x,1/2-y,1/2+z
_cell_length_a                   11.263(2)
_cell_length_b                   12.388(3)
_cell_length_c                   12.571(3)
_cell_angle_alpha                90
_cell_angle_beta                 115.73(3)
_cell_angle_gamma                90
_cell_volume                     1580.07
_exptl_crystal_colour            yellow
_exptl_crystal_description       block
_cell_formula_units_Z            4
loop_
_atom_site_label
_atom_site_type_symbol
_atom_site_fract_x
_atom_site_fract_y
_atom_site_fract_z
O1 O -0.13096(12) 0.63452(11) -0.24358(10)
O2 O 0.39180(10) 0.91450(10) -0.00770(8)
O3 O 0.56251(11) 0.97135(11) 0.19064(8)
H1 H 0.5218 0.9697 0.1185
O4 O 0.22397(12) 0.85801(11) -0.21326(8)
H2 H 0.2872 0.8912 -0.1646
N1 N 0.74427(14) 0.91077(12) 0.73814(10)
C1 C -0.18156(18) 0.63478(17) -0.36955(14)
H3 H -0.2002 0.7076 -0.3981
H4 H -0.2610 0.5928 -0.4032
H5 H -0.1174 0.6041 -0.3918
C2 C 0.39284(14) 0.84989(13) 0.16748(11)
H6 H 0.3539 0.8051 0.2028
C3 C 0.21507(13) 0.79840(12) -0.03342(11)
C4 C 0.56586(14) 0.90676(12) 0.36696(11)
C5 C 0.33654(14) 0.85633(12) 0.04259(12)
C6 C 0.50330(14) 0.90785(13) 0.23806(11)
C7 C 0.14365(15) 0.73646(14) 0.01262(12)
H7 H 0.1750 0.7313 0.0941
C8 C 0.04847(15) 0.74941(13) -0.22909(12)
H8 H 0.0162 0.7536 -0.3108
C9 C 0.16412(14) 0.80347(12) -0.15756(12)
C10 C 0.68679(15) 0.90974(12) 0.61699(12)
C11 C 0.51181(15) 0.85131(14) 0.43194(12)
H9 H 0.4340 0.8128 0.3922
C12 C 0.68205(15) 0.96347(14) 0.43005(13)
H10 H 0.7207 1.0011 0.3891
C13 C -0.01826(15) 0.69014(14) -0.18047(13)
C14 C 0.74140(16) 0.96533(14) 0.55194(13)
H11 H 0.8190 1.0042 0.5915
C15 C 0.57058(16) 0.85206(14) 0.55308(12)
H12 H 0.5323 0.8134 0.5936
C16 C 0.86019(18) 0.97582(16) 0.80477(14)
H13 H 0.9308 0.9535 0.7865
H14 H 0.8861 0.9666 0.8877
H15 H 0.8403 1.0505 0.7842
C17 C 0.02958(17) 0.68337(15) -0.05790(13)
H16 H -0.0154 0.6433 -0.0245
C18 C 0.6915(2) 0.84853(17) 0.80476(13)
H17 H 0.6025 0.8708 0.7840
H18 H 0.7443 0.8601 0.8876
H19 H 0.6926 0.7733 0.7869
loop_
_geom_bond_atom_site_label_1
_geom_bond_atom_site_label_2
_geom_bond_site_symmetry_1
_geom_bond_site_symmetry_2
O1 C1 1_555 1_555
O2 C5 1_555 1_555
O3 H1 1_555 1_555
O4 H2 1_555 1_555
N1 C10 1_555 1_555
C1 H3 1_555 1_555
H4 C1 1_555 1_555
H5 C1 1_555 1_555
C2 H6 1_555 1_555
C3 C5 1_555 1_555
C4 C6 1_555 1_555
C5 C2 1_555 1_555
C6 O3 1_555 1_555
C7 C3 1_555 1_555
H7 C7 1_555 1_555
C8 H8 1_555 1_555
C9 O4 1_555 1_555
C10 C14 1_555 1_555
C11 C4 1_555 1_555
H9 C11 1_555 1_555
C12 C4 1_555 1_555
H10 C12 1_555 1_555
C13 O1 1_555 1_555
C14 C12 1_555 1_555
H11 C14 1_555 1_555
C15 C10 1_555 1_555
H12 C15 1_555 1_555
C16 N1 1_555 1_555
H13 C16 1_555 1_555
H14 C16 1_555 1_555
H15 C16 1_555 1_555
C17 C7 1_555 1_555
H16 C17 1_555 1_555
C18 N1 1_555 1_555
H17 C18 1_555 1_555
H18 C18 1_555 1_555
H19 C18 1_555 1_555
C2 C6 1_555 1_555
C3 C9 1_555 1_555
C8 C9 1_555 1_555
C8 C13 1_555 1_555
C11 C15 1_555 1_555
C13 C17 1_555 1_555

#END
