
#######################################################################
#
#                 Cambridge Crystallographic Data Centre
#                                CCDC 
#
#######################################################################
#
# If this CIF has been generated from an entry in the Cambridge 
# Structural Database, then it will include bibliographic, chemical, 
# crystal, experimental, refinement or atomic coordinate data resulting 
# from the CCDC's data processing and validation procedures.
#
#######################################################################

data_JUCQEF
_chemical_formula_moiety         'C17 H16 F1 N1 O3'
_chemical_name_systematic        
3-(4-(Dimethylamino)phenyl)-1-(4-fluoro-2-hydroxyphenyl)-3-hydroxyprop-2-en-1-one
_symmetry_cell_setting           monoclinic
_symmetry_space_group_name_H-M   'P 21/n'
_symmetry_Int_Tables_number      14
_space_group_name_Hall           '-P 2yn'
loop_
_symmetry_equiv_pos_site_id
_symmetry_equiv_pos_as_xyz
1 x,y,z
2 1/2-x,1/2+y,1/2-z
3 -x,-y,-z
4 1/2+x,1/2-y,1/2+z
_cell_length_a                   11.957(2)
_cell_length_b                   10.726(2)
_cell_length_c                   12.789(3)
_cell_angle_alpha                90
_cell_angle_beta                 117.80(3)
_cell_angle_gamma                90
_cell_volume                     1450.89
_exptl_crystal_colour            yellow
_exptl_crystal_description       block
_cell_formula_units_Z            4
loop_
_atom_site_label
_atom_site_type_symbol
_atom_site_fract_x
_atom_site_fract_y
_atom_site_fract_z
F1 F 0.14559(12) 0.64170(15) 0.29290(14)
O1 O 0.23450(13) 0.89534(17) 0.04461(14)
H1 H 0.317(3) 0.931(3) 0.047(3)
O2 O 0.46266(12) 0.94331(15) 0.10186(13)
O3 O 0.68540(14) 1.00006(15) 0.15222(13)
H2 H 0.595(3) 0.993(3) 0.115(2)
N1 N 1.25509(14) 0.88669(18) 0.50711(15)
C1 C 0.28012(18) 0.8282(2) 0.14564(19)
C2 C 0.1917(2) 0.7711(2) 0.1718(2)
H3 H 0.101(2) 0.783(2) 0.119(2)
C3 C 0.2329(2) 0.6984(2) 0.2700(2)
C4 C 0.3591(2) 0.6806(2) 0.3476(2)
H4 H 0.3818(19) 0.627(2) 0.412(2)
C5 C 0.4460(2) 0.7390(2) 0.32221(19)
H5 H 0.5320(17) 0.7254(17) 0.3741(16)
C6 C 0.41076(17) 0.81318(19) 0.22192(17)
C7 C 0.50437(17) 0.8753(2) 0.19416(17)
C8 C 0.63605(17) 0.8607(2) 0.26657(19)
H6 H 0.665(2) 0.810(2) 0.330(2)
C9 C 0.72335(17) 0.9234(2) 0.24403(16)
C10 C 0.86010(16) 0.9127(2) 0.31336(16)
C11 C 0.91826(18) 0.8317(2) 0.40896(18)
H7 H 0.8708(18) 0.7824(19) 0.4346(16)
C12 C 1.04687(18) 0.8215(2) 0.47198(19)
H8 H 1.0783(18) 0.768(2) 0.5332(18)
C13 C 1.12628(17) 0.89407(19) 0.44278(17)
C14 C 1.06835(19) 0.9740(2) 0.34584(19)
H9 H 1.1155(19) 1.0227(19) 0.3217(17)
C15 C 0.93938(19) 0.9826(2) 0.2833(2)
H10 H 0.904(2) 1.038(2) 0.223(2)
C16 C 1.3364(2) 0.9664(3) 0.4810(3)
H11 H 1.325(2) 0.951(2) 0.403(2)
H12 H 1.420(3) 0.958(2) 0.535(2)
H13 H 1.313(2) 1.053(3) 0.482(2)
C17 C 1.3139(2) 0.8030(3) 0.6071(3)
H14 H 1.287(3) 0.713(3) 0.578(2)
H15 H 1.403(3) 0.818(2) 0.643(2)
H16 H 1.276(2) 0.813(2) 0.660(2)
loop_
_geom_bond_atom_site_label_1
_geom_bond_atom_site_label_2
_geom_bond_site_symmetry_1
_geom_bond_site_symmetry_2
F1 C3 1_555 1_555
O1 H1 1_555 1_555
O2 C7 1_555 1_555
O3 H2 1_555 1_555
N1 C13 1_555 1_555
C1 O1 1_555 1_555
C2 C1 1_555 1_555
H3 C2 1_555 1_555
C3 C2 1_555 1_555
C4 C3 1_555 1_555
H4 C4 1_555 1_555
C5 C4 1_555 1_555
H5 C5 1_555 1_555
C6 C1 1_555 1_555
C7 C6 1_555 1_555
C8 C7 1_555 1_555
H6 C8 1_555 1_555
C9 O3 1_555 1_555
C10 C9 1_555 1_555
C11 C10 1_555 1_555
H7 C11 1_555 1_555
C12 C11 1_555 1_555
H8 C12 1_555 1_555
C13 C12 1_555 1_555
C14 C13 1_555 1_555
H9 C14 1_555 1_555
C15 C10 1_555 1_555
H10 C15 1_555 1_555
C16 N1 1_555 1_555
H11 C16 1_555 1_555
H12 C16 1_555 1_555
H13 C16 1_555 1_555
C17 N1 1_555 1_555
H14 C17 1_555 1_555
H15 C17 1_555 1_555
H16 C17 1_555 1_555
C5 C6 1_555 1_555
C8 C9 1_555 1_555
C14 C15 1_555 1_555

#END
