
#######################################################################
#
#                 Cambridge Crystallographic Data Centre
#                                CCDC 
#
#######################################################################
#
# If this CIF has been generated from an entry in the Cambridge 
# Structural Database, then it will include bibliographic, chemical, 
# crystal, experimental, refinement or atomic coordinate data resulting 
# from the CCDC's data processing and validation procedures.
#
#######################################################################

data_JUCSIL
_chemical_compound_source        'endophytic fungus Eutypella scoparia PSU-H267'
_chemical_name_common            'Phenochalasin B'
_chemical_formula_moiety         'C29 H35 N1 O8'
_chemical_name_systematic        
6-hydroxy-14-(4-methoxybenzyl)-4,6,15,15a-tetramethyl-3,13,14,14a,15,15a,16a,16b-octahydro[1,3]dioxacyclotridecino[4,5-d]oxireno[f]isoindole-5,10,12(4H,6H)-trione
_chemical_properties_biological  
'tested for antimicrobial, antimycobacterial and cytotoxic activity'
_symmetry_cell_setting           orthorhombic
_symmetry_space_group_name_H-M   'P 21 21 21'
_symmetry_Int_Tables_number      19
_space_group_name_Hall           'P 2ac 2ab'
loop_
_symmetry_equiv_pos_site_id
_symmetry_equiv_pos_as_xyz
1 x,y,z
2 1/2-x,-y,1/2+z
3 -x,1/2+y,1/2-z
4 1/2+x,1/2-y,-z
_cell_length_a                   7.7369(10)
_cell_length_b                   11.5591(15)
_cell_length_c                   33.903(4)
_cell_angle_alpha                90
_cell_angle_beta                 90
_cell_angle_gamma                90
_cell_volume                     3032
_exptl_crystal_colour            colorless
_exptl_crystal_description       rod
_cell_formula_units_Z            4
loop_
_atom_site_label
_atom_site_type_symbol
_atom_site_fract_x
_atom_site_fract_y
_atom_site_fract_z
C1 C 0.5588(12) 0.0158(7) 0.3427(3)
C2 C 0.4021(13) -0.0105(8) 0.3259(3)
H1 H 0.3983 -0.0302 0.2993
C3 C 0.8123(11) 0.1265(7) 0.3117(3)
H2 H 0.9055 0.1149 0.2926
C4 C 0.2489(13) -0.0087(10) 0.3474(3)
H3 H 0.1455 -0.0295 0.3353
C5 C 0.6933(10) 0.2254(6) 0.2972(2)
H4 H 0.5735 0.1978 0.2975
C6 C 0.2499(13) 0.0234(8) 0.3859(3)
C7 C 0.4016(15) 0.0526(9) 0.4031(3)
H5 H 0.4039 0.0749 0.4294
C8 C 0.5542(13) 0.0492(9) 0.3814(3)
H6 H 0.6570 0.0704 0.3937
C9 C 0.0880(16) 0.0677(13) 0.4443(3)
H7 H 0.1463 0.0130 0.4609
H8 H -0.0301 0.0751 0.4526
H9 H 0.1443 0.1415 0.4461
C10 C 0.8238(12) 0.2698(8) 0.3615(3)
C11 C 0.7360(12) 0.2676(8) 0.2553(2)
H10 H 0.6540 0.3296 0.2490
C12 C 0.9123(13) 0.3201(8) 0.2547(2)
C13 C 0.9383(12) 0.4111(7) 0.2854(2)
H11 H 1.0548 0.4181 0.2964
C14 C 0.7911(11) 0.4364(6) 0.3124(2)
H12 H 0.7017 0.4734 0.2963
C15 C 0.7116(11) 0.3220(7) 0.3278(2)
C16 C 0.7189(11) 0.0092(7) 0.3189(3)
H13 H 0.6907 -0.0246 0.2936
H14 H 0.7987 -0.0428 0.3321
C17 C 0.7077(16) 0.1717(9) 0.2248(3)
H15 H 0.7421 0.1989 0.1992
H16 H 0.5877 0.1508 0.2242
H17 H 0.7757 0.1053 0.2318
C18 C 1.0672(15) 0.2562(8) 0.2384(3)
H18 H 1.0457 0.2357 0.2114
H19 H 1.0868 0.1873 0.2535
H20 H 1.1673 0.3051 0.2398
C19 C 0.8362(12) 0.5217(8) 0.3444(2)
H21 H 0.9284 0.5027 0.3608
C20 C 0.7580(14) 0.6198(8) 0.3513(2)
H22 H 0.6641 0.6391 0.3355
C21 C 0.8085(17) 0.7019(8) 0.3824(3)
H23 H 0.8525 0.7711 0.3697
H24 H 0.9031 0.6679 0.3971
C22 C 0.673(2) 0.7370(10) 0.4108(3)
H25 H 0.5749 0.7688 0.3960
C23 C 0.608(4) 0.6364(14) 0.4367(4)
C24 C 0.419(3) 0.6057(15) 0.4390(4)
C25 C 0.365(2) 0.5618(15) 0.3994(4)
H26 H 0.3493 0.6162 0.3795
C26 C 0.3389(17) 0.4572(15) 0.3907(3)
H27 H 0.3512 0.4003 0.4099
O1 O 0.2902(10) 0.4252(8) 0.3512(2)
C27 C 0.4122(14) 0.3841(9) 0.3279(4)
O2 O 0.5513(8) 0.3493(5) 0.34875(17)
C28 C 0.742(3) 0.8326(12) 0.4400(4)
H28 H 0.6564 0.8473 0.4600
H29 H 0.7645 0.9026 0.4257
H30 H 0.8465 0.8061 0.4523
C29 C 0.314(3) 0.7081(15) 0.4521(4)
H31 H 0.2564 0.7412 0.4297
H32 H 0.3891 0.7648 0.4637
H33 H 0.2301 0.6837 0.4711
N1 N 0.8856(9) 0.1713(6) 0.3483(2)
H34 H 0.9659 0.1349 0.3606
O3 O 0.8492(10) 0.3136(6) 0.3934(2)
O4 O 0.0932(9) 0.0271(6) 0.40330(18)
O5 O 0.9173(9) 0.4438(5) 0.24514(16)
O6 O 0.7132(19) 0.5821(9) 0.4544(3)
O7 O 0.401(2) 0.5158(9) 0.4678(2)
H35 H 0.3531 0.4598 0.4577
O8 O 0.3958(9) 0.3793(6) 0.2932(2)
loop_
_geom_bond_atom_site_label_1
_geom_bond_atom_site_label_2
_geom_bond_site_symmetry_1
_geom_bond_site_symmetry_2
C1 C2 1_555 1_555
C2 H1 1_555 1_555
C3 H2 1_555 1_555
C4 C2 1_555 1_555
H3 C4 1_555 1_555
C5 C3 1_555 1_555
H4 C5 1_555 1_555
C6 C4 1_555 1_555
C7 C6 1_555 1_555
H5 C7 1_555 1_555
C8 C1 1_555 1_555
H6 C8 1_555 1_555
C9 H7 1_555 1_555
H8 C9 1_555 1_555
H9 C9 1_555 1_555
C10 C15 1_555 1_555
C11 C5 1_555 1_555
H10 C11 1_555 1_555
C12 C11 1_555 1_555
C13 C12 1_555 1_555
H11 C13 1_555 1_555
C14 C13 1_555 1_555
H12 C14 1_555 1_555
C15 C5 1_555 1_555
C16 C1 1_555 1_555
H13 C16 1_555 1_555
H14 C16 1_555 1_555
C17 C11 1_555 1_555
H15 C17 1_555 1_555
H16 C17 1_555 1_555
H17 C17 1_555 1_555
C18 C12 1_555 1_555
H18 C18 1_555 1_555
H19 C18 1_555 1_555
H20 C18 1_555 1_555
C19 C14 1_555 1_555
H21 C19 1_555 1_555
C20 C19 1_555 1_555
H22 C20 1_555 1_555
C21 C20 1_555 1_555
H23 C21 1_555 1_555
H24 C21 1_555 1_555
C22 C21 1_555 1_555
H25 C22 1_555 1_555
C23 C22 1_555 1_555
C24 C23 1_555 1_555
C25 C24 1_555 1_555
H26 C25 1_555 1_555
C26 C25 1_555 1_555
H27 C26 1_555 1_555
O1 C26 1_555 1_555
C27 O1 1_555 1_555
O2 C15 1_555 1_555
C28 C22 1_555 1_555
H28 C28 1_555 1_555
H29 C28 1_555 1_555
H30 C28 1_555 1_555
C29 C24 1_555 1_555
H31 C29 1_555 1_555
H32 C29 1_555 1_555
H33 C29 1_555 1_555
N1 C3 1_555 1_555
H34 N1 1_555 1_555
O3 C10 1_555 1_555
O4 C6 1_555 1_555
O5 C12 1_555 1_555
O6 C23 1_555 1_555
O7 C24 1_555 1_555
H35 O7 1_555 1_555
O8 C27 1_555 1_555
C3 C16 1_555 1_555
C7 C8 1_555 1_555
C9 O4 1_555 1_555
C10 N1 1_555 1_555
C13 O5 1_555 1_555
C14 C15 1_555 1_555
C27 O2 1_555 1_555

#END
