
#######################################################################
#
#                 Cambridge Crystallographic Data Centre
#                                CCDC 
#
#######################################################################
#
# If this CIF has been generated from an entry in the Cambridge 
# Structural Database, then it will include bibliographic, chemical, 
# crystal, experimental, refinement or atomic coordinate data resulting 
# from the CCDC's data processing and validation procedures.
#
#######################################################################

data_JUDXAH
_chemical_formula_moiety         'C11 H9 Cl1 N4'
_chemical_name_systematic        4-Chloro-N-(2-pyrazinyl)benzamidine
_symmetry_cell_setting           orthorhombic
_symmetry_space_group_name_H-M   'P c 21 b'
_symmetry_Int_Tables_number      29
_space_group_name_Hall           'P -2bc -2c'
loop_
_symmetry_equiv_pos_site_id
_symmetry_equiv_pos_as_xyz
1 x,y,z
2 -x,y,1/2+z
3 x,1/2+y,1/2-z
4 -x,1/2+y,-z
_cell_length_a                   5.683(3)
_cell_length_b                   9.798(5)
_cell_length_c                   19.027(8)
_cell_angle_alpha                90
_cell_angle_beta                 90
_cell_angle_gamma                90
_cell_volume                     1059.46
_exptl_crystal_colour            'pale yellow'
_chemical_melting_point          202deg.C
_cell_formula_units_Z            4
loop_
_atom_site_label
_atom_site_type_symbol
_atom_site_fract_x
_atom_site_fract_y
_atom_site_fract_z
Cl1 Cl 0.1418(1) 0.5162 0.5555(1)
N1 N 0.6536(4) 0.8575(2) 0.2860(1)
N2 N 0.8380(3) 0.6399(2) 0.2810(1)
N3 N 0.9849(4) 0.7873(2) 0.1894(1)
N4 N 1.3412(3) 0.5926(2) 0.1673(1)
C1 C 0.3003(4) 0.5817(3) 0.4840(1)
C2 C 0.2106(4) 0.6907(3) 0.4466(1)
C3 C 0.3365(4) 0.7394(3) 0.3890(1)
C4 C 0.5489(4) 0.6793(3) 0.3688(1)
C5 C 0.6325(4) 0.5683(3) 0.4076(1)
C6 C 0.5099(4) 0.5196(3) 0.4657(1)
C7 C 0.6890(4) 0.7291(3) 0.3074(1)
C8 C 0.9937(4) 0.6725(2) 0.2276(1)
C9 C 1.1557(5) 0.8042(3) 0.1415(1)
C10 C 1.3331(5) 0.7106(3) 0.1308(1)
C11 C 1.1740(4) 0.5758(3) 0.2149(1)
H1 H 0.5845(52) 0.9169(39) 0.3120(17)
H2 H 0.7323(53) 0.8838(36) 0.2506(19)
H3 H 0.0537(53) 0.7399(36) 0.4639(15)
H4 H 0.2670(52) 0.8179(37) 0.3655(16)
H5 H 0.7703(55) 0.5234(37) 0.3938(15)
H6 H 0.5737(47) 0.4468(36) 0.4907(18)
H7 H 1.1490(50) 0.8901(42) 0.1146(16)
H8 H 1.4507(55) 0.7229(35) 0.1000(17)
H9 H 1.1696(45) 0.4916(39) 0.2408(18)
loop_
_geom_bond_atom_site_label_1
_geom_bond_atom_site_label_2
_geom_bond_site_symmetry_1
_geom_bond_site_symmetry_2
Cl1 C1 1_555 1_555
N1 C7 1_555 1_555
N2 C7 1_555 1_555
N3 C8 1_555 1_555
N4 C10 1_555 1_555
C1 C2 1_555 1_555
C2 C3 1_555 1_555
C3 C4 1_555 1_555
C4 C5 1_555 1_555
C5 C6 1_555 1_555
C6 C1 1_555 1_555
C7 C4 1_555 1_555
C8 N2 1_555 1_555
C9 N3 1_555 1_555
C10 C9 1_555 1_555
C11 N4 1_555 1_555
H1 N1 1_555 1_555
H2 N1 1_555 1_555
H3 C2 1_555 1_555
H4 C3 1_555 1_555
H5 C5 1_555 1_555
H6 C6 1_555 1_555
H7 C9 1_555 1_555
H8 C10 1_555 1_555
H9 C11 1_555 1_555
C8 C11 1_555 1_555

#END
