
#######################################################################
#
#                 Cambridge Crystallographic Data Centre
#                                CCDC 
#
#######################################################################
#
# If this CIF has been generated from an entry in the Cambridge 
# Structural Database, then it will include bibliographic, chemical, 
# crystal, experimental, refinement or atomic coordinate data resulting 
# from the CCDC's data processing and validation procedures.
#
#######################################################################

data_JUGDUK
_chemical_formula_moiety         'C7 H9 N1 S5'
_chemical_name_systematic        
3-Methylthio-6,7,8-trihydro(1,4)dithiepino(2,3e)(1,4,2)dithiazine
_symmetry_cell_setting           monoclinic
_symmetry_space_group_name_H-M   'P 21/c'
_symmetry_Int_Tables_number      14
_space_group_name_Hall           '-P 2ybc'
loop_
_symmetry_equiv_pos_site_id
_symmetry_equiv_pos_as_xyz
1 x,y,z
2 -x,1/2+y,1/2-z
3 -x,-y,-z
4 x,1/2-y,1/2+z
_cell_length_a                   8.509(2)
_cell_length_b                   8.540(2)
_cell_length_c                   15.732(3)
_cell_angle_alpha                90
_cell_angle_beta                 93.36(2)
_cell_angle_gamma                90
_cell_volume                     1141.23
_exptl_crystal_colour            yellow
_chemical_melting_point          125-127deg.C
_cell_formula_units_Z            4
loop_
_atom_site_label
_atom_site_type_symbol
_atom_site_fract_x
_atom_site_fract_y
_atom_site_fract_z
S1 S 0.1519(1) 0.4083(1) 0.3087(1)
S2 S 0.1227(1) 0.6170(1) 0.1433(1)
S3 S 0.3775(1) 0.8269(1) 0.2086(1)
S4 S 0.3794(1) 0.6186(1) 0.3941(1)
S5 S 0.1554(1) 0.3351(1) 0.0420(1)
N1 N 0.1626(3) 0.3240(3) 0.2108(1)
C1 C 0.1492(3) 0.4097(3) 0.1452(2)
C2 C 0.2534(3) 0.6692(3) 0.2301(2)
C3 C 0.2581(3) 0.5828(3) 0.3023(2)
C4 C 0.3304(4) 0.9734(4) 0.2864(3)
C5 C 0.4021(4) 0.9497(4) 0.3748(3)
C6 C 0.3300(5) 0.8178(5) 0.4242(2)
C7 C 0.1549(5) 0.1279(4) 0.0625(3)
H1 H 0.3663(38) 1.0591(40) 0.2614(20)
H2 H 0.2174(35) 0.9843(33) 0.2796(17)
H3 H 0.5173(43) 0.9430(40) 0.3731(20)
H4 H 0.3970(40) 1.0332(41) 0.4020(21)
H5 H 0.3686(41) 0.8221(38) 0.4799(22)
H6 H 0.2149(44) 0.8336(40) 0.4230(22)
H7 H 0.0657(49) 0.0835(49) 0.1028(26)
H8 H 0.1548(51) 0.0631(50) 0.0070(29)
H9 H 0.2375(54) 0.0814(50) 0.0947(27)
loop_
_geom_bond_atom_site_label_1
_geom_bond_atom_site_label_2
_geom_bond_site_symmetry_1
_geom_bond_site_symmetry_2
S1 N1 1_555 1_555
S2 C1 1_555 1_555
S3 C2 1_555 1_555
S4 C3 1_555 1_555
S5 C1 1_555 1_555
N1 C1 1_555 1_555
C2 S2 1_555 1_555
C3 S1 1_555 1_555
C4 S3 1_555 1_555
C5 C4 1_555 1_555
C6 S4 1_555 1_555
C7 S5 1_555 1_555
H1 C4 1_555 1_555
H2 C4 1_555 1_555
H3 C5 1_555 1_555
H4 C5 1_555 1_555
H5 C6 1_555 1_555
H6 C6 1_555 1_555
H7 C7 1_555 1_555
H8 C7 1_555 1_555
H9 C7 1_555 1_555
C2 C3 1_555 1_555
C5 C6 1_555 1_555

#END
