
#######################################################################
#
#                 Cambridge Crystallographic Data Centre
#                                CCDC 
#
#######################################################################
#
# If this CIF has been generated from an entry in the Cambridge 
# Structural Database, then it will include bibliographic, chemical, 
# crystal, experimental, refinement or atomic coordinate data resulting 
# from the CCDC's data processing and validation procedures.
#
#######################################################################

data_JUGKIH
_chemical_formula_moiety         'C30 H26 Cl1 N1 O5'
_chemical_name_systematic        
'ethyl 3-amino-2-(5-(4-chlorophenyl)-2-(2-methoxyphenyl)-3-(4-methoxyphenyl)cyclopenta-2,4-dien-1-ylidene)-3-oxopropanoate'
_symmetry_cell_setting           monoclinic
_symmetry_space_group_name_H-M   'P 21/c'
_symmetry_Int_Tables_number      14
_space_group_name_Hall           '-P 2ybc'
loop_
_symmetry_equiv_pos_site_id
_symmetry_equiv_pos_as_xyz
1 x,y,z
2 -x,1/2+y,1/2-z
3 -x,-y,-z
4 x,1/2-y,1/2+z
_cell_length_a                   19.841(5)
_cell_length_b                   14.847(4)
_cell_length_c                   8.918(2)
_cell_angle_alpha                90
_cell_angle_beta                 90.596(6)
_cell_angle_gamma                90
_cell_volume                     2626.92
_exptl_crystal_colour            red
_exptl_crystal_description       block
_cell_formula_units_Z            4
loop_
_atom_site_label
_atom_site_type_symbol
_atom_site_fract_x
_atom_site_fract_y
_atom_site_fract_z
Cl1 Cl 0.53387(5) -0.26940(8) 0.66398(13)
O1 O 0.29180(12) 0.53811(16) 0.4438(3)
O2 O 0.12931(11) 0.09864(17) 0.6143(3)
O3 O 0.10728(14) -0.09603(19) 0.4453(3)
O4 O 0.16772(12) -0.07789(18) 0.2352(4)
O5 O 0.24674(13) -0.22586(17) 0.4533(3)
N1 N 0.25122(13) -0.15987(19) 0.6816(4)
H1 H 0.2577 -0.2119 0.7266
H2 H 0.2491 -0.1101 0.7347
C1 C 0.47572(17) -0.1842(3) 0.6234(5)
C2 C 0.47210(18) -0.1113(3) 0.7157(5)
H3 H 0.5008 -0.1060 0.7983
C3 C 0.42416(18) -0.0443(2) 0.6837(4)
H4 H 0.4208 0.0054 0.7467
C4 C 0.38189(17) -0.0511(3) 0.5598(4)
C5 C 0.38940(18) -0.1254(3) 0.4673(4)
H5 H 0.3626 -0.1303 0.3815
C6 C 0.43564(19) -0.1920(3) 0.4994(5)
H6 H 0.4394 -0.2419 0.4370
C7 C 0.33189(17) 0.0203(3) 0.5256(4)
C8 C 0.26174(17) 0.0073(2) 0.4669(4)
C9 C 0.23719(17) 0.0989(2) 0.4256(4)
C10 C 0.28600(17) 0.1588(2) 0.4651(4)
C11 C 0.34449(17) 0.1085(2) 0.5235(4)
H7 H 0.3848 0.1348 0.5548
C12 C 0.28554(17) 0.2580(2) 0.4610(4)
C13 C 0.32548(16) 0.3051(2) 0.5622(4)
H8 H 0.3509 0.2729 0.6320
C14 C 0.32906(17) 0.3977(3) 0.5637(4)
H9 H 0.3557 0.4275 0.6344
C15 C 0.29233(18) 0.4453(2) 0.4584(4)
C16 C 0.25217(17) 0.4007(2) 0.3553(4)
H10 H 0.2276 0.4333 0.2844
C17 C 0.24829(17) 0.3079(3) 0.3569(4)
H11 H 0.2206 0.2784 0.2879
C18 C 0.16769(18) 0.1179(2) 0.3704(5)
C19 C 0.15417(19) 0.1371(2) 0.2206(5)
H12 H 0.1895 0.1362 0.1529
C20 C 0.0898(2) 0.1574(3) 0.1687(5)
H13 H 0.0821 0.1715 0.0684
C21 C 0.0376(2) 0.1563(3) 0.2692(6)
H14 H -0.0059 0.1692 0.2356
C22 C 0.0483(2) 0.1365(3) 0.4174(5)
H15 H 0.0124 0.1353 0.4835
C23 C 0.1134(2) 0.1181(2) 0.4686(5)
C24 C 0.0749(2) 0.0840(3) 0.7152(4)
H16 H 0.0487 0.1382 0.7233
H17 H 0.0925 0.0680 0.8122
H18 H 0.0468 0.0362 0.6779
C25 C 0.22595(17) -0.0692(2) 0.4633(4)
C26 C 0.1586(2) -0.0810(2) 0.3831(6)
C27 C 0.1068(2) -0.0911(4) 0.1426(6)
H19 H 0.0675 -0.0765 0.2017
H20 H 0.1079 -0.0499 0.0582
C28 C 0.1007(6) -0.1762(10) 0.091(2)
H21 H 0.1413 -0.1931 0.0403
H22 H 0.0633 -0.1795 0.0219
H23 H 0.0933 -0.2164 0.1732
C29 C 0.24437(17) -0.1588(3) 0.5327(5)
C30 C 0.32777(19) 0.5878(2) 0.5549(4)
H24 H 0.3115 0.5721 0.6524
H25 H 0.3212 0.6511 0.5381
H26 H 0.3749 0.5739 0.5491
H27? H 0.0811 -0.1414 0.1816
H28? H 0.0788 -0.0377 0.1479
C31? C 0.1226(7) -0.1073(16) -0.0013(15)
H29? H 0.1482 -0.0577 -0.0398
H30? H 0.0821 -0.1145 -0.0596
H31? H 0.1490 -0.1614 -0.0069
loop_
_geom_bond_atom_site_label_1
_geom_bond_atom_site_label_2
_geom_bond_site_symmetry_1
_geom_bond_site_symmetry_2
Cl1 C1 1_555 1_555
O1 C15 1_555 1_555
O2 C23 1_555 1_555
O3 C26 1_555 1_555
O4 C26 1_555 1_555
O5 C29 1_555 1_555
N1 H1 1_555 1_555
H2 N1 1_555 1_555
C1 C2 1_555 1_555
C2 H3 1_555 1_555
C3 C2 1_555 1_555
H4 C3 1_555 1_555
C4 C3 1_555 1_555
C5 C4 1_555 1_555
H5 C5 1_555 1_555
C6 C1 1_555 1_555
H6 C6 1_555 1_555
C7 C4 1_555 1_555
C8 C7 1_555 1_555
C9 C8 1_555 1_555
C10 C9 1_555 1_555
C11 C7 1_555 1_555
H7 C11 1_555 1_555
C12 C10 1_555 1_555
C13 C12 1_555 1_555
H8 C13 1_555 1_555
C14 C13 1_555 1_555
H9 C14 1_555 1_555
C15 C14 1_555 1_555
C16 C15 1_555 1_555
H10 C16 1_555 1_555
C17 C12 1_555 1_555
H11 C17 1_555 1_555
C18 C9 1_555 1_555
C19 C18 1_555 1_555
H12 C19 1_555 1_555
C20 C19 1_555 1_555
H13 C20 1_555 1_555
C21 C20 1_555 1_555
H14 C21 1_555 1_555
C22 C21 1_555 1_555
H15 C22 1_555 1_555
C23 C18 1_555 1_555
C24 O2 1_555 1_555
H16 C24 1_555 1_555
H17 C24 1_555 1_555
H18 C24 1_555 1_555
C25 C8 1_555 1_555
C26 C25 1_555 1_555
C27 O4 1_555 1_555
H19 C27 1_555 1_555
H20 C27 1_555 1_555
C28 C27 1_555 1_555
H21 C28 1_555 1_555
H22 C28 1_555 1_555
H23 C28 1_555 1_555
C29 N1 1_555 1_555
C30 O1 1_555 1_555
H24 C30 1_555 1_555
H25 C30 1_555 1_555
H26 C30 1_555 1_555
C5 C6 1_555 1_555
C10 C11 1_555 1_555
C16 C17 1_555 1_555
C22 C23 1_555 1_555
C25 C29 1_555 1_555

#END
