
#######################################################################
#
#                 Cambridge Crystallographic Data Centre
#                                CCDC 
#
#######################################################################
#
# If this CIF has been generated from an entry in the Cambridge 
# Structural Database, then it will include bibliographic, chemical, 
# crystal, experimental, refinement or atomic coordinate data resulting 
# from the CCDC's data processing and validation procedures.
#
#######################################################################

data_JUGXUE
_chemical_formula_moiety         'C29 H33 N3 O3 S2'
_chemical_name_systematic        
(4S,14S)-(+)-3,15-Dimethyl-4,14-diphenyl-6,9,12-trioxa-3,15,21-triazabicyclo(15.3.1)henicosa-1(21),17,19-triene-2,16-dithione
_symmetry_cell_setting           monoclinic
_symmetry_space_group_name_H-M   'P 21'
_symmetry_Int_Tables_number      4
_space_group_name_Hall           'P 2yb'
loop_
_symmetry_equiv_pos_site_id
_symmetry_equiv_pos_as_xyz
1 x,y,z
2 -x,1/2+y,-z
_cell_length_a                   9.789(4)
_cell_length_b                   15.718(6)
_cell_length_c                   18.915(6)
_cell_angle_alpha                90
_cell_angle_beta                 103.66(3)
_cell_angle_gamma                90
_cell_volume                     2828.01
_exptl_crystal_colour            yellow
_chemical_melting_point          190-191deg.C
_cell_formula_units_Z            4
loop_
_atom_site_label
_atom_site_type_symbol
_atom_site_fract_x
_atom_site_fract_y
_atom_site_fract_z
N1 N 0.2677(9) 0.7100(7) 1.0294(5)
C1 C 0.1683(13) 0.6530(9) 0.9992(6)
C2 C 0.0901(14) 0.6678(9) 0.9254(7)
S1 S 0.1411(4) 0.6168(3) 0.8590(2)
N2 N -0.0154(11) 0.7236(7) 0.9119(5)
C3 C -0.0507(11) 0.7753(8) 0.9726(6)
C4 C -0.0950(14) 0.7463(10) 0.8376(7)
C5 C -0.2508(14) 0.7616(10) 0.8324(6)
C6 C -0.3288(13) 0.6927(9) 0.8447(6)
C7 C -0.4718(14) 0.6952(10) 0.8365(6)
C8 C -0.5367(14) 0.7698(10) 0.8162(7)
C9 C -0.4677(15) 0.8381(10) 0.8033(6)
C10 C -0.3199(14) 0.8343(10) 0.8066(7)
C11 C -0.0226(16) 0.8117(10) 0.8058(8)
O1 O -0.0167(11) 0.8891(8) 0.8481(6)
C12 C 0.0869(19) 0.9486(13) 0.8446(9)
C13 C 0.2090(18) 0.9540(16) 0.9024(10)
O2 O 0.1810(13) 0.9845(10) 0.9673(8)
C14 C 0.2587(19) 0.9660(14) 1.0309(10)
C15 C 0.4093(17) 0.9763(11) 1.0539(9)
O3 O 0.4790(13) 0.9309(7) 1.0109(6)
C16 C 0.6212(15) 0.9166(11) 1.0447(8)
C17 C 0.6429(11) 0.8504(8) 1.1056(6)
C18 C 0.7922(13) 0.8215(9) 1.1307(6)
C19 C 0.8254(13) 0.7389(8) 1.1548(6)
C20 C 0.9638(15) 0.7132(10) 1.1791(7)
C21 C 1.0720(13) 0.7680(9) 1.1792(6)
C22 C 1.0427(14) 0.8488(9) 1.1574(6)
C23 C 0.9053(14) 0.8768(9) 1.1304(6)
N3 N 0.5441(8) 0.7792(7) 1.0848(5)
C24 C 0.5460(13) 0.7375(9) 1.0153(7)
C25 C 0.4601(13) 0.7529(8) 1.1261(6)
S2 S 0.4640(3) 0.7898(3) 1.2091(2)
C26 C 0.3502(12) 0.6883(9) 1.0950(6)
C27 C 0.3303(14) 0.6168(10) 1.1319(7)
C28 C 0.2267(15) 0.5595(10) 1.1018(7)
C29 C 0.1436(12) 0.5783(8) 1.0334(6)
H1 H -0.1455 0.7962 0.9622
H2 H 0.0134 0.8213 0.9890
H3 H -0.0389 0.7325 1.0098
H4 H -0.0966 0.6975 0.8069
H5 H -0.2807 0.6401 0.8598
H6 H -0.5236 0.6460 0.8452
H7 H -0.6365 0.7737 0.8107
H8 H -0.5170 0.8910 0.7915
H9 H -0.2716 0.8814 0.7912
H10 H -0.0726 0.8222 0.7565
H11 H 0.0711 0.7930 0.8065
H12 H 0.1184 0.9363 0.8013
H13 H 0.0430 1.0035 0.8402
H14 H 0.2750 0.9917 0.8882
H15 H 0.2496 0.8983 0.9112
H16 H 0.2215 0.9994 1.0645
H17 H 0.2417 0.9068 1.0380
H18 H 0.4404 0.9568 1.1032
H19 H 0.4318 1.0356 1.0514
H20 H 0.6684 0.8973 1.0085
H21 H 0.6618 0.9694 1.0649
H22 H 0.6224 0.8780 1.1472
H23 H 0.7511 0.6990 1.1546
H24 H 0.9839 0.6559 1.1961
H25 H 1.1677 0.7492 1.1946
H26 H 1.1187 0.8884 1.1607
H27 H 0.8878 0.9335 1.1116
H28 H 0.6395 0.7390 1.0076
H29 H 0.4847 0.7711 0.9787
H30 H 0.5131 0.6798 1.0124
H31 H 0.3892 0.6063 1.1795
H32 H 0.2126 0.5085 1.1272
H33 H 0.0699 0.5402 1.0101
N4 N 0.2143(9) 0.6105(7) 0.4773(5)
C30 C 0.1538(11) 0.6716(9) 0.5074(7)
C31 C 0.1318(11) 0.6554(9) 0.5839(7)
S3 S 0.2340(4) 0.7105(3) 0.6506(2)
N5 N 0.0394(10) 0.5983(7) 0.5910(5)
C32 C -0.0463(11) 0.5515(9) 0.5298(6)
C33 C 0.0227(11) 0.5738(7) 0.6656(6)
C34 C -0.1284(12) 0.5635(9) 0.6709(6)
C35 C -0.1764(13) 0.4844(9) 0.6882(6)
C36 C -0.3153(13) 0.4826(9) 0.6956(6)
C37 C -0.3969(13) 0.5567(10) 0.6839(6)
C38 C -0.3516(13) 0.6351(10) 0.6660(6)
C39 C -0.2091(12) 0.6346(9) 0.6597(6)
C40 C 0.1207(13) 0.4986(10) 0.6926(7)
O4 O 0.0892(10) 0.4271(8) 0.6489(5)
C41 C 0.1973(19) 0.3683(11) 0.6562(9)
C42 C 0.2750(17) 0.3659(11) 0.5979(10)
O5 O 0.1882(12) 0.3353(9) 0.5332(7)
C43 C 0.2373(21) 0.3204(20) 0.4823(12)
C44 C 0.3472(20) 0.3249(13) 0.4534(13)
O6 O 0.4448(13) 0.3721(8) 0.4833(7)
C45 C 0.5480(14) 0.3892(10) 0.4449(8)
C46 C 0.5079(13) 0.4624(9) 0.3899(7)
C47 C 0.6363(13) 0.4962(9) 0.3670(6)
C48 C 0.7583(12) 0.4503(8) 0.3704(6)
C49 C 0.8723(14) 0.4856(9) 0.3478(6)
C50 C 0.8614(14) 0.5650(10) 0.3206(7)
C51 C 0.7420(14) 0.6104(10) 0.3131(6)
C52 C 0.6256(14) 0.5774(10) 0.3356(6)
N6 N 0.4358(11) 0.5295(8) 0.4191(5)
C53 C 0.5102(13) 0.5673(9) 0.4888(7)
C54 C 0.3108(13) 0.5584(9) 0.3790(7)
S4 S 0.2304(4) 0.5264(3) 0.2991(2)
C55 C 0.2471(13) 0.6269(11) 0.4156(7)
C56 C 0.2150(14) 0.7030(11) 0.3779(7)
C57 C 0.1499(14) 0.7660(9) 0.4090(7)
C58 C 0.1172(12) 0.7506(8) 0.4745(7)
H34 H -0.0982 0.5048 0.5430
H35 H 0.0078 0.5320 0.4967
H36 H -0.1105 0.5949 0.5067
H37 H 0.0519 0.6203 0.6987
H38 H -0.1181 0.4346 0.6949
H39 H -0.3551 0.4306 0.7083
H40 H -0.4920 0.5529 0.6890
H41 H -0.4097 0.6850 0.6584
H42 H -0.1687 0.6866 0.6473
H43 H 0.1129 0.4840 0.7408
H44 H 0.2155 0.5155 0.6941
H45 H 0.2639 0.3802 0.7012
H46 H 0.1573 0.3129 0.6587
H47 H 0.3550 0.3292 0.6125
H48 H 0.3060 0.4223 0.5901
H49 H 0.2278 0.2596 0.4819
H50 H 0.1658 0.3444 0.4439
H51 H 0.3126 0.3464 0.4049
H52 H 0.3845 0.2687 0.4511
H53 H 0.6337 0.4042 0.4791
H54 H 0.5626 0.3388 0.4191
H55 H 0.4442 0.4405 0.3472
H56 H 0.7650 0.3930 0.3886
H57 H 0.9572 0.4536 0.3517
H58 H 0.9401 0.5900 0.3061
H59 H 0.7364 0.6663 0.2920
H60 H 0.5406 0.6099 0.3294
H61 H 0.4904 0.6249 0.4999
H62 H 0.6093 0.5609 0.4929
H63 H 0.4811 0.5294 0.5223
H64 H 0.2377 0.7116 0.3317
H65 H 0.1276 0.8199 0.3853
H66 H 0.0704 0.7926 0.4971
loop_
_geom_bond_atom_site_label_1
_geom_bond_atom_site_label_2
_geom_bond_site_symmetry_1
_geom_bond_site_symmetry_2
N1 C1 1_555 1_555
C1 C2 1_555 1_555
C2 S1 1_555 1_555
N2 C2 1_555 1_555
C3 N2 1_555 1_555
C4 N2 1_555 1_555
C5 C4 1_555 1_555
C6 C5 1_555 1_555
C7 C6 1_555 1_555
C8 C7 1_555 1_555
C9 C8 1_555 1_555
C10 C5 1_555 1_555
C11 C4 1_555 1_555
O1 C11 1_555 1_555
C12 O1 1_555 1_555
C13 C12 1_555 1_555
O2 C13 1_555 1_555
C14 O2 1_555 1_555
C15 C14 1_555 1_555
O3 C15 1_555 1_555
C16 O3 1_555 1_555
C17 C16 1_555 1_555
C18 C17 1_555 1_555
C19 C18 1_555 1_555
C20 C19 1_555 1_555
C21 C20 1_555 1_555
C22 C21 1_555 1_555
C23 C18 1_555 1_555
N3 C17 1_555 1_555
C24 N3 1_555 1_555
C25 N3 1_555 1_555
S2 C25 1_555 1_555
C26 N1 1_555 1_555
C27 C26 1_555 1_555
C28 C27 1_555 1_555
C29 C1 1_555 1_555
N4 C30 1_555 1_555
C30 C31 1_555 1_555
C31 S3 1_555 1_555
N5 C31 1_555 1_555
C32 N5 1_555 1_555
C33 N5 1_555 1_555
C34 C33 1_555 1_555
C35 C34 1_555 1_555
C36 C35 1_555 1_555
C37 C36 1_555 1_555
C38 C37 1_555 1_555
C39 C34 1_555 1_555
C40 C33 1_555 1_555
O4 C40 1_555 1_555
C41 O4 1_555 1_555
C42 C41 1_555 1_555
O5 C42 1_555 1_555
C43 O5 1_555 1_555
C44 C43 1_555 1_555
O6 C44 1_555 1_555
C45 O6 1_555 1_555
C46 C45 1_555 1_555
C47 C46 1_555 1_555
C48 C47 1_555 1_555
C49 C48 1_555 1_555
C50 C49 1_555 1_555
C51 C50 1_555 1_555
C52 C47 1_555 1_555
N6 C46 1_555 1_555
C53 N6 1_555 1_555
C54 N6 1_555 1_555
S4 C54 1_555 1_555
C55 N4 1_555 1_555
C56 C55 1_555 1_555
C57 C56 1_555 1_555
C58 C30 1_555 1_555
H1 C3 1_555 1_555
H2 C3 1_555 1_555
H3 C3 1_555 1_555
H4 C4 1_555 1_555
H5 C6 1_555 1_555
H6 C7 1_555 1_555
H7 C8 1_555 1_555
H8 C9 1_555 1_555
H9 C10 1_555 1_555
H10 C11 1_555 1_555
H11 C11 1_555 1_555
H12 C12 1_555 1_555
H13 C12 1_555 1_555
H14 C13 1_555 1_555
H15 C13 1_555 1_555
H16 C14 1_555 1_555
H17 C14 1_555 1_555
H18 C15 1_555 1_555
H19 C15 1_555 1_555
H20 C16 1_555 1_555
H21 C16 1_555 1_555
H22 C17 1_555 1_555
H23 C19 1_555 1_555
H24 C20 1_555 1_555
H25 C21 1_555 1_555
H26 C22 1_555 1_555
H27 C23 1_555 1_555
H28 C24 1_555 1_555
H29 C24 1_555 1_555
H30 C24 1_555 1_555
H31 C27 1_555 1_555
H32 C28 1_555 1_555
H33 C29 1_555 1_555
H34 C32 1_555 1_555
H35 C32 1_555 1_555
H36 C32 1_555 1_555
H37 C33 1_555 1_555
H38 C35 1_555 1_555
H39 C36 1_555 1_555
H40 C37 1_555 1_555
H41 C38 1_555 1_555
H42 C39 1_555 1_555
H43 C40 1_555 1_555
H44 C40 1_555 1_555
H45 C41 1_555 1_555
H46 C41 1_555 1_555
H47 C42 1_555 1_555
H48 C42 1_555 1_555
H49 C43 1_555 1_555
H50 C43 1_555 1_555
H51 C44 1_555 1_555
H52 C44 1_555 1_555
H53 C45 1_555 1_555
H54 C45 1_555 1_555
H55 C46 1_555 1_555
H56 C48 1_555 1_555
H57 C49 1_555 1_555
H58 C50 1_555 1_555
H59 C51 1_555 1_555
H60 C52 1_555 1_555
H61 C53 1_555 1_555
H62 C53 1_555 1_555
H63 C53 1_555 1_555
H64 C56 1_555 1_555
H65 C57 1_555 1_555
H66 C58 1_555 1_555
C9 C10 1_555 1_555
C22 C23 1_555 1_555
C25 C26 1_555 1_555
C28 C29 1_555 1_555
C38 C39 1_555 1_555
C51 C52 1_555 1_555
C54 C55 1_555 1_555
C57 C58 1_555 1_555

#END
