
#######################################################################
#
#                 Cambridge Crystallographic Data Centre
#                                CCDC 
#
#######################################################################
#
# If this CIF has been generated from an entry in the Cambridge 
# Structural Database, then it will include bibliographic, chemical, 
# crystal, experimental, refinement or atomic coordinate data resulting 
# from the CCDC's data processing and validation procedures.
#
#######################################################################

data_JUGYOB
_chemical_formula_moiety         'C11 H11 N3'
_chemical_name_systematic        3-Cyclopropyl-5-phenyl-4H-1,2,4-triazole
_symmetry_cell_setting           orthorhombic
_symmetry_space_group_name_H-M   'P b c a'
_symmetry_Int_Tables_number      61
_space_group_name_Hall           '-P 2ac 2ab'
loop_
_symmetry_equiv_pos_site_id
_symmetry_equiv_pos_as_xyz
1 x,y,z
2 1/2-x,-y,1/2+z
3 -x,1/2+y,1/2-z
4 1/2+x,1/2-y,-z
5 -x,-y,-z
6 1/2+x,y,1/2-z
7 x,1/2-y,1/2+z
8 1/2-x,1/2+y,z
_cell_length_a                   9.8175(19)
_cell_length_b                   10.663(2)
_cell_length_c                   18.250(4)
_cell_angle_alpha                90
_cell_angle_beta                 90
_cell_angle_gamma                90
_cell_volume                     1910.48
_exptl_crystal_colour            yellow
_exptl_crystal_description       block
_cell_formula_units_Z            8
loop_
_atom_site_label
_atom_site_type_symbol
_atom_site_fract_x
_atom_site_fract_y
_atom_site_fract_z
N1 N 0.22521(19) 0.0233(2) 0.22185(11)
H1 H 0.1416 0.0022 0.2285
C1 C 0.2753(2) 0.1076(2) 0.17296(13)
N2 N 0.4447(2) 0.0390(2) 0.23037(12)
N3 N 0.4091(2) 0.1203(2) 0.17609(12)
C2 C 0.3338(2) -0.0192(3) 0.25692(16)
C3 C 0.3394(3) -0.1108(3) 0.31628(16)
H2 H 0.4300 -0.1445 0.3273
C4 C 0.1911(2) 0.1748(2) 0.11977(14)
C5 C 0.0756(3) 0.1197(3) 0.09099(16)
H3 H 0.0494 0.0405 0.1071
C6 C 0.2270(3) 0.2927(3) 0.09560(16)
H4 H 0.3045 0.3313 0.1144
C7 C 0.1500(3) 0.3540(3) 0.04409(18)
H5 H 0.1745 0.4342 0.0289
C8 C -0.0010(3) 0.1801(3) 0.03900(17)
H6 H -0.0785 0.1418 0.0201
C9 C 0.2461(4) -0.0964(3) 0.38057(16)
H7 H 0.2814 -0.1180 0.4286
H8 H 0.1825 -0.0268 0.3801
C10 C 0.2235(4) -0.1984(3) 0.32843(18)
H9 H 0.1458 -0.1918 0.2958
H10 H 0.2446 -0.2830 0.3443
C11 C 0.0366(3) 0.2969(3) 0.01488(19)
H11 H -0.0143 0.3373 -0.0210
loop_
_geom_bond_atom_site_label_1
_geom_bond_atom_site_label_2
_geom_bond_site_symmetry_1
_geom_bond_site_symmetry_2
N1 H1 1_555 1_555
C1 N1 1_555 1_555
N2 N3 1_555 1_555
N3 C1 1_555 1_555
C2 N1 1_555 1_555
C3 C2 1_555 1_555
H2 C3 1_555 1_555
C4 C1 1_555 1_555
C5 C4 1_555 1_555
H3 C5 1_555 1_555
C6 C4 1_555 1_555
H4 C6 1_555 1_555
C7 C6 1_555 1_555
H5 C7 1_555 1_555
C8 C5 1_555 1_555
H6 C8 1_555 1_555
C9 C3 1_555 1_555
H7 C9 1_555 1_555
H8 C9 1_555 1_555
C10 C3 1_555 1_555
H9 C10 1_555 1_555
H10 C10 1_555 1_555
C11 C7 1_555 1_555
H11 C11 1_555 1_555
N2 C2 1_555 1_555
C8 C11 1_555 1_555
C9 C10 1_555 1_555

#END
