
#######################################################################
#
#                 Cambridge Crystallographic Data Centre
#                                CCDC 
#
#######################################################################
#
# If this CIF has been generated from an entry in the Cambridge 
# Structural Database, then it will include bibliographic, chemical, 
# crystal, experimental, refinement or atomic coordinate data resulting 
# from the CCDC's data processing and validation procedures.
#
#######################################################################

data_JUGZIU
_chemical_formula_moiety         'C29 H30 N2 O6,0.25(H2 O1)'
_chemical_name_systematic        
"(4S,5S,1'R,2'S)-5-(1-Acetoxy-2-(((benzyloxy)carbonyl)amino)-3-phenylpropyl)-4-benzyloxazolidin-2-one hydrate"
_symmetry_cell_setting           triclinic
_symmetry_space_group_name_H-M   'P 1'
_symmetry_Int_Tables_number      1
_space_group_name_Hall           'P 1'
loop_
_symmetry_equiv_pos_site_id
_symmetry_equiv_pos_as_xyz
1 x,y,z
_cell_length_a                   10.590(1)
_cell_length_b                   13.728(1)
_cell_length_c                   10.089(2)
_cell_angle_alpha                98.86(1)
_cell_angle_beta                 114.707(9)
_cell_angle_gamma                91.13(1)
_cell_volume                     1310.77
_exptl_crystal_colour            white
_chemical_melting_point          79-81deg.C
_cell_formula_units_Z            2
loop_
_atom_site_label
_atom_site_type_symbol
_atom_site_fract_x
_atom_site_fract_y
_atom_site_fract_z
O5 O 0.081(1) 1.0169(8) 0.672(1)
O6 O 0.072(1) 0.9823(8) 0.879(1)
O9 O 0.262(1) 0.7167(8) 0.902(1)
O10 O 0.468(1) 0.696(1) 1.087(2)
O11 O -0.131(1) 0.538(1) 0.467(1)
O12 O -0.002(1) 0.6815(8) 0.521(1)
N2 N 0.033(1) 0.8635(9) 0.680(1)
N4 N 0.410(1) 0.624(1) 0.841(2)
C13 C -0.018(2) 1.177(1) 0.671(2)
C14 C -0.149(2) 1.128(1) 0.582(2)
C15 C -0.262(2) 1.185(1) 0.527(2)
C16 C -0.248(2) 1.285(1) 0.562(2)
C17 C -0.115(2) 1.332(1) 0.649(2)
C18 C -0.008(2) 1.279(1) 0.700(2)
C19 C 0.109(2) 1.121(1) 0.732(2)
C20 C 0.063(1) 0.956(1) 0.757(2)
C21 C -0.005(2) 0.781(1) 0.736(2)
C22 C -0.164(2) 0.770(1) 0.689(2)
C23 C -0.221(2) 0.679(1) 0.720(2)
C24 C -0.332(2) 0.619(1) 0.609(2)
C25 C -0.164(2) 0.652(1) 0.857(2)
C26 C -0.384(2) 0.533(1) 0.636(2)
C27 C -0.326(2) 0.509(1) 0.776(2)
C28 C -0.216(2) 0.566(1) 0.880(2)
C29 C 0.285(1) 0.417(1) 0.676(2)
C30 C 0.362(2) 0.373(1) 0.791(2)
C31 C 0.431(2) 0.290(1) 0.770(2)
C32 C 0.421(2) 0.257(1) 0.630(2)
C33 C 0.347(2) 0.300(1) 0.514(2)
C34 C 0.279(2) 0.381(1) 0.537(2)
C52 C 0.204(2) 0.505(1) 0.694(2)
C53 C 0.277(2) 0.606(1) 0.709(2)
C54 C 0.206(2) 0.694(1) 0.743(2)
C55 C 0.393(2) 0.678(1) 0.956(2)
C56 C -0.157(2) 0.625(1) 0.270(2)
C57 C -0.099(2) 0.607(1) 0.428(2)
C58 C 0.043(2) 0.687(1) 0.680(2)
H11 H -0.1615 1.0579 0.5592
H12 H -0.3515 1.1518 0.4631
H13 H -0.3256 1.3219 0.5257
H14 H -0.1010 1.4022 0.6713
H15 H 0.0818 1.3131 0.7616
H16 H 0.1805 1.1475 0.7093
H17 H 0.1422 1.1292 0.8365
H18 H 0.0409 0.7936 0.8412
H19 H -0.2097 0.7696 0.5851
H20 H -0.1867 0.8260 0.7401
H21 H -0.3722 0.6356 0.5119
H22 H -0.0886 0.6930 0.9360
H23 H -0.4605 0.4926 0.5568
H24 H -0.3623 0.4516 0.7956
H25 H -0.1706 0.5471 0.9732
H26 H 0.3697 0.3989 0.8869
H27 H 0.4834 0.2576 0.8495
H28 H 0.4702 0.2016 0.6144
H29 H 0.3403 0.2746 0.4172
H30 H 0.2272 0.4126 0.4563
H49 H 0.1870 0.5050 0.7787
H50 H 0.1168 0.4974 0.6077
H51 H 0.2910 0.6084 0.6228
H52 H 0.2352 0.7482 0.7097
H53 H -0.0832 0.6295 0.2405
H54 H -0.2004 0.6846 0.2646
H55 H -0.2235 0.5714 0.2065
H56 H 0.0087 0.6301 0.7008
O1 O 0.0052 0.8653 0.3138
O2 O -0.173(1) 0.8923(9) 0.369(2)
O3 O 0.264(1) 0.9077(8) 0.179(1)
O4 O 0.398(1) 1.049(1) 0.309(2)
O7 O 0.163(1) 0.5677(8) 0.101(1)
O8 O 0.186(1) 0.6032(8) 0.338(2)
N1 N -0.127(2) 0.976(1) 0.214(2)
N3 N 0.219(1) 0.7230(9) 0.216(1)
C1 C -0.017(2) 1.170(1) 0.189(2)
C2 C -0.046(2) 1.238(1) 0.287(2)
C3 C -0.128(2) 1.313(1) 0.241(2)
C4 C -0.182(2) 1.324(1) 0.096(2)
C5 C -0.157(2) 1.258(1) -0.002(2)
C6 C -0.076(2) 1.181(1) 0.043(2)
C7 C 0.070(2) 1.085(1) 0.237(2)
C8 C -0.014(2) 0.988(1) 0.169(2)
C9 C 0.059(2) 0.892(1) 0.215(2)
C10 C -0.106(2) 0.911(1) 0.303(2)
C11 C 0.215(2) 0.897(1) 0.292(2)
C12 C 0.365(2) 0.981(1) 0.209(2)
C35 C 0.374(2) 0.257(1) 0.135(2)
C36 C 0.503(2) 0.307(1) 0.194(2)
C37 C 0.519(2) 0.410(1) 0.224(2)
C38 C 0.256(2) 0.311(1) 0.103(2)
C39 C 0.401(2) 0.462(1) 0.192(2)
C40 C 0.267(2) 0.413(1) 0.134(2)
C41 C 0.141(2) 0.462(1) 0.102(2)
C42 C 0.265(2) 0.801(1) 0.343(2)
C43 C 0.426(2) 0.808(1) 0.428(2)
C44 C 0.488(2) 0.878(2) 0.571(2)
C45 C 0.569(2) 0.955(1) 0.608(2)
C46 C 0.626(2) 1.016(1) 0.739(3)
C47 C 0.604(3) 0.997(3) 0.847(3)
C48 C 0.560(3) 0.886(3) 0.837(3)
C49 C 0.498(2) 0.832(2) 0.681(3)
C50 C 0.193(2) 0.630(1) 0.231(2)
C51 C 0.424(2) 0.964(1) 0.095(2)
H1 H -0.0070 1.2325 0.3889
H2 H -0.1476 1.3587 0.3089
H3 H -0.2366 1.3768 0.0637
H4 H -0.1956 1.2648 -0.1044
H5 H -0.0612 1.1356 -0.0290
H6 H 0.1056 1.0918 0.3415
H7 H 0.1444 1.0875 0.2086
H8 H -0.0522 0.9822 0.0634
H9 H 0.0276 0.8411 0.1292
H10 H 0.2527 0.9510 0.3723
H31 H 0.3632 0.1865 0.1129
H32 H 0.5828 0.2721 0.2123
H33 H 0.6095 0.4455 0.2664
H34 H 0.1659 0.2769 0.0593
H35 H 0.4119 0.5318 0.2104
H36 H 0.0733 0.4314 0.0076
H37 H 0.1107 0.4555 0.1758
H38 H 0.2249 0.7864 0.4067
H39 H 0.4645 0.8279 0.3656
H40 H 0.4512 0.7438 0.4469
H41 H 0.5897 0.9728 0.5311
H42 H 0.6810 1.0752 0.7504
H43 H 0.6171 1.0433 0.9301
H44 H 0.5699 0.8549 0.9176
H45 H 0.4658 0.7629 0.6634
H46 H 0.3517 0.9614 -0.0022
H47 H 0.4671 0.9039 0.0993
H48 H 0.4927 1.0175 0.1135
loop_
_geom_bond_atom_site_label_1
_geom_bond_atom_site_label_2
_geom_bond_site_symmetry_1
_geom_bond_site_symmetry_2
O1 C9 1_555 1_555
O2 C10 1_555 1_555
O3 C11 1_555 1_555
O4 C12 1_555 1_555
O5 C19 1_555 1_555
O6 C20 1_555 1_555
O7 C41 1_555 1_555
O8 C50 1_555 1_555
O9 C54 1_555 1_555
O10 C55 1_555 1_555
O11 C57 1_555 1_555
O12 C57 1_555 1_555
N1 C8 1_555 1_555
N2 C20 1_555 1_555
N3 C42 1_555 1_555
N4 C53 1_555 1_555
C1 C2 1_555 1_555
C2 C3 1_555 1_555
C3 C4 1_555 1_555
C4 C5 1_555 1_555
C5 C6 1_555 1_555
C6 C1 1_555 1_555
C7 C1 1_555 1_555
C8 C7 1_555 1_555
C9 C8 1_555 1_555
C10 O1 1_555 1_555
C11 C9 1_555 1_555
C12 O3 1_555 1_555
C13 C14 1_555 1_555
C14 C15 1_555 1_555
C15 C16 1_555 1_555
C16 C17 1_555 1_555
C17 C18 1_555 1_555
C18 C13 1_555 1_555
C19 C13 1_555 1_555
C20 O5 1_555 1_555
C21 N2 1_555 1_555
C22 C21 1_555 1_555
C23 C22 1_555 1_555
C24 C23 1_555 1_555
C25 C23 1_555 1_555
C26 C24 1_555 1_555
C27 C26 1_555 1_555
C28 C25 1_555 1_555
C29 C30 1_555 1_555
C30 C31 1_555 1_555
C31 C32 1_555 1_555
C32 C33 1_555 1_555
C33 C34 1_555 1_555
C34 C29 1_555 1_555
C35 C36 1_555 1_555
C36 C37 1_555 1_555
C37 C39 1_555 1_555
C38 C35 1_555 1_555
C39 C40 1_555 1_555
C40 C38 1_555 1_555
C41 C40 1_555 1_555
C42 C11 1_555 1_555
C43 C42 1_555 1_555
C44 C43 1_555 1_555
C45 C44 1_555 1_555
C46 C45 1_555 1_555
C47 C46 1_555 1_555
C48 C47 1_555 1_555
C49 C44 1_555 1_555
C50 O7 1_555 1_555
C51 C12 1_555 1_555
C52 C29 1_555 1_555
C53 C52 1_555 1_555
C54 C53 1_555 1_555
C55 O9 1_555 1_555
C56 C57 1_555 1_555
C58 O12 1_555 1_555
H1 C2 1_555 1_555
H2 C3 1_555 1_555
H3 C4 1_555 1_555
H4 C5 1_555 1_555
H5 C6 1_555 1_555
H6 C7 1_555 1_555
H7 C7 1_555 1_555
H8 C8 1_555 1_555
H9 C9 1_555 1_555
H10 C11 1_555 1_555
H11 C14 1_555 1_555
H12 C15 1_555 1_555
H13 C16 1_555 1_555
H14 C17 1_555 1_555
H15 C18 1_555 1_555
H16 C19 1_555 1_555
H17 C19 1_555 1_555
H18 C21 1_555 1_555
H19 C22 1_555 1_555
H20 C22 1_555 1_555
H21 C24 1_555 1_555
H22 C25 1_555 1_555
H23 C26 1_555 1_555
H24 C27 1_555 1_555
H25 C28 1_555 1_555
H26 C30 1_555 1_555
H27 C31 1_555 1_555
H28 C32 1_555 1_555
H29 C33 1_555 1_555
H30 C34 1_555 1_555
H31 C35 1_555 1_555
H32 C36 1_555 1_555
H33 C37 1_555 1_555
H34 C38 1_555 1_555
H35 C39 1_555 1_555
H36 C41 1_555 1_555
H37 C41 1_555 1_555
H38 C42 1_555 1_555
H39 C43 1_555 1_555
H40 C43 1_555 1_555
H41 C45 1_555 1_555
H42 C46 1_555 1_555
H43 C47 1_555 1_555
H44 C48 1_555 1_555
H45 C49 1_555 1_555
H46 C51 1_555 1_555
H47 C51 1_555 1_555
H48 C51 1_555 1_555
H49 C52 1_555 1_555
H50 C52 1_555 1_555
H51 C53 1_555 1_555
H52 C54 1_555 1_555
H53 C56 1_555 1_555
H54 C56 1_555 1_555
H55 C56 1_555 1_555
H56 C58 1_555 1_555
N1 C10 1_555 1_555
N3 C50 1_555 1_555
N4 C55 1_555 1_555
C21 C58 1_555 1_555
C27 C28 1_555 1_555
C48 C49 1_555 1_555
C54 C58 1_555 1_555

#END
