
#######################################################################
#
#                 Cambridge Crystallographic Data Centre
#                                CCDC 
#
#######################################################################
#
# If this CIF has been generated from an entry in the Cambridge 
# Structural Database, then it will include bibliographic, chemical, 
# crystal, experimental, refinement or atomic coordinate data resulting 
# from the CCDC's data processing and validation procedures.
#
#######################################################################

data_JUKLUY
_chemical_formula_moiety         'C22 H20 N2 S2'
_chemical_name_systematic        
N,N'-dimethyl-N,N'-diphenylbenzene-1,3-dicarbothioamide
_symmetry_cell_setting           monoclinic
_symmetry_space_group_name_H-M   'P 21/n'
_symmetry_Int_Tables_number      14
_space_group_name_Hall           '-P 2yn'
loop_
_symmetry_equiv_pos_site_id
_symmetry_equiv_pos_as_xyz
1 x,y,z
2 1/2-x,1/2+y,1/2-z
3 -x,-y,-z
4 1/2+x,1/2-y,1/2+z
_cell_length_a                   9.366(2)
_cell_length_b                   16.956(1)
_cell_length_c                   12.954(1)
_cell_angle_alpha                90
_cell_angle_beta                 108.36(1)
_cell_angle_gamma                90
_cell_volume                     1952.5
_exptl_crystal_colour            yellow
_exptl_crystal_description       plates
_cell_formula_units_Z            4
loop_
_atom_site_label
_atom_site_type_symbol
_atom_site_fract_x
_atom_site_fract_y
_atom_site_fract_z
C1 C 0.1621(5) 0.3694(3) 0.4190(4)
H1 H 0.1267 0.4214 0.4334
H2 H 0.1673 0.3339 0.4798
H3 H 0.0922 0.3478 0.3519
N1 N 0.3118(4) 0.3771(2) 0.4070(3)
C2 C 0.3388(5) 0.4310(2) 0.3398(3)
S1 S 0.20955(12) 0.49376(7) 0.26876(9)
C3 C 0.4946(4) 0.4355(2) 0.3322(3)
C4 C 0.5143(4) 0.4347(2) 0.2302(3)
H4 H 0.4294 0.4272 0.1674
C5 C 0.6549(4) 0.4448(2) 0.2183(3)
C6 C 0.6747(4) 0.4469(2) 0.1103(3)
S2 S 0.74080(13) 0.52806(6) 0.06924(10)
N2 N 0.6338(4) 0.38197(18) 0.0469(3)
C7 C 0.6368(6) 0.3821(3) -0.0659(4)
H5 H 0.5488 0.4105 -0.1122
H6 H 0.6348 0.3276 -0.0917
H7 H 0.7287 0.4081 -0.0690
C8 C 0.7799(4) 0.4572(2) 0.3110(4)
H8 H 0.8766 0.4661 0.3041
C9 C 0.7605(5) 0.4564(3) 0.4129(4)
H9 H 0.8453 0.4636 0.4758
C10 C 0.6206(5) 0.4452(2) 0.4247(3)
H10 H 0.6096 0.4442 0.4951
C11 C 0.4135(4) 0.3146(2) 0.4595(4)
C12 C 0.4401(5) 0.2532(3) 0.3964(5)
H11 H 0.4022 0.2556 0.3193
C13 C 0.5228(6) 0.1883(3) 0.4482(6)
H12 H 0.5394 0.1454 0.4063
C14 C 0.5803(7) 0.1860(4) 0.5588(7)
H13 H 0.6360 0.1412 0.5933
C15 C 0.5585(6) 0.2483(4) 0.6213(5)
H14 H 0.6005 0.2467 0.6983
C16 C 0.4738(6) 0.3139(4) 0.5700(4)
H15 H 0.4588 0.3572 0.6119
C17 C 0.5955(5) 0.3088(2) 0.0885(3)
C18 C 0.7012(5) 0.2691(2) 0.1701(4)
H16 H 0.7988 0.2909 0.2014
C19 C 0.6648(6) 0.1972(3) 0.2065(4)
H17 H 0.7373 0.1697 0.2631
C20 C 0.5236(7) 0.1659(3) 0.1604(5)
H18 H 0.4987 0.1166 0.1852
C21 C 0.4180(6) 0.2057(3) 0.0784(5)
H19 H 0.3205 0.1838 0.0471
C22 C 0.4535(5) 0.2771(3) 0.0416(4)
H20 H 0.3811 0.3043 -0.0155
loop_
_geom_bond_atom_site_label_1
_geom_bond_atom_site_label_2
_geom_bond_site_symmetry_1
_geom_bond_site_symmetry_2
C1 H1 1_555 1_555
H2 C1 1_555 1_555
H3 C1 1_555 1_555
N1 C1 1_555 1_555
C2 N1 1_555 1_555
S1 C2 1_555 1_555
C3 C2 1_555 1_555
C4 C3 1_555 1_555
H4 C4 1_555 1_555
C5 C4 1_555 1_555
C6 C5 1_555 1_555
S2 C6 1_555 1_555
N2 C6 1_555 1_555
C7 N2 1_555 1_555
H5 C7 1_555 1_555
H6 C7 1_555 1_555
H7 C7 1_555 1_555
C8 C5 1_555 1_555
H8 C8 1_555 1_555
C9 C8 1_555 1_555
H9 C9 1_555 1_555
C10 C3 1_555 1_555
H10 C10 1_555 1_555
C11 N1 1_555 1_555
C12 C11 1_555 1_555
H11 C12 1_555 1_555
C13 C12 1_555 1_555
H12 C13 1_555 1_555
C14 C13 1_555 1_555
H13 C14 1_555 1_555
C15 C14 1_555 1_555
H14 C15 1_555 1_555
C16 C11 1_555 1_555
H15 C16 1_555 1_555
C17 N2 1_555 1_555
C18 C17 1_555 1_555
H16 C18 1_555 1_555
C19 C18 1_555 1_555
H17 C19 1_555 1_555
C20 C19 1_555 1_555
H18 C20 1_555 1_555
C21 C20 1_555 1_555
H19 C21 1_555 1_555
C22 C17 1_555 1_555
H20 C22 1_555 1_555
C9 C10 1_555 1_555
C15 C16 1_555 1_555
C21 C22 1_555 1_555

#END
