
#######################################################################
#
#                 Cambridge Crystallographic Data Centre
#                                CCDC 
#
#######################################################################
#
# If this CIF has been generated from an entry in the Cambridge 
# Structural Database, then it will include bibliographic, chemical, 
# crystal, experimental, refinement or atomic coordinate data resulting 
# from the CCDC's data processing and validation procedures.
#
#######################################################################

data_JUMDUS
_chemical_formula_moiety         'C34 H25 N1 O2'
_chemical_name_systematic        
2-(4-(9H-Carbazol-9-yl)benzyl)-1,3-diphenylpropane-1,3-dione
_symmetry_cell_setting           monoclinic
_symmetry_space_group_name_H-M   'P 21/n'
_symmetry_Int_Tables_number      14
_space_group_name_Hall           '-P 2yn'
loop_
_symmetry_equiv_pos_site_id
_symmetry_equiv_pos_as_xyz
1 x,y,z
2 1/2-x,1/2+y,1/2-z
3 -x,-y,-z
4 1/2+x,1/2-y,1/2+z
_cell_length_a                   16.8517(17)
_cell_length_b                   9.5971(10)
_cell_length_c                   17.0948(17)
_cell_angle_alpha                90
_cell_angle_beta                 110.621(2)
_cell_angle_gamma                90
_cell_volume                     2587.57
_cell_formula_units_Z            4
loop_
_atom_site_label
_atom_site_type_symbol
_atom_site_fract_x
_atom_site_fract_y
_atom_site_fract_z
N1 N 0.31510(19) 0.6671(3) 0.16575(16)
O1 O 0.28448(14) 0.8008(3) 0.55790(13)
O2 O 0.42559(13) 0.5559(3) 0.67790(12)
C1 C 0.3745(3) 0.6891(3) 0.1280(2)
C2 C 0.4604(3) 0.7010(3) 0.1636(2)
H1 H 0.4877 0.6957 0.2212
C3 C 0.5051(2) 0.7213(4) 0.1110(3)
H2 H 0.5637 0.7312 0.1331
C4 C 0.4636(4) 0.7270(5) 0.0253(3)
H3 H 0.4953 0.7406 -0.0089
C5 C 0.3788(3) 0.7134(4) -0.0104(2)
H4 H 0.3525 0.7167 -0.0682
C6 C 0.3314(3) 0.6943(3) 0.0407(3)
C7 C 0.2439(3) 0.6769(4) 0.0280(3)
C8 C 0.1699(4) 0.6738(4) -0.0431(3)
H5 H 0.1727 0.6855 -0.0961
C9 C 0.0937(3) 0.6533(5) -0.0335(4)
H6 H 0.0446 0.6516 -0.0806
C10 C 0.0879(3) 0.6352(4) 0.0436(4)
H7 H 0.0348 0.6219 0.0477
C11 C 0.1586(3) 0.6362(3) 0.1155(2)
H8 H 0.1547 0.6228 0.1679
C12 C 0.2361(3) 0.6583(3) 0.1056(3)
C13 C 0.33448(18) 0.6497(4) 0.2535(2)
C14 C 0.34844(18) 0.5206(4) 0.2885(2)
H9 H 0.3440 0.4427 0.2549
C15 C 0.36905(18) 0.5047(4) 0.3734(2)
H10 H 0.3783 0.4157 0.3963
C16 C 0.37615(17) 0.6156(4) 0.4240(2)
C17 C 0.36185(18) 0.7447(4) 0.3889(2)
H11 H 0.3665 0.8223 0.4227
C18 C 0.34051(17) 0.7625(4) 0.3034(2)
H12 H 0.3303 0.8513 0.2802
C19 C 0.39847(15) 0.5954(3) 0.51669(16)
H13 H 0.4282 0.6776 0.5454
H14 H 0.4370 0.5170 0.5345
C20 C 0.32198(18) 0.5695(3) 0.54305(15)
H15 H 0.2919 0.4857 0.5152
C21 C 0.2633(2) 0.6942(4) 0.51765(19)
C22 C 0.18587(19) 0.6912(4) 0.44182(19)
C23 C 0.15856(19) 0.5736(4) 0.3939(2)
H16 H 0.1880 0.4903 0.4097
C24 C 0.0872(2) 0.5793(4) 0.3220(2)
H17 H 0.0697 0.5001 0.2890
C25 C 0.0426(2) 0.6991(6) 0.2993(2)
H18 H -0.0056 0.7018 0.2513
C26 C 0.0684(3) 0.8160(5) 0.3471(3)
H19 H 0.0381 0.8986 0.3313
C27 C 0.1394(3) 0.8117(4) 0.4189(2)
H20 H 0.1559 0.8910 0.4520
C28 C 0.3518(2) 0.5503(4) 0.63713(18)
C29 C 0.2888(2) 0.5196(3) 0.67696(19)
C30 C 0.3179(2) 0.5054(4) 0.7627(2)
H21 H 0.3752 0.5180 0.7935
C31 C 0.2627(3) 0.4728(4) 0.8029(2)
H22 H 0.2832 0.4630 0.8607
C32 C 0.1786(3) 0.4545(4) 0.7594(2)
H23 H 0.1418 0.4316 0.7871
C33 C 0.14883(19) 0.4701(4) 0.6744(2)
H24 H 0.0914 0.4590 0.6439
C34 C 0.2043(2) 0.5025(3) 0.63432(17)
H25 H 0.1836 0.5129 0.5765
loop_
_geom_bond_atom_site_label_1
_geom_bond_atom_site_label_2
_geom_bond_site_symmetry_1
_geom_bond_site_symmetry_2
N1 C1 1_555 1_555
O1 C21 1_555 1_555
O2 C28 1_555 1_555
C1 C2 1_555 1_555
C2 H1 1_555 1_555
C3 C2 1_555 1_555
H2 C3 1_555 1_555
C4 C3 1_555 1_555
H3 C4 1_555 1_555
C5 C4 1_555 1_555
H4 C5 1_555 1_555
C6 C1 1_555 1_555
C7 C6 1_555 1_555
C8 C7 1_555 1_555
H5 C8 1_555 1_555
C9 C8 1_555 1_555
H6 C9 1_555 1_555
C10 C9 1_555 1_555
H7 C10 1_555 1_555
C11 C10 1_555 1_555
H8 C11 1_555 1_555
C12 N1 1_555 1_555
C13 N1 1_555 1_555
C14 C13 1_555 1_555
H9 C14 1_555 1_555
C15 C14 1_555 1_555
H10 C15 1_555 1_555
C16 C15 1_555 1_555
C17 C16 1_555 1_555
H11 C17 1_555 1_555
C18 C13 1_555 1_555
H12 C18 1_555 1_555
C19 C16 1_555 1_555
H13 C19 1_555 1_555
H14 C19 1_555 1_555
C20 C19 1_555 1_555
H15 C20 1_555 1_555
C21 C20 1_555 1_555
C22 C21 1_555 1_555
C23 C22 1_555 1_555
H16 C23 1_555 1_555
C24 C23 1_555 1_555
H17 C24 1_555 1_555
C25 C24 1_555 1_555
H18 C25 1_555 1_555
C26 C25 1_555 1_555
H19 C26 1_555 1_555
C27 C22 1_555 1_555
H20 C27 1_555 1_555
C28 C20 1_555 1_555
C29 C28 1_555 1_555
C30 C29 1_555 1_555
H21 C30 1_555 1_555
C31 C30 1_555 1_555
H22 C31 1_555 1_555
C32 C31 1_555 1_555
H23 C32 1_555 1_555
C33 C32 1_555 1_555
H24 C33 1_555 1_555
C34 C29 1_555 1_555
H25 C34 1_555 1_555
C5 C6 1_555 1_555
C7 C12 1_555 1_555
C11 C12 1_555 1_555
C17 C18 1_555 1_555
C26 C27 1_555 1_555
C33 C34 1_555 1_555

#END
