
#######################################################################
#
#                 Cambridge Crystallographic Data Centre
#                                CCDC 
#
#######################################################################
#
# If this CIF has been generated from an entry in the Cambridge 
# Structural Database, then it will include bibliographic, chemical, 
# crystal, experimental, refinement or atomic coordinate data resulting 
# from the CCDC's data processing and validation procedures.
#
#######################################################################

data_JUMZEW
_chemical_name_common            
2,8,14,20-tetrakis(2-phenylethyl)-6$O!,5:12$O!,11:18$O!,17:24$O!,23-tetrakis(methyleneoxycarbonyl)calix[4]resorcinarene
_chemical_formula_moiety         'C68 H56 O16'
_chemical_name_systematic        
Cyclo-tetrakis(m-(4-oxacoumarin-8-ol)phenylpropano)
_symmetry_cell_setting           monoclinic
_symmetry_space_group_name_H-M   'P 21/a'
_symmetry_Int_Tables_number      14
_space_group_name_Hall           '-P 2yab'
loop_
_symmetry_equiv_pos_site_id
_symmetry_equiv_pos_as_xyz
1 x,y,z
2 1/2-x,1/2+y,-z
3 -x,-y,-z
4 1/2+x,1/2-y,z
_cell_length_a                   17.034(5)
_cell_length_b                   16.714(4)
_cell_length_c                   21.543(5)
_cell_angle_alpha                90
_cell_angle_beta                 117.378(6)
_cell_angle_gamma                90
_cell_volume                     5446.43
_exptl_crystal_colour            colorless
_cell_formula_units_Z            4
loop_
_atom_site_label
_atom_site_type_symbol
_atom_site_fract_x
_atom_site_fract_y
_atom_site_fract_z
O1 O 0.6510(14) -0.0672(14) 0.9692(11)
C1 C 0.6227(27) -0.0079(27) 0.9793(21)
O2 O 0.6741(14) 0.0423(14) 1.0319(11)
C2 C 0.6527(20) 0.1249(19) 1.0336(15)
O3 O 0.5640(13) 0.1367(12) 1.0144(10)
C3 C 0.4163(16) 0.1290(16) 0.9181(13)
C4 C 0.3632(18) 0.0839(17) 0.8601(13)
H1 H 0.2977 0.1060 0.8261
C5 C 0.3853(20) 0.0137(20) 0.8414(15)
C6 C 0.4719(19) -0.0179(18) 0.8774(15)
C7 C 0.5335(19) 0.0262(18) 0.9377(14)
C8 C 0.5055(19) 0.0970(18) 0.9536(15)
O4 O 0.4985(12) -0.0860(12) 0.8583(10)
C9 C 0.3917(15) 0.2081(15) 0.9387(13)
H2 H 0.4115 0.2065 0.9941
C10 C 0.2934(16) 0.2190(16) 0.9096(13)
H3 H 0.2659 0.2313 0.8543
H4 H 0.2625 0.1662 0.9174
C11 C 0.2694(20) 0.2926(20) 0.9409(16)
H5 H 0.3275 0.3302 0.9633
H6 H 0.2526 0.2741 0.9813
C12 C 0.1064(15) 0.3152(9) 0.8593(10)
C13 C 0.0398(15) 0.3612(9) 0.8080(10)
C14 C 0.0613(15) 0.4314(9) 0.7841(10)
C15 C 0.1494(15) 0.4555(9) 0.8116(10)
C16 C 0.2159(15) 0.4095(9) 0.8629(10)
C17 C 0.1945(15) 0.3393(9) 0.8867(10)
H7 H 0.0898 0.2609 0.8778
H8 H -0.0283 0.3425 0.7867
H9 H 0.0098 0.4670 0.7444
H10 H 0.1660 0.5098 0.7931
H11 H 0.2841 0.4282 0.8841
C18 C 0.3180(17) -0.0391(17) 0.7805(14)
H12 H 0.3355 -0.1003 0.7973
C19 C 0.2206(17) -0.0223(18) 0.7660(14)
H13 H 0.1977 0.0301 0.7331
H14 H 0.2193 -0.0109 0.8149
C20 C 0.1578(20) -0.0927(18) 0.7283(16)
H15 H 0.1766 -0.1150 0.6900
H16 H 0.0906 -0.0710 0.7021
C21 C 0.2096(14) -0.2292(16) 0.7722(11)
C22 C 0.2168(14) -0.2915(16) 0.8176(11)
C23 C 0.1725(14) -0.2869(16) 0.8582(11)
C24 C 0.1211(14) -0.2199(16) 0.8534(11)
C25 C 0.1139(14) -0.1577(16) 0.8080(11)
C26 C 0.1582(14) -0.1623(16) 0.7674(11)
H17 H 0.2438 -0.2328 0.7407
H18 H 0.2566 -0.3433 0.8213
H19 H 0.1781 -0.3351 0.8934
H20 H 0.0869 -0.2164 0.8849
H21 H 0.0741 -0.1059 0.8043
O5 O 0.3595(16) -0.1406(16) 0.5192(13)
C27 C 0.3677(19) -0.1494(20) 0.5645(17)
O6 O 0.3854(16) -0.2135(16) 0.6175(14)
C28 C 0.4200(22) -0.2152(21) 0.6946(18)
O7 O 0.3564(12) -0.1660(12) 0.7064(9)
O8 O 0.3399(13) 0.0085(12) 0.5264(11)
C29 C 0.3237(16) 0.0648(16) 0.6198(13)
C30 C 0.3387(20) -0.0063(20) 0.5910(16)
C31 C 0.3532(17) -0.0842(17) 0.6162(15)
C32 C 0.3468(17) -0.0876(18) 0.6809(14)
C33 C 0.3260(16) -0.0266(17) 0.7133(13)
C34 C 0.3178(14) 0.0489(15) 0.6848(11)
H22 H 0.3054 0.0986 0.7110
C35 C 0.3053(16) 0.1459(16) 0.5904(13)
H23 H 0.3080 0.1391 0.5416
C36 C 0.2135(18) 0.1722(18) 0.5730(15)
H24 H 0.2048 0.1687 0.6195
H25 H 0.2041 0.2332 0.5544
C37 C 0.1369(18) 0.1177(19) 0.5123(15)
H26 H 0.1631 0.0576 0.5217
H27 H 0.1264 0.1373 0.4612
C38 C -0.0203(14) 0.1501(10) 0.4651(9)
C39 C -0.1008(14) 0.1445(10) 0.4672(9)
C40 C -0.1050(14) 0.1059(10) 0.5230(9)
C41 C -0.0288(14) 0.0730(10) 0.5767(9)
C42 C 0.0516(14) 0.0786(10) 0.5746(9)
C43 C 0.0559(14) 0.1171(10) 0.5188(9)
H28 H -0.0171 0.1799 0.4219
H29 H -0.1598 0.1700 0.4256
H30 H -0.1673 0.1016 0.5247
H31 H -0.0321 0.0431 0.6199
H32 H 0.1106 0.0530 0.6162
O9 O 0.6796(13) 0.2783(12) 0.7219(10)
C44 C 0.6143(20) 0.2388(18) 0.6823(15)
O10 O 0.6221(13) 0.1871(12) 0.6386(10)
C45 C 0.5392(19) 0.1685(17) 0.5770(14)
O11 O 0.4725(11) 0.1447(11) 0.6000(9)
O12 O 0.5827(13) 0.3599(13) 0.7607(10)
C46 C 0.3765(18) 0.2070(17) 0.6364(14)
C47 C 0.3624(19) 0.2650(17) 0.6775(14)
H33 H 0.3000 0.2696 0.6788
C48 C 0.4347(18) 0.3182(16) 0.7172(13)
C49 C 0.5126(20) 0.3101(19) 0.7211(15)
C50 C 0.5270(17) 0.2551(16) 0.6784(13)
C51 C 0.4589(19) 0.2023(17) 0.6413(14)
C52 C 0.4205(18) 0.3832(18) 0.7588(14)
H34 H 0.4586 0.4301 0.7510
C53 C 0.3298(16) 0.4218(16) 0.7326(13)
H35 H 0.3313 0.4663 0.7695
H36 H 0.2823 0.3759 0.7271
C54 C 0.3031(23) 0.4617(22) 0.6628(18)
H37 H 0.3618 0.4861 0.6630
H38 H 0.2747 0.4170 0.6223
C55 C 0.1530(20) 0.5105(12) 0.6520(11)
C56 C 0.0869(20) 0.5686(12) 0.6304(11)
C57 C 0.1000(20) 0.6427(12) 0.6067(11)
C58 C 0.1792(20) 0.6586(12) 0.6047(11)
C59 C 0.2453(20) 0.6005(12) 0.6263(11)
C60 C 0.2322(20) 0.5265(12) 0.6500(11)
H39 H 0.1429 0.4532 0.6704
H40 H 0.0256 0.5563 0.6319
H41 H 0.0488 0.6877 0.5899
H42 H 0.1893 0.7159 0.5863
H43 H 0.3066 0.6129 0.6248
O13 O 0.6014(14) 0.4409(14) 1.0726(13)
C61 C 0.5968(23) 0.4502(22) 1.0164(20)
O14 O 0.6245(15) 0.5075(15) 0.9929(13)
C62 C 0.6403(23) 0.4950(22) 0.9351(19)
O15 O 0.5474(14) 0.4765(13) 0.8763(10)
O16 O 0.5156(12) 0.3119(12) 1.0449(10)
C63 C 0.4538(18) 0.3594(18) 0.8404(14)
C64 C 0.5165(18) 0.4100(18) 0.8927(15)
C65 C 0.5385(19) 0.3896(19) 0.9624(15)
C66 C 0.4974(22) 0.3284(21) 0.9752(18)
C67 C 0.4370(16) 0.2742(16) 0.9259(13)
C68 C 0.4166(16) 0.2955(16) 0.8551(13)
H44 H 0.3696 0.2595 0.8126
loop_
_geom_bond_atom_site_label_1
_geom_bond_atom_site_label_2
_geom_bond_site_symmetry_1
_geom_bond_site_symmetry_2
O1 C1 1_555 1_555
C1 O2 1_555 1_555
O2 C2 1_555 1_555
C2 O3 1_555 1_555
O3 C8 1_555 1_555
C3 C4 1_555 1_555
C4 H1 1_555 1_555
C5 C4 1_555 1_555
C6 C5 1_555 1_555
C7 C1 1_555 1_555
C8 C3 1_555 1_555
O4 C6 1_555 1_555
C9 C3 1_555 1_555
H2 C9 1_555 1_555
C10 C9 1_555 1_555
H3 C10 1_555 1_555
H4 C10 1_555 1_555
C11 C10 1_555 1_555
H5 C11 1_555 1_555
H6 C11 1_555 1_555
C12 C13 1_555 1_555
C13 C14 1_555 1_555
C14 C15 1_555 1_555
C15 C16 1_555 1_555
C16 C17 1_555 1_555
C17 C11 1_555 1_555
H7 C12 1_555 1_555
H8 C13 1_555 1_555
H9 C14 1_555 1_555
H10 C15 1_555 1_555
H11 C16 1_555 1_555
C18 C5 1_555 1_555
H12 C18 1_555 1_555
C19 C18 1_555 1_555
H13 C19 1_555 1_555
H14 C19 1_555 1_555
C20 C19 1_555 1_555
H15 C20 1_555 1_555
H16 C20 1_555 1_555
C21 C22 1_555 1_555
C22 C23 1_555 1_555
C23 C24 1_555 1_555
C24 C25 1_555 1_555
C25 C26 1_555 1_555
C26 C20 1_555 1_555
H17 C21 1_555 1_555
H18 C22 1_555 1_555
H19 C23 1_555 1_555
H20 C24 1_555 1_555
H21 C25 1_555 1_555
O5 C27 1_555 1_555
C27 O6 1_555 1_555
O6 C28 1_555 1_555
C28 O7 1_555 1_555
O7 C32 1_555 1_555
O8 C30 1_555 1_555
C29 C30 1_555 1_555
C30 C31 1_555 1_555
C31 C27 1_555 1_555
C32 C31 1_555 1_555
C33 C18 1_555 1_555
C34 C29 1_555 1_555
H22 C34 1_555 1_555
C35 C29 1_555 1_555
H23 C35 1_555 1_555
C36 C35 1_555 1_555
H24 C36 1_555 1_555
H25 C36 1_555 1_555
C37 C36 1_555 1_555
H26 C37 1_555 1_555
H27 C37 1_555 1_555
C38 C39 1_555 1_555
C39 C40 1_555 1_555
C40 C41 1_555 1_555
C41 C42 1_555 1_555
C42 C43 1_555 1_555
C43 C37 1_555 1_555
H28 C38 1_555 1_555
H29 C39 1_555 1_555
H30 C40 1_555 1_555
H31 C41 1_555 1_555
H32 C42 1_555 1_555
O9 C44 1_555 1_555
C44 O10 1_555 1_555
O10 C45 1_555 1_555
C45 O11 1_555 1_555
O11 C51 1_555 1_555
O12 C49 1_555 1_555
C46 C35 1_555 1_555
C47 C46 1_555 1_555
H33 C47 1_555 1_555
C48 C47 1_555 1_555
C49 C48 1_555 1_555
C50 C44 1_555 1_555
C51 C46 1_555 1_555
C52 C48 1_555 1_555
H34 C52 1_555 1_555
C53 C52 1_555 1_555
H35 C53 1_555 1_555
H36 C53 1_555 1_555
C54 C53 1_555 1_555
H37 C54 1_555 1_555
H38 C54 1_555 1_555
C55 C56 1_555 1_555
C56 C57 1_555 1_555
C57 C58 1_555 1_555
C58 C59 1_555 1_555
C59 C60 1_555 1_555
C60 C54 1_555 1_555
H39 C55 1_555 1_555
H40 C56 1_555 1_555
H41 C57 1_555 1_555
H42 C58 1_555 1_555
H43 C59 1_555 1_555
O13 C61 1_555 1_555
C61 O14 1_555 1_555
O14 C62 1_555 1_555
C62 O15 1_555 1_555
O15 C64 1_555 1_555
O16 C66 1_555 1_555
C63 C52 1_555 1_555
C64 C63 1_555 1_555
C65 C61 1_555 1_555
C66 C65 1_555 1_555
C67 C9 1_555 1_555
C68 C63 1_555 1_555
H44 C68 1_555 1_555
C6 C7 1_555 1_555
C7 C8 1_555 1_555
C12 C17 1_555 1_555
C21 C26 1_555 1_555
C32 C33 1_555 1_555
C33 C34 1_555 1_555
C38 C43 1_555 1_555
C49 C50 1_555 1_555
C50 C51 1_555 1_555
C55 C60 1_555 1_555
C64 C65 1_555 1_555
C66 C67 1_555 1_555
C67 C68 1_555 1_555

#END
