
#######################################################################
#
#                 Cambridge Crystallographic Data Centre
#                                CCDC 
#
#######################################################################
#
# If this CIF has been generated from an entry in the Cambridge 
# Structural Database, then it will include bibliographic, chemical, 
# crystal, experimental, refinement or atomic coordinate data resulting 
# from the CCDC's data processing and validation procedures.
#
#######################################################################

data_JUNQUG
_chemical_formula_moiety         'C9 H13 N1 O3'
_chemical_name_systematic        'Methyl (1-acetylpyrrolidin-2-ylidene)acetate'
_symmetry_cell_setting           triclinic
_symmetry_space_group_name_H-M   'P -1'
_symmetry_Int_Tables_number      2
_space_group_name_Hall           '-P 1'
loop_
_symmetry_equiv_pos_site_id
_symmetry_equiv_pos_as_xyz
1 x,y,z
2 -x,-y,-z
_cell_length_a                   7.465(2)
_cell_length_b                   9.633(3)
_cell_length_c                   13.978(3)
_cell_angle_alpha                90.58(3)
_cell_angle_beta                 94.68(2)
_cell_angle_gamma                109.26(3)
_cell_volume                     945.009
_cell_formula_units_Z            4
_exptl_crystal_recrystallization_method 'n-hexane/ethyl acetate'
loop_
_atom_site_label
_atom_site_type_symbol
_atom_site_fract_x
_atom_site_fract_y
_atom_site_fract_z
N1 N 0.2636(8) 0.3285(6) 0.2694(4)
O1 O 0.2675(8) 0.2110(5) 0.1289(3)
O2 O 0.2512(9) 0.7422(6) 0.1588(4)
O3 O 0.2592(8) 0.6487(6) 0.0153(3)
C1 C 0.2722(12) 0.3286(9) 0.3753(5)
C2 C 0.2102(16) 0.4586(10) 0.3986(5)
C3 C 0.2572(10) 0.5586(8) 0.3183(4)
C4 C 0.2582(9) 0.4624(7) 0.2334(5)
C5 C 0.2731(10) 0.2101(8) 0.2147(5)
C6 C 0.2581(9) 0.5000(7) 0.1411(4)
C7 C 0.2532(10) 0.6396(8) 0.1111(5)
H1 H 0.40030 0.34270 0.40360
H2 H 0.18570 0.23790 0.39740
H3 H 0.27700 0.50810 0.45840
H4 H 0.38100 0.63340 0.33240
H5 H 0.16230 0.60650 0.30620
H6 H 0.2614 0.7777 -0.0929
C8 C 0.2560(14) 0.7834(9) -0.0246(6)
C9 C 0.2959(13) 0.0859(8) 0.2706(5)
H7 H 0.1918 -0.0023 0.2517
H8 H 0.36380 0.86290 0.0032
H9 H 0.07430 0.42640 0.40510
H10 H 0.29700 0.10740 0.33790
H11 H 0.41380 0.0721 0.25840
H12 H 0.26150 0.43150 0.0946
H13 H 0.14070 0.80030 -0.0111
N2 N 0.2308(7) 1.2893(6) -0.2295(3)
O4 O 0.2474(9) 1.4128(6) -0.3663(4)
O5 O 0.2264(9) 0.8718(6) -0.3460(4)
O6 O 0.2426(8) 0.9721(5) -0.4876(3)
C10 C 0.2284(11) 1.2870(8) -0.1234(4)
C11 C 0.1654(13) 1.1254(10) -0.1025(5)
C12 C 0.2340(11) 1.0545(8) -0.1830(5)
C13 C 0.2323(9) 1.1523(7) -0.2654(4)
C14 C 0.2421(10) 1.4116(7) -0.2792(5)
C15 C 0.2540(11) 1.5455(8) -0.2215(5)
C16 C 0.2325(10) 1.1188(7) -0.3589(4)
C17 C 0.2316(10) 0.9764(8) -0.3911(5)
C18 C 0.2454(13) 0.8382(8) -0.5304(5)
H14 H 0.1395 1.3324 -0.10210
H15 H 0.0279 1.0854 -0.10280
H16 H 0.2226 1.1097 -0.0405
H17 H 0.36140 1.0520 -0.1657
H18 H 0.2484 1.5227 -0.1548
H19 H 0.1494 1.5781 -0.2425
H20 H 0.3720 1.6219 -0.2298
H21 H 0.2333 1.1894 -0.4039
H22 H 0.2493 0.8477 -0.5986
H23 H 0.1328 0.7595 -0.5174
H24 H 0.3561 0.8171 -0.5041
H25 H 0.3541 1.3383 -0.0919
H26 H 0.1489 0.9550 -0.1985
loop_
_geom_bond_atom_site_label_1
_geom_bond_atom_site_label_2
_geom_bond_site_symmetry_1
_geom_bond_site_symmetry_2
N1 C1 1_555 1_555
O1 C5 1_555 1_555
O2 C7 1_555 1_555
O3 C7 1_555 1_555
C1 C2 1_555 1_555
C2 C3 1_555 1_555
C3 C4 1_555 1_555
C4 N1 1_555 1_555
C5 N1 1_555 1_555
C6 C4 1_555 1_555
C7 C6 1_555 1_555
H1 C1 1_555 1_555
H2 C1 1_555 1_555
H3 C2 1_555 1_555
H4 C3 1_555 1_555
H5 C3 1_555 1_555
H6 C8 1_555 1_555
C8 O3 1_555 1_555
C9 C5 1_555 1_555
H7 C9 1_555 1_555
H8 C8 1_555 1_555
H9 C2 1_555 1_555
H10 C9 1_555 1_555
H11 C9 1_555 1_555
H12 C6 1_555 1_555
H13 C8 1_555 1_555
N2 C10 1_555 1_555
O4 C14 1_555 1_555
O5 C17 1_555 1_555
O6 C17 1_555 1_555
C10 C11 1_555 1_555
C11 C12 1_555 1_555
C12 C13 1_555 1_555
C13 N2 1_555 1_555
C14 N2 1_555 1_555
C15 C14 1_555 1_555
C16 C13 1_555 1_555
C17 C16 1_555 1_555
C18 O6 1_555 1_555
H14 C10 1_555 1_555
H15 C11 1_555 1_555
H16 C11 1_555 1_555
H17 C12 1_555 1_555
H18 C15 1_555 1_555
H19 C15 1_555 1_555
H20 C15 1_555 1_555
H21 C16 1_555 1_555
H22 C18 1_555 1_555
H23 C18 1_555 1_555
H24 C18 1_555 1_555
H25 C10 1_555 1_555
H26 C12 1_555 1_555

#END
