
#######################################################################
#
#                 Cambridge Crystallographic Data Centre
#                                CCDC 
#
#######################################################################
#
# If this CIF has been generated from an entry in the Cambridge 
# Structural Database, then it will include bibliographic, chemical, 
# crystal, experimental, refinement or atomic coordinate data resulting 
# from the CCDC's data processing and validation procedures.
#
#######################################################################

data_JUPWEW
_chemical_formula_moiety         'C33 H34 O4,C1 Cl4'
_chemical_name_systematic        
'(4R,5R)-4,5-bis(Methoxydiphenyl-methyl)-2,2-dimethyl-1,3-dioxolane carbon tetrachloride clathrate'
_symmetry_cell_setting           orthorhombic
_symmetry_space_group_name_H-M   'P 21 21 21'
_symmetry_Int_Tables_number      19
_space_group_name_Hall           'P 2ac 2ab'
loop_
_symmetry_equiv_pos_site_id
_symmetry_equiv_pos_as_xyz
1 x,y,z
2 1/2+x,1/2-y,-z
3 -x,1/2+y,1/2-z
4 1/2-x,-y,1/2+z
_cell_length_a                   9.439(5)
_cell_length_b                   10.050(2)
_cell_length_c                   34.51(2)
_cell_angle_alpha                90
_cell_angle_beta                 90
_cell_angle_gamma                90
_cell_volume                     3273.69
_exptl_crystal_colour            colorless
_cell_formula_units_Z            4
loop_
_atom_site_label
_atom_site_type_symbol
_atom_site_fract_x
_atom_site_fract_y
_atom_site_fract_z
C1 C 0.082(1) 0.145(1) 0.9040(3)
C2 C -0.056(1) 0.184(1) 0.8862(3)
H1 H -0.036(1) 0.237(1) 0.8636(3)
H2 H -0.109(1) 0.107(1) 0.8789(3)
H3 H -0.111(1) 0.236(1) 0.9041(3)
C3 C 0.064(1) 0.067(1) 0.9406(3)
H4 H 0.155(1) 0.045(1) 0.9508(3)
H5 H 0.011(1) 0.116(1) 0.9596(3)
H6 H 0.014(1) -0.013(1) 0.9343(3)
O1 O 0.1616(8) 0.0714(6) 0.8774(2)
O2 O 0.1582(8) 0.2634(6) 0.9125(2)
C4 C 0.297(1) 0.1291(9) 0.8721(2)
H7 H 0.367(1) 0.0791(9) 0.8862(2)
C5 C 0.285(1) 0.2698(9) 0.8900(3)
H8 H 0.269(1) 0.3323(9) 0.8694(3)
C6 C 0.331(1) 0.124(1) 0.8278(3)
C7 C 0.339(1) -0.021(1) 0.8130(3)
C8 C 0.335(1) -0.132(1) 0.8365(3)
H9 H 0.318(1) -0.125(1) 0.8639(3)
C9 C 0.346(1) -0.259(1) 0.8208(4)
H10 H 0.340(1) -0.338(1) 0.8365(4)
C10 C 0.374(1) -0.272(1) 0.7810(4)
H11 H 0.386(1) -0.358(1) 0.7694(4)
C11 C 0.382(1) -0.164(1) 0.7585(4)
H12 H 0.399(1) -0.172(1) 0.7312(4)
C12 C 0.363(1) -0.039(1) 0.7736(3)
H13 H 0.369(1) 0.040(1) 0.7579(3)
C13 C 0.221(1) 0.2022(9) 0.8042(3)
C14 C 0.254(1) 0.328(1) 0.7921(3)
H14 H 0.344(1) 0.369(1) 0.7971(3)
C15 C 0.151(2) 0.400(2) 0.7722(4)
H15 H 0.169(2) 0.488(2) 0.7631(4)
C16 C 0.023(2) 0.348(1) 0.7643(3)
H16 H -0.0492 0.395(1) 0.7501(3)
C17 C -0.008(1) 0.221(1) 0.7762(3)
H17 H -0.098 0.179(1) 0.7712(3)
C18 C 0.092 0.149(1) 0.7960(3)
H18 H 0.074(1) 0.060(1) 0.8052(3)
O3 O 0.4663(7) 0.1868(7) 0.8214(2)
C19 C 0.592(1) 0.113(1) 0.8323(3)
H19 H 0.675(1) 0.164(1) 0.8266(3)
H20 H 0.590(1) 0.092(1) 0.8595(3)
H21 H 0.594(1) 0.032(1) 0.8176(3)
C20 C 0.404(1) 0.3202(9) 0.9167(3)
C21 C 0.376(1) 0.461(1) 0.9331(3)
C22 C 0.476(1) 0.515(1) 0.9587(3)
H22 H 0.554(1) 0.461(1) 0.9670(3)
C23 C 0.455(1) 0.645(1) 0.9724(3)
H23 H 0.524(1) 0.680(1) 0.9900(3)
C24 C 0.347(1) 0.719(1) 0.9605(3)
H24 H 0.338(1) 0.808(1) 0.9699(3)
C25 C 0.245(1) 0.670(1) 0.9347(3)
H25 H 0.167(1) 0.725(1) 0.9265(3)
C26 C 0.265(1) 0.538(1) 0.9210(3)
H26 H 0.196(1) 0.503(1) 0.9033(3)
C27 C 0.432(1) 0.225(1) 0.9506(3)
C28 C 0.543(1) 0.133(1) 0.9490(3)
H27 H 0.604(1) 0.132(1) 0.9269(3)
C29 C 0.559(2) 0.042(1) 0.9809(3)
H28 H 0.636(2) -0.021(1) 0.9798(3)
C30 C 0.470(1) 0.044(1) 1.0099(4)
H29 H 0.485(1) -0.017(1) 1.0309(4)
C31 C 0.363(1) 0.133(1) 1.0126(3)
H30 H 0.301(1) 0.134(1) 1.0347(3)
C32 C 0.341(1) 0.224(1) 0.9828(3)
H31 H 0.264(1) 0.287(1) 0.9840(3)
O4 O 0.5335(8) 0.3207(7) 0.8949(2)
C33 C 0.555(1) 0.428(1) 0.8691(3)
H32 H 0.643(1) 0.417(1) 0.8556(3)
H33 H 0.479(1) 0.432(1) 0.8508(3)
H34 H 0.558(1) 0.510(1) 0.8835(3)
C34 C 0.849(2) 0.708(1) 0.8580(4)
Cl1 Cl 0.9804(5) 0.8271(5) 0.8534(1)
Cl2 Cl 0.696(1) 0.741(1) 0.8370(4)
Cl3 Cl 0.930(1) 0.561(1) 0.8351(4)
Cl4 Cl 0.831(2) 0.665(1) 0.9044(4)
Cl5? Cl 0.725(1) 0.718(1) 0.8204(4)
Cl6? Cl 0.918(1) 0.550(1) 0.8635(4)
Cl7? Cl 0.767(2) 0.743(2) 0.9029(4)
Cl8? Cl 0.768(2) 0.665(2) 0.8125(6)
Cl9? Cl 0.894(2) 0.574(2) 0.8847(6)
Cl10? Cl 0.708(2) 0.783(2) 0.8869(6)
loop_
_geom_bond_atom_site_label_1
_geom_bond_atom_site_label_2
_geom_bond_site_symmetry_1
_geom_bond_site_symmetry_2
C1 C2 1_555 1_555
C2 H1 1_555 1_555
H2 C2 1_555 1_555
H3 C2 1_555 1_555
C3 C1 1_555 1_555
H4 C3 1_555 1_555
H5 C3 1_555 1_555
H6 C3 1_555 1_555
O1 C1 1_555 1_555
O2 C1 1_555 1_555
C4 O1 1_555 1_555
H7 C4 1_555 1_555
C5 O2 1_555 1_555
H8 C5 1_555 1_555
C6 C4 1_555 1_555
C7 C6 1_555 1_555
C8 C7 1_555 1_555
H9 C8 1_555 1_555
C9 C8 1_555 1_555
H10 C9 1_555 1_555
C10 C9 1_555 1_555
H11 C10 1_555 1_555
C11 C10 1_555 1_555
H12 C11 1_555 1_555
C12 C7 1_555 1_555
H13 C12 1_555 1_555
C13 C6 1_555 1_555
C14 C13 1_555 1_555
H14 C14 1_555 1_555
C15 C14 1_555 1_555
H15 C15 1_555 1_555
C16 C15 1_555 1_555
H16 C16 1_555 1_555
C17 C16 1_555 1_555
H17 C17 1_555 1_555
C18 C13 1_555 1_555
H18 C18 1_555 1_555
O3 C6 1_555 1_555
C19 O3 1_555 1_555
H19 C19 1_555 1_555
H20 C19 1_555 1_555
H21 C19 1_555 1_555
C20 C5 1_555 1_555
C21 C20 1_555 1_555
C22 C21 1_555 1_555
H22 C22 1_555 1_555
C23 C22 1_555 1_555
H23 C23 1_555 1_555
C24 C23 1_555 1_555
H24 C24 1_555 1_555
C25 C24 1_555 1_555
H25 C25 1_555 1_555
C26 C21 1_555 1_555
H26 C26 1_555 1_555
C27 C20 1_555 1_555
C28 C27 1_555 1_555
H27 C28 1_555 1_555
C29 C28 1_555 1_555
H28 C29 1_555 1_555
C30 C29 1_555 1_555
H29 C30 1_555 1_555
C31 C30 1_555 1_555
H30 C31 1_555 1_555
C32 C27 1_555 1_555
H31 C32 1_555 1_555
O4 C20 1_555 1_555
C33 O4 1_555 1_555
H32 C33 1_555 1_555
H33 C33 1_555 1_555
H34 C33 1_555 1_555
C34 Cl1 1_555 1_555
Cl2 C34 1_555 1_555
Cl3 C34 1_555 1_555
Cl4 C34 1_555 1_555
C4 C5 1_555 1_555
C11 C12 1_555 1_555
C17 C18 1_555 1_555
C25 C26 1_555 1_555
C31 C32 1_555 1_555

#END
