
#######################################################################
#
#                 Cambridge Crystallographic Data Centre
#                                CCDC 
#
#######################################################################
#
# If this CIF has been generated from an entry in the Cambridge 
# Structural Database, then it will include bibliographic, chemical, 
# crystal, experimental, refinement or atomic coordinate data resulting 
# from the CCDC's data processing and validation procedures.
#
#######################################################################

data_JUQCUV
_chemical_formula_moiety         'C22 H20 I1 N1 O5'
_chemical_name_systematic        
'4-iodophenyl 3-(6-cyano-10-methoxy-5-oxo-3,4,5,6-tetrahydro-2H-1-benzoxocin-6-yl)propanoate'
_symmetry_cell_setting           monoclinic
_symmetry_space_group_name_H-M   'P 21'
_symmetry_Int_Tables_number      4
_space_group_name_Hall           'P 2yb'
loop_
_symmetry_equiv_pos_site_id
_symmetry_equiv_pos_as_xyz
1 x,y,z
2 -x,1/2+y,-z
_cell_length_a                   7.676(11)
_cell_length_b                   11.998(17)
_cell_length_c                   11.209(16)
_cell_angle_alpha                90
_cell_angle_beta                 96.903(11)
_cell_angle_gamma                90
_cell_volume                     1024.83
_exptl_crystal_colour            colorless
_exptl_crystal_description       block
_cell_formula_units_Z            2
loop_
_atom_site_label
_atom_site_type_symbol
_atom_site_fract_x
_atom_site_fract_y
_atom_site_fract_z
C1 C 0.5901(12) 0.5460(8) 0.7352(9)
C2 C 0.4598(11) 0.5609(10) 0.6382(7)
H1 H 0.4059 0.5002 0.5974
C3 C 0.4143(13) 0.6682(12) 0.6052(8)
H2 H 0.3272 0.6799 0.5413
C4 C 0.4920(12) 0.7573(9) 0.6629(8)
H3 H 0.4576 0.8290 0.6389
C5 C 0.6245(9) 0.7419(7) 0.7589(6)
C6 C 0.7088(11) 0.8407(6) 0.8284(6)
C7 C 0.9080(12) 0.8189(6) 0.8715(7)
C8 C 1.0224(9) 0.7655(6) 0.7910(7)
H4 H 1.1157 0.8162 0.7760
H5 H 0.9548 0.7475 0.7147
C9 C 1.0997(11) 0.6604(6) 0.8500(7)
H6 H 1.1915 0.6327 0.8056
H7 H 1.1517 0.6772 0.9312
C10 C 0.9607(9) 0.5723(6) 0.8536(7)
H8 H 0.9371 0.5375 0.7752
H9 H 1.0028 0.5152 0.9112
C11 C 0.6740(8) 0.6342(6) 0.7915(5)
C12 C 0.5589(15) 0.3455(8) 0.7288(10)
H10 H 0.4359 0.3521 0.7355
H11 H 0.6051 0.2811 0.7727
H12 H 0.5759 0.3377 0.6457
C13 C 0.7057(10) 0.9379(11) 0.7497(7)
C14 C 0.6360(12) 0.8669(7) 0.9491(8)
H13 H 0.6497 0.8013 0.9999
H14 H 0.7058 0.9261 0.9899
C15 C 0.4521(12) 0.9004(6) 0.9352(9)
H15 H 0.4076 0.8953 1.0124
H16 H 0.3850 0.8493 0.8805
C16 C 0.4249(18) 1.0220(7) 0.8858(10)
C17 C 0.2244(10) 1.1118(5) 0.7470(6)
C18 C 0.2702(9) 1.1341(5) 0.6353(6)
H17 H 0.3520 1.0897 0.6029
C19 C 0.1940(9) 1.2232(6) 0.5712(6)
H18 H 0.2234 1.2393 0.4950
C20 C 0.0739(8) 1.2879(5) 0.6212(6)
C21 C 0.0294(9) 1.2657(6) 0.7329(6)
H19 H -0.0526 1.3091 0.7664
C22 C 0.1095(12) 1.1771(8) 0.7943(8)
H20 H 0.0830 1.1620 0.8714
I1 I -0.04126(6) 1.42382(6) 0.52307(3)
N1 N 0.7038(10) 1.0140(7) 0.6896(7)
O1 O 0.6480(6) 0.4429(5) 0.7771(4)
O2 O 0.8023(6) 0.6199(3) 0.8868(4)
O3 O 0.9713(11) 0.8521(6) 0.9689(6)
O4 O 0.4947(8) 1.1091(7) 0.9151(5)
O5 O 0.2918(9) 1.0175(4) 0.8044(5)
loop_
_geom_bond_atom_site_label_1
_geom_bond_atom_site_label_2
_geom_bond_site_symmetry_1
_geom_bond_site_symmetry_2
C1 C2 1_555 1_555
C2 H1 1_555 1_555
C3 C2 1_555 1_555
H2 C3 1_555 1_555
C4 C3 1_555 1_555
H3 C4 1_555 1_555
C5 C4 1_555 1_555
C6 C5 1_555 1_555
C7 C6 1_555 1_555
C8 C7 1_555 1_555
H4 C8 1_555 1_555
H5 C8 1_555 1_555
C9 C8 1_555 1_555
H6 C9 1_555 1_555
H7 C9 1_555 1_555
C10 C9 1_555 1_555
H8 C10 1_555 1_555
H9 C10 1_555 1_555
C11 C1 1_555 1_555
C12 H10 1_555 1_555
H11 C12 1_555 1_555
H12 C12 1_555 1_555
C13 C6 1_555 1_555
C14 C6 1_555 1_555
H13 C14 1_555 1_555
H14 C14 1_555 1_555
C15 C14 1_555 1_555
H15 C15 1_555 1_555
H16 C15 1_555 1_555
C16 C15 1_555 1_555
C17 C18 1_555 1_555
C18 H17 1_555 1_555
C19 C18 1_555 1_555
H18 C19 1_555 1_555
C20 C19 1_555 1_555
C21 C20 1_555 1_555
H19 C21 1_555 1_555
C22 C17 1_555 1_555
H20 C22 1_555 1_555
I1 C20 1_555 1_555
N1 C13 1_555 1_555
O1 C1 1_555 1_555
O2 C10 1_555 1_555
O3 C7 1_555 1_555
O4 C16 1_555 1_555
O5 C16 1_555 1_555
C5 C11 1_555 1_555
C11 O2 1_555 1_555
C12 O1 1_555 1_555
C17 O5 1_555 1_555
C21 C22 1_555 1_555

#END
