
#######################################################################
#
#                 Cambridge Crystallographic Data Centre
#                                CCDC 
#
#######################################################################
#
# If this CIF has been generated from an entry in the Cambridge 
# Structural Database, then it will include bibliographic, chemical, 
# crystal, experimental, refinement or atomic coordinate data resulting 
# from the CCDC's data processing and validation procedures.
#
#######################################################################

data_JUQCED
_chemical_formula_moiety         'C16 H20 O7'
_chemical_name_systematic        
(3aR*,6aR*,9aR*,9bS*)-Spiro[(1',3'-dioxolane)-2',6-(decahydro-9a-methoxycarbonyl-9-oxoazuleno(4,5-c)furan-1(3H)-one)]
_symmetry_cell_setting           monoclinic
_symmetry_space_group_name_H-M   'P 21/c'
_symmetry_Int_Tables_number      14
_space_group_name_Hall           '-P 2ybc'
loop_
_symmetry_equiv_pos_site_id
_symmetry_equiv_pos_as_xyz
1 x,y,z
2 -x,1/2+y,1/2-z
3 -x,-y,-z
4 x,1/2-y,1/2+z
_cell_length_a                   9.597(1)
_cell_length_b                   12.564(1)
_cell_length_c                   13.077(1)
_cell_angle_alpha                90
_cell_angle_beta                 101.22
_cell_angle_gamma                90
_cell_volume                     1546.65
_exptl_crystal_colour            colorless
_exptl_crystal_description       prism
_cell_formula_units_Z            4
loop_
_atom_site_label
_atom_site_type_symbol
_atom_site_fract_x
_atom_site_fract_y
_atom_site_fract_z
O1 O 0.04534(13) 0.27265(10) 0.72694(11)
C1 C -0.00720(17) 0.19389(13) 0.75551(13)
O2 O 0.07203(13) 0.12071(10) 0.81506(10)
C2 C -0.01813(20) 0.03285(15) 0.83545(15)
H1 H 0.02929(20) -0.03392(15) 0.83177(15)
H2 H -0.04200(20) 0.04044(15) 0.90304(15)
C3 C -0.15129(17) 0.04006(12) 0.75123(13)
H3 H -0.14771(17) 0.00184(12) 0.68823(13)
C4 C -0.27990(19) -0.01016(14) 0.78416(14)
H4 H -0.25540(19) -0.08107(14) 0.80855(14)
H5 H -0.30222(19) 0.03184(14) 0.84016(14)
C5 C -0.41162(19) -0.01452(14) 0.69843(15)
H6 H -0.48601(19) -0.04873(14) 0.72577(15)
H7 H -0.38838(19) -0.05674(14) 0.64290(15)
O3 O -0.48165(12) 0.16787(10) 0.73113(9)
C6 C -0.61755(19) 0.14963(17) 0.75747(15)
H8 H -0.61151(19) 0.09521(17) 0.80969(15)
H9 H -0.65457(19) 0.21366(17) 0.78209(15)
C7 C -0.70709(20) 0.11266(19) 0.65652(17)
H10 H -0.75964(20) 0.17152(19) 0.62143(17)
H11 H -0.77181(20) 0.05780(19) 0.66825(17)
O4 O -0.61083(13) 0.07345(11) 0.59633(11)
C8 C -0.46902(18) 0.09236(13) 0.65205(13)
C9 C -0.38343(17) 0.14304(13) 0.57635(12)
H12 H -0.35965(17) 0.08235(13) 0.53856(12)
C10 C -0.46750(20) 0.22921(16) 0.50570(14)
H13 H -0.56687(20) 0.21205(16) 0.49178(14)
H14 H -0.43457(20) 0.23435(16) 0.44109(14)
C11 C -0.44212(21) 0.33438(16) 0.56573(16)
H15 H -0.52170(21) 0.35144(16) 0.59724(16)
H16 H -0.42659(21) 0.39117(16) 0.52012(16)
C12 C -0.31161(18) 0.31620(13) 0.64795(14)
O5 O -0.26418(14) 0.37530(10) 0.71869(11)
C13 C -0.24823(16) 0.20549(11) 0.63186(12)
C14 C -0.16179(16) 0.16039(11) 0.73393(12)
H17 H -0.21906(16) 0.19059(11) 0.77911(12)
C15 C -0.15856(18) 0.22120(12) 0.54846(12)
O6 O -0.15875(16) 0.30033(10) 0.49684(11)
O7 O -0.08437(13) 0.13374(9) 0.53645(9)
C16 C -0.00474(21) 0.13818(16) 0.45318(14)
H18 H 0.04511(21) 0.07234(16) 0.45028(14)
H19 H 0.06229(21) 0.19565(16) 0.46624(14)
H20 H -0.06862(21) 0.14983(16) 0.38794(14)
loop_
_geom_bond_atom_site_label_1
_geom_bond_atom_site_label_2
_geom_bond_site_symmetry_1
_geom_bond_site_symmetry_2
O1 C1 1_555 1_555
C1 O2 1_555 1_555
O2 C2 1_555 1_555
C2 H1 1_555 1_555
H2 C2 1_555 1_555
C3 C2 1_555 1_555
H3 C3 1_555 1_555
C4 C3 1_555 1_555
H4 C4 1_555 1_555
H5 C4 1_555 1_555
C5 C4 1_555 1_555
H6 C5 1_555 1_555
H7 C5 1_555 1_555
O3 C6 1_555 1_555
C6 H8 1_555 1_555
H9 C6 1_555 1_555
C7 C6 1_555 1_555
H10 C7 1_555 1_555
H11 C7 1_555 1_555
O4 C7 1_555 1_555
C8 C5 1_555 1_555
C9 C8 1_555 1_555
H12 C9 1_555 1_555
C10 C9 1_555 1_555
H13 C10 1_555 1_555
H14 C10 1_555 1_555
C11 C10 1_555 1_555
H15 C11 1_555 1_555
H16 C11 1_555 1_555
C12 C11 1_555 1_555
O5 C12 1_555 1_555
C13 C9 1_555 1_555
C14 C1 1_555 1_555
H17 C14 1_555 1_555
C15 C13 1_555 1_555
O6 C15 1_555 1_555
O7 C15 1_555 1_555
C16 O7 1_555 1_555
H18 C16 1_555 1_555
H19 C16 1_555 1_555
H20 C16 1_555 1_555
C3 C14 1_555 1_555
O3 C8 1_555 1_555
O4 C8 1_555 1_555
C12 C13 1_555 1_555
C13 C14 1_555 1_555

#END
