
#######################################################################
#
#                 Cambridge Crystallographic Data Centre
#                                CCDC 
#
#######################################################################
#
# If this CIF has been generated from an entry in the Cambridge 
# Structural Database, then it will include bibliographic, chemical, 
# crystal, experimental, refinement or atomic coordinate data resulting 
# from the CCDC's data processing and validation procedures.
#
#######################################################################

data_JUSKOZ
_chemical_formula_moiety         'C20 H40 N4 Si1'
_chemical_name_systematic        N,N',N'',N'''-tetracyclopentylsilanetetramine
_symmetry_cell_setting           tetragonal
_symmetry_space_group_name_H-M   'P -4'
_symmetry_Int_Tables_number      81
_space_group_name_Hall           'P -4'
loop_
_symmetry_equiv_pos_site_id
_symmetry_equiv_pos_as_xyz
1 x,y,z
2 -x,-y,z
3 y,-x,-z
4 -y,x,-z
_cell_length_a                   10.472(2)
_cell_length_b                   10.472(2)
_cell_length_c                   5.122(2)
_cell_angle_alpha                90
_cell_angle_beta                 90
_cell_angle_gamma                90
_cell_volume                     561.693
_cell_formula_units_Z            1
loop_
_atom_site_label
_atom_site_type_symbol
_atom_site_fract_x
_atom_site_fract_y
_atom_site_fract_z
C1 C 0.3443(2) 0.29105(18) 0.1396(4)
H1 H 0.3042 0.3154 -0.0259
C2 C 0.4019(3) 0.1594(2) 0.1041(8)
C3 C 0.1959(3) 0.1324(3) 0.2971(10)
C4 C 0.2380(2) 0.2696(2) 0.3384(6)
H2 H 0.2695 0.2820 0.5147
H3 H 0.1677 0.3281 0.3081
H4 H 0.4618 0.1400 0.2429
H5 H 0.4452 0.1525 -0.0626
C5 C 0.2863(7) 0.0716(6) 0.1155(16)
H6 H 0.2483 0.0626 -0.0562
H7 H 0.3107 -0.0122 0.1784
H8 H 0.1953 0.0871 0.4623
H9 H 0.1103 0.1303 0.2248
N1 N 0.43294(15) 0.39205(14) 0.2117(3)
H10 H 0.4713 0.3794 0.3642
Si1 Si 0.5000 0.5000 0.0000
C1A C 0.6557(2) 0.70895(18) 0.1396(4)
H1A H 0.6958 0.6846 -0.0259
C2A C 0.5981(3) 0.8406(2) 0.1041(8)
C3A C 0.8041(3) 0.8676(3) 0.2971(10)
C4A C 0.7620(2) 0.7304(2) 0.3384(6)
H2A H 0.7305 0.7180 0.5147
H3A H 0.8323 0.6719 0.3081
H4A H 0.5382 0.8600 0.2429
H5A H 0.5548 0.8475 -0.0626
C5A C 0.7137(7) 0.9284(6) 0.1155(16)
H6A H 0.7517 0.9374 -0.0562
H7A H 0.6893 1.0122 0.1784
H8A H 0.8047 0.9129 0.4623
H9A H 0.8897 0.8697 0.2248
N1A N 0.56706(15) 0.60795(14) 0.2117(3)
H10A H 0.5287 0.6206 0.3642
C1B C 0.29105(18) 0.6557(2) -0.1396(4)
H1B H 0.3154 0.6958 0.0259
C2B C 0.1594(2) 0.5981(3) -0.1041(8)
C3B C 0.1324(3) 0.8041(3) -0.2971(10)
C4B C 0.2696(2) 0.7620(2) -0.3384(6)
H2B H 0.2820 0.7305 -0.5147
H3B H 0.3281 0.8323 -0.3081
H4B H 0.1400 0.5382 -0.2429
H5B H 0.1525 0.5548 0.0626
C5B C 0.0716(6) 0.7137(7) -0.1155(16)
H6B H 0.0626 0.7517 0.0562
H7B H -0.0122 0.6893 -0.1784
H8B H 0.0871 0.8047 -0.4623
H9B H 0.1303 0.8897 -0.2248
N1B N 0.39205(14) 0.56706(15) -0.2117(3)
H10B H 0.3794 0.5287 -0.3642
C1C C 0.70895(18) 0.3443(2) -0.1396(4)
H1C H 0.6846 0.3042 0.0259
C2C C 0.8406(2) 0.4019(3) -0.1041(8)
C3C C 0.8676(3) 0.1959(3) -0.2971(10)
C4C C 0.7304(2) 0.2380(2) -0.3384(6)
H2C H 0.7180 0.2695 -0.5147
H3C H 0.6719 0.1677 -0.3081
H4C H 0.8600 0.4618 -0.2429
H5C H 0.8475 0.4452 0.0626
C5C C 0.9284(6) 0.2863(7) -0.1155(16)
H6C H 0.9374 0.2483 0.0562
H7C H 1.0122 0.3107 -0.1784
H8C H 0.9129 0.1953 -0.4623
H9C H 0.8697 0.1103 -0.2248
N1C N 0.60795(14) 0.43294(15) -0.2117(3)
H10C H 0.6206 0.4713 -0.3642
H11? H 0.4044 0.1375 -0.0798
H12? H 0.4884 0.1580 0.1714
C6? C 0.3208(10) 0.0657(10) 0.249(3)
H13? H 0.3607 0.0423 0.4135
H14? H 0.3079 -0.0110 0.1467
H15? H 0.1532 0.0988 0.4505
H16? H 0.1395 0.1249 0.1477
loop_
_geom_bond_atom_site_label_1
_geom_bond_atom_site_label_2
_geom_bond_site_symmetry_1
_geom_bond_site_symmetry_2
C1 H1 1_555 1_555
C2 C1 1_555 1_555
C3 C4 1_555 1_555
C4 C1 1_555 1_555
H2 C4 1_555 1_555
H3 C4 1_555 1_555
H4 C2 1_555 1_555
H5 C2 1_555 1_555
C5 C2 1_555 1_555
H6 C5 1_555 1_555
H7 C5 1_555 1_555
H8 C3 1_555 1_555
H9 C3 1_555 1_555
N1 C1 1_555 1_555
H10 N1 1_555 1_555
Si1 N1 1_555 1_555
C1A H1A 1_555 1_555
C2A C1A 1_555 1_555
C3A C4A 1_555 1_555
C4A C1A 1_555 1_555
H2A C4A 1_555 1_555
H3A C4A 1_555 1_555
H4A C2A 1_555 1_555
H5A C2A 1_555 1_555
C5A C2A 1_555 1_555
H6A C5A 1_555 1_555
H7A C5A 1_555 1_555
H8A C3A 1_555 1_555
H9A C3A 1_555 1_555
N1A Si1 1_555 1_555
H10A N1A 1_555 1_555
C1B H1B 1_555 1_555
C2B C1B 1_555 1_555
C3B C4B 1_555 1_555
C4B C1B 1_555 1_555
H2B C4B 1_555 1_555
H3B C4B 1_555 1_555
H4B C2B 1_555 1_555
H5B C2B 1_555 1_555
C5B C2B 1_555 1_555
H6B C5B 1_555 1_555
H7B C5B 1_555 1_555
H8B C3B 1_555 1_555
H9B C3B 1_555 1_555
N1B Si1 1_555 1_555
H10B N1B 1_555 1_555
C1C H1C 1_555 1_555
C2C C1C 1_555 1_555
C3C C4C 1_555 1_555
C4C C1C 1_555 1_555
H2C C4C 1_555 1_555
H3C C4C 1_555 1_555
H4C C2C 1_555 1_555
H5C C2C 1_555 1_555
C5C C2C 1_555 1_555
H6C C5C 1_555 1_555
H7C C5C 1_555 1_555
H8C C3C 1_555 1_555
H9C C3C 1_555 1_555
N1C Si1 1_555 1_555
H10C N1C 1_555 1_555
C3 C5 1_555 1_555
C1A N1A 1_555 1_555
C3A C5A 1_555 1_555
C1B N1B 1_555 1_555
C3B C5B 1_555 1_555
C1C N1C 1_555 1_555
C3C C5C 1_555 1_555

#END
