
#######################################################################
#
#                 Cambridge Crystallographic Data Centre
#                                CCDC 
#
#######################################################################
#
# If this CIF has been generated from an entry in the Cambridge 
# Structural Database, then it will include bibliographic, chemical, 
# crystal, experimental, refinement or atomic coordinate data resulting 
# from the CCDC's data processing and validation procedures.
#
#######################################################################

data_JUSPEU
_chemical_formula_moiety         'C48 H66 S3 Si2'
_chemical_name_systematic        
((2,9-Di-t-butylthiochromeno[2',3':4,5]thieno[3,2-b]thiochromene-11,13-diyl)diethyne-2,1-diyl)bis(tri-isopropylsilane)
_symmetry_cell_setting           triclinic
_symmetry_space_group_name_H-M   'P -1'
_symmetry_Int_Tables_number      2
_space_group_name_Hall           '-P 1'
loop_
_symmetry_equiv_pos_site_id
_symmetry_equiv_pos_as_xyz
1 x,y,z
2 -x,-y,-z
_cell_length_a                   9.8336(6)
_cell_length_b                   14.2701(9)
_cell_length_c                   16.3902(10)
_cell_angle_alpha                83.637(2)
_cell_angle_beta                 85.505(2)
_cell_angle_gamma                83.306(2)
_cell_volume                     2265.23
_exptl_crystal_colour            red
_exptl_crystal_description       'Thin Plate'
_cell_formula_units_Z            2
_chemical_properties_physical    
'Air-sensitive, Oxygen-sensitive, Light-sensitive, Photo-sensitive'
_exptl_crystal_preparation       'Magnetic properties'
loop_
_atom_site_label
_atom_site_type_symbol
_atom_site_fract_x
_atom_site_fract_y
_atom_site_fract_z
Si1 Si 0.73554(7) 0.94179(5) 0.67093(4)
Si2 Si 0.79565(6) 0.72909(5) 0.24976(4)
S1 S 0.50285(6) 0.70971(4) 0.52261(4)
S2 S 0.17279(7) 0.61002(5) 0.68454(4)
S3 S 0.20833(6) 0.51228(4) 0.51343(3)
C1 C 0.4190(2) 0.62781(15) 0.47837(14)
C2 C 0.3115(2) 0.59621(16) 0.53434(14)
C3 C 0.2970(2) 0.63684(16) 0.60663(14)
C4 C 0.3931(2) 0.70277(16) 0.61225(14)
C5 C 0.3994(2) 0.75467(16) 0.67754(15)
C6 C 0.3032(2) 0.74475(17) 0.75099(14)
C7 C 0.2017(2) 0.68320(17) 0.75931(15)
C8 C 0.1161(3) 0.67492(19) 0.83088(16)
H1 H 0.0465 0.6334 0.8353
C9 C 0.1312(3) 0.72624(19) 0.89559(16)
H2 H 0.0727 0.7191 0.9443
C10 C 0.2314(2) 0.78823(17) 0.88999(15)
C11 C 0.3141(2) 0.79734(17) 0.81759(15)
H3 H 0.3810 0.8409 0.8127
C12 C 0.4514(2) 0.60136(16) 0.40042(14)
C13 C 0.3714(2) 0.53594(15) 0.36601(14)
C14 C 0.4030(2) 0.51345(16) 0.28486(14)
H4 H 0.4801 0.5379 0.2549
C15 C 0.3269(2) 0.45714(16) 0.24646(14)
C16 C 0.2148(2) 0.42148(17) 0.29248(15)
H5 H 0.1602 0.3831 0.2679
C17 C 0.1818(2) 0.44078(17) 0.37252(15)
H6 H 0.1054 0.4155 0.4024
C18 C 0.2601(2) 0.49737(16) 0.41012(14)
C19 C 0.2508(3) 0.84034(18) 0.96497(15)
C20 C 0.3613(3) 0.9088(2) 0.94659(17)
H7 H 0.3354 0.9559 0.9007
H8 H 0.4495 0.8731 0.9319
H9 H 0.3694 0.9411 0.9954
C21 C 0.2937(3) 0.7657(2) 1.03552(17)
H10 H 0.3045 0.7973 1.0844
H11 H 0.3810 0.7300 1.0193
H12 H 0.2230 0.7222 1.0480
C22 C 0.1156(3) 0.8971(2) 0.99115(18)
H13 H 0.0902 0.9469 0.9472
H14 H 0.1267 0.9260 1.0414
H15 H 0.0433 0.8546 1.0016
C23 C 0.3572(2) 0.43727(17) 0.15638(14)
C24 C 0.5004(3) 0.46054(19) 0.12347(15)
H16 H 0.5050 0.5289 0.1220
H17 H 0.5193 0.4412 0.0678
H18 H 0.5687 0.4264 0.1595
C25 C 0.2505(3) 0.49876(19) 0.10434(16)
H19 H 0.1585 0.4822 0.1233
H20 H 0.2692 0.4874 0.0464
H21 H 0.2557 0.5659 0.1101
C26 C 0.3463(3) 0.33276(17) 0.14718(15)
H22 H 0.4069 0.2925 0.1845
H23 H 0.3735 0.3200 0.0903
H24 H 0.2513 0.3190 0.1608
C27 C 0.5024(2) 0.81719(17) 0.67511(14)
C28 C 0.5909(2) 0.86937(17) 0.67481(15)
C29 C 0.7410(3) 0.98636(18) 0.77454(16)
H25 H 0.8183 1.0267 0.7707
C30 C 0.6083(3) 1.0495(2) 0.79545(17)
H26 H 0.5294 1.0139 0.7940
H27 H 0.6000 1.1057 0.7551
H28 H 0.6109 1.0694 0.8506
C31 C 0.7684(3) 0.9066(2) 0.84328(17)
H29 H 0.7714 0.9338 0.8954
H30 H 0.8566 0.8698 0.8306
H31 H 0.6950 0.8651 0.8480
C32 C 0.8934(3) 0.85731(19) 0.64985(16)
H32 H 0.8942 0.8057 0.6964
C33 C 1.0273(3) 0.9025(2) 0.6518(2)
H33 H 1.1058 0.8555 0.6414
H34 H 1.0321 0.9246 0.7060
H35 H 1.0294 0.9565 0.6093
C34 C 0.8926(3) 0.8085(2) 0.57161(17)
H36 H 0.9003 0.8553 0.5235
H37 H 0.8066 0.7800 0.5718
H38 H 0.9702 0.7590 0.5693
C35 C 0.6964(3) 1.04644(18) 0.59201(16)
H39 H 0.6027 1.0758 0.6092
C36 C 0.7912(3) 1.1248(2) 0.5909(2)
H40 H 0.8854 1.1000 0.5748
H41 H 0.7879 1.1462 0.6459
H42 H 0.7606 1.1784 0.5514
C37 C 0.6864(3) 1.0194(2) 0.50582(17)
H43 H 0.6473 1.0747 0.4710
H44 H 0.6273 0.9683 0.5081
H45 H 0.7782 0.9978 0.4827
C38 C 0.5594(2) 0.64150(16) 0.35071(14)
C39 C 0.6505(2) 0.67652(17) 0.30852(15)
C40 C 0.9546(2) 0.67392(17) 0.30130(15)
H46 H 0.9513 0.6037 0.3063
C41 C 0.9572(3) 0.70101(18) 0.38863(15)
H47 H 1.0331 0.6627 0.4160
H48 H 0.8703 0.6894 0.4195
H49 H 0.9699 0.7684 0.3865
C42 C 1.0881(3) 0.6932(2) 0.25089(17)
H50 H 1.0975 0.7612 0.2460
H51 H 1.0861 0.6726 0.1959
H52 H 1.1662 0.6580 0.2785
C43 C 0.7586(2) 0.86179(17) 0.24865(15)
H53 H 0.6787 0.8805 0.2139
C44 C 0.7140(3) 0.89677(19) 0.33224(17)
H54 H 0.7928 0.8885 0.3664
H55 H 0.6417 0.8602 0.3593
H56 H 0.6788 0.9641 0.3247
C45 C 0.8754(3) 0.91511(19) 0.20666(19)
H57 H 0.8453 0.9833 0.2003
H58 H 0.9010 0.8932 0.1524
H59 H 0.9549 0.9030 0.2404
C46 C 0.8023(3) 0.6970(2) 0.14116(16)
H60 H 0.8795 0.7276 0.1095
C47 C 0.8321(3) 0.5896(2) 0.13702(18)
H61 H 0.7582 0.5576 0.1678
H62 H 0.9195 0.5667 0.1611
H63 H 0.8375 0.5760 0.0795
C48 C 0.6695(4) 0.7351(3) 0.0988(2)
H64 H 0.6757 0.7154 0.0431
H65 H 0.6573 0.8046 0.0957
H66 H 0.5909 0.7097 0.1306
loop_
_geom_bond_atom_site_label_1
_geom_bond_atom_site_label_2
_geom_bond_site_symmetry_1
_geom_bond_site_symmetry_2
Si1 C28 1_555 1_555
Si2 C39 1_555 1_555
S1 C1 1_555 1_555
S2 C3 1_555 1_555
S3 C2 1_555 1_555
C1 C2 1_555 1_555
C2 C3 1_555 1_555
C3 C4 1_555 1_555
C4 S1 1_555 1_555
C5 C4 1_555 1_555
C6 C5 1_555 1_555
C7 S2 1_555 1_555
C8 C7 1_555 1_555
H1 C8 1_555 1_555
C9 C8 1_555 1_555
H2 C9 1_555 1_555
C10 C9 1_555 1_555
C11 C6 1_555 1_555
H3 C11 1_555 1_555
C12 C1 1_555 1_555
C13 C12 1_555 1_555
C14 C13 1_555 1_555
H4 C14 1_555 1_555
C15 C14 1_555 1_555
C16 C15 1_555 1_555
H5 C16 1_555 1_555
C17 C16 1_555 1_555
H6 C17 1_555 1_555
C18 S3 1_555 1_555
C19 C10 1_555 1_555
C20 C19 1_555 1_555
H7 C20 1_555 1_555
H8 C20 1_555 1_555
H9 C20 1_555 1_555
C21 C19 1_555 1_555
H10 C21 1_555 1_555
H11 C21 1_555 1_555
H12 C21 1_555 1_555
C22 C19 1_555 1_555
H13 C22 1_555 1_555
H14 C22 1_555 1_555
H15 C22 1_555 1_555
C23 C15 1_555 1_555
C24 C23 1_555 1_555
H16 C24 1_555 1_555
H17 C24 1_555 1_555
H18 C24 1_555 1_555
C25 C23 1_555 1_555
H19 C25 1_555 1_555
H20 C25 1_555 1_555
H21 C25 1_555 1_555
C26 C23 1_555 1_555
H22 C26 1_555 1_555
H23 C26 1_555 1_555
H24 C26 1_555 1_555
C27 C5 1_555 1_555
C28 C27 1_555 1_555
C29 Si1 1_555 1_555
H25 C29 1_555 1_555
C30 C29 1_555 1_555
H26 C30 1_555 1_555
H27 C30 1_555 1_555
H28 C30 1_555 1_555
C31 C29 1_555 1_555
H29 C31 1_555 1_555
H30 C31 1_555 1_555
H31 C31 1_555 1_555
C32 Si1 1_555 1_555
H32 C32 1_555 1_555
C33 C32 1_555 1_555
H33 C33 1_555 1_555
H34 C33 1_555 1_555
H35 C33 1_555 1_555
C34 C32 1_555 1_555
H36 C34 1_555 1_555
H37 C34 1_555 1_555
H38 C34 1_555 1_555
C35 Si1 1_555 1_555
H39 C35 1_555 1_555
C36 C35 1_555 1_555
H40 C36 1_555 1_555
H41 C36 1_555 1_555
H42 C36 1_555 1_555
C37 C35 1_555 1_555
H43 C37 1_555 1_555
H44 C37 1_555 1_555
H45 C37 1_555 1_555
C38 C12 1_555 1_555
C39 C38 1_555 1_555
C40 Si2 1_555 1_555
H46 C40 1_555 1_555
C41 C40 1_555 1_555
H47 C41 1_555 1_555
H48 C41 1_555 1_555
H49 C41 1_555 1_555
C42 C40 1_555 1_555
H50 C42 1_555 1_555
H51 C42 1_555 1_555
H52 C42 1_555 1_555
C43 Si2 1_555 1_555
H53 C43 1_555 1_555
C44 C43 1_555 1_555
H54 C44 1_555 1_555
H55 C44 1_555 1_555
H56 C44 1_555 1_555
C45 C43 1_555 1_555
H57 C45 1_555 1_555
H58 C45 1_555 1_555
H59 C45 1_555 1_555
C46 Si2 1_555 1_555
H60 C46 1_555 1_555
C47 C46 1_555 1_555
H61 C47 1_555 1_555
H62 C47 1_555 1_555
H63 C47 1_555 1_555
C48 C46 1_555 1_555
H64 C48 1_555 1_555
H65 C48 1_555 1_555
H66 C48 1_555 1_555
C6 C7 1_555 1_555
C10 C11 1_555 1_555
C13 C18 1_555 1_555
C17 C18 1_555 1_555

#END
