
#######################################################################
#
#                 Cambridge Crystallographic Data Centre
#                                CCDC 
#
#######################################################################
#
# If this CIF has been generated from an entry in the Cambridge 
# Structural Database, then it will include bibliographic, chemical, 
# crystal, experimental, refinement or atomic coordinate data resulting 
# from the CCDC's data processing and validation procedures.
#
#######################################################################

data_JUSPOE
_chemical_formula_moiety         'C52 H66 S5 Si2'
_chemical_name_systematic        
((2,10-Di-t-butylthiochromeno[2''',3''':4'',5'']thieno[2'',3'':4',5']thieno[2',3':4,5]thieno[3,2-b]thiochromene-12,15-diyl)diethyne-2,1-diyl)bis(tri-isopropylsilane)
_symmetry_cell_setting           triclinic
_symmetry_space_group_name_H-M   'P -1'
_symmetry_Int_Tables_number      2
_space_group_name_Hall           '-P 1'
loop_
_symmetry_equiv_pos_site_id
_symmetry_equiv_pos_as_xyz
1 x,y,z
2 -x,-y,-z
_cell_length_a                   14.9964(4)
_cell_length_b                   18.3543(5)
_cell_length_c                   19.3746(5)
_cell_angle_alpha                96.6629(12)
_cell_angle_beta                 99.0302(12)
_cell_angle_gamma                98.7364(11)
_cell_volume                     5151.91
_exptl_crystal_colour            'dark yellow'
_exptl_crystal_description       'prism fragment'
_cell_formula_units_Z            4
_chemical_properties_physical    
'Air-sensitive, Oxygen-sensitive, Light-sensitive, Photo-sensitive'
_exptl_crystal_preparation       'Magnetic properties'
loop_
_atom_site_label
_atom_site_type_symbol
_atom_site_fract_x
_atom_site_fract_y
_atom_site_fract_z
Si1 Si 0.33622(4) 0.36251(3) 0.86418(3)
Si2 Si -0.02306(4) 0.28908(3) 0.34440(3)
S1 S 0.10159(3) 0.16613(3) 0.71361(3)
S2 S -0.02861(3) 0.13667(3) 0.52272(3)
S3 S 0.02626(4) -0.01832(3) 0.82426(3)
S4 S -0.07432(3) -0.04054(3) 0.64079(3)
S5 S -0.19595(3) -0.08103(3) 0.46006(3)
C1 C 0.10388(13) 0.11429(11) 0.78465(11)
C2 C 0.15713(14) 0.14106(12) 0.84972(11)
C3 C 0.15392(14) 0.09819(12) 0.90909(11)
C4 C 0.20985(14) 0.12574(12) 0.97481(11)
H1 H 0.2499 0.1721 0.9796
C5 C 0.20947(17) 0.08838(13) 1.03334(12)
C6 C 0.14830(18) 0.02164(14) 1.02551(13)
H2 H 0.1446 -0.0043 1.0649
C7 C 0.09281(17) -0.00743(13) 0.96135(13)
H3 H 0.0518 -0.0532 0.9572
C8 C 0.09616(15) 0.02929(12) 0.90320(11)
C9 C 0.04446(13) 0.04371(11) 0.76486(11)
C10 C 0.00352(13) 0.03281(11) 0.69491(11)
C11 C -0.07694(13) 0.01194(11) 0.57080(11)
C12 C -0.12426(13) 0.00042(11) 0.50244(10)
C13 C -0.23999(13) -0.05567(12) 0.37811(11)
C14 C -0.30321(14) -0.11111(12) 0.33301(11)
H4 H -0.3195 -0.1582 0.3477
C15 C -0.34249(14) -0.09836(13) 0.26704(11)
H5 H -0.3853 -0.1370 0.2370
C16 C -0.32060(14) -0.02983(13) 0.24364(11)
C17 C -0.25635(14) 0.02477(13) 0.28905(11)
H6 H -0.2401 0.0716 0.2738
C18 C -0.21454(13) 0.01384(12) 0.35615(11)
C19 C -0.14741(13) 0.07304(12) 0.40117(11)
C20 C -0.10780(13) 0.06443(11) 0.46808(11)
C21 C -0.01998(13) 0.08307(11) 0.59047(11)
C22 C 0.02586(13) 0.09391(11) 0.65883(11)
C23 C 0.2760(2) 0.12023(14) 1.10223(13)
C24 C 0.2612(2) 0.19887(16) 1.12672(15)
H7 H 0.2693 0.2298 1.0895
H8 H 0.3058 0.2203 1.1695
H9 H 0.1990 0.1970 1.1369
C25 C 0.3742(2) 0.12391(19) 1.08745(17)
H10 H 0.3841 0.1577 1.0527
H11 H 0.3830 0.0740 1.0689
H12 H 0.4180 0.1424 1.1314
C26 C 0.2650(3) 0.07171(18) 1.16018(16)
H13 H 0.3095 0.0936 1.2029
H14 H 0.2756 0.0216 1.1443
H15 H 0.2027 0.0688 1.1706
C27 C -0.37004(15) -0.01315(15) 0.17318(12)
C28 C -0.40697(18) -0.08496(16) 0.12071(13)
H16 H -0.3572 -0.1131 0.1160
H17 H -0.4314 -0.0721 0.0746
H18 H -0.4559 -0.1154 0.1381
C29 C -0.45119(18) 0.02420(18) 0.18780(14)
H19 H -0.4941 -0.0101 0.2073
H20 H -0.4826 0.0369 0.1437
H21 H -0.4288 0.0696 0.2218
C30 C -0.30598(18) 0.03851(16) 0.13855(13)
H22 H -0.2875 0.0870 0.1684
H23 H -0.3380 0.0450 0.0921
H24 H -0.2515 0.0166 0.1329
C31 C 0.21367(14) 0.21240(12) 0.85847(11)
C32 C 0.26107(15) 0.27285(12) 0.86206(11)
C33 C 0.45103(15) 0.35289(13) 0.91547(13)
H25 H 0.4684 0.3069 0.8921
C34 C 0.52824(17) 0.41750(16) 0.91408(16)
H26 H 0.5155 0.4634 0.9389
H27 H 0.5320 0.4238 0.8650
H28 H 0.5866 0.4067 0.9375
C35 C 0.44453(17) 0.34061(16) 0.99153(14)
H29 H 0.5036 0.3313 1.0152
H30 H 0.3968 0.2976 0.9911
H31 H 0.4291 0.3851 1.0168
C36 C 0.28559(17) 0.43933(14) 0.90910(14)
H32 H 0.3074 0.4422 0.9610
C37 C 0.18013(19) 0.42482(17) 0.89730(17)
H33 H 0.1591 0.4644 0.9256
H34 H 0.1585 0.3767 0.9115
H35 H 0.1557 0.4242 0.8472
C38 C 0.3208(2) 0.51609(15) 0.88918(17)
H36 H 0.2986 0.5166 0.8389
H37 H 0.3879 0.5257 0.8986
H38 H 0.2980 0.5548 0.9173
C39 C 0.34521(17) 0.37446(14) 0.77001(13)
H39 H 0.3829 0.4245 0.7706
C40 C 0.3943(2) 0.31577(17) 0.73685(15)
H40 H 0.3602 0.2659 0.7375
H41 H 0.4564 0.3207 0.7639
H42 H 0.3977 0.3231 0.6880
C41 C 0.2510(2) 0.37246(17) 0.72422(14)
H43 H 0.2587 0.3782 0.6757
H44 H 0.2226 0.4132 0.7435
H45 H 0.2116 0.3247 0.7243
C42 C -0.11848(14) 0.14259(12) 0.37829(11)
C43 C -0.08475(15) 0.20309(13) 0.36726(12)
C44 C 0.08689(17) 0.31846(14) 0.41147(14)
H46 H 0.0683 0.3372 0.4567
C45 C 0.1495(2) 0.38421(16) 0.39228(18)
H47 H 0.2008 0.4026 0.4314
H48 H 0.1146 0.4242 0.3834
H49 H 0.1731 0.3679 0.3498
C46 C 0.14067(17) 0.25597(16) 0.42803(16)
H50 H 0.1683 0.2404 0.3874
H51 H 0.0990 0.2135 0.4379
H52 H 0.1890 0.2741 0.4694
C47 C -0.09899(18) 0.36211(15) 0.34927(14)
H53 H -0.1635 0.3350 0.3339
C48 C -0.0928(3) 0.3999(2) 0.42480(18)
H54 H -0.0302 0.4265 0.4428
H55 H -0.1086 0.3621 0.4548
H56 H -0.1357 0.4352 0.4253
C49 C -0.0845(2) 0.41992(16) 0.29855(18)
H57 H -0.1270 0.4551 0.3030
H58 H -0.0960 0.3944 0.2499
H59 H -0.0213 0.4470 0.3105
C50 C -0.00731(19) 0.26285(15) 0.25035(14)
H60 H 0.0116 0.3099 0.2310
C51 C 0.0671(2) 0.21436(15) 0.24452(15)
H61 H 0.0540 0.1708 0.2684
H62 H 0.1271 0.2435 0.2668
H63 H 0.0676 0.1980 0.1946
C52 C -0.0987(2) 0.22297(17) 0.20548(14)
H64 H -0.0913 0.2126 0.1561
H65 H -0.1452 0.2548 0.2088
H66 H -0.1181 0.1760 0.2228
Si3 Si 0.57159(5) 1.30933(4) 0.34732(4)
S6 S 0.40883(3) 0.86380(3) 0.28138(3)
S7 S 0.54762(3) 1.05149(3) 0.38496(3)
S8 S 0.43834(4) 0.68129(3) 0.40009(3)
S9 S 0.56777(3) 0.85759(3) 0.48041(3)
S10 S 0.69611(3) 1.02354(3) 0.58698(2)
C53 C 0.39351(13) 0.77099(12) 0.29817(11)
C54 C 0.34093(13) 0.71311(12) 0.24988(11)
C55 C 0.33660(14) 0.63565(12) 0.26372(11)
C56 C 0.28904(15) 0.57745(12) 0.21110(12)
H67 H 0.2600 0.5897 0.1678
C57 C 0.32470(16) 0.48600(13) 0.28417(14)
H68 H 0.3205 0.4355 0.2920
C58 C 0.37247(16) 0.54197(13) 0.33680(13)
H69 H 0.4012 0.5294 0.3801
C59 C 0.37898(14) 0.61630(12) 0.32718(12)
C60 C 0.44418(13) 0.76439(12) 0.36513(11)
C61 C 0.49285(13) 0.83161(12) 0.39939(11)
C62 C 0.58164(13) 0.95032(11) 0.46489(11)
C63 C 0.63211(12) 1.01555(11) 0.50293(10)
C64 C 0.75066(13) 1.11767(11) 0.60120(10)
C65 C 0.81360(13) 1.13866(12) 0.66400(11)
H70 H 0.8237 1.1033 0.6953
C66 C 0.86149(13) 1.21084(12) 0.68102(11)
H71 H 0.9047 1.2242 0.7238
C67 C 0.84771(13) 1.26435(12) 0.63682(11)
C68 C 0.78304(13) 1.24282(12) 0.57513(11)
H72 H 0.7721 1.2789 0.5448
C69 C 0.73299(13) 1.16990(11) 0.55560(11)
C70 C 0.66615(13) 1.15062(12) 0.48944(11)
C71 C 0.62315(12) 1.07787(11) 0.46666(10)
C72 C 0.53095(13) 0.95890(11) 0.39905(10)
C73 C 0.48149(13) 0.89289(12) 0.36261(11)
C74 C 0.28262(15) 0.50258(13) 0.21974(13)
C75 C 0.2380(4) 0.4407(2) 0.1574(2)
C76 C 0.1819(4) 0.4696(2) 0.0969(2)
H73 H 0.2226 0.5049 0.0765
H74 H 0.1353 0.4948 0.1149
H75 H 0.1520 0.4278 0.0604
C77 C 0.3126(3) 0.4053(2) 0.1279(3)
H76 H 0.3468 0.3828 0.1648
H77 H 0.3547 0.4436 0.1121
H78 H 0.2844 0.3667 0.0879
C78 C 0.1745(3) 0.3813(3) 0.1835(2)
H79 H 0.1441 0.3431 0.1438
H80 H 0.1282 0.4042 0.2044
H81 H 0.2103 0.3584 0.2191
C79 C 0.90750(14) 1.34231(12) 0.65382(12)
C80 C 0.99364(16) 1.33937(14) 0.62076(16)
H82 H 1.0294 1.3051 0.6430
H83 H 1.0309 1.3893 0.6282
H84 H 0.9756 1.3218 0.5700
C81 C 0.9365(2) 1.36596(15) 0.73388(14)
H85 H 0.8820 1.3621 0.7561
H86 H 0.9691 1.4176 0.7433
H87 H 0.9770 1.3333 0.7533
C82 C 0.85628(16) 1.40133(13) 0.62417(14)
H88 H 0.8389 1.3886 0.5728
H89 H 0.8962 1.4502 0.6358
H90 H 0.8010 1.4029 0.6450
C83 C 0.29308(14) 0.72812(12) 0.18518(11)
C84 C 0.25140(15) 0.73913(13) 0.12984(12)
C85 C 0.1448(2) 0.64988(14) -0.00137(14)
H91 H 0.1977 0.6228 0.0066
C86 C 0.1138(3) 0.64118(17) -0.08150(16)
H92 H 0.0986 0.5881 -0.1007
H93 H 0.1633 0.6654 -0.1029
H94 H 0.0595 0.6645 -0.0921
C87 C 0.0704(2) 0.61089(18) 0.03427(19)
H95 H 0.0146 0.6324 0.0242
H96 H 0.0920 0.6177 0.0854
H97 H 0.0570 0.5576 0.0160
C88 C 0.27494(17) 0.79974(15) -0.00325(13)
H98 H 0.2422 0.8081 -0.0500
C89 C 0.3494(2) 0.7539(2) -0.01658(18)
H99 H 0.3928 0.7814 -0.0412
H100 H 0.3211 0.7063 -0.0457
H101 H 0.3820 0.7446 0.0286
C90 C 0.3199(2) 0.87595(17) 0.03888(16)
H102 H 0.3451 0.8697 0.0872
H103 H 0.2739 0.9085 0.0400
H104 H 0.3693 0.8983 0.0163
Si4 Si 0.18837(4) 0.74897(3) 0.04295(3)
C91 C 0.0995(2) 0.8112(2) 0.0554(2)
H105 H 0.1294 0.8639 0.0561
C92 C 0.0154(4) 0.7936(5) -0.0042(3)
H106 H -0.0196 0.7445 -0.0022
H107 H 0.0357 0.7936 -0.0499
H108 H -0.0234 0.8315 0.0014
C93 C 0.0658(4) 0.8057(4) 0.1264(2)
H109 H 0.0255 0.8422 0.1334
H110 H 0.1187 0.8160 0.1650
H111 H 0.0320 0.7555 0.1256
C94 C 0.64359(14) 1.20603(12) 0.44713(11)
C95 C 0.61721(16) 1.24794(13) 0.40819(13)
C96 C 0.5746(2) 1.2608(2) 0.25246(18)
H112 H 0.5316 1.2124 0.2477
C97 C 0.6563(5) 1.2400(5) 0.2446(5)
H113 H 0.6509 1.2126 0.1972
H114 H 0.6731 1.2081 0.2800
H115 H 0.7038 1.2845 0.2510
C98 C 0.5302(3) 1.3006(4) 0.1938(3)
H116 H 0.5630 1.3519 0.1990
H117 H 0.4659 1.3011 0.1976
H118 H 0.5336 1.2742 0.1476
C99 C 0.44575(17) 1.30493(16) 0.34920(14)
H119 H 0.4210 1.3329 0.3113
C100 C 0.3944(2) 1.22430(19) 0.33078(17)
H120 H 0.4168 1.1950 0.3669
H121 H 0.4049 1.2028 0.2847
H122 H 0.3286 1.2236 0.3290
C101 C 0.4239(2) 1.34048(19) 0.41788(17)
H123 H 0.3573 1.3330 0.4153
H124 H 0.4485 1.3939 0.4255
H125 H 0.4517 1.3174 0.4571
C102 C 0.6404(5) 1.4006(3) 0.3699(3)
H126 H 0.6992 1.3973 0.3524
C103 C 0.5990(6) 1.4621(4) 0.3343(4)
H127 H 0.5398 1.4661 0.3485
H128 H 0.5902 1.4494 0.2829
H129 H 0.6408 1.5098 0.3492
C104 C 0.6659(5) 1.4261(4) 0.4494(3)
H130 H 0.7082 1.4738 0.4585
H131 H 0.6957 1.3888 0.4721
H132 H 0.6104 1.4320 0.4687
C105? C 0.2164(4) 0.4416(4) 0.1662(4)
C106? C 0.1170(4) 0.4521(4) 0.1626(5)
H133? H 0.1096 0.4999 0.1465
H134? H 0.1005 0.4516 0.2095
H135? H 0.0769 0.4116 0.1293
C107? C 0.2452(6) 0.4498(5) 0.0950(4)
H136? H 0.3100 0.4457 0.0982
H137? H 0.2360 0.4986 0.0821
H138? H 0.2080 0.4104 0.0589
C108? C 0.2260(7) 0.3649(3) 0.1852(5)
H139? H 0.1907 0.3268 0.1470
H140? H 0.2027 0.3586 0.2290
H141? H 0.2908 0.3597 0.1917
C109? C 0.0820(5) 0.7841(6) 0.0645(6)
H142? H 0.0448 0.7419 0.0811
C110? C 0.0203(8) 0.8037(9) 0.0013(7)
H143? H -0.0339 0.8197 0.0165
H144? H 0.0011 0.7599 -0.0350
H145? H 0.0541 0.8442 -0.0181
C111? C 0.1044(10) 0.8480(6) 0.1263(7)
H146? H 0.1520 0.8868 0.1173
H147? H 0.1263 0.8291 0.1700
H148? H 0.0490 0.8691 0.1312
C112? C 0.6150(8) 1.3006(7) 0.2650(5)
H149? H 0.6600 1.3483 0.2764
C113? C 0.6747(5) 1.2577(5) 0.2425(5)
H150? H 0.6436 1.2230 0.2003
H151? H 0.6962 1.2296 0.2799
H152? H 0.7272 1.2899 0.2311
C114? C 0.5506(9) 1.3257(7) 0.2055(7)
H153? H 0.5295 1.3708 0.2241
H154? H 0.4976 1.2861 0.1876
H155? H 0.5837 1.3363 0.1670
C115? C 0.6427(12) 1.4187(8) 0.3952(7)
H156? H 0.7073 1.4220 0.3868
C116? C 0.6024(19) 1.4803(11) 0.3587(9)
H157? H 0.6106 1.5254 0.3930
H158? H 0.5369 1.4631 0.3404
H159? H 0.6342 1.4912 0.3196
C117? C 0.6482(14) 1.4380(9) 0.4747(7)
H160? H 0.6937 1.4833 0.4924
H161? H 0.6664 1.3967 0.4983
H162? H 0.5881 1.4463 0.4845
loop_
_geom_bond_atom_site_label_1
_geom_bond_atom_site_label_2
_geom_bond_site_symmetry_1
_geom_bond_site_symmetry_2
Si1 C32 1_555 1_555
Si2 C43 1_555 1_555
S1 C1 1_555 1_555
S2 C20 1_555 1_555
S3 C8 1_555 1_555
S4 C10 1_555 1_555
S5 C12 1_555 1_555
C1 C2 1_555 1_555
C2 C3 1_555 1_555
C3 C4 1_555 1_555
C4 H1 1_555 1_555
C5 C4 1_555 1_555
C6 C5 1_555 1_555
H2 C6 1_555 1_555
C7 C6 1_555 1_555
H3 C7 1_555 1_555
C8 C3 1_555 1_555
C9 S3 1_555 1_555
C10 C9 1_555 1_555
C11 S4 1_555 1_555
C12 C11 1_555 1_555
C13 S5 1_555 1_555
C14 C13 1_555 1_555
H4 C14 1_555 1_555
C15 C14 1_555 1_555
H5 C15 1_555 1_555
C16 C15 1_555 1_555
C17 C16 1_555 1_555
H6 C17 1_555 1_555
C18 C13 1_555 1_555
C19 C18 1_555 1_555
C20 C12 1_555 1_555
C21 S2 1_555 1_555
C22 S1 1_555 1_555
C23 C5 1_555 1_555
C24 C23 1_555 1_555
H7 C24 1_555 1_555
H8 C24 1_555 1_555
H9 C24 1_555 1_555
C25 C23 1_555 1_555
H10 C25 1_555 1_555
H11 C25 1_555 1_555
H12 C25 1_555 1_555
C26 C23 1_555 1_555
H13 C26 1_555 1_555
H14 C26 1_555 1_555
H15 C26 1_555 1_555
C27 C16 1_555 1_555
C28 C27 1_555 1_555
H16 C28 1_555 1_555
H17 C28 1_555 1_555
H18 C28 1_555 1_555
C29 C27 1_555 1_555
H19 C29 1_555 1_555
H20 C29 1_555 1_555
H21 C29 1_555 1_555
C30 C27 1_555 1_555
H22 C30 1_555 1_555
H23 C30 1_555 1_555
H24 C30 1_555 1_555
C31 C2 1_555 1_555
C32 C31 1_555 1_555
C33 Si1 1_555 1_555
H25 C33 1_555 1_555
C34 C33 1_555 1_555
H26 C34 1_555 1_555
H27 C34 1_555 1_555
H28 C34 1_555 1_555
C35 C33 1_555 1_555
H29 C35 1_555 1_555
H30 C35 1_555 1_555
H31 C35 1_555 1_555
C36 Si1 1_555 1_555
H32 C36 1_555 1_555
C37 C36 1_555 1_555
H33 C37 1_555 1_555
H34 C37 1_555 1_555
H35 C37 1_555 1_555
C38 C36 1_555 1_555
H36 C38 1_555 1_555
H37 C38 1_555 1_555
H38 C38 1_555 1_555
C39 Si1 1_555 1_555
H39 C39 1_555 1_555
C40 C39 1_555 1_555
H40 C40 1_555 1_555
H41 C40 1_555 1_555
H42 C40 1_555 1_555
C41 C39 1_555 1_555
H43 C41 1_555 1_555
H44 C41 1_555 1_555
H45 C41 1_555 1_555
C42 C19 1_555 1_555
C43 C42 1_555 1_555
C44 Si2 1_555 1_555
H46 C44 1_555 1_555
C45 C44 1_555 1_555
H47 C45 1_555 1_555
H48 C45 1_555 1_555
H49 C45 1_555 1_555
C46 C44 1_555 1_555
H50 C46 1_555 1_555
H51 C46 1_555 1_555
H52 C46 1_555 1_555
C47 Si2 1_555 1_555
H53 C47 1_555 1_555
C48 C47 1_555 1_555
H54 C48 1_555 1_555
H55 C48 1_555 1_555
H56 C48 1_555 1_555
C49 C47 1_555 1_555
H57 C49 1_555 1_555
H58 C49 1_555 1_555
H59 C49 1_555 1_555
C50 Si2 1_555 1_555
H60 C50 1_555 1_555
C51 C50 1_555 1_555
H61 C51 1_555 1_555
H62 C51 1_555 1_555
H63 C51 1_555 1_555
C52 C50 1_555 1_555
H64 C52 1_555 1_555
H65 C52 1_555 1_555
H66 C52 1_555 1_555
Si3 C95 1_555 1_555
S6 C53 1_555 1_555
S7 C71 1_555 1_555
S8 C59 1_555 1_555
S9 C61 1_555 1_555
S10 C63 1_555 1_555
C53 C54 1_555 1_555
C54 C55 1_555 1_555
C55 C56 1_555 1_555
C56 H67 1_555 1_555
C57 H68 1_555 1_555
C58 C57 1_555 1_555
H69 C58 1_555 1_555
C59 C55 1_555 1_555
C60 S8 1_555 1_555
C61 C60 1_555 1_555
C62 S9 1_555 1_555
C63 C62 1_555 1_555
C64 S10 1_555 1_555
C65 C64 1_555 1_555
H70 C65 1_555 1_555
C66 C65 1_555 1_555
H71 C66 1_555 1_555
C67 C66 1_555 1_555
C68 C67 1_555 1_555
H72 C68 1_555 1_555
C69 C64 1_555 1_555
C70 C69 1_555 1_555
C71 C63 1_555 1_555
C72 S7 1_555 1_555
C73 S6 1_555 1_555
C74 C56 1_555 1_555
C75 C74 1_555 1_555
C76 C75 1_555 1_555
H73 C76 1_555 1_555
H74 C76 1_555 1_555
H75 C76 1_555 1_555
C77 C75 1_555 1_555
H76 C77 1_555 1_555
H77 C77 1_555 1_555
H78 C77 1_555 1_555
C78 C75 1_555 1_555
H79 C78 1_555 1_555
H80 C78 1_555 1_555
H81 C78 1_555 1_555
C79 C67 1_555 1_555
C80 C79 1_555 1_555
H82 C80 1_555 1_555
H83 C80 1_555 1_555
H84 C80 1_555 1_555
C81 C79 1_555 1_555
H85 C81 1_555 1_555
H86 C81 1_555 1_555
H87 C81 1_555 1_555
C82 C79 1_555 1_555
H88 C82 1_555 1_555
H89 C82 1_555 1_555
H90 C82 1_555 1_555
C83 C54 1_555 1_555
C84 C83 1_555 1_555
C85 H91 1_555 1_555
C86 C85 1_555 1_555
H92 C86 1_555 1_555
H93 C86 1_555 1_555
H94 C86 1_555 1_555
C87 C85 1_555 1_555
H95 C87 1_555 1_555
H96 C87 1_555 1_555
H97 C87 1_555 1_555
C88 H98 1_555 1_555
C89 C88 1_555 1_555
H99 C89 1_555 1_555
H100 C89 1_555 1_555
H101 C89 1_555 1_555
C90 C88 1_555 1_555
H102 C90 1_555 1_555
H103 C90 1_555 1_555
H104 C90 1_555 1_555
Si4 C84 1_555 1_555
C91 Si4 1_555 1_555
H105 C91 1_555 1_555
C92 C91 1_555 1_555
H106 C92 1_555 1_555
H107 C92 1_555 1_555
H108 C92 1_555 1_555
C93 C91 1_555 1_555
H109 C93 1_555 1_555
H110 C93 1_555 1_555
H111 C93 1_555 1_555
C94 C70 1_555 1_555
C95 C94 1_555 1_555
C96 Si3 1_555 1_555
H112 C96 1_555 1_555
C97 C96 1_555 1_555
H113 C97 1_555 1_555
H114 C97 1_555 1_555
H115 C97 1_555 1_555
C98 C96 1_555 1_555
H116 C98 1_555 1_555
H117 C98 1_555 1_555
H118 C98 1_555 1_555
C99 Si3 1_555 1_555
H119 C99 1_555 1_555
C100 C99 1_555 1_555
H120 C100 1_555 1_555
H121 C100 1_555 1_555
H122 C100 1_555 1_555
C101 C99 1_555 1_555
H123 C101 1_555 1_555
H124 C101 1_555 1_555
H125 C101 1_555 1_555
C102 Si3 1_555 1_555
H126 C102 1_555 1_555
C103 C102 1_555 1_555
H127 C103 1_555 1_555
H128 C103 1_555 1_555
H129 C103 1_555 1_555
C104 C102 1_555 1_555
H130 C104 1_555 1_555
H131 C104 1_555 1_555
H132 C104 1_555 1_555
C1 C9 1_555 1_555
C7 C8 1_555 1_555
C10 C22 1_555 1_555
C11 C21 1_555 1_555
C17 C18 1_555 1_555
C19 C20 1_555 1_555
C21 C22 1_555 1_555
C53 C60 1_555 1_555
C57 C74 1_555 1_555
C58 C59 1_555 1_555
C61 C73 1_555 1_555
C62 C72 1_555 1_555
C68 C69 1_555 1_555
C70 C71 1_555 1_555
C72 C73 1_555 1_555
C85 Si4 1_555 1_555
C88 Si4 1_555 1_555

#END
