
#######################################################################
#
#                 Cambridge Crystallographic Data Centre
#                                CCDC 
#
#######################################################################
#
# If this CIF has been generated from an entry in the Cambridge 
# Structural Database, then it will include bibliographic, chemical, 
# crystal, experimental, refinement or atomic coordinate data resulting 
# from the CCDC's data processing and validation procedures.
#
#######################################################################

data_JUSYAX
_chemical_formula_moiety         'C48 H48 N2 O3 Si2,C1 H4 O1'
_chemical_name_systematic        
'12,13,14,15,16,17-Hexahydro-13,16-dimethyl-3,30-bis(trimethylsilyl)-11,8,10:24,21,23:25,1,26-tri(1,3)butadien-1-yl-4-ylidenetribenzo(b,m,o)(1,12,17,5,8)trioxadiazacyclohenicosine methanol clathrate'
_symmetry_cell_setting           triclinic
_symmetry_space_group_name_H-M   'P -1'
_symmetry_Int_Tables_number      2
_space_group_name_Hall           '-P 1'
loop_
_symmetry_equiv_pos_site_id
_symmetry_equiv_pos_as_xyz
1 x,y,z
2 -x,-y,-z
_cell_length_a                   11.1041(9)
_cell_length_b                   13.083(1)
_cell_length_c                   16.973(2)
_cell_angle_alpha                78.047(5)
_cell_angle_beta                 85.090(5)
_cell_angle_gamma                65.753(5)
_cell_volume                     2199.48
_exptl_crystal_colour            colorless
_chemical_melting_point          238-256deg.C(dec)
_cell_formula_units_Z            2
loop_
_atom_site_label
_atom_site_type_symbol
_atom_site_fract_x
_atom_site_fract_y
_atom_site_fract_z
Si1 Si 1.34461(34) -0.61253(26) 1.08934(18)
Si2 Si 0.73173(35) 0.07381(26) 0.94861(19)
C1 C 1.4348(10) -0.1601(8) 0.6433(6)
C2 C 1.4949(11) -0.1286(9) 0.5734(6)
H1 H 1.4865 -0.0414 0.5576
C3 C 1.5636(11) -0.2068(9) 0.5218(7)
H2 H 1.6142 -0.1804 0.4694
C4 C 1.5680(11) -0.3172(9) 0.5385(6)
H3 H 1.6159 -0.3768 0.4985
C5 C 1.5041(10) -0.3501(8) 0.6080(6)
C6 C 1.4833(9) -0.4512(8) 0.6444(5)
C7 C 1.5240(11) -0.5611(9) 0.6279(6)
H4 H 1.5843 -0.5844 0.5756
C8 C 1.4852(11) -0.6364(9) 0.6797(6)
H5 H 1.5156 -0.7213 0.6671
C9 C 1.4087(10) -0.6096(9) 0.7479(6)
H6 H 1.3843 -0.6744 0.7881
C10 C 1.3653(10) -0.5015(8) 0.7659(6)
C11 C 1.4065(10) -0.4264(8) 0.7128(5)
O1 O 1.3795(6) -0.3145(5) 0.7221(4)
C12 C 1.4398(9) -0.2691(8) 0.6576(5)
C13 C 1.2940(10) -0.4724(8) 0.8409(6)
C14 C 1.3380(10) -0.5428(9) 0.9168(6)
H7 H 1.4215 -0.6235 0.9176
C15 C 1.2812(10) -0.5154(9) 0.9909(6)
C16 C 1.5260(12) -0.6796(11) 1.0852(8)
H8 H 1.5670 -0.6157 1.0662
H9 H 1.5451 -0.7311 1.0395
H10 H 1.5718 -0.7334 1.1409
C17 C 1.2853(19) -0.7228(15) 1.1094(11)
H11 H 1.1784 -0.6828 1.1142
H12 H 1.3270 -0.7698 1.1676
H13 H 1.3116 -0.7806 1.0674
C18 C 1.2966(16) -0.5310(13) 1.1723(9)
H14 H 1.1911 -0.4819 1.1639
H15 H 1.3472 -0.4737 1.1651
H16 H 1.3148 -0.5827 1.2319
C19 C 1.1726(10) -0.4091(8) 0.9900(6)
H17 H 1.1249 -0.3841 1.0452
C20 C 1.1249(10) -0.3386(8) 0.9167(6)
C21 C 1.0206(9) -0.2273(8) 0.8941(5)
C22 C 0.9376(10) -0.1471(8) 0.9383(6)
H18 H 0.9452 -0.1642 1.0031
C23 C 0.8432(10) -0.0417(9) 0.8971(6)
C24 C 0.7579(16) 0.0287(13) 1.0574(8)
H19 H 0.6855 0.0993 1.0821
H20 H 0.8562 0.0127 1.0765
H21 H 0.7372 -0.0466 1.0785
C25 C 0.5577(13) 0.1059(12) 0.9219(8)
H22 H 0.5208 0.1657 0.9625
H23 H 0.5130 0.0442 0.9366
H24 H 0.5328 0.1514 0.8609
C26 C 0.7661(14) 0.2039(11) 0.9073(8)
H25 H 0.7011 0.2740 0.9354
H26 H 0.7440 0.2239 0.8439
H27 H 0.8682 0.1905 0.9152
C27 C 0.8398(10) -0.0272(8) 0.8126(6)
H28 H 0.7680 0.0527 0.7815
C28 C 0.9211(9) -0.1058(8) 0.7663(5)
C29 C 1.0154(9) -0.2046(8) 0.8108(5)
O2 O 1.1124(6) -0.2925(5) 0.7785(3)
C30 C 1.1819(10) -0.3731(8) 0.8458(5)
C31 C 0.9015(10) -0.0834(8) 0.6794(6)
C32 C 0.8806(10) -0.1574(9) 0.6391(6)
H29 H 0.8917 -0.2411 0.6718
C33 C 0.8455(11) -0.1259(9) 0.5573(6)
H30 H 0.8301 -0.1867 0.5290
C34 C 0.8292(11) -0.0191(9) 0.5139(7)
H31 H 0.8038 0.0036 0.4509
C35 C 0.8466(10) 0.0582(9) 0.5513(6)
C36 C 0.8432(10) 0.1724(9) 0.5294(6)
C37 C 0.8164(11) 0.2550(9) 0.4579(7)
H32 H 0.7895 0.2374 0.4040
C38 C 0.8266(12) 0.3562(11) 0.4606(7)
H33 H 0.8100 0.4189 0.4058
C39 C 0.8591(11) 0.3789(10) 0.5298(7)
H34 H 0.8584 0.4618 0.5307
C40 C 0.8893(11) 0.2987(9) 0.6014(6)
C41 C 0.8779(10) 0.1997(9) 0.5966(6)
O3 O 0.9024(6) 0.1079(5) 0.6614(4)
C42 C 0.8849(10) 0.0229(9) 0.6334(6)
C43 C 0.9289(11) 0.3169(9) 0.6780(6)
H35 H 0.8998 0.2648 0.7275
H36 H 0.8742 0.4060 0.6811
N1 N 1.0716(10) 0.2907(8) 0.6877(6)
C44 C 1.1193(17) 0.3653(13) 0.6334(10)
H37 H 1.2170 0.3598 0.6450
H38 H 1.0449 0.4422 0.6500
H39 H 1.1102 0.3674 0.5703
C45 C 1.1591(12) 0.1646(10) 0.6786(8)
H40 H 1.1717 0.1598 0.6156
H41 H 1.1079 0.1116 0.7079
C46 C 1.2884(12) 0.1206(10) 0.7161(7)
H42 H 1.2809 0.0927 0.7801
H43 H 1.3227 0.1892 0.7055
N2 N 1.3841(9) 0.0278(8) 0.6807(5)
C47 C 1.5186(14) 0.0044(12) 0.7084(8)
H44 H 1.5998 -0.0691 0.6923
H45 H 1.5132 -0.0041 0.7730
H46 H 1.5340 0.0808 0.6820
C48 C 1.3554(11) -0.0753(8) 0.6982(6)
H47 H 1.3782 -0.1157 0.7604
H48 H 1.2510 -0.0505 0.6877
O4? O 0.0712(15) 0.3078(12) 0.8575(9)
loop_
_geom_bond_atom_site_label_1
_geom_bond_atom_site_label_2
_geom_bond_site_symmetry_1
_geom_bond_site_symmetry_2
Si1 C15 1_555 1_555
Si2 C23 1_555 1_555
C1 C2 1_555 1_555
C2 H1 1_555 1_555
C3 C2 1_555 1_555
H2 C3 1_555 1_555
C4 C3 1_555 1_555
H3 C4 1_555 1_555
C5 C4 1_555 1_555
C6 C5 1_555 1_555
C7 C6 1_555 1_555
H4 C7 1_555 1_555
C8 C7 1_555 1_555
H5 C8 1_555 1_555
C9 C8 1_555 1_555
H6 C9 1_555 1_555
C10 C9 1_555 1_555
C11 C6 1_555 1_555
O1 C11 1_555 1_555
C12 C1 1_555 1_555
C13 C10 1_555 1_555
C14 C13 1_555 1_555
H7 C14 1_555 1_555
C15 C14 1_555 1_555
C16 Si1 1_555 1_555
H8 C16 1_555 1_555
H9 C16 1_555 1_555
H10 C16 1_555 1_555
C17 Si1 1_555 1_555
H11 C17 1_555 1_555
H12 C17 1_555 1_555
H13 C17 1_555 1_555
C18 Si1 1_555 1_555
H14 C18 1_555 1_555
H15 C18 1_555 1_555
H16 C18 1_555 1_555
C19 C15 1_555 1_555
H17 C19 1_555 1_555
C20 C19 1_555 1_555
C21 C20 1_555 1_555
C22 C21 1_555 1_555
H18 C22 1_555 1_555
C23 C22 1_555 1_555
C24 Si2 1_555 1_555
H19 C24 1_555 1_555
H20 C24 1_555 1_555
H21 C24 1_555 1_555
C25 Si2 1_555 1_555
H22 C25 1_555 1_555
H23 C25 1_555 1_555
H24 C25 1_555 1_555
C26 Si2 1_555 1_555
H25 C26 1_555 1_555
H26 C26 1_555 1_555
H27 C26 1_555 1_555
C27 C23 1_555 1_555
H28 C27 1_555 1_555
C28 C27 1_555 1_555
C29 C21 1_555 1_555
O2 C29 1_555 1_555
C30 C13 1_555 1_555
C31 C28 1_555 1_555
C32 C31 1_555 1_555
H29 C32 1_555 1_555
C33 C32 1_555 1_555
H30 C33 1_555 1_555
C34 C33 1_555 1_555
H31 C34 1_555 1_555
C35 C34 1_555 1_555
C36 C35 1_555 1_555
C37 C36 1_555 1_555
H32 C37 1_555 1_555
C38 C37 1_555 1_555
H33 C38 1_555 1_555
C39 C38 1_555 1_555
H34 C39 1_555 1_555
C40 C39 1_555 1_555
C41 C36 1_555 1_555
O3 C41 1_555 1_555
C42 C31 1_555 1_555
C43 C40 1_555 1_555
H35 C43 1_555 1_555
H36 C43 1_555 1_555
N1 C43 1_555 1_555
C44 N1 1_555 1_555
H37 C44 1_555 1_555
H38 C44 1_555 1_555
H39 C44 1_555 1_555
C45 N1 1_555 1_555
H40 C45 1_555 1_555
H41 C45 1_555 1_555
C46 C45 1_555 1_555
H42 C46 1_555 1_555
H43 C46 1_555 1_555
N2 C46 1_555 1_555
C47 N2 1_555 1_555
H44 C47 1_555 1_555
H45 C47 1_555 1_555
H46 C47 1_555 1_555
C48 C1 1_555 1_555
H47 C48 1_555 1_555
H48 C48 1_555 1_555
C5 C12 1_555 1_555
C10 C11 1_555 1_555
O1 C12 1_555 1_555
C20 C30 1_555 1_555
C28 C29 1_555 1_555
O2 C30 1_555 1_555
C35 C42 1_555 1_555
C40 C41 1_555 1_555
O3 C42 1_555 1_555
N2 C48 1_555 1_555

#END
