
#######################################################################
#
#                 Cambridge Crystallographic Data Centre
#                                CCDC 
#
#######################################################################
#
# If this CIF has been generated from an entry in the Cambridge 
# Structural Database, then it will include bibliographic, chemical, 
# crystal, experimental, refinement or atomic coordinate data resulting 
# from the CCDC's data processing and validation procedures.
#
#######################################################################

data_JUVLET
_chemical_formula_moiety         'C19 H30 O5'
_chemical_name_systematic        
'Di-t-butyl 1-formyl-6,6-dimethylbicyclo[3.1.0]hexane-3,3-dicarboxylate'
_symmetry_cell_setting           monoclinic
_symmetry_space_group_name_H-M   'C 2/c'
_symmetry_Int_Tables_number      15
_space_group_name_Hall           '-C 2yn'
loop_
_symmetry_equiv_pos_site_id
_symmetry_equiv_pos_as_xyz
1 x,y,z
2 -x,y,1/2-z
3 1/2+x,1/2+y,z
4 1/2-x,1/2+y,1/2-z
5 -x,-y,-z
6 x,-y,1/2+z
7 1/2-x,1/2-y,-z
8 1/2+x,1/2-y,1/2+z
_cell_length_a                   32.5104(5)
_cell_length_b                   7.54200(10)
_cell_length_c                   18.7992(13)
_cell_angle_alpha                90
_cell_angle_beta                 123.469(9)
_cell_angle_gamma                90
_cell_volume                     3845.12
_exptl_crystal_colour            colorless
_exptl_crystal_description       block
_cell_formula_units_Z            8
loop_
_atom_site_label
_atom_site_type_symbol
_atom_site_fract_x
_atom_site_fract_y
_atom_site_fract_z
O1 O 0.18213(13) 0.0751(4) 1.04264(18)
O2 O 0.12260(12) 0.1119(4) 0.8544(2)
C1 C 0.09929(14) 0.5738(5) 0.9693(2)
H1 H 0.1227 0.6750 0.9976
C2 C 0.11584(13) 0.2624(4) 0.9571(2)
C3 C 0.23158(12) 0.0068(5) 1.1086(2)
C4 C 0.16869(17) 0.2370(6) 1.0208(3)
O3 O 0.19757(12) 0.3584(4) 1.0519(2)
C5 C 0.09798(17) 0.1089(6) 0.8839(3)
O4 O 0.06322(13) 0.0146(5) 0.8644(2)
C6 C 0.10535(19) 0.4465(6) 0.9104(3)
H2 H 0.1333 0.4831 0.9065
H3 H 0.0749 0.4421 0.8524
C7 C 0.08677(17) 0.4571(7) 1.0215(3)
C8 C 0.04833(18) 0.5851(8) 0.9535(4)
C9 C 0.1137(3) 0.4962(13) 1.1110(5)
H4 H 0.1174 0.6173 1.1274
O5 O 0.13238(16) 0.3844(6) 1.1678(3)
C10 C 0.0027(3) 0.5163(12) 0.8741(5)
H5 H -0.0088 0.6031 0.8280
H6 H -0.0231 0.4970 0.8851
H7 H 0.0102 0.4041 0.8573
C11 C 0.11363(16) -0.0054(5) 0.7857(2)
C12 C 0.26742(17) 0.0466(6) 1.0835(3)
H8 H 0.2734 0.1747 1.0871
H9 H 0.2536 0.0064 1.0250
H10 H 0.2986 -0.0152 1.1223
C13 C 0.22297(14) -0.1914(5) 1.1064(3)
H11 H 0.2122 -0.2380 1.0500
H12 H 0.1975 -0.2142 1.1179
H13 H 0.2537 -0.2499 1.1499
C14 C 0.15491(15) 0.0438(6) 0.7749(3)
H14 H 0.1534 -0.0318 0.7311
H15 H 0.1867 0.0268 0.8291
H16 H 0.1514 0.1683 0.7575
C15 C 0.0418(2) 0.7594(6) 0.9921(4)
H17 H 0.0733 0.7912 1.0442
H18 H 0.0170 0.7397 1.0056
H19 H 0.0309 0.8559 0.9506
C16 C 0.0815(2) 0.2651(6) 0.9861(4)
H20 H 0.0911 0.1756 1.0312
H21 H 0.0472 0.2418 0.9380
C17 C 0.06412(15) 0.0347(8) 0.7059(3)
H22 H 0.0574 -0.0502 0.6613
H23 H 0.0643 0.1553 0.6867
H24 H 0.0385 0.0251 0.7180
C18 C 0.1181(3) -0.1961(6) 0.8134(4)
H25 H 0.1112 -0.2744 0.7664
H26 H 0.0944 -0.2195 0.8290
H27 H 0.1516 -0.2181 0.8627
C19 C 0.24768(14) 0.0856(6) 1.1945(2)
H28 H 0.2514 0.2142 1.1931
H29 H 0.2793 0.0335 1.2389
H30 H 0.2228 0.0600 1.2071
C20? C 0.1161(5) 0.2407(15) 0.8844(7)
O6? O 0.1186(4) 0.3586(11) 0.8442(6)
C21? C 0.1524(5) 0.1218(14) 1.0338(7)
O7? O 0.1396(3) 0.0352(11) 1.0728(5)
C22? C 0.1449(4) 0.4473(13) 1.0074(7)
H31? H 0.1622 0.4354 1.0700
H32? H 0.1684 0.4861 0.9927
C23? C 0.0575(5) 0.4664(15) 0.9423(9)
C24? C 0.0761(5) 0.5837(16) 1.0226(8)
C25? C 0.0146(7) 0.539(3) 0.8598(11)
H33? H 0.0110 0.6640 0.8520
O8? O -0.0160(4) 0.4422(15) 0.8024(6)
C26? C 0.0940(7) 0.484(3) 1.1050(12)
H34? H 0.0659 0.4567 1.1090
H35? H 0.1177 0.5581 1.1536
H36? H 0.1101 0.3739 1.1056
loop_
_geom_bond_atom_site_label_1
_geom_bond_atom_site_label_2
_geom_bond_site_symmetry_1
_geom_bond_site_symmetry_2
O1 C3 1_555 1_555
O2 C5 1_555 1_555
C1 H1 1_555 1_555
C2 C4 1_555 1_555
C3 C12 1_555 1_555
C4 O1 1_555 1_555
O3 C4 1_555 1_555
C5 C2 1_555 1_555
O4 C5 1_555 1_555
C6 C1 1_555 1_555
H2 C6 1_555 1_555
H3 C6 1_555 1_555
C7 C1 1_555 1_555
C8 C1 1_555 1_555
C9 C7 1_555 1_555
H4 C9 1_555 1_555
O5 C9 1_555 1_555
C10 C8 1_555 1_555
H5 C10 1_555 1_555
H6 C10 1_555 1_555
H7 C10 1_555 1_555
C11 O2 1_555 1_555
C12 H8 1_555 1_555
H9 C12 1_555 1_555
H10 C12 1_555 1_555
C13 C3 1_555 1_555
H11 C13 1_555 1_555
H12 C13 1_555 1_555
H13 C13 1_555 1_555
C14 C11 1_555 1_555
H14 C14 1_555 1_555
H15 C14 1_555 1_555
H16 C14 1_555 1_555
C15 C8 1_555 1_555
H17 C15 1_555 1_555
H18 C15 1_555 1_555
H19 C15 1_555 1_555
C16 C2 1_555 1_555
H20 C16 1_555 1_555
H21 C16 1_555 1_555
C17 C11 1_555 1_555
H22 C17 1_555 1_555
H23 C17 1_555 1_555
H24 C17 1_555 1_555
C18 C11 1_555 1_555
H25 C18 1_555 1_555
H26 C18 1_555 1_555
H27 C18 1_555 1_555
C19 C3 1_555 1_555
H28 C19 1_555 1_555
H29 C19 1_555 1_555
H30 C19 1_555 1_555
C2 C6 1_555 1_555
C7 C8 1_555 1_555
C7 C16 1_555 1_555

#END
