
#######################################################################
#
#                 Cambridge Crystallographic Data Centre
#                                CCDC 
#
#######################################################################
#
# If this CIF has been generated from an entry in the Cambridge 
# Structural Database, then it will include bibliographic, chemical, 
# crystal, experimental, refinement or atomic coordinate data resulting 
# from the CCDC's data processing and validation procedures.
#
#######################################################################

data_JUVYAA
_chemical_formula_moiety         'C60,C1 H2 I2,C6 H6'
_chemical_name_systematic        'C60Fullerene di-iodomethane benzene solvate'
_symmetry_cell_setting           monoclinic
_symmetry_space_group_name_H-M   'C 2/c'
_symmetry_Int_Tables_number      15
_space_group_name_Hall           '-C 2yn'
loop_
_symmetry_equiv_pos_site_id
_symmetry_equiv_pos_as_xyz
1 x,y,z
2 1/2+x,1/2+y,z
3 -x,y,1/2-z
4 1/2-x,1/2+y,1/2-z
5 -x,-y,-z
6 1/2-x,1/2-y,-z
7 x,-y,1/2+z
8 1/2+x,1/2-y,1/2+z
_cell_length_a                   21.024(7)
_cell_length_b                   17.298(4)
_cell_length_c                   10.043(2)
_cell_angle_alpha                90
_cell_angle_beta                 105.93(2)
_cell_angle_gamma                90
_cell_volume                     3512.11
_cell_formula_units_Z            4
loop_
_atom_site_label
_atom_site_type_symbol
_atom_site_fract_x
_atom_site_fract_y
_atom_site_fract_z
C1 C 0.2601(3) 0.1248(4) 0.2840(7)
C2 C 0.3244(5) 0.1168(5) 0.2603(9)
C3 C 0.3638(4) 0.1964(5) 0.3152(7)
C4 C 0.3185(4) 0.2412(4) 0.3636(6)
C5 C 0.2566(4) 0.1993(4) 0.3451(6)
C6 C 0.2047(3) 0.0952(4) 0.1862(7)
C7 C 0.1454(4) 0.1379(5) 0.1468(8)
C8 C 0.1161(4) 0.1238(5) -0.0124(11)
C9 C 0.1653(3) 0.0707(4) -0.0551(7)
C10 C 0.2170(4) 0.0555(4) 0.0669(8)
C11 C 0.3368(5) 0.0844(6) 0.1535(9)
C12 C 0.1970(4) 0.2410(4) 0.3036(7)
C13 C 0.1408(4) 0.2107(6) 0.2024(9)
C14 C 0.2832(4) 0.0504(4) 0.0569(10)
C15 C 0.3843(4) 0.1189(5) 0.0859(11)
C16 C 0.4158(4) 0.1882(7) 0.1286(8)
C17 C 0.4041(4) 0.2267(6) 0.2497(8)
C18 C 0.3127(4) 0.3213(4) 0.3418(7)
C19 C 0.2507(5) 0.3577(6) 0.2995(8)
C20 C 0.1963(5) 0.3231(6) 0.2783(10)
C21 C 0.1061(3) 0.2710(5) 0.1133(8)
C22 C 0.4207(3) 0.2461(5) 0.0237(9)
C23 C 0.0858(4) 0.1803(6) -0.0896(12)
C24 C 0.1785(5) 0.0823(5) -0.1823(8)
C25 C 0.2582(5) 0.4219(5) 0.1929(10)
C26 C 0.2932(5) 0.0622(4) -0.0841(12)
C27 C 0.3574(4) 0.1042(5) -0.0583(11)
C28 C 0.1370(4) 0.3442(5) 0.1518(8)
C29 C 0.4027(4) 0.3084(7) 0.2258(8)
C30 C 0.3574(5) 0.3568(5) 0.2698(8)
C22E C 0.0793(3) 0.2539(5) -0.0237(9)
C21E C 0.3939(3) 0.2290(5) -0.1133(8)
C23E C 0.4142(4) 0.3197(6) 0.0896(12)
C29E C 0.0973(4) 0.1916(7) -0.2258(8)
C25E C 0.2418(5) 0.0781(5) -0.1929(10)
C30E C 0.1426(5) 0.1432(5) -0.2698(8)
C24E C 0.3215(5) 0.4177(5) 0.1823(8)
C26E C 0.2068(5) 0.4378(4) 0.0841(12)
C28E C 0.3630(4) 0.1558(5) -0.1518(8)
C27E C 0.1426(4) 0.3958(5) 0.0583(11)
C16E C 0.0842(4) 0.3118(7) -0.1286(8)
C13E C 0.3592(4) 0.2893(6) -0.2024(9)
C8E C 0.3839(4) 0.3762(5) 0.0124(11)
C17E C 0.0959(4) 0.2733(6) -0.2497(8)
C19E C 0.2493(5) 0.1423(6) -0.2995(8)
C18E C 0.1873(4) 0.1787(4) -0.3418(7)
C9E C 0.3347(3) 0.4293(4) 0.0551(7)
C14E C 0.2168(4) 0.4496(4) -0.0569(10)
C20E C 0.3037(5) 0.1769(6) -0.2783(10)
C15E C 0.1157(4) 0.3811(5) -0.0859(11)
C7E C 0.3546(4) 0.3621(5) -0.1468(8)
C12E C 0.3030(4) 0.2590(4) -0.3036(7)
C3E C 0.1362(4) 0.3036(5) -0.3152(7)
C4E C 0.1815(4) 0.2588(4) -0.3636(6)
C10E C 0.2830(4) 0.4445(4) -0.0669(8)
C11E C 0.1632(5) 0.4156(6) -0.1535(9)
C6E C 0.2953(3) 0.4048(4) -0.1862(7)
C5E C 0.2434(4) 0.3007(4) -0.3451(6)
C2E C 0.1756(5) 0.3832(5) -0.2603(9)
C1E C 0.2399(3) 0.3752(4) -0.2840(7)
I1 I -0.05121(2) 0.41001(3) 0.07569(5)
C31 C 0.0000 0.4767(7) 0.2500
I1B I 0.05121(2) 0.41001(3) 0.42431(5)
C32 C 0.0000 0.1854(6) 0.2500
C33 C -0.0288(3) 0.1455(5) 0.1311(8)
C34 C -0.0291(4) 0.0654(5) 0.1258(9)
C35 C 0.0000 0.0251(7) 0.2500
C33B C 0.0288(3) 0.1455(5) 0.3689(8)
C34B C 0.0291(4) 0.0654(5) 0.3742(9)
loop_
_geom_bond_atom_site_label_1
_geom_bond_atom_site_label_2
_geom_bond_site_symmetry_1
_geom_bond_site_symmetry_2
C1 C2 1_555 1_555
C2 C3 1_555 1_555
C3 C4 1_555 1_555
C4 C5 1_555 1_555
C5 C1 1_555 1_555
C6 C1 1_555 1_555
C7 C6 1_555 1_555
C8 C7 1_555 1_555
C9 C8 1_555 1_555
C10 C6 1_555 1_555
C11 C2 1_555 1_555
C12 C5 1_555 1_555
C13 C7 1_555 1_555
C14 C10 1_555 1_555
C15 C11 1_555 1_555
C16 C15 1_555 1_555
C17 C3 1_555 1_555
C18 C4 1_555 1_555
C19 C18 1_555 1_555
C20 C12 1_555 1_555
C21 C13 1_555 1_555
C22 C16 1_555 1_555
C23 C8 1_555 1_555
C24 C9 1_555 1_555
C25 C19 1_555 1_555
C26 C14 1_555 1_555
C27 C15 1_555 1_555
C28 C20 1_555 1_555
C29 C17 1_555 1_555
C30 C18 1_555 1_555
I1 C31 1_555 1_555
C31 I1B 1_555 1_555
C32 C33 1_555 1_555
C33 C34 1_555 1_555
C34 C35 1_555 1_555
C35 C34B 1_555 1_555
C22E C21 1_555 1_555
C21E C22 1_555 1_555
C23E C22 1_555 1_555
C29E C23 1_555 1_555
C25E C24 1_555 1_555
C30E C24 1_555 1_555
C24E C25 1_555 1_555
C26E C25 1_555 1_555
C28E C27 1_555 1_555
C27E C28 1_555 1_555
C16E C22E 1_555 1_555
C13E C21E 1_555 1_555
C8E C23E 1_555 1_555
C17E C29E 1_555 1_555
C19E C25E 1_555 1_555
C18E C30E 1_555 1_555
C9E C24E 1_555 1_555
C14E C26E 1_555 1_555
C20E C28E 1_555 1_555
C15E C27E 1_555 1_555
C7E C13E 1_555 1_555
C12E C13E 1_555 1_555
C3E C17E 1_555 1_555
C4E C18E 1_555 1_555
C10E C9E 1_555 1_555
C11E C14E 1_555 1_555
C6E C7E 1_555 1_555
C5E C12E 1_555 1_555
C2E C3E 1_555 1_555
C1E C6E 1_555 1_555
C33B C32 1_555 1_555
C34B C33B 1_555 1_555
C9 C10 1_555 1_555
C11 C14 1_555 1_555
C12 C13 1_555 1_555
C16 C17 1_555 1_555
C19 C20 1_555 1_555
C21 C28 1_555 1_555
C23 C22E 1_555 1_555
C26 C25E 1_555 1_555
C26 C27 1_555 1_555
C29 C23E 1_555 1_555
C29 C30 1_555 1_555
C30 C24E 1_555 1_555
C21E C28E 1_555 1_555
C29E C30E 1_555 1_555
C26E C27E 1_555 1_555
C16E C15E 1_555 1_555
C16E C17E 1_555 1_555
C8E C7E 1_555 1_555
C8E C9E 1_555 1_555
C19E C18E 1_555 1_555
C19E C20E 1_555 1_555
C14E C10E 1_555 1_555
C20E C12E 1_555 1_555
C15E C11E 1_555 1_555
C3E C4E 1_555 1_555
C4E C5E 1_555 1_555
C10E C6E 1_555 1_555
C11E C2E 1_555 1_555
C5E C1E 1_555 1_555
C2E C1E 1_555 1_555

#END
