
#######################################################################
#
#                 Cambridge Crystallographic Data Centre
#                                CCDC 
#
#######################################################################
#
# If this CIF has been generated from an entry in the Cambridge 
# Structural Database, then it will include bibliographic, chemical, 
# crystal, experimental, refinement or atomic coordinate data resulting 
# from the CCDC's data processing and validation procedures.
#
#######################################################################

data_JUWBEK
_chemical_formula_moiety         'C1 H5 B9 I5 1-,C8 H20 N1 1+'
_chemical_name_systematic        
'tetraethylammonium 6,7,8,9,10-pentaiodo-1-carba-closo-decaborate'
_symmetry_cell_setting           monoclinic
_symmetry_space_group_name_H-M   'P 21/c'
_symmetry_Int_Tables_number      14
_space_group_name_Hall           '-P 2ybc'
loop_
_symmetry_equiv_pos_site_id
_symmetry_equiv_pos_as_xyz
1 x,y,z
2 -x,1/2+y,1/2-z
3 -x,-y,-z
4 x,1/2-y,1/2+z
_cell_length_a                   9.74427(12)
_cell_length_b                   20.7512(2)
_cell_length_c                   13.06589(17)
_cell_angle_alpha                90
_cell_angle_beta                 101.2176(12)
_cell_angle_gamma                90
_cell_volume                     2591.52
_exptl_crystal_colour            'light colorless'
_exptl_crystal_description       prism
_cell_formula_units_Z            4
_exptl_crystal_recrystallization_method acetone/water
_exptl_crystal_preparation       
'Microwave irradn of 1-carba-closo-decaborate(1-) and I2 in acetic acid.'
loop_
_atom_site_label
_atom_site_type_symbol
_atom_site_fract_x
_atom_site_fract_y
_atom_site_fract_z
I1 I 0.485666(19) 0.640747(17) 0.938551(18)
I2 I 0.861738(19) 0.628432(18) 0.836760(19)
B1 B 0.512131(19) 0.633258(19) 0.780009(19)
B2 B 0.525577(19) 0.567489(19) 0.707681(19)
B3 B 0.529042(19) 0.691997(19) 0.693564(19)
B4 B 0.641879(19) 0.579193(19) 0.616110(19)
H1 H 0.719846(19) 0.542510(19) 0.606434(19)
B5 B 0.453779(19) 0.668667(19) 0.561105(19)
H2 H 0.384971(19) 0.701650(19) 0.508577(19)
B6 B 0.453482(19) 0.579878(19) 0.570455(19)
H3 H 0.385145(19) 0.543575(19) 0.524981(19)
B7 B 0.647136(19) 0.668624(19) 0.606706(19)
H4 H 0.729044(19) 0.701361(19) 0.590406(19)
B8 B 0.661888(19) 0.628408(19) 0.732265(19)
B9 B 0.392573(19) 0.629898(19) 0.668132(19)
I3 I 0.523562(19) 0.791416(16) 0.740662(18)
I4 I 0.514208(19) 0.472684(17) 0.774407(19)
C1 C 0.561515(19) 0.622052(19) 0.521738(19)
H5 H 0.576611(19) 0.619377(19) 0.440575(19)
I5 I 0.171591(19) 0.631988(17) 0.671427(19)
N1 N 0.993242(19) 0.613972(19) 1.239085(19)
C2 C 0.861392(19) 0.600865(19) 1.156678(19)
H6 H 0.780337(19) 0.609938(19) 1.187204(19)
H7 H 0.859653(19) 0.630773(19) 1.099385(19)
C3 C 0.985159(19) 0.682379(19) 1.269762(19)
H8 H 0.978426(19) 0.708776(19) 1.207715(19)
H9 H 0.899455(19) 0.688400(19) 1.295919(19)
C4 C 1.107518(19) 0.707371(19) 1.352288(19)
H10 H 1.104536(19) 0.687749(19) 1.418357(19)
H11 H 1.194270(19) 0.696699(19) 1.331954(19)
H12 H 1.100326(19) 0.753307(19) 1.358200(19)
C5 C 0.999933(19) 0.570116(19) 1.332777(19)
H13 H 0.999486(19) 0.525719(19) 1.309486(19)
H14 H 1.087864(19) 0.577514(19) 1.380688(19)
C6 C 0.882750(19) 0.579177(19) 1.390429(19)
H15 H 0.87553(2) 0.623934(19) 1.40721(2)
H16 H 0.796610(19) 0.565099(19) 1.347474(19)
H17 H 0.900965(19) 0.554308(19) 1.453576(19)
C7 C 0.847375(19) 0.532940(19) 1.112714(19)
H18 H 0.756533(19) 0.527703(19) 1.069317(19)
H19 H 0.91802(2) 0.525705(19) 1.07202(2)
H20 H 0.85870(2) 0.502461(19) 1.169006(19)
C8 C 1.138785(19) 0.637721(19) 1.099150(19)
H21 H 1.19781(2) 0.614001(19) 1.061724(19)
H22 H 1.048209(19) 0.643385(19) 1.055560(19)
H23 H 1.17971(2) 0.679120(19) 1.118466(19)
C9 C 1.123970(19) 0.600816(19) 1.196688(19)
H24 H 1.204330(19) 0.610603(19) 1.250939(19)
H25 H 1.127171(19) 0.555108(19) 1.181787(19)
I6? I 0.790336(19) 0.718225(19) 0.545053(19)
loop_
_geom_bond_atom_site_label_1
_geom_bond_atom_site_label_2
_geom_bond_site_symmetry_1
_geom_bond_site_symmetry_2
I1 B1 1_555 1_555
I2 B8 1_555 1_555
B1 B2 1_555 1_555
B2 B4 1_555 1_555
B3 B1 1_555 1_555
B4 H1 1_555 1_555
B5 B3 1_555 1_555
H2 B5 1_555 1_555
B6 B2 1_555 1_555
H3 B6 1_555 1_555
B7 B3 1_555 1_555
H4 B7 1_555 1_555
B8 B1 1_555 1_555
B9 B1 1_555 1_555
I3 B3 1_555 1_555
I4 B2 1_555 1_555
C1 B4 1_555 1_555
H5 C1 1_555 1_555
I5 B9 1_555 1_555
N1 C2 1_555 1_555
C2 H6 1_555 1_555
H7 C2 1_555 1_555
C3 N1 1_555 1_555
H8 C3 1_555 1_555
H9 C3 1_555 1_555
C4 C3 1_555 1_555
H10 C4 1_555 1_555
H11 C4 1_555 1_555
H12 C4 1_555 1_555
C5 N1 1_555 1_555
H13 C5 1_555 1_555
H14 C5 1_555 1_555
C6 C5 1_555 1_555
H15 C6 1_555 1_555
H16 C6 1_555 1_555
H17 C6 1_555 1_555
C7 C2 1_555 1_555
H18 C7 1_555 1_555
H19 C7 1_555 1_555
H20 C7 1_555 1_555
C8 H21 1_555 1_555
H22 C8 1_555 1_555
H23 C8 1_555 1_555
C9 N1 1_555 1_555
H24 C9 1_555 1_555
H25 C9 1_555 1_555
B2 B8 1_555 1_555
B2 B9 1_555 1_555
B3 B8 1_555 1_555
B3 B9 1_555 1_555
B4 B6 1_555 1_555
B4 B7 1_555 1_555
B4 B8 1_555 1_555
B5 B6 1_555 1_555
B5 B7 1_555 1_555
B5 B9 1_555 1_555
B5 C1 1_555 1_555
B6 B9 1_555 1_555
B6 C1 1_555 1_555
B7 B8 1_555 1_555
B7 C1 1_555 1_555
C8 C9 1_555 1_555

#END
