
#######################################################################
#
#                 Cambridge Crystallographic Data Centre
#                                CCDC 
#
#######################################################################
#
# If this CIF has been generated from an entry in the Cambridge 
# Structural Database, then it will include bibliographic, chemical, 
# crystal, experimental, refinement or atomic coordinate data resulting 
# from the CCDC's data processing and validation procedures.
#
#######################################################################

data_JUXHAN
_chemical_formula_moiety         'C11 H10 Cl1 F3 N2 O1'
_chemical_name_systematic        
(S)-2-(4-Chlorophenyl)-6-(trifluoromethyl)tetrahydropyridazin-3(2H)-one
_symmetry_cell_setting           orthorhombic
_symmetry_space_group_name_H-M   'P 21 21 21'
_symmetry_Int_Tables_number      19
_space_group_name_Hall           'P 2ac 2ab'
loop_
_symmetry_equiv_pos_site_id
_symmetry_equiv_pos_as_xyz
1 x,y,z
2 1/2-x,-y,1/2+z
3 -x,1/2+y,1/2-z
4 1/2+x,1/2-y,-z
_cell_length_a                   7.1869(7)
_cell_length_b                   8.4346(8)
_cell_length_c                   19.1189(18)
_cell_angle_alpha                90
_cell_angle_beta                 90
_cell_angle_gamma                90
_cell_volume                     1158.96
_exptl_crystal_colour            colorless
_exptl_crystal_description       prismatic
_cell_formula_units_Z            4
_exptl_crystal_recrystallization_method dichloromethane/n-hexane
loop_
_atom_site_label
_atom_site_type_symbol
_atom_site_fract_x
_atom_site_fract_y
_atom_site_fract_z
Cl1 Cl 1.28886(10) 0.64539(8) 0.05005(3)
F1 F 0.8814(2) 0.58741(17) 0.49442(7)
F2 F 0.96962(18) 0.51587(15) 0.39149(7)
F3 F 1.04094(18) 0.74589(15) 0.43003(7)
N1 N 0.7231(2) 0.6495(2) 0.27541(8)
N2 N 0.7542(3) 0.7631(2) 0.32914(9)
O1 O 0.5310(2) 0.45744(18) 0.23360(8)
C1 C 0.5649(3) 0.5599(2) 0.27745(11)
C2 C 0.4460(3) 0.5896(3) 0.34022(11)
H1 H 0.3455 0.5095 0.3426
H2 H 0.3880 0.6958 0.3369
C3 C 0.5670(3) 0.5800(3) 0.40586(12)
H3 H 0.6203 0.4722 0.4105
H4 H 0.4908 0.6021 0.4479
C4 C 0.7239(3) 0.7027(2) 0.39965(11)
H5 H 0.6882 0.7952 0.4295
C5 C 0.9041(3) 0.6382(3) 0.42839(11)
C6 C 0.8567(3) 0.6496(2) 0.22062(10)
C7 C 0.8080(3) 0.6083(3) 0.15251(11)
H6 H 0.6833 0.5796 0.1419
C8 C 0.9405(3) 0.6090(3) 0.10054(12)
H7 H 0.9073 0.5809 0.0541
C9 C 1.1211(3) 0.6503(3) 0.11602(12)
C10 C 1.1706(3) 0.6966(3) 0.18244(11)
H8 H 1.2949 0.7278 0.1923
C11 C 1.0385(3) 0.6972(2) 0.23453(11)
H9 H 1.0716 0.7304 0.2804
H10 H 0.681(3) 0.845(3) 0.3194(12)
loop_
_geom_bond_atom_site_label_1
_geom_bond_atom_site_label_2
_geom_bond_site_symmetry_1
_geom_bond_site_symmetry_2
Cl1 C9 1_555 1_555
F1 C5 1_555 1_555
F2 C5 1_555 1_555
F3 C5 1_555 1_555
N1 N2 1_555 1_555
N2 C4 1_555 1_555
O1 C1 1_555 1_555
C1 N1 1_555 1_555
C2 C1 1_555 1_555
H1 C2 1_555 1_555
H2 C2 1_555 1_555
C3 C2 1_555 1_555
H3 C3 1_555 1_555
H4 C3 1_555 1_555
C4 C3 1_555 1_555
H5 C4 1_555 1_555
C5 C4 1_555 1_555
C6 N1 1_555 1_555
C7 C6 1_555 1_555
H6 C7 1_555 1_555
C8 C7 1_555 1_555
H7 C8 1_555 1_555
C9 C8 1_555 1_555
C10 C9 1_555 1_555
H8 C10 1_555 1_555
C11 C6 1_555 1_555
H9 C11 1_555 1_555
H10 N2 1_555 1_555
C10 C11 1_555 1_555

#END
