
#######################################################################
#
#                 Cambridge Crystallographic Data Centre
#                                CCDC 
#
#######################################################################
#
# If this CIF has been generated from an entry in the Cambridge 
# Structural Database, then it will include bibliographic, chemical, 
# crystal, experimental, refinement or atomic coordinate data resulting 
# from the CCDC's data processing and validation procedures.
#
#######################################################################

data_JUYDIS
_chemical_formula_moiety         'C14 H23 N1 O2'
_chemical_name_systematic        
N-(2-(adamantan-1-yl)-2-hydroxyethyl)acetamide
_symmetry_cell_setting           orthorhombic
_symmetry_space_group_name_H-M   'P 21 21 2'
_symmetry_Int_Tables_number      18
_space_group_name_Hall           'P 2 2ab'
loop_
_symmetry_equiv_pos_site_id
_symmetry_equiv_pos_as_xyz
1 x,y,z
2 -x,-y,z
3 1/2+x,1/2-y,-z
4 1/2-x,1/2+y,-z
_cell_length_a                   11.4812(3)
_cell_length_b                   34.1283(9)
_cell_length_c                   6.6682(2)
_cell_angle_alpha                90
_cell_angle_beta                 90
_cell_angle_gamma                90
_cell_volume                     2612.83
_exptl_crystal_colour            colorless
_exptl_crystal_description       Plate
_cell_formula_units_Z            8
loop_
_atom_site_label
_atom_site_type_symbol
_atom_site_fract_x
_atom_site_fract_y
_atom_site_fract_z
O1 O 0.58278(14) 0.18631(5) 0.8520(3)
H1 H 0.616(3) 0.2069(11) 0.910(5)
O2 O 0.39814(19) 0.24612(5) 0.3952(3)
N1 N 0.5812(2) 0.23529(6) 0.4991(4)
H2 H 0.6461 0.2462 0.5417
C1 C 0.64557(16) 0.12957(6) 0.6627(3)
C2 C 0.7125(2) 0.11412(7) 0.8458(4)
H3 H 0.7920 0.1253 0.8463
H4 H 0.6726 0.1227 0.9699
C3 C 0.7202(2) 0.06943(8) 0.8434(4)
H5 H 0.7637 0.0603 0.9646
C4 C 0.7839(2) 0.05614(8) 0.6559(5)
H6 H 0.7892 0.0272 0.6539
H7 H 0.8639 0.0669 0.6552
C5 C 0.7178(2) 0.07042(7) 0.4723(4)
H8 H 0.7597 0.0617 0.3485
C6 C 0.7096(2) 0.11517(7) 0.4738(3)
H9 H 0.6674 0.1242 0.3528
H10 H 0.7889 0.1265 0.4703
C7 C 0.52358(16) 0.11133(6) 0.6645(3)
H11 H 0.4794 0.1204 0.5457
H12 H 0.4812 0.1200 0.7860
C8 C 0.53134(17) 0.06645(6) 0.6621(4)
H13 H 0.4509 0.0552 0.6624
C9 C 0.5969(2) 0.05193(7) 0.8454(4)
H14 H 0.6013 0.0230 0.8435
H15 H 0.5555 0.0600 0.9689
C10 C 0.5952(2) 0.05311(7) 0.4731(4)
H16 H 0.5997 0.0241 0.4701
H17 H 0.5522 0.0619 0.3526
C11 C 0.63913(18) 0.17453(6) 0.6709(3)
H18 H 0.7203 0.1852 0.6713
C12 C 0.5732(3) 0.19266(7) 0.4958(5)
H19 H 0.6058 0.1827 0.3681
H20 H 0.4903 0.1847 0.5026
C13 C 0.4945(3) 0.25838(7) 0.4404(4)
C14 C 0.5221(3) 0.30137(7) 0.4341(5)
H21 H 0.4589 0.3161 0.4981
H22 H 0.5301 0.3098 0.2942
H23 H 0.5952 0.3063 0.5057
O3 O 0.77482(17) 0.32394(6) 0.6968(3)
H24 H 0.808(3) 0.3017(9) 0.698(5)
O4 O 0.69385(17) 0.24587(6) 1.0187(4)
N2 N 0.84076(17) 0.28748(5) 1.0731(3)
H25 H 0.9158 0.2901 1.0966
C15 C 0.72596(15) 0.38456(5) 0.8565(3)
C16 C 0.7579(3) 0.40569(9) 0.6634(4)
H26 H 0.7399 0.3886 0.5474
H27 H 0.8426 0.4112 0.6623
C17 C 0.6905(3) 0.44436(10) 0.6434(4)
H28 H 0.7121 0.4574 0.5143
C18 C 0.5610(3) 0.43555(10) 0.6432(6)
H29 H 0.5163 0.4602 0.6284
H30 H 0.5416 0.4182 0.5288
C19 C 0.5291(2) 0.41586(8) 0.8364(6)
H31 H 0.4434 0.4105 0.8372
C20 C 0.59475(19) 0.37708(7) 0.8585(5)
H32 H 0.5724 0.3643 0.9861
H33 H 0.5737 0.3593 0.7469
C21 C 0.7550(2) 0.41223(6) 1.0291(4)
H34 H 0.8397 0.4178 1.0294
H35 H 0.7349 0.3996 1.1581
C22 C 0.6871(3) 0.45086(7) 1.0084(4)
H36 H 0.7064 0.4683 1.1243
C23 C 0.7204(3) 0.47116(8) 0.8159(5)
H37 H 0.8048 0.4770 0.8155
H38 H 0.6773 0.4962 0.8031
C24 C 0.5588(3) 0.44220(8) 1.0100(5)
H39 H 0.5142 0.4669 0.9995
H40 H 0.5373 0.4292 1.1376
C25 C 0.79676(17) 0.34639(6) 0.8721(3)
H41 H 0.8814 0.3533 0.8745
C26 C 0.7697(2) 0.32262(6) 1.0582(4)
H42 H 0.7829 0.3391 1.1783
H43 H 0.6865 0.3151 1.0563
C27 C 0.7977(2) 0.25174(7) 1.0530(3)
C28 C 0.8816(3) 0.21849(7) 1.0766(4)
H44 H 0.8772 0.2014 0.9588
H45 H 0.8618 0.2035 1.1971
H46 H 0.9609 0.2289 1.0894
loop_
_geom_bond_atom_site_label_1
_geom_bond_atom_site_label_2
_geom_bond_site_symmetry_1
_geom_bond_site_symmetry_2
O1 H1 1_555 1_555
O2 C13 1_555 1_555
N1 H2 1_555 1_555
C1 C2 1_555 1_555
C2 H3 1_555 1_555
H4 C2 1_555 1_555
C3 C2 1_555 1_555
H5 C3 1_555 1_555
C4 C3 1_555 1_555
H6 C4 1_555 1_555
H7 C4 1_555 1_555
C5 C4 1_555 1_555
H8 C5 1_555 1_555
C6 C1 1_555 1_555
H9 C6 1_555 1_555
H10 C6 1_555 1_555
C7 C1 1_555 1_555
H11 C7 1_555 1_555
H12 C7 1_555 1_555
C8 C7 1_555 1_555
H13 C8 1_555 1_555
C9 C3 1_555 1_555
H14 C9 1_555 1_555
H15 C9 1_555 1_555
C10 C5 1_555 1_555
H16 C10 1_555 1_555
H17 C10 1_555 1_555
C11 O1 1_555 1_555
H18 C11 1_555 1_555
C12 N1 1_555 1_555
H19 C12 1_555 1_555
H20 C12 1_555 1_555
C13 N1 1_555 1_555
C14 C13 1_555 1_555
H21 C14 1_555 1_555
H22 C14 1_555 1_555
H23 C14 1_555 1_555
O3 H24 1_555 1_555
O4 C27 1_555 1_555
N2 H25 1_555 1_555
C15 C16 1_555 1_555
C16 H26 1_555 1_555
H27 C16 1_555 1_555
C17 C16 1_555 1_555
H28 C17 1_555 1_555
C18 C17 1_555 1_555
H29 C18 1_555 1_555
H30 C18 1_555 1_555
C19 C18 1_555 1_555
H31 C19 1_555 1_555
C20 C15 1_555 1_555
H32 C20 1_555 1_555
H33 C20 1_555 1_555
C21 C15 1_555 1_555
H34 C21 1_555 1_555
H35 C21 1_555 1_555
C22 C21 1_555 1_555
H36 C22 1_555 1_555
C23 C17 1_555 1_555
H37 C23 1_555 1_555
H38 C23 1_555 1_555
C24 C19 1_555 1_555
H39 C24 1_555 1_555
H40 C24 1_555 1_555
C25 O3 1_555 1_555
H41 C25 1_555 1_555
C26 N2 1_555 1_555
H42 C26 1_555 1_555
H43 C26 1_555 1_555
C27 N2 1_555 1_555
C28 C27 1_555 1_555
H44 C28 1_555 1_555
H45 C28 1_555 1_555
H46 C28 1_555 1_555
C1 C11 1_555 1_555
C5 C6 1_555 1_555
C8 C9 1_555 1_555
C8 C10 1_555 1_555
C11 C12 1_555 1_555
C15 C25 1_555 1_555
C19 C20 1_555 1_555
C22 C23 1_555 1_555
C22 C24 1_555 1_555
C25 C26 1_555 1_555

#END
