
#######################################################################
#
#                 Cambridge Crystallographic Data Centre
#                                CCDC 
#
#######################################################################
#
# If this CIF has been generated from an entry in the Cambridge 
# Structural Database, then it will include bibliographic, chemical, 
# crystal, experimental, refinement or atomic coordinate data resulting 
# from the CCDC's data processing and validation procedures.
#
#######################################################################

data_JUYZIM01
_chemical_formula_moiety         'C14 H12 S2'
_chemical_name_systematic        1,9-Dithia(2.2)metacyclophane
_symmetry_cell_setting           monoclinic
_symmetry_space_group_name_H-M   'P 21/n'
_symmetry_Int_Tables_number      14
_space_group_name_Hall           '-P 2yn'
loop_
_symmetry_equiv_pos_site_id
_symmetry_equiv_pos_as_xyz
1 x,y,z
2 1/2+x,1/2-y,1/2+z
3 -x,-y,-z
4 1/2-x,1/2+y,1/2-z
_cell_length_a                   5.162(1)
_cell_length_b                   13.921(1)
_cell_length_c                   8.099(1)
_cell_angle_alpha                90
_cell_angle_beta                 101.36(1)
_cell_angle_gamma                90
_cell_volume                     570.594
_exptl_crystal_colour            colorless
_exptl_crystal_description       blocks
_cell_formula_units_Z            2
loop_
_atom_site_label
_atom_site_type_symbol
_atom_site_fract_x
_atom_site_fract_y
_atom_site_fract_z
S1 S 0.13221(8) 0.43955(3) 0.20820(5)
C1 C 0.3861(3) 0.35063(11) 0.30079(18)
H1 H 0.3193 0.2864 0.2721
H2 H 0.5424 0.3596 0.2528
C2 C 0.4605(3) 0.35983(10) 0.48885(18)
C3 C 0.3106(3) 0.31730(11) 0.59385(19)
H3 H 0.1803 0.2730 0.5500
C4 C 0.3540(3) 0.34053(12) 0.7633(2)
H4 H 0.2593 0.3092 0.8337
C5 C 0.5368(3) 0.40982(11) 0.82842(19)
H5 H 0.5598 0.4270 0.9414
C6 C 0.3133(3) 0.54599(10) 0.27496(19)
C7 C 0.6581(3) 0.42453(10) 0.55818(19)
H6 H 0.7721 0.4483 0.4922
C6B C 0.6867(3) 0.45401(10) 0.72504(19)
S1B S 0.86779(8) 0.56045(3) 0.79180(5)
C1B C 0.6139(3) 0.64937(11) 0.69921(18)
H1B H 0.6807 0.7136 0.7279
H2B H 0.4576 0.6404 0.7472
C2B C 0.5395(3) 0.64017(10) 0.51115(18)
C3B C 0.6894(3) 0.68270(11) 0.40615(19)
H3B H 0.8197 0.7270 0.4500
C4B C 0.6460(3) 0.65947(12) 0.2367(2)
H4B H 0.7407 0.6908 0.1663
C5B C 0.4632(3) 0.59018(11) 0.17158(19)
H5B H 0.4402 0.5730 0.0586
C7B C 0.3419(3) 0.57547(10) 0.44182(19)
H6B H 0.2279 0.5517 0.5078
loop_
_geom_bond_atom_site_label_1
_geom_bond_atom_site_label_2
_geom_bond_site_symmetry_1
_geom_bond_site_symmetry_2
S1 C1 1_555 1_555
C1 H1 1_555 1_555
H2 C1 1_555 1_555
C2 C1 1_555 1_555
C3 C2 1_555 1_555
H3 C3 1_555 1_555
C4 C3 1_555 1_555
H4 C4 1_555 1_555
C5 C4 1_555 1_555
H5 C5 1_555 1_555
C6 S1 1_555 1_555
C7 C2 1_555 1_555
H6 C7 1_555 1_555
C6B C5 1_555 1_555
S1B C6B 1_555 1_555
C1B S1B 1_555 1_555
H1B C1B 1_555 1_555
H2B C1B 1_555 1_555
C2B C1B 1_555 1_555
C3B C2B 1_555 1_555
H3B C3B 1_555 1_555
C4B C3B 1_555 1_555
H4B C4B 1_555 1_555
C5B C6 1_555 1_555
H5B C5B 1_555 1_555
C7B C6 1_555 1_555
H6B C7B 1_555 1_555
C7 C6B 1_555 1_555
C2B C7B 1_555 1_555
C4B C5B 1_555 1_555

#END
