
#######################################################################
#
#                 Cambridge Crystallographic Data Centre
#                                CCDC 
#
#######################################################################
#
# If this CIF has been generated from an entry in the Cambridge 
# Structural Database, then it will include bibliographic, chemical, 
# crystal, experimental, refinement or atomic coordinate data resulting 
# from the CCDC's data processing and validation procedures.
#
#######################################################################

data_KABFIF
_chemical_formula_moiety         'C17 H15 N1 O5 S1'
_chemical_name_systematic        
2-(5,5-Dioxido-2,3-dihydro-10bH-[1,3]oxazolo[3,2-c][1,2,3]benzoxathiazin-3-yl)-1-phenylethanone
_symmetry_cell_setting           triclinic
_symmetry_space_group_name_H-M   'P -1'
_symmetry_Int_Tables_number      2
_space_group_name_Hall           '-P 1'
loop_
_symmetry_equiv_pos_site_id
_symmetry_equiv_pos_as_xyz
1 x,y,z
2 -x,-y,-z
_cell_length_a                   5.5551(8)
_cell_length_b                   10.9164(15)
_cell_length_c                   13.9058(18)
_cell_angle_alpha                74.700(12)
_cell_angle_beta                 81.333(11)
_cell_angle_gamma                78.918(12)
_cell_volume                     793.752
_cell_formula_units_Z            2
loop_
_atom_site_label
_atom_site_type_symbol
_atom_site_fract_x
_atom_site_fract_y
_atom_site_fract_z
S1 S 0.52472(12) 0.92441(6) 0.67829(5)
O1 O 0.7229(3) 1.00124(16) 0.60542(12)
O2 O 0.2908(4) 0.9734(2) 0.64337(16)
O3 O 0.6305(4) 0.79390(18) 0.68865(15)
O4 O 0.5059(4) 1.11992(18) 0.86311(13)
O5 O 1.0717(3) 0.80956(17) 0.97762(13)
N1 N 0.5175(3) 0.96560(19) 0.78210(14)
C1 C 0.5725(7) 1.3136(3) 0.6731(2)
H1 H 0.4874 1.3509 0.7239
C2 C 0.6906(9) 1.3879(3) 0.5916(3)
H2 H 0.6831 1.4752 0.5865
C3 C 0.8212(8) 1.3322(4) 0.5170(3)
H3 H 0.9059 1.3820 0.4625
C4 C 0.8274(6) 1.2038(3) 0.5221(2)
H4 H 0.9129 1.1668 0.4713
C5 C 0.7043(5) 1.1318(2) 0.60422(17)
C6 C 0.5772(5) 1.1839(2) 0.68147(17)
C7 C 0.4438(5) 1.1052(3) 0.77324(19)
H5 H 0.2651 1.1288 0.7706
C8 C 0.7369(5) 1.0387(2) 0.88131(19)
H6 H 0.7544 1.0127 0.9525
H7 H 0.8724 1.0834 0.8470
C9 C 0.7357(4) 0.9210(2) 0.84052(16)
H8 H 0.8865 0.9052 0.7959
C10 C 0.6974(4) 0.7993(2) 0.92027(16)
H9 H 0.5407 0.8151 0.9600
H10 H 0.6888 0.7320 0.8878
C11 C 0.8983(4) 0.7528(2) 0.98891(16)
C12 C 0.8804(4) 0.6347(2) 1.07143(17)
C13 C 0.7064(4) 0.5561(2) 1.07785(18)
H11 H 0.5934 0.5782 1.0307
C14 C 0.7004(5) 0.4453(2) 1.15393(19)
H12 H 0.5839 0.3931 1.1572
C15 C 0.8635(5) 0.4119(3) 1.2241(2)
H13 H 0.8591 0.3371 1.2750
C16 C 1.0350(5) 0.4898(3) 1.2191(2)
H14 H 1.1461 0.4676 1.2670
C17 C 1.0437(5) 0.6003(3) 1.14379(19)
H15 H 1.1600 0.6523 1.1414
loop_
_geom_bond_atom_site_label_1
_geom_bond_atom_site_label_2
_geom_bond_site_symmetry_1
_geom_bond_site_symmetry_2
S1 O1 1_555 1_555
O1 C5 1_555 1_555
O2 S1 1_555 1_555
O3 S1 1_555 1_555
O4 C7 1_555 1_555
O5 C11 1_555 1_555
N1 S1 1_555 1_555
C1 H1 1_555 1_555
C2 C1 1_555 1_555
H2 C2 1_555 1_555
C3 C2 1_555 1_555
H3 C3 1_555 1_555
C4 C3 1_555 1_555
H4 C4 1_555 1_555
C5 C4 1_555 1_555
C6 C1 1_555 1_555
C7 N1 1_555 1_555
H5 C7 1_555 1_555
C8 O4 1_555 1_555
H6 C8 1_555 1_555
H7 C8 1_555 1_555
C9 N1 1_555 1_555
H8 C9 1_555 1_555
C10 C9 1_555 1_555
H9 C10 1_555 1_555
H10 C10 1_555 1_555
C11 C10 1_555 1_555
C12 C11 1_555 1_555
C13 C12 1_555 1_555
H11 C13 1_555 1_555
C14 C13 1_555 1_555
H12 C14 1_555 1_555
C15 C14 1_555 1_555
H13 C15 1_555 1_555
C16 C15 1_555 1_555
H14 C16 1_555 1_555
C17 C12 1_555 1_555
H15 C17 1_555 1_555
C5 C6 1_555 1_555
C6 C7 1_555 1_555
C8 C9 1_555 1_555
C16 C17 1_555 1_555

#END
