
#######################################################################
#
#                 Cambridge Crystallographic Data Centre
#                                CCDC 
#
#######################################################################
#
# If this CIF has been generated from an entry in the Cambridge 
# Structural Database, then it will include bibliographic, chemical, 
# crystal, experimental, refinement or atomic coordinate data resulting 
# from the CCDC's data processing and validation procedures.
#
#######################################################################

data_KABGUS
_chemical_formula_moiety         'C13 H12 N2 O2'
_chemical_name_systematic        
5,5-Dimethyl-4-oxo-2-(1-vinyl-1H-pyrrol-2-yl)-4,5-dihydrofuran-3-carbonitrile
_symmetry_cell_setting           monoclinic
_symmetry_space_group_name_H-M   'P 21/c'
_symmetry_Int_Tables_number      14
_space_group_name_Hall           '-P 2ybc'
loop_
_symmetry_equiv_pos_site_id
_symmetry_equiv_pos_as_xyz
1 x,y,z
2 -x,1/2+y,1/2-z
3 -x,-y,-z
4 x,1/2-y,1/2+z
_cell_length_a                   7.1555(7)
_cell_length_b                   10.2325(9)
_cell_length_c                   16.1111(18)
_cell_angle_alpha                90
_cell_angle_beta                 90.000(3)
_cell_angle_gamma                90
_cell_volume                     1179.63
_exptl_crystal_colour            yellow
_exptl_crystal_description       prism
_chemical_melting_point          '453 K'
_cell_formula_units_Z            4
_exptl_crystal_recrystallization_method acetonitrile
loop_
_atom_site_label
_atom_site_type_symbol
_atom_site_fract_x
_atom_site_fract_y
_atom_site_fract_z
N1 N 0.2500(3) -0.04273(18) 0.02630(14)
C1 C 0.2502(4) 0.3624(2) 0.11004(15)
N2 N 0.2498(4) 0.3520(2) -0.19135(15)
C2 C 0.0741(4) 0.3924(3) 0.15796(17)
H1 H -0.0329 0.3732 0.1241
H2 H 0.0728 0.4832 0.1729
H3 H 0.0703 0.3400 0.2073
C3 C 0.4254(4) 0.3923(3) 0.15804(17)
H4 H 0.5326 0.3729 0.1244
H5 H 0.4287 0.3400 0.2075
H6 H 0.4267 0.4832 0.1729
C4 C 0.2501(4) 0.3180(2) -0.03411(15)
C5 C 0.2499(4) -0.0561(3) 0.11376(18)
H7 H 0.2498 0.0202 0.1451
C6 C 0.2504(4) -0.1006(3) -0.10623(19)
H8 H 0.2509 -0.1513 -0.1541
C7 C 0.2500(4) 0.0346(2) -0.10267(17)
H9 H 0.2497 0.0907 -0.1481
C8 C 0.2501(4) 0.3345(2) -0.12139(19)
C9 C 0.2501(5) -0.1648(3) 0.1533(2)
H10 H 0.2503 -0.2433 0.1242
H11 H 0.2500 -0.1651 0.2110
C10 C 0.2500(3) 0.0719(2) -0.02110(15)
O1 O 0.2497(3) 0.22158(14) 0.09180(10)
C11 C 0.2502(3) 0.2029(2) 0.00997(15)
O2 O 0.2498(3) 0.54193(16) 0.01168(11)
C12 C 0.2499(4) -0.1454(2) -0.02719(19)
H12 H 0.2497 -0.2330 -0.0118
C13 C 0.2503(4) 0.4238(2) 0.02450(16)
loop_
_geom_bond_atom_site_label_1
_geom_bond_atom_site_label_2
_geom_bond_site_symmetry_1
_geom_bond_site_symmetry_2
N1 C5 1_555 1_555
C1 C2 1_555 1_555
N2 C8 1_555 1_555
C2 H1 1_555 1_555
H2 C2 1_555 1_555
H3 C2 1_555 1_555
C3 C1 1_555 1_555
H4 C3 1_555 1_555
H5 C3 1_555 1_555
H6 C3 1_555 1_555
C4 C8 1_555 1_555
C5 H7 1_555 1_555
C6 H8 1_555 1_555
C7 C6 1_555 1_555
H9 C7 1_555 1_555
C9 C5 1_555 1_555
H10 C9 1_555 1_555
H11 C9 1_555 1_555
C10 N1 1_555 1_555
O1 C1 1_555 1_555
C11 C4 1_555 1_555
O2 C13 1_555 1_555
C12 N1 1_555 1_555
H12 C12 1_555 1_555
C13 C1 1_555 1_555
C4 C13 1_555 1_555
C6 C12 1_555 1_555
C7 C10 1_555 1_555
C10 C11 1_555 1_555
O1 C11 1_555 1_555

#END
