
#######################################################################
#
#                 Cambridge Crystallographic Data Centre
#                                CCDC 
#
#######################################################################
#
# If this CIF has been generated from an entry in the Cambridge 
# Structural Database, then it will include bibliographic, chemical, 
# crystal, experimental, refinement or atomic coordinate data resulting 
# from the CCDC's data processing and validation procedures.
#
#######################################################################

data_KABQEM
_chemical_formula_moiety         'C56 H68 B4 Ba1 N2 O2 P4,C4 H8 O1'
_chemical_name_systematic        
'bis(bis(Diphenyl(trihydridoboranidyl)phosphonio)amino)-bis(tetrahydrofuran)-barium tetrahydrofuran solvate'
_symmetry_cell_setting           monoclinic
_symmetry_space_group_name_H-M   'P 21/c'
_symmetry_Int_Tables_number      14
_space_group_name_Hall           '-P 2ybc'
loop_
_symmetry_equiv_pos_site_id
_symmetry_equiv_pos_as_xyz
1 x,y,z
2 -x,1/2+y,1/2-z
3 -x,-y,-z
4 x,1/2-y,1/2+z
_cell_length_a                   18.7605(17)
_cell_length_b                   14.7581(4)
_cell_length_c                   23.1357(12)
_cell_angle_alpha                90
_cell_angle_beta                 105.896(7)
_cell_angle_gamma                90
_cell_volume                     6160.62
_exptl_crystal_colour            colorless
_exptl_crystal_description       chunk
_cell_formula_units_Z            4
loop_
_atom_site_label
_atom_site_type_symbol
_atom_site_fract_x
_atom_site_fract_y
_atom_site_fract_z
Ba1 Ba 0.23119(2) 0.46522(2) 0.09213(2)
P1 P 0.23944(3) 0.21929(4) 0.12139(3)
P2 P 0.14445(3) 0.32450(4) 0.18733(3)
P3 P 0.33017(3) 0.62981(4) 0.20329(3)
P4 P 0.21063(3) 0.71463(4) 0.10165(3)
O1 O 0.14281(11) 0.41285(15) -0.01685(9)
O2 O 0.32707(15) 0.50492(18) 0.02202(12)
N1 N 0.20090(11) 0.30310(13) 0.14690(9)
N2 N 0.26307(11) 0.63634(13) 0.14159(9)
B1 B 0.31062(17) 0.2670(2) 0.08364(15)
B2 B 0.10217(19) 0.4423(2) 0.16457(17)
B3 B 0.36619(18) 0.5073(2) 0.21256(16)
B4 B 0.14592(18) 0.6568(2) 0.03251(15)
C1 C 0.28227(14) 0.13644(17) 0.17860(11)
C2 C 0.35882(15) 0.13905(19) 0.20398(13)
H1 H 0.3872 0.1817 0.1905
C3 C 0.39314(18) 0.0788(2) 0.24906(14)
H2 H 0.4442 0.0808 0.2656
C4 C 0.35104(19) 0.0157(2) 0.26930(13)
H3 H 0.3739 -0.0247 0.2996
C5 C 0.27506(18) 0.0125(2) 0.24464(13)
H4 H 0.2470 -0.0300 0.2584
C6 C 0.24062(15) 0.07242(18) 0.19942(12)
H5 H 0.1895 0.0698 0.1829
C7 C 0.17027(13) 0.15388(17) 0.06608(11)
C8 C 0.18812(16) 0.06860(19) 0.04834(12)
H6 H 0.2341 0.0433 0.0668
C9 C 0.13775(19) 0.02104(19) 0.00331(13)
H7 H 0.1503 -0.0357 -0.0084
C10 C 0.06935(17) 0.0578(2) -0.02398(13)
H8 H 0.0353 0.0253 -0.0534
C11 C 0.05143(16) 0.1427(2) -0.00761(14)
H9 H 0.0055 0.1679 -0.0265
C12 C 0.10201(14) 0.1911(2) 0.03723(13)
H10 H 0.0898 0.2487 0.0478
C13 C 0.07234(14) 0.23896(18) 0.18101(12)
C14 C 0.00738(15) 0.2448(2) 0.13377(13)
H11 H 0.0008 0.2933 0.1071
C15 C -0.04735(16) 0.1790(2) 0.12622(15)
H12 H -0.0896 0.1827 0.0940
C16 C -0.03914(17) 0.1086(2) 0.16628(16)
H13 H -0.0759 0.0646 0.1610
C17 C 0.02339(17) 0.1028(2) 0.21427(15)
H14 H 0.0281 0.0560 0.2419
C18 C 0.07963(15) 0.16725(18) 0.22136(13)
H15 H 0.1222 0.1623 0.2532
C19 C 0.19210(14) 0.32408(17) 0.26733(11)
C20 C 0.26416(15) 0.2938(2) 0.29082(12)
H16 H 0.2908 0.2724 0.2651
C21 C 0.29704(17) 0.2953(3) 0.35262(13)
H17 H 0.3451 0.2736 0.3680
C22 C 0.25878(18) 0.3286(3) 0.39123(14)
H18 H 0.2807 0.3292 0.4325
C23 C 0.18810(19) 0.3607(3) 0.36822(14)
H19 H 0.1624 0.3844 0.3939
C24 C 0.15465(17) 0.3582(2) 0.30678(13)
H20 H 0.1065 0.3796 0.2918
C25 C 0.29852(13) 0.66727(18) 0.26710(11)
C26 C 0.27662(16) 0.6012(2) 0.30194(13)
H21 H 0.2836 0.5402 0.2951
C27 C 0.24425(19) 0.6269(3) 0.34706(15)
H22 H 0.2295 0.5827 0.3700
C28 C 0.23408(18) 0.7167(3) 0.35778(14)
H23 H 0.2126 0.7330 0.3880
C29 C 0.25558(16) 0.7827(2) 0.32403(13)
H24 H 0.2487 0.8435 0.3315
C30 C 0.28764(15) 0.7583(2) 0.27870(12)
H25 H 0.3020 0.8031 0.2559
C31 C 0.40669(13) 0.70374(17) 0.19992(11)
C32 C 0.44510(14) 0.75944(18) 0.24705(12)
H26 H 0.4316 0.7602 0.2828
C33 C 0.50330(15) 0.8137(2) 0.24103(14)
H27 H 0.5277 0.8516 0.2724
C34 C 0.52483(15) 0.8115(2) 0.18890(14)
H28 H 0.5634 0.8483 0.1847
C35 C 0.48880(16) 0.7543(2) 0.14244(14)
H29 H 0.5042 0.7517 0.1075
C36 C 0.43021(14) 0.70122(19) 0.14771(12)
H30 H 0.4063 0.6635 0.1162
C37 C 0.26703(14) 0.80424(17) 0.08237(11)
C38 C 0.30591(14) 0.86656(17) 0.12447(12)
H31 H 0.2993 0.8670 0.1629
C39 C 0.35454(15) 0.92815(19) 0.11012(13)
H32 H 0.3805 0.9690 0.1389
C40 C 0.36410(18) 0.9284(2) 0.05301(15)
H33 H 0.3967 0.9692 0.0432
C41 C 0.3251(2) 0.8677(2) 0.01042(15)
H34 H 0.3312 0.8681 -0.0281
C42 C 0.27661(17) 0.8061(2) 0.02505(13)
H35 H 0.2504 0.7658 -0.0039
C43 C 0.15457(13) 0.77131(17) 0.14399(11)
C44 C 0.12706(14) 0.72217(19) 0.18423(12)
H36 H 0.1394 0.6613 0.1908
C45 C 0.08144(15) 0.7625(2) 0.21479(14)
H37 H 0.0637 0.7291 0.2420
C46 C 0.06241(15) 0.8532(2) 0.20462(14)
H38 H 0.0325 0.8809 0.2255
C47 C 0.08793(15) 0.9020(2) 0.16359(14)
H39 H 0.0742 0.9624 0.1562
C48 C 0.13388(14) 0.86191(18) 0.13320(12)
H40 H 0.1509 0.8953 0.1056
C49 C 0.06521(18) 0.4347(3) -0.03940(16)
H41 H 0.0589 0.4988 -0.0488
H42 H 0.0391 0.4202 -0.0097
C50 C 0.0363(2) 0.3798(3) -0.09428(17)
H43 H 0.0184 0.3215 -0.0849
H44 H -0.0034 0.4111 -0.1231
C51 C 0.1646(2) 0.3601(4) -0.06159(17)
H45 H 0.1721 0.2972 -0.0494
H46 H 0.2102 0.3835 -0.0680
C52 C 0.1019(3) 0.3693(5) -0.11729(19)
H47 H 0.1085 0.4219 -0.1404
H48 H 0.0976 0.3157 -0.1423
C53 C 0.3947(3) 0.4597(4) 0.0264(3)
H49 H 0.3975 0.4036 0.0487
H50 H 0.4366 0.4976 0.0459
C54 C 0.303(2) 0.549(3) -0.0372(13)
H51 H 0.2517 0.5350 -0.0566
H52 H 0.3090 0.6138 -0.0332
C55 C 0.3932(3) 0.4416(5) -0.0373(4)
H53 H 0.3508 0.4058 -0.0588
H54 H 0.4388 0.4152 -0.0416
C56 C 0.3499(13) 0.5129(16) -0.0719(7)
H55 H 0.3198 0.4895 -0.1100
H56 H 0.3819 0.5600 -0.0798
H57 H 0.2784(16) 0.306(2) 0.0454(13)
H58 H 0.3485(16) 0.310(2) 0.1162(13)
H59 H 0.3400(17) 0.211(2) 0.0682(13)
H60 H 0.0795(17) 0.442(2) 0.1152(14)
H61 H 0.1526(19) 0.493(2) 0.1813(15)
H62 H 0.0612(17) 0.457(2) 0.1859(14)
H63 H 0.3206(18) 0.462(2) 0.2149(14)
H64 H 0.3836(17) 0.493(2) 0.1708(14)
H65 H 0.4114(17) 0.504(2) 0.2541(14)
H66 H 0.1793(18) 0.622(2) 0.0103(14)
H67 H 0.1159(16) 0.607(2) 0.0516(13)
H68 H 0.1074(17) 0.707(2) 0.0063(14)
O3 O 0.5037(4) 0.7641(5) 0.9840(3)
C57 C 0.4867(2) 0.9297(3) 0.9544(3)
H69 H 0.5131 0.9868 0.9572
H70 H 0.4377 0.9397 0.9597
C58 C 0.4842(4) 0.8774(6) 0.8959(4)
H71 H 0.4433 0.8979 0.8630
H72 H 0.5301 0.8852 0.8848
C59 C 0.4740(3) 0.7813(5) 0.9109(2)
H73 H 0.5011 0.7424 0.8905
H74 H 0.4219 0.7656 0.8968
C60 C 0.5273(3) 0.8632(4) 0.9939(3)
H75 H 0.5264 0.8796 1.0343
H76 H 0.5785 0.8672 0.9927
C61? C 0.330(2) 0.5750(18) -0.0190(15)
H77? H 0.3425 0.6310 0.0034
H78? H 0.2806 0.5825 -0.0461
C62? C 0.384(2) 0.561(3) -0.0562(18)
H79? H 0.4297 0.5948 -0.0414
H80? H 0.3624 0.5723 -0.0988
loop_
_geom_bond_atom_site_label_1
_geom_bond_atom_site_label_2
_geom_bond_site_symmetry_1
_geom_bond_site_symmetry_2
Ba1 O1 1_555 1_555
P1 N1 1_555 1_555
P2 N1 1_555 1_555
P3 N2 1_555 1_555
P4 N2 1_555 1_555
O1 C49 1_555 1_555
O2 Ba1 1_555 1_555
N1 Ba1 1_555 1_555
N2 Ba1 1_555 1_555
B1 P1 1_555 1_555
B2 P2 1_555 1_555
B3 P3 1_555 1_555
B4 P4 1_555 1_555
C1 P1 1_555 1_555
C2 C1 1_555 1_555
H1 C2 1_555 1_555
C3 C2 1_555 1_555
H2 C3 1_555 1_555
C4 C3 1_555 1_555
H3 C4 1_555 1_555
C5 C4 1_555 1_555
H4 C5 1_555 1_555
C6 C1 1_555 1_555
H5 C6 1_555 1_555
C7 P1 1_555 1_555
C8 C7 1_555 1_555
H6 C8 1_555 1_555
C9 C8 1_555 1_555
H7 C9 1_555 1_555
C10 C9 1_555 1_555
H8 C10 1_555 1_555
C11 C10 1_555 1_555
H9 C11 1_555 1_555
C12 C7 1_555 1_555
H10 C12 1_555 1_555
C13 P2 1_555 1_555
C14 C13 1_555 1_555
H11 C14 1_555 1_555
C15 C14 1_555 1_555
H12 C15 1_555 1_555
C16 C15 1_555 1_555
H13 C16 1_555 1_555
C17 C16 1_555 1_555
H14 C17 1_555 1_555
C18 C13 1_555 1_555
H15 C18 1_555 1_555
C19 P2 1_555 1_555
C20 C19 1_555 1_555
H16 C20 1_555 1_555
C21 C20 1_555 1_555
H17 C21 1_555 1_555
C22 C21 1_555 1_555
H18 C22 1_555 1_555
C23 C22 1_555 1_555
H19 C23 1_555 1_555
C24 C19 1_555 1_555
H20 C24 1_555 1_555
C25 P3 1_555 1_555
C26 C25 1_555 1_555
H21 C26 1_555 1_555
C27 C26 1_555 1_555
H22 C27 1_555 1_555
C28 C27 1_555 1_555
H23 C28 1_555 1_555
C29 C28 1_555 1_555
H24 C29 1_555 1_555
C30 C25 1_555 1_555
H25 C30 1_555 1_555
C31 P3 1_555 1_555
C32 C31 1_555 1_555
H26 C32 1_555 1_555
C33 C32 1_555 1_555
H27 C33 1_555 1_555
C34 C33 1_555 1_555
H28 C34 1_555 1_555
C35 C34 1_555 1_555
H29 C35 1_555 1_555
C36 C31 1_555 1_555
H30 C36 1_555 1_555
C37 P4 1_555 1_555
C38 C37 1_555 1_555
H31 C38 1_555 1_555
C39 C38 1_555 1_555
H32 C39 1_555 1_555
C40 C39 1_555 1_555
H33 C40 1_555 1_555
C41 C40 1_555 1_555
H34 C41 1_555 1_555
C42 C37 1_555 1_555
H35 C42 1_555 1_555
C43 P4 1_555 1_555
C44 C43 1_555 1_555
H36 C44 1_555 1_555
C45 C44 1_555 1_555
H37 C45 1_555 1_555
C46 C45 1_555 1_555
H38 C46 1_555 1_555
C47 C46 1_555 1_555
H39 C47 1_555 1_555
C48 C43 1_555 1_555
H40 C48 1_555 1_555
C49 H41 1_555 1_555
H42 C49 1_555 1_555
C50 C49 1_555 1_555
H43 C50 1_555 1_555
H44 C50 1_555 1_555
C51 O1 1_555 1_555
H45 C51 1_555 1_555
H46 C51 1_555 1_555
C52 C50 1_555 1_555
H47 C52 1_555 1_555
H48 C52 1_555 1_555
C53 O2 1_555 1_555
H49 C53 1_555 1_555
H50 C53 1_555 1_555
C54 O2 1_555 1_555
H51 C54 1_555 1_555
H52 C54 1_555 1_555
C55 C53 1_555 1_555
H53 C55 1_555 1_555
H54 C55 1_555 1_555
C56 C54 1_555 1_555
H55 C56 1_555 1_555
H56 C56 1_555 1_555
H57 Ba1 1_555 1_555
H58 B1 1_555 1_555
H59 B1 1_555 1_555
H60 B2 1_555 1_555
H61 Ba1 1_555 1_555
H62 B2 1_555 1_555
H63 Ba1 1_555 1_555
H64 Ba1 1_555 1_555
H65 B3 1_555 1_555
H66 Ba1 1_555 1_555
H67 Ba1 1_555 1_555
H68 B4 1_555 1_555
O3 C59 1_555 1_555
C57 H69 1_555 1_555
H70 C57 1_555 1_555
C58 C57 1_555 1_555
H71 C58 1_555 1_555
H72 C58 1_555 1_555
C59 C58 1_555 1_555
H73 C59 1_555 1_555
H74 C59 1_555 1_555
C60 O3 1_555 1_555
H75 C60 1_555 1_555
H76 C60 1_555 1_555
B1 H57 1_555 1_555
B2 H61 1_555 1_555
B3 H63 1_555 1_555
B3 H64 1_555 1_555
B4 H66 1_555 1_555
B4 H67 1_555 1_555
C5 C6 1_555 1_555
C11 C12 1_555 1_555
C17 C18 1_555 1_555
C23 C24 1_555 1_555
C29 C30 1_555 1_555
C35 C36 1_555 1_555
C41 C42 1_555 1_555
C47 C48 1_555 1_555
C51 C52 1_555 1_555
C55 C56 1_555 1_555
C57 C60 1_555 1_555

#END
