
#######################################################################
#
#                 Cambridge Crystallographic Data Centre
#                                CCDC 
#
#######################################################################
#
# If this CIF has been generated from an entry in the Cambridge 
# Structural Database, then it will include bibliographic, chemical, 
# crystal, experimental, refinement or atomic coordinate data resulting 
# from the CCDC's data processing and validation procedures.
#
#######################################################################

data_KABSIS
_chemical_formula_moiety         'C30 H25 F1 N2 O3 S1'
_chemical_name_systematic        
N-(2-(5-Fluoro-1-methyl-1H-indol-3-yl)-3-phenyl-2,3-dihydro-1-benzofuran-5-yl)-4-methylbenzenesulfonamide
_symmetry_cell_setting           monoclinic
_symmetry_space_group_name_H-M   'P 21'
_symmetry_Int_Tables_number      4
_space_group_name_Hall           'P 2yb'
loop_
_symmetry_equiv_pos_site_id
_symmetry_equiv_pos_as_xyz
1 x,y,z
2 -x,1/2+y,-z
_cell_length_a                   5.552(3)
_cell_length_b                   17.133(8)
_cell_length_c                   13.413(6)
_cell_angle_alpha                90
_cell_angle_beta                 93.446(7)
_cell_angle_gamma                90
_cell_volume                     1273.57
_exptl_crystal_colour            colorless
_exptl_crystal_description       block
_cell_formula_units_Z            2
loop_
_atom_site_label
_atom_site_type_symbol
_atom_site_fract_x
_atom_site_fract_y
_atom_site_fract_z
S1 S 0.8434(3) 0.38637(10) 0.28725(13)
F1 F 1.4168(16) 0.3261(4) -0.3640(5)
O1 O 0.9524(8) 0.5285(3) -0.1588(3)
O2 O 0.5988(9) 0.3840(4) 0.2481(4)
O3 O 0.9125(13) 0.3374(4) 0.3699(4)
N1 N 1.0204(12) 0.3626(4) 0.1974(4)
H1 H 1.0169 0.3131 0.1867
N2 N 1.5401(14) 0.6409(5) -0.3428(5)
C1 C 1.1440(13) 0.5876(4) -0.1451(5)
H2 H 1.0708 0.6384 -0.1320
C2 C 1.3022(12) 0.5613(4) -0.0508(5)
H3 H 1.4420 0.5334 -0.0742
C3 C 1.1461(11) 0.5030(4) -0.0045(5)
C4 C 1.1646(13) 0.4631(4) 0.0859(5)
H4 H 1.2883 0.4750 0.1333
C5 C 0.9974(12) 0.4053(4) 0.1051(5)
C6 C 0.8129(12) 0.3876(5) 0.0339(5)
H5 H 0.7027 0.3485 0.0470
C7 C 0.7907(13) 0.4273(4) -0.0565(5)
H6 H 0.6688 0.4150 -0.1046
C8 C 0.9538(12) 0.4852(4) -0.0727(5)
C9 C 1.2795(13) 0.5931(5) -0.2367(5)
C10 C 1.3830(16) 0.6592(6) -0.2706(6)
H7 H 1.3522 0.7094 -0.2483
C11 C 1.685(2) 0.6982(8) -0.3928(9)
H8 H 1.8515 0.6919 -0.3710
H9 H 1.6325 0.7498 -0.3765
H10 H 1.6656 0.6906 -0.4637
C12 C 1.5376(15) 0.5612(5) -0.3575(5)
C13 C 1.668(2) 0.5144(8) -0.4199(7)
H11 H 1.7819 0.5359 -0.4601
C14 C 1.626(2) 0.4376(7) -0.4203(7)
H12 H 1.7088 0.4053 -0.4622
C15 C 1.4587(19) 0.4055(6) -0.3581(7)
C16 C 1.3327(15) 0.4489(5) -0.2935(5)
H13 H 1.2249 0.4259 -0.2519
C17 C 1.3728(13) 0.5290(5) -0.2929(5)
C18 C 1.3969(12) 0.6299(4) 0.0108(5)
C19 C 1.6036(16) 0.6673(6) -0.0172(8)
H14 H 1.6839 0.6485 -0.0711
C20 C 1.6917(19) 0.7320(6) 0.0340(10)
H15 H 1.8293 0.7569 0.0137
C21 C 1.578(2) 0.7599(6) 0.1144(9)
H16 H 1.6405 0.8031 0.1492
C22 C 1.3718(19) 0.7243(5) 0.1440(6)
H17 H 1.2937 0.7432 0.1985
C23 C 1.2816(17) 0.6595(5) 0.0913(5)
H18 H 1.1413 0.6356 0.1105
C24 C 0.9128(13) 0.4829(5) 0.3209(5)
C25 C 0.7710(16) 0.5437(5) 0.2860(6)
H19 H 0.6337 0.5347 0.2445
C26 C 0.838(2) 0.6202(5) 0.3146(7)
H20 H 0.7423 0.6615 0.2911
C27 C 1.0375(16) 0.6360(5) 0.3750(6)
C28 C 1.1775(16) 0.5740(7) 0.4064(7)
H21 H 1.3201 0.5834 0.4444
C29 C 1.1140(16) 0.4976(6) 0.3835(7)
H22 H 1.2064 0.4565 0.4101
C30 C 1.107(2) 0.7181(7) 0.4053(9)
H23 H 1.2664 0.7292 0.3850
H24 H 1.1046 0.7231 0.4765
H25 H 0.9946 0.7542 0.3737
loop_
_geom_bond_atom_site_label_1
_geom_bond_atom_site_label_2
_geom_bond_site_symmetry_1
_geom_bond_site_symmetry_2
S1 O2 1_555 1_555
F1 C15 1_555 1_555
O1 C1 1_555 1_555
O3 S1 1_555 1_555
N1 S1 1_555 1_555
H1 N1 1_555 1_555
N2 C10 1_555 1_555
C1 H2 1_555 1_555
C2 C1 1_555 1_555
H3 C2 1_555 1_555
C3 C2 1_555 1_555
C4 C3 1_555 1_555
H4 C4 1_555 1_555
C5 N1 1_555 1_555
C6 C5 1_555 1_555
H5 C6 1_555 1_555
C7 C6 1_555 1_555
H6 C7 1_555 1_555
C8 O1 1_555 1_555
C9 C1 1_555 1_555
C10 C9 1_555 1_555
H7 C10 1_555 1_555
C11 N2 1_555 1_555
H8 C11 1_555 1_555
H9 C11 1_555 1_555
H10 C11 1_555 1_555
C12 N2 1_555 1_555
C13 C12 1_555 1_555
H11 C13 1_555 1_555
C14 C13 1_555 1_555
H12 C14 1_555 1_555
C15 C14 1_555 1_555
C16 C15 1_555 1_555
H13 C16 1_555 1_555
C17 C9 1_555 1_555
C18 C2 1_555 1_555
C19 C18 1_555 1_555
H14 C19 1_555 1_555
C20 C19 1_555 1_555
H15 C20 1_555 1_555
C21 C20 1_555 1_555
H16 C21 1_555 1_555
C22 C21 1_555 1_555
H17 C22 1_555 1_555
C23 C18 1_555 1_555
H18 C23 1_555 1_555
C24 S1 1_555 1_555
C25 C24 1_555 1_555
H19 C25 1_555 1_555
C26 C25 1_555 1_555
H20 C26 1_555 1_555
C27 C26 1_555 1_555
C28 C27 1_555 1_555
H21 C28 1_555 1_555
C29 C24 1_555 1_555
H22 C29 1_555 1_555
C30 C27 1_555 1_555
H23 C30 1_555 1_555
H24 C30 1_555 1_555
H25 C30 1_555 1_555
C3 C8 1_555 1_555
C4 C5 1_555 1_555
C7 C8 1_555 1_555
C12 C17 1_555 1_555
C16 C17 1_555 1_555
C22 C23 1_555 1_555
C28 C29 1_555 1_555

#END
