
#######################################################################
#
#                 Cambridge Crystallographic Data Centre
#                                CCDC 
#
#######################################################################
#
# If this CIF has been generated from an entry in the Cambridge 
# Structural Database, then it will include bibliographic, chemical, 
# crystal, experimental, refinement or atomic coordinate data resulting 
# from the CCDC's data processing and validation procedures.
#
#######################################################################

data_KACQEL
_chemical_name_common            alpha,alpha'-bis(2-Methoxyphenoxy)-m-xylene
_chemical_formula_moiety         'C22 H22 O4'
_chemical_name_systematic        1,3-bis((2-Methoxyphenoxy)methyl)benzene
_symmetry_cell_setting           monoclinic
_symmetry_space_group_name_H-M   'P 21/c'
_symmetry_Int_Tables_number      14
_space_group_name_Hall           '-P 2ybc'
loop_
_symmetry_equiv_pos_site_id
_symmetry_equiv_pos_as_xyz
1 x,y,z
2 x,1/2-y,1/2+z
3 -x,-y,-z
4 -x,1/2+y,1/2-z
_cell_length_a                   8.5752(6)
_cell_length_b                   8.3814(9)
_cell_length_c                   25.275(3)
_cell_angle_alpha                90
_cell_angle_beta                 96.273(8)
_cell_angle_gamma                90
_cell_volume                     1805.69
_exptl_crystal_colour            colorless
_exptl_crystal_description       prism
_cell_formula_units_Z            4
_exptl_crystal_recrystallization_method acetonitrile
loop_
_atom_site_label
_atom_site_type_symbol
_atom_site_fract_x
_atom_site_fract_y
_atom_site_fract_z
O1 O 0.32095(10) 0.22559(10) 0.53536(3)
O2 O 0.50715(11) 0.45389(10) 0.56667(4)
O3 O 0.33421(10) 0.37066(10) 0.28820(3)
O4 O 0.08963(9) 0.23405(10) 0.31755(3)
C1 C 0.07896(14) 0.17722(14) 0.48286(5)
C2 C 0.07135(13) 0.14592(14) 0.42874(5)
H1 H 0.1490 0.0802 0.4157
C3 C -0.04819(13) 0.20910(14) 0.39311(5)
C4 C -0.16182(14) 0.30487(14) 0.41241(5)
H2 H -0.2440 0.3484 0.3885
C5 C -0.15564(15) 0.33716(15) 0.46658(5)
H3 H -0.2334 0.4027 0.4796
C6 C -0.03585(15) 0.27358(15) 0.50161(5)
H4 H -0.0319 0.2958 0.5386
C7 C 0.20736(15) 0.10397(15) 0.52020(5)
H5 H 0.1640 0.0614 0.5521
H6 H 0.2569 0.0151 0.5024
C8 C 0.44180(13) 0.18408(14) 0.57261(4)
C9 C 0.54306(14) 0.31003(14) 0.59022(5)
C10 C 0.66549(14) 0.28269(15) 0.62936(5)
H7 H 0.7333 0.3678 0.6415
C11 C 0.69020(14) 0.13034(16) 0.65118(5)
H8 H 0.7742 0.1123 0.6782
C12 C 0.59258(14) 0.00629(15) 0.63342(5)
H9 H 0.6101 -0.0974 0.6480
C13 C 0.46810(14) 0.03275(14) 0.59400(5)
H10 H 0.4012 -0.0531 0.5818
C14 C 0.62190(17) 0.57756(16) 0.57561(5)
H11 H 0.5882 0.6707 0.5539
H12 H 0.7228 0.5392 0.5658
H13 H 0.6334 0.6075 0.6133
C15 C 0.47345(16) 0.44477(18) 0.27410(6)
H14 H 0.5268 0.4995 0.3052
H15 H 0.4461 0.5223 0.2456
H16 H 0.5432 0.3634 0.2618
C16 C 0.24712(13) 0.28548(13) 0.24928(4)
C17 C 0.11298(13) 0.21016(13) 0.26544(4)
C18 C 0.01806(13) 0.11955(14) 0.22911(5)
H17 H -0.0726 0.0686 0.2397
C19 C 0.05556(14) 0.10311(15) 0.17700(5)
H18 H -0.0085 0.0391 0.1524
C20 C 0.18496(14) 0.17919(14) 0.16112(5)
H19 H 0.2087 0.1690 0.1254
C21 C 0.28130(13) 0.27129(14) 0.19727(5)
H20 H 0.3702 0.3241 0.1862
C22 C -0.05213(14) 0.17116(16) 0.33480(5)
H21 H -0.0577 0.0544 0.3291
H22 H -0.1449 0.2210 0.3146
loop_
_geom_bond_atom_site_label_1
_geom_bond_atom_site_label_2
_geom_bond_site_symmetry_1
_geom_bond_site_symmetry_2
O1 C7 1_555 1_555
O2 C9 1_555 1_555
O3 C15 1_555 1_555
O4 C17 1_555 1_555
C1 C2 1_555 1_555
C2 H1 1_555 1_555
C3 C2 1_555 1_555
C4 C3 1_555 1_555
H2 C4 1_555 1_555
C5 C4 1_555 1_555
H3 C5 1_555 1_555
C6 C1 1_555 1_555
H4 C6 1_555 1_555
C7 C1 1_555 1_555
H5 C7 1_555 1_555
H6 C7 1_555 1_555
C8 O1 1_555 1_555
C9 C8 1_555 1_555
C10 C9 1_555 1_555
H7 C10 1_555 1_555
C11 C10 1_555 1_555
H8 C11 1_555 1_555
C12 C11 1_555 1_555
H9 C12 1_555 1_555
C13 C8 1_555 1_555
H10 C13 1_555 1_555
C14 O2 1_555 1_555
H11 C14 1_555 1_555
H12 C14 1_555 1_555
H13 C14 1_555 1_555
C15 H14 1_555 1_555
H15 C15 1_555 1_555
H16 C15 1_555 1_555
C16 O3 1_555 1_555
C17 C16 1_555 1_555
C18 C17 1_555 1_555
H17 C18 1_555 1_555
C19 C18 1_555 1_555
H18 C19 1_555 1_555
C20 C19 1_555 1_555
H19 C20 1_555 1_555
C21 C16 1_555 1_555
H20 C21 1_555 1_555
C22 O4 1_555 1_555
H21 C22 1_555 1_555
H22 C22 1_555 1_555
C3 C22 1_555 1_555
C5 C6 1_555 1_555
C12 C13 1_555 1_555
C20 C21 1_555 1_555

#END
