
#######################################################################
#
#                 Cambridge Crystallographic Data Centre
#                                CCDC 
#
#######################################################################
#
# If this CIF has been generated from an entry in the Cambridge 
# Structural Database, then it will include bibliographic, chemical, 
# crystal, experimental, refinement or atomic coordinate data resulting 
# from the CCDC's data processing and validation procedures.
#
#######################################################################

data_KADCOJ
_chemical_formula_moiety         'C13 H9 N5 O1'
_chemical_name_systematic        
'2-Cyanobenzaldehyde (pyrazin-2-ylcarbonyl)hydrazone'
_symmetry_cell_setting           monoclinic
_symmetry_space_group_name_H-M   'P 21/c'
_symmetry_Int_Tables_number      14
_space_group_name_Hall           '-P 2ybc'
loop_
_symmetry_equiv_pos_site_id
_symmetry_equiv_pos_as_xyz
1 x,y,z
2 -x,1/2+y,1/2-z
3 -x,-y,-z
4 x,1/2-y,1/2+z
_cell_length_a                   3.6929(1)
_cell_length_b                   14.0385(4)
_cell_length_c                   22.1714(7)
_cell_angle_alpha                90
_cell_angle_beta                 94.1779(18)
_cell_angle_gamma                90
_cell_volume                     1146.37
_exptl_crystal_colour            colorless
_exptl_crystal_description       slab
_chemical_melting_point          '483-484 K'
_cell_formula_units_Z            4
_exptl_crystal_recrystallization_method ethanol
loop_
_atom_site_label
_atom_site_type_symbol
_atom_site_fract_x
_atom_site_fract_y
_atom_site_fract_z
O1 O 0.4558(3) 0.32748(9) 0.24736(6)
N1 N -0.0212(4) 0.54917(11) 0.34032(7)
N2 N 0.1393(4) 0.56270(11) 0.21853(7)
N3 N 0.3092(4) 0.40579(10) 0.15816(6)
H1 H 0.2243 0.4588 0.1413
N4 N 0.4161(4) 0.33267(10) 0.12268(7)
N5 N 0.1810(5) 0.45082(11) -0.07887(7)
C1 C 0.1900(4) 0.48186(12) 0.25064(8)
C2 C 0.1114(5) 0.47554(13) 0.31058(8)
H2 H 0.1531 0.4169 0.3313
C3 C -0.0699(5) 0.62953(13) 0.30860(8)
H3 H -0.1631 0.6839 0.3278
C4 C 0.0109(5) 0.63638(13) 0.24851(9)
H4 H -0.0264 0.6955 0.2281
C5 C 0.3336(4) 0.39691(12) 0.21932(8)
C6 C 0.3741(5) 0.34766(12) 0.06556(8)
H5 H 0.2770 0.4065 0.0506
C7 C 0.4766(4) 0.27372(12) 0.02338(8)
C8 C 0.4434(4) 0.28972(12) -0.03940(8)
C9 C 0.5401(5) 0.21919(13) -0.07987(8)
H6 H 0.5183 0.2309 -0.1222
C10 C 0.6676(5) 0.13242(13) -0.05787(8)
H7 H 0.7312 0.0840 -0.0851
C11 C 0.7027(5) 0.11607(13) 0.00401(8)
H8 H 0.7923 0.0565 0.0189
C12 C 0.6086(5) 0.18549(12) 0.04420(8)
H9 H 0.6340 0.1731 0.0864
C13 C 0.3014(5) 0.37942(13) -0.06210(8)
loop_
_geom_bond_atom_site_label_1
_geom_bond_atom_site_label_2
_geom_bond_site_symmetry_1
_geom_bond_site_symmetry_2
O1 C5 1_555 1_555
N1 C2 1_555 1_555
N2 C1 1_555 1_555
N3 H1 1_555 1_555
N4 N3 1_555 1_555
N5 C13 1_555 1_555
C1 C2 1_555 1_555
C2 H2 1_555 1_555
C3 N1 1_555 1_555
H3 C3 1_555 1_555
C4 N2 1_555 1_555
H4 C4 1_555 1_555
C5 N3 1_555 1_555
C6 N4 1_555 1_555
H5 C6 1_555 1_555
C7 C6 1_555 1_555
C8 C7 1_555 1_555
C9 C8 1_555 1_555
H6 C9 1_555 1_555
C10 C9 1_555 1_555
H7 C10 1_555 1_555
C11 C10 1_555 1_555
H8 C11 1_555 1_555
C12 C7 1_555 1_555
H9 C12 1_555 1_555
C13 C8 1_555 1_555
C1 C5 1_555 1_555
C3 C4 1_555 1_555
C11 C12 1_555 1_555

#END
