
#######################################################################
#
#                 Cambridge Crystallographic Data Centre
#                                CCDC 
#
#######################################################################
#
# If this CIF has been generated from an entry in the Cambridge 
# Structural Database, then it will include bibliographic, chemical, 
# crystal, experimental, refinement or atomic coordinate data resulting 
# from the CCDC's data processing and validation procedures.
#
#######################################################################

data_KAFCEA
_chemical_formula_moiety         'C25 H20 O1 S2'
_chemical_name_systematic        2-(p-Tolylthio)-2'-(phenoxy)diphenylsulfide
_symmetry_cell_setting           monoclinic
_symmetry_space_group_name_H-M   'P 21/c'
_symmetry_Int_Tables_number      14
_space_group_name_Hall           '-P 2ybc'
loop_
_symmetry_equiv_pos_site_id
_symmetry_equiv_pos_as_xyz
1 x,y,z
2 x,1/2-y,1/2+z
3 -x,-y,-z
4 -x,1/2+y,1/2-z
_cell_length_a                   8.9348(18)
_cell_length_b                   27.122(5)
_cell_length_c                   9.0333(18)
_cell_angle_alpha                90
_cell_angle_beta                 108.31(3)
_cell_angle_gamma                90
_cell_volume                     2078.21
_exptl_crystal_colour            colorless
_exptl_crystal_description       block
_cell_formula_units_Z            4
loop_
_atom_site_label
_atom_site_type_symbol
_atom_site_fract_x
_atom_site_fract_y
_atom_site_fract_z
S1 S 0.23608(6) 0.460587(19) 0.27021(7)
O1 O 0.24782(15) 0.29553(5) 0.15460(15)
C1 C -0.0108(2) 0.60700(7) 0.2903(2)
S2 S 0.41032(6) 0.384257(19) 0.11540(6)
C2 C 0.0207(2) 0.59246(7) 0.1565(2)
H1 H -0.0103 0.6127 0.0691
C3 C 0.0964(2) 0.54893(7) 0.1489(2)
H2 H 0.1134 0.5397 0.0563
C4 C 0.1477(2) 0.51864(7) 0.2791(2)
C5 C 0.1186(2) 0.53284(7) 0.4142(2)
H3 H 0.1527 0.5131 0.5028
C6 C 0.0390(2) 0.57619(8) 0.4184(2)
H4 H 0.0184 0.5849 0.5097
C7 C -0.0966(3) 0.65428(8) 0.2955(3)
H5 H -0.1071 0.6584 0.3973
H6 H -0.1994 0.6532 0.2191
H7 H -0.0383 0.6815 0.2733
C8 C 0.4159(2) 0.47756(7) 0.2413(2)
C9 C 0.4840(2) 0.52393(7) 0.2814(2)
H8 H 0.4376 0.5466 0.3309
C10 C 0.6197(2) 0.53656(8) 0.2484(2)
H9 H 0.6622 0.5679 0.2734
C11 C 0.6926(2) 0.50342(8) 0.1792(2)
H10 H 0.7831 0.5124 0.1557
C12 C 0.6307(2) 0.45662(8) 0.1447(2)
H11 H 0.6816 0.4338 0.1004
C13 C 0.4931(2) 0.44321(7) 0.17540(19)
C14 C 0.4439(2) 0.35280(7) 0.2945(2)
C15 C 0.5568(2) 0.36639(8) 0.4339(2)
H12 H 0.6204 0.3937 0.4360
C16 C 0.5754(3) 0.33986(9) 0.5686(3)
H13 H 0.6491 0.3499 0.6614
C17 C 0.4852(3) 0.29858(9) 0.5664(3)
H14 H 0.4985 0.2806 0.6573
C18 C 0.3754(3) 0.28394(8) 0.4294(3)
H15 H 0.3153 0.2558 0.4270
C19 C 0.3546(2) 0.31120(7) 0.2953(2)
C20 C 0.0875(2) 0.30009(7) 0.1356(2)
C21 C -0.0115(2) 0.27297(7) 0.0159(2)
H16 H 0.0293 0.2526 -0.0449
C22 C -0.1717(3) 0.27638(9) -0.0128(3)
H17 H -0.2395 0.2583 -0.0939
C23 C -0.2327(3) 0.30609(10) 0.0765(3)
H18 H -0.3411 0.3079 0.0571
C24 C -0.1329(3) 0.33321(8) 0.1949(3)
H19 H -0.1740 0.3537 0.2551
C25 C 0.0289(2) 0.33034(7) 0.2254(2)
H20 H 0.0966 0.3487 0.3057
loop_
_geom_bond_atom_site_label_1
_geom_bond_atom_site_label_2
_geom_bond_site_symmetry_1
_geom_bond_site_symmetry_2
S1 C4 1_555 1_555
O1 C19 1_555 1_555
C1 C2 1_555 1_555
S2 C13 1_555 1_555
C2 H1 1_555 1_555
C3 C2 1_555 1_555
H2 C3 1_555 1_555
C4 C3 1_555 1_555
C5 C4 1_555 1_555
H3 C5 1_555 1_555
C6 C1 1_555 1_555
H4 C6 1_555 1_555
C7 C1 1_555 1_555
H5 C7 1_555 1_555
H6 C7 1_555 1_555
H7 C7 1_555 1_555
C8 S1 1_555 1_555
C9 C8 1_555 1_555
H8 C9 1_555 1_555
C10 C9 1_555 1_555
H9 C10 1_555 1_555
C11 C10 1_555 1_555
H10 C11 1_555 1_555
C12 C11 1_555 1_555
H11 C12 1_555 1_555
C13 C8 1_555 1_555
C14 S2 1_555 1_555
C15 C14 1_555 1_555
H12 C15 1_555 1_555
C16 C15 1_555 1_555
H13 C16 1_555 1_555
C17 C16 1_555 1_555
H14 C17 1_555 1_555
C18 C17 1_555 1_555
H15 C18 1_555 1_555
C19 C14 1_555 1_555
C20 O1 1_555 1_555
C21 C20 1_555 1_555
H16 C21 1_555 1_555
C22 C21 1_555 1_555
H17 C22 1_555 1_555
C23 C22 1_555 1_555
H18 C23 1_555 1_555
C24 C23 1_555 1_555
H19 C24 1_555 1_555
C25 C20 1_555 1_555
H20 C25 1_555 1_555
C5 C6 1_555 1_555
C12 C13 1_555 1_555
C18 C19 1_555 1_555
C24 C25 1_555 1_555

#END
