
#######################################################################
#
#                 Cambridge Crystallographic Data Centre
#                                CCDC 
#
#######################################################################
#
# If this CIF has been generated from an entry in the Cambridge 
# Structural Database, then it will include bibliographic, chemical, 
# crystal, experimental, refinement or atomic coordinate data resulting 
# from the CCDC's data processing and validation procedures.
#
#######################################################################

data_KAFGOQ
_chemical_formula_moiety         'C56 Cl10 O1'
_chemical_name_systematic        decachloro-epoxy-C56fullerene
_symmetry_cell_setting           orthorhombic
_symmetry_space_group_name_H-M   'C m c m'
_symmetry_Int_Tables_number      63
_space_group_name_Hall           '-C 2n 2'
loop_
_symmetry_equiv_pos_site_id
_symmetry_equiv_pos_as_xyz
1 x,y,z
2 -x,-y,1/2+z
3 x,-y,-z
4 -x,y,1/2-z
5 1/2+x,1/2+y,z
6 1/2-x,1/2-y,1/2+z
7 1/2+x,1/2-y,-z
8 1/2-x,1/2+y,1/2-z
9 -x,-y,-z
10 x,y,1/2-z
11 -x,y,z
12 x,-y,1/2+z
13 1/2-x,1/2-y,-z
14 1/2+x,1/2+y,1/2-z
15 1/2-x,1/2+y,z
16 1/2+x,1/2-y,1/2+z
_cell_length_a                   18.6824(15)
_cell_length_b                   13.3999(12)
_cell_length_c                   13.9329(10)
_cell_angle_alpha                90
_cell_angle_beta                 90
_cell_angle_gamma                90
_cell_volume                     3487.99
_exptl_crystal_description       Block
_cell_formula_units_Z            4
loop_
_atom_site_label
_atom_site_type_symbol
_atom_site_fract_x
_atom_site_fract_y
_atom_site_fract_z
Cl1 Cl 0.67122(4) 0.85845(6) 0.56137(6)
Cl2 Cl 0.76688(4) 0.91413(6) 0.38455(6)
Cl3 Cl 0.5000 0.72603(9) 0.63540(9)
C1 C 0.5372(2) 0.5105(3) 0.2500
C2 C 0.5000 0.9611(3) 0.3019(3)
C3 C 0.56459(17) 0.9366(2) 0.3499(2)
C4 C 0.68255(18) 0.8599(2) 0.3566(3)
C5 C 0.63609(17) 0.8260(2) 0.4466(2)
C6 C 0.63884(17) 0.5963(2) 0.3016(3)
C7 C 0.57584(18) 0.5444(2) 0.3337(3)
C8 C 0.69040(16) 0.7643(2) 0.2990(3)
C9 C 0.63299(17) 0.9298(2) 0.3010(3)
C10 C 0.62524(18) 0.7146(3) 0.4340(2)
C11 C 0.56350(17) 0.6687(2) 0.4628(2)
C12 C 0.5000 0.7258(3) 0.5061(4)
C13 C 0.66212(16) 0.6808(2) 0.3508(3)
C14 C 0.5000 0.8326(3) 0.4649(3)
C15 C 0.53871(18) 0.5822(2) 0.4129(3)
C16 C 0.56368(17) 0.8738(2) 0.4301(2)
O1 O 0.6636(3) 1.0179(5) 0.2500
Cl1C Cl 0.32878(4) 0.85845(6) -0.06137(6)
Cl2C Cl 0.23312(4) 0.91413(6) 0.11545(6)
Cl3C Cl 0.5000 0.72603(9) -0.13540(9)
C1C C 0.4628(2) 0.5105(3) 0.2500
C2C C 0.5000 0.9611(3) 0.1981(3)
C3C C 0.43541(17) 0.9366(2) 0.1501(2)
C4C C 0.31745(18) 0.8599(2) 0.1434(3)
C5C C 0.36391(17) 0.8260(2) 0.0534(2)
C6C C 0.36116(17) 0.5963(2) 0.1984(3)
C7C C 0.42416(18) 0.5444(2) 0.1663(3)
C8C C 0.30960(16) 0.7643(2) 0.2010(3)
C9C C 0.36701(17) 0.9298(2) 0.1990(3)
C10C C 0.37476(18) 0.7146(3) 0.0660(2)
C11C C 0.43650(17) 0.6687(2) 0.0372(2)
C12C C 0.5000 0.7258(3) -0.0061(4)
C13C C 0.33788(16) 0.6808(2) 0.1492(3)
C14C C 0.5000 0.8326(3) 0.0351(3)
C15C C 0.46129(18) 0.5822(2) 0.0871(3)
C16C C 0.43632(17) 0.8738(2) 0.0699(2)
O1C O 0.3364(3) 1.0179(5) 0.2500
Cl1I Cl 0.67122(4) 0.85845(6) -0.06137(6)
Cl2I Cl 0.76688(4) 0.91413(6) 0.11545(6)
C3I C 0.56459(17) 0.9366(2) 0.1501(2)
C4I C 0.68255(18) 0.8599(2) 0.1434(3)
C5I C 0.63609(17) 0.8260(2) 0.0534(2)
C6I C 0.63884(17) 0.5963(2) 0.1984(3)
C7I C 0.57584(18) 0.5444(2) 0.1663(3)
C8I C 0.69040(16) 0.7643(2) 0.2010(3)
C9I C 0.63299(17) 0.9298(2) 0.1990(3)
C10I C 0.62524(18) 0.7146(3) 0.0660(2)
C11I C 0.56350(17) 0.6687(2) 0.0372(2)
C13I C 0.66212(16) 0.6808(2) 0.1492(3)
C15I C 0.53871(18) 0.5822(2) 0.0871(3)
C16I C 0.56368(17) 0.8738(2) 0.0699(2)
Cl1J Cl 0.32878(4) 0.85845(6) 0.56137(6)
Cl2J Cl 0.23312(4) 0.91413(6) 0.38455(6)
C3J C 0.43541(17) 0.9366(2) 0.3499(2)
C4J C 0.31745(18) 0.8599(2) 0.3566(3)
C5J C 0.36391(17) 0.8260(2) 0.4466(2)
C6J C 0.36116(17) 0.5963(2) 0.3016(3)
C7J C 0.42416(18) 0.5444(2) 0.3337(3)
C8J C 0.30960(16) 0.7643(2) 0.2990(3)
C9J C 0.36701(17) 0.9298(2) 0.3010(3)
C10J C 0.37476(18) 0.7146(3) 0.4340(2)
C11J C 0.43650(17) 0.6687(2) 0.4628(2)
C13J C 0.33788(16) 0.6808(2) 0.3508(3)
C15J C 0.46129(18) 0.5822(2) 0.4129(3)
C16J C 0.43632(17) 0.8738(2) 0.4301(2)
loop_
_geom_bond_atom_site_label_1
_geom_bond_atom_site_label_2
_geom_bond_site_symmetry_1
_geom_bond_site_symmetry_2
Cl1 C5 1_555 1_555
Cl2 C4 1_555 1_555
Cl3 C12 1_555 1_555
C1 C7 1_555 1_555
C2 C3 1_555 1_555
C3 C9 1_555 1_555
C4 C5 1_555 1_555
C5 C10 1_555 1_555
C6 C7 1_555 1_555
C7 C15 1_555 1_555
C8 C4 1_555 1_555
C9 C4 1_555 1_555
C10 C11 1_555 1_555
C11 C12 1_555 1_555
C12 C14 1_555 1_555
C13 C6 1_555 1_555
C14 C16 1_555 1_555
C15 C11 1_555 1_555
C16 C3 1_555 1_555
O1 C9 1_555 1_555
Cl1C C5C 1_555 1_555
Cl2C C4C 1_555 1_555
Cl3C C12C 1_555 1_555
C1C C1 1_555 1_555
C2C C2 1_555 1_555
C3C C2C 1_555 1_555
C4C C5C 1_555 1_555
C5C C10C 1_555 1_555
C6C C7C 1_555 1_555
C7C C1C 1_555 1_555
C8C C4C 1_555 1_555
C9C C3C 1_555 1_555
C10C C11C 1_555 1_555
C11C C12C 1_555 1_555
C12C C14C 1_555 1_555
C13C C6C 1_555 1_555
C14C C16C 1_555 1_555
C15C C7C 1_555 1_555
C16C C3C 1_555 1_555
O1C C9C 1_555 1_555
Cl1I C5I 1_555 1_555
Cl2I C4I 1_555 1_555
C3I C2C 1_555 1_555
C4I C5I 1_555 1_555
C5I C10I 1_555 1_555
C6I C6 1_555 1_555
C7I C1 1_555 1_555
C8I C8 1_555 1_555
C9I C9 1_555 1_555
C10I C11I 1_555 1_555
C11I C12C 1_555 1_555
C13I C6I 1_555 1_555
C15I C15C 1_555 1_555
C16I C14C 1_555 1_555
Cl1J C5J 1_555 1_555
Cl2J C4J 1_555 1_555
C3J C2 1_555 1_555
C4J C5J 1_555 1_555
C5J C10J 1_555 1_555
C6J C6C 1_555 1_555
C7J C1C 1_555 1_555
C8J C8C 1_555 1_555
C9J C9C 1_555 1_555
C10J C11J 1_555 1_555
C11J C12 1_555 1_555
C13J C6J 1_555 1_555
C15J C15 1_555 1_555
C16J C14 1_555 1_555
C5 C16 1_555 1_555
C8 C13 1_555 1_555
C10 C13 1_555 1_555
O1 C9I 1_555 1_555
C4C C9C 1_555 1_555
C5C C16C 1_555 1_555
C8C C13C 1_555 1_555
C10C C13C 1_555 1_555
C11C C15C 1_555 1_555
O1C C9J 1_555 1_555
C3I C9I 1_555 1_555
C3I C16I 1_555 1_555
C4I C8I 1_555 1_555
C4I C9I 1_555 1_555
C5I C16I 1_555 1_555
C6I C7I 1_555 1_555
C7I C15I 1_555 1_555
C8I C13I 1_555 1_555
C10I C13I 1_555 1_555
C11I C15I 1_555 1_555
C3J C9J 1_555 1_555
C3J C16J 1_555 1_555
C4J C8J 1_555 1_555
C4J C9J 1_555 1_555
C5J C16J 1_555 1_555
C6J C7J 1_555 1_555
C7J C15J 1_555 1_555
C8J C13J 1_555 1_555
C10J C13J 1_555 1_555
C11J C15J 1_555 1_555

#END
