
#######################################################################
#
#                 Cambridge Crystallographic Data Centre
#                                CCDC 
#
#######################################################################
#
# If this CIF has been generated from an entry in the Cambridge 
# Structural Database, then it will include bibliographic, chemical, 
# crystal, experimental, refinement or atomic coordinate data resulting 
# from the CCDC's data processing and validation procedures.
#
#######################################################################

data_KAFHUU
_chemical_formula_moiety         'C20 H21 I2 N1 2+,2(C1 F3 O3 S1 1-)'
_chemical_name_systematic        
'1-t-Butyl-1H-pyrrole-3,4-diylbis(phenyliodonium) bis(trifluoromethanesulfonate)'
_symmetry_cell_setting           monoclinic
_symmetry_space_group_name_H-M   'P 21/n'
_symmetry_Int_Tables_number      14
_space_group_name_Hall           '-P 2yn'
loop_
_symmetry_equiv_pos_site_id
_symmetry_equiv_pos_as_xyz
1 x,y,z
2 1/2-x,1/2+y,1/2-z
3 -x,-y,-z
4 1/2+x,1/2-y,1/2+z
_cell_length_a                   12.685(1)
_cell_length_b                   17.849(1)
_cell_length_c                   13.616(1)
_cell_angle_alpha                90
_cell_angle_beta                 107.80(1)
_cell_angle_gamma                90
_cell_volume                     2935.28
_exptl_crystal_colour            'pale yellow'
_exptl_crystal_description       block
_chemical_melting_point          51deg.C
_cell_formula_units_Z            4
loop_
_atom_site_label
_atom_site_type_symbol
_atom_site_fract_x
_atom_site_fract_y
_atom_site_fract_z
I1 I 0.35490(7) 0.39292(5) 0.83815(7)
I2 I 0.26914(8) 0.59541(6) 0.89200(7)
N1 N 0.0285(7) 0.4622(5) 0.6863(6)
C1 C 0.1118(7) 0.4120(7) 0.7072(7)
C2 C 0.2050(7) 0.4453(7) 0.7734(8)
C3 C 0.1754(8) 0.5186(6) 0.7892(7)
C4 C 0.0667(8) 0.5274(7) 0.7417(8)
C5 C -0.0896(8) 0.4446(7) 0.6282(8)
C6 C -0.1351(9) 0.3954(8) 0.6957(9)
C7 C -0.1562(9) 0.5160(8) 0.5975(9)
C8 C -0.0971(9) 0.4066(9) 0.5270(9)
C9 C 0.4265(8) 0.4056(7) 0.7187(8)
C10 C 0.5129(9) 0.4538(7) 0.7340(9)
C11 C 0.5628(8) 0.4615(7) 0.6544(9)
C12 C 0.5277(9) 0.4159(8) 0.5705(9)
C13 C 0.4396(9) 0.3693(8) 0.5556(9)
C14 C 0.3869(9) 0.3631(8) 0.6327(9)
C15 C 0.3403(8) 0.6486(7) 0.7905(8)
C16 C 0.2782(9) 0.6865(7) 0.7057(8)
C17 C 0.3310(9) 0.7173(7) 0.6431(8)
C18 C 0.4390(9) 0.7144(7) 0.6567(9)
C19 C 0.5054(8) 0.6804(7) 0.7482(9)
C20 C 0.4586(9) 0.6435(7) 0.8115(8)
H1 H 0.1079 0.3621 0.6800
H2 H 0.0231 0.5707 0.7453
H3 H -0.0918 0.3504 0.7125
H4 H -0.1303 0.4224 0.7579
H5 H -0.2110 0.3826 0.6614
H6 H -0.1257 0.5448 0.5531
H7 H -0.2323 0.5046 0.5620
H8 H -0.1516 0.5444 0.6586
H9 H -0.0572 0.3601 0.5413
H10 H -0.1734 0.3969 0.4903
H11 H -0.0657 0.4379 0.4858
H12 H 0.5374 0.4823 0.7967
H13 H 0.6223 0.4963 0.6611
H14 H 0.5659 0.4179 0.5196
H15 H 0.4135 0.3414 0.4925
H16 H 0.3254 0.3298 0.6251
H17 H 0.1996 0.6916 0.6910
H18 H 0.2861 0.7429 0.5828
H19 H 0.4703 0.7356 0.6071
H20 H 0.5845 0.6821 0.7650
H21 H 0.5029 0.6160 0.8702
S1 S 0.0896(3) 0.2495(2) 0.4233(3)
O1 O 0.0637(6) 0.1714(3) 0.4349(6)
O2 O -0.0017(6) 0.2912(4) 0.3573(7)
O3 O 0.1496(7) 0.2854(5) 0.5177(6)
C21 C 0.1898(7) 0.2436(5) 0.3558(7)
F1 F 0.2275(7) 0.3092(4) 0.3375(6)
F2 F 0.2776(6) 0.2048(5) 0.4092(6)
F3 F 0.1511(7) 0.2102(5) 0.2651(6)
S2 S 0.2280(3) 0.4307(3) 1.0737(3)
O4 O 0.2031(8) 0.5064(4) 1.0358(7)
O5 O 0.2686(7) 0.4250(6) 1.1839(4)
O6 O 0.2828(7) 0.3859(5) 1.0172(6)
C22 C 0.0941(8) 0.3904(5) 1.0409(6)
F4 F 0.0295(7) 0.4237(5) 1.0869(6)
F5 F 0.0425(7) 0.3920(5) 0.9405(5)
F6 F 0.0961(8) 0.3185(4) 1.0669(7)
loop_
_geom_bond_atom_site_label_1
_geom_bond_atom_site_label_2
_geom_bond_site_symmetry_1
_geom_bond_site_symmetry_2
I1 C2 1_555 1_555
I2 C3 1_555 1_555
N1 C1 1_555 1_555
C1 C2 1_555 1_555
C2 C3 1_555 1_555
C3 C4 1_555 1_555
C4 N1 1_555 1_555
C5 N1 1_555 1_555
C6 C5 1_555 1_555
C7 C5 1_555 1_555
C8 C5 1_555 1_555
C9 I1 1_555 1_555
C10 C9 1_555 1_555
C11 C10 1_555 1_555
C12 C11 1_555 1_555
C13 C12 1_555 1_555
C14 C9 1_555 1_555
C15 I2 1_555 1_555
C16 C15 1_555 1_555
C17 C16 1_555 1_555
C18 C17 1_555 1_555
C19 C18 1_555 1_555
C20 C15 1_555 1_555
S1 O1 1_555 1_555
O2 S1 1_555 1_555
O3 S1 1_555 1_555
C21 S1 1_555 1_555
F1 C21 1_555 1_555
F2 C21 1_555 1_555
F3 C21 1_555 1_555
S2 O4 1_555 1_555
O5 S2 1_555 1_555
O6 S2 1_555 1_555
C22 S2 1_555 1_555
F4 C22 1_555 1_555
F5 C22 1_555 1_555
F6 C22 1_555 1_555
H1 C1 1_555 1_555
H2 C4 1_555 1_555
H3 C6 1_555 1_555
H4 C6 1_555 1_555
H5 C6 1_555 1_555
H6 C7 1_555 1_555
H7 C7 1_555 1_555
H8 C7 1_555 1_555
H9 C8 1_555 1_555
H10 C8 1_555 1_555
H11 C8 1_555 1_555
H12 C10 1_555 1_555
H13 C11 1_555 1_555
H14 C12 1_555 1_555
H15 C13 1_555 1_555
H16 C14 1_555 1_555
H17 C16 1_555 1_555
H18 C17 1_555 1_555
H19 C18 1_555 1_555
H20 C19 1_555 1_555
H21 C20 1_555 1_555
C13 C14 1_555 1_555
C19 C20 1_555 1_555

#END
