
#######################################################################
#
#                 Cambridge Crystallographic Data Centre
#                                CCDC 
#
#######################################################################
#
# If this CIF has been generated from an entry in the Cambridge 
# Structural Database, then it will include bibliographic, chemical, 
# crystal, experimental, refinement or atomic coordinate data resulting 
# from the CCDC's data processing and validation procedures.
#
#######################################################################

data_KAFJOQ
_chemical_formula_moiety         'C15 H17 N1 O2'
_chemical_name_systematic        
N-t-Butoxycarbonylpyrro(c)bicyclo(2.2.2)octatriene
_symmetry_cell_setting           monoclinic
_symmetry_space_group_name_H-M   'C c'
_symmetry_Int_Tables_number      9
_space_group_name_Hall           'C -2yc'
loop_
_symmetry_equiv_pos_site_id
_symmetry_equiv_pos_as_xyz
1 x,y,z
2 x,-y,1/2+z
3 1/2+x,1/2+y,z
4 1/2+x,1/2-y,1/2+z
_cell_length_a                   20.424(4)
_cell_length_b                   13.253(3)
_cell_length_c                   12.155(2)
_cell_angle_alpha                90
_cell_angle_beta                 125.07(3)
_cell_angle_gamma                90
_cell_volume                     2692.79
_exptl_crystal_colour            colorless
_chemical_melting_point          118deg.C
_cell_formula_units_Z            8
loop_
_atom_site_label
_atom_site_type_symbol
_atom_site_fract_x
_atom_site_fract_y
_atom_site_fract_z
O1 O 0.5493(2) 0.1758(2) 0.4107(3)
O2 O 0.4822(2) 0.0296(2) 0.3628(2)
N1 N 0.4329(2) 0.1511(2) 0.2093(3)
C1 C 0.3154(2) 0.3205(3) -0.0858(3)
C2 C 0.2299(2) 0.3282(3) -0.1149(4)
C3 C 0.1953(2) 0.2436(3) -0.1340(3)
C4 C 0.2388(2) 0.1508(3) -0.1322(3)
C5 C 0.2635(2) 0.1746(4) -0.2297(4)
C6 C 0.3004(3) 0.2601(3) -0.2031(4)
C7 C 0.3571(2) 0.2475(2) 0.0298(3)
C8 C 0.3185(2) 0.1556(3) 0.0056(3)
C9 C 0.4258(2) 0.2441(3) 0.1547(3)
C10 C 0.3648(2) 0.0969(3) 0.1148(3)
C11 C 0.4926(2) 0.1185(3) 0.3361(3)
C12 C 0.5408(2) -0.0228(3) 0.4926(3)
C13 C 0.5031(3) -0.1209(4) 0.4771(5)
C14 C 0.6230(2) -0.0283(4) 0.5146(4)
C15 C 0.5467(3) 0.0339(4) 0.6062(4)
H1 H 0.3431(2) 0.3833(3) -0.0696(3)
H2 H 0.2065(2) 0.3894(3) -0.1178(4)
H3 H 0.1438(2) 0.2387(3) -0.1490(3)
H4 H 0.2101(2) 0.0888(3) -0.1492(3)
H5 H 0.2528(2) 0.1321(4) -0.2991(4)
H6 H 0.3168(3) 0.2836(3) -0.2585(4)
H7 H 0.4625(2) 0.2994(3) 0.1973(3)
H8 H 0.3532(2) 0.0313(3) 0.1252(3)
H9 H 0.4530(3) -0.1112(4) 0.4660(5)
H10 H 0.4938(3) -0.1537(4) 0.3989(5)
H11 H 0.5375(3) -0.1621(4) 0.5548(5)
H12 H 0.6439(2) 0.0386(4) 0.5255(4)
H13 H 0.6596(2) -0.0677(4) 0.5931(4)
H14 H 0.6160(2) -0.0593(4) 0.4372(4)
H15 H 0.4955(3) 0.0364(4) 0.5923(4)
H16 H 0.5843(3) -0.0002(4) 0.6893(4)
H17 H 0.5651(3) 0.1013(4) 0.6099(4)
O3 O 0.8270(2) 0.2268(2) 0.9735(2)
O4 O 0.7538(2) 0.0818(2) 0.9259(3)
N2 N 0.8763(2) 0.1036(2) 1.1237(2)
C16 C 0.9922(3) -0.0531(3) 1.4392(4)
C17 C 1.0693(3) -0.0734(4) 1.4586(4)
C18 C 1.1127(3) 0.0058(4) 1.4749(4)
C19 C 1.0690(2) 0.1042(3) 1.4617(3)
C20 C 1.0474(2) 0.0964(3) 1.5637(4)
C21 C 1.0067(2) 0.0160(3) 1.5511(4)
C22 C 0.9913(2) 0.1028(2) 1.3278(3)
C23 C 0.9459(2) 0.0150(3) 1.3128(3)
C24 C 0.9474(2) 0.1556(3) 1.2115(3)
C25 C 0.8753(2) 0.0154(3) 1.1874(3)
C26 C 0.8113(2) 0.1332(3) 0.9958(3)
C27 C 0.7662(2) 0.2744(3) 0.8408(4)
C28 C 0.7582(3) 0.2136(4) 0.7307(4)
C29 C 0.6920(3) 0.2906(5) 0.8332(5)
C30 C 0.8056(4) 0.3759(3) 0.8584(5)
H18 H 0.9626(3) -0.1126(3) 1.4299(4)
H19 H 1.0872(3) -0.1407(4) 1.4598(4)
H20 H 1.1633(3) 0.0027(4) 1.4921(4)
H21 H 1.0997(2) 0.1633(3) 1.4742(3)
H22 H 1.0615(2) 0.1469(3) 1.6305(4)
H23 H 0.9887(2) 0.0021(3) 1.6071(4)
H24 H 0.9636(2) 0.2182(3) 1.1943(3)
H25 H 0.8330(2) -0.0335(3) 1.1511(3)
H26 H 0.7295(3) 0.1530(4) 0.7205(4)
H27 H 0.7301(3) 0.2500(4) 0.6472(4)
H28 H 0.8108(3) 0.1966(4) 0.7555(4)
H29 H 0.6667(3) 0.2262(5) 0.8187(5)
H30 H 0.7038(3) 0.3195(5) 0.9151(5)
H31 H 0.6568(3) 0.3346(5) 0.7593(5)
H32 H 0.7745(4) 0.4184(3) 0.7808(5)
H33 H 0.8143(4) 0.4096(3) 0.9356(5)
H34 H 0.8561(4) 0.3614(3) 0.8732(5)
loop_
_geom_bond_atom_site_label_1
_geom_bond_atom_site_label_2
_geom_bond_site_symmetry_1
_geom_bond_site_symmetry_2
O1 C11 1_555 1_555
O2 C11 1_555 1_555
N1 C9 1_555 1_555
C1 C2 1_555 1_555
C2 C3 1_555 1_555
C3 C4 1_555 1_555
C4 C5 1_555 1_555
C5 C6 1_555 1_555
C6 C1 1_555 1_555
C7 C1 1_555 1_555
C8 C4 1_555 1_555
C9 C7 1_555 1_555
C10 N1 1_555 1_555
C11 N1 1_555 1_555
C12 O2 1_555 1_555
C13 C12 1_555 1_555
C14 C12 1_555 1_555
C15 C12 1_555 1_555
O3 C26 1_555 1_555
O4 C26 1_555 1_555
N2 C24 1_555 1_555
C16 C17 1_555 1_555
C17 C18 1_555 1_555
C18 C19 1_555 1_555
C19 C20 1_555 1_555
C20 C21 1_555 1_555
C21 C16 1_555 1_555
C22 C19 1_555 1_555
C23 C16 1_555 1_555
C24 C22 1_555 1_555
C25 N2 1_555 1_555
C26 N2 1_555 1_555
C27 O3 1_555 1_555
C28 C27 1_555 1_555
C29 C27 1_555 1_555
C30 C27 1_555 1_555
H1 C1 1_555 1_555
H2 C2 1_555 1_555
H3 C3 1_555 1_555
H4 C4 1_555 1_555
H5 C5 1_555 1_555
H6 C6 1_555 1_555
H7 C9 1_555 1_555
H8 C10 1_555 1_555
H9 C13 1_555 1_555
H10 C13 1_555 1_555
H11 C13 1_555 1_555
H12 C14 1_555 1_555
H13 C14 1_555 1_555
H14 C14 1_555 1_555
H15 C15 1_555 1_555
H16 C15 1_555 1_555
H17 C15 1_555 1_555
H18 C16 1_555 1_555
H19 C17 1_555 1_555
H20 C18 1_555 1_555
H21 C19 1_555 1_555
H22 C20 1_555 1_555
H23 C21 1_555 1_555
H24 C24 1_555 1_555
H25 C25 1_555 1_555
H26 C28 1_555 1_555
H27 C28 1_555 1_555
H28 C28 1_555 1_555
H29 C29 1_555 1_555
H30 C29 1_555 1_555
H31 C29 1_555 1_555
H32 C30 1_555 1_555
H33 C30 1_555 1_555
H34 C30 1_555 1_555
C7 C8 1_555 1_555
C8 C10 1_555 1_555
C22 C23 1_555 1_555
C23 C25 1_555 1_555

#END
