
#######################################################################
#
#                 Cambridge Crystallographic Data Centre
#                                CCDC 
#
#######################################################################
#
# If this CIF has been generated from an entry in the Cambridge 
# Structural Database, then it will include bibliographic, chemical, 
# crystal, experimental, refinement or atomic coordinate data resulting 
# from the CCDC's data processing and validation procedures.
#
#######################################################################

data_KAFYEY
_chemical_formula_moiety         'C24 H16 Cl2 N2 O2,C1 H1 Cl3'
_chemical_name_systematic        
'7,9-Dichloro-2-(4-methoxyphenyl)-4-phenyl-2,3-dihydro-1H-pyrrolo[3,4-c]quinolin-1-one chloroform solvate'
_symmetry_cell_setting           triclinic
_symmetry_space_group_name_H-M   'P -1'
_symmetry_Int_Tables_number      2
_space_group_name_Hall           '-P 1'
loop_
_symmetry_equiv_pos_site_id
_symmetry_equiv_pos_as_xyz
1 x,y,z
2 -x,-y,-z
_cell_length_a                   7.0166(5)
_cell_length_b                   13.2800(9)
_cell_length_c                   13.9998(10)
_cell_angle_alpha                66.5140(10)
_cell_angle_beta                 85.3090(10)
_cell_angle_gamma                89.3010(10)
_cell_volume                     1192.13
_exptl_crystal_colour            yellow
_exptl_crystal_description       block
_cell_formula_units_Z            2
loop_
_atom_site_label
_atom_site_type_symbol
_atom_site_fract_x
_atom_site_fract_y
_atom_site_fract_z
Cl1 Cl 0.59133(8) -0.33808(4) 0.44211(4)
Cl2 Cl 0.64201(8) -0.29442(4) 0.04882(4)
O1 O 0.7407(3) -0.19310(12) 0.52515(12)
O2 O 0.8276(2) 0.04660(13) 0.83929(11)
N1 N 0.7364(2) -0.00527(13) 0.46903(12)
N2 N 0.7056(2) 0.04160(13) 0.12525(12)
C1 C 0.7236(3) -0.10271(15) 0.45644(14)
C2 C 0.6922(3) -0.07206(14) 0.34337(13)
C3 C 0.6770(3) -0.13468(14) 0.28105(14)
C4 C 0.6467(3) -0.24966(15) 0.31309(15)
C5 C 0.6432(3) -0.29748(15) 0.24238(16)
H1 H 0.6281 -0.3749 0.2662
C6 C 0.6620(3) -0.23161(16) 0.13508(15)
C7 C 0.6840(3) -0.12059(16) 0.09803(15)
H2 H 0.6953 -0.0773 0.0249
C8 C 0.6898(3) -0.07047(15) 0.17018(14)
C9 C 0.7034(3) 0.09627(15) 0.18572(14)
C10 C 0.6976(3) 0.04009(14) 0.29567(13)
C11 C 0.7185(3) 0.09009(14) 0.37247(13)
H3 H 0.8339 0.1385 0.3531
H4 H 0.6047 0.1328 0.3781
C12 C 0.7197(3) 0.21768(15) 0.13312(14)
C13 C 0.6037(3) 0.28558(16) 0.16614(15)
H5 H 0.5146 0.2544 0.2257
C14 C 0.6183(3) 0.39877(16) 0.11213(16)
H6 H 0.5385 0.4449 0.1345
C15 C 0.7489(3) 0.44450(16) 0.02571(16)
H7 H 0.7579 0.5220 -0.0113
C16 C 0.8666(3) 0.37748(16) -0.00697(16)
H8 H 0.9568 0.4090 -0.0659
C17 C 0.8521(3) 0.26403(16) 0.04680(14)
H9 H 0.9326 0.2181 0.0246
C18 C 0.7659(3) 0.00744(15) 0.56245(14)
C19 C 0.7801(3) -0.08205(16) 0.65786(14)
H10 H 0.7757 -0.1547 0.6607
C20 C 0.8005(3) -0.06541(17) 0.74795(15)
H11 H 0.8078 -0.1269 0.8124
C21 C 0.8104(3) 0.04025(17) 0.74529(15)
C22 C 0.8021(3) 0.12969(16) 0.65072(15)
H12 H 0.8123 0.2022 0.6477
C23 C 0.7790(3) 0.11302(16) 0.56052(15)
H13 H 0.7719 0.1747 0.4962
C24 C 0.8286(3) 0.15357(19) 0.84037(17)
H14 H 0.9457 0.1937 0.8017
H15 H 0.8238 0.1471 0.9128
H16 H 0.7170 0.1934 0.8074
Cl3 Cl 1.21817(15) 0.53369(7) 0.30201(7)
Cl4 Cl 0.87009(17) 0.42830(10) 0.41907(11)
Cl5 Cl 1.03338(17) 0.37163(6) 0.25262(7)
C25 C 1.0806(4) 0.41255(19) 0.3538(2)
H17 H 1.1557 0.3540 0.4047
loop_
_geom_bond_atom_site_label_1
_geom_bond_atom_site_label_2
_geom_bond_site_symmetry_1
_geom_bond_site_symmetry_2
Cl1 C4 1_555 1_555
Cl2 C6 1_555 1_555
O1 C1 1_555 1_555
O2 C21 1_555 1_555
N1 C1 1_555 1_555
N2 C8 1_555 1_555
C1 C2 1_555 1_555
C2 C3 1_555 1_555
C3 C4 1_555 1_555
C4 C5 1_555 1_555
C5 H1 1_555 1_555
C6 C5 1_555 1_555
C7 C6 1_555 1_555
H2 C7 1_555 1_555
C8 C3 1_555 1_555
C9 N2 1_555 1_555
C10 C2 1_555 1_555
C11 N1 1_555 1_555
H3 C11 1_555 1_555
H4 C11 1_555 1_555
C12 C9 1_555 1_555
C13 C12 1_555 1_555
H5 C13 1_555 1_555
C14 C13 1_555 1_555
H6 C14 1_555 1_555
C15 C14 1_555 1_555
H7 C15 1_555 1_555
C16 C15 1_555 1_555
H8 C16 1_555 1_555
C17 C12 1_555 1_555
H9 C17 1_555 1_555
C18 N1 1_555 1_555
C19 C18 1_555 1_555
H10 C19 1_555 1_555
C20 C19 1_555 1_555
H11 C20 1_555 1_555
C21 C20 1_555 1_555
C22 C21 1_555 1_555
H12 C22 1_555 1_555
C23 C18 1_555 1_555
H13 C23 1_555 1_555
C24 O2 1_555 1_555
H14 C24 1_555 1_555
H15 C24 1_555 1_555
H16 C24 1_555 1_555
Cl3 C25 1_555 1_555
Cl4 C25 1_555 1_555
Cl5 C25 1_555 1_555
C25 H17 1_555 1_555
C7 C8 1_555 1_555
C9 C10 1_555 1_555
C10 C11 1_555 1_555
C16 C17 1_555 1_555
C22 C23 1_555 1_555

#END
