
#######################################################################
#
#                 Cambridge Crystallographic Data Centre
#                                CCDC 
#
#######################################################################
#
# If this CIF has been generated from an entry in the Cambridge 
# Structural Database, then it will include bibliographic, chemical, 
# crystal, experimental, refinement or atomic coordinate data resulting 
# from the CCDC's data processing and validation procedures.
#
#######################################################################

data_KAGKOS
_chemical_formula_moiety         'C10 H15 N1 O3 S1'
_chemical_name_systematic        (+)-(2R,8aS)-(Camphorylsulfonyl)oxaziridene
_symmetry_cell_setting           orthorhombic
_symmetry_space_group_name_H-M   'P 21 21 21'
_symmetry_Int_Tables_number      19
_space_group_name_Hall           'P 2ac 2ab'
loop_
_symmetry_equiv_pos_site_id
_symmetry_equiv_pos_as_xyz
1 x,y,z
2 1/2+x,1/2-y,-z
3 -x,1/2+y,1/2-z
4 1/2-x,-y,1/2+z
_cell_length_a                   7.381(1)
_cell_length_b                   8.935(1)
_cell_length_c                   16.779(1)
_cell_angle_alpha                90
_cell_angle_beta                 90
_cell_angle_gamma                90
_cell_volume                     1106.56
_exptl_crystal_colour            white
_chemical_melting_point          '165-167 deg.C'
_cell_formula_units_Z            4
loop_
_atom_site_label
_atom_site_type_symbol
_atom_site_fract_x
_atom_site_fract_y
_atom_site_fract_z
S1 S 0.1838(3) 0.8219(2) 0.9159(1)
C1 C 0.185(1) 0.6420(8) 0.9646(4)
C2 C 0.252(1) 0.5333(7) 0.9018(4)
C3 C 0.344(1) 0.6191(8) 0.8347(5)
C4 C 0.398(1) 0.4170(9) 0.9292(5)
C5 C 0.405(1) 0.3068(9) 0.8558(5)
C6 C 0.268(1) 0.3732(8) 0.7966(5)
C7 C 0.355(1) 0.518(1) 0.7622(5)
C8 C 0.115(1) 0.4351(8) 0.8529(4)
C9 C 0.024(1) 0.3138(9) 0.9026(5)
C10 C -0.031(1) 0.524(1) 0.8075(5)
N1 N 0.3037(9) 0.7786(7) 0.8295(4)
O1 O 0.2823(8) 0.9329(6) 0.9595(4)
O2 O 0.0081(8) 0.8583(6) 0.8873(3)
O3 O 0.4829(8) 0.7175(6) 0.8590(3)
H1 H 0.2298 0.3026 0.7567
H2 H 0.0647 0.6178 0.9823
H3 H 0.2625 0.6452 1.0100
H4 H 0.3630 0.3671 0.9751
H5 H 0.5117 0.4641 0.9350
H6 H 0.3699 0.2091 0.8730
H7 H 0.5223 0.3037 0.8340
H8 H 0.4728 0.5000 0.7460
H9 H 0.2828 0.5544 0.7192
H10 H 0.1250 0.2793 0.9375
H11 H -0.0752 0.3463 0.9299
H12 H -0.0100 0.2295 0.8677
H13 H -0.0820 0.4727 0.7500
H14 H -0.1255 0.5482 0.8400
H15 H 0.0300 0.6185 0.7904
loop_
_geom_bond_atom_site_label_1
_geom_bond_atom_site_label_2
_geom_bond_site_symmetry_1
_geom_bond_site_symmetry_2
S1 C1 1_555 1_555
C1 C2 1_555 1_555
C2 C3 1_555 1_555
C3 C7 1_555 1_555
C4 C2 1_555 1_555
C5 C4 1_555 1_555
C6 C5 1_555 1_555
C7 C6 1_555 1_555
C8 C2 1_555 1_555
C9 C8 1_555 1_555
C10 C8 1_555 1_555
N1 S1 1_555 1_555
O1 S1 1_555 1_555
O2 S1 1_555 1_555
O3 C3 1_555 1_555
H1 C6 1_555 1_555
H2 C1 1_555 1_555
H3 C1 1_555 1_555
H4 C4 1_555 1_555
H5 C4 1_555 1_555
H6 C5 1_555 1_555
H7 C5 1_555 1_555
H8 C7 1_555 1_555
H9 C7 1_555 1_555
H10 C9 1_555 1_555
H11 C9 1_555 1_555
H12 C9 1_555 1_555
H13 C10 1_555 1_555
H14 C10 1_555 1_555
H15 C10 1_555 1_555
C3 N1 1_555 1_555
C6 C8 1_555 1_555
N1 O3 1_555 1_555

#END
