
#######################################################################
#
#                 Cambridge Crystallographic Data Centre
#                                CCDC 
#
#######################################################################
#
# If this CIF has been generated from an entry in the Cambridge 
# Structural Database, then it will include bibliographic, chemical, 
# crystal, experimental, refinement or atomic coordinate data resulting 
# from the CCDC's data processing and validation procedures.
#
#######################################################################

data_KAGXUO
_chemical_name_common            
(E)-3-(4-(benzylideneamino)-5-thioxo-3-(p-tolyl)-4,5-dihydro-1H-1,2,4-triazol-1-yl)-3-(4-methoxyphenyl)-1-phenylpropan-1-one
_chemical_formula_moiety         'C32 H28 N4 O2 S1'
_chemical_name_systematic        
(E)-3-(4-(benzylideneamino)-3-(4-methylphenyl)-5-sulfanylidene-4,5-dihydro-1H-1,2,4-triazol-1-yl)-3-(4-methoxyphenyl)-1-phenylpropan-1-one
_symmetry_cell_setting           triclinic
_symmetry_space_group_name_H-M   'P -1'
_symmetry_Int_Tables_number      2
_space_group_name_Hall           '-P 1'
loop_
_symmetry_equiv_pos_site_id
_symmetry_equiv_pos_as_xyz
1 x,y,z
2 -x,-y,-z
_cell_length_a                   6.2343(6)
_cell_length_b                   14.6968(14)
_cell_length_c                   15.0540(17)
_cell_angle_alpha                90.234(9)
_cell_angle_beta                 92.612(13)
_cell_angle_gamma                99.497(10)
_cell_volume                     1358.9
_exptl_crystal_colour            colorless
_exptl_crystal_description       prism
_cell_formula_units_Z            2
loop_
_atom_site_label
_atom_site_type_symbol
_atom_site_fract_x
_atom_site_fract_y
_atom_site_fract_z
S1 S 0.30821(12) 0.76134(6) 0.33347(5)
O1 O 0.2917(3) 0.84691(17) 0.03956(14)
O2 O 1.1239(3) 1.11680(15) 0.44187(14)
N1 N 0.5946(4) 0.78848(17) 0.20148(16)
N2 N 0.7452(4) 0.74728(17) 0.15811(15)
N3 N 0.5736(4) 0.65289(16) 0.25500(15)
N4 N 0.5344(4) 0.57402(17) 0.30854(15)
C1 C 0.4101(5) 0.7859(2) -0.1241(2)
H1 H 0.2646 0.7674 -0.1071
C2 C 0.4689(5) 0.7603(2) -0.2071(2)
H2 H 0.3652 0.7234 -0.2461
C3 C 0.6790(6) 0.7886(2) -0.2330(2)
H3 H 0.7210 0.7713 -0.2897
C4 C 0.8290(6) 0.8429(3) -0.1749(2)
H4 H 0.9728 0.8639 -0.1928
C5 C 0.7699(5) 0.8662(3) -0.0917(2)
H5 H 0.8745 0.9019 -0.0522
C6 C 0.5594(5) 0.8382(2) -0.0651(2)
C7 C 0.4844(5) 0.8637(2) 0.0235(2)
C8 C 0.6475(5) 0.9123(2) 0.09322(19)
H6 H 0.7925 0.8961 0.0831
H7 H 0.6581 0.9798 0.0863
C9 C 0.5869(5) 0.8870(2) 0.1874(2)
H8 H 0.4343 0.8974 0.1949
C10 C 0.7354(5) 0.9461(2) 0.2563(2)
C11 C 0.9305(5) 0.9220(2) 0.2886(2)
H9 H 0.9716 0.8665 0.2680
C12 C 1.0670(5) 0.9768(2) 0.3501(2)
H10 H 1.1995 0.9589 0.3715
C13 C 1.0064(5) 1.0585(2) 0.3798(2)
C14 C 0.8140(5) 1.0844(2) 0.3471(2)
H11 H 0.7750 1.1409 0.3664
C15 C 0.6780(5) 1.0282(2) 0.2863(2)
H12 H 0.5452 1.0459 0.2651
C16 C 1.3209(5) 1.0916(2) 0.4790(2)
H13 H 1.2897 1.0296 0.5039
H14 H 1.3821 1.1357 0.5262
H15 H 1.4259 1.0923 0.4324
C17 C 0.4885(4) 0.7336(2) 0.26328(18)
C18 C 0.7328(4) 0.6653(2) 0.19328(18)
C19 C 0.8735(4) 0.5993(2) 0.16637(18)
C20 C 0.8278(5) 0.5049(2) 0.18174(19)
H16 H 0.7020 0.4797 0.2123
C21 C 0.9675(5) 0.4476(2) 0.15206(19)
H17 H 0.9358 0.3834 0.1637
C22 C 1.1507(5) 0.4811(2) 0.10621(18)
C23 C 1.1946(5) 0.5765(2) 0.09149(18)
H18 H 1.3200 0.6015 0.0606
C24 C 1.0587(4) 0.6352(2) 0.12106(18)
H19 H 1.0917 0.6996 0.1105
C25 C 1.2951(5) 0.4167(2) 0.0723(2)
H20 H 1.2810 0.4134 0.0073
H21 H 1.2510 0.3550 0.0966
H22 H 1.4469 0.4399 0.0912
C26 C 0.3327(5) 0.5466(2) 0.32321(19)
H23 H 0.2244 0.5776 0.2966
C27 C 0.2695(5) 0.4680(2) 0.38059(19)
C28 C 0.0539(5) 0.4429(3) 0.4000(2)
H24 H -0.0527 0.4753 0.3742
C29 C -0.0081(6) 0.3699(3) 0.4574(3)
H25 H -0.1573 0.3528 0.4699
C30 C 0.1416(6) 0.3229(2) 0.4957(2)
H26 H 0.0983 0.2742 0.5357
C31 C 0.3562(6) 0.3468(2) 0.4759(2)
H27 H 0.4614 0.3132 0.5011
C32 C 0.4202(5) 0.4186(2) 0.4199(2)
H28 H 0.5698 0.4350 0.4079
loop_
_geom_bond_atom_site_label_1
_geom_bond_atom_site_label_2
_geom_bond_site_symmetry_1
_geom_bond_site_symmetry_2
S1 C17 1_555 1_555
O1 C7 1_555 1_555
O2 C13 1_555 1_555
N1 N2 1_555 1_555
N2 C18 1_555 1_555
N3 N4 1_555 1_555
N4 C26 1_555 1_555
C1 H1 1_555 1_555
C2 C1 1_555 1_555
H2 C2 1_555 1_555
C3 C2 1_555 1_555
H3 C3 1_555 1_555
C4 C3 1_555 1_555
H4 C4 1_555 1_555
C5 C4 1_555 1_555
H5 C5 1_555 1_555
C6 C1 1_555 1_555
C7 C6 1_555 1_555
C8 C7 1_555 1_555
H6 C8 1_555 1_555
H7 C8 1_555 1_555
C9 N1 1_555 1_555
H8 C9 1_555 1_555
C10 C9 1_555 1_555
C11 C10 1_555 1_555
H9 C11 1_555 1_555
C12 C11 1_555 1_555
H10 C12 1_555 1_555
C13 C12 1_555 1_555
C14 C13 1_555 1_555
H11 C14 1_555 1_555
C15 C10 1_555 1_555
H12 C15 1_555 1_555
C16 O2 1_555 1_555
H13 C16 1_555 1_555
H14 C16 1_555 1_555
H15 C16 1_555 1_555
C17 N1 1_555 1_555
C18 N3 1_555 1_555
C19 C18 1_555 1_555
C20 C19 1_555 1_555
H16 C20 1_555 1_555
C21 C20 1_555 1_555
H17 C21 1_555 1_555
C22 C21 1_555 1_555
C23 C22 1_555 1_555
H18 C23 1_555 1_555
C24 C19 1_555 1_555
H19 C24 1_555 1_555
C25 C22 1_555 1_555
H20 C25 1_555 1_555
H21 C25 1_555 1_555
H22 C25 1_555 1_555
C26 H23 1_555 1_555
C27 C26 1_555 1_555
C28 C27 1_555 1_555
H24 C28 1_555 1_555
C29 C28 1_555 1_555
H25 C29 1_555 1_555
C30 C29 1_555 1_555
H26 C30 1_555 1_555
C31 C30 1_555 1_555
H27 C31 1_555 1_555
C32 C27 1_555 1_555
H28 C32 1_555 1_555
N3 C17 1_555 1_555
C5 C6 1_555 1_555
C8 C9 1_555 1_555
C14 C15 1_555 1_555
C23 C24 1_555 1_555
C31 C32 1_555 1_555

#END
