
#######################################################################
#
#                 Cambridge Crystallographic Data Centre
#                                CCDC 
#
#######################################################################
#
# If this CIF has been generated from an entry in the Cambridge 
# Structural Database, then it will include bibliographic, chemical, 
# crystal, experimental, refinement or atomic coordinate data resulting 
# from the CCDC's data processing and validation procedures.
#
#######################################################################

data_KAHQOA
_chemical_formula_moiety         'C20 H15 N3'
_chemical_name_systematic        
anti,anti/anti,syn-1,3-bis(Phenylimino)isoindoline
_symmetry_cell_setting           triclinic
_symmetry_space_group_name_H-M   'P -1'
_symmetry_Int_Tables_number      2
_space_group_name_Hall           '-P 1'
loop_
_symmetry_equiv_pos_site_id
_symmetry_equiv_pos_as_xyz
1 x,y,z
2 -x,-y,-z
_cell_length_a                   13.1134(12)
_cell_length_b                   14.252(2)
_cell_length_c                   18.331(3)
_cell_angle_alpha                79.190(13)
_cell_angle_beta                 73.781(9)
_cell_angle_gamma                75.565(9)
_cell_volume                     3160
_exptl_crystal_colour            yellow
_exptl_crystal_description       prism
_chemical_melting_point          128-130deg.C
_cell_formula_units_Z            8
loop_
_atom_site_label
_atom_site_type_symbol
_atom_site_fract_x
_atom_site_fract_y
_atom_site_fract_z
C1 C -0.48562(13) 0.60473(12) 1.12932(8)
C2 C -0.58147(13) 0.67906(12) 1.16012(9)
C3 C -0.55106(12) 0.76882(12) 1.14823(8)
C4 C -0.43393(13) 0.75338(11) 1.10978(9)
C5 C -0.62738(14) 0.85168(13) 1.1703(1)
C6 C -0.73254(14) 0.84147(15) 1.20569(11)
C7 C -0.76192(15) 0.75197(17) 1.21866(12)
C8 C -0.68687(15) 0.66900(15) 1.19548(11)
C9 C -0.38972(13) 0.90668(12) 1.09901(11)
C10 C -0.38447(17) 0.97967(14) 1.03714(12)
C11 C -0.4018(2) 1.07580(15) 1.04906(15)
C12 C -0.42168(18) 1.10026(15) 1.12122(15)
C13 C -0.42395(19) 1.02848(18) 1.18236(14)
C14 C -0.40767(18) 0.93145(15) 1.17168(12)
C15 C -0.38828(14) 0.45152(11) 1.0967(1)
C16 C -0.39114(18) 0.39715(14) 1.04222(12)
C17 C -0.2986(2) 0.33459(16) 1.00842(13)
C18 C -0.2028(2) 0.32391(16) 1.02927(15)
C19 C -0.20019(18) 0.37522(15) 1.08448(15)
C20 C -0.29181(16) 0.43847(13) 1.11836(12)
N1 N -0.40232(12) 0.6545(1) 1.10009(8)
N2 N -0.36499(11) 0.8081(1) 1.08500(9)
N3 N -0.48536(12) 0.5152(1) 1.12962(8)
H1 H -0.3324(17) 0.6285(14) 1.0797(11)
H5 H -0.6080 0.9135 1.1614
H6 H -0.7860 0.8973 1.2215
H7 H -0.8347 0.7473 1.2439
H8 H -0.7070 0.6076 1.2036
H9 H -0.3690 0.9636 0.9866
H10 H -0.3998 1.1257 1.0066
H11 H -0.4339 1.1667 1.1288
H12 H -0.4367 1.0451 1.2324
H13 H -0.4088 0.8819 1.2144
H14 H -0.4571 0.4031 1.0282
H15 H -0.3010 0.2986 0.9704
H16 H -0.1391 0.2812 1.0055
H17 H -0.1346 0.3671 1.0996
H18 H -0.2890 0.4735 1.1568
C21 C 0.89421(13) -0.0992(1) 0.62819(9)
C22 C 0.78813(13) -0.0371(1) 0.62234(9)
C23 C 0.79553(13) 0.05974(11) 0.61656(9)
C24 C 0.90640(13) 0.0622(1) 0.61772(9)
C25 C 0.70653(15) 0.13524(12) 0.61161(11)
C26 C 0.61120(15) 0.11012(13) 0.61189(12)
C27 C 0.60392(15) 0.01345(13) 0.61695(11)
C28 C 0.69275(14) -0.06208(12) 0.6227(1)
C29 C 1.05014(13) 0.1330(1) 0.61585(9)
C30 C 1.08692(15) 0.09403(13) 0.6810(1)
C31 C 1.19088(17) 0.09597(14) 0.68264(12)
C32 C 1.25873(16) 0.13633(15) 0.62016(14)
C33 C 1.22199(17) 0.17580(16) 0.55523(12)
C34 C 1.11890(16) 0.17521(14) 0.5527(1)
C35 C 1.02116(14) -0.2462(1) 0.6391(1)
C36 C 1.03535(17) -0.31059(14) 0.70384(12)
C37 C 1.1354(2) -0.37185(16) 0.70387(14)
C38 C 1.22006(17) -0.37023(15) 0.64073(15)
C39 C 1.20601(17) -0.30746(16) 0.57627(13)
C40 C 1.10718(16) -0.24484(14) 0.57581(11)
N4 N 0.96136(12) -0.03503(9) 0.62383(8)
N5 N 0.94181(11) 0.13919(9) 0.61268(8)
N6 N 0.91522(11) -0.19177(9) 0.63688(8)
H2 H 1.0272(15) -0.0536(13) 0.627(1)
H19 H 0.7109 0.2015 0.6082
H20 H 0.5490 0.1603 0.6085
H21 H 0.5373 -0.0012 0.6165
H22 H 0.6881 -0.1284 0.6267
H23 H 1.0406 0.0658 0.7247
H24 H 1.2157 0.0690 0.7276
H25 H 1.3304 0.1371 0.6215
H26 H 1.2689 0.2037 0.5117
H27 H 1.0942 0.2036 0.5079
H28 H 0.9767 -0.3127 0.7480
H29 H 1.1452 -0.4157 0.7485
H30 H 1.2885 -0.4125 0.6415
H31 H 1.2644 -0.3070 0.5318
H32 H 1.0985 -0.2004 0.5313
C41 C 0.64992(13) 0.4576(1) 0.61567(8)
C42 C 0.76223(13) 0.46630(11) 0.60869(9)
C43 C 0.76042(13) 0.56109(11) 0.61821(9)
C44 C 0.64695(13) 0.6161(1) 0.63025(8)
C45 C 0.85873(14) 0.39739(12) 0.5967(1)
C46 C 0.95213(15) 0.42716(14) 0.59508(11)
C47 C 0.95016(15) 0.52197(14) 0.60494(11)
C48 C 0.85330(14) 0.59100(12) 0.6167(1)
C49 C 0.50312(13) 0.7495(1) 0.64840(9)
C50 C 0.46460(16) 0.82171(13) 0.59439(11)
C51 C 0.35606(19) 0.86759(15) 0.60997(13)
C52 C 0.28643(17) 0.84408(15) 0.67849(14)
C53 C 0.32447(17) 0.77331(15) 0.73209(13)
C54 C 0.43191(15) 0.72581(13) 0.7174(1)
C55 C 0.50889(13) 0.3839(1) 0.61833(9)
C56 C 0.46927(18) 0.37571(18) 0.55827(11)
C57 C 0.3623(2) 0.3689(2) 0.57058(13)
C58 C 0.29454(17) 0.36871(15) 0.64171(12)
C59 C 0.33321(18) 0.37605(17) 0.70189(12)
C60 C 0.43907(17) 0.38565(16) 0.68957(11)
N7 N 0.58524(12) 0.54871(9) 0.63198(8)
N8 N 0.61557(11) 0.70733(9) 0.63447(8)
N9 N 0.62068(11) 0.38303(9) 0.60652(8)
H3 H 0.5146(16) 0.5628(13) 0.637(1)
H33 H 0.8607 0.3325 0.5899
H34 H 1.0195 0.3815 0.5870
H35 H 1.0158 0.5398 0.6036
H36 H 0.8512 0.6560 0.6234
H37 H 0.5125 0.8394 0.5471
H38 H 0.3295 0.9161 0.5727
H39 H 0.2122 0.8765 0.6888
H40 H 0.2764 0.7570 0.7797
H41 H 0.4574 0.6766 0.7547
H42 H 0.5157 0.3746 0.5082
H43 H 0.3358 0.3644 0.5285
H44 H 0.2213 0.3636 0.6495
H45 H 0.2872 0.3746 0.7522
H46 H 0.4641 0.3937 0.7314
C61 C 0.15292(12) 0.16998(11) 1.10985(8)
C62 C 0.22225(12) 0.22371(12) 1.12909(9)
C63 C 0.22533(13) 0.30926(12) 1.07934(9)
C64 C 0.16183(12) 0.31119(11) 1.02372(8)
C65 C 0.27930(15) 0.37753(14) 1.0871(1)
C66 C 0.33038(17) 0.35606(17) 1.14667(12)
C67 C 0.32856(17) 0.26949(18) 1.19587(11)
C68 C 0.27472(15) 0.20180(15) 1.1880(1)
C69 C 0.09640(12) 0.37183(11) 0.91311(8)
C70 C 0.12238(15) 0.29394(12) 0.8723(1)
C71 C 0.07063(19) 0.29615(15) 0.81517(12)
C72 C -0.00718(18) 0.37492(17) 0.79900(11)
C73 C -0.03287(19) 0.45315(17) 0.83927(13)
C74 C 0.01849(17) 0.45216(14) 0.89572(11)
C75 C 0.05226(13) 0.05203(12) 1.12501(9)
C76 C -0.05529(15) 0.10169(13) 1.13812(11)
C77 C -0.13241(15) 0.06138(16) 1.12450(13)
C78 C -0.10506(18) -0.02728(17) 1.09870(12)
C79 C 0.00128(19) -0.07699(15) 1.08562(12)
C80 C 0.07984(15) -0.03783(13) 1.09885(11)
N10 N 0.1166(1) 0.22867(9) 1.04776(7)
N11 N 0.15314(11) 0.37742(9) 0.96718(7)
N12 N 0.13025(11) 0.0893(1) 1.14447(8)
H4 H 0.0835(16) 0.2078(14) 1.0205(11)
H47 H 0.2812 0.4365 1.0530
H48 H 0.3674 0.4016 1.1540
H49 H 0.3652 0.2566 1.2358
H50 H 0.2736 0.1424 1.2216
H51 H 0.1760 0.2383 0.8831
H52 H 0.0897 0.2421 0.7870
H53 H -0.0431 0.3756 0.7604
H54 H -0.0865 0.5085 0.8281
H55 H 0.0003 0.5070 0.9229
H56 H -0.0758 0.1634 1.1565
H57 H -0.2058 0.0960 1.1333
H58 H -0.1590 -0.0545 1.0898
H59 H 0.0209 -0.1388 1.0674
H60 H 0.1531 -0.0729 1.0899
loop_
_geom_bond_atom_site_label_1
_geom_bond_atom_site_label_2
_geom_bond_site_symmetry_1
_geom_bond_site_symmetry_2
C1 C2 1_555 1_555
C2 C3 1_555 1_555
C3 C4 1_555 1_555
C4 N1 1_555 1_555
C5 C3 1_555 1_555
C6 C5 1_555 1_555
C7 C6 1_555 1_555
C8 C2 1_555 1_555
C9 C10 1_555 1_555
C10 C11 1_555 1_555
C11 C12 1_555 1_555
C12 C13 1_555 1_555
C13 C14 1_555 1_555
C14 C9 1_555 1_555
C15 C16 1_555 1_555
C16 C17 1_555 1_555
C17 C18 1_555 1_555
C18 C19 1_555 1_555
C19 C20 1_555 1_555
C20 C15 1_555 1_555
C21 C22 1_555 1_555
C22 C23 1_555 1_555
C23 C24 1_555 1_555
C24 N4 1_555 1_555
C25 C23 1_555 1_555
C26 C25 1_555 1_555
C27 C26 1_555 1_555
C28 C22 1_555 1_555
C29 C30 1_555 1_555
C30 C31 1_555 1_555
C31 C32 1_555 1_555
C32 C33 1_555 1_555
C33 C34 1_555 1_555
C34 C29 1_555 1_555
C35 C36 1_555 1_555
C36 C37 1_555 1_555
C37 C38 1_555 1_555
C38 C39 1_555 1_555
C39 C40 1_555 1_555
C40 C35 1_555 1_555
C41 C42 1_555 1_555
C42 C43 1_555 1_555
C43 C44 1_555 1_555
C44 N7 1_555 1_555
C45 C42 1_555 1_555
C46 C45 1_555 1_555
C47 C46 1_555 1_555
C48 C43 1_555 1_555
C49 C50 1_555 1_555
C50 C51 1_555 1_555
C51 C52 1_555 1_555
C52 C53 1_555 1_555
C53 C54 1_555 1_555
C54 C49 1_555 1_555
C55 C56 1_555 1_555
C56 C57 1_555 1_555
C57 C58 1_555 1_555
C58 C59 1_555 1_555
C59 C60 1_555 1_555
C60 C55 1_555 1_555
C61 C62 1_555 1_555
C62 C63 1_555 1_555
C63 C64 1_555 1_555
C64 N10 1_555 1_555
C65 C63 1_555 1_555
C66 C65 1_555 1_555
C67 C66 1_555 1_555
C68 C62 1_555 1_555
C69 C70 1_555 1_555
C70 C71 1_555 1_555
C71 C72 1_555 1_555
C72 C73 1_555 1_555
C73 C74 1_555 1_555
C74 C69 1_555 1_555
C75 C76 1_555 1_555
C76 C77 1_555 1_555
C77 C78 1_555 1_555
C78 C79 1_555 1_555
C79 C80 1_555 1_555
C80 C75 1_555 1_555
N1 C1 1_555 1_555
N2 C4 1_555 1_555
N3 C1 1_555 1_555
N4 C21 1_555 1_555
N5 C24 1_555 1_555
N6 C21 1_555 1_555
N7 C41 1_555 1_555
N8 C44 1_555 1_555
N9 C41 1_555 1_555
N10 C61 1_555 1_555
N11 C64 1_555 1_555
N12 C61 1_555 1_555
H1 N1 1_555 1_555
H2 N4 1_555 1_555
H3 N7 1_555 1_555
H4 N10 1_555 1_555
H5 C5 1_555 1_555
H6 C6 1_555 1_555
H7 C7 1_555 1_555
H8 C8 1_555 1_555
H9 C10 1_555 1_555
H10 C11 1_555 1_555
H11 C12 1_555 1_555
H12 C13 1_555 1_555
H13 C14 1_555 1_555
H14 C16 1_555 1_555
H15 C17 1_555 1_555
H16 C18 1_555 1_555
H17 C19 1_555 1_555
H18 C20 1_555 1_555
H19 C25 1_555 1_555
H20 C26 1_555 1_555
H21 C27 1_555 1_555
H22 C28 1_555 1_555
H23 C30 1_555 1_555
H24 C31 1_555 1_555
H25 C32 1_555 1_555
H26 C33 1_555 1_555
H27 C34 1_555 1_555
H28 C36 1_555 1_555
H29 C37 1_555 1_555
H30 C38 1_555 1_555
H31 C39 1_555 1_555
H32 C40 1_555 1_555
H33 C45 1_555 1_555
H34 C46 1_555 1_555
H35 C47 1_555 1_555
H36 C48 1_555 1_555
H37 C50 1_555 1_555
H38 C51 1_555 1_555
H39 C52 1_555 1_555
H40 C53 1_555 1_555
H41 C54 1_555 1_555
H42 C56 1_555 1_555
H43 C57 1_555 1_555
H44 C58 1_555 1_555
H45 C59 1_555 1_555
H46 C60 1_555 1_555
H47 C65 1_555 1_555
H48 C66 1_555 1_555
H49 C67 1_555 1_555
H50 C68 1_555 1_555
H51 C70 1_555 1_555
H52 C71 1_555 1_555
H53 C72 1_555 1_555
H54 C73 1_555 1_555
H55 C74 1_555 1_555
H56 C76 1_555 1_555
H57 C77 1_555 1_555
H58 C78 1_555 1_555
H59 C79 1_555 1_555
H60 C80 1_555 1_555
C7 C8 1_555 1_555
C9 N2 1_555 1_555
C15 N3 1_555 1_555
C27 C28 1_555 1_555
C29 N5 1_555 1_555
C35 N6 1_555 1_555
C47 C48 1_555 1_555
C49 N8 1_555 1_555
C55 N9 1_555 1_555
C67 C68 1_555 1_555
C69 N11 1_555 1_555
C75 N12 1_555 1_555

#END
