
#######################################################################
#
#                 Cambridge Crystallographic Data Centre
#                                CCDC 
#
#######################################################################
#
# If this CIF has been generated from an entry in the Cambridge 
# Structural Database, then it will include bibliographic, chemical, 
# crystal, experimental, refinement or atomic coordinate data resulting 
# from the CCDC's data processing and validation procedures.
#
#######################################################################

data_KAHSIY
_chemical_name_common            "1-phenyl-2-(2'-pyridyl) carborane"
_chemical_formula_moiety         'C13 H19 B10 N1'
_chemical_name_systematic        
1-phenyl-2-(2'-pyridyl)-1,2-dicarba-closo-dodecaborane(10)
_symmetry_cell_setting           monoclinic
_symmetry_space_group_name_H-M   'P 21/n'
_symmetry_Int_Tables_number      14
_space_group_name_Hall           '-P 2yn'
loop_
_symmetry_equiv_pos_site_id
_symmetry_equiv_pos_as_xyz
1 x,y,z
2 1/2-x,1/2+y,1/2-z
3 -x,-y,-z
4 1/2+x,1/2-y,1/2+z
_cell_length_a                   6.5454(3)
_cell_length_b                   13.0733(5)
_cell_length_c                   19.0145(7)
_cell_angle_alpha                90
_cell_angle_beta                 93.1741(14)
_cell_angle_gamma                90
_cell_volume                     1624.57
_exptl_crystal_colour            colorless
_exptl_crystal_description       prism
_cell_formula_units_Z            4
loop_
_atom_site_label
_atom_site_type_symbol
_atom_site_fract_x
_atom_site_fract_y
_atom_site_fract_z
N1 N 0.21194(19) 0.95454(10) 0.14152(6)
C1 C 0.56223(17) 0.79645(9) 0.23077(6)
C2 C 0.46696(18) 0.91686(9) 0.23395(6)
C3 C 0.58460(19) 0.74663(9) 0.16000(6)
C4 C 0.7685(2) 0.75334(10) 0.12686(7)
H1 H 0.8784 0.7926 0.1474
C5 C 0.7905(2) 0.70228(11) 0.06343(7)
H2 H 0.9167 0.7060 0.0412
C6 C 0.6306(2) 0.64627(11) 0.03264(7)
H3 H 0.6461 0.6123 -0.0109
C7 C 0.4482(3) 0.63990(12) 0.06543(8)
H4 H 0.3380 0.6014 0.0443
C8 C 0.4250(2) 0.68934(11) 0.12904(7)
H5 H 0.2994 0.6840 0.1515
C9 C 0.4053(2) 0.96993(9) 0.16584(6)
C10 C 0.5385(2) 1.03536(11) 0.13373(7)
H6 H 0.6747 1.0447 0.1526
C11 C 0.4682(3) 1.08687(12) 0.07341(8)
H7 H 0.5561 1.1318 0.0500
C12 C 0.2708(3) 1.07215(12) 0.04803(8)
H8 H 0.2192 1.1066 0.0068
C13 C 0.1484(3) 1.00627(14) 0.08347(8)
H9 H 0.0111 0.9970 0.0658
B1 B 0.3170(2) 0.81578(11) 0.25783(7)
H10 H 0.1755 0.7902 0.2270
B2 B 0.4870(2) 0.72766(11) 0.30102(7)
H11 H 0.4576 0.6433 0.2995
B3 B 0.7386(2) 0.77825(11) 0.29920(7)
H12 H 0.8756 0.7273 0.2965
B4 B 0.7236(2) 0.89714(11) 0.25459(7)
H13 H 0.8487 0.9249 0.2216
B5 B 0.3247(2) 0.93230(11) 0.30565(7)
H14 H 0.1879 0.9836 0.3070
B6 B 0.3389(2) 0.81281(11) 0.35040(7)
H15 H 0.2111 0.7847 0.3821
B7 B 0.6002(2) 0.78980(12) 0.37664(7)
H16 H 0.6455 0.7465 0.4259
B8 B 0.7477(2) 0.89470(12) 0.34758(8)
H17 H 0.8906 0.9208 0.3774
B9 B 0.5765(2) 0.98257(11) 0.30390(7)
H18 H 0.6057 1.0670 0.3041
B10 B 0.5002(2) 0.91617(12) 0.37965(7)
H19 H 0.4795 0.9564 0.4308
loop_
_geom_bond_atom_site_label_1
_geom_bond_atom_site_label_2
_geom_bond_site_symmetry_1
_geom_bond_site_symmetry_2
N1 C9 1_555 1_555
C1 C2 1_555 1_555
C2 C9 1_555 1_555
C3 C1 1_555 1_555
C4 C3 1_555 1_555
H1 C4 1_555 1_555
C5 C4 1_555 1_555
H2 C5 1_555 1_555
C6 C5 1_555 1_555
H3 C6 1_555 1_555
C7 C6 1_555 1_555
H4 C7 1_555 1_555
C8 C3 1_555 1_555
H5 C8 1_555 1_555
C9 C10 1_555 1_555
C10 H6 1_555 1_555
C11 C10 1_555 1_555
H7 C11 1_555 1_555
C12 C11 1_555 1_555
H8 C12 1_555 1_555
C13 N1 1_555 1_555
H9 C13 1_555 1_555
B1 C1 1_555 1_555
H10 B1 1_555 1_555
B2 C1 1_555 1_555
H11 B2 1_555 1_555
B3 C1 1_555 1_555
H12 B3 1_555 1_555
B4 C1 1_555 1_555
H13 B4 1_555 1_555
B5 C2 1_555 1_555
H14 B5 1_555 1_555
B6 B1 1_555 1_555
H15 B6 1_555 1_555
B7 B2 1_555 1_555
H16 B7 1_555 1_555
B8 B3 1_555 1_555
H17 B8 1_555 1_555
B9 C2 1_555 1_555
H18 B9 1_555 1_555
B10 B5 1_555 1_555
H19 B10 1_555 1_555
C2 B1 1_555 1_555
C2 B4 1_555 1_555
C7 C8 1_555 1_555
C12 C13 1_555 1_555
B1 B2 1_555 1_555
B1 B5 1_555 1_555
B2 B3 1_555 1_555
B2 B6 1_555 1_555
B3 B4 1_555 1_555
B3 B7 1_555 1_555
B4 B8 1_555 1_555
B4 B9 1_555 1_555
B5 B6 1_555 1_555
B5 B9 1_555 1_555
B6 B7 1_555 1_555
B6 B10 1_555 1_555
B7 B8 1_555 1_555
B7 B10 1_555 1_555
B8 B9 1_555 1_555
B8 B10 1_555 1_555
B9 B10 1_555 1_555

#END
