
#######################################################################
#
#                 Cambridge Crystallographic Data Centre
#                                CCDC 
#
#######################################################################
#
# If this CIF has been generated from an entry in the Cambridge 
# Structural Database, then it will include bibliographic, chemical, 
# crystal, experimental, refinement or atomic coordinate data resulting 
# from the CCDC's data processing and validation procedures.
#
#######################################################################

data_KAJGEK
_chemical_formula_moiety         'C29 H35 I1'
_chemical_name_systematic        
(2,4-dicyclohexyl-1-iodo-1-phenylpenta-1,3-dien-3-yl)benzene
_symmetry_cell_setting           monoclinic
_symmetry_space_group_name_H-M   'P 21/c'
_symmetry_Int_Tables_number      14
_space_group_name_Hall           '-P 2ybc'
loop_
_symmetry_equiv_pos_site_id
_symmetry_equiv_pos_as_xyz
1 x,y,z
2 -x,1/2+y,1/2-z
3 -x,-y,-z
4 x,1/2-y,1/2+z
_cell_length_a                   17.4002(18)
_cell_length_b                   8.8803(9)
_cell_length_c                   18.069(2)
_cell_angle_alpha                90
_cell_angle_beta                 113.935(2)
_cell_angle_gamma                90
_cell_volume                     2551.91
_exptl_crystal_colour            colorless
_exptl_crystal_description       block
_cell_formula_units_Z            4
loop_
_atom_site_label
_atom_site_type_symbol
_atom_site_fract_x
_atom_site_fract_y
_atom_site_fract_z
I1 I -1.35956(3) 0.83756(4) -0.01118(2)
C1 C -1.3268(3) 0.6589(5) -0.0721(3)
C2 C -1.2707(3) 0.5545(4) -0.0315(3)
C3 C -1.2304(3) 0.5495(5) 0.0602(3)
C4 C -1.1690(3) 0.6427(5) 0.1043(3)
C5 C -1.1327(3) 0.7607(6) 0.0645(4)
H1 H -1.1458 0.8600 0.0770
H2 H -1.1569 0.7465 0.0069
H3 H -1.0728 0.7490 0.0850
C6 C -1.1344(3) 0.6438(5) 0.1957(3)
H4 H -1.1613 0.5602 0.2115
C7 C -1.0401(3) 0.6190(7) 0.2384(3)
H5 H -1.0253 0.5260 0.2192
H6 H -1.0110 0.7008 0.2250
C8 C -1.0111(4) 0.6111(8) 0.3289(4)
H7 H -1.0344 0.5216 0.3428
H8 H -0.9503 0.6027 0.3538
C9 C -1.0373(4) 0.7458(8) 0.3617(4)
H9 H -1.0240 0.7299 0.4187
H10 H -1.0054 0.8323 0.3572
C10 C -1.1289(4) 0.7791(7) 0.3187(4)
H11 H -1.1409 0.8749 0.3375
H12 H -1.1608 0.7020 0.3319
C11 C -1.1568(3) 0.7854(6) 0.2283(3)
H13 H -1.1304 0.8709 0.2145
H14 H -1.2172 0.8001 0.2028
C12 C -1.2651(3) 0.4253(5) 0.0942(3)
C13 C -1.3511(4) 0.4144(7) 0.0717(4)
H15 H -1.3870 0.4868 0.0381
C14 C -1.3834(6) 0.2939(11) 0.1000(5)
H16 H -1.4404 0.2906 0.0892
C15 C -1.3308(9) 0.1801(9) 0.1436(6)
H17 H -1.3532 0.0959 0.1583
C16 C -1.2468(7) 0.1896(7) 0.1654(4)
H18 H -1.2113 0.1153 0.1978
C17 C -1.2136(4) 0.3102(5) 0.1394(3)
H19 H -1.1562 0.3138 0.1524
C18 C -1.2477(3) 0.4328(5) -0.0771(3)
H20 H -1.2625 0.4707 -0.1321
C19 C -1.2968(4) 0.2859(6) -0.0852(4)
H21 H -1.2838 0.2444 -0.0318
H22 H -1.3566 0.3069 -0.1102
C20 C -1.2751(6) 0.1715(7) -0.1359(5)
H23 H -1.3049 0.0784 -0.1376
H24 H -1.2936 0.2088 -0.1909
C21 C -1.1842(7) 0.1410(8) -0.1031(6)
H25 H -1.1725 0.0733 -0.1395
H26 H -1.1672 0.0911 -0.0512
C22 C -1.1331(4) 0.2830(9) -0.0927(4)
H27 H -1.1440 0.3253 -0.1455
H28 H -1.0738 0.2586 -0.0667
C23 C -1.1545(3) 0.3999(7) -0.0418(3)
H29 H -1.1372 0.3626 0.0131
H30 H -1.1238 0.4921 -0.0397
C24 C -1.3742(3) 0.6672(5) -0.1617(3)
C25 C -1.3492(3) 0.7623(6) -0.2075(3)
H31 H -1.3032 0.8252 -0.1823
C26 C -1.3920(4) 0.7655(7) -0.2910(4)
H32 H -1.3744 0.8292 -0.3219
C27 C -1.4603(4) 0.6742(8) -0.3276(4)
H33 H -1.4893 0.6765 -0.3836
C28 C -1.4857(4) 0.5817(9) -0.2836(4)
H34 H -1.5316 0.5188 -0.3092
C29 C -1.4440(4) 0.5792(7) -0.2004(4)
H35 H -1.4633 0.5172 -0.1702
loop_
_geom_bond_atom_site_label_1
_geom_bond_atom_site_label_2
_geom_bond_site_symmetry_1
_geom_bond_site_symmetry_2
I1 C1 1_555 1_555
C1 C2 1_555 1_555
C2 C3 1_555 1_555
C3 C4 1_555 1_555
C4 C5 1_555 1_555
C5 H1 1_555 1_555
H2 C5 1_555 1_555
H3 C5 1_555 1_555
C6 C4 1_555 1_555
H4 C6 1_555 1_555
C7 C6 1_555 1_555
H5 C7 1_555 1_555
H6 C7 1_555 1_555
C8 C7 1_555 1_555
H7 C8 1_555 1_555
H8 C8 1_555 1_555
C9 C8 1_555 1_555
H9 C9 1_555 1_555
H10 C9 1_555 1_555
C10 C9 1_555 1_555
H11 C10 1_555 1_555
H12 C10 1_555 1_555
C11 C6 1_555 1_555
H13 C11 1_555 1_555
H14 C11 1_555 1_555
C12 C3 1_555 1_555
C13 C12 1_555 1_555
H15 C13 1_555 1_555
C14 C13 1_555 1_555
H16 C14 1_555 1_555
C15 C14 1_555 1_555
H17 C15 1_555 1_555
C16 C15 1_555 1_555
H18 C16 1_555 1_555
C17 C12 1_555 1_555
H19 C17 1_555 1_555
C18 C2 1_555 1_555
H20 C18 1_555 1_555
C19 C18 1_555 1_555
H21 C19 1_555 1_555
H22 C19 1_555 1_555
C20 C19 1_555 1_555
H23 C20 1_555 1_555
H24 C20 1_555 1_555
C21 C20 1_555 1_555
H25 C21 1_555 1_555
H26 C21 1_555 1_555
C22 C21 1_555 1_555
H27 C22 1_555 1_555
H28 C22 1_555 1_555
C23 C18 1_555 1_555
H29 C23 1_555 1_555
H30 C23 1_555 1_555
C24 C1 1_555 1_555
C25 C24 1_555 1_555
H31 C25 1_555 1_555
C26 C25 1_555 1_555
H32 C26 1_555 1_555
C27 C26 1_555 1_555
H33 C27 1_555 1_555
C28 C27 1_555 1_555
H34 C28 1_555 1_555
C29 C24 1_555 1_555
H35 C29 1_555 1_555
C10 C11 1_555 1_555
C16 C17 1_555 1_555
C22 C23 1_555 1_555
C28 C29 1_555 1_555

#END
