
#######################################################################
#
#                 Cambridge Crystallographic Data Centre
#                                CCDC 
#
#######################################################################
#
# If this CIF has been generated from an entry in the Cambridge 
# Structural Database, then it will include bibliographic, chemical, 
# crystal, experimental, refinement or atomic coordinate data resulting 
# from the CCDC's data processing and validation procedures.
#
#######################################################################

data_KAJMOA
_chemical_formula_moiety         'C19 H20 Br1 N1 O3 S1'
_chemical_name_systematic        
4-Bromo-N-(2-hydroxy-2-methyl-6-phenylhexa-3,5-dien-1-yl)benzenesulfonamide
_symmetry_cell_setting           orthorhombic
_symmetry_space_group_name_H-M   'P 21 21 21'
_symmetry_Int_Tables_number      19
_space_group_name_Hall           'P 2ac 2ab'
loop_
_symmetry_equiv_pos_site_id
_symmetry_equiv_pos_as_xyz
1 x,y,z
2 1/2-x,-y,1/2+z
3 -x,1/2+y,1/2-z
4 1/2+x,1/2-y,-z
_cell_length_a                   5.9186(3)
_cell_length_b                   7.6659(4)
_cell_length_c                   41.4766(19)
_cell_angle_alpha                90
_cell_angle_beta                 90
_cell_angle_gamma                90
_cell_volume                     1881.85
_exptl_crystal_colour            colorless
_exptl_crystal_description       block
_cell_formula_units_Z            4
loop_
_atom_site_label
_atom_site_type_symbol
_atom_site_fract_x
_atom_site_fract_y
_atom_site_fract_z
Br1 Br 0.80799(5) 0.42490(4) 0.959002(7)
S1 S 0.35729(11) 0.58070(10) 1.096531(16)
O1 O 0.4606(4) 0.4628(2) 1.11875(5)
O2 O 0.1187(3) 0.5813(3) 1.09258(5)
O3 O 0.5240(4) 1.1095(3) 1.10754(5)
H1 H 0.5269 1.2128 1.1143
N1 N 0.4261(4) 0.7747(3) 1.10758(6)
H2 H 0.3198 0.8510 1.1122
C1 C 0.3094(6) 1.0308(4) 1.28109(8)
H3 H 0.4525 0.9894 1.2741
C2 C 0.2426(6) 1.0025(5) 1.31239(8)
H4 H 0.3398 0.9420 1.3268
C3 C 0.0357(6) 1.0613(5) 1.32305(8)
H5 H -0.0108 1.0398 1.3446
C4 C -0.1017(6) 1.1502(5) 1.30255(9)
H6 H -0.2431 1.1929 1.3100
C5 C -0.0370(6) 1.1790(5) 1.27091(9)
H7 H -0.1356 1.2403 1.2568
C6 C 0.1692(5) 1.1198(4) 1.25938(7)
C7 C 0.2295(5) 1.1437(4) 1.22542(8)
H8 H 0.1400 1.2230 1.2133
C8 C 0.3982(5) 1.0646(4) 1.20989(7)
H9 H 0.4936 0.9901 1.2221
C9 C 0.4476(5) 1.0833(4) 1.17593(7)
H10 H 0.3598 1.1629 1.1636
C10 C 0.6104(5) 0.9941(4) 1.16104(7)
H11 H 0.6941 0.9146 1.1739
C11 C 0.6760(5) 1.0054(4) 1.12622(7)
C12 C 0.6631(5) 0.8253(4) 1.10993(8)
H12 H 0.7313 0.8307 1.0882
H13 H 0.7475 0.7383 1.1228
C13 C 0.4810(5) 0.5389(3) 1.05848(7)
C14 C 0.3683(5) 0.5876(4) 1.03052(7)
H14 H 0.2258 0.6441 1.0318
C15 C 0.4642(5) 0.5535(4) 1.00081(7)
H15 H 0.3876 0.5849 0.9815
C16 C 0.6720(5) 0.4733(3) 0.99948(7)
C17 C 0.7862(5) 0.4250(4) 1.02706(7)
H16 H 0.9292 0.3693 1.0256
C18 C 0.6904(5) 0.4585(3) 1.05691(7)
H17 H 0.7675 0.4267 1.0761
C19 C 0.9162(5) 1.0732(5) 1.12338(9)
H18 H 0.9271 1.1876 1.1338
H19 H 0.9567 1.0842 1.1006
H20 H 1.0199 0.9915 1.1339
loop_
_geom_bond_atom_site_label_1
_geom_bond_atom_site_label_2
_geom_bond_site_symmetry_1
_geom_bond_site_symmetry_2
Br1 C16 1_555 1_555
S1 O1 1_555 1_555
O2 S1 1_555 1_555
O3 H1 1_555 1_555
N1 S1 1_555 1_555
H2 N1 1_555 1_555
C1 H3 1_555 1_555
C2 C1 1_555 1_555
H4 C2 1_555 1_555
C3 C2 1_555 1_555
H5 C3 1_555 1_555
C4 C3 1_555 1_555
H6 C4 1_555 1_555
C5 C4 1_555 1_555
H7 C5 1_555 1_555
C6 C1 1_555 1_555
C7 C6 1_555 1_555
H8 C7 1_555 1_555
C8 C7 1_555 1_555
H9 C8 1_555 1_555
C9 C8 1_555 1_555
H10 C9 1_555 1_555
C10 C9 1_555 1_555
H11 C10 1_555 1_555
C11 O3 1_555 1_555
C12 N1 1_555 1_555
H12 C12 1_555 1_555
H13 C12 1_555 1_555
C13 S1 1_555 1_555
C14 C13 1_555 1_555
H14 C14 1_555 1_555
C15 C14 1_555 1_555
H15 C15 1_555 1_555
C16 C15 1_555 1_555
C17 C16 1_555 1_555
H16 C17 1_555 1_555
C18 C13 1_555 1_555
H17 C18 1_555 1_555
C19 C11 1_555 1_555
H18 C19 1_555 1_555
H19 C19 1_555 1_555
H20 C19 1_555 1_555
C5 C6 1_555 1_555
C10 C11 1_555 1_555
C11 C12 1_555 1_555
C17 C18 1_555 1_555

#END
