
#######################################################################
#
#                 Cambridge Crystallographic Data Centre
#                                CCDC 
#
#######################################################################
#
# If this CIF has been generated from an entry in the Cambridge 
# Structural Database, then it will include bibliographic, chemical, 
# crystal, experimental, refinement or atomic coordinate data resulting 
# from the CCDC's data processing and validation procedures.
#
#######################################################################

data_KAJQET
_chemical_formula_moiety         'C10 H9 Br2 Cl1 N2 O3'
_chemical_name_systematic        
N-(2,2-Dibromo-1-(4-chlorophenyl)-2-nitroethyl)acetamide
_symmetry_cell_setting           orthorhombic
_symmetry_space_group_name_H-M   'P 21 21 21'
_symmetry_Int_Tables_number      19
_space_group_name_Hall           'P 2ac 2ab'
loop_
_symmetry_equiv_pos_site_id
_symmetry_equiv_pos_as_xyz
1 x,y,z
2 1/2-x,-y,1/2+z
3 -x,1/2+y,1/2-z
4 1/2+x,1/2-y,-z
_cell_length_a                   9.6100(19)
_cell_length_b                   11.493(2)
_cell_length_c                   12.112(2)
_cell_angle_alpha                90
_cell_angle_beta                 90
_cell_angle_gamma                90
_cell_volume                     1337.74
_exptl_crystal_colour            colorless
_exptl_crystal_description       block
_cell_formula_units_Z            4
loop_
_atom_site_label
_atom_site_type_symbol
_atom_site_fract_x
_atom_site_fract_y
_atom_site_fract_z
Br1 Br 0.34956(8) 0.98619(7) 0.28861(6)
Br2 Br 0.65509(8) 1.06322(6) 0.22717(6)
C1 C 0.5194(8) 0.6410(6) 0.5611(7)
H1 H 0.5488 0.5746 0.5191
H2 H 0.4215 0.6534 0.5501
H3 H 0.5372 0.6276 0.6380
C2 C 0.5987(8) 0.7470(6) 0.5234(5)
C3 C 0.5882(6) 0.9332(6) 0.4262(5)
H4 H 0.6886 0.9182 0.4259
C4 C 0.5426(7) 0.9486(6) 0.3040(5)
C5 C 0.5648(6) 1.0418(6) 0.4952(5)
C6 C 0.4447(7) 1.0605(6) 0.5543(5)
H5 H 0.3734 1.0059 0.5507
C7 C 0.4273(7) 1.1593(6) 0.6196(6)
H6 H 0.3460 1.1709 0.6597
C8 C 0.5349(8) 1.2398(6) 0.6229(5)
C9 C 0.6565(7) 1.2236(6) 0.5648(5)
H7 H 0.7273 1.2786 0.5680
C10 C 0.6720(6) 1.1238(6) 0.5014(5)
H8 H 0.7543 1.1114 0.4628
Cl1 Cl 0.5168(2) 1.36337(16) 0.70601(17)
N1 N 0.5212(5) 0.8296(4) 0.4708(4)
H9 H 0.4328 0.8206 0.4640
N2 N 0.5732(7) 0.8340(5) 0.2403(5)
O1 O 0.5024(8) 0.8098(6) 0.1629(5)
O2 O 0.6760(7) 0.7805(5) 0.2724(5)
O3 O 0.7225(6) 0.7587(5) 0.5370(5)
loop_
_geom_bond_atom_site_label_1
_geom_bond_atom_site_label_2
_geom_bond_site_symmetry_1
_geom_bond_site_symmetry_2
Br1 C4 1_555 1_555
Br2 C4 1_555 1_555
C1 H1 1_555 1_555
H2 C1 1_555 1_555
H3 C1 1_555 1_555
C2 C1 1_555 1_555
C3 H4 1_555 1_555
C4 C3 1_555 1_555
C5 C3 1_555 1_555
C6 C5 1_555 1_555
H5 C6 1_555 1_555
C7 C6 1_555 1_555
H6 C7 1_555 1_555
C8 C7 1_555 1_555
C9 C8 1_555 1_555
H7 C9 1_555 1_555
C10 C5 1_555 1_555
H8 C10 1_555 1_555
Cl1 C8 1_555 1_555
N1 C2 1_555 1_555
H9 N1 1_555 1_555
N2 C4 1_555 1_555
O1 N2 1_555 1_555
O2 N2 1_555 1_555
O3 C2 1_555 1_555
C3 N1 1_555 1_555
C9 C10 1_555 1_555

#END
