
#######################################################################
#
#                 Cambridge Crystallographic Data Centre
#                                CCDC 
#
#######################################################################
#
# If this CIF has been generated from an entry in the Cambridge 
# Structural Database, then it will include bibliographic, chemical, 
# crystal, experimental, refinement or atomic coordinate data resulting 
# from the CCDC's data processing and validation procedures.
#
#######################################################################

data_KAKMIS
_chemical_formula_moiety         'C8 H18 N4 O4 S1'
_chemical_name_systematic        N,N'-bis(3-(Aminocarbonyl)propyl)sulfamide
_symmetry_cell_setting           monoclinic
_symmetry_space_group_name_H-M   'C 2/c'
_symmetry_Int_Tables_number      15
_space_group_name_Hall           '-C 2yn'
loop_
_symmetry_equiv_pos_site_id
_symmetry_equiv_pos_as_xyz
1 x,y,z
2 1/2+x,1/2+y,z
3 -x,y,1/2-z
4 1/2-x,1/2+y,1/2-z
5 -x,-y,-z
6 1/2-x,1/2-y,-z
7 x,-y,1/2+z
8 1/2+x,1/2-y,1/2+z
_cell_length_a                   8.6162(1)
_cell_length_b                   5.7716(1)
_cell_length_c                   24.8344(6)
_cell_angle_alpha                90
_cell_angle_beta                 96.298(1)
_cell_angle_gamma                90
_cell_volume                     1227.54
_exptl_crystal_colour            colorless
_cell_formula_units_Z            4
_exptl_crystal_recrystallization_method water
loop_
_atom_site_label
_atom_site_type_symbol
_atom_site_fract_x
_atom_site_fract_y
_atom_site_fract_z
S1 S 0.0000 0.29747(13) 0.2500
O1 O -0.1218(2) 0.1731(3) 0.27193(7)
N1 N 0.0867(2) 0.4547(4) 0.29819(8)
H1 H 0.1857(2) 0.4435(4) 0.30705(8)
C1 C -0.0082(3) 0.6180(5) 0.32661(10)
H2 H -0.0831(3) 0.5331(5) 0.34541(10)
H3 H -0.0652(3) 0.7209(5) 0.30064(10)
C2 C 0.0983(3) 0.7571(5) 0.36667(11)
H4 H 0.1558(3) 0.6521(5) 0.39202(11)
H5 H 0.1734(3) 0.8394(5) 0.34741(11)
C3 C 0.0114(3) 0.9293(5) 0.39782(10)
H6 H -0.0653(3) 0.8471(5) 0.41635(10)
H7 H -0.0443(3) 1.0361(5) 0.37245(10)
C4 C 0.1164(3) 1.0659(5) 0.43888(10)
O2 O 0.2538(2) 1.0116(4) 0.45149(9)
N2 N 0.0531(3) 1.2492(4) 0.46049(9)
H8 H 0.1130(3) 1.3065(4) 0.48032(9)
H9 H -0.0393(3) 1.2792(4) 0.45096(9)
O1B O 0.1218(2) 0.1731(3) 0.22807(7)
N1B N -0.0867(2) 0.4547(4) 0.20181(8)
H1B H -0.1857(2) 0.4435(4) 0.19295(8)
C1B C 0.0082(3) 0.6180(5) 0.17339(10)
H2B H 0.0831(3) 0.5331(5) 0.15459(10)
H3B H 0.0652(3) 0.7209(5) 0.19936(10)
C2B C -0.0983(3) 0.7571(5) 0.13333(11)
H4B H -0.1558(3) 0.6521(5) 0.10798(11)
H5B H -0.1734(3) 0.8394(5) 0.15259(11)
C3B C -0.0114(3) 0.9293(5) 0.10218(10)
H6B H 0.0653(3) 0.8471(5) 0.08365(10)
H7B H 0.0443(3) 1.0361(5) 0.12755(10)
C4B C -0.1164(3) 1.0659(5) 0.06112(10)
O2B O -0.2538(2) 1.0116(4) 0.04851(9)
N2B N -0.0531(3) 1.2492(4) 0.03951(9)
H8B H -0.1130(3) 1.3065(4) 0.01968(9)
H9B H 0.0393(3) 1.2792(4) 0.04904(9)
loop_
_geom_bond_atom_site_label_1
_geom_bond_atom_site_label_2
_geom_bond_site_symmetry_1
_geom_bond_site_symmetry_2
S1 O1 1_555 1_555
N1 S1 1_555 1_555
H1 N1 1_555 1_555
C1 N1 1_555 1_555
H2 C1 1_555 1_555
H3 C1 1_555 1_555
C2 C1 1_555 1_555
H4 C2 1_555 1_555
H5 C2 1_555 1_555
C3 C2 1_555 1_555
H6 C3 1_555 1_555
H7 C3 1_555 1_555
C4 C3 1_555 1_555
O2 C4 1_555 1_555
N2 C4 1_555 1_555
H8 N2 1_555 1_555
H9 N2 1_555 1_555
O1B S1 1_555 1_555
N1B S1 1_555 1_555
H1B N1B 1_555 1_555
C1B N1B 1_555 1_555
H2B C1B 1_555 1_555
H3B C1B 1_555 1_555
C2B C1B 1_555 1_555
H4B C2B 1_555 1_555
H5B C2B 1_555 1_555
C3B C2B 1_555 1_555
H6B C3B 1_555 1_555
H7B C3B 1_555 1_555
C4B C3B 1_555 1_555
O2B C4B 1_555 1_555
N2B C4B 1_555 1_555
H8B N2B 1_555 1_555
H9B N2B 1_555 1_555

#END
