
#######################################################################
#
#                 Cambridge Crystallographic Data Centre
#                                CCDC 
#
#######################################################################
#
# If this CIF has been generated from an entry in the Cambridge 
# Structural Database, then it will include bibliographic, chemical, 
# crystal, experimental, refinement or atomic coordinate data resulting 
# from the CCDC's data processing and validation procedures.
#
#######################################################################

data_KALKIU
_chemical_formula_moiety         'C7 H10 N1 1+,C8 H5 O4 1-'
_chemical_name_systematic        'phenylmethanaminium 3-carboxybenzoate'
_symmetry_cell_setting           triclinic
_symmetry_space_group_name_H-M   'P -1'
_symmetry_Int_Tables_number      2
_space_group_name_Hall           '-P 1'
loop_
_symmetry_equiv_pos_site_id
_symmetry_equiv_pos_as_xyz
1 x,y,z
2 -x,-y,-z
_cell_length_a                   6.4023(4)
_cell_length_b                   10.0924(8)
_cell_length_c                   11.0536(9)
_cell_angle_alpha                92.7740(10)
_cell_angle_beta                 96.864(2)
_cell_angle_gamma                96.490(2)
_cell_volume                     703.172
_exptl_crystal_colour            colorless
_exptl_crystal_description       block
_cell_formula_units_Z            2
loop_
_atom_site_label
_atom_site_type_symbol
_atom_site_fract_x
_atom_site_fract_y
_atom_site_fract_z
N1 N 0.2229(3) 0.40167(19) 0.45920(16)
H1 H 0.3346 0.3911 0.4205
H2 H 0.2567 0.4686 0.5161
H3 H 0.1161 0.4202 0.4059
C1 C 0.1582(5) 0.2766(3) 0.5178(2)
H4 H 0.0255 0.2835 0.5505
H5 H 0.2648 0.2640 0.5850
C2 C 0.1323(4) 0.1595(2) 0.4269(2)
C3 C 0.2998(5) 0.0890(3) 0.4099(3)
H6 H 0.4296 0.1124 0.4578
C4 C 0.2773(5) -0.0155(3) 0.3228(3)
H7 H 0.3906 -0.0633 0.3126
C5 C 0.0883(6) -0.0483(3) 0.2517(3)
H8 H 0.0731 -0.1185 0.1924
C6 C -0.0783(6) 0.0204(3) 0.2664(3)
H9 H -0.2062 -0.0019 0.2164
C7 C -0.0581(5) 0.1231(3) 0.3554(3)
H10 H -0.1740 0.1680 0.3671
O1 O 0.3917(2) 0.62012(15) 0.62708(13)
O2 O 0.1121(3) 0.53622(17) 0.70778(13)
O3 O 0.0959(3) 0.59869(17) 1.14176(13)
H11 H 0.0415 0.5835 1.2039
O4 O 0.3898(3) 0.63837(19) 1.27345(14)
C8 C 0.2971(4) 0.5976(2) 0.71827(19)
C9 C 0.3007(4) 0.6332(2) 1.1705(2)
C10 C 0.4072(4) 0.6454(2) 0.84244(19)
C11 C 0.3043(4) 0.6264(2) 0.94495(18)
H12 H 0.1634 0.5888 0.9357
C12 C 0.4090(4) 0.6629(2) 1.06123(18)
C13 C 0.6161(4) 0.7187(3) 1.0750(2)
H13 H 0.6880 0.7407 1.1528
C14 C 0.7187(4) 0.7426(3) 0.9739(2)
H14 H 0.8579 0.7835 0.9833
C15 C 0.6135(4) 0.7056(3) 0.8586(2)
H15 H 0.6833 0.7215 0.7906
loop_
_geom_bond_atom_site_label_1
_geom_bond_atom_site_label_2
_geom_bond_site_symmetry_1
_geom_bond_site_symmetry_2
N1 H1 1_555 1_555
H2 N1 1_555 1_555
H3 N1 1_555 1_555
C1 N1 1_555 1_555
H4 C1 1_555 1_555
H5 C1 1_555 1_555
C2 C1 1_555 1_555
C3 C2 1_555 1_555
H6 C3 1_555 1_555
C4 C3 1_555 1_555
H7 C4 1_555 1_555
C5 C4 1_555 1_555
H8 C5 1_555 1_555
C6 C5 1_555 1_555
H9 C6 1_555 1_555
C7 C2 1_555 1_555
H10 C7 1_555 1_555
O1 C8 1_555 1_555
O2 C8 1_555 1_555
O3 H11 1_555 1_555
O4 C9 1_555 1_555
C8 C10 1_555 1_555
C9 O3 1_555 1_555
C10 C11 1_555 1_555
C11 H12 1_555 1_555
C12 C9 1_555 1_555
C13 C12 1_555 1_555
H13 C13 1_555 1_555
C14 C13 1_555 1_555
H14 C14 1_555 1_555
C15 C10 1_555 1_555
H15 C15 1_555 1_555
C6 C7 1_555 1_555
C11 C12 1_555 1_555
C14 C15 1_555 1_555

#END
