
#######################################################################
#
#                 Cambridge Crystallographic Data Centre
#                                CCDC 
#
#######################################################################
#
# If this CIF has been generated from an entry in the Cambridge 
# Structural Database, then it will include bibliographic, chemical, 
# crystal, experimental, refinement or atomic coordinate data resulting 
# from the CCDC's data processing and validation procedures.
#
#######################################################################

data_KAMJIR01
_chemical_formula_moiety         'C28 H20'
_chemical_name_systematic        1-Benzylidene-2,3-diphenyl-1H-indene
_symmetry_cell_setting           monoclinic
_symmetry_space_group_name_H-M   'P 21/c'
_symmetry_Int_Tables_number      14
_space_group_name_Hall           '-P 2ybc'
loop_
_symmetry_equiv_pos_site_id
_symmetry_equiv_pos_as_xyz
1 x,y,z
2 -x,1/2+y,1/2-z
3 -x,-y,-z
4 x,1/2-y,1/2+z
_cell_length_a                   10.913(3)
_cell_length_b                   19.779(4)
_cell_length_c                   10.148(2)
_cell_angle_alpha                90
_cell_angle_beta                 117.533(11)
_cell_angle_gamma                90
_cell_volume                     1942.35
_exptl_crystal_colour            orange
_exptl_crystal_description       prism
_cell_formula_units_Z            4
loop_
_atom_site_label
_atom_site_type_symbol
_atom_site_fract_x
_atom_site_fract_y
_atom_site_fract_z
C1 C 0.37436(19) 0.60436(9) 0.5572(2)
C2 C 0.51702(19) 0.58524(9) 0.6630(2)
C3 C 0.60648(19) 0.63082(9) 0.6569(2)
C4 C 0.5730(2) 0.73374(10) 0.4864(2)
H1 H 0.6668 0.7433 0.5259
C5 C 0.4773(3) 0.77234(11) 0.3725(3)
H2 H 0.5068 0.8076 0.3334
C6 C 0.3386(3) 0.75914(11) 0.3162(2)
H3 H 0.2750 0.7865 0.2412
C7 C 0.2919(2) 0.70599(10) 0.3692(2)
H4 H 0.1977 0.6977 0.3310
C8 C 0.3872(2) 0.66535(9) 0.4797(2)
C9 C 0.5282(2) 0.68058(9) 0.5412(2)
C10 C 0.2634(2) 0.57427(10) 0.5546(2)
H5 H 0.2825 0.5392 0.6223
C11 C 0.1165(2) 0.58849(10) 0.4610(2)
C12 C 0.0292(2) 0.59317(12) 0.5256(3)
H6 H 0.0647 0.5869 0.6276
C13 C -0.1095(2) 0.60695(13) 0.4407(3)
H7 H -0.1664 0.6107 0.4859
C14 C -0.1637(2) 0.61505(13) 0.2900(3)
H8 H -0.2569 0.6250 0.2330
C15 C -0.0797(2) 0.60849(12) 0.2240(3)
H9 H -0.1162 0.6131 0.1215
C16 C 0.0585(2) 0.59510(11) 0.3088(2)
H10 H 0.1143 0.5904 0.2625
C17 C 0.55057(19) 0.52675(9) 0.7644(2)
C18 C 0.5108(2) 0.46201(10) 0.7103(2)
H11 H 0.4609 0.4551 0.6084
C19 C 0.5443(2) 0.40762(11) 0.8057(3)
H12 H 0.5170 0.3643 0.7680
C20 C 0.6178(2) 0.41755(12) 0.9561(3)
H13 H 0.6407 0.3809 1.0206
C21 C 0.6574(2) 0.48137(12) 1.0112(2)
H14 H 0.7072 0.4881 1.1133
C22 C 0.6238(2) 0.53567(11) 0.9161(2)
H15 H 0.6507 0.5789 0.9546
C23 C 0.7576(2) 0.63440(10) 0.7520(2)
C24 C 0.8414(2) 0.57809(11) 0.7819(2)
H16 H 0.8029 0.5367 0.7396
C25 C 0.9815(2) 0.58281(14) 0.8737(3)
H17 H 1.0366 0.5445 0.8935
C26 C 1.0401(2) 0.64322(16) 0.9360(3)
H18 H 1.1347 0.6461 0.9978
C27 C 0.9585(2) 0.69981(14) 0.9069(3)
H19 H 0.9980 0.7411 0.9488
C28 C 0.8187(2) 0.69535(11) 0.8158(2)
H20 H 0.7642 0.7339 0.7968
loop_
_geom_bond_atom_site_label_1
_geom_bond_atom_site_label_2
_geom_bond_site_symmetry_1
_geom_bond_site_symmetry_2
C1 C2 1_555 1_555
C2 C3 1_555 1_555
C3 C9 1_555 1_555
C4 H1 1_555 1_555
C5 C4 1_555 1_555
H2 C5 1_555 1_555
C6 C5 1_555 1_555
H3 C6 1_555 1_555
C7 C6 1_555 1_555
H4 C7 1_555 1_555
C8 C1 1_555 1_555
C9 C4 1_555 1_555
C10 C1 1_555 1_555
H5 C10 1_555 1_555
C11 C10 1_555 1_555
C12 C11 1_555 1_555
H6 C12 1_555 1_555
C13 C12 1_555 1_555
H7 C13 1_555 1_555
C14 C13 1_555 1_555
H8 C14 1_555 1_555
C15 C14 1_555 1_555
H9 C15 1_555 1_555
C16 C11 1_555 1_555
H10 C16 1_555 1_555
C17 C2 1_555 1_555
C18 C17 1_555 1_555
H11 C18 1_555 1_555
C19 C18 1_555 1_555
H12 C19 1_555 1_555
C20 C19 1_555 1_555
H13 C20 1_555 1_555
C21 C20 1_555 1_555
H14 C21 1_555 1_555
C22 C17 1_555 1_555
H15 C22 1_555 1_555
C23 C3 1_555 1_555
C24 C23 1_555 1_555
H16 C24 1_555 1_555
C25 C24 1_555 1_555
H17 C25 1_555 1_555
C26 C25 1_555 1_555
H18 C26 1_555 1_555
C27 C26 1_555 1_555
H19 C27 1_555 1_555
C28 C23 1_555 1_555
H20 C28 1_555 1_555
C7 C8 1_555 1_555
C8 C9 1_555 1_555
C15 C16 1_555 1_555
C21 C22 1_555 1_555
C27 C28 1_555 1_555

#END
