
#######################################################################
#
#                 Cambridge Crystallographic Data Centre
#                                CCDC 
#
#######################################################################
#
# If this CIF has been generated from an entry in the Cambridge 
# Structural Database, then it will include bibliographic, chemical, 
# crystal, experimental, refinement or atomic coordinate data resulting 
# from the CCDC's data processing and validation procedures.
#
#######################################################################

data_KAMQIB
_chemical_name_common            'bis(theophylline) baicalein trihydrate'
_chemical_formula_moiety         'C15 H10 O5,2(C7 H8 N4 O2),3(H2 O1)'
_chemical_name_systematic        
'bis(1,3-dimethyl-3,7-dihydro-1H-purine-2,6-dione) 5,6,7-trihydroxy-2-phenyl-4H-chromen-4-one trihydrate'
_symmetry_cell_setting           monoclinic
_symmetry_space_group_name_H-M   'P 21'
_symmetry_Int_Tables_number      4
_space_group_name_Hall           'P 2yb'
loop_
_symmetry_equiv_pos_site_id
_symmetry_equiv_pos_as_xyz
1 x,y,z
2 -x,1/2+y,-z
_cell_length_a                   6.7290(5)
_cell_length_b                   14.9229(9)
_cell_length_c                   15.1048(10)
_cell_angle_alpha                90
_cell_angle_beta                 97.145(4)
_cell_angle_gamma                90
_cell_volume                     1504.99
_exptl_crystal_colour            yellow
_exptl_crystal_description       needle
_cell_formula_units_Z            2
loop_
_atom_site_label
_atom_site_type_symbol
_atom_site_fract_x
_atom_site_fract_y
_atom_site_fract_z
O1 O 0.2838(7) 0.4423(4) 0.6001(3)
H1 H 0.231(10) 0.484(5) 0.614(4)
H2 H 0.217(15) 0.400(5) 0.573(6)
O2 O 0.0967(6) 0.6439(3) -0.0118(3)
O3 O 0.1857(6) 0.6480(3) 0.2932(3)
N1 N 0.1493(7) 0.6484(3) 0.1410(3)
N2 N 0.1528(7) 0.7829(3) 0.2243(3)
C1 C 0.1715(10) 0.5507(4) 0.1432(4)
H3 H 0.0421 0.5233 0.1420
H4 H 0.2546 0.5334 0.1967
H5 H 0.2322 0.5313 0.0922
C2 C 0.1637(8) 0.6916(4) 0.2236(4)
C3 C 0.1219(8) 0.8275(4) 0.1434(3)
N3 N 0.1041(7) 0.9180(3) 0.1336(3)
C4 C 0.1161(8) 0.6899(4) 0.0574(3)
C5 C 0.1046(8) 0.7836(4) 0.0636(4)
C6 C 0.1713(9) 0.8317(4) 0.3077(3)
H6 H 0.0657 0.8142 0.3413
H7 H 0.1622 0.8949 0.2957
H8 H 0.2985 0.8185 0.3414
C7 C 0.0743(9) 0.9274(4) 0.0454(4)
H9 H 0.0549 0.9828 0.0176
N4 N 0.0747(7) 0.8499(3) -0.0005(3)
H10 H 0.0595 0.8432 -0.0575
O4 O 0.4606(8) 0.1298(4) 0.5921(3)
H11 H 0.575(6) 0.125(5) 0.625(4)
H12 H 0.396(18) 0.082(6) 0.573(9)
O5 O 0.3872(9) 0.9728(3) 0.4966(4)
H13 H 0.464(14) 0.954(7) 0.456(6)
H14 H 0.260(13) 0.931(6) 0.485(5)
O6 O 0.3904(8) 0.0212(3) -0.0521(3)
C8 C 0.4489(8) 0.2634(6) 0.3868(4)
H15 H 0.4538 0.2789 0.4466
C9 C 0.4297(10) 0.1730(6) 0.3620(5)
H16 H 0.4219 0.1286 0.4046
C10 C 0.4224(9) 0.1512(5) 0.2714(5)
H17 H 0.4113 0.0917 0.2530
C11 C 0.4320(8) 0.2205(5) 0.2083(4)
C12 C 0.4215(9) 0.1965(5) 0.1117(4)
C13 C 0.4139(10) 0.1128(5) 0.0784(5)
H18 H 0.4193 0.0639 0.1167
C14 C 0.3974(10) 0.0989(5) -0.0175(5)
C15 C 0.3814(9) 0.1778(4) -0.0722(4)
C16 C 0.3539(9) 0.1747(4) -0.1665(4)
C17 C 0.3493(8) 0.2535(5) -0.2152(3)
O7 O 0.3197(6) 0.2560(4) -0.3062(2)
H19 H 0.3029 0.2028 -0.3382
O8 O 0.4188(6) 0.2691(3) 0.0613(3)
C18 C 0.3976(8) 0.2603(5) -0.0312(4)
C19 C 0.3970(9) 0.3388(5) -0.0784(4)
H20 H 0.4118 0.3936 -0.0490
C20 C 0.3740(9) 0.3348(4) -0.1701(4)
O9 O 0.3778(7) 0.4118(3) -0.2178(3)
H21 H 0.3085 0.4058 -0.2661
C21 C 0.4604(10) 0.3286(6) 0.3252(5)
H22 H 0.4758 0.3880 0.3435
C22 C 0.4497(9) 0.3082(5) 0.2359(5)
H23 H 0.4544 0.3537 0.1942
O10 O 0.3345(7) 0.0943(3) -0.2101(3)
H24 H 0.3396 0.0535 -0.1735
O11 O 0.0506(6) 0.8628(3) 0.8123(2)
O12 O 0.0380(6) 0.8544(3) 0.5087(2)
N5 N 0.0406(7) 0.8570(3) 0.6600(3)
N6 N 0.0522(7) 0.7207(3) 0.5807(3)
C23 C 0.0882(8) 0.5802(4) 0.7622(4)
H25 H 0.0996 0.5252 0.7913
N7 N 0.0770(7) 0.6571(3) 0.8048(3)
H26 H 0.0786 0.6646 0.8613
C24 C 0.0622(8) 0.7233(4) 0.7397(3)
C25 C 0.0495(8) 0.8163(4) 0.7443(4)
C26 C 0.0255(10) 0.9552(4) 0.6550(4)
H27 H 0.1317 0.9784 0.6247
H28 H 0.0361 0.9796 0.7142
H29 H -0.1013 0.9717 0.6228
C27 C 0.0652(8) 0.6773(4) 0.6613(3)
C28 C 0.0519(10) 0.6713(4) 0.4969(4)
H30 H -0.0343 0.7010 0.4506
H31 H 0.0043 0.6114 0.5042
H32 H 0.1856 0.6691 0.4810
C29 C 0.0415(8) 0.8122(4) 0.5792(4)
N8 N 0.0819(7) 0.5880(3) 0.6744(3)
loop_
_geom_bond_atom_site_label_1
_geom_bond_atom_site_label_2
_geom_bond_site_symmetry_1
_geom_bond_site_symmetry_2
O1 H1 1_555 1_555
H2 O1 1_555 1_555
O2 C4 1_555 1_555
O3 C2 1_555 1_555
N1 C1 1_555 1_555
N2 C2 1_555 1_555
C1 H3 1_555 1_555
H4 C1 1_555 1_555
H5 C1 1_555 1_555
C2 N1 1_555 1_555
C3 N2 1_555 1_555
N3 C3 1_555 1_555
C4 N1 1_555 1_555
C5 C3 1_555 1_555
C6 N2 1_555 1_555
H6 C6 1_555 1_555
H7 C6 1_555 1_555
H8 C6 1_555 1_555
C7 N3 1_555 1_555
H9 C7 1_555 1_555
N4 C5 1_555 1_555
H10 N4 1_555 1_555
O4 H11 1_555 1_555
H12 O4 1_555 1_555
O5 H13 1_555 1_555
H14 O5 1_555 1_555
O6 C14 1_555 1_555
C8 H15 1_555 1_555
C9 C8 1_555 1_555
H16 C9 1_555 1_555
C10 C9 1_555 1_555
H17 C10 1_555 1_555
C11 C10 1_555 1_555
C12 C11 1_555 1_555
C13 C12 1_555 1_555
H18 C13 1_555 1_555
C14 C13 1_555 1_555
C15 C14 1_555 1_555
C16 C15 1_555 1_555
C17 C16 1_555 1_555
O7 C17 1_555 1_555
H19 O7 1_555 1_555
O8 C12 1_555 1_555
C18 C15 1_555 1_555
C19 C18 1_555 1_555
H20 C19 1_555 1_555
C20 C17 1_555 1_555
O9 C20 1_555 1_555
H21 O9 1_555 1_555
C21 C8 1_555 1_555
H22 C21 1_555 1_555
C22 C11 1_555 1_555
H23 C22 1_555 1_555
O10 C16 1_555 1_555
H24 O10 1_555 1_555
O11 C25 1_555 1_555
O12 C29 1_555 1_555
N5 C25 1_555 1_555
N6 C27 1_555 1_555
C23 H25 1_555 1_555
N7 C23 1_555 1_555
H26 N7 1_555 1_555
C24 N7 1_555 1_555
C25 C24 1_555 1_555
C26 N5 1_555 1_555
H27 C26 1_555 1_555
H28 C26 1_555 1_555
H29 C26 1_555 1_555
C27 C24 1_555 1_555
C28 N6 1_555 1_555
H30 C28 1_555 1_555
H31 C28 1_555 1_555
H32 C28 1_555 1_555
C29 N5 1_555 1_555
N8 C23 1_555 1_555
C4 C5 1_555 1_555
C7 N4 1_555 1_555
O8 C18 1_555 1_555
C19 C20 1_555 1_555
C21 C22 1_555 1_555
N6 C29 1_555 1_555
C27 N8 1_555 1_555

#END
