
#######################################################################
#
#                 Cambridge Crystallographic Data Centre
#                                CCDC 
#
#######################################################################
#
# If this CIF has been generated from an entry in the Cambridge 
# Structural Database, then it will include bibliographic, chemical, 
# crystal, experimental, refinement or atomic coordinate data resulting 
# from the CCDC's data processing and validation procedures.
#
#######################################################################

data_KANYOO
_chemical_formula_moiety         'C41 H36 N2,0.5(C1 H3 Cl1)'
_chemical_name_systematic        
"N,N,N',N'-Tetraphenyl-9,9-diethyl-2,7-diaminofluorene chloromethane solvate"
_symmetry_cell_setting           orthorhombic
_symmetry_space_group_name_H-M   'P n m a'
_symmetry_Int_Tables_number      62
_space_group_name_Hall           '-P 2ac 2n'
loop_
_symmetry_equiv_pos_site_id
_symmetry_equiv_pos_as_xyz
1 x,y,z
2 1/2-x,-y,1/2+z
3 -x,1/2+y,-z
4 1/2+x,1/2-y,1/2-z
5 -x,-y,-z
6 1/2+x,y,1/2-z
7 x,1/2-y,z
8 1/2-x,1/2+y,1/2+z
_cell_length_a                   8.4577(2)
_cell_length_b                   19.9091(5)
_cell_length_c                   19.2392(5)
_cell_angle_alpha                90
_cell_angle_beta                 90
_cell_angle_gamma                90
_cell_volume                     3239.6
_exptl_crystal_colour            colorless
_exptl_crystal_description       prism
_chemical_melting_point          191-193deg.C
_cell_formula_units_Z            4
loop_
_atom_site_label
_atom_site_type_symbol
_atom_site_fract_x
_atom_site_fract_y
_atom_site_fract_z
N1 N 0.1156(2) 0.50771(7) 0.11550(9)
C1 C 0.2348(2) 0.71281(9) 0.11531(10)
C2 C 0.0900(2) 0.69116(9) 0.08819(10)
C3 C 0.0522(2) 0.62370(9) 0.08484(10)
H1 H -0.0447 0.6095 0.0647
C4 C 0.1586(2) 0.57693(9) 0.11154(10)
C5 C 0.3055(2) 0.59805(9) 0.13666(10)
H2 H 0.3793 0.5657 0.1529
C6 C 0.3453(2) 0.66600(9) 0.13821(10)
H3 H 0.4459 0.6801 0.1546
C7 C -0.0360(2) 0.48948(9) 0.13917(10)
C8 C -0.1209(2) 0.53120(10) 0.18417(10)
H4 H -0.0747 0.5719 0.1999
C9 C -0.2709(2) 0.51406(10) 0.20601(11)
H5 H -0.3273 0.5436 0.2358
C10 C -0.3406(3) 0.45440(11) 0.18514(11)
H6 H -0.4439 0.4427 0.2003
C11 C -0.2561(2) 0.41216(10) 0.14165(12)
H7 H -0.3016 0.3707 0.1275
C12 C -0.1066(2) 0.42925(10) 0.11848(11)
H8 H -0.0514 0.3997 0.0882
C13 C 0.2212(2) 0.45877(9) 0.08775(10)
C14 C 0.2884(2) 0.46818(10) 0.02314(11)
H9 H 0.2659 0.5079 -0.0024
C15 C 0.3885(3) 0.42007(11) -0.00466(13)
H10 H 0.4342 0.4269 -0.0492
C16 C 0.4220(3) 0.36261(11) 0.03176(14)
H11 H 0.4895 0.3294 0.0123
C17 C 0.3567(3) 0.35327(11) 0.09716(13)
H12 H 0.3806 0.3137 0.1226
C18 C 0.2570(2) 0.40094(9) 0.12571(12)
H13 H 0.2133 0.3944 0.1707
C19 C -0.0118(3) 0.7500 0.06535(14)
C20 C -0.0346(4) 0.7500 -0.01469(16)
H14 H -0.102(5) 0.789(2) -0.028(2)
C21 C 0.1202(4) 0.7500 -0.05543(18)
H15 H 0.095(5) 0.7500 -0.105(2)
H16 H 0.187(6) 0.791(3) -0.046(3)
C22 C -0.1752(4) 0.7500 0.10131(16)
H17 H -0.234(5) 0.706(2) 0.085(2)
C23 C -0.1686(4) 0.7500 0.18021(18)
H18 H -0.282(5) 0.7500 0.204(2)
H19 H -0.111(7) 0.708(3) 0.200(3)
N1F N 0.1156(2) 0.99229(7) 0.11550(9)
C1F C 0.2348(2) 0.78719(9) 0.11531(10)
C2F C 0.0900(2) 0.80884(9) 0.08819(10)
C3F C 0.0522(2) 0.87630(9) 0.08484(10)
H1F H -0.0447 0.8905 0.0647
C4F C 0.1586(2) 0.92307(9) 0.11154(10)
C5F C 0.3055(2) 0.90195(9) 0.13666(10)
H2F H 0.3793 0.9343 0.1529
C6F C 0.3453(2) 0.83400(9) 0.13821(10)
H3F H 0.4459 0.8199 0.1546
C7F C -0.0360(2) 1.01052(9) 0.13917(10)
C8F C -0.1209(2) 0.96880(10) 0.18417(10)
H4F H -0.0747 0.9281 0.1999
C9F C -0.2709(2) 0.98594(10) 0.20601(11)
H5F H -0.3273 0.9564 0.2358
C10F C -0.3406(3) 1.04560(11) 0.18514(11)
H6F H -0.4439 1.0573 0.2003
C11F C -0.2561(2) 1.08784(10) 0.14165(12)
H7F H -0.3016 1.1293 0.1275
C12F C -0.1066(2) 1.07075(10) 0.11848(11)
H8F H -0.0514 1.1003 0.0882
C13F C 0.2212(2) 1.04123(9) 0.08775(10)
C14F C 0.2884(2) 1.03182(10) 0.02314(11)
H9F H 0.2659 0.9921 -0.0024
C15F C 0.3885(3) 1.07993(11) -0.00466(13)
H10F H 0.4342 1.0731 -0.0492
C16F C 0.4220(3) 1.13739(11) 0.03176(14)
H11F H 0.4895 1.1706 0.0123
C17F C 0.3567(3) 1.14673(11) 0.09716(13)
H12F H 0.3806 1.1863 0.1226
C18F C 0.2570(2) 1.09906(9) 0.12571(12)
H13F H 0.2133 1.1056 0.1707
H14F H -0.102(5) 0.711(2) -0.028(2)
H16F H 0.187(6) 0.709(3) -0.046(3)
H17F H -0.234(5) 0.794(2) 0.085(2)
H19F H -0.111(7) 0.792(3) 0.200(3)
Cl2 Cl 0.7677(12) 0.2500 0.2473(5)
C24 C 0.579(4) 0.2500 0.2400(17)
Cl1? Cl 0.624(2) 0.2500 0.2338(10)
Cl3? Cl 0.6458(19) 0.2500 0.2662(8)
C25? C 0.541(3) 0.2748(15) 0.2564(15)
loop_
_geom_bond_atom_site_label_1
_geom_bond_atom_site_label_2
_geom_bond_site_symmetry_1
_geom_bond_site_symmetry_2
N1 C4 1_555 1_555
C1 C2 1_555 1_555
C2 C3 1_555 1_555
C3 H1 1_555 1_555
C4 C3 1_555 1_555
C5 C4 1_555 1_555
H2 C5 1_555 1_555
C6 C1 1_555 1_555
H3 C6 1_555 1_555
C7 N1 1_555 1_555
C8 C7 1_555 1_555
H4 C8 1_555 1_555
C9 C8 1_555 1_555
H5 C9 1_555 1_555
C10 C9 1_555 1_555
H6 C10 1_555 1_555
C11 C10 1_555 1_555
H7 C11 1_555 1_555
C12 C7 1_555 1_555
H8 C12 1_555 1_555
C13 N1 1_555 1_555
C14 C13 1_555 1_555
H9 C14 1_555 1_555
C15 C14 1_555 1_555
H10 C15 1_555 1_555
C16 C15 1_555 1_555
H11 C16 1_555 1_555
C17 C16 1_555 1_555
H12 C17 1_555 1_555
C18 C13 1_555 1_555
H13 C18 1_555 1_555
C19 C2 1_555 1_555
C20 C19 1_555 1_555
H14 C20 1_555 1_555
C21 C20 1_555 1_555
H15 C21 1_555 1_555
H16 C21 1_555 1_555
C22 C19 1_555 1_555
H17 C22 1_555 1_555
C23 C22 1_555 1_555
H18 C23 1_555 1_555
H19 C23 1_555 1_555
Cl2 C24 1_555 1_555
N1F C4F 1_555 1_555
C1F C1 1_555 1_555
C2F C19 1_555 1_555
C3F C2F 1_555 1_555
H1F C3F 1_555 1_555
C4F C3F 1_555 1_555
C5F C4F 1_555 1_555
H2F C5F 1_555 1_555
C6F C1F 1_555 1_555
H3F C6F 1_555 1_555
C7F N1F 1_555 1_555
C8F C7F 1_555 1_555
H4F C8F 1_555 1_555
C9F C8F 1_555 1_555
H5F C9F 1_555 1_555
C10F C9F 1_555 1_555
H6F C10F 1_555 1_555
C11F C10F 1_555 1_555
H7F C11F 1_555 1_555
C12F C7F 1_555 1_555
H8F C12F 1_555 1_555
C13F N1F 1_555 1_555
C14F C13F 1_555 1_555
H9F C14F 1_555 1_555
C15F C14F 1_555 1_555
H10F C15F 1_555 1_555
C16F C15F 1_555 1_555
H11F C16F 1_555 1_555
C17F C16F 1_555 1_555
H12F C17F 1_555 1_555
C18F C13F 1_555 1_555
H13F C18F 1_555 1_555
H14F C20 1_555 1_555
H16F C21 1_555 1_555
H17F C22 1_555 1_555
H19F C23 1_555 1_555
C5 C6 1_555 1_555
C11 C12 1_555 1_555
C17 C18 1_555 1_555
C1F C2F 1_555 1_555
C5F C6F 1_555 1_555
C11F C12F 1_555 1_555
C17F C18F 1_555 1_555

#END
