
#######################################################################
#
#                 Cambridge Crystallographic Data Centre
#                                CCDC 
#
#######################################################################
#
# If this CIF has been generated from an entry in the Cambridge 
# Structural Database, then it will include bibliographic, chemical, 
# crystal, experimental, refinement or atomic coordinate data resulting 
# from the CCDC's data processing and validation procedures.
#
#######################################################################

data_KANYII
_chemical_formula_moiety         'C38 H32 N2,C6 H6'
_chemical_name_systematic        
"N,N,N',N'-Tetraphenyl-3,3'-dimethyl-1,1'-biphenyl-4,4'-diamine benzene solvate"
_symmetry_cell_setting           triclinic
_symmetry_space_group_name_H-M   'P -1'
_symmetry_Int_Tables_number      2
_space_group_name_Hall           '-P 1'
loop_
_symmetry_equiv_pos_site_id
_symmetry_equiv_pos_as_xyz
1 x,y,z
2 -x,-y,-z
_cell_length_a                   10.1614(3)
_cell_length_b                   10.6110(4)
_cell_length_c                   16.4871(5)
_cell_angle_alpha                83.65(1)
_cell_angle_beta                 78.61(1)
_cell_angle_gamma                71.11(1)
_cell_volume                     1646.73
_exptl_crystal_colour            colorless
_exptl_crystal_description       cuboid
_chemical_melting_point          174-176deg.C
_cell_formula_units_Z            2
loop_
_atom_site_label
_atom_site_type_symbol
_atom_site_fract_x
_atom_site_fract_y
_atom_site_fract_z
N1 N -0.41937(9) 1.07579(10) 0.15063(6)
N2 N 0.42212(10) 0.42298(10) 0.35502(6)
C1 C -0.05977(11) 0.79730(11) 0.23567(6)
C2 C -0.15339(12) 0.75489(12) 0.20124(7)
H1 H -0.1346 0.6621 0.1962
C3 C -0.27327(12) 0.84434(12) 0.17412(7)
C4 C -0.29988(11) 0.98094(12) 0.18113(7)
C5 C -0.21038(12) 1.02586(12) 0.21649(8)
H2 H -0.2301 1.1186 0.2220
C6 C -0.09195(12) 0.93482(12) 0.24376(8)
H3 H -0.0321 0.9664 0.2682
C7 C -0.39668(11) 1.14759(11) 0.07489(7)
C8 C -0.27010(13) 1.10286(13) 0.01869(7)
H4 H -0.2000 1.0226 0.0313
C9 C -0.24677(14) 1.17584(14) -0.05565(8)
H5 H -0.1602 1.1451 -0.0929
C10 C -0.34855(15) 1.29278(14) -0.07589(8)
H6 H -0.3325 1.3414 -0.1268
C11 C -0.47413(13) 1.33741(12) -0.02036(7)
H7 H -0.5443 1.4172 -0.0337
C12 C -0.49848(12) 1.26668(12) 0.05457(7)
H8 H -0.5844 1.2992 0.0921
C13 C -0.55587(11) 1.08831(11) 0.19760(7)
C14 C -0.66918(12) 1.09258(13) 0.15936(8)
H9 H -0.6554 1.0871 0.1010
C15 C -0.80175(13) 1.10490(13) 0.20707(9)
H10 H -0.8785 1.1092 0.1808
C16 C -0.82300(12) 1.11091(12) 0.29290(8)
H11 H -0.9137 1.1196 0.3251
C17 C -0.71011(13) 1.10413(12) 0.33113(8)
H12 H -0.7236 1.1069 0.3897
C18 C -0.57731(12) 1.09323(12) 0.28369(7)
H13 H -0.5009 1.0891 0.3102
C19 C -0.36860(14) 0.79451(14) 0.13545(9)
H14 H -0.3332 0.6969 0.1352
H15 H -0.3701 0.8318 0.0784
H16 H -0.4644 0.8224 0.1676
C20 C 0.06829(11) 0.69921(11) 0.26335(6)
C21 C 0.17235(11) 0.74166(12) 0.28618(7)
H20 H 0.1624 0.8342 0.2813
C22 C 0.29043(11) 0.65325(12) 0.31592(7)
C23 C 0.30543(11) 0.51689(11) 0.32180(7)
C24 C 0.20585(12) 0.47141(12) 0.29692(8)
H21 H 0.2180 0.3785 0.2995
C25 C 0.08878(12) 0.56175(12) 0.26838(8)
H22 H 0.0215 0.5295 0.2520
C26 C 0.39519(11) 0.35296(11) 0.43107(7)
C27 C 0.49201(12) 0.23127(12) 0.45267(7)
H23 H 0.5778 0.1953 0.4158
C28 C 0.46295(13) 0.16310(13) 0.52785(7)
H24 H 0.5301 0.0817 0.5420
C29 C 0.33739(14) 0.21235(14) 0.58235(8)
H25 H 0.3178 0.1650 0.6333
C30 C 0.24081(14) 0.33215(15) 0.56106(8)
H26 H 0.1543 0.3664 0.5978
C31 C 0.26895(13) 0.40281(13) 0.48666(8)
H27 H 0.2023 0.4852 0.4736
C32 C 0.56020(11) 0.40558(11) 0.30937(7)
C33 C 0.58276(12) 0.40493(12) 0.22291(7)
H28 H 0.5063 0.4135 0.1954
C34 C 0.71687(13) 0.39177(13) 0.17684(8)
H29 H 0.7310 0.3928 0.1181
C35 C 0.83021(13) 0.37714(13) 0.21673(9)
H30 H 0.9219 0.3667 0.1854
C36 C 0.80806(13) 0.37799(14) 0.30271(9)
H31 H 0.8852 0.3677 0.3300
C37 C 0.67396(12) 0.39373(13) 0.34913(8)
H32 H 0.6595 0.3965 0.4077
C38 C 0.39646(14) 0.70527(13) 0.34252(9)
H33 H 0.3683 0.8026 0.3338
H34 H 0.4900 0.6659 0.3097
H35 H 0.3998 0.6811 0.4014
C39 C 0.88452(16) 0.0018(2) 0.46693(9)
H39 H 0.8053 0.0030 0.4440
C40 C 0.89201(17) 0.11761(18) 0.49302(10)
H40 H 0.8177 0.1986 0.4885
C41 C 0.99187(18) -0.11629(19) 0.47397(10)
H41 H 0.9863 -0.1964 0.4563
C39A C 1.11548(16) -0.0018(2) 0.53307(9)
H39A H 1.1947 -0.0030 0.5560
C40A C 1.10799(17) -0.11761(18) 0.50698(10)
H40A H 1.1823 -0.1986 0.5115
C41A C 1.00813(18) 0.11629(19) 0.52603(10)
H41A H 1.0137 0.1964 0.5437
C42 C 0.8971(4) 0.5944(4) -0.0334(2)
H42 H 0.8255 0.6620 -0.0566
C43 C 0.9034(4) 0.4635(4) -0.03692(19)
H43 H 0.8378 0.4411 -0.0618
C44 C 0.9923(4) 0.6338(4) 0.0032(2)
H44 H 0.9841 0.7253 0.0044
C42A C 1.1029(4) 0.4056(4) 0.0334(2)
H42A H 1.1745 0.3380 0.0566
C43A C 1.0966(4) 0.5365(4) 0.03692(19)
H43A H 1.1622 0.5589 0.0618
C44A C 1.0077(4) 0.3662(4) -0.0032(2)
H44A H 1.0159 0.2747 -0.0044
H17? H -0.4453 0.8705 0.1189
H18? H -0.4083 0.7356 0.1757
H19? H -0.3141 0.7451 0.0866
H36? H 0.4704 0.6305 0.3628
H37? H 0.3488 0.7671 0.3869
H38? H 0.4389 0.7519 0.2952
C45? C 0.9056(4) 0.6258(4) -0.0229(2)
H45? H 0.8432 0.7095 -0.0380
C46? C 0.8887(4) 0.5075(4) -0.0383(2)
H46? H 0.8127 0.5100 -0.0647
C47? C 0.9809(5) 0.3829(5) -0.0160(3)
H47? H 0.9658 0.3035 -0.0276
loop_
_geom_bond_atom_site_label_1
_geom_bond_atom_site_label_2
_geom_bond_site_symmetry_1
_geom_bond_site_symmetry_2
N1 C4 1_555 1_555
N2 C23 1_555 1_555
C1 C2 1_555 1_555
C2 H1 1_555 1_555
C3 C2 1_555 1_555
C4 C3 1_555 1_555
C5 C4 1_555 1_555
H2 C5 1_555 1_555
C6 C1 1_555 1_555
H3 C6 1_555 1_555
C7 N1 1_555 1_555
C8 C7 1_555 1_555
H4 C8 1_555 1_555
C9 C8 1_555 1_555
H5 C9 1_555 1_555
C10 C9 1_555 1_555
H6 C10 1_555 1_555
C11 C10 1_555 1_555
H7 C11 1_555 1_555
C12 C7 1_555 1_555
H8 C12 1_555 1_555
C13 N1 1_555 1_555
C14 C13 1_555 1_555
H9 C14 1_555 1_555
C15 C14 1_555 1_555
H10 C15 1_555 1_555
C16 C15 1_555 1_555
H11 C16 1_555 1_555
C17 C16 1_555 1_555
H12 C17 1_555 1_555
C18 C13 1_555 1_555
H13 C18 1_555 1_555
C19 C3 1_555 1_555
H14 C19 1_555 1_555
H15 C19 1_555 1_555
H16 C19 1_555 1_555
C20 C1 1_555 1_555
C21 C20 1_555 1_555
H20 C21 1_555 1_555
C22 C21 1_555 1_555
C23 C22 1_555 1_555
C24 C23 1_555 1_555
H21 C24 1_555 1_555
C25 C20 1_555 1_555
H22 C25 1_555 1_555
C26 N2 1_555 1_555
C27 C26 1_555 1_555
H23 C27 1_555 1_555
C28 C27 1_555 1_555
H24 C28 1_555 1_555
C29 C28 1_555 1_555
H25 C29 1_555 1_555
C30 C29 1_555 1_555
H26 C30 1_555 1_555
C31 C26 1_555 1_555
H27 C31 1_555 1_555
C32 N2 1_555 1_555
C33 C32 1_555 1_555
H28 C33 1_555 1_555
C34 C33 1_555 1_555
H29 C34 1_555 1_555
C35 C34 1_555 1_555
H30 C35 1_555 1_555
C36 C35 1_555 1_555
H31 C36 1_555 1_555
C37 C32 1_555 1_555
H32 C37 1_555 1_555
C38 C22 1_555 1_555
H33 C38 1_555 1_555
H34 C38 1_555 1_555
H35 C38 1_555 1_555
C39 H39 1_555 1_555
C40 C39 1_555 1_555
H40 C40 1_555 1_555
C41 C39 1_555 1_555
H41 C41 1_555 1_555
C42 H42 1_555 1_555
C43 C42 1_555 1_555
H43 C43 1_555 1_555
C44 C42 1_555 1_555
H44 C44 1_555 1_555
C39A H39A 1_555 1_555
C40A C41 1_555 1_555
H40A C40A 1_555 1_555
C41A C40 1_555 1_555
H41A C41A 1_555 1_555
C42A H42A 1_555 1_555
C43A C44 1_555 1_555
H43A C43A 1_555 1_555
C44A C43 1_555 1_555
H44A C44A 1_555 1_555
C5 C6 1_555 1_555
C11 C12 1_555 1_555
C17 C18 1_555 1_555
C24 C25 1_555 1_555
C30 C31 1_555 1_555
C36 C37 1_555 1_555
C39A C40A 1_555 1_555
C39A C41A 1_555 1_555
C42A C43A 1_555 1_555
C42A C44A 1_555 1_555

#END
