
#######################################################################
#
#                 Cambridge Crystallographic Data Centre
#                                CCDC 
#
#######################################################################
#
# If this CIF has been generated from an entry in the Cambridge 
# Structural Database, then it will include bibliographic, chemical, 
# crystal, experimental, refinement or atomic coordinate data resulting 
# from the CCDC's data processing and validation procedures.
#
#######################################################################

data_KAPNIZ
_chemical_formula_moiety         'C14 H8 O2 S2'
_chemical_name_systematic        Anthraquinone-1,5-dithiol
_symmetry_cell_setting           monoclinic
_symmetry_space_group_name_H-M   'P c'
_symmetry_Int_Tables_number      7
_space_group_name_Hall           'P -2yc'
loop_
_symmetry_equiv_pos_site_id
_symmetry_equiv_pos_as_xyz
1 x,y,z
2 x,-y,1/2+z
_cell_length_a                   3.8625(8)
_cell_length_b                   10.395(2)
_cell_length_c                   13.734(3)
_cell_angle_alpha                90
_cell_angle_beta                 93.609(4)
_cell_angle_gamma                90
_cell_volume                     550.336
_cell_formula_units_Z            2
_exptl_crystal_recrystallization_method ethanol
loop_
_atom_site_label
_atom_site_type_symbol
_atom_site_fract_x
_atom_site_fract_y
_atom_site_fract_z
S1 S 0.4563(4) 1.03403(12) 0.16579(11)
S2 S 1.2022(3) 0.35445(11) 0.39812(10)
O1 O 1.2785(11) 0.6250(3) 0.4312(3)
O2 O 0.6176(14) 0.7828(4) 0.1035(3)
C1 C 1.0799(12) 0.6536(4) 0.3634(3)
C2 C 0.9441(11) 0.7882(4) 0.3546(3)
C3 C 0.9978(14) 0.8659(5) 0.4361(4)
C4 C 0.8829(15) 0.9910(5) 0.4332(4)
H1 H 0.9205 1.0437 0.4876
C5 C 0.7107(15) 1.0388(5) 0.3491(5)
H2 H 0.6268 1.1227 0.3478
C6 C 0.6640(12) 0.9623(4) 0.2678(4)
C7 C 0.7758(12) 0.8342(4) 0.2680(3)
C8 C 0.7272(13) 0.7449(5) 0.1826(3)
C9 C 0.8109(11) 0.6081(4) 0.1982(3)
C10 C 0.7191(14) 0.5245(5) 0.1217(4)
C11 C 0.7826(14) 0.3950(5) 0.1308(4)
H3 H 0.7219 0.3398 0.0792
C12 C 0.9347(14) 0.3476(4) 0.2155(4)
C13 C 1.0256(11) 0.4272(4) 0.2936(3)
C14 C 0.9689(11) 0.5602(4) 0.2850(3)
H4 H 1.120(11) 0.834(5) 0.491(3)
H5 H 0.611(11) 0.558(4) 0.065(4)
H6 H 0.997(12) 0.260(2) 0.226(4)
H7 H 1.438(8) 0.334(7) 0.418(5)
H8 H 0.276(14) 0.972(6) 0.143(6)
loop_
_geom_bond_atom_site_label_1
_geom_bond_atom_site_label_2
_geom_bond_site_symmetry_1
_geom_bond_site_symmetry_2
S1 C6 1_555 1_555
S2 C13 1_555 1_555
O1 C1 1_555 1_555
O2 C8 1_555 1_555
C1 C2 1_555 1_555
C2 C3 1_555 1_555
C3 C4 1_555 1_555
C4 H1 1_555 1_555
C5 C4 1_555 1_555
H2 C5 1_555 1_555
C6 C5 1_555 1_555
C7 C2 1_555 1_555
C8 C7 1_555 1_555
C9 C8 1_555 1_555
C10 C9 1_555 1_555
C11 C10 1_555 1_555
H3 C11 1_555 1_555
C12 C11 1_555 1_555
C13 C12 1_555 1_555
C14 C1 1_555 1_555
H4 C3 1_555 1_555
H5 C10 1_555 1_555
H6 C12 1_555 1_555
H7 S2 1_555 1_555
H8 S1 1_555 1_555
C6 C7 1_555 1_555
C9 C14 1_555 1_555
C13 C14 1_555 1_555

#END
