
#######################################################################
#
#                 Cambridge Crystallographic Data Centre
#                                CCDC 
#
#######################################################################
#
# If this CIF has been generated from an entry in the Cambridge 
# Structural Database, then it will include bibliographic, chemical, 
# crystal, experimental, refinement or atomic coordinate data resulting 
# from the CCDC's data processing and validation procedures.
#
#######################################################################

data_KAPZAE
_chemical_formula_moiety         'C14 H10 Br1 N3 O2'
_chemical_name_systematic        
(5-Bromo-2-oxo-3-(2-oxopropyl)-2,3-dihydro-1H-indol-3-yl)malononitrile
_symmetry_cell_setting           monoclinic
_symmetry_space_group_name_H-M   'P 21'
_symmetry_Int_Tables_number      4
_space_group_name_Hall           'P 2yb'
loop_
_symmetry_equiv_pos_site_id
_symmetry_equiv_pos_as_xyz
1 x,y,z
2 -x,1/2+y,-z
_cell_length_a                   8.6912(14)
_cell_length_b                   7.9895(14)
_cell_length_c                   9.7878(16)
_cell_angle_alpha                90
_cell_angle_beta                 97.672(3)
_cell_angle_gamma                90
_cell_volume                     673.565
_exptl_crystal_colour            brown
_exptl_crystal_description       prismatic
_cell_formula_units_Z            2
loop_
_atom_site_label
_atom_site_type_symbol
_atom_site_fract_x
_atom_site_fract_y
_atom_site_fract_z
Br1 Br 0.87960(6) -0.25943(10) -0.12112(5)
N1 N 0.8632(4) -0.0909(4) 0.4747(3)
N2 N 0.3843(4) -0.2315(6) 0.0930(4)
N3 N 0.2961(5) 0.0393(6) 0.4543(5)
O1 O 0.6814(4) 0.0602(4) 0.5724(3)
O2 O 0.8549(3) 0.2606(4) 0.3489(3)
C1 C 0.7328(5) -0.0027(5) 0.4747(4)
C2 C 0.6467(4) -0.0037(4) 0.3252(4)
C3 C 0.7630(4) -0.0897(4) 0.2475(4)
C4 C 0.8875(4) -0.1409(5) 0.3422(4)
C5 C 1.0105(4) -0.2268(5) 0.2991(5)
H1 H 1.0942 -0.2610 0.3622
C6 C 1.0062(4) -0.2604(7) 0.1620(5)
H2 H 1.0870 -0.3200 0.1314
C7 C 0.8828(5) -0.2066(5) 0.0679(5)
C8 C 0.7590(5) -0.1201(5) 0.1086(4)
H3 H 0.6766 -0.0841 0.0449
C9 C 0.5016(4) -0.1196(5) 0.3335(4)
H4 H 0.5372 -0.2178 0.3890
C10 C 0.4324(4) -0.1795(5) 0.1979(4)
C11 C 0.3841(5) -0.0337(6) 0.4035(4)
C12 C 0.5986(4) 0.1693(5) 0.2716(4)
H5 H 0.5540 0.1601 0.1757
H6 H 0.5185 0.2115 0.3227
C13 C 0.7298(4) 0.2940(5) 0.2828(4)
C14 C 0.6956(7) 0.4573(6) 0.2119(5)
H7 H 0.7423 0.5461 0.2692
H8 H 0.5852 0.4738 0.1951
H9 H 0.7371 0.4573 0.1258
H10 H 0.925(4) -0.131(5) 0.536(4)
loop_
_geom_bond_atom_site_label_1
_geom_bond_atom_site_label_2
_geom_bond_site_symmetry_1
_geom_bond_site_symmetry_2
Br1 C7 1_555 1_555
N1 C1 1_555 1_555
N2 C10 1_555 1_555
N3 C11 1_555 1_555
O1 C1 1_555 1_555
O2 C13 1_555 1_555
C1 C2 1_555 1_555
C2 C3 1_555 1_555
C3 C4 1_555 1_555
C4 N1 1_555 1_555
C5 C4 1_555 1_555
H1 C5 1_555 1_555
C6 C5 1_555 1_555
H2 C6 1_555 1_555
C7 C6 1_555 1_555
C8 C3 1_555 1_555
H3 C8 1_555 1_555
C9 C2 1_555 1_555
H4 C9 1_555 1_555
C10 C9 1_555 1_555
C11 C9 1_555 1_555
C12 C2 1_555 1_555
H5 C12 1_555 1_555
H6 C12 1_555 1_555
C13 C12 1_555 1_555
C14 C13 1_555 1_555
H7 C14 1_555 1_555
H8 C14 1_555 1_555
H9 C14 1_555 1_555
H10 N1 1_555 1_555
C7 C8 1_555 1_555

#END
