
#######################################################################
#
#                 Cambridge Crystallographic Data Centre
#                                CCDC 
#
#######################################################################
#
# If this CIF has been generated from an entry in the Cambridge 
# Structural Database, then it will include bibliographic, chemical, 
# crystal, experimental, refinement or atomic coordinate data resulting 
# from the CCDC's data processing and validation procedures.
#
#######################################################################

data_KAQVEF
_chemical_formula_moiety         'C24 H21 N5 O2'
_chemical_name_systematic        
1-(4-Methoxyphenyl)-3,3-dimethyl-4-(pyridin-2-yl)-5-([1,2,3]triazolo[1,5-a]pyridin-3-yl)-1,3-dihydro-2H-pyrrol-2-one
_symmetry_cell_setting           triclinic
_symmetry_space_group_name_H-M   'P -1'
_symmetry_Int_Tables_number      2
_space_group_name_Hall           '-P 1'
loop_
_symmetry_equiv_pos_site_id
_symmetry_equiv_pos_as_xyz
1 x,y,z
2 -x,-y,-z
_cell_length_a                   9.926(2)
_cell_length_b                   10.434(2)
_cell_length_c                   10.832(2)
_cell_angle_alpha                105.94(3)
_cell_angle_beta                 101.26(3)
_cell_angle_gamma                102.67(3)
_cell_volume                     1012.66
_cell_formula_units_Z            2
loop_
_atom_site_label
_atom_site_type_symbol
_atom_site_fract_x
_atom_site_fract_y
_atom_site_fract_z
N1 N 0.30018(10) 1.05527(9) 0.25690(10)
N2 N 0.38733(10) 1.31266(10) -0.02179(10)
N3 N 0.06989(9) 0.70288(9) -0.11813(10)
N4 N 0.07769(10) 0.91666(10) -0.08552(10)
N5 N 0.01076(10) 0.79005(10) -0.16863(10)
O1 O 0.43430(9) 1.22613(9) 0.45582(8)
O2 O 0.03927(9) 0.68449(9) 0.48428(9)
C1 C 0.39274(11) 1.18425(11) 0.33440(12)
C2 C 0.42834(11) 1.26544(11) 0.24155(11)
C3 C 0.34977(11) 1.15916(11) 0.10458(11)
C4 C 0.27507(11) 1.04196(11) 0.11911(11)
C5 C 0.36995(12) 1.39222(11) 0.27702(12)
H1 H 0.3956 1.4508 0.2234
H2 H 0.4119 1.4463 0.3720
H3 H 0.2653 1.3601 0.2583
C6 C 0.59143(11) 1.31365(12) 0.26437(12)
H4 H 0.6283 1.2325 0.2493
H5 H 0.6366 1.3766 0.3562
H6 H 0.6136 1.3625 0.2021
C7 C 0.22896(11) 0.95974(11) 0.31330(11)
C8 C 0.30688(11) 0.89024(11) 0.37841(12)
H7 H 0.4063 0.9055 0.3846
C9 C 0.23985(12) 0.79903(11) 0.43408(12)
H8 H 0.2928 0.7503 0.4769
C10 C 0.09516(12) 0.77836(11) 0.42765(12)
C11 C 0.01758(12) 0.85007(11) 0.36497(12)
H9 H -0.0809 0.8377 0.3620
C12 C 0.08480(12) 0.93976(11) 0.30685(12)
H10 H 0.0318 0.9875 0.2626
C13 C -0.10898(13) 0.66188(14) 0.48281(15)
H11 H -0.1233 0.7490 0.5333
H12 H -0.1365 0.5908 0.5237
H13 H -0.1683 0.6304 0.3904
C14 C 0.36312(11) 1.18053(11) -0.02115(12)
C15 C 0.35451(13) 1.07189(12) -0.13469(13)
H14 H 0.3425 0.9801 -0.1315
C16 C 0.36348(13) 1.09804(13) -0.25101(13)
H15 H 0.3548 1.0242 -0.3292
C17 C 0.38535(12) 1.23313(14) -0.25299(13)
H16 H 0.3910 1.2544 -0.3320
C18 C 0.39851(13) 1.33533(13) -0.13583(13)
H17 H 0.4168 1.4286 -0.1358
C19 C 0.17906(11) 0.91365(11) 0.01681(12)
C20 C 0.17732(11) 0.77554(11) -0.00205(11)
C21 C 0.25422(12) 0.70011(11) 0.05938(12)
H18 H 0.3306 0.7469 0.1386
C22 C 0.21697(13) 0.55962(12) 0.00317(13)
H19 H 0.2682 0.5078 0.0433
C23 C 0.10271(13) 0.48912(12) -0.11457(13)
H20 H 0.0765 0.3905 -0.1510
C24 C 0.03082(13) 0.56030(12) -0.17550(13)
H21 H -0.0445 0.5136 -0.2555
loop_
_geom_bond_atom_site_label_1
_geom_bond_atom_site_label_2
_geom_bond_site_symmetry_1
_geom_bond_site_symmetry_2
N1 C1 1_555 1_555
N2 C14 1_555 1_555
N3 N5 1_555 1_555
N4 N5 1_555 1_555
O1 C1 1_555 1_555
O2 C10 1_555 1_555
C1 C2 1_555 1_555
C2 C3 1_555 1_555
C3 C4 1_555 1_555
C4 N1 1_555 1_555
C5 C2 1_555 1_555
H1 C5 1_555 1_555
H2 C5 1_555 1_555
H3 C5 1_555 1_555
C6 C2 1_555 1_555
H4 C6 1_555 1_555
H5 C6 1_555 1_555
H6 C6 1_555 1_555
C7 N1 1_555 1_555
C8 C7 1_555 1_555
H7 C8 1_555 1_555
C9 C8 1_555 1_555
H8 C9 1_555 1_555
C10 C9 1_555 1_555
C11 C10 1_555 1_555
H9 C11 1_555 1_555
C12 C7 1_555 1_555
H10 C12 1_555 1_555
C13 O2 1_555 1_555
H11 C13 1_555 1_555
H12 C13 1_555 1_555
H13 C13 1_555 1_555
C14 C3 1_555 1_555
C15 C14 1_555 1_555
H14 C15 1_555 1_555
C16 C15 1_555 1_555
H15 C16 1_555 1_555
C17 C16 1_555 1_555
H16 C17 1_555 1_555
C18 N2 1_555 1_555
H17 C18 1_555 1_555
C19 N4 1_555 1_555
C20 N3 1_555 1_555
C21 C20 1_555 1_555
H18 C21 1_555 1_555
C22 C21 1_555 1_555
H19 C22 1_555 1_555
C23 C22 1_555 1_555
H20 C23 1_555 1_555
C24 N3 1_555 1_555
H21 C24 1_555 1_555
C4 C19 1_555 1_555
C11 C12 1_555 1_555
C17 C18 1_555 1_555
C19 C20 1_555 1_555
C23 C24 1_555 1_555

#END
