
#######################################################################
#
#                 Cambridge Crystallographic Data Centre
#                                CCDC 
#
#######################################################################
#
# If this CIF has been generated from an entry in the Cambridge 
# Structural Database, then it will include bibliographic, chemical, 
# crystal, experimental, refinement or atomic coordinate data resulting 
# from the CCDC's data processing and validation procedures.
#
#######################################################################

data_KAQWIJ
_chemical_compound_source        
'roots and rhizomes of Nardostachys chinensis Batalin (Valerianaceae)'
_chemical_formula_moiety         'C20 H26 O3'
_chemical_name_systematic        
(5R)-10-Isopropyl-2,2,6-trimethyl-2,3,4,5-tetrahydronaphtho(1,8-bc)oxocine-5,11-diol
_chemical_properties_biological  
'used in Chinese medicine to elicit stomachic and sedative effects'
_symmetry_cell_setting           orthorhombic
_symmetry_space_group_name_H-M   'P 21 21 21'
_symmetry_Int_Tables_number      19
_space_group_name_Hall           'P 2ac 2ab'
loop_
_symmetry_equiv_pos_site_id
_symmetry_equiv_pos_as_xyz
1 x,y,z
2 1/2-x,-y,1/2+z
3 -x,1/2+y,1/2-z
4 1/2+x,1/2-y,-z
_cell_length_a                   9.0950(18)
_cell_length_b                   10.533(2)
_cell_length_c                   17.957(4)
_cell_angle_alpha                90
_cell_angle_beta                 90
_cell_angle_gamma                90
_cell_volume                     1720.24
_exptl_crystal_colour            colorless
_exptl_crystal_description       Block
_chemical_melting_point          '202-204 deg.C'
_cell_formula_units_Z            4
_exptl_crystal_recrystallization_method chloroform/methanol
loop_
_atom_site_label
_atom_site_type_symbol
_atom_site_fract_x
_atom_site_fract_y
_atom_site_fract_z
O1 O 0.8576(4) 0.2051(3) 0.22583(15)
O2 O 0.9864(4) -0.0132(3) 0.2523(2)
H1 H 0.9824 0.0635 0.2451
O3 O 0.8503(4) 0.3984(3) 0.12602(18)
H2 H 0.8944 0.3925 0.1657
C1 C 0.7950(5) 0.1810(4) 0.1561(2)
C2 C 0.7911(5) 0.2826(4) 0.1077(2)
C3 C 0.7247(6) 0.2754(4) 0.0367(2)
C4 C 0.6662(6) 0.1598(5) 0.0171(2)
H3 H 0.6169 0.1530 -0.0281
C5 C 0.6780(6) 0.0504(4) 0.0629(2)
C6 C 0.6255(7) -0.0667(5) 0.0355(3)
H4 H 0.5774 -0.0698 -0.0102
C7 C 0.6447(7) -0.1750(5) 0.0755(3)
H5 H 0.6103 -0.2516 0.0565
C8 C 0.7162(6) -0.1734(4) 0.1455(3)
C9 C 0.7665(5) -0.0595(4) 0.1754(2)
C10 C 0.8398(6) -0.0652(4) 0.2519(3)
H6 H 0.8521 -0.1559 0.2626
C11 C 0.7398(7) -0.0144(5) 0.3143(3)
H7 H 0.6671 -0.0792 0.3253
H8 H 0.7995 -0.0037 0.3586
C12 C 0.6588(6) 0.1092(5) 0.3005(3)
H9 H 0.5946 0.1247 0.3426
H10 H 0.5966 0.0979 0.2571
C13 C 0.7520(6) 0.2279(5) 0.2882(2)
C14 C 0.7116(7) 0.3921(5) -0.0129(3)
H11 H 0.7923 0.4498 -0.0001
C15 C 0.5666(8) 0.4606(6) 0.0044(4)
H12 H 0.5573 0.5337 -0.0272
H13 H 0.5661 0.4870 0.0555
H14 H 0.4858 0.4040 -0.0044
C16 C 0.7249(11) 0.3602(6) -0.0953(3)
H15 H 0.7147 0.4363 -0.1242
H16 H 0.6490 0.3012 -0.1089
H17 H 0.8194 0.3229 -0.1048
C17 C 0.7334(7) -0.3004(5) 0.1852(3)
H18 H 0.7809 -0.2873 0.2324
H19 H 0.7919 -0.3564 0.1552
H20 H 0.6382 -0.3374 0.1931
C18 C 0.8516(7) 0.2584(6) 0.3545(2)
H21 H 0.9139 0.1870 0.3647
H22 H 0.7922 0.2764 0.3974
H23 H 0.9111 0.3311 0.3429
C19 C 0.6537(7) 0.3411(5) 0.2703(3)
H24 H 0.5918 0.3208 0.2287
H25 H 0.7138 0.4132 0.2582
H26 H 0.5938 0.3607 0.3128
C20 C 0.7476(5) 0.0571(4) 0.1337(2)
loop_
_geom_bond_atom_site_label_1
_geom_bond_atom_site_label_2
_geom_bond_site_symmetry_1
_geom_bond_site_symmetry_2
O1 C1 1_555 1_555
O2 H1 1_555 1_555
O3 H2 1_555 1_555
C1 C2 1_555 1_555
C2 O3 1_555 1_555
C3 C2 1_555 1_555
C4 C3 1_555 1_555
H3 C4 1_555 1_555
C5 C4 1_555 1_555
C6 C5 1_555 1_555
H4 C6 1_555 1_555
C7 C6 1_555 1_555
H5 C7 1_555 1_555
C8 C7 1_555 1_555
C9 C8 1_555 1_555
C10 O2 1_555 1_555
H6 C10 1_555 1_555
C11 C10 1_555 1_555
H7 C11 1_555 1_555
H8 C11 1_555 1_555
C12 C11 1_555 1_555
H9 C12 1_555 1_555
H10 C12 1_555 1_555
C13 O1 1_555 1_555
C14 C3 1_555 1_555
H11 C14 1_555 1_555
C15 C14 1_555 1_555
H12 C15 1_555 1_555
H13 C15 1_555 1_555
H14 C15 1_555 1_555
C16 C14 1_555 1_555
H15 C16 1_555 1_555
H16 C16 1_555 1_555
H17 C16 1_555 1_555
C17 C8 1_555 1_555
H18 C17 1_555 1_555
H19 C17 1_555 1_555
H20 C17 1_555 1_555
C18 C13 1_555 1_555
H21 C18 1_555 1_555
H22 C18 1_555 1_555
H23 C18 1_555 1_555
C19 C13 1_555 1_555
H24 C19 1_555 1_555
H25 C19 1_555 1_555
H26 C19 1_555 1_555
C20 C1 1_555 1_555
C5 C20 1_555 1_555
C9 C10 1_555 1_555
C9 C20 1_555 1_555
C12 C13 1_555 1_555

#END
