
#######################################################################
#
#                 Cambridge Crystallographic Data Centre
#                                CCDC 
#
#######################################################################
#
# If this CIF has been generated from an entry in the Cambridge 
# Structural Database, then it will include bibliographic, chemical, 
# crystal, experimental, refinement or atomic coordinate data resulting 
# from the CCDC's data processing and validation procedures.
#
#######################################################################

data_KARKAS
_chemical_formula_moiety         'C37 H30 Cl1 O1 P1,0.5(C4 H10)'
_chemical_name_systematic        
'(4-(4-chlorophenyl)-3-(diphenylmethylene)hexa-1,4-dien-2-yl)(diphenyl)phosphine oxide butane'
_symmetry_cell_setting           triclinic
_symmetry_space_group_name_H-M   'P -1'
_symmetry_Int_Tables_number      2
_space_group_name_Hall           '-P 1'
loop_
_symmetry_equiv_pos_site_id
_symmetry_equiv_pos_as_xyz
1 x,y,z
2 -x,-y,-z
_cell_length_a                   9.9019(7)
_cell_length_b                   11.5857(7)
_cell_length_c                   14.7334(10)
_cell_angle_alpha                100.601(2)
_cell_angle_beta                 97.359(2)
_cell_angle_gamma                104.297(2)
_cell_volume                     1582.98
_exptl_crystal_colour            colorless
_exptl_crystal_description       Block
_cell_formula_units_Z            2
loop_
_atom_site_label
_atom_site_type_symbol
_atom_site_fract_x
_atom_site_fract_y
_atom_site_fract_z
C1 C 0.5932(4) 0.7311(3) 0.1339(2)
H1 H 0.6822 0.7860 0.1676
H2 H 0.5194 0.7420 0.1682
H3 H 0.5729 0.7480 0.0730
C2 C 0.6013(3) 0.6030(3) 0.1231(2)
H4 H 0.5171 0.5424 0.0973
C3 C 0.7145(3) 0.5645(2) 0.14592(17)
C4 C 0.8586(3) 0.6516(2) 0.18579(17)
C5 C 0.9161(3) 0.6532(2) 0.28506(17)
C6 C 1.0353(3) 0.6258(3) 0.3098(2)
H5 H 1.0876 0.6044 0.2646
H6 H 1.0670 0.6281 0.3725
C7 C 0.7039(3) 0.4317(2) 0.13317(16)
C8 C 0.5771(3) 0.3463(2) 0.1326(2)
H7 H 0.4978 0.3728 0.1425
C9 C 0.5667(3) 0.2232(2) 0.1178(2)
H8 H 0.4809 0.1672 0.1169
C10 C 0.6842(3) 0.1841(2) 0.10412(18)
C11 C 0.8122(3) 0.2658(2) 0.10588(19)
H9 H 0.8914 0.2386 0.0973
C12 C 0.8211(3) 0.3890(2) 0.12059(18)
H10 H 0.9075 0.4446 0.1221
C13 C 0.9316(3) 0.7261(2) 0.13780(17)
C14 C 0.8835(3) 0.7221(2) 0.03675(17)
C15 C 0.8381(3) 0.6140(3) -0.03175(19)
H11 H 0.8355 0.5400 -0.0150
C16 C 0.7967(3) 0.6158(3) -0.1250(2)
H12 H 0.7664 0.5429 -0.1704
C17 C 0.8002(3) 0.7249(3) -0.1508(2)
H13 H 0.7730 0.7257 -0.2134
C18 C 0.8437(3) 0.8320(3) -0.0840(2)
H14 H 0.8447 0.9055 -0.1011
C19 C 0.8863(3) 0.8312(3) 0.0090(2)
H15 H 0.9173 0.9046 0.0537
C20 C 1.0644(3) 0.8247(2) 0.18286(18)
C21 C 1.1889(3) 0.8274(3) 0.1486(2)
H16 H 1.1902 0.7657 0.0987
C22 C 1.3110(4) 0.9206(3) 0.1876(3)
H17 H 1.3943 0.9209 0.1647
C23 C 1.3089(4) 1.0130(3) 0.2606(3)
H18 H 1.3909 1.0759 0.2870
C24 C 1.1859(4) 1.0124(3) 0.2944(2)
H19 H 1.1845 1.0752 0.3434
C25 C 1.0643(3) 0.9185(2) 0.2557(2)
H20 H 0.9814 0.9184 0.2791
C26 C 0.6743(3) 0.5648(3) 0.37112(19)
C27 C 0.6980(4) 0.4533(3) 0.3733(2)
H21 H 0.7880 0.4433 0.3712
C28 C 0.5868(6) 0.3550(4) 0.3787(3)
H22 H 0.6028 0.2797 0.3810
C29 C 0.4548(6) 0.3697(5) 0.3805(3)
H23 H 0.3814 0.3046 0.3855
C30 C 0.4294(4) 0.4777(5) 0.3750(3)
H24 H 0.3380 0.4855 0.3740
C31 C 0.5390(4) 0.5778(4) 0.3710(2)
H25 H 0.5213 0.6524 0.3682
C32 C 0.9292(3) 0.7367(2) 0.48504(18)
C33 C 0.9198(4) 0.6638(3) 0.5500(2)
H26 H 0.8544 0.5871 0.5348
C34 C 1.0074(4) 0.7047(4) 0.6374(2)
H27 H 1.0004 0.6553 0.6808
C35 C 1.1034(4) 0.8163(4) 0.6600(2)
H28 H 1.1612 0.8433 0.7190
C36 C 1.1159(4) 0.8900(3) 0.5964(3)
H29 H 1.1828 0.9660 0.6118
C37 C 1.0282(4) 0.8501(3) 0.5093(2)
H30 H 1.0358 0.9001 0.4664
Cl1 Cl 0.67269(10) 0.02916(6) 0.08675(7)
O1 O 0.7616(2) 0.80289(18) 0.35439(15)
P1 P 0.81408(8) 0.69888(6) 0.37205(5)
C38 C 0.6126(6) 0.1561(6) 0.5509(6)
H31 H 0.6160 0.1914 0.6157
H32 H 0.6166 0.2178 0.5151
H33 H 0.6918 0.1231 0.5453
C39 C 0.4822(9) 0.0596(5) 0.5157(6)
H34 H 0.4278 0.0777 0.4632
H35 H 0.4256 0.0531 0.5645
C38A C 0.3874(6) -0.1561(6) 0.4491(6)
H31A H 0.3840 -0.1914 0.3843
H32A H 0.3834 -0.2178 0.4849
H33A H 0.3082 -0.1231 0.4547
C39A C 0.5178(9) -0.0596(5) 0.4843(6)
H34A H 0.5722 -0.0777 0.5368
H35A H 0.5744 -0.0531 0.4355
loop_
_geom_bond_atom_site_label_1
_geom_bond_atom_site_label_2
_geom_bond_site_symmetry_1
_geom_bond_site_symmetry_2
C1 H1 1_555 1_555
H2 C1 1_555 1_555
H3 C1 1_555 1_555
C2 C1 1_555 1_555
H4 C2 1_555 1_555
C3 C2 1_555 1_555
C4 C3 1_555 1_555
C5 C4 1_555 1_555
C6 C5 1_555 1_555
H5 C6 1_555 1_555
H6 C6 1_555 1_555
C7 C3 1_555 1_555
C8 C7 1_555 1_555
H7 C8 1_555 1_555
C9 C8 1_555 1_555
H8 C9 1_555 1_555
C10 C9 1_555 1_555
C11 C10 1_555 1_555
H9 C11 1_555 1_555
C12 C7 1_555 1_555
H10 C12 1_555 1_555
C13 C4 1_555 1_555
C14 C13 1_555 1_555
C15 C14 1_555 1_555
H11 C15 1_555 1_555
C16 C15 1_555 1_555
H12 C16 1_555 1_555
C17 C16 1_555 1_555
H13 C17 1_555 1_555
C18 C17 1_555 1_555
H14 C18 1_555 1_555
C19 C14 1_555 1_555
H15 C19 1_555 1_555
C20 C13 1_555 1_555
C21 C20 1_555 1_555
H16 C21 1_555 1_555
C22 C21 1_555 1_555
H17 C22 1_555 1_555
C23 C22 1_555 1_555
H18 C23 1_555 1_555
C24 C23 1_555 1_555
H19 C24 1_555 1_555
C25 C20 1_555 1_555
H20 C25 1_555 1_555
C26 C27 1_555 1_555
C27 H21 1_555 1_555
C28 C27 1_555 1_555
H22 C28 1_555 1_555
C29 C28 1_555 1_555
H23 C29 1_555 1_555
C30 C29 1_555 1_555
H24 C30 1_555 1_555
C31 C26 1_555 1_555
H25 C31 1_555 1_555
C32 C33 1_555 1_555
C33 H26 1_555 1_555
C34 C33 1_555 1_555
H27 C34 1_555 1_555
C35 C34 1_555 1_555
H28 C35 1_555 1_555
C36 C35 1_555 1_555
H29 C36 1_555 1_555
C37 C32 1_555 1_555
H30 C37 1_555 1_555
Cl1 C10 1_555 1_555
O1 P1 1_555 1_555
P1 C5 1_555 1_555
C38 H31 1_555 1_555
H32 C38 1_555 1_555
H33 C38 1_555 1_555
C39 C38 1_555 1_555
H34 C39 1_555 1_555
H35 C39 1_555 1_555
C38A H31A 1_555 1_555
H32A C38A 1_555 1_555
H33A C38A 1_555 1_555
C39A C39 1_555 1_555
H34A C39A 1_555 1_555
H35A C39A 1_555 1_555
C11 C12 1_555 1_555
C18 C19 1_555 1_555
C24 C25 1_555 1_555
C26 P1 1_555 1_555
C30 C31 1_555 1_555
C32 P1 1_555 1_555
C36 C37 1_555 1_555
C38A C39A 1_555 1_555

#END
