
#######################################################################
#
#                 Cambridge Crystallographic Data Centre
#                                CCDC 
#
#######################################################################
#
# If this CIF has been generated from an entry in the Cambridge 
# Structural Database, then it will include bibliographic, chemical, 
# crystal, experimental, refinement or atomic coordinate data resulting 
# from the CCDC's data processing and validation procedures.
#
#######################################################################

data_KASNOK
_chemical_formula_moiety         'C21 H24 N4 O2,C2 H1 F3 O2'
_chemical_name_systematic        
'2-({[(pyridin-2-yl)methyl](2-{[(pyridin-2-yl)methyl]amino}ethyl)amino}methyl)benzene-1,4-diol trifluoroacetic acid'
_symmetry_cell_setting           orthorhombic
_symmetry_space_group_name_H-M   'P n a 21'
_symmetry_Int_Tables_number      33
_space_group_name_Hall           'P 2c -2n'
loop_
_symmetry_equiv_pos_site_id
_symmetry_equiv_pos_as_xyz
1 x,y,z
2 -x,-y,1/2+z
3 1/2+x,1/2-y,z
4 1/2-x,1/2+y,1/2+z
_cell_length_a                   14.7986(9)
_cell_length_b                   13.1965(8)
_cell_length_c                   11.7993(7)
_cell_angle_alpha                90
_cell_angle_beta                 90
_cell_angle_gamma                90
_cell_volume                     2304.28
_cell_formula_units_Z            4
loop_
_atom_site_label
_atom_site_type_symbol
_atom_site_fract_x
_atom_site_fract_y
_atom_site_fract_z
O1 O 0.39804(10) 0.29696(12) 0.82534(16)
H1 H 0.3507 0.3041 0.8638
O2 O 0.57568(14) 0.66145(13) 0.76035(19)
H2 H 0.5601 0.7055 0.8078
N1 N 0.58195(12) 0.23157(13) 0.75776(16)
N2 N 0.46154(12) 0.08039(14) 0.82468(17)
H3 H 0.4838 0.1150 0.8819
N3 N 0.75358(13) 0.19949(13) 0.96346(18)
N4 N 0.36866(13) 0.08785(15) 1.01965(18)
C1 C 0.54395(16) 0.30253(18) 0.6740(2)
H4 H 0.4937 0.2696 0.6327
H5 H 0.5910 0.3215 0.6183
C2 C 0.50981(15) 0.39615(17) 0.73348(19)
C3 C 0.43860(14) 0.38957(16) 0.8107(2)
C4 C 0.41284(15) 0.47600(17) 0.8693(2)
H6 H 0.3638 0.4722 0.9211
C5 C 0.45644(15) 0.56720(18) 0.8542(2)
H7 H 0.4377 0.6253 0.8956
C6 C 0.52746(17) 0.57388(18) 0.7789(2)
C7 C 0.55278(16) 0.48892(17) 0.7189(2)
H8 H 0.6010 0.4939 0.6661
C8 C 0.66385(14) 0.26956(18) 0.8109(2)
H9 H 0.6630 0.3446 0.8102
H10 H 0.7170 0.2468 0.7668
C9 C 0.67260(14) 0.23306(15) 0.9309(2)
C10 C 0.76490(18) 0.17219(18) 1.0713(2)
H11 H 0.8224 0.1478 1.0946
C11 C 0.6973(2) 0.17783(19) 1.1496(2)
H12 H 0.7084 0.1597 1.2263
C12 C 0.6131(2) 0.2099(2) 1.1168(2)
H13 H 0.5648 0.2126 1.1697
C13 C 0.60001(17) 0.23808(18) 1.0061(2)
H14 H 0.5424 0.2606 0.9810
C14 C 0.59404(15) 0.12913(18) 0.7129(2)
H15 H 0.6381 0.0919 0.7604
H16 H 0.6185 0.1329 0.6350
C15 C 0.50512(18) 0.07255(19) 0.7116(2)
H17 H 0.4649 0.1018 0.6531
H18 H 0.5158 0.0004 0.6927
C16 C 0.37578(16) 0.0225(2) 0.8289(2)
H19 H 0.3889 -0.0503 0.8170
H20 H 0.3360 0.0453 0.7665
C17 C 0.32734(16) 0.03542(17) 0.9393(2)
C18 C 0.3250(2) 0.09908(19) 1.1175(2)
H21 H 0.3542 0.1356 1.1765
C19 C 0.2406(2) 0.0610(2) 1.1381(3)
H22 H 0.2116 0.0727 1.2088
C20 C 0.1986(2) 0.0059(2) 1.0551(3)
H23 H 0.1406 -0.0230 1.0677
C21 C 0.24209(18) -0.0068(2) 0.9528(3)
H24 H 0.2144 -0.0437 0.8929
F1 F 0.34021(17) 0.2550(3) 0.5201(3)
F2 F 0.26262(15) 0.1876(2) 0.3922(2)
F3 F 0.2765(2) 0.1157(3) 0.5501(3)
C22 C 0.3222(2) 0.1682(2) 0.4722(3)
C23 C 0.40594(18) 0.11391(19) 0.4278(2)
O3 O 0.40915(14) 0.02359(15) 0.44766(19)
H25 H 0.4614 0.0081 0.4693
O4 O 0.45978(13) 0.16713(14) 0.3731(2)
F4? F 0.3027(13) 0.251(2) 0.4232(17)
F5? F 0.2534(19) 0.115(2) 0.462(3)
F6? F 0.3269(17) 0.180(3) 0.575(3)
loop_
_geom_bond_atom_site_label_1
_geom_bond_atom_site_label_2
_geom_bond_site_symmetry_1
_geom_bond_site_symmetry_2
O1 H1 1_555 1_555
O2 H2 1_555 1_555
N1 C1 1_555 1_555
N2 H3 1_555 1_555
N3 C9 1_555 1_555
N4 C17 1_555 1_555
C1 H4 1_555 1_555
H5 C1 1_555 1_555
C2 C1 1_555 1_555
C3 O1 1_555 1_555
C4 C3 1_555 1_555
H6 C4 1_555 1_555
C5 C4 1_555 1_555
H7 C5 1_555 1_555
C6 O2 1_555 1_555
C7 C2 1_555 1_555
H8 C7 1_555 1_555
C8 N1 1_555 1_555
H9 C8 1_555 1_555
H10 C8 1_555 1_555
C9 C8 1_555 1_555
C10 N3 1_555 1_555
H11 C10 1_555 1_555
C11 C10 1_555 1_555
H12 C11 1_555 1_555
C12 C11 1_555 1_555
H13 C12 1_555 1_555
C13 C9 1_555 1_555
H14 C13 1_555 1_555
C14 N1 1_555 1_555
H15 C14 1_555 1_555
H16 C14 1_555 1_555
C15 N2 1_555 1_555
H17 C15 1_555 1_555
H18 C15 1_555 1_555
C16 N2 1_555 1_555
H19 C16 1_555 1_555
H20 C16 1_555 1_555
C17 C16 1_555 1_555
C18 N4 1_555 1_555
H21 C18 1_555 1_555
C19 C18 1_555 1_555
H22 C19 1_555 1_555
C20 C19 1_555 1_555
H23 C20 1_555 1_555
C21 C17 1_555 1_555
H24 C21 1_555 1_555
F1 C22 1_555 1_555
F2 C22 1_555 1_555
F3 C22 1_555 1_555
C22 C23 1_555 1_555
C23 O3 1_555 1_555
O3 H25 1_555 1_555
O4 C23 1_555 1_555
C2 C3 1_555 1_555
C5 C6 1_555 1_555
C6 C7 1_555 1_555
C12 C13 1_555 1_555
C14 C15 1_555 1_555
C20 C21 1_555 1_555

#END
