
#######################################################################
#
#                 Cambridge Crystallographic Data Centre
#                                CCDC 
#
#######################################################################
#
# If this CIF has been generated from an entry in the Cambridge 
# Structural Database, then it will include bibliographic, chemical, 
# crystal, experimental, refinement or atomic coordinate data resulting 
# from the CCDC's data processing and validation procedures.
#
#######################################################################

data_KASRAY
_chemical_formula_moiety         'C11 H18 N1 O5 P1,2(H2 O1)'
_chemical_name_systematic        
'Ethyl ((2-hydroxyethylammonio)(2-hydroxyphenyl)methyl)phosphonate dihydrate'
_symmetry_cell_setting           monoclinic
_symmetry_space_group_name_H-M   'P 21/c'
_symmetry_Int_Tables_number      14
_space_group_name_Hall           '-P 2ybc'
loop_
_symmetry_equiv_pos_site_id
_symmetry_equiv_pos_as_xyz
1 x,y,z
2 -x,1/2+y,1/2-z
3 -x,-y,-z
4 x,1/2-y,1/2+z
_cell_length_a                   7.356(2)
_cell_length_b                   8.707(5)
_cell_length_c                   23.417(8)
_cell_angle_alpha                90
_cell_angle_beta                 102.80(3)
_cell_angle_gamma                90
_cell_volume                     1462.56
_exptl_crystal_colour            colorless
_exptl_crystal_description       block
_cell_formula_units_Z            4
loop_
_atom_site_label
_atom_site_type_symbol
_atom_site_fract_x
_atom_site_fract_y
_atom_site_fract_z
C1 C 0.3069(4) 0.0952(3) 0.12570(11)
C2 C 0.3755(4) 0.0109(3) 0.17683(12)
O1 O 0.3413(3) 0.0666(2) 0.22735(8)
H1 H 0.3882 0.0096 0.2545
C3 C 0.4750(4) -0.1236(3) 0.17452(14)
H2 H 0.5226 -0.1781 0.2087
C4 C 0.5036(4) -0.1770(4) 0.12161(15)
H3 H 0.5676 -0.2685 0.1202
C5 C 0.4372(4) -0.0945(4) 0.07081(14)
H4 H 0.4572 -0.1298 0.0352
C6 C 0.3402(4) 0.0417(3) 0.07324(13)
H5 H 0.2970 0.0977 0.0391
C7 C 0.2019(4) 0.2429(3) 0.13007(11)
H6 H 0.1692 0.2421 0.1684
N1 N 0.0221(3) 0.2529(3) 0.08500(9)
H7 H -0.0283 0.3461 0.0875
H8 H 0.0475 0.2451 0.0492
C8 C -0.1193(4) 0.1330(4) 0.09051(13)
H9 H -0.0736 0.0325 0.0826
H10 H -0.2343 0.1524 0.0619
C9 C -0.1565(5) 0.1353(4) 0.15099(14)
H11 H -0.2749 0.0859 0.1506
H12 H -0.0595 0.0788 0.1776
O2 O -0.1608(3) 0.2898(3) 0.17073(11)
H13 H -0.2692 0.3159 0.1686
P1 P 0.34197(10) 0.41641(8) 0.12755(3)
O3 O 0.5035(3) 0.4073(2) 0.17859(8)
O4 O 0.3787(3) 0.4357(2) 0.06832(8)
O5 O 0.1997(3) 0.5486(2) 0.13578(8)
C10 C 0.1590(4) 0.5813(4) 0.19294(12)
H14 H 0.2669 0.6276 0.2186
H15 H 0.1295 0.4868 0.2109
C11 C -0.0019(6) 0.6882(5) 0.18447(15)
H16 H 0.0280 0.7810 0.1664
H17 H -0.0290 0.7118 0.2218
H18 H -0.1087 0.6408 0.1597
O6 O 0.7417(3) 0.4872(3) 0.04613(9)
H19 H 0.6448 0.4703 0.0572
H20 H 0.7195 0.4897 0.0104
O7 O 0.9750(4) 0.7445(3) 0.03541(9)
H21 H 0.8988 0.6831 0.0431
H22 H 1.0775 0.7290 0.0569
loop_
_geom_bond_atom_site_label_1
_geom_bond_atom_site_label_2
_geom_bond_site_symmetry_1
_geom_bond_site_symmetry_2
C1 C2 1_555 1_555
C2 O1 1_555 1_555
O1 H1 1_555 1_555
C3 C2 1_555 1_555
H2 C3 1_555 1_555
C4 C3 1_555 1_555
H3 C4 1_555 1_555
C5 C4 1_555 1_555
H4 C5 1_555 1_555
C6 C1 1_555 1_555
H5 C6 1_555 1_555
C7 C1 1_555 1_555
H6 C7 1_555 1_555
N1 C7 1_555 1_555
H7 N1 1_555 1_555
H8 N1 1_555 1_555
C8 N1 1_555 1_555
H9 C8 1_555 1_555
H10 C8 1_555 1_555
C9 C8 1_555 1_555
H11 C9 1_555 1_555
H12 C9 1_555 1_555
O2 C9 1_555 1_555
H13 O2 1_555 1_555
P1 C7 1_555 1_555
O3 P1 1_555 1_555
O4 P1 1_555 1_555
O5 P1 1_555 1_555
C10 O5 1_555 1_555
H14 C10 1_555 1_555
H15 C10 1_555 1_555
C11 C10 1_555 1_555
H16 C11 1_555 1_555
H17 C11 1_555 1_555
H18 C11 1_555 1_555
O6 H19 1_555 1_555
H20 O6 1_555 1_555
O7 H21 1_555 1_555
H22 O7 1_555 1_555
C5 C6 1_555 1_555

#END
