
#######################################################################
#
#                 Cambridge Crystallographic Data Centre
#                                CCDC 
#
#######################################################################
#
# If this CIF has been generated from an entry in the Cambridge 
# Structural Database, then it will include bibliographic, chemical, 
# crystal, experimental, refinement or atomic coordinate data resulting 
# from the CCDC's data processing and validation procedures.
#
#######################################################################

data_KATBAJ01
_chemical_formula_moiety         'C8 H6 O4,C13 H14 N2'
_chemical_name_systematic        'Terephthalic acid 1,3-bis(4-pyridyl)propane'
_symmetry_cell_setting           triclinic
_symmetry_space_group_name_H-M   'P -1'
_symmetry_Int_Tables_number      2
_space_group_name_Hall           '-P 1'
loop_
_symmetry_equiv_pos_site_id
_symmetry_equiv_pos_as_xyz
1 x,y,z
2 -x,-y,-z
_cell_length_a                   9.5267(19)
_cell_length_b                   11.927(2)
_cell_length_c                   16.959(3)
_cell_angle_alpha                96.40(3)
_cell_angle_beta                 98.12(3)
_cell_angle_gamma                101.52(3)
_cell_volume                     1849.74
_exptl_crystal_colour            yellow
_exptl_crystal_description       prism
_cell_formula_units_Z            4
loop_
_atom_site_label
_atom_site_type_symbol
_atom_site_fract_x
_atom_site_fract_y
_atom_site_fract_z
O1 O 0.2217(3) 0.74290(18) 0.00938(11)
O2 O 0.1633(2) 0.81164(18) -0.10397(10)
H1 H 0.0939 0.7565 -0.1101
C1 C 0.2483(4) 0.8138(3) -0.03576(16)
C2 C 0.3792(3) 0.9101(2) -0.01834(15)
C3 C 0.3983(3) 0.9952(3) -0.06748(15)
H2 H 0.3291 0.9923 -0.1127
C4 C 0.4815(3) 0.9168(3) 0.04962(14)
H3 H 0.4681 0.8606 0.0834
O1A O 0.7783(3) 1.25710(18) -0.00938(11)
O2A O 0.8367(2) 1.18836(18) 0.10397(10)
H1A H 0.9061 1.2435 0.1101
C1A C 0.7517(4) 1.1862(3) 0.03576(16)
C2A C 0.6208(3) 1.0899(2) 0.01834(15)
C3A C 0.6017(3) 1.0048(3) 0.06748(15)
H2A H 0.6709 1.0077 0.1127
C4A C 0.5185(3) 1.0832(3) -0.04962(14)
H3A H 0.5319 1.1394 -0.0834
O3 O 0.7216(3) 0.74297(19) 0.00980(12)
O4 O 0.6630(2) 0.81136(17) -0.10435(10)
H4 H 0.5929 0.7566 -0.1114
C5 C 0.7457(3) 0.8117(2) -0.03618(17)
C6 C 0.8761(3) 0.9095(2) -0.01928(15)
C7 C 0.8990(3) 0.9952(3) -0.06749(15)
H5 H 0.8317 0.9923 -0.1135
C8 C 0.9801(3) 0.9147(2) 0.04851(15)
H6 H 0.9679 0.8571 0.0812
O3A O 1.2784(3) 1.25703(19) -0.00980(12)
O4A O 1.3370(2) 1.18864(17) 0.10435(10)
H4A H 1.4071 1.2434 0.1114
C5A C 1.2543(3) 1.1883(2) 0.03618(17)
C6A C 1.1239(3) 1.0905(2) 0.01928(15)
C7A C 1.1010(3) 1.0048(3) 0.06749(15)
H5A H 1.1683 1.0077 0.1135
C8A C 1.0199(3) 1.0853(2) -0.04851(15)
H6A H 1.0321 1.1429 -0.0812
O5 O 0.3457(3) 0.75674(18) 0.49015(12)
O6 O 0.3096(3) 0.68858(18) 0.60423(10)
H7 H 0.2709 0.7437 0.6107
C9 C 0.3594(3) 0.6873(2) 0.53633(16)
C10 C 0.4324(3) 0.5899(2) 0.51831(14)
C11 C 0.4983(3) 0.5851(2) 0.45079(14)
H8 H 0.4972 0.6420 0.4176
C12 C 0.4346(3) 0.5044(2) 0.56709(15)
H9 H 0.3901 0.5075 0.6125
O5A O 0.6543(3) 0.24326(18) 0.50985(12)
O6A O 0.6904(3) 0.31142(18) 0.39577(10)
H7A H 0.7291 0.2563 0.3893
C9A C 0.6406(3) 0.3127(2) 0.46367(16)
C10A C 0.5676(3) 0.4101(2) 0.48169(14)
C11A C 0.5017(3) 0.4149(2) 0.54921(14)
H8A H 0.5028 0.3580 0.5824
C12A C 0.5654(3) 0.4956(2) 0.43291(15)
H9A H 0.6099 0.4925 0.3875
O7 O 0.8450(3) 0.75732(18) 0.49047(11)
O8 O 0.8093(3) 0.68825(18) 0.60408(10)
H10 H 0.7698 0.7428 0.6108
C13 C 0.8577(3) 0.6877(2) 0.53609(16)
C14 C 0.9326(3) 0.5905(2) 0.51913(14)
C15 C 0.9984(3) 0.5841(2) 0.45111(15)
H11 H 0.9970 0.6410 0.4179
C16 C 0.9345(3) 0.5051(2) 0.56783(15)
H12 H 0.8904 0.5078 0.6134
O7A O 1.1550(3) 0.24268(18) 0.50953(11)
O8A O 1.1907(3) 0.31175(18) 0.39592(10)
H10A H 1.2302 0.2572 0.3892
C13A C 1.1423(3) 0.3123(2) 0.46391(16)
C14A C 1.0674(3) 0.4095(2) 0.48087(14)
C15A C 1.0016(3) 0.4159(2) 0.54889(15)
H11A H 1.0030 0.3590 0.5821
C16A C 1.0655(3) 0.4949(2) 0.43217(15)
H12A H 1.1096 0.4922 0.3866
C17 C 0.2173(4) 0.5259(3) 0.11206(17)
H13 H 0.2384 0.5785 0.0765
C18 C 0.1033(4) 0.4339(3) 0.09026(17)
H14 H 0.0492 0.4238 0.0389
C19 C 0.1455(4) 0.3718(3) 0.21153(16)
H15 H 0.1204 0.3187 0.2461
C20 C 0.2624(3) 0.4606(3) 0.23754(16)
H16 H 0.3157 0.4671 0.2888
C21 C 0.3022(3) 0.5414(2) 0.18779(16)
C22 C 0.4270(3) 0.6456(2) 0.21590(17)
H17 H 0.4756 0.6641 0.1709
H18 H 0.4969 0.6267 0.2569
C23 C 0.3749(3) 0.7516(2) 0.25032(17)
H19 H 0.3100 0.7732 0.2081
H20 H 0.3199 0.7308 0.2925
C24 C 0.4977(3) 0.8553(2) 0.28452(17)
H21 H 0.5592 0.8364 0.3295
H22 H 0.5566 0.8742 0.2436
C25 C 0.4390(3) 0.9578(2) 0.31218(16)
C26 C 0.4158(3) 1.0382(2) 0.26237(16)
H23 H 0.4411 1.0317 0.2113
C27 C 0.3551(3) 1.1282(3) 0.28841(15)
H24 H 0.3394 1.1812 0.2537
C28 C 0.3416(4) 1.0664(3) 0.40977(16)
H25 H 0.3176 1.0758 0.4610
C29 C 0.4004(4) 0.9734(3) 0.38765(16)
H26 H 0.4140 0.9212 0.4233
N1 N 0.0657(3) 0.3574(2) 0.13910(13)
N2 N 0.3177(3) 1.1428(2) 0.36143(13)
C30 C 0.7202(4) 0.5271(3) 0.11205(17)
H27 H 0.7421 0.5786 0.0759
C31 C 0.6030(4) 0.4337(3) 0.09064(16)
H28 H 0.5479 0.4245 0.0396
C32 C 0.6471(4) 0.3719(3) 0.21135(16)
H29 H 0.6233 0.3188 0.2462
C33 C 0.7662(4) 0.4627(3) 0.23721(16)
H30 H 0.8203 0.4692 0.2883
C34 C 0.8049(4) 0.5434(2) 0.18785(17)
C35 C 0.9275(3) 0.6449(2) 0.21523(18)
H31 H 0.9759 0.6638 0.1703
H32 H 0.9975 0.6261 0.2562
C36 C 0.8734(3) 0.7491(2) 0.24944(17)
H33 H 0.8185 0.7276 0.2915
H34 H 0.8082 0.7703 0.2072
C37 C 0.9958(3) 0.8537(2) 0.28392(17)
H35 H 1.0578 0.8346 0.3286
H36 H 1.0544 0.8730 0.2429
C38 C 0.9375(3) 0.9576(2) 0.31268(16)
C39 C 0.9136(4) 1.0385(3) 0.26287(15)
H37 H 0.9378 1.0318 0.2116
C40 C 0.8540(4) 1.1287(3) 0.28913(16)
H38 H 0.8390 1.1821 0.2547
C41 C 0.8404(4) 1.0662(3) 0.40953(16)
H39 H 0.8156 1.0758 0.4606
C42 C 0.8992(4) 0.9738(3) 0.38837(16)
H40 H 0.9133 0.9223 0.4245
N3 N 0.5649(3) 0.3567(2) 0.13883(13)
N4 N 0.8170(3) 1.1428(2) 0.36107(13)
loop_
_geom_bond_atom_site_label_1
_geom_bond_atom_site_label_2
_geom_bond_site_symmetry_1
_geom_bond_site_symmetry_2
O1 C1 1_555 1_555
O2 H1 1_555 1_555
C1 O2 1_555 1_555
C2 C1 1_555 1_555
C3 C2 1_555 1_555
H2 C3 1_555 1_555
C4 C2 1_555 1_555
H3 C4 1_555 1_555
O3 C5 1_555 1_555
O4 H4 1_555 1_555
C5 O4 1_555 1_555
C6 C5 1_555 1_555
C7 C6 1_555 1_555
H5 C7 1_555 1_555
C8 C6 1_555 1_555
H6 C8 1_555 1_555
O5 C9 1_555 1_555
O6 H7 1_555 1_555
C9 O6 1_555 1_555
C10 C9 1_555 1_555
C11 C10 1_555 1_555
H8 C11 1_555 1_555
C12 C10 1_555 1_555
H9 C12 1_555 1_555
O7 C13 1_555 1_555
O8 H10 1_555 1_555
C13 O8 1_555 1_555
C14 C13 1_555 1_555
C15 C14 1_555 1_555
H11 C15 1_555 1_555
C16 C14 1_555 1_555
H12 C16 1_555 1_555
C17 H13 1_555 1_555
C18 C17 1_555 1_555
H14 C18 1_555 1_555
C19 H15 1_555 1_555
C20 C19 1_555 1_555
H16 C20 1_555 1_555
C21 C17 1_555 1_555
C22 C21 1_555 1_555
H17 C22 1_555 1_555
H18 C22 1_555 1_555
C23 C22 1_555 1_555
H19 C23 1_555 1_555
H20 C23 1_555 1_555
C24 C23 1_555 1_555
H21 C24 1_555 1_555
H22 C24 1_555 1_555
C25 C24 1_555 1_555
C26 C25 1_555 1_555
H23 C26 1_555 1_555
C27 C26 1_555 1_555
H24 C27 1_555 1_555
C28 H25 1_555 1_555
C29 C25 1_555 1_555
H26 C29 1_555 1_555
N1 C18 1_555 1_555
N2 C27 1_555 1_555
C30 H27 1_555 1_555
C31 C30 1_555 1_555
H28 C31 1_555 1_555
C32 H29 1_555 1_555
C33 C32 1_555 1_555
H30 C33 1_555 1_555
C34 C30 1_555 1_555
C35 C34 1_555 1_555
H31 C35 1_555 1_555
H32 C35 1_555 1_555
C36 C35 1_555 1_555
H33 C36 1_555 1_555
H34 C36 1_555 1_555
C37 C36 1_555 1_555
H35 C37 1_555 1_555
H36 C37 1_555 1_555
C38 C37 1_555 1_555
C39 C38 1_555 1_555
H37 C39 1_555 1_555
C40 C39 1_555 1_555
H38 C40 1_555 1_555
C41 H39 1_555 1_555
C42 C38 1_555 1_555
H40 C42 1_555 1_555
N3 C31 1_555 1_555
N4 C40 1_555 1_555
O1A C1A 1_555 1_555
O2A H1A 1_555 1_555
C1A O2A 1_555 1_555
C2A C1A 1_555 1_555
C3A C4 1_555 1_555
H2A C3A 1_555 1_555
C4A C3 1_555 1_555
H3A C4A 1_555 1_555
O3A C5A 1_555 1_555
O4A H4A 1_555 1_555
C5A O4A 1_555 1_555
C6A C5A 1_555 1_555
C7A C8 1_555 1_555
H5A C7A 1_555 1_555
C8A C7 1_555 1_555
H6A C8A 1_555 1_555
O5A C9A 1_555 1_555
O6A H7A 1_555 1_555
C9A O6A 1_555 1_555
C10A C9A 1_555 1_555
C11A C12 1_555 1_555
H8A C11A 1_555 1_555
C12A C11 1_555 1_555
H9A C12A 1_555 1_555
O7A C13A 1_555 1_555
O8A H10A 1_555 1_555
C13A O8A 1_555 1_555
C14A C13A 1_555 1_555
C15A C16 1_555 1_555
H11A C15A 1_555 1_555
C16A C15 1_555 1_555
H12A C16A 1_555 1_555
C19 N1 1_555 1_555
C20 C21 1_555 1_555
C28 C29 1_555 1_555
C28 N2 1_555 1_555
C32 N3 1_555 1_555
C33 C34 1_555 1_555
C41 C42 1_555 1_555
C41 N4 1_555 1_555
C2A C3A 1_555 1_555
C2A C4A 1_555 1_555
C6A C7A 1_555 1_555
C6A C8A 1_555 1_555
C10A C11A 1_555 1_555
C10A C12A 1_555 1_555
C14A C15A 1_555 1_555
C14A C16A 1_555 1_555

#END
