
#######################################################################
#
#                 Cambridge Crystallographic Data Centre
#                                CCDC 
#
#######################################################################
#
# If this CIF has been generated from an entry in the Cambridge 
# Structural Database, then it will include bibliographic, chemical, 
# crystal, experimental, refinement or atomic coordinate data resulting 
# from the CCDC's data processing and validation procedures.
#
#######################################################################

data_KATNOL
_chemical_compound_source        
'South China Sea marine sponge Hippospongia lachne'
_chemical_name_common            'Hipposponlachnins B'
_chemical_formula_moiety         'C20 H32 O3'
_chemical_name_systematic        
4-hydroxy-3-(2-hydroxypropan-2-yl)-5a,8,8c-trimethyldodecahydrocyclopenta[3,4]cyclobuta[1,2-e]inden-6(1H)-one
_chemical_properties_biological  
'potent inhibitory activity on the release of  -hexosaminidase, a biomarker for degranulation, as well as the production of pro-inflammatory cytokine IL-4 and lipid mediator LTB4 in DNP-IgE-stimulated RBL-2H3 cells'
_symmetry_cell_setting           monoclinic
_symmetry_space_group_name_H-M   'P 21'
_symmetry_Int_Tables_number      4
_space_group_name_Hall           'P 2yb'
loop_
_symmetry_equiv_pos_site_id
_symmetry_equiv_pos_as_xyz
1 x,y,z
2 -x,1/2+y,-z
_cell_length_a                   8.17720(10)
_cell_length_b                   9.71010(10)
_cell_length_c                   11.2700(2)
_cell_angle_alpha                90
_cell_angle_beta                 92.8110(10)
_cell_angle_gamma                90
_cell_volume                     893.777
_exptl_crystal_colour            colorless
_exptl_crystal_description       plate
_cell_formula_units_Z            2
loop_
_atom_site_label
_atom_site_type_symbol
_atom_site_fract_x
_atom_site_fract_y
_atom_site_fract_z
O1 O 0.7038(2) 0.20443(16) 0.09028(14)
O2 O 1.16173(17) 0.72098(16) 0.13202(13)
H1 H 1.2067 0.7131 0.0669
O3 O 1.2409(2) 0.96355(19) 0.24388(14)
H2 H 1.2349 0.8855 0.2119
C1 C 0.7342(2) 0.7678(2) 0.22982(16)
C2 C 0.7067(2) 0.61050(19) 0.22379(16)
H3 H 0.7165 0.5713 0.3059
C3 C 0.5562(2) 0.5455(2) 0.15507(17)
H4 H 0.4937 0.6131 0.1035
C4 C 0.4444(3) 0.4487(2) 0.22364(18)
H5 H 0.3451 0.4288 0.1712
C5 C 0.5429(3) 0.3143(2) 0.2382(2)
H6 H 0.6119 0.3155 0.3129
H7 H 0.4688 0.2337 0.2392
C6 C 0.6476(2) 0.3092(2) 0.13173(18)
C7 C 0.6711(2) 0.4522(2) 0.08478(16)
H8 H 0.6569 0.4607 -0.0036
C8 C 0.8247(2) 0.5302(2) 0.14181(16)
C9 C 0.9008(3) 0.6265(2) 0.05216(17)
H9 H 0.8133 0.6606 -0.0042
H10 H 0.9793 0.5734 0.0061
C10 C 0.9904(2) 0.7509(2) 0.11018(17)
H11 H 0.9793 0.8313 0.0549
C11 C 0.9212(2) 0.7906(2) 0.22844(16)
H12 H 0.9730 0.7281 0.2900
C12 C 0.9482(2) 0.9400(2) 0.27358(17)
H13 H 0.9297 1.0022 0.2035
C13 C 0.8046(3) 0.9643(2) 0.3565(2)
H14 H 0.8473 0.9802 0.4391
H15 H 0.7399 1.0458 0.3299
C14 C 0.6976(3) 0.8340(2) 0.34971(18)
H16 H 0.7272 0.7707 0.4162
H17 H 0.5802 0.8579 0.3524
C15 C 0.6379(3) 0.8482(2) 0.13173(19)
H18 H 0.5204 0.8413 0.1442
H19 H 0.6608 0.8094 0.0540
H20 H 0.6711 0.9452 0.1345
C16 C 0.3871(3) 0.5078(3) 0.3396(2)
H21 H 0.3154 0.4412 0.3767
H22 H 0.3267 0.5935 0.3233
H23 H 0.4822 0.5268 0.3934
C17 C 0.9541(3) 0.4413(2) 0.20605(18)
H24 H 1.0017 0.3782 0.1493
H25 H 0.9037 0.3880 0.2684
H26 H 1.0403 0.5003 0.2418
C18 C 1.1193(3) 0.9749(2) 0.33055(18)
C19 C 1.1259(3) 1.1258(3) 0.3672(2)
H27 H 1.2376 1.1493 0.3957
H28 H 1.0506 1.1415 0.4308
H29 H 1.0938 1.1836 0.2987
C20 C 1.1680(3) 0.8834(3) 0.4365(2)
H30 H 1.1768 0.7877 0.4099
H31 H 1.0847 0.8900 0.4959
H32 H 1.2739 0.9139 0.4717
loop_
_geom_bond_atom_site_label_1
_geom_bond_atom_site_label_2
_geom_bond_site_symmetry_1
_geom_bond_site_symmetry_2
O1 C6 1_555 1_555
O2 H1 1_555 1_555
O3 H2 1_555 1_555
C1 C2 1_555 1_555
C2 H3 1_555 1_555
C3 C2 1_555 1_555
H4 C3 1_555 1_555
C4 C3 1_555 1_555
H5 C4 1_555 1_555
C5 C4 1_555 1_555
H6 C5 1_555 1_555
H7 C5 1_555 1_555
C6 C5 1_555 1_555
C7 C3 1_555 1_555
H8 C7 1_555 1_555
C8 C2 1_555 1_555
C9 C8 1_555 1_555
H9 C9 1_555 1_555
H10 C9 1_555 1_555
C10 O2 1_555 1_555
H11 C10 1_555 1_555
C11 C1 1_555 1_555
H12 C11 1_555 1_555
C12 C11 1_555 1_555
H13 C12 1_555 1_555
C13 C12 1_555 1_555
H14 C13 1_555 1_555
H15 C13 1_555 1_555
C14 C1 1_555 1_555
H16 C14 1_555 1_555
H17 C14 1_555 1_555
C15 C1 1_555 1_555
H18 C15 1_555 1_555
H19 C15 1_555 1_555
H20 C15 1_555 1_555
C16 C4 1_555 1_555
H21 C16 1_555 1_555
H22 C16 1_555 1_555
H23 C16 1_555 1_555
C17 C8 1_555 1_555
H24 C17 1_555 1_555
H25 C17 1_555 1_555
H26 C17 1_555 1_555
C18 O3 1_555 1_555
C19 C18 1_555 1_555
H27 C19 1_555 1_555
H28 C19 1_555 1_555
H29 C19 1_555 1_555
C20 C18 1_555 1_555
H30 C20 1_555 1_555
H31 C20 1_555 1_555
H32 C20 1_555 1_555
C6 C7 1_555 1_555
C7 C8 1_555 1_555
C9 C10 1_555 1_555
C10 C11 1_555 1_555
C12 C18 1_555 1_555
C13 C14 1_555 1_555

#END
