
#######################################################################
#
#                 Cambridge Crystallographic Data Centre
#                                CCDC 
#
#######################################################################
#
# If this CIF has been generated from an entry in the Cambridge 
# Structural Database, then it will include bibliographic, chemical, 
# crystal, experimental, refinement or atomic coordinate data resulting 
# from the CCDC's data processing and validation procedures.
#
#######################################################################

data_KATQUT
_chemical_formula_moiety         'C15 H16 O1'
_chemical_name_systematic        3-Cyclopropyl-5-phenylhexa-2,4-dienal
_symmetry_cell_setting           monoclinic
_symmetry_space_group_name_H-M   'P 21/c'
_symmetry_Int_Tables_number      14
_space_group_name_Hall           '-P 2ybc'
loop_
_symmetry_equiv_pos_site_id
_symmetry_equiv_pos_as_xyz
1 x,y,z
2 -x,1/2+y,1/2-z
3 -x,-y,-z
4 x,1/2-y,1/2+z
_cell_length_a                   11.6032(14)
_cell_length_b                   8.4686(6)
_cell_length_c                   13.6961(18)
_cell_angle_alpha                90
_cell_angle_beta                 114.366(4)
_cell_angle_gamma                90
_cell_volume                     1225.94
_exptl_crystal_colour            yellow
_exptl_crystal_description       prism
_cell_formula_units_Z            4
loop_
_atom_site_label
_atom_site_type_symbol
_atom_site_fract_x
_atom_site_fract_y
_atom_site_fract_z
C1 C 0.0485(3) 0.1691(3) 0.1163(2)
C2 C 0.3219(2) -0.1174(3) 0.2707(3)
O1 O 0.2010(2) 0.4364(3) 0.0038(2)
C3 C -0.0666(3) 0.1619(3) 0.1343(3)
H1 H -0.1243 0.2510 0.1043
C4 C 0.2482(3) 0.0307(3) 0.2393(2)
C5 C 0.1372(3) 0.0333(3) 0.1553(2)
H2 H 0.1121 -0.0601 0.1165
C6 C 0.3252(3) -0.2240(3) 0.1954(3)
H3 H 0.2812 -0.2012 0.1230
C7 C 0.1813(3) 0.3184(4) 0.0466(3)
H4 H 0.2416 0.2385 0.0667
C8 C 0.3005(3) 0.1728(3) 0.3083(3)
H5 H 0.3817 0.1477 0.3639
H6 H 0.2440 0.2043 0.3398
H7 H 0.3094 0.2576 0.2653
C9 C 0.3900(3) -0.1548(3) 0.3774(3)
H8 H 0.3905 -0.0848 0.4299
C10 C 0.0713(3) 0.2960(3) 0.0676(2)
H9 H 0.0106 0.3755 0.0458
C11 C 0.3924(3) -0.3635(3) 0.2254(4)
H10 H 0.3920 -0.4342 0.1733
C12 C 0.4590(3) -0.3978(4) 0.3306(4)
H11 H 0.5055 -0.4908 0.3505
C13 C -0.0652(3) 0.0976(4) 0.2370(3)
H12 H 0.0138 0.0546 0.2890
H13 H -0.1165 0.1509 0.2676
C14 C -0.1308(3) 0.0098(4) 0.1374(3)
H14 H -0.2225 0.0089 0.1067
H15 H -0.0923 -0.0874 0.1281
C15 C 0.4576(3) -0.2945(4) 0.4078(3)
H16 H 0.5019 -0.3185 0.4801
loop_
_geom_bond_atom_site_label_1
_geom_bond_atom_site_label_2
_geom_bond_site_symmetry_1
_geom_bond_site_symmetry_2
C1 C3 1_555 1_555
C2 C4 1_555 1_555
O1 C7 1_555 1_555
C3 H1 1_555 1_555
C4 C5 1_555 1_555
C5 C1 1_555 1_555
H2 C5 1_555 1_555
C6 C2 1_555 1_555
H3 C6 1_555 1_555
C7 H4 1_555 1_555
C8 C4 1_555 1_555
H5 C8 1_555 1_555
H6 C8 1_555 1_555
H7 C8 1_555 1_555
C9 C2 1_555 1_555
H8 C9 1_555 1_555
C10 C1 1_555 1_555
H9 C10 1_555 1_555
C11 C6 1_555 1_555
H10 C11 1_555 1_555
C12 C11 1_555 1_555
H11 C12 1_555 1_555
C13 C3 1_555 1_555
H12 C13 1_555 1_555
H13 C13 1_555 1_555
C14 C3 1_555 1_555
H14 C14 1_555 1_555
H15 C14 1_555 1_555
C15 C9 1_555 1_555
H16 C15 1_555 1_555
C7 C10 1_555 1_555
C12 C15 1_555 1_555
C13 C14 1_555 1_555

#END
