
#######################################################################
#
#                 Cambridge Crystallographic Data Centre
#                                CCDC 
#
#######################################################################
#
# If this CIF has been generated from an entry in the Cambridge 
# Structural Database, then it will include bibliographic, chemical, 
# crystal, experimental, refinement or atomic coordinate data resulting 
# from the CCDC's data processing and validation procedures.
#
#######################################################################

data_KATSED
_chemical_formula_moiety         'C10 H10 O2 S8'
_chemical_name_systematic        
6,10-Diethoxy-(1,2,3)trithiolo(5,4-h)benzopentathiepin
_symmetry_cell_setting           monoclinic
_symmetry_space_group_name_H-M   'P 21/a'
_symmetry_Int_Tables_number      14
_space_group_name_Hall           '-P 2yab'
loop_
_symmetry_equiv_pos_site_id
_symmetry_equiv_pos_as_xyz
1 x,y,z
2 1/2-x,1/2+y,-z
3 -x,-y,-z
4 1/2+x,1/2-y,z
_cell_length_a                   19.004(3)
_cell_length_b                   9.299(4)
_cell_length_c                   9.280(2)
_cell_angle_alpha                90
_cell_angle_beta                 90.09(2)
_cell_angle_gamma                90
_cell_volume                     1639.94
_chemical_melting_point          146deg.C
_cell_formula_units_Z            4
loop_
_atom_site_label
_atom_site_type_symbol
_atom_site_fract_x
_atom_site_fract_y
_atom_site_fract_z
S1 S 0.2554 0.4606 0.0409
S2 S 0.1307 0.5384 -0.2027
S3 S 0.3311 0.7857 -0.5368
S4 S 0.4463 0.7210 -0.3132
S5 S 0.2069 0.5976 0.1808
S6 S 0.4192 0.8865 -0.4532
S7 S 0.1011 0.5692 0.1399
S8 S 0.0872 0.6727 -0.0529
O1 O 0.1880 0.6971 -0.4501
O2 O 0.3940 0.5735 -0.0478
C1 C 0.2188 0.5973 -0.2185
C2 C 0.3577 0.6812 -0.2675
C3 C 0.2369 0.6704 -0.3446
C4 C 0.3411 0.6089 -0.1414
C5 C 0.3058 0.7115 -0.3693
C6 C 0.2716 0.5657 -0.1152
C7 C 0.4047 0.6785 0.0657
C8 C 0.4561 0.6179 0.1714
C9 C 0.1515 0.8337 -0.4313
C10 C 0.1019 0.8502 -0.5529
H1 H 0.4397 0.5352 0.2079
H2 H 0.4191 0.7724 0.0218
H3 H 0.1244 0.8453 -0.6421
H4 H 0.3620 0.6953 0.1117
H5 H 0.4989 0.5918 0.1172
H6 H 0.0795 0.9553 -0.5360
H7 H 0.1894 0.9041 -0.4380
H8 H 0.1209 0.8324 -0.3392
H9 H 0.4693 0.6900 0.2321
H10 H 0.0641 0.7764 -0.5387
loop_
_geom_bond_atom_site_label_1
_geom_bond_atom_site_label_2
_geom_bond_site_symmetry_1
_geom_bond_site_symmetry_2
S1 S5 1_555 1_555
S2 S8 1_555 1_555
S3 S6 1_555 1_555
S4 S6 1_555 1_555
S5 S7 1_555 1_555
S7 S8 1_555 1_555
O1 C3 1_555 1_555
O2 C4 1_555 1_555
C1 S2 1_555 1_555
C2 S4 1_555 1_555
C3 C1 1_555 1_555
C4 C2 1_555 1_555
C5 S3 1_555 1_555
C6 S1 1_555 1_555
C7 O2 1_555 1_555
C8 C7 1_555 1_555
C9 O1 1_555 1_555
C10 C9 1_555 1_555
H1 C8 1_555 1_555
H2 C7 1_555 1_555
H3 C10 1_555 1_555
H4 C7 1_555 1_555
H5 C8 1_555 1_555
H6 C10 1_555 1_555
H7 C9 1_555 1_555
H8 C9 1_555 1_555
H9 C8 1_555 1_555
H10 C10 1_555 1_555
C1 C6 1_555 1_555
C2 C5 1_555 1_555
C3 C5 1_555 1_555
C4 C6 1_555 1_555

#END
