
#######################################################################
#
#                 Cambridge Crystallographic Data Centre
#                                CCDC 
#
#######################################################################
#
# If this CIF has been generated from an entry in the Cambridge 
# Structural Database, then it will include bibliographic, chemical, 
# crystal, experimental, refinement or atomic coordinate data resulting 
# from the CCDC's data processing and validation procedures.
#
#######################################################################

data_KAVQUW
_chemical_formula_moiety         'C27 H25 N2 1+,Br1 1-'
_chemical_name_systematic        
'2-ethyl-1,3-bis(2-naphthylmethyl)-1H-imidazol-3-ium bromide'
_chemical_properties_biological  'anti-cancer activity'
_symmetry_cell_setting           monoclinic
_symmetry_space_group_name_H-M   'P 21/n'
_symmetry_Int_Tables_number      14
_space_group_name_Hall           '-P 2yn'
loop_
_symmetry_equiv_pos_site_id
_symmetry_equiv_pos_as_xyz
1 x,y,z
2 1/2-x,1/2+y,1/2-z
3 -x,-y,-z
4 1/2+x,1/2-y,1/2+z
_cell_length_a                   13.3523(17)
_cell_length_b                   9.8237(11)
_cell_length_c                   16.542(2)
_cell_angle_alpha                90
_cell_angle_beta                 97.385(4)
_cell_angle_gamma                90
_cell_volume                     2151.8
_exptl_crystal_colour            colorless
_exptl_crystal_description       plate
_chemical_melting_point          '220-221 deg.C'
_cell_formula_units_Z            4
_exptl_crystal_recrystallization_method ethanol
loop_
_atom_site_label
_atom_site_type_symbol
_atom_site_fract_x
_atom_site_fract_y
_atom_site_fract_z
Br1 Br 0.68175(3) 0.74525(4) 0.99780(2)
N1 N 0.4932(2) 0.6226(3) 0.78601(17)
N2 N 0.3788(2) 0.4665(3) 0.76556(19)
C1 C 0.4189(3) 0.5716(4) 0.7306(2)
C2 C 0.4999(3) 0.5428(4) 0.8561(2)
H1 H 0.5465 0.5541 0.9041
C3 C 0.4285(3) 0.4474(4) 0.8434(2)
H2 H 0.4144 0.3789 0.8808
C4 C 0.5614(3) 0.7371(4) 0.7752(2)
H3 H 0.6020 0.7579 0.8282
H4 H 0.5206 0.8187 0.7580
C5 C 0.6314(3) 0.7072(4) 0.7129(2)
C6 C 0.6614(3) 0.8102(4) 0.6660(2)
H5 H 0.6368 0.8997 0.6727
C7 C 0.7287(3) 0.7867(4) 0.6075(2)
C8 C 0.7642(3) 0.8931(4) 0.5616(2)
H6 H 0.7432 0.9841 0.5693
C9 C 0.8285(3) 0.8658(4) 0.5063(2)
H7 H 0.8526 0.9385 0.4762
C10 C 0.8601(3) 0.7319(4) 0.4925(2)
H8 H 0.9041 0.7148 0.4528
C11 C 0.8277(3) 0.6278(4) 0.5359(2)
H9 H 0.8492 0.5376 0.5267
C12 C 0.7616(3) 0.6526(4) 0.5954(2)
C13 C 0.7301(3) 0.5469(4) 0.6449(2)
H10 H 0.7522 0.4563 0.6379
C14 C 0.6685(3) 0.5743(4) 0.7024(2)
H11 H 0.6501 0.5027 0.7361
C15 C 0.2870(3) 0.3883(4) 0.7321(2)
H12 H 0.2864 0.2991 0.7599
H13 H 0.2877 0.3716 0.6731
C16 C 0.1923(3) 0.4696(4) 0.7453(2)
C17 C 0.1663(3) 0.4872(4) 0.8220(2)
H14 H 0.2074 0.4482 0.8673
C18 C 0.0797(3) 0.5621(4) 0.8350(2)
C19 C 0.0527(3) 0.5845(4) 0.9140(2)
H15 H 0.0939 0.5484 0.9602
C20 C -0.0320(3) 0.6576(4) 0.9247(3)
H16 H -0.0497 0.6709 0.9779
C21 C -0.0929(3) 0.7131(4) 0.8568(3)
H17 H -0.1517 0.7635 0.8645
C22 C -0.0684(3) 0.6951(4) 0.7806(3)
H18 H -0.1103 0.7334 0.7356
C23 C 0.0186(3) 0.6203(4) 0.7666(2)
C24 C 0.0465(3) 0.5992(4) 0.6880(2)
H19 H 0.0067 0.6377 0.6419
C25 C 0.1309(3) 0.5233(4) 0.6772(2)
H20 H 0.1474 0.5073 0.6238
C26 C 0.3881(3) 0.6270(4) 0.6472(2)
H21 H 0.4169 0.7194 0.6437
H22 H 0.3136 0.6354 0.6381
C27 C 0.4225(3) 0.5379(5) 0.5795(2)
H23 H 0.4964 0.5383 0.5841
H24 H 0.3945 0.5741 0.5262
H25 H 0.3986 0.4444 0.5851
loop_
_geom_bond_atom_site_label_1
_geom_bond_atom_site_label_2
_geom_bond_site_symmetry_1
_geom_bond_site_symmetry_2
N1 C1 1_555 1_555
N2 C1 1_555 1_555
C1 C26 1_555 1_555
C2 N1 1_555 1_555
H1 C2 1_555 1_555
C3 N2 1_555 1_555
H2 C3 1_555 1_555
C4 N1 1_555 1_555
H3 C4 1_555 1_555
H4 C4 1_555 1_555
C5 C4 1_555 1_555
C6 C5 1_555 1_555
H5 C6 1_555 1_555
C7 C6 1_555 1_555
C8 C7 1_555 1_555
H6 C8 1_555 1_555
C9 C8 1_555 1_555
H7 C9 1_555 1_555
C10 C9 1_555 1_555
H8 C10 1_555 1_555
C11 C10 1_555 1_555
H9 C11 1_555 1_555
C12 C7 1_555 1_555
C13 C12 1_555 1_555
H10 C13 1_555 1_555
C14 C5 1_555 1_555
H11 C14 1_555 1_555
C15 N2 1_555 1_555
H12 C15 1_555 1_555
H13 C15 1_555 1_555
C16 C15 1_555 1_555
C17 C16 1_555 1_555
H14 C17 1_555 1_555
C18 C17 1_555 1_555
C19 C18 1_555 1_555
H15 C19 1_555 1_555
C20 C19 1_555 1_555
H16 C20 1_555 1_555
C21 C20 1_555 1_555
H17 C21 1_555 1_555
C22 C21 1_555 1_555
H18 C22 1_555 1_555
C23 C18 1_555 1_555
C24 C23 1_555 1_555
H19 C24 1_555 1_555
C25 C16 1_555 1_555
H20 C25 1_555 1_555
C26 H21 1_555 1_555
H22 C26 1_555 1_555
C27 C26 1_555 1_555
H23 C27 1_555 1_555
H24 C27 1_555 1_555
H25 C27 1_555 1_555
C2 C3 1_555 1_555
C11 C12 1_555 1_555
C13 C14 1_555 1_555
C22 C23 1_555 1_555
C24 C25 1_555 1_555

#END
