
#######################################################################
#
#                 Cambridge Crystallographic Data Centre
#                                CCDC 
#
#######################################################################
#
# If this CIF has been generated from an entry in the Cambridge 
# Structural Database, then it will include bibliographic, chemical, 
# crystal, experimental, refinement or atomic coordinate data resulting 
# from the CCDC's data processing and validation procedures.
#
#######################################################################

data_KAVROR
_chemical_formula_moiety         'C21 H24 N2 O2,C2 H6 O1'
_chemical_name_systematic        
'2-amino-4-(4-isopropylphenyl)-7,7-dimethyl-5-oxo-5,6,7,8-tetrahydro-4H-chromene-3-carbonitrile ethanol solvate'
_symmetry_cell_setting           triclinic
_symmetry_space_group_name_H-M   'P -1'
_symmetry_Int_Tables_number      2
_space_group_name_Hall           '-P 1'
loop_
_symmetry_equiv_pos_site_id
_symmetry_equiv_pos_as_xyz
1 x,y,z
2 -x,-y,-z
_cell_length_a                   9.1207(6)
_cell_length_b                   10.4078(9)
_cell_length_c                   12.1974(10)
_cell_angle_alpha                106.594(7)
_cell_angle_beta                 99.170(6)
_cell_angle_gamma                94.836(6)
_cell_volume                     1085.09
_exptl_crystal_colour            colorless
_exptl_crystal_description       block
_cell_formula_units_Z            2
loop_
_atom_site_label
_atom_site_type_symbol
_atom_site_fract_x
_atom_site_fract_y
_atom_site_fract_z
C1 C 0.1980(3) 0.5618(3) 0.6205(2)
C2 C 0.2344(3) 0.6598(3) 0.5728(2)
C3 C 0.1611(3) 0.7873(3) 0.5885(2)
H1 H 0.1307 0.7988 0.5115
C4 C 0.0220(3) 0.7682(3) 0.6371(2)
C5 C -0.0084(3) 0.6671(3) 0.6796(2)
C6 C -0.1396(3) 0.6450(3) 0.7344(3)
H2 H -0.1068 0.6142 0.8010
H3 H -0.2133 0.5742 0.6788
C7 C -0.2134(3) 0.7719(3) 0.7742(2)
C8 C -0.2297(3) 0.8366(3) 0.6766(3)
H4 H -0.3026 0.7776 0.6109
H5 H -0.2692 0.9214 0.7031
C9 C -0.0872(3) 0.8637(3) 0.6356(2)
C10 C 0.3528(3) 0.6441(3) 0.5105(2)
C11 C -0.1170(3) 0.8718(3) 0.8846(3)
H6 H -0.0224 0.9006 0.8682
H7 H -0.1006 0.8286 0.9445
H8 H -0.1676 0.9490 0.9107
C12 C -0.3677(3) 0.7323(3) 0.7986(3)
H9 H -0.4279 0.6690 0.7294
H10 H -0.4159 0.8116 0.8215
H11 H -0.3559 0.6913 0.8602
C13 C 0.2709(3) 0.9115(3) 0.6644(2)
C14 C 0.3024(3) 0.9426(3) 0.7840(3)
H12 H 0.2530 0.8891 0.8199
C15 C 0.4068(3) 1.0528(3) 0.8515(3)
H13 H 0.4258 1.0721 0.9322
C16 C 0.4828(3) 1.1338(3) 0.8018(3)
C17 C 0.4507(3) 1.1019(3) 0.6823(3)
H14 H 0.5011 1.1546 0.6462
C18 C 0.3457(3) 0.9938(3) 0.6147(3)
H15 H 0.3250 0.9762 0.5342
C19 C 0.5939(5) 1.2575(4) 0.8775(4)
H16 H 0.6662 1.2405 0.8253
C20 C 0.6928(5) 1.2383(4) 0.9708(4)
H17 H 0.7611 1.3199 1.0099
H18 H 0.7482 1.1657 0.9415
H19 H 0.6365 1.2162 1.0247
C21 C 0.5736(6) 1.3784(4) 0.8614(5)
H20 H 0.6536 1.4461 0.9105
H21 H 0.4796 1.4025 0.8809
H22 H 0.5731 1.3724 0.7813
O1 O 0.08121(19) 0.56726(18) 0.67980(17)
O2 O -0.0630(2) 0.9603(2) 0.59979(19)
N1 N 0.2621(3) 0.4511(2) 0.6214(2)
H23 H 0.3379 0.4348 0.5883
H24 H 0.2276 0.3963 0.6552
N2 N 0.4480(3) 0.6324(3) 0.4585(2)
C22 C 0.0418(7) 0.2488(6) 0.7765(6)
H25 H -0.0661 0.2453 0.7563
H26 H 0.0594 0.1690 0.8000
C23 C 0.0904(6) 0.3556(5) 0.8703(4)
H27 H 0.0504 0.3418 0.9348
H28 H 0.0579 0.4351 0.8547
H29 H 0.1979 0.3671 0.8889
O3 O 0.0959(3) 0.2357(2) 0.6773(2)
H30 H 0.0694 0.1611 0.6151
loop_
_geom_bond_atom_site_label_1
_geom_bond_atom_site_label_2
_geom_bond_site_symmetry_1
_geom_bond_site_symmetry_2
C1 C2 1_555 1_555
C2 C3 1_555 1_555
C3 H1 1_555 1_555
C4 C3 1_555 1_555
C5 C4 1_555 1_555
C6 C5 1_555 1_555
H2 C6 1_555 1_555
H3 C6 1_555 1_555
C7 C6 1_555 1_555
C8 C7 1_555 1_555
H4 C8 1_555 1_555
H5 C8 1_555 1_555
C9 C4 1_555 1_555
C10 C2 1_555 1_555
C11 C7 1_555 1_555
H6 C11 1_555 1_555
H7 C11 1_555 1_555
H8 C11 1_555 1_555
C12 C7 1_555 1_555
H9 C12 1_555 1_555
H10 C12 1_555 1_555
H11 C12 1_555 1_555
C13 C3 1_555 1_555
C14 C13 1_555 1_555
H12 C14 1_555 1_555
C15 C14 1_555 1_555
H13 C15 1_555 1_555
C16 C15 1_555 1_555
C17 C16 1_555 1_555
H14 C17 1_555 1_555
C18 C13 1_555 1_555
H15 C18 1_555 1_555
C19 C16 1_555 1_555
H16 C19 1_555 1_555
C20 C19 1_555 1_555
H17 C20 1_555 1_555
H18 C20 1_555 1_555
H19 C20 1_555 1_555
C21 C19 1_555 1_555
H20 C21 1_555 1_555
H21 C21 1_555 1_555
H22 C21 1_555 1_555
O1 C1 1_555 1_555
O2 C9 1_555 1_555
N1 C1 1_555 1_555
H23 N1 1_555 1_555
H24 N1 1_555 1_555
N2 C10 1_555 1_555
C22 H25 1_555 1_555
H26 C22 1_555 1_555
C23 C22 1_555 1_555
H27 C23 1_555 1_555
H28 C23 1_555 1_555
H29 C23 1_555 1_555
O3 C22 1_555 1_555
H30 O3 1_555 1_555
C5 O1 1_555 1_555
C8 C9 1_555 1_555
C17 C18 1_555 1_555

#END
