
#######################################################################
#
#                 Cambridge Crystallographic Data Centre
#                                CCDC 
#
#######################################################################
#
# If this CIF has been generated from an entry in the Cambridge 
# Structural Database, then it will include bibliographic, chemical, 
# crystal, experimental, refinement or atomic coordinate data resulting 
# from the CCDC's data processing and validation procedures.
#
#######################################################################

data_KAVSUY
_chemical_formula_moiety         'C34 H41 N2 O1 1+,C1 F3 O3 S1 1-'
_chemical_name_systematic        
'1,3-bis(2,6-diisopropylphenyl)-4-oxo-6-phenyl-3,4-dihydropyrimidin-1-ium trifluoromethanesulfonate'
_symmetry_cell_setting           monoclinic
_symmetry_space_group_name_H-M   'P 21/n'
_symmetry_Int_Tables_number      14
_space_group_name_Hall           '-P 2yn'
loop_
_symmetry_equiv_pos_site_id
_symmetry_equiv_pos_as_xyz
1 x,y,z
2 1/2-x,1/2+y,1/2-z
3 -x,-y,-z
4 1/2+x,1/2-y,1/2+z
_cell_length_a                   10.959(3)
_cell_length_b                   21.509(6)
_cell_length_c                   14.137(4)
_cell_angle_alpha                90
_cell_angle_beta                 96.106(5)
_cell_angle_gamma                90
_cell_volume                     3313.43
_exptl_crystal_colour            colorless
_exptl_crystal_description       block
_cell_formula_units_Z            4
loop_
_atom_site_label
_atom_site_type_symbol
_atom_site_fract_x
_atom_site_fract_y
_atom_site_fract_z
S1 S 0.6510(2) 0.19340(9) 0.73589(12)
O1 O 0.5468(5) 0.2234(3) 0.6881(4)
O2 O 0.6699(9) 0.1286(3) 0.7124(5)
O3 O 0.6735(6) 0.2084(3) 0.8344(3)
F1 F 0.7861(5) 0.2897(2) 0.7146(5)
F2 F 0.8878(6) 0.2031(3) 0.7168(5)
F3 F 0.7658(7) 0.2282(4) 0.5934(4)
C1 C 0.7791(9) 0.2291(4) 0.6879(6)
N1 N 0.2575(3) 0.18700(17) 0.5560(3)
N2 N 0.2512(4) 0.29423(17) 0.5767(3)
O4 O 0.2409(4) 0.33679(16) 0.7239(3)
C2 C 0.2552(4) 0.2444(2) 0.5217(3)
H1 H 0.251(4) 0.250(2) 0.457(4)
C3 C 0.2470(5) 0.2901(2) 0.6771(3)
C4 C 0.2494(5) 0.2268(2) 0.7101(3)
H2 H 0.2479 0.2198 0.7763
C5 C 0.2537(4) 0.1772(2) 0.6537(3)
C6 C 0.2484(5) 0.3556(2) 0.5323(3)
C7 C 0.3601(5) 0.3833(2) 0.5186(4)
C8 C 0.3543(5) 0.4407(2) 0.4728(4)
H3 H 0.4282 0.4612 0.4614
C9 C 0.2426(6) 0.4686(3) 0.4434(5)
H4 H 0.2405 0.5072 0.4107
C10 C 0.1347(5) 0.4406(2) 0.4614(4)
H5 H 0.0591 0.4612 0.4435
C11 C 0.1338(5) 0.3822(2) 0.5056(4)
C12 C 0.4831(5) 0.3550(2) 0.5533(4)
H6 H 0.4696 0.3103 0.5684
C13 C 0.5741(6) 0.3580(3) 0.4785(6)
H7 H 0.5379 0.3381 0.4197
H8 H 0.6498 0.3362 0.5023
H9 H 0.5929 0.4015 0.4656
C14 C 0.5363(6) 0.3874(3) 0.6446(5)
H10 H 0.5526 0.4311 0.6310
H11 H 0.6130 0.3669 0.6693
H12 H 0.4775 0.3849 0.6920
C15 C 0.0123(5) 0.3530(2) 0.5245(4)
H13 H 0.0280 0.3084 0.5418
C16 C -0.0818(5) 0.3550(3) 0.4366(5)
H14 H -0.1050 0.3982 0.4222
H15 H -0.1548 0.3312 0.4489
H16 H -0.0460 0.3367 0.3824
C17 C -0.0356(6) 0.3849(3) 0.6088(5)
H17 H 0.0216 0.3779 0.6659
H18 H -0.1163 0.3679 0.6186
H19 H -0.0431 0.4296 0.5964
C18 C 0.2539(5) 0.1128(2) 0.6908(3)
C19 C 0.1528(6) 0.0935(3) 0.7339(4)
H20 H 0.0848 0.1206 0.7368
C20 C 0.1517(7) 0.0342(3) 0.7733(5)
H21 H 0.0812 0.0201 0.8008
C21 C 0.2525(8) -0.0043(3) 0.7724(4)
H22 H 0.2519 -0.0445 0.7999
C22 C 0.3535(8) 0.0161(3) 0.7316(5)
H23 H 0.4233 -0.0101 0.7320
C23 C 0.3553(6) 0.0744(3) 0.6897(4)
H24 H 0.4251 0.0878 0.6608
C24 C 0.2485(5) 0.1362(2) 0.4856(3)
C25 C 0.1301(5) 0.1138(2) 0.4571(4)
C26 C 0.1216(6) 0.0663(3) 0.3890(4)
H25 H 0.0436 0.0490 0.3681
C27 C 0.2245(6) 0.0442(3) 0.3515(4)
H26 H 0.2166 0.0123 0.3048
C28 C 0.3384(6) 0.0681(3) 0.3816(4)
H27 H 0.4081 0.0520 0.3553
C29 C 0.3549(5) 0.1158(2) 0.4500(4)
C30 C 0.0153(5) 0.1388(3) 0.4937(4)
H28 H 0.0410 0.1654 0.5504
C31 C -0.0529(6) 0.1804(4) 0.4179(5)
H29 H 0.0036 0.2117 0.3972
H30 H -0.1211 0.2012 0.4446
H31 H -0.0849 0.1550 0.3633
C32 C -0.0656(7) 0.0866(3) 0.5259(6)
H32 H -0.1012 0.0631 0.4703
H33 H -0.1315 0.1045 0.5589
H34 H -0.0158 0.0588 0.5692
C33 C 0.4805(5) 0.1425(3) 0.4785(4)
H35 H 0.4779 0.1647 0.5404
C34 C 0.5134(6) 0.1902(4) 0.4050(5)
H36 H 0.5119 0.1701 0.3427
H37 H 0.5956 0.2068 0.4240
H38 H 0.4536 0.2242 0.4013
C35 C 0.5779(7) 0.0910(4) 0.4939(6)
H39 H 0.5472 0.0575 0.5318
H40 H 0.6532 0.1082 0.5276
H41 H 0.5955 0.0746 0.4321
loop_
_geom_bond_atom_site_label_1
_geom_bond_atom_site_label_2
_geom_bond_site_symmetry_1
_geom_bond_site_symmetry_2
S1 O1 1_555 1_555
O2 S1 1_555 1_555
O3 S1 1_555 1_555
F1 C1 1_555 1_555
F2 C1 1_555 1_555
F3 C1 1_555 1_555
C1 S1 1_555 1_555
N1 C2 1_555 1_555
N2 C2 1_555 1_555
O4 C3 1_555 1_555
C2 H1 1_555 1_555
C3 N2 1_555 1_555
C4 C3 1_555 1_555
H2 C4 1_555 1_555
C5 N1 1_555 1_555
C6 N2 1_555 1_555
C7 C6 1_555 1_555
C8 C7 1_555 1_555
H3 C8 1_555 1_555
C9 C8 1_555 1_555
H4 C9 1_555 1_555
C10 C9 1_555 1_555
H5 C10 1_555 1_555
C11 C6 1_555 1_555
C12 C7 1_555 1_555
H6 C12 1_555 1_555
C13 C12 1_555 1_555
H7 C13 1_555 1_555
H8 C13 1_555 1_555
H9 C13 1_555 1_555
C14 C12 1_555 1_555
H10 C14 1_555 1_555
H11 C14 1_555 1_555
H12 C14 1_555 1_555
C15 C11 1_555 1_555
H13 C15 1_555 1_555
C16 C15 1_555 1_555
H14 C16 1_555 1_555
H15 C16 1_555 1_555
H16 C16 1_555 1_555
C17 C15 1_555 1_555
H17 C17 1_555 1_555
H18 C17 1_555 1_555
H19 C17 1_555 1_555
C18 C5 1_555 1_555
C19 C18 1_555 1_555
H20 C19 1_555 1_555
C20 C19 1_555 1_555
H21 C20 1_555 1_555
C21 C20 1_555 1_555
H22 C21 1_555 1_555
C22 C21 1_555 1_555
H23 C22 1_555 1_555
C23 C18 1_555 1_555
H24 C23 1_555 1_555
C24 N1 1_555 1_555
C25 C24 1_555 1_555
C26 C25 1_555 1_555
H25 C26 1_555 1_555
C27 C26 1_555 1_555
H26 C27 1_555 1_555
C28 C27 1_555 1_555
H27 C28 1_555 1_555
C29 C24 1_555 1_555
C30 C25 1_555 1_555
H28 C30 1_555 1_555
C31 C30 1_555 1_555
H29 C31 1_555 1_555
H30 C31 1_555 1_555
H31 C31 1_555 1_555
C32 C30 1_555 1_555
H32 C32 1_555 1_555
H33 C32 1_555 1_555
H34 C32 1_555 1_555
C33 C29 1_555 1_555
H35 C33 1_555 1_555
C34 C33 1_555 1_555
H36 C34 1_555 1_555
H37 C34 1_555 1_555
H38 C34 1_555 1_555
C35 C33 1_555 1_555
H39 C35 1_555 1_555
H40 C35 1_555 1_555
H41 C35 1_555 1_555
C4 C5 1_555 1_555
C10 C11 1_555 1_555
C22 C23 1_555 1_555
C28 C29 1_555 1_555

#END
