
#######################################################################
#
#                 Cambridge Crystallographic Data Centre
#                                CCDC 
#
#######################################################################
#
# If this CIF has been generated from an entry in the Cambridge 
# Structural Database, then it will include bibliographic, chemical, 
# crystal, experimental, refinement or atomic coordinate data resulting 
# from the CCDC's data processing and validation procedures.
#
#######################################################################

data_KAVXEL
_chemical_formula_moiety         'C22 H20 N6'
_chemical_name_systematic        
12,13,14,15-tetrahydro-11H-9,6-azeno-18,21-epimino[1,6]diazacyclooctadecino[12,13-b]quinoxaline
_symmetry_cell_setting           orthorhombic
_symmetry_space_group_name_H-M   'P c a 21'
_symmetry_Int_Tables_number      29
_space_group_name_Hall           'P 2c -2ac'
loop_
_symmetry_equiv_pos_site_id
_symmetry_equiv_pos_as_xyz
1 x,y,z
2 -x,-y,1/2+z
3 1/2+x,-y,z
4 1/2-x,y,1/2+z
_cell_length_a                   25.4999(12)
_cell_length_b                   4.9181(2)
_cell_length_c                   28.3899(13)
_cell_angle_alpha                90
_cell_angle_beta                 90
_cell_angle_gamma                90
_cell_volume                     3560.41
_exptl_crystal_colour            orange
_exptl_crystal_description       rod
_cell_formula_units_Z            8
_exptl_crystal_recrystallization_method dichloromethane/methanol
loop_
_atom_site_label
_atom_site_type_symbol
_atom_site_fract_x
_atom_site_fract_y
_atom_site_fract_z
C1 C 0.12669(14) 1.2393(8) 0.08405(14)
H1 H 0.1243 1.1954 0.0523
C2 C 0.09557(15) 1.4412(8) 0.10251(15)
H2 H 0.0722 1.5346 0.0832
C3 C 0.09907(16) 1.5061(9) 0.15058(16)
H3 H 0.0778 1.6427 0.1628
C4 C 0.13282(16) 1.3737(8) 0.17957(14)
H4 H 0.1346 1.4207 0.2113
C5 C 0.16526(14) 1.1645(8) 0.16175(13)
C6 C 0.16232(13) 1.0984(7) 0.11338(13)
C7 C 0.23003(14) 0.8404(8) 0.17286(12)
C8 C 0.26461(15) 0.7231(8) 0.20939(13)
C9 C 0.26692(17) 0.8114(9) 0.25623(14)
H5 H 0.2466 0.9470 0.2699
C10 C 0.30512(18) 0.6586(10) 0.27810(14)
H6 H 0.3153 0.6720 0.3095
C11 C 0.32575(16) 0.4806(9) 0.24484(13)
C12 C 0.36800(17) 0.2970(9) 0.25057(17)
H7 H 0.3835 0.2860 0.2802
C13 C 0.4322(2) -0.0319(12) 0.2271(2)
H8 H 0.4208 -0.2192 0.2301
H9 H 0.4486 0.0216 0.2565
C14 C 0.4709(2) -0.0093(13) 0.1879(2)
H10 H 0.5052 -0.0515 0.2007
H11 H 0.4718 0.1796 0.1781
C15 C 0.46351(18) -0.1817(13) 0.1440(2)
H12 H 0.4807 -0.0884 0.1181
H13 H 0.4822 -0.3510 0.1488
C16 C 0.40921(18) -0.2523(10) 0.1280(2)
H14 H 0.4115 -0.3419 0.0976
H15 H 0.3943 -0.3812 0.1501
C17 C 0.34985(15) 0.0301(8) 0.08509(16)
H16 H 0.3578 -0.0790 0.0593
C18 C 0.31232(13) 0.2386(8) 0.07820(13)
C19 C 0.28766(15) 0.3125(9) 0.03642(14)
H17 H 0.2929 0.2352 0.0069
C20 C 0.25366(15) 0.5239(8) 0.04732(13)
H18 H 0.2322 0.6175 0.0264
C21 C 0.25780(13) 0.5696(7) 0.09630(13)
C22 C 0.22731(13) 0.7719(7) 0.12275(12)
N1 N 0.19902(12) 1.0303(7) 0.19034(11)
N2 N 0.30034(13) 0.5229(7) 0.20309(12)
N3 N 0.38658(15) 0.1441(8) 0.21775(14)
N4 N 0.37381(13) -0.0214(7) 0.12385(14)
N5 N 0.29381(11) 0.3956(7) 0.11441(11)
N6 N 0.19353(11) 0.9033(6) 0.09500(11)
H37 H 0.304(2) 0.444(12) 0.1737(12)
H40 H 0.374(2) 0.14(2) 0.1509(11)
C23 C 0.37296(17) 0.9312(9) 0.38539(16)
H19 H 0.3749 0.9877 0.3542
C24 C 0.33873(17) 1.0508(9) 0.41518(18)
H20 H 0.3173 1.1908 0.4044
C25 C 0.33513(17) 0.9648(9) 0.46272(18)
H21 H 0.3111 1.0471 0.4828
C26 C 0.36637(15) 0.7639(8) 0.47911(15)
H22 H 0.3636 0.7090 0.5104
C27 C 0.40326(14) 0.6366(7) 0.44915(13)
C28 C 0.40599(14) 0.7188(8) 0.40182(14)
C29 C 0.47001(13) 0.3255(7) 0.43725(12)
C30 C 0.50167(14) 0.1204(7) 0.46175(13)
C31 C 0.49700(16) 0.0563(8) 0.51017(14)
H23 H 0.4746 0.1380 0.5318
C32 C 0.53190(16) -0.1494(9) 0.51910(15)
H24 H 0.5373 -0.2344 0.5480
C33 C 0.55783(15) -0.2079(8) 0.47713(14)
C34 C 0.59636(17) -0.4075(9) 0.46847(18)
H25 H 0.6048 -0.5236 0.4932
C35 C 0.6570(2) -0.6661(11) 0.4230(3)
H26 H 0.6427 -0.7907 0.3998
H27 H 0.6603 -0.7640 0.4525
C36 C 0.71168(19) -0.5749(14) 0.4068(2)
H28 H 0.7315 -0.7361 0.3984
H29 H 0.7292 -0.4915 0.4334
C37 C 0.7148(2) -0.3623(14) 0.3624(3)
H30 H 0.7101 -0.1797 0.3746
H31 H 0.7498 -0.3721 0.3491
C38 C 0.6783(2) -0.4016(13) 0.3254(2)
H32 H 0.6695 -0.5929 0.3229
H33 H 0.6936 -0.3442 0.2958
C39 C 0.6127(2) -0.0756(11) 0.3048(2)
H34 H 0.6291 -0.0676 0.2756
C40 C 0.57020(18) 0.0971(10) 0.31210(15)
C41 C 0.5498(2) 0.2896(11) 0.28195(15)
H35 H 0.5607 0.3205 0.2511
C42 C 0.51118(18) 0.4268(11) 0.30495(15)
H36 H 0.4907 0.5669 0.2930
C43 C 0.50843(15) 0.3135(8) 0.35089(14)
C44 C 0.47262(14) 0.4079(8) 0.38788(13)
N7 N 0.43533(11) 0.4403(6) 0.46569(11)
N8 N 0.53859(12) -0.0416(7) 0.44291(12)
N9 N 0.62071(14) -0.4427(8) 0.42941(17)
N10 N 0.63116(18) -0.2442(10) 0.3348(2)
N11 N 0.54422(13) 0.1129(7) 0.35492(12)
N12 N 0.44039(13) 0.5991(7) 0.37175(11)
H38 H 0.549(2) -0.050(12) 0.4116(9)
H39 H 0.611(4) -0.26(2) 0.361(3)
loop_
_geom_bond_atom_site_label_1
_geom_bond_atom_site_label_2
_geom_bond_site_symmetry_1
_geom_bond_site_symmetry_2
C1 H1 1_555 1_555
C2 C1 1_555 1_555
H2 C2 1_555 1_555
C3 C2 1_555 1_555
H3 C3 1_555 1_555
C4 C3 1_555 1_555
H4 C4 1_555 1_555
C5 C4 1_555 1_555
C6 C1 1_555 1_555
C7 C8 1_555 1_555
C8 C9 1_555 1_555
C9 H5 1_555 1_555
C10 C9 1_555 1_555
H6 C10 1_555 1_555
C11 C10 1_555 1_555
C12 C11 1_555 1_555
H7 C12 1_555 1_555
C13 H8 1_555 1_555
H9 C13 1_555 1_555
C14 C13 1_555 1_555
H10 C14 1_555 1_555
H11 C14 1_555 1_555
C15 C14 1_555 1_555
H12 C15 1_555 1_555
H13 C15 1_555 1_555
C16 C15 1_555 1_555
H14 C16 1_555 1_555
H15 C16 1_555 1_555
C17 H16 1_555 1_555
C18 C17 1_555 1_555
C19 C18 1_555 1_555
H17 C19 1_555 1_555
C20 C19 1_555 1_555
H18 C20 1_555 1_555
C21 C20 1_555 1_555
C22 C7 1_555 1_555
C23 H19 1_555 1_555
C24 C23 1_555 1_555
H20 C24 1_555 1_555
C25 C24 1_555 1_555
H21 C25 1_555 1_555
C26 C25 1_555 1_555
H22 C26 1_555 1_555
C27 C26 1_555 1_555
C28 C23 1_555 1_555
C29 C30 1_555 1_555
C30 C31 1_555 1_555
C31 H23 1_555 1_555
C32 C31 1_555 1_555
H24 C32 1_555 1_555
C33 C32 1_555 1_555
C34 C33 1_555 1_555
H25 C34 1_555 1_555
C35 H26 1_555 1_555
H27 C35 1_555 1_555
C36 C35 1_555 1_555
H28 C36 1_555 1_555
H29 C36 1_555 1_555
C37 C36 1_555 1_555
H30 C37 1_555 1_555
H31 C37 1_555 1_555
C38 C37 1_555 1_555
H32 C38 1_555 1_555
H33 C38 1_555 1_555
C39 H34 1_555 1_555
C40 C39 1_555 1_555
C41 C40 1_555 1_555
H35 C41 1_555 1_555
C42 C41 1_555 1_555
H36 C42 1_555 1_555
C43 C42 1_555 1_555
C44 C29 1_555 1_555
N1 C5 1_555 1_555
N2 C8 1_555 1_555
N3 C12 1_555 1_555
N4 C16 1_555 1_555
N5 C18 1_555 1_555
N6 C6 1_555 1_555
N7 C27 1_555 1_555
N8 C30 1_555 1_555
N9 C34 1_555 1_555
N10 C38 1_555 1_555
N11 C40 1_555 1_555
N12 C28 1_555 1_555
H37 N2 1_555 1_555
H38 N8 1_555 1_555
H39 N10 1_555 1_555
H40 N4 1_555 1_555
C5 C6 1_555 1_555
C7 N1 1_555 1_555
C11 N2 1_555 1_555
C13 N3 1_555 1_555
C17 N4 1_555 1_555
C21 C22 1_555 1_555
C21 N5 1_555 1_555
C22 N6 1_555 1_555
C27 C28 1_555 1_555
C29 N7 1_555 1_555
C33 N8 1_555 1_555
C35 N9 1_555 1_555
C39 N10 1_555 1_555
C43 C44 1_555 1_555
C43 N11 1_555 1_555
C44 N12 1_555 1_555

#END
