
#######################################################################
#
#                 Cambridge Crystallographic Data Centre
#                                CCDC 
#
#######################################################################
#
# If this CIF has been generated from an entry in the Cambridge 
# Structural Database, then it will include bibliographic, chemical, 
# crystal, experimental, refinement or atomic coordinate data resulting 
# from the CCDC's data processing and validation procedures.
#
#######################################################################

data_KAVXIP
_chemical_formula_moiety         'C21 H18 N6'
_chemical_name_systematic        
11,12,13,14-tetrahydro-9,6-azeno-17,20-epimino[1,5]diazacycloheptadecino[11,12-b]quinoxaline
_symmetry_cell_setting           monoclinic
_symmetry_space_group_name_H-M   'P 21/c'
_symmetry_Int_Tables_number      14
_space_group_name_Hall           '-P 2ybc'
loop_
_symmetry_equiv_pos_site_id
_symmetry_equiv_pos_as_xyz
1 x,y,z
2 -x,1/2+y,1/2-z
3 -x,-y,-z
4 x,1/2-y,1/2+z
_cell_length_a                   9.2969(8)
_cell_length_b                   11.0235(10)
_cell_length_c                   16.9434(15)
_cell_angle_alpha                90
_cell_angle_beta                 90.496(2)
_cell_angle_gamma                90
_cell_volume                     1736.37
_exptl_crystal_colour            yellow
_exptl_crystal_description       prism
_cell_formula_units_Z            4
_exptl_crystal_recrystallization_method dichloromethane/methanol
loop_
_atom_site_label
_atom_site_type_symbol
_atom_site_fract_x
_atom_site_fract_y
_atom_site_fract_z
N1 N 0.7701(2) 0.10111(18) 0.03941(11)
N2 N 0.9597(2) 0.03111(18) 0.21948(11)
N3 N 1.0932(3) -0.0129(3) 0.36667(15)
N4 N 1.3409(3) 0.0702(2) 0.30772(14)
N5 N 1.1998(2) 0.11942(18) 0.16234(12)
N6 N 1.0250(2) 0.18955(18) -0.02275(12)
C1 C 0.7728(3) 0.1459(2) -0.03498(14)
C2 C 0.9023(3) 0.1896(2) -0.06705(14)
C3 C 0.9032(3) 0.2330(2) -0.14525(15)
H1 H 0.9880 0.2619 -0.1671
C4 C 0.7792(3) 0.2324(3) -0.18856(16)
H2 H 0.7800 0.2607 -0.2403
C5 C 0.6502(3) 0.1896(3) -0.15632(17)
H3 H 0.5665 0.1903 -0.1868
C6 C 0.6461(3) 0.1473(2) -0.08128(15)
H4 H 0.5601 0.1192 -0.0604
C7 C 0.8908(2) 0.0952(2) 0.08203(13)
C8 C 1.0242(2) 0.1436(2) 0.04985(13)
C9 C 0.8678(2) 0.0330(2) 0.15764(13)
C10 C 0.7443(3) -0.0353(2) 0.17610(15)
H5 H 0.6644 -0.0480 0.1437
C11 C 0.7648(3) -0.0792(3) 0.25091(16)
H6 H 0.7009 -0.1275 0.2788
C12 C 0.8983(2) -0.0385(2) 0.27772(14)
C13 C 0.9691(3) -0.0590(3) 0.34993(16)
H7 H 0.9247 -0.1079 0.3873
C14 C 1.1730(3) -0.0339(4) 0.43973(18)
H8 H 1.1316 -0.1023 0.4674
H9 H 1.1654 0.0369 0.4734
C15 C 1.3266(4) -0.0587(4) 0.4236(2)
H10 H 1.3315 -0.1322 0.3923
H11 H 1.3740 -0.0756 0.4736
C16 C 1.4106(3) 0.0363(3) 0.38265(18)
H12 H 1.4188 0.1072 0.4163
H13 H 1.5068 0.0064 0.3725
C17 C 1.4125(3) 0.0998(3) 0.24611(18)
H14 H 1.5123 0.1020 0.2495
C18 C 1.3452(2) 0.1294(2) 0.17294(16)
C19 C 1.4058(3) 0.1670(3) 0.10223(16)
H15 H 1.5028 0.1812 0.0932
C20 C 1.2958(3) 0.1792(2) 0.04818(16)
H16 H 1.3042 0.2036 -0.0041
C21 C 1.1679(2) 0.1479(2) 0.08716(14)
H17 H 1.147(6) 0.030(6) 0.329(3)
H18 H 1.131(3) 0.089(3) 0.2018(16)
loop_
_geom_bond_atom_site_label_1
_geom_bond_atom_site_label_2
_geom_bond_site_symmetry_1
_geom_bond_site_symmetry_2
N1 C1 1_555 1_555
N2 C9 1_555 1_555
N3 C13 1_555 1_555
N4 C16 1_555 1_555
N5 C18 1_555 1_555
N6 C2 1_555 1_555
C1 C2 1_555 1_555
C2 C3 1_555 1_555
C3 H1 1_555 1_555
C4 C3 1_555 1_555
H2 C4 1_555 1_555
C5 C4 1_555 1_555
H3 C5 1_555 1_555
C6 C1 1_555 1_555
H4 C6 1_555 1_555
C7 N1 1_555 1_555
C8 N6 1_555 1_555
C9 C7 1_555 1_555
C10 C9 1_555 1_555
H5 C10 1_555 1_555
C11 C10 1_555 1_555
H6 C11 1_555 1_555
C12 N2 1_555 1_555
C13 C12 1_555 1_555
H7 C13 1_555 1_555
C14 N3 1_555 1_555
H8 C14 1_555 1_555
H9 C14 1_555 1_555
C15 C14 1_555 1_555
H10 C15 1_555 1_555
H11 C15 1_555 1_555
C16 C15 1_555 1_555
H12 C16 1_555 1_555
H13 C16 1_555 1_555
C17 N4 1_555 1_555
H14 C17 1_555 1_555
C18 C17 1_555 1_555
C19 C18 1_555 1_555
H15 C19 1_555 1_555
C20 C19 1_555 1_555
H16 C20 1_555 1_555
C21 N5 1_555 1_555
H17 N3 1_555 1_555
H18 N5 1_555 1_555
C5 C6 1_555 1_555
C7 C8 1_555 1_555
C8 C21 1_555 1_555
C11 C12 1_555 1_555
C20 C21 1_555 1_555

#END
