
#######################################################################
#
#                 Cambridge Crystallographic Data Centre
#                                CCDC 
#
#######################################################################
#
# If this CIF has been generated from an entry in the Cambridge 
# Structural Database, then it will include bibliographic, chemical, 
# crystal, experimental, refinement or atomic coordinate data resulting 
# from the CCDC's data processing and validation procedures.
#
#######################################################################

data_KAXJUP
_chemical_formula_moiety         
'C44 H48 N24 O12,2(Na1 1+),2(N1 O3 1-),C3 H6 O1,17(H2 O1)'
_chemical_name_systematic        
'bis(Butano)cucurbituril di-sodium dinitrate acetone solvate heptadecahydrate'
_symmetry_cell_setting           triclinic
_symmetry_space_group_name_H-M   'P -1'
_symmetry_Int_Tables_number      2
_space_group_name_Hall           '-P 1'
loop_
_symmetry_equiv_pos_site_id
_symmetry_equiv_pos_as_xyz
1 x,y,z
2 -x,-y,-z
_cell_length_a                   11.9763(9)
_cell_length_b                   12.7391(6)
_cell_length_c                   13.3733(18)
_cell_angle_alpha                63.993(2)
_cell_angle_beta                 70.175(2)
_cell_angle_gamma                89.509(2)
_cell_volume                     1701.18
_cell_formula_units_Z            1
loop_
_atom_site_label
_atom_site_type_symbol
_atom_site_fract_x
_atom_site_fract_y
_atom_site_fract_z
C1 C 0.7217(3) 0.0757(3) 0.2569(3)
C2 C 0.9600(3) 0.3560(3) 0.0161(3)
C3 C 1.2751(4) 0.2738(4) -0.1147(4)
C4 C 0.8067(3) -0.2611(3) 0.3649(3)
C5 C 0.8721(3) 0.3315(3) -0.2275(3)
C6 C 0.6316(3) 0.0562(3) 0.0166(3)
C7 C 0.5685(3) 0.0015(3) 0.2224(3)
C8 C 0.5944(3) 0.1433(3) 0.1475(3)
C9 C 0.8335(3) 0.4045(3) -0.0916(3)
H1 H 0.7863 0.4684 -0.0957
C10 C 0.9655(4) 0.4554(3) -0.1798(3)
H2 H 0.9808 0.5418 -0.2270
C11 C 1.2651(3) 0.3819(3) -0.3041(3)
H3 H 1.3099 0.4624 -0.3591
C12 C 1.3477(3) 0.2887(3) -0.3066(3)
H4 H 1.4296 0.3254 -0.3653
C13 C 0.6522(3) -0.1342(3) 0.3785(3)
H5 H 0.5694 -0.1714 0.4301
H6 H 0.6902 -0.1218 0.4268
C14 C 0.7431(3) 0.2945(3) 0.1381(3)
H7 H 0.6810 0.3433 0.1293
H8 H 0.7661 0.2957 0.2006
C15 C 1.1540(4) 0.4253(4) -0.1250(4)
H9 H 1.1819 0.5045 -0.1918
H10 H 1.1757 0.4240 -0.0609
C16 C 1.0788(3) 0.4265(3) -0.3499(3)
H11 H 1.1115 0.5100 -0.3877
H12 H 1.0514 0.4136 -0.4046
C17 C 0.6629(3) 0.2760(4) -0.0806(3)
H13 H 0.6466 0.2656 -0.1422
H14 H 0.6123 0.3300 -0.0622
C18 C 1.4294(4) 0.1536(4) -0.1493(4)
H15 H 1.5090 0.1889 -0.2111
H16 H 1.4314 0.1505 -0.0761
C19 C 0.4842(3) 0.1998(3) 0.1845(3)
H17 H 0.5080 0.2850 0.1461
H18 H 0.4244 0.1831 0.1571
C20 C 0.4292(3) 0.1530(3) 0.3195(3)
H19 H 0.4859 0.1777 0.3455
H20 H 0.3574 0.1871 0.3397
C21 C 0.3971(3) 0.0202(3) 0.3850(3)
H21 H 0.3103 -0.0010 0.4251
H22 H 0.4313 -0.0098 0.4465
C22 C 0.4395(3) -0.0425(4) 0.3065(4)
H23 H 0.3904 -0.0261 0.2584
H24 H 0.4264 -0.1275 0.3564
N1 N 0.6516(3) -0.0214(3) 0.2868(3)
N2 N 0.6945(3) 0.1733(3) 0.1744(3)
N3 N 0.8461(3) 0.3442(3) 0.0269(3)
N4 N 1.0309(3) 0.4133(3) -0.1014(3)
N5 N 1.2248(3) 0.3602(3) -0.1805(3)
N6 N 1.3449(3) 0.2268(3) -0.1843(3)
N7 N 0.7123(3) -0.2159(2) 0.3388(3)
N8 N 1.1754(3) 0.3546(3) -0.3427(3)
N9 N 0.9795(3) 0.3937(3) -0.2536(2)
N10 N 0.7874(3) 0.3287(3) -0.1271(3)
N11 N 0.6305(3) 0.1617(3) 0.0270(3)
N12 N 0.5995(3) -0.0339(2) 0.1295(3)
O1 O 0.7985(2) 0.0795(2) 0.2957(2)
O2 O 0.9943(2) 0.3200(2) 0.1018(2)
O3 O 1.2428(3) 0.2378(2) -0.0031(2)
O4 O 0.8638(3) -0.2233(3) 0.4068(3)
O5 O 0.8566(2) 0.2852(3) -0.2852(2)
O6 O 0.6500(2) 0.0509(2) -0.0746(2)
C1A C 1.2783(3) -0.0757(3) -0.2569(3)
C2A C 1.0400(3) -0.3560(3) -0.0161(3)
C3A C 0.7249(4) -0.2738(4) 0.1147(4)
C4A C 1.1933(3) 0.2611(3) -0.3649(3)
C5A C 1.1279(3) -0.3315(3) 0.2275(3)
C6A C 1.3684(3) -0.0562(3) -0.0166(3)
C7A C 1.4315(3) -0.0015(3) -0.2224(3)
C8A C 1.4056(3) -0.1433(3) -0.1475(3)
C9A C 1.1665(3) -0.4045(3) 0.0916(3)
H1A H 1.2137 -0.4684 0.0957
C10A C 1.0345(4) -0.4554(3) 0.1798(3)
H2A H 1.0192 -0.5418 0.2270
C11A C 0.7349(3) -0.3819(3) 0.3041(3)
H3A H 0.6901 -0.4624 0.3591
C12A C 0.6523(3) -0.2887(3) 0.3066(3)
H4A H 0.5704 -0.3254 0.3653
C13A C 1.3478(3) 0.1342(3) -0.3785(3)
H5A H 1.4306 0.1714 -0.4301
H6A H 1.3098 0.1218 -0.4268
C14A C 1.2569(3) -0.2945(3) -0.1381(3)
H7A H 1.3190 -0.3433 -0.1293
H8A H 1.2339 -0.2957 -0.2006
C15A C 0.8460(4) -0.4253(4) 0.1250(4)
H9A H 0.8181 -0.5045 0.1918
H10A H 0.8243 -0.4240 0.0609
C16A C 0.9212(3) -0.4265(3) 0.3499(3)
H11A H 0.8885 -0.5100 0.3877
H12A H 0.9486 -0.4136 0.4046
C17A C 1.3371(3) -0.2760(4) 0.0806(3)
H13A H 1.3534 -0.2656 0.1422
H14A H 1.3877 -0.3300 0.0622
C18A C 0.5706(4) -0.1536(4) 0.1493(4)
H15A H 0.4910 -0.1889 0.2111
H16A H 0.5686 -0.1505 0.0761
C19A C 1.5158(3) -0.1998(3) -0.1845(3)
H17A H 1.4920 -0.2850 -0.1461
H18A H 1.5756 -0.1831 -0.1571
C20A C 1.5708(3) -0.1530(3) -0.3195(3)
H19A H 1.5141 -0.1777 -0.3455
H20A H 1.6426 -0.1871 -0.3397
C21A C 1.6029(3) -0.0202(3) -0.3850(3)
H21A H 1.6897 0.0010 -0.4251
H22A H 1.5687 0.0098 -0.4465
C22A C 1.5605(3) 0.0425(4) -0.3065(4)
H23A H 1.6096 0.0261 -0.2584
H24A H 1.5736 0.1275 -0.3564
N1A N 1.3484(3) 0.0214(3) -0.2868(3)
N2A N 1.3055(3) -0.1733(3) -0.1744(3)
N3A N 1.1539(3) -0.3442(3) -0.0269(3)
N4A N 0.9691(3) -0.4133(3) 0.1014(3)
N5A N 0.7752(3) -0.3602(3) 0.1805(3)
N6A N 0.6551(3) -0.2268(3) 0.1843(3)
N7A N 1.2877(3) 0.2159(2) -0.3388(3)
N8A N 0.8246(3) -0.3546(3) 0.3427(3)
N9A N 1.0205(3) -0.3937(3) 0.2536(2)
N10A N 1.2126(3) -0.3287(3) 0.1271(3)
N11A N 1.3695(3) -0.1617(3) -0.0270(3)
N12A N 1.4005(3) 0.0339(2) -0.1295(3)
O1A O 1.2015(2) -0.0795(2) -0.2957(2)
O2A O 1.0057(2) -0.3200(2) -0.1018(2)
O3A O 0.7572(3) -0.2378(2) 0.0031(2)
O4A O 1.1362(3) 0.2233(3) -0.4068(3)
O5A O 1.1434(2) -0.2852(3) 0.2852(2)
O6A O 1.3500(2) -0.0509(2) 0.0746(2)
N13 N 0.5249(3) 0.5351(3) 0.6779(3)
O12 O 0.5701(3) 0.4656(3) 0.7473(3)
O13 O 0.5537(3) 0.5514(3) 0.5821(3)
O14 O 0.4396(3) 0.5715(3) 0.7254(3)
O8 O 1.1451(3) -0.0336(3) 0.2510(3)
H28 H 1.1497 -0.0520 0.1960
H29 H 1.2156 -0.0135 0.2448
O9 O 1.2044(3) 0.2825(3) 0.1967(3)
H30 H 1.1882 0.2926 0.2586
H31 H 1.2105 0.3482 0.1367
O10 O 0.9238(3) 0.2295(3) 0.3697(2)
H32 H 0.8497 0.2359 0.3900
H33 H 0.9737 0.2526 0.3914
O11 O 0.9436(3) -0.0416(3) 0.4304(3)
H34 H 0.8672 -0.0510 0.4553
H35 H 0.9690 -0.1044 0.4313
O15 O 0.6930(3) 0.3483(3) 0.5899(3)
H36 H 0.7562 0.3892 0.5781
H37 H 0.6355 0.3877 0.5937
O16 O 0.3178(3) 0.7130(3) 0.5766(3)
H38 H 0.2980 0.6460 0.6386
H39 H 0.3453 0.7032 0.5143
O17 O 0.1231(3) 0.3500(3) 0.3981(3)
H40 H 0.0901 0.3813 0.4429
H41 H 0.1626 0.2988 0.4305
O18 O 0.3956(3) 0.4612(3) 0.9859(3)
H42 H 0.4089 0.3946 1.0309
H43 H 0.3777 0.4557 0.9318
O19 O 0.9977(2) 0.0812(2) 0.0735(2)
H44 H 1.0632 0.0888 0.0196
H45 H 0.9590 0.0118 0.1087
Na1 Na 1.03591(12) 0.13476(11) 0.22949(11)
C23? C 0.9938(7) 0.0243(8) 0.0184(7)
C24? C 0.9595(4) 0.0773(4) -0.0672(4)
H25? H 0.9608 0.0289 -0.1058
H26? H 0.8790 0.0916 -0.0372
H27? H 1.0121 0.1514 -0.1239
O7? O 0.9977(2) 0.0812(2) 0.0735(2)
loop_
_geom_bond_atom_site_label_1
_geom_bond_atom_site_label_2
_geom_bond_site_symmetry_1
_geom_bond_site_symmetry_2
C1 N1 1_555 1_555
C2 N3 1_555 1_555
C3 N5 1_555 1_555
C4 N7 1_555 1_555
C5 N9 1_555 1_555
C6 N11 1_555 1_555
C7 C8 1_555 1_555
C8 C19 1_555 1_555
C9 H1 1_555 1_555
C10 C9 1_555 1_555
H2 C10 1_555 1_555
C11 H3 1_555 1_555
C12 C11 1_555 1_555
H4 C12 1_555 1_555
C13 H5 1_555 1_555
H6 C13 1_555 1_555
C14 H7 1_555 1_555
H8 C14 1_555 1_555
C15 H9 1_555 1_555
H10 C15 1_555 1_555
C16 H11 1_555 1_555
H12 C16 1_555 1_555
C17 H13 1_555 1_555
H14 C17 1_555 1_555
C18 H15 1_555 1_555
H16 C18 1_555 1_555
C19 H17 1_555 1_555
H18 C19 1_555 1_555
C20 C19 1_555 1_555
H19 C20 1_555 1_555
H20 C20 1_555 1_555
C21 C20 1_555 1_555
H21 C21 1_555 1_555
H22 C21 1_555 1_555
C22 C7 1_555 1_555
H23 C22 1_555 1_555
H24 C22 1_555 1_555
N1 C7 1_555 1_555
N2 C1 1_555 1_555
N3 C9 1_555 1_555
N4 C2 1_555 1_555
N5 C11 1_555 1_555
N6 C3 1_555 1_555
N7 C13 1_555 1_555
N8 C11 1_555 1_555
N9 C10 1_555 1_555
N10 C5 1_555 1_555
N11 C8 1_555 1_555
N12 C6 1_555 1_555
N13 O12 1_555 1_555
O1 C1 1_555 1_555
O2 C2 1_555 1_555
O3 C3 1_555 1_555
O4 C4 1_555 1_555
O5 C5 1_555 1_555
O6 C6 1_555 1_555
O8 H28 1_555 1_555
H29 O8 1_555 1_555
O9 H30 1_555 1_555
H31 O9 1_555 1_555
O10 H32 1_555 1_555
H33 O10 1_555 1_555
O11 H34 1_555 1_555
H35 O11 1_555 1_555
O13 N13 1_555 1_555
O14 N13 1_555 1_555
O15 H36 1_555 1_555
H37 O15 1_555 1_555
O16 H38 1_555 1_555
H39 O16 1_555 1_555
O17 H40 1_555 1_555
H41 O17 1_555 1_555
O18 H42 1_555 1_555
H43 O18 1_555 1_555
O19 H44 1_555 1_555
H45 O19 1_555 1_555
C1A N1A 1_555 1_555
C2A N3A 1_555 1_555
C3A N5A 1_555 1_555
C4A N8 1_555 1_555
C5A N9A 1_555 1_555
C6A N11A 1_555 1_555
C7A C8A 1_555 1_555
C8A C19A 1_555 1_555
C9A H1A 1_555 1_555
C10A C9A 1_555 1_555
H2A C10A 1_555 1_555
C11A H3A 1_555 1_555
C12A N7 1_555 1_555
H4A C12A 1_555 1_555
C13A H5A 1_555 1_555
H6A C13A 1_555 1_555
C14A H7A 1_555 1_555
H8A C14A 1_555 1_555
C15A H9A 1_555 1_555
H10A C15A 1_555 1_555
C16A H11A 1_555 1_555
H12A C16A 1_555 1_555
C17A H13A 1_555 1_555
H14A C17A 1_555 1_555
C18A N12 1_555 1_555
H15A C18A 1_555 1_555
H16A C18A 1_555 1_555
C19A H17A 1_555 1_555
H18A C19A 1_555 1_555
C20A C19A 1_555 1_555
H19A C20A 1_555 1_555
H20A C20A 1_555 1_555
C21A C20A 1_555 1_555
H21A C21A 1_555 1_555
H22A C21A 1_555 1_555
C22A C7A 1_555 1_555
H23A C22A 1_555 1_555
H24A C22A 1_555 1_555
N1A C7A 1_555 1_555
N2A C1A 1_555 1_555
N3A C9A 1_555 1_555
N4A C2A 1_555 1_555
N5A C11A 1_555 1_555
N6A C3A 1_555 1_555
N7A C12 1_555 1_555
N8A C4 1_555 1_555
N9A C10A 1_555 1_555
N10A C5A 1_555 1_555
N11A C8A 1_555 1_555
N12A C18 1_555 1_555
O1A C1A 1_555 1_555
O2A C2A 1_555 1_555
O3A C3A 1_555 1_555
O4A C4A 1_555 1_555
O5A C5A 1_555 1_555
O6A C6A 1_555 1_555
C7 N12 1_555 1_555
C8 N2 1_555 1_555
C9 N10 1_555 1_555
C10 N4 1_555 1_555
C12 N6 1_555 1_555
C13 N1 1_555 1_555
C14 N2 1_555 1_555
C14 N3 1_555 1_555
C15 N4 1_555 1_555
C15 N5 1_555 1_555
C16 N8 1_555 1_555
C16 N9 1_555 1_555
C17 N10 1_555 1_555
C17 N11 1_555 1_555
C18 N6 1_555 1_555
C21 C22 1_555 1_555
C4A N7A 1_555 1_555
C6A N12A 1_555 1_555
C7A N12A 1_555 1_555
C8A N2A 1_555 1_555
C9A N10A 1_555 1_555
C10A N4A 1_555 1_555
C11A C12A 1_555 1_555
C11A N8A 1_555 1_555
C12A N6A 1_555 1_555
C13A N1A 1_555 1_555
C13A N7A 1_555 1_555
C14A N2A 1_555 1_555
C14A N3A 1_555 1_555
C15A N4A 1_555 1_555
C15A N5A 1_555 1_555
C16A N8A 1_555 1_555
C16A N9A 1_555 1_555
C17A N10A 1_555 1_555
C17A N11A 1_555 1_555
C18A N6A 1_555 1_555
C21A C22A 1_555 1_555

#END
