
#######################################################################
#
#                 Cambridge Crystallographic Data Centre
#                                CCDC 
#
#######################################################################
#
# If this CIF has been generated from an entry in the Cambridge 
# Structural Database, then it will include bibliographic, chemical, 
# crystal, experimental, refinement or atomic coordinate data resulting 
# from the CCDC's data processing and validation procedures.
#
#######################################################################

data_KAXMIG
_chemical_formula_moiety         'C30 H54 N4 O10 S2'
_chemical_name_systematic        
"N,N'-bis(t-Butoxycarbonyl-leucyl)cystine dimethyl diester"
_symmetry_cell_setting           monoclinic
_symmetry_space_group_name_H-M   'C 2'
_symmetry_Int_Tables_number      5
_space_group_name_Hall           'C 2y'
loop_
_symmetry_equiv_pos_site_id
_symmetry_equiv_pos_as_xyz
1 x,y,z
2 -x,y,-z
3 1/2+x,1/2+y,z
4 1/2-x,1/2+y,-z
_cell_length_a                   25.41(3)
_cell_length_b                   5.071(7)
_cell_length_c                   15.318(17)
_cell_angle_alpha                90
_cell_angle_beta                 106.77(1)
_cell_angle_gamma                90
_cell_volume                     1889.84
_exptl_crystal_colour            white
_exptl_crystal_description       needle
_cell_formula_units_Z            2
loop_
_atom_site_label
_atom_site_type_symbol
_atom_site_fract_x
_atom_site_fract_y
_atom_site_fract_z
S1 S 0.46585(6) 0.5733(4) 0.44509(12)
C1 C 0.4211(2) 0.3213(13) 0.4718(4)
H1 H 0.3971 0.2517 0.4154
H2 H 0.4436 0.1772 0.5040
C2 C 0.3859(2) 0.4291(11) 0.5307(4)
H3 H 0.3667 0.5862 0.5001
C3 C 0.3423(2) 0.2253(13) 0.5340(5)
O1 O 0.32823(19) 0.0448(12) 0.4825(4)
O2 O 0.31878(16) 0.2840(10) 0.6001(4)
C4 C 0.2769(3) 0.104(2) 0.6099(6)
H4 H 0.2930 -0.0658 0.6287
H5 H 0.2490 0.0868 0.5526
H6 H 0.2608 0.1701 0.6550
N1 N 0.41872(16) 0.5085(9) 0.6218(3)
H7 H 0.4233 0.6735 0.6348
C5 C 0.44197(19) 0.3270(13) 0.6859(4)
O3 O 0.43625(15) 0.0881(8) 0.6731(3)
C6 C 0.4758(2) 0.4454(11) 0.7777(4)
H8 H 0.4706 0.6371 0.7755
C7 C 0.4581(3) 0.3338(15) 0.8590(5)
H9 H 0.4674 0.1479 0.8650
H10 H 0.4796 0.4207 0.9141
C8 C 0.3972(3) 0.3624(18) 0.8536(6)
H11 H 0.3772 0.2345 0.8081
C9 C 0.3884(4) 0.278(2) 0.9452(7)
H12 H 0.3998 0.4182 0.9887
H13 H 0.4098 0.1232 0.9674
H14 H 0.3502 0.2405 0.9365
C10 C 0.3720(4) 0.622(2) 0.8241(9)
H15 H 0.3719 0.6552 0.7623
H16 H 0.3928 0.7574 0.8630
H17 H 0.3349 0.6238 0.8277
N2 N 0.53401(17) 0.3883(9) 0.7903(4)
H18 H 0.5446 0.2273 0.7899
C11 C 0.5713(2) 0.5840(13) 0.8025(4)
O4 O 0.56121(16) 0.8155(8) 0.8059(4)
O5 O 0.62203(15) 0.4845(7) 0.8089(4)
C12 C 0.6694(2) 0.6667(12) 0.8209(5)
C13 C 0.6604(3) 0.8410(16) 0.7386(6)
H19 H 0.6944 0.9249 0.7392
H20 H 0.6335 0.9729 0.7396
H21 H 0.6476 0.7364 0.6843
C14 C 0.6791(3) 0.8225(17) 0.9080(5)
H22 H 0.6778 0.7062 0.9567
H23 H 0.6512 0.9552 0.9004
H24 H 0.7146 0.9052 0.9223
C15 C 0.7173(3) 0.4799(17) 0.8271(9)
H25 H 0.7218 0.3645 0.8784
H26 H 0.7504 0.5803 0.8345
H27 H 0.7100 0.3773 0.7722
S1A S 0.53415(6) 0.5733(4) 0.55491(12)
C1A C 0.5789(2) 0.3213(13) 0.5282(4)
H1A H 0.6029 0.2517 0.5846
H2A H 0.5564 0.1772 0.4960
C2A C 0.6141(2) 0.4291(11) 0.4693(4)
H3A H 0.6333 0.5862 0.4999
C3A C 0.6577(2) 0.2253(13) 0.4660(5)
O1A O 0.67177(19) 0.0448(12) 0.5175(4)
O2A O 0.68122(16) 0.2840(10) 0.3999(4)
C4A C 0.7231(3) 0.104(2) 0.3901(6)
H4A H 0.7070 -0.0658 0.3713
H5A H 0.7510 0.0868 0.4474
H6A H 0.7392 0.1701 0.3450
N1A N 0.58128(16) 0.5085(9) 0.3782(3)
H7A H 0.5767 0.6735 0.3652
C5A C 0.55803(19) 0.3270(13) 0.3141(4)
O3A O 0.56375(15) 0.0881(8) 0.3269(3)
C6A C 0.5242(2) 0.4454(11) 0.2223(4)
H8A H 0.5294 0.6371 0.2245
C7A C 0.5419(3) 0.3338(15) 0.1410(5)
H9A H 0.5326 0.1479 0.1350
H10A H 0.5204 0.4207 0.0859
C8A C 0.6028(3) 0.3624(18) 0.1464(6)
H11A H 0.6228 0.2345 0.1919
C9A C 0.6116(4) 0.278(2) 0.0548(7)
H12A H 0.6002 0.4182 0.0113
H13A H 0.5902 0.1232 0.0326
H14A H 0.6498 0.2405 0.0635
C10A C 0.6280(4) 0.622(2) 0.1759(9)
H15A H 0.6281 0.6552 0.2377
H16A H 0.6072 0.7574 0.1370
H17A H 0.6651 0.6238 0.1723
N2A N 0.46599(17) 0.3883(9) 0.2097(4)
H18A H 0.4554 0.2273 0.2101
C11A C 0.4287(2) 0.5840(13) 0.1975(4)
O4A O 0.43879(16) 0.8155(8) 0.1941(4)
O5A O 0.37797(15) 0.4845(7) 0.1911(4)
C12A C 0.3306(2) 0.6667(12) 0.1791(5)
C13A C 0.3396(3) 0.8410(16) 0.2614(6)
H19A H 0.3056 0.9249 0.2608
H20A H 0.3665 0.9729 0.2604
H21A H 0.3524 0.7364 0.3157
C14A C 0.3209(3) 0.8225(17) 0.0920(5)
H22A H 0.3222 0.7062 0.0433
H23A H 0.3488 0.9552 0.0996
H24A H 0.2854 0.9052 0.0777
C15A C 0.2827(3) 0.4799(17) 0.1729(9)
H25A H 0.2782 0.3645 0.1216
H26A H 0.2496 0.5803 0.1655
H27A H 0.2900 0.3773 0.2278
loop_
_geom_bond_atom_site_label_1
_geom_bond_atom_site_label_2
_geom_bond_site_symmetry_1
_geom_bond_site_symmetry_2
S1 C1 1_555 1_555
C1 H1 1_555 1_555
H2 C1 1_555 1_555
C2 C1 1_555 1_555
H3 C2 1_555 1_555
C3 C2 1_555 1_555
O1 C3 1_555 1_555
O2 C3 1_555 1_555
C4 O2 1_555 1_555
H4 C4 1_555 1_555
H5 C4 1_555 1_555
H6 C4 1_555 1_555
N1 C2 1_555 1_555
H7 N1 1_555 1_555
C5 N1 1_555 1_555
O3 C5 1_555 1_555
C6 C5 1_555 1_555
H8 C6 1_555 1_555
C7 C6 1_555 1_555
H9 C7 1_555 1_555
H10 C7 1_555 1_555
C8 C7 1_555 1_555
H11 C8 1_555 1_555
C9 C8 1_555 1_555
H12 C9 1_555 1_555
H13 C9 1_555 1_555
H14 C9 1_555 1_555
C10 C8 1_555 1_555
H15 C10 1_555 1_555
H16 C10 1_555 1_555
H17 C10 1_555 1_555
N2 C6 1_555 1_555
H18 N2 1_555 1_555
C11 N2 1_555 1_555
O4 C11 1_555 1_555
O5 C11 1_555 1_555
C12 O5 1_555 1_555
C13 C12 1_555 1_555
H19 C13 1_555 1_555
H20 C13 1_555 1_555
H21 C13 1_555 1_555
C14 C12 1_555 1_555
H22 C14 1_555 1_555
H23 C14 1_555 1_555
H24 C14 1_555 1_555
C15 C12 1_555 1_555
H25 C15 1_555 1_555
H26 C15 1_555 1_555
H27 C15 1_555 1_555
S1A S1 1_555 1_555
C1A S1A 1_555 1_555
H1A C1A 1_555 1_555
H2A C1A 1_555 1_555
C2A C1A 1_555 1_555
H3A C2A 1_555 1_555
C3A C2A 1_555 1_555
O1A C3A 1_555 1_555
O2A C3A 1_555 1_555
C4A O2A 1_555 1_555
H4A C4A 1_555 1_555
H5A C4A 1_555 1_555
H6A C4A 1_555 1_555
N1A C2A 1_555 1_555
H7A N1A 1_555 1_555
C5A N1A 1_555 1_555
O3A C5A 1_555 1_555
C6A C5A 1_555 1_555
H8A C6A 1_555 1_555
C7A C6A 1_555 1_555
H9A C7A 1_555 1_555
H10A C7A 1_555 1_555
C8A C7A 1_555 1_555
H11A C8A 1_555 1_555
C9A C8A 1_555 1_555
H12A C9A 1_555 1_555
H13A C9A 1_555 1_555
H14A C9A 1_555 1_555
C10A C8A 1_555 1_555
H15A C10A 1_555 1_555
H16A C10A 1_555 1_555
H17A C10A 1_555 1_555
N2A C6A 1_555 1_555
H18A N2A 1_555 1_555
C11A N2A 1_555 1_555
O4A C11A 1_555 1_555
O5A C11A 1_555 1_555
C12A O5A 1_555 1_555
C13A C12A 1_555 1_555
H19A C13A 1_555 1_555
H20A C13A 1_555 1_555
H21A C13A 1_555 1_555
C14A C12A 1_555 1_555
H22A C14A 1_555 1_555
H23A C14A 1_555 1_555
H24A C14A 1_555 1_555
C15A C12A 1_555 1_555
H25A C15A 1_555 1_555
H26A C15A 1_555 1_555
H27A C15A 1_555 1_555

#END
