
#######################################################################
#
#                 Cambridge Crystallographic Data Centre
#                                CCDC 
#
#######################################################################
#
# If this CIF has been generated from an entry in the Cambridge 
# Structural Database, then it will include bibliographic, chemical, 
# crystal, experimental, refinement or atomic coordinate data resulting 
# from the CCDC's data processing and validation procedures.
#
#######################################################################

data_KAYFEY
_chemical_name_common            'anthriscifolsine A acetone solvate'
_chemical_formula_moiety         'C29 H31 N1 O7,0.5(C3 H6 O1)'
_chemical_name_systematic        
'3-acetoxy-18-formyl-6-hydroxy-5,12-dimethyl-10-oxo-7-azahexacyclo[12.3.1.0^1,8^.0^5,17^.0^7,16^.0^9,14^]octadec-11-en-4-yl benzoate acetone solvate'
_symmetry_cell_setting           orthorhombic
_symmetry_space_group_name_H-M   'P 21 21 21'
_symmetry_Int_Tables_number      19
_space_group_name_Hall           'P 2ac 2ab'
loop_
_symmetry_equiv_pos_site_id
_symmetry_equiv_pos_as_xyz
1 x,y,z
2 1/2-x,-y,1/2+z
3 1/2+x,1/2-y,-z
4 -x,1/2+y,1/2-z
_cell_length_a                   12.9571(5)
_cell_length_b                   20.9703(17)
_cell_length_c                   21.7049(12)
_cell_angle_alpha                90
_cell_angle_beta                 90
_cell_angle_gamma                90
_cell_volume                     5897.53
_cell_formula_units_Z            8
loop_
_atom_site_label
_atom_site_type_symbol
_atom_site_fract_x
_atom_site_fract_y
_atom_site_fract_z
C1 C 0.2359(3) -0.4684(3) -0.5271(2)
C2 C 0.3294(4) -0.4316(3) -0.5430(2)
H1 H 0.3830 -0.4531 -0.5626
C3 C 0.3418(4) -0.3708(3) -0.5314(2)
C4 C 0.2602(4) -0.3319(3) -0.5021(3)
H2 H 0.2560 -0.2913 -0.5232
H3 H 0.2800 -0.3235 -0.4597
C5 C 0.1531(3) -0.3628(2) -0.5023(2)
C6 C 0.0790(3) -0.3323(2) -0.4549(2)
H4 H 0.0686 -0.2876 -0.4649
H5 H 0.1092 -0.3347 -0.4140
C7 C -0.0267(3) -0.3676(2) -0.45534(19)
H6 H -0.0741 -0.3484 -0.4254
C8 C -0.0773(3) -0.3724(2) -0.51836(19)
H7 H -0.0954 -0.3313 -0.5370
C9 C -0.1705(3) -0.4164(2) -0.50486(19)
C10 C -0.1223(3) -0.4611(2) -0.45344(16)
H8 H -0.1205 -0.5053 -0.4680
C11 C 0.0472(3) -0.4553(2) -0.49922(16)
H9 H 0.0418 -0.5008 -0.5094
C12 C 0.1573(3) -0.4343(2) -0.48706(17)
H10 H 0.1743 -0.4403 -0.4434
C13 C 0.0996(3) -0.3651(2) -0.5655(2)
H11 H 0.1464 -0.3875 -0.5936
C14 C 0.0075(3) -0.4101(2) -0.55339(18)
C15 C -0.0324(3) -0.4430(3) -0.61075(17)
H12 H -0.0504 -0.4108 -0.6409
H13 H 0.0228 -0.4686 -0.6281
C16 C -0.1252(3) -0.4855(3) -0.60046(19)
H14 H -0.1555 -0.4954 -0.6407
C17 C -0.2072(3) -0.4517(3) -0.56160(19)
H15 H -0.2440 -0.4214 -0.5881
C18 C 0.4415(4) -0.3376(4) -0.5476(3)
H16 H 0.4296 -0.3083 -0.5809
H17 H 0.4919 -0.3687 -0.5599
H18 H 0.4664 -0.3147 -0.5124
C19 C 0.0720(5) -0.3060(4) -0.5950(3)
H19 H 0.0463 -0.3104 -0.6347
C20 C -0.2619(3) -0.3778(3) -0.4806(2)
H20 H -0.3180 -0.4060 -0.4712
H21 H -0.2834 -0.3477 -0.5114
H22 H -0.2416 -0.3553 -0.4440
C21 C -0.1035(5) -0.5974(3) -0.6019(3)
C22 C -0.0817(5) -0.6557(3) -0.5632(3)
H23 H -0.0088 -0.6638 -0.5626
H24 H -0.1169 -0.6918 -0.5804
H25 H -0.1056 -0.6485 -0.5219
C23 C -0.3620(3) -0.5137(3) -0.5771(2)
C24 C -0.4171(3) -0.5714(2) -0.5574(2)
C25 C -0.3885(6) -0.6050(4) -0.5074(4)
H26 H -0.3312 -0.5925 -0.4845
C26 C -0.4442(10) -0.6577(6) -0.4904(6)
H27 H -0.4269 -0.6795 -0.4546
C27 C -0.5252(5) -0.6785(4) -0.5257(5)
H28 H -0.5600 -0.7157 -0.5149
C28 C -0.5529(5) -0.6473(3) -0.5731(4)
H29 H -0.6084 -0.6610 -0.5968
C29 C -0.5000(4) -0.5929(3) -0.5890(3)
H30 H -0.5223 -0.5699 -0.6231
N1 N -0.0156(2) -0.43717(16) -0.44390(13)
O1 O 0.2235(3) -0.5229(2) -0.5433(2)
O2 O -0.1788(2) -0.45719(16) -0.39879(12)
H31 H -0.1618 -0.4863 -0.3758
O3 O 0.0765(5) -0.2528(4) -0.5771(4)
O4 O -0.0968(2) -0.54455(17) -0.57138(13)
O5 O -0.1009(10) -0.5960(6) -0.6600(4)
O6 O -0.2798(2) -0.50022(17) -0.54178(14)
O7 O -0.3952(7) -0.4724(5) -0.6153(6)
C30 C -0.2455(3) -0.6955(3) -0.3773(2)
C31 C -0.3379(4) -0.7283(3) -0.3570(2)
H33 H -0.3621 -0.7627 -0.3798
C32 C -0.3905(4) -0.7101(3) -0.3056(3)
C33 C -0.3577(4) -0.6585(3) -0.2664(2)
H34 H -0.3678 -0.6712 -0.2238
H35 H -0.4017 -0.6219 -0.2741
C34 C -0.2445(3) -0.6380(2) -0.27481(19)
C35 C -0.2202(3) -0.5729(2) -0.24820(19)
H36 H -0.2666 -0.5416 -0.2661
H37 H -0.2323 -0.5736 -0.2041
C36 C -0.1104(3) -0.5528(2) -0.26014(17)
H38 H -0.0957 -0.5109 -0.2422
C37 C -0.0289(3) -0.6020(2) -0.24145(18)
H39 H -0.0276 -0.6108 -0.1971
C38 C 0.0713(3) -0.5726(2) -0.26574(18)
C39 C 0.0293(3) -0.5427(2) -0.32773(17)
H40 H 0.0615 -0.5635 -0.3633
C40 C -0.0992(3) -0.6227(2) -0.34016(17)
H41 H -0.0624 -0.6371 -0.3771
C41 C -0.2156(3) -0.6350(2) -0.34399(19)
H42 H -0.2498 -0.5984 -0.3633
C42 C -0.1653(3) -0.6860(2) -0.25254(18)
H43 H -0.1795 -0.7264 -0.2736
C43 C -0.0625(3) -0.6586(2) -0.28002(17)
C44 C 0.0182(3) -0.7094(3) -0.2881(2)
H44 H -0.0061 -0.7400 -0.3183
H45 H 0.0267 -0.7318 -0.2493
C45 C 0.1241(4) -0.6840(3) -0.3088(2)
H46 H 0.1763 -0.7167 -0.3008
C46 C 0.1533(3) -0.6244(3) -0.27459(19)
H47 H 0.1770 -0.6372 -0.2336
C47 C -0.4888(5) -0.7432(4) -0.2874(3)
H48 H -0.5465 -0.7158 -0.2956
H49 H -0.4866 -0.7531 -0.2442
H50 H -0.4959 -0.7819 -0.3106
C48 C -0.1608(5) -0.6998(3) -0.1849(2)
H51 H -0.1029 -0.7220 -0.1715
C49 C 0.1999(4) -0.6918(4) -0.4089(3)
C50 C 0.1881(5) -0.6704(4) -0.4743(3)
H52 H 0.1251 -0.6872 -0.4910
H53 H 0.2455 -0.6856 -0.4982
H54 H 0.1862 -0.6246 -0.4758
C51 C 0.1139(4) -0.5228(3) -0.2216(2)
H55 H 0.1741 -0.5035 -0.2393
H56 H 0.1320 -0.5429 -0.1834
H57 H 0.0625 -0.4908 -0.2143
C52 C 0.3271(3) -0.5837(3) -0.2755(2)
C53 C 0.3985(3) -0.5468(3) -0.3121(2)
C54 C 0.3931(5) -0.5416(5) -0.3734(3)
H58 H 0.3403 -0.5627 -0.3940
C55 C 0.4623(8) -0.5062(8) -0.4073(5)
H59 H 0.4604 -0.5066 -0.4502
C56 C 0.5390(8) -0.4678(9) -0.3743(6)
H60 H 0.5799 -0.4376 -0.3941
C57 C 0.5463(6) -0.4786(5) -0.3157(6)
H61 H 0.6020 -0.4608 -0.2949
C58 C 0.4775(4) -0.5146(4) -0.2821(3)
H62 H 0.4839 -0.5173 -0.2395
N2 N -0.0834(2) -0.55486(18) -0.32745(13)
O11 O -0.1972(2) -0.71423(19) -0.42219(15)
O12 O 0.0498(2) -0.47724(16) -0.32836(13)
H63 H 0.0313 -0.4621 -0.3614
O13 O -0.2198(4) -0.6864(2) -0.14742(18)
O14 O 0.1205(2) -0.67172(18) -0.37510(13)
O15 O 0.2731(3) -0.7183(3) -0.3888(2)
O16 O 0.2401(2) -0.59484(17) -0.30587(13)
O17 O 0.3446(3) -0.6028(3) -0.22470(19)
C59 C -0.1843(7) -0.3190(4) -0.2998(3)
C60 C -0.1238(8) -0.3659(4) -0.2625(5)
H64 H -0.0914 -0.3961 -0.2894
H65 H -0.1692 -0.3878 -0.2347
H66 H -0.0719 -0.3437 -0.2393
C61 C -0.2930(7) -0.3224(6) -0.2918(5)
H67 H -0.3220 -0.2804 -0.2949
H68 H -0.3082 -0.3398 -0.2519
H69 H -0.3222 -0.3492 -0.3231
O18 O -0.1457(5) -0.2786(3) -0.3318(3)
H32? H 0.1237 -0.2759 -0.5888
O8? O 0.0085(17) -0.2849(9) -0.6228(10)
O9? O -0.1715(16) -0.6025(9) -0.6455(6)
O10? O -0.3650(12) -0.4994(8) -0.6265(10)
loop_
_geom_bond_atom_site_label_1
_geom_bond_atom_site_label_2
_geom_bond_site_symmetry_1
_geom_bond_site_symmetry_2
C1 C2 1_555 1_555
C2 H1 1_555 1_555
C3 C2 1_555 1_555
C4 C3 1_555 1_555
H2 C4 1_555 1_555
H3 C4 1_555 1_555
C5 C4 1_555 1_555
C6 C5 1_555 1_555
H4 C6 1_555 1_555
H5 C6 1_555 1_555
C7 C6 1_555 1_555
H6 C7 1_555 1_555
C8 C7 1_555 1_555
H7 C8 1_555 1_555
C9 C8 1_555 1_555
C10 C9 1_555 1_555
H8 C10 1_555 1_555
C11 H9 1_555 1_555
C12 C1 1_555 1_555
H10 C12 1_555 1_555
C13 C5 1_555 1_555
H11 C13 1_555 1_555
C14 C8 1_555 1_555
C15 C14 1_555 1_555
H12 C15 1_555 1_555
H13 C15 1_555 1_555
C16 C15 1_555 1_555
H14 C16 1_555 1_555
C17 C9 1_555 1_555
H15 C17 1_555 1_555
C18 C3 1_555 1_555
H16 C18 1_555 1_555
H17 C18 1_555 1_555
H18 C18 1_555 1_555
C19 C13 1_555 1_555
H19 C19 1_555 1_555
C20 C9 1_555 1_555
H20 C20 1_555 1_555
H21 C20 1_555 1_555
H22 C20 1_555 1_555
C21 C22 1_555 1_555
C22 H23 1_555 1_555
H24 C22 1_555 1_555
H25 C22 1_555 1_555
C23 C24 1_555 1_555
C24 C25 1_555 1_555
C25 H26 1_555 1_555
C26 C25 1_555 1_555
H27 C26 1_555 1_555
C27 C26 1_555 1_555
H28 C27 1_555 1_555
C28 C27 1_555 1_555
H29 C28 1_555 1_555
C29 C24 1_555 1_555
H30 C29 1_555 1_555
N1 C7 1_555 1_555
O1 C1 1_555 1_555
O2 C10 1_555 1_555
H31 O2 1_555 1_555
O3 C19 1_555 1_555
O4 C16 1_555 1_555
O5 C21 1_555 1_555
O6 C17 1_555 1_555
O7 C23 1_555 1_555
C30 C31 1_555 1_555
C31 H33 1_555 1_555
C32 C31 1_555 1_555
C33 C32 1_555 1_555
H34 C33 1_555 1_555
H35 C33 1_555 1_555
C34 C33 1_555 1_555
C35 C34 1_555 1_555
H36 C35 1_555 1_555
H37 C35 1_555 1_555
C36 C35 1_555 1_555
H38 C36 1_555 1_555
C37 C36 1_555 1_555
H39 C37 1_555 1_555
C38 C37 1_555 1_555
C39 C38 1_555 1_555
H40 C39 1_555 1_555
C40 H41 1_555 1_555
C41 C30 1_555 1_555
H42 C41 1_555 1_555
C42 C34 1_555 1_555
H43 C42 1_555 1_555
C43 C37 1_555 1_555
C44 C43 1_555 1_555
H44 C44 1_555 1_555
H45 C44 1_555 1_555
C45 C44 1_555 1_555
H46 C45 1_555 1_555
C46 C38 1_555 1_555
H47 C46 1_555 1_555
C47 C32 1_555 1_555
H48 C47 1_555 1_555
H49 C47 1_555 1_555
H50 C47 1_555 1_555
C48 C42 1_555 1_555
H51 C48 1_555 1_555
C49 C50 1_555 1_555
C50 H52 1_555 1_555
H53 C50 1_555 1_555
H54 C50 1_555 1_555
C51 C38 1_555 1_555
H55 C51 1_555 1_555
H56 C51 1_555 1_555
H57 C51 1_555 1_555
C52 C53 1_555 1_555
C53 C54 1_555 1_555
C54 H58 1_555 1_555
C55 C54 1_555 1_555
H59 C55 1_555 1_555
C56 C55 1_555 1_555
H60 C56 1_555 1_555
C57 C56 1_555 1_555
H61 C57 1_555 1_555
C58 C53 1_555 1_555
H62 C58 1_555 1_555
N2 C36 1_555 1_555
O11 C30 1_555 1_555
O12 C39 1_555 1_555
H63 O12 1_555 1_555
O13 C48 1_555 1_555
O14 C45 1_555 1_555
O15 C49 1_555 1_555
O16 C46 1_555 1_555
O17 C52 1_555 1_555
C59 C60 1_555 1_555
C60 H64 1_555 1_555
H65 C60 1_555 1_555
H66 C60 1_555 1_555
C61 C59 1_555 1_555
H67 C61 1_555 1_555
H68 C61 1_555 1_555
H69 C61 1_555 1_555
O18 C59 1_555 1_555
C5 C12 1_555 1_555
C10 N1 1_555 1_555
C11 C12 1_555 1_555
C11 C14 1_555 1_555
C11 N1 1_555 1_555
C13 C14 1_555 1_555
C16 C17 1_555 1_555
C21 O4 1_555 1_555
C23 O6 1_555 1_555
C28 C29 1_555 1_555
C34 C41 1_555 1_555
C39 N2 1_555 1_555
C40 C41 1_555 1_555
C40 C43 1_555 1_555
C40 N2 1_555 1_555
C42 C43 1_555 1_555
C45 C46 1_555 1_555
C49 O14 1_555 1_555
C52 O16 1_555 1_555
C57 C58 1_555 1_555

#END
