
#######################################################################
#
#                 Cambridge Crystallographic Data Centre
#                                CCDC 
#
#######################################################################
#
# If this CIF has been generated from an entry in the Cambridge 
# Structural Database, then it will include bibliographic, chemical, 
# crystal, experimental, refinement or atomic coordinate data resulting 
# from the CCDC's data processing and validation procedures.
#
#######################################################################

data_KAYGIC
_chemical_formula_moiety         'C8 H14 O4,C11 H9 N3 O1'
_chemical_name_systematic        'Suberic acid N-(pyridin-2-yl)isonicotinamide'
_symmetry_cell_setting           monoclinic
_symmetry_space_group_name_H-M   'P 21/n'
_symmetry_Int_Tables_number      14
_space_group_name_Hall           '-P 2yn'
loop_
_symmetry_equiv_pos_site_id
_symmetry_equiv_pos_as_xyz
1 x,y,z
2 1/2-x,1/2+y,1/2-z
3 -x,-y,-z
4 1/2+x,1/2-y,1/2+z
_cell_length_a                   11.4438(7)
_cell_length_b                   10.1874(5)
_cell_length_c                   16.5671(9)
_cell_angle_alpha                90
_cell_angle_beta                 95.023(3)
_cell_angle_gamma                90
_cell_volume                     1924.02
_exptl_crystal_colour            colorless
_exptl_crystal_description       prism
_cell_formula_units_Z            4
loop_
_atom_site_label
_atom_site_type_symbol
_atom_site_fract_x
_atom_site_fract_y
_atom_site_fract_z
N1 N 0.43025(10) 0.78300(10) 0.42647(7)
C1 C 0.42388(12) 0.83845(11) 0.35369(8)
H1 H 0.4110 0.9285 0.3500
C2 C 0.43548(12) 0.76914(11) 0.28345(8)
H2 H 0.4316 0.8119 0.2337
C3 C 0.45294(10) 0.63485(10) 0.28804(7)
C4 C 0.46389(11) 0.57758(11) 0.36380(7)
H3 H 0.4794 0.4883 0.3696
C5 C 0.45149(12) 0.65490(11) 0.43058(8)
H4 H 0.4584 0.6153 0.4814
C6 C 0.45808(11) 0.55933(11) 0.21087(7)
N2 N 0.41414(9) 0.43571(9) 0.21207(6)
H5 H 0.3826(13) 0.4128(14) 0.2544(9)
O1 O 0.49611(12) 0.60901(11) 0.15223(6)
N3 N 0.36581(9) 0.22719(9) 0.17120(6)
C7 C 0.40212(10) 0.34523(10) 0.14862(7)
C8 C 0.42266(12) 0.37258(13) 0.06903(8)
H6 H 0.4481 0.4552 0.0544
C9 C 0.40449(14) 0.27453(15) 0.01254(9)
H7 H 0.4177 0.2902 -0.0412
C10 C 0.36680(14) 0.15331(14) 0.03539(9)
H8 H 0.3538 0.0861 -0.0024
C11 C 0.34888(12) 0.13374(12) 0.11469(9)
H9 H 0.3237 0.0515 0.1303
C12 C 0.37585(13) 0.81883(13) 0.62417(8)
O2 O 0.38026(11) 0.90431(10) 0.56513(6)
H10 H 0.3996(16) 0.8579(17) 0.5129(12)
O3 O 0.39796(15) 0.70586(11) 0.61537(7)
C13 C 0.34421(16) 0.87772(14) 0.70178(9)
H11 H 0.2816 0.9408 0.6898
H12 H 0.4116 0.9250 0.7266
C14 C 0.30547(13) 0.77971(14) 0.76166(8)
H13 H 0.3601 0.7067 0.7650
H14 H 0.2291 0.7458 0.7418
C15 C 0.29785(13) 0.83517(14) 0.84566(8)
H15 H 0.2425 0.9075 0.8426
H16 H 0.3740 0.8697 0.8656
C16 C 0.25977(12) 0.73408(14) 0.90509(8)
H17 H 0.3131 0.6600 0.9060
H18 H 0.1822 0.7025 0.8862
C17 C 0.25678(12) 0.78599(13) 0.99062(8)
H19 H 0.3350 0.8136 1.0108
H20 H 0.2060 0.8623 0.9897
C18 C 0.21323(13) 0.68427(12) 1.04752(8)
H21 H 0.1382 0.6512 1.0244
H22 H 0.2678 0.6113 1.0513
C19 C 0.19923(10) 0.73364(11) 1.13063(7)
O4 O 0.17414(10) 0.64200(8) 1.18206(6)
H23 H 0.1581(14) 0.6828(16) 1.2429(10)
O5 O 0.20931(9) 0.84794(8) 1.15050(6)
loop_
_geom_bond_atom_site_label_1
_geom_bond_atom_site_label_2
_geom_bond_site_symmetry_1
_geom_bond_site_symmetry_2
N1 C1 1_555 1_555
C1 H1 1_555 1_555
C2 C1 1_555 1_555
H2 C2 1_555 1_555
C3 C2 1_555 1_555
C4 C3 1_555 1_555
H3 C4 1_555 1_555
C5 N1 1_555 1_555
H4 C5 1_555 1_555
C6 C3 1_555 1_555
N2 C6 1_555 1_555
H5 N2 1_555 1_555
O1 C6 1_555 1_555
N3 C7 1_555 1_555
C7 N2 1_555 1_555
C8 C7 1_555 1_555
H6 C8 1_555 1_555
C9 C8 1_555 1_555
H7 C9 1_555 1_555
C10 C9 1_555 1_555
H8 C10 1_555 1_555
C11 N3 1_555 1_555
H9 C11 1_555 1_555
C12 O2 1_555 1_555
O2 H10 1_555 1_555
O3 C12 1_555 1_555
C13 C12 1_555 1_555
H11 C13 1_555 1_555
H12 C13 1_555 1_555
C14 C13 1_555 1_555
H13 C14 1_555 1_555
H14 C14 1_555 1_555
C15 C14 1_555 1_555
H15 C15 1_555 1_555
H16 C15 1_555 1_555
C16 C15 1_555 1_555
H17 C16 1_555 1_555
H18 C16 1_555 1_555
C17 C16 1_555 1_555
H19 C17 1_555 1_555
H20 C17 1_555 1_555
C18 C17 1_555 1_555
H21 C18 1_555 1_555
H22 C18 1_555 1_555
C19 C18 1_555 1_555
O4 C19 1_555 1_555
H23 O4 1_555 1_555
O5 C19 1_555 1_555
C4 C5 1_555 1_555
C10 C11 1_555 1_555

#END
