
#######################################################################
#
#                 Cambridge Crystallographic Data Centre
#                                CCDC 
#
#######################################################################
#
# If this CIF has been generated from an entry in the Cambridge 
# Structural Database, then it will include bibliographic, chemical, 
# crystal, experimental, refinement or atomic coordinate data resulting 
# from the CCDC's data processing and validation procedures.
#
#######################################################################

data_KAYHEZ
_chemical_formula_moiety         'C10 H18 O4,C11 H9 N3 O1'
_chemical_name_systematic        'Sebacic acid N-(pyridin-2-yl)nicotinamide'
_symmetry_cell_setting           triclinic
_symmetry_space_group_name_H-M   'P -1'
_symmetry_Int_Tables_number      2
_space_group_name_Hall           '-P 1'
loop_
_symmetry_equiv_pos_site_id
_symmetry_equiv_pos_as_xyz
1 x,y,z
2 -x,-y,-z
_cell_length_a                   7.5703(8)
_cell_length_b                   9.6882(10)
_cell_length_c                   13.9977(14)
_cell_angle_alpha                85.455(4)
_cell_angle_beta                 81.210(4)
_cell_angle_gamma                79.358(4)
_cell_volume                     995.743
_exptl_crystal_colour            yellow
_exptl_crystal_description       prism
_cell_formula_units_Z            2
loop_
_atom_site_label
_atom_site_type_symbol
_atom_site_fract_x
_atom_site_fract_y
_atom_site_fract_z
N1 N 0.28883(14) 0.66769(11) 0.17749(8)
C1 C 0.17285(16) 0.58634(13) 0.16126(9)
H1 H 0.1957 0.4895 0.1814
C2 C 0.02062(15) 0.63698(12) 0.11635(8)
C3 C -0.00833(16) 0.77823(13) 0.08502(9)
H2 H -0.1102 0.8163 0.0532
C4 C 0.11178(17) 0.86258(13) 0.10042(10)
H3 H 0.0948 0.9591 0.0791
C5 C 0.25753(17) 0.80340(13) 0.14764(9)
H4 H 0.3391 0.8618 0.1594
C6 C -0.11481(16) 0.55086(13) 0.09747(8)
N2 N -0.11001(13) 0.42251(10) 0.14505(7)
H5 H -0.0265 0.3974 0.1834
O1 O -0.22222(12) 0.59752(9) 0.04115(6)
N3 N -0.17126(13) 0.19906(11) 0.18086(7)
C7 C -0.22460(15) 0.32640(12) 0.13908(8)
C8 C -0.38193(16) 0.35735(13) 0.09514(9)
H6 H -0.4194 0.4486 0.0671
C9 C -0.48172(16) 0.25214(14) 0.09339(9)
H7 H -0.5883 0.2700 0.0631
C10 C -0.42619(16) 0.12045(14) 0.13595(9)
H8 H -0.4927 0.0467 0.1348
C11 C -0.27201(16) 0.09924(13) 0.18001(9)
H9 H -0.2355 0.0100 0.2111
C12 C 0.64390(15) 0.68590(13) 0.29953(8)
O2 O 0.55396(13) 0.58472(10) 0.28823(7)
H10 H 0.467(2) 0.6181(17) 0.2511(12)
O3 O 0.61075(13) 0.80388(10) 0.26338(7)
C13 C 0.78998(16) 0.63593(13) 0.36230(9)
H11 H 0.8717 0.5533 0.3333
H12 H 0.7323 0.6041 0.4265
C14 C 0.90399(15) 0.74360(13) 0.37697(9)
H13 H 0.8246 0.8261 0.4074
H14 H 0.9636 0.7760 0.3134
C15 C 1.04788(16) 0.68142(13) 0.44085(9)
H15 H 1.1272 0.5997 0.4094
H16 H 0.9870 0.6466 0.5034
C16 C 1.16574(16) 0.78475(13) 0.46068(9)
H17 H 1.2312 0.8167 0.3986
H18 H 1.0867 0.8682 0.4902
C17 C 1.30300(16) 0.72047(13) 0.52780(9)
H19 H 1.3821 0.6372 0.4981
H20 H 1.2373 0.6880 0.5897
C18 C 1.42101(16) 0.82293(13) 0.54852(9)
H21 H 1.4842 0.8571 0.4864
H22 H 1.3419 0.9051 0.5795
C19 C 1.56182(16) 0.75911(13) 0.61377(9)
H23 H 1.4998 0.7246 0.6761
H24 H 1.6430 0.6778 0.5828
C20 C 1.67424(15) 0.86623(12) 0.63262(8)
H25 H 1.7311 0.9033 0.5697
H26 H 1.5923 0.9459 0.6651
C21 C 1.82016(16) 0.80880(13) 0.69374(8)
O4 O 1.89127(14) 0.90655(10) 0.72617(8)
H27 H 1.979(3) 0.8582(19) 0.7569(13)
O5 O 1.87105(12) 0.68379(9) 0.71107(7)
loop_
_geom_bond_atom_site_label_1
_geom_bond_atom_site_label_2
_geom_bond_site_symmetry_1
_geom_bond_site_symmetry_2
N1 C1 1_555 1_555
C1 H1 1_555 1_555
C2 C1 1_555 1_555
C3 C2 1_555 1_555
H2 C3 1_555 1_555
C4 C3 1_555 1_555
H3 C4 1_555 1_555
C5 N1 1_555 1_555
H4 C5 1_555 1_555
C6 C2 1_555 1_555
N2 C6 1_555 1_555
H5 N2 1_555 1_555
O1 C6 1_555 1_555
N3 C7 1_555 1_555
C7 N2 1_555 1_555
C8 C7 1_555 1_555
H6 C8 1_555 1_555
C9 C8 1_555 1_555
H7 C9 1_555 1_555
C10 C9 1_555 1_555
H8 C10 1_555 1_555
C11 N3 1_555 1_555
H9 C11 1_555 1_555
C12 O2 1_555 1_555
O2 H10 1_555 1_555
O3 C12 1_555 1_555
C13 C12 1_555 1_555
H11 C13 1_555 1_555
H12 C13 1_555 1_555
C14 C13 1_555 1_555
H13 C14 1_555 1_555
H14 C14 1_555 1_555
C15 C14 1_555 1_555
H15 C15 1_555 1_555
H16 C15 1_555 1_555
C16 C15 1_555 1_555
H17 C16 1_555 1_555
H18 C16 1_555 1_555
C17 C16 1_555 1_555
H19 C17 1_555 1_555
H20 C17 1_555 1_555
C18 C17 1_555 1_555
H21 C18 1_555 1_555
H22 C18 1_555 1_555
C19 C18 1_555 1_555
H23 C19 1_555 1_555
H24 C19 1_555 1_555
C20 C19 1_555 1_555
H25 C20 1_555 1_555
H26 C20 1_555 1_555
C21 C20 1_555 1_555
O4 C21 1_555 1_555
H27 O4 1_555 1_555
O5 C21 1_555 1_555
C4 C5 1_555 1_555
C10 C11 1_555 1_555

#END
