
#######################################################################
#
#                 Cambridge Crystallographic Data Centre
#                                CCDC 
#
#######################################################################
#
# If this CIF has been generated from an entry in the Cambridge 
# Structural Database, then it will include bibliographic, chemical, 
# crystal, experimental, refinement or atomic coordinate data resulting 
# from the CCDC's data processing and validation procedures.
#
#######################################################################

data_KAYQUY
_chemical_formula_moiety         'H12 Mg1 O6 2+,2(C5 H3 N6 1-)'
_chemical_name_systematic        
'Hexaaqua-magnesium bis(2-(pyrimidin-2-yl)tetrazolate)'
_symmetry_cell_setting           monoclinic
_symmetry_space_group_name_H-M   'C 2/c'
_symmetry_Int_Tables_number      15
_space_group_name_Hall           '-C 2yn'
loop_
_symmetry_equiv_pos_site_id
_symmetry_equiv_pos_as_xyz
1 x,y,z
2 -x,y,1/2-z
3 1/2+x,1/2+y,z
4 1/2-x,1/2+y,1/2-z
5 -x,-y,-z
6 x,-y,1/2+z
7 1/2-x,1/2-y,-z
8 1/2+x,1/2-y,1/2+z
_cell_length_a                   9.4374(19)
_cell_length_b                   13.734(3)
_cell_length_c                   14.828(3)
_cell_angle_alpha                90
_cell_angle_beta                 104.73(3)
_cell_angle_gamma                90
_cell_volume                     1858.74
_exptl_crystal_colour            colorless
_exptl_crystal_description       block
_cell_formula_units_Z            4
loop_
_atom_site_label
_atom_site_type_symbol
_atom_site_fract_x
_atom_site_fract_y
_atom_site_fract_z
Mg1 Mg 0.2500 0.7500 0.5000
O1 O 0.1283(2) 0.66217(13) 0.56204(14)
H1 H 0.0401 0.6653 0.5295
H2 H 0.1302 0.6870 0.6149
O2 O 0.1304(3) 0.69824(17) 0.36771(18)
O3 O 0.4007(2) 0.64022(14) 0.50488(15)
H3 H 0.4821 0.6507 0.4816
H4 H 0.3874 0.5802 0.5306
H8 H 0.135(4) 0.721(3) 0.320(3)
H9 H 0.061(4) 0.683(3) 0.369(3)
O1F O 0.3717(2) 0.83783(13) 0.43796(14)
H1F H 0.4599 0.8347 0.4705
H2F H 0.3698 0.8130 0.3851
O2F O 0.3696(3) 0.80176(17) 0.63229(18)
O3F O 0.0993(2) 0.85978(14) 0.49512(15)
H3F H 0.0179 0.8493 0.5184
H4F H 0.1126 0.9198 0.4694
H8F H 0.365(4) 0.779(3) 0.680(3)
H9F H 0.439(4) 0.817(3) 0.631(3)
N1 N 0.3797(3) 0.36625(17) 0.59285(19)
N2 N 0.3686(3) 0.15854(16) 0.62050(17)
N3 N 0.1911(3) 0.19181(17) 0.70464(17)
C1 C 0.2806(3) 0.21789(18) 0.65190(18)
N4 N 0.1635(2) 0.37933(16) 0.62359(16)
N5 N 0.1994(3) 0.46428(17) 0.59126(17)
N6 N 0.3289(3) 0.45630(16) 0.57374(19)
C2 C 0.2770(3) 0.32075(18) 0.62377(18)
C3 C 0.3610(4) 0.0640(2) 0.6395(2)
H5 H 0.4214 0.0205 0.6188
C4 C 0.1862(3) 0.0968(2) 0.7226(2)
H6 H 0.1259 0.0756 0.7595
C5 C 0.2667(3) 0.0292(2) 0.6889(2)
H7 H 0.2578 -0.0371 0.6989
loop_
_geom_bond_atom_site_label_1
_geom_bond_atom_site_label_2
_geom_bond_site_symmetry_1
_geom_bond_site_symmetry_2
Mg1 O1 1_555 1_555
O1 H1 1_555 1_555
H2 O1 1_555 1_555
O2 Mg1 1_555 1_555
O3 Mg1 1_555 1_555
H3 O3 1_555 1_555
H4 O3 1_555 1_555
N1 N6 1_555 1_555
N2 C1 1_555 1_555
N3 C1 1_555 1_555
C1 C2 1_555 1_555
N4 N5 1_555 1_555
N5 N6 1_555 1_555
C2 N1 1_555 1_555
C3 N2 1_555 1_555
H5 C3 1_555 1_555
C4 N3 1_555 1_555
H6 C4 1_555 1_555
C5 C3 1_555 1_555
H7 C5 1_555 1_555
H8 O2 1_555 1_555
H9 O2 1_555 1_555
O1F Mg1 1_555 1_555
H1F O1F 1_555 1_555
H2F O1F 1_555 1_555
O2F Mg1 1_555 1_555
O3F Mg1 1_555 1_555
H3F O3F 1_555 1_555
H4F O3F 1_555 1_555
H8F O2F 1_555 1_555
H9F O2F 1_555 1_555
N4 C2 1_555 1_555
C4 C5 1_555 1_555

#END
