
#######################################################################
#
#                 Cambridge Crystallographic Data Centre
#                                CCDC 
#
#######################################################################
#
# If this CIF has been generated from an entry in the Cambridge 
# Structural Database, then it will include bibliographic, chemical, 
# crystal, experimental, refinement or atomic coordinate data resulting 
# from the CCDC's data processing and validation procedures.
#
#######################################################################

data_KAYTAF
_chemical_formula_moiety         'C14 H24 O4 S1 Si1'
_chemical_name_systematic        
'(+-)-4-(t-Butyldimethylsiloxy)-3a,4,7,7a-tetrahydrobenzo(b)thiophen-3(2H)-one 1,1-dioxide'
_symmetry_cell_setting           monoclinic
_symmetry_space_group_name_H-M   'P 21/n'
_symmetry_Int_Tables_number      14
_space_group_name_Hall           '-P 2yn'
loop_
_symmetry_equiv_pos_site_id
_symmetry_equiv_pos_as_xyz
1 x,y,z
2 1/2-x,1/2+y,1/2-z
3 -x,-y,-z
4 1/2+x,1/2-y,1/2+z
_cell_length_a                   7.1431(7)
_cell_length_b                   19.643(2)
_cell_length_c                   12.528(1)
_cell_angle_alpha                90
_cell_angle_beta                 104.810(8)
_cell_angle_gamma                90
_cell_volume                     1699.43
_exptl_crystal_colour            colorless
_cell_formula_units_Z            4
loop_
_atom_site_label
_atom_site_type_symbol
_atom_site_fract_x
_atom_site_fract_y
_atom_site_fract_z
S1 S 0.78665(10) 0.49019(4) 0.80233(6)
C1 C 0.7219(5) 0.4378(2) 0.9026(3)
C2 C 0.5094(4) 0.45076(14) 0.8951(2)
C3 C 0.4158(4) 0.49965(13) 0.8039(2)
C4 C 0.2931(4) 0.45920(14) 0.7047(2)
C5 C 0.2790(5) 0.4942(2) 0.5975(3)
C6 C 0.3826(5) 0.5459(2) 0.5821(3)
C7 C 0.5325(5) 0.5803(2) 0.6693(3)
C8 C 0.5769(4) 0.54413(14) 0.7804(2)
O1 O 0.4268(3) 0.42509(11) 0.9575(2)
O2 O 0.9593(3) 0.52826(12) 0.8514(2)
O3 O 0.7850(3) 0.45156(12) 0.7051(2)
O4 O 0.3760(3) 0.39260(9) 0.70299(14)
Si1 Si 0.24400(11) 0.32211(4) 0.68307(7)
C9 C 0.1559(9) 0.3042(3) 0.8082(5)
C10 C 0.0325(7) 0.3315(3) 0.5625(5)
C11 C 0.4120(4) 0.2541(2) 0.6600(3)
C12 C 0.4746(10) 0.2686(4) 0.5548(5)
C13 C 0.5935(8) 0.2518(3) 0.7552(5)
C14 C 0.3103(11) 0.1856(3) 0.6506(11)
H1 H 0.790(5) 0.451(2) 0.970(3)
H2 H 0.735(4) 0.396(2) 0.886(2)
H3 H 0.328(4) 0.5298(14) 0.828(2)
H4 H 0.167(4) 0.4531(14) 0.716(2)
H5 H 0.191(5) 0.478(2) 0.540(3)
H6 H 0.372(5) 0.563(2) 0.510(3)
H7 H 0.490(5) 0.628(2) 0.680(3)
H8 H 0.652(5) 0.584(2) 0.645(3)
H9 H 0.616(3) 0.5764(13) 0.836(2)
H10 H 0.267(9) 0.302(3) 0.877(5)
H11 H 0.078(7) 0.339(3) 0.820(4)
H12 H 0.096(8) 0.263(3) 0.797(4)
H13 H -0.046(7) 0.367(3) 0.574(4)
H14 H -0.042(6) 0.292(2) 0.545(4)
H15 H 0.063(6) 0.343(2) 0.493(4)
H16 H 0.551(6) 0.234(2) 0.543(3)
H17 H 0.374(8) 0.273(3) 0.484(5)
H18 H 0.567(9) 0.311(4) 0.570(5)
H19 H 0.661(7) 0.212(3) 0.756(4)
H20 H 0.671(8) 0.293(3) 0.766(5)
H21 H 0.549(8) 0.249(3) 0.822(5)
H22 H 0.396(7) 0.150(3) 0.643(4)
H23 H 0.286(13) 0.179(4) 0.720(7)
H24 H 0.204(8) 0.183(3) 0.604(4)
loop_
_geom_bond_atom_site_label_1
_geom_bond_atom_site_label_2
_geom_bond_site_symmetry_1
_geom_bond_site_symmetry_2
S1 C1 1_555 1_555
C1 C2 1_555 1_555
C2 C3 1_555 1_555
C3 C4 1_555 1_555
C4 C5 1_555 1_555
C5 C6 1_555 1_555
C6 C7 1_555 1_555
C7 C8 1_555 1_555
C8 S1 1_555 1_555
O1 C2 1_555 1_555
O2 S1 1_555 1_555
O3 S1 1_555 1_555
O4 C4 1_555 1_555
Si1 O4 1_555 1_555
C9 Si1 1_555 1_555
C10 Si1 1_555 1_555
C11 Si1 1_555 1_555
C12 C11 1_555 1_555
C13 C11 1_555 1_555
C14 C11 1_555 1_555
H1 C1 1_555 1_555
H2 C1 1_555 1_555
H3 C3 1_555 1_555
H4 C4 1_555 1_555
H5 C5 1_555 1_555
H6 C6 1_555 1_555
H7 C7 1_555 1_555
H8 C7 1_555 1_555
H9 C8 1_555 1_555
H10 C9 1_555 1_555
H11 C9 1_555 1_555
H12 C9 1_555 1_555
H13 C10 1_555 1_555
H14 C10 1_555 1_555
H15 C10 1_555 1_555
H16 C12 1_555 1_555
H17 C12 1_555 1_555
H18 C12 1_555 1_555
H19 C13 1_555 1_555
H20 C13 1_555 1_555
H21 C13 1_555 1_555
H22 C14 1_555 1_555
H23 C14 1_555 1_555
H24 C14 1_555 1_555
C3 C8 1_555 1_555

#END
