
#######################################################################
#
#                 Cambridge Crystallographic Data Centre
#                                CCDC 
#
#######################################################################
#
# If this CIF has been generated from an entry in the Cambridge 
# Structural Database, then it will include bibliographic, chemical, 
# crystal, experimental, refinement or atomic coordinate data resulting 
# from the CCDC's data processing and validation procedures.
#
#######################################################################

data_KAYTEM
_chemical_name_common            (+-)-12-Epilycodoline
_chemical_formula_moiety         'C16 H25 N1 O2'
_chemical_name_systematic        12-hydroxy-15-methyllycopodan-5-one
_symmetry_cell_setting           monoclinic
_symmetry_space_group_name_H-M   'P 21/c'
_symmetry_Int_Tables_number      14
_space_group_name_Hall           '-P 2ybc'
loop_
_symmetry_equiv_pos_site_id
_symmetry_equiv_pos_as_xyz
1 x,y,z
2 -x,1/2+y,1/2-z
3 -x,-y,-z
4 x,1/2-y,1/2+z
_cell_length_a                   11.0578(8)
_cell_length_b                   8.8764(5)
_cell_length_c                   14.6334(12)
_cell_angle_alpha                90
_cell_angle_beta                 98.677(7)
_cell_angle_gamma                90
_cell_volume                     1419.88
_exptl_crystal_colour            'light colorless'
_exptl_crystal_description       block
_chemical_melting_point          '398-401 K'
_cell_formula_units_Z            4
_exptl_crystal_recrystallization_method 
'Re-crystallisation from solvent: CH2Cl2 / n-Hexane'
loop_
_atom_site_label
_atom_site_type_symbol
_atom_site_fract_x
_atom_site_fract_y
_atom_site_fract_z
O1 O 0.02149(17) 0.2464(2) 0.00853(14)
H1 H -0.0019 0.1586 0.0060
O2 O 0.3439(2) 0.3105(3) -0.12895(16)
N1 N 0.17095(19) -0.0132(2) 0.07706(15)
C1 C 0.2244(2) 0.1372(2) 0.06212(16)
C2 C 0.1291(2) 0.2600(3) 0.07671(18)
C3 C 0.0918(3) 0.2483(3) 0.1722(2)
H2 H 0.0282 0.3214 0.1779
H3 H 0.1615 0.2711 0.2187
C4 C 0.0448(3) 0.0901(4) 0.1886(2)
H4 H 0.0292 0.0820 0.2519
H5 H -0.0317 0.0732 0.1480
C5 C 0.1364(3) -0.0294(3) 0.1709(2)
H6 H 0.2090 -0.0210 0.2169
H7 H 0.1012 -0.1284 0.1768
C6 C 0.2530(3) -0.1370(3) 0.0620(2)
H8 H 0.2141 -0.2321 0.0723
H9 H 0.3274 -0.1294 0.1063
C7 C 0.2857(3) -0.1347(4) -0.0359(2)
H10 H 0.3500 -0.2078 -0.0397
H11 H 0.2146 -0.1652 -0.0790
C8 C 0.3277(3) 0.0172(3) -0.0643(2)
H12 H 0.3302 0.0174 -0.1303
H13 H 0.4098 0.0366 -0.0328
C9 C 0.2424(2) 0.1411(3) -0.04110(17)
H14 H 0.1622 0.1166 -0.0762
C10 C 0.2730(3) 0.2937(3) -0.07379(19)
C11 C 0.2042(3) 0.4256(3) -0.0420(2)
H15 H 0.1256 0.4335 -0.0814
H16 H 0.2496 0.5172 -0.0496
C12 C 0.1829(3) 0.4145(3) 0.05866(19)
H17 H 0.1233 0.4918 0.0692
C13 C 0.3022(3) 0.4452(3) 0.1246(2)
H18 H 0.3348 0.5418 0.1092
H19 H 0.2840 0.4517 0.1873
C14 C 0.3988(2) 0.3250(3) 0.12082(19)
H20 H 0.4275 0.3332 0.0608
C15 C 0.3455(2) 0.1682(3) 0.12740(17)
H21 H 0.3317 0.1518 0.1906
H22 H 0.4058 0.0951 0.1143
C16 C 0.5089(3) 0.3482(3) 0.1961(2)
H23 H 0.4833 0.3402 0.2557
H24 H 0.5431 0.4463 0.1895
H25 H 0.5694 0.2727 0.1903
loop_
_geom_bond_atom_site_label_1
_geom_bond_atom_site_label_2
_geom_bond_site_symmetry_1
_geom_bond_site_symmetry_2
O1 H1 1_555 1_555
O2 C10 1_555 1_555
N1 C1 1_555 1_555
C1 C2 1_555 1_555
C2 O1 1_555 1_555
C3 C2 1_555 1_555
H2 C3 1_555 1_555
H3 C3 1_555 1_555
C4 C3 1_555 1_555
H4 C4 1_555 1_555
H5 C4 1_555 1_555
C5 N1 1_555 1_555
H6 C5 1_555 1_555
H7 C5 1_555 1_555
C6 N1 1_555 1_555
H8 C6 1_555 1_555
H9 C6 1_555 1_555
C7 C6 1_555 1_555
H10 C7 1_555 1_555
H11 C7 1_555 1_555
C8 C7 1_555 1_555
H12 C8 1_555 1_555
H13 C8 1_555 1_555
C9 C1 1_555 1_555
H14 C9 1_555 1_555
C10 C9 1_555 1_555
C11 C10 1_555 1_555
H15 C11 1_555 1_555
H16 C11 1_555 1_555
C12 C2 1_555 1_555
H17 C12 1_555 1_555
C13 C12 1_555 1_555
H18 C13 1_555 1_555
H19 C13 1_555 1_555
C14 C13 1_555 1_555
H20 C14 1_555 1_555
C15 C1 1_555 1_555
H21 C15 1_555 1_555
H22 C15 1_555 1_555
C16 C14 1_555 1_555
H23 C16 1_555 1_555
H24 C16 1_555 1_555
H25 C16 1_555 1_555
C4 C5 1_555 1_555
C8 C9 1_555 1_555
C11 C12 1_555 1_555
C14 C15 1_555 1_555

#END
