
#######################################################################
#
#                 Cambridge Crystallographic Data Centre
#                                CCDC 
#
#######################################################################
#
# If this CIF has been generated from an entry in the Cambridge 
# Structural Database, then it will include bibliographic, chemical, 
# crystal, experimental, refinement or atomic coordinate data resulting 
# from the CCDC's data processing and validation procedures.
#
#######################################################################

data_KAZREL
_chemical_formula_moiety         'C11 H12 F3 N1 O1'
_chemical_name_systematic        1,1,1-trifluoro-2-(pyridin-3-yl)hex-4-en-2-ol
_symmetry_cell_setting           triclinic
_symmetry_space_group_name_H-M   'P -1'
_symmetry_Int_Tables_number      2
_space_group_name_Hall           '-P 1'
loop_
_symmetry_equiv_pos_site_id
_symmetry_equiv_pos_as_xyz
1 x,y,z
2 -x,-y,-z
_cell_length_a                   9.2081(17)
_cell_length_b                   10.881(2)
_cell_length_c                   12.396(2)
_cell_angle_alpha                64.322(4)
_cell_angle_beta                 85.777(4)
_cell_angle_gamma                86.065(4)
_cell_volume                     1115.37
_exptl_crystal_colour            colorless
_exptl_crystal_description       plate
_cell_formula_units_Z            4
loop_
_atom_site_label
_atom_site_type_symbol
_atom_site_fract_x
_atom_site_fract_y
_atom_site_fract_z
F1 F 0.40257(11) 0.80253(10) 0.88526(9)
F2 F 0.36288(10) 0.58717(10) 0.95982(9)
F3 F 0.54666(10) 0.66794(10) 0.83458(9)
O1 O 0.31932(12) 0.60098(11) 0.73468(11)
H1 H 0.402(2) 0.597(2) 0.703(2)
N1 N -0.04065(13) 0.89234(13) 0.81402(11)
C1 C 0.2033(2) 1.12653(18) 0.48785(18)
H2 H 0.2742 1.1173 0.5464
H3 H 0.1056 1.1439 0.5166
H4 H 0.2285 1.2029 0.4109
C2 C 0.20608(18) 0.99723(17) 0.47191(15)
H5 H 0.1515 1.0005 0.4085
C3 C 0.27506(18) 0.87881(17) 0.53511(14)
H6 H 0.2651 0.8079 0.5113
C4 C 0.36785(16) 0.84477(15) 0.64108(14)
H7 H 0.3676 0.9248 0.6594
H8 H 0.4696 0.8242 0.6204
C5 C 0.30996(15) 0.72032(14) 0.75334(13)
C6 C 0.15174(15) 0.74203(14) 0.79005(13)
C7 C 0.09814(15) 0.86756(14) 0.78544(13)
H9 H 0.1639 0.9395 0.7606
C8 C -0.13243(16) 0.78942(16) 0.85191(14)
H10 H -0.2307 0.8056 0.8731
C9 C -0.08951(16) 0.66038(16) 0.86135(15)
H11 H -0.1570 0.5896 0.8890
C10 C 0.05440(16) 0.63668(15) 0.82952(14)
H12 H 0.0860 0.5494 0.8346
C11 C 0.40551(16) 0.69374(16) 0.85921(14)
F4 F 1.00372(10) 0.15095(10) 0.91591(9)
F5 F 1.04045(10) 0.34817(10) 0.76788(9)
F6 F 0.87113(10) 0.32792(10) 0.90426(9)
O2 O 0.90819(12) 0.17041(11) 0.70233(10)
H13 H 0.915(2) 0.087(2) 0.747(2)
N2 N 0.57725(13) 0.55204(13) 0.63223(12)
C12 C 0.37590(19) 0.2010(2) 0.87951(17)
H14 H 0.4408 0.1931 0.9416
H15 H 0.2864 0.1531 0.9174
H16 H 0.3515 0.2975 0.8298
C13 C 0.45056(18) 0.13858(17) 0.80282(16)
H17 H 0.3892 0.1148 0.7570
C14 C 0.59298(18) 0.11232(16) 0.79095(15)
H18 H 0.6228 0.0728 0.7375
C15 C 0.71062(16) 0.13993(14) 0.85500(14)
H19 H 0.7585 0.0523 0.9084
H20 H 0.6658 0.1835 0.9055
C16 C 0.82710(15) 0.23390(14) 0.76643(13)
C17 C 0.75901(15) 0.36809(14) 0.67524(13)
C18 C 0.64781(15) 0.43984(14) 0.70971(14)
H21 H 0.6207 0.4074 0.7926
C19 C 0.61811(17) 0.59863(15) 0.51519(14)
H22 H 0.5678 0.6770 0.4594
C20 C 0.73000(17) 0.53757(16) 0.47247(14)
H23 H 0.7575 0.5749 0.3894
C21 C 0.80187(16) 0.41992(15) 0.55379(14)
H24 H 0.8788 0.3759 0.5267
C22 C 0.93584(16) 0.26565(15) 0.83892(14)
loop_
_geom_bond_atom_site_label_1
_geom_bond_atom_site_label_2
_geom_bond_site_symmetry_1
_geom_bond_site_symmetry_2
F1 C11 1_555 1_555
F2 C11 1_555 1_555
F3 C11 1_555 1_555
O1 H1 1_555 1_555
N1 C7 1_555 1_555
C1 H2 1_555 1_555
H3 C1 1_555 1_555
H4 C1 1_555 1_555
C2 C1 1_555 1_555
H5 C2 1_555 1_555
C3 C2 1_555 1_555
H6 C3 1_555 1_555
C4 C3 1_555 1_555
H7 C4 1_555 1_555
H8 C4 1_555 1_555
C5 O1 1_555 1_555
C6 C5 1_555 1_555
C7 C6 1_555 1_555
H9 C7 1_555 1_555
C8 N1 1_555 1_555
H10 C8 1_555 1_555
C9 C8 1_555 1_555
H11 C9 1_555 1_555
C10 C6 1_555 1_555
H12 C10 1_555 1_555
C11 C5 1_555 1_555
F4 C22 1_555 1_555
F5 C22 1_555 1_555
F6 C22 1_555 1_555
O2 H13 1_555 1_555
N2 C18 1_555 1_555
C12 H14 1_555 1_555
H15 C12 1_555 1_555
H16 C12 1_555 1_555
C13 C12 1_555 1_555
H17 C13 1_555 1_555
C14 C13 1_555 1_555
H18 C14 1_555 1_555
C15 C14 1_555 1_555
H19 C15 1_555 1_555
H20 C15 1_555 1_555
C16 O2 1_555 1_555
C17 C16 1_555 1_555
C18 C17 1_555 1_555
H21 C18 1_555 1_555
C19 N2 1_555 1_555
H22 C19 1_555 1_555
C20 C19 1_555 1_555
H23 C20 1_555 1_555
C21 C17 1_555 1_555
H24 C21 1_555 1_555
C22 C16 1_555 1_555
C4 C5 1_555 1_555
C9 C10 1_555 1_555
C15 C16 1_555 1_555
C20 C21 1_555 1_555

#END
