
#######################################################################
#
#                 Cambridge Crystallographic Data Centre
#                                CCDC 
#
#######################################################################
#
# If this CIF has been generated from an entry in the Cambridge 
# Structural Database, then it will include bibliographic, chemical, 
# crystal, experimental, refinement or atomic coordinate data resulting 
# from the CCDC's data processing and validation procedures.
#
#######################################################################

data_KEBDEB
_chemical_formula_moiety         'C38 H29 N3 O2'
_chemical_name_systematic        
trans-(M)-11-(Phenyldiazenyl)-4-(1-phenylethyl)-6,7-dihydro-1H-dinaphtho(2,1-e:1',2'-g)isoindole-3,5(2H,4H)-dione
_symmetry_cell_setting           triclinic
_symmetry_space_group_name_H-M   'P 1'
_symmetry_Int_Tables_number      1
_space_group_name_Hall           'P 1'
loop_
_symmetry_equiv_pos_site_id
_symmetry_equiv_pos_as_xyz
1 x,y,z
_cell_length_a                   10.3891(1)
_cell_length_b                   11.2798(2)
_cell_length_c                   13.7114(2)
_cell_angle_alpha                96.037(1)
_cell_angle_beta                 111.964(1)
_cell_angle_gamma                93.039(1)
_cell_volume                     1474.46
_chemical_melting_point          '225 deg.C'
_cell_formula_units_Z            2
_exptl_crystal_recrystallization_method acetone/methanol/water
loop_
_atom_site_label
_atom_site_type_symbol
_atom_site_fract_x
_atom_site_fract_y
_atom_site_fract_z
O1 O 0.4833(4) 0.7706(4) 0.11102(24)
O2 O 0.7751(3) 0.6605(3) -0.05550(25)
N1 N 0.6562(4) 0.7188(4) 0.0515(3)
N2 N 0.1885(4) 0.8331(4) -0.4409(3)
N3 N 0.1457(4) 0.8325(4) -0.5403(3)
C1 C 0.5212(5) 0.7434(5) 0.0397(3)
C2 C 0.6685(5) 0.6854(4) -0.0465(3)
C3 C 0.5274(5) 0.6906(4) -0.1283(3)
C4 C 0.4389(5) 0.7272(4) -0.0786(3)
C5 C 0.3023(5) 0.7447(4) -0.1347(3)
C6 C 0.2005(5) 0.7824(5) -0.0845(3)
C7 C 0.0556(5) 0.7195(5) -0.1522(4)
C8 C 0.0116(5) 0.7541(5) -0.2634
C9 C -0.1208(5) 0.7846(5) -0.3173(4)
C10 C -0.1547(5) 0.8229(5) -0.4171(4)
C11 C -0.0554(5) 0.8370(5) -0.4584(4)
C12 C 0.0806(5) 0.8070(4) -0.4043(3)
C13 C 0.1129(4) 0.7597(4) -0.3069(3)
C14 C 0.2524(4) 0.7207(4) -0.2478(3)
C15 C 0.3360(5) 0.6649(4) -0.2965(3)
C16 C 0.2791(5) 0.6048(4) -0.4090(3)
C17 C 0.1430(5) 0.5505(4) -0.4576(4)
C18 C 0.0911(5) 0.4984(5) -0.5640(4)
C19 C 0.1780(6) 0.4977(5) -0.6200(4)
C20 C 0.3690(5) 0.5981(4) -0.4635(4)
C21 C 0.3159(5) 0.5458(5) -0.5708(4)
C22 C 0.5187(5) 0.6481(5) -0.4069(4)
C23 C 0.5736(5) 0.6170(4) -0.2923(3)
C24 C 0.4778(5) 0.6580(4) -0.2382(3)
C25 C 0.2516(5) 0.8614(4) -0.5771(4)
C26 C 0.3765(6) 0.9322(5) -0.5157(4)
C27 C 0.4734(6) 0.9558(5) -0.5599(5)
C28 C 0.4469(6) 0.9088(6) -0.6657(5)
C29 C 0.3246(7) 0.8402(6) -0.7250(4)
C30 C 0.2246(6) 0.8187(5) -0.6830(4)
C31 C 0.7741(5) 0.7122(5) 0.1544(3)
C32 C 0.8070(6) 0.8327(6) 0.2270(4)
C33 C 0.7461(5) 0.6027(5) 0.2002(4)
C34 C 0.7828(6) 0.4946(6) 0.1664(4)
C35 C 0.7551(7) 0.3888(6) 0.1979(5)
C36 C 0.6878(7) 0.3877(7) 0.2664(6)
C37 C 0.6510(7) 0.4936(8) 0.3045(6)
C38 C 0.6783(7) 0.6031(7) 0.2704(5)
H1 H 0.197 0.877 -0.080
H2 H 0.233 0.756 -0.005
H3 H -0.017 0.747 -0.118
H4 H 0.058 0.623 -0.156
H5 H -0.198 0.781 -0.282
H6 H -0.259 0.841 -0.462
H7 H -0.079 0.872 -0.533
H8 H 0.077 0.549 -0.413
H9 H -0.016 0.459 -0.603
H10 H 0.140 0.460 -0.703
H11 H 0.381 0.543 -0.616
H12 H 0.527 0.744 -0.405
H13 H 0.581 0.610 -0.448
H14 H 0.577 0.521 -0.294
H15 H 0.676 0.662 -0.250
H16 H 0.397 0.968 -0.434
H17 H 0.570 1.010 -0.513
H18 H 0.522 0.926 -0.699
H19 H 0.305 0.803 -0.806
H20 H 0.125 0.768 -0.732
H21 H 0.864 0.699 0.136
H22 H 0.827 0.904 0.186
H23 H 0.899 0.829 0.298
H24 H 0.720 0.849 0.249
H25 H 0.836 0.494 0.113
H26 H 0.788 0.307 0.170
H27 H 0.666 0.305 0.291
H28 H 0.598 0.491 0.359
H29 H 0.648 0.685 0.300
O3 O 0.45539 0.24736 0.36016
O4 O -0.0142(4) 0.1331(4) 0.20035(24)
N4 N 0.2227(4) 0.1847(4) 0.2559(3)
N5 N 0.2992(4) 0.0767(4) 0.8484(3)
N6 N 0.2392(4) 0.0795(4) 0.7491(3)
C39 C 0.3383(5) 0.2207(4) 0.3540(3)
C40 C 0.1010(5) 0.1624(5) 0.2709(3)
C41 C 0.1376(5) 0.1788(4) 0.3890(3)
C42 C 0.0563(5) 0.1654(4) 0.4469(3)
C43 C -0.1013(5) 0.1344(5) 0.3991(3)
C44 C -0.1651(5) 0.2025(5) 0.4701(4)
C45 C -0.1023(5) 0.1677(5) 0.5802(3)
C46 C -0.1806(5) 0.1443(5) 0.6397(4)
C47 C -0.1209(5) 0.1043(5) 0.7389(4)
C48 C 0.0178(5) 0.0841(5) 0.7750(4)
C49 C 0.0990(5) 0.1081(4) 0.7187(3)
C50 C 0.0415(5) 0.1566(4) 0.6212(3)
C51 C 0.1242(5) 0.1901(4) 0.5595(3)
C52 C 0.2616(4) 0.2448(4) 0.6057(3)
C53 C 0.3258(5) 0.3063(4) 0.7179(3)
C54 C 0.2457(5) 0.3623(4) 0.7682(3)
C55 C 0.3066(5) 0.4133(5) 0.8744(4)
C56 C 0.4487(5) 0.4117(5) 0.9297(4)
C57 C 0.5315(5) 0.3641(5) 0.8781(4)
C58 C 0.4716(5) 0.3131(4) 0.7719(3)
C59 C 0.5567(5) 0.2646(5) 0.7123(3)
C60 C 0.4988(5) 0.2944(5) 0.5980(3)
C61 C 0.3453(5) 0.2511(4) 0.5455(3)
C62 C 0.2796(5) 0.2154(4) 0.4365(3)
C63 C 0.4390(5) 0.0445(4) 0.8776(4)
C64 C 0.5268(6) 0.0801(5) 0.9845(4)
C65 C 0.6638(6) 0.0542(6) 1.0179(5)
C66 C 0.7147(6) -0.0035(6) 0.9516(5)
C67 C 0.6261(6) -0.0425(5) 0.8450(5)
C68 C 0.4882(5) -0.0172(5) 0.8087(4)
C69 C 0.2381(6) 0.1902(5) 0.1529(3)
C70 C 0.1823(8) 0.0737(6) 0.0797(4)
C71 C 0.1820(5) 0.3021(5) 0.1087(4)
C72 C 0.2675(7) 0.4082(5) 0.1425(4)
C73 C 0.2225(9) 0.5146(6) 0.1104(5)
C74 C 0.0870(9) 0.5184(7) 0.0448(6)
C75 C -0.0019(7) 0.4138(8) 0.0064(6)
C76 C 0.0425(7) 0.3046(7) 0.0390(5)
H30 H -0.126 0.039 0.393
H31 H -0.142 0.161 0.321
H32 H -0.144 0.298 0.474
H33 H -0.278 0.180 0.438
H34 H -0.289 0.160 0.610
H35 H -0.182 0.088 0.786
H36 H 0.064 0.050 0.849
H37 H 0.136 0.367 0.724
H38 H 0.244 0.453 0.914
H39 H 0.495 0.449 1.013
H40 H 0.643 0.365 0.921
H41 H 0.554 0.168 0.710
H42 H 0.664 0.303 0.752
H43 H 0.513 0.391 0.600
H44 H 0.555 0.252 0.555
H45 H 0.486 0.127 1.038
H46 H 0.731 0.081 1.099
H47 H 0.824 -0.020 0.980
H48 H 0.666 -0.091 0.792
H49 H 0.420 -0.045 0.727
H50 H 0.348 0.201 0.170
H51 H 0.228 0.000 0.119
H52 H 0.206 0.078 0.010
H53 H 0.070 0.061 0.056
H54 H 0.374 0.406 0.196
H55 H 0.296 0.596 0.137
H56 H 0.048 0.602 0.024
H57 H -0.107 0.417 -0.050
H58 H -0.029 0.223 0.012
loop_
_geom_bond_atom_site_label_1
_geom_bond_atom_site_label_2
_geom_bond_site_symmetry_1
_geom_bond_site_symmetry_2
O1 C1 1_555 1_555
O2 C2 1_555 1_555
O3 C39 1_555 1_555
O4 C40 1_555 1_555
N1 C1 1_555 1_555
N2 N3 1_555 1_555
N3 C25 1_555 1_555
N4 C39 1_555 1_555
N5 N6 1_555 1_555
N6 C49 1_555 1_555
C1 C4 1_555 1_555
C2 N1 1_555 1_555
C3 C2 1_555 1_555
C4 C3 1_555 1_555
C5 C4 1_555 1_555
C6 C5 1_555 1_555
C7 C6 1_555 1_555
C8 C7 1_555 1_555
C9 C8 1_555 1_555
C10 C9 1_555 1_555
C11 C10 1_555 1_555
C12 N2 1_555 1_555
C13 C8 1_555 1_555
C14 C5 1_555 1_555
C15 C14 1_555 1_555
C16 C15 1_555 1_555
C17 C16 1_555 1_555
C18 C17 1_555 1_555
C19 C18 1_555 1_555
C20 C16 1_555 1_555
C21 C19 1_555 1_555
C22 C20 1_555 1_555
C23 C22 1_555 1_555
C24 C3 1_555 1_555
C25 C26 1_555 1_555
C26 C27 1_555 1_555
C27 C28 1_555 1_555
C28 C29 1_555 1_555
C29 C30 1_555 1_555
C30 C25 1_555 1_555
C31 N1 1_555 1_555
C32 C31 1_555 1_555
C33 C31 1_555 1_555
C34 C33 1_555 1_555
C35 C34 1_555 1_555
C36 C35 1_555 1_555
C37 C36 1_555 1_555
C38 C33 1_555 1_555
C39 C62 1_555 1_555
C40 N4 1_555 1_555
C41 C40 1_555 1_555
C42 C41 1_555 1_555
C43 C42 1_555 1_555
C44 C43 1_555 1_555
C45 C44 1_555 1_555
C46 C45 1_555 1_555
C47 C46 1_555 1_555
C48 C47 1_555 1_555
C49 C48 1_555 1_555
C50 C45 1_555 1_555
C51 C42 1_555 1_555
C52 C51 1_555 1_555
C53 C52 1_555 1_555
C54 C53 1_555 1_555
C55 C54 1_555 1_555
C56 C55 1_555 1_555
C57 C56 1_555 1_555
C58 C53 1_555 1_555
C59 C58 1_555 1_555
C60 C59 1_555 1_555
C61 C52 1_555 1_555
C62 C41 1_555 1_555
C63 N5 1_555 1_555
C64 C63 1_555 1_555
C65 C64 1_555 1_555
C66 C65 1_555 1_555
C67 C66 1_555 1_555
C68 C63 1_555 1_555
C69 N4 1_555 1_555
C70 C69 1_555 1_555
C71 C69 1_555 1_555
C72 C71 1_555 1_555
C73 C72 1_555 1_555
C74 C73 1_555 1_555
C75 C74 1_555 1_555
C76 C71 1_555 1_555
H1 C6 1_555 1_555
H2 C6 1_555 1_555
H3 C7 1_555 1_555
H4 C7 1_555 1_555
H5 C9 1_555 1_555
H6 C10 1_555 1_555
H7 C11 1_555 1_555
H8 C17 1_555 1_555
H9 C18 1_555 1_555
H10 C19 1_555 1_555
H11 C21 1_555 1_555
H12 C22 1_555 1_555
H13 C22 1_555 1_555
H14 C23 1_555 1_555
H15 C23 1_555 1_555
H16 C26 1_555 1_555
H17 C27 1_555 1_555
H18 C28 1_555 1_555
H19 C29 1_555 1_555
H20 C30 1_555 1_555
H21 C31 1_555 1_555
H22 C32 1_555 1_555
H23 C32 1_555 1_555
H24 C32 1_555 1_555
H25 C34 1_555 1_555
H26 C35 1_555 1_555
H27 C36 1_555 1_555
H28 C37 1_555 1_555
H29 C38 1_555 1_555
H30 C43 1_555 1_555
H31 C43 1_555 1_555
H32 C44 1_555 1_555
H33 C44 1_555 1_555
H34 C46 1_555 1_555
H35 C47 1_555 1_555
H36 C48 1_555 1_555
H37 C54 1_555 1_555
H38 C55 1_555 1_555
H39 C56 1_555 1_555
H40 C57 1_555 1_555
H41 C59 1_555 1_555
H42 C59 1_555 1_555
H43 C60 1_555 1_555
H44 C60 1_555 1_555
H45 C64 1_555 1_555
H46 C65 1_555 1_555
H47 C66 1_555 1_555
H48 C67 1_555 1_555
H49 C68 1_555 1_555
H50 C69 1_555 1_555
H51 C70 1_555 1_555
H52 C70 1_555 1_555
H53 C70 1_555 1_555
H54 C72 1_555 1_555
H55 C73 1_555 1_555
H56 C74 1_555 1_555
H57 C75 1_555 1_555
H58 C76 1_555 1_555
C11 C12 1_555 1_555
C12 C13 1_555 1_555
C13 C14 1_555 1_555
C15 C24 1_555 1_555
C20 C21 1_555 1_555
C23 C24 1_555 1_555
C37 C38 1_555 1_555
C49 C50 1_555 1_555
C50 C51 1_555 1_555
C57 C58 1_555 1_555
C60 C61 1_555 1_555
C61 C62 1_555 1_555
C67 C68 1_555 1_555
C75 C76 1_555 1_555

#END
