
#######################################################################
#
#                 Cambridge Crystallographic Data Centre
#                                CCDC 
#
#######################################################################
#
# If this CIF has been generated from an entry in the Cambridge 
# Structural Database, then it will include bibliographic, chemical, 
# crystal, experimental, refinement or atomic coordinate data resulting 
# from the CCDC's data processing and validation procedures.
#
#######################################################################

data_KEBPEM
_chemical_formula_moiety         'C28 H19 O16 S4 5-,5(K1 1+),8(H2 O1)'
_chemical_name_systematic        
'Pentapotassium (25,26,27-trihydroxycalix(4)arene-28-oxide-5,11,17,23-tetrasulfonate) octahydrate clathrate'
_symmetry_cell_setting           triclinic
_symmetry_space_group_name_H-M   'P -1'
_symmetry_Int_Tables_number      2
_space_group_name_Hall           '-P 1'
loop_
_symmetry_equiv_pos_site_id
_symmetry_equiv_pos_as_xyz
1 x,y,z
2 -x,-y,-z
_cell_length_a                   11.815(9)
_cell_length_b                   13.636(6)
_cell_length_c                   14.040(9)
_cell_angle_alpha                100.24(5)
_cell_angle_beta                 111.86(9)
_cell_angle_gamma                95.14(9)
_cell_volume                     2035.62
_cell_formula_units_Z            2
loop_
_atom_site_label
_atom_site_type_symbol
_atom_site_fract_x
_atom_site_fract_y
_atom_site_fract_z
K1 K 0.2698(5) 0.0707(5) 0.5848(6)
K2 K 0.5639(5) 0.4425(5) 0.3876(5)
K3 K 0.8573(5) 0.4124(6) 0.2550(6)
K4 K 0.7556(9) 0.7357(7) 0.5860(7)
K5 K 0.9463(6) 0.2141(7) 0.4907(8)
S1 S 0.2304(6) 0.3558(5) 0.6820(5)
S2 S 0.3864(6) -0.1819(5) 0.6523(5)
S3 S 0.7766(6) 0.4959(5) 0.6518(5)
S4 S 0.9945(6) 0.0075(5) 0.6580(5)
O1 O 0.634(1) 0.308(1) 1.066(1)
O2 O 0.701(1) 0.134(1) 1.029(1)
O3 O 0.912(1) 0.194(1) 1.035(1)
O4 O 0.878(1) 0.382(1) 1.057(1)
O5 O 0.269(2) 0.449(1) 0.661(1)
O6 O 0.207(2) 0.268(1) 0.597(1)
O7 O 0.124(2) 0.363(1) 0.716(1)
O8 O 0.307(2) -0.133(2) 0.577(2)
O9 O 0.321(2) -0.256(2) 0.684(2)
O10 O 0.471(1) -0.230(1) 0.613(1)
O11 O 0.739(2) 0.405(2) 0.570(2)
O12 O 0.889(2) 0.559(1) 0.664(1)
O13 O 0.678(2) 0.555(1) 0.634(1)
O14 O 1.130(2) 0.014(2) 0.693(2)
O15 O 0.931(2) -0.094(2) 0.621(2)
O16 O 0.940(2) 0.064(2) 0.584(2)
C1 C 0.545(2) 0.314(2) 0.972(2)
C2 C 0.554(2) 0.402(2) 0.937(2)
C3 C 0.456(2) 0.416(2) 0.845(2)
C4 C 0.355(2) 0.337(2) 0.795(2)
C5 C 0.348(2) 0.247(2) 0.827(2)
C6 C 0.446(2) 0.234(2) 0.919(2)
C7 C 0.438(2) 0.136(2) 0.951(2)
C8 C 0.629(2) 0.061(2) 0.945(2)
C9 C 0.497(2) 0.057(2) 0.899(2)
C10 C 0.426(2) -0.019(2) 0.813(2)
C11 C 0.474(2) -0.087(2) 0.763(2)
C12 C 0.606(2) -0.085(2) 0.812(2)
C13 C 0.679(2) -0.013(2) 0.899(2)
C14 C 0.820(2) -0.016(2) 0.952(2)
C15 C 0.931(2) 0.152(2) 0.947(2)
C16 C 0.890(2) 0.048(2) 0.905(2)
C17 C 0.910(2) 0.004(2) 0.815(2)
C18 C 0.972(2) 0.061(2) 0.774(2)
C19 C 1.015(2) 0.164(2) 0.816(2)
C20 C 0.995(2) 0.211(2) 0.905(2)
C21 C 1.035(2) 0.325(2) 0.948(2)
C22 C 0.853(2) 0.407(2) 0.963(2)
C23 C 0.926(2) 0.380(2) 0.904(2)
C24 C 0.901(2) 0.408(2) 0.812(2)
C25 C 0.802(2) 0.459(2) 0.769(2)
C26 C 0.733(2) 0.487(2) 0.832(2)
C27 C 0.756(2) 0.457(2) 0.925(2)
C28 C 0.672(2) 0.483(2) 0.987(2)
O17 O 0.845(2) 0.748(2) 0.803(2)
O18 O 0.523(2) 0.655(2) 0.422(2)
O19 O 0.484(2) 0.814(2) 0.303(2)
O20 O 0.450(2) 0.337(2) 0.174(2)
O21 O 0.633(2) 0.912(2) 0.564(2)
O22 O 0.703(2) 0.133(2) 0.634(2)
O23 O 1.105(2) 0.782(2) 0.743(2)
O24 O 1.072(3) 0.591(2) 0.523(2)
loop_
_geom_bond_atom_site_label_1
_geom_bond_atom_site_label_2
_geom_bond_site_symmetry_1
_geom_bond_site_symmetry_2
S1 O5 1_555 1_555
S2 O8 1_555 1_555
S3 O11 1_555 1_555
S4 O14 1_555 1_555
O1 C1 1_555 1_555
O2 C8 1_555 1_555
O3 C15 1_555 1_555
O4 C22 1_555 1_555
O6 S1 1_555 1_555
O7 S1 1_555 1_555
O9 S2 1_555 1_555
O10 S2 1_555 1_555
O12 S3 1_555 1_555
O13 S3 1_555 1_555
O15 S4 1_555 1_555
O16 S4 1_555 1_555
C1 C2 1_555 1_555
C2 C3 1_555 1_555
C3 C4 1_555 1_555
C4 S1 1_555 1_555
C5 C4 1_555 1_555
C6 C1 1_555 1_555
C7 C6 1_555 1_555
C8 C9 1_555 1_555
C9 C7 1_555 1_555
C10 C9 1_555 1_555
C11 S2 1_555 1_555
C12 C11 1_555 1_555
C13 C8 1_555 1_555
C14 C13 1_555 1_555
C15 C16 1_555 1_555
C16 C14 1_555 1_555
C17 C16 1_555 1_555
C18 S4 1_555 1_555
C19 C18 1_555 1_555
C20 C15 1_555 1_555
C21 C20 1_555 1_555
C22 C23 1_555 1_555
C23 C21 1_555 1_555
C24 C23 1_555 1_555
C25 S3 1_555 1_555
C26 C25 1_555 1_555
C27 C22 1_555 1_555
C28 C2 1_555 1_555
C5 C6 1_555 1_555
C10 C11 1_555 1_555
C12 C13 1_555 1_555
C17 C18 1_555 1_555
C19 C20 1_555 1_555
C24 C25 1_555 1_555
C26 C27 1_555 1_555
C27 C28 1_555 1_555

#END
