
#######################################################################
#
#                 Cambridge Crystallographic Data Centre
#                                CCDC 
#
#######################################################################
#
# If this CIF has been generated from an entry in the Cambridge 
# Structural Database, then it will include bibliographic, chemical, 
# crystal, experimental, refinement or atomic coordinate data resulting 
# from the CCDC's data processing and validation procedures.
#
#######################################################################

data_KEBPUC
_chemical_formula_moiety         'C28 H19 O16 S4 5-,5(Cs1 1+),4(H2 O1)'
_chemical_name_systematic        
'Pentacesium (25,26,27-trihydroxycalix(4)arene-28-oxide-5,11,17,23-tetrasulfonate) tetrahydrate clathrate'
_symmetry_cell_setting           monoclinic
_symmetry_space_group_name_H-M   'P 21/n'
_symmetry_Int_Tables_number      14
_space_group_name_Hall           '-P 2yn'
loop_
_symmetry_equiv_pos_site_id
_symmetry_equiv_pos_as_xyz
1 x,y,z
2 1/2-x,1/2+y,1/2-z
3 -x,-y,-z
4 1/2+x,1/2-y,1/2+z
_cell_length_a                   11.704(3)
_cell_length_b                   29.747(9)
_cell_length_c                   12.604(4)
_cell_angle_alpha                90
_cell_angle_beta                 91.63(2)
_cell_angle_gamma                90
_cell_volume                     4386.42
_cell_formula_units_Z            4
loop_
_atom_site_label
_atom_site_type_symbol
_atom_site_fract_x
_atom_site_fract_y
_atom_site_fract_z
Cs1 Cs 1.24859(7) 0.15244(3) 1.37412(7)
Cs2 Cs 0.32949(8) 0.04799(4) 1.17334(8)
Cs3 Cs 0.28037(8) -0.01694(3) 0.84356(8)
Cs4 Cs 0.8831(2) 0.09962(8) 0.8582(2)
S1 S 0.5553(3) 0.0625(1) 0.9108(3)
S2 S 0.5915(3) 0.0988(1) 0.3520(3)
S3 S 1.1840(3) 0.0915(1) 0.6280(3)
S4 S 1.0016(3) 0.1145(1) 1.1997(3)
O1 O 0.5923(8) 0.2581(3) 0.8429(7)
O2 O 0.7064(7) 0.2441(3) 0.6548(7)
O3 O 0.9159(7) 0.2532(3) 0.7156(7)
O4 O 0.8431(7) 0.2544(3) 0.9029(7)
O5 O 0.6754(9) 0.0482(3) 0.9227(9)
O6 O 0.501(1) 0.0415(4) 0.821(1)
O7 O 0.498(1) 0.0563(4) 1.008(1)
O8 O 0.6145(8) 0.1148(4) 0.2450(8)
O9 O 0.6686(9) 0.0612(4) 0.3810(9)
O10 O 0.4732(8) 0.0894(4) 0.3667(8)
O11 O 1.142(1) 0.0751(4) 0.523(1)
O12 O 1.171(2) 0.0629(6) 0.709(1)
O13 O 1.301(1) 0.1074(5) 0.609(1)
O14 O 1.1249(8) 0.1082(4) 1.1862(8)
O15 O 0.983(1) 0.1297(5) 1.3062(8)
O16 O 0.935(1) 0.0758(4) 1.170(1)
C1 C 0.5820(9) 0.2123(4) 0.8584(9)
C2 C 0.6217(9) 0.1945(4) 0.9542(9)
C3 C 0.607(1) 0.1474(4) 0.966(1)
C4 C 0.561(1) 0.1211(5) 0.888(1)
C5 C 0.521(1) 0.1402(4) 0.796(1)
C6 C 0.5306(9) 0.1860(4) 0.7772(9)
C7 C 0.493(1) 0.2047(4) 0.6701(9)
C8 C 0.6842(9) 0.2103(4) 0.5848(9)
C9 C 0.576(1) 0.1910(4) 0.586(1)
C10 C 0.548(1) 0.1559(4) 0.514(1)
C11 C 0.625(1) 0.1424(4) 0.442(1)
C12 C 0.736(1) 0.1612(4) 0.440(1)
C13 C 0.765(1) 0.1956(4) 0.5128(9)
C14 C 0.885(1) 0.2146(5) 0.511(1)
C15 C 0.977(1) 0.2178(4) 0.696(1)
C16 C 0.966(1) 0.1961(4) 0.5971(9)
C17 C 1.027(1) 0.1575(5) 0.578(1)
C18 C 1.106(1) 0.1404(5) 0.652(1)
C19 C 1.120(1) 0.1621(4) 0.751(1)
C20 C 1.061(1) 0.2009(4) 0.775(1)
C21 C 1.074(1) 0.2238(5) 0.878(1)
C22 C 0.883(1) 0.2222(4) 0.9701(9)
C23 C 0.996(1) 0.2066(4) 0.964(1)
C24 C 1.033(1) 0.1742(4) 1.038(1)
C25 C 0.959(1) 0.1588(4) 1.112(1)
C26 C 0.847(1) 0.1736(4) 1.117(1)
C27 C 0.810(1) 0.2070(4) 1.044(1)
C28 C 0.683(1) 0.2209(4) 1.041(1)
O17 O 0.4102(9) 0.1587(4) 0.1698(9)
O18 O 0.305(1) 0.1440(8) 0.973(1)
O19 O 0.235(2) 0.0159(7) 0.387(2)
O20 O 0.242(2) -0.0849(8) 0.352(2)
O21 O 0.155(3) 0.0690(9) -0.053(2)
O22 O 0.957(4) 0.007(2) 0.758(3)
O23 O 0.920(5) -0.007(2) 0.932(6)
Cs5? Cs 0.4833(2) 0.02536(8) 0.5610(2)
Cs6? Cs 0.9245(2) 0.0369(1) 0.4347(2)
loop_
_geom_bond_atom_site_label_1
_geom_bond_atom_site_label_2
_geom_bond_site_symmetry_1
_geom_bond_site_symmetry_2
S1 O5 1_555 1_555
S2 O8 1_555 1_555
S3 O11 1_555 1_555
S4 O14 1_555 1_555
O1 C1 1_555 1_555
O2 C8 1_555 1_555
O3 C15 1_555 1_555
O4 C22 1_555 1_555
O6 S1 1_555 1_555
O7 S1 1_555 1_555
O9 S2 1_555 1_555
O10 S2 1_555 1_555
O12 S3 1_555 1_555
O13 S3 1_555 1_555
O15 S4 1_555 1_555
O16 S4 1_555 1_555
C1 C2 1_555 1_555
C2 C3 1_555 1_555
C3 C4 1_555 1_555
C4 S1 1_555 1_555
C5 C4 1_555 1_555
C6 C1 1_555 1_555
C7 C6 1_555 1_555
C8 C9 1_555 1_555
C9 C7 1_555 1_555
C10 C9 1_555 1_555
C11 S2 1_555 1_555
C12 C11 1_555 1_555
C13 C8 1_555 1_555
C14 C13 1_555 1_555
C15 C16 1_555 1_555
C16 C14 1_555 1_555
C17 C16 1_555 1_555
C18 S3 1_555 1_555
C19 C18 1_555 1_555
C20 C15 1_555 1_555
C21 C20 1_555 1_555
C22 C23 1_555 1_555
C23 C21 1_555 1_555
C24 C23 1_555 1_555
C25 S4 1_555 1_555
C26 C25 1_555 1_555
C27 C22 1_555 1_555
C28 C2 1_555 1_555
C5 C6 1_555 1_555
C10 C11 1_555 1_555
C12 C13 1_555 1_555
C17 C18 1_555 1_555
C19 C20 1_555 1_555
C24 C25 1_555 1_555
C26 C27 1_555 1_555
C27 C28 1_555 1_555

#END
