
#######################################################################
#
#                 Cambridge Crystallographic Data Centre
#                                CCDC 
#
#######################################################################
#
# If this CIF has been generated from an entry in the Cambridge 
# Structural Database, then it will include bibliographic, chemical, 
# crystal, experimental, refinement or atomic coordinate data resulting 
# from the CCDC's data processing and validation procedures.
#
#######################################################################

data_KEBZOJ
_chemical_formula_moiety         'C33 H36 O6'
_chemical_name_systematic        
syn-2^5^-(2,4-dimethoxyphenyl)-1^2^,1^4^,3^2^,3^4^-tetramethoxy-2^2^,2^4^,2^6^-trimethyl-1^1^,2^1^:2^3^,3^1^-terphenyl
_symmetry_cell_setting           orthorhombic
_symmetry_space_group_name_H-M   'P n a 21'
_symmetry_Int_Tables_number      33
_space_group_name_Hall           'P 2c -2n'
loop_
_symmetry_equiv_pos_site_id
_symmetry_equiv_pos_as_xyz
1 x,y,z
2 -x,-y,1/2+z
3 1/2+x,1/2-y,z
4 1/2-x,1/2+y,1/2+z
_cell_length_a                   24.4024(7)
_cell_length_b                   9.1476(3)
_cell_length_c                   25.1108(7)
_cell_angle_alpha                90
_cell_angle_beta                 90
_cell_angle_gamma                90
_cell_volume                     5605.32
_exptl_crystal_colour            colorless
_exptl_crystal_description       rod
_cell_formula_units_Z            8
_chemical_properties_physical    ', Heat-sensitive'
_exptl_crystal_recrystallization_method dichloromethane/hexanes
_exptl_crystal_preparation       
'The data crystal was mounted using oil (Parantone-N, Exxon) to a  0.3 mm cryo-loop (Hampton Research) with the (3 -1 -8) scattering  planes roughly normal to the spindle axis.'
loop_
_atom_site_label
_atom_site_type_symbol
_atom_site_fract_x
_atom_site_fract_y
_atom_site_fract_z
O1 O 0.2594(2) 0.1911(5) 0.5462(2)
O2 O 0.2463(2) -0.3275(6) 0.5506(2)
O3 O 0.3957(2) 0.6249(6) 0.5860(2)
O4 O 0.5922(2) 0.5972(6) 0.6205(2)
O5 O 0.2117(2) 0.5962(6) 0.7090(2)
O6 O 0.1750(2) 0.5691(7) 0.8993(2)
C1 C 0.3081(3) 0.2078(8) 0.6467(3)
C2 C 0.3565(3) 0.2755(8) 0.6326(3)
C3 C 0.3754(3) 0.3989(7) 0.6611(3)
C4 C 0.3438(3) 0.4571(8) 0.7024(3)
C5 C 0.2948(3) 0.3880(8) 0.7170(3)
C6 C 0.2764(3) 0.2614(8) 0.6897(3)
C7 C 0.2913(3) 0.0668(8) 0.6215(3)
C8 C 0.2676(3) 0.0583(8) 0.5711(3)
C9 C 0.2533(3) -0.0725(9) 0.5488(3)
H1 H 0.2373 -0.0743 0.5144
C10 C 0.2618(3) -0.2026(8) 0.5759(3)
C11 C 0.2851(3) -0.1997(8) 0.6265(3)
H2 H 0.2908 -0.2877 0.6459
C12 C 0.2999(3) -0.0646(8) 0.6483(3)
H3 H 0.3164 -0.0624 0.6826
C13 C 0.2358(4) 0.1883(9) 0.4945(3)
H4 H 0.2317 0.2885 0.4814
H5 H 0.1997 0.1412 0.4962
H6 H 0.2596 0.1331 0.4704
C14 C 0.2588(3) -0.4639(8) 0.5764(3)
H7 H 0.2454 -0.5450 0.5545
H8 H 0.2410 -0.4668 0.6113
H9 H 0.2986 -0.4727 0.5808
C15 C 0.4313(3) 0.4598(7) 0.6488(3)
C16 C 0.4413(3) 0.5683(8) 0.6118(3)
C17 C 0.4944(3) 0.6195(8) 0.6008(3)
H10 H 0.5005 0.6941 0.5751
C18 C 0.5378(3) 0.5571(8) 0.6288(3)
C19 C 0.5299(3) 0.4515(8) 0.6666(3)
H11 H 0.5599 0.4112 0.6857
C20 C 0.4767(3) 0.4049(8) 0.6765(3)
H12 H 0.4708 0.3328 0.7031
C21 C 0.4014(3) 0.7563(8) 0.5566(3)
H13 H 0.3662 0.7818 0.5403
H14 H 0.4290 0.7428 0.5286
H15 H 0.4129 0.8352 0.5805
C22 C 0.6028(3) 0.6939(9) 0.5776(3)
H16 H 0.6424 0.7026 0.5723
H17 H 0.5874 0.7903 0.5858
H18 H 0.5858 0.6557 0.5451
C23 C 0.2624(3) 0.4402(8) 0.7642(3)
C24 C 0.2211(3) 0.5457(8) 0.7595(3)
C25 C 0.1910(3) 0.5932(8) 0.8033(3)
H19 H 0.1630 0.6646 0.7995
C26 C 0.2031(3) 0.5327(8) 0.8531(3)
C27 C 0.2433(3) 0.4291(9) 0.8592(3)
H20 H 0.2512 0.3898 0.8934
C28 C 0.2724(3) 0.3823(9) 0.8143(3)
H21 H 0.2997 0.3091 0.8182
C29 C 0.1718(3) 0.7111(9) 0.7017(3)
H22 H 0.1686 0.7342 0.6638
H23 H 0.1836 0.7984 0.7212
H24 H 0.1362 0.6786 0.7153
C30 C 0.1328(4) 0.6801(10) 0.8960(4)
H25 H 0.1149 0.6904 0.9308
H26 H 0.1056 0.6515 0.8693
H27 H 0.1493 0.7736 0.8858
C31 C 0.3910(3) 0.2205(9) 0.5867(3)
H28 H 0.3744 0.1319 0.5719
H29 H 0.4280 0.1982 0.5995
H30 H 0.3930 0.2959 0.5590
C32 C 0.3637(3) 0.5906(8) 0.7325(3)
H31 H 0.3329 0.6345 0.7519
H32 H 0.3786 0.6620 0.7073
H33 H 0.3922 0.5617 0.7578
C33 C 0.2246(3) 0.1863(9) 0.7069(3)
H34 H 0.1963 0.2596 0.7141
H35 H 0.2317 0.1297 0.7393
H36 H 0.2121 0.1206 0.6786
O7 O 0.4811(2) 0.6952(6) 0.9499(2)
O8 O 0.5058(2) 0.1796(6) 0.9523(2)
O9 O 0.5578(2) 1.0791(5) 0.7929(2)
O10 O 0.5837(2) 1.1074(6) 0.6011(2)
O11 O 0.3649(2) 1.0435(7) 0.9236(2)
O12 O 0.1682(2) 1.0820(6) 0.8894(2)
C34 C 0.4509(3) 0.7037(8) 0.8437(3)
C35 C 0.4830(3) 0.7683(8) 0.8041(3)
C36 C 0.4647(3) 0.8971(8) 0.7801(3)
C37 C 0.4143(3) 0.9612(8) 0.7936(3)
C38 C 0.3816(3) 0.8902(8) 0.8320(3)
C39 C 0.3992(3) 0.7606(8) 0.8568(3)
C40 C 0.4682(3) 0.5640(8) 0.8707(3)
C41 C 0.4815(3) 0.5619(8) 0.9251(3)
C42 C 0.4940(3) 0.4337(9) 0.9506(3)
H37 H 0.5033 0.4347 0.9873
C43 C 0.4929(3) 0.3029(8) 0.9230(3)
C44 C 0.4790(3) 0.2982(9) 0.8687(3)
H38 H 0.4772 0.2085 0.8497
C45 C 0.4679(3) 0.4306(8) 0.8443(3)
H39 H 0.4596 0.4303 0.8073
C46 C 0.4810(4) 0.6927(9) 1.0070(3)
H40 H 0.4797 0.7930 1.0206
H41 H 0.5144 0.6446 1.0197
H42 H 0.4489 0.6387 1.0196
C47 C 0.5047(3) 0.0413(8) 0.9257(4)
H43 H 0.5223 -0.0327 0.9482
H44 H 0.5246 0.0488 0.8919
H45 H 0.4667 0.0129 0.9188
C48 C 0.4970(3) 0.9626(8) 0.7341(3)
C49 C 0.5437(3) 1.0496(7) 0.7412(3)
C50 C 0.5737(3) 1.0998(8) 0.6980(3)
H46 H 0.6055 1.1577 0.7035
C51 C 0.5571(3) 1.0652(8) 0.6468(3)
C52 C 0.5100(3) 0.9845(9) 0.6382(3)
H47 H 0.4977 0.9641 0.6031
C53 C 0.4808(3) 0.9335(8) 0.6823(3)
H48 H 0.4486 0.8770 0.6766
C54 C 0.5958(3) 1.1949(8) 0.8020(3)
H49 H 0.5963 1.2193 0.8400
H50 H 0.5848 1.2811 0.7815
H51 H 0.6325 1.1640 0.7908
C55 C 0.6326(3) 1.1883(10) 0.6066(3)
H52 H 0.6508 1.1954 0.5719
H53 H 0.6568 1.1390 0.6320
H54 H 0.6240 1.2866 0.6196
C56 C 0.3260(3) 0.9485(8) 0.8463(3)
C57 C 0.3182(3) 1.0244(9) 0.8940(3)
C58 C 0.2664(3) 1.0700(8) 0.9110(3)
H55 H 0.2617 1.1178 0.9443
C59 C 0.2215(3) 1.0428(9) 0.8773(3)
C60 C 0.2279(3) 0.9698(8) 0.8307(3)
H56 H 0.1971 0.9517 0.8085
C61 C 0.2797(3) 0.9212(8) 0.8154(3)
H57 H 0.2836 0.8683 0.7830
C62 C 0.3611(4) 1.1297(15) 0.9705(4)
H58 H 0.3968 1.1318 0.9884
H59 H 0.3337 1.0872 0.9944
H60 H 0.3502 1.2295 0.9610
C63 C 0.1578(3) 1.1472(11) 0.9398(4)
H61 H 0.1185 1.1671 0.9434
H62 H 0.1783 1.2390 0.9427
H63 H 0.1694 1.0804 0.9682
C64 C 0.5376(3) 0.7028(9) 0.7881(3)
H64 H 0.5522 0.6448 0.8177
H65 H 0.5634 0.7814 0.7793
H66 H 0.5326 0.6398 0.7569
C65 C 0.3956(3) 1.1010(8) 0.7679(3)
H67 H 0.4251 1.1735 0.7696
H68 H 0.3633 1.1383 0.7867
H69 H 0.3861 1.0823 0.7306
C66 C 0.3630(3) 0.6880(9) 0.8972(3)
H70 H 0.3245 0.7017 0.8871
H71 H 0.3694 0.7314 0.9323
H72 H 0.3713 0.5832 0.8985
loop_
_geom_bond_atom_site_label_1
_geom_bond_atom_site_label_2
_geom_bond_site_symmetry_1
_geom_bond_site_symmetry_2
O1 C8 1_555 1_555
O2 C10 1_555 1_555
O3 C16 1_555 1_555
O4 C18 1_555 1_555
O5 C24 1_555 1_555
O6 C26 1_555 1_555
C1 C2 1_555 1_555
C2 C3 1_555 1_555
C3 C4 1_555 1_555
C4 C5 1_555 1_555
C5 C6 1_555 1_555
C6 C1 1_555 1_555
C7 C1 1_555 1_555
C8 C7 1_555 1_555
C9 C8 1_555 1_555
H1 C9 1_555 1_555
C10 C9 1_555 1_555
C11 C10 1_555 1_555
H2 C11 1_555 1_555
C12 C7 1_555 1_555
H3 C12 1_555 1_555
C13 O1 1_555 1_555
H4 C13 1_555 1_555
H5 C13 1_555 1_555
H6 C13 1_555 1_555
C14 O2 1_555 1_555
H7 C14 1_555 1_555
H8 C14 1_555 1_555
H9 C14 1_555 1_555
C15 C3 1_555 1_555
C16 C15 1_555 1_555
C17 C16 1_555 1_555
H10 C17 1_555 1_555
C18 C17 1_555 1_555
C19 C18 1_555 1_555
H11 C19 1_555 1_555
C20 C15 1_555 1_555
H12 C20 1_555 1_555
C21 O3 1_555 1_555
H13 C21 1_555 1_555
H14 C21 1_555 1_555
H15 C21 1_555 1_555
C22 O4 1_555 1_555
H16 C22 1_555 1_555
H17 C22 1_555 1_555
H18 C22 1_555 1_555
C23 C5 1_555 1_555
C24 C23 1_555 1_555
C25 C24 1_555 1_555
H19 C25 1_555 1_555
C26 C25 1_555 1_555
C27 C26 1_555 1_555
H20 C27 1_555 1_555
C28 C23 1_555 1_555
H21 C28 1_555 1_555
C29 O5 1_555 1_555
H22 C29 1_555 1_555
H23 C29 1_555 1_555
H24 C29 1_555 1_555
C30 O6 1_555 1_555
H25 C30 1_555 1_555
H26 C30 1_555 1_555
H27 C30 1_555 1_555
C31 C2 1_555 1_555
H28 C31 1_555 1_555
H29 C31 1_555 1_555
H30 C31 1_555 1_555
C32 C4 1_555 1_555
H31 C32 1_555 1_555
H32 C32 1_555 1_555
H33 C32 1_555 1_555
C33 C6 1_555 1_555
H34 C33 1_555 1_555
H35 C33 1_555 1_555
H36 C33 1_555 1_555
O7 C41 1_555 1_555
O8 C43 1_555 1_555
O9 C49 1_555 1_555
O10 C51 1_555 1_555
O11 C57 1_555 1_555
O12 C59 1_555 1_555
C34 C35 1_555 1_555
C35 C36 1_555 1_555
C36 C37 1_555 1_555
C37 C38 1_555 1_555
C38 C39 1_555 1_555
C39 C34 1_555 1_555
C40 C34 1_555 1_555
C41 C40 1_555 1_555
C42 C41 1_555 1_555
H37 C42 1_555 1_555
C43 C42 1_555 1_555
C44 C43 1_555 1_555
H38 C44 1_555 1_555
C45 C40 1_555 1_555
H39 C45 1_555 1_555
C46 O7 1_555 1_555
H40 C46 1_555 1_555
H41 C46 1_555 1_555
H42 C46 1_555 1_555
C47 O8 1_555 1_555
H43 C47 1_555 1_555
H44 C47 1_555 1_555
H45 C47 1_555 1_555
C48 C36 1_555 1_555
C49 C48 1_555 1_555
C50 C49 1_555 1_555
H46 C50 1_555 1_555
C51 C50 1_555 1_555
C52 C51 1_555 1_555
H47 C52 1_555 1_555
C53 C48 1_555 1_555
H48 C53 1_555 1_555
C54 O9 1_555 1_555
H49 C54 1_555 1_555
H50 C54 1_555 1_555
H51 C54 1_555 1_555
C55 O10 1_555 1_555
H52 C55 1_555 1_555
H53 C55 1_555 1_555
H54 C55 1_555 1_555
C56 C38 1_555 1_555
C57 C56 1_555 1_555
C58 C57 1_555 1_555
H55 C58 1_555 1_555
C59 C58 1_555 1_555
C60 C59 1_555 1_555
H56 C60 1_555 1_555
C61 C56 1_555 1_555
H57 C61 1_555 1_555
C62 O11 1_555 1_555
H58 C62 1_555 1_555
H59 C62 1_555 1_555
H60 C62 1_555 1_555
C63 O12 1_555 1_555
H61 C63 1_555 1_555
H62 C63 1_555 1_555
H63 C63 1_555 1_555
C64 C35 1_555 1_555
H64 C64 1_555 1_555
H65 C64 1_555 1_555
H66 C64 1_555 1_555
C65 C37 1_555 1_555
H67 C65 1_555 1_555
H68 C65 1_555 1_555
H69 C65 1_555 1_555
C66 C39 1_555 1_555
H70 C66 1_555 1_555
H71 C66 1_555 1_555
H72 C66 1_555 1_555
C11 C12 1_555 1_555
C19 C20 1_555 1_555
C27 C28 1_555 1_555
C44 C45 1_555 1_555
C52 C53 1_555 1_555
C60 C61 1_555 1_555

#END
