
#######################################################################
#
#                 Cambridge Crystallographic Data Centre
#                                CCDC 
#
#######################################################################
#
# If this CIF has been generated from an entry in the Cambridge 
# Structural Database, then it will include bibliographic, chemical, 
# crystal, experimental, refinement or atomic coordinate data resulting 
# from the CCDC's data processing and validation procedures.
#
#######################################################################

data_KECNOX
_chemical_formula_moiety         'C23 H15 I1 O1'
_chemical_name_systematic        (3-Iodo-2-phenyl-1-naphthyl)(phenyl)methanone
_symmetry_cell_setting           monoclinic
_symmetry_space_group_name_H-M   'P 21/n'
_symmetry_Int_Tables_number      14
_space_group_name_Hall           '-P 2yn'
loop_
_symmetry_equiv_pos_site_id
_symmetry_equiv_pos_as_xyz
1 x,y,z
2 1/2-x,1/2+y,1/2-z
3 -x,-y,-z
4 1/2+x,1/2-y,1/2+z
_cell_length_a                   9.1191(6)
_cell_length_b                   20.1604(13)
_cell_length_c                   10.5517(7)
_cell_angle_alpha                90
_cell_angle_beta                 106.2310(10)
_cell_angle_gamma                90
_cell_volume                     1862.56
_exptl_crystal_colour            colorless
_exptl_crystal_description       prismatic
_cell_formula_units_Z            4
loop_
_atom_site_label
_atom_site_type_symbol
_atom_site_fract_x
_atom_site_fract_y
_atom_site_fract_z
I1 I 1.25020(3) 0.044398(14) 0.65841(3)
O1 O 0.7215(3) 0.15430(15) 0.8662(2)
C1 C 1.0578(4) 0.02928(17) 0.7264(3)
C2 C 1.0470(4) -0.02800(18) 0.7898(4)
H1 H 1.1224 -0.0601 0.7986
C3 C 0.9240(4) -0.03998(16) 0.8429(3)
C4 C 0.9078(5) -0.1001(2) 0.9072(4)
H2 H 0.9810 -0.1332 0.9161
C5 C 0.7873(6) -0.1098(2) 0.9558(4)
H3 H 0.7774 -0.1498 0.9967
C6 C 0.6786(6) -0.0606(3) 0.9450(4)
H4 H 0.5962 -0.0681 0.9789
C7 C 0.6896(4) -0.0017(2) 0.8860(3)
H5 H 0.6156 0.0308 0.8804
C8 C 0.8131(4) 0.01027(17) 0.8332(3)
C9 C 0.8292(3) 0.07044(16) 0.7673(3)
C10 C 0.9474(3) 0.08023(16) 0.7120(3)
C11 C 0.7161(3) 0.12563(15) 0.7646(3)
C12 C 0.5996(3) 0.14078(15) 0.6398(3)
C13 C 0.5152(4) 0.19898(17) 0.6305(4)
H6 H 0.5358 0.2284 0.7012
C14 C 0.4023(5) 0.2131(2) 0.5181(5)
H7 H 0.3458 0.2519 0.5126
C15 C 0.3722(5) 0.1704(3) 0.4139(4)
H8 H 0.2957 0.1805 0.3374
C16 C 0.4532(5) 0.1128(2) 0.4206(4)
H9 H 0.4310 0.0837 0.3494
C17 C 0.5682(4) 0.09793(18) 0.5336(3)
H10 H 0.6244 0.0591 0.5379
C18 C 0.9596(4) 0.14312(16) 0.6409(3)
C19 C 1.0013(5) 0.20139(18) 0.7078(4)
H11 H 1.0211 0.2024 0.7992
C20 C 1.0143(6) 0.2590(2) 0.6395(6)
H12 H 1.0443 0.2983 0.6857
C21 C 0.9834(6) 0.2584(2) 0.5059(6)
H13 H 0.9925 0.2972 0.4609
C22 C 0.9389(6) 0.2008(3) 0.4379(5)
H14 H 0.9165 0.2003 0.3463
C23 C 0.9272(5) 0.1436(2) 0.5052(4)
H15 H 0.8970 0.1045 0.4584
loop_
_geom_bond_atom_site_label_1
_geom_bond_atom_site_label_2
_geom_bond_site_symmetry_1
_geom_bond_site_symmetry_2
I1 C1 1_555 1_555
O1 C11 1_555 1_555
C1 C2 1_555 1_555
C2 H1 1_555 1_555
C3 C2 1_555 1_555
C4 C3 1_555 1_555
H2 C4 1_555 1_555
C5 C4 1_555 1_555
H3 C5 1_555 1_555
C6 C5 1_555 1_555
H4 C6 1_555 1_555
C7 C6 1_555 1_555
H5 C7 1_555 1_555
C8 C3 1_555 1_555
C9 C8 1_555 1_555
C10 C1 1_555 1_555
C11 C9 1_555 1_555
C12 C11 1_555 1_555
C13 C12 1_555 1_555
H6 C13 1_555 1_555
C14 C13 1_555 1_555
H7 C14 1_555 1_555
C15 C14 1_555 1_555
H8 C15 1_555 1_555
C16 C15 1_555 1_555
H9 C16 1_555 1_555
C17 C12 1_555 1_555
H10 C17 1_555 1_555
C18 C10 1_555 1_555
C19 C18 1_555 1_555
H11 C19 1_555 1_555
C20 C19 1_555 1_555
H12 C20 1_555 1_555
C21 C20 1_555 1_555
H13 C21 1_555 1_555
C22 C21 1_555 1_555
H14 C22 1_555 1_555
C23 C18 1_555 1_555
H15 C23 1_555 1_555
C7 C8 1_555 1_555
C9 C10 1_555 1_555
C16 C17 1_555 1_555
C22 C23 1_555 1_555

#END
