
#######################################################################
#
#                 Cambridge Crystallographic Data Centre
#                                CCDC 
#
#######################################################################
#
# If this CIF has been generated from an entry in the Cambridge 
# Structural Database, then it will include bibliographic, chemical, 
# crystal, experimental, refinement or atomic coordinate data resulting 
# from the CCDC's data processing and validation procedures.
#
#######################################################################

data_KECWEW
_chemical_formula_moiety         'C14 H16 O1'
_chemical_name_systematic        4,5-Dimethyl-4-phenylcyclohex-2-en-1-one
_symmetry_cell_setting           orthorhombic
_symmetry_space_group_name_H-M   'P 21 21 21'
_symmetry_Int_Tables_number      19
_space_group_name_Hall           'P 2ac 2ab'
loop_
_symmetry_equiv_pos_site_id
_symmetry_equiv_pos_as_xyz
1 x,y,z
2 1/2-x,-y,1/2+z
3 -x,1/2+y,1/2-z
4 1/2+x,1/2-y,-z
_cell_length_a                   6.2640(8)
_cell_length_b                   7.7902(10)
_cell_length_c                   22.956(3)
_cell_angle_alpha                90
_cell_angle_beta                 90
_cell_angle_gamma                90
_cell_volume                     1120.2
_exptl_crystal_colour            colorless
_exptl_crystal_description       plate
_cell_formula_units_Z            4
loop_
_atom_site_label
_atom_site_type_symbol
_atom_site_fract_x
_atom_site_fract_y
_atom_site_fract_z
O1 O 0.93688(16) 0.37944(13) 0.22298(4)
C1 C 0.54844(19) 0.44945(16) 0.37065(5)
C2 C 0.6591(2) 0.28384(16) 0.35390(6)
C3 C 0.7844(2) 0.26168(17) 0.30772(6)
C4 C 0.8224(2) 0.40008(17) 0.26557(5)
C5 C 0.7063(2) 0.56527(17) 0.27622(6)
C6 C 0.6667(2) 0.60143(16) 0.34084(5)
C7 C 0.3154(2) 0.4336(2) 0.34956(7)
C8 C 0.5572(3) 0.77458(18) 0.34831(7)
C9 C 0.5608(2) 0.47244(15) 0.43687(5)
C10 C 0.7461(3) 0.42493(19) 0.46641(6)
C11 C 0.7656(3) 0.4495(2) 0.52598(7)
C12 C 0.6022(3) 0.5230(2) 0.55743(7)
C13 C 0.4200(3) 0.5719(2) 0.52880(7)
C14 C 0.3981(3) 0.5468(2) 0.46914(7)
H1 H 0.632(3) 0.188(2) 0.3784(7)
H2 H 0.845(2) 0.154(2) 0.2998(6)
H3 H 0.790(3) 0.661(2) 0.2588(6)
H4 H 0.567(3) 0.557(2) 0.2552(7)
H5 H 0.807(2) 0.6120(17) 0.3590(5)
H6 H 0.242(3) 0.341(2) 0.3675(8)
H7 H 0.311(3) 0.410(2) 0.3078(7)
H8 H 0.232(3) 0.539(2) 0.3583(7)
H9 H 0.419(3) 0.777(2) 0.3274(7)
H10 H 0.525(3) 0.800(2) 0.3885(7)
H11 H 0.649(3) 0.867(2) 0.3310(7)
H12 H 0.862(3) 0.377(2) 0.4461(7)
H13 H 0.895(4) 0.414(3) 0.5442(9)
H14 H 0.620(3) 0.540(2) 0.5976(8)
H15 H 0.304(4) 0.631(3) 0.5483(9)
H16 H 0.264(3) 0.577(2) 0.4504(7)
loop_
_geom_bond_atom_site_label_1
_geom_bond_atom_site_label_2
_geom_bond_site_symmetry_1
_geom_bond_site_symmetry_2
O1 C4 1_555 1_555
C1 C2 1_555 1_555
C2 C3 1_555 1_555
C3 C4 1_555 1_555
C4 C5 1_555 1_555
C5 C6 1_555 1_555
C6 C1 1_555 1_555
C7 C1 1_555 1_555
C8 C6 1_555 1_555
C9 C1 1_555 1_555
C10 C9 1_555 1_555
C11 C10 1_555 1_555
C12 C11 1_555 1_555
C13 C12 1_555 1_555
C14 C9 1_555 1_555
H1 C2 1_555 1_555
H2 C3 1_555 1_555
H3 C5 1_555 1_555
H4 C5 1_555 1_555
H5 C6 1_555 1_555
H6 C7 1_555 1_555
H7 C7 1_555 1_555
H8 C7 1_555 1_555
H9 C8 1_555 1_555
H10 C8 1_555 1_555
H11 C8 1_555 1_555
H12 C10 1_555 1_555
H13 C11 1_555 1_555
H14 C12 1_555 1_555
H15 C13 1_555 1_555
H16 C14 1_555 1_555
C13 C14 1_555 1_555

#END
