
#######################################################################
#
#                 Cambridge Crystallographic Data Centre
#                                CCDC 
#
#######################################################################
#
# If this CIF has been generated from an entry in the Cambridge 
# Structural Database, then it will include bibliographic, chemical, 
# crystal, experimental, refinement or atomic coordinate data resulting 
# from the CCDC's data processing and validation procedures.
#
#######################################################################

data_KECWOE
_chemical_formula_moiety         'C15 H21 I1 O4'
_chemical_name_systematic        
3,3-Dicarbomethoxy-1-(iodomethylene)cyclopentane-5-spiro-1'-cyclohexane
_symmetry_cell_setting           monoclinic
_symmetry_space_group_name_H-M   'P 21/c'
_symmetry_Int_Tables_number      14
_space_group_name_Hall           '-P 2ybc'
loop_
_symmetry_equiv_pos_site_id
_symmetry_equiv_pos_as_xyz
1 x,y,z
2 -x,1/2+y,1/2-z
3 -x,-y,-z
4 x,1/2-y,1/2+z
_cell_length_a                   7.442(1)
_cell_length_b                   12.023(1)
_cell_length_c                   18.649(1)
_cell_angle_alpha                90
_cell_angle_beta                 96.05(1)
_cell_angle_gamma                90
_cell_volume                     1659.33
_cell_formula_units_Z            4
loop_
_atom_site_label
_atom_site_type_symbol
_atom_site_fract_x
_atom_site_fract_y
_atom_site_fract_z
I1 I 0.7888(1) 0.2573(1) 1.9219(1)
C1 C 0.7842(12) 0.3279(7) 1.8199(4)
C2 C 0.7544(13) 0.2714(6) 1.7599(5)
C3 C 0.7283(13) 0.1469(7) 1.7532(4)
C4 C 0.6741(11) 0.1239(6) 1.6730(4)
C5 C 0.7629(13) 0.2197(6) 1.6347(5)
C6 C 0.7615(11) 0.3230(6) 1.6848(4)
C7 C 0.7432(11) 0.0107(6) 1.6522(4)
O1 O 0.8684(9) -0.0041(5) 1.6184(4)
O2 O 0.6515(9) -0.0708(4) 1.6786(4)
C8 C 0.7070(14) -0.1834(7) 1.6653(6)
C9 C 0.4702(12) 0.1247(6) 1.6546(4)
O3 O 0.3587(9) 0.1330(6) 1.6965(3)
O4 O 0.4269(8) 0.1140(6) 1.5841(3)
C10 C 0.2394(14) 0.1137(13) 1.5566(7)
C11 C 0.5887(14) 0.3949(8) 1.6658(4)
C12 C 0.5894(18) 0.4543(9) 1.5937(6)
C13 C 0.7568(20) 0.5217(10) 1.5893(7)
C14 C 0.9295(17) 0.4511(9) 1.6061(5)
C15 C 0.9286(15) 0.3953(8) 1.6793(4)
H1 H 0.8049 0.4065 1.8167
H2 H 0.8307 0.1089 1.7692
H3 H 0.6346 0.1229 1.7813
H4 H 0.8848 0.2005 1.6273
H5 H 0.6954 0.2350 1.5890
H6 H 0.7023 -0.1957 1.6143
H7 H 0.6273 -0.2345 1.6857
H8 H 0.8282 -0.1947 1.6872
H9 H 0.1776 0.0562 1.5800
H10 H 0.2283 0.1002 1.5056
H11 H 0.1867 0.1845 1.5658
H12 H 0.5818 0.4495 1.7029
H13 H 0.4847 0.3473 1.6637
H14 H 0.4866 0.5029 1.5872
H15 H 0.5809 0.3997 1.5560
H16 H 0.7550 0.5515 1.5415
H17 H 0.7587 0.5816 1.6234
H18 H 1.0337 0.4983 1.6067
H19 H 0.9341 0.3952 1.5696
H20 H 1.0342 0.3493 1.6877
H21 H 0.9320 0.4520 1.7157
loop_
_geom_bond_atom_site_label_1
_geom_bond_atom_site_label_2
_geom_bond_site_symmetry_1
_geom_bond_site_symmetry_2
I1 C1 1_555 1_555
C1 C2 1_555 1_555
C2 C3 1_555 1_555
C3 C4 1_555 1_555
C4 C5 1_555 1_555
C5 C6 1_555 1_555
C6 C2 1_555 1_555
C7 C4 1_555 1_555
O1 C7 1_555 1_555
O2 C7 1_555 1_555
C8 O2 1_555 1_555
C9 C4 1_555 1_555
O3 C9 1_555 1_555
O4 C9 1_555 1_555
C10 O4 1_555 1_555
C11 C6 1_555 1_555
C12 C11 1_555 1_555
C13 C12 1_555 1_555
C14 C13 1_555 1_555
C15 C6 1_555 1_555
H1 C1 1_555 1_555
H2 C3 1_555 1_555
H3 C3 1_555 1_555
H4 C5 1_555 1_555
H5 C5 1_555 1_555
H6 C8 1_555 1_555
H7 C8 1_555 1_555
H8 C8 1_555 1_555
H9 C10 1_555 1_555
H10 C10 1_555 1_555
H11 C10 1_555 1_555
H12 C11 1_555 1_555
H13 C11 1_555 1_555
H14 C12 1_555 1_555
H15 C12 1_555 1_555
H16 C13 1_555 1_555
H17 C13 1_555 1_555
H18 C14 1_555 1_555
H19 C14 1_555 1_555
H20 C15 1_555 1_555
H21 C15 1_555 1_555
C14 C15 1_555 1_555

#END
