
#######################################################################
#
#                 Cambridge Crystallographic Data Centre
#                                CCDC 
#
#######################################################################
#
# If this CIF has been generated from an entry in the Cambridge 
# Structural Database, then it will include bibliographic, chemical, 
# crystal, experimental, refinement or atomic coordinate data resulting 
# from the CCDC's data processing and validation procedures.
#
#######################################################################

data_KECYAT
_chemical_formula_moiety         'C16 H16 O3'
_chemical_name_systematic        
5-Hydroxy-2,2-dimethyl-3,4-dihydro-2H-benzo(h)chromen-6-carbaldehyde
_symmetry_cell_setting           orthorhombic
_symmetry_space_group_name_H-M   'P b c a'
_symmetry_Int_Tables_number      61
_space_group_name_Hall           '-P 2ac 2ab'
loop_
_symmetry_equiv_pos_site_id
_symmetry_equiv_pos_as_xyz
1 x,y,z
2 1/2-x,-y,1/2+z
3 -x,1/2+y,1/2-z
4 1/2+x,1/2-y,-z
5 -x,-y,-z
6 1/2+x,y,1/2-z
7 x,1/2-y,1/2+z
8 1/2-x,1/2+y,z
_cell_length_a                   13.1445(3)
_cell_length_b                   9.6466(2)
_cell_length_c                   19.4756(6)
_cell_angle_alpha                90
_cell_angle_beta                 90
_cell_angle_gamma                90
_cell_volume                     2469.5
_exptl_crystal_colour            yellow
_exptl_crystal_description       block
_chemical_melting_point          98-100deg.C
_cell_formula_units_Z            8
loop_
_atom_site_label
_atom_site_type_symbol
_atom_site_fract_x
_atom_site_fract_y
_atom_site_fract_z
O1 O 0.60421(7) 0.05529(8) 0.31562(4)
C1 C 0.62675(11) -0.05314(13) 0.26486(6)
O2 O 0.63761(7) -0.26830(9) 0.49661(4)
H1 H 0.6456 -0.2719 0.5394
C2 C 0.57599(11) -0.18706(13) 0.28720(6)
H2 H 0.5895 -0.2601 0.2527
H3 H 0.5015 -0.1729 0.2897
O3 O 0.65348(8) -0.17869(10) 0.61967(5)
C3 C 0.61528(10) -0.23439(13) 0.35696(6)
H4 H 0.5695 -0.3064 0.3759
H5 H 0.6839 -0.2754 0.3517
C4 C 0.62017(9) -0.11356(13) 0.40542(6)
C5 C 0.63064(9) -0.13640(13) 0.47696(6)
C6 C 0.63309(9) -0.02754(13) 0.52460(6)
C7 C 0.62320(9) 0.11291(13) 0.50047(6)
C8 C 0.62403(10) 0.23104(14) 0.54392(7)
H6 H 0.6311 0.2186 0.5921
C9 C 0.61486(10) 0.36208(14) 0.51819(7)
H7 H 0.6164 0.4390 0.5486
C10 C 0.60320(10) 0.38497(13) 0.44744(7)
H8 H 0.5965 0.4765 0.4300
C11 C 0.60155(9) 0.27372(13) 0.40383(7)
H9 H 0.5930 0.2885 0.3560
C12 C 0.61237(9) 0.13733(12) 0.42896(6)
C13 C 0.61261(9) 0.02104(13) 0.38295(6)
C14 C 0.74151(11) -0.06523(14) 0.25950(7)
H10 H 0.7697 0.0225 0.2427
H11 H 0.7590 -0.1399 0.2275
H12 H 0.7700 -0.0860 0.3049
C15 C 0.58070(12) 0.00098(15) 0.19878(7)
H13 H 0.5071 0.0117 0.2046
H14 H 0.5943 -0.0648 0.1615
H15 H 0.6110 0.0910 0.1875
C16 C 0.64353(11) -0.06030(14) 0.59580(7)
H16 H 0.6430(13) 0.0160(19) 0.6283(9)
loop_
_geom_bond_atom_site_label_1
_geom_bond_atom_site_label_2
_geom_bond_site_symmetry_1
_geom_bond_site_symmetry_2
O1 C1 1_555 1_555
C1 C2 1_555 1_555
O2 H1 1_555 1_555
C2 H2 1_555 1_555
H3 C2 1_555 1_555
O3 C16 1_555 1_555
C3 C2 1_555 1_555
H4 C3 1_555 1_555
H5 C3 1_555 1_555
C4 C3 1_555 1_555
C5 O2 1_555 1_555
C6 C5 1_555 1_555
C7 C6 1_555 1_555
C8 C7 1_555 1_555
H6 C8 1_555 1_555
C9 C8 1_555 1_555
H7 C9 1_555 1_555
C10 C9 1_555 1_555
H8 C10 1_555 1_555
C11 C10 1_555 1_555
H9 C11 1_555 1_555
C12 C7 1_555 1_555
C13 O1 1_555 1_555
C14 C1 1_555 1_555
H10 C14 1_555 1_555
H11 C14 1_555 1_555
H12 C14 1_555 1_555
C15 C1 1_555 1_555
H13 C15 1_555 1_555
H14 C15 1_555 1_555
H15 C15 1_555 1_555
C16 C6 1_555 1_555
H16 C16 1_555 1_555
C4 C5 1_555 1_555
C4 C13 1_555 1_555
C11 C12 1_555 1_555
C12 C13 1_555 1_555

#END
