
#######################################################################
#
#                 Cambridge Crystallographic Data Centre
#                                CCDC 
#
#######################################################################
#
# If this CIF has been generated from an entry in the Cambridge 
# Structural Database, then it will include bibliographic, chemical, 
# crystal, experimental, refinement or atomic coordinate data resulting 
# from the CCDC's data processing and validation procedures.
#
#######################################################################

data_KEDNEM
_chemical_formula_moiety         'C38 H24 N2'
_chemical_name_systematic        
5,11-Dihydro-5,11-bis(1-naphthyl)indolo(3,2-b)carbazole
_symmetry_cell_setting           monoclinic
_symmetry_space_group_name_H-M   'P 21/n'
_symmetry_Int_Tables_number      14
_space_group_name_Hall           '-P 2yn'
loop_
_symmetry_equiv_pos_site_id
_symmetry_equiv_pos_as_xyz
1 x,y,z
2 1/2-x,1/2+y,1/2-z
3 -x,-y,-z
4 1/2+x,1/2-y,1/2+z
_cell_length_a                   10.072(2)
_cell_length_b                   11.099(2)
_cell_length_c                   12.915(2)
_cell_angle_alpha                90
_cell_angle_beta                 112.007(4)
_cell_angle_gamma                90
_cell_volume                     1338.56
_cell_formula_units_Z            2
_exptl_crystal_recrystallization_method 'by sublimation'
loop_
_atom_site_label
_atom_site_type_symbol
_atom_site_fract_x
_atom_site_fract_y
_atom_site_fract_z
N1 N 0.5476(3) 0.7077(2) 0.1228(3)
C1 C 0.4373(9) 0.8071(7) 0.1039(8)
C3 C 0.4803(5) 0.7563(4) 0.2994(4)
C4 C 0.2720(24) 0.9556(19) -0.0076(17)
C6 C 0.2247(13) 0.9838(9) 0.0961(11)
C8 C 0.2939(4) 0.9163(4) 0.1815(5)
C9 C 0.2676(12) 0.9410(10) 0.2869(10)
C11 C 0.3338(13) 0.8874(11) 0.3777(13)
C13 C 0.4381(19) 0.7982(14) 0.3839(15)
C15 C 0.3677(4) 0.8729(3) 0.0070(3)
C16 C 0.4049(11) 0.8300(8) 0.1923(8)
C18 C 0.6946(4) 0.7173(3) 0.1660(3)
C19 C 0.7803(5) 0.8063(4) 0.2334(4)
C20 C 0.9240(5) 0.7963(4) 0.2647(4)
C21 C 0.9855(5) 0.6992(4) 0.2317(4)
C22 C 0.8997(4) 0.6106(4) 0.1647(4)
C23 C 0.7527(3) 0.6193(3) 0.1303(3)
C24 C 0.5086(4) 0.6041(3) 0.0571(3)
C25 C 0.6349(3) 0.5468(3) 0.0598(3)
C26 C 0.3722(4) 0.5597(3) -0.0012(3)
H1 H 1.0964(53) 0.6953(39) 0.2580(38)
H2 H 0.7339(47) 0.8782(45) 0.2460(36)
H3 H 0.9811(37) 0.8645(31) 0.3065(28)
H4 H 0.9436(44) 0.5401(38) 0.1470(32)
C25B C 0.3651(3) 0.4532(3) -0.0598(3)
C23B C 0.2473(3) 0.3807(3) -0.1303(3)
C18B C 0.3054(4) 0.2827(3) -0.1660(3)
N1B N 0.4524(3) 0.2923(2) -0.1228(3)
C1B C 0.5627(9) 0.1929(7) -0.1039(8)
C15B C 0.6323(4) 0.1271(3) -0.0070(3)
C4B C 0.7280(24) 0.0444(19) 0.0076(17)
C6B C 0.7753(13) 0.0162(9) -0.0961(11)
C8B C 0.7061(4) 0.0837(4) -0.1815(5)
C9B C 0.7324(12) 0.0590(10) -0.2869(10)
C11B C 0.6662(13) 0.1126(11) -0.3777(13)
C13B C 0.5619(19) 0.2018(14) -0.3839(15)
C3B C 0.5197(5) 0.2437(4) -0.2994(4)
C16B C 0.5951(11) 0.1700(8) -0.1923(8)
C24B C 0.4914(4) 0.3959(3) -0.0571(3)
C26B C 0.6278(4) 0.4403(3) 0.0012(3)
C19B C 0.2197(5) 0.1937(4) -0.2334(4)
C20B C 0.0760(5) 0.2037(4) -0.2647(4)
C21B C 0.0145(5) 0.3008(4) -0.2317(4)
C22B C 0.1003(4) 0.3894(4) -0.1647(4)
H4B H 0.0564(44) 0.4599(38) -0.1470(32)
H1B H -0.0964(53) 0.3047(39) -0.2580(38)
H3B H 0.0189(37) 0.1355(31) -0.3065(28)
H2B H 0.2661(47) 0.1218(45) -0.2460(36)
C2? C 0.4708(10) 0.7629(9) 0.1951(9)
C5? C 0.4082(43) 0.8038(32) 0.3600(34)
C7? C 0.2853(34) 0.8943(33) 0.2736(38)
C10? C 0.1715(28) 1.0177(25) 0.0751(33)
C12? C 0.1784(24) 1.0243(20) -0.0156(21)
C14? C 0.2487(50) 0.9725(37) -0.0521(40)
C17? C 0.3658(15) 0.8540(11) 0.1158(19)
loop_
_geom_bond_atom_site_label_1
_geom_bond_atom_site_label_2
_geom_bond_site_symmetry_1
_geom_bond_site_symmetry_2
N1 C1 1_555 1_555
C1 C15 1_555 1_555
C3 C13 1_555 1_555
C4 C6 1_555 1_555
C6 C8 1_555 1_555
C8 C9 1_555 1_555
C9 C11 1_555 1_555
C11 C13 1_555 1_555
C15 C4 1_555 1_555
C16 C1 1_555 1_555
C18 N1 1_555 1_555
C19 C18 1_555 1_555
C20 C19 1_555 1_555
C21 C20 1_555 1_555
C22 C21 1_555 1_555
C23 C18 1_555 1_555
C24 N1 1_555 1_555
C25 C23 1_555 1_555
C26 C24 1_555 1_555
H1 C21 1_555 1_555
H2 C19 1_555 1_555
H3 C20 1_555 1_555
H4 C22 1_555 1_555
C25B C26 1_555 1_555
C23B C25B 1_555 1_555
C18B C23B 1_555 1_555
N1B C18B 1_555 1_555
C1B N1B 1_555 1_555
C15B C1B 1_555 1_555
C4B C15B 1_555 1_555
C6B C4B 1_555 1_555
C8B C6B 1_555 1_555
C9B C8B 1_555 1_555
C11B C9B 1_555 1_555
C13B C11B 1_555 1_555
C3B C13B 1_555 1_555
C16B C1B 1_555 1_555
C24B C25B 1_555 1_555
C26B C25 1_555 1_555
C19B C18B 1_555 1_555
C20B C19B 1_555 1_555
C21B C20B 1_555 1_555
C22B C23B 1_555 1_555
H4B C22B 1_555 1_555
H1B C21B 1_555 1_555
H3B C20B 1_555 1_555
H2B C19B 1_555 1_555
C3 C16 1_555 1_555
C8 C16 1_555 1_555
C22 C23 1_555 1_555
C24 C25 1_555 1_555
N1B C24B 1_555 1_555
C8B C16B 1_555 1_555
C3B C16B 1_555 1_555
C24B C26B 1_555 1_555
C21B C22B 1_555 1_555

#END
