
#######################################################################
#
#                 Cambridge Crystallographic Data Centre
#                                CCDC 
#
#######################################################################
#
# If this CIF has been generated from an entry in the Cambridge 
# Structural Database, then it will include bibliographic, chemical, 
# crystal, experimental, refinement or atomic coordinate data resulting 
# from the CCDC's data processing and validation procedures.
#
#######################################################################

data_KEFFIN
_chemical_formula_moiety         'C16 H15 N1 O4 S1'
_chemical_name_systematic        
1-methyl-4-[(3-nitro-2-phenylprop-2-en-1-yl)sulfonyl]benzene
_symmetry_cell_setting           orthorhombic
_symmetry_space_group_name_H-M   'P 21 21 21'
_symmetry_Int_Tables_number      19
_space_group_name_Hall           'P 2ac 2ab'
loop_
_symmetry_equiv_pos_site_id
_symmetry_equiv_pos_as_xyz
1 x,y,z
2 1/2-x,-y,1/2+z
3 1/2+x,1/2-y,-z
4 -x,1/2+y,1/2-z
_cell_length_a                   5.6914(9)
_cell_length_b                   7.7326(12)
_cell_length_c                   33.904(5)
_cell_angle_alpha                90
_cell_angle_beta                 90
_cell_angle_gamma                90
_cell_volume                     1492.09
_exptl_crystal_colour            colorless
_exptl_crystal_description       block
_cell_formula_units_Z            4
loop_
_atom_site_label
_atom_site_type_symbol
_atom_site_fract_x
_atom_site_fract_y
_atom_site_fract_z
C1 C 0.9569(8) 0.3935(5) 0.28500(10)
H1 H 0.8470 0.3617 0.3052
H2 H 0.9916 0.5147 0.2870
H3 H 1.0990 0.3281 0.2882
C2 C 0.8517(6) 0.3559(4) 0.24495(9)
C3 C 0.9703(6) 0.4059(4) 0.21083(10)
H4 H 1.1095 0.4682 0.2129
C4 C 0.8838(6) 0.3640(4) 0.17406(9)
H5 H 0.9638 0.3977 0.1514
C5 C 0.6766(5) 0.2714(4) 0.17131(8)
C6 C 0.5555(6) 0.2240(5) 0.20470(9)
H6 H 0.4152 0.1631 0.2026
C7 C 0.6432(6) 0.2672(5) 0.24133(9)
H7 H 0.5604 0.2359 0.2639
C8 C 0.7547(6) 0.0183(4) 0.11494(9)
H8 H 0.9085 0.0541 0.1057
H9 H 0.7755 -0.0466 0.1392
C9 C 0.6402(6) -0.0951(4) 0.08439(9)
C10 C 0.6563(6) -0.0444(4) 0.04235(9)
C11 C 0.4784(6) -0.0837(4) 0.01577(9)
H10 H 0.3468 -0.1440 0.0245
C12 C 0.4933(7) -0.0350(5) -0.02340(10)
H11 H 0.3723 -0.0624 -0.0408
C13 C 0.6874(7) 0.0541(4) -0.03668(10)
H12 H 0.6977 0.0876 -0.0630
C14 C 0.8647(7) 0.0928(4) -0.01100(10)
H13 H 0.9964 0.1520 -0.0200
C15 C 0.8509(6) 0.0453(4) 0.02815(9)
H14 H 0.9729 0.0736 0.0452
C16 C 0.5150(6) -0.2356(4) 0.09332(9)
H15 H 0.4629 -0.3030 0.0723
N1 N 0.4524(7) -0.2932(4) 0.13260(9)
O1 O 0.3381(4) 0.1508(4) 0.12736(8)
O2 O 0.6360(6) 0.3357(3) 0.09610(7)
O3 O 0.5755(7) -0.2651(5) 0.16088(8)
O4 O 0.2715(7) -0.3738(5) 0.13487(10)
S1 S 0.57695(14) 0.20629(10) 0.12446(2)
loop_
_geom_bond_atom_site_label_1
_geom_bond_atom_site_label_2
_geom_bond_site_symmetry_1
_geom_bond_site_symmetry_2
C1 H1 1_555 1_555
H2 C1 1_555 1_555
H3 C1 1_555 1_555
C2 C1 1_555 1_555
C3 C2 1_555 1_555
H4 C3 1_555 1_555
C4 C3 1_555 1_555
H5 C4 1_555 1_555
C5 C4 1_555 1_555
C6 C5 1_555 1_555
H6 C6 1_555 1_555
C7 C2 1_555 1_555
H7 C7 1_555 1_555
C8 H8 1_555 1_555
H9 C8 1_555 1_555
C9 C8 1_555 1_555
C10 C9 1_555 1_555
C11 C10 1_555 1_555
H10 C11 1_555 1_555
C12 C11 1_555 1_555
H11 C12 1_555 1_555
C13 C12 1_555 1_555
H12 C13 1_555 1_555
C14 C13 1_555 1_555
H13 C14 1_555 1_555
C15 C10 1_555 1_555
H14 C15 1_555 1_555
C16 C9 1_555 1_555
H15 C16 1_555 1_555
N1 C16 1_555 1_555
O1 S1 1_555 1_555
O2 S1 1_555 1_555
O3 N1 1_555 1_555
O4 N1 1_555 1_555
S1 C5 1_555 1_555
C6 C7 1_555 1_555
C8 S1 1_555 1_555
C14 C15 1_555 1_555

#END
