
#######################################################################
#
#                 Cambridge Crystallographic Data Centre
#                                CCDC 
#
#######################################################################
#
# If this CIF has been generated from an entry in the Cambridge 
# Structural Database, then it will include bibliographic, chemical, 
# crystal, experimental, refinement or atomic coordinate data resulting 
# from the CCDC's data processing and validation procedures.
#
#######################################################################

data_KEFGEJ
_chemical_formula_moiety         'C15 H19 N1 O4,2(H2 O1)'
_chemical_name_systematic        
'10-(Dimethoxymethyl)-2-oxa-9-azatetracyclo[6.5.1.0^1,5^.0^9,13^]tetradeca-4,6-dien-3-one dihydrate'
_symmetry_cell_setting           orthorhombic
_symmetry_space_group_name_H-M   'P 21 21 21'
_symmetry_Int_Tables_number      19
_space_group_name_Hall           'P 2ac 2ab'
loop_
_symmetry_equiv_pos_site_id
_symmetry_equiv_pos_as_xyz
1 x,y,z
2 1/2-x,-y,1/2+z
3 1/2+x,1/2-y,-z
4 -x,1/2+y,1/2-z
_cell_length_a                   7.9729(3)
_cell_length_b                   9.2764(4)
_cell_length_c                   21.4056(11)
_cell_angle_alpha                90
_cell_angle_beta                 90
_cell_angle_gamma                90
_cell_volume                     1583.15
_exptl_crystal_colour            colorless
_exptl_crystal_description       prism
_cell_formula_units_Z            4
loop_
_atom_site_label
_atom_site_type_symbol
_atom_site_fract_x
_atom_site_fract_y
_atom_site_fract_z
C1 C 0.9980(2) 0.50977(17) 0.03487(8)
H1 H 1.1131 0.5146 0.0190
C2 C 0.9806(3) 0.5980(2) 0.09429(9)
H2 H 0.8702 0.6413 0.0973
H3 H 1.0649 0.6734 0.0962
C3 C 1.0075(3) 0.4865(2) 0.14536(9)
H4 H 1.1257 0.4655 0.1510
H5 H 0.9603 0.5184 0.1848
C4 C 0.9141(2) 0.35697(19) 0.11996(8)
H6 H 0.7932 0.3697 0.1261
C5 C 0.9698(2) 0.2163(2) 0.14843(9)
H7 H 1.0828 0.1953 0.1329
C6 C 0.8103(2) 0.3189(2) 0.01116(9)
H8 H 0.7372 0.2476 0.0311
C7 C 0.7185(2) 0.4619(2) 0.00041(9)
H9 H 0.6380 0.4562 -0.0335
H10 H 0.6641 0.4972 0.0379
C8 C 0.8723(2) 0.54953(19) -0.01686(9)
C9 C 0.9070(3) 0.7490(2) -0.07825(10)
C10 C 0.9555(3) 0.6242(3) -0.11464(10)
H11 H 0.9968 0.6263 -0.1553
C11 C 0.9313(2) 0.5062(2) -0.08050(9)
C12 C 0.9406(3) 0.3533(2) -0.09261(9)
H12 H 0.9875 0.3186 -0.1294
C13 C 0.8803(3) 0.2631(2) -0.04961(9)
H13 H 0.8815 0.1644 -0.0572
C14 C 0.8178(3) 0.2422(3) 0.24489(10)
H14 H 0.7366 0.1766 0.2279
H15 H 0.7815 0.3395 0.2379
H16 H 0.8290 0.2254 0.2889
C15 C 0.9160(4) -0.0340(2) 0.14261(14)
H17 H 0.8579 -0.1026 0.1169
H18 H 0.8911 -0.0525 0.1857
H19 H 1.0346 -0.0427 0.1359
N1 N 0.95373(19) 0.35830(15) 0.05225(7)
O1 O 0.9063(2) 0.87624(17) -0.09116(8)
O2 O 0.97673(18) 0.21960(16) 0.21489(6)
O3 O 0.8629(2) 0.10838(14) 0.12672(7)
O6 O 0.85188(19) 0.70413(14) -0.02138(6)
O4 O 0.3325(2) 0.25034(19) 0.24835(9)
H20 H 0.2289 0.2378 0.2408
H21 H 0.3752 0.1719 0.2613
O5 O 0.5155(3) 0.49702(19) 0.20471(10)
H22 H 0.4824 0.5346 0.1706
H23 H 0.4597 0.4207 0.2119
loop_
_geom_bond_atom_site_label_1
_geom_bond_atom_site_label_2
_geom_bond_site_symmetry_1
_geom_bond_site_symmetry_2
C1 H1 1_555 1_555
C2 C1 1_555 1_555
H2 C2 1_555 1_555
H3 C2 1_555 1_555
C3 C2 1_555 1_555
H4 C3 1_555 1_555
H5 C3 1_555 1_555
C4 C3 1_555 1_555
H6 C4 1_555 1_555
C5 C4 1_555 1_555
H7 C5 1_555 1_555
C6 H8 1_555 1_555
C7 C6 1_555 1_555
H9 C7 1_555 1_555
H10 C7 1_555 1_555
C8 C1 1_555 1_555
C9 C10 1_555 1_555
C10 H11 1_555 1_555
C11 C8 1_555 1_555
C12 C11 1_555 1_555
H12 C12 1_555 1_555
C13 C6 1_555 1_555
H13 C13 1_555 1_555
C14 H14 1_555 1_555
H15 C14 1_555 1_555
H16 C14 1_555 1_555
C15 H17 1_555 1_555
H18 C15 1_555 1_555
H19 C15 1_555 1_555
N1 C1 1_555 1_555
O1 C9 1_555 1_555
O2 C5 1_555 1_555
O3 C5 1_555 1_555
O4 H20 1_555 1_555
H21 O4 1_555 1_555
O5 H22 1_555 1_555
H23 O5 1_555 1_555
O6 C8 1_555 1_555
C4 N1 1_555 1_555
C6 N1 1_555 1_555
C7 C8 1_555 1_555
C9 O6 1_555 1_555
C10 C11 1_555 1_555
C12 C13 1_555 1_555
C14 O2 1_555 1_555
C15 O3 1_555 1_555

#END
