
#######################################################################
#
#                 Cambridge Crystallographic Data Centre
#                                CCDC 
#
#######################################################################
#
# If this CIF has been generated from an entry in the Cambridge 
# Structural Database, then it will include bibliographic, chemical, 
# crystal, experimental, refinement or atomic coordinate data resulting 
# from the CCDC's data processing and validation procedures.
#
#######################################################################

data_KEFRIZ
_chemical_formula_moiety         'C3 N9 O10 1-,C2 H6 N5 1+'
_chemical_name_systematic        
'3,5-diamino-4H-1,2,4-triazol-1-ium nitro(3-nitro-1-(trinitromethyl)-1H-1,2,4-triazol-5-yl)azanide'
_symmetry_cell_setting           orthorhombic
_symmetry_space_group_name_H-M   'P c a 21'
_symmetry_Int_Tables_number      29
_space_group_name_Hall           'P 2c -2ac'
loop_
_symmetry_equiv_pos_site_id
_symmetry_equiv_pos_as_xyz
1 x,y,z
2 -x,-y,1/2+z
3 1/2+x,-y,z
4 1/2-x,y,1/2+z
_cell_length_a                   9.2722(11)
_cell_length_b                   13.4860(16)
_cell_length_c                   12.5676(15)
_cell_angle_alpha                90
_cell_angle_beta                 90
_cell_angle_gamma                90
_cell_volume                     1571.51
_exptl_crystal_colour            yellow
_exptl_crystal_description       block
_cell_formula_units_Z            4
loop_
_atom_site_label
_atom_site_type_symbol
_atom_site_fract_x
_atom_site_fract_y
_atom_site_fract_z
C1 C -0.5850(4) -0.7774(3) -0.5856(3)
C2 C -0.7379(4) -0.7497(3) -0.4678(3)
C3 C -0.9049(4) -0.8856(3) -0.5272(3)
N1 N -0.4558(4) -0.7673(2) -0.6499(3)
N2 N -0.7882(3) -0.6604(2) -0.3195(3)
N3 N -0.8369(3) -0.7166(2) -0.3967(2)
N4 N -0.9055(4) -0.9559(3) -0.4305(3)
N5 N -1.0409(4) -0.8196(3) -0.5230(3)
N6 N -0.9132(6) -0.9526(4) -0.6259(4)
N7 N -0.6094(3) -0.7190(2) -0.4999(2)
N8 N -0.7801(3) -0.8262(2) -0.5335(3)
N9 N -0.6805(3) -0.8433(2) -0.6123(3)
O1 O -0.4508(3) -0.8106(2) -0.7345(2)
O2 O -0.3608(3) -0.7152(3) -0.6155(3)
O3 O -0.6588(3) -0.6494(3) -0.2979(3)
O4 O -0.8829(3) -0.61777(19) -0.2642(2)
O5 O -1.0361(4) -0.7477(3) -0.5813(3)
O6 O -1.1371(3) -0.8442(3) -0.4651(3)
O7 O -0.8164(4) -0.9410(3) -0.3635(3)
O8 O -0.9953(5) -1.0216(3) -0.4360(4)
O9 O -0.8352(6) -1.0238(4) -0.6230(4)
O10 O -0.9942(6) -0.9274(5) -0.6939(4)
C4 C -0.2953(4) -0.6188(3) -0.3686(4)
C5 C -0.2831(4) -0.5231(3) -0.5078(3)
N10 N -0.3461(5) -0.6750(4) -0.2915(4)
H1 H -0.434(7) -0.679(4) -0.292(5)
H2 H -0.282(8) -0.712(4) -0.246(5)
N11 N -0.3298(5) -0.4719(3) -0.5924(4)
H3 H -0.271(6) -0.449(4) -0.633(4)
H4 H -0.418(5) -0.461(3) -0.597(3)
N12 N -0.3753(3) -0.5714(3) -0.4408(3)
H5 H -0.466(7) -0.580(4) -0.444(5)
N13 N -0.1495(3) -0.5351(3) -0.4790(3)
N14 N -0.1606(4) -0.5969(3) -0.3907(4)
H6 H -0.083(6) -0.614(4) -0.355(4)
loop_
_geom_bond_atom_site_label_1
_geom_bond_atom_site_label_2
_geom_bond_site_symmetry_1
_geom_bond_site_symmetry_2
C1 N1 1_555 1_555
C2 N3 1_555 1_555
C3 N4 1_555 1_555
N1 O1 1_555 1_555
N2 N3 1_555 1_555
N4 O7 1_555 1_555
N5 C3 1_555 1_555
N6 C3 1_555 1_555
N7 C1 1_555 1_555
N8 C2 1_555 1_555
N9 C1 1_555 1_555
O2 N1 1_555 1_555
O3 N2 1_555 1_555
O4 N2 1_555 1_555
O5 N5 1_555 1_555
O6 N5 1_555 1_555
O8 N4 1_555 1_555
O9 N6 1_555 1_555
O10 N6 1_555 1_555
C4 N10 1_555 1_555
C5 N11 1_555 1_555
N10 H1 1_555 1_555
H2 N10 1_555 1_555
N11 H3 1_555 1_555
H4 N11 1_555 1_555
N12 C4 1_555 1_555
H5 N12 1_555 1_555
N13 C5 1_555 1_555
N14 C4 1_555 1_555
H6 N14 1_555 1_555
C2 N7 1_555 1_555
C3 N8 1_555 1_555
N8 N9 1_555 1_555
C5 N12 1_555 1_555
N13 N14 1_555 1_555

#END
