
#######################################################################
#
#                 Cambridge Crystallographic Data Centre
#                                CCDC 
#
#######################################################################
#
# If this CIF has been generated from an entry in the Cambridge 
# Structural Database, then it will include bibliographic, chemical, 
# crystal, experimental, refinement or atomic coordinate data resulting 
# from the CCDC's data processing and validation procedures.
#
#######################################################################

data_KEFVEY
_chemical_formula_moiety         'C34 H52 B2 N4'
_chemical_name_systematic        
B,B'-bis(1,3-di-isopropyl-4,5-dimethylimidazol-2-ylidene)-B,B'-diphenyldiborene
_symmetry_cell_setting           monoclinic
_symmetry_space_group_name_H-M   'P 21/n'
_symmetry_Int_Tables_number      14
_space_group_name_Hall           '-P 2yn'
loop_
_symmetry_equiv_pos_site_id
_symmetry_equiv_pos_as_xyz
1 x,y,z
2 1/2-x,1/2+y,1/2-z
3 -x,-y,-z
4 1/2+x,1/2-y,1/2+z
_cell_length_a                   15.1072(13)
_cell_length_b                   11.8124(10)
_cell_length_c                   20.1012(17)
_cell_angle_alpha                90
_cell_angle_beta                 110.1430(10)
_cell_angle_gamma                90
_cell_volume                     3367.7
_exptl_crystal_colour            colorless
_exptl_crystal_description       plate
_cell_formula_units_Z            4
loop_
_atom_site_label
_atom_site_type_symbol
_atom_site_fract_x
_atom_site_fract_y
_atom_site_fract_z
B1 B 0.30119(12) 0.60523(14) 0.60013(9)
H1 H 0.2590(11) 0.6315(13) 0.6353(8)
B2 B 0.42524(13) 0.60524(15) 0.65027(9)
H2 H 0.4648(11) 0.6000(13) 0.6113(8)
N1 N 0.29557(10) 0.69313(11) 0.47581(7)
N2 N 0.24218(9) 0.80592(10) 0.53699(7)
N3 N 0.43914(10) 0.76331(11) 0.74912(7)
N4 N 0.50104(10) 0.81345(12) 0.67232(7)
C1 C 0.27968(10) 0.70089(12) 0.53822(8)
C2 C 0.26512(13) 0.79106(15) 0.43519(9)
C3 C 0.23256(13) 0.86159(14) 0.47371(9)
C4 C 0.20634(14) 0.84737(15) 0.59234(9)
H3 H 0.2230 0.7898 0.6297
C5 C 0.25281(17) 0.95620(18) 0.62681(12)
H4 H 0.3200 0.9467 0.6442
H5 H 0.2319 0.9747 0.6655
H6 H 0.2360 1.0163 0.5926
C6 C 0.09931(15) 0.8538(2) 0.56377(13)
H7 H 0.0740 0.7823 0.5431
H8 H 0.0796 0.9120 0.5284
H9 H 0.0767 0.8709 0.6018
C7 C 0.19723(16) 0.97974(15) 0.45547(11)
H10 H 0.2428 1.0322 0.4844
H11 H 0.1388 0.9888 0.4638
H12 H 0.1874 0.9941 0.4064
C8 C 0.2670(2) 0.8097(2) 0.36197(12)
H13 H 0.2277 0.8731 0.3407
H14 H 0.2440 0.7432 0.3338
H15 H 0.3305 0.8246 0.3644
C9 C 0.34060(13) 0.59343(15) 0.45589(9)
H16 H 0.3605 0.5434 0.4973
C10 C 0.27053(17) 0.52682(19) 0.39641(11)
H17 H 0.2164 0.5089 0.4090
H18 H 0.2995 0.4581 0.3887
H19 H 0.2513 0.5713 0.3538
C11 C 0.42953(15) 0.6244(2) 0.44044(11)
H20 H 0.4715 0.6659 0.4797
H21 H 0.4130 0.6702 0.3985
H22 H 0.4601 0.5565 0.4334
C12 C 0.25377(11) 0.48605(12) 0.56312(8)
C13 C 0.30265(12) 0.38685(13) 0.55998(9)
H23 H 0.3680 0.3866 0.5806
C14 C 0.25788(15) 0.28931(15) 0.52760(10)
H24 H 0.2933 0.2252 0.5270
C15 C 0.16173(15) 0.28603(16) 0.49630(11)
H25 H 0.1316 0.2205 0.4741
C16 C 0.11066(14) 0.38132(17) 0.49825(11)
H26 H 0.0454 0.3806 0.4772
C17 C 0.15607(12) 0.47833(14) 0.53137(9)
H27 H 0.1198 0.5414 0.5325
C18 C 0.45526(10) 0.72646(13) 0.69048(8)
C19 C 0.47640(14) 0.87171(16) 0.76793(10)
C20 C 0.51453(14) 0.90302(15) 0.72031(10)
C21 C 0.53680(15) 0.80613(18) 0.61306(10)
H28 H 0.5130 0.7347 0.5886
C22 C 0.4994(2) 0.8991(3) 0.55903(13)
H29 H 0.4318 0.9005 0.5440
H30 H 0.5185 0.8852 0.5189
H31 H 0.5240 0.9707 0.5799
C23 C 0.64356(19) 0.7981(3) 0.63950(17)
H32 H 0.6637 0.7381 0.6736
H33 H 0.6702 0.8684 0.6612
H34 H 0.6644 0.7827 0.6003
C24 C 0.56096(19) 1.01397(19) 0.71584(14)
H35 H 0.5212 1.0563 0.6760
H36 H 0.6206 1.0000 0.7102
H37 H 0.5708 1.0564 0.7585
C25 C 0.4709(2) 0.9389(2) 0.82978(14)
H38 H 0.5129 1.0025 0.8379
H39 H 0.4888 0.8919 0.8712
H40 H 0.4076 0.9655 0.8197
C26 C 0.39213(12) 0.69274(14) 0.78772(9)
H41 H 0.3684 0.6254 0.7586
C27 C 0.46290(15) 0.6517(2) 0.85717(10)
H42 H 0.5146 0.6154 0.8483
H43 H 0.4330 0.5987 0.8788
H44 H 0.4859 0.7150 0.8883
C28 C 0.30734(14) 0.75068(18) 0.79667(11)
H45 H 0.2649 0.7745 0.7512
H46 H 0.3278 0.8154 0.8269
H47 H 0.2756 0.6987 0.8175
C29 C 0.46675(11) 0.50141(13) 0.70579(8)
C30 C 0.56364(13) 0.48141(18) 0.73177(10)
H48 H 0.6034 0.5315 0.7200
C31 C 0.60279(17) 0.3890(2) 0.77480(12)
H49 H 0.6677 0.3782 0.7909
C32 C 0.5464(2) 0.3139(2) 0.79359(12)
H50 H 0.5726 0.2525 0.8227
C33 C 0.45221(19) 0.33037(17) 0.76918(11)
H51 H 0.4132 0.2793 0.7811
C34 C 0.41313(14) 0.42224(15) 0.72676(9)
H52 H 0.3481 0.4317 0.7115
loop_
_geom_bond_atom_site_label_1
_geom_bond_atom_site_label_2
_geom_bond_site_symmetry_1
_geom_bond_site_symmetry_2
B1 H1 1_555 1_555
B2 B1 1_555 1_555
H2 B2 1_555 1_555
N1 C1 1_555 1_555
N2 C1 1_555 1_555
N3 C18 1_555 1_555
N4 C18 1_555 1_555
C1 B1 1_555 1_555
C2 N1 1_555 1_555
C3 N2 1_555 1_555
C4 N2 1_555 1_555
H3 C4 1_555 1_555
C5 C4 1_555 1_555
H4 C5 1_555 1_555
H5 C5 1_555 1_555
H6 C5 1_555 1_555
C6 C4 1_555 1_555
H7 C6 1_555 1_555
H8 C6 1_555 1_555
H9 C6 1_555 1_555
C7 C3 1_555 1_555
H10 C7 1_555 1_555
H11 C7 1_555 1_555
H12 C7 1_555 1_555
C8 C2 1_555 1_555
H13 C8 1_555 1_555
H14 C8 1_555 1_555
H15 C8 1_555 1_555
C9 N1 1_555 1_555
H16 C9 1_555 1_555
C10 C9 1_555 1_555
H17 C10 1_555 1_555
H18 C10 1_555 1_555
H19 C10 1_555 1_555
C11 C9 1_555 1_555
H20 C11 1_555 1_555
H21 C11 1_555 1_555
H22 C11 1_555 1_555
C12 B1 1_555 1_555
C13 C12 1_555 1_555
H23 C13 1_555 1_555
C14 C13 1_555 1_555
H24 C14 1_555 1_555
C15 C14 1_555 1_555
H25 C15 1_555 1_555
C16 C15 1_555 1_555
H26 C16 1_555 1_555
C17 C12 1_555 1_555
H27 C17 1_555 1_555
C18 B2 1_555 1_555
C19 N3 1_555 1_555
C20 N4 1_555 1_555
C21 N4 1_555 1_555
H28 C21 1_555 1_555
C22 C21 1_555 1_555
H29 C22 1_555 1_555
H30 C22 1_555 1_555
H31 C22 1_555 1_555
C23 C21 1_555 1_555
H32 C23 1_555 1_555
H33 C23 1_555 1_555
H34 C23 1_555 1_555
C24 C20 1_555 1_555
H35 C24 1_555 1_555
H36 C24 1_555 1_555
H37 C24 1_555 1_555
C25 C19 1_555 1_555
H38 C25 1_555 1_555
H39 C25 1_555 1_555
H40 C25 1_555 1_555
C26 N3 1_555 1_555
H41 C26 1_555 1_555
C27 C26 1_555 1_555
H42 C27 1_555 1_555
H43 C27 1_555 1_555
H44 C27 1_555 1_555
C28 C26 1_555 1_555
H45 C28 1_555 1_555
H46 C28 1_555 1_555
H47 C28 1_555 1_555
C29 B2 1_555 1_555
C30 C29 1_555 1_555
H48 C30 1_555 1_555
C31 C30 1_555 1_555
H49 C31 1_555 1_555
C32 C31 1_555 1_555
H50 C32 1_555 1_555
C33 C32 1_555 1_555
H51 C33 1_555 1_555
C34 C29 1_555 1_555
H52 C34 1_555 1_555
C2 C3 1_555 1_555
C16 C17 1_555 1_555
C19 C20 1_555 1_555
C33 C34 1_555 1_555

#END
