
#######################################################################
#
#                 Cambridge Crystallographic Data Centre
#                                CCDC 
#
#######################################################################
#
# If this CIF has been generated from an entry in the Cambridge 
# Structural Database, then it will include bibliographic, chemical, 
# crystal, experimental, refinement or atomic coordinate data resulting 
# from the CCDC's data processing and validation procedures.
#
#######################################################################

data_KEFXOJ
_chemical_compound_source        'rhizome of Phlomis umbrosa turcz (Si Lengma)'
_chemical_formula_moiety         'C29 H46 O6'
_chemical_name_systematic        
(17S)-2\a,3\a,18\b,23,24-pentahydroxy-19(18-17)-abeo-28-norolean-12-en-21-one
_chemical_properties_biological  
'the rhizome is used to treat colds, swelling and staunch bleeding in traditional Chinese medicine'
_symmetry_cell_setting           orthorhombic
_symmetry_space_group_name_H-M   'P 21 21 21'
_symmetry_Int_Tables_number      19
_space_group_name_Hall           'P 2ac 2ab'
loop_
_symmetry_equiv_pos_site_id
_symmetry_equiv_pos_as_xyz
1 x,y,z
2 1/2-x,-y,1/2+z
3 -x,1/2+y,1/2-z
4 1/2+x,1/2-y,-z
_cell_length_a                   7.0637(10)
_cell_length_b                   11.6334(17)
_cell_length_c                   31.080(4)
_cell_angle_alpha                90
_cell_angle_beta                 90
_cell_angle_gamma                90
_cell_volume                     2553.99
_exptl_crystal_colour            colorless
_exptl_crystal_description       plate
_chemical_melting_point          '562.5-563.5 K'
_cell_formula_units_Z            4
_exptl_crystal_recrystallization_method methanol
loop_
_atom_site_label
_atom_site_type_symbol
_atom_site_fract_x
_atom_site_fract_y
_atom_site_fract_z
O1 O 0.3376(4) 0.4678(2) 0.04432(8)
H1 H 0.313(7) 0.526(4) 0.0545(13)
O2 O 0.5649(4) 0.2763(2) 0.05885(8)
H2 H 0.605(6) 0.323(4) 0.0395(12)
O3 O 0.6119(4) 0.0592(2) 0.08380(7)
H3 H 0.652(7) 0.127(4) 0.0774(13)
O4 O 0.1178(4) 0.0839(2) 0.01423(8)
H4 H 0.020(6) 0.056(4) 0.0077(14)
O5 O 0.2406(4) 0.4494(2) 0.34346(7)
H5 H 0.303(6) 0.477(4) 0.3679(13)
O6 O -0.1891(4) 0.1661(3) 0.40669(9)
C1 C 0.2822(6) 0.3867(3) 0.11581(9)
H6 H 0.2171 0.4563 0.1245
H7 H 0.4152 0.3957 0.1228
C2 C 0.2615(5) 0.3714(3) 0.06750(10)
H8 H 0.1268 0.3639 0.0605
C3 C 0.3644(5) 0.2644(3) 0.05191(10)
H9 H 0.3417 0.2558 0.0210
C4 C 0.2965(5) 0.1548(3) 0.07480(10)
C5 C 0.2988(5) 0.1731(3) 0.12444(9)
H10 H 0.4329 0.1837 0.1315
C6 C 0.2384(5) 0.0685(3) 0.15096(9)
H11 H 0.1016 0.0614 0.1504
H12 H 0.2919 -0.0007 0.1385
C7 C 0.3057(6) 0.0811(3) 0.19732(9)
H13 H 0.4430 0.0794 0.1977
H14 H 0.2609 0.0158 0.2138
C8 C 0.2383(5) 0.1922(3) 0.21948(9)
C9 C 0.2697(5) 0.2978(3) 0.18950(9)
H15 H 0.4074 0.3075 0.1878
C10 C 0.2012(5) 0.2839(3) 0.14150(10)
C11 C 0.1965(6) 0.4070(3) 0.21123(10)
H16 H 0.2580 0.4729 0.1982
H17 H 0.0618 0.4137 0.2057
C12 C 0.2285(5) 0.4111(3) 0.25878(10)
H18 H 0.2004 0.4798 0.2727
C13 C 0.2929(5) 0.3261(3) 0.28287(10)
C14 C 0.3532(5) 0.2117(3) 0.26279(9)
C15 C 0.3229(6) 0.1095(3) 0.29387(10)
H19 H 0.1935 0.0828 0.2909
H20 H 0.4055 0.0472 0.2851
C16 C 0.3596(6) 0.1354(3) 0.34117(10)
H21 H 0.4944 0.1465 0.3454
H22 H 0.3217 0.0693 0.3582
C17 C 0.2550(5) 0.2412(3) 0.35765(10)
C18 C 0.3270(5) 0.3436(3) 0.33071(10)
H23 H 0.4638 0.3506 0.3353
C19 C 0.2931(5) 0.2603(3) 0.40661(10)
H24 H 0.4099 0.2224 0.4149
H25 H 0.3057 0.3418 0.4126
C20 C 0.1274(5) 0.2105(3) 0.43204(10)
C21 C -0.0302(6) 0.1995(3) 0.39893(11)
C22 C 0.0386(5) 0.2324(4) 0.35510(10)
H26 H -0.0154 0.3056 0.3465
H27 H 0.0020 0.1747 0.3342
C23 C 0.4330(5) 0.0557(3) 0.06257(10)
H28 H 0.3721 -0.0169 0.0692
H29 H 0.4543 0.0579 0.0317
C24 C 0.1009(5) 0.1196(3) 0.05815(10)
H30 H 0.0511 0.0571 0.0754
H31 H 0.0142 0.1841 0.0602
C25 C -0.0174(5) 0.2846(3) 0.13651(11)
H32 H -0.0502 0.3106 0.1082
H33 H -0.0718 0.3354 0.1575
H34 H -0.0655 0.2083 0.1408
C26 C 0.0252(5) 0.1804(3) 0.23018(11)
H35 H -0.0422 0.1561 0.2049
H36 H -0.0232 0.2532 0.2397
H37 H 0.0088 0.1244 0.2526
C27 C 0.5705(5) 0.2225(3) 0.25552(11)
H38 H 0.5970 0.2916 0.2398
H39 H 0.6148 0.1573 0.2395
H40 H 0.6338 0.2251 0.2828
C28 C 0.0635(7) 0.2888(5) 0.46851(14)
H41 H 0.0253 0.3618 0.4569
H42 H 0.1662 0.2999 0.4883
H43 H -0.0414 0.2542 0.4833
C29 C 0.1680(8) 0.0894(4) 0.44942(15)
H44 H 0.0589 0.0614 0.4646
H45 H 0.2742 0.0922 0.4687
H46 H 0.1964 0.0388 0.4259
loop_
_geom_bond_atom_site_label_1
_geom_bond_atom_site_label_2
_geom_bond_site_symmetry_1
_geom_bond_site_symmetry_2
O1 H1 1_555 1_555
O2 H2 1_555 1_555
O3 H3 1_555 1_555
O4 H4 1_555 1_555
O5 H5 1_555 1_555
O6 C21 1_555 1_555
C1 H6 1_555 1_555
H7 C1 1_555 1_555
C2 O1 1_555 1_555
H8 C2 1_555 1_555
C3 O2 1_555 1_555
H9 C3 1_555 1_555
C4 C3 1_555 1_555
C5 C4 1_555 1_555
H10 C5 1_555 1_555
C6 C5 1_555 1_555
H11 C6 1_555 1_555
H12 C6 1_555 1_555
C7 C6 1_555 1_555
H13 C7 1_555 1_555
H14 C7 1_555 1_555
C8 C7 1_555 1_555
C9 C8 1_555 1_555
H15 C9 1_555 1_555
C10 C1 1_555 1_555
C11 C9 1_555 1_555
H16 C11 1_555 1_555
H17 C11 1_555 1_555
C12 C11 1_555 1_555
H18 C12 1_555 1_555
C13 C12 1_555 1_555
C14 C8 1_555 1_555
C15 C14 1_555 1_555
H19 C15 1_555 1_555
H20 C15 1_555 1_555
C16 C15 1_555 1_555
H21 C16 1_555 1_555
H22 C16 1_555 1_555
C17 C16 1_555 1_555
C18 O5 1_555 1_555
H23 C18 1_555 1_555
C19 C17 1_555 1_555
H24 C19 1_555 1_555
H25 C19 1_555 1_555
C20 C19 1_555 1_555
C21 C20 1_555 1_555
C22 C17 1_555 1_555
H26 C22 1_555 1_555
H27 C22 1_555 1_555
C23 O3 1_555 1_555
H28 C23 1_555 1_555
H29 C23 1_555 1_555
C24 O4 1_555 1_555
H30 C24 1_555 1_555
H31 C24 1_555 1_555
C25 C10 1_555 1_555
H32 C25 1_555 1_555
H33 C25 1_555 1_555
H34 C25 1_555 1_555
C26 C8 1_555 1_555
H35 C26 1_555 1_555
H36 C26 1_555 1_555
H37 C26 1_555 1_555
C27 C14 1_555 1_555
H38 C27 1_555 1_555
H39 C27 1_555 1_555
H40 C27 1_555 1_555
C28 C20 1_555 1_555
H41 C28 1_555 1_555
H42 C28 1_555 1_555
H43 C28 1_555 1_555
C29 C20 1_555 1_555
H44 C29 1_555 1_555
H45 C29 1_555 1_555
H46 C29 1_555 1_555
C1 C2 1_555 1_555
C2 C3 1_555 1_555
C4 C23 1_555 1_555
C4 C24 1_555 1_555
C5 C10 1_555 1_555
C9 C10 1_555 1_555
C13 C14 1_555 1_555
C13 C18 1_555 1_555
C17 C18 1_555 1_555
C21 C22 1_555 1_555

#END
