
#######################################################################
#
#                 Cambridge Crystallographic Data Centre
#                                CCDC 
#
#######################################################################
#
# If this CIF has been generated from an entry in the Cambridge 
# Structural Database, then it will include bibliographic, chemical, 
# crystal, experimental, refinement or atomic coordinate data resulting 
# from the CCDC's data processing and validation procedures.
#
#######################################################################

data_KEFZEB
_chemical_formula_moiety         'C23 H23 N1 O3'
_chemical_name_systematic        
(E)-1-Ethoxycarbonyl-2-((2-hydroxynaphthalen-1-yl)(phenyl)methyliminio)propan-1-ide
_symmetry_cell_setting           triclinic
_symmetry_space_group_name_H-M   'P -1'
_symmetry_Int_Tables_number      2
_space_group_name_Hall           '-P 1'
loop_
_symmetry_equiv_pos_site_id
_symmetry_equiv_pos_as_xyz
1 x,y,z
2 -x,-y,-z
_cell_length_a                   9.602(4)
_cell_length_b                   9.962(5)
_cell_length_c                   10.899(5)
_cell_angle_alpha                100.775(19)
_cell_angle_beta                 109.714(14)
_cell_angle_gamma                93.722(18)
_cell_volume                     954.859
_exptl_crystal_colour            colorless
_exptl_crystal_description       Chunk
_chemical_melting_point          '431-437 K'
_cell_formula_units_Z            2
_exptl_crystal_recrystallization_method methanol
loop_
_atom_site_label
_atom_site_type_symbol
_atom_site_fract_x
_atom_site_fract_y
_atom_site_fract_z
O1 O 0.18246(10) 0.53722(11) 0.64227(12)
O2 O -0.01737(11) 0.71146(12) 0.40394(12)
O3 O -0.06574(13) 0.83611(13) 0.24492(12)
N1 N 0.24609(12) 0.80909(12) 0.61792(12)
C1 C 0.36652(12) 0.78535(13) 0.73398(13)
C2 C 0.42380(13) 0.65073(13) 0.69751(12)
C3 C 0.57588(13) 0.64680(14) 0.70721(13)
C4 C 0.68307(16) 0.76502(18) 0.74675(17)
C5 C 0.82626(18) 0.7566(2) 0.7505(2)
C6 C 0.87158(18) 0.6273(2) 0.7193(2)
C7 C 0.77362(18) 0.5128(2) 0.68143(17)
C8 C 0.62282(16) 0.51591(17) 0.67392(13)
C9 C 0.51910(17) 0.39689(16) 0.62937(14)
C10 C 0.37352(17) 0.40114(14) 0.61832(14)
C11 C 0.32730(13) 0.53007(14) 0.65342(13)
C12 C 0.32249(14) 0.79830(14) 0.85641(13)
C13 C 0.3810(2) 0.7225(2) 0.95251(18)
C14 C 0.3486(3) 0.7423(2) 1.0670(2)
C15 C 0.2541(2) 0.8339(3) 1.0872(2)
C16 C 0.1941(2) 0.9058(2) 0.9946(2)
C17 C 0.22885(18) 0.8924(2) 0.87835(19)
C18 C 0.25072(14) 0.90910(13) 0.55280(14)
C19 C 0.14278(17) 0.91370(16) 0.43419(17)
C20 C 0.01721(16) 0.81249(16) 0.36429(16)
C21 C -0.1872(2) 0.7349(2) 0.1551(2)
C22 C -0.1341(3) 0.6298(3) 0.0722(2)
C23 C 0.3816(2) 1.02309(18) 0.6117(2)
H1 H 0.4492 0.8594 0.7561
H2 H 0.6557 0.8513 0.7700
H3 H 0.8939 0.8367 0.7754
H4 H 0.9695 0.6222 0.7238
H5 H 0.8046 0.4277 0.6605
H6 H 0.5495 0.3118 0.6072
H7 H 0.3060 0.3204 0.5881
H8 H 0.4456 0.6602 0.9398
H9 H 0.3889 0.6909 1.1303
H10 H 0.2305 0.8456 1.1642
H11 H 0.1308 0.9690 1.0086
H12 H 0.1877 0.9439 0.8154
H13 H 0.1530 0.9886 0.3967
H14 H 0.1686 0.7417 0.5831
H15 H -0.2611 0.7793 0.0972
H16 H -0.2322 0.6899 0.2069
H17 H -0.2171 0.5780 -0.0032
H18 H -0.0842 0.5683 0.1252
H19 H -0.0657 0.6755 0.0413
H20 H 0.3672 1.0912 0.5584
H21 H 0.4716 0.9850 0.6140
H22 H 0.3896 1.0653 0.7009
H23 H 0.1286 0.4495 0.6175
loop_
_geom_bond_atom_site_label_1
_geom_bond_atom_site_label_2
_geom_bond_site_symmetry_1
_geom_bond_site_symmetry_2
O1 C11 1_555 1_555
O2 C20 1_555 1_555
O3 C20 1_555 1_555
N1 C1 1_555 1_555
C1 C2 1_555 1_555
C2 C3 1_555 1_555
C3 C4 1_555 1_555
C4 C5 1_555 1_555
C5 C6 1_555 1_555
C6 C7 1_555 1_555
C7 C8 1_555 1_555
C8 C3 1_555 1_555
C9 C8 1_555 1_555
C10 C9 1_555 1_555
C11 C2 1_555 1_555
C12 C1 1_555 1_555
C13 C12 1_555 1_555
C14 C13 1_555 1_555
C15 C14 1_555 1_555
C16 C15 1_555 1_555
C17 C12 1_555 1_555
C18 N1 1_555 1_555
C19 C18 1_555 1_555
C20 C19 1_555 1_555
C21 O3 1_555 1_555
C22 C21 1_555 1_555
C23 C18 1_555 1_555
H1 C1 1_555 1_555
H2 C4 1_555 1_555
H3 C5 1_555 1_555
H4 C6 1_555 1_555
H5 C7 1_555 1_555
H6 C9 1_555 1_555
H7 C10 1_555 1_555
H8 C13 1_555 1_555
H9 C14 1_555 1_555
H10 C15 1_555 1_555
H11 C16 1_555 1_555
H12 C17 1_555 1_555
H13 C19 1_555 1_555
H14 N1 1_555 1_555
H15 C21 1_555 1_555
H16 C21 1_555 1_555
H17 C22 1_555 1_555
H18 C22 1_555 1_555
H19 C22 1_555 1_555
H20 C23 1_555 1_555
H21 C23 1_555 1_555
H22 C23 1_555 1_555
H23 O1 1_555 1_555
C10 C11 1_555 1_555
C16 C17 1_555 1_555

#END
