
#######################################################################
#
#                 Cambridge Crystallographic Data Centre
#                                CCDC 
#
#######################################################################
#
# If this CIF has been generated from an entry in the Cambridge 
# Structural Database, then it will include bibliographic, chemical, 
# crystal, experimental, refinement or atomic coordinate data resulting 
# from the CCDC's data processing and validation procedures.
#
#######################################################################

data_KEGMUG
_chemical_formula_moiety         'C22 H21 Cl1 N4,0.5(C5 H12)'
_chemical_name_systematic        
'(1-Chloro-3,3-bis(4-(dimethylamino)phenyl)prop-2-en-1-ylidene)malononitrile pentane solvate'
_symmetry_cell_setting           triclinic
_symmetry_space_group_name_H-M   'P -1'
_symmetry_Int_Tables_number      2
_space_group_name_Hall           '-P 1'
loop_
_symmetry_equiv_pos_site_id
_symmetry_equiv_pos_as_xyz
1 x,y,z
2 -x,-y,-z
_cell_length_a                   8.1875(5)
_cell_length_b                   11.2539(8)
_cell_length_c                   13.8222(10)
_cell_angle_alpha                68.351(2)
_cell_angle_beta                 74.068(2)
_cell_angle_gamma                79.602(2)
_cell_volume                     1133.81
_exptl_crystal_colour            black
_exptl_crystal_description       cube
_cell_formula_units_Z            2
loop_
_atom_site_label
_atom_site_type_symbol
_atom_site_fract_x
_atom_site_fract_y
_atom_site_fract_z
C23 C -1.2716(8) 0.5035(5) 0.8752(5)
H22 H -1.1747 0.5516 0.8064
H23 H -1.3936 0.5612 0.8730
H24 H -1.2833 0.4097 0.8729
C24 C -1.2211(6) 0.4871(4) 0.9760(4)
H28 H -1.2469 0.3927 1.0330
H29 H -1.2952 0.5572 1.0106
C25 C -1.0296(6) 0.5040(4) 0.9519(3)
H30 H -0.9568 0.4308 0.9205
H31 H -1.0040 0.5961 0.8909
C23A C -0.7284(8) 0.4965(5) 1.1248(5)
H22A H -0.8253 0.4484 1.1936
H23A H -0.6064 0.4388 1.1270
H24A H -0.7167 0.5903 1.1271
C24A C -0.7789(6) 0.5129(4) 1.0240(4)
H28A H -0.7531 0.6073 0.9670
H29A H -0.7048 0.4428 0.9894
C25A C -0.9704(6) 0.4960(4) 1.0481(3)
H30A H -1.0432 0.5692 1.0795
H31A H -0.9960 0.4039 1.1091
Cl1 Cl 0.00762(6) -0.10715(5) 0.76951(4)
N1 N 0.0551(3) -0.2705(2) 0.5793(2)
N2 N 0.3540(3) 0.0512(2) 0.38559(17)
N3 N 0.6079(3) 0.53828(19) 0.62700(16)
N4 N -0.4602(2) 0.1592(2) 1.02129(14)
C1 C 0.1621(3) -0.0641(2) 0.56745(17)
C2 C 0.1258(2) -0.01396(19) 0.64962(16)
C3 C 0.1910(2) 0.09849(19) 0.63942(15)
H1 H 0.282(3) 0.131(3) 0.573(2)
C4 C 0.1554(2) 0.17000(18) 0.70646(15)
C5 C -0.0023(2) 0.16316(18) 0.78967(15)
C6 C -0.0031(2) 0.15708(19) 0.89271(15)
H2 H 0.110(3) 0.147(2) 0.914(2)
C7 C -0.1523(2) 0.1532(2) 0.96976(16)
H3 H -0.135(3) 0.143(3) 1.033(2)
C8 C -0.3110(2) 0.16055(19) 0.94568(15)
C9 C -0.3106(2) 0.1683(2) 0.84190(16)
H4 H -0.420(3) 0.184(3) 0.821(2)
C10 C -0.1599(2) 0.16728(19) 0.76712(15)
H5 H -0.166(3) 0.175(2) 0.6944(19)
C11 C 0.1018(3) -0.1793(2) 0.57686(19)
C12 C 0.2656(3) 0.0001(2) 0.46687(18)
C13 C 0.2728(2) 0.26284(18) 0.68854(15)
C14 C 0.2178(3) 0.37223(19) 0.72023(16)
H6 H 0.093(3) 0.382(2) 0.757(2)
C15 C 0.3268(3) 0.4636(2) 0.69855(17)
H7 H 0.277(3) 0.532(3) 0.723(2)
C16 C 0.4983(3) 0.4512(2) 0.64527(16)
C17 C 0.5528(3) 0.3437(2) 0.61078(16)
H8 H 0.667(3) 0.335(2) 0.5705(19)
C18 C 0.4441(2) 0.25267(19) 0.63291(16)
H9 H 0.490(3) 0.182(2) 0.607(2)
C19 C 0.5469(5) 0.6528(3) 0.6550(3)
H10 H 0.490(4) 0.632(3) 0.729(3)
H11 H 0.653(4) 0.696(3) 0.640(3)
H12 H 0.466(5) 0.689(5) 0.597(3)
C20 C 0.7861(3) 0.5220(3) 0.5718(2)
H13 H 0.842(4) 0.596(3) 0.569(3)
H14 H 0.849(4) 0.438(3) 0.619(3)
H15 H 0.798(4) 0.530(3) 0.504(3)
C21 C -0.4595(3) 0.1366(3) 1.13069(19)
H16 H -0.407(3) 0.209(3) 1.131(2)
H17 H -0.578(4) 0.132(3) 1.170(3)
H18 H -0.376(4) 0.047(2) 1.157(3)
C22 C -0.6211(3) 0.1738(3) 0.9926(2)
H19 H -0.614(4) 0.245(4) 0.929(3)
H20 H -0.631(3) 0.103(3) 0.972(2)
H21 H -0.710(4) 0.168(3) 1.049(3)
H25? H -1.2841 0.5184 0.7949
H26? H -1.3877 0.5434 0.9181
H27? H -1.2513 0.4010 0.9178
C26? C -1.135(3) 0.5638(18) 0.8686(19)
H32? H -1.1825 0.6594 0.8698
H33? H -1.0502 0.5741 0.7914
loop_
_geom_bond_atom_site_label_1
_geom_bond_atom_site_label_2
_geom_bond_site_symmetry_1
_geom_bond_site_symmetry_2
Cl1 C2 1_555 1_555
N1 C11 1_555 1_555
N2 C12 1_555 1_555
N3 C16 1_555 1_555
N4 C8 1_555 1_555
C1 C2 1_555 1_555
C2 C3 1_555 1_555
C3 H1 1_555 1_555
C4 C3 1_555 1_555
C5 C4 1_555 1_555
C6 C5 1_555 1_555
H2 C6 1_555 1_555
C7 C6 1_555 1_555
H3 C7 1_555 1_555
C8 C7 1_555 1_555
C9 C8 1_555 1_555
H4 C9 1_555 1_555
C10 C5 1_555 1_555
H5 C10 1_555 1_555
C11 C1 1_555 1_555
C12 C1 1_555 1_555
C13 C4 1_555 1_555
C14 C13 1_555 1_555
H6 C14 1_555 1_555
C15 C14 1_555 1_555
H7 C15 1_555 1_555
C16 C15 1_555 1_555
C17 C16 1_555 1_555
H8 C17 1_555 1_555
C18 C13 1_555 1_555
H9 C18 1_555 1_555
C19 N3 1_555 1_555
H10 C19 1_555 1_555
H11 C19 1_555 1_555
H12 C19 1_555 1_555
C20 N3 1_555 1_555
H13 C20 1_555 1_555
H14 C20 1_555 1_555
H15 C20 1_555 1_555
C21 N4 1_555 1_555
H16 C21 1_555 1_555
H17 C21 1_555 1_555
H18 C21 1_555 1_555
C22 N4 1_555 1_555
H19 C22 1_555 1_555
H20 C22 1_555 1_555
H21 C22 1_555 1_555
C23 H22 1_555 1_555
H23 C23 1_555 1_555
H24 C23 1_555 1_555
C24 C23 1_555 1_555
H28 C24 1_555 1_555
H29 C24 1_555 1_555
C25 C24 1_555 1_555
H30 C25 1_555 1_555
H31 C25 1_555 1_555
C23A H22A 1_555 1_555
H23A C23A 1_555 1_555
H24A C23A 1_555 1_555
C24A C23A 1_555 1_555
H28A C24A 1_555 1_555
H29A C24A 1_555 1_555
C25A C25 1_555 1_555
H30A C25A 1_555 1_555
H31A C25A 1_555 1_555
C9 C10 1_555 1_555
C17 C18 1_555 1_555
C24A C25A 1_555 1_555

#END
