
#######################################################################
#
#                 Cambridge Crystallographic Data Centre
#                                CCDC 
#
#######################################################################
#
# If this CIF has been generated from an entry in the Cambridge 
# Structural Database, then it will include bibliographic, chemical, 
# crystal, experimental, refinement or atomic coordinate data resulting 
# from the CCDC's data processing and validation procedures.
#
#######################################################################

data_KEGROG
_chemical_formula_moiety         'C30 H26 B1 N1'
_chemical_name_systematic        
6-(2,4,6-trimethylphenyl)-6,6a-dihydro-naphtho[1',2':2,3]borireno[1,2-c]pyrido[2,1-a][2,3]benzazaborinine-5-ium-6-ide
_symmetry_cell_setting           monoclinic
_symmetry_space_group_name_H-M   'P 21/c'
_symmetry_Int_Tables_number      14
_space_group_name_Hall           '-P 2ybc'
loop_
_symmetry_equiv_pos_site_id
_symmetry_equiv_pos_as_xyz
1 x,y,z
2 -x,1/2+y,1/2-z
3 -x,-y,-z
4 x,1/2-y,1/2+z
_cell_length_a                   10.4947(12)
_cell_length_b                   12.3025(11)
_cell_length_c                   17.1963(17)
_cell_angle_alpha                90
_cell_angle_beta                 95.954(4)
_cell_angle_gamma                90
_cell_volume                     2208.26
_exptl_crystal_colour            red
_exptl_crystal_description       block
_cell_formula_units_Z            4
loop_
_atom_site_label
_atom_site_type_symbol
_atom_site_fract_x
_atom_site_fract_y
_atom_site_fract_z
B1 B 0.2963(3) 0.1871(2) 0.19033(16)
N1 N 0.3003(2) 0.27955(14) 0.12783(11)
C1 C 0.0734(2) 0.14244(17) 0.10821(13)
C2 C -0.0433(3) 0.0867(2) 0.09507(16)
H1 H -0.0696 0.0415 0.1353
C3 C -0.1207(3) 0.0954(2) 0.02613(17)
H2 H -0.1988 0.0559 0.0190
C4 C -0.0858(3) 0.1609(2) -0.03286(17)
H3 H -0.1383 0.1654 -0.0812
C5 C 0.0250(3) 0.2196(2) -0.02138(15)
H4 H 0.0478 0.2659 -0.0619
C6 C 0.1064(3) 0.21327(18) 0.04904(14)
C7 C 0.2178(3) 0.28591(18) 0.06078(13)
C8 C 0.2376(3) 0.3688(2) 0.00744(15)
H5 H 0.1830 0.3731 -0.0401
C9 C 0.3333(3) 0.4436(2) 0.02205(16)
H6 H 0.3452 0.4990 -0.0150
C10 C 0.4124(3) 0.4378(2) 0.09104(16)
H7 H 0.4786 0.4896 0.1029
C11 C 0.3935(3) 0.35615(18) 0.14151(15)
H8 H 0.4482 0.3522 0.1890
C12 C 0.1642(2) 0.11726(17) 0.17721(13)
C13 C 0.2923(3) 0.06825(17) 0.15382(14)
H9 H 0.2987 0.0662 0.0962
C14 C 0.3368(3) -0.03033(19) 0.19518(16)
H10 H 0.4067 -0.0687 0.1773
C15 C 0.2842(3) -0.0694(2) 0.25678(17)
H11 H 0.3208 -0.1323 0.2821
C16 C 0.1743(3) -0.0203(2) 0.28666(15)
C17 C 0.1232(3) -0.0638(2) 0.35215(16)
H12 H 0.1643 -0.1242 0.3785
C18 C 0.0159(4) -0.0214(3) 0.37883(17)
H13 H -0.0170 -0.0519 0.4234
C19 C -0.0449(3) 0.0662(3) 0.34079(17)
H14 H -0.1193 0.0963 0.3595
C20 C 0.0024(3) 0.1101(2) 0.27543(15)
H15 H -0.0409 0.1695 0.2492
C21 C 0.1130(3) 0.06829(18) 0.24742(14)
C22 C 0.3646(2) 0.22059(17) 0.27349(13)
C23 C 0.3023(3) 0.29252(18) 0.32192(14)
C24 C 0.3596(3) 0.32152(19) 0.39488(15)
H16 H 0.3153 0.3688 0.4265
C25 C 0.4792(3) 0.2839(2) 0.42331(14)
C26 C 0.5439(3) 0.21895(19) 0.37525(14)
H17 H 0.6276 0.1944 0.3932
C27 C 0.4899(3) 0.18830(17) 0.30116(14)
C28 C 0.5738(3) 0.1271(2) 0.24894(15)
H18 H 0.5507 0.1481 0.1943
H19 H 0.5609 0.0487 0.2547
H20 H 0.6640 0.1449 0.2642
C29 C 0.5402(3) 0.3195(3) 0.50302(16)
H21 H 0.6149 0.2738 0.5187
H22 H 0.4779 0.3123 0.5414
H23 H 0.5673 0.3956 0.5005
C30 C 0.1768(3) 0.34538(19) 0.29292(15)
H24 H 0.1226 0.3504 0.3359
H25 H 0.1332 0.3016 0.2506
H26 H 0.1929 0.4185 0.2734
loop_
_geom_bond_atom_site_label_1
_geom_bond_atom_site_label_2
_geom_bond_site_symmetry_1
_geom_bond_site_symmetry_2
B1 N1 1_555 1_555
N1 C7 1_555 1_555
C1 C2 1_555 1_555
C2 H1 1_555 1_555
C3 C2 1_555 1_555
H2 C3 1_555 1_555
C4 C3 1_555 1_555
H3 C4 1_555 1_555
C5 C4 1_555 1_555
H4 C5 1_555 1_555
C6 C1 1_555 1_555
C7 C6 1_555 1_555
C8 C7 1_555 1_555
H5 C8 1_555 1_555
C9 C8 1_555 1_555
H6 C9 1_555 1_555
C10 C9 1_555 1_555
H7 C10 1_555 1_555
C11 N1 1_555 1_555
H8 C11 1_555 1_555
C12 B1 1_555 1_555
C13 B1 1_555 1_555
H9 C13 1_555 1_555
C14 C13 1_555 1_555
H10 C14 1_555 1_555
C15 C14 1_555 1_555
H11 C15 1_555 1_555
C16 C15 1_555 1_555
C17 C16 1_555 1_555
H12 C17 1_555 1_555
C18 C17 1_555 1_555
H13 C18 1_555 1_555
C19 C18 1_555 1_555
H14 C19 1_555 1_555
C20 C19 1_555 1_555
H15 C20 1_555 1_555
C21 C12 1_555 1_555
C22 B1 1_555 1_555
C23 C22 1_555 1_555
C24 C23 1_555 1_555
H16 C24 1_555 1_555
C25 C24 1_555 1_555
C26 C25 1_555 1_555
H17 C26 1_555 1_555
C27 C22 1_555 1_555
C28 C27 1_555 1_555
H18 C28 1_555 1_555
H19 C28 1_555 1_555
H20 C28 1_555 1_555
C29 C25 1_555 1_555
H21 C29 1_555 1_555
H22 C29 1_555 1_555
H23 C29 1_555 1_555
C30 C23 1_555 1_555
H24 C30 1_555 1_555
H25 C30 1_555 1_555
H26 C30 1_555 1_555
C1 C12 1_555 1_555
C5 C6 1_555 1_555
C10 C11 1_555 1_555
C12 C13 1_555 1_555
C16 C21 1_555 1_555
C20 C21 1_555 1_555
C26 C27 1_555 1_555

#END
