
#######################################################################
#
#                 Cambridge Crystallographic Data Centre
#                                CCDC 
#
#######################################################################
#
# If this CIF has been generated from an entry in the Cambridge 
# Structural Database, then it will include bibliographic, chemical, 
# crystal, experimental, refinement or atomic coordinate data resulting 
# from the CCDC's data processing and validation procedures.
#
#######################################################################

data_KEGWAV
_chemical_formula_moiety         'C27 H34 O1 Si1'
_chemical_name_systematic        
1-l-Borneoxy-1-methyl-2,5-diphenylsilacyclopent-3-ene
_symmetry_cell_setting           monoclinic
_symmetry_space_group_name_H-M   'P 21'
_symmetry_Int_Tables_number      4
_space_group_name_Hall           'P 2yb'
loop_
_symmetry_equiv_pos_site_id
_symmetry_equiv_pos_as_xyz
1 x,y,z
2 -x,1/2+y,-z
_cell_length_a                   11.585(7)
_cell_length_b                   7.273(4)
_cell_length_c                   14.073(8)
_cell_angle_alpha                90
_cell_angle_beta                 97.605(11)
_cell_angle_gamma                90
_cell_volume                     1175.33
_exptl_crystal_colour            colorless
_exptl_crystal_description       plate
_cell_formula_units_Z            2
_exptl_crystal_recrystallization_method hexane
loop_
_atom_site_label
_atom_site_type_symbol
_atom_site_fract_x
_atom_site_fract_y
_atom_site_fract_z
Si1 Si 0.36143(13) 0.2793(3) 0.71459(11)
O1 O 0.3318(3) 0.3490(5) 0.8185(2)
C1 C 0.3075(5) 0.5774(8) 0.9408(4)
C2 C 0.2975(5) 0.2878(11) 0.5314(4)
H1 H 0.2685 0.2447 0.4707
C3 C 0.2728(5) 0.5114(11) 0.8403(4)
H2 H 0.2884 0.6087 0.7955
C4 C 0.1389(5) 0.4803(11) 0.8327(5)
H3 H 0.0972 0.5487 0.7797
H4 H 0.1190 0.3510 0.8257
C5 C 0.5689(6) 0.4723(11) 0.6701(4)
C6 C 0.1647(5) 0.0787(10) 0.6116(4)
C7 C 0.2372(5) 0.2493(10) 0.6170(4)
H5 H 0.1840 0.3524 0.6224
C8 C 0.0554(6) 0.0715(12) 0.6429(5)
H6 H 0.0259 0.1767 0.6685
C9 C 0.4293(6) 0.6581(11) 0.9562(5)
H7 H 0.4853 0.5622 0.9521
H8 H 0.4430 0.7144 1.0184
H9 H 0.4367 0.7489 0.9079
C10 C 0.4393(5) 0.4530(8) 0.6435(4)
H10 H 0.4044 0.5738 0.6517
C11 C 0.2903(5) 0.4149(12) 1.0072(5)
H11 H 0.3271 0.4382 1.0721
H12 H 0.3214 0.3021 0.9840
C12 C 0.2029(6) 0.7045(9) 0.9548(5)
C13 C 0.6442(6) 0.3442(11) 0.6415(5)
H13 H 0.6155 0.2448 0.6040
C14 C 0.2055(6) -0.0776(11) 0.5728(5)
H14 H 0.2772 -0.0756 0.5499
C15 C 0.3952(6) 0.3875(10) 0.5468(4)
H15 H 0.4356 0.4156 0.4957
C16 C 0.0319(7) -0.2415(14) 0.5980(5)
H16 H -0.0142 -0.3466 0.5927
C17 C 0.1144(6) 0.5559(11) 0.9297(5)
H17 H 0.0338 0.5965 0.9302
C18 C -0.0083(7) -0.0838(12) 0.6370(5)
H18 H -0.0803 -0.0848 0.6595
C19 C 0.4454(6) 0.0632(11) 0.7386(5)
H19 H 0.5106 0.0850 0.7870
H20 H 0.4730 0.0222 0.6808
H21 H 0.3962 -0.0295 0.7606
C20 C 0.6159(6) 0.6106(11) 0.7279(5)
H22 H 0.5660 0.6954 0.7506
C21 C 0.1382(7) -0.2449(13) 0.5671(5)
H23 H 0.1667 -0.3523 0.5430
C22 C 0.7333(8) 0.6300(13) 0.7540(5)
H24 H 0.7633 0.7320 0.7888
C23 C 0.7631(7) 0.3633(17) 0.6685(6)
H25 H 0.8133 0.2814 0.6439
C24 C 0.1525(6) 0.4053(12) 1.0022(5)
H26 H 0.1226 0.2861 0.9799
H27 H 0.1277 0.4314 1.0640
C25 C 0.2095(6) 0.7794(14) 1.0558(5)
H28 H 0.1343 0.8238 1.0665
H29 H 0.2647 0.8785 1.0640
H30 H 0.2338 0.6836 1.1010
C26 C 0.1864(6) 0.8628(11) 0.8867(6)
H31 H 0.1819 0.8182 0.8222
H32 H 0.2510 0.9458 0.8996
H33 H 0.1156 0.9261 0.8948
C27 C 0.8073(7) 0.4916(18) 0.7270(6)
H34 H 0.8863 0.4917 0.7505
loop_
_geom_bond_atom_site_label_1
_geom_bond_atom_site_label_2
_geom_bond_site_symmetry_1
_geom_bond_site_symmetry_2
Si1 O1 1_555 1_555
O1 C3 1_555 1_555
C1 C3 1_555 1_555
C2 H1 1_555 1_555
C3 H2 1_555 1_555
C4 C3 1_555 1_555
H3 C4 1_555 1_555
H4 C4 1_555 1_555
C5 C10 1_555 1_555
C6 C7 1_555 1_555
C7 Si1 1_555 1_555
H5 C7 1_555 1_555
C8 C6 1_555 1_555
H6 C8 1_555 1_555
C9 C1 1_555 1_555
H7 C9 1_555 1_555
H8 C9 1_555 1_555
H9 C9 1_555 1_555
C10 Si1 1_555 1_555
H10 C10 1_555 1_555
C11 C1 1_555 1_555
H11 C11 1_555 1_555
H12 C11 1_555 1_555
C12 C1 1_555 1_555
C13 C5 1_555 1_555
H13 C13 1_555 1_555
C14 C6 1_555 1_555
H14 C14 1_555 1_555
C15 C2 1_555 1_555
H15 C15 1_555 1_555
C16 H16 1_555 1_555
C17 C4 1_555 1_555
H17 C17 1_555 1_555
C18 C8 1_555 1_555
H18 C18 1_555 1_555
C19 Si1 1_555 1_555
H19 C19 1_555 1_555
H20 C19 1_555 1_555
H21 C19 1_555 1_555
C20 C5 1_555 1_555
H22 C20 1_555 1_555
C21 C14 1_555 1_555
H23 C21 1_555 1_555
C22 C20 1_555 1_555
H24 C22 1_555 1_555
C23 C13 1_555 1_555
H25 C23 1_555 1_555
C24 C11 1_555 1_555
H26 C24 1_555 1_555
H27 C24 1_555 1_555
C25 C12 1_555 1_555
H28 C25 1_555 1_555
H29 C25 1_555 1_555
H30 C25 1_555 1_555
C26 C12 1_555 1_555
H31 C26 1_555 1_555
H32 C26 1_555 1_555
H33 C26 1_555 1_555
C27 C22 1_555 1_555
H34 C27 1_555 1_555
C2 C7 1_555 1_555
C10 C15 1_555 1_555
C12 C17 1_555 1_555
C16 C18 1_555 1_555
C16 C21 1_555 1_555
C17 C24 1_555 1_555
C23 C27 1_555 1_555

#END
