
#######################################################################
#
#                 Cambridge Crystallographic Data Centre
#                                CCDC 
#
#######################################################################
#
# If this CIF has been generated from an entry in the Cambridge 
# Structural Database, then it will include bibliographic, chemical, 
# crystal, experimental, refinement or atomic coordinate data resulting 
# from the CCDC's data processing and validation procedures.
#
#######################################################################

data_KEHXEB
_chemical_formula_moiety         'C29 H39 N3 O6'
_chemical_name_systematic        
'N-t-Butoxycarbonylphenylalanyl-valyl-phenylalanine methyl ester'
_symmetry_cell_setting           monoclinic
_symmetry_space_group_name_H-M   'P 21'
_symmetry_Int_Tables_number      4
_space_group_name_Hall           'P 2yb'
loop_
_symmetry_equiv_pos_site_id
_symmetry_equiv_pos_as_xyz
1 x,y,z
2 -x,1/2+y,-z
_cell_length_a                   15.327(17)
_cell_length_b                   5.096(7)
_cell_length_c                   20.73(2)
_cell_angle_alpha                90
_cell_angle_beta                 109.299(10)
_cell_angle_gamma                90
_cell_volume                     1528.16
_exptl_crystal_colour            white
_exptl_crystal_description       needle
_chemical_melting_point          '76-78 deg.C'
_cell_formula_units_Z            2
_exptl_crystal_recrystallization_method methanol/water
loop_
_atom_site_label
_atom_site_type_symbol
_atom_site_fract_x
_atom_site_fract_y
_atom_site_fract_z
O1 O 1.0926(3) 0.8871(10) 0.2586(3)
C1 C 1.1714(5) 1.0804(14) 0.2813(4)
C2 C 1.1626(6) 1.2410(17) 0.3409(4)
H1 H 1.2176 1.3435 0.3604
H2 H 1.1545 1.1251 0.3750
H3 H 1.1101 1.3556 0.3247
C3 C 1.1751(5) 1.2482(17) 0.2212(4)
H4 H 1.1702 1.1370 0.1827
H5 H 1.2327 1.3417 0.2339
H6 H 1.1249 1.3711 0.2091
C4 C 1.2547(5) 0.9029(19) 0.3055(5)
H7 H 1.2585 0.7989 0.2679
H8 H 1.2489 0.7894 0.3409
H9 H 1.3096 1.0072 0.3231
C5 C 1.0052(5) 0.9807(13) 0.2328(4)
O2 O 0.9824(3) 1.2102(10) 0.2269(3)
N1 N 0.9458(4) 0.7802(10) 0.2138(3)
H10 H 0.9673 0.6236 0.2154
C6 C 0.8444(4) 0.8179(12) 0.1902(3)
H11 H 0.8306 1.0040 0.1798
C7 C 0.7991(4) 0.6566(12) 0.1260(3)
H12 H 0.8231 0.4790 0.1333
H13 H 0.7330 0.6482 0.1176
C8 C 0.8162(6) 0.7717(17) 0.0633(4)
C9 C 0.8854(7) 0.671(2) 0.0420(5)
H14 H 0.9210 0.5297 0.0645
C10 C 0.9009(9) 0.789(3) -0.0151(6)
H15 H 0.9475 0.7228 -0.0299
C11 C 0.8500(11) 0.996(3) -0.0492(5)
H16 H 0.8621 1.0717 -0.0862
C12 C 0.7810(9) 1.089(2) -0.0276(5)
H17 H 0.7449 1.2282 -0.0506
C13 C 0.7640(6) 0.9784(18) 0.0282(4)
H18 H 0.7166 1.0449 0.0421
C14 C 0.8093(4) 0.7383(14) 0.2484(4)
O3 O 0.7994(4) 0.5049(10) 0.2607(3)
C15 C 0.8394(5) 1.0721(15) 0.4077(3)
H19 H 0.8186 1.2534 0.3964
C16 C 0.8239(6) 0.995(2) 0.4762(4)
H20 H 0.7602 1.0212 0.4718
H21 H 0.8622 1.1026 0.5126
H22 H 0.8399 0.8138 0.4862
C17 C 0.9410(5) 1.055(2) 0.4142(5)
H23 H 0.9587 0.8742 0.4147
H24 H 0.9777 1.1378 0.4560
H25 H 0.9508 1.1424 0.3761
C18 C 0.6774(4) 0.9212(14) 0.3406(3)
O4 O 0.6407(3) 1.1400(8) 0.3392(3)
N2 N 0.6285(4) 0.7022(11) 0.3317(3)
H26 H 0.6564 0.5581 0.3291
C19 C 0.7789(4) 0.8889(14) 0.3503(3)
H27 H 0.7960 0.7072 0.3644
C20 C 0.5305(4) 0.6852(14) 0.3257(4)
H28 H 0.5074 0.8629 0.3283
C21 C 0.4733(5) 0.5634(15) 0.2571(3)
H29 H 0.4997 0.3945 0.2523
H30 H 0.4108 0.5335 0.2571
N3 N 0.7962(3) 0.9329(11) 0.2866(3)
H31 H 0.7979 1.0917 0.2731
C22 C 0.4697(5) 0.7315(17) 0.1968(4)
C23 C 0.4077(6) 0.9302(17) 0.1726(4)
H32 H 0.3659 0.9665 0.1953
C24 C 0.4037(10) 1.080(2) 0.1163(6)
H33 H 0.3586 1.2085 0.1002
C25 C 0.4688(11) 1.034(4) 0.0842(7)
H34 H 0.4683 1.1340 0.0465
C26 C 0.5317(10) 0.847(4) 0.1074(7)
H35 H 0.5751 0.8176 0.0857
C27 C 0.5339(7) 0.693(3) 0.1637(5)
H36 H 0.5788 0.5644 0.1792
C28 C 0.5191(6) 0.5219(16) 0.3849(4)
O5 O 0.4527(4) 0.3924(14) 0.3810(3)
O6 O 0.5910(4) 0.5534(12) 0.4421(3)
C29 C 0.5922(7) 0.388(2) 0.4994(4)
H37 H 0.5301 0.3601 0.4989
H38 H 0.6273 0.4729 0.5414
H39 H 0.6202 0.2227 0.4959
loop_
_geom_bond_atom_site_label_1
_geom_bond_atom_site_label_2
_geom_bond_site_symmetry_1
_geom_bond_site_symmetry_2
O1 C1 1_555 1_555
C1 C2 1_555 1_555
C2 H1 1_555 1_555
H2 C2 1_555 1_555
H3 C2 1_555 1_555
C3 C1 1_555 1_555
H4 C3 1_555 1_555
H5 C3 1_555 1_555
H6 C3 1_555 1_555
C4 C1 1_555 1_555
H7 C4 1_555 1_555
H8 C4 1_555 1_555
H9 C4 1_555 1_555
C5 O1 1_555 1_555
O2 C5 1_555 1_555
N1 C5 1_555 1_555
H10 N1 1_555 1_555
C6 N1 1_555 1_555
H11 C6 1_555 1_555
C7 C6 1_555 1_555
H12 C7 1_555 1_555
H13 C7 1_555 1_555
C8 C7 1_555 1_555
C9 C8 1_555 1_555
H14 C9 1_555 1_555
C10 C9 1_555 1_555
H15 C10 1_555 1_555
C11 C10 1_555 1_555
H16 C11 1_555 1_555
C12 C11 1_555 1_555
H17 C12 1_555 1_555
C13 C8 1_555 1_555
H18 C13 1_555 1_555
C14 C6 1_555 1_555
O3 C14 1_555 1_555
C15 H19 1_555 1_555
C16 C15 1_555 1_555
H20 C16 1_555 1_555
H21 C16 1_555 1_555
H22 C16 1_555 1_555
C17 C15 1_555 1_555
H23 C17 1_555 1_555
H24 C17 1_555 1_555
H25 C17 1_555 1_555
C18 O4 1_555 1_555
N2 C18 1_555 1_555
H26 N2 1_555 1_555
C19 C15 1_555 1_555
H27 C19 1_555 1_555
C20 N2 1_555 1_555
H28 C20 1_555 1_555
C21 C20 1_555 1_555
H29 C21 1_555 1_555
H30 C21 1_555 1_555
N3 C14 1_555 1_555
H31 N3 1_555 1_555
C22 C21 1_555 1_555
C23 C22 1_555 1_555
H32 C23 1_555 1_555
C24 C23 1_555 1_555
H33 C24 1_555 1_555
C25 C24 1_555 1_555
H34 C25 1_555 1_555
C26 C25 1_555 1_555
H35 C26 1_555 1_555
C27 C22 1_555 1_555
H36 C27 1_555 1_555
C28 C20 1_555 1_555
O5 C28 1_555 1_555
O6 C28 1_555 1_555
C29 O6 1_555 1_555
H37 C29 1_555 1_555
H38 C29 1_555 1_555
H39 C29 1_555 1_555
C12 C13 1_555 1_555
C18 C19 1_555 1_555
C19 N3 1_555 1_555
C26 C27 1_555 1_555

#END
