
#######################################################################
#
#                 Cambridge Crystallographic Data Centre
#                                CCDC 
#
#######################################################################
#
# If this CIF has been generated from an entry in the Cambridge 
# Structural Database, then it will include bibliographic, chemical, 
# crystal, experimental, refinement or atomic coordinate data resulting 
# from the CCDC's data processing and validation procedures.
#
#######################################################################

data_KEJQAU
_chemical_formula_moiety         'C20 H21 N1 O1'
_chemical_name_systematic        1-ethoxy-4-phenyl-3-(propan-2-yl)isoquinoline
_symmetry_cell_setting           triclinic
_symmetry_space_group_name_H-M   'P -1'
_symmetry_Int_Tables_number      2
_space_group_name_Hall           '-P 1'
loop_
_symmetry_equiv_pos_site_id
_symmetry_equiv_pos_as_xyz
1 x,y,z
2 -x,-y,-z
_cell_length_a                   8.0632(2)
_cell_length_b                   10.1769(3)
_cell_length_c                   10.2898(2)
_cell_angle_alpha                102.755(1)
_cell_angle_beta                 96.123(1)
_cell_angle_gamma                90.278(2)
_cell_volume                     818.479
_exptl_crystal_colour            colorless
_exptl_crystal_description       prism
_cell_formula_units_Z            2
loop_
_atom_site_label
_atom_site_type_symbol
_atom_site_fract_x
_atom_site_fract_y
_atom_site_fract_z
O1 O 0.35275(12) 0.16345(11) 0.12946(10)
N1 N 0.57573(14) 0.26972(12) 0.07098(12)
C1 C 0.2732(2) 0.1983(2) 0.34852(18)
H1 H 0.1628 0.2264 0.3170
H2 H 0.3027 0.2438 0.4426
H3 H 0.2711 0.1005 0.3403
C2 C 0.40079(19) 0.23575(18) 0.26503(15)
H4 H 0.4023 0.3341 0.2705
H5 H 0.5135 0.2100 0.2972
C3 C 0.44584(17) 0.18853(14) 0.03547(15)
C4 C 0.38860(17) 0.12250(14) -0.09939(15)
C5 C 0.24889(18) 0.03292(15) -0.13371(17)
H6 H 0.1889 0.0130 -0.0655
C6 C 0.1997(2) -0.02545(16) -0.26555(17)
H7 H 0.1051 -0.0852 -0.2888
C7 C 0.2889(2) 0.00296(16) -0.36599(17)
H8 H 0.2543 -0.0382 -0.4571
C8 C 0.42530(18) 0.08921(15) -0.33497(15)
H9 H 0.4841 0.1071 -0.4048
C9 C 0.47968(17) 0.15196(13) -0.20040(15)
C10 C 0.62223(17) 0.24299(13) -0.16112(14)
C11 C 0.71608(18) 0.27870(14) -0.26695(14)
C12 C 0.6462(2) 0.36184(16) -0.34749(16)
H10 H 0.5384 0.3963 -0.3348
C13 C 0.7322(2) 0.39509(18) -0.44619(17)
H11 H 0.6829 0.4520 -0.5004
C14 C 0.8888(2) 0.34588(17) -0.46606(16)
H12 H 0.9477 0.3689 -0.5334
C15 C 0.9589(2) 0.26305(18) -0.38727(17)
H13 H 1.0667 0.2289 -0.4004
C16 C 0.87322(18) 0.22926(16) -0.28898(15)
H14 H 0.9227 0.1714 -0.2359
C17 C 0.66526(17) 0.29699(14) -0.02736(14)
C18 C 0.81026(17) 0.39623(15) 0.02715(14)
H15 H 0.8666 0.4123 -0.0502
C19 C 0.7470(2) 0.52939(17) 0.0997(2)
H16 H 0.6659 0.5641 0.0386
H17 H 0.8408 0.5943 0.1305
H18 H 0.6933 0.5160 0.1771
C20 C 0.9373(2) 0.3392(2) 0.1193(2)
H19 H 0.8827 0.3179 0.1931
H20 H 1.0278 0.4061 0.1558
H21 H 0.9831 0.2571 0.0684
loop_
_geom_bond_atom_site_label_1
_geom_bond_atom_site_label_2
_geom_bond_site_symmetry_1
_geom_bond_site_symmetry_2
O1 C2 1_555 1_555
N1 C3 1_555 1_555
C1 H1 1_555 1_555
H2 C1 1_555 1_555
H3 C1 1_555 1_555
C2 C1 1_555 1_555
H4 C2 1_555 1_555
H5 C2 1_555 1_555
C3 O1 1_555 1_555
C4 C3 1_555 1_555
C5 C4 1_555 1_555
H6 C5 1_555 1_555
C6 C5 1_555 1_555
H7 C6 1_555 1_555
C7 C6 1_555 1_555
H8 C7 1_555 1_555
C8 C7 1_555 1_555
H9 C8 1_555 1_555
C9 C4 1_555 1_555
C10 C9 1_555 1_555
C11 C10 1_555 1_555
C12 C11 1_555 1_555
H10 C12 1_555 1_555
C13 C12 1_555 1_555
H11 C13 1_555 1_555
C14 C13 1_555 1_555
H12 C14 1_555 1_555
C15 C14 1_555 1_555
H13 C15 1_555 1_555
C16 C11 1_555 1_555
H14 C16 1_555 1_555
C17 N1 1_555 1_555
C18 C17 1_555 1_555
H15 C18 1_555 1_555
C19 C18 1_555 1_555
H16 C19 1_555 1_555
H17 C19 1_555 1_555
H18 C19 1_555 1_555
C20 C18 1_555 1_555
H19 C20 1_555 1_555
H20 C20 1_555 1_555
H21 C20 1_555 1_555
C8 C9 1_555 1_555
C10 C17 1_555 1_555
C15 C16 1_555 1_555

#END
