
#######################################################################
#
#                 Cambridge Crystallographic Data Centre
#                                CCDC 
#
#######################################################################
#
# If this CIF has been generated from an entry in the Cambridge 
# Structural Database, then it will include bibliographic, chemical, 
# crystal, experimental, refinement or atomic coordinate data resulting 
# from the CCDC's data processing and validation procedures.
#
#######################################################################

data_KEKGIT
_chemical_formula_moiety         'C12 H2 B1 F10 1-,C6 H16 N1 1+'
_chemical_name_systematic        
'triethylammonium dihydrido[bis(pentafluorophenyl)]borate'
_symmetry_cell_setting           monoclinic
_symmetry_space_group_name_H-M   'P 21/c'
_symmetry_Int_Tables_number      14
_space_group_name_Hall           '-P 2ybc'
loop_
_symmetry_equiv_pos_site_id
_symmetry_equiv_pos_as_xyz
1 x,y,z
2 -x,1/2+y,1/2-z
3 -x,-y,-z
4 x,1/2-y,1/2+z
_cell_length_a                   7.9737(4)
_cell_length_b                   14.4067(6)
_cell_length_c                   17.3143(7)
_cell_angle_alpha                90
_cell_angle_beta                 101.283(2)
_cell_angle_gamma                90
_cell_volume                     1950.53
_exptl_crystal_colour            colorless
_exptl_crystal_description       block
_cell_formula_units_Z            4
loop_
_atom_site_label
_atom_site_type_symbol
_atom_site_fract_x
_atom_site_fract_y
_atom_site_fract_z
B1 B 0.61438(15) 0.43637(8) 0.24068(7)
H1 H 0.734849 0.448085 0.236896
H2 H 0.602023 0.369347 0.250875
C1 C 0.48990(13) 0.46422(7) 0.15800(6)
C2 C 0.36618(14) 0.40538(7) 0.11655(6)
C3 C 0.25918(14) 0.42953(8) 0.04621(6)
C4 C 0.27228(15) 0.51642(8) 0.01473(6)
C5 C 0.39303(15) 0.57769(7) 0.05333(7)
C6 C 0.49754(14) 0.55073(7) 0.12317(6)
C7 C 0.56759(12) 0.49622(7) 0.31334(6)
C8 C 0.41179(12) 0.48399(7) 0.33642(6)
C9 C 0.36300(13) 0.53038(8) 0.39827(6)
C10 C 0.47416(15) 0.59343(7) 0.44106(6)
C11 C 0.63143(15) 0.60789(7) 0.42144(6)
C12 C 0.67433(13) 0.55995(8) 0.35870(6)
F1 F 0.34421(11) 0.31959(5) 0.14385(4)
F2 F 0.14304(11) 0.36904(6) 0.00836(5)
F3 F 0.16974(10) 0.54026(6) -0.05338(4)
F4 F 0.40816(11) 0.66210(5) 0.02258(5)
F5 F 0.61323(10) 0.61352(5) 0.15848(5)
F6 F 0.29858(9) 0.42225(5) 0.29723(4)
F7 F 0.21056(9) 0.51418(6) 0.41785(5)
F8 F 0.43059(11) 0.63895(5) 0.50158(4)
F9 F 0.74169(11) 0.66721(6) 0.46429(5)
F10 F 0.83121(9) 0.57715(6) 0.34369(5)
C13 C -0.00498(14) 0.72497(8) 0.78006(6)
H3 H -0.053833 0.661935 0.781256
H4 H -0.101162 0.769080 0.765422
C14 C 0.09344(17) 0.74906(9) 0.86122(7)
H5 H 0.198755 0.712263 0.872704
H6 H 0.023171 0.735284 0.900332
H7 H 0.122269 0.815252 0.863298
C15 C 0.19375(13) 0.81896(7) 0.71373(7)
H8 H 0.269072 0.813197 0.674807
H9 H 0.267265 0.832084 0.765601
C16 C 0.07425(18) 0.90011(8) 0.69081(8)
H10 H -0.001096 0.887231 0.640079
H11 H 0.141224 0.956201 0.686343
H12 H 0.005143 0.909509 0.731147
C17 C 0.00398(14) 0.69446(9) 0.64060(6)
H13 H -0.089576 0.738883 0.621325
H14 H -0.048476 0.633744 0.648354
C18 C 0.11374(16) 0.68419(11) 0.57901(7)
H15 H 0.143032 0.745803 0.561628
H16 H 0.050493 0.649509 0.533881
H17 H 0.218775 0.650626 0.601637
N1 N 0.10424(11) 0.72803(6) 0.71837(5)
H18 H 0.196756 0.681151 0.734973
loop_
_geom_bond_atom_site_label_1
_geom_bond_atom_site_label_2
_geom_bond_site_symmetry_1
_geom_bond_site_symmetry_2
B1 H1 1_555 1_555
H2 B1 1_555 1_555
C1 B1 1_555 1_555
C2 C1 1_555 1_555
C3 C2 1_555 1_555
C4 C3 1_555 1_555
C5 C4 1_555 1_555
C6 C1 1_555 1_555
C7 B1 1_555 1_555
C8 C7 1_555 1_555
C9 C8 1_555 1_555
C10 C9 1_555 1_555
C11 C10 1_555 1_555
C12 C7 1_555 1_555
F1 C2 1_555 1_555
F2 C3 1_555 1_555
F3 C4 1_555 1_555
F4 C5 1_555 1_555
F5 C6 1_555 1_555
F6 C8 1_555 1_555
F7 C9 1_555 1_555
F8 C10 1_555 1_555
F9 C11 1_555 1_555
F10 C12 1_555 1_555
C13 H3 1_555 1_555
H4 C13 1_555 1_555
C14 C13 1_555 1_555
H5 C14 1_555 1_555
H6 C14 1_555 1_555
H7 C14 1_555 1_555
C15 H8 1_555 1_555
H9 C15 1_555 1_555
C16 C15 1_555 1_555
H10 C16 1_555 1_555
H11 C16 1_555 1_555
H12 C16 1_555 1_555
C17 H13 1_555 1_555
H14 C17 1_555 1_555
C18 C17 1_555 1_555
H15 C18 1_555 1_555
H16 C18 1_555 1_555
H17 C18 1_555 1_555
N1 C13 1_555 1_555
H18 N1 1_555 1_555
C5 C6 1_555 1_555
C11 C12 1_555 1_555
C15 N1 1_555 1_555
C17 N1 1_555 1_555

#END
