
#######################################################################
#
#                 Cambridge Crystallographic Data Centre
#                                CCDC 
#
#######################################################################
#
# If this CIF has been generated from an entry in the Cambridge 
# Structural Database, then it will include bibliographic, chemical, 
# crystal, experimental, refinement or atomic coordinate data resulting 
# from the CCDC's data processing and validation procedures.
#
#######################################################################

data_KEKHIS
_chemical_formula_moiety         'C12 H8 N4 O1,C7 H6 O3'
_chemical_name_systematic        
'cisoid-2,5-bis(3-Pyridyl)-1,3,4-oxadiazole 3-hydroxybenzoic acid'
_symmetry_cell_setting           monoclinic
_symmetry_space_group_name_H-M   'P 21/c'
_symmetry_Int_Tables_number      14
_space_group_name_Hall           '-P 2ybc'
loop_
_symmetry_equiv_pos_site_id
_symmetry_equiv_pos_as_xyz
1 x,y,z
2 -x,1/2+y,1/2-z
3 -x,-y,-z
4 x,1/2-y,1/2+z
_cell_length_a                   5.987(3)
_cell_length_b                   37.537(16)
_cell_length_c                   7.403(3)
_cell_angle_alpha                90
_cell_angle_beta                 90.964(9)
_cell_angle_gamma                90
_cell_volume                     1663.47
_exptl_crystal_colour            colorless
_exptl_crystal_description       Needle
_cell_formula_units_Z            4
loop_
_atom_site_label
_atom_site_type_symbol
_atom_site_fract_x
_atom_site_fract_y
_atom_site_fract_z
O1 O 0.1195(4) 0.33511(6) 0.6820(3)
N1 N 0.3236(6) 0.45637(8) 0.7810(5)
N2 N 0.4724(5) 0.34247(8) 0.7646(5)
N3 N 0.4394(5) 0.30631(8) 0.7148(5)
N4 N 0.0777(5) 0.20878(7) 0.5951(4)
C1 C 0.1230(7) 0.46370(10) 0.8484(6)
H3 H 0.0889 0.4874 0.8722
C2 C -0.0363(7) 0.43832(10) 0.8850(6)
H4 H -0.1730 0.4449 0.9328
C3 C 0.0101(6) 0.40329(10) 0.8497(5)
H5 H -0.0952 0.3856 0.8709
C4 C 0.2182(6) 0.39474(9) 0.7813(5)
C5 C 0.3680(6) 0.42228(9) 0.7475(5)
H6 H 0.5058 0.4166 0.6992
C6 C 0.2822(6) 0.35779(9) 0.7434(5)
C7 C 0.2310(6) 0.30351(8) 0.6677(5)
C8 C 0.1044(5) 0.27232(8) 0.6093(5)
C9 C -0.1061(6) 0.27543(9) 0.5282(5)
H7 H -0.1679 0.2978 0.5058
C10 C -0.2202(6) 0.24525(9) 0.4821(5)
H8 H -0.3610 0.2467 0.4276
C11 C -0.1248(6) 0.21261(10) 0.5172(5)
H9 H -0.2044 0.1922 0.4854
C12 C 0.1903(6) 0.23827(9) 0.6375(5)
H10 H 0.3328 0.2360 0.6883
O2 O 0.4621(5) 0.67307(7) 0.7174(5)
O3 O 0.7667(4) 0.64429(6) 0.8122(4)
H1 H 0.8111 0.6646 0.8315
O4 O 0.6140(4) 0.51567(6) 0.7477(5)
H2 H 0.5329 0.4981 0.7477
C13 C 0.5613(6) 0.64542(10) 0.7455(5)
C14 C 0.4634(6) 0.60937(9) 0.7090(5)
C15 C 0.2495(6) 0.60696(11) 0.6351(6)
H11 H 0.1669 0.6275 0.6128
C16 C 0.1600(6) 0.57413(11) 0.5950(6)
H12 H 0.0171 0.5727 0.5443
C17 C 0.2790(7) 0.54317(10) 0.6287(6)
H13 H 0.2181 0.5212 0.5979
C18 C 0.4895(6) 0.54520(9) 0.7088(5)
C19 C 0.5817(6) 0.57831(9) 0.7474(5)
H14 H 0.7239 0.5797 0.7995
loop_
_geom_bond_atom_site_label_1
_geom_bond_atom_site_label_2
_geom_bond_site_symmetry_1
_geom_bond_site_symmetry_2
O1 C6 1_555 1_555
O2 C13 1_555 1_555
O3 H1 1_555 1_555
O4 H2 1_555 1_555
N1 C1 1_555 1_555
N2 N3 1_555 1_555
N3 C7 1_555 1_555
N4 C11 1_555 1_555
C1 H3 1_555 1_555
C2 C1 1_555 1_555
H4 C2 1_555 1_555
C3 C2 1_555 1_555
H5 C3 1_555 1_555
C4 C3 1_555 1_555
C5 N1 1_555 1_555
H6 C5 1_555 1_555
C6 N2 1_555 1_555
C7 O1 1_555 1_555
C8 C7 1_555 1_555
C9 C8 1_555 1_555
H7 C9 1_555 1_555
C10 C9 1_555 1_555
H8 C10 1_555 1_555
C11 C10 1_555 1_555
H9 C11 1_555 1_555
C12 N4 1_555 1_555
H10 C12 1_555 1_555
C13 O3 1_555 1_555
C14 C13 1_555 1_555
C15 C14 1_555 1_555
H11 C15 1_555 1_555
C16 C15 1_555 1_555
H12 C16 1_555 1_555
C17 C16 1_555 1_555
H13 C17 1_555 1_555
C18 O4 1_555 1_555
C19 C14 1_555 1_555
H14 C19 1_555 1_555
C4 C5 1_555 1_555
C4 C6 1_555 1_555
C8 C12 1_555 1_555
C17 C18 1_555 1_555
C18 C19 1_555 1_555

#END
