
#######################################################################
#
#                 Cambridge Crystallographic Data Centre
#                                CCDC 
#
#######################################################################
#
# If this CIF has been generated from an entry in the Cambridge 
# Structural Database, then it will include bibliographic, chemical, 
# crystal, experimental, refinement or atomic coordinate data resulting 
# from the CCDC's data processing and validation procedures.
#
#######################################################################

data_KEKHEO
_chemical_formula_moiety         'C12 H8 N4 O1'
_chemical_name_systematic        cisoid-2,5-bis(3-Pyridyl)-1,3,4-oxadiazole
_symmetry_cell_setting           monoclinic
_symmetry_space_group_name_H-M   'P 2/c'
_symmetry_Int_Tables_number      13
_space_group_name_Hall           '-P 2yc'
loop_
_symmetry_equiv_pos_site_id
_symmetry_equiv_pos_as_xyz
1 x,y,z
2 -x,y,1/2-z
3 -x,-y,-z
4 x,-y,1/2+z
_cell_length_a                   17.436(7)
_cell_length_b                   6.132(2)
_cell_length_c                   10.300(4)
_cell_angle_alpha                90
_cell_angle_beta                 106.635(5)
_cell_angle_gamma                90
_cell_volume                     1055.16
_exptl_crystal_colour            colorless
_exptl_crystal_description       block
_cell_formula_units_Z            4
_exptl_crystal_recrystallization_method methanol/water
loop_
_atom_site_label
_atom_site_type_symbol
_atom_site_fract_x
_atom_site_fract_y
_atom_site_fract_z
O1 O 0.0000 0.1031(3) -0.2500
N1 N 0.15105(12) -0.1533(3) 0.1092(2)
N2 N 0.02619(11) 0.4426(3) -0.18414(18)
C1 C 0.03937(12) 0.2416(3) -0.1497(2)
C2 C 0.08912(11) 0.1539(3) -0.02267(19)
C3 C 0.10431(13) -0.0668(3) -0.0045(2)
H1 H 0.0805 -0.1602 -0.0758
C4 C 0.18309(14) -0.0152(4) 0.2104(2)
H2 H 0.2158 -0.0721 0.2910
C5 C 0.17045(14) 0.2061(4) 0.2024(2)
H3 H 0.1940 0.2955 0.2759
C6 C 0.12275(12) 0.2931(4) 0.0848(2)
H4 H 0.1130 0.4423 0.0770
N1A N -0.15105(12) -0.1533(3) -0.6092(2)
N2A N -0.02619(11) 0.4426(3) -0.31586(18)
C1A C -0.03937(12) 0.2416(3) -0.3503(2)
C2A C -0.08912(11) 0.1539(3) -0.47733(19)
C3A C -0.10431(13) -0.0668(3) -0.4955(2)
H1A H -0.0805 -0.1602 -0.4242
C4A C -0.18309(14) -0.0152(4) -0.7104(2)
H2A H -0.2158 -0.0721 -0.7910
C5A C -0.17045(14) 0.2061(4) -0.7024(2)
H3A H -0.1940 0.2955 -0.7759
C6A C -0.12275(12) 0.2931(4) -0.5848(2)
H4A H -0.1130 0.4423 -0.5770
O2 O 0.5000 0.4065(3) 0.7500
N3 N 0.34900(11) 0.6636(3) 0.96412(17)
N4 N 0.47377(11) 0.0657(3) 0.79089(19)
C7 C 0.46069(12) 0.2676(3) 0.8119(2)
C8 C 0.41039(11) 0.3555(3) 0.89058(19)
C9 C 0.37518(12) 0.2161(3) 0.9622(2)
H5 H 0.3840 0.0665 0.9621
C10 C 0.32677(13) 0.3035(4) 1.0336(2)
H6 H 0.3022 0.2138 1.0826
C11 C 0.31542(13) 0.5238(4) 1.0314(2)
H7 H 0.2823 0.5803 1.0796
C12 C 0.39626(12) 0.5767(3) 0.8957(2)
H8 H 0.4210 0.6703 0.8490
N3A N 0.65100(11) 0.6636(3) 0.53588(17)
N4A N 0.52623(11) 0.0657(3) 0.70911(19)
C7A C 0.53931(12) 0.2676(3) 0.6881(2)
C8A C 0.58961(11) 0.3555(3) 0.60942(19)
C9A C 0.62482(12) 0.2161(3) 0.5378(2)
H5A H 0.6160 0.0665 0.5379
C10A C 0.67323(13) 0.3035(4) 0.4664(2)
H6A H 0.6978 0.2138 0.4174
C11A C 0.68458(13) 0.5238(4) 0.4686(2)
H7A H 0.7177 0.5803 0.4204
C12A C 0.60374(12) 0.5767(3) 0.6043(2)
H8A H 0.5790 0.6703 0.6510
loop_
_geom_bond_atom_site_label_1
_geom_bond_atom_site_label_2
_geom_bond_site_symmetry_1
_geom_bond_site_symmetry_2
O1 C1 1_555 1_555
O2 C7 1_555 1_555
N1 C3 1_555 1_555
N2 C1 1_555 1_555
N3 C11 1_555 1_555
N4 C7 1_555 1_555
C1 C2 1_555 1_555
C2 C3 1_555 1_555
C3 H1 1_555 1_555
C4 N1 1_555 1_555
H2 C4 1_555 1_555
C5 C4 1_555 1_555
H3 C5 1_555 1_555
C6 C2 1_555 1_555
H4 C6 1_555 1_555
C7 C8 1_555 1_555
C8 C9 1_555 1_555
C9 H5 1_555 1_555
C10 C9 1_555 1_555
H6 C10 1_555 1_555
C11 C10 1_555 1_555
H7 C11 1_555 1_555
C12 N3 1_555 1_555
H8 C12 1_555 1_555
N1A C3A 1_555 1_555
N2A N2 1_555 1_555
N3A C11A 1_555 1_555
N4A N4 1_555 1_555
C1A O1 1_555 1_555
C2A C1A 1_555 1_555
C3A C2A 1_555 1_555
H1A C3A 1_555 1_555
C4A N1A 1_555 1_555
H2A C4A 1_555 1_555
C5A C4A 1_555 1_555
H3A C5A 1_555 1_555
C6A C2A 1_555 1_555
H4A C6A 1_555 1_555
C7A O2 1_555 1_555
C8A C7A 1_555 1_555
C9A C8A 1_555 1_555
H5A C9A 1_555 1_555
C10A C9A 1_555 1_555
H6A C10A 1_555 1_555
C11A C10A 1_555 1_555
H7A C11A 1_555 1_555
C12A N3A 1_555 1_555
H8A C12A 1_555 1_555
C5 C6 1_555 1_555
C8 C12 1_555 1_555
N2A C1A 1_555 1_555
N4A C7A 1_555 1_555
C5A C6A 1_555 1_555
C8A C12A 1_555 1_555

#END
