
#######################################################################
#
#                 Cambridge Crystallographic Data Centre
#                                CCDC 
#
#######################################################################
#
# If this CIF has been generated from an entry in the Cambridge 
# Structural Database, then it will include bibliographic, chemical, 
# crystal, experimental, refinement or atomic coordinate data resulting 
# from the CCDC's data processing and validation procedures.
#
#######################################################################

data_KENGOB
_chemical_formula_moiety         'C9 H9 N2 1+,0.5(H2 O1),Cl1 1-'
_chemical_name_systematic        
'2-methyl-1,8-naphthyridin-1-ium chloride hemihydrate'
_symmetry_cell_setting           monoclinic
_symmetry_space_group_name_H-M   'C 2/c'
_symmetry_Int_Tables_number      15
_space_group_name_Hall           '-C 2yn'
loop_
_symmetry_equiv_pos_site_id
_symmetry_equiv_pos_as_xyz
1 x,y,z
2 -x,y,1/2-z
3 1/2+x,1/2+y,z
4 1/2-x,1/2+y,1/2-z
5 -x,-y,-z
6 x,-y,1/2+z
7 1/2-x,1/2-y,-z
8 1/2+x,1/2-y,1/2+z
_cell_length_a                   17.134(4)
_cell_length_b                   7.8765(17)
_cell_length_c                   14.077(3)
_cell_angle_alpha                90
_cell_angle_beta                 98.851(4)
_cell_angle_gamma                90
_cell_volume                     1877.15
_cell_formula_units_Z            8
loop_
_atom_site_label
_atom_site_type_symbol
_atom_site_fract_x
_atom_site_fract_y
_atom_site_fract_z
N1 N 0.26555(10) 0.0058(2) 0.00953(11)
H1 H 0.2355(12) -0.049(2) -0.0394(12)
N2 N 0.35015(11) 0.0543(2) -0.09971(12)
C1 C 0.16836(14) -0.0755(3) 0.10880(17)
H2 H 0.1321 -0.0729 0.0496
H3 H 0.1452 -0.0189 0.1581
H4 H 0.1797 -0.1913 0.1274
C2 C 0.24267(12) 0.0119(3) 0.09548(14)
C3 C 0.29024(15) 0.0979(3) 0.16995(16)
H5 H 0.2748 0.1048 0.2303
C4 C 0.35867(15) 0.1711(3) 0.15456(16)
H6 H 0.3896 0.2286 0.2044
C5 C 0.38361(13) 0.1612(3) 0.06393(15)
C6 C 0.45382(14) 0.2308(3) 0.03991(18)
H7 H 0.4886 0.2889 0.0859
C7 C 0.47012(15) 0.2123(3) -0.05046(19)
H8 H 0.5161 0.2577 -0.0675
C8 C 0.41681(15) 0.1239(3) -0.11794(18)
H9 H 0.4289 0.1130 -0.1798
C9 C 0.33503(12) 0.0751(3) -0.00927(14)
Cl1 Cl 0.14743(3) 0.15897(7) 0.34999(4)
O1 O 0.0000 0.9487(3) 0.2500
H10 H 0.0367 1.0161 0.2754
H10A H -0.0367 1.0161 0.2246
loop_
_geom_bond_atom_site_label_1
_geom_bond_atom_site_label_2
_geom_bond_site_symmetry_1
_geom_bond_site_symmetry_2
N1 H1 1_555 1_555
N2 C8 1_555 1_555
C1 H2 1_555 1_555
H3 C1 1_555 1_555
H4 C1 1_555 1_555
C2 N1 1_555 1_555
C3 C2 1_555 1_555
H5 C3 1_555 1_555
C4 C3 1_555 1_555
H6 C4 1_555 1_555
C5 C4 1_555 1_555
C6 C5 1_555 1_555
H7 C6 1_555 1_555
C7 C6 1_555 1_555
H8 C7 1_555 1_555
C8 C7 1_555 1_555
H9 C8 1_555 1_555
C9 N1 1_555 1_555
O1 H10 1_555 1_555
H10A O1 1_555 1_555
N2 C9 1_555 1_555
C1 C2 1_555 1_555
C5 C9 1_555 1_555

#END
