
#######################################################################
#
#                 Cambridge Crystallographic Data Centre
#                                CCDC 
#
#######################################################################
#
# If this CIF has been generated from an entry in the Cambridge 
# Structural Database, then it will include bibliographic, chemical, 
# crystal, experimental, refinement or atomic coordinate data resulting 
# from the CCDC's data processing and validation procedures.
#
#######################################################################

data_KENNIC
_chemical_formula_moiety         'C57 H48 S3,3(C1 H1 Cl3)'
_chemical_name_systematic        
"2,2',2''-((5,5,10,10,15,15-Hexaethyl-10,15-dihydro-5H-diindeno[1,2-a:1',2'-c]fluorene-2,7,12-triyl)triethyne-2,1-diyl)trithiophene chloroform solvate"
_symmetry_cell_setting           triclinic
_symmetry_space_group_name_H-M   'P -1'
_symmetry_Int_Tables_number      2
_space_group_name_Hall           '-P 1'
loop_
_symmetry_equiv_pos_site_id
_symmetry_equiv_pos_as_xyz
1 x,y,z
2 -x,-y,-z
_cell_length_a                   14.520(12)
_cell_length_b                   14.554(14)
_cell_length_c                   14.568(13)
_cell_angle_alpha                84.11(2)
_cell_angle_beta                 84.619(19)
_cell_angle_gamma                84.769(18)
_cell_volume                     3038.47
_exptl_crystal_colour            colorless
_exptl_crystal_description       block
_cell_formula_units_Z            2
loop_
_atom_site_label
_atom_site_type_symbol
_atom_site_fract_x
_atom_site_fract_y
_atom_site_fract_z
C1 C 0.2084(5) 1.2827(4) 0.6471(5)
H1 H 0.1863 1.2370 0.6169
S1 S 1.3747(3) 0.7422(3) 0.3086(3)
S2 S 0.3098(3) 1.3744(2) 0.7426(3)
S3 S 0.7423(3) 0.3092(3) 1.3745(2)
C2 C 0.9170(5) 0.6324(5) 0.6930(5)
C3 C 0.8303(4) 0.6897(4) 0.7304(4)
C4 C 0.8119(4) 0.7703(4) 0.6716(4)
C5 C 0.8872(4) 0.7704(4) 0.5929(4)
C6 C 0.9060(5) 0.8309(5) 0.5144(4)
H2 H 0.8655 0.8830 0.5019
C7 C 0.9844(5) 0.8143(5) 0.4547(5)
H3 H 0.9961 0.8560 0.4030
C8 C 1.0459(5) 0.7366(5) 0.4703(5)
C9 C 1.0263(5) 0.6737(5) 0.5465(5)
H4 H 1.0655 0.6202 0.5573
C10 C 0.9467(5) 0.6915(4) 0.6074(4)
C11 C 0.9991(5) 0.6228(6) 0.7590(6)
H5 H 0.9836 0.5791 0.8118
H6 H 1.0548 0.5968 0.7257
C12 C 1.0214(6) 0.7163(7) 0.7960(6)
H7 H 1.0161 0.7660 0.7475
H8 H 1.0834 0.7097 0.8149
H9 H 0.9782 0.7298 0.8478
C13 C 0.8927(6) 0.5367(5) 0.6633(5)
H10 H 0.9480 0.5075 0.6322
H11 H 0.8764 0.4969 0.7189
C14 C 0.8162(7) 0.5417(6) 0.6018(6)
H12 H 0.7576 0.5445 0.6384
H13 H 0.8222 0.4876 0.5683
H14 H 0.8191 0.5961 0.5587
C15 C 0.6307(5) 0.6939(5) 0.9184(5)
C16 C 0.6889(4) 0.7311(4) 0.8308(4)
C17 C 0.6073(5) 0.9466(5) 0.6923(4)
C18 C 0.7697(4) 0.6704(4) 0.8118(4)
C19 C 0.7690(5) 0.5922(4) 0.8862(4)
C20 C 0.8309(5) 0.5135(5) 0.9039(5)
H15 H 0.8827 0.5017 0.8630
C21 C 0.8139(5) 0.4538(5) 0.9827(5)
H16 H 0.8553 0.4024 0.9950
C22 C 0.7351(5) 0.4697(5) 1.0445(5)
C23 C 0.6723(5) 0.5475(4) 1.0254(5)
H17 H 0.6193 0.5587 1.0651
C24 C 0.6221(6) 0.7597(6) 0.9982(5)
H18 H 0.5792 0.8126 0.9815
H19 H 0.5944 0.7268 1.0538
C25 C 0.7126(7) 0.7965(6) 1.0221(6)
H20 H 0.7602 0.7463 1.0265
H21 H 0.7019 0.8230 1.0803
H22 H 0.7320 0.8430 0.9745
C26 C 0.5361(5) 0.6641(5) 0.8949(5)
H23 H 0.5060 0.6332 0.9504
H24 H 0.4968 0.7194 0.8772
C27 C 0.5426(6) 0.6006(6) 0.8184(7)
H25 H 0.5579 0.6351 0.7600
H26 H 0.4841 0.5751 0.8172
H27 H 0.5900 0.5513 0.8294
C28 C 0.6955(5) 0.9181(4) 0.6324(5)
C29 C 0.6905(4) 0.6068(5) 0.9472(4)
C30 C 0.7315(5) 0.8307(4) 0.6897(4)
C31 C 0.6719(5) 0.8125(4) 0.7696(4)
C32 C 0.5927(5) 0.8873(4) 0.7711(4)
C33 C 0.5161(5) 0.9039(5) 0.8313(5)
H28 H 0.5044 0.8627 0.8833
C34 C 0.4561(5) 0.9821(5) 0.8145(5)
H29 H 0.4046 0.9929 0.8561
C35 C 0.4709(5) 1.0446(5) 0.7372(5)
C36 C 0.5474(5) 1.0262(4) 0.6762(5)
H30 H 0.5592 1.0672 0.6240
C37 C 0.7619(5) 0.9988(5) 0.6245(6)
H31 H 0.8156 0.9826 0.5827
H32 H 0.7297 1.0542 0.5960
C38 C 0.7972(6) 1.0231(6) 0.7165(7)
H33 H 0.7454 1.0315 0.7618
H34 H 0.8281 1.0793 0.7049
H35 H 0.8398 0.9735 0.7393
C39 C 0.6670(6) 0.8943(5) 0.5378(5)
H36 H 0.6363 0.9497 0.5075
H37 H 0.7230 0.8780 0.4992
C40 C 0.6040(6) 0.8168(7) 0.5421(6)
H38 H 0.6376 0.7589 0.5603
H39 H 0.5822 0.8144 0.4822
H40 H 0.5520 0.8277 0.5865
C41 C 1.1288(5) 0.7220(5) 0.4075(5)
C42 C 1.1959(5) 0.7106(5) 0.3540(5)
C43 C 1.2754(5) 0.6980(5) 0.2908(5)
C44 C 1.2828(5) 0.6473(5) 0.2091(5)
H41 H 1.2366 0.6173 0.1872
C45 C 1.3738(9) 0.6530(8) 0.1709(8)
H42 H 1.3944 0.6265 0.1165
C46 C 1.4280(7) 0.6953(8) 0.2122(7)
H43 H 1.4902 0.7003 0.1921
C47 C 0.7206(5) 0.4066(5) 1.1292(5)
C48 C 0.7102(5) 0.3548(5) 1.1957(5)
C49 C 0.6962(5) 0.2929(5) 1.2754(4)
C50 C 0.6462(5) 0.2096(4) 1.2834(4)
H44 H 0.6162 0.1870 1.2377
C51 C 0.6530(8) 0.1706(8) 1.3761(8)
H45 H 0.6264 0.1160 1.3980
C52 C 0.6969(8) 0.2128(7) 1.4286(7)
H46 H 0.7033 0.1927 1.4905
C53 C 0.4086(5) 1.1289(5) 0.7226(5)
C54 C 0.3555(5) 1.1955(5) 0.7124(5)
C55 C 0.2912(6) 1.2748(5) 0.6987(5)
C56 C 0.1675(8) 1.3788(8) 0.6534(8)
H47 H 0.1122 1.4012 0.6285
C57 C 0.2138(7) 1.4279(7) 0.6954(8)
H48 H 0.1963 1.4904 0.7003
C58 C 0.9508(7) 0.7388(6) 0.1237(6)
H49 H 0.8916 0.7609 0.1553
Cl1 Cl 0.93560(18) 0.6320(2) 0.0776(2)
Cl2 Cl 1.0315(2) 0.7239(2) 0.2011(2)
Cl3 Cl 0.9783(3) 0.8185(3) 0.0310(2)
C59 C 0.8787(7) 0.0471(7) 0.2644(7)
H50 H 0.8471 0.1064 0.2419
Cl4 Cl 0.9697(3) 0.0219(3) 0.1816(2)
Cl5 Cl 0.9227(2) 0.06434(18) 0.3686(2)
Cl6 Cl 0.7989(2) -0.0317(2) 0.2768(2)
C60 C 0.7365(7) 0.1238(6) 0.9506(6)
H51 H 0.7585 0.1561 0.8914
Cl7 Cl 0.7233(3) 0.2009(2) 1.0309(2)
Cl8 Cl 0.8179(3) 0.0311(2) 0.9778(3)
Cl9 Cl 0.6320(2) 0.0778(2) 0.93562(19)
loop_
_geom_bond_atom_site_label_1
_geom_bond_atom_site_label_2
_geom_bond_site_symmetry_1
_geom_bond_site_symmetry_2
C1 H1 1_555 1_555
S1 C43 1_555 1_555
S2 C55 1_555 1_555
S3 C49 1_555 1_555
C2 C3 1_555 1_555
C3 C4 1_555 1_555
C4 C5 1_555 1_555
C5 C6 1_555 1_555
C6 H2 1_555 1_555
C7 C6 1_555 1_555
H3 C7 1_555 1_555
C8 C7 1_555 1_555
C9 C8 1_555 1_555
H4 C9 1_555 1_555
C10 C2 1_555 1_555
C11 C2 1_555 1_555
H5 C11 1_555 1_555
H6 C11 1_555 1_555
C12 C11 1_555 1_555
H7 C12 1_555 1_555
H8 C12 1_555 1_555
H9 C12 1_555 1_555
C13 C2 1_555 1_555
H10 C13 1_555 1_555
H11 C13 1_555 1_555
C14 C13 1_555 1_555
H12 C14 1_555 1_555
H13 C14 1_555 1_555
H14 C14 1_555 1_555
C15 C16 1_555 1_555
C16 C18 1_555 1_555
C17 C28 1_555 1_555
C18 C3 1_555 1_555
C19 C18 1_555 1_555
C20 C19 1_555 1_555
H15 C20 1_555 1_555
C21 C20 1_555 1_555
H16 C21 1_555 1_555
C22 C21 1_555 1_555
C23 C22 1_555 1_555
H17 C23 1_555 1_555
C24 C15 1_555 1_555
H18 C24 1_555 1_555
H19 C24 1_555 1_555
C25 C24 1_555 1_555
H20 C25 1_555 1_555
H21 C25 1_555 1_555
H22 C25 1_555 1_555
C26 C15 1_555 1_555
H23 C26 1_555 1_555
H24 C26 1_555 1_555
C27 C26 1_555 1_555
H25 C27 1_555 1_555
H26 C27 1_555 1_555
H27 C27 1_555 1_555
C28 C30 1_555 1_555
C29 C15 1_555 1_555
C30 C4 1_555 1_555
C31 C16 1_555 1_555
C32 C17 1_555 1_555
C33 C32 1_555 1_555
H28 C33 1_555 1_555
C34 C33 1_555 1_555
H29 C34 1_555 1_555
C35 C34 1_555 1_555
C36 C17 1_555 1_555
H30 C36 1_555 1_555
C37 C28 1_555 1_555
H31 C37 1_555 1_555
H32 C37 1_555 1_555
C38 C37 1_555 1_555
H33 C38 1_555 1_555
H34 C38 1_555 1_555
H35 C38 1_555 1_555
C39 C28 1_555 1_555
H36 C39 1_555 1_555
H37 C39 1_555 1_555
C40 C39 1_555 1_555
H38 C40 1_555 1_555
H39 C40 1_555 1_555
H40 C40 1_555 1_555
C41 C8 1_555 1_555
C42 C41 1_555 1_555
C43 C42 1_555 1_555
C44 C43 1_555 1_555
H41 C44 1_555 1_555
C45 C44 1_555 1_555
H42 C45 1_555 1_555
C46 S1 1_555 1_555
H43 C46 1_555 1_555
C47 C22 1_555 1_555
C48 C47 1_555 1_555
C49 C48 1_555 1_555
C50 C49 1_555 1_555
H44 C50 1_555 1_555
C51 C50 1_555 1_555
H45 C51 1_555 1_555
C52 S3 1_555 1_555
H46 C52 1_555 1_555
C53 C35 1_555 1_555
C54 C53 1_555 1_555
C55 C1 1_555 1_555
C56 C1 1_555 1_555
H47 C56 1_555 1_555
C57 S2 1_555 1_555
H48 C57 1_555 1_555
C58 H49 1_555 1_555
C59 H50 1_555 1_555
C60 H51 1_555 1_555
Cl1 C58 1_555 1_555
Cl2 C58 1_555 1_555
Cl3 C58 1_555 1_555
Cl4 C59 1_555 1_555
Cl5 C59 1_555 1_555
Cl6 C59 1_555 1_555
Cl7 C60 1_555 1_555
Cl8 C60 1_555 1_555
Cl9 C60 1_555 1_555
C5 C10 1_555 1_555
C9 C10 1_555 1_555
C19 C29 1_555 1_555
C23 C29 1_555 1_555
C30 C31 1_555 1_555
C31 C32 1_555 1_555
C35 C36 1_555 1_555
C45 C46 1_555 1_555
C51 C52 1_555 1_555
C54 C55 1_555 1_555
C56 C57 1_555 1_555

#END
