
#######################################################################
#
#                 Cambridge Crystallographic Data Centre
#                                CCDC 
#
#######################################################################
#
# If this CIF has been generated from an entry in the Cambridge 
# Structural Database, then it will include bibliographic, chemical, 
# crystal, experimental, refinement or atomic coordinate data resulting 
# from the CCDC's data processing and validation procedures.
#
#######################################################################

data_KENPUR
_chemical_formula_moiety         'C19 H19 N1 O2'
_chemical_name_systematic        
3-(2-phenyloxiran-2-yl)-2-(propan-2-yl)-2,3-dihydro-1H-isoindol-1-one
_symmetry_cell_setting           orthorhombic
_symmetry_space_group_name_H-M   'P 21 21 21'
_symmetry_Int_Tables_number      19
_space_group_name_Hall           'P 2ac 2ab'
loop_
_symmetry_equiv_pos_site_id
_symmetry_equiv_pos_as_xyz
1 x,y,z
2 1/2-x,-y,1/2+z
3 1/2+x,1/2-y,-z
4 -x,1/2+y,1/2-z
_cell_length_a                   8.7468(5)
_cell_length_b                   12.1049(7)
_cell_length_c                   14.4736(9)
_cell_angle_alpha                90
_cell_angle_beta                 90
_cell_angle_gamma                90
_cell_volume                     1532.45
_exptl_crystal_description       block
_cell_formula_units_Z            4
loop_
_atom_site_label
_atom_site_type_symbol
_atom_site_fract_x
_atom_site_fract_y
_atom_site_fract_z
O1 O -0.1387(2) -0.92485(16) -0.55610(14)
O2 O -0.6266(2) -1.10447(15) -0.79362(13)
N1 N -0.2738(2) -0.98676(16) -0.68402(14)
C1 C -0.4173(3) -0.9207(2) -0.56348(18)
C2 C -0.2594(3) -0.9435(2) -0.59665(18)
C3 C -0.5184(3) -0.9465(2) -0.63314(18)
C4 C -0.4660(4) -0.8750(2) -0.48037(19)
H1 H -0.3965 -0.8571 -0.4341
C5 C -0.7244(3) -0.8836(2) -0.5387(2)
H2 H -0.8283 -0.8714 -0.5295
C6 C -0.4705(3) -1.1973(2) -0.67324(18)
C7 C -0.4332(3) -0.9908(2) -0.71558(18)
H3 H -0.4465 -0.9405 -0.7680
C8 C -0.4882(3) -1.1348(2) -0.84272(18)
H4 H -0.4459 -1.0818 -0.8860
H5 H -0.4753 -1.2116 -0.8601
C9 C -0.4464(4) -1.3668(2) -0.5431(2)
H6 H -0.4381 -1.4230 -0.4996
C10 C -0.4834(3) -1.1072(2) -0.74360(18)
C11 C -0.3436(3) -1.2665(2) -0.67175(19)
H7 H -0.2658 -1.2562 -0.7147
C12 C -0.5855(3) -1.2145(2) -0.6082(2)
H8 H -0.6711 -1.1689 -0.6079
C13 C -0.6752(3) -0.9283(2) -0.6222(2)
H9 H -0.7442 -0.9454 -0.6689
C14 C -0.1480(3) -0.9910(2) -0.75145(19)
H10 H -0.1904 -1.0194 -0.8094
C15 C -0.3314(3) -1.3507(2) -0.6071(2)
H11 H -0.2459 -1.3964 -0.6069
C16 C -0.6216(3) -0.8569(2) -0.4687(2)
H12 H -0.6574 -0.8267 -0.4137
C17 C -0.0216(3) -1.0702(2) -0.7215(2)
H13 H 0.0199 -1.0463 -0.6635
H14 H 0.0577 -1.0709 -0.7674
H15 H -0.0630 -1.1432 -0.7149
C18 C -0.5735(4) -1.2994(2) -0.5438(2)
H16 H -0.6514 -1.3108 -0.5011
C19 C -0.0867(4) -0.8755(3) -0.7709(3)
H17 H -0.1699 -0.8276 -0.7871
H18 H -0.0151 -0.8786 -0.8210
H19 H -0.0366 -0.8476 -0.7167
loop_
_geom_bond_atom_site_label_1
_geom_bond_atom_site_label_2
_geom_bond_site_symmetry_1
_geom_bond_site_symmetry_2
O1 C2 1_555 1_555
O2 C8 1_555 1_555
N1 C2 1_555 1_555
C1 C2 1_555 1_555
C3 C1 1_555 1_555
C4 C1 1_555 1_555
H1 C4 1_555 1_555
C5 H2 1_555 1_555
C6 C10 1_555 1_555
C7 N1 1_555 1_555
H3 C7 1_555 1_555
C8 H4 1_555 1_555
H5 C8 1_555 1_555
C9 H6 1_555 1_555
C10 O2 1_555 1_555
C11 C6 1_555 1_555
H7 C11 1_555 1_555
C12 C6 1_555 1_555
H8 C12 1_555 1_555
C13 C3 1_555 1_555
H9 C13 1_555 1_555
C14 N1 1_555 1_555
H10 C14 1_555 1_555
C15 C9 1_555 1_555
H11 C15 1_555 1_555
C16 C4 1_555 1_555
H12 C16 1_555 1_555
C17 C14 1_555 1_555
H13 C17 1_555 1_555
H14 C17 1_555 1_555
H15 C17 1_555 1_555
C18 C9 1_555 1_555
H16 C18 1_555 1_555
C19 C14 1_555 1_555
H17 C19 1_555 1_555
H18 C19 1_555 1_555
H19 C19 1_555 1_555
C3 C7 1_555 1_555
C5 C13 1_555 1_555
C5 C16 1_555 1_555
C7 C10 1_555 1_555
C8 C10 1_555 1_555
C11 C15 1_555 1_555
C12 C18 1_555 1_555

#END
