
#######################################################################
#
#                 Cambridge Crystallographic Data Centre
#                                CCDC 
#
#######################################################################
#
# If this CIF has been generated from an entry in the Cambridge 
# Structural Database, then it will include bibliographic, chemical, 
# crystal, experimental, refinement or atomic coordinate data resulting 
# from the CCDC's data processing and validation procedures.
#
#######################################################################

data_KENTIH
_chemical_compound_source        
'twigs and leaves of Turraea pubescens Hellen. (Meliaceae)'
_chemical_formula_moiety         'C31 H39 Cl1 O9'
_chemical_name_systematic        'Turrapubesin A'
_chemical_properties_biological  
'exhibits weak cytotoxicity against the P-388 tumour cell line'
_symmetry_cell_setting           monoclinic
_symmetry_space_group_name_H-M   'P 21'
_symmetry_Int_Tables_number      4
_space_group_name_Hall           'P 2yb'
loop_
_symmetry_equiv_pos_site_id
_symmetry_equiv_pos_as_xyz
1 x,y,z
2 -x,1/2+y,-z
_cell_length_a                   10.5361(10)
_cell_length_b                   11.1344(10)
_cell_length_c                   13.6933(12)
_cell_angle_alpha                90
_cell_angle_beta                 108.7020(10)
_cell_angle_gamma                90
_cell_volume                     1521.58
_exptl_crystal_colour            colorless
_exptl_crystal_description       prismatic
_chemical_melting_point          '454 K'
_cell_formula_units_Z            2
_exptl_crystal_recrystallization_method methanol
loop_
_atom_site_label
_atom_site_type_symbol
_atom_site_fract_x
_atom_site_fract_y
_atom_site_fract_z
Cl1 Cl 0.3613(2) 0.2893(4) 0.18126(13)
O1 O 0.0231(4) -0.0825(3) 0.6154(3)
O2 O 0.0203(3) 0.4522(2) 0.1923(2)
O3 O -0.4867(4) 0.0726(5) -0.0678(4)
O4 O 0.5636(4) 0.1012(5) 0.4413(3)
O5 O 0.4748(3) -0.0800(4) 0.3992(2)
O6 O 0.1389(2) -0.11284(18) 0.29829(15)
O7 O 0.2333(4) -0.1920(3) 0.1888(3)
O8 O -0.0881(2) -0.07815(19) 0.14260(15)
O9 O -0.1791(3) -0.1385(3) 0.2618(2)
C1 C 0.0565(3) 0.1171(3) 0.4259(2)
H1 H 0.0005 0.1694 0.3784
C2 C 0.0014(4) 0.0536(4) 0.4832(3)
H2 H -0.0904 0.0599 0.4710
C3 C 0.0784(4) -0.0250(3) 0.5637(3)
C4 C 0.2290(4) -0.0303(3) 0.5904(2)
C5 C 0.2762(3) 0.0062(3) 0.4974(2)
H3 H 0.2592 -0.0639 0.4516
C6 C 0.4290(4) 0.0242(4) 0.5344(3)
H4 H 0.4484 0.1004 0.5704
H5 H 0.4689 -0.0382 0.5842
C7 C 0.4969(4) 0.0229(6) 0.4537(3)
C8 C 0.1663(3) 0.2193(3) 0.2525(2)
C9 C 0.2035(3) 0.1030(3) 0.3143(2)
H6 H 0.2975 0.0874 0.3210
C10 C 0.1982(3) 0.1135(3) 0.4295(2)
C11 C 0.1218(3) 0.0007(2) 0.2458(2)
H7 H 0.1551 -0.0085 0.1870
C12 C -0.0270(3) 0.0248(3) 0.20278(19)
H8 H -0.0639 0.0366 0.2593
C13 C -0.0540(3) 0.1347(3) 0.1338(2)
C14 C 0.0473(3) 0.2329(3) 0.1798(2)
C15 C -0.0115(4) 0.3505(3) 0.1273(3)
H9 H 0.0231 0.3640 0.0697
C16 C -0.1618(4) 0.3268(4) 0.0827(3)
H10 H -0.1899 0.3271 0.0079
H11 H -0.2116 0.3883 0.1051
C17 C -0.1872(3) 0.2027(3) 0.1226(2)
H12 H -0.1923 0.2144 0.1922
C18 C -0.0432(3) 0.1052(3) 0.0266(2)
H13 H 0.0416 0.0678 0.0346
H14 H -0.0503 0.1779 -0.0124
H15 H -0.1142 0.0515 -0.0091
C19 C 0.2555(4) 0.2355(4) 0.4765(3)
H16 H 0.2031 0.2992 0.4358
H17 H 0.3467 0.2425 0.4773
H18 H 0.2525 0.2407 0.5457
C20 C -0.3136(4) 0.1410(4) 0.0606(3)
C21 C -0.3750(4) 0.1413(5) -0.0399(3)
H19 H -0.3448 0.1842 -0.0865
C22 C -0.3904(5) 0.0664(8) 0.0992(5)
H20 H -0.3713 0.0466 0.1684
C23 C -0.4934(5) 0.0278(8) 0.0250(7)
H21 H -0.5605 -0.0217 0.0327
C24 C 0.2753(6) -0.1587(5) 0.6211(4)
H22 H 0.2394 -0.1859 0.6734
H23 H 0.3714 -0.1610 0.6473
H24 H 0.2442 -0.2101 0.5618
C25 C 0.2826(5) 0.0517(5) 0.6868(3)
H25 H 0.2448 0.1306 0.6709
H26 H 0.3785 0.0567 0.7062
H27 H 0.2577 0.0185 0.7427
C26 C 0.2752(4) 0.3125(4) 0.2700(4)
H28 H 0.3368 0.3060 0.3398
H29 H 0.2362 0.3923 0.2612
C27 C 0.5376(6) -0.0837(7) 0.3194(4)
H30 H 0.4853 -0.0378 0.2610
H31 H 0.5431 -0.1655 0.2989
H32 H 0.6261 -0.0503 0.3454
C28 C 0.1926(4) -0.2022(4) 0.2611(3)
C29 C 0.1992(7) -0.3137(4) 0.3213(4)
H33 H 0.2172 -0.3806 0.2835
H34 H 0.1152 -0.3260 0.3333
H35 H 0.2695 -0.3068 0.3862
C30 C -0.1604(4) -0.1537(4) 0.1813(3)
C31 C -0.2121(6) -0.2558(5) 0.1093(4)
H36 H -0.1457 -0.3181 0.1229
H37 H -0.2315 -0.2284 0.0395
H38 H -0.2924 -0.2866 0.1188
H39 H 0.008(5) 0.443(5) 0.257(4)
loop_
_geom_bond_atom_site_label_1
_geom_bond_atom_site_label_2
_geom_bond_site_symmetry_1
_geom_bond_site_symmetry_2
Cl1 C26 1_555 1_555
O1 C3 1_555 1_555
O2 C15 1_555 1_555
O3 C21 1_555 1_555
O4 C7 1_555 1_555
O5 C7 1_555 1_555
O6 C11 1_555 1_555
O7 C28 1_555 1_555
O8 C12 1_555 1_555
O9 C30 1_555 1_555
C1 H1 1_555 1_555
C2 C1 1_555 1_555
H2 C2 1_555 1_555
C3 C2 1_555 1_555
C4 C3 1_555 1_555
C5 C4 1_555 1_555
H3 C5 1_555 1_555
C6 C5 1_555 1_555
H4 C6 1_555 1_555
H5 C6 1_555 1_555
C7 C6 1_555 1_555
C8 C9 1_555 1_555
C9 H6 1_555 1_555
C10 C1 1_555 1_555
C11 C9 1_555 1_555
H7 C11 1_555 1_555
C12 C11 1_555 1_555
H8 C12 1_555 1_555
C13 C12 1_555 1_555
C14 C8 1_555 1_555
C15 C14 1_555 1_555
H9 C15 1_555 1_555
C16 C15 1_555 1_555
H10 C16 1_555 1_555
H11 C16 1_555 1_555
C17 C13 1_555 1_555
H12 C17 1_555 1_555
C18 C13 1_555 1_555
H13 C18 1_555 1_555
H14 C18 1_555 1_555
H15 C18 1_555 1_555
C19 C10 1_555 1_555
H16 C19 1_555 1_555
H17 C19 1_555 1_555
H18 C19 1_555 1_555
C20 C17 1_555 1_555
C21 C20 1_555 1_555
H19 C21 1_555 1_555
C22 C20 1_555 1_555
H20 C22 1_555 1_555
C23 O3 1_555 1_555
H21 C23 1_555 1_555
C24 C4 1_555 1_555
H22 C24 1_555 1_555
H23 C24 1_555 1_555
H24 C24 1_555 1_555
C25 C4 1_555 1_555
H25 C25 1_555 1_555
H26 C25 1_555 1_555
H27 C25 1_555 1_555
C26 C8 1_555 1_555
H28 C26 1_555 1_555
H29 C26 1_555 1_555
C27 O5 1_555 1_555
H30 C27 1_555 1_555
H31 C27 1_555 1_555
H32 C27 1_555 1_555
C28 O6 1_555 1_555
C29 C28 1_555 1_555
H33 C29 1_555 1_555
H34 C29 1_555 1_555
H35 C29 1_555 1_555
C30 O8 1_555 1_555
C31 C30 1_555 1_555
H36 C31 1_555 1_555
H37 C31 1_555 1_555
H38 C31 1_555 1_555
H39 O2 1_555 1_555
C5 C10 1_555 1_555
C9 C10 1_555 1_555
C13 C14 1_555 1_555
C16 C17 1_555 1_555
C22 C23 1_555 1_555

#END
