
#######################################################################
#
#                 Cambridge Crystallographic Data Centre
#                                CCDC 
#
#######################################################################
#
# If this CIF has been generated from an entry in the Cambridge 
# Structural Database, then it will include bibliographic, chemical, 
# crystal, experimental, refinement or atomic coordinate data resulting 
# from the CCDC's data processing and validation procedures.
#
#######################################################################

data_KENWAC
_chemical_formula_moiety         'C26 H31 N5 O8'
_chemical_name_systematic        
N^2^-(4-n-butylphenyl)-2',3',5'-O-triacetylguanosine
_symmetry_cell_setting           monoclinic
_symmetry_space_group_name_H-M   'P 21'
_symmetry_Int_Tables_number      4
_space_group_name_Hall           'P 2yb'
loop_
_symmetry_equiv_pos_site_id
_symmetry_equiv_pos_as_xyz
1 x,y,z
2 -x,1/2+y,-z
_cell_length_a                   9.019(2)
_cell_length_b                   10.726(3)
_cell_length_c                   14.449(4)
_cell_angle_alpha                90
_cell_angle_beta                 105.111(4)
_cell_angle_gamma                90
_cell_volume                     1349.43
_exptl_crystal_colour            colorless
_exptl_crystal_description       rectangle
_cell_formula_units_Z            2
_exptl_crystal_recrystallization_method acetonitrile
loop_
_atom_site_label
_atom_site_type_symbol
_atom_site_fract_x
_atom_site_fract_y
_atom_site_fract_z
N1 N 0.5722(4) 1.1986(3) 0.9669(2)
H1 H 0.5262 1.2588 0.9874
N2 N 0.6941(4) 1.3520(3) 0.9065(3)
H2 H 0.6331 1.4006 0.9264
N3 N 0.6205(4) 0.8593(2) 0.9585(2)
N4 N 0.7791(4) 0.9195(2) 0.8706(2)
N5 N 0.7564(4) 1.1469(2) 0.8819(2)
O1 O 0.4326(3) 1.0588(2) 1.02867(18)
O2 O 1.0204(3) 0.9441(2) 0.84098(17)
O3 O 0.9598(3) 0.8941(2) 0.61750(17)
O4 O 1.1101(4) 1.0001(3) 0.5444(2)
O5 O 1.1916(3) 1.2000(2) 0.73476(19)
O6 O 1.3993(3) 1.0771(3) 0.7566(2)
O7 O 0.6430(4) 1.1002(3) 0.5593(2)
O8 O 0.6818(3) 0.9297(2) 0.65019(18)
C1 C 0.6759(5) 1.2287(3) 0.9167(2)
C2 C 0.5355(4) 1.0771(3) 0.9875(2)
C3 C 0.6258(4) 0.9894(3) 0.9548(3)
C4 C 0.7225(4) 1.0281(3) 0.9013(2)
C5 C 0.7135(5) 0.8230(3) 0.9088(3)
H3 H 0.7340 0.7396 0.8999
C6 C 0.8045(5) 1.4096(3) 0.8659(3)
C7 C 0.8959(5) 1.5024(3) 0.9191(3)
H4 H 0.8902 1.5196 0.9811
C8 C 0.9940(5) 1.5682(4) 0.8800(3)
H5 H 1.0555 1.6288 0.9173
C9 C 1.0066(5) 1.5496(4) 0.7883(4)
C10 C 0.9147(7) 1.4550(5) 0.7362(4)
H6 H 0.9203 1.4383 0.6740
C11 C 0.8160(5) 1.3860(4) 0.7742(3)
H7 H 0.7570 1.3233 0.7379
C12 C 1.1129(7) 1.6290(7) 0.7475(5)
H8 H 1.0851 1.7081 0.7227
C13 C 1.2591(6) 1.5751(6) 0.7495(4)
H9 H 1.2452 1.5073 0.7036
H10 H 1.3052 1.5413 0.8127
C14 C 1.3744(7) 1.6820(9) 0.7227(5)
H11 H 1.3222 1.7259 0.6647
H12 H 1.4041 1.7421 0.7744
C15 C 1.5065(10) 1.6199(8) 0.7092(5)
H13 H 1.5748 1.6798 0.6930
H14 H 1.4759 1.5603 0.6583
H15 H 1.5581 1.5777 0.7673
C16 C 0.8682(4) 0.9071(3) 0.8009(2)
H16 H 0.8670 0.8197 0.7810
C17 C 0.8104(5) 0.9881(3) 0.7128(3)
H17 H 0.7802 1.0699 0.7320
C18 C 0.9523(4) 1.0019(3) 0.6758(3)
H18 H 0.9508 1.0798 0.6401
C19 C 1.0819(5) 1.0003(3) 0.7678(3)
H19 H 1.1679 0.9505 0.7585
C20 C 1.1378(5) 1.1296(3) 0.8041(3)
H20 H 1.0545 1.1746 0.8200
H21 H 1.2204 1.1215 0.8622
C21 C 1.3268(5) 1.1655(4) 0.7184(3)
C22 C 1.3676(6) 1.2478(5) 0.6478(4)
H22 H 1.4637 1.2216 0.6373
H23 H 1.3768 1.3319 0.6713
H24 H 1.2891 1.2438 0.5885
C23 C 1.0433(5) 0.9044(4) 0.5540(3)
C24 C 1.0429(6) 0.7881(4) 0.4980(3)
H25 H 1.1041 0.8000 0.4534
H26 H 0.9394 0.7682 0.4635
H27 H 1.0848 0.7210 0.5408
C25 C 0.6034(5) 0.9986(4) 0.5758(3)
C26 C 0.4631(5) 0.9314(5) 0.5208(3)
H28 H 0.4089 0.9823 0.4681
H29 H 0.3977 0.9144 0.5621
H30 H 0.4924 0.8544 0.4967
loop_
_geom_bond_atom_site_label_1
_geom_bond_atom_site_label_2
_geom_bond_site_symmetry_1
_geom_bond_site_symmetry_2
N1 H1 1_555 1_555
N2 H2 1_555 1_555
N3 C3 1_555 1_555
N4 C4 1_555 1_555
N5 C1 1_555 1_555
O1 C2 1_555 1_555
O2 C16 1_555 1_555
O3 C18 1_555 1_555
O4 C23 1_555 1_555
O5 C20 1_555 1_555
O6 C21 1_555 1_555
O7 C25 1_555 1_555
O8 C17 1_555 1_555
C1 N1 1_555 1_555
C2 N1 1_555 1_555
C3 C2 1_555 1_555
C4 N5 1_555 1_555
C5 N3 1_555 1_555
H3 C5 1_555 1_555
C6 N2 1_555 1_555
C7 C6 1_555 1_555
H4 C7 1_555 1_555
C8 C7 1_555 1_555
H5 C8 1_555 1_555
C9 C8 1_555 1_555
C10 C9 1_555 1_555
H6 C10 1_555 1_555
C11 C6 1_555 1_555
H7 C11 1_555 1_555
C12 C9 1_555 1_555
H8 C12 1_555 1_555
C13 C12 1_555 1_555
H9 C13 1_555 1_555
H10 C13 1_555 1_555
C14 C13 1_555 1_555
H11 C14 1_555 1_555
H12 C14 1_555 1_555
C15 C14 1_555 1_555
H13 C15 1_555 1_555
H14 C15 1_555 1_555
H15 C15 1_555 1_555
C16 N4 1_555 1_555
H16 C16 1_555 1_555
C17 C16 1_555 1_555
H17 C17 1_555 1_555
C18 C17 1_555 1_555
H18 C18 1_555 1_555
C19 O2 1_555 1_555
H19 C19 1_555 1_555
C20 C19 1_555 1_555
H20 C20 1_555 1_555
H21 C20 1_555 1_555
C21 O5 1_555 1_555
C22 C21 1_555 1_555
H22 C22 1_555 1_555
H23 C22 1_555 1_555
H24 C22 1_555 1_555
C23 O3 1_555 1_555
C24 C23 1_555 1_555
H25 C24 1_555 1_555
H26 C24 1_555 1_555
H27 C24 1_555 1_555
C25 O8 1_555 1_555
C26 C25 1_555 1_555
H28 C26 1_555 1_555
H29 C26 1_555 1_555
H30 C26 1_555 1_555
N2 C1 1_555 1_555
N4 C5 1_555 1_555
C3 C4 1_555 1_555
C10 C11 1_555 1_555
C18 C19 1_555 1_555

#END
