
#######################################################################
#
#                 Cambridge Crystallographic Data Centre
#                                CCDC 
#
#######################################################################
#
# If this CIF has been generated from an entry in the Cambridge 
# Structural Database, then it will include bibliographic, chemical, 
# crystal, experimental, refinement or atomic coordinate data resulting 
# from the CCDC's data processing and validation procedures.
#
#######################################################################

data_KEPNEY
_chemical_formula_moiety         'C20 H36 O6,2(C6 Cl2 N3 O7 1-),2(H3 O1 1+)'
_chemical_name_systematic        
'bis(Oxonium dichloropicrate) 2,5,8,15,18,21-hexaoxatricyclo(20.4.0.0^9,14^)hexacosane'
_symmetry_cell_setting           triclinic
_symmetry_space_group_name_H-M   'P -1'
_symmetry_Int_Tables_number      2
_space_group_name_Hall           '-P 1'
loop_
_symmetry_equiv_pos_site_id
_symmetry_equiv_pos_as_xyz
1 x,y,z
2 -x,-y,-z
_cell_length_a                   7.855(2)
_cell_length_b                   10.048(3)
_cell_length_c                   14.927(4)
_cell_angle_alpha                107.90(2)
_cell_angle_beta                 92.30(2)
_cell_angle_gamma                91.62(2)
_cell_volume                     1119.19
_exptl_crystal_colour            'pale yellow'
_cell_formula_units_Z            1
loop_
_atom_site_label
_atom_site_type_symbol
_atom_site_fract_x
_atom_site_fract_y
_atom_site_fract_z
Cl1 Cl 0.7028(3) 0.2024(2) 0.8978(2)
Cl2 Cl 0.7967(4) 0.7557(3) 1.0751(2)
O2 O 0.7207(7) 0.5667(5) 0.7244(3)
O3 O 0.5411(8) 0.2582(6) 0.6880(4)
O4 O 0.807(1) 0.2204(7) 0.6908(5)
O5 O 0.913(1) 0.8290(7) 0.8732
O6 O 0.643(1) 0.8503(7) 0.8900(6)
O7 O 0.8837(8) 0.4583(9) 1.1075(4)
O8 O 0.6279(8) 0.443(1) 1.1016(4)
N1 N 0.6849(9) 0.2811(6) 0.7224(4)
N2 N 0.774(1) 0.7873(7) 0.8825(5)
N3 N 0.7521(8) 0.4553(8) 1.0698(4)
C1 C 0.7227(9) 0.3715(7) 0.8949(5)
C2 C 0.7486(9) 0.4849(8) 0.9776(5)
C3 C 0.7628(9) 0.6162(8) 0.9735(5)
C4 C 0.7552(9) 0.6417(7) 0.8887(5)
C5 C 0.7282(9) 0.5343(7) 0.8034(4)
C6 C 0.7139(9) 0.4004(7) 0.8102(5)
O1 O 0.6625(7) 0.4212(5) 0.5632(3)
H1 H 0.68(1) 0.446(9) 0.635(6)
H2 H 0.69(1) 0.494(8) 0.534(6)
H3 H 0.57(1) 0.387(8) 0.547(5)
O9 O 0.4658(6) 0.1941(5) 0.4488(3)
O10 O 0.2480(6) 0.4069(5) 0.5449(3)
O11 O 0.7237(6) 0.3083(4) 0.3625(3)
C7 C 0.6235(9) 0.1854(8) 0.3093(5)
C8 C 0.729(1) 0.0874(8) 0.2333(5)
C9 C 0.885(1) 0.0442(8) 0.2812(6)
C10 C 0.833(1) -0.0256(8) 0.3522(6)
C11 C 0.719(1) 0.0663(7) 0.4261(5)
C12 C 0.5696(9) 0.1113(7) 0.3762(5)
C13 C 0.296(1) 0.2066(7) 0.4160(5)
C14 C 0.189(1) 0.2681(7) 0.4965(5)
C15 C 0.148(1) 0.4738(7) 0.6239(5)
C16 C 0.755(1) 0.4037(7) 0.3117(5)
H4 H 0.522(7) 0.215(6) 0.278(4)
H5 H 0.652(7) 0.020(5) 0.198(3)
H6 H 0.750 0.141 0.187
H7 H 0.978(9) 0.155(7) 0.300(5)
H8 H 0.942(8) 0.000(6) 0.232(4)
H9 H 0.927(8) -0.055(6) 0.386(4)
H10 H 0.768(9) -0.125(7) 0.322(5)
H11 H 0.78(1) 0.162(8) 0.455(5)
H12 H 0.662(9) 0.006(7) 0.471(5)
H13 H 0.500(9) 0.020(7) 0.340(4)
H14 H 0.286(9) 0.243(7) 0.362(4)
H15 H 0.241(9) 0.097(7) 0.389(5)
H16 H 0.063(8) 0.255(6) 0.470(4)
H17 H 0.196(7) 0.217(6) 0.545(4)
H18 H 0.033(7) 0.506(5) 0.603(4)
H19 H 0.137(8) 0.412(6) 0.668(4)
H20 H 0.642(8) 0.427(6) 0.283(4)
H21 H 0.82(1) 0.376(8) 0.249(5)
C16A C 0.245(1) 0.5963(7) 0.6883(5)
C15A C 0.852(1) 0.5262(7) 0.3761(5)
O11A O 0.2763(6) 0.6917(4) 0.6375(3)
H20A H 0.358(8) 0.573(6) 0.717(4)
H21A H 0.18(1) 0.624(8) 0.751(5)
O10A O 0.7520(6) 0.5931(5) 0.4551(3)
H18A H 0.967(7) 0.494(5) 0.397(4)
H19A H 0.863(8) 0.588(6) 0.332(4)
C7A C 0.3765(9) 0.8146(8) 0.6907(5)
C14A C 0.811(1) 0.7319(7) 0.5035(5)
C8A C 0.271(1) 0.9126(8) 0.7667(5)
C12A C 0.4304(9) 0.8887(7) 0.6238(5)
H4A H 0.478(7) 0.785(6) 0.722(4)
C13A C 0.704(1) 0.7934(7) 0.5840(5)
H16A H 0.937(8) 0.745(6) 0.530(4)
H17A H 0.804(7) 0.783(6) 0.455(4)
C9A C 0.115(1) 0.9558(8) 0.7188(6)
H5A H 0.348(7) 0.980(5) 0.802(3)
H6A H 0.250 0.859 0.813
O9A O 0.5342(6) 0.8059(5) 0.5512(3)
C11A C 0.281(1) 0.9337(7) 0.5739(5)
H13A H 0.500(9) 0.980(7) 0.660(4)
H14A H 0.714(9) 0.757(7) 0.638(4)
H15A H 0.759(9) 0.903(7) 0.611(5)
C10A C 0.167(1) 1.0256(8) 0.6478(6)
H7A H 0.022(9) 0.845(7) 0.700(5)
H8A H 0.058(8) 1.000(6) 0.768(4)
H11A H 0.22(1) 0.838(8) 0.545(5)
H12A H 0.338(9) 0.994(7) 0.529(5)
H9A H 0.073(8) 1.055(6) 0.614(4)
H10A H 0.232(9) 1.125(7) 0.678(5)
loop_
_geom_bond_atom_site_label_1
_geom_bond_atom_site_label_2
_geom_bond_site_symmetry_1
_geom_bond_site_symmetry_2
Cl1 C1 1_555 1_555
Cl2 C3 1_555 1_555
O1 H1 1_555 1_555
O2 C5 1_555 1_555
O3 N1 1_555 1_555
O4 N1 1_555 1_555
O5 N2 1_555 1_555
O6 N2 1_555 1_555
O7 N3 1_555 1_555
O8 N3 1_555 1_555
O9 C12 1_555 1_555
O10 C14 1_555 1_555
O11 C7 1_555 1_555
N1 C6 1_555 1_555
N2 C4 1_555 1_555
N3 C2 1_555 1_555
C1 C2 1_555 1_555
C2 C3 1_555 1_555
C3 C4 1_555 1_555
C4 C5 1_555 1_555
C5 C6 1_555 1_555
C6 C1 1_555 1_555
C7 C8 1_555 1_555
C8 C9 1_555 1_555
C9 C10 1_555 1_555
C10 C11 1_555 1_555
C11 C12 1_555 1_555
C12 C7 1_555 1_555
C13 O9 1_555 1_555
C14 C13 1_555 1_555
C15 O10 1_555 1_555
C16 O11 1_555 1_555
H2 O1 1_555 1_555
H3 O1 1_555 1_555
H4 C7 1_555 1_555
H5 C8 1_555 1_555
H6 C8 1_555 1_555
H7 C9 1_555 1_555
H8 C9 1_555 1_555
H9 C10 1_555 1_555
H10 C10 1_555 1_555
H11 C11 1_555 1_555
H12 C11 1_555 1_555
H13 C12 1_555 1_555
H14 C13 1_555 1_555
H15 C13 1_555 1_555
H16 C14 1_555 1_555
H17 C14 1_555 1_555
H18 C15 1_555 1_555
H19 C15 1_555 1_555
H20 C16 1_555 1_555
H21 C16 1_555 1_555
C16A C15 1_555 1_555
C15A C16 1_555 1_555
O11A C16A 1_555 1_555
H20A C16A 1_555 1_555
H21A C16A 1_555 1_555
O10A C15A 1_555 1_555
H18A C15A 1_555 1_555
H19A C15A 1_555 1_555
C7A O11A 1_555 1_555
C14A O10A 1_555 1_555
C8A C7A 1_555 1_555
C12A C7A 1_555 1_555
H4A C7A 1_555 1_555
C13A C14A 1_555 1_555
H16A C14A 1_555 1_555
H17A C14A 1_555 1_555
C9A C8A 1_555 1_555
H5A C8A 1_555 1_555
H6A C8A 1_555 1_555
O9A C12A 1_555 1_555
C11A C12A 1_555 1_555
H13A C12A 1_555 1_555
H14A C13A 1_555 1_555
H15A C13A 1_555 1_555
C10A C9A 1_555 1_555
H7A C9A 1_555 1_555
H8A C9A 1_555 1_555
H11A C11A 1_555 1_555
H12A C11A 1_555 1_555
H9A C10A 1_555 1_555
H10A C10A 1_555 1_555
C13A O9A 1_555 1_555
C11A C10A 1_555 1_555

#END
