
#######################################################################
#
#                 Cambridge Crystallographic Data Centre
#                                CCDC 
#
#######################################################################
#
# If this CIF has been generated from an entry in the Cambridge 
# Structural Database, then it will include bibliographic, chemical, 
# crystal, experimental, refinement or atomic coordinate data resulting 
# from the CCDC's data processing and validation procedures.
#
#######################################################################

data_KEQBIS
_chemical_formula_moiety         'C12 H9 N3,C12 H10 N3 1+,C8 H5 O4 1-,4(H2 O1)'
_chemical_name_systematic        
'2-(4-pyridyl)benzimidazole 2-(pyridinium-4-yl)benzimidazole hydrogen terephthalate tetrahydrate'
_symmetry_cell_setting           triclinic
_symmetry_space_group_name_H-M   'P -1'
_symmetry_Int_Tables_number      2
_space_group_name_Hall           '-P 1'
loop_
_symmetry_equiv_pos_site_id
_symmetry_equiv_pos_as_xyz
1 x,y,z
2 -x,-y,-z
_cell_length_a                   9.615(3)
_cell_length_b                   9.629(3)
_cell_length_c                   17.725(6)
_cell_angle_alpha                79.955(13)
_cell_angle_beta                 82.920(12)
_cell_angle_gamma                67.575(9)
_cell_volume                     1490.78
_exptl_crystal_colour            orange
_exptl_crystal_description       Prism
_cell_formula_units_Z            2
loop_
_atom_site_label
_atom_site_type_symbol
_atom_site_fract_x
_atom_site_fract_y
_atom_site_fract_z
C1 C 0.00034(16) -0.11451(16) 0.64672(9)
C2 C 0.11300(16) -0.12003(15) 0.58925(8)
H1 H 0.1737(19) -0.2182(19) 0.5726(9)
C3 C 0.13351(14) 0.01443(14) 0.55731(7)
C4 C 0.03908(16) 0.14766(16) 0.58586(8)
H2 H 0.049(2) 0.241(2) 0.5667(11)
C5 C -0.06971(16) 0.14198(16) 0.64355(9)
H3 H -0.136(2) 0.233(2) 0.6641(10)
C6 C 0.24984(14) 0.01897(15) 0.49596(7)
C7 C 0.39259(15) 0.09993(15) 0.41094(8)
C8 C 0.46707(17) 0.18435(17) 0.36196(8)
H4 H 0.4383(19) 0.294(2) 0.3620(10)
C9 C 0.58452(17) 0.10786(19) 0.31372(9)
H5 H 0.639(2) 0.164(2) 0.2781(10)
C10 C 0.63041(16) -0.05007(19) 0.31385(8)
H6 H 0.7171(19) -0.1009(19) 0.2781(10)
C11 C 0.55875(16) -0.13506(17) 0.36166(8)
H7 H 0.5902(17) -0.2434(18) 0.3626(9)
C12 C 0.43833(15) -0.05691(15) 0.41003(8)
N1 N -0.09036(13) 0.01326(13) 0.67407(7)
N2 N 0.34489(12) -0.10538(13) 0.46459(7)
H20 H 0.344(2) -0.199(2) 0.4724(12)
N3 N 0.27419(13) 0.14487(13) 0.46554(7)
H34 H -0.020(2) -0.204(2) 0.6692(10)
C13 C 0.39119(15) 0.85634(15) 0.18631(8)
H8 H 0.3610(18) 0.7710(19) 0.2052(10)
C14 C 0.50787(15) 0.85009(15) 0.13189(8)
H9 H 0.5632(19) 0.7553(19) 0.1100(10)
C15 C 0.54134(13) 0.98051(14) 0.10646(7)
C16 C 0.45424(15) 1.11317(15) 0.13789(8)
H10 H 0.4720(18) 1.2052(18) 0.1234(9)
C17 C 0.33978(15) 1.11137(16) 0.19249(8)
H11 H 0.2757(19) 1.2004(19) 0.2177(10)
C18 C 0.66337(14) 0.97757(14) 0.04746(7)
C19 C 0.84698(14) 0.90395(15) -0.03677(7)
C20 C 0.96485(15) 0.82266(17) -0.08580(8)
H12 H 0.9927(19) 0.712(2) -0.0867(10)
C21 C 1.04178(16) 0.90148(18) -0.13390(8)
H13 H 1.125(2) 0.8450(19) -0.1699(10)
C22 C 1.00520(15) 1.05798(18) -0.13375(8)
H14 H 1.0640(19) 1.1139(19) -0.1699(10)
C23 C 0.89249(15) 1.13930(16) -0.08454(8)
H15 H 0.8683(17) 1.2489(18) -0.0832(9)
C24 C 0.81354(14) 1.05925(15) -0.03631(7)
N4 N 0.30985(12) 0.98507(13) 0.21573(6)
H21 H 0.222(3) 0.988(2) 0.2581(13)
N5 N 0.69622(12) 1.10332(12) 0.01830(6)
H22 H 0.6564(18) 1.195(2) 0.0350(9)
N6 N 0.75032(12) 0.85515(12) 0.01612(6)
C25 C -0.20058(13) 0.50975(14) 0.26376(8)
C26 C -0.14254(14) 0.51220(15) 0.18800(8)
H16 H -0.2002(19) 0.5076(19) 0.1472(10)
C27 C 0.00097(14) 0.51632(15) 0.16949(8)
H17 H 0.0395(17) 0.5203(17) 0.1165(9)
C28 C 0.08711(13) 0.51699(13) 0.22730(7)
C29 C 0.02764(14) 0.51720(14) 0.30315(8)
H18 H 0.0888(18) 0.5186(17) 0.3429(9)
C30 C -0.11614(14) 0.51393(14) 0.32151(8)
H19 H -0.1597(17) 0.5146(17) 0.3745(9)
C31 C -0.35395(14) 0.50240(14) 0.28508(8)
C32 C 0.24623(13) 0.51261(13) 0.20787(7)
O1 O -0.40483(11) 0.49822(14) 0.35172(6)
O3 O -0.42435(11) 0.50167(12) 0.22730(6)
H26 H -0.541(3) 0.516(3) 0.2454(14)
O6 O 0.30573(10) 0.54477(11) 0.25961(6)
O7 O 0.31007(10) 0.47660(11) 0.14481(6)
O2 O 0.36592(16) 0.59231(14) 0.46145(9)
H24 H 0.286(6) 0.582(6) 0.464(3)
H25 H 0.430(8) 0.547(9) 0.509(5)
O4 O 0.15462(14) 0.45292(13) 0.48635(7)
H27 H 0.196(3) 0.350(3) 0.4819(13)
H29 H 0.069(4) 0.485(4) 0.493(2)
O5 O 0.60347(13) 1.37571(13) 0.07251(7)
H30 H 0.647(2) 1.438(2) 0.0507(12)
H31 H 0.521(3) 1.428(2) 0.0985(13)
O8 O 0.24458(12) 0.44018(12) -0.00130(6)
H32 H 0.247(2) 0.344(2) -0.0043(12)
H33 H 0.265(3) 0.442(3) 0.0503(15)
H23? H 0.423(3) 0.567(3) 0.4121(17)
H28? H 0.226(4) 0.488(4) 0.477(2)
loop_
_geom_bond_atom_site_label_1
_geom_bond_atom_site_label_2
_geom_bond_site_symmetry_1
_geom_bond_site_symmetry_2
C1 C2 1_555 1_555
C2 H1 1_555 1_555
C3 C2 1_555 1_555
C4 C3 1_555 1_555
H2 C4 1_555 1_555
C5 C4 1_555 1_555
H3 C5 1_555 1_555
C6 C3 1_555 1_555
C7 C8 1_555 1_555
C8 H4 1_555 1_555
C9 C8 1_555 1_555
H5 C9 1_555 1_555
C10 C9 1_555 1_555
H6 C10 1_555 1_555
C11 C10 1_555 1_555
H7 C11 1_555 1_555
C12 C7 1_555 1_555
C13 H8 1_555 1_555
C14 C13 1_555 1_555
H9 C14 1_555 1_555
C15 C14 1_555 1_555
C16 C15 1_555 1_555
H10 C16 1_555 1_555
C17 C16 1_555 1_555
H11 C17 1_555 1_555
C18 C15 1_555 1_555
C19 C20 1_555 1_555
C20 H12 1_555 1_555
C21 C20 1_555 1_555
H13 C21 1_555 1_555
C22 C21 1_555 1_555
H14 C22 1_555 1_555
C23 C22 1_555 1_555
H15 C23 1_555 1_555
C24 C19 1_555 1_555
C25 C26 1_555 1_555
C26 H16 1_555 1_555
C27 C26 1_555 1_555
H17 C27 1_555 1_555
C28 C27 1_555 1_555
C29 C28 1_555 1_555
H18 C29 1_555 1_555
C30 C25 1_555 1_555
H19 C30 1_555 1_555
C31 C25 1_555 1_555
C32 C28 1_555 1_555
N1 C1 1_555 1_555
N2 C6 1_555 1_555
H20 N2 1_555 1_555
N3 C6 1_555 1_555
N4 C13 1_555 1_555
H21 N4 1_555 1_555
N5 C18 1_555 1_555
H22 N5 1_555 1_555
N6 C18 1_555 1_555
O1 C31 1_555 1_555
O2 H24 1_555 1_555
H25 O2 1_555 1_555
O3 C31 1_555 1_555
H26 O3 1_555 1_555
O4 H27 1_555 1_555
H29 O4 1_555 1_555
O5 H30 1_555 1_555
H31 O5 1_555 1_555
O6 C32 1_555 1_555
O7 C32 1_555 1_555
O8 H32 1_555 1_555
H33 O8 1_555 1_555
H34 C1 1_555 1_555
C5 N1 1_555 1_555
C7 N3 1_555 1_555
C11 C12 1_555 1_555
C12 N2 1_555 1_555
C17 N4 1_555 1_555
C19 N6 1_555 1_555
C23 C24 1_555 1_555
C24 N5 1_555 1_555
C29 C30 1_555 1_555

#END
