
#######################################################################
#
#                 Cambridge Crystallographic Data Centre
#                                CCDC 
#
#######################################################################
#
# If this CIF has been generated from an entry in the Cambridge 
# Structural Database, then it will include bibliographic, chemical, 
# crystal, experimental, refinement or atomic coordinate data resulting 
# from the CCDC's data processing and validation procedures.
#
#######################################################################

data_KEQJAU
_chemical_formula_moiety         'C26 H36 B2 Br4 N2'
_chemical_name_systematic        
2-bromo-1,3-bis[2,6-bis(propan-2-yl)phenyl]-4-(tribromoboranyl)-1,3,2-diazaborole
_symmetry_cell_setting           orthorhombic
_symmetry_space_group_name_H-M   'P b c a'
_symmetry_Int_Tables_number      61
_space_group_name_Hall           '-P 2ac 2ab'
loop_
_symmetry_equiv_pos_site_id
_symmetry_equiv_pos_as_xyz
1 x,y,z
2 1/2-x,-y,1/2+z
3 -x,1/2+y,1/2-z
4 1/2+x,1/2-y,-z
5 -x,-y,-z
6 1/2+x,y,1/2-z
7 x,1/2-y,1/2+z
8 1/2-x,1/2+y,z
_cell_length_a                   19.6037(12)
_cell_length_b                   17.1792(11)
_cell_length_c                   37.549(2)
_cell_angle_alpha                90
_cell_angle_beta                 90
_cell_angle_gamma                90
_cell_volume                     12645.6
_exptl_crystal_colour            colorless
_exptl_crystal_description       plate
_cell_formula_units_Z            16
loop_
_atom_site_label
_atom_site_type_symbol
_atom_site_fract_x
_atom_site_fract_y
_atom_site_fract_z
B1 B 0.6364(5) 0.7497(5) 0.4755(2)
B2 B 0.4525(5) 0.7260(6) 0.5118(3)
Br1 Br 0.72923(4) 0.77620(7) 0.48114(3)
Br2 Br 0.40031(5) 0.63502(6) 0.49229(3)
Br3 Br 0.41025(5) 0.82693(6) 0.49183(3)
Br4 Br 0.44668(6) 0.72790(8) 0.56398(3)
N1 N 0.5858(3) 0.7483(4) 0.50525(15)
N2 N 0.6024(3) 0.7289(4) 0.44546(15)
C1 C 0.5246(4) 0.7290(4) 0.49311(19)
C2 C 0.5324(4) 0.7110(5) 0.45445(19)
H1 H 0.499(3) 0.740(4) 0.4403(16)
H2 H 0.518(4) 0.6570(18) 0.4490(18)
C3 C 0.6253(3) 0.7185(5) 0.4091(2)
C4 C 0.6569(4) 0.6479(5) 0.4001(2)
C5 C 0.6762(4) 0.6403(6) 0.3646(3)
H3 H 0.6973 0.5945 0.3574
C6 C 0.6654(5) 0.6974(8) 0.3400(3)
H4 H 0.6783 0.6900 0.3164
C7 C 0.6358(5) 0.7650(6) 0.3502(2)
H5 H 0.6294 0.8039 0.3333
C8 C 0.6147(4) 0.7782(5) 0.3850(2)
C9 C 0.5850(4) 0.8556(5) 0.3956(2)
H6 H 0.5677 0.8493 0.4199
C10 C 0.5240(6) 0.8793(7) 0.3727(3)
H7 H 0.4914 0.8376 0.3722
H8 H 0.5031 0.9250 0.3825
H9 H 0.5391 0.8901 0.3488
C11 C 0.6375(6) 0.9192(6) 0.3970(4)
H10 H 0.6159 0.9671 0.4039
H11 H 0.6719 0.9059 0.4142
H12 H 0.6581 0.9252 0.3740
C12 C 0.6679(5) 0.5839(6) 0.4266(3)
H13 H 0.6515 0.6024 0.4497
C13 C 0.7446(7) 0.5653(9) 0.4305(4)
H14 H 0.7689 0.6120 0.4365
H15 H 0.7508 0.5274 0.4490
H16 H 0.7617 0.5450 0.4084
C14 C 0.6278(8) 0.5124(7) 0.4172(4)
H17 H 0.6360 0.4726 0.4346
H18 H 0.5801 0.5247 0.4167
H19 H 0.6417 0.4940 0.3941
C15 C 0.6042(4) 0.7612(5) 0.5426(2)
C16 C 0.6223(4) 0.6956(6) 0.5623(2)
C17 C 0.6434(5) 0.7095(7) 0.5969(2)
H20 H 0.6563 0.6678 0.6112
C18 C 0.6456(6) 0.7835(8) 0.6106(3)
H21 H 0.6587 0.7909 0.6342
C19 C 0.6291(6) 0.8463(7) 0.5903(3)
H22 H 0.6322 0.8960 0.6000
C20 C 0.6075(5) 0.8373(6) 0.5551(2)
C21 C 0.5876(6) 0.9072(6) 0.5337(3)
H23 H 0.5705 0.8888 0.5107
C22 C 0.5312(6) 0.9549(7) 0.5512(3)
H24 H 0.5204 0.9988 0.5364
H25 H 0.4913 0.9231 0.5540
H26 H 0.5463 0.9728 0.5741
C23 C 0.6487(7) 0.9603(7) 0.5265(4)
H27 H 0.6341 1.0044 0.5128
H28 H 0.6674 0.9779 0.5487
H29 H 0.6828 0.9321 0.5135
C24 C 0.6210(5) 0.6146(5) 0.5482(2)
H30 H 0.5991 0.6164 0.5247
C25 C 0.5803(8) 0.5590(7) 0.5709(4)
H31 H 0.5814 0.5080 0.5604
H32 H 0.5997 0.5569 0.5943
H33 H 0.5340 0.5766 0.5724
C26 C 0.6905(7) 0.5802(8) 0.5432(4)
H34 H 0.6863 0.5282 0.5340
H35 H 0.7160 0.6114 0.5266
H36 H 0.7139 0.5789 0.5656
B3 B 0.3583(4) 0.7461(5) 0.7649(2)
B4 B 0.5337(5) 0.6905(8) 0.7254(3)
Br5 Br 0.26706(4) 0.78063(8) 0.75968(2)
Br6 Br 0.52905(6) 0.66174(8) 0.67417(3)
Br7 Br 0.58281(6) 0.79542(9) 0.73191(4)
Br8 Br 0.58499(7) 0.60911(10) 0.75223(3)
N3 N 0.4027(3) 0.7253(4) 0.73419(15)
N4 N 0.3944(3) 0.7358(4) 0.79491(15)
C27 C 0.4635(4) 0.7075(5) 0.7457(2)
C28 C 0.4626(4) 0.7088(5) 0.7851(2)
H37 H 0.500(3) 0.738(4) 0.7967(17)
H38 H 0.467(4) 0.656(2) 0.7952(18)
C29 C 0.3754(4) 0.7395(5) 0.8322(2)
C30 C 0.3906(4) 0.8053(6) 0.8515(2)
C31 C 0.3722(5) 0.8057(7) 0.8870(2)
H39 H 0.3816 0.8493 0.9008
C32 C 0.3405(5) 0.7431(9) 0.9021(3)
H40 H 0.3279 0.7449 0.9260
C33 C 0.3271(5) 0.6786(7) 0.8828(3)
H41 H 0.3066 0.6362 0.8939
C34 C 0.3431(4) 0.6740(6) 0.8470(2)
C35 C 0.3248(5) 0.6029(6) 0.8258(3)
H42 H 0.3435 0.6097 0.8018
C36 C 0.2481(6) 0.5946(8) 0.8222(4)
H43 H 0.2378 0.5488 0.8086
H44 H 0.2280 0.5903 0.8454
H45 H 0.2300 0.6395 0.8103
C37 C 0.3549(9) 0.5284(8) 0.8411(5)
H46 H 0.3416 0.4850 0.8266
H47 H 0.4038 0.5324 0.8415
H48 H 0.3384 0.5209 0.8650
C38 C 0.4224(5) 0.8753(5) 0.8348(2)
H49 H 0.4382 0.8607 0.8110
C39 C 0.4841(5) 0.9048(7) 0.8560(3)
H50 H 0.5029 0.9498 0.8444
H51 H 0.4700 0.9184 0.8797
H52 H 0.5181 0.8646 0.8571
C40 C 0.3715(7) 0.9418(7) 0.8307(4)
H53 H 0.3938 0.9857 0.8200
H54 H 0.3343 0.9253 0.8159
H55 H 0.3544 0.9564 0.8537
C41 C 0.3778(4) 0.7195(5) 0.6975(2)
C42 C 0.3834(4) 0.7816(5) 0.6744(2)
C43 C 0.3544(5) 0.7731(7) 0.6407(2)
H56 H 0.3575 0.8134 0.6242
C44 C 0.3215(5) 0.7061(9) 0.6318(3)
H57 H 0.3033 0.7007 0.6091
C45 C 0.3149(5) 0.6474(8) 0.6555(3)
H58 H 0.2912 0.6027 0.6489
C46 C 0.3426(4) 0.6524(6) 0.6893(2)
C47 C 0.3346(6) 0.5851(7) 0.7153(3)
H59 H 0.3421 0.6065 0.7392
C48 C 0.2627(7) 0.5502(9) 0.7153(4)
H60 H 0.2606 0.5081 0.7321
H61 H 0.2303 0.5895 0.7219
H62 H 0.2520 0.5310 0.6920
C49 C 0.3898(8) 0.5227(8) 0.7095(4)
H63 H 0.3833 0.4811 0.7263
H64 H 0.3864 0.5026 0.6858
H65 H 0.4340 0.5454 0.7130
C50 C 0.4186(5) 0.8561(6) 0.6843(3)
H66 H 0.4423 0.8476 0.7069
C51 C 0.3662(7) 0.9214(7) 0.6899(3)
H67 H 0.3895 0.9686 0.6962
H68 H 0.3409 0.9294 0.6684
H69 H 0.3356 0.9071 0.7087
C52 C 0.4718(6) 0.8812(7) 0.6567(3)
H70 H 0.4928 0.9290 0.6642
H71 H 0.5060 0.8415 0.6545
H72 H 0.4500 0.8889 0.6341
loop_
_geom_bond_atom_site_label_1
_geom_bond_atom_site_label_2
_geom_bond_site_symmetry_1
_geom_bond_site_symmetry_2
B1 Br1 1_555 1_555
B2 Br2 1_555 1_555
Br3 B2 1_555 1_555
Br4 B2 1_555 1_555
N1 B1 1_555 1_555
N2 B1 1_555 1_555
C1 B2 1_555 1_555
C2 N2 1_555 1_555
H1 C2 1_555 1_555
H2 C2 1_555 1_555
C3 N2 1_555 1_555
C4 C3 1_555 1_555
C5 C4 1_555 1_555
H3 C5 1_555 1_555
C6 C5 1_555 1_555
H4 C6 1_555 1_555
C7 C6 1_555 1_555
H5 C7 1_555 1_555
C8 C3 1_555 1_555
C9 C8 1_555 1_555
H6 C9 1_555 1_555
C10 C9 1_555 1_555
H7 C10 1_555 1_555
H8 C10 1_555 1_555
H9 C10 1_555 1_555
C11 C9 1_555 1_555
H10 C11 1_555 1_555
H11 C11 1_555 1_555
H12 C11 1_555 1_555
C12 C4 1_555 1_555
H13 C12 1_555 1_555
C13 C12 1_555 1_555
H14 C13 1_555 1_555
H15 C13 1_555 1_555
H16 C13 1_555 1_555
C14 C12 1_555 1_555
H17 C14 1_555 1_555
H18 C14 1_555 1_555
H19 C14 1_555 1_555
C15 N1 1_555 1_555
C16 C15 1_555 1_555
C17 C16 1_555 1_555
H20 C17 1_555 1_555
C18 C17 1_555 1_555
H21 C18 1_555 1_555
C19 C18 1_555 1_555
H22 C19 1_555 1_555
C20 C15 1_555 1_555
C21 C20 1_555 1_555
H23 C21 1_555 1_555
C22 C21 1_555 1_555
H24 C22 1_555 1_555
H25 C22 1_555 1_555
H26 C22 1_555 1_555
C23 C21 1_555 1_555
H27 C23 1_555 1_555
H28 C23 1_555 1_555
H29 C23 1_555 1_555
C24 C16 1_555 1_555
H30 C24 1_555 1_555
C25 C24 1_555 1_555
H31 C25 1_555 1_555
H32 C25 1_555 1_555
H33 C25 1_555 1_555
C26 C24 1_555 1_555
H34 C26 1_555 1_555
H35 C26 1_555 1_555
H36 C26 1_555 1_555
B3 Br5 1_555 1_555
B4 Br6 1_555 1_555
Br7 B4 1_555 1_555
Br8 B4 1_555 1_555
N3 B3 1_555 1_555
N4 B3 1_555 1_555
C27 B4 1_555 1_555
C28 N4 1_555 1_555
H37 C28 1_555 1_555
H38 C28 1_555 1_555
C29 N4 1_555 1_555
C30 C29 1_555 1_555
C31 C30 1_555 1_555
H39 C31 1_555 1_555
C32 C31 1_555 1_555
H40 C32 1_555 1_555
C33 C32 1_555 1_555
H41 C33 1_555 1_555
C34 C29 1_555 1_555
C35 C34 1_555 1_555
H42 C35 1_555 1_555
C36 C35 1_555 1_555
H43 C36 1_555 1_555
H44 C36 1_555 1_555
H45 C36 1_555 1_555
C37 C35 1_555 1_555
H46 C37 1_555 1_555
H47 C37 1_555 1_555
H48 C37 1_555 1_555
C38 C30 1_555 1_555
H49 C38 1_555 1_555
C39 C38 1_555 1_555
H50 C39 1_555 1_555
H51 C39 1_555 1_555
H52 C39 1_555 1_555
C40 C38 1_555 1_555
H53 C40 1_555 1_555
H54 C40 1_555 1_555
H55 C40 1_555 1_555
C41 N3 1_555 1_555
C42 C41 1_555 1_555
C43 C42 1_555 1_555
H56 C43 1_555 1_555
C44 C43 1_555 1_555
H57 C44 1_555 1_555
C45 C44 1_555 1_555
H58 C45 1_555 1_555
C46 C41 1_555 1_555
C47 C46 1_555 1_555
H59 C47 1_555 1_555
C48 C47 1_555 1_555
H60 C48 1_555 1_555
H61 C48 1_555 1_555
H62 C48 1_555 1_555
C49 C47 1_555 1_555
H63 C49 1_555 1_555
H64 C49 1_555 1_555
H65 C49 1_555 1_555
C50 C42 1_555 1_555
H66 C50 1_555 1_555
C51 C50 1_555 1_555
H67 C51 1_555 1_555
H68 C51 1_555 1_555
H69 C51 1_555 1_555
C52 C50 1_555 1_555
H70 C52 1_555 1_555
H71 C52 1_555 1_555
H72 C52 1_555 1_555
N1 C1 1_555 1_555
C1 C2 1_555 1_555
C7 C8 1_555 1_555
C19 C20 1_555 1_555
N3 C27 1_555 1_555
C27 C28 1_555 1_555
C33 C34 1_555 1_555
C45 C46 1_555 1_555

#END
