
#######################################################################
#
#                 Cambridge Crystallographic Data Centre
#                                CCDC 
#
#######################################################################
#
# If this CIF has been generated from an entry in the Cambridge 
# Structural Database, then it will include bibliographic, chemical, 
# crystal, experimental, refinement or atomic coordinate data resulting 
# from the CCDC's data processing and validation procedures.
#
#######################################################################

data_KEQJEY
_chemical_formula_moiety         'C26 H36 B2 Br1 I3 N2'
_chemical_name_systematic        
2-bromo-1,3-bis[2,6-bis(propan-2-yl)phenyl]-4-(tri-iodoboranyl)-1,3,2-diazaborole
_symmetry_cell_setting           orthorhombic
_symmetry_space_group_name_H-M   'P 21 21 21'
_symmetry_Int_Tables_number      19
_space_group_name_Hall           'P 2ac 2ab'
loop_
_symmetry_equiv_pos_site_id
_symmetry_equiv_pos_as_xyz
1 x,y,z
2 1/2-x,-y,1/2+z
3 -x,1/2+y,1/2-z
4 1/2+x,1/2-y,-z
_cell_length_a                   12.2369(6)
_cell_length_b                   14.6825(7)
_cell_length_c                   18.0610(8)
_cell_angle_alpha                90
_cell_angle_beta                 90
_cell_angle_gamma                90
_cell_volume                     3244.99
_exptl_crystal_colour            yellow
_exptl_crystal_description       plate
_cell_formula_units_Z            4
loop_
_atom_site_label
_atom_site_type_symbol
_atom_site_fract_x
_atom_site_fract_y
_atom_site_fract_z
B1 B 0.6685(5) 0.5230(5) 0.6890(4)
B2 B 0.8917(6) 0.6110(5) 0.5526(4)
Br1 Br 0.60285(6) 0.51828(5) 0.78422(3)
I1 I 1.00519(4) 0.71133(4) 0.60026(3)
I2 I 0.81084(6) 0.67337(5) 0.45429(3)
I3 I 0.98917(5) 0.48637(4) 0.51921(4)
N1 N 0.7628(4) 0.5843(3) 0.6701(2)
N2 N 0.6446(4) 0.4739(4) 0.6285(3)
C1 C 0.7933(5) 0.5692(4) 0.6015(3)
C2 C 0.7170(6) 0.5015(5) 0.5682(3)
H1 H 0.6756 0.5288 0.5282
H2 H 0.7570 0.4495 0.5490
C3 C 0.5674(5) 0.4012(4) 0.6161(3)
C4 C 0.6032(6) 0.3109(5) 0.6249(3)
C5 C 0.5283(7) 0.2430(5) 0.6119(5)
H3 H 0.5503 0.1826 0.6159
C6 C 0.4230(7) 0.2617(5) 0.5934(5)
H4 H 0.3738 0.2144 0.5853
C7 C 0.3895(6) 0.3503(5) 0.5865(4)
H5 H 0.3171 0.3623 0.5743
C8 C 0.4610(5) 0.4227(4) 0.5974(3)
C9 C 0.4196(6) 0.5191(5) 0.5880(4)
H6 H 0.4811 0.5606 0.5965
C10 C 0.3762(14) 0.5369(9) 0.5121(7)
H7 H 0.3511 0.5987 0.5090
H8 H 0.4331 0.5272 0.4763
H9 H 0.3166 0.4963 0.5021
C11 C 0.3312(10) 0.5413(7) 0.6446(7)
H10 H 0.3065 0.6027 0.6373
H11 H 0.2709 0.5001 0.6384
H12 H 0.3604 0.5350 0.6936
C12 C 0.7214(6) 0.2882(6) 0.6469(5)
H13 H 0.7621 0.3456 0.6483
C13 C 0.7251(10) 0.2479(10) 0.7233(7)
H14 H 0.7995 0.2342 0.7362
H15 H 0.6958 0.2908 0.7582
H16 H 0.6825 0.1930 0.7245
C14 C 0.7758(11) 0.2274(12) 0.5891(8)
H17 H 0.8494 0.2143 0.6041
H18 H 0.7356 0.1715 0.5847
H19 H 0.7766 0.2581 0.5422
C15 C 0.8072(5) 0.6491(4) 0.7223(3)
C16 C 0.8834(5) 0.6181(5) 0.7739(4)
C17 C 0.9172(7) 0.6804(6) 0.8269(4)
H20 H 0.9675 0.6626 0.8627
C18 C 0.8776(7) 0.7683(6) 0.8273(5)
H21 H 0.9013 0.8091 0.8633
C19 C 0.8042(7) 0.7957(5) 0.7754(5)
H22 H 0.7792 0.8555 0.7766
C20 C 0.7659(5) 0.7383(4) 0.7215(4)
C21 C 0.6838(6) 0.7707(5) 0.6641(4)
H23 H 0.6884 0.7296 0.6215
C22 C 0.7059(11) 0.8661(9) 0.6369(8)
H24 H 0.6517 0.8828 0.6010
H25 H 0.7029 0.9077 0.6779
H26 H 0.7770 0.8685 0.6146
C23 C 0.5675(8) 0.7648(9) 0.6952(7)
H27 H 0.5538 0.7040 0.7124
H28 H 0.5598 0.8068 0.7356
H29 H 0.5161 0.7799 0.6570
C24 C 0.9301(8) 0.5228(6) 0.7724(6)
H30 H 0.8964 0.4890 0.7316
C25 C 0.9000(13) 0.4752(12) 0.8468(13)
H31 H 0.9289 0.4144 0.8471
H32 H 0.9306 0.5089 0.8874
H33 H 0.8220 0.4728 0.8519
C26 C 1.0533(11) 0.5249(9) 0.7609(9)
H34 H 1.0811 0.4638 0.7601
H35 H 1.0695 0.5542 0.7147
H36 H 1.0870 0.5581 0.8006
loop_
_geom_bond_atom_site_label_1
_geom_bond_atom_site_label_2
_geom_bond_site_symmetry_1
_geom_bond_site_symmetry_2
B1 Br1 1_555 1_555
B2 I1 1_555 1_555
I2 B2 1_555 1_555
I3 B2 1_555 1_555
N1 B1 1_555 1_555
N2 B1 1_555 1_555
C1 B2 1_555 1_555
C2 N2 1_555 1_555
H1 C2 1_555 1_555
H2 C2 1_555 1_555
C3 N2 1_555 1_555
C4 C3 1_555 1_555
C5 C4 1_555 1_555
H3 C5 1_555 1_555
C6 C5 1_555 1_555
H4 C6 1_555 1_555
C7 C6 1_555 1_555
H5 C7 1_555 1_555
C8 C3 1_555 1_555
C9 C8 1_555 1_555
H6 C9 1_555 1_555
C10 C9 1_555 1_555
H7 C10 1_555 1_555
H8 C10 1_555 1_555
H9 C10 1_555 1_555
C11 C9 1_555 1_555
H10 C11 1_555 1_555
H11 C11 1_555 1_555
H12 C11 1_555 1_555
C12 C4 1_555 1_555
H13 C12 1_555 1_555
C13 C12 1_555 1_555
H14 C13 1_555 1_555
H15 C13 1_555 1_555
H16 C13 1_555 1_555
C14 C12 1_555 1_555
H17 C14 1_555 1_555
H18 C14 1_555 1_555
H19 C14 1_555 1_555
C15 N1 1_555 1_555
C16 C15 1_555 1_555
C17 C16 1_555 1_555
H20 C17 1_555 1_555
C18 C17 1_555 1_555
H21 C18 1_555 1_555
C19 C18 1_555 1_555
H22 C19 1_555 1_555
C20 C15 1_555 1_555
C21 C20 1_555 1_555
H23 C21 1_555 1_555
C22 C21 1_555 1_555
H24 C22 1_555 1_555
H25 C22 1_555 1_555
H26 C22 1_555 1_555
C23 C21 1_555 1_555
H27 C23 1_555 1_555
H28 C23 1_555 1_555
H29 C23 1_555 1_555
C24 C16 1_555 1_555
H30 C24 1_555 1_555
C25 C24 1_555 1_555
H31 C25 1_555 1_555
H32 C25 1_555 1_555
H33 C25 1_555 1_555
C26 C24 1_555 1_555
H34 C26 1_555 1_555
H35 C26 1_555 1_555
H36 C26 1_555 1_555
N1 C1 1_555 1_555
C1 C2 1_555 1_555
C7 C8 1_555 1_555
C19 C20 1_555 1_555

#END
