
#######################################################################
#
#                 Cambridge Crystallographic Data Centre
#                                CCDC 
#
#######################################################################
#
# If this CIF has been generated from an entry in the Cambridge 
# Structural Database, then it will include bibliographic, chemical, 
# crystal, experimental, refinement or atomic coordinate data resulting 
# from the CCDC's data processing and validation procedures.
#
#######################################################################

data_KEQKAU
_chemical_formula_moiety         'C18 H24 O5'
_chemical_name_systematic        
2,7-dihydroxy-8-methyl-9,19-dioxabicyclo[16.1.0]nonadeca-3,5-diyn-10-one
_symmetry_cell_setting           orthorhombic
_symmetry_space_group_name_H-M   'P 21 21 21'
_symmetry_Int_Tables_number      19
_space_group_name_Hall           'P 2ac 2ab'
loop_
_symmetry_equiv_pos_site_id
_symmetry_equiv_pos_as_xyz
1 x,y,z
2 1/2-x,-y,1/2+z
3 -x,1/2+y,1/2-z
4 1/2+x,1/2-y,-z
_cell_length_a                   4.9507(4)
_cell_length_b                   7.5613(7)
_cell_length_c                   45.518(4)
_cell_angle_alpha                90
_cell_angle_beta                 90
_cell_angle_gamma                90
_cell_volume                     1703.91
_exptl_crystal_colour            colorless
_exptl_crystal_description       prismatic
_cell_formula_units_Z            4
loop_
_atom_site_label
_atom_site_type_symbol
_atom_site_fract_x
_atom_site_fract_y
_atom_site_fract_z
O1 O 0.2194(4) 0.7579(2) 0.20520(4)
O2 O 0.4047(4) 1.0148(2) 0.19193(3)
O3 O -0.2442(4) 1.1127(2) 0.00741(3)
O4 O -0.5079(4) 1.3620(3) 0.05001(4)
O5 O 0.0208(5) 1.4057(2) 0.20796(4)
C1 C 0.3922(5) 0.8394(3) 0.19214(5)
C2 C 0.6135(5) 0.7577(4) 0.17449(5)
H1 H 0.7112 0.6740 0.1867
H2 H 0.7392 0.8492 0.1684
C3 C 0.5063(6) 0.6624(3) 0.14725(5)
H3 H 0.6576 0.6137 0.1364
H4 H 0.3933 0.5644 0.1535
C4 C 0.3448(5) 0.7806(3) 0.12712(5)
H5 H 0.4546 0.8813 0.1215
H6 H 0.1882 0.8248 0.1376
C5 C 0.2515(6) 0.6841(3) 0.09951(5)
H7 H 0.4083 0.6482 0.0882
H8 H 0.1542 0.5780 0.1052
C6 C 0.0703(5) 0.7982(3) 0.08037(4)
H9 H -0.0925 0.8268 0.0912
H10 H 0.1628 0.9082 0.0760
C7 C -0.0079(6) 0.7094(3) 0.05178(5)
H11 H -0.0944 0.5973 0.0561
H12 H 0.1544 0.6850 0.0405
C8 C -0.1983(6) 0.8217(3) 0.03321(5)
H13 H -0.2470 0.7563 0.0157
H14 H -0.3624 0.8437 0.0443
C9 C -0.0765(5) 0.9944(3) 0.02445(4)
H15 H 0.1102 0.9856 0.0174
C10 C -0.1484(5) 1.1685(3) 0.03606(4)
H16 H -0.0029 1.2564 0.0358
C11 C -0.3712(5) 1.2041(3) 0.05773(4)
H17 H -0.4990 1.1052 0.0576
C12 C -0.2567(5) 1.2245(3) 0.08751(5)
C13 C -0.1572(5) 1.2332(3) 0.11110(5)
C14 C -0.0404(6) 1.2449(3) 0.13864(5)
C15 C 0.0628(6) 1.2594(3) 0.16214(5)
C16 C 0.1830(5) 1.2885(3) 0.19151(5)
H18 H 0.3630 1.3406 0.1891
C17 C 0.2087(6) 1.1153(3) 0.20886(5)
H19 H 0.0351 1.0533 0.2096
C18 C 0.3160(7) 1.1451(4) 0.23922(5)
H20 H 0.3322 1.0337 0.2492
H21 H 0.1944 1.2204 0.2499
H22 H 0.4903 1.2004 0.2381
H23 H -0.572(7) 1.353(4) 0.0331(7)
H24 H 0.081(10) 1.510(6) 0.2061(9)
loop_
_geom_bond_atom_site_label_1
_geom_bond_atom_site_label_2
_geom_bond_site_symmetry_1
_geom_bond_site_symmetry_2
O1 C1 1_555 1_555
O2 C1 1_555 1_555
O3 C9 1_555 1_555
O4 C11 1_555 1_555
O5 C16 1_555 1_555
C1 C2 1_555 1_555
C2 H1 1_555 1_555
H2 C2 1_555 1_555
C3 C2 1_555 1_555
H3 C3 1_555 1_555
H4 C3 1_555 1_555
C4 C3 1_555 1_555
H5 C4 1_555 1_555
H6 C4 1_555 1_555
C5 C4 1_555 1_555
H7 C5 1_555 1_555
H8 C5 1_555 1_555
C6 C5 1_555 1_555
H9 C6 1_555 1_555
H10 C6 1_555 1_555
C7 C6 1_555 1_555
H11 C7 1_555 1_555
H12 C7 1_555 1_555
C8 C7 1_555 1_555
H13 C8 1_555 1_555
H14 C8 1_555 1_555
C9 C8 1_555 1_555
H15 C9 1_555 1_555
C10 O3 1_555 1_555
H16 C10 1_555 1_555
C11 C10 1_555 1_555
H17 C11 1_555 1_555
C12 C11 1_555 1_555
C13 C12 1_555 1_555
C14 C13 1_555 1_555
C15 C14 1_555 1_555
C16 C15 1_555 1_555
H18 C16 1_555 1_555
C17 O2 1_555 1_555
H19 C17 1_555 1_555
C18 C17 1_555 1_555
H20 C18 1_555 1_555
H21 C18 1_555 1_555
H22 C18 1_555 1_555
H23 O4 1_555 1_555
H24 O5 1_555 1_555
C9 C10 1_555 1_555
C16 C17 1_555 1_555

#END
