
#######################################################################
#
#                 Cambridge Crystallographic Data Centre
#                                CCDC 
#
#######################################################################
#
# If this CIF has been generated from an entry in the Cambridge 
# Structural Database, then it will include bibliographic, chemical, 
# crystal, experimental, refinement or atomic coordinate data resulting 
# from the CCDC's data processing and validation procedures.
#
#######################################################################

data_KEQMAV
_chemical_formula_moiety         'C2 H4 N3 1+,C6 H2 N3 O7 1-'
_chemical_name_systematic        '1,2,4-Triazolium picrate'
_symmetry_cell_setting           monoclinic
_symmetry_space_group_name_H-M   'P 21/n'
_symmetry_Int_Tables_number      14
_space_group_name_Hall           '-P 2yn'
loop_
_symmetry_equiv_pos_site_id
_symmetry_equiv_pos_as_xyz
1 x,y,z
2 1/2-x,1/2+y,1/2-z
3 -x,-y,-z
4 1/2+x,1/2-y,1/2+z
_cell_length_a                   7.2038(7)
_cell_length_b                   19.0535(19)
_cell_length_c                   8.2252(8)
_cell_angle_alpha                90
_cell_angle_beta                 97.808(2)
_cell_angle_gamma                90
_cell_volume                     1118.5
_exptl_crystal_colour            yellow
_exptl_crystal_description       block
_chemical_melting_point          442-443K
_cell_formula_units_Z            4
_exptl_crystal_recrystallization_method acetonitrile
loop_
_atom_site_label
_atom_site_type_symbol
_atom_site_fract_x
_atom_site_fract_y
_atom_site_fract_z
C1 C 0.83008(19) 0.08399(7) 0.36590(17)
C2 C 0.8159(2) 0.06987(7) 0.19306(18)
C3 C 0.7621(2) 0.00714(8) 0.12005(18)
H1 H 0.7569 0.0013 0.0073
C4 C 0.7156(2) -0.04722(8) 0.21818(19)
C5 C 0.7176(2) -0.03870(8) 0.38517(18)
H2 H 0.6864 -0.0757 0.4500
C6 C 0.7665(2) 0.02575(8) 0.45376(17)
N1 N 0.87131(18) 0.12503(7) 0.08581(15)
N2 N 0.6638(2) -0.11488(7) 0.14487(18)
N3 N 0.75122(18) 0.03275(7) 0.62781(15)
O1 O 0.90245(15) 0.13982(5) 0.43207(13)
O2 O 0.81526(18) 0.18445(6) 0.10265(15)
O3 O 0.9712(2) 0.10893(7) -0.01606(16)
O4 O 0.6093(2) -0.11692(7) -0.00167(16)
O5 O 0.6789(2) -0.16665(6) 0.23447(17)
O6 O 0.7716(2) -0.01985(7) 0.71364(14)
O7 O 0.70929(19) 0.09029(6) 0.67907(15)
C7 C 0.6916(2) 0.24597(9) 0.7175(2)
H3 H 0.5815 0.2248 0.6690
C8 C 0.9799(2) 0.27322(8) 0.7869(2)
H4 H 1.1096 0.2728 0.7921
N4 N 0.8631(2) 0.22965(7) 0.69199(16)
H5 H 0.884(3) 0.1993(8) 0.6245(18)
N5 N 0.8877(2) 0.31578(7) 0.86977(17)
N6 N 0.7053(2) 0.29711(7) 0.82308(17)
H6 H 0.6130(19) 0.3179(9) 0.857(2)
loop_
_geom_bond_atom_site_label_1
_geom_bond_atom_site_label_2
_geom_bond_site_symmetry_1
_geom_bond_site_symmetry_2
C1 C2 1_555 1_555
C2 C3 1_555 1_555
C3 H1 1_555 1_555
C4 C3 1_555 1_555
C5 C4 1_555 1_555
H2 C5 1_555 1_555
C6 C1 1_555 1_555
C7 H3 1_555 1_555
C8 H4 1_555 1_555
N1 C2 1_555 1_555
N2 C4 1_555 1_555
N3 C6 1_555 1_555
N4 C7 1_555 1_555
H5 N4 1_555 1_555
N5 C8 1_555 1_555
N6 C7 1_555 1_555
H6 N6 1_555 1_555
O1 C1 1_555 1_555
O2 N1 1_555 1_555
O3 N1 1_555 1_555
O4 N2 1_555 1_555
O5 N2 1_555 1_555
O6 N3 1_555 1_555
O7 N3 1_555 1_555
C5 C6 1_555 1_555
C8 N4 1_555 1_555
N5 N6 1_555 1_555

#END
