
#######################################################################
#
#                 Cambridge Crystallographic Data Centre
#                                CCDC 
#
#######################################################################
#
# If this CIF has been generated from an entry in the Cambridge 
# Structural Database, then it will include bibliographic, chemical, 
# crystal, experimental, refinement or atomic coordinate data resulting 
# from the CCDC's data processing and validation procedures.
#
#######################################################################

data_KEQPAA
_chemical_formula_moiety         'C23 H20 O4'
_chemical_name_systematic        
'ethyl 1-acetyl-5-benzylidene-4-oxo-2-phenylcyclopent-2-ene-1-carboxylate'
_symmetry_cell_setting           triclinic
_symmetry_space_group_name_H-M   'P -1'
_symmetry_Int_Tables_number      2
_space_group_name_Hall           '-P 1'
loop_
_symmetry_equiv_pos_site_id
_symmetry_equiv_pos_as_xyz
1 x,y,z
2 -x,-y,-z
_cell_length_a                   7.2975(16)
_cell_length_b                   8.7644(19)
_cell_length_c                   15.888(4)
_cell_angle_alpha                95.184(4)
_cell_angle_beta                 103.256(3)
_cell_angle_gamma                106.389(3)
_cell_volume                     935.731
_exptl_crystal_colour            white
_exptl_crystal_description       block
_cell_formula_units_Z            2
loop_
_atom_site_label
_atom_site_type_symbol
_atom_site_fract_x
_atom_site_fract_y
_atom_site_fract_z
O1 O 0.1818(2) 0.2462(2) 0.07659(10)
O2 O 0.0519(2) 0.05156(18) 0.31276(10)
O3 O -0.2249(3) 0.0670(2) 0.34628(11)
O4 O -0.2631(3) 0.3632(2) 0.30634(10)
C1 C 0.1970(3) 0.4565(3) 0.40871(14)
H1 H 0.1009 0.3570 0.4015
C2 C 0.2625(3) 0.5571(3) 0.48884(14)
H2 H 0.2123 0.5240 0.5352
C3 C 0.4016(3) 0.7062(3) 0.50044(15)
H3 H 0.4445 0.7742 0.5543
C4 C 0.4771(3) 0.7542(3) 0.43149(15)
H4 H 0.5703 0.8552 0.4387
C5 C 0.4142(3) 0.6524(3) 0.35205(14)
H5 H 0.4675 0.6853 0.3063
C6 C 0.2725(3) 0.5013(2) 0.33870(12)
C7 C 0.2185(3) 0.4018(2) 0.25107(13)
H6 H 0.3137 0.4334 0.2205
C8 C 0.0636(3) 0.2768(2) 0.20628(12)
C9 C -0.1291(3) 0.1914(2) 0.22673(12)
C10 C -0.2375(3) 0.0617(2) 0.14237(13)
C11 C -0.1325(3) 0.0731(3) 0.08495(14)
H7 H -0.1726 0.0062 0.0308
C12 C 0.0594(3) 0.2068(2) 0.11722(13)
C13 C -0.4307(3) -0.0615(2) 0.13217(13)
C14 C -0.4684(3) -0.2157(3) 0.08501(15)
H8 H -0.3728 -0.2389 0.0608
C15 C -0.6476(4) -0.3325(3) 0.07477(16)
H9 H -0.6704 -0.4357 0.0455
C16 C -0.7926(4) -0.2979(3) 0.10742(17)
H10 H -0.9147 -0.3763 0.0983
C17 C -0.7576(4) -0.1469(3) 0.15382(19)
H11 H -0.8560 -0.1236 0.1759
C18 C -0.5764(3) -0.0308(3) 0.16729(16)
H12 H -0.5515 0.0695 0.2004
C19 C -0.1092(3) 0.0989(2) 0.30383(13)
C20 C 0.0849(4) -0.0486(3) 0.3798(2)
H13 H 0.0494 -0.0101 0.4312
H14 H 0.2241 -0.0405 0.3972
C21 C -0.0358(4) -0.2192(3) 0.3460(3)
H15 H 0.0000 -0.2573 0.2954
H16 H -0.1737 -0.2274 0.3300
H17 H -0.0118 -0.2835 0.3906
C22 C -0.3017(3) 0.3895(3) 0.15757(15)
H18 H -0.4332 0.3248 0.1251
H19 H -0.2124 0.3910 0.1215
H20 H -0.3009 0.4975 0.1749
C23 C -0.2372(3) 0.3195(2) 0.23726(13)
loop_
_geom_bond_atom_site_label_1
_geom_bond_atom_site_label_2
_geom_bond_site_symmetry_1
_geom_bond_site_symmetry_2
O1 C12 1_555 1_555
O2 C19 1_555 1_555
O3 C19 1_555 1_555
O4 C23 1_555 1_555
C1 H1 1_555 1_555
C2 C1 1_555 1_555
H2 C2 1_555 1_555
C3 C2 1_555 1_555
H3 C3 1_555 1_555
C4 C3 1_555 1_555
H4 C4 1_555 1_555
C5 C4 1_555 1_555
H5 C5 1_555 1_555
C6 C1 1_555 1_555
C7 C6 1_555 1_555
H6 C7 1_555 1_555
C8 C7 1_555 1_555
C9 C8 1_555 1_555
C10 C9 1_555 1_555
C11 C10 1_555 1_555
H7 C11 1_555 1_555
C12 C8 1_555 1_555
C13 C10 1_555 1_555
C14 C13 1_555 1_555
H8 C14 1_555 1_555
C15 C14 1_555 1_555
H9 C15 1_555 1_555
C16 C15 1_555 1_555
H10 C16 1_555 1_555
C17 C16 1_555 1_555
H11 C17 1_555 1_555
C18 C13 1_555 1_555
H12 C18 1_555 1_555
C19 C9 1_555 1_555
C20 O2 1_555 1_555
H13 C20 1_555 1_555
H14 C20 1_555 1_555
C21 C20 1_555 1_555
H15 C21 1_555 1_555
H16 C21 1_555 1_555
H17 C21 1_555 1_555
C22 H18 1_555 1_555
H19 C22 1_555 1_555
H20 C22 1_555 1_555
C23 C9 1_555 1_555
C5 C6 1_555 1_555
C11 C12 1_555 1_555
C17 C18 1_555 1_555
C22 C23 1_555 1_555

#END
