
#######################################################################
#
#                 Cambridge Crystallographic Data Centre
#                                CCDC 
#
#######################################################################
#
# If this CIF has been generated from an entry in the Cambridge 
# Structural Database, then it will include bibliographic, chemical, 
# crystal, experimental, refinement or atomic coordinate data resulting 
# from the CCDC's data processing and validation procedures.
#
#######################################################################

data_KEQSOR
_chemical_name_common            
"6,7-dihydrodipyrido[1,2-a:2',1'-c]pyrazinediium S6-corona[3]-2,5-bis(ethylcarboxy)arene[3]cyclopenta[d]pyridazine hexafluorophosphate acetonitrile solvate"
_chemical_formula_moiety         
'C57 H54 N6 O12 S6,0.5(C12 H12 N2 2+),F6 P1 1-,C2 H3 N1'
_chemical_name_systematic        
"hemikis(6,7-dihydrodipyrido[1,2-a:2',1'-c]pyrazinediium) hexaethyl 2,7,15,20,28,33-hexathia-40,41,44,45,48,49-hexaazadecacyclo[32.5.2.2^3,6^.2^8,14^.2^16,19^.2^21,27^.2^29,32^.0^9,13^.0^22,26^.0^35,39^]henpentaconta-1(39),3,5,8,13,16,18,21,26,29,31,34,40,42,44,46,48,50-octadecaene-4,17,30,42,46,50-hexacarboxylate hexafluorophosphate acetonitrile solvate"
_symmetry_cell_setting           triclinic
_symmetry_space_group_name_H-M   'P -1'
_symmetry_Int_Tables_number      2
_space_group_name_Hall           '-P 1'
loop_
_symmetry_equiv_pos_site_id
_symmetry_equiv_pos_as_xyz
1 x,y,z
2 -x,-y,-z
_cell_length_a                   14.180(2)
_cell_length_b                   16.430(3)
_cell_length_c                   16.973(2)
_cell_angle_alpha                65.700(12)
_cell_angle_beta                 71.841(16)
_cell_angle_gamma                79.491(18)
_cell_volume                     3417.79
_exptl_crystal_colour            colorless
_exptl_crystal_description       block
_cell_formula_units_Z            2
loop_
_atom_site_label
_atom_site_type_symbol
_atom_site_fract_x
_atom_site_fract_y
_atom_site_fract_z
S1 S 0.44289(17) 0.83957(16) 0.5327(2)
S2 S 0.10352(17) 0.58794(17) 0.82427(16)
S3 S 0.19003(16) 0.21646(14) 0.79758(15)
S4 S 0.59264(16) 0.01162(14) 0.88774(16)
S5 S 0.93273(15) 0.26783(14) 0.72747(14)
S6 S 0.81319(15) 0.61088(12) 0.41499(13)
O1 O 0.2556(5) 0.9329(4) 0.5113(6)
O2 O 0.1519(6) 0.8421(4) 0.5146(6)
O3 O 0.4257(7) 0.5078(7) 0.7914(8)
O4 O 0.2938(9) 0.5156(7) 0.8903(7)
O5 O 0.2097(18) 0.0683(15) 0.7599(13)
O6 O 0.3284(9) -0.0429(7) 0.7803(9)
O7 O 0.5120(5) 0.2937(4) 0.8555(4)
O8 O 0.5431(4) 0.1606(4) 0.9610(4)
O9 O 0.9580(4) 0.5213(4) 0.3281(4)
O10 O 1.0353(4) 0.3906(4) 0.3942(4)
O11 O 0.7668(6) 0.3573(5) 0.8240(4)
O12 O 0.6878(6) 0.4781(6) 0.7619(5)
N1 N 0.5412(5) 0.6873(4) 0.5205(6)
N2 N 0.2208(5) 0.4606(4) 0.7725(4)
N3 N 0.2389(5) 0.3790(4) 0.7682(4)
N4 N 0.6844(5) 0.1620(4) 0.7730(4)
N5 N 0.7590(5) 0.2191(4) 0.7386(4)
N6 N 0.6226(5) 0.6388(4) 0.4958(5)
C1 C 0.3517(6) 0.7649(5) 0.6150(6)
C2 C 0.2537(6) 0.7798(5) 0.6105(6)
C3 C 0.1844(6) 0.7229(5) 0.6754(6)
H1 H 0.1186 0.7343 0.6724
C4 C 0.2080(6) 0.6496(6) 0.7448(6)
C5 C 0.3041(7) 0.6321(7) 0.7500(7)
C6 C 0.3749(7) 0.6893(7) 0.6842(8)
H2 H 0.4408 0.6763 0.6865
C7 C 0.2220(7) 0.8607(6) 0.5404(7)
C8 C 0.1163(11) 0.9165(9) 0.4443(12)
H3 H 0.0911 0.9667 0.4628
H4 H 0.1697 0.9360 0.3897
C9 C 0.0390(11) 0.8841(9) 0.4302(12)
H5 H 0.0138 0.9306 0.3833
H6 H -0.0138 0.8662 0.4844
H7 H 0.0647 0.8337 0.4133
C10 C 0.3494(11) 0.5432(10) 0.8105(10)
C11 C 0.3266(13) 0.4333(14) 0.9542(12)
H8 H 0.3649 0.4478 0.9847
H9 H 0.3703 0.3978 0.9220
C12 C 0.1321(6) 0.4791(6) 0.8224(5)
C13 C 0.0611(6) 0.4176(6) 0.8738(5)
C14 C -0.0428(7) 0.4288(7) 0.9323(6)
H10 H -0.0409 0.4532 0.9749
H11 H -0.0870 0.4672 0.8962
C15 C -0.0746(7) 0.3331(7) 0.9793(8)
H12 H -0.0712 0.3095 1.0411
H13 H -0.1426 0.3316 0.9791
C16 C -0.0059(7) 0.2771(7) 0.9306(6)
H14 H -0.0384 0.2644 0.8947
H15 H 0.0157 0.2211 0.9725
C17 C 0.0810(6) 0.3349(5) 0.8717(5)
C18 C 0.1711(6) 0.3175(5) 0.8173(5)
C19 C 0.3079(6) 0.1680(5) 0.8165(5)
C20 C 0.3411(6) 0.0839(6) 0.8097(6)
C21 C 0.4303(6) 0.0428(6) 0.8285(6)
H16 H 0.4522 -0.0120 0.8232
C22 C 0.4877(6) 0.0815(5) 0.8552(6)
C23 C 0.4552(6) 0.1617(5) 0.8635(5)
C24 C 0.3672(5) 0.2052(5) 0.8423(5)
H17 H 0.3477 0.2612 0.8455
C25 C 0.2811(8) 0.0347(6) 0.7876(7)
C26 C 0.2794(13) -0.1033(10) 0.7616(11)
H18 H 0.2443 -0.0683 0.7163
H19 H 0.3291 -0.1432 0.7392
C27 C 0.5068(6) 0.2136(6) 0.8905(6)
C28 C 0.6006(8) 0.2039(6) 0.9900(7)
H20 H 0.6474 0.1604 1.0194
H21 H 0.6378 0.2507 0.9385
C29 C 0.5321(11) 0.2422(9) 1.0518(9)
H22 H 0.4861 0.2853 1.0222
H23 H 0.5688 0.2709 1.0710
H24 H 0.4961 0.1955 1.1030
C30 C 0.6908(5) 0.0841(5) 0.8402(5)
C31 C 0.7725(5) 0.0573(5) 0.8763(5)
C32 C 0.7891(6) -0.0258(5) 0.9551(5)
H25 H 0.7939 -0.0794 0.9430
H26 H 0.7361 -0.0305 1.0090
C33 C 0.8874(7) -0.0108(6) 0.9638(7)
H27 H 0.8775 -0.0061 1.0210
H28 H 0.9345 -0.0611 0.9614
C34 C 0.9279(7) 0.0735(6) 0.8891(6)
H29 H 0.9889 0.0606 0.8491
H30 H 0.9409 0.1141 0.9123
C35 C 0.8468(5) 0.1131(5) 0.8414(5)
C36 C 0.8363(5) 0.1947(5) 0.7714(5)
C37 C 0.8864(5) 0.3628(5) 0.6466(5)
C38 C 0.9352(5) 0.3767(5) 0.5595(5)
H31 H 0.9854 0.3349 0.5475
C39 C 0.9131(5) 0.4511(5) 0.4873(5)
C40 C 0.8380(5) 0.5146(4) 0.5068(5)
C41 C 0.7868(5) 0.4998(5) 0.5948(5)
H32 H 0.7358 0.5407 0.6073
C42 C 0.8102(6) 0.4249(5) 0.6652(5)
C43 C 0.9702(5) 0.4601(5) 0.3951(5)
C44 C 1.0924(7) 0.3902(6) 0.3071(6)
H33 H 1.1229 0.4467 0.2702
H34 H 1.0494 0.3816 0.2769
C45 C 1.1705(8) 0.3154(7) 0.3215(7)
H35 H 1.2101 0.3142 0.2646
H36 H 1.1395 0.2597 0.3570
H37 H 1.2121 0.3241 0.3521
C46 C 0.7536(7) 0.4160(6) 0.7584(6)
C47 C 0.6247(10) 0.4762(9) 0.8503(7)
H38 H 0.5681 0.4410 0.8686
H39 H 0.6625 0.4481 0.8945
C48 C 0.5899(10) 0.5660(9) 0.8463(9)
H40 H 0.5631 0.5975 0.7955
H41 H 0.6445 0.5969 0.8406
H42 H 0.5392 0.5631 0.9002
C49 C 0.7123(5) 0.6711(5) 0.4660(5)
C50 C 0.7268(6) 0.7556(5) 0.4586(5)
C51 C 0.8186(6) 0.8040(5) 0.4303(6)
H43 H 0.8490 0.8212 0.3664
H44 H 0.8667 0.7673 0.4626
C52 C 0.7804(6) 0.8870(5) 0.4545(7)
H45 H 0.7956 0.8790 0.5092
H46 H 0.8115 0.9398 0.4067
C53 C 0.6676(6) 0.8976(6) 0.4672(6)
H47 H 0.6336 0.9139 0.5183
H48 H 0.6505 0.9428 0.4142
C54 C 0.6407(6) 0.8061(5) 0.4829(5)
C55 C 0.5503(6) 0.7699(5) 0.5130(6)
C56 C 0.2102(16) -0.1549(15) 0.8433(14)
H49 H 0.1802 -0.1955 0.8320
H50 H 0.1595 -0.1152 0.8637
H51 H 0.2450 -0.1882 0.8884
C57 C 0.2415(15) 0.3776(15) 1.0239(15)
H52 H 0.1975 0.3706 0.9944
H53 H 0.2056 0.4072 1.0638
H54 H 0.2677 0.3198 1.0574
P1 P -0.0630(4) 0.8527(3) 0.7781(3)
F1 F -0.0453(13) 0.7608(7) 0.7838(9)
F2 F -0.0657(15) 0.8285(13) 0.8718(10)
F3 F 0.0417(10) 0.8799(9) 0.7129(10)
F4 F -0.0983(12) 0.9483(8) 0.7616(7)
F5 F -0.0861(11) 0.8725(9) 0.6857(9)
F6 F -0.1773(11) 0.8401(10) 0.8189(10)
N7 N 0.4177(9) 0.5469(8) 0.5393(7)
N8 N 0.5548(7) 0.4017(7) 0.5801(6)
C58 C 0.4895(10) 0.5282(8) 0.4713(7)
C59 C 0.4817(13) 0.5739(10) 0.3837(9)
H55 H 0.5284 0.5623 0.3365
C60 C 0.4031(12) 0.6370(11) 0.3678(12)
H56 H 0.3984 0.6679 0.3092
C61 C 0.3313(15) 0.6557(12) 0.4365(10)
H57 H 0.2788 0.6980 0.4253
C62 C 0.3418(10) 0.6080(9) 0.5230(10)
H58 H 0.2950 0.6186 0.5707
C63 C 0.4292(11) 0.5028(9) 0.6308(8)
H59 H 0.3665 0.5074 0.6734
H60 H 0.4782 0.5319 0.6376
C64 C 0.4618(10) 0.4069(10) 0.6485(9)
H61 H 0.4729 0.3777 0.7078
H62 H 0.4108 0.3767 0.6460
C65 C 0.6275(9) 0.3353(9) 0.6050(10)
H63 H 0.6190 0.2978 0.6650
C66 C 0.7123(11) 0.3237(10) 0.5423(8)
H64 H 0.7577 0.2750 0.5572
C67 C 0.7268(11) 0.3878(8) 0.4562(9)
H65 H 0.7863 0.3860 0.4135
C68 C 0.6536(9) 0.4546(9) 0.4328(8)
H66 H 0.6632 0.4957 0.3740
C69 C 0.5659(10) 0.4605(9) 0.4969(7)
N7A N 0.5823(9) 0.4531(8) 0.4607(7)
N8A N 0.4452(7) 0.5983(7) 0.4199(6)
C58A C 0.5105(10) 0.4718(8) 0.5287(7)
C59A C 0.5183(13) 0.4261(10) 0.6163(9)
H55A H 0.4716 0.4377 0.6635
C60A C 0.5969(12) 0.3630(11) 0.6322(12)
H56A H 0.6016 0.3321 0.6908
C61A C 0.6687(15) 0.3443(12) 0.5635(10)
H57A H 0.7212 0.3020 0.5747
C62A C 0.6582(10) 0.3920(9) 0.4770(10)
H58A H 0.7050 0.3814 0.4293
C63A C 0.5708(11) 0.4972(9) 0.3692(8)
H59A H 0.6335 0.4926 0.3266
H60A H 0.5218 0.4681 0.3624
C64A C 0.5382(10) 0.5931(10) 0.3515(9)
H61A H 0.5271 0.6223 0.2922
H62A H 0.5892 0.6233 0.3540
C65A C 0.3725(9) 0.6647(9) 0.3950(10)
H63A H 0.3810 0.7022 0.3350
C66A C 0.2877(11) 0.6763(10) 0.4577(8)
H64A H 0.2423 0.7250 0.4428
C67A C 0.2732(11) 0.6122(8) 0.5438(9)
H65A H 0.2137 0.6140 0.5865
C68A C 0.3464(9) 0.5454(9) 0.5672(8)
H66A H 0.3368 0.5043 0.6260
C69A C 0.4341(10) 0.5395(9) 0.5031(7)
N9 N 0.5569(15) 0.7935(11) 0.7113(10)
C70 C 0.6612(14) 0.9129(12) 0.6960(10)
H67 H 0.6603 0.9629 0.6409
H68 H 0.7285 0.8891 0.6950
H69 H 0.6343 0.9322 0.7453
C71 C 0.6058(14) 0.8489(14) 0.7057(11)
C72? C 0.273(4) 0.373(3) 0.985(4)
H70? H 0.3258 0.3636 0.9376
H71? H 0.2102 0.3733 0.9754
H72? H 0.2779 0.3265 1.0414
O13? O 0.291(3) -0.052(2) 0.827(2)
C73? C 0.275(3) -0.189(2) 0.822(3)
H73? H 0.3407 -0.1915 0.7830
H74? H 0.2317 -0.2204 0.8123
H75? H 0.2781 -0.2161 0.8830
C74? C 0.236(4) -0.091(2) 0.800(4)
H76? H 0.2422 -0.0601 0.7365
H77? H 0.1663 -0.0874 0.8320
O14? O 0.192(3) 0.053(4) 0.788(3)
C75? C 0.313(3) 0.601(3) 0.8448(12)
O15? O 0.356(4) 0.649(4) 0.859(3)
O16? O 0.255(3) 0.537(2) 0.912(2)
C76? C 0.283(4) 0.464(2) 0.987(3)
H78? H 0.2406 0.4682 1.0430
H79? H 0.3512 0.4692 0.9848
loop_
_geom_bond_atom_site_label_1
_geom_bond_atom_site_label_2
_geom_bond_site_symmetry_1
_geom_bond_site_symmetry_2
S1 C1 1_555 1_555
S2 C4 1_555 1_555
S3 C18 1_555 1_555
S4 C22 1_555 1_555
S5 C36 1_555 1_555
S6 C40 1_555 1_555
O1 C7 1_555 1_555
O2 C7 1_555 1_555
O3 C10 1_555 1_555
O4 C10 1_555 1_555
O5 C25 1_555 1_555
O6 C25 1_555 1_555
O7 C27 1_555 1_555
O8 C27 1_555 1_555
O9 C43 1_555 1_555
O10 C43 1_555 1_555
O11 C46 1_555 1_555
O12 C46 1_555 1_555
N1 N6 1_555 1_555
N2 N3 1_555 1_555
N3 C18 1_555 1_555
N4 N5 1_555 1_555
N5 C36 1_555 1_555
N6 C49 1_555 1_555
C1 C2 1_555 1_555
C2 C3 1_555 1_555
C3 H1 1_555 1_555
C4 C3 1_555 1_555
C5 C4 1_555 1_555
C6 C1 1_555 1_555
H2 C6 1_555 1_555
C7 C2 1_555 1_555
C8 O2 1_555 1_555
H3 C8 1_555 1_555
H4 C8 1_555 1_555
C9 C8 1_555 1_555
H5 C9 1_555 1_555
H6 C9 1_555 1_555
H7 C9 1_555 1_555
C10 C5 1_555 1_555
C11 O4 1_555 1_555
H8 C11 1_555 1_555
H9 C11 1_555 1_555
C12 S2 1_555 1_555
C13 C12 1_555 1_555
C14 C13 1_555 1_555
H10 C14 1_555 1_555
H11 C14 1_555 1_555
C15 C14 1_555 1_555
H12 C15 1_555 1_555
H13 C15 1_555 1_555
C16 C15 1_555 1_555
H14 C16 1_555 1_555
H15 C16 1_555 1_555
C17 C13 1_555 1_555
C18 C17 1_555 1_555
C19 S3 1_555 1_555
C20 C19 1_555 1_555
C21 C20 1_555 1_555
H16 C21 1_555 1_555
C22 C21 1_555 1_555
C23 C22 1_555 1_555
C24 C19 1_555 1_555
H17 C24 1_555 1_555
C25 C20 1_555 1_555
C26 O6 1_555 1_555
H18 C26 1_555 1_555
H19 C26 1_555 1_555
C27 C23 1_555 1_555
C28 O8 1_555 1_555
H20 C28 1_555 1_555
H21 C28 1_555 1_555
C29 C28 1_555 1_555
H22 C29 1_555 1_555
H23 C29 1_555 1_555
H24 C29 1_555 1_555
C30 S4 1_555 1_555
C31 C30 1_555 1_555
C32 C31 1_555 1_555
H25 C32 1_555 1_555
H26 C32 1_555 1_555
C33 C32 1_555 1_555
H27 C33 1_555 1_555
H28 C33 1_555 1_555
C34 C33 1_555 1_555
H29 C34 1_555 1_555
H30 C34 1_555 1_555
C35 C31 1_555 1_555
C36 C35 1_555 1_555
C37 S5 1_555 1_555
C38 C37 1_555 1_555
H31 C38 1_555 1_555
C39 C38 1_555 1_555
C40 C39 1_555 1_555
C41 C40 1_555 1_555
H32 C41 1_555 1_555
C42 C37 1_555 1_555
C43 C39 1_555 1_555
C44 O10 1_555 1_555
H33 C44 1_555 1_555
H34 C44 1_555 1_555
C45 C44 1_555 1_555
H35 C45 1_555 1_555
H36 C45 1_555 1_555
H37 C45 1_555 1_555
C46 C42 1_555 1_555
C47 O12 1_555 1_555
H38 C47 1_555 1_555
H39 C47 1_555 1_555
C48 C47 1_555 1_555
H40 C48 1_555 1_555
H41 C48 1_555 1_555
H42 C48 1_555 1_555
C49 S6 1_555 1_555
C50 C49 1_555 1_555
C51 C50 1_555 1_555
H43 C51 1_555 1_555
H44 C51 1_555 1_555
C52 C51 1_555 1_555
H45 C52 1_555 1_555
H46 C52 1_555 1_555
C53 C52 1_555 1_555
H47 C53 1_555 1_555
H48 C53 1_555 1_555
C54 C50 1_555 1_555
C55 S1 1_555 1_555
C56 C26 1_555 1_555
H49 C56 1_555 1_555
H50 C56 1_555 1_555
H51 C56 1_555 1_555
C57 C11 1_555 1_555
H52 C57 1_555 1_555
H53 C57 1_555 1_555
H54 C57 1_555 1_555
P1 F1 1_555 1_555
F2 P1 1_555 1_555
F3 P1 1_555 1_555
F4 P1 1_555 1_555
F5 P1 1_555 1_555
F6 P1 1_555 1_555
N7 C58 1_555 1_555
N8 C64 1_555 1_555
C58 C59 1_555 1_555
C59 H55 1_555 1_555
C60 C59 1_555 1_555
H56 C60 1_555 1_555
C61 C60 1_555 1_555
H57 C61 1_555 1_555
C62 N7 1_555 1_555
H58 C62 1_555 1_555
C63 N7 1_555 1_555
H59 C63 1_555 1_555
H60 C63 1_555 1_555
C64 C63 1_555 1_555
H61 C64 1_555 1_555
H62 C64 1_555 1_555
C65 N8 1_555 1_555
H63 C65 1_555 1_555
C66 C65 1_555 1_555
H64 C66 1_555 1_555
C67 C66 1_555 1_555
H65 C67 1_555 1_555
C68 C67 1_555 1_555
H66 C68 1_555 1_555
C69 N8 1_555 1_555
N9 C71 1_555 1_555
C70 H67 1_555 1_555
H68 C70 1_555 1_555
H69 C70 1_555 1_555
C71 C70 1_555 1_555
N7A C58A 1_555 1_555
N8A C64A 1_555 1_555
C58A C59A 1_555 1_555
C59A H55A 1_555 1_555
C60A C59A 1_555 1_555
H56A C60A 1_555 1_555
C61A C60A 1_555 1_555
H57A C61A 1_555 1_555
C62A N7A 1_555 1_555
H58A C62A 1_555 1_555
C63A N7A 1_555 1_555
H59A C63A 1_555 1_555
H60A C63A 1_555 1_555
C64A C63A 1_555 1_555
H61A C64A 1_555 1_555
H62A C64A 1_555 1_555
C65A N8A 1_555 1_555
H63A C65A 1_555 1_555
C66A C65A 1_555 1_555
H64A C66A 1_555 1_555
C67A C66A 1_555 1_555
H65A C67A 1_555 1_555
C68A C67A 1_555 1_555
H66A C68A 1_555 1_555
C69A N8A 1_555 1_555
N1 C55 1_555 1_555
N2 C12 1_555 1_555
N4 C30 1_555 1_555
C5 C6 1_555 1_555
C16 C17 1_555 1_555
C23 C24 1_555 1_555
C34 C35 1_555 1_555
C41 C42 1_555 1_555
C53 C54 1_555 1_555
C54 C55 1_555 1_555
C58 C69 1_555 1_555
C61 C62 1_555 1_555
C68 C69 1_555 1_555
C58A C69A 1_555 1_555
C61A C62A 1_555 1_555
C68A C69A 1_555 1_555

#END
