
#######################################################################
#
#                 Cambridge Crystallographic Data Centre
#                                CCDC 
#
#######################################################################
#
# If this CIF has been generated from an entry in the Cambridge 
# Structural Database, then it will include bibliographic, chemical, 
# crystal, experimental, refinement or atomic coordinate data resulting 
# from the CCDC's data processing and validation procedures.
#
#######################################################################

data_KEQTOQ
_chemical_formula_moiety         'C21 H25 Br1 O3'
_chemical_name_systematic        
9\a-Bromo-11\b-hydroxypregna-1,4,16-triene-3,20-dione
_symmetry_cell_setting           orthorhombic
_symmetry_space_group_name_H-M   'P 21 21 21'
_symmetry_Int_Tables_number      19
_space_group_name_Hall           'P 2ac 2ab'
loop_
_symmetry_equiv_pos_site_id
_symmetry_equiv_pos_as_xyz
1 x,y,z
2 1/2+x,1/2-y,-z
3 -x,1/2+y,1/2-z
4 1/2-x,-y,1/2+z
_cell_length_a                   8.255(2)
_cell_length_b                   10.438(2)
_cell_length_c                   21.110(6)
_cell_angle_alpha                90
_cell_angle_beta                 90
_cell_angle_gamma                90
_cell_volume                     1818.96
_exptl_crystal_colour            colorless
_exptl_crystal_description       chunk
_cell_formula_units_Z            4
loop_
_atom_site_label
_atom_site_type_symbol
_atom_site_fract_x
_atom_site_fract_y
_atom_site_fract_z
Br1 Br 0.41025(3) 0.73795(2) 0.600290(10)
O1 O 0.1757(2) 0.79117(13) 0.80947(6)
O2 O 0.54909(18) 0.36593(12) 0.62190(6)
O3 O 0.8209(2) 0.42879(17) 0.41433(8)
C1 C 0.3964(2) 0.55799(18) 0.72360(9)
C2 C 0.3600(2) 0.6401(2) 0.76950(10)
C3 C 0.2091(2) 0.71067(18) 0.76862(10)
C4 C 0.0980(2) 0.68286(18) 0.71690(9)
C5 C 0.1316(2) 0.60000(17) 0.67021(9)
C6 C 0.0164(2) 0.5723(2) 0.61692(10)
C7 C 0.0978(2) 0.57982(19) 0.55165(9)
C8 C 0.2615(2) 0.51021(18) 0.54920(9)
C9 C 0.3741(2) 0.54715(13) 0.60445(9)
C10 C 0.2875(2) 0.52429(17) 0.66992(9)
C11 C 0.5491(2) 0.49392(17) 0.59867(10)
C12 C 0.6219(2) 0.50117(18) 0.53186(9)
C13 C 0.5063(2) 0.45353(17) 0.48048(9)
C14 C 0.3488(2) 0.53117(19) 0.48684(9)
C15 C 0.2625(2) 0.5112(2) 0.42315(10)
C16 C 0.4084(2) 0.50830(19) 0.38019(9)
C17 C 0.5446(2) 0.48119(17) 0.41135(10)
C18 C 0.4798(2) 0.30707(18) 0.48454(10)
C19 C 0.2393(2) 0.38032(18) 0.68074(11)
C20 C 0.7062(2) 0.46202(18) 0.38278(11)
C21 C 0.7249(3) 0.4847(2) 0.31281(11)
H1 H 0.4974 0.5186 0.7251
H2 H 0.4325 0.6525 0.8027
H3 H -0.0014 0.7247 0.7162
H4 H 0.2395 0.4183 0.5528
H5 H 0.6184 0.5448 0.6268
H6 H 0.3823 0.6212 0.4871
H7 H 0.4038 0.5237 0.3368
H8 H -0.0271 0.4867 0.6226
H9 H -0.0711 0.6342 0.6184
H10 H 0.1151 0.6693 0.5412
H11 H 0.0261 0.5414 0.5206
H12 H 0.7192 0.4492 0.5308
H13 H 0.6495 0.5896 0.5229
H14 H 0.2027 0.4313 0.4220
H15 H 0.1902 0.5816 0.4131
H16 H 0.4352 0.2857 0.5252
H17 H 0.4063 0.2807 0.4518
H18 H 0.5816 0.2639 0.4791
H19 H 0.1803 0.3726 0.7197
H20 H 0.1727 0.3516 0.6463
H21 H 0.3354 0.3288 0.6828
H22 H 0.6541 0.3408 0.6351
H23 H 0.6519 0.5512 0.2997
H24 H 0.7005 0.4073 0.2902
H25 H 0.8343 0.5102 0.3039
loop_
_geom_bond_atom_site_label_1
_geom_bond_atom_site_label_2
_geom_bond_site_symmetry_1
_geom_bond_site_symmetry_2
Br1 C9 1_555 1_555
O1 C3 1_555 1_555
O2 C11 1_555 1_555
O3 C20 1_555 1_555
C1 C2 1_555 1_555
C2 C3 1_555 1_555
C3 C4 1_555 1_555
C4 C5 1_555 1_555
C5 C6 1_555 1_555
C6 C7 1_555 1_555
C7 C8 1_555 1_555
C8 C9 1_555 1_555
C9 C10 1_555 1_555
C10 C1 1_555 1_555
C11 C9 1_555 1_555
C12 C11 1_555 1_555
C13 C12 1_555 1_555
C14 C8 1_555 1_555
C15 C14 1_555 1_555
C16 C15 1_555 1_555
C17 C13 1_555 1_555
C18 C13 1_555 1_555
C19 C10 1_555 1_555
C20 C17 1_555 1_555
C21 C20 1_555 1_555
H1 C1 1_555 1_555
H2 C2 1_555 1_555
H3 C4 1_555 1_555
H4 C8 1_555 1_555
H5 C11 1_555 1_555
H6 C14 1_555 1_555
H7 C16 1_555 1_555
H8 C6 1_555 1_555
H9 C6 1_555 1_555
H10 C7 1_555 1_555
H11 C7 1_555 1_555
H12 C12 1_555 1_555
H13 C12 1_555 1_555
H14 C15 1_555 1_555
H15 C15 1_555 1_555
H16 C18 1_555 1_555
H17 C18 1_555 1_555
H18 C18 1_555 1_555
H19 C19 1_555 1_555
H20 C19 1_555 1_555
H21 C19 1_555 1_555
H22 O2 1_555 1_555
H23 C21 1_555 1_555
H24 C21 1_555 1_555
H25 C21 1_555 1_555
C5 C10 1_555 1_555
C13 C14 1_555 1_555
C16 C17 1_555 1_555

#END
