
#######################################################################
#
#                 Cambridge Crystallographic Data Centre
#                                CCDC 
#
#######################################################################
#
# If this CIF has been generated from an entry in the Cambridge 
# Structural Database, then it will include bibliographic, chemical, 
# crystal, experimental, refinement or atomic coordinate data resulting 
# from the CCDC's data processing and validation procedures.
#
#######################################################################

data_KEQWAF
_chemical_formula_moiety         'C25 H22 Cl1 N3 O2'
_chemical_name_systematic        
(E)-4-(2-(4-Chlorobenzyloxy)benzylideneamino)-2,3-dimethyl-1-phenyl-1,2-dihydropyrazol-5-one
_symmetry_cell_setting           monoclinic
_symmetry_space_group_name_H-M   'P 21/c'
_symmetry_Int_Tables_number      14
_space_group_name_Hall           '-P 2ybc'
loop_
_symmetry_equiv_pos_site_id
_symmetry_equiv_pos_as_xyz
1 x,y,z
2 -x,1/2+y,1/2-z
3 -x,-y,-z
4 x,1/2-y,1/2+z
_cell_length_a                   12.094(3)
_cell_length_b                   19.359(4)
_cell_length_c                   9.839(2)
_cell_angle_alpha                90
_cell_angle_beta                 103.610(4)
_cell_angle_gamma                90
_cell_volume                     2238.9
_exptl_crystal_colour            yellow
_exptl_crystal_description       block
_cell_formula_units_Z            4
_exptl_crystal_recrystallization_method acetonitrile
loop_
_atom_site_label
_atom_site_type_symbol
_atom_site_fract_x
_atom_site_fract_y
_atom_site_fract_z
Cl1 Cl 0.27406(11) 0.18108(6) 0.84903(14)
O1 O 0.7167(2) 0.28575(12) 0.6154(3)
O2 O 0.6896(2) 0.42727(12) 0.9453(2)
N1 N 0.8727(3) 0.46112(14) 0.7730(3)
N2 N 0.8340(3) 0.58114(13) 1.0323(3)
N3 N 0.7445(3) 0.53552(13) 1.0362(3)
C1 C 0.4958(4) 0.2668(2) 0.6603(5)
H1 H 0.5085 0.3105 0.6277
C2 C 0.4074(4) 0.2573(2) 0.7241(5)
H2 H 0.3614 0.2944 0.7351
C3 C 0.3874(4) 0.1940(2) 0.7708(4)
C4 C 0.4554(5) 0.1399(2) 0.7551(5)
H3 H 0.4416 0.0962 0.7868
C5 C 0.5442(4) 0.1499(2) 0.6925(5)
H4 H 0.5906 0.1127 0.6832
C6 C 0.5660(4) 0.21341(19) 0.6435(4)
C7 C 0.6603(4) 0.2222(2) 0.5706(5)
H5 H 0.7135 0.1840 0.5934
H6 H 0.6300 0.2228 0.4702
C8 C 0.8077(4) 0.30409(19) 0.5636(4)
C9 C 0.8433(4) 0.2679(2) 0.4591(4)
H7 H 0.8045 0.2285 0.4202
C10 C 0.9358(4) 0.2909(3) 0.4136(5)
H8 H 0.9585 0.2673 0.3424
C11 C 0.9952(4) 0.3480(3) 0.4717(5)
H9 H 1.0595 0.3622 0.4430
C12 C 0.9584(4) 0.3841(2) 0.5732(4)
H10 H 0.9976 0.4236 0.6104
C13 C 0.8649(3) 0.36354(19) 0.6220(4)
C14 C 0.8257(3) 0.40354(18) 0.7275(3)
H11 H 0.7656 0.3870 0.7623
C15 C 0.8340(3) 0.49837(17) 0.8737(3)
C16 C 0.8817(3) 0.55973(17) 0.9280(3)
C17 C 0.7487(3) 0.47978(17) 0.9481(3)
C18 C 0.9729(3) 0.60063(17) 0.8863(4)
H12 H 0.9418 0.6435 0.8452
H13 H 1.0027 0.5749 0.8195
H14 H 1.0328 0.6099 0.9674
C19 C 0.8239(4) 0.65187(17) 1.0760(4)
H15 H 0.8899 0.6775 1.0677
H16 H 0.8179 0.6525 1.1716
H17 H 0.7571 0.6725 1.0177
C20 C 0.7050(3) 0.53184(16) 1.1630(4)
C21 C 0.7775(4) 0.5126(2) 1.2846(4)
H18 H 0.8520 0.5003 1.2853
C22 C 0.7405(5) 0.5114(2) 1.4069(4)
H19 H 0.7904 0.5000 1.4911
C23 C 0.6295(5) 0.5271(2) 1.4031(5)
H20 H 0.6040 0.5256 1.4851
C24 C 0.5563(4) 0.5447(2) 1.2814(5)
H21 H 0.4809 0.5546 1.2805
C25 C 0.5929(4) 0.54799(17) 1.1587(4)
H22 H 0.5432 0.5608 1.0752
loop_
_geom_bond_atom_site_label_1
_geom_bond_atom_site_label_2
_geom_bond_site_symmetry_1
_geom_bond_site_symmetry_2
Cl1 C3 1_555 1_555
O1 C7 1_555 1_555
O2 C17 1_555 1_555
N1 C14 1_555 1_555
N2 N3 1_555 1_555
N3 C17 1_555 1_555
C1 H1 1_555 1_555
C2 C1 1_555 1_555
H2 C2 1_555 1_555
C3 C2 1_555 1_555
C4 C3 1_555 1_555
H3 C4 1_555 1_555
C5 C4 1_555 1_555
H4 C5 1_555 1_555
C6 C1 1_555 1_555
C7 C6 1_555 1_555
H5 C7 1_555 1_555
H6 C7 1_555 1_555
C8 O1 1_555 1_555
C9 C8 1_555 1_555
H7 C9 1_555 1_555
C10 C9 1_555 1_555
H8 C10 1_555 1_555
C11 C10 1_555 1_555
H9 C11 1_555 1_555
C12 C11 1_555 1_555
H10 C12 1_555 1_555
C13 C8 1_555 1_555
C14 C13 1_555 1_555
H11 C14 1_555 1_555
C15 N1 1_555 1_555
C16 N2 1_555 1_555
C17 C15 1_555 1_555
C18 C16 1_555 1_555
H12 C18 1_555 1_555
H13 C18 1_555 1_555
H14 C18 1_555 1_555
C19 N2 1_555 1_555
H15 C19 1_555 1_555
H16 C19 1_555 1_555
H17 C19 1_555 1_555
C20 N3 1_555 1_555
C21 C20 1_555 1_555
H18 C21 1_555 1_555
C22 C21 1_555 1_555
H19 C22 1_555 1_555
C23 C22 1_555 1_555
H20 C23 1_555 1_555
C24 C23 1_555 1_555
H21 C24 1_555 1_555
C25 C20 1_555 1_555
H22 C25 1_555 1_555
C5 C6 1_555 1_555
C12 C13 1_555 1_555
C15 C16 1_555 1_555
C24 C25 1_555 1_555

#END
