
#######################################################################
#
#                 Cambridge Crystallographic Data Centre
#                                CCDC 
#
#######################################################################
#
# If this CIF has been generated from an entry in the Cambridge 
# Structural Database, then it will include bibliographic, chemical, 
# crystal, experimental, refinement or atomic coordinate data resulting 
# from the CCDC's data processing and validation procedures.
#
#######################################################################

data_KERNAY
_chemical_formula_moiety         'C8 H4 O6 2-,C4 H12 N2 2+'
_chemical_name_systematic        'Piperazinediium 2,5-dihydroxyterephthalate'
_symmetry_cell_setting           monoclinic
_symmetry_space_group_name_H-M   'P 21/c'
_symmetry_Int_Tables_number      14
_space_group_name_Hall           '-P 2ybc'
loop_
_symmetry_equiv_pos_site_id
_symmetry_equiv_pos_as_xyz
1 x,y,z
2 -x,1/2+y,1/2-z
3 -x,-y,-z
4 x,1/2-y,1/2+z
_cell_length_a                   8.2394(16)
_cell_length_b                   10.172(2)
_cell_length_c                   7.5024(15)
_cell_angle_alpha                90
_cell_angle_beta                 94.20(3)
_cell_angle_gamma                90
_cell_volume                     627.096
_exptl_crystal_colour            colorless
_exptl_crystal_description       block
_cell_formula_units_Z            2
loop_
_atom_site_label
_atom_site_type_symbol
_atom_site_fract_x
_atom_site_fract_y
_atom_site_fract_z
O1 O 0.59191(11) 0.63455(10) 0.05315(13)
O2 O 1.07198(13) 0.76164(10) 0.06162(19)
H1 H 0.9898 0.8028 0.0821
O3 O 0.77263(13) 0.79297(11) 0.11856(17)
C1 C 1.03321(16) 0.63371(12) 0.03157(18)
C2 C 0.87295(14) 0.58579(12) 0.03701(16)
C3 C 1.15648(15) 0.54736(13) -0.00621(17)
H4 H 1.2618 0.5793 -0.0111
C4 C 0.73427(15) 0.67615(13) 0.07197(16)
O1B O 1.40809(11) 0.36545(10) -0.05315(13)
O2B O 0.92802(13) 0.23836(10) -0.06162(19)
H1B H 1.0102 0.1972 -0.0821
O3B O 1.22737(13) 0.20703(11) -0.11856(17)
C1B C 0.96679(16) 0.36629(12) -0.03157(18)
C2B C 1.12705(14) 0.41421(12) -0.03701(16)
C3B C 0.84352(15) 0.45264(13) 0.00621(17)
H4B H 0.7382 0.4207 0.0111
C4B C 1.26573(15) 0.32385(13) -0.07197(16)
N1 N 0.54589(13) 0.97104(11) 0.18308(13)
H2 H 0.6179 0.9056 0.1720
H3 H 0.5381 0.9857 0.3004
C5 C 0.60618(16) 1.09232(13) 0.09821(17)
H5 H 0.7130 1.1149 0.1524
H6 H 0.5331 1.1649 0.1172
C6 C 0.38437(16) 0.93027(14) 0.09996(17)
H7 H 0.3046 0.9981 0.1188
H8 H 0.3498 0.8501 0.1559
N1B N 0.45411(13) 1.02896(11) -0.18308(13)
H2B H 0.3821 1.0944 -0.1720
H3B H 0.4619 1.0143 -0.3004
C5B C 0.39382(16) 0.90768(13) -0.09821(17)
H5B H 0.2870 0.8851 -0.1524
H6B H 0.4669 0.8351 -0.1172
C6B C 0.61563(16) 1.06973(14) -0.09996(17)
H7B H 0.6954 1.0019 -0.1188
H8B H 0.6502 1.1499 -0.1559
loop_
_geom_bond_atom_site_label_1
_geom_bond_atom_site_label_2
_geom_bond_site_symmetry_1
_geom_bond_site_symmetry_2
O1 C4 1_555 1_555
O2 H1 1_555 1_555
O3 C4 1_555 1_555
N1 H2 1_555 1_555
H3 N1 1_555 1_555
C1 O2 1_555 1_555
C2 C1 1_555 1_555
C3 C1 1_555 1_555
H4 C3 1_555 1_555
C4 C2 1_555 1_555
C5 N1 1_555 1_555
H5 C5 1_555 1_555
H6 C5 1_555 1_555
C6 N1 1_555 1_555
H7 C6 1_555 1_555
H8 C6 1_555 1_555
O1B C4B 1_555 1_555
O2B H1B 1_555 1_555
O3B C4B 1_555 1_555
N1B H2B 1_555 1_555
H3B N1B 1_555 1_555
C1B O2B 1_555 1_555
C2B C3 1_555 1_555
C3B C2 1_555 1_555
H4B C3B 1_555 1_555
C4B C2B 1_555 1_555
C5B C6 1_555 1_555
H5B C5B 1_555 1_555
H6B C5B 1_555 1_555
C6B C5 1_555 1_555
H7B C6B 1_555 1_555
H8B C6B 1_555 1_555
N1B C5B 1_555 1_555
N1B C6B 1_555 1_555
C1B C2B 1_555 1_555
C1B C3B 1_555 1_555

#END
