
#######################################################################
#
#                 Cambridge Crystallographic Data Centre
#                                CCDC 
#
#######################################################################
#
# If this CIF has been generated from an entry in the Cambridge 
# Structural Database, then it will include bibliographic, chemical, 
# crystal, experimental, refinement or atomic coordinate data resulting 
# from the CCDC's data processing and validation procedures.
#
#######################################################################

data_KERQEG
_chemical_formula_moiety         'C14 H14 Cl1 N1 O5'
_chemical_name_systematic        
(-)-2-chloro-9-hydroxy-9-methyl-10-nitro-6a,7,8,9,10,10a-hexahydro-6H-benzo[c]chromen-6-one
_symmetry_cell_setting           monoclinic
_symmetry_space_group_name_H-M   'P 21'
_symmetry_Int_Tables_number      4
_space_group_name_Hall           'P 2yb'
loop_
_symmetry_equiv_pos_site_id
_symmetry_equiv_pos_as_xyz
1 x,y,z
2 -x,1/2+y,-z
_cell_length_a                   9.9791(6)
_cell_length_b                   7.0599(4)
_cell_length_c                   10.8562(7)
_cell_angle_alpha                90
_cell_angle_beta                 115.1460(10)
_cell_angle_gamma                90
_cell_volume                     692.35
_exptl_crystal_colour            colorless
_exptl_crystal_description       plate
_cell_formula_units_Z            2
loop_
_atom_site_label
_atom_site_type_symbol
_atom_site_fract_x
_atom_site_fract_y
_atom_site_fract_z
Cl1 Cl 0.09422(6) 0.24101(7) 1.22859(4)
O1 O -0.06714(12) 0.2579(2) 0.64278(11)
O2 O -0.02230(15) 0.3351(2) 0.46862(12)
O3 O 0.53425(12) 0.16979(19) 0.81078(13)
H1 H 0.5214 0.2739 0.8416
O4 O 0.31343(15) -0.21657(18) 0.87422(13)
O5 O 0.42012(14) 0.0173(2) 1.00810(13)
N1 N 0.34245(15) -0.0483(2) 0.89552(14)
C1 C 0.02399(19) 0.3306(2) 0.59012(17)
C2 C 0.17405(18) 0.4020(2) 0.68979(16)
H2 H 0.1592 0.5306 0.7205
C3 C 0.2803(2) 0.4236(3) 0.62313(18)
H3 H 0.2317 0.4981 0.5383
H4 H 0.3692 0.4942 0.6851
C4 C 0.32717(19) 0.2323(3) 0.59018(16)
H5 H 0.4000 0.2530 0.5518
H6 H 0.2396 0.1695 0.5194
C5 C 0.39545(17) 0.1000(2) 0.71314(17)
C6 C 0.28157(17) 0.0831(2) 0.77543(16)
H7 H 0.1894 0.0247 0.7054
C7 C 0.23944(17) 0.2744(2) 0.81679(15)
H8 H 0.3304 0.3357 0.8865
C8 C 0.12590(16) 0.2556(2) 0.87341(15)
C9 C -0.02226(17) 0.2498(3) 0.78344(15)
C10 C -0.13388(18) 0.2327(3) 0.82569(18)
H9 H -0.2344 0.2262 0.7610
C11 C -0.0975(2) 0.2251(3) 0.96393(18)
H10 H -0.1724 0.2110 0.9954
C12 C 0.0496(2) 0.2385(3) 1.05502(16)
C13 C 0.16139(17) 0.2523(3) 1.01256(15)
H11 H 0.2618 0.2596 1.0774
C14 C 0.4292(2) -0.0907(3) 0.66812(19)
H12 H 0.4987 -0.0734 0.6269
H13 H 0.3373 -0.1471 0.6012
H14 H 0.4732 -0.1747 0.7471
loop_
_geom_bond_atom_site_label_1
_geom_bond_atom_site_label_2
_geom_bond_site_symmetry_1
_geom_bond_site_symmetry_2
Cl1 C12 1_555 1_555
O1 C1 1_555 1_555
O2 C1 1_555 1_555
O3 H1 1_555 1_555
O4 N1 1_555 1_555
O5 N1 1_555 1_555
N1 C6 1_555 1_555
C1 C2 1_555 1_555
C2 H2 1_555 1_555
C3 C2 1_555 1_555
H3 C3 1_555 1_555
H4 C3 1_555 1_555
C4 C3 1_555 1_555
H5 C4 1_555 1_555
H6 C4 1_555 1_555
C5 O3 1_555 1_555
C6 C5 1_555 1_555
H7 C6 1_555 1_555
C7 C2 1_555 1_555
H8 C7 1_555 1_555
C8 C7 1_555 1_555
C9 O1 1_555 1_555
C10 C9 1_555 1_555
H9 C10 1_555 1_555
C11 C10 1_555 1_555
H10 C11 1_555 1_555
C12 C11 1_555 1_555
C13 C8 1_555 1_555
H11 C13 1_555 1_555
C14 C5 1_555 1_555
H12 C14 1_555 1_555
H13 C14 1_555 1_555
H14 C14 1_555 1_555
C4 C5 1_555 1_555
C6 C7 1_555 1_555
C8 C9 1_555 1_555
C12 C13 1_555 1_555

#END
