
#######################################################################
#
#                 Cambridge Crystallographic Data Centre
#                                CCDC 
#
#######################################################################
#
# If this CIF has been generated from an entry in the Cambridge 
# Structural Database, then it will include bibliographic, chemical, 
# crystal, experimental, refinement or atomic coordinate data resulting 
# from the CCDC's data processing and validation procedures.
#
#######################################################################

data_KESMIE
_chemical_compound_source        'Rhododendron molle'
_chemical_formula_moiety         'C22 H34 O7,0.7(C1 H1 Cl3)'
_chemical_name_systematic        'Rhodojaponin-V chloroform solvate'
_chemical_properties_biological  'insectidal activity'
_symmetry_cell_setting           orthorhombic
_symmetry_space_group_name_H-M   'P 21 21 21'
_symmetry_Int_Tables_number      19
_space_group_name_Hall           'P 2ac 2ab'
loop_
_symmetry_equiv_pos_site_id
_symmetry_equiv_pos_as_xyz
1 x,y,z
2 1/2+x,1/2-y,-z
3 -x,1/2+y,1/2-z
4 1/2-x,-y,1/2+z
_cell_length_a                   6.330(1)
_cell_length_b                   16.794(3)
_cell_length_c                   24.349(7)
_cell_angle_alpha                90
_cell_angle_beta                 90
_cell_angle_gamma                90
_cell_volume                     2588.45
_exptl_crystal_colour            colorless
_cell_formula_units_Z            4
loop_
_atom_site_label
_atom_site_type_symbol
_atom_site_fract_x
_atom_site_fract_y
_atom_site_fract_z
C1 C 1.335(2) 0.0809(7) 0.6708(6)
C2 C 1.504(2) 0.0171(8) 0.6732(6)
C3 C 1.439(2) -0.0622(7) 0.7019(5)
C4 C 1.246(2) -0.0976(7) 0.6730(6)
C5 C 1.064(2) -0.0492(7) 0.6986(5)
C6 C 1.152(2) 0.0019(7) 0.7470(5)
C7 C 1.208(2) 0.0892(7) 0.7252(5)
C8 C 1.360(2) -0.0409(7) 0.7596(5)
C9 C 1.293(2) 0.1407(7) 0.8256(6)
C10 C 1.372(2) 0.2130(8) 0.8582(6)
C11 C 1.256(2) 0.2198(9) 0.9094(6)
C12 C 1.105(2) 0.1488(8) 0.9152(6)
C13 C 1.076(2) 0.1201(7) 0.8543(5)
O1 O 1.209(2) 0.2731(5) 0.8649(4)
C14 C 1.317(2) 0.1476(7) 0.7628(5)
O2 O 1.309(1) -0.1153(4) 0.7886(3)
C15 C 1.396(2) -0.1317(7) 0.8350(5)
O3 O 1.526(2) -0.0917(7) 0.8566(4)
C16 C 1.304(3) -0.2072(9) 0.8599(7)
C17 C 0.984(2) 0.0039(7) 0.7928(5)
C18 C 1.031(2) 0.0338(8) 0.8498(5)
O4 O 1.546(1) 0.1458(6) 0.7532(4)
C19 C 1.257(3) -0.1001(8) 0.6107(5)
C20 C 1.210(3) 0.0885(9) 0.9511(6)
C21 C 0.891(3) 0.180(1) 0.9410(7)
O5 O 0.842(2) 0.0141(6) 0.8826(4)
C22 C 1.248(3) 0.2341(7) 0.7428(6)
O6 O 1.227(2) -0.1806(5) 0.6901(4)
O7 O 0.907(1) 0.1628(5) 0.8261(4)
H1 H 1.4014 0.1308 0.6628
H2 H 1.2428 0.0675 0.6415
H3 H 1.6301 0.0373 0.6935
H4 H 1.5575 0.0034 0.6373
H5 H 1.5645 -0.1004 0.7021
H6 H 0.9497 -0.0858 0.7123
H7 H 0.9930 -0.0169 0.6713
H8 H 1.0663 0.1128 0.7219
H9 H 1.4556 -0.0102 0.7811
H10 H 0.9289 -0.0493 0.7942
H11 H 0.8694 0.0370 0.7778
H12 H 1.1598 0.0075 0.8625
H13 H 1.3811 0.0934 0.8292
H14 H 1.5194 0.2135 0.8461
H15 H 1.2874 0.2324 0.9509
C23 C 0.233(4) 0.598(1) 0.0044(9)
Cl1 Cl 0.164(2) 0.5070(8) -0.0348(5)
Cl2 Cl 0.497(2) 0.6072(7) -0.0173(5)
Cl3 Cl 0.080(3) 0.667(1) -0.0008(8)
loop_
_geom_bond_atom_site_label_1
_geom_bond_atom_site_label_2
_geom_bond_site_symmetry_1
_geom_bond_site_symmetry_2
C1 C2 1_555 1_555
C2 C3 1_555 1_555
C3 C4 1_555 1_555
C4 C5 1_555 1_555
C5 C6 1_555 1_555
C6 C7 1_555 1_555
C7 C1 1_555 1_555
C8 C3 1_555 1_555
C9 C10 1_555 1_555
C10 C11 1_555 1_555
C11 C12 1_555 1_555
C12 C13 1_555 1_555
C13 C9 1_555 1_555
O1 C10 1_555 1_555
C14 C7 1_555 1_555
O2 C8 1_555 1_555
C15 O2 1_555 1_555
O3 C15 1_555 1_555
C16 C15 1_555 1_555
C17 C6 1_555 1_555
C18 C13 1_555 1_555
O4 C14 1_555 1_555
C19 C4 1_555 1_555
C20 C12 1_555 1_555
C21 C12 1_555 1_555
O5 C18 1_555 1_555
C22 C14 1_555 1_555
O6 C4 1_555 1_555
O7 C13 1_555 1_555
C23 Cl1 1_555 1_555
Cl2 C23 1_555 1_555
Cl3 C23 1_555 1_555
H1 C1 1_555 1_555
H2 C1 1_555 1_555
H3 C2 1_555 1_555
H4 C2 1_555 1_555
H5 C3 1_555 1_555
H6 C5 1_555 1_555
H7 C5 1_555 1_555
H8 C7 1_555 1_555
H9 C8 1_555 1_555
H10 C17 1_555 1_555
H11 C17 1_555 1_555
H12 C18 1_555 1_555
H13 C9 1_555 1_555
H14 C10 1_555 1_555
H15 C11 1_555 1_555
C6 C8 1_555 1_555
C9 C14 1_555 1_555
C11 O1 1_555 1_555
C17 C18 1_555 1_555

#END
