
#######################################################################
#
#                 Cambridge Crystallographic Data Centre
#                                CCDC 
#
#######################################################################
#
# If this CIF has been generated from an entry in the Cambridge 
# Structural Database, then it will include bibliographic, chemical, 
# crystal, experimental, refinement or atomic coordinate data resulting 
# from the CCDC's data processing and validation procedures.
#
#######################################################################

data_KESQUW01
_chemical_formula_moiety         'C20 H18 N2 O2 S1'
_chemical_name_systematic        
'Ethyl 2-methyl-4-phenyl-4H-pyrimido[2,1-b][1,3]benzothiazole-3-carboxylate'
_symmetry_cell_setting           monoclinic
_symmetry_space_group_name_H-M   'P 21/n'
_symmetry_Int_Tables_number      14
_space_group_name_Hall           '-P 2yn'
loop_
_symmetry_equiv_pos_site_id
_symmetry_equiv_pos_as_xyz
1 x,y,z
2 1/2-x,1/2+y,1/2-z
3 -x,-y,-z
4 1/2+x,1/2-y,1/2+z
_cell_length_a                   10.2930(10)
_cell_length_b                   9.5810(9)
_cell_length_c                   17.2290(18)
_cell_angle_alpha                90
_cell_angle_beta                 95.845(7)
_cell_angle_gamma                90
_cell_volume                     1690.24
_exptl_crystal_colour            colorless
_exptl_crystal_description       prism
_cell_formula_units_Z            4
loop_
_atom_site_label
_atom_site_type_symbol
_atom_site_fract_x
_atom_site_fract_y
_atom_site_fract_z
S1 S 0.77495(3) 0.52554(4) 1.106451(19)
O1 O 1.01684(11) 0.73352(12) 0.78866(6)
O2 O 1.11775(12) 0.89305(12) 0.86875(6)
N1 N 0.81762(11) 0.56699(12) 0.96383(6)
N2 N 0.95011(12) 0.70109(13) 1.05786(7)
C1 C 0.85986(13) 0.61005(14) 1.03734(8)
C2 C 0.71786(13) 0.46737(14) 0.95948(8)
C3 C 0.68231(14) 0.43193(15) 1.03341(8)
C4 C 0.58421(15) 0.33529(16) 1.04159(9)
H1 H 0.5600 0.3114 1.0917
C5 C 0.52246(15) 0.27453(16) 0.97456(9)
H2 H 0.4553 0.2079 0.9789
C6 C 0.55742(14) 0.30969(15) 0.90102(9)
H3 H 0.5134 0.2671 0.8560
C7 C 0.65570(14) 0.40603(15) 0.89264(8)
H4 H 0.6799 0.4294 0.8425
C8 C 0.86040(13) 0.63785(14) 0.89484(7)
H5 H 0.8862 0.5662 0.8571
C9 C 0.97842(13) 0.72893(14) 0.92125(8)
C10 C 1.01367(13) 0.75906(14) 0.99778(8)
C11 C 0.75028(13) 0.72733(14) 0.85528(8)
C12 C 0.69573(15) 0.69971(17) 0.77953(8)
H6 H 0.7259 0.6226 0.7517
C13 C 0.59685(16) 0.78507(19) 0.74450(9)
H7 H 0.5591 0.7653 0.6931
C14 C 0.55369(15) 0.89832(18) 0.78443(10)
H8 H 0.4869 0.9568 0.7602
C15 C 0.60784(15) 0.92685(16) 0.85995(10)
H9 H 0.5781 1.0046 0.8875
C16 C 0.70580(14) 0.84114(15) 0.89508(8)
H10 H 0.7427 0.8605 0.9468
C17 C 1.03902(13) 0.78266(15) 0.85370(8)
C18 C 1.17545(18) 0.95082(18) 0.80251(10)
H11 H 1.1065 0.9779 0.7609
H12 H 1.2334 0.8814 0.7810
C19 C 1.25208(18) 1.07625(18) 0.83197(11)
H13 H 1.1934 1.1439 0.8530
H14 H 1.2934 1.1190 0.7890
H15 H 1.3196 1.0479 0.8732
C20 C 1.12102(14) 0.85642(16) 1.02922(9)
H16 H 1.1927 0.8522 0.9960
H17 H 1.1531 0.8285 1.0825
H18 H 1.0871 0.9520 1.0297
loop_
_geom_bond_atom_site_label_1
_geom_bond_atom_site_label_2
_geom_bond_site_symmetry_1
_geom_bond_site_symmetry_2
S1 C1 1_555 1_555
O1 C17 1_555 1_555
O2 C17 1_555 1_555
N1 C1 1_555 1_555
N2 C1 1_555 1_555
C2 N1 1_555 1_555
C3 S1 1_555 1_555
C4 C3 1_555 1_555
H1 C4 1_555 1_555
C5 C4 1_555 1_555
H2 C5 1_555 1_555
C6 C5 1_555 1_555
H3 C6 1_555 1_555
C7 C2 1_555 1_555
H4 C7 1_555 1_555
C8 N1 1_555 1_555
H5 C8 1_555 1_555
C9 C8 1_555 1_555
C10 N2 1_555 1_555
C11 C8 1_555 1_555
C12 C11 1_555 1_555
H6 C12 1_555 1_555
C13 C12 1_555 1_555
H7 C13 1_555 1_555
C14 C13 1_555 1_555
H8 C14 1_555 1_555
C15 C14 1_555 1_555
H9 C15 1_555 1_555
C16 C11 1_555 1_555
H10 C16 1_555 1_555
C17 C9 1_555 1_555
C18 O2 1_555 1_555
H11 C18 1_555 1_555
H12 C18 1_555 1_555
C19 C18 1_555 1_555
H13 C19 1_555 1_555
H14 C19 1_555 1_555
H15 C19 1_555 1_555
C20 C10 1_555 1_555
H16 C20 1_555 1_555
H17 C20 1_555 1_555
H18 C20 1_555 1_555
C2 C3 1_555 1_555
C6 C7 1_555 1_555
C9 C10 1_555 1_555
C15 C16 1_555 1_555

#END
