
#######################################################################
#
#                 Cambridge Crystallographic Data Centre
#                                CCDC 
#
#######################################################################
#
# If this CIF has been generated from an entry in the Cambridge 
# Structural Database, then it will include bibliographic, chemical, 
# crystal, experimental, refinement or atomic coordinate data resulting 
# from the CCDC's data processing and validation procedures.
#
#######################################################################

data_KESWEN
_chemical_formula_moiety         'C35 H54 N6 O15'
_chemical_name_systematic        
'hexa-t-butyl 3,7,10-trioxo-2,4,6,8,9,11-hexaazatricyclo[3.3.3.0^1,5^]undecane-2,4,6,8,9,11-hexacarboxylate'
_symmetry_cell_setting           monoclinic
_symmetry_space_group_name_H-M   'P 21/n'
_symmetry_Int_Tables_number      14
_space_group_name_Hall           '-P 2yn'
loop_
_symmetry_equiv_pos_site_id
_symmetry_equiv_pos_as_xyz
1 x,y,z
2 1/2-x,1/2+y,1/2-z
3 -x,-y,-z
4 1/2+x,1/2-y,1/2+z
_cell_length_a                   10.4033(3)
_cell_length_b                   25.0210(9)
_cell_length_c                   16.2996(5)
_cell_angle_alpha                90
_cell_angle_beta                 94.812(2)
_cell_angle_gamma                90
_cell_volume                     4227.85
_exptl_crystal_colour            colorless
_exptl_crystal_description       block
_cell_formula_units_Z            4
loop_
_atom_site_label
_atom_site_type_symbol
_atom_site_fract_x
_atom_site_fract_y
_atom_site_fract_z
N1 N 1.09527(11) 0.21761(5) 0.26641(8)
C1 C 1.20771(16) 0.19517(7) 0.23792(10)
O1 O 1.30439(12) 0.21779(5) 0.22475(9)
N2 N 1.18276(11) 0.14049(5) 0.22748(7)
C2 C 1.06047(14) 0.12551(6) 0.25640(9)
N3 N 1.06477(11) 0.10720(5) 0.34131(7)
C3 C 0.97119(15) 0.13357(6) 0.38447(10)
O2 O 0.94232(12) 0.12346(5) 0.45161(7)
N4 N 0.91968(11) 0.17433(5) 0.33230(7)
C4 C 0.98999(13) 0.17936(6) 0.25962(9)
N5 N 0.91041(11) 0.18040(5) 0.18222(7)
C5 C 0.90072(14) 0.13000(6) 0.14518(9)
O3 O 0.84390(12) 0.11918(5) 0.08093(7)
N6 N 0.97505(11) 0.09489(5) 0.19892(7)
C6 C 1.07924(17) 0.27140(7) 0.29128(10)
O4 O 0.99479(13) 0.28370(5) 0.33263(8)
O5 O 1.16860(11) 0.30169(5) 0.26400(8)
C7 C 1.1666(2) 0.36054(7) 0.27699(13)
C8 C 1.2865(3) 0.37733(9) 0.23561(15)
H1 H 1.3618 0.3625 0.2653
H2 H 1.2928 0.4156 0.2355
H3 H 1.2804 0.3644 0.1799
C9 C 1.1790(3) 0.37359(9) 0.36718(14)
H4 H 1.2571 0.3582 0.3925
H5 H 1.1064 0.3592 0.3925
H6 H 1.1814 0.4117 0.3743
C10 C 1.0456(3) 0.38233(9) 0.23096(17)
H7 H 1.0434 0.3720 0.1741
H8 H 1.0454 0.4206 0.2348
H9 H 0.9713 0.3682 0.2546
C11 C 1.26757(16) 0.10331(7) 0.19285(10)
O6 O 1.22659(11) 0.06744(5) 0.15015(8)
O7 O 1.38830(10) 0.11576(4) 0.21453(7)
C12 C 1.49500(16) 0.08136(7) 0.18897(12)
C13 C 1.61192(18) 0.10762(10) 0.23365(15)
H10 H 1.6067 0.1046 0.2920
H11 H 1.6144 0.1447 0.2186
H12 H 1.6888 0.0902 0.2187
C14 C 1.4783(2) 0.02525(8) 0.22046(17)
H13 H 1.4769 0.0260 0.2793
H14 H 1.5488 0.0034 0.2059
H15 H 1.3986 0.0107 0.1962
C15 C 1.5008(2) 0.08434(10) 0.09738(14)
H16 H 1.4264 0.0671 0.0705
H17 H 1.5775 0.0667 0.0824
H18 H 1.5023 0.1211 0.0806
C16 C 1.16459(16) 0.07328(6) 0.37644(10)
O8 O 1.25610(11) 0.06248(5) 0.34066(7)
O9 O 1.13970(11) 0.05808(5) 0.45062(7)
C17 C 1.23499(17) 0.02483(8) 0.50128(11)
C18 C 1.1670(2) 0.01739(11) 0.57971(12)
H19 H 1.1575 0.0514 0.6056
H20 H 1.2172 -0.0059 0.6166
H21 H 1.0834 0.0019 0.5663
C19 C 1.2519(2) -0.02791(8) 0.45956(13)
H22 H 1.2956 -0.0225 0.4106
H23 H 1.1688 -0.0436 0.4451
H24 H 1.3020 -0.0514 0.4962
C20 C 1.3595(2) 0.05571(9) 0.51664(15)
H25 H 1.3429 0.0889 0.5434
H26 H 1.3946 0.0628 0.4651
H27 H 1.4201 0.0351 0.5512
C21 C 0.80917(15) 0.20611(6) 0.34389(10)
O10 O 0.75774(11) 0.23189(5) 0.28932(7)
O11 O 0.77651(11) 0.20150(5) 0.41918(7)
C22 C 0.66231(18) 0.23038(9) 0.44616(12)
C23 C 0.6620(3) 0.21086(13) 0.53395(14)
H28 H 0.6458 0.1731 0.5340
H29 H 0.5957 0.2291 0.5606
H30 H 0.7444 0.2180 0.5630
C24 C 0.5426(2) 0.21402(14) 0.39332(18)
H31 H 0.5304 0.1761 0.3977
H32 H 0.5522 0.2233 0.3370
H33 H 0.4691 0.2323 0.4117
C25 C 0.6881(3) 0.28933(11) 0.44323(18)
H34 H 0.6879 0.3006 0.3869
H35 H 0.7706 0.2969 0.4717
H36 H 0.6222 0.3082 0.4692
C26 C 0.85501(15) 0.22853(7) 0.14741(9)
O12 O 0.91331(11) 0.26959(5) 0.15197(7)
O13 O 0.73891(10) 0.21931(4) 0.11226(7)
C27 C 0.66161(16) 0.26440(7) 0.07308(11)
C28 C 0.53542(18) 0.23739(9) 0.04613(13)
H37 H 0.4951 0.2254 0.0937
H38 H 0.5512 0.2073 0.0118
H39 H 0.4796 0.2623 0.0158
C29 C 0.7273(2) 0.28433(9) -0.00022(12)
H40 H 0.8070 0.3015 0.0184
H41 H 0.6721 0.3095 -0.0306
H42 H 0.7445 0.2547 -0.0351
C30 C 0.6429(2) 0.30751(9) 0.13558(14)
H43 H 0.6002 0.2928 0.1804
H44 H 0.5912 0.3357 0.1101
H45 H 0.7253 0.3215 0.1560
C31 C 0.97318(15) 0.03862(7) 0.19848(10)
O14 O 1.03889(12) 0.01300(5) 0.24767(8)
O15 O 0.88713(11) 0.02102(4) 0.14076(7)
C32 C 0.87347(17) -0.03749(7) 0.12464(11)
C33 C 0.7623(2) -0.03862(9) 0.05848(15)
H46 H 0.7863 -0.0198 0.0108
H47 H 0.6883 -0.0218 0.0787
H48 H 0.7419 -0.0750 0.0440
C34 C 0.9962(2) -0.05787(8) 0.09246(14)
H49 H 1.0134 -0.0382 0.0440
H50 H 0.9867 -0.0951 0.0790
H51 H 1.0666 -0.0533 0.1339
C35 C 0.8390(2) -0.06648(8) 0.20056(14)
H52 H 0.9111 -0.0656 0.2414
H53 H 0.8178 -0.1029 0.1869
H54 H 0.7662 -0.0494 0.2219
loop_
_geom_bond_atom_site_label_1
_geom_bond_atom_site_label_2
_geom_bond_site_symmetry_1
_geom_bond_site_symmetry_2
N1 C1 1_555 1_555
C1 O1 1_555 1_555
N2 C1 1_555 1_555
C2 N2 1_555 1_555
N3 C2 1_555 1_555
C3 N3 1_555 1_555
O2 C3 1_555 1_555
N4 C3 1_555 1_555
C4 N1 1_555 1_555
N5 C4 1_555 1_555
C5 N5 1_555 1_555
O3 C5 1_555 1_555
N6 C2 1_555 1_555
C6 N1 1_555 1_555
O4 C6 1_555 1_555
O5 C6 1_555 1_555
C7 O5 1_555 1_555
C8 C7 1_555 1_555
H1 C8 1_555 1_555
H2 C8 1_555 1_555
H3 C8 1_555 1_555
C9 C7 1_555 1_555
H4 C9 1_555 1_555
H5 C9 1_555 1_555
H6 C9 1_555 1_555
C10 C7 1_555 1_555
H7 C10 1_555 1_555
H8 C10 1_555 1_555
H9 C10 1_555 1_555
C11 N2 1_555 1_555
O6 C11 1_555 1_555
O7 C11 1_555 1_555
C12 O7 1_555 1_555
C13 C12 1_555 1_555
H10 C13 1_555 1_555
H11 C13 1_555 1_555
H12 C13 1_555 1_555
C14 C12 1_555 1_555
H13 C14 1_555 1_555
H14 C14 1_555 1_555
H15 C14 1_555 1_555
C15 C12 1_555 1_555
H16 C15 1_555 1_555
H17 C15 1_555 1_555
H18 C15 1_555 1_555
C16 N3 1_555 1_555
O8 C16 1_555 1_555
O9 C16 1_555 1_555
C17 O9 1_555 1_555
C18 C17 1_555 1_555
H19 C18 1_555 1_555
H20 C18 1_555 1_555
H21 C18 1_555 1_555
C19 C17 1_555 1_555
H22 C19 1_555 1_555
H23 C19 1_555 1_555
H24 C19 1_555 1_555
C20 C17 1_555 1_555
H25 C20 1_555 1_555
H26 C20 1_555 1_555
H27 C20 1_555 1_555
C21 N4 1_555 1_555
O10 C21 1_555 1_555
O11 C21 1_555 1_555
C22 O11 1_555 1_555
C23 C22 1_555 1_555
H28 C23 1_555 1_555
H29 C23 1_555 1_555
H30 C23 1_555 1_555
C24 C22 1_555 1_555
H31 C24 1_555 1_555
H32 C24 1_555 1_555
H33 C24 1_555 1_555
C25 C22 1_555 1_555
H34 C25 1_555 1_555
H35 C25 1_555 1_555
H36 C25 1_555 1_555
C26 N5 1_555 1_555
O12 C26 1_555 1_555
O13 C26 1_555 1_555
C27 O13 1_555 1_555
C28 C27 1_555 1_555
H37 C28 1_555 1_555
H38 C28 1_555 1_555
H39 C28 1_555 1_555
C29 C27 1_555 1_555
H40 C29 1_555 1_555
H41 C29 1_555 1_555
H42 C29 1_555 1_555
C30 C27 1_555 1_555
H43 C30 1_555 1_555
H44 C30 1_555 1_555
H45 C30 1_555 1_555
C31 N6 1_555 1_555
O14 C31 1_555 1_555
O15 C31 1_555 1_555
C32 O15 1_555 1_555
C33 C32 1_555 1_555
H46 C33 1_555 1_555
H47 C33 1_555 1_555
H48 C33 1_555 1_555
C34 C32 1_555 1_555
H49 C34 1_555 1_555
H50 C34 1_555 1_555
H51 C34 1_555 1_555
C35 C32 1_555 1_555
H52 C35 1_555 1_555
H53 C35 1_555 1_555
H54 C35 1_555 1_555
C2 C4 1_555 1_555
N4 C4 1_555 1_555
C5 N6 1_555 1_555

#END
