
#######################################################################
#
#                 Cambridge Crystallographic Data Centre
#                                CCDC 
#
#######################################################################
#
# If this CIF has been generated from an entry in the Cambridge 
# Structural Database, then it will include bibliographic, chemical, 
# crystal, experimental, refinement or atomic coordinate data resulting 
# from the CCDC's data processing and validation procedures.
#
#######################################################################

data_KESZIR
_chemical_formula_moiety         'C9 H21 N4 P1 S1'
_chemical_name_systematic        
1-Thioxo-2,8,9-trimethyl-1-phospha-2,5,8,9-tetra-azabicyclo(3.3.3)undecane
_symmetry_cell_setting           monoclinic
_symmetry_space_group_name_H-M   'P 21/c'
_symmetry_Int_Tables_number      14
_space_group_name_Hall           '-P 2ybc'
loop_
_symmetry_equiv_pos_site_id
_symmetry_equiv_pos_as_xyz
1 x,y,z
2 -x,1/2+y,1/2-z
3 -x,-y,-z
4 x,1/2-y,1/2+z
_cell_length_a                   13.578(4)
_cell_length_b                   14.223(3)
_cell_length_c                   13.832(6)
_cell_angle_alpha                90
_cell_angle_beta                 110.81(3)
_cell_angle_gamma                90
_cell_volume                     2496.97
_exptl_crystal_colour            colorless
_cell_formula_units_Z            8
loop_
_atom_site_label
_atom_site_type_symbol
_atom_site_fract_x
_atom_site_fract_y
_atom_site_fract_z
S1 S 0.14767(6) 0.34430(7) 0.09601(7)
P1 P 0.04966(6) 0.28936(6) 0.15548(6)
N1 N 0.0722(2) 0.1760(2) 0.1803(2)
N2 N -0.0740(2) 0.3007(2) 0.0775(2)
N3 N 0.0577(2) 0.3389(2) 0.2657(2)
C1 C 0.0618(3) 0.1300(3) 0.2707(3)
C2 C -0.0502(3) 0.1122(3) 0.2646(3)
C3 C -0.1519(2) 0.2261(3) 0.0640(2)
C4 C -0.1937(3) 0.2159(3) 0.1518(3)
C5 C -0.0362(3) 0.3557(2) 0.2934(3)
C6 C -0.0813(3) 0.2696(3) 0.3270(3)
N4 N -0.1145(2) 0.1957(2) 0.2507(2)
C7 C 0.0915(4) 0.1138(3) 0.1050(3)
C8 C -0.1137(3) 0.3909(3) 0.0293(3)
C9 C 0.1586(3) 0.3520(3) 0.3474(3)
H1 H 0.095(4) 0.167(4) 0.330(4)
H2 H 0.099(4) 0.080(4) 0.286(4)
H3 H -0.086(4) 0.068(4) 0.208(4)
H4 H -0.043(4) 0.079(4) 0.330(4)
H5 H -0.210(4) 0.243(3) -0.002(4)
H6 H -0.123(4) 0.167(4) 0.055(3)
H7 H -0.245(4) 0.164(4) 0.131(4)
H8 H -0.228(4) 0.271(4) 0.158(4)
H9 H -0.014(3) 0.397(3) 0.351(4)
H10 H -0.087(4) 0.386(3) 0.238(4)
H11 H -0.025(4) 0.245(3) 0.392(4)
H12 H -0.141(4) 0.290(3) 0.345(3)
H13 H 0.104(4) 0.153(4) 0.051(4)
H14 H 0.145(4) 0.076(4) 0.142(4)
H15 H 0.033(5) 0.079(4) 0.071(4)
H16 H -0.146(4) 0.387(4) -0.042(4)
H17 H -0.057(4) 0.433(4) 0.036(4)
H18 H -0.161(4) 0.414(4) 0.059(4)
H19 H 0.169(4) 0.308(4) 0.404(4)
H20 H 0.164(4) 0.410(4) 0.370(4)
H21 H 0.214(4) 0.347(4) 0.323(4)
S2 S -0.68270(7) -0.04778(7) 0.32515(8)
P2 P -0.57972(6) 0.01670(6) 0.27954(6)
N5 N -0.6256(2) 0.0338(2) 0.1526(2)
N6 N -0.4699(2) -0.0442(2) 0.3070(2)
N7 N -0.5486(2) 0.1212(2) 0.3331(2)
C10 C -0.6055(3) 0.1191(3) 0.1057(3)
C11 C -0.4944(3) 0.1268(3) 0.1035(3)
C12 C -0.4109(3) -0.0503(3) 0.2368(3)
C13 C -0.3496(3) 0.0377(3) 0.2331(3)
C14 C -0.4410(3) 0.1589(3) 0.3671(3)
C15 C -0.4067(3) 0.1923(3) 0.2796(3)
N8 N -0.4135(2) 0.1214(2) 0.2037(2)
C16 C -0.6786(4) -0.0429(3) 0.0850(3)
C17 C -0.4195(4) -0.0838(3) 0.4095(3)
C18 C -0.6310(3) 0.1850(3) 0.3368(4)
H22 H -0.618(4) 0.171(4) 0.138(4)
H23 H -0.654(4) 0.123(4) 0.037(4)
H24 H -0.486(4) 0.187(4) 0.070(4)
H25 H -0.483(4) 0.078(4) 0.058(4)
H26 H -0.362(4) -0.098(4) 0.262(4)
H27 H -0.463(4) -0.069(3) 0.168(4)
H28 H -0.307(4) 0.024(4) 0.188(4)
H29 H -0.296(4) 0.049(4) 0.301(4)
H30 H -0.394(4) 0.107(4) 0.404(4)
H31 H -0.438(4) 0.210(4) 0.414(4)
H32 H -0.448(4) 0.244(4) 0.245(4)
H33 H -0.333(4) 0.211(4) 0.313(4)
H34 H -0.698(4) -0.092(4) 0.120(4)
H35 H -0.743(5) -0.024(4) 0.036(4)
H36 H -0.656(4) -0.060(4) 0.039(5)
H37 H -0.397(4) -0.146(5) 0.412(4)
H38 H -0.354(5) -0.053(4) 0.448(4)
H39 H -0.462(4) -0.078(4) 0.450(4)
H40 H -0.612(4) 0.219(4) 0.404(4)
H41 H -0.655(4) 0.217(4) 0.278(4)
H42 H -0.685(5) 0.156(4) 0.317(4)
loop_
_geom_bond_atom_site_label_1
_geom_bond_atom_site_label_2
_geom_bond_site_symmetry_1
_geom_bond_site_symmetry_2
S1 P1 1_555 1_555
P1 N1 1_555 1_555
N1 C1 1_555 1_555
N2 P1 1_555 1_555
N3 P1 1_555 1_555
C1 C2 1_555 1_555
C2 N4 1_555 1_555
C3 N2 1_555 1_555
C4 C3 1_555 1_555
C5 N3 1_555 1_555
C6 C5 1_555 1_555
N4 C4 1_555 1_555
C7 N1 1_555 1_555
C8 N2 1_555 1_555
C9 N3 1_555 1_555
S2 P2 1_555 1_555
P2 N5 1_555 1_555
N5 C10 1_555 1_555
N6 P2 1_555 1_555
N7 P2 1_555 1_555
C10 C11 1_555 1_555
C11 N8 1_555 1_555
C12 N6 1_555 1_555
C13 C12 1_555 1_555
C14 N7 1_555 1_555
C15 C14 1_555 1_555
N8 C13 1_555 1_555
C16 N5 1_555 1_555
C17 N6 1_555 1_555
C18 N7 1_555 1_555
H1 C1 1_555 1_555
H2 C1 1_555 1_555
H3 C2 1_555 1_555
H4 C2 1_555 1_555
H5 C3 1_555 1_555
H6 C3 1_555 1_555
H7 C4 1_555 1_555
H8 C4 1_555 1_555
H9 C5 1_555 1_555
H10 C5 1_555 1_555
H11 C6 1_555 1_555
H12 C6 1_555 1_555
H13 C7 1_555 1_555
H14 C7 1_555 1_555
H15 C7 1_555 1_555
H16 C8 1_555 1_555
H17 C8 1_555 1_555
H18 C8 1_555 1_555
H19 C9 1_555 1_555
H20 C9 1_555 1_555
H21 C9 1_555 1_555
H22 C10 1_555 1_555
H23 C10 1_555 1_555
H24 C11 1_555 1_555
H25 C11 1_555 1_555
H26 C12 1_555 1_555
H27 C12 1_555 1_555
H28 C13 1_555 1_555
H29 C13 1_555 1_555
H30 C14 1_555 1_555
H31 C14 1_555 1_555
H32 C15 1_555 1_555
H33 C15 1_555 1_555
H34 C16 1_555 1_555
H35 C16 1_555 1_555
H36 C16 1_555 1_555
H37 C17 1_555 1_555
H38 C17 1_555 1_555
H39 C17 1_555 1_555
H40 C18 1_555 1_555
H41 C18 1_555 1_555
H42 C18 1_555 1_555
C6 N4 1_555 1_555
C15 N8 1_555 1_555

#END
