
#######################################################################
#
#                 Cambridge Crystallographic Data Centre
#                                CCDC 
#
#######################################################################
#
# If this CIF has been generated from an entry in the Cambridge 
# Structural Database, then it will include bibliographic, chemical, 
# crystal, experimental, refinement or atomic coordinate data resulting 
# from the CCDC's data processing and validation procedures.
#
#######################################################################

data_KETDEU02
_chemical_formula_moiety         'C17 H17 B1 F2 N2 S1'
_chemical_name_systematic        
{2-[(3,5-dimethyl-2H-pyrrol-2-ylidene)(thiophen-2-yl)methyl]-3,5-dimethyl-1H-pyrrolato}(difluoro)boron
_symmetry_cell_setting           monoclinic
_symmetry_space_group_name_H-M   'P 21/c'
_symmetry_Int_Tables_number      14
_space_group_name_Hall           '-P 2ybc'
loop_
_symmetry_equiv_pos_site_id
_symmetry_equiv_pos_as_xyz
1 x,y,z
2 -x,1/2+y,1/2-z
3 -x,-y,-z
4 x,1/2-y,1/2+z
_cell_length_a                   6.6072(10)
_cell_length_b                   18.543(2)
_cell_length_c                   12.7436(15)
_cell_angle_alpha                90
_cell_angle_beta                 92.804(6)
_cell_angle_gamma                90
_cell_volume                     1559.44
_exptl_crystal_colour            'red orange'
_exptl_crystal_description       needle
_cell_formula_units_Z            4
loop_
_atom_site_label
_atom_site_type_symbol
_atom_site_fract_x
_atom_site_fract_y
_atom_site_fract_z
S1 S 0.24167(8) 0.26004(3) 0.52479(4)
F1 F 0.12397(12) -0.03465(4) 0.30796(6)
F2 F 0.29228(12) -0.00266(4) 0.16340(6)
N1 N 0.41961(16) 0.04199(6) 0.33174(8)
N2 N 0.09813(16) 0.08898(6) 0.24752(8)
C1 C 0.5768(2) -0.00109(7) 0.36088(10)
C2 C 0.7141(2) 0.03729(7) 0.42720(10)
H1 H 0.8370 0.0189 0.4583
C3 C 0.64074(19) 0.10630(7) 0.43969(10)
C4 C 0.45303(19) 0.10949(7) 0.37889(10)
C5 C 0.31485(19) 0.16534(7) 0.36005(10)
C6 C 0.14190(19) 0.15626(7) 0.29314(10)
C7 C -0.00964(19) 0.20621(7) 0.25570(10)
C8 C -0.14183(19) 0.16713(7) 0.19003(10)
H2 H -0.2596 0.1857 0.1537
C9 C -0.07331(19) 0.09555(7) 0.18591(10)
C10 C 0.5951(2) -0.07715(7) 0.32502(11)
H3 H 0.4603 -0.0992 0.3186
H4 H 0.6805 -0.1042 0.3763
H5 H 0.6567 -0.0781 0.2566
C11 C 0.7462(2) 0.16419(8) 0.50331(11)
H6 H 0.8543 0.1427 0.5485
H7 H 0.6486 0.1884 0.5469
H8 H 0.8048 0.1994 0.4562
C12 C -0.0225(2) 0.28568(7) 0.27578(11)
H9 H -0.1361 0.3061 0.2333
H10 H 0.1039 0.3089 0.2568
H11 H -0.0435 0.2941 0.3504
C13 C -0.1638(2) 0.03501(8) 0.12221(11)
H12 H -0.1309 0.0411 0.0486
H13 H -0.3112 0.0352 0.1275
H14 H -0.1085 -0.0109 0.1487
C14 C 0.35293(19) 0.23647(7) 0.41040(10)
C15 C 0.4703(12) 0.2914(4) 0.3764(6)
H15 H 0.5451 0.2887 0.3147
C16 C 0.4692(2) 0.35388(8) 0.44365(11)
H16 H 0.5414 0.3973 0.4327
C17 C 0.3509(2) 0.34248(8) 0.52564(11)
H17 H 0.3307 0.3774 0.5787
B1 B 0.2309(2) 0.02055(8) 0.26151(11)
S2? S 0.5008(18) 0.2949(5) 0.3598(9)
C18? C 0.271(2) 0.2640(7) 0.5001(10)
H18? H 0.1773 0.2388 0.5410
loop_
_geom_bond_atom_site_label_1
_geom_bond_atom_site_label_2
_geom_bond_site_symmetry_1
_geom_bond_site_symmetry_2
S1 C14 1_555 1_555
F1 B1 1_555 1_555
F2 B1 1_555 1_555
N1 C1 1_555 1_555
N2 C6 1_555 1_555
C1 C2 1_555 1_555
C2 H1 1_555 1_555
C3 C2 1_555 1_555
C4 N1 1_555 1_555
C5 C4 1_555 1_555
C6 C5 1_555 1_555
C7 C6 1_555 1_555
C8 C7 1_555 1_555
H2 C8 1_555 1_555
C9 N2 1_555 1_555
C10 C1 1_555 1_555
H3 C10 1_555 1_555
H4 C10 1_555 1_555
H5 C10 1_555 1_555
C11 C3 1_555 1_555
H6 C11 1_555 1_555
H7 C11 1_555 1_555
H8 C11 1_555 1_555
C12 C7 1_555 1_555
H9 C12 1_555 1_555
H10 C12 1_555 1_555
H11 C12 1_555 1_555
C13 C9 1_555 1_555
H12 C13 1_555 1_555
H13 C13 1_555 1_555
H14 C13 1_555 1_555
C14 C5 1_555 1_555
C15 C14 1_555 1_555
H15 C15 1_555 1_555
C16 C15 1_555 1_555
H16 C16 1_555 1_555
C17 S1 1_555 1_555
H17 C17 1_555 1_555
B1 N1 1_555 1_555
N2 B1 1_555 1_555
C3 C4 1_555 1_555
C8 C9 1_555 1_555
C16 C17 1_555 1_555

#END
