
#######################################################################
#
#                 Cambridge Crystallographic Data Centre
#                                CCDC 
#
#######################################################################
#
# If this CIF has been generated from an entry in the Cambridge 
# Structural Database, then it will include bibliographic, chemical, 
# crystal, experimental, refinement or atomic coordinate data resulting 
# from the CCDC's data processing and validation procedures.
#
#######################################################################

data_KETSAD
_chemical_formula_moiety         'C22 H24 Br2'
_chemical_name_systematic        
2-Bromo-2-(2-bromo-D~3~-trishomocub-2-yl)(D~3~-trishomocubane)
_symmetry_cell_setting           monoclinic
_symmetry_space_group_name_H-M   'C 2/c'
_symmetry_Int_Tables_number      15
_space_group_name_Hall           '-C 2yn'
loop_
_symmetry_equiv_pos_site_id
_symmetry_equiv_pos_as_xyz
1 x,y,z
2 1/2+x,1/2+y,z
3 -x,y,1/2-z
4 1/2-x,1/2+y,1/2-z
5 -x,-y,-z
6 1/2-x,1/2-y,-z
7 x,-y,1/2+z
8 1/2+x,1/2-y,1/2+z
_cell_length_a                   12.825(2)
_cell_length_b                   6.620(1)
_cell_length_c                   20.108(2)
_cell_angle_alpha                90
_cell_angle_beta                 98.38(1)
_cell_angle_gamma                90
_cell_volume                     1688.97
_exptl_crystal_colour            colorless
_chemical_melting_point          240deg.C(dec.)
_cell_formula_units_Z            4
loop_
_atom_site_label
_atom_site_type_symbol
_atom_site_fract_x
_atom_site_fract_y
_atom_site_fract_z
Br1 Br 0.6457(1) 0.6387(1) 0.2695(1)
C1 C 0.5527(4) 0.2421(8) 0.4492(2)
C2 C 0.5998(4) 0.4026(8) 0.4051(2)
C3 C 0.5043(4) 0.4578(8) 0.3501(2)
C4 C 0.5416(3) 0.4216(7) 0.2820(2)
C5 C 0.5965(4) 0.2216(7) 0.3046(2)
C6 C 0.6755(4) 0.2761(8) 0.3666(3)
C7 C 0.6901(4) 0.0784(9) 0.4031(3)
C8 C 0.5760(4) 0.0518(9) 0.4111(2)
C9 C 0.5133(4) 0.1068(7) 0.3406(2)
C10 C 0.4350(4) 0.2743(8) 0.3572(2)
C11 C 0.4351(4) 0.2628(10) 0.4326(2)
H1 H 0.5768 0.2481 0.4966
H2 H 0.6328 0.5167 0.4290
H3 H 0.4749 0.5900 0.3537
H4 H 0.6239 0.1535 0.2687
H5 H 0.7410 0.3386 0.3605
H6 H 0.7155 -0.0266 0.3767
H7 H 0.7354 0.0891 0.4454
H8 H 0.5613 -0.0772 0.4295
H9 H 0.4801 -0.0050 0.3154
H10 H 0.3655 0.2696 0.3320
H11 H 0.3977 0.1477 0.4460
H12 H 0.4085 0.3833 0.4507
C4B C 0.4584(3) 0.4216(7) 0.2180(2)
Br1B Br 0.3543(1) 0.6387(1) 0.2305(1)
C3B C 0.4957(4) 0.4578(8) 0.1499(2)
C5B C 0.4035(4) 0.2216(7) 0.1954(2)
C2B C 0.4002(4) 0.4026(8) 0.0949(2)
C10B C 0.5650(4) 0.2743(8) 0.1428(2)
H3B H 0.5251 0.5900 0.1463
C6B C 0.3245(4) 0.2761(8) 0.1334(3)
C9B C 0.4867(4) 0.1068(7) 0.1594(2)
H4B H 0.3761 0.1535 0.2313
C1B C 0.4473(4) 0.2421(8) 0.0508(2)
H2B H 0.3672 0.5167 0.0710
C11B C 0.5649(4) 0.2628(10) 0.0674(2)
H10B H 0.6345 0.2696 0.1680
C7B C 0.3099(4) 0.0784(9) 0.0969(3)
H5B H 0.2590 0.3386 0.1395
C8B C 0.4240(4) 0.0518(9) 0.0889(2)
H9B H 0.5199 -0.0050 0.1846
H1B H 0.4232 0.2481 0.0034
H11B H 0.6023 0.1477 0.0540
H12B H 0.5915 0.3833 0.0493
H6B H 0.2845 -0.0266 0.1233
H7B H 0.2646 0.0891 0.0546
H8B H 0.4387 -0.0772 0.0705
loop_
_geom_bond_atom_site_label_1
_geom_bond_atom_site_label_2
_geom_bond_site_symmetry_1
_geom_bond_site_symmetry_2
Br1 C4 1_555 1_555
C1 C2 1_555 1_555
C2 C3 1_555 1_555
C3 C4 1_555 1_555
C4 C5 1_555 1_555
C5 C6 1_555 1_555
C6 C2 1_555 1_555
C7 C6 1_555 1_555
C8 C1 1_555 1_555
C9 C5 1_555 1_555
C10 C3 1_555 1_555
C11 C1 1_555 1_555
H1 C1 1_555 1_555
H2 C2 1_555 1_555
H3 C3 1_555 1_555
H4 C5 1_555 1_555
H5 C6 1_555 1_555
H6 C7 1_555 1_555
H7 C7 1_555 1_555
H8 C8 1_555 1_555
H9 C9 1_555 1_555
H10 C10 1_555 1_555
H11 C11 1_555 1_555
H12 C11 1_555 1_555
C4B C4 1_555 1_555
Br1B C4B 1_555 1_555
C3B C4B 1_555 1_555
C5B C4B 1_555 1_555
C2B C3B 1_555 1_555
C10B C3B 1_555 1_555
H3B C3B 1_555 1_555
C6B C5B 1_555 1_555
C9B C5B 1_555 1_555
H4B C5B 1_555 1_555
C1B C2B 1_555 1_555
H2B C2B 1_555 1_555
C11B C10B 1_555 1_555
H10B C10B 1_555 1_555
C7B C6B 1_555 1_555
H5B C6B 1_555 1_555
C8B C9B 1_555 1_555
H9B C9B 1_555 1_555
H1B C1B 1_555 1_555
H11B C11B 1_555 1_555
H12B C11B 1_555 1_555
H6B C7B 1_555 1_555
H7B C7B 1_555 1_555
H8B C8B 1_555 1_555
C7 C8 1_555 1_555
C8 C9 1_555 1_555
C9 C10 1_555 1_555
C10 C11 1_555 1_555
C2B C6B 1_555 1_555
C10B C9B 1_555 1_555
C1B C8B 1_555 1_555
C1B C11B 1_555 1_555
C7B C8B 1_555 1_555

#END
