
#######################################################################
#
#                 Cambridge Crystallographic Data Centre
#                                CCDC 
#
#######################################################################
#
# If this CIF has been generated from an entry in the Cambridge 
# Structural Database, then it will include bibliographic, chemical, 
# crystal, experimental, refinement or atomic coordinate data resulting 
# from the CCDC's data processing and validation procedures.
#
#######################################################################

data_KEVBES
_chemical_formula_moiety         'C18 H30 O4 S2'
_chemical_name_systematic        
5a,11a-bis(Methylthio)perhydropyrano(3,2-b)pyrano(2',3':5,6)pyrano(2,3-g)oxocane
_symmetry_cell_setting           orthorhombic
_symmetry_space_group_name_H-M   'P 21 21 21'
_symmetry_Int_Tables_number      19
_space_group_name_Hall           'P 2ac 2ab'
loop_
_symmetry_equiv_pos_site_id
_symmetry_equiv_pos_as_xyz
1 x,y,z
2 1/2+x,1/2-y,-z
3 -x,1/2+y,1/2-z
4 1/2-x,-y,1/2+z
_cell_length_a                   9.757(2)
_cell_length_b                   15.433(3)
_cell_length_c                   25.552(6)
_cell_angle_alpha                90
_cell_angle_beta                 90
_cell_angle_gamma                90
_cell_volume                     3847.61
_cell_formula_units_Z            8
loop_
_atom_site_label
_atom_site_type_symbol
_atom_site_fract_x
_atom_site_fract_y
_atom_site_fract_z
S1 S 0.5848(5) 0.1877(3) 0.6971(2)
S2 S 0.8215(5) 0.2910(3) 0.8299(2)
C1 C 1.208(2) 0.286(1) 0.6661(6)
C2 C 1.164(2) 0.376(1) 0.6813(6)
C3 C 1.000(2) 0.373(1) 0.6871(6)
C4 C 0.961(2) 0.300(1) 0.7229(6)
C5 C 1.018(2) 0.213(1) 0.7048(6)
C6 C 1.000(2) 0.137(1) 0.7422(6)
C7 C 0.853(2) 0.093(1) 0.7398(6)
C8 C 0.747(2) 0.118(1) 0.7769(6)
C9 C 0.654(2) 0.196(1) 0.7645(5)
C10 C 0.731(2) 0.287(1) 0.7681(6)
C11 C 0.624(2) 0.360(1) 0.7638(6)
C12 C 0.513(2) 0.348(1) 0.8052(6)
C13 C 0.445(2) 0.258(1) 0.7996(6)
C14 C 0.345(2) 0.243(1) 0.8443(6)
C15 C 0.244(2) 0.318(1) 0.8433(6)
C16 C 0.312(2) 0.404(1) 0.8411(6)
C17 C 0.857(2) 0.405(1) 0.8364(6)
C18 C 0.462(2) 0.104(1) 0.7080(7)
O1 O 0.812(1) 0.2969(6) 0.7216(3)
O2 O 1.171(1) 0.2237(6) 0.7034(4)
O3 O 0.551(1) 0.1923(6) 0.8035(4)
O4 O 0.409(1) 0.4116(7) 0.7994(4)
H1 H 1.0045 0.3125 0.7583
H2 H 0.9629 0.1975 0.6730
H3 H 0.5588 0.3493 0.8392
H4 H 0.3952 0.2611 0.7656
H5 H 1.3082 0.2884 0.6620
H6 H 1.1709 0.2752 0.6325
H7 H 1.1906 0.4195 0.6551
H8 H 1.2075 0.3943 0.7136
H9 H 0.9572 0.3658 0.6548
H10 H 0.9672 0.4290 0.7019
H11 H 1.0140 0.1557 0.7777
H12 H 1.0728 0.0933 0.7358
H13 H 0.8704 0.0285 0.7406
H14 H 0.8217 0.1030 0.7042
H15 H 0.8006 0.1314 0.8098
H16 H 0.6951 0.0678 0.7855
H17 H 0.5826 0.3578 0.7283
H18 H 0.6677 0.4157 0.7658
H19 H 0.3981 0.2410 0.8778
H20 H 0.3052 0.1844 0.8423
H21 H 0.1783 0.3132 0.8724
H22 H 0.1852 0.3108 0.8118
H23 H 0.3463 0.4144 0.8757
H24 H 0.2353 0.4477 0.8371
H49 H 0.8641 0.4271 0.8011
H50 H 0.7866 0.4379 0.8532
H51 H 0.9426 0.4185 0.8532
H52 H 0.4246 0.0922 0.6736
H53 H 0.4915 0.0487 0.7211
H54 H 0.3798 0.1191 0.7288
S3 S 0.5992(5) -0.0744(3) 0.4167(2)
S4 S 0.8336(5) 0.0330(3) 0.5476(2)
C19 C 1.215(2) 0.015(1) 0.3836(7)
C20 C 1.171(2) 0.104(1) 0.3932(6)
C21 C 1.015(2) 0.105(1) 0.4009(6)
C22 C 0.973(2) 0.037(1) 0.4405(6)
C23 C 1.028(2) -0.053(1) 0.4247(6)
C24 C 1.011(2) -0.125(1) 0.4657(6)
C25 C 0.863(2) -0.172(1) 0.4615(5)
C26 C 0.755(2) -0.142(1) 0.4985(6)
C27 C 0.672(2) -0.0621(9) 0.4832(5)
C28 C 0.738(2) 0.0266(9) 0.4842(5)
C29 C 0.638(2) 0.100(1) 0.4815(6)
C30 C 0.528(2) 0.093(1) 0.5221(6)
C31 C 0.462(2) 0.003(1) 0.5178(6)
C32 C 0.352(2) -0.007(1) 0.5612(6)
C33 C 0.253(2) 0.066(1) 0.5575(7)
C34 C 0.321(2) 0.153(1) 0.5566(6)
C35 C 0.866(2) 0.146(1) 0.5543(7)
C36 C 0.481(2) -0.162(1) 0.4273(7)
O5 O 0.823(1) 0.0345(6) 0.4386(4)
O6 O 1.177(1) -0.0449(7) 0.4228(4)
O7 O 0.562(1) -0.0646(6) 0.5220(4)
O8 O 0.424(1) 0.1580(7) 0.5142(4)
H25 H 1.0184 0.0556 0.4732
H26 H 0.9739 -0.0716 0.3939
H27 H 0.5674 0.0979 0.5572
H28 H 0.4135 0.0008 0.4823
H29 H 1.3094 0.0173 0.3751
H30 H 1.1680 0.0009 0.3492
H31 H 1.1962 0.1469 0.3666
H32 H 1.2114 0.1259 0.4256
H33 H 0.9718 0.0904 0.3670
H34 H 0.9802 0.1618 0.4096
H35 H 1.0234 -0.1044 0.5011
H36 H 1.0822 -0.1714 0.4618
H37 H 0.8655 -0.2332 0.4622
H38 H 0.8233 -0.1564 0.4265
H39 H 0.8061 -0.1308 0.5309
H40 H 0.6954 -0.1897 0.5057
H41 H 0.6011 0.1031 0.4467
H42 H 0.6919 0.1538 0.4861
H43 H 0.3982 -0.0052 0.5953
H44 H 0.3045 -0.0612 0.5598
H45 H 0.1902 0.0634 0.5854
H46 H 0.2077 0.0610 0.5250
H47 H 0.3712 0.1621 0.5915
H48 H 0.2584 0.1996 0.5552
H55 H 0.9168 0.1681 0.5248
H56 H 0.7833 0.1788 0.5571
H57 H 0.9204 0.1578 0.5852
H58 H 0.3980 -0.1522 0.4476
H59 H 0.4586 -0.1868 0.3947
H60 H 0.5334 -0.2070 0.4469
loop_
_geom_bond_atom_site_label_1
_geom_bond_atom_site_label_2
_geom_bond_site_symmetry_1
_geom_bond_site_symmetry_2
S1 C9 1_555 1_555
S2 C10 1_555 1_555
C1 C2 1_555 1_555
C2 C3 1_555 1_555
C3 C4 1_555 1_555
C4 C5 1_555 1_555
C5 C6 1_555 1_555
C6 C7 1_555 1_555
C7 C8 1_555 1_555
C8 C9 1_555 1_555
C9 C10 1_555 1_555
C10 C11 1_555 1_555
C11 C12 1_555 1_555
C12 C13 1_555 1_555
C13 C14 1_555 1_555
C14 C15 1_555 1_555
C15 C16 1_555 1_555
C16 O4 1_555 1_555
C17 S2 1_555 1_555
C18 S1 1_555 1_555
O1 C4 1_555 1_555
O2 C1 1_555 1_555
O3 C9 1_555 1_555
O4 C12 1_555 1_555
S3 C27 1_555 1_555
S4 C28 1_555 1_555
C19 C20 1_555 1_555
C20 C21 1_555 1_555
C21 C22 1_555 1_555
C22 C23 1_555 1_555
C23 C24 1_555 1_555
C24 C25 1_555 1_555
C25 C26 1_555 1_555
C26 C27 1_555 1_555
C27 C28 1_555 1_555
C28 C29 1_555 1_555
C29 C30 1_555 1_555
C30 C31 1_555 1_555
C31 C32 1_555 1_555
C32 C33 1_555 1_555
C33 C34 1_555 1_555
C34 O8 1_555 1_555
C35 S4 1_555 1_555
C36 S3 1_555 1_555
O5 C22 1_555 1_555
O6 C19 1_555 1_555
O7 C27 1_555 1_555
O8 C30 1_555 1_555
H1 C4 1_555 1_555
H2 C5 1_555 1_555
H3 C12 1_555 1_555
H4 C13 1_555 1_555
H5 C1 1_555 1_555
H6 C1 1_555 1_555
H7 C2 1_555 1_555
H8 C2 1_555 1_555
H9 C3 1_555 1_555
H10 C3 1_555 1_555
H11 C6 1_555 1_555
H12 C6 1_555 1_555
H13 C7 1_555 1_555
H14 C7 1_555 1_555
H15 C8 1_555 1_555
H16 C8 1_555 1_555
H17 C11 1_555 1_555
H18 C11 1_555 1_555
H19 C14 1_555 1_555
H20 C14 1_555 1_555
H21 C15 1_555 1_555
H22 C15 1_555 1_555
H23 C16 1_555 1_555
H24 C16 1_555 1_555
H25 C22 1_555 1_555
H26 C23 1_555 1_555
H27 C30 1_555 1_555
H28 C31 1_555 1_555
H29 C19 1_555 1_555
H30 C19 1_555 1_555
H31 C20 1_555 1_555
H32 C20 1_555 1_555
H33 C21 1_555 1_555
H34 C21 1_555 1_555
H35 C24 1_555 1_555
H36 C24 1_555 1_555
H37 C25 1_555 1_555
H38 C25 1_555 1_555
H39 C26 1_555 1_555
H40 C26 1_555 1_555
H41 C29 1_555 1_555
H42 C29 1_555 1_555
H43 C32 1_555 1_555
H44 C32 1_555 1_555
H45 C33 1_555 1_555
H46 C33 1_555 1_555
H47 C34 1_555 1_555
H48 C34 1_555 1_555
H49 C17 1_555 1_555
H50 C17 1_555 1_555
H51 C17 1_555 1_555
H52 C18 1_555 1_555
H53 C18 1_555 1_555
H54 C18 1_555 1_555
H55 C35 1_555 1_555
H56 C35 1_555 1_555
H57 C35 1_555 1_555
H58 C36 1_555 1_555
H59 C36 1_555 1_555
H60 C36 1_555 1_555
C5 O2 1_555 1_555
C10 O1 1_555 1_555
C13 O3 1_555 1_555
C23 O6 1_555 1_555
C28 O5 1_555 1_555
C31 O7 1_555 1_555

#END
