
#######################################################################
#
#                 Cambridge Crystallographic Data Centre
#                                CCDC 
#
#######################################################################
#
# If this CIF has been generated from an entry in the Cambridge 
# Structural Database, then it will include bibliographic, chemical, 
# crystal, experimental, refinement or atomic coordinate data resulting 
# from the CCDC's data processing and validation procedures.
#
#######################################################################

data_KEVTAH
_chemical_formula_moiety         'C23 H30 N2 O1'
_chemical_name_systematic        
(1-(1-Methyl-S-pyrrolidin-2-ylmethyl)-S-pyrrolidin-2-yl)diphenylmethanol
_symmetry_cell_setting           monoclinic
_symmetry_space_group_name_H-M   'P 21'
_symmetry_Int_Tables_number      4
_space_group_name_Hall           'P 2yb'
loop_
_symmetry_equiv_pos_site_id
_symmetry_equiv_pos_as_xyz
1 x,y,z
2 -x,1/2+y,-z
_cell_length_a                   10.185(5)
_cell_length_b                   8.958(4)
_cell_length_c                   11.103(5)
_cell_angle_alpha                90
_cell_angle_beta                 103.645(9)
_cell_angle_gamma                90
_cell_volume                     984.416
_exptl_crystal_colour            colorless
_chemical_melting_point          '109-111 deg.C'
_cell_formula_units_Z            2
loop_
_atom_site_label
_atom_site_type_symbol
_atom_site_fract_x
_atom_site_fract_y
_atom_site_fract_z
O1 O 0.4576(2) 0.6367(3) 0.0438(2)
H1 H 0.3771 0.6662 0.0285
N1 N 0.2569(3) 0.6076(3) 0.1711(3)
N2 N 0.0523(3) 0.8135(3) 0.3569(3)
C1 C 0.3803(3) 0.5120(4) 0.2045(3)
H2 H 0.4021 0.4911 0.2955
C2 C 0.3433(4) 0.3649(4) 0.1325(4)
H3 H 0.4160 0.3337 0.0923
H4 H 0.3273 0.2840 0.1881
C3 C 0.2163(5) 0.4017(7) 0.0376(7)
H5 H 0.2379 0.4356 -0.0404
H6 H 0.1571 0.3129 0.0195
C4 C 0.1507(4) 0.5187(5) 0.0898(4)
H7 H 0.0894 0.4757 0.1378
H8 H 0.0968 0.5821 0.0231
C5 C 0.2136(4) 0.6654(4) 0.2789(4)
H9 H 0.2946 0.6984 0.3415
H10 H 0.1717 0.5829 0.3159
C6 C 0.1145(4) 0.7939(4) 0.2519(4)
H11 H 0.0429 0.7715 0.1755
C7 C 0.1803(5) 0.9447(5) 0.2368(5)
H12 H 0.2760 0.9313 0.2339
H13 H 0.1317 0.9955 0.1601
C8 C 0.1696(6) 1.0322(5) 0.3493(5)
H14 H 0.1627 1.1406 0.3314
H15 H 0.2482 1.0137 0.4193
C9 C 0.0412(5) 0.9730(5) 0.3768(5)
H16 H 0.0372 0.9948 0.4633
H17 H -0.0396 1.0156 0.3196
C10 C -0.0754(5) 0.7375(5) 0.3430(5)
H18 H -0.1393 0.7746 0.2688
H19 H -0.1113 0.7564 0.4160
H20 H -0.0621 0.6300 0.3347
C11 C 0.5001(3) 0.5963(4) 0.1713(3)
C12 C 0.6240(3) 0.4971(4) 0.1828(3)
C13 C 0.6908(4) 0.4872(4) 0.0879(3)
H21 H 0.6590 0.5427 0.0138
C14 C 0.8049(4) 0.3960(5) 0.1004(4)
H22 H 0.8483 0.3882 0.0337
C15 C 0.8548(4) 0.3182(5) 0.2071(4)
H23 H 0.9334 0.2583 0.2156
C16 C 0.7897(4) 0.3277(4) 0.3023(4)
H24 H 0.8238 0.2735 0.3767
C17 C 0.6751(4) 0.4151(4) 0.2915(4)
H25 H 0.6309 0.4195 0.3578
C18 C 0.5385(3) 0.7361(4) 0.2515(4)
C19 C 0.5668(4) 0.7320(4) 0.3804(3)
H26 H 0.5602 0.6401 0.4212
C20 C 0.6042(4) 0.8595(5) 0.4498(4)
H27 H 0.6239 0.8537 0.5377
C21 C 0.6135(4) 0.9941(5) 0.3943(4)
H28 H 0.6376 1.0816 0.4428
C22 C 0.5872(4) 1.0008(5) 0.2661(4)
H29 H 0.5940 1.0934 0.2263
C23 C 0.5508(4) 0.8727(4) 0.1959(4)
H30 H 0.5339 0.8786 0.1082
loop_
_geom_bond_atom_site_label_1
_geom_bond_atom_site_label_2
_geom_bond_site_symmetry_1
_geom_bond_site_symmetry_2
O1 H1 1_555 1_555
N1 C1 1_555 1_555
N2 C6 1_555 1_555
C1 H2 1_555 1_555
C2 C1 1_555 1_555
H3 C2 1_555 1_555
H4 C2 1_555 1_555
C3 C2 1_555 1_555
H5 C3 1_555 1_555
H6 C3 1_555 1_555
C4 N1 1_555 1_555
H7 C4 1_555 1_555
H8 C4 1_555 1_555
C5 N1 1_555 1_555
H9 C5 1_555 1_555
H10 C5 1_555 1_555
C6 C5 1_555 1_555
H11 C6 1_555 1_555
C7 C6 1_555 1_555
H12 C7 1_555 1_555
H13 C7 1_555 1_555
C8 C7 1_555 1_555
H14 C8 1_555 1_555
H15 C8 1_555 1_555
C9 N2 1_555 1_555
H16 C9 1_555 1_555
H17 C9 1_555 1_555
C10 N2 1_555 1_555
H18 C10 1_555 1_555
H19 C10 1_555 1_555
H20 C10 1_555 1_555
C11 O1 1_555 1_555
C12 C11 1_555 1_555
C13 C12 1_555 1_555
H21 C13 1_555 1_555
C14 C13 1_555 1_555
H22 C14 1_555 1_555
C15 C14 1_555 1_555
H23 C15 1_555 1_555
C16 C15 1_555 1_555
H24 C16 1_555 1_555
C17 C12 1_555 1_555
H25 C17 1_555 1_555
C18 C11 1_555 1_555
C19 C18 1_555 1_555
H26 C19 1_555 1_555
C20 C19 1_555 1_555
H27 C20 1_555 1_555
C21 C20 1_555 1_555
H28 C21 1_555 1_555
C22 C21 1_555 1_555
H29 C22 1_555 1_555
C23 C18 1_555 1_555
H30 C23 1_555 1_555
C1 C11 1_555 1_555
C3 C4 1_555 1_555
C8 C9 1_555 1_555
C16 C17 1_555 1_555
C22 C23 1_555 1_555

#END
