
#######################################################################
#
#                 Cambridge Crystallographic Data Centre
#                                CCDC 
#
#######################################################################
#
# If this CIF has been generated from an entry in the Cambridge 
# Structural Database, then it will include bibliographic, chemical, 
# crystal, experimental, refinement or atomic coordinate data resulting 
# from the CCDC's data processing and validation procedures.
#
#######################################################################

data_KEVVIT
_chemical_formula_moiety         'C21 H25 N1 O2 S1'
_chemical_name_systematic        
1-[(4-methylphenyl)sulfonyl]-4-(1-phenylprop-1-en-2-yl)piperidine
_symmetry_cell_setting           monoclinic
_symmetry_space_group_name_H-M   'P 21/c'
_symmetry_Int_Tables_number      14
_space_group_name_Hall           '-P 2ybc'
loop_
_symmetry_equiv_pos_site_id
_symmetry_equiv_pos_as_xyz
1 x,y,z
2 -x,1/2+y,1/2-z
3 -x,-y,-z
4 x,1/2-y,1/2+z
_cell_length_a                   18.5181(8)
_cell_length_b                   8.2910(3)
_cell_length_c                   12.5064(5)
_cell_angle_alpha                90
_cell_angle_beta                 99.496(4)
_cell_angle_gamma                90
_cell_volume                     1893.84
_exptl_crystal_description       block
_cell_formula_units_Z            4
loop_
_atom_site_label
_atom_site_type_symbol
_atom_site_fract_x
_atom_site_fract_y
_atom_site_fract_z
S1 S -0.33379(3) 0.18245(6) -0.05325(4)
N1 N -0.24914(8) 0.18862(17) 0.01116(12)
O1 O -0.36820(10) 0.32794(18) -0.02545(17)
O2 O -0.33031(9) 0.1473(2) -0.16380(12)
C1 C 0.09844(9) 0.2739(2) 0.14714(13)
C2 C -0.37539(9) 0.0193(2) 0.00210(15)
C3 C -0.23915(11) 0.2328(2) 0.12637(16)
H1 H -0.2512 0.1416 0.1687
H2 H -0.2716 0.3212 0.1367
C4 C -0.10594(9) 0.1507(2) 0.14402(13)
H3 H -0.1164 0.0557 0.1856
C5 C -0.02742(10) 0.1987(2) 0.18539(12)
C6 C -0.20155(10) 0.0540(2) -0.00906(15)
H4 H -0.2105 0.0262 -0.0854
H5 H -0.2120 -0.0399 0.0321
C7 C -0.12231(10) 0.1043(2) 0.02482(14)
H6 H -0.1119 0.1953 -0.0189
H7 H -0.0906 0.0160 0.0116
C8 C -0.36819(10) -0.1341(2) -0.03843(16)
H8 H -0.3452 -0.1487 -0.0985
C9 C -0.16037(11) 0.2825(2) 0.16407(15)
H9 H -0.1535 0.3068 0.2409
H10 H -0.1503 0.3798 0.1262
C10 C 0.20062(12) 0.4286(3) 0.10467(19)
H11 H 0.2186 0.5043 0.0609
C11 C -0.42903(10) -0.2481(3) 0.09931(18)
C12 C 0.02074(9) 0.2293(2) 0.12023(13)
H12 H 0.0026 0.2213 0.0465
C13 C 0.14641(12) 0.2065(2) 0.23340(16)
H13 H 0.1291 0.1308 0.2779
C14 C 0.12791(10) 0.3840(3) 0.08304(15)
H14 H 0.0978 0.4291 0.0237
C15 C -0.40995(11) 0.0401(3) 0.09158(18)
H15 H -0.4153 0.1425 0.1197
C16 C -0.39489(11) -0.2647(2) 0.00981(17)
H16 H -0.3899 -0.3671 -0.0185
C17 C 0.24632(11) 0.3619(3) 0.1903(2)
H17 H 0.2953 0.3922 0.2050
C18 C -0.43632(11) -0.0944(3) 0.13820(18)
H18 H -0.4598 -0.0806 0.1978
C19 C 0.21970(12) 0.2511(3) 0.25350(19)
H19 H 0.2509 0.2044 0.3111
C20 C -0.00906(13) 0.2105(4) 0.30694(15)
H20 H -0.0492 0.2590 0.3347
H21 H 0.0340 0.2754 0.3265
H22 H -0.0002 0.1044 0.3371
C21 C -0.45729(14) -0.3926(3) 0.1526(2)
H23 H -0.4910 -0.4511 0.1001
H24 H -0.4818 -0.3574 0.2104
H25 H -0.4170 -0.4614 0.1813
loop_
_geom_bond_atom_site_label_1
_geom_bond_atom_site_label_2
_geom_bond_site_symmetry_1
_geom_bond_site_symmetry_2
S1 N1 1_555 1_555
N1 C3 1_555 1_555
O1 S1 1_555 1_555
O2 S1 1_555 1_555
C1 C12 1_555 1_555
C2 S1 1_555 1_555
C3 H1 1_555 1_555
H2 C3 1_555 1_555
C4 H3 1_555 1_555
C5 C4 1_555 1_555
C6 N1 1_555 1_555
H4 C6 1_555 1_555
H5 C6 1_555 1_555
C7 C4 1_555 1_555
H6 C7 1_555 1_555
H7 C7 1_555 1_555
C8 C2 1_555 1_555
H8 C8 1_555 1_555
C9 C3 1_555 1_555
H9 C9 1_555 1_555
H10 C9 1_555 1_555
C10 H11 1_555 1_555
C11 C16 1_555 1_555
C12 C5 1_555 1_555
H12 C12 1_555 1_555
C13 C1 1_555 1_555
H13 C13 1_555 1_555
C14 C1 1_555 1_555
H14 C14 1_555 1_555
C15 C2 1_555 1_555
H15 C15 1_555 1_555
C16 C8 1_555 1_555
H16 C16 1_555 1_555
C17 C10 1_555 1_555
H17 C17 1_555 1_555
C18 C11 1_555 1_555
H18 C18 1_555 1_555
C19 C13 1_555 1_555
H19 C19 1_555 1_555
C20 C5 1_555 1_555
H20 C20 1_555 1_555
H21 C20 1_555 1_555
H22 C20 1_555 1_555
C21 C11 1_555 1_555
H23 C21 1_555 1_555
H24 C21 1_555 1_555
H25 C21 1_555 1_555
C4 C9 1_555 1_555
C6 C7 1_555 1_555
C10 C14 1_555 1_555
C15 C18 1_555 1_555
C17 C19 1_555 1_555

#END
