
#######################################################################
#
#                 Cambridge Crystallographic Data Centre
#                                CCDC 
#
#######################################################################
#
# If this CIF has been generated from an entry in the Cambridge 
# Structural Database, then it will include bibliographic, chemical, 
# crystal, experimental, refinement or atomic coordinate data resulting 
# from the CCDC's data processing and validation procedures.
#
#######################################################################

data_KEVXAM
_chemical_formula_moiety         'C26 H18 O2 S1'
_chemical_name_systematic        'bis((6-methoxy-1-naphthyl)ethynyl) sulfide'
_symmetry_cell_setting           monoclinic
_symmetry_space_group_name_H-M   'P 21/c'
_symmetry_Int_Tables_number      14
_space_group_name_Hall           '-P 2ybc'
loop_
_symmetry_equiv_pos_site_id
_symmetry_equiv_pos_as_xyz
1 x,y,z
2 -x,1/2+y,1/2-z
3 -x,-y,-z
4 x,1/2-y,1/2+z
_cell_length_a                   11.1239(13)
_cell_length_b                   10.3796(12)
_cell_length_c                   17.756(2)
_cell_angle_alpha                90
_cell_angle_beta                 100.371(2)
_cell_angle_gamma                90
_cell_volume                     2016.64
_exptl_crystal_colour            colorless
_exptl_crystal_description       prismatic
_cell_formula_units_Z            4
loop_
_atom_site_label
_atom_site_type_symbol
_atom_site_fract_x
_atom_site_fract_y
_atom_site_fract_z
S1 S 0.56830(7) 0.41200(6) 0.21970(4)
O1 O 0.89284(15) 0.93750(14) -0.21876(8)
O2 O 0.12063(14) 0.86157(13) 0.63228(7)
C1 C 0.6084(2) 0.5157(2) 0.15598(12)
C2 C 0.6416(2) 0.5808(2) 0.10830(12)
C3 C 0.68432(19) 0.66523(19) 0.05477(11)
C4 C 0.69516(19) 0.62381(19) -0.01758(12)
H1 H 0.6704 0.5408 -0.0329
C5 C 0.74303(19) 0.70488(19) -0.06864(11)
C6 C 0.7574(2) 0.6643(2) -0.14245(11)
H2 H 0.7333 0.5818 -0.1590
C7 C 0.8059(2) 0.7441(2) -0.18926(12)
H3 H 0.8150 0.7153 -0.2375
C8 C 0.84270(19) 0.8698(2) -0.16629(11)
C9 C 0.8280(2) 0.91359(19) -0.09600(11)
H4 H 0.8505 0.9974 -0.0813
C10 C 0.77899(18) 0.83250(18) -0.04578(10)
C11 C 0.76409(19) 0.87284(19) 0.02820(11)
H5 H 0.7856 0.9565 0.0440
C12 C 0.7194(2) 0.79269(19) 0.07643(11)
H6 H 0.7115 0.8220 0.1248
C13 C 0.4913(2) 0.5058(2) 0.27221(11)
C14 C 0.4344(2) 0.55906(19) 0.31373(12)
C15 C 0.3610(2) 0.62146(18) 0.36192(11)
C16 C 0.40784(19) 0.64952(18) 0.43714(11)
H7 H 0.4895 0.6315 0.4565
C17 C 0.33480(19) 0.70499(17) 0.48554(10)
C18 C 0.3795(2) 0.73039(19) 0.56383(11)
H8 H 0.4603 0.7108 0.5845
C19 C 0.3066(2) 0.78274(19) 0.60916(11)
H9 H 0.3383 0.8000 0.6603
C20 C 0.18336(19) 0.81123(18) 0.57967(11)
C21 C 0.13579(19) 0.78748(17) 0.50432(10)
H10 H 0.0542 0.8060 0.4851
C22 C 0.21109(18) 0.73478(17) 0.45593(10)
C23 C 0.1655(2) 0.70744(19) 0.37796(10)
H11 H 0.0848 0.7275 0.3573
C24 C 0.2375(2) 0.65235(19) 0.33269(11)
H12 H 0.2051 0.6347 0.2817
C25 C 0.9301(3) 1.0667(2) -0.19946(15)
H13 H 0.8604 1.1167 -0.1923
H14 H 0.9654 1.1034 -0.2401
H15 H 0.9895 1.0668 -0.1530
C26 C -0.0038(2) 0.8953(2) 0.60665(13)
H16 H -0.0086 0.9649 0.5706
H17 H -0.0394 0.9217 0.6496
H18 H -0.0474 0.8222 0.5824
loop_
_geom_bond_atom_site_label_1
_geom_bond_atom_site_label_2
_geom_bond_site_symmetry_1
_geom_bond_site_symmetry_2
S1 C1 1_555 1_555
O1 C8 1_555 1_555
O2 C20 1_555 1_555
C1 C2 1_555 1_555
C2 C3 1_555 1_555
C3 C4 1_555 1_555
C4 H1 1_555 1_555
C5 C4 1_555 1_555
C6 C5 1_555 1_555
H2 C6 1_555 1_555
C7 C6 1_555 1_555
H3 C7 1_555 1_555
C8 C7 1_555 1_555
C9 C8 1_555 1_555
H4 C9 1_555 1_555
C10 C5 1_555 1_555
C11 C10 1_555 1_555
H5 C11 1_555 1_555
C12 C3 1_555 1_555
H6 C12 1_555 1_555
C13 S1 1_555 1_555
C14 C13 1_555 1_555
C15 C14 1_555 1_555
C16 C15 1_555 1_555
H7 C16 1_555 1_555
C17 C16 1_555 1_555
C18 C17 1_555 1_555
H8 C18 1_555 1_555
C19 C18 1_555 1_555
H9 C19 1_555 1_555
C20 C19 1_555 1_555
C21 C20 1_555 1_555
H10 C21 1_555 1_555
C22 C17 1_555 1_555
C23 C22 1_555 1_555
H11 C23 1_555 1_555
C24 C15 1_555 1_555
H12 C24 1_555 1_555
C25 O1 1_555 1_555
H13 C25 1_555 1_555
H14 C25 1_555 1_555
H15 C25 1_555 1_555
C26 O2 1_555 1_555
H16 C26 1_555 1_555
H17 C26 1_555 1_555
H18 C26 1_555 1_555
C9 C10 1_555 1_555
C11 C12 1_555 1_555
C21 C22 1_555 1_555
C23 C24 1_555 1_555

#END
