
#######################################################################
#
#                 Cambridge Crystallographic Data Centre
#                                CCDC 
#
#######################################################################
#
# If this CIF has been generated from an entry in the Cambridge 
# Structural Database, then it will include bibliographic, chemical, 
# crystal, experimental, refinement or atomic coordinate data resulting 
# from the CCDC's data processing and validation procedures.
#
#######################################################################

data_KEWQAF
_chemical_formula_moiety         'C54 H72 Si6,2(C6 H14)'
_chemical_name_systematic        
"5,5',5'',5''',5'''',5'''''-hexatrimethylsilylhexa-m-phenylene hexane solvate"
_symmetry_cell_setting           orthorhombic
_symmetry_space_group_name_H-M   'C c m b'
_symmetry_Int_Tables_number      64
_space_group_name_Hall           '-C 2bc 2bc'
loop_
_symmetry_equiv_pos_site_id
_symmetry_equiv_pos_as_xyz
1 x,y,z
2 1/2+x,1/2+y,z
3 1/2+x,-y,1/2-z
4 x,1/2-y,1/2-z
5 -x,y,-z
6 1/2-x,1/2+y,-z
7 1/2-x,-y,1/2+z
8 -x,1/2-y,1/2+z
9 -x,-y,-z
10 1/2-x,1/2-y,-z
11 1/2-x,y,1/2+z
12 -x,1/2+y,1/2+z
13 x,-y,z
14 1/2+x,1/2-y,z
15 1/2+x,y,1/2-z
16 x,1/2+y,1/2-z
_cell_length_a                   11.8698(4)
_cell_length_b                   21.1929(6)
_cell_length_c                   26.2232(7)
_cell_angle_alpha                90
_cell_angle_beta                 90
_cell_angle_gamma                90
_cell_volume                     6596.59
_exptl_crystal_colour            white
_exptl_crystal_description       prism
_cell_formula_units_Z            4
loop_
_atom_site_label
_atom_site_type_symbol
_atom_site_fract_x
_atom_site_fract_y
_atom_site_fract_z
Si1 Si -0.15915(6) 0.0000 0.27609(3)
Si2 Si 0.12921(4) 0.29368(2) 0.144659(18)
C1 C -0.1015(2) 0.0000 0.20918(9)
C2 C -0.03024(14) 0.05768(8) 0.13524(6)
C3 C -0.00411(14) 0.11777(8) 0.10828(6)
C4 C 0.06521(15) 0.22650(8) 0.10791(6)
C5 C 0.00685(15) 0.17603(8) 0.02813(6)
C6 C -0.07706(15) 0.05677(8) 0.18418(6)
C7 C -0.0075(2) 0.000000(7) 0.11151(9)
C8 C 0.03745(15) 0.17039(8) 0.13358(6)
C9 C 0.04842(15) 0.22824(8) 0.05501(6)
C10 C -0.01979(15) 0.12160(8) 0.05541(6)
H1 H -0.09265(15) 0.09560(8) 0.20085(6)
H2 H 0.0248(2) 0.000000(7) 0.07835(9)
H3 H 0.04791(15) 0.16837(8) 0.16945(6)
H4 H 0.06530(15) 0.26586(8) 0.03685(6)
H5 H -0.04948(15) 0.08620(8) 0.03771(6)
C11 C -0.0361(3) 0.000000(7) 0.32046(11)
H6 H -0.0617(3) 0.000000(7) 0.35479(11)
H7 H 0.0085(3) -0.036403(7) 0.31424(11)
C12 C -0.24811(18) -0.07151(9) 0.28614(8)
H8 H -0.31044(18) -0.07047(9) 0.26343(8)
H9 H -0.27465(18) -0.07224(9) 0.32032(8)
H10 H -0.20446(18) -0.10825(9) 0.27977(8)
C13 C 0.25912(18) 0.2640(1) 0.17614(9)
H11 H 0.31141(18) 0.2504(1) 0.15102(9)
H12 H 0.29180(18) 0.2968(1) 0.19588(9)
H13 H 0.24037(18) 0.2296(1) 0.19774(9)
C14 C 0.0276(2) 0.3204(1) 0.19429(8)
H14 H -0.0387(2) 0.3356(1) 0.17815(8)
H15 H 0.0604(2) 0.3532(1) 0.21401(8)
H16 H 0.0089(2) 0.2859(1) 0.21587(8)
C15 C 0.1655(2) 0.3606(1) 0.10167(8)
H17 H 0.2177(2) 0.3465(1) 0.07667(8)
H18 H 0.1984(2) 0.3938(1) 0.12099(8)
H19 H 0.0992(2) 0.3756(1) 0.08534(8)
Si1H Si 0.15915(6) 0.0000 -0.27609(3)
Si2D Si -0.12921(4) 0.29368(2) -0.144659(18)
Si2H Si -0.12921(4) -0.29368(2) -0.144659(18)
Si2L Si 0.12921(4) -0.29368(2) 0.144659(18)
C1H C 0.1015(2) 0.0000 -0.20918(9)
C2D C 0.03024(14) 0.05768(8) -0.13524(6)
C2H C 0.03024(14) -0.05768(8) -0.13524(6)
C2L C -0.03024(14) -0.05768(8) 0.13524(6)
C3D C 0.00411(14) 0.11777(8) -0.10828(6)
C3H C 0.00411(14) -0.11777(8) -0.10828(6)
C3L C -0.00411(14) -0.11777(8) 0.10828(6)
C4D C -0.06521(15) 0.22650(8) -0.10791(6)
C4H C -0.06521(15) -0.22650(8) -0.10791(6)
C4L C 0.06521(15) -0.22650(8) 0.10791(6)
C5D C -0.00685(15) 0.17603(8) -0.02813(6)
C5H C -0.00685(15) -0.17603(8) -0.02813(6)
C5L C 0.00685(15) -0.17603(8) 0.02813(6)
C6D C 0.07706(15) 0.05677(8) -0.18418(6)
C6H C 0.07706(15) -0.05677(8) -0.18418(6)
C6L C -0.07706(15) -0.05677(8) 0.18418(6)
C7H C 0.0075(2) 0.000000(7) -0.11151(9)
C8D C -0.03745(15) 0.17039(8) -0.13358(6)
C8H C -0.03745(15) -0.17039(8) -0.13358(6)
C8L C 0.03745(15) -0.17039(8) 0.13358(6)
C9D C -0.04842(15) 0.22824(8) -0.05501(6)
C9H C -0.04842(15) -0.22824(8) -0.05501(6)
C9L C 0.04842(15) -0.22824(8) 0.05501(6)
C10L C -0.01979(15) -0.12160(8) 0.05541(6)
C10H C 0.01979(15) -0.12160(8) -0.05541(6)
C10D C 0.01979(15) 0.12160(8) -0.05541(6)
H1L H -0.09265(15) -0.09560(8) 0.20085(6)
H1H H 0.09265(15) -0.09560(8) -0.20085(6)
H1D H 0.09265(15) 0.09560(8) -0.20085(6)
H2H H -0.0248(2) 0.000000(7) -0.07835(9)
H3L H 0.04791(15) -0.16837(8) 0.16945(6)
H3H H -0.04791(15) -0.16837(8) -0.16945(6)
H3D H -0.04791(15) 0.16837(8) -0.16945(6)
H4L H 0.06530(15) -0.26586(8) 0.03685(6)
H4H H -0.06530(15) -0.26586(8) -0.03685(6)
H4D H -0.06530(15) 0.26586(8) -0.03685(6)
H5L H -0.04948(15) -0.08620(8) 0.03771(6)
H5H H 0.04948(15) -0.08620(8) -0.03771(6)
H5D H 0.04948(15) 0.08620(8) -0.03771(6)
C11H C 0.0361(3) 0.000000(7) -0.32046(11)
H6H H 0.0617(3) 0.000000(7) -0.35479(11)
H7D H -0.0085(3) -0.036403(7) -0.31424(11)
H7H H -0.0085(3) 0.036403(7) -0.31424(11)
H7L H 0.0085(3) 0.036403(7) 0.31424(11)
C12D C 0.24811(18) -0.07151(9) -0.28614(8)
C12H C 0.24811(18) 0.07151(9) -0.28614(8)
C12L C -0.24811(18) 0.07151(9) 0.28614(8)
H8D H 0.31044(18) -0.07047(9) -0.26343(8)
H8H H 0.31044(18) 0.07047(9) -0.26343(8)
H8L H -0.31044(18) 0.07047(9) 0.26343(8)
H9D H 0.27465(18) -0.07224(9) -0.32032(8)
H9H H 0.27465(18) 0.07224(9) -0.32032(8)
H9L H -0.27465(18) 0.07224(9) 0.32032(8)
H10D H 0.20446(18) -0.10825(9) -0.27977(8)
H10H H 0.20446(18) 0.10825(9) -0.27977(8)
H10L H -0.20446(18) 0.10825(9) 0.27977(8)
C13D C -0.25912(18) 0.2640(1) -0.17614(9)
C13H C -0.25912(18) -0.2640(1) -0.17614(9)
C13L C 0.25912(18) -0.2640(1) 0.17614(9)
H11D H -0.31141(18) 0.2504(1) -0.15102(9)
H11H H -0.31141(18) -0.2504(1) -0.15102(9)
H11L H 0.31141(18) -0.2504(1) 0.15102(9)
H12D H -0.29180(18) 0.2968(1) -0.19588(9)
H12H H -0.29180(18) -0.2968(1) -0.19588(9)
H12L H 0.29180(18) -0.2968(1) 0.19588(9)
H13D H -0.24037(18) 0.2296(1) -0.19774(9)
H13H H -0.24037(18) -0.2296(1) -0.19774(9)
H13L H 0.24037(18) -0.2296(1) 0.19774(9)
C14D C -0.0276(2) 0.3204(1) -0.19429(8)
C14H C -0.0276(2) -0.3204(1) -0.19429(8)
C14L C 0.0276(2) -0.3204(1) 0.19429(8)
H14D H 0.0387(2) 0.3356(1) -0.17815(8)
H14H H 0.0387(2) -0.3356(1) -0.17815(8)
H14L H -0.0387(2) -0.3356(1) 0.17815(8)
H15D H -0.0604(2) 0.3532(1) -0.21401(8)
H15H H -0.0604(2) -0.3532(1) -0.21401(8)
H15L H 0.0604(2) -0.3532(1) 0.21401(8)
H16D H -0.0089(2) 0.2859(1) -0.21587(8)
H16H H -0.0089(2) -0.2859(1) -0.21587(8)
H16L H 0.0089(2) -0.2859(1) 0.21587(8)
C15D C -0.1655(2) 0.3606(1) -0.10167(8)
C15H C -0.1655(2) -0.3606(1) -0.10167(8)
C15L C 0.1655(2) -0.3606(1) 0.10167(8)
H17D H -0.2177(2) 0.3465(1) -0.07667(8)
H17H H -0.2177(2) -0.3465(1) -0.07667(8)
H17L H 0.2177(2) -0.3465(1) 0.07667(8)
H18D H -0.1984(2) 0.3938(1) -0.12099(8)
H18H H -0.1984(2) -0.3938(1) -0.12099(8)
H18L H 0.1984(2) -0.3938(1) 0.12099(8)
H19D H -0.0992(2) 0.3756(1) -0.08534(8)
H19H H -0.0992(2) -0.3756(1) -0.08534(8)
H19L H 0.0992(2) -0.3756(1) 0.08534(8)
C16 C 0.3256(3) 0.14441(17) 0.05250(15)
H20 H 0.3844(3) 0.16914(17) 0.06680(15)
H21 H 0.3017(3) 0.16279(17) 0.02128(15)
H22 H 0.2640(3) 0.14286(17) 0.07559(15)
C17 C 0.3647(7) 0.0827(3) 0.0433(3)
H23 H 0.4267(7) 0.0852(3) 0.0205(3)
H24 H 0.3890(7) 0.0652(3) 0.0748(3)
C20 C 0.3256(7) 0.0306(3) 0.0405(3)
C16L C 0.3256(3) -0.14441(17) 0.05250(15)
H20L H 0.3844(3) -0.16914(17) 0.06680(15)
H21L H 0.3017(3) -0.16279(17) 0.02128(15)
H22L H 0.2640(3) -0.14286(17) 0.07559(15)
C17L C 0.3647(7) -0.0827(3) 0.0433(3)
H23L H 0.4267(7) -0.0852(3) 0.0205(3)
H24L H 0.3890(7) -0.0652(3) 0.0748(3)
C20L C 0.3256(7) -0.0306(3) 0.0405(3)
C18? C 0.2748(7) 0.0351(3) 0.0171(3)
H25? H 0.2713(7) 0.0376(3) -0.0190(3)
H26? H 0.2016(7) 0.0412(3) 0.0309(3)
C19? C 0.2816(7) 0.0793(3) 0.0489(3)
H27? H 0.2482(7) 0.0720(3) 0.0813(3)
H28? H 0.2246(7) 0.0805(3) 0.0235(3)
H29? H 0.3641(7) 0.0200(3) 0.0711(3)
H30? H 0.3788(7) 0.0426(3) 0.0152(3)
loop_
_geom_bond_atom_site_label_1
_geom_bond_atom_site_label_2
_geom_bond_site_symmetry_1
_geom_bond_site_symmetry_2
Si1 C1 1_555 1_555
Si2 C4 1_555 1_555
C1 C6 1_555 1_555
C2 C3 1_555 1_555
C3 C8 1_555 1_555
C4 C8 1_555 1_555
C5 C9 1_555 1_555
C6 C2 1_555 1_555
C7 C2 1_555 1_555
C8 H3 1_555 1_555
C9 C4 1_555 1_555
C10 C3 1_555 1_555
H1 C6 1_555 1_555
H2 C7 1_555 1_555
H4 C9 1_555 1_555
H5 C10 1_555 1_555
C11 Si1 1_555 1_555
H6 C11 1_555 1_555
H7 C11 1_555 1_555
C12 Si1 1_555 1_555
H8 C12 1_555 1_555
H9 C12 1_555 1_555
H10 C12 1_555 1_555
C13 Si2 1_555 1_555
H11 C13 1_555 1_555
H12 C13 1_555 1_555
H13 C13 1_555 1_555
C14 Si2 1_555 1_555
H14 C14 1_555 1_555
H15 C14 1_555 1_555
H16 C14 1_555 1_555
C15 Si2 1_555 1_555
H17 C15 1_555 1_555
H18 C15 1_555 1_555
H19 C15 1_555 1_555
C16 H20 1_555 1_555
H21 C16 1_555 1_555
H22 C16 1_555 1_555
C17 C16 1_555 1_555
H23 C17 1_555 1_555
H24 C17 1_555 1_555
C20 C17 1_555 1_555
Si1H C1H 1_555 1_555
Si2D C4D 1_555 1_555
Si2H C4H 1_555 1_555
Si2L C4L 1_555 1_555
C1H C6D 1_555 1_555
C2D C3D 1_555 1_555
C2H C3H 1_555 1_555
C2L C7 1_555 1_555
C3D C8D 1_555 1_555
C3H C8H 1_555 1_555
C3L C2L 1_555 1_555
C4D C8D 1_555 1_555
C4H C8H 1_555 1_555
C4L C8L 1_555 1_555
C5D C5 1_555 1_555
C5H C5L 1_555 1_555
C5L C9L 1_555 1_555
C6D C2D 1_555 1_555
C6H C1H 1_555 1_555
C6L C1 1_555 1_555
C7H C2D 1_555 1_555
C8D H3D 1_555 1_555
C8H H3H 1_555 1_555
C8L C3L 1_555 1_555
C9D C4D 1_555 1_555
C9H C4H 1_555 1_555
C9L C4L 1_555 1_555
C10L C3L 1_555 1_555
C10H C3H 1_555 1_555
C10D C3D 1_555 1_555
H1L C6L 1_555 1_555
H1H C6H 1_555 1_555
H1D C6D 1_555 1_555
H2H C7H 1_555 1_555
H3L C8L 1_555 1_555
H4L C9L 1_555 1_555
H4H C9H 1_555 1_555
H4D C9D 1_555 1_555
H5L C10L 1_555 1_555
H5H C10H 1_555 1_555
H5D C10D 1_555 1_555
C11H Si1H 1_555 1_555
H6H C11H 1_555 1_555
H7D C11H 1_555 1_555
H7H C11H 1_555 1_555
H7L C11 1_555 1_555
C12D Si1H 1_555 1_555
C12H Si1H 1_555 1_555
C12L Si1 1_555 1_555
H8D C12D 1_555 1_555
H8H C12H 1_555 1_555
H8L C12L 1_555 1_555
H9D C12D 1_555 1_555
H9H C12H 1_555 1_555
H9L C12L 1_555 1_555
H10D C12D 1_555 1_555
H10H C12H 1_555 1_555
H10L C12L 1_555 1_555
C13D Si2D 1_555 1_555
C13H Si2H 1_555 1_555
C13L Si2L 1_555 1_555
H11D C13D 1_555 1_555
H11H C13H 1_555 1_555
H11L C13L 1_555 1_555
H12D C13D 1_555 1_555
H12H C13H 1_555 1_555
H12L C13L 1_555 1_555
H13D C13D 1_555 1_555
H13H C13H 1_555 1_555
H13L C13L 1_555 1_555
C14D Si2D 1_555 1_555
C14H Si2H 1_555 1_555
C14L Si2L 1_555 1_555
H14D C14D 1_555 1_555
H14H C14H 1_555 1_555
H14L C14L 1_555 1_555
H15D C14D 1_555 1_555
H15H C14H 1_555 1_555
H15L C14L 1_555 1_555
H16D C14D 1_555 1_555
H16H C14H 1_555 1_555
H16L C14L 1_555 1_555
C15D Si2D 1_555 1_555
C15H Si2H 1_555 1_555
C15L Si2L 1_555 1_555
H17D C15D 1_555 1_555
H17H C15H 1_555 1_555
H17L C15L 1_555 1_555
H18D C15D 1_555 1_555
H18H C15H 1_555 1_555
H18L C15L 1_555 1_555
H19D C15D 1_555 1_555
H19H C15H 1_555 1_555
H19L C15L 1_555 1_555
C16L H20L 1_555 1_555
H21L C16L 1_555 1_555
H22L C16L 1_555 1_555
C17L C16L 1_555 1_555
H23L C17L 1_555 1_555
H24L C17L 1_555 1_555
C20L C20 1_555 1_555
C5 C10 1_555 1_555
C2H C6H 1_555 1_555
C2H C7H 1_555 1_555
C2L C6L 1_555 1_555
C5D C9D 1_555 1_555
C5D C10D 1_555 1_555
C5H C9H 1_555 1_555
C5H C10H 1_555 1_555
C5L C10L 1_555 1_555
C17L C20L 1_555 1_555

#END
