
#######################################################################
#
#                 Cambridge Crystallographic Data Centre
#                                CCDC 
#
#######################################################################
#
# If this CIF has been generated from an entry in the Cambridge 
# Structural Database, then it will include bibliographic, chemical, 
# crystal, experimental, refinement or atomic coordinate data resulting 
# from the CCDC's data processing and validation procedures.
#
#######################################################################

data_KEXSEO
_chemical_formula_moiety         'C20 H24 N2 O3 S1'
_chemical_name_systematic        
N'-(2-formylphenyl)-3,3-dimethyl-N-((4-methylphenyl)sulfonyl)butanimidamide
_symmetry_cell_setting           monoclinic
_symmetry_space_group_name_H-M   'P 21/n'
_symmetry_Int_Tables_number      14
_space_group_name_Hall           '-P 2yn'
loop_
_symmetry_equiv_pos_site_id
_symmetry_equiv_pos_as_xyz
1 x,y,z
2 1/2-x,1/2+y,1/2-z
3 -x,-y,-z
4 1/2+x,1/2-y,1/2+z
_cell_length_a                   11.377(3)
_cell_length_b                   10.4169(18)
_cell_length_c                   16.991(4)
_cell_angle_alpha                90
_cell_angle_beta                 103.81(2)
_cell_angle_gamma                90
_cell_volume                     1955.45
_exptl_crystal_description       block
_cell_formula_units_Z            4
loop_
_atom_site_label
_atom_site_type_symbol
_atom_site_fract_x
_atom_site_fract_y
_atom_site_fract_z
S1 S 0.18486(8) 0.41336(6) 0.41795(5)
O1 O 0.2698(3) 0.3625(3) 0.3765(2)
O2 O 0.0726(3) 0.4603(3) 0.36926(18)
N1 N 0.2391(2) 0.5233(2) 0.48434(16)
H1 H 0.202912 0.534886 0.522793
O3 O 0.5292(3) 0.8705(3) 0.5899(2)
N2 N 0.3708(2) 0.6775(2) 0.54666(17)
C1 C 0.3321(3) 0.5951(2) 0.48460(18)
C2 C 0.3302(3) 0.7029(3) 0.61676(18)
C3 C 0.4904(3) 0.8779(3) 0.6507(3)
H2 H 0.526361 0.938223 0.689314
C4 C 0.3921(3) 0.8004(3) 0.6685(2)
C5 C 0.1507(3) 0.2921(3) 0.48120(19)
C6 C 0.2200(3) 0.1823(3) 0.4952(2)
H3 H 0.286642 0.172847 0.472992
C7 C 0.2347(3) 0.6405(3) 0.6383(2)
H4 H 0.192511 0.576083 0.605412
C8 C 0.2023(3) 0.6748(3) 0.7095(2)
H5 H 0.137348 0.633618 0.723034
C9 C 0.0912(3) 0.0990(3) 0.5769(2)
C10 C 0.0236(3) 0.2104(4) 0.5616(2)
H6 H -0.043081 0.220266 0.583784
C11 C 0.4079(3) 0.6023(3) 0.4231(2)
H7 H 0.409179 0.517822 0.399361
H8 H 0.490289 0.622767 0.451512
C12 C 0.3587(3) 0.8295(3) 0.7398(2)
H9 H 0.401312 0.891784 0.774379
C13 C 0.0522(3) 0.3067(3) 0.5146(2)
H10 H 0.005772 0.381092 0.505208
C14 C 0.0599(5) -0.0037(5) 0.6302(3)
H11 H 0.095791 -0.083385 0.619758
H12 H -0.026393 -0.013239 0.618971
H13 H 0.090391 0.019782 0.685977
C15 C 0.2635(3) 0.7675(3) 0.7600(2)
H14 H 0.240949 0.788305 0.807535
C16 C 0.1893(4) 0.0867(3) 0.5426(3)
H15 H 0.235613 0.012164 0.551790
C17 C 0.2478(5) 0.6654(6) 0.2969(3)
H16 H 0.224562 0.730927 0.256395
H17 H 0.187159 0.658045 0.327389
H18 H 0.255539 0.584918 0.271044
C18 C 0.4650(6) 0.7137(9) 0.3102(4)
H19 H 0.470458 0.636436 0.280489
H20 H 0.540469 0.728404 0.348788
H21 H 0.447668 0.784866 0.273346
C19 C 0.3481(7) 0.8356(5) 0.3876(4)
H22 H 0.424050 0.867831 0.418728
H23 H 0.292071 0.828734 0.421581
H24 H 0.316227 0.893228 0.343571
C20 C 0.3675(4) 0.7005(4) 0.3531(3)
loop_
_geom_bond_atom_site_label_1
_geom_bond_atom_site_label_2
_geom_bond_site_symmetry_1
_geom_bond_site_symmetry_2
S1 O1 1_555 1_555
O2 S1 1_555 1_555
N1 S1 1_555 1_555
H1 N1 1_555 1_555
O3 C3 1_555 1_555
N2 C1 1_555 1_555
C1 N1 1_555 1_555
C2 N2 1_555 1_555
C3 H2 1_555 1_555
C4 C2 1_555 1_555
C5 S1 1_555 1_555
C6 C5 1_555 1_555
H3 C6 1_555 1_555
C7 C2 1_555 1_555
H4 C7 1_555 1_555
C8 C7 1_555 1_555
H5 C8 1_555 1_555
C9 C10 1_555 1_555
C10 H6 1_555 1_555
C11 C1 1_555 1_555
H7 C11 1_555 1_555
H8 C11 1_555 1_555
C12 C4 1_555 1_555
H9 C12 1_555 1_555
C13 C5 1_555 1_555
H10 C13 1_555 1_555
C14 C9 1_555 1_555
H11 C14 1_555 1_555
H12 C14 1_555 1_555
H13 C14 1_555 1_555
C15 C8 1_555 1_555
H14 C15 1_555 1_555
C16 C6 1_555 1_555
H15 C16 1_555 1_555
C17 H16 1_555 1_555
H17 C17 1_555 1_555
H18 C17 1_555 1_555
C18 H19 1_555 1_555
H20 C18 1_555 1_555
H21 C18 1_555 1_555
C19 H22 1_555 1_555
H23 C19 1_555 1_555
H24 C19 1_555 1_555
C20 C11 1_555 1_555
C3 C4 1_555 1_555
C9 C16 1_555 1_555
C10 C13 1_555 1_555
C12 C15 1_555 1_555
C17 C20 1_555 1_555
C18 C20 1_555 1_555
C19 C20 1_555 1_555

#END
