
#######################################################################
#
#                 Cambridge Crystallographic Data Centre
#                                CCDC 
#
#######################################################################
#
# If this CIF has been generated from an entry in the Cambridge 
# Structural Database, then it will include bibliographic, chemical, 
# crystal, experimental, refinement or atomic coordinate data resulting 
# from the CCDC's data processing and validation procedures.
#
#######################################################################

data_KEXTAK
_chemical_formula_moiety         'C18 H12 N6 2+,H2 O1,2(Cl1 1-)'
_chemical_name_systematic        
'3-(pyridinium-2-yl)[1,2,4]triazino[5,6-f][1,10]phenanthrolin-9-ium dichloride monohydrate'
_symmetry_cell_setting           triclinic
_symmetry_space_group_name_H-M   'P -1'
_symmetry_Int_Tables_number      2
_space_group_name_Hall           '-P 1'
loop_
_symmetry_equiv_pos_site_id
_symmetry_equiv_pos_as_xyz
1 x,y,z
2 -x,-y,-z
_cell_length_a                   8.3203(2)
_cell_length_b                   9.8047(3)
_cell_length_c                   11.3191(4)
_cell_angle_alpha                112.3820(10)
_cell_angle_beta                 93.764(2)
_cell_angle_gamma                93.041(2)
_cell_volume                     848.932
_exptl_crystal_colour            yellow
_exptl_crystal_description       block
_cell_formula_units_Z            2
loop_
_atom_site_label
_atom_site_type_symbol
_atom_site_fract_x
_atom_site_fract_y
_atom_site_fract_z
N1 N 1.16013(11) 0.47333(11) 0.86754(9)
H1 H 1.1776(18) 0.5561(12) 0.9303(11)
C1 C 1.01345(13) 0.44191(13) 0.80041(11)
C2 C 0.97893(13) 0.30402(13) 0.69989(11)
C3 C 1.09697(13) 0.20219(14) 0.67254(11)
H2 H 1.0750 0.1076 0.6049
C4 C 1.24579(14) 0.23974(14) 0.74446(12)
H3 H 1.3265 0.1714 0.7271
C5 C 1.27482(13) 0.37906(14) 0.84245(12)
H4 H 1.3768 0.4072 0.8917
N2 N 0.94486(12) 0.68211(11) 0.93474(10)
C6 C 0.89704(13) 0.55308(13) 0.83572(11)
C7 C 0.74328(13) 0.52159(13) 0.76802(11)
C8 C 0.63167(13) 0.62903(14) 0.80654(12)
H5 H 0.5258 0.6111 0.7640
C9 C 0.67929(14) 0.76117(14) 0.90755(12)
H6 H 0.6068 0.8363 0.9360
C10 C 0.83682(14) 0.78254(13) 0.96748(12)
H7 H 0.8686 0.8748 1.0360
N3 N 0.78791(12) 0.14236(11) 0.52923(10)
N4 N 0.64448(12) 0.11361(12) 0.46154(10)
C11 C 0.53999(13) 0.21905(13) 0.49662(11)
N5 N 0.56084(11) 0.34966(11) 0.59469(9)
C12 C 0.70574(13) 0.37982(13) 0.66167(11)
C13 C 0.82061(13) 0.27385(13) 0.62739(10)
N6 N 0.27546(11) 0.28765(11) 0.45231(9)
H8 H 0.3043(18) 0.3685(12) 0.5143(12)
C14 C 0.38261(13) 0.18380(13) 0.41778(11)
C15 C 0.33951(14) 0.05283(14) 0.31374(12)
H9 H 0.4139 -0.0207 0.2862
C16 C 0.18537(14) 0.02995(14) 0.24965(12)
H10 H 0.1543 -0.0600 0.1783
C17 C 0.07731(14) 0.13770(15) 0.28947(12)
H11 H -0.0285 0.1221 0.2471
C18 C 0.12681(14) 0.26842(14) 0.39213(12)
H12 H 0.0555 0.3447 0.4200
Cl1 Cl 0.76715(3) 0.40319(3) 0.36494(3)
Cl2 Cl 0.64543(3) 0.28606(3) 0.91173(3)
O1 O 0.70812(14) 0.10971(12) 0.10651(11)
H13 H 0.700(2) 0.144(2) 0.0505(15)
H14 H 0.709(2) 0.1810(16) 0.1746(12)
loop_
_geom_bond_atom_site_label_1
_geom_bond_atom_site_label_2
_geom_bond_site_symmetry_1
_geom_bond_site_symmetry_2
N1 H1 1_555 1_555
C1 N1 1_555 1_555
C2 C1 1_555 1_555
C3 C2 1_555 1_555
H2 C3 1_555 1_555
C4 C3 1_555 1_555
H3 C4 1_555 1_555
C5 N1 1_555 1_555
H4 C5 1_555 1_555
N2 C6 1_555 1_555
C6 C1 1_555 1_555
C7 C6 1_555 1_555
C8 C7 1_555 1_555
H5 C8 1_555 1_555
C9 C8 1_555 1_555
H6 C9 1_555 1_555
C10 N2 1_555 1_555
H7 C10 1_555 1_555
N3 N4 1_555 1_555
N4 C11 1_555 1_555
C11 N5 1_555 1_555
N5 C12 1_555 1_555
C12 C7 1_555 1_555
C13 C2 1_555 1_555
N6 H8 1_555 1_555
C14 C11 1_555 1_555
C15 C14 1_555 1_555
H9 C15 1_555 1_555
C16 C15 1_555 1_555
H10 C16 1_555 1_555
C17 C16 1_555 1_555
H11 C17 1_555 1_555
C18 N6 1_555 1_555
H12 C18 1_555 1_555
O1 H13 1_555 1_555
H14 O1 1_555 1_555
C4 C5 1_555 1_555
C9 C10 1_555 1_555
N3 C13 1_555 1_555
C12 C13 1_555 1_555
N6 C14 1_555 1_555
C17 C18 1_555 1_555

#END
