
#######################################################################
#
#                 Cambridge Crystallographic Data Centre
#                                CCDC 
#
#######################################################################
#
# If this CIF has been generated from an entry in the Cambridge 
# Structural Database, then it will include bibliographic, chemical, 
# crystal, experimental, refinement or atomic coordinate data resulting 
# from the CCDC's data processing and validation procedures.
#
#######################################################################

data_KEYTIT
_chemical_formula_moiety         'C48 H48 N2 O2'
_chemical_name_systematic        
2,7-Dihexyl-3,4,8,9-tetraphenyl-2,7-dihydropyrido[3,4-g]isoquinoline-1,6-dione
_symmetry_cell_setting           tetragonal
_symmetry_space_group_name_H-M   'I 41/a'
_symmetry_Int_Tables_number      88
_space_group_name_Hall           '-I 4ad'
loop_
_symmetry_equiv_pos_site_id
_symmetry_equiv_pos_as_xyz
1 x,y,z
2 1/2-x,-y,1/2+z
3 3/4-y,1/4+x,1/4+z
4 3/4+y,3/4-x,3/4+z
5 1/2+x,1/2+y,1/2+z
6 -x,1/2-y,z
7 1/4-y,3/4+x,3/4+z
8 1/4+y,1/4-x,1/4+z
9 -x,-y,-z
10 1/2+x,y,1/2-z
11 1/4+y,3/4-x,3/4-z
12 1/4-y,1/4+x,1/4-z
13 1/2-x,1/2-y,1/2-z
14 x,1/2+y,-z
15 3/4+y,1/4-x,1/4-z
16 3/4-y,3/4+x,3/4-z
_cell_length_a                   30.255(4)
_cell_length_b                   30.255(4)
_cell_length_c                   16.917(3)
_cell_angle_alpha                90
_cell_angle_beta                 90
_cell_angle_gamma                90
_cell_volume                     15485.2
_exptl_crystal_colour            yellow
_exptl_crystal_description       rod
_cell_formula_units_Z            16
loop_
_atom_site_label
_atom_site_type_symbol
_atom_site_fract_x
_atom_site_fract_y
_atom_site_fract_z
O1 O 0.54607(7) 0.43498(6) 0.41024(12)
O2 O 0.45896(7) 0.55722(6) 0.06941(12)
N1 N 0.56583(8) 0.50704(8) 0.42638(14)
N2 N 0.44500(8) 0.48412(8) 0.04930(13)
C1 C 0.68317(17) 0.54229(19) 0.7645(4)
H1 H 0.7074 0.5423 0.7261
H2 H 0.6950 0.5361 0.8173
H3 H 0.6687 0.5713 0.7645
C2 C 0.65089(16) 0.50815(16) 0.7430(3)
H4 H 0.6288 0.5056 0.7859
H5 H 0.6663 0.4794 0.7386
C3 C 0.62681(13) 0.51748(13) 0.6653(2)
H6 H 0.6489 0.5208 0.6225
H7 H 0.6106 0.5458 0.6701
C4 C 0.59423(12) 0.48091(12) 0.6427(2)
H8 H 0.5744 0.4753 0.6881
H9 H 0.6110 0.4534 0.6324
C5 C 0.56581(10) 0.49144(11) 0.56971(19)
H10 H 0.5428 0.4684 0.5638
H11 H 0.5507 0.5201 0.5779
C6 C 0.59229(11) 0.49370(11) 0.49588(18)
H12 H 0.6167 0.5151 0.5033
H13 H 0.6056 0.4644 0.4856
C7 C 0.56305(9) 0.55168(9) 0.40348(17)
C8 C 0.57919(10) 0.58535(10) 0.46190(16)
C9 C 0.54937(10) 0.60367(10) 0.51434(18)
H14 H 0.5194 0.5943 0.5138
C10 C 0.56280(11) 0.63567(11) 0.56780(19)
H15 H 0.5421 0.6479 0.6039
C11 C 0.60606(12) 0.64983(12) 0.56886(19)
H16 H 0.6152 0.6719 0.6053
C12 C 0.63598(12) 0.63175(12) 0.5168(2)
H17 H 0.6659 0.6414 0.5172
C13 C 0.62275(10) 0.59967(11) 0.46395(19)
H18 H 0.6437 0.5872 0.4285
C14 C 0.54379(9) 0.56374(9) 0.33474(16)
C15 C 0.54261(10) 0.61151(9) 0.31212(16)
C16 C 0.50319(11) 0.63477(10) 0.3128(2)
H19 H 0.4764 0.6200 0.3254
C17 C 0.50277(15) 0.67966(12) 0.2951(2)
H20 H 0.4757 0.6955 0.2955
C18 C 0.54167(16) 0.70123(11) 0.2769(2)
H21 H 0.5413 0.7320 0.2653
C19 C 0.58089(14) 0.67833(11) 0.2754(2)
H22 H 0.6076 0.6932 0.2627
C20 C 0.58135(11) 0.63365(10) 0.29240(17)
H23 H 0.6085 0.6179 0.2906
C21 C 0.52334(9) 0.53066(9) 0.28528(16)
C22 C 0.52289(9) 0.48592(9) 0.31171(16)
C23 C 0.54509(9) 0.47346(9) 0.38550(16)
C24 C 0.50180(9) 0.45315(9) 0.26870(16)
H24 H 0.5014 0.4238 0.2885
C25 C 0.48107(9) 0.46261(9) 0.19643(16)
C26 C 0.48201(9) 0.50692(9) 0.16961(15)
C27 C 0.50245(9) 0.53998(9) 0.21316(16)
H25 H 0.5023 0.5694 0.1938
C28 C 0.46118(9) 0.51874(9) 0.09401(16)
C29 C 0.42896(10) 0.49519(10) -0.03100(16)
H26 H 0.4329 0.4691 -0.0657
H27 H 0.4472 0.5195 -0.0526
C30 C 0.38086(11) 0.50897(11) -0.03269(19)
H28 H 0.3773 0.5370 -0.0032
H29 H 0.3627 0.4861 -0.0062
C31 C 0.36460(12) 0.51520(11) -0.1173(2)
H30 H 0.3360 0.5311 -0.1160
H31 H 0.3860 0.5341 -0.1460
C32 C 0.35859(14) 0.47230(13) -0.1631(2)
H32 H 0.3362 0.4540 -0.1357
H33 H 0.3869 0.4558 -0.1625
C33 C 0.34399(16) 0.47877(16) -0.2499(3)
H34 H 0.3663 0.4972 -0.2771
H35 H 0.3436 0.4496 -0.2762
C34 C 0.30035(18) 0.49955(18) -0.2600(3)
H36 H 0.2925 0.4998 -0.3162
H37 H 0.3013 0.5300 -0.2401
H38 H 0.2781 0.4827 -0.2305
C35 C 0.44354(9) 0.44019(9) 0.07705(16)
C36 C 0.42537(9) 0.40603(9) 0.02165(16)
C37 C 0.45401(10) 0.38392(10) -0.02860(18)
H39 H 0.4846 0.3909 -0.0281
C38 C 0.43827(12) 0.35162(11) -0.07975(19)
H40 H 0.4580 0.3368 -0.1145
C39 C 0.39369(12) 0.34097(11) -0.08010(19)
H41 H 0.3829 0.3188 -0.1147
C40 C 0.36534(11) 0.36269(11) -0.03021(19)
H42 H 0.3348 0.3554 -0.0306
C41 C 0.38066(10) 0.39505(10) 0.02069(17)
H43 H 0.3607 0.4098 0.0550
C42 C 0.46003(9) 0.42911(9) 0.14866(16)
C43 C 0.45653(10) 0.38289(9) 0.17879(16)
C44 C 0.41589(10) 0.36561(10) 0.20254(17)
H44 H 0.3901 0.3834 0.1987
C45 C 0.41236(13) 0.32298(11) 0.23166(19)
H45 H 0.3843 0.3117 0.2469
C46 C 0.44922(14) 0.29723(11) 0.2385(2)
H46 H 0.4468 0.2681 0.2588
C47 C 0.48997(14) 0.31343(11) 0.2160(2)
H47 H 0.5155 0.2954 0.2209
C48 C 0.49358(11) 0.35627(10) 0.18605(19)
H48 H 0.5217 0.3673 0.1705
loop_
_geom_bond_atom_site_label_1
_geom_bond_atom_site_label_2
_geom_bond_site_symmetry_1
_geom_bond_site_symmetry_2
O1 C23 1_555 1_555
O2 C28 1_555 1_555
N1 C6 1_555 1_555
N2 C28 1_555 1_555
C1 H1 1_555 1_555
H2 C1 1_555 1_555
H3 C1 1_555 1_555
C2 C1 1_555 1_555
H4 C2 1_555 1_555
H5 C2 1_555 1_555
C3 C2 1_555 1_555
H6 C3 1_555 1_555
H7 C3 1_555 1_555
C4 C3 1_555 1_555
H8 C4 1_555 1_555
H9 C4 1_555 1_555
C5 C4 1_555 1_555
H10 C5 1_555 1_555
H11 C5 1_555 1_555
C6 C5 1_555 1_555
H12 C6 1_555 1_555
H13 C6 1_555 1_555
C7 N1 1_555 1_555
C8 C7 1_555 1_555
C9 C8 1_555 1_555
H14 C9 1_555 1_555
C10 C9 1_555 1_555
H15 C10 1_555 1_555
C11 C10 1_555 1_555
H16 C11 1_555 1_555
C12 C11 1_555 1_555
H17 C12 1_555 1_555
C13 C8 1_555 1_555
H18 C13 1_555 1_555
C14 C7 1_555 1_555
C15 C14 1_555 1_555
C16 C15 1_555 1_555
H19 C16 1_555 1_555
C17 C16 1_555 1_555
H20 C17 1_555 1_555
C18 C17 1_555 1_555
H21 C18 1_555 1_555
C19 C18 1_555 1_555
H22 C19 1_555 1_555
C20 C15 1_555 1_555
H23 C20 1_555 1_555
C21 C14 1_555 1_555
C22 C21 1_555 1_555
C23 N1 1_555 1_555
C24 C22 1_555 1_555
H24 C24 1_555 1_555
C25 C24 1_555 1_555
C26 C25 1_555 1_555
C27 C21 1_555 1_555
H25 C27 1_555 1_555
C28 C26 1_555 1_555
C29 N2 1_555 1_555
H26 C29 1_555 1_555
H27 C29 1_555 1_555
C30 C29 1_555 1_555
H28 C30 1_555 1_555
H29 C30 1_555 1_555
C31 C30 1_555 1_555
H30 C31 1_555 1_555
H31 C31 1_555 1_555
C32 C31 1_555 1_555
H32 C32 1_555 1_555
H33 C32 1_555 1_555
C33 C32 1_555 1_555
H34 C33 1_555 1_555
H35 C33 1_555 1_555
C34 C33 1_555 1_555
H36 C34 1_555 1_555
H37 C34 1_555 1_555
H38 C34 1_555 1_555
C35 N2 1_555 1_555
C36 C35 1_555 1_555
C37 C36 1_555 1_555
H39 C37 1_555 1_555
C38 C37 1_555 1_555
H40 C38 1_555 1_555
C39 C38 1_555 1_555
H41 C39 1_555 1_555
C40 C39 1_555 1_555
H42 C40 1_555 1_555
C41 C36 1_555 1_555
H43 C41 1_555 1_555
C42 C25 1_555 1_555
C43 C42 1_555 1_555
C44 C43 1_555 1_555
H44 C44 1_555 1_555
C45 C44 1_555 1_555
H45 C45 1_555 1_555
C46 C45 1_555 1_555
H46 C46 1_555 1_555
C47 C46 1_555 1_555
H47 C47 1_555 1_555
C48 C43 1_555 1_555
H48 C48 1_555 1_555
C12 C13 1_555 1_555
C19 C20 1_555 1_555
C22 C23 1_555 1_555
C26 C27 1_555 1_555
C35 C42 1_555 1_555
C40 C41 1_555 1_555
C47 C48 1_555 1_555

#END
