
#######################################################################
#
#                 Cambridge Crystallographic Data Centre
#                                CCDC 
#
#######################################################################
#
# If this CIF has been generated from an entry in the Cambridge 
# Structural Database, then it will include bibliographic, chemical, 
# crystal, experimental, refinement or atomic coordinate data resulting 
# from the CCDC's data processing and validation procedures.
#
#######################################################################

data_KEYVUH
_chemical_formula_moiety         'C17 H16 O2'
_chemical_name_systematic        5-(4-Methoxyphenyl)-2,3-dimethyl-1-benzofuran
_symmetry_cell_setting           monoclinic
_symmetry_space_group_name_H-M   'P 21/n'
_symmetry_Int_Tables_number      14
_space_group_name_Hall           '-P 2yn'
loop_
_symmetry_equiv_pos_site_id
_symmetry_equiv_pos_as_xyz
1 x,y,z
2 1/2-x,1/2+y,1/2-z
3 -x,-y,-z
4 1/2+x,1/2-y,1/2+z
_cell_length_a                   7.0591(4)
_cell_length_b                   7.2045(4)
_cell_length_c                   25.9203(15)
_cell_angle_alpha                90
_cell_angle_beta                 95.377(2)
_cell_angle_gamma                90
_cell_volume                     1312.44
_exptl_crystal_colour            colorless
_cell_formula_units_Z            4
loop_
_atom_site_label
_atom_site_type_symbol
_atom_site_fract_x
_atom_site_fract_y
_atom_site_fract_z
O1 O 0.29176(12) 0.28169(13) 0.18018(3)
O2 O 1.17824(12) 0.22799(14) 0.49400(3)
C1 C 0.11529(17) 0.3797(2) 0.18008(5)
H1 H 0.0411 0.3279 0.2068
H2 H 0.0432 0.3669 0.1461
H3 H 0.1407 0.5113 0.1873
C2 C 0.41159(17) 0.28903(18) 0.22495(5)
C3 C 0.57672(17) 0.18251(19) 0.22527(5)
H4 H 0.6017 0.1143 0.1953
C4 C 0.70424(17) 0.17597(19) 0.26919(5)
H5 H 0.8154 0.1018 0.2690
C5 C 0.67315(17) 0.27646(18) 0.31409(5)
C6 C 0.80979(17) 0.26487(18) 0.36127(5)
C7 C 0.74692(17) 0.27493(18) 0.41090(5)
H6 H 0.6155 0.2902 0.4150
C8 C 0.87913(18) 0.26238(19) 0.45436(5)
C9 C 0.86889(19) 0.26309(19) 0.50986(5)
C10 C 1.04936(19) 0.24215(19) 0.53139(5)
C11 C 1.1347(2) 0.2307(2) 0.58575(5)
H7 H 1.0336 0.2351 0.6092
H8 H 1.2216 0.3354 0.5931
H9 H 1.2052 0.1140 0.5909
C12 C 0.50846(17) 0.38428(18) 0.31255(5)
H10 H 0.4849 0.4554 0.3421
C13 C 0.37745(16) 0.39062(19) 0.26880(5)
H11 H 0.2656 0.4638 0.2689
C14 C 1.07161(18) 0.23948(19) 0.44724(5)
C15 C 0.6920(2) 0.2821(2) 0.53706(5)
H12 H 0.7255 0.2810 0.5746
H13 H 0.6061 0.1784 0.5274
H14 H 0.6287 0.3994 0.5270
C16 C 1.13926(18) 0.2289(2) 0.39906(5)
H15 H 1.2709 0.2133 0.3953
C17 C 1.00556(17) 0.2423(2) 0.35624(5)
H16 H 1.0476 0.2360 0.3225
loop_
_geom_bond_atom_site_label_1
_geom_bond_atom_site_label_2
_geom_bond_site_symmetry_1
_geom_bond_site_symmetry_2
O1 C1 1_555 1_555
O2 C10 1_555 1_555
C1 H1 1_555 1_555
H2 C1 1_555 1_555
H3 C1 1_555 1_555
C2 O1 1_555 1_555
C3 C2 1_555 1_555
H4 C3 1_555 1_555
C4 C3 1_555 1_555
H5 C4 1_555 1_555
C5 C4 1_555 1_555
C6 C5 1_555 1_555
C7 C6 1_555 1_555
H6 C7 1_555 1_555
C8 C7 1_555 1_555
C9 C8 1_555 1_555
C10 C9 1_555 1_555
C11 C10 1_555 1_555
H7 C11 1_555 1_555
H8 C11 1_555 1_555
H9 C11 1_555 1_555
C12 C5 1_555 1_555
H10 C12 1_555 1_555
C13 C2 1_555 1_555
H11 C13 1_555 1_555
C14 O2 1_555 1_555
C15 C9 1_555 1_555
H12 C15 1_555 1_555
H13 C15 1_555 1_555
H14 C15 1_555 1_555
C16 C14 1_555 1_555
H15 C16 1_555 1_555
C17 C6 1_555 1_555
H16 C17 1_555 1_555
C8 C14 1_555 1_555
C12 C13 1_555 1_555
C16 C17 1_555 1_555

#END
