
#######################################################################
#
#                 Cambridge Crystallographic Data Centre
#                                CCDC 
#
#######################################################################
#
# If this CIF has been generated from an entry in the Cambridge 
# Structural Database, then it will include bibliographic, chemical, 
# crystal, experimental, refinement or atomic coordinate data resulting 
# from the CCDC's data processing and validation procedures.
#
#######################################################################

data_KEYXIY
_chemical_formula_moiety         'C21 H18 N4 O2,0.5(C2 H6 O1)'
_chemical_name_systematic        
'3-(5-ethylfuran-2-yl)-2-(pyrimidin-2-yl)-1,2,3,4-tetrahydro-9H-pyrrolo[3,4-b]quinolin-9-one dimethyl ether solvate'
_symmetry_cell_setting           monoclinic
_symmetry_space_group_name_H-M   'C 2/c'
_symmetry_Int_Tables_number      15
_space_group_name_Hall           '-C 2yn'
loop_
_symmetry_equiv_pos_site_id
_symmetry_equiv_pos_as_xyz
1 x,y,z
2 -x,y,1/2-z
3 1/2+x,1/2+y,z
4 1/2-x,1/2+y,1/2-z
5 -x,-y,-z
6 x,-y,1/2+z
7 1/2-x,1/2-y,-z
8 1/2+x,1/2-y,1/2+z
_cell_length_a                   28.335(3)
_cell_length_b                   10.8770(11)
_cell_length_c                   12.5622(15)
_cell_angle_alpha                90
_cell_angle_beta                 110.455(8)
_cell_angle_gamma                90
_cell_volume                     3627.55
_exptl_crystal_colour            yellow
_exptl_crystal_description       block
_cell_formula_units_Z            8
loop_
_atom_site_label
_atom_site_type_symbol
_atom_site_fract_x
_atom_site_fract_y
_atom_site_fract_z
C1 C 0.2867(2) 0.4215(5) 0.4592(5)
H1 H 0.261(2) 0.558(6) 0.344(6)
C2 C 0.3217(2) 0.3580(5) 0.4090(5)
H2 H 0.3029 0.3256 0.3332
C3 C 0.3266(2) 0.2700(5) 0.5940(5)
H3 H 0.3557 0.2907 0.6600
H4 H 0.3113 0.1954 0.6093
C4 C 0.2011(2) 0.5943(5) 0.6239(5)
H5 H 0.2010 0.5669 0.6939
N1 N 0.34000(18) 0.2576(4) 0.4915(4)
C5 C 0.2896(2) 0.3734(5) 0.5616(5)
C6 C 0.2605(2) 0.4222(5) 0.6239(5)
C7 C 0.2299(2) 0.5305(5) 0.5703(4)
O1 O 0.26119(15) 0.3784(3) 0.7166(3)
N2 N 0.37292(19) 0.1621(4) 0.3705(5)
C8 C 0.4012(2) 0.0740(5) 0.3542(6)
H6 H 0.4036 0.0659 0.2826
C9 C 0.4278(3) -0.0078(6) 0.4384(7)
H7 H 0.4481 -0.0688 0.4254
C10 C 0.4225(3) 0.0062(6) 0.5422(7)
H8 H 0.4397 -0.0474 0.6005
N3 N 0.39359(19) 0.0935(4) 0.5638(5)
C11 C 0.3701(2) 0.1675(5) 0.4751(5)
C12 C 0.5030(3) 0.6999(7) 0.5746(11)
H9 H 0.5281 0.7253 0.6448
H10 H 0.4870 0.7710 0.5321
H11 H 0.5187 0.6532 0.5312
C13 C 0.4636(3) 0.6201(9) 0.5995(10)
H12 H 0.4804 0.5543 0.6509
H13 H 0.4454 0.6697 0.6367
C14 C 0.3779(3) 0.4895(6) 0.3245(7)
H14 H 0.3643 0.4746 0.2468
C15 C 0.4191(3) 0.5686(6) 0.3819(8)
H15 H 0.4374 0.6145 0.3474
C16 C 0.4270(3) 0.5662(6) 0.4926(9)
O2 O 0.39231(16) 0.4871(4) 0.5105(4)
C17 C 0.3629(2) 0.4413(5) 0.4054(5)
N4 N 0.25712(18) 0.5161(4) 0.4078(4)
C18 C 0.2282(2) 0.5728(5) 0.4625(5)
C19 C 0.1977(2) 0.6734(5) 0.4105(5)
H16 H 0.1960 0.6991 0.3386
C20 C 0.1707(2) 0.7332(5) 0.4658(5)
H17 H 0.1504 0.7994 0.4309
C21 C 0.1731(2) 0.6960(5) 0.5754(5)
H18 H 0.1560 0.7398 0.6141
C22 C 0.4608(4) 0.1810(9) 0.7740(10)
H19 H 0.4286 0.2037 0.7203
H20 H 0.4619 0.2000 0.8495
H21 H 0.4660 0.0944 0.7683
O3 O 0.5000 0.2485(13) 0.7500
C22A C 0.5392(4) 0.1810(9) 0.7260(10)
H19A H 0.5714 0.2037 0.7797
H20A H 0.5381 0.2000 0.6505
H21A H 0.5340 0.0944 0.7317
loop_
_geom_bond_atom_site_label_1
_geom_bond_atom_site_label_2
_geom_bond_site_symmetry_1
_geom_bond_site_symmetry_2
C1 C2 1_555 1_555
H1 N4 1_555 1_555
C2 H2 1_555 1_555
C3 H3 1_555 1_555
H4 C3 1_555 1_555
C4 H5 1_555 1_555
N1 C2 1_555 1_555
C5 C1 1_555 1_555
C6 C5 1_555 1_555
C7 C4 1_555 1_555
O1 C6 1_555 1_555
N2 C8 1_555 1_555
C8 H6 1_555 1_555
C9 C8 1_555 1_555
H7 C9 1_555 1_555
C10 C9 1_555 1_555
H8 C10 1_555 1_555
N3 C10 1_555 1_555
C11 N1 1_555 1_555
C12 H9 1_555 1_555
H10 C12 1_555 1_555
H11 C12 1_555 1_555
C13 C12 1_555 1_555
H12 C13 1_555 1_555
H13 C13 1_555 1_555
C14 H14 1_555 1_555
C15 C14 1_555 1_555
H15 C15 1_555 1_555
C16 C13 1_555 1_555
O2 C16 1_555 1_555
C17 C2 1_555 1_555
N4 C1 1_555 1_555
C18 C7 1_555 1_555
C19 C18 1_555 1_555
H16 C19 1_555 1_555
C20 C19 1_555 1_555
H17 C20 1_555 1_555
C21 C4 1_555 1_555
H18 C21 1_555 1_555
C22 H19 1_555 1_555
H20 C22 1_555 1_555
H21 C22 1_555 1_555
O3 C22 1_555 1_555
C22A O3 1_555 1_555
H19A C22A 1_555 1_555
H20A C22A 1_555 1_555
H21A C22A 1_555 1_555
C3 N1 1_555 1_555
C3 C5 1_555 1_555
C6 C7 1_555 1_555
N2 C11 1_555 1_555
N3 C11 1_555 1_555
C14 C17 1_555 1_555
C15 C16 1_555 1_555
O2 C17 1_555 1_555
N4 C18 1_555 1_555
C20 C21 1_555 1_555

#END
