
#######################################################################
#
#                 Cambridge Crystallographic Data Centre
#                                CCDC 
#
#######################################################################
#
# If this CIF has been generated from an entry in the Cambridge 
# Structural Database, then it will include bibliographic, chemical, 
# crystal, experimental, refinement or atomic coordinate data resulting 
# from the CCDC's data processing and validation procedures.
#
#######################################################################

data_KEZGAA
_chemical_formula_moiety         'C14 H13 N3 O3'
_chemical_name_systematic        
2-(4-phenyl-1H-1,2,3-triazol-1-yl)-6,8-dioxabicyclo[3.2.1]octan-4-one
_symmetry_cell_setting           orthorhombic
_symmetry_space_group_name_H-M   'P 21 21 21'
_symmetry_Int_Tables_number      19
_space_group_name_Hall           'P 2ac 2ab'
loop_
_symmetry_equiv_pos_site_id
_symmetry_equiv_pos_as_xyz
1 x,y,z
2 1/2+x,1/2-y,-z
3 -x,1/2+y,1/2-z
4 1/2-x,-y,1/2+z
_cell_length_a                   9.3777(9)
_cell_length_b                   10.5101(12)
_cell_length_c                   13.0183(13)
_cell_angle_alpha                90
_cell_angle_beta                 90
_cell_angle_gamma                90
_cell_volume                     1283.09
_exptl_crystal_colour            colorless
_exptl_crystal_description       plate
_cell_formula_units_Z            4
loop_
_atom_site_label
_atom_site_type_symbol
_atom_site_fract_x
_atom_site_fract_y
_atom_site_fract_z
O1 O 0.7857(2) 0.0880(2) 0.55306(17)
O2 O 0.8334(3) 0.3496(3) 0.69259(19)
O3 O 0.8701(3) 0.0372(2) 0.71073(17)
N1 N 0.9772(2) 0.2154(2) 0.42253(18)
N2 N 0.9164(3) 0.3309(2) 0.4288(2)
N3 N 0.8721(3) 0.3606(2) 0.3357(2)
C1 C 0.7956(4) 0.1311(3) 0.6554(3)
H1 H 0.7006 0.1449 0.6847
C2 C 0.9263(3) 0.0380(3) 0.5365(2)
H2 H 0.9272 -0.0219 0.4789
C3 C 1.0267(3) 0.1503(3) 0.5164(2)
H3 H 1.1237 0.1182 0.5054
C4 C 0.9713(3) 0.1712(3) 0.3272(2)
H4 H 1.0057 0.0935 0.3036
C5 C 0.9046(3) 0.2630(3) 0.2708(2)
C6 C 0.8643(3) 0.2678(3) 0.1613(2)
C7 C 0.9051(3) 0.1732(3) 0.0935(2)
H5 H 0.9610 0.1058 0.1164
C8 C 0.8628(4) 0.1788(4) -0.0085(3)
H6 H 0.8907 0.1152 -0.0539
C9 C 0.7802(4) 0.2776(4) -0.0425(3)
H7 H 0.7517 0.2809 -0.1109
C10 C 0.7394(4) 0.3715(4) 0.0243(3)
H8 H 0.6838 0.4388 0.0007
C11 C 0.7798(3) 0.3675(3) 0.1257(3)
H9 H 0.7507 0.4313 0.1706
C12 C 1.0262(3) 0.2408(3) 0.6081(2)
H10 H 1.0924 0.2097 0.6596
H11 H 1.0586 0.3240 0.5860
C13 C 0.8809(4) 0.2532(3) 0.6554(2)
C14 C 0.9571(4) -0.0298(3) 0.6376(2)
H12 H 0.9304 -0.1188 0.6338
H13 H 1.0573 -0.0236 0.6554
loop_
_geom_bond_atom_site_label_1
_geom_bond_atom_site_label_2
_geom_bond_site_symmetry_1
_geom_bond_site_symmetry_2
O1 C1 1_555 1_555
O2 C13 1_555 1_555
O3 C1 1_555 1_555
N1 N2 1_555 1_555
N2 N3 1_555 1_555
N3 C5 1_555 1_555
C1 H1 1_555 1_555
C2 O1 1_555 1_555
H2 C2 1_555 1_555
C3 N1 1_555 1_555
H3 C3 1_555 1_555
C4 N1 1_555 1_555
H4 C4 1_555 1_555
C5 C4 1_555 1_555
C6 C5 1_555 1_555
C7 C6 1_555 1_555
H5 C7 1_555 1_555
C8 C7 1_555 1_555
H6 C8 1_555 1_555
C9 C8 1_555 1_555
H7 C9 1_555 1_555
C10 C9 1_555 1_555
H8 C10 1_555 1_555
C11 C6 1_555 1_555
H9 C11 1_555 1_555
C12 C3 1_555 1_555
H10 C12 1_555 1_555
H11 C12 1_555 1_555
C13 C1 1_555 1_555
C14 O3 1_555 1_555
H12 C14 1_555 1_555
H13 C14 1_555 1_555
C2 C3 1_555 1_555
C2 C14 1_555 1_555
C10 C11 1_555 1_555
C12 C13 1_555 1_555

#END
