
#######################################################################
#
#                 Cambridge Crystallographic Data Centre
#                                CCDC 
#
#######################################################################
#
# If this CIF has been generated from an entry in the Cambridge 
# Structural Database, then it will include bibliographic, chemical, 
# crystal, experimental, refinement or atomic coordinate data resulting 
# from the CCDC's data processing and validation procedures.
#
#######################################################################

data_KEZPUC
_chemical_formula_moiety         'C14 H11 Cl1 F3 N1 O1'
_chemical_name_systematic        
6-Chloro-2-(4-ethoxyphenyl)-3-(trifluoromethyl)pyridine
_symmetry_cell_setting           monoclinic
_symmetry_space_group_name_H-M   'P 21/c'
_symmetry_Int_Tables_number      14
_space_group_name_Hall           '-P 2ybc'
loop_
_symmetry_equiv_pos_site_id
_symmetry_equiv_pos_as_xyz
1 x,y,z
2 -x,1/2+y,1/2-z
3 -x,-y,-z
4 x,1/2-y,1/2+z
_cell_length_a                   4.3106(1)
_cell_length_b                   27.8213(7)
_cell_length_c                   11.3973(3)
_cell_angle_alpha                90
_cell_angle_beta                 97.734(1)
_cell_angle_gamma                90
_cell_volume                     1354.4
_exptl_crystal_colour            colorless
_exptl_crystal_description       prism
_cell_formula_units_Z            4
loop_
_atom_site_label
_atom_site_type_symbol
_atom_site_fract_x
_atom_site_fract_y
_atom_site_fract_z
C1 C 0.6448(3) 0.24819(5) 0.68967(12)
C2 C 0.6050(3) 0.24089(5) 0.56821(12)
H1 H 0.6714 0.2638 0.5151
C3 C 0.4633(3) 0.19837(5) 0.52938(12)
H2 H 0.4236 0.1918 0.4469
C4 C 0.3778(3) 0.16501(5) 0.61010(11)
C5 C 0.4438(3) 0.17499(5) 0.73183(11)
C6 C 0.3876(3) 0.14184(5) 0.82841(11)
C7 C 0.5009(3) 0.09482(5) 0.83376(12)
H3 H 0.6076 0.0830 0.7720
C8 C 0.4601(3) 0.06526(5) 0.92757(12)
H4 H 0.5400 0.0334 0.9305
C9 C 0.3017(3) 0.08213(5) 1.01808(11)
C10 C 0.1892(3) 0.12898(5) 1.01481(12)
H5 H 0.0820 0.1407 1.0765
C11 C 0.2352(3) 0.15846(5) 0.92036(11)
H6 H 0.1609 0.1906 0.9186
C12 C 0.2117(3) 0.12032(5) 0.56163(12)
C13 C 0.1132(4) 0.06524(5) 1.20274(12)
H7 H -0.1011 0.0764 1.1731
H8 H 0.2288 0.0920 1.2461
C14 C 0.1013(4) 0.02231(6) 1.28298(14)
H9 H -0.0074 -0.0042 1.2382
H10 H -0.0114 0.0309 1.3491
H11 H 0.3149 0.0124 1.3137
Cl1 Cl 0.80872(11) 0.302076(14) 0.74617(3)
F1 F 0.0445(2) 0.12878(4) 0.45525(8)
F2 F 0.4053(2) 0.08427(3) 0.54525(10)
F3 F 0.0088(2) 0.10336(4) 0.62939(8)
N1 N 0.5706(3) 0.21763(4) 0.76932(10)
O1 O 0.2707(3) 0.04996(4) 1.10615(9)
loop_
_geom_bond_atom_site_label_1
_geom_bond_atom_site_label_2
_geom_bond_site_symmetry_1
_geom_bond_site_symmetry_2
C1 C2 1_555 1_555
C2 H1 1_555 1_555
C3 C2 1_555 1_555
H2 C3 1_555 1_555
C4 C3 1_555 1_555
C5 C4 1_555 1_555
C6 C5 1_555 1_555
C7 C6 1_555 1_555
H3 C7 1_555 1_555
C8 C7 1_555 1_555
H4 C8 1_555 1_555
C9 C8 1_555 1_555
C10 C9 1_555 1_555
H5 C10 1_555 1_555
C11 C6 1_555 1_555
H6 C11 1_555 1_555
C12 C4 1_555 1_555
C13 H7 1_555 1_555
H8 C13 1_555 1_555
C14 C13 1_555 1_555
H9 C14 1_555 1_555
H10 C14 1_555 1_555
H11 C14 1_555 1_555
Cl1 C1 1_555 1_555
F1 C12 1_555 1_555
F2 C12 1_555 1_555
F3 C12 1_555 1_555
N1 C1 1_555 1_555
O1 C9 1_555 1_555
C5 N1 1_555 1_555
C10 C11 1_555 1_555
C13 O1 1_555 1_555

#END
