
#######################################################################
#
#                 Cambridge Crystallographic Data Centre
#                                CCDC 
#
#######################################################################
#
# If this CIF has been generated from an entry in the Cambridge 
# Structural Database, then it will include bibliographic, chemical, 
# crystal, experimental, refinement or atomic coordinate data resulting 
# from the CCDC's data processing and validation procedures.
#
#######################################################################

data_KEZVUI
_chemical_formula_moiety         'C11 H11 N3 O2 S2'
_chemical_name_systematic        
3-(4-Nitrophenyl)dihydro-5H-pyrazolo[1,2-c][1,3,4]thiadiazole-1-thione
_symmetry_cell_setting           monoclinic
_symmetry_space_group_name_H-M   'P 21/c'
_symmetry_Int_Tables_number      14
_space_group_name_Hall           '-P 2ybc'
loop_
_symmetry_equiv_pos_site_id
_symmetry_equiv_pos_as_xyz
1 x,y,z
2 -x,1/2+y,1/2-z
3 -x,-y,-z
4 x,1/2-y,1/2+z
_cell_length_a                   14.9197(7)
_cell_length_b                   7.4169(4)
_cell_length_c                   12.1107(6)
_cell_angle_alpha                90
_cell_angle_beta                 113.8100(8)
_cell_angle_gamma                90
_cell_volume                     1226.08
_exptl_crystal_colour            yellow
_exptl_crystal_description       prism
_cell_formula_units_Z            4
loop_
_atom_site_label
_atom_site_type_symbol
_atom_site_fract_x
_atom_site_fract_y
_atom_site_fract_z
S1 S 0.02755(3) 0.35039(5) 0.12336(3)
S2 S 0.17638(3) 0.33695(5) 0.38537(3)
N1 N 0.14052(9) 0.07549(16) 0.24079(10)
N2 N 0.22335(8) 0.01527(15) 0.34556(10)
N3 N 0.56868(9) 0.10758(18) 0.87710(11)
O1 O 0.56184(9) 0.14385(18) 0.97235(10)
O2 O 0.64620(9) 0.0695(2) 0.86985(11)
C1 C 0.10993(10) 0.24118(19) 0.24106(12)
C2 C 0.21518(10) 0.10875(19) 0.44753(12)
H1 H 0.1625 0.0516 0.4668
C3 C 0.21104(11) -0.18276(19) 0.34222(13)
H2 H 0.1625 -0.2195 0.3745
H3 H 0.2740 -0.2445 0.3882
C4 C 0.17401(11) -0.2220(2) 0.20698(14)
H4 H 0.1382 -0.3380 0.1866
H5 H 0.2290 -0.2262 0.1811
C5 C 0.10534(11) -0.06360(19) 0.14762(13)
H6 H 0.1114 -0.0245 0.0728
H7 H 0.0362 -0.0953 0.1286
C6 C 0.30984(10) 0.10934(18) 0.55832(12)
C7 C 0.30498(11) 0.1038(2) 0.67039(13)
H8 H 0.2430 0.0998 0.6750
C8 C 0.38986(11) 0.1042(2) 0.77567(13)
H9 H 0.3869 0.1012 0.8525
C9 C 0.47865(10) 0.10896(19) 0.76567(12)
C10 C 0.48650(11) 0.1147(2) 0.65566(13)
H10 H 0.5488 0.1178 0.6518
C11 C 0.40078(11) 0.1157(2) 0.55102(13)
H11 H 0.4041 0.1208 0.4744
loop_
_geom_bond_atom_site_label_1
_geom_bond_atom_site_label_2
_geom_bond_site_symmetry_1
_geom_bond_site_symmetry_2
S1 C1 1_555 1_555
S2 C1 1_555 1_555
N1 N2 1_555 1_555
N2 C2 1_555 1_555
N3 O1 1_555 1_555
O2 N3 1_555 1_555
C1 N1 1_555 1_555
C2 S2 1_555 1_555
H1 C2 1_555 1_555
C3 N2 1_555 1_555
H2 C3 1_555 1_555
H3 C3 1_555 1_555
C4 C3 1_555 1_555
H4 C4 1_555 1_555
H5 C4 1_555 1_555
C5 N1 1_555 1_555
H6 C5 1_555 1_555
H7 C5 1_555 1_555
C6 C2 1_555 1_555
C7 C6 1_555 1_555
H8 C7 1_555 1_555
C8 C7 1_555 1_555
H9 C8 1_555 1_555
C9 N3 1_555 1_555
C10 C9 1_555 1_555
H10 C10 1_555 1_555
C11 C6 1_555 1_555
H11 C11 1_555 1_555
C4 C5 1_555 1_555
C8 C9 1_555 1_555
C10 C11 1_555 1_555

#END
