
#######################################################################
#
#                 Cambridge Crystallographic Data Centre
#                                CCDC 
#
#######################################################################
#
# If this CIF has been generated from an entry in the Cambridge 
# Structural Database, then it will include bibliographic, chemical, 
# crystal, experimental, refinement or atomic coordinate data resulting 
# from the CCDC's data processing and validation procedures.
#
#######################################################################

data_KEZVAP
_chemical_formula_moiety         'C34 H22 B2 F4 N2 O4,C6 H6'
_chemical_name_systematic        
"1,1'-bis[2-(2,4-difluorophenyl)-2H-1,3,2-benzodioxaborol-2-yl]-4,4'-bi-1-pyridine benzene"
_symmetry_cell_setting           monoclinic
_symmetry_space_group_name_H-M   'P 21/c'
_symmetry_Int_Tables_number      14
_space_group_name_Hall           '-P 2ybc'
loop_
_symmetry_equiv_pos_site_id
_symmetry_equiv_pos_as_xyz
1 x,y,z
2 -x,1/2+y,1/2-z
3 -x,-y,-z
4 x,1/2-y,1/2+z
_cell_length_a                   7.2038(3)
_cell_length_b                   15.1477(6)
_cell_length_c                   15.1129(6)
_cell_angle_alpha                90
_cell_angle_beta                 94.430(4)
_cell_angle_gamma                90
_cell_volume                     1644.21
_exptl_crystal_colour            orange
_exptl_crystal_description       prism
_cell_formula_units_Z            2
_exptl_crystal_recrystallization_method Benzene
loop_
_atom_site_label
_atom_site_type_symbol
_atom_site_fract_x
_atom_site_fract_y
_atom_site_fract_z
F1 F 0.01656(18) 0.21060(8) 0.30354(9)
F2 F -0.09031(15) 0.50863(7) 0.35796(7)
O1 O 0.30834(16) 0.18711(7) 0.17035(7)
O2 O 0.57794(16) 0.26032(8) 0.23067(7)
N1 N 0.41720(18) 0.15716(9) 0.32883(8)
C1 C 0.2628(2) 0.31016(11) 0.28456(10)
C2 C 0.0800(2) 0.29518(11) 0.30323(11)
C3 C -0.0425(2) 0.35941(12) 0.32626(11)
H1 H -0.1655 0.3464 0.3359
C4 C 0.0266(2) 0.44395(12) 0.33421(10)
C5 C 0.2074(2) 0.46522(11) 0.31925(11)
H2 H 0.2514 0.5227 0.3258
C6 C 0.3209(2) 0.39732(11) 0.29408(11)
H3 H 0.4428 0.4109 0.2829
C7 C 0.4550(2) 0.17093(10) 0.12062(10)
C8 C 0.6152(2) 0.21355(10) 0.15620(10)
C9 C 0.7809(2) 0.20787(11) 0.11694(11)
H4 H 0.8872 0.2370 0.1403
C10 C 0.7823(3) 0.15622(12) 0.04015(11)
H5 H 0.8922 0.1506 0.0121
C11 C 0.6238(3) 0.11350(12) 0.00517(11)
H6 H 0.6295 0.0794 -0.0457
C12 C 0.4553(3) 0.12046(11) 0.04453(11)
H7 H 0.3481 0.0924 0.0206
C13 C 0.3780(3) 0.07215(11) 0.31439(10)
H8 H 0.3278 0.0548 0.2585
C14 C 0.4094(3) 0.00898(11) 0.37966(10)
H9 H 0.3818 -0.0499 0.3671
C15 C 0.4821(2) 0.03315(10) 0.46408(10)
C16 C 0.5194(3) 0.12205(12) 0.47780(12)
H10 H 0.5668 0.1416 0.5334
C17 C 0.4868(3) 0.18143(12) 0.40971(12)
H11 H 0.5142 0.2407 0.4203
B1 B 0.3886(3) 0.23321(12) 0.24961(12)
F1B F 0.98344(18) -0.21060(8) 0.69646(9)
F2B F 1.09031(15) -0.50863(7) 0.64204(7)
O1B O 0.69166(16) -0.18711(7) 0.82965(7)
O2B O 0.42206(16) -0.26032(8) 0.76933(7)
N1B N 0.58280(18) -0.15716(9) 0.67117(8)
C1B C 0.7372(2) -0.31016(11) 0.71544(10)
C2B C 0.9200(2) -0.29518(11) 0.69677(11)
C3B C 1.0425(2) -0.35941(12) 0.67374(11)
H1B H 1.1655 -0.3464 0.6641
C4B C 0.9734(2) -0.44395(12) 0.66579(10)
C5B C 0.7926(2) -0.46522(11) 0.68075(11)
H2B H 0.7486 -0.5227 0.6742
C6B C 0.6791(2) -0.39732(11) 0.70592(11)
H3B H 0.5572 -0.4109 0.7171
C7B C 0.5450(2) -0.17093(10) 0.87938(10)
C8B C 0.3848(2) -0.21355(10) 0.84380(10)
C9B C 0.2191(2) -0.20787(11) 0.88306(11)
H4B H 0.1128 -0.2370 0.8597
C10B C 0.2177(3) -0.15622(12) 0.95985(11)
H5B H 0.1078 -0.1506 0.9879
C11B C 0.3762(3) -0.11350(12) 0.99483(11)
H6B H 0.3705 -0.0794 1.0457
C12B C 0.5447(3) -0.12046(11) 0.95547(11)
H7B H 0.6519 -0.0924 0.9794
C13B C 0.6220(3) -0.07215(11) 0.68561(10)
H8B H 0.6722 -0.0548 0.7415
C14B C 0.5906(3) -0.00898(11) 0.62034(10)
H9B H 0.6182 0.0499 0.6329
C15B C 0.5179(2) -0.03315(10) 0.53592(10)
C16B C 0.4806(3) -0.12205(12) 0.52220(12)
H10B H 0.4332 -0.1416 0.4666
C17B C 0.5132(3) -0.18143(12) 0.59029(12)
H11B H 0.4858 -0.2407 0.5797
B1B B 0.6114(3) -0.23321(12) 0.75039(12)
C18 C 0.0532(3) 0.05540(16) 0.56963(14)
H13 H 0.0890 0.0929 0.6166
C19 C -0.0010(3) 0.09052(16) 0.48704(14)
H14 H -0.0014 0.1513 0.4784
C20 C -0.0546(3) 0.03438(16) 0.41742(14)
H15 H -0.0915 0.0575 0.3618
C18B C -0.0532(3) -0.05540(16) 0.43037(14)
H13B H -0.0890 -0.0929 0.3834
C19B C 0.0010(3) -0.09052(16) 0.51296(14)
H14B H 0.0014 -0.1513 0.5216
C20B C 0.0546(3) -0.03438(16) 0.58258(14)
H15B H 0.0915 -0.0575 0.6382
F3? F 0.5023(6) 0.4196(3) 0.2990(3)
H12? H 0.0369 0.2373 0.2999
loop_
_geom_bond_atom_site_label_1
_geom_bond_atom_site_label_2
_geom_bond_site_symmetry_1
_geom_bond_site_symmetry_2
F1 C2 1_555 1_555
F2 C4 1_555 1_555
O1 C7 1_555 1_555
O2 C8 1_555 1_555
N1 C13 1_555 1_555
C1 C2 1_555 1_555
C2 C3 1_555 1_555
C3 H1 1_555 1_555
C4 C3 1_555 1_555
C5 C4 1_555 1_555
H2 C5 1_555 1_555
C6 C1 1_555 1_555
H3 C6 1_555 1_555
C7 C8 1_555 1_555
C8 C9 1_555 1_555
C9 H4 1_555 1_555
C10 C9 1_555 1_555
H5 C10 1_555 1_555
C11 C10 1_555 1_555
H6 C11 1_555 1_555
C12 C7 1_555 1_555
H7 C12 1_555 1_555
C13 H8 1_555 1_555
C14 C13 1_555 1_555
H9 C14 1_555 1_555
C15 C14 1_555 1_555
C16 C15 1_555 1_555
H10 C16 1_555 1_555
C17 N1 1_555 1_555
H11 C17 1_555 1_555
B1 O1 1_555 1_555
C18 H13 1_555 1_555
C19 C18 1_555 1_555
H14 C19 1_555 1_555
C20 C19 1_555 1_555
H15 C20 1_555 1_555
F1B C2B 1_555 1_555
F2B C4B 1_555 1_555
O1B C7B 1_555 1_555
O2B C8B 1_555 1_555
N1B C13B 1_555 1_555
C1B C2B 1_555 1_555
C2B C3B 1_555 1_555
C3B H1B 1_555 1_555
C4B C3B 1_555 1_555
C5B C4B 1_555 1_555
H2B C5B 1_555 1_555
C6B C1B 1_555 1_555
H3B C6B 1_555 1_555
C7B C8B 1_555 1_555
C8B C9B 1_555 1_555
C9B H4B 1_555 1_555
C10B C9B 1_555 1_555
H5B C10B 1_555 1_555
C11B C10B 1_555 1_555
H6B C11B 1_555 1_555
C12B C7B 1_555 1_555
H7B C12B 1_555 1_555
C13B H8B 1_555 1_555
C14B C13B 1_555 1_555
H9B C14B 1_555 1_555
C15B C15 1_555 1_555
C16B C15B 1_555 1_555
H10B C16B 1_555 1_555
C17B N1B 1_555 1_555
H11B C17B 1_555 1_555
B1B O1B 1_555 1_555
C18B C20 1_555 1_555
H13B C18B 1_555 1_555
C19B C18B 1_555 1_555
H14B C19B 1_555 1_555
C20B C18 1_555 1_555
H15B C20B 1_555 1_555
O2 B1 1_555 1_555
N1 B1 1_555 1_555
C1 B1 1_555 1_555
C5 C6 1_555 1_555
C11 C12 1_555 1_555
C16 C17 1_555 1_555
O2B B1B 1_555 1_555
N1B B1B 1_555 1_555
C1B B1B 1_555 1_555
C5B C6B 1_555 1_555
C11B C12B 1_555 1_555
C14B C15B 1_555 1_555
C16B C17B 1_555 1_555
C19B C20B 1_555 1_555

#END
