
#######################################################################
#
#                 Cambridge Crystallographic Data Centre
#                                CCDC 
#
#######################################################################
#
# If this CIF has been generated from an entry in the Cambridge 
# Structural Database, then it will include bibliographic, chemical, 
# crystal, experimental, refinement or atomic coordinate data resulting 
# from the CCDC's data processing and validation procedures.
#
#######################################################################

data_KEZWAQ
_chemical_formula_moiety         'C34 H22 B2 F4 N2 O4,2(C7 H5 N1)'
_chemical_name_systematic        
"1,1'-bis[2-(2,4-difluorophenyl)-2H-1,3,2-benzodioxaborol-2-yl]-4,4'-bi-1-pyridine bis(benzonitrile)"
_symmetry_cell_setting           triclinic
_symmetry_space_group_name_H-M   'P -1'
_symmetry_Int_Tables_number      2
_space_group_name_Hall           '-P 1'
loop_
_symmetry_equiv_pos_site_id
_symmetry_equiv_pos_as_xyz
1 x,y,z
2 -x,-y,-z
_cell_length_a                   9.7034(4)
_cell_length_b                   10.0334(5)
_cell_length_c                   23.7112(17)
_cell_angle_alpha                99.478(5)
_cell_angle_beta                 92.155(5)
_cell_angle_gamma                114.320(5)
_cell_volume                     2060.58
_exptl_crystal_colour            orange
_exptl_crystal_description       rhombohedral
_cell_formula_units_Z            2
_exptl_crystal_recrystallization_method benzonitrile
loop_
_atom_site_label
_atom_site_type_symbol
_atom_site_fract_x
_atom_site_fract_y
_atom_site_fract_z
O1 O 0.6697(2) 0.5926(2) 0.45086(10)
O2 O 0.9039(2) 0.5737(3) 0.45007(10)
N1 N 0.6848(3) 0.3704(3) 0.48039(12)
F1 F 0.9357(3) 0.8608(2) 0.51956(11)
C1 C 0.5393(3) 0.0777(3) 0.49517(14)
C2 C 0.7394(4) 0.6386(3) 0.40379(14)
C3 C 0.4597(4) 0.1570(4) 0.48283(19)
H1 H 0.3539 0.1122 0.4795
C4 C 0.8771(4) 0.6285(3) 0.40361(15)
C5 C 0.8160(4) 0.6313(4) 0.54929(15)
C6 C 0.6871(4) 0.6904(4) 0.36186(16)
H2 H 0.5943 0.6970 0.3622
C7 C 0.8952(4) 0.7855(4) 0.56337(17)
C8 C 0.9693(4) 0.6696(4) 0.36065(16)
H3 H 1.0615 0.6617 0.3604
F2 F 0.9288(4) 0.8737(3) 0.71730(11)
B1 B 0.7725(4) 0.5494(4) 0.48249(18)
C9 C 0.5344(4) 0.3022(4) 0.47534(17)
H4 H 0.4777 0.3531 0.4666
C10 C 0.9175(5) 0.7233(4) 0.31780(17)
H5 H 0.9768 0.7531 0.2884
C11 C 0.7806(5) 0.7331(4) 0.31821(17)
H6 H 0.7489 0.7689 0.2889
C12 C 0.7631(4) 0.2942(4) 0.4907(2)
H7 H 0.8688 0.3406 0.4931
C13 C 0.7782(5) 0.5634(4) 0.59690(16)
H8 H 0.7247 0.4601 0.5904
C14 C 0.6942(4) 0.1496(4) 0.49790(19)
H9 H 0.7535 0.0997 0.5047
C15 C 0.9357(5) 0.8693(4) 0.61821(19)
H10 H 0.9891 0.9726 0.6251
C16 C 0.8938(5) 0.7940(5) 0.66237(19)
C17 C 0.8161(5) 0.6415(5) 0.65299(18)
H11 H 0.7898 0.5923 0.6836
O1A O 0.3303(2) -0.5926(2) 0.54914(10)
O2A O 0.0961(2) -0.5737(3) 0.54993(10)
N1A N 0.3152(3) -0.3704(3) 0.51961(12)
F1A F 0.0643(3) -0.8608(2) 0.48044(11)
C1A C 0.4607(3) -0.0777(3) 0.50483(14)
C2A C 0.2606(4) -0.6386(3) 0.59621(14)
C3A C 0.5403(4) -0.1570(4) 0.51717(19)
H1A H 0.6461 -0.1122 0.5205
C4A C 0.1229(4) -0.6285(3) 0.59639(15)
C5A C 0.1840(4) -0.6313(4) 0.45071(15)
C6A C 0.3129(4) -0.6904(4) 0.63814(16)
H2A H 0.4057 -0.6970 0.6378
C7A C 0.1048(4) -0.7855(4) 0.43663(17)
C8A C 0.0307(4) -0.6696(4) 0.63935(16)
H3A H -0.0615 -0.6617 0.6396
F2A F 0.0712(4) -0.8737(3) 0.28270(11)
B1A B 0.2275(4) -0.5494(4) 0.51751(18)
C9A C 0.4656(4) -0.3022(4) 0.52466(17)
H4A H 0.5223 -0.3531 0.5334
C10A C 0.0825(5) -0.7233(4) 0.68220(17)
H5A H 0.0232 -0.7531 0.7116
C11A C 0.2194(5) -0.7331(4) 0.68179(17)
H6A H 0.2511 -0.7689 0.7111
C12A C 0.2369(4) -0.2942(4) 0.5093(2)
H7A H 0.1312 -0.3406 0.5069
C13A C 0.2218(5) -0.5634(4) 0.40310(16)
H8A H 0.2753 -0.4601 0.4096
C14A C 0.3058(4) -0.1496(4) 0.50210(19)
H9A H 0.2465 -0.0997 0.4953
C15A C 0.0643(5) -0.8693(4) 0.38179(19)
H10A H 0.0109 -0.9726 0.3749
C16A C 0.1062(5) -0.7940(5) 0.33763(19)
C17A C 0.1839(5) -0.6415(5) 0.34701(18)
H11A H 0.2102 -0.5923 0.3164
O3 O 0.7010(2) 0.1423(2) 0.05215(10)
O4 O 0.9350(2) 0.1230(2) 0.05207(10)
N2 N 0.6967(3) -0.1093(3) 0.01858(12)
F3 F 0.9244(3) 0.3489(2) -0.01154(10)
C18 C 0.5420(4) -0.4174(3) 0.00436(14)
F4 F 0.8268(3) 0.1858(3) -0.21094(10)
C19 C 0.9366(4) 0.2223(4) 0.09974(15)
C20 C 0.7918(4) 0.0911(3) -0.04663(15)
C21 C 0.7994(4) 0.2331(3) 0.10013(15)
C22 C 0.8624(4) 0.2333(4) -0.05780(16)
C23 C 0.8779(4) 0.2704(4) -0.11102(17)
H12 H 0.9279 0.3688 -0.1154
B2 B 0.7849(4) 0.0693(4) 0.01897(18)
C24 C 1.0539(4) 0.3023(4) 0.14309(16)
H13 H 1.1459 0.2940 0.1430
C25 C 0.7723(5) 0.3242(4) 0.14366(17)
H14 H 0.6794 0.3306 0.1439
C26 C 0.7327(4) -0.0197(4) -0.09614(16)
H15 H 0.6832 -0.1184 -0.0919
C27 C 0.8155(4) 0.1541(4) -0.15747(16)
C28 C 0.7692(4) -0.1959(4) 0.0086(2)
H16 H 0.8734 -0.1521 0.0063
C29 C 0.4700(4) -0.3255(4) 0.0166(2)
H17 H 0.3663 -0.3668 0.0200
C30 C 0.6952(4) -0.3483(4) 0.00144(19)
H18 H 0.7500 -0.4054 -0.0055
C31 C 0.5494(4) -0.1725(4) 0.0239(2)
H19 H 0.4982 -0.1125 0.0327
C32 C 1.0281(5) 0.3969(4) 0.18733(17)
H20 H 1.1056 0.4542 0.2171
C33 C 0.8922(6) 0.4073(4) 0.18798(17)
H21 H 0.8787 0.4706 0.2184
C34 C 0.7436(5) 0.0091(4) -0.15107(17)
H22 H 0.7031 -0.0683 -0.1831
O3A O 0.2990(2) -1.1423(2) -0.05215(10)
O4A O 0.0650(2) -1.1230(2) -0.05207(10)
N2A N 0.3033(3) -0.8907(3) -0.01858(12)
F3A F 0.0756(3) -1.3489(2) 0.01154(10)
C18A C 0.4580(4) -0.5826(3) -0.00436(14)
F4A F 0.1732(3) -1.1858(3) 0.21094(10)
C19A C 0.0634(4) -1.2223(4) -0.09974(15)
C20A C 0.2082(4) -1.0911(3) 0.04663(15)
C21A C 0.2006(4) -1.2331(3) -0.10013(15)
C22A C 0.1376(4) -1.2333(4) 0.05780(16)
C23A C 0.1221(4) -1.2704(4) 0.11102(17)
H12A H 0.0721 -1.3688 0.1154
B2A B 0.2151(4) -1.0693(4) -0.01897(18)
C24A C -0.0539(4) -1.3023(4) -0.14309(16)
H13A H -0.1459 -1.2940 -0.1430
C25A C 0.2277(5) -1.3242(4) -0.14366(17)
H14A H 0.3206 -1.3306 -0.1439
C26A C 0.2673(4) -0.9803(4) 0.09614(16)
H15A H 0.3168 -0.8816 0.0919
C27A C 0.1845(4) -1.1541(4) 0.15747(16)
C28A C 0.2308(4) -0.8041(4) -0.0086(2)
H16A H 0.1266 -0.8479 -0.0063
C29A C 0.5300(4) -0.6745(4) -0.0166(2)
H17A H 0.6337 -0.6332 -0.0200
C30A C 0.3048(4) -0.6517(4) -0.00144(19)
H18A H 0.2500 -0.5946 0.0055
C31A C 0.4506(4) -0.8275(4) -0.0239(2)
H19A H 0.5018 -0.8875 -0.0327
C32A C -0.0281(5) -1.3969(4) -0.18733(17)
H20A H -0.1056 -1.4542 -0.2171
C33A C 0.1078(6) -1.4073(4) -0.18798(17)
H21A H 0.1213 -1.4706 -0.2184
C34A C 0.2564(5) -1.0091(4) 0.15107(17)
H22A H 0.2969 -0.9317 0.1831
C35 C 0.4970(4) 0.0265(5) 0.33072(17)
C36 C 0.4184(5) -0.1229(6) 0.3401(2)
C37 C 0.6465(6) 0.3084(5) 0.3093(2)
H23 H 0.6972 0.4033 0.3013
C38 C 0.4149(5) 0.0980(5) 0.31238(19)
H24 H 0.3091 0.0507 0.3068
C39 C 0.6543(5) 0.0959(6) 0.3386(2)
H25 H 0.7098 0.0473 0.3509
N3 N 0.3551(5) -0.2433(6) 0.3465(3)
C40 C 0.7279(5) 0.2381(5) 0.3280(2)
H26 H 0.8337 0.2861 0.3335
C41 C 0.4910(6) 0.2408(5) 0.3023(2)
H27 H 0.4363 0.2910 0.2908
C42 C 0.5870(4) 0.6739(4) 0.17170(17)
C43 C 0.7488(6) 0.9773(5) 0.18594(19)
H28 H 0.8042 1.0802 0.1916
C44 C 0.7399(5) 0.7327(5) 0.16301(18)
H29 H 0.7878 0.6705 0.1525
C45 C 0.8186(5) 0.8851(5) 0.1704(2)
H30 H 0.9209 0.9262 0.1647
C46 C 0.5153(5) 0.7656(5) 0.1866(2)
H31 H 0.4128 0.7256 0.1921
C47 C 0.5037(5) 0.5151(5) 0.1670(2)
C48 C 0.5979(6) 0.9185(5) 0.1932(2)
H32 H 0.5503 0.9814 0.2027
N4 N 0.4384(5) 0.3889(5) 0.1644(3)
loop_
_geom_bond_atom_site_label_1
_geom_bond_atom_site_label_2
_geom_bond_site_symmetry_1
_geom_bond_site_symmetry_2
O1 C2 1_555 1_555
O2 C4 1_555 1_555
N1 B1 1_555 1_555
F1 C7 1_555 1_555
C1 C3 1_555 1_555
C2 C4 1_555 1_555
C3 H1 1_555 1_555
C4 C8 1_555 1_555
C5 C7 1_555 1_555
C6 C2 1_555 1_555
H2 C6 1_555 1_555
C7 C15 1_555 1_555
C8 H3 1_555 1_555
F2 C16 1_555 1_555
B1 O1 1_555 1_555
C9 N1 1_555 1_555
H4 C9 1_555 1_555
C10 C8 1_555 1_555
H5 C10 1_555 1_555
C11 C6 1_555 1_555
H6 C11 1_555 1_555
C12 N1 1_555 1_555
H7 C12 1_555 1_555
C13 C5 1_555 1_555
H8 C13 1_555 1_555
C14 C1 1_555 1_555
H9 C14 1_555 1_555
C15 H10 1_555 1_555
C16 C15 1_555 1_555
C17 C13 1_555 1_555
H11 C17 1_555 1_555
O3 C21 1_555 1_555
O4 C19 1_555 1_555
N2 B2 1_555 1_555
F3 C22 1_555 1_555
C18 C29 1_555 1_555
F4 C27 1_555 1_555
C19 C21 1_555 1_555
C20 C22 1_555 1_555
C21 C25 1_555 1_555
C22 C23 1_555 1_555
C23 H12 1_555 1_555
B2 O3 1_555 1_555
C24 C19 1_555 1_555
H13 C24 1_555 1_555
C25 H14 1_555 1_555
C26 C20 1_555 1_555
H15 C26 1_555 1_555
C27 C23 1_555 1_555
C28 N2 1_555 1_555
H16 C28 1_555 1_555
C29 H17 1_555 1_555
C30 C18 1_555 1_555
H18 C30 1_555 1_555
C31 N2 1_555 1_555
H19 C31 1_555 1_555
C32 C24 1_555 1_555
H20 C32 1_555 1_555
C33 C25 1_555 1_555
H21 C33 1_555 1_555
C34 C26 1_555 1_555
H22 C34 1_555 1_555
C35 C36 1_555 1_555
C36 N3 1_555 1_555
C37 H23 1_555 1_555
C38 C35 1_555 1_555
H24 C38 1_555 1_555
C39 C35 1_555 1_555
H25 C39 1_555 1_555
C40 C37 1_555 1_555
H26 C40 1_555 1_555
C41 C37 1_555 1_555
H27 C41 1_555 1_555
C42 C44 1_555 1_555
C43 H28 1_555 1_555
C44 H29 1_555 1_555
C45 C43 1_555 1_555
H30 C45 1_555 1_555
C46 C42 1_555 1_555
H31 C46 1_555 1_555
C47 C42 1_555 1_555
C48 C43 1_555 1_555
H32 C48 1_555 1_555
N4 C47 1_555 1_555
O1A C2A 1_555 1_555
O2A C4A 1_555 1_555
N1A B1A 1_555 1_555
F1A C7A 1_555 1_555
C1A C1 1_555 1_555
C2A C4A 1_555 1_555
C3A C1A 1_555 1_555
H1A C3A 1_555 1_555
C4A C8A 1_555 1_555
C5A C7A 1_555 1_555
C6A C2A 1_555 1_555
H2A C6A 1_555 1_555
C7A C15A 1_555 1_555
C8A H3A 1_555 1_555
F2A C16A 1_555 1_555
B1A O1A 1_555 1_555
C9A N1A 1_555 1_555
H4A C9A 1_555 1_555
C10A C8A 1_555 1_555
H5A C10A 1_555 1_555
C11A C6A 1_555 1_555
H6A C11A 1_555 1_555
C12A N1A 1_555 1_555
H7A C12A 1_555 1_555
C13A C5A 1_555 1_555
H8A C13A 1_555 1_555
C14A C1A 1_555 1_555
H9A C14A 1_555 1_555
C15A H10A 1_555 1_555
C16A C15A 1_555 1_555
C17A C13A 1_555 1_555
H11A C17A 1_555 1_555
O3A C21A 1_555 1_555
O4A C19A 1_555 1_555
N2A B2A 1_555 1_555
F3A C22A 1_555 1_555
C18A C18 1_555 1_555
F4A C27A 1_555 1_555
C19A C21A 1_555 1_555
C20A C22A 1_555 1_555
C21A C25A 1_555 1_555
C22A C23A 1_555 1_555
C23A H12A 1_555 1_555
B2A O3A 1_555 1_555
C24A C19A 1_555 1_555
H13A C24A 1_555 1_555
C25A H14A 1_555 1_555
C26A C20A 1_555 1_555
H15A C26A 1_555 1_555
C27A C23A 1_555 1_555
C28A N2A 1_555 1_555
H16A C28A 1_555 1_555
C29A C18A 1_555 1_555
H17A C29A 1_555 1_555
C30A C18A 1_555 1_555
H18A C30A 1_555 1_555
C31A N2A 1_555 1_555
H19A C31A 1_555 1_555
C32A C24A 1_555 1_555
H20A C32A 1_555 1_555
C33A C25A 1_555 1_555
H21A C33A 1_555 1_555
C34A C26A 1_555 1_555
H22A C34A 1_555 1_555
O2 B1 1_555 1_555
C3 C9 1_555 1_555
C5 B1 1_555 1_555
C10 C11 1_555 1_555
C12 C14 1_555 1_555
C16 C17 1_555 1_555
O4 B2 1_555 1_555
C20 B2 1_555 1_555
C27 C34 1_555 1_555
C28 C30 1_555 1_555
C29 C31 1_555 1_555
C32 C33 1_555 1_555
C38 C41 1_555 1_555
C39 C40 1_555 1_555
C44 C45 1_555 1_555
C46 C48 1_555 1_555
O2A B1A 1_555 1_555
C3A C9A 1_555 1_555
C5A B1A 1_555 1_555
C10A C11A 1_555 1_555
C12A C14A 1_555 1_555
C16A C17A 1_555 1_555
O4A B2A 1_555 1_555
C20A B2A 1_555 1_555
C27A C34A 1_555 1_555
C28A C30A 1_555 1_555
C29A C31A 1_555 1_555
C32A C33A 1_555 1_555

#END
