
#######################################################################
#
#                 Cambridge Crystallographic Data Centre
#                                CCDC 
#
#######################################################################
#
# If this CIF has been generated from an entry in the Cambridge 
# Structural Database, then it will include bibliographic, chemical, 
# crystal, experimental, refinement or atomic coordinate data resulting 
# from the CCDC's data processing and validation procedures.
#
#######################################################################

data_KEZYIY
_chemical_formula_moiety         'C25 H20 O1 Si1'
_chemical_name_systematic        
6,7-Dihydro-6,6-diphenyl-5-oxa-6-siladibenzo(a,c)cycloheptene
_symmetry_cell_setting           monoclinic
_symmetry_space_group_name_H-M   'P 21/c'
_symmetry_Int_Tables_number      14
_space_group_name_Hall           '-P 2ybc'
loop_
_symmetry_equiv_pos_site_id
_symmetry_equiv_pos_as_xyz
1 x,y,z
2 -x,1/2+y,1/2-z
3 -x,-y,-z
4 x,1/2-y,1/2+z
_cell_length_a                   15.5742(11)
_cell_length_b                   18.9111(14)
_cell_length_c                   12.9999(9)
_cell_angle_alpha                90
_cell_angle_beta                 96.122(1)
_cell_angle_gamma                90
_cell_volume                     3806.96
_exptl_crystal_colour            colorless
_exptl_crystal_description       block
_cell_formula_units_Z            8
_exptl_crystal_recrystallization_method dichloromethane/hexane
loop_
_atom_site_label
_atom_site_type_symbol
_atom_site_fract_x
_atom_site_fract_y
_atom_site_fract_z
C1 C 0.24489(12) 0.87904(10) 0.97868(14)
C2 C 0.31781(12) 0.88182(10) 0.91349(14)
C3 C 0.21857(12) 0.81614(10) 1.02274(15)
C4 C 0.32293(12) 0.83630(11) 0.82883(15)
C5 C 0.15046(12) 0.81606(11) 1.08276(15)
H1 H 0.1322 0.7728 1.1105
C6 C 0.39405(14) 0.84086(13) 0.77243(16)
H2 H 0.3988 0.8091 0.7166
C7 C 0.10857(13) 0.87817(12) 1.10292(15)
H3 H 0.0618 0.8775 1.1442
C8 C 0.45785(16) 0.89090(14) 0.79653(18)
H4 H 0.5060 0.8933 0.7575
C9 C 0.13478(14) 0.94092(12) 1.06296(16)
H5 H 0.1071 0.9839 1.0780
C10 C 0.45165(16) 0.93708(14) 0.87676(19)
H6 H 0.4948 0.9721 0.8925
C11 C 0.20206(13) 0.94126(11) 1.00038(16)
H7 H 0.2191 0.9847 0.9719
C12 C 0.38225(14) 0.93240(12) 0.93466(17)
H8 H 0.3785 0.9645 0.9902
O1 O 0.26305(10) 0.75184(8) 1.00582(13)
C13 C 0.25456(11) 0.78447(10) 0.80152(16)
H9 H 0.2626 0.7648 0.7326
H10 H 0.1985 0.8096 0.7950
Si1 Si 0.24822(3) 0.71345(3) 0.88781(4)
C14 C 0.33651(11) 0.64878(10) 0.87691(15)
C15 C 0.33933(12) 0.61164(11) 0.78387(15)
H11 H 0.2952 0.6188 0.7285
C16 C 0.40596(13) 0.56463(11) 0.77210(17)
H12 H 0.4072 0.5399 0.7086
C17 C 0.47012(13) 0.55347(12) 0.8512(2)
H13 H 0.5156 0.5213 0.8422
C18 C 0.46864(13) 0.58882(12) 0.94351(19)
H14 H 0.5129 0.5809 0.9985
C19 C 0.40224(13) 0.63624(11) 0.95633(17)
H15 H 0.4017 0.6605 1.0203
C20 C 0.14157(11) 0.66918(10) 0.86683(14)
C21 C 0.06451(12) 0.70665(11) 0.84073(15)
H16 H 0.0665 0.7564 0.8316
C22 C -0.01453(12) 0.67203(12) 0.82807(16)
H17 H -0.0661 0.6982 0.8104
C23 C -0.01843(13) 0.59900(12) 0.84117(17)
H18 H -0.0725 0.5753 0.8321
C24 C 0.05660(13) 0.56123(12) 0.86740(16)
H19 H 0.0542 0.5115 0.8766
C25 C 0.13552(12) 0.59602(10) 0.88036(15)
H20 H 0.1867 0.5695 0.8989
C26 C 0.13757(12) 0.36960(10) 0.63903(13)
C27 C 0.07400(11) 0.37305(10) 0.71644(14)
C28 C 0.08946(12) 0.34226(10) 0.81487(14)
C29 C 0.22446(12) 0.39059(10) 0.66182(14)
C30 C 0.27920(13) 0.38594(11) 0.58415(15)
H21 H 0.3381 0.3990 0.5993
C31 C 0.02796(14) 0.34423(13) 0.88354(16)
H22 H 0.0397 0.3229 0.9497
C32 C 0.25034(15) 0.36283(12) 0.48560(16)
H23 H 0.2890 0.3602 0.4340
C33 C -0.05034(14) 0.37679(13) 0.85717(18)
H24 H -0.0924 0.3781 0.9050
C34 C -0.06766(13) 0.40784(13) 0.76019(18)
H25 H -0.1214 0.4306 0.7415
C35 C 0.16499(15) 0.34366(12) 0.46279(16)
H26 H 0.1444 0.3285 0.3950
C36 C 0.10930(14) 0.34658(11) 0.53897(15)
H27 H 0.0508 0.3327 0.5229
C37 C -0.00604(12) 0.40532(11) 0.69105(15)
H28 H -0.0185 0.4261 0.6246
O2 O 0.16731(8) 0.30668(7) 0.84264(10)
C38 C 0.25628(12) 0.41881(10) 0.76620(14)
H29 H 0.2188 0.4586 0.7827
H30 H 0.3154 0.4376 0.7641
Si2 Si 0.25821(3) 0.35245(3) 0.87038(4)
C39 C 0.34881(12) 0.28824(10) 0.87145(14)
C40 C 0.39951(12) 0.27096(11) 0.96270(15)
H31 H 0.3881 0.2933 1.0252
C41 C 0.46585(13) 0.22233(12) 0.96523(16)
H32 H 0.4986 0.2110 1.0290
C42 C 0.48455(14) 0.19022(12) 0.87490(17)
H33 H 0.5305 0.1571 0.8760
C43 C 0.43610(17) 0.20660(14) 0.78312(17)
H34 H 0.4487 0.1845 0.7208
C44 C 0.36898(15) 0.25519(12) 0.78099(16)
H35 H 0.3363 0.2661 0.7170
C45 C 0.26093(11) 0.39570(11) 0.99923(14)
C46 C 0.23728(12) 0.35841(14) 1.08455(15)
H36 H 0.2166 0.3113 1.0759
C47 C 0.24364(14) 0.38940(17) 1.18203(17)
H37 H 0.2280 0.3632 1.2396
C48 C 0.27261(14) 0.45796(16) 1.19539(18)
H38 H 0.2767 0.4790 1.2621
C49 C 0.29554(14) 0.49596(14) 1.11258(18)
H39 H 0.3148 0.5434 1.1219
C50 C 0.29062(12) 0.46507(12) 1.01511(16)
H40 H 0.3077 0.4914 0.9585
loop_
_geom_bond_atom_site_label_1
_geom_bond_atom_site_label_2
_geom_bond_site_symmetry_1
_geom_bond_site_symmetry_2
C1 C2 1_555 1_555
C2 C4 1_555 1_555
C3 C1 1_555 1_555
C4 C6 1_555 1_555
C5 C3 1_555 1_555
H1 C5 1_555 1_555
C6 H2 1_555 1_555
C7 C5 1_555 1_555
H3 C7 1_555 1_555
C8 C6 1_555 1_555
H4 C8 1_555 1_555
C9 C7 1_555 1_555
H5 C9 1_555 1_555
C10 C8 1_555 1_555
H6 C10 1_555 1_555
C11 C1 1_555 1_555
H7 C11 1_555 1_555
C12 C2 1_555 1_555
H8 C12 1_555 1_555
O1 C3 1_555 1_555
C13 C4 1_555 1_555
H9 C13 1_555 1_555
H10 C13 1_555 1_555
Si1 O1 1_555 1_555
C14 Si1 1_555 1_555
C15 C14 1_555 1_555
H11 C15 1_555 1_555
C16 C15 1_555 1_555
H12 C16 1_555 1_555
C17 C16 1_555 1_555
H13 C17 1_555 1_555
C18 C17 1_555 1_555
H14 C18 1_555 1_555
C19 C14 1_555 1_555
H15 C19 1_555 1_555
C20 Si1 1_555 1_555
C21 C20 1_555 1_555
H16 C21 1_555 1_555
C22 C21 1_555 1_555
H17 C22 1_555 1_555
C23 C22 1_555 1_555
H18 C23 1_555 1_555
C24 C23 1_555 1_555
H19 C24 1_555 1_555
C25 C20 1_555 1_555
H20 C25 1_555 1_555
C26 C27 1_555 1_555
C27 C28 1_555 1_555
C28 C31 1_555 1_555
C29 C26 1_555 1_555
C30 C29 1_555 1_555
H21 C30 1_555 1_555
C31 H22 1_555 1_555
C32 C30 1_555 1_555
H23 C32 1_555 1_555
C33 C31 1_555 1_555
H24 C33 1_555 1_555
C34 C33 1_555 1_555
H25 C34 1_555 1_555
C35 C32 1_555 1_555
H26 C35 1_555 1_555
C36 C26 1_555 1_555
H27 C36 1_555 1_555
C37 C27 1_555 1_555
H28 C37 1_555 1_555
O2 C28 1_555 1_555
C38 C29 1_555 1_555
H29 C38 1_555 1_555
H30 C38 1_555 1_555
Si2 O2 1_555 1_555
C39 Si2 1_555 1_555
C40 C39 1_555 1_555
H31 C40 1_555 1_555
C41 C40 1_555 1_555
H32 C41 1_555 1_555
C42 C41 1_555 1_555
H33 C42 1_555 1_555
C43 C42 1_555 1_555
H34 C43 1_555 1_555
C44 C39 1_555 1_555
H35 C44 1_555 1_555
C45 Si2 1_555 1_555
C46 C45 1_555 1_555
H36 C46 1_555 1_555
C47 C46 1_555 1_555
H37 C47 1_555 1_555
C48 C47 1_555 1_555
H38 C48 1_555 1_555
C49 C48 1_555 1_555
H39 C49 1_555 1_555
C50 C45 1_555 1_555
H40 C50 1_555 1_555
C9 C11 1_555 1_555
C10 C12 1_555 1_555
C13 Si1 1_555 1_555
C18 C19 1_555 1_555
C24 C25 1_555 1_555
C34 C37 1_555 1_555
C35 C36 1_555 1_555
C38 Si2 1_555 1_555
C43 C44 1_555 1_555
C49 C50 1_555 1_555

#END
