
#######################################################################
#
#                 Cambridge Crystallographic Data Centre
#                                CCDC 
#
#######################################################################
#
# If this CIF has been generated from an entry in the Cambridge 
# Structural Database, then it will include bibliographic, chemical, 
# crystal, experimental, refinement or atomic coordinate data resulting 
# from the CCDC's data processing and validation procedures.
#
#######################################################################

data_KIBDIL
_chemical_formula_moiety         'C12 H13 N1 O3'
_chemical_name_systematic        
3-hydroxy-5-methyl-3-(2-oxopropyl)-1,3-dihydro-2H-indol-2-one
_symmetry_cell_setting           monoclinic
_symmetry_space_group_name_H-M   'P 21/c'
_symmetry_Int_Tables_number      14
_space_group_name_Hall           '-P 2ybc'
loop_
_symmetry_equiv_pos_site_id
_symmetry_equiv_pos_as_xyz
1 x,y,z
2 -x,1/2+y,1/2-z
3 -x,-y,-z
4 x,1/2-y,1/2+z
_cell_length_a                   13.2534(18)
_cell_length_b                   8.3221(12)
_cell_length_c                   10.4135(16)
_cell_angle_alpha                90
_cell_angle_beta                 107.232(7)
_cell_angle_gamma                90
_cell_volume                     1097.01
_exptl_crystal_colour            yellow
_exptl_crystal_description       block
_cell_formula_units_Z            4
loop_
_atom_site_label
_atom_site_type_symbol
_atom_site_fract_x
_atom_site_fract_y
_atom_site_fract_z
O1 O 0.36572(8) 1.10370(13) 0.87368(10)
N1 N 0.29746(9) 1.15313(15) 1.14315(12)
O2 O 0.46375(8) 1.05266(15) 1.17249(10)
C1 C 0.19877(10) 1.14555(16) 1.04371(13)
C2 C 0.12111(11) 1.02923(16) 0.82569(13)
H1 H 0.1273 0.9692 0.7531
O3 O 0.26299(10) 0.76578(16) 1.11337(12)
C3 C 0.32212(10) 1.00902(17) 0.95977(13)
C4 C 0.02285(11) 1.09195(17) 0.82541(14)
C5 C 0.01627(11) 1.17979(18) 0.93604(15)
H2 H -0.0489 1.2212 0.9361
C6 C 0.34357(11) 0.83124(17) 0.94438(14)
H3 H 0.3085 0.8001 0.8522
H4 H 0.4189 0.8173 0.9597
C7 C 0.20833(10) 1.05727(16) 0.93445(13)
C8 C 0.37163(10) 1.07068(17) 1.10570(13)
C9 C 0.30890(11) 0.71839(18) 1.03581(14)
C10 C 0.10340(11) 1.20793(18) 1.04657(14)
H5 H 0.0975 1.2668 1.1199
C11 C -0.07419(12) 1.0651(2) 0.70856(16)
H6 H -0.1360 1.0765 0.7380
H7 H -0.0723 0.9589 0.6734
H8 H -0.0763 1.1429 0.6397
C12 C 0.33572(16) 0.5445(2) 1.0267(2)
H9 H 0.2909 0.4795 1.0631
H10 H 0.4082 0.5266 1.0770
H11 H 0.3252 0.5162 0.9343
H12 H 0.3107(13) 1.2123(18) 1.2159(12)
H13 H 0.4209(11) 1.057(2) 0.8636(19)
loop_
_geom_bond_atom_site_label_1
_geom_bond_atom_site_label_2
_geom_bond_site_symmetry_1
_geom_bond_site_symmetry_2
O1 C3 1_555 1_555
N1 C1 1_555 1_555
O2 C8 1_555 1_555
C1 C7 1_555 1_555
C2 H1 1_555 1_555
O3 C9 1_555 1_555
C3 C6 1_555 1_555
C4 C2 1_555 1_555
C5 C4 1_555 1_555
H2 C5 1_555 1_555
C6 H3 1_555 1_555
H4 C6 1_555 1_555
C7 C2 1_555 1_555
C8 N1 1_555 1_555
C9 C6 1_555 1_555
C10 C1 1_555 1_555
H5 C10 1_555 1_555
C11 C4 1_555 1_555
H6 C11 1_555 1_555
H7 C11 1_555 1_555
H8 C11 1_555 1_555
C12 C9 1_555 1_555
H9 C12 1_555 1_555
H10 C12 1_555 1_555
H11 C12 1_555 1_555
H12 N1 1_555 1_555
H13 O1 1_555 1_555
C3 C7 1_555 1_555
C3 C8 1_555 1_555
C5 C10 1_555 1_555

#END
