
#######################################################################
#
#                 Cambridge Crystallographic Data Centre
#                                CCDC 
#
#######################################################################
#
# If this CIF has been generated from an entry in the Cambridge 
# Structural Database, then it will include bibliographic, chemical, 
# crystal, experimental, refinement or atomic coordinate data resulting 
# from the CCDC's data processing and validation procedures.
#
#######################################################################

data_KIBROC
_chemical_formula_moiety         'C7 H3 I1 N1 O6 1-,Na1 1+,2(H2 O1)'
_chemical_name_systematic        'Sodium 2-iodyl-4-nitrobenzoic acid dihydrate'
_symmetry_cell_setting           triclinic
_symmetry_space_group_name_H-M   'P -1'
_symmetry_Int_Tables_number      2
_space_group_name_Hall           '-P 1'
loop_
_symmetry_equiv_pos_site_id
_symmetry_equiv_pos_as_xyz
1 x,y,z
2 -x,-y,-z
_cell_length_a                   5.7717(9)
_cell_length_b                   9.637(2)
_cell_length_c                   10.862(2)
_cell_angle_alpha                108.72(2)
_cell_angle_beta                 103.34(4)
_cell_angle_gamma                91.01(2)
_cell_volume                     554.002
_cell_formula_units_Z            2
loop_
_atom_site_label
_atom_site_type_symbol
_atom_site_fract_x
_atom_site_fract_y
_atom_site_fract_z
I1 I 0.4182(1) -0.0371(1) -0.1763(1)
O1 O -0.3009(4) 0.0941(3) -0.3152(2)
O2 O 0.0630(4) 0.1040(3) -0.1867(2)
O3 O 0.6320(4) -0.1698(3) -0.2050(2)
O4 O 0.3273(6) -0.5027(4) -0.6393(3)
O5 O -0.0348(6) -0.5490(3) -0.7567(3)
O6 O 0.2851(4) -0.0972(3) -0.0641(2)
N1 N 0.1207(6) -0.4759(3) -0.6599(3)
C1 C 0.2267(6) -0.2742(3) -0.4454(3)
C2 C 0.0575(6) -0.3443(3) -0.5641(3)
C3 C -0.1628(6) -0.2946(4) -0.5974(3)
C4 C -0.2177(6) -0.1677(4) -0.5089(3)
C5 C -0.0533(6) -0.0937(3) -0.3890(3)
C6 C 0.1654(6) -0.1490(3) -0.3594(3)
C7 C -0.1040(6) 0.0463(4) -0.2900(3)
H5 H 0.3730(64) -0.3038(36) -0.4227(33)
H6 H -0.2705(74) -0.3462(41) -0.6772(38)
H7 H -0.3579(63) -0.1323(35) -0.5289(33)
Na1 Na -0.0354(3) -0.2315(2) -0.0450(1)
O7 O -0.3894(5) -0.3826(3) -0.0760(3)
H1 H -0.5244 -0.3260 -0.0811
H2 H -0.3740 -0.4182 -0.0017
O8 O 0.2755(5) -0.3364(3) 0.0839(3)
H3 H 0.3822 -0.2583 0.1535
H4 H 0.3637 -0.3963 0.0253
loop_
_geom_bond_atom_site_label_1
_geom_bond_atom_site_label_2
_geom_bond_site_symmetry_1
_geom_bond_site_symmetry_2
I1 O3 1_555 1_555
O1 C7 1_555 1_555
O2 C7 1_555 1_555
O4 N1 1_555 1_555
O5 N1 1_555 1_555
O6 I1 1_555 1_555
N1 C2 1_555 1_555
C1 C2 1_555 1_555
C2 C3 1_555 1_555
C3 C4 1_555 1_555
C4 C5 1_555 1_555
C5 C6 1_555 1_555
C6 I1 1_555 1_555
C7 C5 1_555 1_555
O7 H1 1_555 1_555
O8 H3 1_555 1_555
H2 O7 1_555 1_555
H4 O8 1_555 1_555
H5 C1 1_555 1_555
H6 C3 1_555 1_555
H7 C4 1_555 1_555
C1 C6 1_555 1_555

#END
