
#######################################################################
#
#                 Cambridge Crystallographic Data Centre
#                                CCDC 
#
#######################################################################
#
# If this CIF has been generated from an entry in the Cambridge 
# Structural Database, then it will include bibliographic, chemical, 
# crystal, experimental, refinement or atomic coordinate data resulting 
# from the CCDC's data processing and validation procedures.
#
#######################################################################

data_KIBREV
_chemical_formula_moiety         'C104 H124 N2 O22'
_chemical_name_systematic        
N,N'-(hexane-1,6-diyl)bis(2-{[34-butoxy-9,14,19,24,26,28,30,32-octamethoxyhexacyclo[21.2.2.2^3,6^.2^8,11^.2^13,16^.2^18,21^]pentatriaconta-1(25),3,5,8,10,13,15,18,20,23,26,28,30,32,34-pentadecaen-4-yl]oxy}acetamide)
_symmetry_cell_setting           triclinic
_symmetry_space_group_name_H-M   'P -1'
_symmetry_Int_Tables_number      2
_space_group_name_Hall           '-P 1'
loop_
_symmetry_equiv_pos_site_id
_symmetry_equiv_pos_as_xyz
1 x,y,z
2 -x,-y,-z
_cell_length_a                   12.413(2)
_cell_length_b                   22.404(3)
_cell_length_c                   22.568(3)
_cell_angle_alpha                62.389(4)
_cell_angle_beta                 77.747(4)
_cell_angle_gamma                81.705(4)
_cell_volume                     5427.08
_exptl_crystal_colour            colorless
_exptl_crystal_description       block
_cell_formula_units_Z            2
loop_
_atom_site_label
_atom_site_type_symbol
_atom_site_fract_x
_atom_site_fract_y
_atom_site_fract_z
C1 C 0.2449(6) 0.0266(4) 0.6035(4)
H1 H 0.2525 0.0058 0.6510
H2 H 0.2386 -0.0093 0.5920
C2 C 0.1382(6) 0.0720(4) 0.5940(4)
C3 C 0.1028(7) 0.1065(4) 0.6332(4)
C4 C 0.0062(7) 0.1484(4) 0.6232(4)
H3 H -0.0195 0.1690 0.6515
C5 C -0.0521(6) 0.1603(4) 0.5727(4)
C6 C -0.0158(6) 0.1242(4) 0.5346(4)
C7 C 0.0782(7) 0.0818(4) 0.5442(4)
H4 H 0.1017 0.0597 0.5173
C8 C -0.1510(6) 0.2083(4) 0.5607(4)
H5 H -0.1903 0.2064 0.6035
H6 H -0.2005 0.1955 0.5411
C9 C -0.1159(6) 0.2801(4) 0.5127(4)
C10 C -0.0859(7) 0.3210(4) 0.5375(5)
C11 C -0.0481(7) 0.3850(4) 0.4929(4)
H7 H -0.0295 0.4122 0.5099
C12 C -0.0382(6) 0.4081(4) 0.4243(5)
C13 C -0.0693(7) 0.3674(4) 0.3993(5)
C14 C -0.1049(7) 0.3039(4) 0.4452(5)
H8 H -0.1222 0.2762 0.4283
C15 C 0.0090(7) 0.4780(4) 0.3758(5)
H9 H -0.0272 0.4991 0.3362
H10 H -0.0062 0.5067 0.3985
C16 C 0.1322(7) 0.4716(4) 0.3536(5)
C17 C 0.2076(8) 0.4763(4) 0.3896(5)
C18 C 0.3213(8) 0.4715(4) 0.3682(5)
H11 H 0.3704 0.4768 0.3910
C19 C 0.3610(7) 0.4586(4) 0.3119(4)
C20 C 0.2870(8) 0.4529(5) 0.2776(4)
C21 C 0.1724(7) 0.4611(5) 0.2977(5)
H12 H 0.1235 0.4593 0.2727
C22 C 0.4869(8) 0.4511(5) 0.2912(5)
H13 H 0.5039 0.4642 0.2429
H14 H 0.5227 0.4814 0.2997
C23 C 0.5311(7) 0.3821(5) 0.3281(5)
C24 C 0.5709(6) 0.3600(4) 0.3880(4)
C25 C 0.6100(6) 0.2923(4) 0.4228(5)
H15 H 0.6382 0.2790 0.4624
C26 C 0.6072(6) 0.2449(5) 0.3993(5)
C27 C 0.5697(8) 0.2663(5) 0.3382(5)
C28 C 0.5330(7) 0.3347(5) 0.3039(5)
H16 H 0.5088 0.3489 0.2630
C29 C 0.6409(7) 0.1725(4) 0.4402(4)
H17 H 0.6916 0.1694 0.4689
H18 H 0.6787 0.1534 0.4101
C30 C 0.5395(7) 0.1323(4) 0.4843(5)
C31 C 0.5033(6) 0.1252(4) 0.5504(4)
C32 C 0.4074(7) 0.0919(4) 0.5877(4)
H19 H 0.3822 0.0885 0.6310
C33 C 0.3470(7) 0.0631(4) 0.5616(4)
C34 C 0.3862(7) 0.0690(4) 0.4976(5)
C35 C 0.4824(7) 0.1023(4) 0.4596(5)
H20 H 0.5086 0.1044 0.4170
C36 C 0.2416(10) -0.0294(6) 0.3135(6)
H21 H 0.2348 -0.0746 0.3492
H22 H 0.2705 -0.0307 0.2711
H23 H 0.1703 -0.0060 0.3111
C37 C 0.3185(9) 0.0067(5) 0.3277(4)
H24 H 0.3233 0.0526 0.2919
H25 H 0.3916 -0.0154 0.3266
C38 C 0.2830(7) 0.0083(4) 0.3951(4)
H26 H 0.2107 0.0315 0.3957
H27 H 0.2763 -0.0375 0.4307
C39 C 0.3611(7) 0.0426(4) 0.4095(4)
H28 H 0.4337 0.0200 0.4086
H29 H 0.3669 0.0889 0.3746
C40 C 0.5217(8) 0.1615(5) 0.6325(5)
H30 H 0.5809 0.1704 0.6488
H31 H 0.4922 0.1189 0.6669
C41 C 0.4318(8) 0.2165(5) 0.6245(5)
C42 C 0.3353(7) 0.3117(5) 0.5422(5)
H32 H 0.3677 0.3519 0.5049
H33 H 0.3063 0.3218 0.5801
C43 C 0.2410(8) 0.2937(5) 0.5211(5)
H34 H 0.1869 0.3314 0.5081
H35 H 0.2051 0.2553 0.5592
C44 C 0.2830(9) 0.2767(6) 0.4617(6)
H36 H 0.3266 0.3132 0.4261
H37 H 0.3316 0.2364 0.4767
C45 C 0.1971(9) 0.2658(6) 0.4333(5)
H38 H 0.1511 0.3070 0.4159
H39 H 0.1509 0.2311 0.4695
C46 C 0.2389(9) 0.2448(5) 0.3765(5)
H40 H 0.2929 0.2760 0.3428
H41 H 0.2755 0.2003 0.3950
C47 C 0.1468(11) 0.2439(8) 0.3423(7)
H42 H 0.0914 0.2137 0.3757
H43 H 0.1119 0.2887 0.3217
C48 C 0.1318(11) 0.2052(6) 0.2611(5)
C49 C 0.1882(8) 0.1792(6) 0.2103(5)
H44 H 0.1795 0.1311 0.2295
H45 H 0.1547 0.2016 0.1697
C50 C 0.3671(8) 0.1767(5) 0.1431(5)
C51 C 0.3590(8) 0.1175(5) 0.1403(5)
H46 H 0.3071 0.0874 0.1721
C52 C 0.4246(8) 0.1015(5) 0.0925(5)
C53 C 0.5013(8) 0.1505(6) 0.0447(5)
C54 C 0.5072(8) 0.2080(5) 0.0473(5)
H47 H 0.5581 0.2388 0.0155
C55 C 0.4411(8) 0.2225(5) 0.0949(5)
C56 C 0.4462(10) 0.2919(5) 0.0934(6)
H48 H 0.4276 0.2874 0.1392
H49 H 0.5206 0.3072 0.0751
C57 C 0.3659(9) 0.3437(5) 0.0499(5)
C58 C 0.2582(11) 0.3529(5) 0.0773(6)
H50 H 0.2342 0.3275 0.1234
C59 C 0.1842(11) 0.3997(6) 0.0373(6)
C60 C 0.2182(11) 0.4376(5) -0.0311(6)
C61 C 0.3267(12) 0.4272(6) -0.0601(6)
H51 H 0.3498 0.4522 -0.1064
C62 C 0.4016(10) 0.3794(6) -0.0199(7)
C63 C 0.1414(11) 0.4883(5) -0.0767(6)
H52 H 0.0924 0.5101 -0.0520
H53 H 0.1847 0.5228 -0.1153
C64 C 0.0731(10) 0.4575(5) -0.1020(5)
C65 C -0.0260(10) 0.4320(7) -0.0663(6)
H54 H -0.0543 0.4360 -0.0266
C66 C -0.0878(10) 0.3994(8) -0.0883(7)
C67 C -0.0481(9) 0.3955(6) -0.1487(6)
C68 C 0.0496(9) 0.4234(5) -0.1857(5)
H55 H 0.0754 0.4222 -0.2270
C69 C 0.1112(9) 0.4535(5) -0.1636(5)
C70 C -0.1098(10) 0.3572(8) -0.1703(7)
H56 H -0.1067 0.3805 -0.2190
H57 H -0.1867 0.3555 -0.1491
C71 C -0.0575(10) 0.2838(7) -0.1492(6)
C72 C -0.0946(14) 0.2351(11) -0.0882(7)
H58 H -0.1498 0.2455 -0.0589
C73 C -0.0508(16) 0.1680(12) -0.0678(7)
C74 C 0.0348(19) 0.1548(8) -0.1075(7)
C75 C 0.0787(13) 0.2054(6) -0.1687(6)
H59 H 0.1397 0.1958 -0.1955
C76 C 0.0313(10) 0.2715(6) -0.1907(5)
C77 C 0.101(2) 0.0799(7) -0.0852(8)
H60 H 0.0475 0.0453 -0.0599
H61 H 0.1357 0.0755 -0.1258
C78 C 0.1882(14) 0.0683(6) -0.0421(6)
C79 C 0.1520(13) 0.0442(5) 0.0292(5)
H62 H 0.0781 0.0356 0.0475
C80 C 0.2274(14) 0.0334(6) 0.0712(6)
C81 C 0.3348(14) 0.0454(6) 0.0458(6)
C82 C 0.3706(13) 0.0694(5) -0.0244(6)
H63 H 0.4450 0.0765 -0.0422
C83 C 0.2983(14) 0.0822(6) -0.0660(6)
C84 C 0.4144(11) 0.0368(5) 0.0896(5)
H64 H 0.4861 0.0220 0.0723
H65 H 0.3905 0.0022 0.1350
C85 C 0.6122(11) 0.1810(6) -0.0647(5)
H66 H 0.6584 0.2091 -0.0594
H67 H 0.5517 0.2093 -0.0866
C86 C 0.6794(11) 0.1489(7) -0.1080(6)
H68 H 0.7436 0.1244 -0.0878
H69 H 0.6352 0.1165 -0.1079
C87 C 0.7165(11) 0.1980(7) -0.1788(6)
H70 H 0.7574 0.2316 -0.1786
H71 H 0.6520 0.2209 -0.1995
C88 C 0.7876(13) 0.1681(8) -0.2221(7)
H72 H 0.8551 0.1490 -0.2047
H73 H 0.8039 0.2027 -0.2678
H74 H 0.7492 0.1335 -0.2215
C89 C 0.0865(14) 0.0031(10) 0.1682(7)
H75 H 0.0546 0.0395 0.1786
H76 H 0.0805 -0.0387 0.2091
H77 H 0.0479 0.0010 0.1366
C90 C 0.4265(16) 0.1466(8) -0.1672(8)
H78 H 0.4230 0.1780 -0.1489
H79 H 0.4325 0.1708 -0.2157
H80 H 0.4898 0.1160 -0.1558
C91 C -0.1596(14) 0.1291(14) 0.0409(10)
H81 H -0.1307 0.1641 0.0452
H82 H -0.1708 0.0904 0.0844
H83 H -0.2287 0.1449 0.0247
C92 C 0.1769(9) 0.3146(6) -0.2864(6)
H84 H 0.2293 0.2973 -0.2557
H85 H 0.1991 0.3574 -0.3229
H86 H 0.1741 0.2836 -0.3043
C93 C -0.2235(19) 0.3776(17) 0.0082(12)
H87 H -0.2247 0.3332 0.0456
H88 H -0.2961 0.3991 0.0085
H89 H -0.1730 0.4037 0.0121
C94 C 0.2494(10) 0.4766(7) -0.2607(6)
H90 H 0.2798 0.4318 -0.2511
H91 H 0.3055 0.5083 -0.2876
H92 H 0.1894 0.4868 -0.2852
C95 C 0.0353(13) 0.3622(8) 0.1295(7)
H93 H 0.0479 0.3170 0.1341
H94 H -0.0424 0.3714 0.1402
H95 H 0.0733 0.3666 0.1599
C96 C 0.5439(14) 0.4012(12) -0.1193(10)
H96 H 0.5885 0.3685 -0.1314
H97 H 0.5869 0.4390 -0.1322
H98 H 0.4813 0.4162 -0.1423
C97 C 0.1396(10) 0.1331(6) 0.7179(5)
H99 H 0.1420 0.1802 0.6867
H100 H 0.1917 0.1217 0.7479
H101 H 0.0667 0.1236 0.7438
C98 C -0.0573(9) 0.0976(6) 0.4514(5)
H102 H 0.0125 0.1079 0.4217
H103 H -0.1146 0.1063 0.4253
H104 H -0.0554 0.0510 0.4839
C99 C -0.0678(11) 0.3341(6) 0.6348(6)
H105 H 0.0084 0.3442 0.6175
H106 H -0.0781 0.3095 0.6834
H107 H -0.1128 0.3753 0.6219
C100 C -0.1132(9) 0.3611(6) 0.3038(6)
H108 H -0.1877 0.3532 0.3275
H109 H -0.0743 0.3189 0.3102
H110 H -0.1140 0.3892 0.2563
C101 C 0.2401(9) 0.4951(5) 0.4813(6)
H111 H 0.2960 0.4591 0.4912
H112 H 0.2008 0.4950 0.5229
H113 H 0.2740 0.5374 0.4532
C102 C 0.2554(12) 0.4352(9) 0.1835(7)
H114 H 0.2008 0.4033 0.2132
H115 H 0.2957 0.4210 0.1504
H116 H 0.2196 0.4788 0.1608
C103 C 0.6193(9) 0.3915(5) 0.4667(6)
H117 H 0.5814 0.3555 0.5057
H118 H 0.6145 0.4304 0.4749
H119 H 0.6954 0.3775 0.4584
C104 C 0.5310(13) 0.2398(8) 0.2527(7)
H120 H 0.4543 0.2543 0.2570
H121 H 0.5401 0.2018 0.2428
H122 H 0.5729 0.2760 0.2166
N1 N 0.4198(6) 0.2585(4) 0.5612(4)
H123 H 0.4657 0.2535 0.5292
N2 N 0.1938(9) 0.2204(5) 0.2886(5)
H124 H 0.2641 0.2175 0.2768
O1 O 0.5702(5) 0.4080(3) 0.4098(3)
O2 O 0.5700(6) 0.2204(4) 0.3158(3)
O3 O 0.1640(5) 0.4859(3) 0.4463(4)
O4 O 0.3321(6) 0.4389(4) 0.2233(3)
O5 O -0.0980(6) 0.2951(3) 0.6081(3)
O6 O -0.0590(5) 0.3943(3) 0.3297(3)
O7 O 0.1669(6) 0.0941(3) 0.6809(3)
O8 O -0.0786(5) 0.1383(3) 0.4854(3)
O9 O 0.3247(4) 0.0418(3) 0.4737(3)
O10 O 0.5662(5) 0.1549(3) 0.5728(3)
O11 O 0.3774(7) 0.2203(4) 0.6745(4)
O12 O 0.0285(8) 0.2061(6) 0.2761(5)
O13 O 0.3017(6) 0.1921(3) 0.1938(3)
O14 O 0.5704(8) 0.1300(4) -0.0005(4)
O15 O 0.0751(9) 0.4084(5) 0.0620(5)
O16 O 0.5051(8) 0.3698(5) -0.0444(5)
O17 O -0.1887(8) 0.3726(8) -0.0538(5)
O18 O 0.2106(7) 0.4810(4) -0.1996(4)
O19 O -0.0808(12) 0.1104(8) -0.0074(6)
O20 O 0.0692(7) 0.3230(4) -0.2507(3)
O21 O 0.1952(8) 0.0135(5) 0.1404(4)
O22 O 0.3282(12) 0.1094(5) -0.1394(5)
loop_
_geom_bond_atom_site_label_1
_geom_bond_atom_site_label_2
_geom_bond_site_symmetry_1
_geom_bond_site_symmetry_2
C1 H1 1_555 1_555
H2 C1 1_555 1_555
C2 C1 1_555 1_555
C3 C2 1_555 1_555
C4 C3 1_555 1_555
H3 C4 1_555 1_555
C5 C4 1_555 1_555
C6 C5 1_555 1_555
C7 C2 1_555 1_555
H4 C7 1_555 1_555
C8 C5 1_555 1_555
H5 C8 1_555 1_555
H6 C8 1_555 1_555
C9 C8 1_555 1_555
C10 C9 1_555 1_555
C11 C10 1_555 1_555
H7 C11 1_555 1_555
C12 C11 1_555 1_555
C13 C12 1_555 1_555
C14 C9 1_555 1_555
H8 C14 1_555 1_555
C15 C12 1_555 1_555
H9 C15 1_555 1_555
H10 C15 1_555 1_555
C16 C15 1_555 1_555
C17 C16 1_555 1_555
C18 C17 1_555 1_555
H11 C18 1_555 1_555
C19 C18 1_555 1_555
C20 C19 1_555 1_555
C21 C16 1_555 1_555
H12 C21 1_555 1_555
C22 C19 1_555 1_555
H13 C22 1_555 1_555
H14 C22 1_555 1_555
C23 C22 1_555 1_555
C24 C23 1_555 1_555
C25 C24 1_555 1_555
H15 C25 1_555 1_555
C26 C25 1_555 1_555
C27 C26 1_555 1_555
C28 C23 1_555 1_555
H16 C28 1_555 1_555
C29 C26 1_555 1_555
H17 C29 1_555 1_555
H18 C29 1_555 1_555
C30 C29 1_555 1_555
C31 C30 1_555 1_555
C32 C31 1_555 1_555
H19 C32 1_555 1_555
C33 C1 1_555 1_555
C34 C33 1_555 1_555
C35 C30 1_555 1_555
H20 C35 1_555 1_555
C36 H21 1_555 1_555
H22 C36 1_555 1_555
H23 C36 1_555 1_555
C37 C36 1_555 1_555
H24 C37 1_555 1_555
H25 C37 1_555 1_555
C38 C37 1_555 1_555
H26 C38 1_555 1_555
H27 C38 1_555 1_555
C39 C38 1_555 1_555
H28 C39 1_555 1_555
H29 C39 1_555 1_555
C40 H30 1_555 1_555
H31 C40 1_555 1_555
C41 C40 1_555 1_555
C42 H32 1_555 1_555
H33 C42 1_555 1_555
C43 C42 1_555 1_555
H34 C43 1_555 1_555
H35 C43 1_555 1_555
C44 C43 1_555 1_555
H36 C44 1_555 1_555
H37 C44 1_555 1_555
C45 C44 1_555 1_555
H38 C45 1_555 1_555
H39 C45 1_555 1_555
C46 C45 1_555 1_555
H40 C46 1_555 1_555
H41 C46 1_555 1_555
C47 C46 1_555 1_555
H42 C47 1_555 1_555
H43 C47 1_555 1_555
C48 C49 1_555 1_555
C49 H44 1_555 1_555
H45 C49 1_555 1_555
C50 C51 1_555 1_555
C51 H46 1_555 1_555
C52 C51 1_555 1_555
C53 C52 1_555 1_555
C54 C53 1_555 1_555
H47 C54 1_555 1_555
C55 C50 1_555 1_555
C56 C55 1_555 1_555
H48 C56 1_555 1_555
H49 C56 1_555 1_555
C57 C56 1_555 1_555
C58 C57 1_555 1_555
H50 C58 1_555 1_555
C59 C58 1_555 1_555
C60 C59 1_555 1_555
C61 C60 1_555 1_555
H51 C61 1_555 1_555
C62 C57 1_555 1_555
C63 C60 1_555 1_555
H52 C63 1_555 1_555
H53 C63 1_555 1_555
C64 C63 1_555 1_555
C65 C64 1_555 1_555
H54 C65 1_555 1_555
C66 C65 1_555 1_555
C67 C66 1_555 1_555
C68 C67 1_555 1_555
H55 C68 1_555 1_555
C69 C64 1_555 1_555
C70 C67 1_555 1_555
H56 C70 1_555 1_555
H57 C70 1_555 1_555
C71 C70 1_555 1_555
C72 C71 1_555 1_555
H58 C72 1_555 1_555
C73 C72 1_555 1_555
C74 C73 1_555 1_555
C75 C74 1_555 1_555
H59 C75 1_555 1_555
C76 C71 1_555 1_555
C77 C74 1_555 1_555
H60 C77 1_555 1_555
H61 C77 1_555 1_555
C78 C77 1_555 1_555
C79 C78 1_555 1_555
H62 C79 1_555 1_555
C80 C79 1_555 1_555
C81 C80 1_555 1_555
C82 C81 1_555 1_555
H63 C82 1_555 1_555
C83 C78 1_555 1_555
C84 C52 1_555 1_555
H64 C84 1_555 1_555
H65 C84 1_555 1_555
C85 H66 1_555 1_555
H67 C85 1_555 1_555
C86 C85 1_555 1_555
H68 C86 1_555 1_555
H69 C86 1_555 1_555
C87 C86 1_555 1_555
H70 C87 1_555 1_555
H71 C87 1_555 1_555
C88 C87 1_555 1_555
H72 C88 1_555 1_555
H73 C88 1_555 1_555
H74 C88 1_555 1_555
C89 H75 1_555 1_555
H76 C89 1_555 1_555
H77 C89 1_555 1_555
C90 H78 1_555 1_555
H79 C90 1_555 1_555
H80 C90 1_555 1_555
C91 H81 1_555 1_555
H82 C91 1_555 1_555
H83 C91 1_555 1_555
C92 H84 1_555 1_555
H85 C92 1_555 1_555
H86 C92 1_555 1_555
C93 H87 1_555 1_555
H88 C93 1_555 1_555
H89 C93 1_555 1_555
C94 H90 1_555 1_555
H91 C94 1_555 1_555
H92 C94 1_555 1_555
C95 H93 1_555 1_555
H94 C95 1_555 1_555
H95 C95 1_555 1_555
C96 H96 1_555 1_555
H97 C96 1_555 1_555
H98 C96 1_555 1_555
C97 H99 1_555 1_555
H100 C97 1_555 1_555
H101 C97 1_555 1_555
C98 H102 1_555 1_555
H103 C98 1_555 1_555
H104 C98 1_555 1_555
C99 H105 1_555 1_555
H106 C99 1_555 1_555
H107 C99 1_555 1_555
C100 H108 1_555 1_555
H109 C100 1_555 1_555
H110 C100 1_555 1_555
C101 H111 1_555 1_555
H112 C101 1_555 1_555
H113 C101 1_555 1_555
C102 H114 1_555 1_555
H115 C102 1_555 1_555
H116 C102 1_555 1_555
C103 H117 1_555 1_555
H118 C103 1_555 1_555
H119 C103 1_555 1_555
C104 H120 1_555 1_555
H121 C104 1_555 1_555
H122 C104 1_555 1_555
N1 C41 1_555 1_555
H123 N1 1_555 1_555
N2 C47 1_555 1_555
H124 N2 1_555 1_555
O1 C24 1_555 1_555
O2 C27 1_555 1_555
O3 C17 1_555 1_555
O4 C20 1_555 1_555
O5 C10 1_555 1_555
O6 C13 1_555 1_555
O7 C3 1_555 1_555
O8 C6 1_555 1_555
O9 C34 1_555 1_555
O10 C31 1_555 1_555
O11 C41 1_555 1_555
O12 C48 1_555 1_555
O13 C49 1_555 1_555
O14 C53 1_555 1_555
O15 C59 1_555 1_555
O16 C62 1_555 1_555
O17 C66 1_555 1_555
O18 C69 1_555 1_555
O19 C73 1_555 1_555
O20 C76 1_555 1_555
O21 C80 1_555 1_555
O22 C83 1_555 1_555
C6 C7 1_555 1_555
C13 C14 1_555 1_555
C20 C21 1_555 1_555
C27 C28 1_555 1_555
C32 C33 1_555 1_555
C34 C35 1_555 1_555
C39 O9 1_555 1_555
C40 O10 1_555 1_555
C42 N1 1_555 1_555
C48 N2 1_555 1_555
C50 O13 1_555 1_555
C54 C55 1_555 1_555
C61 C62 1_555 1_555
C68 C69 1_555 1_555
C75 C76 1_555 1_555
C81 C84 1_555 1_555
C82 C83 1_555 1_555
C85 O14 1_555 1_555
C89 O21 1_555 1_555
C90 O22 1_555 1_555
C91 O19 1_555 1_555
C92 O20 1_555 1_555
C93 O17 1_555 1_555
C94 O18 1_555 1_555
C95 O15 1_555 1_555
C96 O16 1_555 1_555
C97 O7 1_555 1_555
C98 O8 1_555 1_555
C99 O5 1_555 1_555
C100 O6 1_555 1_555
C101 O3 1_555 1_555
C102 O4 1_555 1_555
C103 O1 1_555 1_555
C104 O2 1_555 1_555

#END
