
#######################################################################
#
#                 Cambridge Crystallographic Data Centre
#                                CCDC 
#
#######################################################################
#
# If this CIF has been generated from an entry in the Cambridge 
# Structural Database, then it will include bibliographic, chemical, 
# crystal, experimental, refinement or atomic coordinate data resulting 
# from the CCDC's data processing and validation procedures.
#
#######################################################################

data_KIBRUL
_chemical_formula_moiety         'C8 N10 O8'
_chemical_name_systematic        
3,3'-bis(4-nitro-1,2,5-oxadiazol-3-yl)-5,5'-bi-1,2,4-oxadiazole
_symmetry_cell_setting           orthorhombic
_symmetry_space_group_name_H-M   'P b c a'
_symmetry_Int_Tables_number      61
_space_group_name_Hall           '-P 2ac 2ab'
loop_
_symmetry_equiv_pos_site_id
_symmetry_equiv_pos_as_xyz
1 x,y,z
2 1/2+x,1/2-y,-z
3 -x,1/2+y,1/2-z
4 1/2-x,-y,1/2+z
5 -x,-y,-z
6 1/2-x,1/2+y,z
7 x,1/2-y,1/2+z
8 1/2+x,y,1/2-z
_cell_length_a                   8.3326(6)
_cell_length_b                   7.9493(6)
_cell_length_c                   18.3856(13)
_cell_angle_alpha                90
_cell_angle_beta                 90
_cell_angle_gamma                90
_cell_volume                     1217.83
_exptl_crystal_colour            colorless
_exptl_crystal_description       tablet
_cell_formula_units_Z            4
loop_
_atom_site_label
_atom_site_type_symbol
_atom_site_fract_x
_atom_site_fract_y
_atom_site_fract_z
N1 N 0.35632(10) 1.00103(11) 0.73734(5)
O1 O 0.38376(11) 1.06577(11) 0.79614(4)
O2 O 0.24617(10) 0.90565(10) 0.72341(4)
C1 C 0.46336(11) 1.04294(12) 0.67766(5)
N2 N 0.53543(11) 1.18745(11) 0.67851(5)
O3 O 0.62160(9) 1.19092(9) 0.61536(4)
N3 N 0.60347(11) 1.04432(11) 0.57631(5)
C2 C 0.50373(11) 0.95115(11) 0.61379(5)
C3 C 0.46255(11) 0.78396(12) 0.58611(5)
N4 N 0.55485(10) 0.70935(10) 0.53297(4)
N5 N 0.33997(11) 0.69576(11) 0.60853(5)
O4 O 0.35107(9) 0.54828(9) 0.56720(4)
C4 C 0.48009(12) 0.56837(12) 0.52475(5)
N1D N 0.64368(10) -0.00103(11) 0.26266(5)
O1D O 0.61624(11) -0.06577(11) 0.20386(4)
O2D O 0.75383(10) 0.09435(10) 0.27659(4)
C1D C 0.53664(11) -0.04294(12) 0.32234(5)
N2D N 0.46457(11) -0.18745(11) 0.32149(5)
O3D O 0.37840(9) -0.19092(9) 0.38464(4)
N3D N 0.39653(11) -0.04432(11) 0.42369(5)
C2D C 0.49627(11) 0.04885(11) 0.38621(5)
C3D C 0.53745(11) 0.21604(12) 0.41389(5)
N4D N 0.44515(10) 0.29065(10) 0.46703(4)
N5D N 0.66003(11) 0.30424(11) 0.39147(5)
O4D O 0.64893(9) 0.45172(9) 0.43280(4)
C4D C 0.51991(12) 0.43163(12) 0.47525(5)
loop_
_geom_bond_atom_site_label_1
_geom_bond_atom_site_label_2
_geom_bond_site_symmetry_1
_geom_bond_site_symmetry_2
N1 O1 1_555 1_555
O2 N1 1_555 1_555
C1 N1 1_555 1_555
N2 C1 1_555 1_555
O3 N2 1_555 1_555
N3 O3 1_555 1_555
C2 C1 1_555 1_555
C3 C2 1_555 1_555
N4 C3 1_555 1_555
N5 C3 1_555 1_555
O4 N5 1_555 1_555
C4 N4 1_555 1_555
N1D O1D 1_555 1_555
O2D N1D 1_555 1_555
C1D N1D 1_555 1_555
N2D C1D 1_555 1_555
O3D N2D 1_555 1_555
N3D O3D 1_555 1_555
C2D C1D 1_555 1_555
C3D C2D 1_555 1_555
N4D C3D 1_555 1_555
N5D C3D 1_555 1_555
O4D N5D 1_555 1_555
C4D C4 1_555 1_555
N3 C2 1_555 1_555
O4 C4 1_555 1_555
N3D C2D 1_555 1_555
N4D C4D 1_555 1_555
O4D C4D 1_555 1_555

#END
