
#######################################################################
#
#                 Cambridge Crystallographic Data Centre
#                                CCDC 
#
#######################################################################
#
# If this CIF has been generated from an entry in the Cambridge 
# Structural Database, then it will include bibliographic, chemical, 
# crystal, experimental, refinement or atomic coordinate data resulting 
# from the CCDC's data processing and validation procedures.
#
#######################################################################

data_KICCUU
_chemical_formula_moiety         'C3 H4 F2 N1 O1 P1'
_chemical_name_systematic        5,5-Difluoro-4-oxa-5-phosphapentanenitrile
_symmetry_cell_setting           monoclinic
_symmetry_space_group_name_H-M   'P 21/c'
_symmetry_Int_Tables_number      14
_space_group_name_Hall           '-P 2ybc'
loop_
_symmetry_equiv_pos_site_id
_symmetry_equiv_pos_as_xyz
1 x,y,z
2 -x,1/2+y,1/2-z
3 -x,-y,-z
4 x,1/2-y,1/2+z
_cell_length_a                   8.0061(23)
_cell_length_b                   7.976(22)
_cell_length_c                   9.33077(27)
_cell_angle_alpha                90
_cell_angle_beta                 103.266(22)
_cell_angle_gamma                90
_cell_volume                     579.932
_exptl_crystal_colour            colorless
_chemical_melting_point          225K
_cell_formula_units_Z            4
loop_
_atom_site_label
_atom_site_type_symbol
_atom_site_fract_x
_atom_site_fract_y
_atom_site_fract_z
P1 P 0.61622(6) 0.22040(7) 0.08158(6)
F1 F 0.63976(16) 0.14360(18) 0.24012(13)
F2 F 0.61390(17) 0.40842(17) 0.13379(17)
O1 O 0.41813(16) 0.19052(17) 0.01870(14)
C1 C 0.28759(24) 0.2246(3) 0.10099(20)
H1 H 0.2613(24) 0.120(3) 0.1520(21)
H2 H 0.320(3) 0.310(3) 0.1680(23)
C2 C 0.12661(25) 0.2799(3) -0.00684(22)
H3 H 0.151(3) 0.383(3) -0.0568(24)
H4 H 0.043(3) 0.304(3) 0.0453(24)
C3 C 0.05912(22) 0.1509(3) -0.11728(20)
N1 N 0.00855(22) 0.05143(25) -0.20320(19)
loop_
_geom_bond_atom_site_label_1
_geom_bond_atom_site_label_2
_geom_bond_site_symmetry_1
_geom_bond_site_symmetry_2
P1 F1 1_555 1_555
F2 P1 1_555 1_555
O1 P1 1_555 1_555
C1 O1 1_555 1_555
H1 C1 1_555 1_555
H2 C1 1_555 1_555
C2 C1 1_555 1_555
H3 C2 1_555 1_555
H4 C2 1_555 1_555
C3 C2 1_555 1_555
N1 C3 1_555 1_555

#END
