
#######################################################################
#
#                 Cambridge Crystallographic Data Centre
#                                CCDC 
#
#######################################################################
#
# If this CIF has been generated from an entry in the Cambridge 
# Structural Database, then it will include bibliographic, chemical, 
# crystal, experimental, refinement or atomic coordinate data resulting 
# from the CCDC's data processing and validation procedures.
#
#######################################################################

data_KICGUA
_chemical_formula_moiety         'C61 H55 N3 O4'
_chemical_name_systematic        
"Diethyl 2,2'-(((4-methylphenyl)imino)bis(methylene))bis(1-(4-methylphenyl)-4,5-diphenyl-1H-pyrrole-3-carboxylate)"
_symmetry_cell_setting           monoclinic
_symmetry_space_group_name_H-M   'P 21/n'
_symmetry_Int_Tables_number      14
_space_group_name_Hall           '-P 2yn'
loop_
_symmetry_equiv_pos_site_id
_symmetry_equiv_pos_as_xyz
1 x,y,z
2 1/2-x,1/2+y,1/2-z
3 -x,-y,-z
4 1/2+x,1/2-y,1/2+z
_cell_length_a                   16.6227(16)
_cell_length_b                   14.4517(14)
_cell_length_c                   21.3942(19)
_cell_angle_alpha                90
_cell_angle_beta                 106.236(5)
_cell_angle_gamma                90
_cell_volume                     4934.48
_exptl_crystal_colour            colorless
_exptl_crystal_description       cubic
_cell_formula_units_Z            4
loop_
_atom_site_label
_atom_site_type_symbol
_atom_site_fract_x
_atom_site_fract_y
_atom_site_fract_z
C1 C 0.87836(19) 0.8571(2) 0.92032(15)
C2 C 0.8856(2) 0.9429(2) 0.89584(15)
C3 C 0.64835(19) 0.9613(2) 0.98277(15)
C4 C 0.84596(19) 0.9647(2) 0.98718(15)
C5 C 0.6032(2) 0.8488(2) 1.03814(15)
C6 C 0.8570(2) 1.1049(2) 0.92263(15)
C7 C 0.7958(2) 1.1346(2) 0.86858(16)
H1 H 0.7607 1.0919 0.8416
C8 C 0.63241(19) 0.8831(2) 0.94398(15)
C9 C 0.6443(2) 1.0007(2) 1.09476(16)
C10 C 0.85412(19) 0.8711(2) 0.97912(14)
C11 C 0.5861(2) 0.7139(2) 0.96116(15)
C12 C 0.8987(2) 1.2613(3) 0.94731(18)
H2 H 0.9337 1.3040 0.9743
C13 C 0.6796(2) 1.0543(2) 0.97058(15)
H3 H 0.6889 1.0542 0.9278
H4 H 0.6363 1.0996 0.9699
C14 C 0.7157(2) 1.2445(2) 1.01307(19)
H5 H 0.6828 1.2363 0.9705
C15 C 0.60498(19) 0.8116(2) 0.97962(15)
C16 C 0.8236(2) 1.0171(2) 1.04035(15)
H6 H 0.8078 0.9732 1.0691
H7 H 0.8730 1.0497 1.0656
C17 C 0.8870(2) 0.7697(2) 0.88631(15)
C18 C 0.7614(2) 1.1698(2) 1.04669(16)
C19 C 0.7220(2) 1.0393(3) 1.20285(18)
H8 H 0.7654 1.0258 1.2398
C20 C 0.9825(2) 1.0325(2) 0.84979(17)
H9 H 1.0078 1.0549 0.8914
C21 C 0.5951(2) 1.0776(3) 1.09332(17)
H10 H 0.5517 1.0906 1.0563
C22 C 0.6375(2) 0.8808(3) 0.87692(17)
C23 C 0.7868(2) 1.2270(3) 0.85479(18)
H11 H 0.7456 1.2461 0.8179
C24 C 0.9613(2) 0.7439(2) 0.87428(17)
H12 H 1.0090 0.7800 0.8900
C25 C 0.5754(2) 0.8082(3) 1.09159(15)
C26 C 0.8104(2) 1.1869(3) 1.10948(17)
H13 H 0.8427 1.1396 1.1333
C27 C 0.4932(3) 0.5835(3) 0.93913(18)
H14 H 0.4399 0.5593 0.9338
C28 C 0.9151(2) 0.9720(2) 0.84002(16)
C29 C 0.8491(2) 0.8019(2) 1.02744(18)
C30 C 0.5076(2) 0.6757(3) 0.95363(16)
H15 H 0.4641 0.7129 0.9584
C31 C 0.5202(2) 0.8562(3) 1.11858(17)
H16 H 0.5023 0.9151 1.1034
C32 C 0.6098(3) 1.1357(3) 1.14650(19)
H17 H 0.5762 1.1876 1.1450
C33 C 0.8367(3) 1.2926(2) 0.89352(18)
C34 C 0.9095(2) 1.1688(2) 0.96146(16)
H18 H 0.9522 1.1492 0.9972
C35 C 0.8117(3) 1.2733(3) 1.1371(2)
H19 H 0.8450 1.2825 1.1795
C36 C 0.8183(2) 0.7128(2) 0.86281(17)
H20 H 0.7680 0.7277 0.8714
C37 C 0.6002(3) 0.7205(3) 1.11485(18)
H21 H 0.6369 0.6873 1.0977
C38 C 1.0124(3) 1.0600(3) 0.7987(2)
H22 H 1.0577 1.1003 0.8058
C39 C 0.8786(2) 0.9398(3) 0.77793(17)
H23 H 0.8337 0.8990 0.7704
C40 C 0.9653(3) 0.6651(3) 0.8393(2)
H24 H 1.0160 0.6484 0.8320
C41 C 0.6347(3) 0.5637(3) 0.93978(18)
H25 H 0.6781 0.5260 0.9353
C42 C 0.7068(2) 0.9810(3) 1.15000(16)
H26 H 0.7392 0.9280 1.1519
C43 C 0.6490(2) 0.6558(3) 0.95373(17)
H27 H 0.7022 0.6798 0.9583
C44 C 0.8224(3) 0.6352(3) 0.82726(19)
H28 H 0.7750 0.5987 0.8113
C45 C 0.8741(3) 0.6443(3) 1.05874(19)
H29 H 0.8195 0.6360 1.0659
H30 H 0.9141 0.6593 1.1000
C46 C 0.8966(3) 0.6113(3) 0.8151(2)
H31 H 0.8997 0.5590 0.7906
C47 C 0.5564(3) 0.5268(3) 0.93239(17)
H32 H 0.5464 0.4643 0.9230
C48 C 0.7659(3) 1.3463(3) 1.1045(3)
C49 C 0.6740(3) 1.1174(3) 1.20206(19)
C50 C 0.7186(3) 1.3295(3) 1.0418(2)
H33 H 0.6875 1.3777 1.0180
C51 C 0.6129(3) 0.7918(3) 0.78015(18)
H34 H 0.6595 0.8271 0.7736
H35 H 0.6218 0.7273 0.7715
C52 C 0.9086(3) 0.9678(3) 0.72669(19)
H36 H 0.8834 0.9461 0.6849
C53 C 0.5711(3) 0.6818(3) 1.1632(2)
H37 H 0.5876 0.6224 1.1781
C54 C 0.9750(3) 1.0272(3) 0.7374(2)
H38 H 0.9949 1.0456 0.7028
C55 C 0.6928(3) 1.1837(4) 1.2591(2)
H39 H 0.6735 1.1576 1.2936
H40 H 0.6646 1.2414 1.2456
H41 H 0.7521 1.1941 1.2743
C56 C 0.8247(3) 1.3943(3) 0.8790(2)
H42 H 0.8022 1.4032 0.8330
H43 H 0.8777 1.4254 0.8938
H44 H 0.7866 1.4192 0.9011
C57 C 0.8997(4) 0.5591(3) 1.0318(3)
H45 H 0.8591 0.5441 0.9915
H46 H 0.9035 0.5093 1.0621
H47 H 0.9534 0.5685 1.0241
C58 C 0.4919(3) 0.8177(4) 1.1673(2)
H48 H 0.4554 0.8508 1.1849
C59 C 0.5171(4) 0.7314(5) 1.1898(2)
H49 H 0.4982 0.7057 1.2230
C60 C 0.7668(4) 1.4402(3) 1.1362(3)
H50 H 0.7475 1.4864 1.1031
H51 H 0.8229 1.4548 1.1613
H52 H 0.7307 1.4390 1.1642
C61 C 0.5378(4) 0.8227(5) 0.7359(2)
H53 H 0.4916 0.7872 0.7418
H54 H 0.5412 0.8148 0.6922
H55 H 0.5294 0.8869 0.7437
N1 N 0.62906(16) 0.94054(19) 1.03944(12)
N2 N 0.75622(16) 1.08329(18) 1.01800(12)
N3 N 0.86630(16) 1.00839(17) 0.93686(12)
O1 O 0.87120(15) 0.71728(16) 1.01252(11)
O2 O 0.61126(17) 0.80163(18) 0.84705(11)
O3 O 0.6619(2) 0.9428(2) 0.84948(13)
O4 O 0.8297(2) 0.81539(18) 1.07683(14)
loop_
_geom_bond_atom_site_label_1
_geom_bond_atom_site_label_2
_geom_bond_site_symmetry_1
_geom_bond_site_symmetry_2
C1 C2 1_555 1_555
C2 C28 1_555 1_555
C3 C8 1_555 1_555
C4 C10 1_555 1_555
C5 C15 1_555 1_555
C6 C7 1_555 1_555
C7 H1 1_555 1_555
C8 C15 1_555 1_555
C9 C21 1_555 1_555
C10 C1 1_555 1_555
C11 C15 1_555 1_555
C12 H2 1_555 1_555
C13 C3 1_555 1_555
H3 C13 1_555 1_555
H4 C13 1_555 1_555
C14 H5 1_555 1_555
C16 C4 1_555 1_555
H6 C16 1_555 1_555
H7 C16 1_555 1_555
C17 C1 1_555 1_555
C18 C14 1_555 1_555
C19 H8 1_555 1_555
C20 H9 1_555 1_555
C21 H10 1_555 1_555
C22 C8 1_555 1_555
C23 C7 1_555 1_555
H11 C23 1_555 1_555
C24 C17 1_555 1_555
H12 C24 1_555 1_555
C25 C5 1_555 1_555
C26 C18 1_555 1_555
H13 C26 1_555 1_555
C27 H14 1_555 1_555
C28 C20 1_555 1_555
C29 C10 1_555 1_555
C30 C11 1_555 1_555
H15 C30 1_555 1_555
C31 C25 1_555 1_555
H16 C31 1_555 1_555
C32 C21 1_555 1_555
H17 C32 1_555 1_555
C33 C12 1_555 1_555
C34 C6 1_555 1_555
H18 C34 1_555 1_555
C35 C26 1_555 1_555
H19 C35 1_555 1_555
C36 C17 1_555 1_555
H20 C36 1_555 1_555
C37 C25 1_555 1_555
H21 C37 1_555 1_555
C38 C20 1_555 1_555
H22 C38 1_555 1_555
C39 C28 1_555 1_555
H23 C39 1_555 1_555
C40 C24 1_555 1_555
H24 C40 1_555 1_555
C41 H25 1_555 1_555
C42 C9 1_555 1_555
H26 C42 1_555 1_555
C43 C11 1_555 1_555
H27 C43 1_555 1_555
C44 C36 1_555 1_555
H28 C44 1_555 1_555
C45 H29 1_555 1_555
H30 C45 1_555 1_555
C46 C40 1_555 1_555
H31 C46 1_555 1_555
C47 C27 1_555 1_555
H32 C47 1_555 1_555
C48 C35 1_555 1_555
C49 C19 1_555 1_555
C50 C14 1_555 1_555
H33 C50 1_555 1_555
C51 H34 1_555 1_555
H35 C51 1_555 1_555
C52 C39 1_555 1_555
H36 C52 1_555 1_555
C53 C37 1_555 1_555
H37 C53 1_555 1_555
C54 C38 1_555 1_555
H38 C54 1_555 1_555
C55 C49 1_555 1_555
H39 C55 1_555 1_555
H40 C55 1_555 1_555
H41 C55 1_555 1_555
C56 C33 1_555 1_555
H42 C56 1_555 1_555
H43 C56 1_555 1_555
H44 C56 1_555 1_555
C57 C45 1_555 1_555
H45 C57 1_555 1_555
H46 C57 1_555 1_555
H47 C57 1_555 1_555
C58 C31 1_555 1_555
H48 C58 1_555 1_555
C59 C53 1_555 1_555
H49 C59 1_555 1_555
C60 C48 1_555 1_555
H50 C60 1_555 1_555
H51 C60 1_555 1_555
H52 C60 1_555 1_555
C61 C51 1_555 1_555
H53 C61 1_555 1_555
H54 C61 1_555 1_555
H55 C61 1_555 1_555
N1 C3 1_555 1_555
N2 C13 1_555 1_555
N3 C2 1_555 1_555
O1 C29 1_555 1_555
O2 C22 1_555 1_555
O3 C22 1_555 1_555
O4 C29 1_555 1_555
C4 N3 1_555 1_555
C5 N1 1_555 1_555
C6 N3 1_555 1_555
C9 N1 1_555 1_555
C12 C34 1_555 1_555
C16 N2 1_555 1_555
C18 N2 1_555 1_555
C19 C42 1_555 1_555
C23 C33 1_555 1_555
C27 C30 1_555 1_555
C32 C49 1_555 1_555
C41 C43 1_555 1_555
C41 C47 1_555 1_555
C44 C46 1_555 1_555
C45 O1 1_555 1_555
C48 C50 1_555 1_555
C51 O2 1_555 1_555
C52 C54 1_555 1_555
C58 C59 1_555 1_555

#END
