
#######################################################################
#
#                 Cambridge Crystallographic Data Centre
#                                CCDC 
#
#######################################################################
#
# If this CIF has been generated from an entry in the Cambridge 
# Structural Database, then it will include bibliographic, chemical, 
# crystal, experimental, refinement or atomic coordinate data resulting 
# from the CCDC's data processing and validation procedures.
#
#######################################################################

data_KICNIV
_chemical_formula_moiety         'C57 H54 O6,3(C1 H4 O1)'
_chemical_name_systematic        
'1,3,5-tris(4-t-Butylphenyl)-2,4,6-tris(4-carboxyphenyl)benzene methanol solvate'
_symmetry_cell_setting           trigonal
_symmetry_space_group_name_H-M   'P 3 c 1'
_symmetry_Int_Tables_number      158
_space_group_name_Hall           'P 3 -2"c'
loop_
_symmetry_equiv_pos_site_id
_symmetry_equiv_pos_as_xyz
1 x,y,z
2 -y,x-y,z
3 -x+y,-x,z
4 -y,-x,1/2+z
5 -x+y,y,1/2+z
6 x,x-y,1/2+z
_cell_length_a                   17.687(3)
_cell_length_b                   17.687(3)
_cell_length_c                   10.556(2)
_cell_angle_alpha                90
_cell_angle_beta                 90
_cell_angle_gamma                120
_cell_volume                     2859.82
_exptl_crystal_colour            colorless
_exptl_crystal_description       block
_cell_formula_units_Z            2
loop_
_atom_site_label
_atom_site_type_symbol
_atom_site_fract_x
_atom_site_fract_y
_atom_site_fract_z
O1 O 0.3042(3) 0.4717(3) 0.5311(5)
O2 O 0.2833(3) 0.4145(4) 0.3378(4)
H1 H 0.2390 0.4195 0.3258
C1 C 0.3230(4) 0.4370(4) 0.4478(6)
C2 C 0.3950(3) 0.4162(3) 0.4582(5)
C3 C 0.4084(3) 0.3698(3) 0.3638(4)
H2 H 0.3718 0.3505 0.2911
C4 C 0.4757(3) 0.3520(3) 0.3766(4)
H3 H 0.4848 0.3202 0.3118
C5 C 0.5301(2) 0.3791(2) 0.4808(4)
C6 C 0.5178(3) 0.4270(3) 0.5750(4)
H4 H 0.5560 0.4478 0.6458
C7 C 0.4498(3) 0.4445(3) 0.5655(4)
H5 H 0.4402 0.4755 0.6311
C8 C 0.6018(2) 0.3572(2) 0.4896(4)
C9 C 0.6891(2) 0.4222(2) 0.4901(3)
C10 C 0.7153(2) 0.5163(2) 0.4913(4)
C11 C 0.6891(3) 0.5541(3) 0.3969(4)
H6 H 0.6511 0.5183 0.3315
C12 C 0.7174(3) 0.6427(3) 0.3970(4)
H7 H 0.6995 0.6665 0.3305
C13 C 0.7713(3) 0.6974(3) 0.4917(5)
C14 C 0.7956(3) 0.6604(3) 0.5872(4)
H8 H 0.8311 0.6961 0.6546
C15 C 0.7689(3) 0.5719(3) 0.5863(4)
H9 H 0.7877 0.5488 0.6524
C16 C 0.8028(4) 0.7966(3) 0.4915(6)
C17 C 0.7816(10) 0.8242(6) 0.3636(10)
H10 H 0.8010 0.8012 0.2941
H11 H 0.8118 0.8880 0.3584
H12 H 0.7185 0.8007 0.3570
C18 C 0.7639(15) 0.8179(11) 0.6044(17)
H13 H 0.7046 0.7695 0.6197
H14 H 0.7617 0.8712 0.5870
H15 H 0.8000 0.8267 0.6794
C19 C 0.9033(6) 0.8458(8) 0.5038(19)
H16 H 0.9199 0.8251 0.5791
H17 H 0.9249 0.9086 0.5118
H18 H 0.9287 0.8350 0.4283
O1A O 0.5283(3) -0.1675(4) 0.5311(5)
O2A O 0.5855(4) -0.1312(5) 0.3378(4)
H1A H 0.5805 -0.1805 0.3258
C1A C 0.5630(4) -0.1140(6) 0.4478(6)
C2A C 0.5838(3) -0.0212(4) 0.4582(5)
C3A C 0.6302(3) 0.0386(4) 0.3638(4)
H2A H 0.6495 0.0213 0.2911
C4A C 0.6480(3) 0.1237(4) 0.3766(4)
H3A H 0.6798 0.1646 0.3118
C5A C 0.6209(2) 0.1510(3) 0.4808(4)
C6A C 0.5730(3) 0.0908(4) 0.5750(4)
H4A H 0.5522 0.1082 0.6458
C7A C 0.5555(3) 0.0053(4) 0.5655(4)
H5A H 0.5245 -0.0353 0.6311
C8A C 0.6428(2) 0.2446(3) 0.4896(4)
C9A C 0.5778(2) 0.2669(3) 0.4901(3)
C10A C 0.4837(2) 0.1990(3) 0.4913(4)
C11A C 0.4459(3) 0.1350(4) 0.3969(4)
H6A H 0.4817 0.1328 0.3315
C12A C 0.3573(3) 0.0747(4) 0.3970(4)
H7A H 0.3335 0.0330 0.3305
C13A C 0.3026(3) 0.0739(4) 0.4917(5)
C14A C 0.3396(3) 0.1352(4) 0.5872(4)
H8A H 0.3039 0.1350 0.6546
C15A C 0.4281(3) 0.1970(4) 0.5863(4)
H9A H 0.4512 0.2389 0.6524
C16A C 0.2034(3) 0.0062(5) 0.4915(6)
C17A C 0.1758(6) -0.0426(12) 0.3636(10)
H10A H 0.1988 -0.0002 0.2941
H11A H 0.1120 -0.0762 0.3584
H12A H 0.1993 -0.0822 0.3570
C18A C 0.1821(11) -0.0540(19) 0.6044(17)
H13A H 0.2305 -0.0649 0.6197
H14A H 0.1288 -0.1095 0.5870
H15A H 0.1733 -0.0267 0.6794
C19A C 0.1542(8) 0.0575(10) 0.5038(19)
H16A H 0.1749 0.0948 0.5791
H17A H 0.0914 0.0163 0.5118
H18A H 0.1650 0.0937 0.4283
O1B O 1.1675(4) 0.6958(3) 0.5311(5)
O2B O 1.1312(5) 0.7167(3) 0.3378(4)
H1B H 1.1805 0.7610 0.3258
C1B C 1.1140(6) 0.6770(4) 0.4478(6)
C2B C 1.0212(4) 0.6050(3) 0.4582(5)
C3B C 0.9614(4) 0.5916(3) 0.3638(4)
H2B H 0.9787 0.6282 0.2911
C4B C 0.8763(4) 0.5243(3) 0.3766(4)
H3B H 0.8354 0.5152 0.3118
C5B C 0.8490(3) 0.4699(2) 0.4808(4)
C6B C 0.9092(4) 0.4822(3) 0.5750(4)
H4B H 0.8918 0.4440 0.6458
C7B C 0.9947(4) 0.5502(3) 0.5655(4)
H5B H 1.0353 0.5598 0.6311
C8B C 0.7554(3) 0.3982(2) 0.4896(4)
C9B C 0.7331(3) 0.3109(2) 0.4901(3)
C10B C 0.8010(3) 0.2847(2) 0.4913(4)
C11B C 0.8650(4) 0.3109(3) 0.3969(4)
H6B H 0.8672 0.3489 0.3315
C12B C 0.9253(4) 0.2826(3) 0.3970(4)
H7B H 0.9670 0.3005 0.3305
C13B C 0.9261(4) 0.2287(3) 0.4917(5)
C14B C 0.8648(4) 0.2044(3) 0.5872(4)
H8B H 0.8650 0.1689 0.6546
C15B C 0.8030(4) 0.2311(3) 0.5863(4)
H9B H 0.7611 0.2123 0.6524
C16B C 0.9938(5) 0.1972(4) 0.4915(6)
C17B C 1.0426(12) 0.2184(10) 0.3636(10)
H10B H 1.0002 0.1990 0.2941
H11B H 1.0762 0.1882 0.3584
H12B H 1.0822 0.2815 0.3570
C18B C 1.0540(19) 0.2361(15) 0.6044(17)
H13B H 1.0649 0.2954 0.6197
H14B H 1.1095 0.2383 0.5870
H15B H 1.0267 0.2000 0.6794
C19B C 0.9425(10) 0.0967(6) 0.5038(19)
H16B H 0.9052 0.0801 0.5791
H17B H 0.9837 0.0751 0.5118
H18B H 0.9063 0.0713 0.4283
O3 O 0.1603(5) 0.4478(5) 0.2924(6)
H28 H 0.1572 0.4441 0.2131
C23 C 0.1492(9) 0.5090(9) 0.3657(12)
H29 H 0.0972 0.5101 0.3365
H30 H 0.2007 0.5671 0.3560
H31 H 0.1422 0.4918 0.4551
C20? C 0.8508(19) 0.8378(13) 0.3678(16)
H19? H 0.8467 0.7919 0.3112
H20? H 0.9124 0.8792 0.3860
H21? H 0.8242 0.8685 0.3269
C21? C 0.7258(10) 0.8065(11) 0.539(3)
H22? H 0.6793 0.7835 0.4755
H23? H 0.7458 0.8683 0.5543
H24? H 0.7033 0.7738 0.6185
C22? C 0.8688(12) 0.8459(9) 0.5990(16)
H25? H 0.8372 0.8387 0.6784
H26? H 0.9030 0.9081 0.5778
H27? H 0.9081 0.8222 0.6088
O4? O 0.194(3) 0.492(3) 0.258(4)
H32? H 0.1449 0.4558 0.2302
C24? C 0.206(4) 0.575(3) 0.217(5)
H33? H 0.2639 0.6092 0.1785
H34? H 0.2005 0.6061 0.2891
H35? H 0.1611 0.5646 0.1535
loop_
_geom_bond_atom_site_label_1
_geom_bond_atom_site_label_2
_geom_bond_site_symmetry_1
_geom_bond_site_symmetry_2
O1 C1 1_555 1_555
O2 H1 1_555 1_555
C1 O2 1_555 1_555
C2 C1 1_555 1_555
C3 C2 1_555 1_555
H2 C3 1_555 1_555
C4 C3 1_555 1_555
H3 C4 1_555 1_555
C5 C4 1_555 1_555
C6 C5 1_555 1_555
H4 C6 1_555 1_555
C7 C2 1_555 1_555
H5 C7 1_555 1_555
C8 C5 1_555 1_555
C9 C8 1_555 1_555
C10 C9 1_555 1_555
C11 C10 1_555 1_555
H6 C11 1_555 1_555
C12 C11 1_555 1_555
H7 C12 1_555 1_555
C13 C12 1_555 1_555
C14 C13 1_555 1_555
H8 C14 1_555 1_555
C15 C10 1_555 1_555
H9 C15 1_555 1_555
C16 C13 1_555 1_555
C17 C16 1_555 1_555
H10 C17 1_555 1_555
H11 C17 1_555 1_555
H12 C17 1_555 1_555
C18 C16 1_555 1_555
H13 C18 1_555 1_555
H14 C18 1_555 1_555
H15 C18 1_555 1_555
C19 C16 1_555 1_555
H16 C19 1_555 1_555
H17 C19 1_555 1_555
H18 C19 1_555 1_555
O3 H28 1_555 1_555
C23 O3 1_555 1_555
H29 C23 1_555 1_555
H30 C23 1_555 1_555
H31 C23 1_555 1_555
O1A C1A 1_555 1_555
O2A H1A 1_555 1_555
C1A O2A 1_555 1_555
C2A C1A 1_555 1_555
C3A C2A 1_555 1_555
H2A C3A 1_555 1_555
C4A C3A 1_555 1_555
H3A C4A 1_555 1_555
C5A C4A 1_555 1_555
C6A C5A 1_555 1_555
H4A C6A 1_555 1_555
C7A C2A 1_555 1_555
H5A C7A 1_555 1_555
C8A C5A 1_555 1_555
C9A C8 1_555 1_555
C10A C9A 1_555 1_555
C11A C10A 1_555 1_555
H6A C11A 1_555 1_555
C12A C11A 1_555 1_555
H7A C12A 1_555 1_555
C13A C12A 1_555 1_555
C14A C13A 1_555 1_555
H8A C14A 1_555 1_555
C15A C10A 1_555 1_555
H9A C15A 1_555 1_555
C16A C13A 1_555 1_555
C17A C16A 1_555 1_555
H10A C17A 1_555 1_555
H11A C17A 1_555 1_555
H12A C17A 1_555 1_555
C18A C16A 1_555 1_555
H13A C18A 1_555 1_555
H14A C18A 1_555 1_555
H15A C18A 1_555 1_555
C19A C16A 1_555 1_555
H16A C19A 1_555 1_555
H17A C19A 1_555 1_555
H18A C19A 1_555 1_555
O1B C1B 1_555 1_555
O2B H1B 1_555 1_555
C1B O2B 1_555 1_555
C2B C1B 1_555 1_555
C3B C2B 1_555 1_555
H2B C3B 1_555 1_555
C4B C3B 1_555 1_555
H3B C4B 1_555 1_555
C5B C4B 1_555 1_555
C6B C5B 1_555 1_555
H4B C6B 1_555 1_555
C7B C2B 1_555 1_555
H5B C7B 1_555 1_555
C8B C9 1_555 1_555
C9B C8A 1_555 1_555
C10B C9B 1_555 1_555
C11B C10B 1_555 1_555
H6B C11B 1_555 1_555
C12B C11B 1_555 1_555
H7B C12B 1_555 1_555
C13B C12B 1_555 1_555
C14B C13B 1_555 1_555
H8B C14B 1_555 1_555
C15B C10B 1_555 1_555
H9B C15B 1_555 1_555
C16B C13B 1_555 1_555
C17B C16B 1_555 1_555
H10B C17B 1_555 1_555
H11B C17B 1_555 1_555
H12B C17B 1_555 1_555
C18B C16B 1_555 1_555
H13B C18B 1_555 1_555
H14B C18B 1_555 1_555
H15B C18B 1_555 1_555
C19B C16B 1_555 1_555
H16B C19B 1_555 1_555
H17B C19B 1_555 1_555
H18B C19B 1_555 1_555
C6 C7 1_555 1_555
C14 C15 1_555 1_555
C6A C7A 1_555 1_555
C8A C9A 1_555 1_555
C14A C15A 1_555 1_555
C5B C8B 1_555 1_555
C6B C7B 1_555 1_555
C8B C9B 1_555 1_555
C14B C15B 1_555 1_555

#END
