
#######################################################################
#
#                 Cambridge Crystallographic Data Centre
#                                CCDC 
#
#######################################################################
#
# If this CIF has been generated from an entry in the Cambridge 
# Structural Database, then it will include bibliographic, chemical, 
# crystal, experimental, refinement or atomic coordinate data resulting 
# from the CCDC's data processing and validation procedures.
#
#######################################################################

data_KICNAL
_chemical_compound_source        'Zanthoxylum Nitidum'
_chemical_formula_moiety         'C21 H19 N1 O5'
_chemical_name_systematic        7-Demethyl-6-methoxy-5,6-dihydrochelerythrine
_symmetry_cell_setting           monoclinic
_symmetry_space_group_name_H-M   'P 21/c'
_symmetry_Int_Tables_number      14
_space_group_name_Hall           '-P 2ybc'
loop_
_symmetry_equiv_pos_site_id
_symmetry_equiv_pos_as_xyz
1 x,y,z
2 -x,1/2+y,1/2-z
3 -x,-y,-z
4 x,1/2-y,1/2+z
_cell_length_a                   14.213(7)
_cell_length_b                   17.347(3)
_cell_length_c                   7.513(9)
_cell_angle_alpha                90
_cell_angle_beta                 101.40(13)
_cell_angle_gamma                90
_cell_volume                     1815.81
_chemical_melting_point          194-196deg.C
_cell_formula_units_Z            4
loop_
_atom_site_label
_atom_site_type_symbol
_atom_site_fract_x
_atom_site_fract_y
_atom_site_fract_z
C1 C 0.0920(4) 0.1935(4) 0.136(1)
C2 C -0.0246(4) 0.2879(4) -0.001(1)
C3 C 0.1190(4) 0.3324(4) 0.173(1)
N1 N 0.1476(4) 0.4729(4) 0.221(1)
C4 C 0.3008(4) 0.5194(3) 0.393(1)
C5 C 0.4210(4) 0.5716(4) 0.633(1)
C6 C 0.3950(5) 0.4366(4) 0.617(1)
C7 C 0.2696(4) 0.3795(4) 0.368(1)
C8 C 0.2410(4) 0.2430(4) 0.320(1)
C9 C -0.1460(5) 0.2101(4) -0.130(1)
C10 C 0.2120(5) 0.5210(4) -0.098(1)
O1 O -0.0646(4) 0.1633(4) -0.050(1)
O2 O 0.2714(4) 0.5128(4) 0.074(1)
O3 O 0.4649(4) 0.6397(4) 0.705(1)
C11 C 0.0040(4) 0.2109(4) 0.032(1)
C12 C 0.0274(4) 0.3493(4) 0.061(1)
C13 C 0.1798(4) 0.3951(4) 0.255(1)
C14 C 0.2258(4) 0.5269(4) 0.227(1)
C15 C 0.3472(4) 0.5821(4) 0.474(1)
C16 C 0.4430(4) 0.4994(4) 0.695(1)
C17 C 0.3240(4) 0.4455(4) 0.463(1)
C18 C 0.2990(4) 0.3027(4) 0.397(1)
C19 C 0.1510(4) 0.2557(4) 0.215(1)
C20 C 0.0790(4) 0.4977(4) 0.335(1)
C21 C 0.5290(6) 0.6310(5) 0.878(1)
O4 O -0.1148(4) 0.2886(4) -0.112(1)
O5 O 0.3233(4) 0.6558(4) 0.413(1)
loop_
_geom_bond_atom_site_label_1
_geom_bond_atom_site_label_2
_geom_bond_site_symmetry_1
_geom_bond_site_symmetry_2
C1 C11 1_555 1_555
C2 C11 1_555 1_555
C3 C12 1_555 1_555
N1 C13 1_555 1_555
C4 C14 1_555 1_555
C5 O3 1_555 1_555
C6 C16 1_555 1_555
C7 C13 1_555 1_555
C8 C18 1_555 1_555
C9 O1 1_555 1_555
C10 O2 1_555 1_555
O1 C11 1_555 1_555
O2 C14 1_555 1_555
O3 C21 1_555 1_555
C12 C2 1_555 1_555
C13 C3 1_555 1_555
C14 N1 1_555 1_555
C15 C4 1_555 1_555
C16 C5 1_555 1_555
C17 C4 1_555 1_555
C18 C7 1_555 1_555
C19 C1 1_555 1_555
C20 N1 1_555 1_555
O4 C2 1_555 1_555
O5 C15 1_555 1_555
C3 C19 1_555 1_555
C5 C15 1_555 1_555
C6 C17 1_555 1_555
C7 C17 1_555 1_555
C8 C19 1_555 1_555
C9 O4 1_555 1_555

#END
