
#######################################################################
#
#                 Cambridge Crystallographic Data Centre
#                                CCDC 
#
#######################################################################
#
# If this CIF has been generated from an entry in the Cambridge 
# Structural Database, then it will include bibliographic, chemical, 
# crystal, experimental, refinement or atomic coordinate data resulting 
# from the CCDC's data processing and validation procedures.
#
#######################################################################

data_KICWIF
_chemical_compound_source        
'deep-sea derived fungus Phomopsis lithocarpus FS508'
_chemical_name_common            'lithocarpin D unknown solvate'
_chemical_formula_moiety         'C37 H42 O11'
_chemical_name_systematic        
'(1aS,4R,6R,7aR,8S,13R,13aR,13bS)-12-hydroxy-8-[3-(2-hydroxypropan-2-yl)-7-methyl-2,3-dihydro-1,4-benzodioxin-5-yl]-4-methyl-9-(3-methylbut-2-en-1-yl)-2,7-dioxo-1a,4,5,6,7,7a,8,13,13a,13b-decahydro-2H-8,13-epoxynaphtho[2,3-e]oxireno[c]oxecin-6-yl acetate unknown solvate'
_chemical_properties_biological  'cytotoxic activity'
_symmetry_cell_setting           orthorhombic
_symmetry_space_group_name_H-M   'P 21 21 21'
_symmetry_Int_Tables_number      19
_space_group_name_Hall           'P 2ac 2ab'
loop_
_symmetry_equiv_pos_site_id
_symmetry_equiv_pos_as_xyz
1 x,y,z
2 1/2-x,-y,1/2+z
3 -x,1/2+y,1/2-z
4 1/2+x,1/2-y,-z
_cell_length_a                   9.34542(7)
_cell_length_b                   14.58845(13)
_cell_length_c                   24.65138(16)
_cell_angle_alpha                90
_cell_angle_beta                 90
_cell_angle_gamma                90
_cell_volume                     3360.85
_exptl_crystal_colour            white
_exptl_crystal_description       orthorhombic
_cell_formula_units_Z            4
_exptl_crystal_recrystallization_method methanol
loop_
_atom_site_label
_atom_site_type_symbol
_atom_site_fract_x
_atom_site_fract_y
_atom_site_fract_z
O1 O 0.33515(15) 0.66927(10) 0.71604(5)
O2 O 0.28477(14) 0.46778(10) 0.71384(5)
O3 O -0.00964(14) 0.44279(10) 0.58264(6)
O4 O 0.15334(16) 0.79515(11) 0.75681(6)
O5 O 0.24954(16) 0.25501(10) 0.56451(5)
O6 O 0.07186(16) 0.45033(10) 0.48184(5)
O7 O -0.15600(18) 0.47548(12) 0.77254(6)
O8 O 0.32772(18) 0.23776(11) 0.66721(6)
O9 O 0.56748(17) 0.77939(12) 0.68112(6)
O10 O 0.05579(19) 0.60338(12) 0.48618(7)
O11 O 0.06598(18) 0.15610(12) 0.57071(7)
C1 C 0.11306(19) 0.56099(13) 0.67430(7)
C2 C 0.0479(2) 0.63985(13) 0.65421(7)
C3 C 0.38177(19) 0.56533(14) 0.64382(7)
C4 C 0.4680(2) 0.53990(14) 0.60014(8)
H1 H 0.447620 0.485755 0.581782
C5 C 0.1464(2) 0.42661(14) 0.72223(7)
H2 H 0.135036 0.395477 0.757190
C6 C 0.4171(2) 0.64504(14) 0.67221(8)
C7 C 0.1184(2) 0.43725(13) 0.57821(7)
C8 C 0.0476(2) 0.50650(14) 0.71360(7)
C9 C -0.0871(2) 0.52695(14) 0.73375(8)
C10 C 0.1643(2) 0.19695(14) 0.59035(8)
C11 C 0.5301(2) 0.69993(15) 0.65466(8)
C12 C -0.0849(2) 0.66183(14) 0.67720(8)
H3 H -0.129860 0.715756 0.666508
C13 C 0.2131(2) 0.42084(13) 0.62802(7)
H4 H 0.300729 0.389033 0.616991
C14 C -0.1522(2) 0.60640(15) 0.71532(8)
H5 H -0.241779 0.622809 0.728583
C15 C 0.2196(2) 0.27768(14) 0.50810(7)
H6 H 0.115909 0.280694 0.502325
C16 C 0.0169(2) 0.53223(15) 0.46720(8)
C17 C 0.5838(2) 0.59293(15) 0.58306(8)
C18 C 0.2744(2) 0.76578(15) 0.78906(8)
C19 C 0.1334(2) 0.36289(14) 0.67179(7)
H7 H 0.032384 0.357620 0.661642
C20 C 0.6110(2) 0.67400(16) 0.61006(8)
H8 H 0.684752 0.711792 0.598158
C21 C 0.2844(2) 0.37221(15) 0.50152(8)
H9 H 0.306528 0.382154 0.463531
H10 H 0.373535 0.374825 0.521642
C22 C 0.1086(2) 0.69970(15) 0.60875(8)
H11 H 0.212179 0.695728 0.609235
H12 H 0.075683 0.676291 0.574096
C23 C 0.2031(2) 0.18916(15) 0.64891(8)
H13 H 0.187042 0.129001 0.665512
C24 C 0.1859(2) 0.44924(14) 0.52125(7)
H14 H 0.237599 0.507656 0.519846
C25 C 0.3966(2) 0.73807(15) 0.75060(8)
H15 H 0.474046 0.710492 0.771884
C26 C 0.2535(2) 0.51032(13) 0.66168(7)
C27 C -0.0261(3) 0.84525(16) 0.58304(9)
C28 C 0.2295(3) 0.68372(16) 0.82309(9)
H16 H 0.148941 0.700134 0.845203
H17 H 0.307643 0.665344 0.845911
H18 H 0.203625 0.633891 0.799622
C29 C 0.1905(2) 0.26864(15) 0.68565(8)
H19 H 0.170516 0.250837 0.723223
C30 C 0.3171(2) 0.84705(16) 0.82430(9)
H20 H 0.336274 0.899147 0.801643
H21 H 0.401486 0.831866 0.844627
H22 H 0.240566 0.861365 0.848842
C31 C 0.6776(2) 0.56262(17) 0.53663(9)
H23 H 0.767308 0.540792 0.550568
H24 H 0.694396 0.613491 0.512764
H25 H 0.630955 0.514272 0.517015
C32 C 0.0651(3) 0.79831(16) 0.61395(9)
H26 H 0.106925 0.830719 0.642292
C33 C 0.4574(2) 0.81460(16) 0.71617(9)
H27 H 0.381832 0.841778 0.694533
H28 H 0.496997 0.861888 0.739414
C34 C 0.2837(3) 0.20521(16) 0.47200(9)
H29 H 0.384056 0.199568 0.479617
H30 H 0.270683 0.222260 0.434711
H31 H 0.237248 0.147602 0.478660
C35 C -0.0948(3) 0.52088(19) 0.42394(9)
H32 H -0.050954 0.497411 0.391568
H33 H -0.137983 0.579178 0.416350
H34 H -0.166734 0.478789 0.436247
C36 C -0.1018(2) 0.80671(18) 0.53414(10)
H35 H -0.070065 0.838207 0.502137
H36 H -0.203211 0.814800 0.538254
H37 H -0.080545 0.742572 0.530864
C37 C -0.0624(4) 0.94295(19) 0.59585(12)
H38 H -0.161663 0.947238 0.605532
H39 H -0.044193 0.980487 0.564620
H40 H -0.004583 0.963694 0.625611
H41 H -0.146(3) 0.417(2) 0.7665(12)
H42 H 0.132(4) 0.751(3) 0.7370(14)
loop_
_geom_bond_atom_site_label_1
_geom_bond_atom_site_label_2
_geom_bond_site_symmetry_1
_geom_bond_site_symmetry_2
O1 C6 1_555 1_555
O2 C5 1_555 1_555
O3 C7 1_555 1_555
O4 C18 1_555 1_555
O5 C10 1_555 1_555
O6 C16 1_555 1_555
O7 C9 1_555 1_555
O8 C23 1_555 1_555
O9 C11 1_555 1_555
O10 C16 1_555 1_555
O11 C10 1_555 1_555
C1 C2 1_555 1_555
C2 C12 1_555 1_555
C3 C4 1_555 1_555
C4 H1 1_555 1_555
C5 H2 1_555 1_555
C6 C3 1_555 1_555
C7 C13 1_555 1_555
C8 C1 1_555 1_555
C9 C8 1_555 1_555
C10 C23 1_555 1_555
C11 C6 1_555 1_555
C12 H3 1_555 1_555
C13 H4 1_555 1_555
C14 C9 1_555 1_555
H5 C14 1_555 1_555
C15 O5 1_555 1_555
H6 C15 1_555 1_555
C16 C35 1_555 1_555
C17 C4 1_555 1_555
C18 C25 1_555 1_555
C19 C5 1_555 1_555
H7 C19 1_555 1_555
C20 C11 1_555 1_555
H8 C20 1_555 1_555
C21 C15 1_555 1_555
H9 C21 1_555 1_555
H10 C21 1_555 1_555
C22 C2 1_555 1_555
H11 C22 1_555 1_555
H12 C22 1_555 1_555
C23 H13 1_555 1_555
C24 O6 1_555 1_555
H14 C24 1_555 1_555
C25 O1 1_555 1_555
H15 C25 1_555 1_555
C26 O2 1_555 1_555
C27 C32 1_555 1_555
C28 C18 1_555 1_555
H16 C28 1_555 1_555
H17 C28 1_555 1_555
H18 C28 1_555 1_555
C29 O8 1_555 1_555
H19 C29 1_555 1_555
C30 C18 1_555 1_555
H20 C30 1_555 1_555
H21 C30 1_555 1_555
H22 C30 1_555 1_555
C31 C17 1_555 1_555
H23 C31 1_555 1_555
H24 C31 1_555 1_555
H25 C31 1_555 1_555
C32 C22 1_555 1_555
H26 C32 1_555 1_555
C33 O9 1_555 1_555
H27 C33 1_555 1_555
H28 C33 1_555 1_555
C34 C15 1_555 1_555
H29 C34 1_555 1_555
H30 C34 1_555 1_555
H31 C34 1_555 1_555
C35 H32 1_555 1_555
H33 C35 1_555 1_555
H34 C35 1_555 1_555
C36 C27 1_555 1_555
H35 C36 1_555 1_555
H36 C36 1_555 1_555
H37 C36 1_555 1_555
C37 C27 1_555 1_555
H38 C37 1_555 1_555
H39 C37 1_555 1_555
H40 C37 1_555 1_555
H41 O7 1_555 1_555
H42 O4 1_555 1_555
C1 C26 1_555 1_555
C3 C26 1_555 1_555
C5 C8 1_555 1_555
C7 C24 1_555 1_555
C12 C14 1_555 1_555
C13 C19 1_555 1_555
C13 C26 1_555 1_555
C17 C20 1_555 1_555
C19 C29 1_555 1_555
C21 C24 1_555 1_555
C23 C29 1_555 1_555
C25 C33 1_555 1_555

#END
