
#######################################################################
#
#                 Cambridge Crystallographic Data Centre
#                                CCDC 
#
#######################################################################
#
# If this CIF has been generated from an entry in the Cambridge 
# Structural Database, then it will include bibliographic, chemical, 
# crystal, experimental, refinement or atomic coordinate data resulting 
# from the CCDC's data processing and validation procedures.
#
#######################################################################

data_KIDBUX
_chemical_formula_moiety         'C21 H29 Cl1 O7'
_chemical_name_systematic        
'dimethyl 8-((chloroacetyl)oxy)-1,4-dimethyl-7-isopropyl-3,3a,4,5,7,8-hexahydro-4,7-epoxyazulene-6,6(2H)-dicarboxylate'
_symmetry_cell_setting           orthorhombic
_symmetry_space_group_name_H-M   'P 21 21 21'
_symmetry_Int_Tables_number      19
_space_group_name_Hall           'P 2ac 2ab'
loop_
_symmetry_equiv_pos_site_id
_symmetry_equiv_pos_as_xyz
1 x,y,z
2 1/2-x,-y,1/2+z
3 -x,1/2+y,1/2-z
4 1/2+x,1/2-y,-z
_cell_length_a                   9.963(2)
_cell_length_b                   11.584(3)
_cell_length_c                   17.988(4)
_cell_angle_alpha                90
_cell_angle_beta                 90
_cell_angle_gamma                90
_cell_volume                     2076.02
_exptl_crystal_colour            colorless
_exptl_crystal_description       Prism
_chemical_melting_point          '136-137 deg.C'
_cell_formula_units_Z            4
loop_
_atom_site_label
_atom_site_type_symbol
_atom_site_fract_x
_atom_site_fract_y
_atom_site_fract_z
Cl1 Cl 0.27412(4) 0.82148(3) -0.118615(19)
O1 O 0.48021(10) 0.43500(8) 0.18178(5)
O2 O 0.33262(11) 0.19104(9) 0.13720(6)
O3 O 0.12294(10) 0.22519(9) 0.17678(6)
O4 O 0.04454(10) 0.49892(9) 0.16355(6)
O5 O 0.09579(9) 0.40248(9) 0.05959(5)
O6 O 0.41852(11) 0.75827(10) 0.01974(6)
O7 O 0.28914(9) 0.60289(8) 0.04606(5)
C1 C 0.49599(14) 0.42855(13) 0.31416(8)
H1 H 0.5878 0.4580 0.3097
H2 H 0.4975 0.3440 0.3136
H3 H 0.4566 0.4555 0.3610
C2 C 0.41291(13) 0.47191(12) 0.24975(7)
C3 C 0.27269(13) 0.41628(12) 0.24223(7)
H4 H 0.2023 0.4699 0.2600
H5 H 0.2677 0.3442 0.2716
C4 C 0.25390(13) 0.39018(11) 0.15772(7)
C5 C 0.38527(13) 0.44513(11) 0.12197(7)
C6 C 0.37177(13) 0.57845(12) 0.11017(7)
H6 H 0.4637 0.6078 0.0984
C7 C 0.32727(14) 0.63981(12) 0.17929(7)
C8 C 0.40435(13) 0.60413(12) 0.24799(8)
H7 H 0.4971 0.6370 0.2456
C9 C 0.32659(15) 0.66243(14) 0.31187(8)
H8 H 0.2702 0.6054 0.3384
H9 H 0.3893 0.6981 0.3478
C10 C 0.23887(15) 0.75494(13) 0.27468(8)
H10 H 0.1474 0.7552 0.2962
H11 H 0.2789 0.8326 0.2809
C11 C 0.23512(14) 0.72077(12) 0.19326(8)
C12 C 0.13822(16) 0.78062(14) 0.14182(9)
H12 H 0.1073 0.7261 0.1038
H13 H 0.1832 0.8460 0.1178
H14 H 0.0611 0.8087 0.1704
C13 C 0.24510(13) 0.25773(12) 0.15290(7)
C14 C 0.10550(17) 0.10209(13) 0.18834(9)
H15 H 0.1772 0.0732 0.2207
H16 H 0.1093 0.0621 0.1404
H17 H 0.0183 0.0878 0.2118
C15 C 0.11948(13) 0.43870(12) 0.12892(8)
C16 C -0.02875(15) 0.44364(14) 0.02710(9)
H18 H -0.0266 0.5281 0.0238
H19 H -0.1044 0.4198 0.0584
H20 H -0.0394 0.4108 -0.0228
C17 C 0.45284(13) 0.38259(13) 0.05530(7)
H21 H 0.4805 0.3050 0.0743
C18 C 0.58285(15) 0.44328(15) 0.03131(9)
H22 H 0.5607 0.5147 0.0048
H23 H 0.6342 0.3922 -0.0015
H24 H 0.6366 0.4617 0.0754
C19 C 0.36529(15) 0.35969(14) -0.01316(8)
H25 H 0.4176 0.3175 -0.0504
H26 H 0.3352 0.4333 -0.0342
H27 H 0.2870 0.3136 0.0013
C20 C 0.32700(13) 0.69455(12) 0.00501(7)
C21 C 0.23631(15) 0.70119(12) -0.06178(8)
H28 H 0.1419 0.7066 -0.0449
H29 H 0.2457 0.6296 -0.0914
loop_
_geom_bond_atom_site_label_1
_geom_bond_atom_site_label_2
_geom_bond_site_symmetry_1
_geom_bond_site_symmetry_2
Cl1 C21 1_555 1_555
O1 C2 1_555 1_555
O2 C13 1_555 1_555
O3 C13 1_555 1_555
O4 C15 1_555 1_555
O5 C15 1_555 1_555
O6 C20 1_555 1_555
O7 C6 1_555 1_555
C1 H1 1_555 1_555
H2 C1 1_555 1_555
H3 C1 1_555 1_555
C2 C1 1_555 1_555
C3 C2 1_555 1_555
H4 C3 1_555 1_555
H5 C3 1_555 1_555
C4 C3 1_555 1_555
C5 O1 1_555 1_555
C6 C5 1_555 1_555
H6 C6 1_555 1_555
C7 C6 1_555 1_555
C8 C2 1_555 1_555
H7 C8 1_555 1_555
C9 C8 1_555 1_555
H8 C9 1_555 1_555
H9 C9 1_555 1_555
C10 C9 1_555 1_555
H10 C10 1_555 1_555
H11 C10 1_555 1_555
C11 C7 1_555 1_555
C12 C11 1_555 1_555
H12 C12 1_555 1_555
H13 C12 1_555 1_555
H14 C12 1_555 1_555
C13 C4 1_555 1_555
C14 O3 1_555 1_555
H15 C14 1_555 1_555
H16 C14 1_555 1_555
H17 C14 1_555 1_555
C15 C4 1_555 1_555
C16 O5 1_555 1_555
H18 C16 1_555 1_555
H19 C16 1_555 1_555
H20 C16 1_555 1_555
C17 C5 1_555 1_555
H21 C17 1_555 1_555
C18 C17 1_555 1_555
H22 C18 1_555 1_555
H23 C18 1_555 1_555
H24 C18 1_555 1_555
C19 C17 1_555 1_555
H25 C19 1_555 1_555
H26 C19 1_555 1_555
H27 C19 1_555 1_555
C20 O7 1_555 1_555
C21 C20 1_555 1_555
H28 C21 1_555 1_555
H29 C21 1_555 1_555
C4 C5 1_555 1_555
C7 C8 1_555 1_555
C10 C11 1_555 1_555

#END
