
#######################################################################
#
#                 Cambridge Crystallographic Data Centre
#                                CCDC 
#
#######################################################################
#
# If this CIF has been generated from an entry in the Cambridge 
# Structural Database, then it will include bibliographic, chemical, 
# crystal, experimental, refinement or atomic coordinate data resulting 
# from the CCDC's data processing and validation procedures.
#
#######################################################################

data_KIDKOZ
_chemical_formula_moiety         'C19 H17 I1 O3'
_chemical_name_systematic        
2-(2-(Iodomethyl)-1,3-dioxolan-2-yl)-1,3-diphenylprop-2-en-1-one
_symmetry_cell_setting           monoclinic
_symmetry_space_group_name_H-M   'P 21'
_symmetry_Int_Tables_number      4
_space_group_name_Hall           'P 2yb'
loop_
_symmetry_equiv_pos_site_id
_symmetry_equiv_pos_as_xyz
1 x,y,z
2 -x,1/2+y,-z
_cell_length_a                   11.8628(12)
_cell_length_b                   5.9193(6)
_cell_length_c                   12.0256(12)
_cell_angle_alpha                90
_cell_angle_beta                 96.1910(10)
_cell_angle_gamma                90
_cell_volume                     839.506
_exptl_crystal_colour            yellow
_exptl_crystal_description       block
_cell_formula_units_Z            2
loop_
_atom_site_label
_atom_site_type_symbol
_atom_site_fract_x
_atom_site_fract_y
_atom_site_fract_z
C1 C 0.1379(2) 0.4836(4) 0.17061(19)
C2 C 0.0619(2) 0.6511(4) 0.1920(2)
H1 H 0.0889 0.7915 0.2200
C3 C -0.0542(2) 0.6133(5) 0.1725(2)
H2 H -0.1054 0.7259 0.1897
C4 C -0.0947(2) 0.4071(6) 0.1269(2)
H3 H -0.1732 0.3820 0.1127
C5 C -0.0197(3) 0.2416(5) 0.1030(2)
H4 H -0.0467 0.1033 0.0723
C6 C 0.0956(2) 0.2793(4) 0.1244(2)
H5 H 0.1465 0.1657 0.1077
C7 C 0.26202(19) 0.5138(4) 0.18614(19)
H6 H 0.3032 0.4104 0.1471
C8 C 0.32556(18) 0.6676(4) 0.24797(19)
C9 C 0.28043(17) 0.8440(4) 0.32070(19)
C10 C 0.22332(19) 0.7717(4) 0.4191(2)
C11 C 0.1536(2) 0.9256(4) 0.4661(2)
H7 H 0.1404 1.0687 0.4333
C12 C 0.1034(2) 0.8683(7) 0.5616(2)
H8 H 0.0556 0.9718 0.5929
C13 C 0.1236(3) 0.6605(7) 0.6100(2)
H9 H 0.0910 0.6241 0.6756
C14 C 0.1912(3) 0.5037(5) 0.5639(2)
H10 H 0.2038 0.3612 0.5974
C15 C 0.2403(2) 0.5583(4) 0.4675(2)
H11 H 0.2851 0.4513 0.4348
C16 C 0.45335(18) 0.6828(4) 0.23777(19)
C17 C 0.5496(6) 0.5636(10) 0.4048(6)
H12 H 0.4957 0.5191 0.4572
H13 H 0.6238 0.5918 0.4467
C18 C 0.5575(7) 0.3869(18) 0.3171(6)
H14 H 0.6371 0.3574 0.3072
H15 H 0.5230 0.2457 0.3392
C19 C 0.46996(18) 0.8492(5) 0.1453(2)
H16 H 0.4401 0.9968 0.1646
H17 H 0.4266 0.7981 0.0759
I1 I 0.645021(11) 0.88560(5) 0.117987(13)
O1 O 0.29358(17) 1.0433(3) 0.30170(18)
O2 O 0.51029(16) 0.7577(3) 0.34171(15)
O3 O 0.49844(16) 0.4707(3) 0.21532(16)
C20? C 0.5746(10) 0.5667(18) 0.3849(11)
H18? H 0.5685 0.5490 0.4651
H19? H 0.6548 0.5856 0.3741
C21? C 0.5256(7) 0.363(2) 0.3211(7)
H20? H 0.5816 0.2420 0.3177
H21? H 0.4582 0.3038 0.3517
loop_
_geom_bond_atom_site_label_1
_geom_bond_atom_site_label_2
_geom_bond_site_symmetry_1
_geom_bond_site_symmetry_2
C1 C2 1_555 1_555
C2 H1 1_555 1_555
C3 C2 1_555 1_555
H2 C3 1_555 1_555
C4 C3 1_555 1_555
H3 C4 1_555 1_555
C5 C4 1_555 1_555
H4 C5 1_555 1_555
C6 C1 1_555 1_555
H5 C6 1_555 1_555
C7 C1 1_555 1_555
H6 C7 1_555 1_555
C8 C7 1_555 1_555
C9 C8 1_555 1_555
C10 C9 1_555 1_555
C11 C10 1_555 1_555
H7 C11 1_555 1_555
C12 C11 1_555 1_555
H8 C12 1_555 1_555
C13 C12 1_555 1_555
H9 C13 1_555 1_555
C14 C13 1_555 1_555
H10 C14 1_555 1_555
C15 C10 1_555 1_555
H11 C15 1_555 1_555
C16 C8 1_555 1_555
C17 H12 1_555 1_555
H13 C17 1_555 1_555
C18 C17 1_555 1_555
H14 C18 1_555 1_555
H15 C18 1_555 1_555
C19 C16 1_555 1_555
H16 C19 1_555 1_555
H17 C19 1_555 1_555
I1 C19 1_555 1_555
O1 C9 1_555 1_555
O2 C16 1_555 1_555
O3 C16 1_555 1_555
C5 C6 1_555 1_555
C14 C15 1_555 1_555
C17 O2 1_555 1_555
C18 O3 1_555 1_555

#END
