
#######################################################################
#
#                 Cambridge Crystallographic Data Centre
#                                CCDC 
#
#######################################################################
#
# If this CIF has been generated from an entry in the Cambridge 
# Structural Database, then it will include bibliographic, chemical, 
# crystal, experimental, refinement or atomic coordinate data resulting 
# from the CCDC's data processing and validation procedures.
#
#######################################################################

data_KIDKUG
_chemical_formula_moiety         'C27 H37 N2 1+,Cl1 O4 1-'
_chemical_name_systematic        
'1,3-bis[2,6-diisopropylphenyl]-1H-imidazolium perchlorate'
_symmetry_cell_setting           orthorhombic
_symmetry_space_group_name_H-M   'P c c n'
_symmetry_Int_Tables_number      56
_space_group_name_Hall           '-P 2ab 2ac'
loop_
_symmetry_equiv_pos_site_id
_symmetry_equiv_pos_as_xyz
1 x,y,z
2 1/2+x,-y,1/2-z
3 -x,1/2+y,1/2-z
4 1/2-x,1/2-y,z
5 -x,-y,-z
6 1/2-x,y,1/2+z
7 x,1/2-y,1/2+z
8 1/2+x,1/2+y,-z
_cell_length_a                   11.0729(12)
_cell_length_b                   12.6284(13)
_cell_length_c                   19.6141(19)
_cell_angle_alpha                90
_cell_angle_beta                 90
_cell_angle_gamma                90
_cell_volume                     2742.7
_exptl_crystal_colour            colorless
_exptl_crystal_description       block
_cell_formula_units_Z            4
loop_
_atom_site_label
_atom_site_type_symbol
_atom_site_fract_x
_atom_site_fract_y
_atom_site_fract_z
N1 N 0.78014(16) 0.33094(13) 0.41998(9)
C1 C 0.7500 0.2500 0.38038(16)
H1 H 0.7500 0.2500 0.3319
C2 C 0.7687(2) 0.30046(17) 0.48715(11)
H2 H 0.7845 0.3430 0.5261
C3 C 0.8224(2) 0.43217(16) 0.39426(11)
C4 C 0.7371(2) 0.51047(17) 0.38081(12)
C5 C 0.7810(2) 0.60378(19) 0.35238(14)
H3 H 0.7261 0.6589 0.3411
C6 C 0.9023(2) 0.61800(19) 0.34024(15)
H4 H 0.9300 0.6825 0.3209
C7 C 0.9836(2) 0.53943(19) 0.35594(14)
H5 H 1.0671 0.5509 0.3477
C8 C 0.9462(2) 0.44387(17) 0.38346(12)
C9 C 0.6034(2) 0.49721(19) 0.39413(13)
H6 H 0.5925 0.4311 0.4215
C10 C 0.5331(3) 0.4840(3) 0.32793(16)
H7 H 0.5674 0.4253 0.3016
H8 H 0.5382 0.5494 0.3012
H9 H 0.4483 0.4687 0.3384
C11 C 0.5522(3) 0.5888(2) 0.43552(15)
H10 H 0.5988 0.5969 0.4777
H11 H 0.4676 0.5743 0.4467
H12 H 0.5573 0.6542 0.4088
C12 C 1.0364(2) 0.35671(19) 0.39863(14)
H13 H 0.9918 0.2978 0.4216
C13 C 1.0910(3) 0.3128(3) 0.33389(16)
H14 H 1.0264 0.2959 0.3015
H15 H 1.1367 0.2484 0.3445
H16 H 1.1451 0.3656 0.3137
C14 C 1.1353(3) 0.3938(3) 0.44702(17)
H17 H 1.1877 0.3339 0.4586
H18 H 1.0986 0.4221 0.4887
H19 H 1.1832 0.4493 0.4249
N1C N 0.71986(16) 0.16906(13) 0.41998(9)
C2C C 0.7313(2) 0.19954(17) 0.48715(11)
H2C H 0.7155 0.1570 0.5261
C3C C 0.6776(2) 0.06783(16) 0.39426(11)
C4C C 0.7629(2) -0.01047(17) 0.38081(12)
C5C C 0.7190(2) -0.10378(19) 0.35238(14)
H3C H 0.7739 -0.1589 0.3411
C6C C 0.5977(2) -0.11800(19) 0.34024(15)
H4C H 0.5700 -0.1825 0.3209
C7C C 0.5164(2) -0.03943(19) 0.35594(14)
H5C H 0.4329 -0.0509 0.3477
C8C C 0.5538(2) 0.05613(17) 0.38346(12)
C9C C 0.8966(2) 0.00279(19) 0.39413(13)
H6C H 0.9075 0.0689 0.4215
C10C C 0.9669(3) 0.0160(3) 0.32793(16)
H7C H 0.9326 0.0747 0.3016
H8C H 0.9618 -0.0494 0.3012
H9C H 1.0517 0.0313 0.3384
C11C C 0.9478(3) -0.0888(2) 0.43552(15)
H10C H 0.9012 -0.0969 0.4777
H11C H 1.0324 -0.0743 0.4467
H12C H 0.9427 -0.1542 0.4088
C12C C 0.4636(2) 0.14329(19) 0.39863(14)
H13C H 0.5082 0.2022 0.4216
C13C C 0.4090(3) 0.1872(3) 0.33389(16)
H14C H 0.4736 0.2041 0.3015
H15C H 0.3633 0.2516 0.3445
H16C H 0.3549 0.1344 0.3137
C14C C 0.3647(3) 0.1062(3) 0.44702(17)
H17C H 0.3123 0.1661 0.4586
H18C H 0.4014 0.0779 0.4887
H19C H 0.3168 0.0507 0.4249
Cl1 Cl 0.7500 0.2500 0.18392(4)
O1 O 0.85386(16) 0.24115(18) 0.22649(9)
O2 O 0.75960(19) 0.34257(19) 0.14182(10)
O1C O 0.64614(16) 0.25885(18) 0.22649(9)
O2C O 0.74040(19) 0.15743(19) 0.14182(10)
loop_
_geom_bond_atom_site_label_1
_geom_bond_atom_site_label_2
_geom_bond_site_symmetry_1
_geom_bond_site_symmetry_2
N1 C1 1_555 1_555
C1 H1 1_555 1_555
C2 N1 1_555 1_555
H2 C2 1_555 1_555
C3 N1 1_555 1_555
C4 C3 1_555 1_555
C5 C4 1_555 1_555
H3 C5 1_555 1_555
C6 C5 1_555 1_555
H4 C6 1_555 1_555
C7 C6 1_555 1_555
H5 C7 1_555 1_555
C8 C3 1_555 1_555
C9 C4 1_555 1_555
H6 C9 1_555 1_555
C10 C9 1_555 1_555
H7 C10 1_555 1_555
H8 C10 1_555 1_555
H9 C10 1_555 1_555
C11 C9 1_555 1_555
H10 C11 1_555 1_555
H11 C11 1_555 1_555
H12 C11 1_555 1_555
C12 C8 1_555 1_555
H13 C12 1_555 1_555
C13 C12 1_555 1_555
H14 C13 1_555 1_555
H15 C13 1_555 1_555
H16 C13 1_555 1_555
C14 C12 1_555 1_555
H17 C14 1_555 1_555
H18 C14 1_555 1_555
H19 C14 1_555 1_555
Cl1 O1 1_555 1_555
O2 Cl1 1_555 1_555
N1C C1 1_555 1_555
C2C C2 1_555 1_555
H2C C2C 1_555 1_555
C3C N1C 1_555 1_555
C4C C3C 1_555 1_555
C5C C4C 1_555 1_555
H3C C5C 1_555 1_555
C6C C5C 1_555 1_555
H4C C6C 1_555 1_555
C7C C6C 1_555 1_555
H5C C7C 1_555 1_555
C8C C3C 1_555 1_555
C9C C4C 1_555 1_555
H6C C9C 1_555 1_555
C10C C9C 1_555 1_555
H7C C10C 1_555 1_555
H8C C10C 1_555 1_555
H9C C10C 1_555 1_555
C11C C9C 1_555 1_555
H10C C11C 1_555 1_555
H11C C11C 1_555 1_555
H12C C11C 1_555 1_555
C12C C8C 1_555 1_555
H13C C12C 1_555 1_555
C13C C12C 1_555 1_555
H14C C13C 1_555 1_555
H15C C13C 1_555 1_555
H16C C13C 1_555 1_555
C14C C12C 1_555 1_555
H17C C14C 1_555 1_555
H18C C14C 1_555 1_555
H19C C14C 1_555 1_555
O1C Cl1 1_555 1_555
O2C Cl1 1_555 1_555
C7 C8 1_555 1_555
N1C C2C 1_555 1_555
C7C C8C 1_555 1_555

#END
