
#######################################################################
#
#                 Cambridge Crystallographic Data Centre
#                                CCDC 
#
#######################################################################
#
# If this CIF has been generated from an entry in the Cambridge 
# Structural Database, then it will include bibliographic, chemical, 
# crystal, experimental, refinement or atomic coordinate data resulting 
# from the CCDC's data processing and validation procedures.
#
#######################################################################

data_KIDLOB
_chemical_formula_moiety         'C10 H12 N3 S1 1+,C6 H4 N1 O5 S1 1-'
_chemical_name_systematic        
'2-[2-(propan-2-ylidene)hydrazinyl]-1,3-benzothiazol-3-ium 3-nitrobenzene-1-sulfonate'
_symmetry_cell_setting           triclinic
_symmetry_space_group_name_H-M   'P -1'
_symmetry_Int_Tables_number      2
_space_group_name_Hall           '-P 1'
loop_
_symmetry_equiv_pos_site_id
_symmetry_equiv_pos_as_xyz
1 x,y,z
2 -x,-y,-z
_cell_length_a                   7.5308(4)
_cell_length_b                   10.9167(7)
_cell_length_c                   12.4438(8)
_cell_angle_alpha                66.058(6)
_cell_angle_beta                 79.034(5)
_cell_angle_gamma                72.156(5)
_cell_volume                     887.465
_exptl_crystal_colour            colorless
_exptl_crystal_description       block
_cell_formula_units_Z            2
loop_
_atom_site_label
_atom_site_type_symbol
_atom_site_fract_x
_atom_site_fract_y
_atom_site_fract_z
C1 C 0.2281(4) 0.3162(3) 0.5033(3)
C2 C 0.2122(4) 0.1899(3) 0.5087(3)
H1 H 0.2284 0.1105 0.5798
C3 C 0.1720(4) 0.1837(3) 0.4070(3)
H2 H 0.1611 0.0986 0.4083
C4 C 0.1472(4) 0.3006(3) 0.3030(3)
H3 H 0.1204 0.2937 0.2344
C5 C 0.1609(4) 0.4267(3) 0.2978(3)
H4 H 0.1419 0.5065 0.2270
C6 C 0.2032(4) 0.4330(3) 0.3988(3)
C7 C 0.2606(4) 0.5238(3) 0.5207(3)
C8 C 0.3338(4) 0.6563(3) 0.7133(3)
C9 C 0.2989(5) 0.8099(3) 0.6481(3)
H5 H 0.3122 0.8531 0.7004
H6 H 0.3897 0.8293 0.5795
H7 H 0.1719 0.8476 0.6217
C10 C 0.3777(5) 0.6021(4) 0.8395(3)
H8 H 0.3780 0.6793 0.8606
H9 H 0.2827 0.5556 0.8906
H10 H 0.5011 0.5359 0.8499
N1 N 0.2209(3) 0.5486(3) 0.4133(2)
H11 H 0.188(5) 0.633(4) 0.364(3)
N2 N 0.2853(3) 0.6164(3) 0.5555(2)
H12 H 0.272(5) 0.697(4) 0.509(3)
N3 N 0.3282(3) 0.5676(3) 0.6723(2)
S1 S 0.27708(10) 0.35384(7) 0.61732(6)
C11 C 0.4451(4) 0.9109(3) 0.1794(2)
C12 C 0.5278(4) 0.8235(3) 0.1184(2)
H13 H 0.4602 0.7699 0.1067
C13 C 0.7139(4) 0.8170(3) 0.0747(3)
C14 C 0.8145(4) 0.8949(3) 0.0890(3)
H14 H 0.9422 0.8861 0.0602
C15 C 0.7274(4) 0.9858(3) 0.1455(3)
H15 H 0.7938 1.0430 0.1529
C16 C 0.5418(4) 0.9941(3) 0.1918(3)
H16 H 0.4820 1.0560 0.2315
S2 S 0.21789(9) 0.91074(7) 0.25157(6)
N4 N 0.8044(4) 0.7214(3) 0.0138(2)
O1 O 0.1647(3) 0.8018(2) 0.23498(18)
O2 O 0.2432(3) 0.8753(2) 0.37542(18)
O3 O 0.1002(3) 1.0479(2) 0.19792(19)
O4 O 0.7054(4) 0.6912(3) -0.0342(2)
O5 O 0.9750(3) 0.6763(3) 0.0148(2)
loop_
_geom_bond_atom_site_label_1
_geom_bond_atom_site_label_2
_geom_bond_site_symmetry_1
_geom_bond_site_symmetry_2
C1 C2 1_555 1_555
C2 H1 1_555 1_555
C3 C2 1_555 1_555
H2 C3 1_555 1_555
C4 C3 1_555 1_555
H3 C4 1_555 1_555
C5 C4 1_555 1_555
H4 C5 1_555 1_555
C6 C1 1_555 1_555
C7 N1 1_555 1_555
C8 C9 1_555 1_555
C9 H5 1_555 1_555
H6 C9 1_555 1_555
H7 C9 1_555 1_555
C10 C8 1_555 1_555
H8 C10 1_555 1_555
H9 C10 1_555 1_555
H10 C10 1_555 1_555
N1 C6 1_555 1_555
H11 N1 1_555 1_555
N2 C7 1_555 1_555
H12 N2 1_555 1_555
N3 C8 1_555 1_555
S1 C1 1_555 1_555
C11 C12 1_555 1_555
C12 H13 1_555 1_555
C13 C12 1_555 1_555
C14 C13 1_555 1_555
H14 C14 1_555 1_555
C15 C14 1_555 1_555
H15 C15 1_555 1_555
C16 C11 1_555 1_555
H16 C16 1_555 1_555
S2 C11 1_555 1_555
N4 C13 1_555 1_555
O1 S2 1_555 1_555
O2 S2 1_555 1_555
O3 S2 1_555 1_555
O4 N4 1_555 1_555
O5 N4 1_555 1_555
C5 C6 1_555 1_555
C7 S1 1_555 1_555
N2 N3 1_555 1_555
C15 C16 1_555 1_555

#END
