
#######################################################################
#
#                 Cambridge Crystallographic Data Centre
#                                CCDC 
#
#######################################################################
#
# If this CIF has been generated from an entry in the Cambridge 
# Structural Database, then it will include bibliographic, chemical, 
# crystal, experimental, refinement or atomic coordinate data resulting 
# from the CCDC's data processing and validation procedures.
#
#######################################################################

data_KIDLUH
_chemical_formula_moiety         'C13 H10 N4 O4 S2'
_chemical_name_systematic        
N'-(1,3-benzothiazol-2-yl)-3-nitrobenzene-1-sulfonohydrazide
_symmetry_cell_setting           triclinic
_symmetry_space_group_name_H-M   'P -1'
_symmetry_Int_Tables_number      2
_space_group_name_Hall           '-P 1'
loop_
_symmetry_equiv_pos_site_id
_symmetry_equiv_pos_as_xyz
1 x,y,z
2 -x,-y,-z
_cell_length_a                   6.83537(15)
_cell_length_b                   13.5788(3)
_cell_length_c                   15.6907(4)
_cell_angle_alpha                99.382(2)
_cell_angle_beta                 98.2324(19)
_cell_angle_gamma                91.9841(19)
_cell_volume                     1419.55
_exptl_crystal_colour            yellow
_exptl_crystal_description       plate
_cell_formula_units_Z            4
loop_
_atom_site_label
_atom_site_type_symbol
_atom_site_fract_x
_atom_site_fract_y
_atom_site_fract_z
C1 C 0.43539(18) 0.33184(9) 0.47102(8)
C2 C 0.55062(19) 0.27184(10) 0.51978(8)
H1 H 0.6190 0.2193 0.4915
C3 C 0.5642(2) 0.28988(10) 0.61023(9)
H2 H 0.6435 0.2497 0.6439
C4 C 0.4627(2) 0.36625(11) 0.65225(9)
H3 H 0.4751 0.3779 0.7142
C5 C 0.3439(2) 0.42538(10) 0.60476(8)
H4 H 0.2733 0.4767 0.6333
C6 C 0.33125(18) 0.40728(9) 0.51429(8)
C7 C 0.28467(18) 0.38771(9) 0.35588(8)
C8 C -0.12349(18) 0.31751(9) 0.11243(8)
C9 C -0.13679(18) 0.36196(9) 0.03836(8)
H5 H -0.1521 0.4317 0.0415
C10 C -0.12680(18) 0.30065(9) -0.04025(8)
C11 C -0.10555(19) 0.19861(10) -0.04774(9)
H6 H -0.1002 0.1586 -0.1029
C12 C -0.09235(19) 0.15654(10) 0.02733(9)
H7 H -0.0772 0.0868 0.0238
C13 C -0.10106(18) 0.21541(9) 0.10793(8)
H8 H -0.0918 0.1862 0.1593
S1 S 0.19123(5) 0.46708(2) 0.43815(2)
S2 S -0.14385(4) 0.39379(2) 0.21312(2)
N1 N 0.40625(15) 0.32218(8) 0.38016(7)
N2 N 0.23064(17) 0.39617(9) 0.27112(7)
H9 H 0.284(3) 0.3656(13) 0.2323(11)
N3 N 0.07391(16) 0.45532(8) 0.25127(7)
H10 H 0.101(2) 0.4983(13) 0.2204(11)
N4 N -0.14030(17) 0.34643(8) -0.11915(7)
O1 O -0.27389(14) 0.47084(7) 0.19593(6)
O2 O -0.17746(14) 0.32943(7) 0.27375(6)
O3 O -0.15792(16) 0.43763(7) -0.11068(6)
O4 O -0.13227(18) 0.29368(8) -0.18884(6)
C14 C 0.38706(17) 0.27186(9) 0.04845(8)
C15 C 0.37430(18) 0.35578(10) 0.00746(8)
H11 H 0.3734 0.4208 0.0407
C16 C 0.36290(19) 0.34242(10) -0.08280(9)
H12 H 0.3550 0.3990 -0.1114
C17 C 0.3629(2) 0.24711(10) -0.13217(9)
H13 H 0.3535 0.2398 -0.1939
C18 C 0.3765(2) 0.16275(10) -0.09252(8)
H14 H 0.3766 0.0979 -0.1261
C19 C 0.38981(18) 0.17643(9) -0.00197(8)
C20 C 0.40680(18) 0.18334(9) 0.15515(8)
C21 C 0.15315(19) 0.07929(9) 0.36629(8)
C22 C 0.22077(19) 0.04559(10) 0.44344(8)
H15 H 0.2967 -0.0117 0.4438
C23 C 0.17295(19) 0.09898(10) 0.51990(8)
C24 C 0.0642(2) 0.18347(10) 0.52236(9)
H16 H 0.0348 0.2185 0.5761
C25 C -0.0005(2) 0.21522(10) 0.44401(10)
H17 H -0.0747 0.2731 0.4439
C26 C 0.0421(2) 0.16336(10) 0.36575(9)
H18 H -0.0042 0.1850 0.3122
S3 S 0.40564(5) 0.08651(2) 0.06631(2)
S4 S 0.21030(5) 0.01172(2) 0.26734(2)
N5 N 0.39616(15) 0.27357(8) 0.13792(7)
N6 N 0.41743(18) 0.16301(8) 0.23735(7)
H19 H 0.430(2) 0.2085(13) 0.2795(12)
N7 N 0.42029(17) 0.06345(8) 0.24827(7)
H20 H 0.520(3) 0.0496(12) 0.2847(11)
N8 N 0.23973(17) 0.06263(9) 0.60183(7)
O5 O 0.26067(17) -0.08604(7) 0.28157(6)
O6 O 0.05911(15) 0.02700(8) 0.19880(6)
O7 O 0.32765(15) -0.01577(8) 0.59683(7)
O8 O 0.20339(17) 0.10970(9) 0.67020(7)
loop_
_geom_bond_atom_site_label_1
_geom_bond_atom_site_label_2
_geom_bond_site_symmetry_1
_geom_bond_site_symmetry_2
C1 C2 1_555 1_555
C2 H1 1_555 1_555
C3 C2 1_555 1_555
H2 C3 1_555 1_555
C4 C3 1_555 1_555
H3 C4 1_555 1_555
C5 C4 1_555 1_555
H4 C5 1_555 1_555
C6 C1 1_555 1_555
C7 S1 1_555 1_555
C8 C9 1_555 1_555
C9 H5 1_555 1_555
C10 C9 1_555 1_555
C11 C10 1_555 1_555
H6 C11 1_555 1_555
C12 C11 1_555 1_555
H7 C12 1_555 1_555
C13 C8 1_555 1_555
H8 C13 1_555 1_555
S1 C6 1_555 1_555
S2 C8 1_555 1_555
N1 C1 1_555 1_555
N2 C7 1_555 1_555
H9 N2 1_555 1_555
N3 S2 1_555 1_555
H10 N3 1_555 1_555
N4 C10 1_555 1_555
O1 S2 1_555 1_555
O2 S2 1_555 1_555
O3 N4 1_555 1_555
O4 N4 1_555 1_555
C14 C15 1_555 1_555
C15 H11 1_555 1_555
C16 C15 1_555 1_555
H12 C16 1_555 1_555
C17 C16 1_555 1_555
H13 C17 1_555 1_555
C18 C17 1_555 1_555
H14 C18 1_555 1_555
C19 C14 1_555 1_555
C20 S3 1_555 1_555
C21 C22 1_555 1_555
C22 H15 1_555 1_555
C23 C22 1_555 1_555
C24 C23 1_555 1_555
H16 C24 1_555 1_555
C25 C24 1_555 1_555
H17 C25 1_555 1_555
C26 C21 1_555 1_555
H18 C26 1_555 1_555
S3 C19 1_555 1_555
S4 C21 1_555 1_555
N5 C14 1_555 1_555
N6 C20 1_555 1_555
H19 N6 1_555 1_555
N7 S4 1_555 1_555
H20 N7 1_555 1_555
N8 C23 1_555 1_555
O5 S4 1_555 1_555
O6 S4 1_555 1_555
O7 N8 1_555 1_555
O8 N8 1_555 1_555
C5 C6 1_555 1_555
C7 N1 1_555 1_555
C12 C13 1_555 1_555
N2 N3 1_555 1_555
C18 C19 1_555 1_555
C20 N5 1_555 1_555
C25 C26 1_555 1_555
N6 N7 1_555 1_555

#END
