
#######################################################################
#
#                 Cambridge Crystallographic Data Centre
#                                CCDC 
#
#######################################################################
#
# If this CIF has been generated from an entry in the Cambridge 
# Structural Database, then it will include bibliographic, chemical, 
# crystal, experimental, refinement or atomic coordinate data resulting 
# from the CCDC's data processing and validation procedures.
#
#######################################################################

data_KIDMIV
_chemical_formula_moiety         'C18 H16 O4'
_chemical_name_systematic        
4-(4-Methoxyphenyl)-1-methyl-4-phenyl-3,6-dioxabicyclo[3.1.0]hexan-2-one
_symmetry_cell_setting           monoclinic
_symmetry_space_group_name_H-M   'P 21/n'
_symmetry_Int_Tables_number      14
_space_group_name_Hall           '-P 2yn'
loop_
_symmetry_equiv_pos_site_id
_symmetry_equiv_pos_as_xyz
1 x,y,z
2 1/2-x,1/2+y,1/2-z
3 -x,-y,-z
4 1/2+x,1/2-y,1/2+z
_cell_length_a                   11.655(2)
_cell_length_b                   8.2009(16)
_cell_length_c                   15.596(3)
_cell_angle_alpha                90
_cell_angle_beta                 93.50(3)
_cell_angle_gamma                90
_cell_volume                     1487.91
_cell_formula_units_Z            4
loop_
_atom_site_label
_atom_site_type_symbol
_atom_site_fract_x
_atom_site_fract_y
_atom_site_fract_z
C1 C 0.86521(12) 1.14561(16) 0.94380(9)
C2 C 0.90227(12) 1.10896(17) 0.85567(9)
C3 C 0.80435(11) 1.02429(17) 0.81217(8)
H1 H 0.8166 0.9417 0.7682
C4 C 0.71101(11) 1.00147(15) 0.87521(8)
C5 C 1.02649(13) 1.1013(2) 0.83747(11)
H2 H 1.0335 1.0717 0.7785
H3 H 1.0645 1.0212 0.8740
H4 H 1.0613 1.2060 0.8482
C6 C 0.70439(11) 0.82460(15) 0.90437(8)
C7 C 0.60428(12) 0.73433(16) 0.89187(9)
H5 H 0.5389 0.7820 0.8655
C8 C 0.60110(14) 0.57308(18) 0.91855(10)
H6 H 0.5335 0.5134 0.9101
C9 C 0.69745(14) 0.50078(18) 0.95750(10)
H7 H 0.6948 0.3928 0.9755
C10 C 0.79780(14) 0.58892(18) 0.96977(11)
H8 H 0.8630 0.5403 0.9959
C11 C 0.80142(13) 0.75023(17) 0.94314(9)
H9 H 0.8694 0.8091 0.9513
C12 C 0.59687(11) 1.07428(15) 0.84362(8)
C13 C 0.56449(13) 1.07992(18) 0.75683(9)
H10 H 0.6153 1.0426 0.7175
C14 C 0.45806(13) 1.1400(2) 0.72704(9)
H11 H 0.4377 1.1419 0.6684
C15 C 0.38224(12) 1.19711(18) 0.78542(10)
C16 C 0.41373(12) 1.19233(18) 0.87261(9)
H12 H 0.3632 1.2301 0.9120
C17 C 0.51962(12) 1.13174(17) 0.90097(9)
H13 H 0.5398 1.1293 0.9596
C18 C 0.23340(15) 1.2509(3) 0.67675(12)
H14 H 0.2841 1.3081 0.6409
H15 H 0.1582 1.2989 0.6707
H16 H 0.2290 1.1385 0.6598
O1 O 0.82348(8) 1.19380(12) 0.79502(6)
O2 O 0.92022(9) 1.20913(13) 1.00268(7)
O3 O 0.75553(8) 1.09687(11) 0.95131(6)
O4 O 0.27616(9) 1.26190(16) 0.76373(8)
loop_
_geom_bond_atom_site_label_1
_geom_bond_atom_site_label_2
_geom_bond_site_symmetry_1
_geom_bond_site_symmetry_2
C1 C2 1_555 1_555
C2 C3 1_555 1_555
C3 H1 1_555 1_555
C4 C3 1_555 1_555
C5 C2 1_555 1_555
H2 C5 1_555 1_555
H3 C5 1_555 1_555
H4 C5 1_555 1_555
C6 C4 1_555 1_555
C7 C6 1_555 1_555
H5 C7 1_555 1_555
C8 C7 1_555 1_555
H6 C8 1_555 1_555
C9 C8 1_555 1_555
H7 C9 1_555 1_555
C10 C9 1_555 1_555
H8 C10 1_555 1_555
C11 C6 1_555 1_555
H9 C11 1_555 1_555
C12 C4 1_555 1_555
C13 C12 1_555 1_555
H10 C13 1_555 1_555
C14 C13 1_555 1_555
H11 C14 1_555 1_555
C15 C14 1_555 1_555
C16 C15 1_555 1_555
H12 C16 1_555 1_555
C17 C12 1_555 1_555
H13 C17 1_555 1_555
C18 H14 1_555 1_555
H15 C18 1_555 1_555
H16 C18 1_555 1_555
O1 C2 1_555 1_555
O2 C1 1_555 1_555
O3 C1 1_555 1_555
O4 C15 1_555 1_555
C3 O1 1_555 1_555
C4 O3 1_555 1_555
C10 C11 1_555 1_555
C16 C17 1_555 1_555
C18 O4 1_555 1_555

#END
