
#######################################################################
#
#                 Cambridge Crystallographic Data Centre
#                                CCDC 
#
#######################################################################
#
# If this CIF has been generated from an entry in the Cambridge 
# Structural Database, then it will include bibliographic, chemical, 
# crystal, experimental, refinement or atomic coordinate data resulting 
# from the CCDC's data processing and validation procedures.
#
#######################################################################

data_KIDQUK
_chemical_formula_moiety         'C19 H18 N2 O6,C1 H4 O1'
_chemical_name_systematic        
"(R,R)-N,N'-bis(2-hydroxyphenyl)-2,2-dimethyl-1,3-dioxolane-4,5-dicarbamide methanol solvate"
_symmetry_cell_setting           orthorhombic
_symmetry_space_group_name_H-M   'P 21 21 2'
_symmetry_Int_Tables_number      18
_space_group_name_Hall           'P 2 2ab'
loop_
_symmetry_equiv_pos_site_id
_symmetry_equiv_pos_as_xyz
1 x,y,z
2 -x,-y,z
3 1/2+x,1/2-y,-z
4 1/2-x,1/2+y,-z
_cell_length_a                   15.3056(3)
_cell_length_b                   17.7299(5)
_cell_length_c                   7.599(1)
_cell_angle_alpha                90
_cell_angle_beta                 90
_cell_angle_gamma                90
_cell_volume                     2062.12
_exptl_crystal_colour            colorless
_exptl_crystal_description       rod
_cell_formula_units_Z            4
_exptl_crystal_recrystallization_method methanol
loop_
_atom_site_label
_atom_site_type_symbol
_atom_site_fract_x
_atom_site_fract_y
_atom_site_fract_z
C1 C 0.7462(2) 0.4362(2) 0.8038(4)
C2 C 0.7045(2) 0.4762(2) 0.9377(4)
C3 C 0.6212(3) 0.4576(2) 0.9871(5)
C4 C 0.5783(2) 0.3988(2) 0.9023(5)
C5 C 0.6193(2) 0.3582(2) 0.7712(4)
C6 C 0.7034(2) 0.3771(2) 0.7209(3)
C7 C 0.7217(2) 0.3029(2) 0.4468(4)
C8 C 0.7925(2) 0.2718(2) 0.3262(3)
C9 C 0.9035(2) 0.3529(2) 0.2408(4)
C10 C 0.7797(2) 0.2940(2) 0.1307(4)
C11 C 0.7698(2) 0.2271(2) 0.0075(4)
C12 C 0.8447(2) 0.1647(2) -0.2432(4)
C13 C 0.9290(2) 0.1587(2) -0.3118(4)
C14 C 0.9455(3) 0.1076(2) -0.4452(5)
C15 C 0.8806(3) 0.0639(2) -0.5122(5)
C16 C 0.7961(3) 0.0711(2) -0.4466(5)
C17 C 0.7782(2) 0.1209(2) -0.3118(4)
C18 C 0.8786(3) 0.4318(2) 0.2967(5)
C19 C 0.9992(3) 0.3420(3) 0.2053(6)
N1 N 0.7514(2) 0.3391(1) 0.5883(3)
N2 N 0.8342(2) 0.2191(1) -0.1087(3)
O1 O 0.8283(1) 0.4520(1) 0.7507(3)
O2 O 0.6449(1) 0.2925(2) 0.4146(3)
O3 O 0.8771(1) 0.2982(1) 0.3673(3)
O4 O 0.8555(2) 0.3355(1) 0.0870(2)
O5 O 0.7056(2) 0.1866(2) 0.0163(3)
O6 O 0.9896(1) 0.2055(1) -0.2390(3)
O7 O 0.5555(5) 0.1041(3) 0.2809(13)
C20 C 0.6054(2) 0.0782(2) 0.1481(6)
loop_
_geom_bond_atom_site_label_1
_geom_bond_atom_site_label_2
_geom_bond_site_symmetry_1
_geom_bond_site_symmetry_2
C1 C2 1_555 1_555
C2 C3 1_555 1_555
C3 C4 1_555 1_555
C4 C5 1_555 1_555
C5 C6 1_555 1_555
C6 C1 1_555 1_555
C7 C8 1_555 1_555
C8 C10 1_555 1_555
C9 C18 1_555 1_555
C10 C11 1_555 1_555
C11 N2 1_555 1_555
C12 C13 1_555 1_555
C13 C14 1_555 1_555
C14 C15 1_555 1_555
C15 C16 1_555 1_555
C16 C17 1_555 1_555
C17 C12 1_555 1_555
C19 C9 1_555 1_555
N1 C6 1_555 1_555
N2 C12 1_555 1_555
O1 C1 1_555 1_555
O2 C7 1_555 1_555
O3 C8 1_555 1_555
O4 C9 1_555 1_555
O5 C11 1_555 1_555
O6 C13 1_555 1_555
O7 C20 1_555 1_555
C7 N1 1_555 1_555
C9 O3 1_555 1_555
C10 O4 1_555 1_555

#END
