
#######################################################################
#
#                 Cambridge Crystallographic Data Centre
#                                CCDC 
#
#######################################################################
#
# If this CIF has been generated from an entry in the Cambridge 
# Structural Database, then it will include bibliographic, chemical, 
# crystal, experimental, refinement or atomic coordinate data resulting 
# from the CCDC's data processing and validation procedures.
#
#######################################################################

data_KIDWOM
_chemical_formula_moiety         'C42 H39 P1'
_chemical_name_systematic        
'[2,4-dimethyl-6-(2,2,2-triphenylethyl)phenyl](diphenylmethyl)methylphosphane'
_symmetry_cell_setting           triclinic
_symmetry_space_group_name_H-M   'P -1'
_symmetry_Int_Tables_number      2
_space_group_name_Hall           '-P 1'
loop_
_symmetry_equiv_pos_site_id
_symmetry_equiv_pos_as_xyz
1 x,y,z
2 -x,-y,-z
_cell_length_a                   9.8790(12)
_cell_length_b                   12.3423(14)
_cell_length_c                   15.4553(17)
_cell_angle_alpha                104.703(5)
_cell_angle_beta                 101.120(5)
_cell_angle_gamma                112.177(4)
_cell_volume                     1597.85
_exptl_crystal_colour            colorless
_exptl_crystal_description       irregular
_cell_formula_units_Z            2
_exptl_crystal_recrystallization_method hexane
loop_
_atom_site_label
_atom_site_type_symbol
_atom_site_fract_x
_atom_site_fract_y
_atom_site_fract_z
P1 P 0.78381(5) 0.27925(4) 0.25398(3)
C1 C 0.9234(2) 0.21483(17) 0.26288(13)
H1 H 0.880552 0.133491 0.211654
H2 H 0.944719 0.203977 0.323889
H3 H 1.019386 0.272604 0.257844
C2 C 0.46932(18) 0.17843(15) 0.18485(12)
C3 C 0.4077(2) 0.18206(16) 0.09733(12)
H4 H 0.438236 0.151174 0.045534
C4 C 0.3020(2) 0.23025(18) 0.08472(13)
H5 H 0.260782 0.232401 0.024684
C5 C 0.2573(2) 0.27507(17) 0.16001(14)
H6 H 0.184789 0.307847 0.151591
C6 C 0.3172(2) 0.27238(17) 0.24696(13)
H7 H 0.286451 0.303536 0.298591
C7 C 0.4225(2) 0.22417(16) 0.25926(12)
H8 H 0.463219 0.222385 0.319524
C8 C 0.59304(18) 0.13355(15) 0.19840(12)
H9 H 0.589746 0.085789 0.134559
C9 C 0.57473(18) 0.04934(15) 0.25611(13)
C10 C 0.5106(2) -0.07981(17) 0.20986(15)
H10 H 0.481042 -0.113566 0.142897
C11 C 0.4894(2) -0.15980(19) 0.26022(18)
H11 H 0.443955 -0.247772 0.227366
C12 C 0.5334(2) -0.1131(2) 0.35728(18)
H12 H 0.518675 -0.168381 0.391441
C13 C 0.5990(2) 0.0146(2) 0.40449(16)
H13 H 0.630157 0.047490 0.471533
C14 C 0.6200(2) 0.09555(18) 0.35446(14)
H14 H 0.665756 0.183424 0.387803
C15 C 0.78866(18) 0.33648(15) 0.15429(11)
C16 C 0.80200(19) 0.27667(15) 0.06721(12)
C17 C 0.8029(2) 0.33016(17) -0.00217(12)
H15 H 0.817525 0.291490 -0.058768
C18 C 0.7833(2) 0.43753(17) 0.00838(12)
C19 C 0.7670(2) 0.49402(16) 0.09241(12)
H16 H 0.751481 0.566856 0.100210
C20 C 0.77234(18) 0.44877(14) 0.16628(11)
C21 C 0.7802(3) 0.4925(2) -0.06831(14)
H17 H 0.804995 0.446582 -0.119525
H18 H 0.856445 0.580989 -0.042209
H19 H 0.677038 0.485779 -0.092991
C22 C 0.8164(2) 0.15540(17) 0.04257(13)
H20 H 0.791377 0.118742 -0.026010
H21 H 0.744683 0.096489 0.063828
H22 H 0.922316 0.172564 0.073958
C23 C 0.75527(18) 0.52160(14) 0.25523(11)
H23 H 0.726053 0.465946 0.291607
H24 H 0.668327 0.541280 0.236119
C24 C 0.89995(18) 0.64739(14) 0.32335(11)
C25 C 0.94201(18) 0.74486(14) 0.27414(11)
C26 C 1.0886(2) 0.80857(15) 0.26941(12)
H25 H 1.169896 0.792312 0.297224
C27 C 1.1188(2) 0.89612(16) 0.22453(13)
H26 H 1.219638 0.937469 0.221363
C28 C 1.0034(2) 0.92299(16) 0.18477(12)
H27 H 1.023117 0.980723 0.152733
C29 C 0.8583(2) 0.86409(16) 0.19251(12)
H28 H 0.778595 0.883532 0.167161
C30 C 0.8283(2) 0.77705(15) 0.23690(12)
H29 H 0.728384 0.738517 0.242107
C31 C 0.85900(18) 0.70828(14) 0.40881(11)
C32 C 0.9697(2) 0.82579(15) 0.47448(11)
H30 H 1.067281 0.863932 0.466192
C33 C 0.9404(2) 0.88787(16) 0.55139(12)
H31 H 1.017752 0.967275 0.595337
C34 C 0.7994(2) 0.83465(17) 0.56414(12)
H32 H 0.778601 0.877414 0.616415
C35 C 0.6885(2) 0.71900(17) 0.50061(12)
H33 H 0.591035 0.682056 0.509267
C36 C 0.7180(2) 0.65522(16) 0.42331(11)
H34 H 0.640918 0.574985 0.380481
C37 C 1.03190(18) 0.61439(14) 0.35601(11)
C38 C 1.10548(18) 0.57844(15) 0.29315(12)
H35 H 1.076851 0.578714 0.230922
C39 C 1.21909(19) 0.54254(16) 0.32006(13)
H36 H 1.269408 0.520737 0.276883
C40 C 1.2597(2) 0.53826(16) 0.40971(13)
H37 H 1.336015 0.511779 0.427611
C41 C 1.1886(2) 0.57276(15) 0.47276(13)
H38 H 1.216056 0.570311 0.534371
C42 C 1.07649(19) 0.61113(15) 0.44616(11)
H39 H 1.029329 0.635665 0.490492
loop_
_geom_bond_atom_site_label_1
_geom_bond_atom_site_label_2
_geom_bond_site_symmetry_1
_geom_bond_site_symmetry_2
P1 C1 1_555 1_555
C1 H1 1_555 1_555
H2 C1 1_555 1_555
H3 C1 1_555 1_555
C2 C3 1_555 1_555
C3 H4 1_555 1_555
C4 C3 1_555 1_555
H5 C4 1_555 1_555
C5 C4 1_555 1_555
H6 C5 1_555 1_555
C6 C5 1_555 1_555
H7 C6 1_555 1_555
C7 C2 1_555 1_555
H8 C7 1_555 1_555
C8 P1 1_555 1_555
H9 C8 1_555 1_555
C9 C8 1_555 1_555
C10 C9 1_555 1_555
H10 C10 1_555 1_555
C11 C10 1_555 1_555
H11 C11 1_555 1_555
C12 C11 1_555 1_555
H12 C12 1_555 1_555
C13 C12 1_555 1_555
H13 C13 1_555 1_555
C14 C9 1_555 1_555
H14 C14 1_555 1_555
C15 P1 1_555 1_555
C16 C15 1_555 1_555
C17 C16 1_555 1_555
H15 C17 1_555 1_555
C18 C17 1_555 1_555
C19 C18 1_555 1_555
H16 C19 1_555 1_555
C20 C15 1_555 1_555
C21 C18 1_555 1_555
H17 C21 1_555 1_555
H18 C21 1_555 1_555
H19 C21 1_555 1_555
C22 C16 1_555 1_555
H20 C22 1_555 1_555
H21 C22 1_555 1_555
H22 C22 1_555 1_555
C23 C20 1_555 1_555
H23 C23 1_555 1_555
H24 C23 1_555 1_555
C24 C23 1_555 1_555
C25 C24 1_555 1_555
C26 C25 1_555 1_555
H25 C26 1_555 1_555
C27 C26 1_555 1_555
H26 C27 1_555 1_555
C28 C27 1_555 1_555
H27 C28 1_555 1_555
C29 C28 1_555 1_555
H28 C29 1_555 1_555
C30 C25 1_555 1_555
H29 C30 1_555 1_555
C31 C24 1_555 1_555
C32 C31 1_555 1_555
H30 C32 1_555 1_555
C33 C32 1_555 1_555
H31 C33 1_555 1_555
C34 C33 1_555 1_555
H32 C34 1_555 1_555
C35 C34 1_555 1_555
H33 C35 1_555 1_555
C36 C31 1_555 1_555
H34 C36 1_555 1_555
C37 C24 1_555 1_555
C38 C37 1_555 1_555
H35 C38 1_555 1_555
C39 C38 1_555 1_555
H36 C39 1_555 1_555
C40 C39 1_555 1_555
H37 C40 1_555 1_555
C41 C40 1_555 1_555
H38 C41 1_555 1_555
C42 C37 1_555 1_555
H39 C42 1_555 1_555
C2 C8 1_555 1_555
C6 C7 1_555 1_555
C13 C14 1_555 1_555
C19 C20 1_555 1_555
C29 C30 1_555 1_555
C35 C36 1_555 1_555
C41 C42 1_555 1_555

#END
