
#######################################################################
#
#                 Cambridge Crystallographic Data Centre
#                                CCDC 
#
#######################################################################
#
# If this CIF has been generated from an entry in the Cambridge 
# Structural Database, then it will include bibliographic, chemical, 
# crystal, experimental, refinement or atomic coordinate data resulting 
# from the CCDC's data processing and validation procedures.
#
#######################################################################

data_KIDWEA
_chemical_formula_moiety         'C64 H82 N8 O4,C1 H2 Cl2'
_chemical_name_systematic        
'tetrakis(2,2,4-Trimethyl-3-pentoxy)phthalocyanine dichloromethane solvate'
_symmetry_cell_setting           monoclinic
_symmetry_space_group_name_H-M   'P 21/n'
_symmetry_Int_Tables_number      14
_space_group_name_Hall           '-P 2yn'
loop_
_symmetry_equiv_pos_site_id
_symmetry_equiv_pos_as_xyz
1 x,y,z
2 1/2-x,1/2+y,1/2-z
3 -x,-y,-z
4 1/2+x,1/2-y,1/2+z
_cell_length_a                   13.8183(4)
_cell_length_b                   14.5996(4)
_cell_length_c                   16.320(2)
_cell_angle_alpha                90
_cell_angle_beta                 98.5440(16)
_cell_angle_gamma                90
_cell_volume                     3255.88
_exptl_crystal_colour            green
_exptl_crystal_description       prism
_cell_formula_units_Z            2
loop_
_atom_site_label
_atom_site_type_symbol
_atom_site_fract_x
_atom_site_fract_y
_atom_site_fract_z
N1 N 0.8935(5) 0.4407(5) 0.1666(5)
N2 N 1.0181(5) 0.5341(5) 0.1184(4)
N3 N 1.1557(5) 0.6364(5) 0.1188(5)
N4 N 1.1093(5) 0.5795(5) -0.0209(5)
O1 O 0.7419(5) 0.3235(5) 0.2199(5)
O2 O 1.2237(5) 0.6901(5) 0.2914(4)
C1 C 1.1591(8) 0.6284(8) 0.0378(8)
C2 C 1.0944(6) 0.5950(6) 0.1604(7)
C3 C 1.0888(6) 0.5945(6) 0.2429(6)
C4 C 1.1457(7) 0.6380(6) 0.3098(7)
C5 C 1.1177(9) 0.6210(7) 0.3889(6)
H1 H 1.1530 0.6474 0.4360
C6 C 1.0387(8) 0.5655(7) 0.3962(7)
H2 H 1.0222 0.5566 0.4488
C7 C 0.9872(6) 0.5259(6) 0.3359(7)
H3 H 0.9353 0.4887 0.3452
C8 C 1.0072(5) 0.5376(5) 0.2583(6)
C9 C 0.9660(8) 0.4985(7) 0.1760(6)
C10 C 0.8567(6) 0.4027(7) 0.1000(6)
C11 C 0.7780(8) 0.3382(8) 0.0870(6)
C12 C 0.7222(9) 0.2965(10) 0.1416(8)
C13 C 0.6537(15) 0.2353(16) 0.1076(9)
H4 H 0.6160 0.2063 0.1426
C14 C 0.6369(17) 0.214(2) 0.0264(14)
H5 H 0.5899 0.1703 0.0071
C15 C 0.6847(12) 0.2529(13) -0.0235(8)
H6 H 0.6682 0.2390 -0.0795
C16 C 1.2362(8) 0.6821(8) 0.0003(8)
C17 C 1.3006(9) 0.7268(11) 0.3510(5)
H7 H 1.2794 0.7129 0.4044
C18 C 1.3870(11) 0.6682(13) 0.3503(9)
C19 C 1.2928(14) 0.8343(12) 0.3447(11)
C20 C 1.1985(16) 0.8724(14) 0.3684(13)
C21 C 1.3117(17) 0.8589(13) 0.2552(12)
C22 C 1.4221(10) 0.6615(15) 0.2617(11)
C23 C 1.4782(11) 0.7190(14) 0.4125(11)
C25 C 0.6962(11) 0.2830(10) 0.2825(7)
H8 H 0.6495 0.2391 0.2535
C26 C 0.6371(12) 0.3477(10) 0.3200(11)
C27 C 0.7708(9) 0.2245(10) 0.3385(8)
C28 C 0.5741(16) 0.3069(16) 0.3664(16)
C29 C 0.6906(10) 0.4326(10) 0.3517(8)
C30 C 0.7243(15) 0.1706(17) 0.3981(13)
C31 C 0.8723(8) 0.2786(9) 0.3695(7)
C32 C 0.7990(11) 0.1449(10) 0.2748(11)
C34 C 1.338(2) 0.865(2) 0.420(2)
N1B N 1.1065(5) 0.5593(5) -0.1666(5)
N2B N 0.9819(5) 0.4659(5) -0.1184(4)
N3B N 0.8443(5) 0.3636(5) -0.1188(5)
N4B N 0.8907(5) 0.4205(5) 0.0209(5)
O1B O 1.2581(5) 0.6765(5) -0.2199(5)
O2B O 0.7763(5) 0.3099(5) -0.2914(4)
C1B C 0.8409(8) 0.3716(8) -0.0378(8)
C2B C 0.9056(6) 0.4050(6) -0.1604(7)
C3B C 0.9112(6) 0.4055(6) -0.2429(6)
C4B C 0.8543(7) 0.3620(6) -0.3098(7)
C5B C 0.8823(9) 0.3790(7) -0.3889(6)
H1B H 0.8470 0.3526 -0.4360
C6B C 0.9613(8) 0.4345(7) -0.3962(7)
H2B H 0.9778 0.4434 -0.4488
C7B C 1.0128(6) 0.4741(6) -0.3359(7)
H3B H 1.0647 0.5113 -0.3452
C8B C 0.9928(5) 0.4624(5) -0.2583(6)
C9B C 1.0340(8) 0.5015(7) -0.1760(6)
C10B C 1.1433(6) 0.5973(7) -0.1000(6)
C11B C 1.2220(8) 0.6618(8) -0.0870(6)
C12B C 1.2778(9) 0.7035(10) -0.1416(8)
C13B C 1.3463(15) 0.7647(16) -0.1076(9)
H4B H 1.3840 0.7937 -0.1426
C14B C 1.3631(17) 0.786(2) -0.0264(14)
H5B H 1.4101 0.8297 -0.0071
C15B C 1.3153(12) 0.7471(13) 0.0235(8)
H6B H 1.3318 0.7610 0.0795
C16B C 0.7638(8) 0.3179(8) -0.0003(8)
C17B C 0.6994(9) 0.2732(11) -0.3510(5)
H7B H 0.7206 0.2871 -0.4044
C18B C 0.6130(11) 0.3318(13) -0.3503(9)
C19B C 0.7072(14) 0.1657(12) -0.3447(11)
C20B C 0.8015(16) 0.1276(14) -0.3684(13)
C21B C 0.6883(17) 0.1411(13) -0.2552(12)
C22B C 0.5779(10) 0.3385(15) -0.2617(11)
C23B C 0.5218(11) 0.2810(14) -0.4125(11)
C25B C 1.3038(11) 0.7170(10) -0.2825(7)
H8B H 1.3505 0.7609 -0.2535
C26B C 1.3629(12) 0.6523(10) -0.3200(11)
C27B C 1.2292(9) 0.7755(10) -0.3385(8)
C28B C 1.4259(16) 0.6931(16) -0.3664(16)
C29B C 1.3094(10) 0.5674(10) -0.3517(8)
C30B C 1.2757(15) 0.8294(17) -0.3981(13)
C31B C 1.1277(8) 0.7214(9) -0.3695(7)
C32B C 1.2010(11) 0.8551(10) -0.2748(11)
C34B C 0.662(2) 0.135(2) -0.420(2)
C35 C 0.5000 0.5000 0.0000
Cl1 Cl 0.443(2) 0.527(2) 0.020(3)
Cl1B Cl 0.557(2) 0.473(2) -0.020(3)
C24? C 1.3602(13) 0.5697(12) 0.3819(11)
C33? C 0.5673(13) 0.3733(16) 0.2343(13)
loop_
_geom_bond_atom_site_label_1
_geom_bond_atom_site_label_2
_geom_bond_site_symmetry_1
_geom_bond_site_symmetry_2
N1 C9 1_555 1_555
N2 C2 1_555 1_555
N3 C1 1_555 1_555
N4 C1 1_555 1_555
O1 C12 1_555 1_555
O2 C4 1_555 1_555
C1 C16 1_555 1_555
C2 N3 1_555 1_555
C3 C2 1_555 1_555
C4 C3 1_555 1_555
C5 C4 1_555 1_555
H1 C5 1_555 1_555
C6 C5 1_555 1_555
H2 C6 1_555 1_555
C7 C6 1_555 1_555
H3 C7 1_555 1_555
C8 C3 1_555 1_555
C9 N2 1_555 1_555
C10 N1 1_555 1_555
C11 C10 1_555 1_555
C12 C11 1_555 1_555
C13 C12 1_555 1_555
H4 C13 1_555 1_555
C14 C13 1_555 1_555
H5 C14 1_555 1_555
C15 C14 1_555 1_555
H6 C15 1_555 1_555
C16 C11B 1_555 1_555
C17 O2 1_555 1_555
H7 C17 1_555 1_555
C18 C17 1_555 1_555
C19 C17 1_555 1_555
C20 C19 1_555 1_555
C21 C19 1_555 1_555
C22 C18 1_555 1_555
C23 C18 1_555 1_555
C25 O1 1_555 1_555
H8 C25 1_555 1_555
C26 C25 1_555 1_555
C27 C25 1_555 1_555
C28 C26 1_555 1_555
C29 C26 1_555 1_555
C30 C27 1_555 1_555
C31 C27 1_555 1_555
C32 C27 1_555 1_555
C34 C19 1_555 1_555
C35 Cl1 1_555 1_555
N1B C9B 1_555 1_555
N2B C2B 1_555 1_555
N3B C1B 1_555 1_555
N4B C10 1_555 1_555
O1B C12B 1_555 1_555
O2B C4B 1_555 1_555
C1B N4B 1_555 1_555
C2B N3B 1_555 1_555
C3B C2B 1_555 1_555
C4B C3B 1_555 1_555
C5B C4B 1_555 1_555
H1B C5B 1_555 1_555
C6B C5B 1_555 1_555
H2B C6B 1_555 1_555
C7B C6B 1_555 1_555
H3B C7B 1_555 1_555
C8B C3B 1_555 1_555
C9B N2B 1_555 1_555
C10B N4 1_555 1_555
C11B C10B 1_555 1_555
C12B C11B 1_555 1_555
C13B C12B 1_555 1_555
H4B C13B 1_555 1_555
C14B C13B 1_555 1_555
H5B C14B 1_555 1_555
C15B C16 1_555 1_555
H6B C15B 1_555 1_555
C16B C11 1_555 1_555
C17B O2B 1_555 1_555
H7B C17B 1_555 1_555
C18B C17B 1_555 1_555
C19B C17B 1_555 1_555
C20B C19B 1_555 1_555
C21B C19B 1_555 1_555
C22B C18B 1_555 1_555
C23B C18B 1_555 1_555
C25B O1B 1_555 1_555
H8B C25B 1_555 1_555
C26B C25B 1_555 1_555
C27B C25B 1_555 1_555
C28B C26B 1_555 1_555
C29B C26B 1_555 1_555
C30B C27B 1_555 1_555
C31B C27B 1_555 1_555
C32B C27B 1_555 1_555
C34B C19B 1_555 1_555
Cl1B C35 1_555 1_555
C7 C8 1_555 1_555
C8 C9 1_555 1_555
C15 C16B 1_555 1_555
N1B C10B 1_555 1_555
C1B C16B 1_555 1_555
C7B C8B 1_555 1_555
C8B C9B 1_555 1_555
C14B C15B 1_555 1_555

#END
