
#######################################################################
#
#                 Cambridge Crystallographic Data Centre
#                                CCDC 
#
#######################################################################
#
# If this CIF has been generated from an entry in the Cambridge 
# Structural Database, then it will include bibliographic, chemical, 
# crystal, experimental, refinement or atomic coordinate data resulting 
# from the CCDC's data processing and validation procedures.
#
#######################################################################

data_KIDYAY
_chemical_formula_moiety         'C16 H18 N4 O2,C1 D1 Cl3'
_chemical_name_systematic        
"N,N'-bis(2-Pyridyl)adipoamide deuterochloroform solvate"
_symmetry_cell_setting           monoclinic
_symmetry_space_group_name_H-M   'P 21/c'
_symmetry_Int_Tables_number      14
_space_group_name_Hall           '-P 2ybc'
loop_
_symmetry_equiv_pos_site_id
_symmetry_equiv_pos_as_xyz
1 x,y,z
2 -x,1/2+y,1/2-z
3 -x,-y,-z
4 x,1/2-y,1/2+z
_cell_length_a                   9.8917(8)
_cell_length_b                   8.2994(6)
_cell_length_c                   24.1948(18)
_cell_angle_alpha                90
_cell_angle_beta                 92.004(6)
_cell_angle_gamma                90
_cell_volume                     1985.06
_exptl_crystal_colour            colorless
_exptl_crystal_description       plate
_cell_formula_units_Z            4
loop_
_atom_site_label
_atom_site_type_symbol
_atom_site_fract_x
_atom_site_fract_y
_atom_site_fract_z
O1 O 0.5778(2) 0.4520(3) 0.20520(9)
O2 O 0.9550(2) 0.7816(3) 0.04522(11)
N1 N 0.2649(2) 0.3150(3) 0.09430(10)
N2 N 0.4371(2) 0.4698(3) 0.12932(10)
N3 N 1.1447(2) 0.6297(4) 0.05149(11)
N4 N 1.3609(2) 0.6605(3) 0.02379(10)
C1 C 0.3910(3) 0.2061(4) 0.17140(13)
C2 C 0.3155(4) 0.0673(5) 0.16788(15)
C3 C 0.2149(4) 0.0515(5) 0.12729(16)
C4 C 0.1941(4) 0.1778(4) 0.09186(15)
C5 C 0.3642(3) 0.3260(4) 0.13320(11)
C6 C 0.5387(3) 0.5247(4) 0.16357(12)
C7 C 0.6021(3) 0.6816(4) 0.14732(16)
C8 C 0.7549(3) 0.6627(4) 0.14190(14)
C9 C 0.7907(3) 0.5493(5) 0.09573(15)
C10 C 0.9419(3) 0.5240(5) 0.08966(16)
C11 C 1.0121(3) 0.6587(4) 0.06019(12)
C12 C 1.2357(3) 0.7203(3) 0.02139(11)
C13 C 1.2007(3) 0.8562(4) -0.00928(13)
C14 C 1.2989(4) 0.9279(4) -0.03969(13)
C15 C 1.4267(4) 0.8634(4) -0.03956(13)
C16 C 1.4533(3) 0.7318(4) -0.00738(13)
H1 H 0.418(3) 0.525(4) 0.1016(12)
H2 H 1.168(3) 0.547(4) 0.0617(13)
H3 H 0.470(4) 0.218(4) 0.2002(15)
H4 H 0.330(4) -0.017(5) 0.1935(16)
H5 H 0.162(4) -0.042(5) 0.1217(15)
H6 H 0.128(4) 0.174(4) 0.0626(15)
H7 H 0.560(3) 0.716(4) 0.1119(15)
H8 H 0.584(3) 0.764(4) 0.1795(14)
H9 H 0.789(3) 0.622(4) 0.1791(15)
H10 H 0.796(3) 0.769(5) 0.1337(14)
H11 H 0.746(4) 0.435(5) 0.1033(15)
H12 H 0.754(3) 0.583(4) 0.0609(15)
H13 H 0.963(3) 0.425(4) 0.0703(14)
H14 H 0.981(3) 0.516(4) 0.1246(16)
H15 H 1.112(3) 0.892(4) -0.0111(13)
H16 H 1.274(4) 1.025(5) -0.0611(15)
H17 H 1.496(4) 0.909(4) -0.0615(14)
H18 H 1.543(4) 0.685(4) -0.0056(15)
C17 C 0.1754(4) -0.2756(6) 0.27174(17)
Cl1 Cl 0.2235(6) -0.3571(5) 0.21171(17)
Cl2 Cl 0.1822(7) -0.3865(7) 0.3282(2)
Cl3 Cl 0.0141(5) -0.1986(6) 0.2603(2)
D1 D 0.239(5) -0.194(6) 0.2772(19)
Cl4? Cl 0.2543(8) -0.4351(9) 0.2388(4)
Cl5? Cl 0.1271(9) -0.3638(8) 0.3326(2)
Cl6? Cl 0.0421(9) -0.2089(9) 0.2395(4)
loop_
_geom_bond_atom_site_label_1
_geom_bond_atom_site_label_2
_geom_bond_site_symmetry_1
_geom_bond_site_symmetry_2
O1 C6 1_555 1_555
O2 C11 1_555 1_555
N1 C4 1_555 1_555
N2 C5 1_555 1_555
N3 C11 1_555 1_555
N4 C12 1_555 1_555
C1 C2 1_555 1_555
C2 C3 1_555 1_555
C3 C4 1_555 1_555
C4 H6 1_555 1_555
C5 N1 1_555 1_555
C6 N2 1_555 1_555
C7 C6 1_555 1_555
C8 C7 1_555 1_555
C9 C8 1_555 1_555
C10 C9 1_555 1_555
C11 C10 1_555 1_555
C12 N3 1_555 1_555
C13 C12 1_555 1_555
C14 C13 1_555 1_555
C15 C14 1_555 1_555
C16 N4 1_555 1_555
C17 Cl1 1_555 1_555
Cl2 C17 1_555 1_555
Cl3 C17 1_555 1_555
D1 C17 1_555 1_555
H1 N2 1_555 1_555
H2 N3 1_555 1_555
H3 C1 1_555 1_555
H4 C2 1_555 1_555
H5 C3 1_555 1_555
H7 C7 1_555 1_555
H8 C7 1_555 1_555
H9 C8 1_555 1_555
H10 C8 1_555 1_555
H11 C9 1_555 1_555
H12 C9 1_555 1_555
H13 C10 1_555 1_555
H14 C10 1_555 1_555
H15 C13 1_555 1_555
H16 C14 1_555 1_555
H17 C15 1_555 1_555
H18 C16 1_555 1_555
C1 C5 1_555 1_555
C15 C16 1_555 1_555

#END
