
#######################################################################
#
#                 Cambridge Crystallographic Data Centre
#                                CCDC 
#
#######################################################################
#
# If this CIF has been generated from an entry in the Cambridge 
# Structural Database, then it will include bibliographic, chemical, 
# crystal, experimental, refinement or atomic coordinate data resulting 
# from the CCDC's data processing and validation procedures.
#
#######################################################################

data_KIFFUD
_chemical_formula_moiety         'C21 H24 N2 O1'
_chemical_name_systematic        
(Z)-3-benzylidene-2-(2-(diethylamino)ethyl)isoindolin-1-one
_symmetry_cell_setting           monoclinic
_symmetry_space_group_name_H-M   'C 2/c'
_symmetry_Int_Tables_number      15
_space_group_name_Hall           '-C 2yn'
loop_
_symmetry_equiv_pos_site_id
_symmetry_equiv_pos_as_xyz
1 x,y,z
2 -x,y,1/2-z
3 1/2+x,1/2+y,z
4 1/2-x,1/2+y,1/2-z
5 -x,-y,-z
6 x,-y,1/2+z
7 1/2-x,1/2-y,-z
8 1/2+x,1/2-y,1/2+z
_cell_length_a                   13.7086(19)
_cell_length_b                   14.571(2)
_cell_length_c                   19.447(3)
_cell_angle_alpha                90
_cell_angle_beta                 107.974(3)
_cell_angle_gamma                90
_cell_volume                     3694.92
_exptl_crystal_colour            colorless
_exptl_crystal_description       prism
_cell_formula_units_Z            8
loop_
_atom_site_label
_atom_site_type_symbol
_atom_site_fract_x
_atom_site_fract_y
_atom_site_fract_z
O1 O 0.71055(11) 0.15017(9) 0.66635(8)
N1 N 0.65189(11) 0.00109(9) 0.65959(8)
C1 C 0.72069(15) 0.07078(13) 0.68757(10)
N2 N 0.37856(12) 0.07939(11) 0.59233(9)
C2 C 0.68105(13) -0.08086(11) 0.69897(9)
C3 C 0.77778(13) -0.05969(12) 0.75550(10)
C4 C 0.80291(13) 0.03036(12) 0.74717(10)
C5 C 0.84166(16) -0.11344(14) 0.80953(11)
H1 H 0.8263 -0.1746 0.8153
C6 C 0.92910(18) -0.07261(16) 0.85451(14)
H2 H 0.9727 -0.1069 0.8918
C7 C 0.95362(18) 0.01719(16) 0.84579(14)
H3 H 1.0133 0.0424 0.8769
C8 C 0.89076(16) 0.06984(14) 0.79162(13)
H4 H 0.9071 0.1305 0.7852
C9 C 0.55310(14) 0.02224(12) 0.60672(9)
H5 H 0.5287 -0.0309 0.5762
H6 H 0.5614 0.0723 0.5761
C10 C 0.47501(15) 0.04877(15) 0.64339(11)
H7 H 0.4619 -0.0036 0.6701
H8 H 0.5029 0.0976 0.6778
C11 C 0.31458(18) 0.00072(16) 0.55972(14)
H9 H 0.2857 -0.0256 0.5950
H10 H 0.3575 -0.0457 0.5478
C12 C 0.2287(2) 0.02448(19) 0.49270(15)
H11 H 0.1793 0.0619 0.5055
H12 H 0.1963 -0.0309 0.4700
H13 H 0.2556 0.0576 0.4599
C13 C 0.32490(19) 0.1414(2) 0.62818(15)
H14 H 0.3289 0.1165 0.6752
H15 H 0.2531 0.1444 0.5998
C14 C 0.3687(3) 0.2363(2) 0.6376(2)
H16 H 0.4404 0.2335 0.6640
H17 H 0.3339 0.2729 0.6638
H18 H 0.3597 0.2632 0.5910
C15 C 0.63521(14) -0.16241(12) 0.68820(10)
H19 H 0.6631 -0.2052 0.7244
C16 C 0.54774(13) -0.19639(11) 0.62858(10)
C17 C 0.55347(16) -0.20166(13) 0.55900(11)
H20 H 0.6118 -0.1802 0.5493
C18 C 0.47429(18) -0.23817(14) 0.50373(12)
H21 H 0.4791 -0.2402 0.4571
C19 C 0.38866(18) -0.27146(14) 0.51706(13)
H22 H 0.3356 -0.2967 0.4798
C20 C 0.38175(16) -0.26732(16) 0.58519(14)
H23 H 0.3237 -0.2899 0.5946
C21 C 0.46020(15) -0.22987(14) 0.64032(11)
H24 H 0.4540 -0.2271 0.6866
loop_
_geom_bond_atom_site_label_1
_geom_bond_atom_site_label_2
_geom_bond_site_symmetry_1
_geom_bond_site_symmetry_2
O1 C1 1_555 1_555
N1 C1 1_555 1_555
C1 C4 1_555 1_555
N2 C10 1_555 1_555
C2 N1 1_555 1_555
C3 C2 1_555 1_555
C4 C3 1_555 1_555
C5 C3 1_555 1_555
H1 C5 1_555 1_555
C6 C5 1_555 1_555
H2 C6 1_555 1_555
C7 C6 1_555 1_555
H3 C7 1_555 1_555
C8 C4 1_555 1_555
H4 C8 1_555 1_555
C9 N1 1_555 1_555
H5 C9 1_555 1_555
H6 C9 1_555 1_555
C10 C9 1_555 1_555
H7 C10 1_555 1_555
H8 C10 1_555 1_555
C11 N2 1_555 1_555
H9 C11 1_555 1_555
H10 C11 1_555 1_555
C12 C11 1_555 1_555
H11 C12 1_555 1_555
H12 C12 1_555 1_555
H13 C12 1_555 1_555
C13 N2 1_555 1_555
H14 C13 1_555 1_555
H15 C13 1_555 1_555
C14 C13 1_555 1_555
H16 C14 1_555 1_555
H17 C14 1_555 1_555
H18 C14 1_555 1_555
C15 C2 1_555 1_555
H19 C15 1_555 1_555
C16 C15 1_555 1_555
C17 C16 1_555 1_555
H20 C17 1_555 1_555
C18 C17 1_555 1_555
H21 C18 1_555 1_555
C19 C18 1_555 1_555
H22 C19 1_555 1_555
C20 C19 1_555 1_555
H23 C20 1_555 1_555
C21 C16 1_555 1_555
H24 C21 1_555 1_555
C7 C8 1_555 1_555
C20 C21 1_555 1_555

#END
