
#######################################################################
#
#                 Cambridge Crystallographic Data Centre
#                                CCDC 
#
#######################################################################
#
# If this CIF has been generated from an entry in the Cambridge 
# Structural Database, then it will include bibliographic, chemical, 
# crystal, experimental, refinement or atomic coordinate data resulting 
# from the CCDC's data processing and validation procedures.
#
#######################################################################

data_KIFYEG
_chemical_formula_moiety         'C62 H58 B1 F2 N3 O10'
_chemical_name_systematic        
"9,17-di-t-butyl-13,13-difluoro-2,3,4,5,7,19,21,22,23,24-decamethoxy-13H-dibenzo[g,g']diphenanthro[9,10,1-cde:9,10,1-c'd'e'][1,3,5,2]triazaborinino[1,6-a:3,4-a']diindol-12-ium-13-ide unknown solvate"
_symmetry_cell_setting           rhombohedral
_symmetry_space_group_name_H-M   'R -3'
_symmetry_Int_Tables_number      148
_space_group_name_Hall           '-R 3'
loop_
_symmetry_equiv_pos_site_id
_symmetry_equiv_pos_as_xyz
1 x,y,z
2 -y,x-y,z
3 -x+y,-x,z
4 2/3+x,1/3+y,1/3+z
5 2/3-y,1/3+x-y,1/3+z
6 2/3-x+y,1/3-x,1/3+z
7 1/3+x,2/3+y,2/3+z
8 1/3-y,2/3+x-y,2/3+z
9 1/3-x+y,2/3-x,2/3+z
10 -x,-y,-z
11 y,-x+y,-z
12 x-y,x,-z
13 1/3-x,2/3-y,2/3-z
14 1/3+y,2/3-x+y,2/3-z
15 1/3+x-y,2/3+x,2/3-z
16 2/3-x,1/3-y,1/3-z
17 2/3+y,1/3-x+y,1/3-z
18 2/3+x-y,1/3+x,1/3-z
_cell_length_a                   48.1047(14)
_cell_length_b                   48.1047(14)
_cell_length_c                   13.9683(8)
_cell_angle_alpha                90
_cell_angle_beta                 90
_cell_angle_gamma                120
_cell_volume                     27993
_exptl_crystal_colour            colorless
_exptl_crystal_description       block
_cell_formula_units_Z            18
loop_
_atom_site_label
_atom_site_type_symbol
_atom_site_fract_x
_atom_site_fract_y
_atom_site_fract_z
B1 B 0.48782(6) 0.04648(6) 0.47948(17)
C1 C 0.53157(5) 0.05753(5) 0.34703(14)
C2 C 0.53639(5) 0.03832(5) 0.28163(14)
C3 C 0.51160(5) 0.00696(5) 0.28543(14)
C4 C 0.49082(5) 0.00678(5) 0.35970(14)
C5 C 0.44854(5) -0.01468(5) 0.46526(14)
C6 C 0.41871(5) -0.03861(5) 0.50498(14)
C7 C 0.41147(5) -0.02278(5) 0.57530(13)
C8 C 0.43575(5) 0.00937(5) 0.58076(13)
C9 C 0.55336(5) 0.09136(5) 0.34841(15)
C10 C 0.54775(6) 0.11345(6) 0.39742(18)
H1 H 0.5298 0.1059 0.4365
C11 C 0.56811(6) 0.14601(6) 0.3893(2)
H2 H 0.5636 0.1600 0.4228
C12 C 0.59533(6) 0.15844(6) 0.3320(2)
C13 C 0.60140(6) 0.13666(7) 0.28605(19)
H3 H 0.6200 0.1448 0.2494
C14 C 0.58174(5) 0.10334(6) 0.29035(16)
C15 C 0.58855(5) 0.08165(6) 0.23396(16)
C16 C 0.56410(5) 0.04929(6) 0.22338(15)
C17 C 0.56531(5) 0.02615(6) 0.16338(14)
C18 C 0.53588(6) -0.00512(6) 0.14987(14)
C19 C 0.52969(6) -0.02440(6) 0.06747(15)
C20 C 0.50321(6) -0.05475(7) 0.06220(16)
C21 C 0.48059(6) -0.06665(6) 0.13706(17)
C22 C 0.48373(6) -0.04693(6) 0.21118(16)
H4 H 0.4679 -0.0542 0.2582
C23 C 0.51007(5) -0.01618(6) 0.21783(14)
C24 C 0.61643(7) 0.19444(7) 0.3157(3)
C25 C 0.59932(9) 0.20459(9) 0.2435(3)
H5 H 0.6004 0.1968 0.1810
H6 H 0.6096 0.2276 0.2421
H7 H 0.5773 0.1957 0.2619
C26 C 0.62142(9) 0.21285(8) 0.4089(3)
H8 H 0.6012 0.2098 0.4309
H9 H 0.6360 0.2353 0.3981
H10 H 0.6303 0.2050 0.4563
C27 C 0.64933(8) 0.20333(8) 0.2759(4)
H11 H 0.6594 0.1951 0.3174
H12 H 0.6624 0.2263 0.2722
H13 H 0.6469 0.1943 0.2132
C28 C 0.61759(6) 0.08954(7) 0.18632(17)
C29 C 0.62097(6) 0.06678(7) 0.13686(17)
H14 H 0.6408 0.0725 0.1097
C30 C 0.59610(6) 0.03574(7) 0.12598(15)
C31 C 0.67387(6) 0.12762(9) 0.1665(3)
H15 H 0.6802 0.1148 0.2032
H16 H 0.6887 0.1500 0.1779
H17 H 0.6739 0.1230 0.0997
C32 C 0.62931(7) 0.02109(8) 0.0357(2)
H18 H 0.6335 0.0376 -0.0102
H19 H 0.6274 0.0026 0.0033
H20 H 0.6466 0.0289 0.0809
C33 C 0.54731(8) 0.01043(8) -0.06490(19)
H21 H 0.5254 0.0044 -0.0781
H22 H 0.5588 0.0141 -0.1241
H23 H 0.5572 0.0297 -0.0274
C34 C 0.47485(9) -0.07578(11) -0.0821(2)
H24 H 0.4546 -0.0850 -0.0495
H25 H 0.4733 -0.0892 -0.1350
H26 H 0.4805 -0.0548 -0.1053
C35 C 0.45977(19) -0.12354(15) 0.1184(5)
H27 H 0.4717 -0.1206 0.0604
H28 H 0.4396 -0.1432 0.1147
H29 H 0.4718 -0.1244 0.1719
C36 C 0.43291(5) 0.03011(5) 0.64944(13)
C37 C 0.45777(6) 0.06090(5) 0.67111(16)
H30 H 0.4771 0.0691 0.6383
C38 C 0.45436(6) 0.07939(6) 0.73986(17)
H31 H 0.4713 0.1000 0.7517
C39 C 0.42608(6) 0.06800(6) 0.79231(15)
C40 C 0.40136(6) 0.03751(6) 0.77072(15)
H32 H 0.3824 0.0296 0.8052
C41 C 0.40309(5) 0.01760(5) 0.70000(14)
C42 C 0.37608(5) -0.01477(5) 0.67985(13)
C43 C 0.38153(5) -0.03577(5) 0.62204(13)
C44 C 0.35795(5) -0.06732(5) 0.59430(14)
C45 C 0.36788(5) -0.08692(5) 0.53909(14)
C46 C 0.35006(5) -0.12085(5) 0.53846(16)
C47 C 0.35934(6) -0.13843(6) 0.48171(18)
C48 C 0.38789(6) -0.12301(6) 0.42907(18)
C49 C 0.40716(6) -0.09027(6) 0.43321(17)
H33 H 0.4263 -0.0802 0.3991
C50 C 0.39781(5) -0.07204(5) 0.48907(14)
C51 C 0.42327(7) 0.08793(7) 0.87344(17)
C52 C 0.38875(10) 0.08008(11) 0.8888(3)
H34 H 0.3873 0.0896 0.9476
H35 H 0.3750 0.0572 0.8918
H36 H 0.3822 0.0885 0.8365
C53 C 0.43427(14) 0.08001(14) 0.9643(3)
H37 H 0.4564 0.0859 0.9583
H38 H 0.4216 0.0574 0.9764
H39 H 0.4318 0.0916 1.0164
C54 C 0.44095(17) 0.12255(10) 0.8503(5)
H40 H 0.4335 0.1337 0.8907
H41 H 0.4373 0.1255 0.7845
H42 H 0.4635 0.1309 0.8606
C55 C 0.34372(5) -0.02691(6) 0.70661(14)
C56 C 0.31967(6) -0.05594(6) 0.67179(16)
H43 H 0.2985 -0.0628 0.6891
C57 C 0.32590(5) -0.07529(6) 0.61181(15)
C58 C 0.30433(6) -0.01961(8) 0.7894(2)
H44 H 0.2912 -0.0235 0.7335
H45 H 0.3031 -0.0040 0.8294
H46 H 0.2968 -0.0393 0.8243
C59 C 0.27105(6) -0.10430(8) 0.5611(2)
H47 H 0.2620 -0.1102 0.6241
H48 H 0.2580 -0.1211 0.5168
H49 H 0.2719 -0.0847 0.5419
C60 C 0.29517(7) -0.16152(7) 0.5718(3)
H50 H 0.2917 -0.1580 0.5063
H51 H 0.2785 -0.1620 0.6109
H52 H 0.2948 -0.1816 0.5773
C61 C 0.32664(10) -0.18759(8) 0.4003(3)
H53 H 0.3117 -0.1809 0.3813
H54 H 0.3153 -0.2104 0.4111
H55 H 0.3423 -0.1824 0.3507
C62 C 0.42613(10) -0.13071(9) 0.3441(3)
H56 H 0.4295 -0.1155 0.2946
H57 H 0.4285 -0.1479 0.3180
H58 H 0.4416 -0.1202 0.3941
F1 F 0.51019(3) 0.06180(3) 0.55064(8)
F2 F 0.47644(3) 0.06657(3) 0.44789(9)
N1 N 0.50349(4) 0.03805(4) 0.39621(12)
N2 N 0.46401(4) -0.01817(4) 0.39173(12)
N3 N 0.45890(4) 0.01461(4) 0.51378(11)
O1 O 0.64216(4) 0.12025(5) 0.19467(15)
O2 O 0.60009(4) 0.01243(5) 0.08483(12)
O3 O 0.54815(4) -0.01433(4) -0.01385(11)
O4 O 0.49859(4) -0.07326(5) -0.01841(11)
O5 O 0.45405(5) -0.09701(5) 0.13053(14)
O6 O 0.39553(5) -0.14296(5) 0.38116(16)
O7 O 0.34251(5) -0.17131(4) 0.48710(14)
O8 O 0.32587(4) -0.13590(4) 0.60329(12)
O9 O 0.30250(4) -0.09974(4) 0.56178(13)
O10 O 0.33641(4) -0.00789(4) 0.76142(11)
loop_
_geom_bond_atom_site_label_1
_geom_bond_atom_site_label_2
_geom_bond_site_symmetry_1
_geom_bond_site_symmetry_2
B1 F1 1_555 1_555
C1 C2 1_555 1_555
C2 C3 1_555 1_555
C3 C4 1_555 1_555
C4 N1 1_555 1_555
C5 C6 1_555 1_555
C6 C7 1_555 1_555
C7 C8 1_555 1_555
C8 C36 1_555 1_555
C9 C1 1_555 1_555
C10 C9 1_555 1_555
H1 C10 1_555 1_555
C11 C10 1_555 1_555
H2 C11 1_555 1_555
C12 C11 1_555 1_555
C13 C12 1_555 1_555
H3 C13 1_555 1_555
C14 C9 1_555 1_555
C15 C14 1_555 1_555
C16 C2 1_555 1_555
C17 C16 1_555 1_555
C18 C17 1_555 1_555
C19 C18 1_555 1_555
C20 C19 1_555 1_555
C21 C20 1_555 1_555
C22 C21 1_555 1_555
H4 C22 1_555 1_555
C23 C3 1_555 1_555
C24 C12 1_555 1_555
C25 C24 1_555 1_555
H5 C25 1_555 1_555
H6 C25 1_555 1_555
H7 C25 1_555 1_555
C26 C24 1_555 1_555
H8 C26 1_555 1_555
H9 C26 1_555 1_555
H10 C26 1_555 1_555
C27 C24 1_555 1_555
H11 C27 1_555 1_555
H12 C27 1_555 1_555
H13 C27 1_555 1_555
C28 C15 1_555 1_555
C29 C28 1_555 1_555
H14 C29 1_555 1_555
C30 C17 1_555 1_555
C31 H15 1_555 1_555
H16 C31 1_555 1_555
H17 C31 1_555 1_555
C32 H18 1_555 1_555
H19 C32 1_555 1_555
H20 C32 1_555 1_555
C33 H21 1_555 1_555
H22 C33 1_555 1_555
H23 C33 1_555 1_555
C34 H24 1_555 1_555
H25 C34 1_555 1_555
H26 C34 1_555 1_555
C35 H27 1_555 1_555
H28 C35 1_555 1_555
H29 C35 1_555 1_555
C36 C37 1_555 1_555
C37 H30 1_555 1_555
C38 C37 1_555 1_555
H31 C38 1_555 1_555
C39 C38 1_555 1_555
C40 C39 1_555 1_555
H32 C40 1_555 1_555
C41 C36 1_555 1_555
C42 C41 1_555 1_555
C43 C7 1_555 1_555
C44 C43 1_555 1_555
C45 C44 1_555 1_555
C46 C45 1_555 1_555
C47 C46 1_555 1_555
C48 C47 1_555 1_555
C49 C48 1_555 1_555
H33 C49 1_555 1_555
C50 C6 1_555 1_555
C51 C39 1_555 1_555
C52 C51 1_555 1_555
H34 C52 1_555 1_555
H35 C52 1_555 1_555
H36 C52 1_555 1_555
C53 C51 1_555 1_555
H37 C53 1_555 1_555
H38 C53 1_555 1_555
H39 C53 1_555 1_555
C54 C51 1_555 1_555
H40 C54 1_555 1_555
H41 C54 1_555 1_555
H42 C54 1_555 1_555
C55 C42 1_555 1_555
C56 C55 1_555 1_555
H43 C56 1_555 1_555
C57 C44 1_555 1_555
C58 H44 1_555 1_555
H45 C58 1_555 1_555
H46 C58 1_555 1_555
C59 H47 1_555 1_555
H48 C59 1_555 1_555
H49 C59 1_555 1_555
C60 H50 1_555 1_555
H51 C60 1_555 1_555
H52 C60 1_555 1_555
C61 H53 1_555 1_555
H54 C61 1_555 1_555
H55 C61 1_555 1_555
C62 H56 1_555 1_555
H57 C62 1_555 1_555
H58 C62 1_555 1_555
F2 B1 1_555 1_555
N1 B1 1_555 1_555
N2 C4 1_555 1_555
N3 B1 1_555 1_555
O1 C28 1_555 1_555
O2 C30 1_555 1_555
O3 C19 1_555 1_555
O4 C20 1_555 1_555
O5 C21 1_555 1_555
O6 C48 1_555 1_555
O7 C47 1_555 1_555
O8 C46 1_555 1_555
O9 C57 1_555 1_555
O10 C55 1_555 1_555
C1 N1 1_555 1_555
C5 N2 1_555 1_555
C5 N3 1_555 1_555
C8 N3 1_555 1_555
C13 C14 1_555 1_555
C15 C16 1_555 1_555
C18 C23 1_555 1_555
C22 C23 1_555 1_555
C29 C30 1_555 1_555
C31 O1 1_555 1_555
C32 O2 1_555 1_555
C33 O3 1_555 1_555
C34 O4 1_555 1_555
C35 O5 1_555 1_555
C40 C41 1_555 1_555
C42 C43 1_555 1_555
C45 C50 1_555 1_555
C49 C50 1_555 1_555
C56 C57 1_555 1_555
C58 O10 1_555 1_555
C59 O9 1_555 1_555
C60 O8 1_555 1_555
C61 O7 1_555 1_555
C62 O6 1_555 1_555

#END
