
#######################################################################
#
#                 Cambridge Crystallographic Data Centre
#                                CCDC 
#
#######################################################################
#
# If this CIF has been generated from an entry in the Cambridge 
# Structural Database, then it will include bibliographic, chemical, 
# crystal, experimental, refinement or atomic coordinate data resulting 
# from the CCDC's data processing and validation procedures.
#
#######################################################################

data_KIGKUH
_chemical_formula_moiety         'C8 H10 N4 O2,C11 H8 O3'
_chemical_name_systematic        'Caffeine 6-hydroxy-2-naphthoic acid'
_symmetry_cell_setting           triclinic
_symmetry_space_group_name_H-M   'P -1'
_symmetry_Int_Tables_number      2
_space_group_name_Hall           '-P 1'
loop_
_symmetry_equiv_pos_site_id
_symmetry_equiv_pos_as_xyz
1 x,y,z
2 -x,-y,-z
_cell_length_a                   8.029(3)
_cell_length_b                   8.592(3)
_cell_length_c                   13.996(5)
_cell_angle_alpha                106.475(5)
_cell_angle_beta                 98.162(5)
_cell_angle_gamma                104.904(6)
_cell_volume                     870.333
_exptl_crystal_colour            colorless
_cell_formula_units_Z            2
_exptl_crystal_recrystallization_method acetonitrile
loop_
_atom_site_label
_atom_site_type_symbol
_atom_site_fract_x
_atom_site_fract_y
_atom_site_fract_z
O1 O 0.48685(14) 0.89314(16) 0.72342(9)
N1 N 0.71100(17) 0.84481(17) 0.81809(10)
N2 N 0.66349(18) 0.76643(18) 0.63775(10)
N3 N 1.04041(18) 0.65667(19) 0.72791(11)
C1 C 0.6608(2) 0.9235(2) 0.91238(12)
H1 H 0.5968 0.9993 0.9010
H2 H 0.7656 0.9868 0.9661
H3 H 0.5873 0.8360 0.9318
C2 C 0.6136(2) 0.8379(2) 0.72581(12)
C3 C 0.5636(3) 0.7605(3) 0.53988(13)
H4 H 0.4421 0.6935 0.5282
H5 H 0.6137 0.7098 0.4854
H6 H 0.5694 0.8745 0.5419
C4 C 0.8084(2) 0.7058(2) 0.64133(16)
C5 C 0.9015(2) 0.7183(2) 0.73465(15)
C6 C 0.8563(2) 0.7845(2) 0.82801(15)
O2 O 0.9292(4) 0.7984(4) 0.92255(19)
N4 N 0.8825(4) 0.6391(4) 0.5723(2)
C7 C 1.0198(4) 0.6089(4) 0.6203(2)
H7 H 1.0954 0.5608 0.5863
C8 C 1.1766(3) 0.6383(4) 0.7963(2)
H8 H 1.2405 0.5731 0.7579
H9 H 1.1251 0.5802 0.8395
H10 H 1.2563 0.7492 0.8379
O3 O -0.47016(16) 1.48604(16) 0.87174(9)
H11 H -0.540(3) 1.524(3) 0.9207(17)
O4 O -0.35176(15) 1.39941(16) 0.99405(9)
O5 O 0.26911(17) 1.01304(17) 0.61412(9)
H12 H 0.351(2) 0.976(3) 0.6459(15)
C9 C -0.3644(2) 1.4113(2) 0.90725(12)
C10 C -0.2616(2) 1.3406(2) 0.83655(12)
C11 C -0.1226(2) 1.2921(2) 0.87457(12)
H13 H -0.0951 1.3060 0.9439
C12 C -0.0216(2) 1.22189(19) 0.81028(11)
C13 C 0.1221(2) 1.1717(2) 0.84799(12)
H14 H 0.1520 1.1859 0.9173
C14 C 0.2169(2) 1.1030(2) 0.78434(12)
H15 H 0.3100 1.0697 0.8103
C15 C 0.1748(2) 1.0816(2) 0.67868(12)
C16 C 0.0383(2) 1.1313(2) 0.63971(12)
H16 H 0.0134 1.1199 0.5707
C17 C -0.0641(2) 1.1996(2) 0.70379(11)
C18 C -0.2095(2) 1.2498(2) 0.66671(12)
H17 H -0.2402 1.2353 0.5974
C19 C -0.3044(2) 1.3184(2) 0.73052(12)
H18 H -0.3981 1.3511 0.7045
O6? O 0.8170(7) 0.6312(7) 0.5337(4)
N5? N 0.9622(9) 0.7662(9) 0.8867(5)
C20? C 1.0713(7) 0.6954(7) 0.8423(4)
H19? H 1.1613 0.6710 0.8791
C21? C 1.1360(7) 0.5769(7) 0.6689(4)
H20? H 1.0579 0.4723 0.6188
H21? H 1.2232 0.5523 0.7116
H22? H 1.1940 0.6503 0.6350
loop_
_geom_bond_atom_site_label_1
_geom_bond_atom_site_label_2
_geom_bond_site_symmetry_1
_geom_bond_site_symmetry_2
O1 C2 1_555 1_555
N1 C1 1_555 1_555
N2 C2 1_555 1_555
N3 C5 1_555 1_555
C1 H1 1_555 1_555
H2 C1 1_555 1_555
H3 C1 1_555 1_555
C2 N1 1_555 1_555
C3 N2 1_555 1_555
H4 C3 1_555 1_555
H5 C3 1_555 1_555
H6 C3 1_555 1_555
C4 N2 1_555 1_555
C5 C4 1_555 1_555
C6 N1 1_555 1_555
O2 C6 1_555 1_555
N4 C4 1_555 1_555
C7 N3 1_555 1_555
H7 C7 1_555 1_555
C8 N3 1_555 1_555
H8 C8 1_555 1_555
H9 C8 1_555 1_555
H10 C8 1_555 1_555
O3 H11 1_555 1_555
O4 C9 1_555 1_555
O5 H12 1_555 1_555
C9 O3 1_555 1_555
C10 C9 1_555 1_555
C11 C10 1_555 1_555
H13 C11 1_555 1_555
C12 C11 1_555 1_555
C13 C12 1_555 1_555
H14 C13 1_555 1_555
C14 C13 1_555 1_555
H15 C14 1_555 1_555
C15 O5 1_555 1_555
C16 C15 1_555 1_555
H16 C16 1_555 1_555
C17 C12 1_555 1_555
C18 C17 1_555 1_555
H17 C18 1_555 1_555
C19 C10 1_555 1_555
H18 C19 1_555 1_555
C5 C6 1_555 1_555
N4 C7 1_555 1_555
C14 C15 1_555 1_555
C16 C17 1_555 1_555
C18 C19 1_555 1_555

#END
