
#######################################################################
#
#                 Cambridge Crystallographic Data Centre
#                                CCDC 
#
#######################################################################
#
# If this CIF has been generated from an entry in the Cambridge 
# Structural Database, then it will include bibliographic, chemical, 
# crystal, experimental, refinement or atomic coordinate data resulting 
# from the CCDC's data processing and validation procedures.
#
#######################################################################

data_KIGQOJ
_chemical_formula_moiety         'C44 H72 N2 O2'
_chemical_name_systematic        
2,2'-{ethane-1,2-diylbis[(cyclohexylazanediyl)methylene]}bis(4,6-di-t-butylphenol)
_symmetry_cell_setting           triclinic
_symmetry_space_group_name_H-M   'P -1'
_symmetry_Int_Tables_number      2
_space_group_name_Hall           '-P 1'
loop_
_symmetry_equiv_pos_site_id
_symmetry_equiv_pos_as_xyz
1 x,y,z
2 -x,-y,-z
_cell_length_a                   9.6188(6)
_cell_length_b                   9.9837(7)
_cell_length_c                   12.2473(9)
_cell_angle_alpha                101.903(6)
_cell_angle_beta                 98.362(6)
_cell_angle_gamma                113.312(6)
_cell_volume                     1022.59
_exptl_crystal_colour            'light green'
_exptl_crystal_description       plate
_cell_formula_units_Z            1
loop_
_atom_site_label
_atom_site_type_symbol
_atom_site_fract_x
_atom_site_fract_y
_atom_site_fract_z
O1 O 0.8124(2) 0.61610(16) 0.38637(14)
H1 H 0.7902 0.6430 0.4467
N1 N 0.71330(18) 0.59011(18) 0.58186(13)
C1 C 0.5435(2) 0.4923(2) 0.55349(16)
H2 H 0.5028 0.5197 0.6182
H3 H 0.5251 0.3869 0.5411
C2 C 0.7893(2) 0.4678(2) 0.36661(18)
C3 C 0.7785(2) 0.3830(2) 0.25607(17)
C4 C 0.7519(2) 0.2321(2) 0.24230(17)
H4 H 0.7436 0.1737 0.1697
C5 C 0.7741(2) 0.7172(2) 0.69010(17)
H5 H 0.8871 0.7718 0.6998
C6 C 0.7777(2) 0.4034(2) 0.45826(17)
C7 C 0.7368(3) 0.1633(2) 0.33104(19)
C8 C 0.7508(3) 0.2530(2) 0.43896(18)
H6 H 0.7417 0.2105 0.4999
C9 C 0.8034(2) 0.5005(3) 0.57861(17)
H7 H 0.7738 0.4350 0.6280
H8 H 0.9139 0.5693 0.6090
C10 C 0.7943(3) 0.4533(2) 0.15473(19)
C11 C 0.7065(3) -0.0037(3) 0.3135(2)
C12 C 0.7525(3) 0.6680(3) 0.79922(19)
H9 H 0.6420 0.6087 0.7918
H10 H 0.8044 0.6035 0.8078
C13 C 0.7078(3) 0.8304(3) 0.6793(2)
H11 H 0.5953 0.7807 0.6679
H12 H 0.7294 0.8651 0.6125
C14 C 0.6564(3) 0.4912(3) 0.1254(2)
H13 H 0.6672 0.5376 0.0639
H14 H 0.6554 0.5605 0.1922
H15 H 0.5603 0.3993 0.1017
C15 C 0.7800(4) 0.9676(3) 0.7875(3)
H16 H 0.8915 1.0221 0.7956
H17 H 0.7336 1.0367 0.7798
C16 C 0.7901(4) 0.3422(4) 0.0457(2)
H18 H 0.6938 0.2507 0.0240
H19 H 0.8766 0.3177 0.0607
H20 H 0.7972 0.3886 -0.0158
C17 C 0.9485(3) 0.5977(3) 0.1859(3)
H21 H 0.9546 0.6414 0.1229
H22 H 1.0345 0.5725 0.2011
H23 H 0.9532 0.6699 0.2534
C18 C 0.8197(4) 0.8057(3) 0.9067(2)
H24 H 0.7967 0.7709 0.9732
H25 H 0.9325 0.8570 0.9199
C19 C 0.7528(4) 0.9167(3) 0.8945(2)
H26 H 0.8020 1.0047 0.9623
H27 H 0.6415 0.8688 0.8891
C20 C 0.8434(5) -0.0075(4) 0.3941(4)
H28 H 0.8512 0.0408 0.4726
H29 H 0.9392 0.0457 0.3743
H30 H 0.8248 -0.1114 0.3856
C21 C 0.5591(5) -0.0896(4) 0.3476(5)
H31 H 0.4705 -0.0963 0.2952
H32 H 0.5655 -0.0369 0.4245
H33 H 0.5477 -0.1904 0.3447
C22 C 0.7011(8) -0.0800(4) 0.1919(4)
H34 H 0.7037 -0.1759 0.1885
H35 H 0.7896 -0.0157 0.1695
H36 H 0.6064 -0.0969 0.1405
O1A O 0.1876(2) 0.38390(16) 0.61363(14)
H1A H 0.2098 0.3570 0.5533
N1A N 0.28670(18) 0.40989(18) 0.41814(13)
C1A C 0.4565(2) 0.5077(2) 0.44651(16)
H2A H 0.4972 0.4803 0.3818
H3A H 0.4749 0.6131 0.4589
C2A C 0.2107(2) 0.5322(2) 0.63339(18)
C3A C 0.2215(2) 0.6170(2) 0.74393(17)
C4A C 0.2481(2) 0.7679(2) 0.75770(17)
H4A H 0.2564 0.8263 0.8303
C5A C 0.2259(2) 0.2828(2) 0.30990(17)
H5A H 0.1129 0.2282 0.3002
C6A C 0.2223(2) 0.5966(2) 0.54174(17)
C7A C 0.2632(3) 0.8367(2) 0.66896(19)
C8A C 0.2492(3) 0.7470(2) 0.56104(18)
H6A H 0.2583 0.7895 0.5001
C9A C 0.1966(2) 0.4995(3) 0.42139(17)
H7A H 0.2262 0.5650 0.3720
H8A H 0.0861 0.4307 0.3910
C10A C 0.2057(3) 0.5467(2) 0.84527(19)
C11A C 0.2935(3) 1.0037(3) 0.6865(2)
C12A C 0.2475(3) 0.3320(3) 0.20078(19)
H9A H 0.3580 0.3913 0.2082
H10A H 0.1956 0.3965 0.1922
C13A C 0.2922(3) 0.1696(3) 0.3207(2)
H11A H 0.4047 0.2193 0.3321
H12A H 0.2706 0.1349 0.3875
C14A C 0.3436(3) 0.5088(3) 0.8746(2)
H13A H 0.3328 0.4624 0.9361
H14A H 0.3446 0.4395 0.8078
H15A H 0.4397 0.6007 0.8983
C15A C 0.2200(4) 0.0324(3) 0.2125(3)
H16A H 0.1085 -0.0221 0.2044
H17A H 0.2664 -0.0367 0.2202
C16A C 0.2099(4) 0.6578(4) 0.9543(2)
H18A H 0.3062 0.7493 0.9760
H19A H 0.1234 0.6823 0.9393
H20A H 0.2028 0.6114 1.0158
C17A C 0.0515(3) 0.4023(3) 0.8141(3)
H21A H 0.0454 0.3586 0.8771
H22A H -0.0345 0.4275 0.7989
H23A H 0.0468 0.3301 0.7466
C18A C 0.1803(4) 0.1943(3) 0.0933(2)
H24A H 0.2033 0.2291 0.0268
H25A H 0.0675 0.1430 0.0801
C19A C 0.2472(4) 0.0833(3) 0.1055(2)
H26A H 0.1980 -0.0047 0.0377
H27A H 0.3585 0.1312 0.1109
C20A C 0.1566(5) 1.0075(4) 0.6059(4)
H28A H 0.1488 0.9592 0.5274
H29A H 0.0608 0.9543 0.6257
H30A H 0.1752 1.1114 0.6144
C21A C 0.4409(5) 1.0896(4) 0.6524(5)
H31A H 0.5295 1.0963 0.7048
H32A H 0.4345 1.0369 0.5755
H33A H 0.4523 1.1904 0.6553
C22A C 0.2989(8) 1.0800(4) 0.8081(4)
H34A H 0.2963 1.1759 0.8115
H35A H 0.2104 1.0157 0.8305
H36A H 0.3936 1.0969 0.8595
loop_
_geom_bond_atom_site_label_1
_geom_bond_atom_site_label_2
_geom_bond_site_symmetry_1
_geom_bond_site_symmetry_2
O1 H1 1_555 1_555
N1 C1 1_555 1_555
C1 H2 1_555 1_555
H3 C1 1_555 1_555
C2 O1 1_555 1_555
C3 C2 1_555 1_555
C4 C3 1_555 1_555
H4 C4 1_555 1_555
C5 N1 1_555 1_555
H5 C5 1_555 1_555
C6 C2 1_555 1_555
C7 C4 1_555 1_555
C8 C6 1_555 1_555
H6 C8 1_555 1_555
C9 N1 1_555 1_555
H7 C9 1_555 1_555
H8 C9 1_555 1_555
C10 C3 1_555 1_555
C11 C7 1_555 1_555
C12 C5 1_555 1_555
H9 C12 1_555 1_555
H10 C12 1_555 1_555
C13 C5 1_555 1_555
H11 C13 1_555 1_555
H12 C13 1_555 1_555
C14 C10 1_555 1_555
H13 C14 1_555 1_555
H14 C14 1_555 1_555
H15 C14 1_555 1_555
C15 C13 1_555 1_555
H16 C15 1_555 1_555
H17 C15 1_555 1_555
C16 C10 1_555 1_555
H18 C16 1_555 1_555
H19 C16 1_555 1_555
H20 C16 1_555 1_555
C17 C10 1_555 1_555
H21 C17 1_555 1_555
H22 C17 1_555 1_555
H23 C17 1_555 1_555
C18 C12 1_555 1_555
H24 C18 1_555 1_555
H25 C18 1_555 1_555
C19 C15 1_555 1_555
H26 C19 1_555 1_555
H27 C19 1_555 1_555
C20 C11 1_555 1_555
H28 C20 1_555 1_555
H29 C20 1_555 1_555
H30 C20 1_555 1_555
C21 C11 1_555 1_555
H31 C21 1_555 1_555
H32 C21 1_555 1_555
H33 C21 1_555 1_555
C22 C11 1_555 1_555
H34 C22 1_555 1_555
H35 C22 1_555 1_555
H36 C22 1_555 1_555
O1A H1A 1_555 1_555
N1A C1A 1_555 1_555
C1A C1 1_555 1_555
H2A C1A 1_555 1_555
H3A C1A 1_555 1_555
C2A O1A 1_555 1_555
C3A C2A 1_555 1_555
C4A C3A 1_555 1_555
H4A C4A 1_555 1_555
C5A N1A 1_555 1_555
H5A C5A 1_555 1_555
C6A C2A 1_555 1_555
C7A C4A 1_555 1_555
C8A C6A 1_555 1_555
H6A C8A 1_555 1_555
C9A N1A 1_555 1_555
H7A C9A 1_555 1_555
H8A C9A 1_555 1_555
C10A C3A 1_555 1_555
C11A C7A 1_555 1_555
C12A C5A 1_555 1_555
H9A C12A 1_555 1_555
H10A C12A 1_555 1_555
C13A C5A 1_555 1_555
H11A C13A 1_555 1_555
H12A C13A 1_555 1_555
C14A C10A 1_555 1_555
H13A C14A 1_555 1_555
H14A C14A 1_555 1_555
H15A C14A 1_555 1_555
C15A C13A 1_555 1_555
H16A C15A 1_555 1_555
H17A C15A 1_555 1_555
C16A C10A 1_555 1_555
H18A C16A 1_555 1_555
H19A C16A 1_555 1_555
H20A C16A 1_555 1_555
C17A C10A 1_555 1_555
H21A C17A 1_555 1_555
H22A C17A 1_555 1_555
H23A C17A 1_555 1_555
C18A C12A 1_555 1_555
H24A C18A 1_555 1_555
H25A C18A 1_555 1_555
C19A C15A 1_555 1_555
H26A C19A 1_555 1_555
H27A C19A 1_555 1_555
C20A C11A 1_555 1_555
H28A C20A 1_555 1_555
H29A C20A 1_555 1_555
H30A C20A 1_555 1_555
C21A C11A 1_555 1_555
H31A C21A 1_555 1_555
H32A C21A 1_555 1_555
H33A C21A 1_555 1_555
C22A C11A 1_555 1_555
H34A C22A 1_555 1_555
H35A C22A 1_555 1_555
H36A C22A 1_555 1_555
C6 C9 1_555 1_555
C7 C8 1_555 1_555
C18 C19 1_555 1_555
C6A C9A 1_555 1_555
C7A C8A 1_555 1_555
C18A C19A 1_555 1_555

#END
