
#######################################################################
#
#                 Cambridge Crystallographic Data Centre
#                                CCDC 
#
#######################################################################
#
# If this CIF has been generated from an entry in the Cambridge 
# Structural Database, then it will include bibliographic, chemical, 
# crystal, experimental, refinement or atomic coordinate data resulting 
# from the CCDC's data processing and validation procedures.
#
#######################################################################

data_KIGSAX
_chemical_formula_moiety         'C24 H21 N1 O1'
_chemical_name_systematic        
3-ethenyl-N-(9H-fluoren-9-yl)-3,4-dihydro-2H-1-benzopyran-4-amine
_symmetry_cell_setting           orthorhombic
_symmetry_space_group_name_H-M   'P b c a'
_symmetry_Int_Tables_number      61
_space_group_name_Hall           '-P 2ac 2ab'
loop_
_symmetry_equiv_pos_site_id
_symmetry_equiv_pos_as_xyz
1 x,y,z
2 1/2-x,-y,1/2+z
3 -x,1/2+y,1/2-z
4 1/2+x,1/2-y,-z
5 -x,-y,-z
6 1/2+x,y,1/2-z
7 x,1/2-y,1/2+z
8 1/2-x,1/2+y,z
_cell_length_a                   10.0647(4)
_cell_length_b                   14.1613(8)
_cell_length_c                   25.4044(13)
_cell_angle_alpha                90
_cell_angle_beta                 90
_cell_angle_gamma                90
_cell_volume                     3620.87
_exptl_crystal_colour            colorless
_exptl_crystal_description       plate
_cell_formula_units_Z            8
loop_
_atom_site_label
_atom_site_type_symbol
_atom_site_fract_x
_atom_site_fract_y
_atom_site_fract_z
O1 O 0.29379(13) 0.37792(10) 0.56381(5)
N1 N 0.48020(13) 0.31298(11) 0.68471(5)
C1 C 0.34745(17) 0.28977(13) 0.56280(6)
C2 C 0.66368(14) 0.24660(11) 0.74306(6)
C3 C 0.51211(14) 0.35715(12) 0.77781(6)
C4 C 0.45699(17) 0.26435(12) 0.59297(6)
C5 C 0.64722(15) 0.22872(11) 0.79682(6)
C6 C 0.55460(15) 0.29827(12) 0.81845(6)
C7 C 0.52155(15) 0.33334(12) 0.63044(6)
H1 H 0.6183 0.3276 0.6278
C8 C 0.57765(14) 0.33008(11) 0.72630(6)
H2 H 0.6360 0.3818 0.7153
C9 C 0.48034(18) 0.43487(12) 0.61656(6)
H3 H 0.4997 0.4752 0.6470
C10 C 0.42206(16) 0.42869(13) 0.78733(7)
H4 H 0.3934 0.4676 0.7601
C11 C 0.75156(16) 0.19290(13) 0.71402(7)
H5 H 0.7644 0.2052 0.6784
C12 C 0.71597(17) 0.15626(13) 0.82120(7)
H6 H 0.7043 0.1444 0.8569
C13 C 0.33094(19) 0.43469(14) 0.60806(7)
H7 H 0.2875 0.4107 0.6394
H8 H 0.3007 0.4990 0.6025
C14 C 0.50712(18) 0.31110(15) 0.86944(6)
H9 H 0.5350 0.2721 0.8967
C15 C 0.2871(2) 0.22496(16) 0.52906(7)
H10 H 0.2144 0.2430 0.5088
C16 C 0.5533(2) 0.47413(14) 0.56987(7)
H11 H 0.5529 0.4385 0.5391
C17 C 0.82068(17) 0.12028(14) 0.73863(8)
H12 H 0.8800 0.0838 0.7193
C18 C 0.37516(18) 0.44147(15) 0.83803(8)
H13 H 0.3147 0.4896 0.8449
C19 C 0.80213(18) 0.10176(13) 0.79175(8)
H14 H 0.8480 0.0523 0.8076
C20 C 0.5035(2) 0.17231(15) 0.58819(8)
H15 H 0.5775 0.1539 0.6076
C21 C 0.41718(19) 0.38360(16) 0.87845(7)
H16 H 0.3847 0.3934 0.9123
C22 C 0.3354(3) 0.13463(17) 0.52591(8)
H17 H 0.2948 0.0913 0.5036
C23 C 0.6167(3) 0.55386(19) 0.56900(11)
C24 C 0.4432(3) 0.10744(17) 0.55550(9)
H18 H 0.4751 0.0459 0.5535
H19 H 0.619(3) 0.594(2) 0.6007(11)
H20 H 0.662(3) 0.575(2) 0.5381(12)
H21 H 0.443(2) 0.2569(17) 0.6874(8)
loop_
_geom_bond_atom_site_label_1
_geom_bond_atom_site_label_2
_geom_bond_site_symmetry_1
_geom_bond_site_symmetry_2
O1 C1 1_555 1_555
N1 C7 1_555 1_555
C1 C4 1_555 1_555
C2 C5 1_555 1_555
C3 C6 1_555 1_555
C4 C7 1_555 1_555
C5 C6 1_555 1_555
C6 C14 1_555 1_555
C7 H1 1_555 1_555
C8 N1 1_555 1_555
H2 C8 1_555 1_555
C9 C7 1_555 1_555
H3 C9 1_555 1_555
C10 C3 1_555 1_555
H4 C10 1_555 1_555
C11 C2 1_555 1_555
H5 C11 1_555 1_555
C12 C5 1_555 1_555
H6 C12 1_555 1_555
C13 O1 1_555 1_555
H7 C13 1_555 1_555
H8 C13 1_555 1_555
C14 H9 1_555 1_555
C15 C1 1_555 1_555
H10 C15 1_555 1_555
C16 C9 1_555 1_555
H11 C16 1_555 1_555
C17 C11 1_555 1_555
H12 C17 1_555 1_555
C18 C10 1_555 1_555
H13 C18 1_555 1_555
C19 C12 1_555 1_555
H14 C19 1_555 1_555
C20 C4 1_555 1_555
H15 C20 1_555 1_555
C21 C14 1_555 1_555
H16 C21 1_555 1_555
C22 C15 1_555 1_555
H17 C22 1_555 1_555
C23 C16 1_555 1_555
C24 C20 1_555 1_555
H18 C24 1_555 1_555
H19 C23 1_555 1_555
H20 C23 1_555 1_555
H21 N1 1_555 1_555
C2 C8 1_555 1_555
C3 C8 1_555 1_555
C9 C13 1_555 1_555
C17 C19 1_555 1_555
C18 C21 1_555 1_555
C22 C24 1_555 1_555

#END
