
#######################################################################
#
#                 Cambridge Crystallographic Data Centre
#                                CCDC 
#
#######################################################################
#
# If this CIF has been generated from an entry in the Cambridge 
# Structural Database, then it will include bibliographic, chemical, 
# crystal, experimental, refinement or atomic coordinate data resulting 
# from the CCDC's data processing and validation procedures.
#
#######################################################################

data_KIGTUR
_chemical_name_common            TTF-27
_chemical_formula_moiety         'C22 H12 S12'
_chemical_name_systematic        
2-(4,5-bis(2-thienylsulfanyl)-1,3-dithiol-2-ylidene)-4,5-bis(2-thienylsulfanyl)-1,3-dithiole
_symmetry_cell_setting           triclinic
_symmetry_space_group_name_H-M   'P -1'
_symmetry_Int_Tables_number      2
_space_group_name_Hall           '-P 1'
loop_
_symmetry_equiv_pos_site_id
_symmetry_equiv_pos_as_xyz
1 x,y,z
2 -x,-y,-z
_cell_length_a                   4.9917(11)
_cell_length_b                   10.334(2)
_cell_length_c                   12.950(3)
_cell_angle_alpha                83.472(2)
_cell_angle_beta                 85.679(2)
_cell_angle_gamma                82.707(2)
_cell_volume                     657.057
_exptl_crystal_colour            red
_exptl_crystal_description       needle
_chemical_melting_point          '477 K'
_cell_formula_units_Z            1
loop_
_atom_site_label
_atom_site_type_symbol
_atom_site_fract_x
_atom_site_fract_y
_atom_site_fract_z
C1 C 0.0943(7) 0.4990(3) 0.4606(2)
C2 C 0.4972(7) 0.4350(3) 0.3312(3)
C3 C 0.3905(7) 0.5547(3) 0.2919(3)
C4 C 0.2740(7) 0.7056(3) 0.1095(3)
C5 C -0.0895(8) 0.8417(4) 0.0314(3)
H1 H -0.2256 0.9123 0.0145
C6 C -0.0502(8) 0.7324(5) -0.0223(3)
H2 H -0.1569 0.7224 -0.0780
C7 C 0.7283(8) 0.1876(4) 0.3082(3)
C8 C 0.5864(12) -0.0326(4) 0.3114(4)
H3 H 0.5727 -0.1129 0.2842
S1 S 0.10648(17) 0.63024(8) 0.36133(6)
S2 S 0.35099(17) 0.36723(8) 0.44944(7)
S3 S 0.54615(18) 0.64765(9) 0.18786(7)
S4 S 0.79367(19) 0.35054(9) 0.27759(8)
C9 C 0.877(3) 0.1003(10) 0.3673(10)
H4 H 1.0561 0.1044 0.3854
C10 C 0.679(2) -0.0240(8) 0.4055(8)
H5 H 0.6456 -0.0713 0.4715
S5 S 0.4936(7) 0.1248(4) 0.2449(3)
C11 C 0.099(4) 0.8438(13) 0.1207(14)
H6 H 0.1076 0.9074 0.1674
S6 S 0.1970(6) 0.6199(4) 0.0176(3)
C1A C -0.0943(7) 0.5010(3) 0.5394(2)
C2A C -0.4972(7) 0.5650(3) 0.6688(3)
C3A C -0.3905(7) 0.4453(3) 0.7081(3)
C4A C -0.2740(7) 0.2944(3) 0.8905(3)
C5A C 0.0895(8) 0.1583(4) 0.9686(3)
H1A H 0.2256 0.0877 0.9855
C6A C 0.0502(8) 0.2676(5) 1.0223(3)
H2A H 0.1569 0.2776 1.0780
C7A C -0.7283(8) 0.8124(4) 0.6918(3)
C8A C -0.5864(12) 1.0326(4) 0.6886(4)
H3A H -0.5727 1.1129 0.7158
S1A S -0.10648(17) 0.36976(8) 0.63867(6)
S2A S -0.35099(17) 0.63277(8) 0.55056(7)
S3A S -0.54615(18) 0.35235(9) 0.81214(7)
S4A S -0.79367(19) 0.64946(9) 0.72241(8)
C9A C -0.877(3) 0.8997(10) 0.6327(10)
H4A H -1.0561 0.8956 0.6146
C10A C -0.679(2) 1.0240(8) 0.5945(8)
H5A H -0.6456 1.0713 0.5285
S5A S -0.4936(7) 0.8752(4) 0.7551(3)
C11A C -0.099(4) 0.1562(13) 0.8793(14)
H6A H -0.1076 0.0926 0.8326
S6A S -0.1970(6) 0.3801(4) 0.9824(3)
C12? C 0.760(2) 0.1050(9) 0.4039(8)
H7? H 0.7582 0.1285 0.4728
C13? C 0.796(3) -0.0208(10) 0.3686(9)
H8? H 0.9438 -0.0866 0.3828
S7? S 0.5850(7) 0.0999(4) 0.2261(3)
C14? C 0.238(3) 0.6324(14) 0.0052(11)
H9? H 0.3387 0.5618 -0.0269
S8? S 0.1049(10) 0.8438(5) 0.1169(3)
loop_
_geom_bond_atom_site_label_1
_geom_bond_atom_site_label_2
_geom_bond_site_symmetry_1
_geom_bond_site_symmetry_2
C1 S1 1_555 1_555
C2 C3 1_555 1_555
C3 S1 1_555 1_555
C4 S3 1_555 1_555
C5 H1 1_555 1_555
C6 C5 1_555 1_555
H2 C6 1_555 1_555
C7 S4 1_555 1_555
C8 H3 1_555 1_555
S2 C1 1_555 1_555
S3 C3 1_555 1_555
S4 C2 1_555 1_555
C9 C7 1_555 1_555
H4 C9 1_555 1_555
C10 C8 1_555 1_555
H5 C10 1_555 1_555
S5 C7 1_555 1_555
C11 C4 1_555 1_555
H6 C11 1_555 1_555
S6 C4 1_555 1_555
C1A C1 1_555 1_555
C2A C3A 1_555 1_555
C3A S1A 1_555 1_555
C4A S3A 1_555 1_555
C5A H1A 1_555 1_555
C6A C5A 1_555 1_555
H2A C6A 1_555 1_555
C7A S4A 1_555 1_555
C8A H3A 1_555 1_555
S1A C1A 1_555 1_555
S2A C1A 1_555 1_555
S3A C3A 1_555 1_555
S4A C2A 1_555 1_555
C9A C7A 1_555 1_555
H4A C9A 1_555 1_555
C10A C8A 1_555 1_555
H5A C10A 1_555 1_555
S5A C7A 1_555 1_555
C11A C4A 1_555 1_555
H6A C11A 1_555 1_555
S6A C4A 1_555 1_555
C2 S2 1_555 1_555
C5 C11 1_555 1_555
C6 S6 1_555 1_555
C8 S5 1_555 1_555
C9 C10 1_555 1_555
C2A S2A 1_555 1_555
C5A C11A 1_555 1_555
C6A S6A 1_555 1_555
C8A S5A 1_555 1_555
C9A C10A 1_555 1_555

#END
