
#######################################################################
#
#                 Cambridge Crystallographic Data Centre
#                                CCDC 
#
#######################################################################
#
# If this CIF has been generated from an entry in the Cambridge 
# Structural Database, then it will include bibliographic, chemical, 
# crystal, experimental, refinement or atomic coordinate data resulting 
# from the CCDC's data processing and validation procedures.
#
#######################################################################

data_KIGVAY
_chemical_formula_moiety         'C20 H16 O1'
_chemical_name_systematic        
2,3'-Dimethyl-1'H-spiro(indene-1,2'-naphthalen)-1'-one
_symmetry_cell_setting           monoclinic
_symmetry_space_group_name_H-M   'P 21/n'
_symmetry_Int_Tables_number      14
_space_group_name_Hall           '-P 2yn'
loop_
_symmetry_equiv_pos_site_id
_symmetry_equiv_pos_as_xyz
1 x,y,z
2 1/2-x,1/2+y,1/2-z
3 -x,-y,-z
4 1/2+x,1/2-y,1/2+z
_cell_length_a                   8.7682(3)
_cell_length_b                   14.8552(4)
_cell_length_c                   12.0921(3)
_cell_angle_alpha                90
_cell_angle_beta                 110.0070(10)
_cell_angle_gamma                90
_cell_volume                     1479.98
_exptl_crystal_colour            'light yellow'
_exptl_crystal_description       trigonal
_chemical_melting_point          '119.2-120.0 deg.C'
_cell_formula_units_Z            4
loop_
_atom_site_label
_atom_site_type_symbol
_atom_site_fract_x
_atom_site_fract_y
_atom_site_fract_z
O1 O 0.61716(15) 0.27454(9) 0.32760(11)
C1 C 0.5453(2) 0.20708(12) 0.27961(14)
C2 C 0.6335(2) 0.12840(11) 0.25868(14)
C3 C 0.8021(2) 0.12474(13) 0.30981(16)
C4 C 0.8853(3) 0.05184(16) 0.28852(19)
C5 C 0.8012(3) -0.01654(15) 0.21430(19)
C6 C 0.6358(3) -0.01350(13) 0.16342(16)
C7 C 0.5478(2) 0.05935(12) 0.18453(14)
C8 C 0.3718(2) 0.06497(12) 0.12945(14)
C9 C 0.2815(2) 0.12991(13) 0.15167(14)
C10 C 0.3594(2) 0.20187(11) 0.24362(14)
C11 C 0.2863(2) 0.29493(13) 0.21162(15)
C12 C 0.2229(2) 0.32418(14) 0.29051(17)
C13 C 0.2438(2) 0.25709(14) 0.38252(16)
C14 C 0.2015(2) 0.25724(16) 0.48334(19)
C15 C 0.2392(3) 0.18203(18) 0.55616(17)
C16 C 0.3157(2) 0.10826(16) 0.52946(16)
C17 C 0.3579(2) 0.10742(13) 0.42752(14)
C18 C 0.3220(2) 0.18281(12) 0.35637(14)
C19 C 0.2946(3) 0.34239(14) 0.10561(18)
C20 C 0.1007(2) 0.13383(16) 0.09350(17)
H1 H 0.2201 0.1863 0.6347
H2 H 0.8608 -0.0727 0.2045
H3 H 0.1402 0.3104 0.5041
H4 H 0.1635 0.3852 0.2869
H5 H 0.4156 0.0526 0.4078
H6 H 0.2594 0.3049 0.0360
H7 H 0.8664 0.1799 0.3625
H8 H 0.4051 0.3584 0.1056
H9 H 0.0565 0.0708 0.0600
H10 H 0.3421 0.0519 0.5871
H11 H 1.0179 0.0506 0.3251
H12 H 0.0698 0.1840 0.0281
H13 H 0.2622 0.4098 0.0947
H14 H 0.0470 0.1439 0.1583
H15 H 0.3171 0.0142 0.0697
H16 H 0.5638 -0.0670 0.1061
loop_
_geom_bond_atom_site_label_1
_geom_bond_atom_site_label_2
_geom_bond_site_symmetry_1
_geom_bond_site_symmetry_2
O1 C1 1_555 1_555
C1 C2 1_555 1_555
C2 C3 1_555 1_555
C3 C4 1_555 1_555
C4 C5 1_555 1_555
C5 C6 1_555 1_555
C6 C7 1_555 1_555
C7 C2 1_555 1_555
C8 C7 1_555 1_555
C9 C8 1_555 1_555
C10 C1 1_555 1_555
C11 C10 1_555 1_555
C12 C11 1_555 1_555
C13 C12 1_555 1_555
C14 C13 1_555 1_555
C15 C14 1_555 1_555
C16 C15 1_555 1_555
C17 C16 1_555 1_555
C18 C10 1_555 1_555
C19 C11 1_555 1_555
C20 C9 1_555 1_555
H1 C15 1_555 1_555
H2 C5 1_555 1_555
H3 C14 1_555 1_555
H4 C12 1_555 1_555
H5 C17 1_555 1_555
H6 C19 1_555 1_555
H7 C3 1_555 1_555
H8 C19 1_555 1_555
H9 C20 1_555 1_555
H10 C16 1_555 1_555
H11 C4 1_555 1_555
H12 C20 1_555 1_555
H13 C19 1_555 1_555
H14 C20 1_555 1_555
H15 C8 1_555 1_555
H16 C6 1_555 1_555
C9 C10 1_555 1_555
C13 C18 1_555 1_555
C17 C18 1_555 1_555

#END
