
#######################################################################
#
#                 Cambridge Crystallographic Data Centre
#                                CCDC 
#
#######################################################################
#
# If this CIF has been generated from an entry in the Cambridge 
# Structural Database, then it will include bibliographic, chemical, 
# crystal, experimental, refinement or atomic coordinate data resulting 
# from the CCDC's data processing and validation procedures.
#
#######################################################################

data_KIGYUX
_chemical_formula_moiety         'C18 H16 N2 O4 S1'
_chemical_name_systematic        
8,10-dimethoxy-6-(methylsulfonyl)-6H-indolo[2,3-b]quinoline
_symmetry_cell_setting           monoclinic
_symmetry_space_group_name_H-M   'P 21/n'
_symmetry_Int_Tables_number      14
_space_group_name_Hall           '-P 2yn'
loop_
_symmetry_equiv_pos_site_id
_symmetry_equiv_pos_as_xyz
1 x,y,z
2 1/2-x,1/2+y,1/2-z
3 -x,-y,-z
4 1/2+x,1/2-y,1/2+z
_cell_length_a                   5.1019(5)
_cell_length_b                   33.051(3)
_cell_length_c                   9.4100(10)
_cell_angle_alpha                90
_cell_angle_beta                 92.525(4)
_cell_angle_gamma                90
_cell_volume                     1585.2
_exptl_crystal_colour            colorless
_exptl_crystal_description       prism
_cell_formula_units_Z            4
loop_
_atom_site_label
_atom_site_type_symbol
_atom_site_fract_x
_atom_site_fract_y
_atom_site_fract_z
C1 C 0.2566(8) 0.32261(11) 0.5855(4)
H1 H 0.0825 0.3279 0.5472
H2 H 0.2483 0.3138 0.6824
H3 H 0.3361 0.3019 0.5304
C2 C 0.5439(6) 0.35671(9) 0.2985(3)
C3 C 0.8195(6) 0.31238(9) 0.2017(3)
C4 C 1.0183(6) 0.28318(9) 0.2179(4)
H4 H 1.0766 0.2753 0.3087
C5 C 1.1271(7) 0.26623(10) 0.1025(4)
H5 H 1.2592 0.2470 0.1151
C6 C 1.0408(7) 0.27764(10) -0.0347(4)
H6 H 1.1161 0.2659 -0.1130
C7 C 0.8490(7) 0.30555(10) -0.0549(4)
H7 H 0.7937 0.3127 -0.1469
C8 C 0.7315(6) 0.32397(9) 0.0618(3)
C9 C 0.5302(6) 0.35323(9) 0.0462(3)
H8 H 0.4643 0.3608 -0.0435
C10 C 0.4350(6) 0.37001(9) 0.1656(3)
C11 C 0.2360(6) 0.39963(9) 0.1949(3)
C12 C 0.0639(6) 0.42198(9) 0.1068(3)
C13 C -0.1081(7) 0.43335(11) -0.1298(4)
H9 H -0.0840 0.4238 -0.2246
H10 H -0.0873 0.4622 -0.1271
H11 H -0.2811 0.4264 -0.1018
C14 C -0.1085(6) 0.44872(10) 0.1658(3)
H12 H -0.2234 0.4638 0.1077
C15 C -0.1092(6) 0.45288(10) 0.3129(3)
C16 C -0.4522(7) 0.50217(11) 0.2967(4)
H13 H -0.3580 0.5196 0.2351
H14 H -0.5555 0.5183 0.3580
H15 H -0.5653 0.4846 0.2405
C17 C 0.0587(6) 0.43122(10) 0.4039(3)
H16 H 0.0574 0.4345 0.5020
C18 C 0.2280(6) 0.40461(9) 0.3422(3)
N1 N 0.4219(5) 0.37881(8) 0.4077(3)
N2 N 0.7225(5) 0.32920(8) 0.3221(3)
O1 O 0.3198(5) 0.39768(8) 0.6543(2)
O2 O 0.7068(4) 0.35692(9) 0.6153(3)
O3 O 0.0817(4) 0.41508(7) -0.0347(2)
O4 O -0.2721(5) 0.47863(8) 0.3799(3)
S1 S 0.44251(16) 0.36641(3) 0.57930(8)
loop_
_geom_bond_atom_site_label_1
_geom_bond_atom_site_label_2
_geom_bond_site_symmetry_1
_geom_bond_site_symmetry_2
C1 H1 1_555 1_555
H2 C1 1_555 1_555
H3 C1 1_555 1_555
C2 C10 1_555 1_555
C3 C4 1_555 1_555
C4 H4 1_555 1_555
C5 C4 1_555 1_555
H5 C5 1_555 1_555
C6 C5 1_555 1_555
H6 C6 1_555 1_555
C7 C6 1_555 1_555
H7 C7 1_555 1_555
C8 C3 1_555 1_555
C9 C8 1_555 1_555
H8 C9 1_555 1_555
C10 C9 1_555 1_555
C11 C10 1_555 1_555
C12 C11 1_555 1_555
C13 H9 1_555 1_555
H10 C13 1_555 1_555
H11 C13 1_555 1_555
C14 C12 1_555 1_555
H12 C14 1_555 1_555
C15 C14 1_555 1_555
C16 H13 1_555 1_555
H14 C16 1_555 1_555
H15 C16 1_555 1_555
C17 C15 1_555 1_555
H16 C17 1_555 1_555
C18 C11 1_555 1_555
N1 C2 1_555 1_555
N2 C2 1_555 1_555
O1 S1 1_555 1_555
O2 S1 1_555 1_555
O3 C12 1_555 1_555
O4 C15 1_555 1_555
S1 C1 1_555 1_555
C3 N2 1_555 1_555
C7 C8 1_555 1_555
C13 O3 1_555 1_555
C16 O4 1_555 1_555
C17 C18 1_555 1_555
C18 N1 1_555 1_555
N1 S1 1_555 1_555

#END
