
#######################################################################
#
#                 Cambridge Crystallographic Data Centre
#                                CCDC 
#
#######################################################################
#
# If this CIF has been generated from an entry in the Cambridge 
# Structural Database, then it will include bibliographic, chemical, 
# crystal, experimental, refinement or atomic coordinate data resulting 
# from the CCDC's data processing and validation procedures.
#
#######################################################################

data_KIGZUY
_chemical_formula_moiety         'C21 H22 O6'
_chemical_name_systematic        
(5-hydroxy-6-methoxy-3,4-dihydronaphthalen-1-yl)(3,4,5-trimethoxyphenyl)methanone
_symmetry_cell_setting           monoclinic
_symmetry_space_group_name_H-M   'C 2/c'
_symmetry_Int_Tables_number      15
_space_group_name_Hall           '-C 2yn'
loop_
_symmetry_equiv_pos_site_id
_symmetry_equiv_pos_as_xyz
1 x,y,z
2 -x,y,1/2-z
3 1/2+x,1/2+y,z
4 1/2-x,1/2+y,1/2-z
5 -x,-y,-z
6 x,-y,1/2+z
7 1/2-x,1/2-y,-z
8 1/2+x,1/2-y,1/2+z
_cell_length_a                   56.225(4)
_cell_length_b                   4.6615(3)
_cell_length_c                   14.0454(9)
_cell_angle_alpha                90
_cell_angle_beta                 101.729(4)
_cell_angle_gamma                90
_cell_volume                     3604.34
_exptl_crystal_colour            colorless
_exptl_crystal_description       plate
_cell_formula_units_Z            8
loop_
_atom_site_label
_atom_site_type_symbol
_atom_site_fract_x
_atom_site_fract_y
_atom_site_fract_z
O1 O 0.13142(2) 0.5006(3) 0.29439(9)
O2 O 0.02184(3) 0.6619(4) 0.35618(11)
H1 H 0.0115(5) 0.777(7) 0.331(2)
O3 O 0.02184(2) 1.0104(3) 0.20496(10)
O4 O 0.21983(2) 0.3468(3) 0.48005(8)
O5 O 0.22176(2) 0.6154(3) 0.64798(8)
O6 O 0.18396(2) 0.9126(3) 0.68457(9)
C1 C 0.13225(3) 0.5492(4) 0.38065(13)
C2 C 0.10948(3) 0.5639(4) 0.42000(13)
C3 C 0.10899(4) 0.4425(5) 0.50602(14)
H2 H 0.1235 0.3621 0.5428
C4 C 0.08640(4) 0.4297(5) 0.54589(14)
H3 H 0.0852 0.6051 0.5843
H4 H 0.0872 0.2626 0.5900
C5 C 0.06404(4) 0.4043(4) 0.46564(14)
H5 H 0.0630 0.2070 0.4390
H6 H 0.0494 0.4393 0.4928
C6 C 0.06468(3) 0.6155(4) 0.38498(13)
C7 C 0.04357(3) 0.7337(4) 0.33207(14)
C8 C 0.04426(3) 0.9214(4) 0.25494(14)
C9 C 0.06620(4) 1.0026(4) 0.23497(13)
H7 H 0.0667 1.1372 0.1847
C10 C 0.08754(4) 0.8882(4) 0.28830(13)
H8 H 0.1027 0.9460 0.2744
C11 C 0.08711(3) 0.6903(4) 0.36174(12)
C12 C 0.15611(3) 0.5814(4) 0.44991(12)
C13 C 0.17648(3) 0.4456(4) 0.42842(13)
H9 H 0.1752 0.3397 0.3698
C14 C 0.19863(3) 0.4664(4) 0.49331(13)
C15 C 0.20040(3) 0.6199(4) 0.58007(12)
C16 C 0.18020(3) 0.7647(4) 0.59878(12)
C17 C 0.15804(3) 0.7467(4) 0.53402(12)
H10 H 0.1443 0.8462 0.5468
C18 C 0.02154(4) 1.2066(5) 0.12601(15)
H11 H 0.0308 1.3791 0.1502
H12 H 0.0047 1.2595 0.0977
H13 H 0.0289 1.1150 0.0762
C19 C 0.21907(4) 0.1785(4) 0.39452(13)
H14 H 0.2080 0.0158 0.3947
H15 H 0.2354 0.1071 0.3933
H16 H 0.2132 0.2969 0.3369
C20 C 0.23640(4) 0.8680(4) 0.64730(14)
H17 H 0.2416 0.8814 0.5850
H18 H 0.2507 0.8565 0.7002
H19 H 0.2269 1.0382 0.6562
C21 C 0.16425(4) 1.0788(4) 0.70488(14)
H20 H 0.1594 1.2217 0.6534
H21 H 0.1694 1.1763 0.7675
H22 H 0.1505 0.9524 0.7076
loop_
_geom_bond_atom_site_label_1
_geom_bond_atom_site_label_2
_geom_bond_site_symmetry_1
_geom_bond_site_symmetry_2
O1 C1 1_555 1_555
O2 H1 1_555 1_555
O3 C8 1_555 1_555
O4 C14 1_555 1_555
O5 C15 1_555 1_555
O6 C16 1_555 1_555
C1 C2 1_555 1_555
C2 C3 1_555 1_555
C3 H2 1_555 1_555
C4 C3 1_555 1_555
H3 C4 1_555 1_555
H4 C4 1_555 1_555
C5 C4 1_555 1_555
H5 C5 1_555 1_555
H6 C5 1_555 1_555
C6 C5 1_555 1_555
C7 O2 1_555 1_555
C8 C7 1_555 1_555
C9 C8 1_555 1_555
H7 C9 1_555 1_555
C10 C9 1_555 1_555
H8 C10 1_555 1_555
C11 C2 1_555 1_555
C12 C1 1_555 1_555
C13 C12 1_555 1_555
H9 C13 1_555 1_555
C14 C13 1_555 1_555
C15 C14 1_555 1_555
C16 C15 1_555 1_555
C17 C12 1_555 1_555
H10 C17 1_555 1_555
C18 O3 1_555 1_555
H11 C18 1_555 1_555
H12 C18 1_555 1_555
H13 C18 1_555 1_555
C19 O4 1_555 1_555
H14 C19 1_555 1_555
H15 C19 1_555 1_555
H16 C19 1_555 1_555
C20 O5 1_555 1_555
H17 C20 1_555 1_555
H18 C20 1_555 1_555
H19 C20 1_555 1_555
C21 O6 1_555 1_555
H20 C21 1_555 1_555
H21 C21 1_555 1_555
H22 C21 1_555 1_555
C6 C7 1_555 1_555
C6 C11 1_555 1_555
C10 C11 1_555 1_555
C16 C17 1_555 1_555

#END
