
#######################################################################
#
#                 Cambridge Crystallographic Data Centre
#                                CCDC 
#
#######################################################################
#
# If this CIF has been generated from an entry in the Cambridge 
# Structural Database, then it will include bibliographic, chemical, 
# crystal, experimental, refinement or atomic coordinate data resulting 
# from the CCDC's data processing and validation procedures.
#
#######################################################################

data_KIHNUL
_chemical_formula_moiety         'C21 H34 O3 Si2'
_chemical_name_systematic        
(4R*,5R*,1'S*,1''R*)-rac-2,5-bis(Trimethylsilyl)-3-(1'-hydroxyethyl)-4-(1''-hydroxyethyl)4-phenylcyclopent-2-en-1-one
_symmetry_cell_setting           monoclinic
_symmetry_space_group_name_H-M   'P 21/n'
_symmetry_Int_Tables_number      14
_space_group_name_Hall           '-P 2yn'
loop_
_symmetry_equiv_pos_site_id
_symmetry_equiv_pos_as_xyz
1 x,y,z
2 1/2-x,1/2+y,1/2-z
3 -x,-y,-z
4 1/2+x,1/2-y,1/2+z
_cell_length_a                   11.3533(6)
_cell_length_b                   9.5100(5)
_cell_length_c                   21.2590(11)
_cell_angle_alpha                90
_cell_angle_beta                 93.018(2)
_cell_angle_gamma                90
_cell_volume                     2292.15
_exptl_crystal_colour            colorless
_exptl_crystal_description       'rectangular plate'
_chemical_melting_point          '138 deg.C'
_cell_formula_units_Z            4
loop_
_atom_site_label
_atom_site_type_symbol
_atom_site_fract_x
_atom_site_fract_y
_atom_site_fract_z
Si1 Si 0.45178(4) 1.08809(5) 0.15408(2)
Si2 Si 0.85787(4) 0.83300(5) 0.07585(2)
O1 O 0.73269(12) 1.08497(13) 0.14048(6)
O2 O 0.67925(11) 0.79329(14) 0.28393(6)
H1 H 0.7106 0.7273 0.3050
O3 O 0.80736(12) 0.55716(14) 0.16039(7)
H2 H 0.8216 0.4737 0.1712
C1 C 0.68202(15) 0.97189(18) 0.14782(8)
C2 C 0.44459(14) 0.73173(18) 0.15330(8)
C3 C 0.42482(16) 0.76515(19) 0.08949(8)
H3 H 0.4783 0.8260 0.0699
C4 C 0.72583(15) 0.83398(18) 0.12654(8)
C5 C 0.66112(15) 0.73457(18) 0.15421(8)
C6 C 0.32868(17) 0.7112(2) 0.05412(9)
H4 H 0.3163 0.7366 0.0111
C7 C 0.63013(18) 0.5034(2) 0.09518(10)
H5 H 0.6591 0.5481 0.0574
H6 H 0.5439 0.5101 0.0943
H7 H 0.6536 0.4042 0.0962
C8 C 0.36769(16) 0.6372(2) 0.17975(9)
H8 H 0.3811 0.6093 0.2224
C9 C 0.57061(15) 0.95538(18) 0.18253(8)
H9 H 0.5935 0.9865 0.2264
C10 C 0.55476(15) 0.79288(18) 0.18846(8)
C11 C 0.27091(18) 0.5829(2) 0.14425(10)
H10 H 0.2185 0.5197 0.1632
C12 C 0.25081(17) 0.6203(2) 0.08171(9)
H11 H 0.1844 0.5842 0.0579
C13 C 0.47142(17) 0.8179(2) 0.29924(8)
H12 H 0.4790 0.7802 0.3422
H13 H 0.3926 0.7968 0.2807
H14 H 0.4831 0.9200 0.3004
C14 C 0.46263(18) 1.1341(2) 0.06895(9)
H15 H 0.4137 1.2168 0.0589
H16 H 0.4350 1.0547 0.0428
H17 H 0.5449 1.1549 0.0606
C15 C 0.99374(19) 0.8562(3) 0.12657(11)
H18 H 1.0053 0.7741 0.1540
H19 H 0.9865 0.9408 0.1524
H20 H 1.0615 0.8661 0.1002
C16 C 0.4833(2) 1.2493(2) 0.20175(10)
H21 H 0.4365 1.3278 0.1840
H22 H 0.5673 1.2722 0.2010
H23 H 0.4625 1.2328 0.2453
C17 C 0.83966(19) 0.9838(3) 0.01954(10)
H24 H 0.8557 1.0722 0.0421
H25 H 0.7587 0.9848 0.0011
H26 H 0.8950 0.9732 -0.0140
C18 C 0.29875(16) 1.0298(2) 0.16940(9)
H27 H 0.2954 1.0011 0.2135
H28 H 0.2770 0.9501 0.1420
H29 H 0.2437 1.1076 0.1607
C19 C 0.8707(2) 0.6750(3) 0.02478(12)
H30 H 0.9393 0.6853 -0.0010
H31 H 0.7992 0.6656 -0.0028
H32 H 0.8804 0.5909 0.0512
C20 C 0.68299(16) 0.57812(18) 0.15402(9)
H33 H 0.6470 0.5366 0.1918
C21 C 0.56433(15) 0.75048(19) 0.25935(8)
H34 H 0.5579 0.6459 0.2627
loop_
_geom_bond_atom_site_label_1
_geom_bond_atom_site_label_2
_geom_bond_site_symmetry_1
_geom_bond_site_symmetry_2
Si1 C9 1_555 1_555
Si2 C4 1_555 1_555
O1 C1 1_555 1_555
O2 H1 1_555 1_555
O3 H2 1_555 1_555
C1 C4 1_555 1_555
C2 C3 1_555 1_555
C3 H3 1_555 1_555
C4 C5 1_555 1_555
C5 C10 1_555 1_555
C6 C3 1_555 1_555
H4 C6 1_555 1_555
C7 H5 1_555 1_555
H6 C7 1_555 1_555
H7 C7 1_555 1_555
C8 C2 1_555 1_555
H8 C8 1_555 1_555
C9 C1 1_555 1_555
H9 C9 1_555 1_555
C10 C2 1_555 1_555
C11 C8 1_555 1_555
H10 C11 1_555 1_555
C12 C6 1_555 1_555
H11 C12 1_555 1_555
C13 H12 1_555 1_555
H13 C13 1_555 1_555
H14 C13 1_555 1_555
C14 Si1 1_555 1_555
H15 C14 1_555 1_555
H16 C14 1_555 1_555
H17 C14 1_555 1_555
C15 Si2 1_555 1_555
H18 C15 1_555 1_555
H19 C15 1_555 1_555
H20 C15 1_555 1_555
C16 Si1 1_555 1_555
H21 C16 1_555 1_555
H22 C16 1_555 1_555
H23 C16 1_555 1_555
C17 Si2 1_555 1_555
H24 C17 1_555 1_555
H25 C17 1_555 1_555
H26 C17 1_555 1_555
C18 Si1 1_555 1_555
H27 C18 1_555 1_555
H28 C18 1_555 1_555
H29 C18 1_555 1_555
C19 Si2 1_555 1_555
H30 C19 1_555 1_555
H31 C19 1_555 1_555
H32 C19 1_555 1_555
C20 O3 1_555 1_555
H33 C20 1_555 1_555
C21 O2 1_555 1_555
H34 C21 1_555 1_555
C5 C20 1_555 1_555
C7 C20 1_555 1_555
C9 C10 1_555 1_555
C10 C21 1_555 1_555
C11 C12 1_555 1_555
C13 C21 1_555 1_555

#END
