
#######################################################################
#
#                 Cambridge Crystallographic Data Centre
#                                CCDC 
#
#######################################################################
#
# If this CIF has been generated from an entry in the Cambridge 
# Structural Database, then it will include bibliographic, chemical, 
# crystal, experimental, refinement or atomic coordinate data resulting 
# from the CCDC's data processing and validation procedures.
#
#######################################################################

data_KIJQEA
_chemical_formula_moiety         'C41 H30 N4'
_chemical_name_systematic        
4'-(4-(2-(4-(N,N-Diphenylamino)phenyl)ethenyl)phenyl)-2,2':6',2''-terpyridine
_symmetry_cell_setting           monoclinic
_symmetry_space_group_name_H-M   'C 2/c'
_symmetry_Int_Tables_number      15
_space_group_name_Hall           '-C 2yn'
loop_
_symmetry_equiv_pos_site_id
_symmetry_equiv_pos_as_xyz
1 x,y,z
2 1/2+x,1/2+y,z
3 -x,y,1/2-z
4 1/2-x,1/2+y,1/2-z
5 -x,-y,-z
6 1/2-x,1/2-y,-z
7 x,-y,1/2+z
8 1/2+x,1/2-y,1/2+z
_cell_length_a                   28.921(4)
_cell_length_b                   9.6831(14)
_cell_length_c                   23.386(3)
_cell_angle_alpha                90
_cell_angle_beta                 110.811(10)
_cell_angle_gamma                90
_cell_volume                     6121.85
_exptl_crystal_colour            'pale yellow'
_exptl_crystal_description       prism
_cell_formula_units_Z            8
_exptl_crystal_recrystallization_method dichloromethane/isopropanol
loop_
_atom_site_label
_atom_site_type_symbol
_atom_site_fract_x
_atom_site_fract_y
_atom_site_fract_z
C1 C 0.72980(11) 0.0659(3) 0.49368(14)
H1 H 0.7143 0.1386 0.5056
C2 C 0.70514(12) -0.0050(4) 0.43979(15)
H2 H 0.6730 0.0201 0.4160
C3 C 0.72777(15) -0.1118(4) 0.42140(16)
H3 H 0.7112 -0.1588 0.3852
C4 C 0.77482(14) -0.1484(4) 0.45688(16)
H4 H 0.7904 -0.2200 0.4443
C5 C 0.79962(11) -0.0808(3) 0.51118(14)
H5 H 0.8313 -0.1089 0.5354
C6 C 0.77761(10) 0.0282(3) 0.52970(13)
C7 C 0.85421(10) 0.1215(3) 0.60454(14)
C8 C 0.87489(11) 0.1597(3) 0.56135(16)
H6 H 0.8548 0.1745 0.5208
C9 C 0.92589(13) 0.1756(4) 0.5794(2)
H7 H 0.9399 0.2006 0.5508
C10 C 0.95579(13) 0.1546(4) 0.6393(2)
H8 H 0.9899 0.1632 0.6511
C11 C 0.93479(12) 0.1211(4) 0.68145(18)
H9 H 0.9549 0.1096 0.7222
C12 C 0.88448(11) 0.1041(3) 0.66488(15)
H10 H 0.8709 0.0809 0.6942
C13 C 0.77676(10) 0.1147(3) 0.62718(12)
C14 C 0.74560(11) 0.0125(3) 0.63316(13)
H11 H 0.7434 -0.0701 0.6120
C15 C 0.71782(11) 0.0291(3) 0.66936(13)
H12 H 0.6965 -0.0410 0.6713
C16 C 0.72089(10) 0.1482(3) 0.70302(12)
C17 C 0.75326(10) 0.2491(3) 0.69819(12)
H13 H 0.7564 0.3301 0.7206
C18 C 0.78087(10) 0.2335(3) 0.66152(12)
H14 H 0.8025 0.3032 0.6597
C19 C 0.68952(10) 0.1722(3) 0.73905(12)
H15 H 0.6928 0.2566 0.7590
C20 C 0.65703(10) 0.0843(3) 0.74566(12)
H16 H 0.6567 -0.0022 0.7282
C21 C 0.62139(10) 0.1032(3) 0.77647(12)
C22 C 0.59326(10) -0.0080(3) 0.78218(12)
H17 H 0.5986 -0.0941 0.7680
C23 C 0.55742(10) 0.0051(3) 0.80836(13)
H18 H 0.5395 -0.0723 0.8119
C24 C 0.54778(9) 0.1315(3) 0.82940(11)
C25 C 0.57641(10) 0.2432(3) 0.82489(12)
H19 H 0.5713 0.3289 0.8396
C26 C 0.61243(10) 0.2294(3) 0.79882(12)
H20 H 0.6309 0.3061 0.7963
C27 C 0.50715(10) 0.1453(3) 0.85411(12)
C28 C 0.49469(9) 0.0367(3) 0.88493(12)
H21 H 0.5121 -0.0459 0.8907
C29 C 0.45654(10) 0.0513(3) 0.90696(12)
C30 C 0.44132(9) 0.2723(3) 0.86945(12)
C31 C 0.47954(9) 0.2649(3) 0.84684(12)
H22 H 0.4866 0.3405 0.8268
C32 C 0.44329(10) -0.0629(3) 0.94065(12)
C33 C 0.40650(11) -0.0484(4) 0.96469(13)
H23 H 0.3887 0.0335 0.9596
C34 C 0.39646(12) -0.1568(4) 0.99636(15)
H24 H 0.3717 -0.1487 1.0129
C35 C 0.42289(12) -0.2768(4) 1.00351(14)
H25 H 0.4168 -0.3513 1.0249
C36 C 0.45881(12) -0.2830(4) 0.97788(15)
H26 H 0.4768 -0.3644 0.9822
C37 C 0.40951(10) 0.3972(3) 0.86068(13)
C38 C 0.36879(11) 0.3978(4) 0.87749(15)
H27 H 0.3612 0.3215 0.8967
C39 C 0.33910(14) 0.5137(5) 0.86545(19)
H28 H 0.3106 0.5148 0.8751
C40 C 0.35165(15) 0.6254(5) 0.83955(17)
H29 H 0.3325 0.7052 0.8318
C41 C 0.39298(15) 0.6175(4) 0.82532(15)
H30 H 0.4018 0.6949 0.8079
N1 N 0.80238(8) 0.0988(3) 0.58580(10)
N2 N 0.42985(8) 0.1676(3) 0.89943(10)
N3 N 0.46942(9) -0.1795(3) 0.94720(11)
N4 N 0.42220(10) 0.5057(3) 0.83453(12)
loop_
_geom_bond_atom_site_label_1
_geom_bond_atom_site_label_2
_geom_bond_site_symmetry_1
_geom_bond_site_symmetry_2
C1 H1 1_555 1_555
C2 C1 1_555 1_555
H2 C2 1_555 1_555
C3 C2 1_555 1_555
H3 C3 1_555 1_555
C4 C3 1_555 1_555
H4 C4 1_555 1_555
C5 C4 1_555 1_555
H5 C5 1_555 1_555
C6 C1 1_555 1_555
C7 C8 1_555 1_555
C8 H6 1_555 1_555
C9 C8 1_555 1_555
H7 C9 1_555 1_555
C10 C9 1_555 1_555
H8 C10 1_555 1_555
C11 C10 1_555 1_555
H9 C11 1_555 1_555
C12 C7 1_555 1_555
H10 C12 1_555 1_555
C13 C14 1_555 1_555
C14 H11 1_555 1_555
C15 C14 1_555 1_555
H12 C15 1_555 1_555
C16 C15 1_555 1_555
C17 C16 1_555 1_555
H13 C17 1_555 1_555
C18 C13 1_555 1_555
H14 C18 1_555 1_555
C19 C16 1_555 1_555
H15 C19 1_555 1_555
C20 C19 1_555 1_555
H16 C20 1_555 1_555
C21 C20 1_555 1_555
C22 C21 1_555 1_555
H17 C22 1_555 1_555
C23 C22 1_555 1_555
H18 C23 1_555 1_555
C24 C23 1_555 1_555
C25 C24 1_555 1_555
H19 C25 1_555 1_555
C26 C21 1_555 1_555
H20 C26 1_555 1_555
C27 C24 1_555 1_555
C28 C27 1_555 1_555
H21 C28 1_555 1_555
C29 C28 1_555 1_555
C30 C31 1_555 1_555
C31 C27 1_555 1_555
H22 C31 1_555 1_555
C32 C29 1_555 1_555
C33 C32 1_555 1_555
H23 C33 1_555 1_555
C34 C33 1_555 1_555
H24 C34 1_555 1_555
C35 C34 1_555 1_555
H25 C35 1_555 1_555
C36 C35 1_555 1_555
H26 C36 1_555 1_555
C37 C30 1_555 1_555
C38 C37 1_555 1_555
H27 C38 1_555 1_555
C39 C38 1_555 1_555
H28 C39 1_555 1_555
C40 C39 1_555 1_555
H29 C40 1_555 1_555
C41 C40 1_555 1_555
H30 C41 1_555 1_555
N1 C6 1_555 1_555
N2 C29 1_555 1_555
N3 C32 1_555 1_555
N4 C37 1_555 1_555
C5 C6 1_555 1_555
C7 N1 1_555 1_555
C11 C12 1_555 1_555
C13 N1 1_555 1_555
C17 C18 1_555 1_555
C25 C26 1_555 1_555
C30 N2 1_555 1_555
C36 N3 1_555 1_555
C41 N4 1_555 1_555

#END
