
#######################################################################
#
#                 Cambridge Crystallographic Data Centre
#                                CCDC 
#
#######################################################################
#
# If this CIF has been generated from an entry in the Cambridge 
# Structural Database, then it will include bibliographic, chemical, 
# crystal, experimental, refinement or atomic coordinate data resulting 
# from the CCDC's data processing and validation procedures.
#
#######################################################################

data_KIKDIU
_chemical_formula_moiety         'C4 H4 N10 O4,2(H2 O1)'
_chemical_name_systematic        
'N^2^,N^5^-dinitro[1,2,4]triazolo[1,5-a][1,3,5]triazine-2,5,7-triamine dihydrate'
_symmetry_cell_setting           orthorhombic
_symmetry_space_group_name_H-M   'P c a 21'
_symmetry_Int_Tables_number      29
_space_group_name_Hall           'P 2c -2ac'
loop_
_symmetry_equiv_pos_site_id
_symmetry_equiv_pos_as_xyz
1 x,y,z
2 -x,-y,1/2+z
3 1/2+x,-y,z
4 1/2-x,y,1/2+z
_cell_length_a                   8.9661(7)
_cell_length_b                   6.7936(6)
_cell_length_c                   18.1976(17)
_cell_angle_alpha                90
_cell_angle_beta                 90
_cell_angle_gamma                90
_cell_volume                     1108.45
_exptl_crystal_description       sheet
_cell_formula_units_Z            4
loop_
_atom_site_label
_atom_site_type_symbol
_atom_site_fract_x
_atom_site_fract_y
_atom_site_fract_z
N1 N 0.4002(11) 0.6399(14) 0.8685(6)
H1 H 0.430(13) 0.743(11) 0.890(6)
N2 N 0.4558(14) 0.4653(16) 0.8903(7)
N3 N -0.1520(10) 0.6496(12) 0.6006(5)
H2 H -0.189(12) 0.754(10) 0.582(6)
N4 N -0.2049(14) 0.4729(13) 0.5813(6)
O1 O 0.5542(13) 0.4746(13) 0.9378(6)
O2 O 0.4091(10) 0.3135(12) 0.8604(5)
O3 O -0.3047(13) 0.4736(12) 0.5355(6)
O4 O -0.1551(10) 0.3217(11) 0.6091(5)
N5 N 0.218(2) 0.5155(19) 0.7812(11)
C1 C 0.2899(16) 0.665(2) 0.8152(8)
N6 N 0.2604(15) 0.8502(16) 0.7999(7)
N7 N 0.1516(12) 0.8170(15) 0.7477(6)
C2 C 0.130(3) 0.6202(17) 0.7369(13)
N8 N 0.029(2) 0.549(2) 0.6887(10)
C3 C -0.0424(17) 0.692(2) 0.6527(9)
N9 N -0.0256(16) 0.891(2) 0.6599(8)
C4 C 0.0754(14) 0.9541(17) 0.7090(7)
N10 N 0.1010(17) 1.1415(16) 0.7206(8)
H3 H 0.046(13) 1.219(10) 0.695(6)
H4 H 0.175(13) 1.166(13) 0.749(8)
O5 O 0.4966(12) -0.0295(11) 0.9400(6)
H7 H 0.5756 -0.0158 0.9654
H8 H 0.4788 0.0783 0.9180
O6 O 0.2448(13) 1.0211(10) 0.0272(5)
H9 H 0.325(7) 0.987(16) 0.009(5)
H10 H 0.224(12) 0.924(10) 0.052(5)
N11? N 0.026(7) 0.518(6) 0.688(3)
C5? C -0.045(4) 0.671(8) 0.655(2)
N12? N -0.017(5) 0.856(7) 0.670(2)
N13? N 0.096(4) 0.820(4) 0.7202(18)
C6? C 0.118(7) 0.623(5) 0.730(4)
N14? N 0.213(7) 0.550(6) 0.781(3)
C7? C 0.292(6) 0.691(7) 0.816(3)
N15? N 0.272(5) 0.890(6) 0.809(3)
C8? C 0.170(4) 0.955(5) 0.761(2)
N16? N 0.142(4) 1.144(4) 0.750(2)
H5? H 0.20(3) 1.221(11) 0.776(16)
H6? H 0.10(5) 1.167(16) 0.708(12)
loop_
_geom_bond_atom_site_label_1
_geom_bond_atom_site_label_2
_geom_bond_site_symmetry_1
_geom_bond_site_symmetry_2
N1 H1 1_555 1_555
N2 N1 1_555 1_555
N3 H2 1_555 1_555
N4 N3 1_555 1_555
O1 N2 1_555 1_555
O2 N2 1_555 1_555
O3 N4 1_555 1_555
O4 N4 1_555 1_555
N5 C1 1_555 1_555
C1 N1 1_555 1_555
N6 C1 1_555 1_555
N7 N6 1_555 1_555
C2 N5 1_555 1_555
N8 C2 1_555 1_555
C3 N3 1_555 1_555
N9 C3 1_555 1_555
C4 N7 1_555 1_555
N10 C4 1_555 1_555
H3 N10 1_555 1_555
H4 N10 1_555 1_555
O5 H7 1_555 1_555
H8 O5 1_555 1_555
O6 H9 1_555 1_555
H10 O6 1_555 1_555
N7 C2 1_555 1_555
N8 C3 1_555 1_555
N9 C4 1_555 1_555

#END
