
#######################################################################
#
#                 Cambridge Crystallographic Data Centre
#                                CCDC 
#
#######################################################################
#
# If this CIF has been generated from an entry in the Cambridge 
# Structural Database, then it will include bibliographic, chemical, 
# crystal, experimental, refinement or atomic coordinate data resulting 
# from the CCDC's data processing and validation procedures.
#
#######################################################################

data_KIKHOC
_chemical_formula_moiety         'C13 H23 Cl1 N5 O1 1+,Cl1 1-'
_chemical_name_systematic        
'4-Chloro-6-methoxy-N-(2,2,6,6-tetramethylpiperidin-4-yl)-1,3,5-triazin-2-amine hydrogen chloride'
_symmetry_cell_setting           monoclinic
_symmetry_space_group_name_H-M   'P 21/n'
_symmetry_Int_Tables_number      14
_space_group_name_Hall           '-P 2yn'
loop_
_symmetry_equiv_pos_site_id
_symmetry_equiv_pos_as_xyz
1 x,y,z
2 1/2-x,1/2+y,1/2-z
3 -x,-y,-z
4 1/2+x,1/2-y,1/2+z
_cell_length_a                   7.7987(16)
_cell_length_b                   8.9425(18)
_cell_length_c                   24.472(5)
_cell_angle_alpha                90
_cell_angle_beta                 90.36(3)
_cell_angle_gamma                90
_cell_volume                     1706.64
_exptl_crystal_colour            colorless
_exptl_crystal_description       block
_cell_formula_units_Z            4
_exptl_crystal_recrystallization_method methanol
loop_
_atom_site_label
_atom_site_type_symbol
_atom_site_fract_x
_atom_site_fract_y
_atom_site_fract_z
Cl1 Cl 0.81987(7) 1.44507(5) 0.04206(2)
O1 O 0.8043(2) 0.94806(17) -0.03288(6)
C1 C 0.7679(3) 0.7961(3) -0.03155(10)
H1 H 0.8330 0.7497 -0.0028
H2 H 0.7979 0.7517 -0.0659
H3 H 0.6477 0.7818 -0.0251
N1 N 0.6796(2) 1.21886(18) 0.09038(7)
N2 N 0.8057(2) 1.17694(19) 0.00360(7)
N3 N 0.6822(2) 0.97133(19) 0.05197(7)
N4 N 0.5635(2) 1.02010(19) 0.13604(7)
H4 H 0.533(3) 1.085(3) 0.1578(10)
N5 N 0.3789(2) 0.61101(18) 0.20083(6)
C2 C 0.7615(3) 1.0330(2) 0.00984(8)
C3 C 0.7600(2) 1.2577(2) 0.04591(8)
C4 C 0.6431(2) 1.0695(2) 0.09169(8)
C5 C 0.5324(2) 0.8625(2) 0.14724(7)
H5 H 0.6095 0.8027 0.1245
C6 C 0.5720(2) 0.8292(2) 0.20701(8)
H6 H 0.4947 0.8863 0.2298
H7 H 0.6881 0.8612 0.2153
C7 C 0.5540(2) 0.6633(2) 0.22059(7)
C8 C 0.6969(2) 0.5703(2) 0.19527(8)
H8 H 0.6676 0.4661 0.1972
H9 H 0.8021 0.5875 0.2149
H10 H 0.7111 0.5986 0.1577
C9 C 0.5543(3) 0.6403(2) 0.28253(8)
H11 H 0.4610 0.6952 0.2983
H12 H 0.6608 0.6756 0.2976
H13 H 0.5413 0.5359 0.2905
C10 C 0.3192(2) 0.6498(2) 0.14307(7)
C11 C 0.4114(3) 0.5538(2) 0.10096(8)
H14 H 0.3499 0.5574 0.0669
H15 H 0.4167 0.4523 0.1136
H16 H 0.5255 0.5912 0.0959
C12 C 0.1282(3) 0.6144(2) 0.14119(9)
H17 H 0.0703 0.6708 0.1689
H18 H 0.1113 0.5095 0.1475
H19 H 0.0826 0.6405 0.1059
C13 C 0.3487(2) 0.8168(2) 0.13443(8)
H20 H 0.3221 0.8421 0.0968
H21 H 0.2715 0.8727 0.1577
H22 H 0.375(3) 0.516(3) 0.2050(8)
H23 H 0.307(3) 0.649(3) 0.2227(10)
Cl2 Cl 0.39494(7) 0.25965(5) 0.22079(2)
loop_
_geom_bond_atom_site_label_1
_geom_bond_atom_site_label_2
_geom_bond_site_symmetry_1
_geom_bond_site_symmetry_2
Cl1 C3 1_555 1_555
O1 C1 1_555 1_555
C1 H1 1_555 1_555
H2 C1 1_555 1_555
H3 C1 1_555 1_555
N1 C3 1_555 1_555
N2 C2 1_555 1_555
N3 C2 1_555 1_555
N4 H4 1_555 1_555
N5 C7 1_555 1_555
C2 O1 1_555 1_555
C3 N2 1_555 1_555
C4 N1 1_555 1_555
C5 N4 1_555 1_555
H5 C5 1_555 1_555
C6 C5 1_555 1_555
H6 C6 1_555 1_555
H7 C6 1_555 1_555
C7 C6 1_555 1_555
C8 C7 1_555 1_555
H8 C8 1_555 1_555
H9 C8 1_555 1_555
H10 C8 1_555 1_555
C9 C7 1_555 1_555
H11 C9 1_555 1_555
H12 C9 1_555 1_555
H13 C9 1_555 1_555
C10 N5 1_555 1_555
C11 C10 1_555 1_555
H14 C11 1_555 1_555
H15 C11 1_555 1_555
H16 C11 1_555 1_555
C12 C10 1_555 1_555
H17 C12 1_555 1_555
H18 C12 1_555 1_555
H19 C12 1_555 1_555
C13 C5 1_555 1_555
H20 C13 1_555 1_555
H21 C13 1_555 1_555
H22 N5 1_555 1_555
H23 N5 1_555 1_555
N3 C4 1_555 1_555
N4 C4 1_555 1_555
C10 C13 1_555 1_555

#END
