
#######################################################################
#
#                 Cambridge Crystallographic Data Centre
#                                CCDC 
#
#######################################################################
#
# If this CIF has been generated from an entry in the Cambridge 
# Structural Database, then it will include bibliographic, chemical, 
# crystal, experimental, refinement or atomic coordinate data resulting 
# from the CCDC's data processing and validation procedures.
#
#######################################################################

data_KIKJUK
_chemical_formula_moiety         'C24 H18 F3 N3 O1'
_chemical_name_systematic        
3-Methyl-1-phenyl-4-(phenyl(4-(trifluoromethyl)anilino)methylene)-1H-pyrazol-5(4H)-one
_symmetry_cell_setting           triclinic
_symmetry_space_group_name_H-M   'P -1'
_symmetry_Int_Tables_number      2
_space_group_name_Hall           '-P 1'
loop_
_symmetry_equiv_pos_site_id
_symmetry_equiv_pos_as_xyz
1 x,y,z
2 -x,-y,-z
_cell_length_a                   7.6059(9)
_cell_length_b                   10.9913(12)
_cell_length_c                   13.8057(15)
_cell_angle_alpha                108.448(2)
_cell_angle_beta                 100.227(2)
_cell_angle_gamma                105.178(2)
_cell_volume                     1013
_exptl_crystal_colour            yellow
_exptl_crystal_description       block
_cell_formula_units_Z            2
_exptl_crystal_recrystallization_method ethanol
loop_
_atom_site_label
_atom_site_type_symbol
_atom_site_fract_x
_atom_site_fract_y
_atom_site_fract_z
F1 F 1.2873(3) 0.7703(4) 0.52098(18)
F2 F 1.1537(3) 0.7329(3) 0.6340(3)
F3 F 1.2712(3) 0.9287(2) 0.64567(18)
O1 O 0.2518(2) 0.89023(15) 0.26159(13)
N1 N -0.0459(2) 0.74140(17) 0.14646(14)
N2 N -0.1474(3) 0.60170(17) 0.10526(14)
N3 N 0.4577(2) 0.74680(18) 0.32255(14)
H1 H 0.4386 0.8219 0.3269
C1 C 0.1347(3) 0.7735(2) 0.20940(17)
C2 C 0.1515(3) 0.6428(2) 0.20245(16)
C3 C -0.0321(3) 0.5436(2) 0.13746(17)
C4 C -0.1047(4) 0.3929(2) 0.1069(2)
H2 H -0.2385 0.3579 0.0713
H3 H -0.0832 0.3724 0.1697
H4 H -0.0393 0.3514 0.0599
C5 C -0.1398(3) 0.8326(2) 0.13113(16)
C6 C -0.3329(3) 0.7998(3) 0.11965(19)
H5 H -0.4027 0.7169 0.1203
C7 C -0.4214(4) 0.8914(3) 0.1072(2)
H6 H -0.5509 0.8701 0.0998
C8 C -0.3185(4) 1.0139(3) 0.1055(2)
H7 H -0.3780 1.0756 0.0978
C9 C -0.1283(4) 1.0441(3) 0.1152(2)
H8 H -0.0592 1.1263 0.1133
C10 C -0.0376(4) 0.9544(2) 0.1279(2)
H9 H 0.0917 0.9759 0.1342
C11 C 0.3135(3) 0.6321(2) 0.25890(16)
C12 C 0.6381(3) 0.7604(2) 0.38376(17)
C13 C 0.7166(3) 0.8622(2) 0.48522(18)
H10 H 0.6512 0.9199 0.5115
C14 C 0.8908(3) 0.8778(2) 0.54689(18)
H11 H 0.9428 0.9462 0.6147
C15 C 0.9884(3) 0.7923(3) 0.50833(18)
C16 C 0.9117(3) 0.6922(3) 0.40642(18)
H12 H 0.9775 0.6347 0.3802
C17 C 0.7391(3) 0.6772(3) 0.34380(18)
H13 H 0.6902 0.6115 0.2748
C18 C 1.1727(4) 0.8038(3) 0.5758(2)
C19 C 0.3297(3) 0.4991(2) 0.25615(16)
C20 C 0.3411(3) 0.4054(2) 0.16447(18)
H14 H 0.3318 0.4228 0.1024
C21 C 0.3666(4) 0.2856(2) 0.1664(2)
H15 H 0.3753 0.2228 0.1054
C22 C 0.3792(4) 0.2590(3) 0.2577(2)
H16 H 0.3982 0.1791 0.2586
C23 C 0.3637(4) 0.3507(3) 0.3479(2)
H17 H 0.3692 0.3317 0.4091
C24 C 0.3399(3) 0.4708(2) 0.34747(19)
H18 H 0.3307 0.5329 0.4086
loop_
_geom_bond_atom_site_label_1
_geom_bond_atom_site_label_2
_geom_bond_site_symmetry_1
_geom_bond_site_symmetry_2
F1 C18 1_555 1_555
F2 C18 1_555 1_555
F3 C18 1_555 1_555
O1 C1 1_555 1_555
N1 N2 1_555 1_555
N2 C3 1_555 1_555
N3 H1 1_555 1_555
C1 N1 1_555 1_555
C2 C1 1_555 1_555
C3 C2 1_555 1_555
C4 C3 1_555 1_555
H2 C4 1_555 1_555
H3 C4 1_555 1_555
H4 C4 1_555 1_555
C5 N1 1_555 1_555
C6 C5 1_555 1_555
H5 C6 1_555 1_555
C7 C6 1_555 1_555
H6 C7 1_555 1_555
C8 C7 1_555 1_555
H7 C8 1_555 1_555
C9 C8 1_555 1_555
H8 C9 1_555 1_555
C10 C5 1_555 1_555
H9 C10 1_555 1_555
C11 N3 1_555 1_555
C12 N3 1_555 1_555
C13 C12 1_555 1_555
H10 C13 1_555 1_555
C14 C13 1_555 1_555
H11 C14 1_555 1_555
C15 C14 1_555 1_555
C16 C15 1_555 1_555
H12 C16 1_555 1_555
C17 C12 1_555 1_555
H13 C17 1_555 1_555
C18 C15 1_555 1_555
C19 C11 1_555 1_555
C20 C19 1_555 1_555
H14 C20 1_555 1_555
C21 C20 1_555 1_555
H15 C21 1_555 1_555
C22 C21 1_555 1_555
H16 C22 1_555 1_555
C23 C22 1_555 1_555
H17 C23 1_555 1_555
C24 C19 1_555 1_555
H18 C24 1_555 1_555
C2 C11 1_555 1_555
C9 C10 1_555 1_555
C16 C17 1_555 1_555
C23 C24 1_555 1_555

#END
