
#######################################################################
#
#                 Cambridge Crystallographic Data Centre
#                                CCDC 
#
#######################################################################
#
# If this CIF has been generated from an entry in the Cambridge 
# Structural Database, then it will include bibliographic, chemical, 
# crystal, experimental, refinement or atomic coordinate data resulting 
# from the CCDC's data processing and validation procedures.
#
#######################################################################

data_KIKMIB
_chemical_formula_moiety         'C29 H30 Cl1 N3 O3'
_chemical_name_systematic        
(1S,2S,3S)-N-(2-(4-Chlorophenyl)-1-(N-(2-methyl-1-(N-methylcarbamoyl)propyl)carbamoyl)-3-phenylcyclopropyl)benzamide
_symmetry_cell_setting           monoclinic
_symmetry_space_group_name_H-M   'P 21'
_symmetry_Int_Tables_number      4
_space_group_name_Hall           'P 2yb'
loop_
_symmetry_equiv_pos_site_id
_symmetry_equiv_pos_as_xyz
1 x,y,z
2 -x,1/2+y,-z
_cell_length_a                   10.8821(19)
_cell_length_b                   9.5688(16)
_cell_length_c                   12.952(2)
_cell_angle_alpha                90
_cell_angle_beta                 95.754(4)
_cell_angle_gamma                90
_cell_volume                     1341.88
_exptl_crystal_colour            colorless
_exptl_crystal_description       block
_chemical_melting_point          '516-517 K'
_cell_formula_units_Z            2
_exptl_crystal_recrystallization_method dichloromethane/methanol
loop_
_atom_site_label
_atom_site_type_symbol
_atom_site_fract_x
_atom_site_fract_y
_atom_site_fract_z
Cl1 Cl -0.04548(6) 0.93271(10) 0.97899(5)
O1 O 0.51546(14) 0.93017(16) 0.76039(11)
O2 O 0.44949(13) 1.03295(14) 0.51521(12)
O3 O 0.69537(14) 0.97648(15) 0.32163(12)
N1 N 0.40924(14) 0.75020(17) 0.68410(12)
H1 H 0.3900 0.6620 0.6849
N2 N 0.55739(14) 0.83074(16) 0.53124(13)
H2 H 0.5547 0.7427 0.5478
N3 N 0.61830(17) 0.75935(18) 0.32730(13)
H3 H 0.5969 0.6912 0.3662
C1 C 0.36200(17) 0.83804(19) 0.59967(15)
C2 C 0.23957(17) 0.9144(2) 0.60451(15)
H4 H 0.2357 1.0055 0.5681
C3 C 0.24678(18) 0.7912(2) 0.53285(15)
H5 H 0.2090 0.7044 0.5568
C4 C 0.48463(19) 0.8075(2) 0.76281(16)
C5 C 0.5331(2) 0.7109(2) 0.84811(15)
C6 C 0.6533(2) 0.7319(3) 0.89339(17)
H6 H 0.7002 0.8065 0.8710
C7 C 0.7041(3) 0.6441(3) 0.97087(19)
H7 H 0.7860 0.6574 0.9996
C8 C 0.6352(3) 0.5375(3) 1.00590(19)
H8 H 0.6701 0.4773 1.0582
C9 C 0.5153(3) 0.5188(3) 0.9647(2)
H9 H 0.4671 0.4477 0.9905
C10 C 0.4646(3) 0.6050(3) 0.88447(18)
H10 H 0.3831 0.5903 0.8553
C11 C 0.46021(17) 0.9113(2) 0.54537(14)
C12 C 0.66756(17) 0.8836(2) 0.48946(15)
H11 H 0.6767 0.9831 0.5097
C13 C 0.65934(18) 0.8770(2) 0.37172(16)
C14 C 0.6078(3) 0.7401(3) 0.21541(17)
H12 H 0.5414 0.7981 0.1835
H13 H 0.5901 0.6428 0.1990
H14 H 0.6848 0.7667 0.1890
C15 C 0.78250(18) 0.8054(2) 0.53901(17)
H15 H 0.7725 0.7052 0.5213
C16 C 0.7953(2) 0.8184(3) 0.65662(19)
H16 H 0.8710 0.7732 0.6851
H17 H 0.7253 0.7740 0.6840
H18 H 0.7978 0.9165 0.6758
C17 C 0.8986(2) 0.8572(4) 0.4957(2)
H19 H 0.8876 0.8524 0.4205
H20 H 0.9680 0.7992 0.5216
H21 H 0.9144 0.9532 0.5171
C18 C 0.16989(17) 0.9123(2) 0.69795(15)
C19 C 0.1195(2) 1.0362(2) 0.72906(18)
H22 H 0.1309 1.1181 0.6910
C20 C 0.0527(2) 1.0435(3) 0.81444(19)
H23 H 0.0181 1.1286 0.8335
C21 C 0.03798(19) 0.9244(3) 0.87064(16)
C22 C 0.0854(2) 0.7992(3) 0.84255(18)
H24 H 0.0742 0.7183 0.8817
C23 C 0.1505(2) 0.7927(2) 0.75545(17)
H25 H 0.1817 0.7064 0.7352
C24 C 0.23451(18) 0.8098(2) 0.41708(16)
C25 C 0.1599(2) 0.9128(3) 0.36832(17)
H26 H 0.1180 0.9754 0.4084
C26 C 0.1466(2) 0.9245(3) 0.26140(19)
H27 H 0.0961 0.9951 0.2295
C27 C 0.2066(2) 0.8335(3) 0.20145(19)
H28 H 0.1963 0.8411 0.1287
C28 C 0.2814(2) 0.7317(3) 0.24767(17)
H29 H 0.3229 0.6696 0.2068
C29 C 0.2959(2) 0.7204(2) 0.35476(16)
H30 H 0.3483 0.6510 0.3860
loop_
_geom_bond_atom_site_label_1
_geom_bond_atom_site_label_2
_geom_bond_site_symmetry_1
_geom_bond_site_symmetry_2
Cl1 C21 1_555 1_555
O1 C4 1_555 1_555
O2 C11 1_555 1_555
O3 C13 1_555 1_555
N1 H1 1_555 1_555
N2 H2 1_555 1_555
N3 H3 1_555 1_555
C1 N1 1_555 1_555
C2 C1 1_555 1_555
H4 C2 1_555 1_555
C3 C1 1_555 1_555
H5 C3 1_555 1_555
C4 N1 1_555 1_555
C5 C4 1_555 1_555
C6 C5 1_555 1_555
H6 C6 1_555 1_555
C7 C6 1_555 1_555
H7 C7 1_555 1_555
C8 C7 1_555 1_555
H8 C8 1_555 1_555
C9 C8 1_555 1_555
H9 C9 1_555 1_555
C10 C5 1_555 1_555
H10 C10 1_555 1_555
C11 N2 1_555 1_555
C12 N2 1_555 1_555
H11 C12 1_555 1_555
C13 N3 1_555 1_555
C14 N3 1_555 1_555
H12 C14 1_555 1_555
H13 C14 1_555 1_555
H14 C14 1_555 1_555
C15 C12 1_555 1_555
H15 C15 1_555 1_555
C16 C15 1_555 1_555
H16 C16 1_555 1_555
H17 C16 1_555 1_555
H18 C16 1_555 1_555
C17 C15 1_555 1_555
H19 C17 1_555 1_555
H20 C17 1_555 1_555
H21 C17 1_555 1_555
C18 C2 1_555 1_555
C19 C18 1_555 1_555
H22 C19 1_555 1_555
C20 C19 1_555 1_555
H23 C20 1_555 1_555
C21 C20 1_555 1_555
C22 C21 1_555 1_555
H24 C22 1_555 1_555
C23 C18 1_555 1_555
H25 C23 1_555 1_555
C24 C3 1_555 1_555
C25 C24 1_555 1_555
H26 C25 1_555 1_555
C26 C25 1_555 1_555
H27 C26 1_555 1_555
C27 C26 1_555 1_555
H28 C27 1_555 1_555
C28 C27 1_555 1_555
H29 C28 1_555 1_555
C29 C24 1_555 1_555
H30 C29 1_555 1_555
C1 C11 1_555 1_555
C2 C3 1_555 1_555
C9 C10 1_555 1_555
C12 C13 1_555 1_555
C22 C23 1_555 1_555
C28 C29 1_555 1_555

#END
