
#######################################################################
#
#                 Cambridge Crystallographic Data Centre
#                                CCDC 
#
#######################################################################
#
# If this CIF has been generated from an entry in the Cambridge 
# Structural Database, then it will include bibliographic, chemical, 
# crystal, experimental, refinement or atomic coordinate data resulting 
# from the CCDC's data processing and validation procedures.
#
#######################################################################

data_KIKPUP
_chemical_formula_moiety         'C10 H12 N4 O8 P1 1-,Na1 1+,10(H2 O1)'
_chemical_name_systematic        "Sodium inosine 5'-monophosphate decahydrate"
_symmetry_cell_setting           monoclinic
_symmetry_space_group_name_H-M   'P 21'
_symmetry_Int_Tables_number      4
_space_group_name_Hall           'P 2yb'
loop_
_symmetry_equiv_pos_site_id
_symmetry_equiv_pos_as_xyz
1 x,y,z
2 -x,1/2+y,-z
_cell_length_a                   8.730(3)
_cell_length_b                   22.349(7)
_cell_length_c                   12.282(4)
_cell_angle_alpha                90
_cell_angle_beta                 109.68(3)
_cell_angle_gamma                90
_cell_volume                     2256.33
_cell_formula_units_Z            4
loop_
_atom_site_label
_atom_site_type_symbol
_atom_site_fract_x
_atom_site_fract_y
_atom_site_fract_z
Na1 Na 0.0901(4) 0.2554(2) 0.9060(2)
O1 O -0.3915(5) 0.2548(2) 0.1633(4)
P1 P -0.2602(2) 0.2969 0.2331(1)
O2 O -0.1055(5) 0.295(2) 0.2027(4)
O3 O -0.3222(5) 0.3606(2) 0.2282(4)
O4 O -0.2053(5) 0.2748(2) 0.3653(4)
C1 C -0.3272(8) 0.2777(3) 0.4184(5)
O5 O -0.2447(5) 0.1827(2) 0.5160(4)
C2 C -0.2758(7) 0.2458(3) 0.5322(5)
O6 O -0.1396(5) 0.2610(2) 0.7377(4)
C3 C -0.1222(7) 0.2679(3) 0.6276(5)
O7 O 0.1431(5) 0.2184(2) 0.7249(4)
C4 C 0.0063(7) 0.2242(3) 0.6221(5)
C5 C -0.0930(7) 0.1663(3) 0.5988(6)
N1 N 0.1850(6) -0.0346(2) 0.6784(5)
C6 C 0.1413(9) 0.0019(3) 0.7485(6)
N2 N 0.0678(7) 0.0545(3) 0.7191(5)
C7 C 0.0455(7) 0.0666(3) 0.6073(5)
C8 C 0.0894(7) 0.0344(3) 0.5280(6)
C9 C 0.1637(8) -0.0240(3) 0.5615(6)
O8 O 0.2081(7) -0.0601(3) 0.5058(5)
N3 N 0.0440(7) 0.0631(3) 0.4226(5)
C10 C -0.0265(9) 0.1124(3) 0.4378(6)
N4 N -0.0263(6) 0.1185(2) 0.5498(5)
H1 H 0.241 -0.078 0.714
H2 H 0.177 -0.011 0.834
H3 H -0.082 0.143 0.376
H4 H -0.106 0.154 0.674
H5 H 0.040 0.234 0.554
H6 H -0.097 0.309 0.612
H7 H -0.371 0.248 0.565
H8 H -0.432 0.258 0.365
H9 H -0.357 0.321 0.430
Na2 Na 0.2067(4) 0.3838(2) 1.0654(2)
O9 O 0.4154(5) 0.3830(2) 1.8072(4)
P2 P 0.4782(2) 0.3395(1) 1.7374(1)
O10 O 0.6609(4) 0.3440(2) 1.7650(4)
O11 O 0.4164(5) 0.2762(2) 1.7450(4)
O12 O 0.4039(5) 0.3590(2) 1.6034(3)
C11 C 0.2298(7) 0.3525(3) 1.5507(5)
O13 O 0.2029(5) 0.4478(2) 1.4530(4)
C12 C 0.1718(7) 0.3847(3) 1.4368(5)
O14 O 0.1293(5) 0.3729(2) 1.2338(4)
C13 C 0.2442(7) 0.3646(3) 1.3454(5)
O15 O 0.4218(5) 0.4025(2) 1.2602(4)
C14 C 0.3770(7) 0.4106(3) 1.3606(5)
C15 C 0.2945(7) 0.4673(3) 1.3830(5)
N5 N 0.5318(7) 0.6701(3) 1.3501(5)
C16 C 0.4295(10) 0.6351(4) 1.2671(6)
N6 N 0.3789(8) 0.5817(3) 1.2852(5)
C17 C 0.4406(7) 0.5661(3) 1.3992(5)
C18 C 0.5439(7) 0.5978(3) 1.4890(6)
C19 C 0.5950(7) 0.6554(3) 1.4676(6)
O16 O 0.6832(7) 0.6928(2) 1.5338(5)
N7 N 0.5716(7) 0.5667(3) 1.5896(5)
C20 C 0.4893(9) 0.5168(3) 1.5596(6)
N8 N 0.4058(6) 0.5137(2) 1.4459(4)
H10 H 0.574 0.712 1.331
H11 H 0.394 0.650 1.185
H12 H 0.479 0.485 1.618
H13 H 0.218 0.483 1.306
H14 H 0.474 0.401 1.429
H15 H 0.287 0.323 1.359
H16 H 0.047 0.378 1.401
H17 H 0.176 0.372 1.603
H18 H 0.199 0.310 1.540
O17 O 0.9732(4) 0.0140(2) 0.2168(3)
H20 H 1.054 0.047 0.200
O18 O 0.1422(6) 0.3544(3) 0.8603(4)
O19 O 0.2808(6) 0.2781(3) 1.0958(4)
O20 O 0.8699(6) 0.4253(3) 0.7250(5)
O21 O 0.4663(7) 0.4074(3) 1.0315(5)
H21 H 0.475 0.394 0.948
O22 O 0.0268(8) 0.1378(3) 1.0769(5)
O23 O 0.5694(9) 0.2165(3) 0.9482(6)
H22 H 0.614 0.228 1.041
O24 O 0.8686(6) 0.7082(3) 0.7612(5)
H23 H 0.792 0.703 0.674
O25 O 0.0613(9) 0.4713(4) 0.9821(6)
O26 O 0.2384(11) 0.4814(4) 0.7241(10)
O27 O 0.4348(11) 0.6393(4) 0.7917(8)
O28 O 0.5431(13) 0.0287(4) 0.9303(11)
O29 O 1.1871(8) 0.0728(5) 0.1922(6)
O30 O 0.2104(8) 0.5901(5) 0.8854(7)
O31 O 0.2484(20) 0.1548(7) 0.9516(15)
O32 O 0.9516(22) 0.0771(5) 0.9047(10)
O33 O 0.8785(13) 0.3531(10) 0.9880(7)
O34 O -0.1018(9) 0.2251(7) 1.0001(8)
H19 H -0.034 0.182 0.993
O35 O 0.6565(23) 0.4868(9) 0.9116(17)
O36 O 0.6770(13) 0.5835(6) 0.9414(10)
loop_
_geom_bond_atom_site_label_1
_geom_bond_atom_site_label_2
_geom_bond_site_symmetry_1
_geom_bond_site_symmetry_2
O1 P1 1_555 1_555
P1 O2 1_555 1_555
O3 P1 1_555 1_555
O4 P1 1_555 1_555
C1 O4 1_555 1_555
O5 C2 1_555 1_555
C2 C1 1_555 1_555
O6 C3 1_555 1_555
C3 C2 1_555 1_555
O7 C4 1_555 1_555
C4 C3 1_555 1_555
C5 O5 1_555 1_555
N1 C6 1_555 1_555
C6 N2 1_555 1_555
N2 C7 1_555 1_555
C7 C8 1_555 1_555
C8 C9 1_555 1_555
C9 N1 1_555 1_555
O8 C9 1_555 1_555
N3 C8 1_555 1_555
C10 N3 1_555 1_555
N4 C5 1_555 1_555
O9 P2 1_555 1_555
P2 O10 1_555 1_555
O11 P2 1_555 1_555
O12 P2 1_555 1_555
C11 O12 1_555 1_555
O13 C12 1_555 1_555
C12 C11 1_555 1_555
O14 C13 1_555 1_555
C13 C12 1_555 1_555
O15 C14 1_555 1_555
C14 C13 1_555 1_555
C15 O13 1_555 1_555
N5 C16 1_555 1_555
C16 N6 1_555 1_555
N6 C17 1_555 1_555
C17 C18 1_555 1_555
C18 C19 1_555 1_555
C19 N5 1_555 1_555
O16 C19 1_555 1_555
N7 C18 1_555 1_555
C20 N7 1_555 1_555
N8 C15 1_555 1_555
O17 H20 1_555 1_555
O21 H21 1_555 1_555
O23 H22 1_555 1_555
O24 H23 1_555 1_555
O34 H19 1_555 1_555
H1 N1 1_555 1_555
H2 C6 1_555 1_555
H3 C10 1_555 1_555
H4 C5 1_555 1_555
H5 C4 1_555 1_555
H6 C3 1_555 1_555
H7 C2 1_555 1_555
H8 C1 1_555 1_555
H9 C1 1_555 1_555
H10 N5 1_555 1_555
H11 C16 1_555 1_555
H12 C20 1_555 1_555
H13 C15 1_555 1_555
H14 C14 1_555 1_555
H15 C13 1_555 1_555
H16 C12 1_555 1_555
H17 C11 1_555 1_555
H18 C11 1_555 1_555
C4 C5 1_555 1_555
C7 N4 1_555 1_555
C10 N4 1_555 1_555
C14 C15 1_555 1_555
C17 N8 1_555 1_555
C20 N8 1_555 1_555

#END
