
#######################################################################
#
#                 Cambridge Crystallographic Data Centre
#                                CCDC 
#
#######################################################################
#
# If this CIF has been generated from an entry in the Cambridge 
# Structural Database, then it will include bibliographic, chemical, 
# crystal, experimental, refinement or atomic coordinate data resulting 
# from the CCDC's data processing and validation procedures.
#
#######################################################################

data_KIKSUS
_chemical_name_common            
(1R*,4R*,7R*,10S*,11S*)-10-Hydroxy-9-isopropyl-2,11-dimethyl-2-azatricyclo(5.3.1.0$4,11!)undec-8-en-3-one
_chemical_formula_moiety         'C15 H23 N1 O2'
_chemical_name_systematic        
(1R*,4R*,5S*,8R*,11S*)-3,11-Dimethyl-5-hydroxy-6-isopropyl-3-azatricyclo(6.2.1.0^4,11^)undec-6-en-2-one
_symmetry_cell_setting           monoclinic
_symmetry_space_group_name_H-M   'P 21/c'
_symmetry_Int_Tables_number      14
_space_group_name_Hall           '-P 2ybc'
loop_
_symmetry_equiv_pos_site_id
_symmetry_equiv_pos_as_xyz
1 x,y,z
2 -x,1/2+y,1/2-z
3 -x,-y,-z
4 x,1/2-y,1/2+z
_cell_length_a                   7.782(2)
_cell_length_b                   23.119(4)
_cell_length_c                   7.932(2)
_cell_angle_alpha                90
_cell_angle_beta                 101.53(2)
_cell_angle_gamma                90
_cell_volume                     1398.26
_exptl_crystal_colour            colorless
_cell_formula_units_Z            4
loop_
_atom_site_label
_atom_site_type_symbol
_atom_site_fract_x
_atom_site_fract_y
_atom_site_fract_z
C1 C 1.0287(3) 0.39575(9) 0.9463(2)
C2 C 0.8784(3) 0.43652(8) 0.9380(2)
N1 N 0.8238(2) 0.45482(6) 0.7763(2)
C3 C 0.9381(3) 0.43778(8) 0.6591(2)
C4 C 0.8358(3) 0.41542(9) 0.4868(2)
C5 C 0.7428(3) 0.35978(8) 0.5105(2)
C6 C 0.8338(3) 0.32067(9) 0.6150(3)
C7 C 1.0202(3) 0.32908(9) 0.7052(3)
C8 C 1.0628(4) 0.29590(11) 0.8755(3)
C9 C 0.9869(4) 0.33378(10) 0.9983(3)
C10 C 1.0637(3) 0.39288(8) 0.7609(2)
C11 C 1.2542(3) 0.40797(14) 0.7551(4)
O1 O 0.8125(2) 0.45125(6) 1.0607(2)
C12 C 0.6856(3) 0.49717(11) 0.7291(3)
O2 O 0.9626(2) 0.40830(7) 0.3803(2)
C13 C 0.5570(3) 0.35268(10) 0.4138(3)
C14 C 0.5439(4) 0.3547(2) 0.2210(3)
C15 C 0.4634(4) 0.30003(15) 0.4651(5)
H1 H 1.129(3) 0.4117(9) 1.023(3)
H2 H 1.004(2) 0.4716(8) 0.636(2)
H3 H 0.748(2) 0.4457(7) 0.435(2)
H4 H 0.783(3) 0.2835(9) 0.631(2)
H5 H 1.097(3) 0.3173(9) 0.627(3)
H6 H 1.013(3) 0.2550(11) 0.863(3)
H7 H 1.191(3) 0.2919(10) 0.913(3)
H8 H 1.034(3) 0.3273(10) 1.118(3)
H9 H 0.850(4) 0.3290(11) 0.975(3)
H10 H 1.341(4) 0.3774(11) 0.816(3)
H11 H 1.268(3) 0.4072(10) 0.636(3)
H12 H 1.284(3) 0.4477(12) 0.808(3)
H13 H 0.584(3) 0.4808(10) 0.645(3)
H14 H 0.646(3) 0.5103(11) 0.835(3)
H15 H 0.730(3) 0.5312(12) 0.672(3)
H16 H 0.905(3) 0.4205(12) 0.273(4)
H17 H 0.489(3) 0.3872(10) 0.441(3)
H18 H 0.421(4) 0.3516(11) 0.161(3)
H19 H 0.597(4) 0.3928(13) 0.185(4)
H20 H 0.608(4) 0.3227(13) 0.193(3)
H21 H 0.340(5) 0.3049(13) 0.399(4)
H22 H 0.523(3) 0.2645(12) 0.428(3)
H23 H 0.472(4) 0.2985(13) 0.593(4)
loop_
_geom_bond_atom_site_label_1
_geom_bond_atom_site_label_2
_geom_bond_site_symmetry_1
_geom_bond_site_symmetry_2
C1 C2 1_555 1_555
C2 N1 1_555 1_555
N1 C3 1_555 1_555
C3 C4 1_555 1_555
C4 C5 1_555 1_555
C5 C6 1_555 1_555
C6 C7 1_555 1_555
C7 C8 1_555 1_555
C8 C9 1_555 1_555
C9 C1 1_555 1_555
C10 C1 1_555 1_555
C11 C10 1_555 1_555
O1 C2 1_555 1_555
C12 N1 1_555 1_555
O2 C4 1_555 1_555
C13 C5 1_555 1_555
C14 C13 1_555 1_555
C15 C13 1_555 1_555
H1 C1 1_555 1_555
H2 C3 1_555 1_555
H3 C4 1_555 1_555
H4 C6 1_555 1_555
H5 C7 1_555 1_555
H6 C8 1_555 1_555
H7 C8 1_555 1_555
H8 C9 1_555 1_555
H9 C9 1_555 1_555
H10 C11 1_555 1_555
H11 C11 1_555 1_555
H12 C11 1_555 1_555
H13 C12 1_555 1_555
H14 C12 1_555 1_555
H15 C12 1_555 1_555
H16 O2 1_555 1_555
H17 C13 1_555 1_555
H18 C14 1_555 1_555
H19 C14 1_555 1_555
H20 C14 1_555 1_555
H21 C15 1_555 1_555
H22 C15 1_555 1_555
H23 C15 1_555 1_555
C3 C10 1_555 1_555
C7 C10 1_555 1_555

#END
