
#######################################################################
#
#                 Cambridge Crystallographic Data Centre
#                                CCDC 
#
#######################################################################
#
# If this CIF has been generated from an entry in the Cambridge 
# Structural Database, then it will include bibliographic, chemical, 
# crystal, experimental, refinement or atomic coordinate data resulting 
# from the CCDC's data processing and validation procedures.
#
#######################################################################

data_KIKTUT03
_chemical_formula_moiety         'C29 H20 O1'
_chemical_name_systematic        2,3,4,5-Tetraphenylcyclopenta-2,4-dien-1-one
_symmetry_cell_setting           monoclinic
_symmetry_space_group_name_H-M   'C 2/c'
_symmetry_Int_Tables_number      15
_space_group_name_Hall           '-C 2yn'
loop_
_symmetry_equiv_pos_site_id
_symmetry_equiv_pos_as_xyz
1 x,y,z
2 -x,y,1/2-z
3 1/2+x,1/2+y,z
4 1/2-x,1/2+y,1/2-z
5 -x,-y,-z
6 x,-y,1/2+z
7 1/2-x,1/2-y,-z
8 1/2+x,1/2-y,1/2+z
_cell_length_a                   26.192(2)
_cell_length_b                   8.2038(6)
_cell_length_c                   21.523(2)
_cell_angle_alpha                90
_cell_angle_beta                 119.751(2)
_cell_angle_gamma                90
_cell_volume                     4015.15
_exptl_crystal_colour            black
_exptl_crystal_description       block
_cell_formula_units_Z            8
loop_
_atom_site_label
_atom_site_type_symbol
_atom_site_fract_x
_atom_site_fract_y
_atom_site_fract_z
O1 O 0.19918(4) 0.01774(13) 0.38999(5)
C1 C 0.23689(5) -0.07939(16) 0.68287(6)
H1 H 0.2650 -0.1552 0.6877
C2 C 0.33809(5) -0.01735(15) 0.64628(6)
C3 C 0.42830(6) 0.06400(18) 0.51746(7)
H2 H 0.4649 0.1092 0.5484
C4 C 0.31892(6) -0.06843(16) 0.42491(7)
H3 H 0.2824 -0.1131 0.3936
C5 C 0.18027(6) 0.04809(17) 0.72956(7)
H4 H 0.1696 0.0556 0.7647
C6 C 0.33005(5) -0.01009(15) 0.49168(7)
C7 C 0.16958(5) 0.13779(15) 0.61747(7)
H5 H 0.1523 0.2070 0.5781
C8 C 0.36175(6) -0.06034(17) 0.40500(7)
H6 H 0.3538 -0.0998 0.3606
C9 C 0.08837(6) -0.08579(16) 0.48095(7)
H7 H 0.1093 -0.1406 0.5243
C10 C 0.15486(6) 0.15159(16) 0.67068(7)
H8 H 0.1279 0.2302 0.6671
C11 C 0.08595(6) 0.07742(17) 0.38681(7)
H9 H 0.1052 0.1318 0.3664
C12 C 0.38589(6) 0.05455(16) 0.53800(7)
H10 H 0.3946 0.0915 0.5830
C13 C 0.37504(6) -0.15280(17) 0.66465(7)
H11 H 0.3660 -0.2371 0.6319
C14 C 0.22306(5) 0.00526(15) 0.56306(6)
C15 C 0.35203(6) 0.10770(17) 0.69591(7)
H12 H 0.3273 0.1974 0.6846
C16 C 0.28307(5) -0.01050(15) 0.51049(6)
C17 C 0.22154(6) -0.06626(17) 0.73587(7)
H13 H 0.2390 -0.1343 0.7757
C18 C 0.02731(6) -0.09003(18) 0.44460(8)
H14 H 0.0077 -0.1477 0.4637
C19 C 0.21029(5) 0.02067(15) 0.62225(6)
C20 C 0.21877(5) 0.00416(15) 0.45408(6)
C21 C 0.28502(5) -0.00848(15) 0.57434(6)
C22 C 0.02472(6) 0.0736(2) 0.35114(7)
H15 H 0.0034 0.1270 0.3075
C23 C 0.18362(5) 0.00546(15) 0.49202(6)
C24 C 0.42517(6) -0.1625(2) 0.73146(8)
H16 H 0.4492 -0.2539 0.7435
C25 C 0.40294(6) 0.0985(2) 0.76232(7)
H17 H 0.4125 0.1834 0.7949
C26 C 0.11882(5) -0.00007(15) 0.45316(6)
C27 C 0.43955(6) -0.0364(2) 0.78033(8)
H18 H 0.4735 -0.0423 0.8248
C28 C 0.41650(6) 0.00641(17) 0.45108(7)
H19 H 0.4451 0.0124 0.4375
C29 C -0.00460(6) -0.0088(2) 0.38000(8)
H20 H -0.0455 -0.0098 0.3563
loop_
_geom_bond_atom_site_label_1
_geom_bond_atom_site_label_2
_geom_bond_site_symmetry_1
_geom_bond_site_symmetry_2
O1 C20 1_555 1_555
C1 H1 1_555 1_555
C2 C13 1_555 1_555
C3 H2 1_555 1_555
C4 H3 1_555 1_555
C5 H4 1_555 1_555
C6 C4 1_555 1_555
C7 H5 1_555 1_555
C8 C4 1_555 1_555
H6 C8 1_555 1_555
C9 H7 1_555 1_555
C10 C5 1_555 1_555
H8 C10 1_555 1_555
C11 H9 1_555 1_555
C12 C3 1_555 1_555
H10 C12 1_555 1_555
C13 H11 1_555 1_555
C14 C19 1_555 1_555
C15 C2 1_555 1_555
H12 C15 1_555 1_555
C16 C6 1_555 1_555
C17 C1 1_555 1_555
H13 C17 1_555 1_555
C18 C9 1_555 1_555
H14 C18 1_555 1_555
C19 C1 1_555 1_555
C20 C16 1_555 1_555
C21 C2 1_555 1_555
C22 C11 1_555 1_555
H15 C22 1_555 1_555
C23 C14 1_555 1_555
C24 C13 1_555 1_555
H16 C24 1_555 1_555
C25 C15 1_555 1_555
H17 C25 1_555 1_555
C26 C9 1_555 1_555
C27 C24 1_555 1_555
H18 C27 1_555 1_555
C28 C3 1_555 1_555
H19 C28 1_555 1_555
C29 C18 1_555 1_555
H20 C29 1_555 1_555
C5 C17 1_555 1_555
C6 C12 1_555 1_555
C7 C10 1_555 1_555
C7 C19 1_555 1_555
C8 C28 1_555 1_555
C11 C26 1_555 1_555
C14 C21 1_555 1_555
C16 C21 1_555 1_555
C20 C23 1_555 1_555
C22 C29 1_555 1_555
C23 C26 1_555 1_555
C25 C27 1_555 1_555

#END
