
#######################################################################
#
#                 Cambridge Crystallographic Data Centre
#                                CCDC 
#
#######################################################################
#
# If this CIF has been generated from an entry in the Cambridge 
# Structural Database, then it will include bibliographic, chemical, 
# crystal, experimental, refinement or atomic coordinate data resulting 
# from the CCDC's data processing and validation procedures.
#
#######################################################################

data_KILJUL01
_chemical_formula_moiety         'C14 H12 N2'
_chemical_name_systematic        2-(4-methylphenyl)-1H-benzimidazole
_symmetry_cell_setting           monoclinic
_symmetry_space_group_name_H-M   'P 21/c'
_symmetry_Int_Tables_number      14
_space_group_name_Hall           '-P 2ybc'
loop_
_symmetry_equiv_pos_site_id
_symmetry_equiv_pos_as_xyz
1 x,y,z
2 -x,1/2+y,1/2-z
3 -x,-y,-z
4 x,1/2-y,1/2+z
_cell_length_a                   9.058(3)
_cell_length_b                   9.798(3)
_cell_length_c                   24.524(7)
_cell_angle_alpha                90
_cell_angle_beta                 90.00
_cell_angle_gamma                90
_cell_volume                     2176.51
_exptl_crystal_colour            white
_exptl_crystal_description       needle
_cell_formula_units_Z            8
loop_
_atom_site_label
_atom_site_type_symbol
_atom_site_fract_x
_atom_site_fract_y
_atom_site_fract_z
N1 N 0.28114(19) 0.14174(18) 0.35362(7)
H1 H 0.2343 0.2175 0.3574
N2 N 0.33189(19) -0.08015(17) 0.35984(8)
C1 C -0.3329(3) -0.0700(3) 0.47013(13)
H2 H -0.4047 -0.0147 0.4517
H3 H -0.3295 -0.0449 0.5080
H4 H -0.3598 -0.1644 0.4669
C2 C -0.1838(3) -0.0478(3) 0.44486(10)
C3 C -0.1604(3) 0.0605(3) 0.41004(11)
H5 H -0.2378 0.1196 0.4021
C4 C -0.0241(3) 0.0826(3) 0.38685(11)
H6 H -0.0108 0.1566 0.3636
C5 C 0.0931(2) -0.0035(2) 0.39755(9)
C6 C 0.2357(2) 0.0174(2) 0.37129(9)
C7 C 0.4155(2) 0.1245(2) 0.32868(8)
C8 C 0.5088(2) 0.2152(2) 0.30247(9)
H7 H 0.4878 0.3080 0.3006
C9 C 0.6337(3) 0.1615(3) 0.27942(10)
H8 H 0.6983 0.2189 0.2609
C10 C 0.6661(3) 0.0229(3) 0.28303(10)
H9 H 0.7521 -0.0100 0.2670
C11 C 0.5747(3) -0.0658(2) 0.30951(10)
H10 H 0.5979 -0.1580 0.3121
C12 C 0.4463(2) -0.0146(2) 0.33248(9)
C13 C -0.0662(3) -0.1327(3) 0.45575(10)
H11 H -0.0795 -0.2061 0.4793
C14 C 0.0699(2) -0.1117(2) 0.43274(9)
H12 H 0.1473 -0.1707 0.4409
N3 N 0.16840(19) 0.41952(18) 0.35987(8)
N4 N 0.21910(19) 0.64146(18) 0.35367(7)
H13 H 0.2661 0.7171 0.3574
C15 C 0.8330(3) 0.4301(3) 0.47054(13)
H14 H 0.8703 0.3420 0.4603
H15 H 0.8240 0.4346 0.5095
H16 H 0.8999 0.4996 0.4582
C16 C 0.6841(3) 0.4519(3) 0.44485(10)
C17 C 0.5665(3) 0.3674(3) 0.45576(10)
H17 H 0.5798 0.2942 0.4794
C18 C 0.4302(2) 0.3880(2) 0.43288(9)
H18 H 0.3530 0.3288 0.4410
C19 C 0.4071(2) 0.4963(2) 0.39773(9)
C20 C 0.2645(2) 0.5172(2) 0.37125(8)
C21 C 0.0535(2) 0.4853(2) 0.33255(9)
C22 C -0.0747(3) 0.4338(2) 0.30944(10)
H19 H -0.0977 0.3415 0.3118
C23 C -0.1663(3) 0.5230(3) 0.28306(10)
H20 H -0.2525 0.4902 0.2672
C24 C -0.1339(3) 0.6615(3) 0.27939(10)
H21 H -0.1986 0.7190 0.2610
C25 C -0.0088(3) 0.7148(2) 0.30238(9)
H22 H 0.0124 0.8075 0.3003
C26 C 0.0845(2) 0.6249(2) 0.32872(9)
C27 C 0.6600(3) 0.5601(3) 0.41005(11)
H23 H 0.7374 0.6193 0.4021
C28 C 0.5235(3) 0.5825(3) 0.38669(11)
H24 H 0.5101 0.6562 0.3633
loop_
_geom_bond_atom_site_label_1
_geom_bond_atom_site_label_2
_geom_bond_site_symmetry_1
_geom_bond_site_symmetry_2
N1 H1 1_555 1_555
N2 C6 1_555 1_555
C1 H2 1_555 1_555
H3 C1 1_555 1_555
H4 C1 1_555 1_555
C2 C1 1_555 1_555
C3 C2 1_555 1_555
H5 C3 1_555 1_555
C4 C3 1_555 1_555
H6 C4 1_555 1_555
C5 C4 1_555 1_555
C6 N1 1_555 1_555
C7 N1 1_555 1_555
C8 C7 1_555 1_555
H7 C8 1_555 1_555
C9 C8 1_555 1_555
H8 C9 1_555 1_555
C10 C9 1_555 1_555
H9 C10 1_555 1_555
C11 C10 1_555 1_555
H10 C11 1_555 1_555
C12 N2 1_555 1_555
C13 C2 1_555 1_555
H11 C13 1_555 1_555
C14 C5 1_555 1_555
H12 C14 1_555 1_555
N3 C20 1_555 1_555
N4 H13 1_555 1_555
C15 H14 1_555 1_555
H15 C15 1_555 1_555
H16 C15 1_555 1_555
C16 C15 1_555 1_555
C17 C16 1_555 1_555
H17 C17 1_555 1_555
C18 C17 1_555 1_555
H18 C18 1_555 1_555
C19 C18 1_555 1_555
C20 N4 1_555 1_555
C21 N3 1_555 1_555
C22 C21 1_555 1_555
H19 C22 1_555 1_555
C23 C22 1_555 1_555
H20 C23 1_555 1_555
C24 C23 1_555 1_555
H21 C24 1_555 1_555
C25 C24 1_555 1_555
H22 C25 1_555 1_555
C26 N4 1_555 1_555
C27 C16 1_555 1_555
H23 C27 1_555 1_555
C28 C19 1_555 1_555
H24 C28 1_555 1_555
C5 C6 1_555 1_555
C7 C12 1_555 1_555
C11 C12 1_555 1_555
C13 C14 1_555 1_555
C19 C20 1_555 1_555
C21 C26 1_555 1_555
C25 C26 1_555 1_555
C27 C28 1_555 1_555

#END
