
#######################################################################
#
#                 Cambridge Crystallographic Data Centre
#                                CCDC 
#
#######################################################################
#
# If this CIF has been generated from an entry in the Cambridge 
# Structural Database, then it will include bibliographic, chemical, 
# crystal, experimental, refinement or atomic coordinate data resulting 
# from the CCDC's data processing and validation procedures.
#
#######################################################################

data_KILNOL
_chemical_formula_moiety         'C34 H26 O2,C2 H6 O1'
_chemical_name_systematic        
'2,5-bis(2,2-diphenylethenyl)benzene-1,4-diol ethanol solvate'
_symmetry_cell_setting           orthorhombic
_symmetry_space_group_name_H-M   'P b c a'
_symmetry_Int_Tables_number      61
_space_group_name_Hall           '-P 2ac 2ab'
loop_
_symmetry_equiv_pos_site_id
_symmetry_equiv_pos_as_xyz
1 x,y,z
2 1/2-x,-y,1/2+z
3 1/2+x,1/2-y,-z
4 -x,1/2+y,1/2-z
5 -x,-y,-z
6 1/2+x,y,1/2-z
7 1/2-x,1/2+y,z
8 x,1/2-y,1/2+z
_cell_length_a                   18.1516(15)
_cell_length_b                   10.5320(10)
_cell_length_c                   28.615(2)
_cell_angle_alpha                90
_cell_angle_beta                 90
_cell_angle_gamma                90
_cell_volume                     5470.41
_exptl_crystal_colour            yellow
_exptl_crystal_description       Block
_cell_formula_units_Z            8
loop_
_atom_site_label
_atom_site_type_symbol
_atom_site_fract_x
_atom_site_fract_y
_atom_site_fract_z
C1 C 0.35688(17) 0.0677(4) 0.06589(11)
H1 H 0.3651 0.1502 0.0763
C2 C 0.3962(2) 0.0212(5) 0.02787(13)
H2 H 0.4313 0.0719 0.0133
C3 C 0.3832(2) -0.0993(5) 0.01179(13)
H3 H 0.4094 -0.1297 -0.0138
C4 C 0.3318(2) -0.1756(4) 0.03307(13)
H4 H 0.3229 -0.2570 0.0219
C5 C 0.29344(19) -0.1300(4) 0.07126(11)
H5 H 0.2589 -0.1821 0.0857
C6 C 0.30507(16) -0.0089(3) 0.08860(10)
C7 C 0.26368(15) 0.0393(3) 0.13009(10)
C8 C 0.18520(16) -0.0007(3) 0.13314(10)
C9 C 0.14046(17) -0.0042(3) 0.09361(11)
H6 H 0.1598 0.0209 0.0650
C10 C 0.06848(19) -0.0438(4) 0.09595(13)
H7 H 0.0396 -0.0449 0.0691
C11 C 0.03905(19) -0.0821(4) 0.13822(15)
H8 H -0.0097 -0.1087 0.1399
C12 C 0.08199(18) -0.0808(4) 0.17767(12)
H9 H 0.0625 -0.1070 0.2061
C13 C 0.15438(17) -0.0404(3) 0.17489(11)
H10 H 0.1831 -0.0399 0.2018
C14 C 0.29889(16) 0.1097(3) 0.16179(10)
H11 H 0.3496 0.1145 0.1576
C15 C 0.27068(15) 0.1812(3) 0.20237(10)
C16 C 0.20354(14) 0.2452(3) 0.20234(10)
H12 H 0.1725 0.2363 0.1767
C17 C 0.18149(14) 0.3214(3) 0.23888(10)
C18 C 0.22680(15) 0.3384(3) 0.27824(10)
C19 C 0.29403(14) 0.2737(3) 0.27845(10)
H13 H 0.3248 0.2815 0.3043
C20 C 0.31613(15) 0.1989(3) 0.24172(10)
C21 C 0.20014(16) 0.4105(3) 0.31892(10)
H14 H 0.1496 0.4052 0.3240
C22 C 0.23670(15) 0.4826(3) 0.34980(10)
C23 C 0.31476(15) 0.5235(3) 0.34523(10)
C24 C 0.34520(16) 0.5554(3) 0.30243(11)
H15 H 0.3161 0.5508 0.2758
C25 C 0.41731(18) 0.5936(3) 0.29831(12)
H16 H 0.4363 0.6133 0.2690
C26 C 0.46156(18) 0.6030(4) 0.33706(14)
H17 H 0.5104 0.6284 0.3343
C27 C 0.43191(19) 0.5739(4) 0.38025(13)
H18 H 0.4611 0.5812 0.4068
C28 C 0.35993(17) 0.5344(3) 0.38452(11)
H19 H 0.3412 0.5146 0.4139
C29 C 0.19736(15) 0.5305(3) 0.39217(10)
C30 C 0.20543(17) 0.6561(3) 0.40684(11)
H20 H 0.2356 0.7107 0.3899
C31 C 0.1696(2) 0.7005(4) 0.44589(12)
H21 H 0.1752 0.7848 0.4550
C32 C 0.1255(2) 0.6199(5) 0.47148(12)
H22 H 0.1014 0.6497 0.4980
C33 C 0.11705(19) 0.4963(4) 0.45802(12)
H23 H 0.0871 0.4425 0.4754
C34 C 0.15267(16) 0.4506(4) 0.41885(11)
H24 H 0.1468 0.3660 0.4102
O1 O 0.38283(10) 0.1361(2) 0.24233(7)
H25 H 0.4135(13) 0.170(3) 0.2607(9)
O2 O 0.11231(10) 0.3771(2) 0.23617(7)
H26 H 0.1158 0.4762 0.2405
C35 C 1.0322(2) 0.7471(4) 0.34467(14)
H27 H 1.0710 0.8093 0.3489
H28 H 1.0513 0.6655 0.3547
C36 C 0.9707(2) 0.7811(5) 0.37479(13)
H29 H 0.9495 0.8596 0.3643
H30 H 0.9879 0.7907 0.4063
H31 H 0.9341 0.7154 0.3736
O3 O 1.01516(11) 0.7399(2) 0.29654(8)
H32 H 0.9713 0.7813 0.2799
loop_
_geom_bond_atom_site_label_1
_geom_bond_atom_site_label_2
_geom_bond_site_symmetry_1
_geom_bond_site_symmetry_2
C1 H1 1_555 1_555
C2 C1 1_555 1_555
H2 C2 1_555 1_555
C3 C2 1_555 1_555
H3 C3 1_555 1_555
C4 C3 1_555 1_555
H4 C4 1_555 1_555
C5 C4 1_555 1_555
H5 C5 1_555 1_555
C6 C1 1_555 1_555
C7 C6 1_555 1_555
C8 C7 1_555 1_555
C9 C8 1_555 1_555
H6 C9 1_555 1_555
C10 C9 1_555 1_555
H7 C10 1_555 1_555
C11 C10 1_555 1_555
H8 C11 1_555 1_555
C12 C11 1_555 1_555
H9 C12 1_555 1_555
C13 C8 1_555 1_555
H10 C13 1_555 1_555
C14 C7 1_555 1_555
H11 C14 1_555 1_555
C15 C14 1_555 1_555
C16 C15 1_555 1_555
H12 C16 1_555 1_555
C17 C16 1_555 1_555
C18 C17 1_555 1_555
C19 C18 1_555 1_555
H13 C19 1_555 1_555
C20 C15 1_555 1_555
C21 C18 1_555 1_555
H14 C21 1_555 1_555
C22 C21 1_555 1_555
C23 C22 1_555 1_555
C24 C23 1_555 1_555
H15 C24 1_555 1_555
C25 C24 1_555 1_555
H16 C25 1_555 1_555
C26 C25 1_555 1_555
H17 C26 1_555 1_555
C27 C26 1_555 1_555
H18 C27 1_555 1_555
C28 C23 1_555 1_555
H19 C28 1_555 1_555
C29 C22 1_555 1_555
C30 C29 1_555 1_555
H20 C30 1_555 1_555
C31 C30 1_555 1_555
H21 C31 1_555 1_555
C32 C31 1_555 1_555
H22 C32 1_555 1_555
C33 C32 1_555 1_555
H23 C33 1_555 1_555
C34 C29 1_555 1_555
H24 C34 1_555 1_555
O1 C20 1_555 1_555
H25 O1 1_555 1_555
O2 C17 1_555 1_555
H26 O2 1_555 1_555
C35 H27 1_555 1_555
H28 C35 1_555 1_555
C36 C35 1_555 1_555
H29 C36 1_555 1_555
H30 C36 1_555 1_555
H31 C36 1_555 1_555
O3 C35 1_555 1_555
H32 O3 1_555 1_555
C5 C6 1_555 1_555
C12 C13 1_555 1_555
C19 C20 1_555 1_555
C27 C28 1_555 1_555
C33 C34 1_555 1_555

#END
