
#######################################################################
#
#                 Cambridge Crystallographic Data Centre
#                                CCDC 
#
#######################################################################
#
# If this CIF has been generated from an entry in the Cambridge 
# Structural Database, then it will include bibliographic, chemical, 
# crystal, experimental, refinement or atomic coordinate data resulting 
# from the CCDC's data processing and validation procedures.
#
#######################################################################

data_KILVIK
_chemical_name_common            
'Orthocyclophane tetraphenylcyclotetraphosphazane'
_chemical_formula_moiety         'C36 H28 N4 P4'
_chemical_name_systematic        
1,3;5,7-bis(o-Phenylene)-2,4,6,8-tetraphenyl-1,3,5,7,2,4,6,8-tetra-azatetraphosphocane
_symmetry_cell_setting           monoclinic
_symmetry_space_group_name_H-M   'C 2/c'
_symmetry_Int_Tables_number      15
_space_group_name_Hall           '-C 2yn'
loop_
_symmetry_equiv_pos_site_id
_symmetry_equiv_pos_as_xyz
1 x,y,z
2 1/2+x,1/2+y,z
3 -x,y,1/2-z
4 1/2-x,1/2+y,1/2-z
5 -x,-y,-z
6 1/2-x,1/2-y,-z
7 x,-y,1/2+z
8 1/2+x,1/2-y,1/2+z
_cell_length_a                   18.629(4)
_cell_length_b                   9.108(2)
_cell_length_c                   18.874(3)
_cell_angle_alpha                90
_cell_angle_beta                 104.17(2)
_cell_angle_gamma                90
_cell_volume                     3104.97
_exptl_crystal_colour            colorless
_chemical_melting_point          290deg.C(dec.)
_cell_formula_units_Z            4
loop_
_atom_site_label
_atom_site_type_symbol
_atom_site_fract_x
_atom_site_fract_y
_atom_site_fract_z
P1 P 0.0800(1) 0.4985(3) -0.1929(1)
P2 P 0.0588(1) 0.3656(3) -0.3437(1)
N1 N 0.1080(3) 0.3747(8) -0.2520(3)
N2 N 0.0339(3) 0.3636(7) -0.1558(3)
C1 C 0.1078(5) 0.231(1) -0.2200(4)
C2 C 0.0636(5) 0.225(1) -0.1693(4)
C3 C 0.0504(5) 0.088(1) -0.1422(4)
C4 C 0.0824(6) -0.038(1) -0.1643(5)
C5 C 0.1286(6) -0.025(1) -0.2122(5)
C6 C 0.1410(5) 0.110(1) -0.2401(5)
C7 C 0.1658(2) 0.5116(6) -0.1209(2)
C8 C 0.2163(2) 0.6147(6) -0.1343(2)
C9 C 0.2799(2) 0.6472(6) -0.0801(2)
C10 C 0.2931(2) 0.5768(6) -0.0125(2)
C11 C 0.2426(2) 0.4737(6) 0.0008(2)
C12 C 0.1789(2) 0.4411(6) -0.0534(2)
C13 C 0.0678(4) 0.5524(5) -0.3741(3)
C14 C 0.0094(4) 0.6171(5) -0.4251(3)
C15 C 0.0185(4) 0.7550(5) -0.4539(3)
C16 C 0.0861(4) 0.8281(5) -0.4317(3)
C17 C 0.1445(4) 0.7634(5) -0.3807(3)
C18 C 0.1354(4) 0.6256(5) -0.3519(3)
H1 H 0.0156 0.0794 -0.1043
H2 H 0.0725 -0.1427 -0.1427
H3 H 0.1535 -0.1221 -0.2284
H4 H 0.1759 0.1185 -0.2780
H5 H 0.2061 0.6693 -0.1866
H6 H 0.3190 0.7270 -0.0905
H7 H 0.3423 0.6020 0.0294
H8 H 0.2528 0.4191 0.0532
H9 H 0.1399 0.3613 -0.0430
H10 H -0.0429 0.5605 -0.4423
H11 H -0.0267 0.8050 -0.4934
H12 H 0.0932 0.9349 -0.4540
H13 H 0.1968 0.8201 -0.3635
H14 H 0.1806 0.5755 -0.3124
N2B N -0.0339(3) 0.3636(7) -0.3442(3)
P2B P -0.0588(1) 0.3656(3) -0.1563(1)
P1B P -0.0800(1) 0.4985(3) -0.3071(1)
C2B C -0.0636(5) 0.225(1) -0.3307(4)
N1B N -0.1080(3) 0.3747(8) -0.2480(3)
C13B C -0.0678(4) 0.5524(5) -0.1259(3)
C7B C -0.1658(2) 0.5116(6) -0.3791(2)
C1B C -0.1078(5) 0.231(1) -0.2800(4)
C3B C -0.0504(5) 0.088(1) -0.3578(4)
C14B C -0.0094(4) 0.6171(5) -0.0749(3)
C18B C -0.1354(4) 0.6256(5) -0.1481(3)
C8B C -0.2163(2) 0.6147(6) -0.3657(2)
C12B C -0.1789(2) 0.4411(6) -0.4466(2)
C6B C -0.1410(5) 0.110(1) -0.2599(5)
C4B C -0.0824(6) -0.038(1) -0.3357(5)
H1B H -0.0156 0.0794 -0.3957
C15B C -0.0185(4) 0.7550(5) -0.0461(3)
H10B H 0.0429 0.5605 -0.0577
C17B C -0.1445(4) 0.7634(5) -0.1193(3)
H14B H -0.1806 0.5755 -0.1876
C9B C -0.2799(2) 0.6472(6) -0.4199(2)
H5B H -0.2061 0.6693 -0.3134
C11B C -0.2426(2) 0.4737(6) -0.5008(2)
H9B H -0.1399 0.3613 -0.4570
C5B C -0.1286(6) -0.025(1) -0.2878(5)
H4B H -0.1759 0.1185 -0.2220
H2B H -0.0725 -0.1427 -0.3573
C16B C -0.0861(4) 0.8281(5) -0.0683(3)
H11B H 0.0267 0.8050 -0.0066
H13B H -0.1968 0.8201 -0.1365
C10B C -0.2931(2) 0.5768(6) -0.4875(2)
H6B H -0.3190 0.7270 -0.4095
H8B H -0.2528 0.4191 -0.5532
H3B H -0.1535 -0.1221 -0.2716
H12B H -0.0932 0.9349 -0.0460
H7B H -0.3423 0.6020 -0.5294
loop_
_geom_bond_atom_site_label_1
_geom_bond_atom_site_label_2
_geom_bond_site_symmetry_1
_geom_bond_site_symmetry_2
P1 N1 1_555 1_555
P2 N1 1_555 1_555
N1 C1 1_555 1_555
N2 P1 1_555 1_555
C1 C2 1_555 1_555
C2 N2 1_555 1_555
C3 C2 1_555 1_555
C4 C3 1_555 1_555
C5 C4 1_555 1_555
C6 C1 1_555 1_555
C7 P1 1_555 1_555
C8 C7 1_555 1_555
C9 C8 1_555 1_555
C10 C9 1_555 1_555
C11 C10 1_555 1_555
C12 C7 1_555 1_555
C13 P2 1_555 1_555
C14 C13 1_555 1_555
C15 C14 1_555 1_555
C16 C15 1_555 1_555
C17 C16 1_555 1_555
C18 C13 1_555 1_555
H1 C3 1_555 1_555
H2 C4 1_555 1_555
H3 C5 1_555 1_555
H4 C6 1_555 1_555
H5 C8 1_555 1_555
H6 C9 1_555 1_555
H7 C10 1_555 1_555
H8 C11 1_555 1_555
H9 C12 1_555 1_555
H10 C14 1_555 1_555
H11 C15 1_555 1_555
H12 C16 1_555 1_555
H13 C17 1_555 1_555
H14 C18 1_555 1_555
N2B P2 1_555 1_555
P2B N2 1_555 1_555
P1B N2B 1_555 1_555
C2B N2B 1_555 1_555
N1B P2B 1_555 1_555
C13B P2B 1_555 1_555
C7B P1B 1_555 1_555
C1B C2B 1_555 1_555
C3B C2B 1_555 1_555
C14B C13B 1_555 1_555
C18B C13B 1_555 1_555
C8B C7B 1_555 1_555
C12B C7B 1_555 1_555
C6B C1B 1_555 1_555
C4B C3B 1_555 1_555
H1B C3B 1_555 1_555
C15B C14B 1_555 1_555
H10B C14B 1_555 1_555
C17B C18B 1_555 1_555
H14B C18B 1_555 1_555
C9B C8B 1_555 1_555
H5B C8B 1_555 1_555
C11B C12B 1_555 1_555
H9B C12B 1_555 1_555
C5B C6B 1_555 1_555
H4B C6B 1_555 1_555
H2B C4B 1_555 1_555
C16B C15B 1_555 1_555
H11B C15B 1_555 1_555
H13B C17B 1_555 1_555
C10B C9B 1_555 1_555
H6B C9B 1_555 1_555
H8B C11B 1_555 1_555
H3B C5B 1_555 1_555
H12B C16B 1_555 1_555
H7B C10B 1_555 1_555
C5 C6 1_555 1_555
C11 C12 1_555 1_555
C17 C18 1_555 1_555
P1B N1B 1_555 1_555
N1B C1B 1_555 1_555
C4B C5B 1_555 1_555
C17B C16B 1_555 1_555
C11B C10B 1_555 1_555

#END
