
#######################################################################
#
#                 Cambridge Crystallographic Data Centre
#                                CCDC 
#
#######################################################################
#
# If this CIF has been generated from an entry in the Cambridge 
# Structural Database, then it will include bibliographic, chemical, 
# crystal, experimental, refinement or atomic coordinate data resulting 
# from the CCDC's data processing and validation procedures.
#
#######################################################################

data_KINHOG
_chemical_formula_moiety         
'C28 H25 O16 S4 1-,C4 H7 N1,C1 H6 N3 1+,0.5(C1 H5 N3),5(H2 O1)'
_chemical_name_systematic        
'guanidinium sulfocalix[4]arene guanidine pyrroline clathrate pentahydrate'
_symmetry_cell_setting           monoclinic
_symmetry_space_group_name_H-M   'C 2/m'
_symmetry_Int_Tables_number      12
_space_group_name_Hall           '-C 2y'
loop_
_symmetry_equiv_pos_site_id
_symmetry_equiv_pos_as_xyz
1 x,y,z
2 -x,y,-z
3 1/2+x,1/2+y,z
4 1/2-x,1/2+y,-z
5 -x,-y,-z
6 x,-y,z
7 1/2-x,1/2-y,-z
8 1/2+x,1/2-y,z
_cell_length_a                   21.150(4)
_cell_length_b                   18.254(3)
_cell_length_c                   15.735(3)
_cell_angle_alpha                90
_cell_angle_beta                 109.559(3)
_cell_angle_gamma                90
_cell_volume                     5724.31
_exptl_crystal_colour            orange
_exptl_crystal_description       plate
_cell_formula_units_Z            4
loop_
_atom_site_label
_atom_site_type_symbol
_atom_site_fract_x
_atom_site_fract_y
_atom_site_fract_z
C17 C 0.3595(10) 0.0000 0.2591(10)
N1 N 0.2994(7) 0.0000 0.2596(9)
H12 H 0.2801 0.0415 0.2653
N2 N 0.3926(5) 0.0625(5) 0.2673(6)
H13 H 0.3730 0.1039 0.2730
H14 H 0.4341 0.0627 0.2670
H12E H 0.2801 -0.0415 0.2653
N2E N 0.3926(5) -0.0625(5) 0.2673(6)
H13E H 0.3730 -0.1039 0.2730
H14E H 0.4341 -0.0627 0.2670
N3 N 0.2815(7) 0.4629(3) 0.3667(8)
H15 H 0.2842 0.4329 0.4171
C18 C 0.2769(8) 0.4362(8) 0.2775(7)
H16 H 0.2412 0.3986 0.2567
H17 H 0.3200 0.4141 0.2789
C19 C 0.2608(11) 0.5000 0.2168(13)
H18 H 0.2883 0.5000 0.1767
H19 H 0.2128 0.5000 0.1791
N3E N 0.2815(7) 0.5371(3) 0.3667(8)
H15E H 0.2842 0.5671 0.4171
C18E C 0.2769(8) 0.5638(8) 0.2775(7)
H16E H 0.2412 0.6014 0.2567
H17E H 0.3200 0.5859 0.2789
S1 S 0.0643(2) 0.5000 0.2769(3)
S2 S 0.26165(16) 0.19862(14) 0.25298(19)
S3 S 0.5024(2) 0.5000 0.3106(3)
O1 O 0.0262(5) 0.4348(5) 0.2753(7)
O2 O 0.1340(6) 0.5000 0.3336(13)
O3 O 0.2270(3) 0.1311(3) 0.2168(5)
O4 O 0.3321(4) 0.1910(3) 0.2918(4)
O5 O 0.2315(5) 0.2290(5) 0.3126(6)
O6 O 0.5423(6) 0.5653(6) 0.3186(8)
O7 O 0.4671(11) 0.5000 0.3742(12)
O8 O 0.1038(3) 0.5000 -0.0761(5)
H1 H 0.1070 0.5434 -0.0920
O9 O 0.2054(2) 0.4009(2) -0.0540(3)
H2 H 0.1639 0.4090 -0.0743
O10 O 0.3004(3) 0.5000 -0.0513(5)
H3 H 0.2914 0.4566 -0.0690
C1 C 0.0718(5) 0.5000 0.1695(8)
C2 C 0.0766(3) 0.4349(5) 0.1259(6)
H4 H 0.0720 0.3898 0.1535
C3 C 0.0875(3) 0.4331(4) 0.0454(6)
C4 C 0.0927(4) 0.5000 0.0055(7)
C5 C 0.0954(3) 0.3604(4) 0.0022(6)
H5 H 0.0875 0.3678 -0.0629
H6 H 0.0620 0.3248 0.0085
C6 C 0.1666(3) 0.3303(4) 0.0484(6)
C7 C 0.1815(4) 0.2828(4) 0.1193(6)
H7 H 0.1466 0.2656 0.1396
C8 C 0.2461(5) 0.2596(3) 0.1616(5)
C9 C 0.2970(4) 0.2839(4) 0.1311(6)
H8 H 0.3414 0.2664 0.1598
C10 C 0.2854(3) 0.3319(4) 0.0614(5)
C11 C 0.2194(4) 0.3547(4) 0.0180(6)
C12 C 0.3415(3) 0.3607(3) 0.0308(5)
H9 H 0.3780 0.3239 0.0449
H10 H 0.3243 0.3676 -0.0354
C13 C 0.3454(5) 0.5000 0.0321(8)
C14 C 0.3696(3) 0.4325(3) 0.0756(5)
C15 C 0.4170(3) 0.4344(4) 0.1603(5)
H11 H 0.4338 0.3896 0.1898
C16 C 0.4412(5) 0.5000 0.2042(7)
S2E S 0.26165(16) 0.80138(14) 0.25298(19)
O1E O 0.0262(5) 0.5652(5) 0.2753(7)
O3E O 0.2270(3) 0.8689(3) 0.2168(5)
O4E O 0.3321(4) 0.8090(3) 0.2918(4)
O5E O 0.2315(5) 0.7710(5) 0.3126(6)
O6E O 0.5423(6) 0.4347(6) 0.3186(8)
H1E H 0.1070 0.4566 -0.0920
O9E O 0.2054(2) 0.5991(2) -0.0540(3)
H2E H 0.1639 0.5910 -0.0743
H3E H 0.2914 0.5434 -0.0690
C2E C 0.0766(3) 0.5651(5) 0.1259(6)
H4E H 0.0720 0.6102 0.1535
C3E C 0.0875(3) 0.5669(4) 0.0454(6)
C5E C 0.0954(3) 0.6396(4) 0.0022(6)
H5E H 0.0875 0.6322 -0.0629
H6E H 0.0620 0.6752 0.0085
C6E C 0.1666(3) 0.6697(4) 0.0484(6)
C7E C 0.1815(4) 0.7172(4) 0.1193(6)
H7E H 0.1466 0.7344 0.1396
C8E C 0.2461(5) 0.7404(3) 0.1616(5)
C9E C 0.2970(4) 0.7161(4) 0.1311(6)
H8E H 0.3414 0.7336 0.1598
C10E C 0.2854(3) 0.6681(4) 0.0614(5)
C11E C 0.2194(4) 0.6453(4) 0.0180(6)
C12E C 0.3415(3) 0.6393(3) 0.0308(5)
H9E H 0.3780 0.6761 0.0449
H10E H 0.3243 0.6324 -0.0354
C14E C 0.3696(3) 0.5675(3) 0.0756(5)
C15E C 0.4170(3) 0.5656(4) 0.1603(5)
H11E H 0.4338 0.6104 0.1898
O11? O 0.1085(10) 0.4450(10) 0.3330(13)
O12? O -0.0031(8) 0.5000 0.278(2)
O13? O 0.4911(11) 0.4384(9) 0.3602(12)
O14? O 0.5636(9) 0.5000 0.290(2)
O15? O 0.4266(10) 0.1283(11) 0.2057(13)
C20? C 0.2815(7) 0.4629(3) 0.3667(8)
H20? H 0.2773 -0.0415 0.2541
loop_
_geom_bond_atom_site_label_1
_geom_bond_atom_site_label_2
_geom_bond_site_symmetry_1
_geom_bond_site_symmetry_2
S1 O1 1_555 1_555
S2 O3 1_555 1_555
S3 O6 1_555 1_555
O2 S1 1_555 1_555
O4 S2 1_555 1_555
O5 S2 1_555 1_555
O7 S3 1_555 1_555
O8 H1 1_555 1_555
O9 H2 1_555 1_555
O10 H3 1_555 1_555
C1 S1 1_555 1_555
C2 C1 1_555 1_555
H4 C2 1_555 1_555
C3 C2 1_555 1_555
C4 O8 1_555 1_555
C5 C3 1_555 1_555
H5 C5 1_555 1_555
H6 C5 1_555 1_555
C6 C5 1_555 1_555
C7 C6 1_555 1_555
H7 C7 1_555 1_555
C8 S2 1_555 1_555
C9 C8 1_555 1_555
H8 C9 1_555 1_555
C10 C9 1_555 1_555
C11 O9 1_555 1_555
C12 C10 1_555 1_555
H9 C12 1_555 1_555
H10 C12 1_555 1_555
C13 O10 1_555 1_555
C14 C12 1_555 1_555
C15 C14 1_555 1_555
H11 C15 1_555 1_555
C16 S3 1_555 1_555
C17 N1 1_555 1_555
N1 H12 1_555 1_555
N2 C17 1_555 1_555
H13 N2 1_555 1_555
H14 N2 1_555 1_555
N3 H15 1_555 1_555
C18 N3 1_555 1_555
H16 C18 1_555 1_555
H17 C18 1_555 1_555
C19 C18 1_555 1_555
H18 C19 1_555 1_555
H19 C19 1_555 1_555
S2E O3E 1_555 1_555
O1E S1 1_555 1_555
O4E S2E 1_555 1_555
O5E S2E 1_555 1_555
O6E S3 1_555 1_555
H1E O8 1_555 1_555
O9E H2E 1_555 1_555
H3E O10 1_555 1_555
C2E C1 1_555 1_555
H4E C2E 1_555 1_555
C3E C4 1_555 1_555
C5E C3E 1_555 1_555
H5E C5E 1_555 1_555
H6E C5E 1_555 1_555
C6E C5E 1_555 1_555
C7E C6E 1_555 1_555
H7E C7E 1_555 1_555
C8E S2E 1_555 1_555
C9E C8E 1_555 1_555
H8E C9E 1_555 1_555
C10E C9E 1_555 1_555
C11E O9E 1_555 1_555
C12E C10E 1_555 1_555
H9E C12E 1_555 1_555
H10E C12E 1_555 1_555
C14E C13 1_555 1_555
C15E C16 1_555 1_555
H11E C15E 1_555 1_555
H12E N1 1_555 1_555
N2E C17 1_555 1_555
H13E N2E 1_555 1_555
H14E N2E 1_555 1_555
N3E N3 1_555 1_555
H15E N3E 1_555 1_555
C18E C19 1_555 1_555
H16E C18E 1_555 1_555
H17E C18E 1_555 1_555
C3 C4 1_555 1_555
C6 C11 1_555 1_555
C7 C8 1_555 1_555
C10 C11 1_555 1_555
C13 C14 1_555 1_555
C15 C16 1_555 1_555
C2E C3E 1_555 1_555
C6E C11E 1_555 1_555
C7E C8E 1_555 1_555
C10E C11E 1_555 1_555
C12E C14E 1_555 1_555
C14E C15E 1_555 1_555
N3E C18E 1_555 1_555

#END
