
#######################################################################
#
#                 Cambridge Crystallographic Data Centre
#                                CCDC 
#
#######################################################################
#
# If this CIF has been generated from an entry in the Cambridge 
# Structural Database, then it will include bibliographic, chemical, 
# crystal, experimental, refinement or atomic coordinate data resulting 
# from the CCDC's data processing and validation procedures.
#
#######################################################################

data_KINHIB
_chemical_formula_moiety         'C46 H32 N4'
_chemical_name_systematic        
9,9-diphenyl-10-{4-[2-phenyl-6-(pyridin-2-yl)pyrimidin-4-yl]phenyl}-9,10-dihydroacridine
_symmetry_cell_setting           triclinic
_symmetry_space_group_name_H-M   'P -1'
_symmetry_Int_Tables_number      2
_space_group_name_Hall           '-P 1'
loop_
_symmetry_equiv_pos_site_id
_symmetry_equiv_pos_as_xyz
1 x,y,z
2 -x,-y,-z
_cell_length_a                   9.36291(19)
_cell_length_b                   10.3424(3)
_cell_length_c                   18.1892(5)
_cell_angle_alpha                97.675(2)
_cell_angle_beta                 91.130(2)
_cell_angle_gamma                109.359(2)
_cell_volume                     1643.02
_exptl_crystal_colour            'light colorless'
_exptl_crystal_description       block
_cell_formula_units_Z            2
loop_
_atom_site_label
_atom_site_type_symbol
_atom_site_fract_x
_atom_site_fract_y
_atom_site_fract_z
N1 N 0.85439(17) 0.67181(17) 0.19003(8)
C1 C 0.7579(2) 0.6549(2) 0.25101(10)
N2 N 0.28214(18) 0.59528(18) 0.54625(9)
C2 C 1.17203(19) 0.79812(18) 0.02666(10)
C3 C 1.2547(2) 0.9230(2) 0.00404(11)
C4 C 0.5746(2) 0.6321(2) 0.37054(10)
C5 C 1.07367(19) 0.79013(18) 0.09338(10)
C6 C 0.4969(2) 0.7277(3) 0.48922(11)
N3 N 0.3560(2) 0.5033(2) 0.43184(10)
C7 C 0.90523(19) 0.73089(18) 0.06705(10)
C8 C 1.1739(2) 0.6761(2) -0.01585(11)
C9 C 1.2567(2) 0.6792(2) -0.07838(11)
C10 C 0.8002(2) 0.68677(18) 0.12010(10)
C11 C 0.7778(2) 0.7684(2) 0.30452(12)
C12 C 1.1064(2) 0.93538(19) 0.13960(10)
C13 C 1.1033(2) 0.69670(18) 0.14640(10)
C14 C 1.0105(2) 1.01195(19) 0.13590(11)
C15 C 1.0439(2) 1.1424(2) 0.17788(11)
C16 C 0.3986(2) 0.7125(2) 0.54528(11)
C17 C 0.4173(2) 0.8268(2) 0.60740(12)
C18 C 1.3378(2) 0.9259(2) -0.05893(12)
C19 C 0.6866(2) 0.7565(2) 0.36399(12)
C20 C 1.2388(2) 0.6689(2) 0.15270(11)
C21 C 0.6497(2) 0.5290(2) 0.25770(11)
C22 C 0.8511(2) 0.73472(19) -0.00413(10)
C23 C 0.2637(2) 0.4938(2) 0.48945(11)
C24 C 0.5582(2) 0.5177(2) 0.31734(11)
C25 C 0.4734(2) 0.6216(2) 0.43317(11)
C26 C 0.5953(2) 0.6676(2) 0.03209(11)
C27 C 0.9940(2) 0.64990(19) 0.19736(10)
C28 C 1.0244(2) 0.5830(2) 0.25442(11)
C29 C 0.3137(3) 0.8116(3) 0.66216(12)
C30 C 1.2679(2) 0.6012(2) 0.20917(12)
C31 C 0.6970(2) 0.7025(2) -0.02235(11)
C32 C 1.3399(2) 0.8048(2) -0.09964(12)
C33 C 1.1620(2) 0.5608(2) 0.26073(11)
C34 C 0.4507(3) 1.0418(3) 0.72006(13)
N4 N 0.5353(2) 0.9474(2) 0.60910(11)
C35 C 0.1340(3) 0.3650(2) 0.49013(12)
C36 C 0.6457(2) 0.6579(2) 0.10260(11)
C37 C 0.3309(3) 0.9208(3) 0.71839(13)
C38 C 0.0285(3) 0.3590(3) 0.54358(13)
C39 C 0.1173(3) 0.2502(3) 0.43822(14)
C40 C 0.5510(3) 1.0520(3) 0.66434(14)
C41 C 1.1795(3) 1.2008(3) 0.22232(14)
C42 C 1.2439(3) 0.9971(2) 0.18264(14)
C43 C -0.0913(3) 0.2379(3) 0.54472(16)
C44 C 1.2818(3) 1.1291(3) 0.22346(15)
C45 C -0.1055(4) 0.1242(3) 0.49275(19)
C46 C -0.0002(4) 0.1316(3) 0.43946(18)
H1 H 0.922(3) 0.978(3) 0.1010(14)
H2 H 0.661(3) 0.708(2) -0.0729(14)
H3 H 1.364(3) 0.588(3) 0.2143(14)
H4 H 0.487(3) 0.647(2) 0.0198(13)
H5 H 1.316(3) 0.701(2) 0.1179(14)
H6 H 0.477(3) 0.429(3) 0.3213(13)
H7 H 1.122(3) 0.586(2) -0.0023(13)
H8 H -0.167(3) 0.233(3) 0.5819(17)
H9 H 0.945(3) 0.550(2) 0.2876(13)
H10 H 1.402(3) 0.804(3) -0.1453(15)
H11 H 0.920(3) 0.763(2) -0.0417(13)
H12 H 0.976(3) 1.198(3) 0.1748(14)
H13 H 0.574(3) 0.632(2) 0.1423(13)
H14 H 0.234(3) 0.727(3) 0.6588(15)
H15 H 1.394(3) 1.014(3) -0.0732(15)
H16 H 0.855(3) 0.859(3) 0.3017(14)
H17 H 1.252(3) 0.585(3) -0.1049(14)
H18 H 0.640(3) 0.446(3) 0.2241(14)
H19 H 0.043(3) 0.445(3) 0.5815(15)
H20 H 1.182(3) 0.514(3) 0.3006(14)
H21 H 1.203(3) 1.295(3) 0.2534(17)
H22 H 0.703(3) 0.842(3) 0.3983(16)
H23 H 0.642(3) 1.147(3) 0.6634(17)
H24 H 0.257(3) 0.912(3) 0.7558(17)
H25 H 1.328(3) 0.942(3) 0.1814(15)
H26 H 1.398(4) 1.181(3) 0.2566(18)
H27 H -0.008(4) 0.049(4) 0.4041(19)
H28 H 1.256(3) 1.008(2) 0.0322(13)
H29 H 0.471(3) 1.126(3) 0.7605(16)
H30 H -0.184(4) 0.043(4) 0.4916(19)
H31 H 0.553(5) 0.792(4) 0.494(2)
H32 H 0.191(5) 0.256(5) 0.405(3)
loop_
_geom_bond_atom_site_label_1
_geom_bond_atom_site_label_2
_geom_bond_site_symmetry_1
_geom_bond_site_symmetry_2
N1 C1 1_555 1_555
C1 C11 1_555 1_555
N2 C16 1_555 1_555
C2 C3 1_555 1_555
C3 C18 1_555 1_555
C4 C19 1_555 1_555
C5 C2 1_555 1_555
C6 C16 1_555 1_555
N3 C23 1_555 1_555
C7 C5 1_555 1_555
C8 C2 1_555 1_555
C9 C8 1_555 1_555
C10 N1 1_555 1_555
C11 C19 1_555 1_555
C12 C5 1_555 1_555
C13 C5 1_555 1_555
C14 C12 1_555 1_555
C15 C14 1_555 1_555
C16 C17 1_555 1_555
C17 C29 1_555 1_555
C18 C32 1_555 1_555
C19 H22 1_555 1_555
C20 C13 1_555 1_555
C21 C1 1_555 1_555
C22 C7 1_555 1_555
C23 N2 1_555 1_555
C24 C4 1_555 1_555
C25 C4 1_555 1_555
C26 C31 1_555 1_555
C27 N1 1_555 1_555
C28 C27 1_555 1_555
C29 C37 1_555 1_555
C30 C20 1_555 1_555
C31 C22 1_555 1_555
C32 C9 1_555 1_555
C33 C28 1_555 1_555
C34 C37 1_555 1_555
N4 C17 1_555 1_555
C35 C23 1_555 1_555
C36 C10 1_555 1_555
C37 H24 1_555 1_555
C38 C35 1_555 1_555
C39 C35 1_555 1_555
C40 C34 1_555 1_555
C41 C15 1_555 1_555
C42 C12 1_555 1_555
C43 C38 1_555 1_555
C44 C41 1_555 1_555
C45 C43 1_555 1_555
C46 C39 1_555 1_555
H1 C14 1_555 1_555
H2 C31 1_555 1_555
H3 C30 1_555 1_555
H4 C26 1_555 1_555
H5 C20 1_555 1_555
H6 C24 1_555 1_555
H7 C8 1_555 1_555
H8 C43 1_555 1_555
H9 C28 1_555 1_555
H10 C32 1_555 1_555
H11 C22 1_555 1_555
H12 C15 1_555 1_555
H13 C36 1_555 1_555
H14 C29 1_555 1_555
H15 C18 1_555 1_555
H16 C11 1_555 1_555
H17 C9 1_555 1_555
H18 C21 1_555 1_555
H19 C38 1_555 1_555
H20 C33 1_555 1_555
H21 C41 1_555 1_555
H23 C40 1_555 1_555
H25 C42 1_555 1_555
H26 C44 1_555 1_555
H27 C46 1_555 1_555
H28 C3 1_555 1_555
H29 C34 1_555 1_555
H30 C45 1_555 1_555
H31 C6 1_555 1_555
H32 C39 1_555 1_555
C6 C25 1_555 1_555
N3 C25 1_555 1_555
C7 C10 1_555 1_555
C13 C27 1_555 1_555
C21 C24 1_555 1_555
C26 C36 1_555 1_555
C30 C33 1_555 1_555
N4 C40 1_555 1_555
C42 C44 1_555 1_555
C45 C46 1_555 1_555

#END
