
#######################################################################
#
#                 Cambridge Crystallographic Data Centre
#                                CCDC 
#
#######################################################################
#
# If this CIF has been generated from an entry in the Cambridge 
# Structural Database, then it will include bibliographic, chemical, 
# crystal, experimental, refinement or atomic coordinate data resulting 
# from the CCDC's data processing and validation procedures.
#
#######################################################################

data_KINXUD
_chemical_formula_moiety         'C11 H13 Cl1 N2 O1'
_chemical_name_systematic        
2-[(4-chlorophenyl)amino]-5-hydroxypentanenitrile
_symmetry_cell_setting           monoclinic
_symmetry_space_group_name_H-M   'P 21/c'
_symmetry_Int_Tables_number      14
_space_group_name_Hall           '-P 2ybc'
loop_
_symmetry_equiv_pos_site_id
_symmetry_equiv_pos_as_xyz
1 x,y,z
2 -x,1/2+y,1/2-z
3 -x,-y,-z
4 x,1/2-y,1/2+z
_cell_length_a                   11.8906(18)
_cell_length_b                   8.8166(14)
_cell_length_c                   11.2785(17)
_cell_angle_alpha                90
_cell_angle_beta                 104.338(2)
_cell_angle_gamma                90
_cell_volume                     1145.55
_exptl_crystal_colour            colorless
_exptl_crystal_description       block
_cell_formula_units_Z            4
loop_
_atom_site_label
_atom_site_type_symbol
_atom_site_fract_x
_atom_site_fract_y
_atom_site_fract_z
Cl1 Cl 1.18872(7) 0.17503(9) 0.30116(8)
N1 N 0.75741(17) 0.1337(2) 0.46945(19)
H1 H 0.7106 0.0625 0.4367
N2 N 0.6857(2) 0.5058(3) 0.4696(3)
O1 O 0.36677(15) 0.16358(19) 0.60380(19)
H2 H 0.3364 0.2442 0.5770
C1 C 1.0630(2) 0.1653(3) 0.3538(2)
C2 C 1.0440(2) 0.2669(3) 0.4389(2)
H3 H 1.0991 0.3411 0.4699
C3 C 0.9432(2) 0.2591(3) 0.4783(2)
H4 H 0.9306 0.3291 0.5354
C4 C 0.8598(2) 0.1476(2) 0.4338(2)
C5 C 0.8814(2) 0.0456(3) 0.3479(2)
H5 H 0.8270 -0.0293 0.3166
C6 C 0.9815(2) 0.0539(3) 0.3085(2)
H6 H 0.9947 -0.0154 0.2513
C7 C 0.7235(2) 0.2292(3) 0.5569(2)
H7 H 0.7857 0.2309 0.6324
C8 C 0.6114(2) 0.1658(3) 0.5853(3)
H8 H 0.5523 0.1554 0.5091
H9 H 0.6275 0.0654 0.6206
C9 C 0.5647(2) 0.2624(3) 0.6708(3)
H10 H 0.5425 0.3602 0.6329
H11 H 0.6253 0.2792 0.7448
C10 C 0.4617(2) 0.1920(3) 0.7039(3)
H12 H 0.4857 0.0970 0.7459
H13 H 0.4364 0.2586 0.7606
C11 C 0.7028(2) 0.3861(3) 0.5080(2)
loop_
_geom_bond_atom_site_label_1
_geom_bond_atom_site_label_2
_geom_bond_site_symmetry_1
_geom_bond_site_symmetry_2
Cl1 C1 1_555 1_555
N1 H1 1_555 1_555
N2 C11 1_555 1_555
O1 H2 1_555 1_555
C1 C2 1_555 1_555
C2 H3 1_555 1_555
C3 C2 1_555 1_555
H4 C3 1_555 1_555
C4 N1 1_555 1_555
C5 C4 1_555 1_555
H5 C5 1_555 1_555
C6 C1 1_555 1_555
H6 C6 1_555 1_555
C7 N1 1_555 1_555
H7 C7 1_555 1_555
C8 C7 1_555 1_555
H8 C8 1_555 1_555
H9 C8 1_555 1_555
C9 C8 1_555 1_555
H10 C9 1_555 1_555
H11 C9 1_555 1_555
C10 O1 1_555 1_555
H12 C10 1_555 1_555
H13 C10 1_555 1_555
C11 C7 1_555 1_555
C3 C4 1_555 1_555
C5 C6 1_555 1_555
C9 C10 1_555 1_555

#END
