
#######################################################################
#
#                 Cambridge Crystallographic Data Centre
#                                CCDC 
#
#######################################################################
#
# If this CIF has been generated from an entry in the Cambridge 
# Structural Database, then it will include bibliographic, chemical, 
# crystal, experimental, refinement or atomic coordinate data resulting 
# from the CCDC's data processing and validation procedures.
#
#######################################################################

data_KIPGUO
_chemical_formula_moiety         'C15 H10 O5,2(C6 H6 N2 O1)'
_chemical_name_systematic        
'bis(pyridine-3-carboxamide) 1,3,8-trihydroxy-6-methylanthracene-9,10-dione'
_symmetry_cell_setting           triclinic
_symmetry_space_group_name_H-M   'P -1'
_symmetry_Int_Tables_number      2
_space_group_name_Hall           '-P 1'
loop_
_symmetry_equiv_pos_site_id
_symmetry_equiv_pos_as_xyz
1 x,y,z
2 -x,-y,-z
_cell_length_a                   4.9826(3)
_cell_length_b                   8.0010(5)
_cell_length_c                   29.0613(15)
_cell_angle_alpha                93.611(4)
_cell_angle_beta                 92.108(4)
_cell_angle_gamma                98.668(4)
_cell_volume                     1141.79
_exptl_crystal_colour            yellow
_exptl_crystal_description       plate
_cell_formula_units_Z            2
loop_
_atom_site_label
_atom_site_type_symbol
_atom_site_fract_x
_atom_site_fract_y
_atom_site_fract_z
N1 N 0.7738(9) 0.1555(6) 0.41448(15)
N2 N 0.4295(8) -0.1873(5) 0.27753(14)
O1 O 0.3416(7) 0.0172(4) 0.40986(11)
C1 C 0.5610(10) 0.0609(6) 0.39175(17)
C2 C 0.5979(10) 0.0061(6) 0.34272(16)
C3 C 0.4089(10) -0.1243(6) 0.32126(16)
H1 H 0.2591 -0.1709 0.3381
C4 C 0.6403(11) -0.1190(7) 0.25422(17)
H2 H 0.6575 -0.1632 0.2235
C5 C 0.8326(10) 0.0114(6) 0.27223(17)
H3 H 0.9772 0.0573 0.2541
C6 C 0.8135(10) 0.0750(6) 0.31700(17)
H4 H 0.9458 0.1649 0.3302
H5 H 0.744(14) 0.205(8) 0.4467(12)
H6 H 0.928(16) 0.173(9) 0.397(3)
O2 O 1.0617(8) 0.5412(5) 0.25954(12)
H7 H 1.225(12) 0.626(8) 0.2598(19)
O3 O 0.2798(7) 0.1177(5) 0.20045(12)
O4 O 0.1221(7) 0.3173(4) 0.00688(11)
H8 H 0.264(11) 0.394(7) 0.0133(18)
O5 O 0.5509(6) 0.4746(4) 0.05358(10)
O6 O 0.9747(7) 0.6422(4) 0.10074(11)
H9 H 0.887(11) 0.602(7) 0.0784(19)
C7 C -0.4855(10) -0.1121(6) 0.07890(18)
H10 H -0.5066 -0.1627 0.1086
H11 H -0.4644 -0.2001 0.0549
H12 H -0.6466 -0.0609 0.0712
C8 C -0.2379(9) 0.0220(6) 0.08191(17)
C9 C -0.0768(9) 0.0591(6) 0.12253(17)
H13 H -0.1262 0.0001 0.1490
C10 C 0.1552(10) 0.1810(6) 0.12507(16)
C11 C 0.3264(10) 0.2093(6) 0.16868(17)
C12 C 0.5611(9) 0.3484(6) 0.17188(16)
C13 C 0.7022(10) 0.3853(6) 0.21327(17)
H14 H 0.6461 0.3252 0.2393
C14 C 0.9307(10) 0.5124(6) 0.21725(16)
C15 C 1.0157(10) 0.5962(6) 0.17890(16)
H15 H 1.1735 0.6798 0.1815
C16 C -0.1614(10) 0.1131(6) 0.04420(17)
H16 H -0.2693 0.0901 0.0162
C17 C 0.0682(9) 0.2372(6) 0.04588(16)
C18 C 0.2322(9) 0.2729(6) 0.08690(16)
C19 C 0.4774(9) 0.4002(6) 0.08901(16)
C20 C 0.6360(9) 0.4368(6) 0.13260(15)
C21 C 0.8737(10) 0.5598(6) 0.13668(16)
N3 N 0.2802(9) 0.1856(6) 0.50411(16)
O7 O 0.7359(6) 0.2635(4) 0.50822(11)
C22 C 0.5088(10) 0.2685(6) 0.52466(16)
N4 N 0.7204(9) 0.5981(5) 0.62110(15)
C23 C 0.4897(9) 0.3716(6) 0.56882(16)
C24 C 0.7016(10) 0.5025(6) 0.58143(17)
H17 H 0.8422 0.5253 0.5604
C25 C 0.5198(11) 0.5609(7) 0.64984(18)
H18 H 0.5325 0.6237 0.6789
C26 C 0.2973(10) 0.4388(6) 0.64036(17)
H19 H 0.1573 0.4221 0.6617
C27 C 0.2798(10) 0.3396(6) 0.59885(16)
H20 H 0.1295 0.2528 0.5913
H21 H 0.113(11) 0.203(7) 0.5132(18)
H22 H 0.295(10) 0.129(6) 0.4802(18)
loop_
_geom_bond_atom_site_label_1
_geom_bond_atom_site_label_2
_geom_bond_site_symmetry_1
_geom_bond_site_symmetry_2
N1 C1 1_555 1_555
N2 C3 1_555 1_555
O1 C1 1_555 1_555
C1 C2 1_555 1_555
C2 C3 1_555 1_555
C3 H1 1_555 1_555
C4 N2 1_555 1_555
H2 C4 1_555 1_555
C5 C4 1_555 1_555
H3 C5 1_555 1_555
C6 C2 1_555 1_555
H4 C6 1_555 1_555
H5 N1 1_555 1_555
H6 N1 1_555 1_555
O2 H7 1_555 1_555
O3 C11 1_555 1_555
O4 H8 1_555 1_555
O5 C19 1_555 1_555
O6 H9 1_555 1_555
C7 H10 1_555 1_555
H11 C7 1_555 1_555
H12 C7 1_555 1_555
C8 C7 1_555 1_555
C9 C8 1_555 1_555
H13 C9 1_555 1_555
C10 C9 1_555 1_555
C11 C10 1_555 1_555
C12 C11 1_555 1_555
C13 C12 1_555 1_555
H14 C13 1_555 1_555
C14 O2 1_555 1_555
C15 C14 1_555 1_555
H15 C15 1_555 1_555
C16 C8 1_555 1_555
H16 C16 1_555 1_555
C17 O4 1_555 1_555
C18 C10 1_555 1_555
C19 C18 1_555 1_555
C20 C12 1_555 1_555
C21 O6 1_555 1_555
N3 C22 1_555 1_555
O7 C22 1_555 1_555
C22 C23 1_555 1_555
N4 C24 1_555 1_555
C23 C24 1_555 1_555
C24 H17 1_555 1_555
C25 N4 1_555 1_555
H18 C25 1_555 1_555
C26 C25 1_555 1_555
H19 C26 1_555 1_555
C27 C23 1_555 1_555
H20 C27 1_555 1_555
H21 N3 1_555 1_555
H22 N3 1_555 1_555
C5 C6 1_555 1_555
C13 C14 1_555 1_555
C15 C21 1_555 1_555
C16 C17 1_555 1_555
C17 C18 1_555 1_555
C19 C20 1_555 1_555
C20 C21 1_555 1_555
C26 C27 1_555 1_555

#END
