
#######################################################################
#
#                 Cambridge Crystallographic Data Centre
#                                CCDC 
#
#######################################################################
#
# If this CIF has been generated from an entry in the Cambridge 
# Structural Database, then it will include bibliographic, chemical, 
# crystal, experimental, refinement or atomic coordinate data resulting 
# from the CCDC's data processing and validation procedures.
#
#######################################################################

data_KIPHOJ
_chemical_formula_moiety         '2(C15 H10 O5),C10 H8 N2'
_chemical_name_systematic        
"bis(1,3,8-trihydroxy-6-methylanthracene-9,10-dione) 4,4'-bipyridine"
_symmetry_cell_setting           triclinic
_symmetry_space_group_name_H-M   'P -1'
_symmetry_Int_Tables_number      2
_space_group_name_Hall           '-P 1'
loop_
_symmetry_equiv_pos_site_id
_symmetry_equiv_pos_as_xyz
1 x,y,z
2 -x,-y,-z
_cell_length_a                   8.2627(3)
_cell_length_b                   9.0671(3)
_cell_length_c                   11.0482(3)
_cell_angle_alpha                73.980(2)
_cell_angle_beta                 80.975(2)
_cell_angle_gamma                76.528(2)
_cell_volume                     769.878
_exptl_crystal_colour            brown
_exptl_crystal_description       plate
_cell_formula_units_Z            1
loop_
_atom_site_label
_atom_site_type_symbol
_atom_site_fract_x
_atom_site_fract_y
_atom_site_fract_z
O1 O 0.90820(16) 0.97107(14) 0.19709(13)
H1 H 0.938(3) 0.975(3) 0.268(2)
O2 O 0.96392(15) 0.87989(14) 0.43561(11)
O3 O 1.02045(16) 0.79310(15) 0.67138(13)
H2 H 1.017(3) 0.847(2) 0.588(2)
O4 O 0.67026(15) 0.38739(13) 0.50014(12)
C1 C 0.7561(2) 0.8295(2) 0.12649(17)
H3 H 0.7635 0.8999 0.0452
O5 O 0.60061(17) 0.67949(16) 0.05636(13)
C2 C 0.8116(2) 0.3437(2) 0.94660(17)
H4 H 0.9083 0.2566 0.9589
H5 H 0.7100 0.3026 0.9531
H6 H 0.8007 0.4010 1.0117
C3 C 0.8358(2) 0.4523(2) 0.81787(17)
C4 C 0.7754(2) 0.43143(19) 0.71336(16)
H7 H 0.7211 0.3464 0.7241
C5 C 0.79316(19) 0.53174(18) 0.59536(16)
C6 C 0.7278(2) 0.50420(19) 0.48745(16)
C7 C 0.7350(2) 0.62128(19) 0.36360(16)
C8 C 0.6647(2) 0.6020(2) 0.26599(17)
H8 H 0.6095 0.5170 0.2796
C9 C 0.6737(2) 0.7062(2) 0.14651(17)
C10 C 0.8277(2) 0.85044(19) 0.22465(17)
C11 C 0.8180(2) 0.74735(19) 0.34656(16)
C12 C 0.8899(2) 0.76772(19) 0.45108(17)
C13 C 0.87503(19) 0.65878(19) 0.57581(16)
C14 C 0.9387(2) 0.67736(19) 0.68023(17)
C15 C 0.9174(2) 0.5747(2) 0.79911(17)
H9 H 0.9602 0.5895 0.8689
H10 H 0.604(3) 0.759(3) -0.024(3)
N1 N 0.42143(18) 0.14359(17) 0.17568(14)
C16 C 0.5120(2) 0.2091(2) 0.22868(17)
H11 H 0.5553 0.2967 0.1771
C17 C 0.5465(2) 0.1574(2) 0.35333(17)
H12 H 0.6124 0.2083 0.3853
C18 C 0.4837(2) 0.02985(19) 0.43206(17)
C19 C 0.3893(2) -0.0383(2) 0.37757(18)
H13 H 0.3436 -0.1256 0.4270
C20 C 0.3619(2) 0.0209(2) 0.25145(18)
H14 H 0.2972 -0.0282 0.2166
N1A N 0.57857(18) -0.14359(17) 0.82432(14)
C16A C 0.4880(2) -0.2091(2) 0.77132(17)
H11A H 0.4447 -0.2967 0.8229
C17A C 0.4535(2) -0.1574(2) 0.64667(17)
H12A H 0.3876 -0.2083 0.6147
C18A C 0.5163(2) -0.02985(19) 0.56794(17)
C19A C 0.6107(2) 0.0383(2) 0.62243(18)
H13A H 0.6564 0.1256 0.5730
C20A C 0.6381(2) -0.0209(2) 0.74855(18)
H14A H 0.7028 0.0282 0.7834
loop_
_geom_bond_atom_site_label_1
_geom_bond_atom_site_label_2
_geom_bond_site_symmetry_1
_geom_bond_site_symmetry_2
O1 H1 1_555 1_555
O2 C12 1_555 1_555
O3 H2 1_555 1_555
O4 C6 1_555 1_555
C1 H3 1_555 1_555
O5 C9 1_555 1_555
C2 H4 1_555 1_555
H5 C2 1_555 1_555
H6 C2 1_555 1_555
C3 C2 1_555 1_555
C4 C3 1_555 1_555
H7 C4 1_555 1_555
C5 C4 1_555 1_555
C6 C5 1_555 1_555
C7 C6 1_555 1_555
C8 C7 1_555 1_555
H8 C8 1_555 1_555
C9 C1 1_555 1_555
C10 O1 1_555 1_555
C11 C7 1_555 1_555
C12 C11 1_555 1_555
C13 C5 1_555 1_555
C14 O3 1_555 1_555
C15 C3 1_555 1_555
H9 C15 1_555 1_555
H10 O5 1_555 1_555
N1 C16 1_555 1_555
C16 H11 1_555 1_555
C17 C16 1_555 1_555
H12 C17 1_555 1_555
C18 C17 1_555 1_555
C19 C18 1_555 1_555
H13 C19 1_555 1_555
C20 N1 1_555 1_555
H14 C20 1_555 1_555
N1A C16A 1_555 1_555
C16A H11A 1_555 1_555
C17A C16A 1_555 1_555
H12A C17A 1_555 1_555
C18A C18 1_555 1_555
C19A C18A 1_555 1_555
H13A C19A 1_555 1_555
C20A N1A 1_555 1_555
H14A C20A 1_555 1_555
C1 C10 1_555 1_555
C8 C9 1_555 1_555
C10 C11 1_555 1_555
C12 C13 1_555 1_555
C13 C14 1_555 1_555
C14 C15 1_555 1_555
C19 C20 1_555 1_555
C17A C18A 1_555 1_555
C19A C20A 1_555 1_555

#END
