
#######################################################################
#
#                 Cambridge Crystallographic Data Centre
#                                CCDC 
#
#######################################################################
#
# If this CIF has been generated from an entry in the Cambridge 
# Structural Database, then it will include bibliographic, chemical, 
# crystal, experimental, refinement or atomic coordinate data resulting 
# from the CCDC's data processing and validation procedures.
#
#######################################################################

data_KIQCUK
_chemical_formula_moiety         'C14 H15 I1 O5'
_chemical_name_systematic        
'Ethyl 4-hydroxy-3-iodo-6-oxo-2-phenyltetrahydro-2H-pyran-4-carboxylate'
_symmetry_cell_setting           orthorhombic
_symmetry_space_group_name_H-M   'P 21 21 21'
_symmetry_Int_Tables_number      19
_space_group_name_Hall           'P 2ac 2ab'
loop_
_symmetry_equiv_pos_site_id
_symmetry_equiv_pos_as_xyz
1 x,y,z
2 1/2-x,-y,1/2+z
3 1/2+x,1/2-y,-z
4 -x,1/2+y,1/2-z
_cell_length_a                   8.1735(2)
_cell_length_b                   9.3332(3)
_cell_length_c                   19.8518(5)
_cell_angle_alpha                90
_cell_angle_beta                 90
_cell_angle_gamma                90
_cell_volume                     1514.39
_cell_formula_units_Z            4
loop_
_atom_site_label
_atom_site_type_symbol
_atom_site_fract_x
_atom_site_fract_y
_atom_site_fract_z
I1 I 0.30004(5) -0.07811(5) 0.69587(2)
O1 O 0.3454(5) 0.3801(5) 0.6547(2)
O2 O 0.0359(5) 0.1809(6) 0.7228(2)
H1 H -0.0363 0.1651 0.7506
O3 O 0.3243(7) 0.1469(7) 0.8559(3)
O4 O 0.2810(6) 0.5774(5) 0.7068(2)
C1 C 0.2149(9) 0.3673(7) 0.7665(3)
H2 H 0.1129 0.4109 0.7806
H3 H 0.2925 0.3790 0.8031
C2 C 0.1814(8) 0.1346(8) 0.8259(3)
O5 O 0.0651(7) 0.0793(9) 0.8484(3)
C3 C 0.3245(7) 0.1476(7) 0.7134(3)
H4 H 0.4280 0.1646 0.7370
C4 C 0.4754(8) 0.1806(7) 0.6022(3)
C5 C 0.4477(9) 0.1236(8) 0.5399(3)
H5 H 0.3412 0.1132 0.5241
C6 C 0.1850(7) 0.2062(7) 0.7565(3)
C7 C 0.2773(7) 0.4479(7) 0.7072(3)
C8 C 0.5815(12) 0.0804(10) 0.4992(3)
H6 H 0.5636 0.0431 0.4564
C9 C 0.6341(8) 0.1929(10) 0.6268(3)
H7 H 0.6525 0.2294 0.6697
C10 C 0.3318(8) 0.2224(7) 0.6449(3)
H8 H 0.2309 0.2017 0.6201
C11 C 0.7639(9) 0.1506(10) 0.5870(4)
H9 H 0.8706 0.1598 0.6028
C12 C 0.3405(10) 0.0894(11) 0.9238(4)
H10 H 0.2332 0.0806 0.9443
H11 H 0.3892 -0.0053 0.9219
C13 C 0.7345(10) 0.0940(10) 0.5231(4)
H12 H 0.8223 0.0652 0.4966
C14 C 0.4407(14) 0.1818(12) 0.9639(5)
H13 H 0.5410 0.2011 0.9404
H14 H 0.4644 0.1362 1.0061
H15 H 0.3838 0.2701 0.9719
loop_
_geom_bond_atom_site_label_1
_geom_bond_atom_site_label_2
_geom_bond_site_symmetry_1
_geom_bond_site_symmetry_2
I1 C3 1_555 1_555
O1 C7 1_555 1_555
O2 H1 1_555 1_555
O3 C2 1_555 1_555
O4 C7 1_555 1_555
C1 H2 1_555 1_555
H3 C1 1_555 1_555
C2 O5 1_555 1_555
C3 H4 1_555 1_555
C4 C5 1_555 1_555
C5 H5 1_555 1_555
C6 O2 1_555 1_555
C7 C1 1_555 1_555
C8 C5 1_555 1_555
H6 C8 1_555 1_555
C9 C4 1_555 1_555
H7 C9 1_555 1_555
C10 O1 1_555 1_555
H8 C10 1_555 1_555
C11 C9 1_555 1_555
H9 C11 1_555 1_555
C12 O3 1_555 1_555
H10 C12 1_555 1_555
H11 C12 1_555 1_555
C13 C8 1_555 1_555
H12 C13 1_555 1_555
C14 C12 1_555 1_555
H13 C14 1_555 1_555
H14 C14 1_555 1_555
H15 C14 1_555 1_555
C1 C6 1_555 1_555
C2 C6 1_555 1_555
C3 C6 1_555 1_555
C3 C10 1_555 1_555
C4 C10 1_555 1_555
C11 C13 1_555 1_555

#END
