
#######################################################################
#
#                 Cambridge Crystallographic Data Centre
#                                CCDC 
#
#######################################################################
#
# If this CIF has been generated from an entry in the Cambridge 
# Structural Database, then it will include bibliographic, chemical, 
# crystal, experimental, refinement or atomic coordinate data resulting 
# from the CCDC's data processing and validation procedures.
#
#######################################################################

data_KIQKOM
_chemical_formula_moiety         'C31 H24 O1'
_chemical_name_systematic        
8-(Biphenyl-4-yl)-1,1-dimethyl-3-phenyl-1H-indeno[1,2-c]furan
_symmetry_cell_setting           triclinic
_symmetry_space_group_name_H-M   'P -1'
_symmetry_Int_Tables_number      2
_space_group_name_Hall           '-P 1'
loop_
_symmetry_equiv_pos_site_id
_symmetry_equiv_pos_as_xyz
1 x,y,z
2 -x,-y,-z
_cell_length_a                   9.5857(6)
_cell_length_b                   10.2270(6)
_cell_length_c                   12.6649(10)
_cell_angle_alpha                71.274(6)
_cell_angle_beta                 74.494(6)
_cell_angle_gamma                88.393(5)
_cell_volume                     1130.78
_exptl_crystal_colour            yellow
_exptl_crystal_description       block
_cell_formula_units_Z            2
loop_
_atom_site_label
_atom_site_type_symbol
_atom_site_fract_x
_atom_site_fract_y
_atom_site_fract_z
O1 O 0.41776(11) 0.01798(12) 0.25227(10)
C1 C 0.2343(2) 0.6036(2) -0.44617(17)
H1 H 0.2621 0.5196 -0.4564
C2 C 0.1694(2) 0.6944(2) -0.52327(19)
H2 H 0.1532 0.6705 -0.5841
C3 C 0.1288(2) 0.8192(2) -0.5105(2)
H3 H 0.0861 0.8806 -0.5629
C4 C 0.1518(2) 0.8528(2) -0.4197(2)
H4 H 0.1238 0.9370 -0.4101
C5 C 0.21633(19) 0.76226(18) -0.34237(17)
H5 H 0.2317 0.7867 -0.2815
C6 C 0.25879(16) 0.63531(17) -0.35390(15)
C7 C 0.33069(16) 0.53958(16) -0.27104(15)
C8 C 0.43004(19) 0.44853(17) -0.30395(16)
H6 H 0.4498 0.4445 -0.3788
C9 C 0.49991(19) 0.36388(18) -0.22747(16)
H7 H 0.5658 0.3041 -0.2520
C10 C 0.47373(16) 0.36626(16) -0.11489(14)
C11 C 0.37235(17) 0.45566(17) -0.08127(15)
H8 H 0.3513 0.4587 -0.0061
C12 C 0.30248(18) 0.53990(17) -0.15788(16)
H9 H 0.2349 0.5982 -0.1329
C13 C 0.55324(16) 0.27969(16) -0.03523(14)
C14 C 0.71279(16) 0.28706(16) -0.06102(15)
C15 C 0.81556(18) 0.37589(19) -0.15457(16)
H10 H 0.7876 0.4383 -0.2159
C16 C 0.95995(19) 0.3699(2) -0.15494(19)
H11 H 1.0293 0.4296 -0.2168
C17 C 1.00276(19) 0.2771(2) -0.06521(19)
H12 H 1.1006 0.2751 -0.0677
C18 C 0.90305(18) 0.1867(2) 0.02858(17)
H13 H 0.9331 0.1239 0.0885
C19 C 0.75677(16) 0.19163(16) 0.03134(14)
C20 C 0.62226(16) 0.12300(17) 0.11620(15)
C21 C 0.50413(16) 0.18481(16) 0.07135(14)
C22 C 0.36484(16) 0.11959(17) 0.15992(15)
C23 C 0.2759(2) 0.0365(2) 0.11796(19)
H14 H 0.3351 -0.0293 0.0903
H15 H 0.2417 0.0978 0.0562
H16 H 0.1945 -0.0115 0.1808
C24 C 0.2759(2) 0.2168(2) 0.21577(18)
H17 H 0.2057 0.1639 0.2855
H18 H 0.2270 0.2756 0.1630
H19 H 0.3388 0.2724 0.2342
C25 C 0.56561(16) 0.02491(17) 0.22065(15)
C26 C 0.63093(17) -0.07012(16) 0.30470(15)
C27 C 0.55533(19) -0.11932(18) 0.42124(16)
H20 H 0.4608 -0.0950 0.4454
C28 C 0.6197(2) -0.2042(2) 0.50156(18)
H21 H 0.5688 -0.2358 0.5796
C29 C 0.7589(2) -0.24211(19) 0.4665(2)
H22 H 0.8030 -0.2974 0.5209
C30 C 0.8330(2) -0.1981(2) 0.3505(2)
H23 H 0.9258 -0.2263 0.3265
C31 C 0.77015(19) -0.11258(18) 0.27017(17)
H24 H 0.8210 -0.0829 0.1921
loop_
_geom_bond_atom_site_label_1
_geom_bond_atom_site_label_2
_geom_bond_site_symmetry_1
_geom_bond_site_symmetry_2
O1 C22 1_555 1_555
C1 H1 1_555 1_555
C2 C1 1_555 1_555
H2 C2 1_555 1_555
C3 C2 1_555 1_555
H3 C3 1_555 1_555
C4 C3 1_555 1_555
H4 C4 1_555 1_555
C5 C4 1_555 1_555
H5 C5 1_555 1_555
C6 C1 1_555 1_555
C7 C6 1_555 1_555
C8 C7 1_555 1_555
H6 C8 1_555 1_555
C9 C8 1_555 1_555
H7 C9 1_555 1_555
C10 C9 1_555 1_555
C11 C10 1_555 1_555
H8 C11 1_555 1_555
C12 C7 1_555 1_555
H9 C12 1_555 1_555
C13 C10 1_555 1_555
C14 C13 1_555 1_555
C15 C14 1_555 1_555
H10 C15 1_555 1_555
C16 C15 1_555 1_555
H11 C16 1_555 1_555
C17 C16 1_555 1_555
H12 C17 1_555 1_555
C18 C17 1_555 1_555
H13 C18 1_555 1_555
C19 C14 1_555 1_555
C20 C19 1_555 1_555
C21 C13 1_555 1_555
C22 C21 1_555 1_555
C23 C22 1_555 1_555
H14 C23 1_555 1_555
H15 C23 1_555 1_555
H16 C23 1_555 1_555
C24 C22 1_555 1_555
H17 C24 1_555 1_555
H18 C24 1_555 1_555
H19 C24 1_555 1_555
C25 O1 1_555 1_555
C26 C25 1_555 1_555
C27 C26 1_555 1_555
H20 C27 1_555 1_555
C28 C27 1_555 1_555
H21 C28 1_555 1_555
C29 C28 1_555 1_555
H22 C29 1_555 1_555
C30 C29 1_555 1_555
H23 C30 1_555 1_555
C31 C26 1_555 1_555
H24 C31 1_555 1_555
C5 C6 1_555 1_555
C11 C12 1_555 1_555
C18 C19 1_555 1_555
C20 C21 1_555 1_555
C20 C25 1_555 1_555
C30 C31 1_555 1_555

#END
