
#######################################################################
#
#                 Cambridge Crystallographic Data Centre
#                                CCDC 
#
#######################################################################
#
# If this CIF has been generated from an entry in the Cambridge 
# Structural Database, then it will include bibliographic, chemical, 
# crystal, experimental, refinement or atomic coordinate data resulting 
# from the CCDC's data processing and validation procedures.
#
#######################################################################

data_KIRBAQ
_chemical_formula_moiety         'C12 H15 Cl1 O3'
_chemical_name_systematic        2-(2-(4-Chlorophenyl)vinyl)butane-1,2,4-triol
_symmetry_cell_setting           orthorhombic
_symmetry_space_group_name_H-M   'P 21 21 21'
_symmetry_Int_Tables_number      19
_space_group_name_Hall           'P 2ac 2ab'
loop_
_symmetry_equiv_pos_site_id
_symmetry_equiv_pos_as_xyz
1 x,y,z
2 1/2-x,-y,1/2+z
3 1/2+x,1/2-y,-z
4 -x,1/2+y,1/2-z
_cell_length_a                   5.4031(3)
_cell_length_b                   7.7337(4)
_cell_length_c                   29.2845(13)
_cell_angle_alpha                90
_cell_angle_beta                 90
_cell_angle_gamma                90
_cell_volume                     1223.68
_cell_formula_units_Z            4
loop_
_atom_site_label
_atom_site_type_symbol
_atom_site_fract_x
_atom_site_fract_y
_atom_site_fract_z
Cl1 Cl 0.77467(14) 0.88532(10) 0.39114(2)
O1 O 0.7076(3) 1.37476(18) 0.71964(5)
H1 H 0.5971 1.3312 0.7350
O2 O 1.0830(2) 1.1541(2) 0.67555(5)
H2 H 1.1093 1.1888 0.7016
O3 O 0.7059(4) 0.72430(18) 0.73438(5)
H3 H 0.7040 0.6217 0.7274
C1 C 0.8227(3) 1.1354(3) 0.66873(6)
C2 C 0.9387(4) 1.0885(3) 0.58646(7)
H4 H 1.0957 1.1301 0.5934
C3 C 0.8200(4) 0.9488(3) 0.44756(7)
C4 C 0.6854(4) 0.9457(3) 0.52496(7)
H5 H 0.5687 0.9133 0.5467
C5 C 0.7126(4) 1.0050(2) 0.70206(7)
H6 H 0.7425 1.0457 0.7329
H7 H 0.5348 1.0016 0.6975
C6 C 0.7797(4) 1.0798(3) 0.62016(6)
H8 H 0.6246 1.0346 0.6134
C7 C 0.8932(4) 1.0389(3) 0.53858(7)
C8 C 0.8124(4) 0.8228(3) 0.69796(7)
H9 H 0.7671 0.7733 0.6687
H10 H 0.9915 0.8231 0.7004
C9 C 1.0621(4) 1.0856(3) 0.50485(7)
H11 H 1.2023 1.1482 0.5130
C10 C 1.0262(4) 1.0411(3) 0.45958(8)
H12 H 1.1411 1.0735 0.4375
C11 C 0.6948(4) 1.3098(3) 0.67405(7)
H13 H 0.7713 1.3925 0.6535
H14 H 0.5224 1.2982 0.6653
C12 C 0.6492(4) 0.9006(3) 0.47998(8)
H15 H 0.5098 0.8378 0.4715
loop_
_geom_bond_atom_site_label_1
_geom_bond_atom_site_label_2
_geom_bond_site_symmetry_1
_geom_bond_site_symmetry_2
Cl1 C3 1_555 1_555
O1 H1 1_555 1_555
O2 H2 1_555 1_555
O3 H3 1_555 1_555
C1 O2 1_555 1_555
C2 H4 1_555 1_555
C3 C10 1_555 1_555
C4 H5 1_555 1_555
C5 C1 1_555 1_555
H6 C5 1_555 1_555
H7 C5 1_555 1_555
C6 C1 1_555 1_555
H8 C6 1_555 1_555
C7 C2 1_555 1_555
C8 O3 1_555 1_555
H9 C8 1_555 1_555
H10 C8 1_555 1_555
C9 C7 1_555 1_555
H11 C9 1_555 1_555
C10 C9 1_555 1_555
H12 C10 1_555 1_555
C11 O1 1_555 1_555
H13 C11 1_555 1_555
H14 C11 1_555 1_555
C12 C3 1_555 1_555
H15 C12 1_555 1_555
C1 C11 1_555 1_555
C2 C6 1_555 1_555
C4 C7 1_555 1_555
C4 C12 1_555 1_555
C5 C8 1_555 1_555

#END
