
#######################################################################
#
#                 Cambridge Crystallographic Data Centre
#                                CCDC 
#
#######################################################################
#
# If this CIF has been generated from an entry in the Cambridge 
# Structural Database, then it will include bibliographic, chemical, 
# crystal, experimental, refinement or atomic coordinate data resulting 
# from the CCDC's data processing and validation procedures.
#
#######################################################################

data_KIRGOJ
_chemical_formula_moiety         'C6 H5 F6 N3 O1'
_chemical_name_systematic        
1,1,1,3,3,3-Hexafluoro-2-(1H-1,2,3-triazol-1-ylmethyl)propan-2-ol
_symmetry_cell_setting           monoclinic
_symmetry_space_group_name_H-M   'P 21/n'
_symmetry_Int_Tables_number      14
_space_group_name_Hall           '-P 2yn'
loop_
_symmetry_equiv_pos_site_id
_symmetry_equiv_pos_as_xyz
1 x,y,z
2 1/2-x,1/2+y,1/2-z
3 -x,-y,-z
4 1/2+x,1/2-y,1/2+z
_cell_length_a                   9.598(4)
_cell_length_b                   10.626(4)
_cell_length_c                   10.029(4)
_cell_angle_alpha                90
_cell_angle_beta                 115.341(12)
_cell_angle_gamma                90
_cell_volume                     924.42
_exptl_crystal_colour            colorless
_exptl_crystal_description       'irregular block'
_cell_formula_units_Z            4
loop_
_atom_site_label
_atom_site_type_symbol
_atom_site_fract_x
_atom_site_fract_y
_atom_site_fract_z
N1 N 0.24423(13) 0.11822(10) 0.67184(13)
N2 N 0.20113(14) -0.00265(11) 0.64521(14)
N3 N 0.10533(15) -0.02247(12) 0.70484(15)
C1 C 0.0869(2) 0.08495(15) 0.7681(2)
C2 C 0.17558(18) 0.17584(14) 0.74754(19)
O1 O 0.53340(11) 0.25064(10) 0.85774(11)
F1 F 0.55335(13) 0.35732(12) 0.61224(14)
F2 F 0.75766(11) 0.25609(12) 0.75015(15)
F3 F 0.60164(16) 0.17992(15) 0.54186(16)
F4 F 0.73389(12) 0.05804(11) 0.89052(13)
F5 F 0.5732(2) -0.02618(12) 0.68816(15)
C3 C 0.34967(15) 0.16908(14) 0.61655(15)
F6 F 0.51452(15) -0.00172(11) 0.86868(16)
C4 C 0.51741(14) 0.18028(12) 0.73555(14)
C5 C 0.60957(17) 0.24291(17) 0.65901(19)
C6 C 0.5857(2) 0.05096(15) 0.79635(19)
H1 H 0.315(2) 0.2505(18) 0.581(2)
H2 H 0.342(2) 0.1176(17) 0.537(2)
H3 H 0.018(3) 0.088(2) 0.816(3)
H4 H 0.192(3) 0.261(2) 0.776(3)
H5 H 0.492(3) 0.322(2) 0.831(3)
loop_
_geom_bond_atom_site_label_1
_geom_bond_atom_site_label_2
_geom_bond_site_symmetry_1
_geom_bond_site_symmetry_2
N1 N2 1_555 1_555
N2 N3 1_555 1_555
N3 C1 1_555 1_555
C1 C2 1_555 1_555
C2 N1 1_555 1_555
O1 C4 1_555 1_555
F1 C5 1_555 1_555
F2 C5 1_555 1_555
F3 C5 1_555 1_555
F4 C6 1_555 1_555
F5 C6 1_555 1_555
C3 N1 1_555 1_555
F6 C6 1_555 1_555
C4 C3 1_555 1_555
C5 C4 1_555 1_555
C6 C4 1_555 1_555
H1 C3 1_555 1_555
H2 C3 1_555 1_555
H3 C1 1_555 1_555
H4 C2 1_555 1_555
H5 O1 1_555 1_555

#END
