
#######################################################################
#
#                 Cambridge Crystallographic Data Centre
#                                CCDC 
#
#######################################################################
#
# If this CIF has been generated from an entry in the Cambridge 
# Structural Database, then it will include bibliographic, chemical, 
# crystal, experimental, refinement or atomic coordinate data resulting 
# from the CCDC's data processing and validation procedures.
#
#######################################################################

data_KIRVUF
_chemical_formula_moiety         'C16 H29 N3 O7,C1 H4 O1'
_chemical_name_systematic        
't-butyl 2-{3-(acetylamino)-5-hydroxy-6-(hydroxymethyl)-2-[(propan-2-yl)oxy]oxan-4-ylidene}hydrazine-1-carboxylate methanol solvate'
_symmetry_cell_setting           monoclinic
_symmetry_space_group_name_H-M   'P 21'
_symmetry_Int_Tables_number      4
_space_group_name_Hall           'P 2yb'
loop_
_symmetry_equiv_pos_site_id
_symmetry_equiv_pos_as_xyz
1 x,y,z
2 -x,1/2+y,-z
_cell_length_a                   10.2358(7)
_cell_length_b                   8.6625(6)
_cell_length_c                   12.4764(10)
_cell_angle_alpha                90
_cell_angle_beta                 90.477(2)
_cell_angle_gamma                90
_cell_volume                     1106.21
_exptl_crystal_colour            colorless
_exptl_crystal_description       block
_cell_formula_units_Z            2
loop_
_atom_site_label
_atom_site_type_symbol
_atom_site_fract_x
_atom_site_fract_y
_atom_site_fract_z
O1 O 0.10493(15) 0.3434(2) -0.05073(15)
H1 H 0.177(3) 0.3256(14) -0.075(3)
O2 O 0.32291(13) 0.50544(18) 0.03672(11)
O3 O 0.41353(14) 0.38586(17) 0.18851(12)
O4 O 0.05402(13) 0.69409(19) 0.17976(11)
H2 H 0.0112(18) 0.741(4) 0.1407(18)
O5 O 0.66924(15) 0.7422(2) 0.12845(13)
O6 O 0.24210(14) 0.6831(2) 0.54132(12)
O7 O 0.02572(14) 0.7268(2) 0.50604(11)
N1 N 0.15965(16) 0.7145(2) 0.37137(13)
H3 H 0.0896 0.7322 0.3319
N2 N 0.27972(15) 0.6945(2) 0.32471(13)
N3 N 0.52419(16) 0.6762(2) 0.25455(14)
H4 H 0.5087 0.6557 0.3223
C1 C 0.0612(2) 0.8877(3) 0.6645(2)
H5 H 0.1539 0.8611 0.6718
H6 H 0.0262 0.9142 0.7350
H7 H 0.0515 0.9761 0.6161
C2 C -0.1579(2) 0.7877(3) 0.60688(19)
H8 H -0.1692 0.8749 0.5577
H9 H -0.1939 0.8145 0.6770
H10 H -0.2038 0.6972 0.5781
C3 C -0.0130(2) 0.7510(3) 0.61911(16)
C4 C 0.0091(3) 0.6042(3) 0.6831(2)
H11 H -0.0303 0.5167 0.6449
H12 H -0.0312 0.6146 0.7537
H13 H 0.1032 0.5864 0.6920
C5 C 0.1518(2) 0.7063(3) 0.47991(16)
C6 C 0.28680(18) 0.6840(2) 0.22305(15)
C7 C 0.18056(18) 0.6774(3) 0.13682(15)
H14 H 0.1959 0.7615 0.0834
C8 C 0.19458(18) 0.5195(3) 0.08074(16)
H15 H 0.1806 0.4352 0.1342
C9 C 0.1008(2) 0.4982(3) -0.01257(18)
H16 H 0.0110 0.5233 0.0105
H17 H 0.1245 0.5697 -0.0712
C10 C 0.42430(18) 0.5067(3) 0.11536(16)
H18 H 0.5102 0.4976 0.0782
C11 C 0.4703(2) 0.2420(3) 0.15186(18)
H19 H 0.4648 0.2365 0.0719
C12 C 0.3933(4) 0.1130(4) 0.1996(3)
H20 H 0.3049 0.1128 0.1688
H21 H 0.3883 0.1271 0.2774
H22 H 0.4362 0.0145 0.1839
C13 C 0.6133(3) 0.2381(4) 0.1876(2)
H23 H 0.6550 0.1447 0.1597
H24 H 0.6183 0.2377 0.2661
H25 H 0.6585 0.3294 0.1601
C14 C 0.7420(2) 0.7464(3) 0.3129(2)
H26 H 0.8276 0.7086 0.2900
H27 H 0.7148 0.6902 0.3771
H28 H 0.7479 0.8569 0.3291
C15 C 0.64330(19) 0.7210(3) 0.22436(18)
C16 C 0.42075(19) 0.6617(2) 0.17545(16)
H29 H 0.4336 0.7452 0.1212
O8 O 0.50642(18) 0.6215(2) 0.48330(14)
H30 H 0.419(3) 0.6547(12) 0.495(3)
C17 C 0.5132(3) 0.4601(4) 0.4939(3)
H31 H 0.4514 0.4118 0.4438
H32 H 0.4908 0.4309 0.5674
H33 H 0.6020 0.4251 0.4781
loop_
_geom_bond_atom_site_label_1
_geom_bond_atom_site_label_2
_geom_bond_site_symmetry_1
_geom_bond_site_symmetry_2
O1 H1 1_555 1_555
O2 C8 1_555 1_555
O3 C10 1_555 1_555
O4 H2 1_555 1_555
O5 C15 1_555 1_555
O6 C5 1_555 1_555
O7 C3 1_555 1_555
N1 H3 1_555 1_555
N2 N1 1_555 1_555
N3 H4 1_555 1_555
C1 H5 1_555 1_555
H6 C1 1_555 1_555
H7 C1 1_555 1_555
C2 H8 1_555 1_555
H9 C2 1_555 1_555
H10 C2 1_555 1_555
C3 C1 1_555 1_555
C4 C3 1_555 1_555
H11 C4 1_555 1_555
H12 C4 1_555 1_555
H13 C4 1_555 1_555
C5 O7 1_555 1_555
C6 N2 1_555 1_555
C7 O4 1_555 1_555
H14 C7 1_555 1_555
C8 C7 1_555 1_555
H15 C8 1_555 1_555
C9 O1 1_555 1_555
H16 C9 1_555 1_555
H17 C9 1_555 1_555
C10 O2 1_555 1_555
H18 C10 1_555 1_555
C11 O3 1_555 1_555
H19 C11 1_555 1_555
C12 C11 1_555 1_555
H20 C12 1_555 1_555
H21 C12 1_555 1_555
H22 C12 1_555 1_555
C13 C11 1_555 1_555
H23 C13 1_555 1_555
H24 C13 1_555 1_555
H25 C13 1_555 1_555
C14 H26 1_555 1_555
H27 C14 1_555 1_555
H28 C14 1_555 1_555
C15 N3 1_555 1_555
C16 N3 1_555 1_555
H29 C16 1_555 1_555
O8 H30 1_555 1_555
C17 O8 1_555 1_555
H31 C17 1_555 1_555
H32 C17 1_555 1_555
H33 C17 1_555 1_555
N1 C5 1_555 1_555
C2 C3 1_555 1_555
C6 C7 1_555 1_555
C6 C16 1_555 1_555
C8 C9 1_555 1_555
C10 C16 1_555 1_555
C14 C15 1_555 1_555

#END
