
#######################################################################
#
#                 Cambridge Crystallographic Data Centre
#                                CCDC 
#
#######################################################################
#
# If this CIF has been generated from an entry in the Cambridge 
# Structural Database, then it will include bibliographic, chemical, 
# crystal, experimental, refinement or atomic coordinate data resulting 
# from the CCDC's data processing and validation procedures.
#
#######################################################################

data_KISNIJ
_chemical_formula_moiety         'C14 H20 N6 O2 S1'
_chemical_name_systematic        
'Ethyl 3-amino-6-(dimethylamino)-4-((dimethylamino)methyleneamino)-thieno(2,3-d)pyrimidine-2-carboxlyate'
_symmetry_cell_setting           triclinic
_symmetry_space_group_name_H-M   'P -1'
_symmetry_Int_Tables_number      2
_space_group_name_Hall           '-P 1'
loop_
_symmetry_equiv_pos_site_id
_symmetry_equiv_pos_as_xyz
1 x,y,z
2 -x,-y,-z
_cell_length_a                   9.741(2)
_cell_length_b                   9.751(2)
_cell_length_c                   9.999(2)
_cell_angle_alpha                71.68(1)
_cell_angle_beta                 79.20(1)
_cell_angle_gamma                71.23(1)
_cell_volume                     849.724
_exptl_crystal_colour            yellow
_exptl_crystal_description       prism
_chemical_melting_point          208-211deg.C
_cell_formula_units_Z            2
_exptl_crystal_recrystallization_method 'chloroform/petroleum ether'
loop_
_atom_site_label
_atom_site_type_symbol
_atom_site_fract_x
_atom_site_fract_y
_atom_site_fract_z
S1 S 0.70264(6) 0.32093(6) 0.82472(6)
C1 C 0.7961(2) 0.2113(2) 0.7079(2)
C2 C 0.7204(2) 0.1197(2) 0.6946(2)
C3 C 0.5827(2) 0.1385(2) 0.7786(2)
C4 C 0.4720(2) 0.0674(2) 0.7993(2)
N1 N 0.3520(2) 0.1040(2) 0.8856(2)
C5 C 0.3423(2) 0.2088(2) 0.9512(2)
N2 N 0.4395(2) 0.2827(2) 0.9408(2)
C6 C 0.5581(2) 0.2433(2) 0.8535(2)
C7 C 0.9390(2) 0.2153(2) 0.6397(2)
O1 O 0.9882(1) 0.3156(2) 0.6696(2)
O2 O 1.0076(2) 0.1392(2) 0.5612(2)
C8 C 1.1330(2) 0.3234(3) 0.6059(3)
N3 N 0.7645(2) 0.0236(2) 0.6138(2)
N4 N 0.4918(2) -0.0404(2) 0.7291(2)
N5 N 0.4035(2) -0.2241(2) 0.7087(2)
N6 N 0.2171(2) 0.2439(2) 1.0370(2)
C9 C 1.1668(3) 0.4396(3) 0.6491(3)
C10 C 0.1937(3) 0.3549(3) 1.1106(3)
C11 C 0.0996(3) 0.1802(3) 1.0449(3)
C12 C 0.3983(2) -0.1179(2) 0.7654(2)
C13 C 0.2974(3) -0.3094(3) 0.7539(3)
C14 C 0.5165(3) -0.2632(3) 0.5995(3)
H1 H 0.847(2) 0.001(2) 0.564(2)
H2 H 0.715(2) -0.029(2) 0.620(2)
H3 H 1.198(3) 0.226(3) 0.643(3)
H4 H 1.129(2) 0.342(2) 0.498(2)
H5 H 1.094(2) 0.531(2) 0.613(2)
H6 H 1.164(3) 0.422(3) 0.756(3)
H7 H 1.262(3) 0.440(3) 0.610(3)
H8 H 0.145(3) 0.326(3) 1.204(3)
H9 H 0.116(3) 0.436(3) 1.072(3)
H10 H 0.280(4) 0.376(4) 1.129(4)
H11 H 0.027(3) 0.245(3) 0.982(3)
H12 H 0.040(3) 0.177(3) 1.133(3)
H13 H 0.134(3) 0.082(3) 1.038(3)
H14 H 0.322(2) -0.106(2) 0.837(2)
H15 H 0.348(3) -0.405(3) 0.790(3)
H16 H 0.228(3) -0.269(3) 0.819(3)
H17 H 0.233(3) -0.286(3) 0.672(3)
H18 H 0.553(4) -0.175(4) 0.546(4)
H19 H 0.486(3) -0.307(3) 0.544(3)
H20 H 0.600(3) -0.304(3) 0.628(3)
loop_
_geom_bond_atom_site_label_1
_geom_bond_atom_site_label_2
_geom_bond_site_symmetry_1
_geom_bond_site_symmetry_2
S1 C1 1_555 1_555
C1 C2 1_555 1_555
C2 C3 1_555 1_555
C3 C4 1_555 1_555
C4 N1 1_555 1_555
N1 C5 1_555 1_555
C5 N2 1_555 1_555
N2 C6 1_555 1_555
C6 S1 1_555 1_555
C7 C1 1_555 1_555
O1 C7 1_555 1_555
O2 C7 1_555 1_555
C8 O1 1_555 1_555
N3 C2 1_555 1_555
N4 C4 1_555 1_555
N5 C12 1_555 1_555
N6 C5 1_555 1_555
C9 C8 1_555 1_555
C10 N6 1_555 1_555
C11 N6 1_555 1_555
C12 N4 1_555 1_555
C13 N5 1_555 1_555
C14 N5 1_555 1_555
H1 N3 1_555 1_555
H2 N3 1_555 1_555
H3 C8 1_555 1_555
H4 C8 1_555 1_555
H5 C9 1_555 1_555
H6 C9 1_555 1_555
H7 C9 1_555 1_555
H8 C10 1_555 1_555
H9 C10 1_555 1_555
H10 C10 1_555 1_555
H11 C11 1_555 1_555
H12 C11 1_555 1_555
H13 C11 1_555 1_555
H14 C12 1_555 1_555
H15 C13 1_555 1_555
H16 C13 1_555 1_555
H17 C13 1_555 1_555
H18 C14 1_555 1_555
H19 C14 1_555 1_555
H20 C14 1_555 1_555
C3 C6 1_555 1_555

#END
