
#######################################################################
#
#                 Cambridge Crystallographic Data Centre
#                                CCDC 
#
#######################################################################
#
# If this CIF has been generated from an entry in the Cambridge 
# Structural Database, then it will include bibliographic, chemical, 
# crystal, experimental, refinement or atomic coordinate data resulting 
# from the CCDC's data processing and validation procedures.
#
#######################################################################

data_KIVDUR
_chemical_formula_moiety         'C7 H14 N1 1+,Cl1 O4 1-'
_chemical_name_systematic        'quinuclidinium perchlorate'
_symmetry_cell_setting           cubic
_symmetry_space_group_name_H-M   'P m -3 m'
_symmetry_Int_Tables_number      221
_space_group_name_Hall           '-P 4 2 3'
loop_
_symmetry_equiv_pos_site_id
_symmetry_equiv_pos_as_xyz
1 x,y,z
2 -x,-y,z
3 -x,y,-z
4 x,-y,-z
5 z,x,y
6 z,-x,-y
7 -z,-x,y
8 -z,x,-y
9 y,z,x
10 -y,z,-x
11 y,-z,-x
12 -y,-z,x
13 y,x,-z
14 -y,-x,-z
15 y,-x,z
16 -y,x,z
17 x,z,-y
18 -x,z,y
19 -x,-z,-y
20 x,-z,y
21 z,y,-x
22 z,-y,x
23 -z,y,x
24 -z,-y,-x
25 -x,-y,-z
26 x,y,-z
27 x,-y,z
28 -x,y,z
29 -z,-x,-y
30 -z,x,y
31 z,x,-y
32 z,-x,y
33 -y,-z,-x
34 y,-z,x
35 -y,z,x
36 y,z,-x
37 -y,-x,z
38 y,x,z
39 -y,x,-z
40 y,-x,-z
41 -x,-z,y
42 x,-z,-y
43 x,z,y
44 -x,z,-y
45 -z,-y,x
46 -z,y,-x
47 z,-y,-x
48 z,y,x
_cell_length_a                   6.2261(15)
_cell_length_b                   6.2261(15)
_cell_length_c                   6.2261(15)
_cell_angle_alpha                90
_cell_angle_beta                 90
_cell_angle_gamma                90
_cell_volume                     241.351
_exptl_crystal_colour            colorless
_exptl_crystal_description       block
_cell_formula_units_Z            1
loop_
_atom_site_label
_atom_site_type_symbol
_atom_site_fract_x
_atom_site_fract_y
_atom_site_fract_z
Cl1 Cl 0.0000 0.0000 0.0000
O1 O 0.0000 0.0000 0.231(3)
O1B O 0.0000 0.0000 -0.231(3)
O1D O 0.231(3) 0.0000 0.0000
O1F O -0.231(3) 0.0000 0.0000
O1H O 0.0000 0.231(3) 0.0000
O1J O 0.0000 -0.231(3) 0.0000
C1 C 0.3385(14) 0.3385(14) 0.5000
C1D C 0.5000 0.3385(14) 0.3385(14)
C1G C 0.5000 0.3385(14) 0.6615(14)
C1H C 0.3385(14) 0.5000 0.3385(14)
C1J C 0.3385(14) 0.5000 0.6615(14)
C1B C 0.6615(14) 0.3385(14) 0.5000
C1C C 0.3385(14) 0.6615(14) 0.5000
C1E C 0.5000 0.6615(14) 0.6615(14)
C1F C 0.5000 0.6615(14) 0.3385(14)
C1I C 0.6615(14) 0.5000 0.6615(14)
C1K C 0.6615(14) 0.5000 0.3385(14)
C1A C 0.6615(14) 0.6615(14) 0.5000
loop_
_geom_bond_atom_site_label_1
_geom_bond_atom_site_label_2
_geom_bond_site_symmetry_1
_geom_bond_site_symmetry_2
Cl1 O1 1_555 1_555
C1 C1D 1_555 1_555
O1B Cl1 1_555 1_555
O1D Cl1 1_555 1_555
O1F Cl1 1_555 1_555
O1H Cl1 1_555 1_555
O1J Cl1 1_555 1_555
C1D C1H 1_555 1_555
C1G C1 1_555 1_555
C1H C1 1_555 1_555
C1J C1 1_555 1_555
C1B C1D 1_555 1_555
C1C C1H 1_555 1_555
C1E C1J 1_555 1_555
C1F C1H 1_555 1_555
C1I C1G 1_555 1_555
C1K C1D 1_555 1_555
C1A C1E 1_555 1_555
C1G C1J 1_555 1_555
C1G C1B 1_555 1_555
C1J C1C 1_555 1_555
C1B C1I 1_555 1_555
C1B C1K 1_555 1_555
C1C C1E 1_555 1_555
C1C C1F 1_555 1_555
C1E C1I 1_555 1_555
C1F C1K 1_555 1_555
C1F C1A 1_555 1_555
C1I C1A 1_555 1_555
C1K C1A 1_555 1_555

#END
