
#######################################################################
#
#                 Cambridge Crystallographic Data Centre
#                                CCDC 
#
#######################################################################
#
# If this CIF has been generated from an entry in the Cambridge 
# Structural Database, then it will include bibliographic, chemical, 
# crystal, experimental, refinement or atomic coordinate data resulting 
# from the CCDC's data processing and validation procedures.
#
#######################################################################

data_KIVFUT01
_chemical_formula_moiety         'C8 H16 N1 1+,Cl1 O4 1-'
_chemical_name_systematic        '3-methylquinuclidinium perchlorate'
_symmetry_cell_setting           monoclinic
_symmetry_space_group_name_H-M   'P 21/n'
_symmetry_Int_Tables_number      14
_space_group_name_Hall           '-P 2yn'
loop_
_symmetry_equiv_pos_site_id
_symmetry_equiv_pos_as_xyz
1 x,y,z
2 1/2-x,1/2+y,1/2-z
3 -x,-y,-z
4 1/2+x,1/2-y,1/2+z
_cell_length_a                   7.9042(6)
_cell_length_b                   10.9593(8)
_cell_length_c                   11.5892(10)
_cell_angle_alpha                90
_cell_angle_beta                 96.337(8)
_cell_angle_gamma                90
_cell_volume                     997.775
_exptl_crystal_colour            colorless
_exptl_crystal_description       block
_cell_formula_units_Z            4
loop_
_atom_site_label
_atom_site_type_symbol
_atom_site_fract_x
_atom_site_fract_y
_atom_site_fract_z
Cl1 Cl 0.24633(14) 0.54722(10) 0.81057(10)
O1 O 0.0795(5) 0.5360(3) 0.8469(3)
O2 O 0.3687(4) 0.5202(3) 0.9043(2)
O3 O 0.2709(5) 0.6706(4) 0.7737(4)
O4 O 0.2628(6) 0.4648(5) 0.7171(4)
N1 N 0.6870(6) 0.7027(3) 0.9499(4)
H1 H 0.6320 0.6291 0.9806
C1 C 0.8239(7) 0.8891(4) 0.8713(4)
H2 H 0.8788 0.9621 0.8394
C2 C 0.7690(14) 0.7982(8) 0.7754(7)
H3 H 0.884(3) 0.769(6) 0.790(3)
C3 C 0.8036(13) 0.8129(8) 0.6656(6)
H4 H 0.8919 0.8753 0.6630
H5 H 0.7002 0.8386 0.6172
H6 H 0.8440 0.7355 0.6363
C4 C 0.7007(7) 0.6849(4) 0.8225(4)
H7 H 0.7774 0.6156 0.8112
H8 H 0.5872 0.6665 0.7813
C5 C 0.8610(7) 0.7179(4) 1.0139(5)
H9 H 0.9303 0.6441 1.0041
H10 H 0.8525 0.7294 1.0978
C6 C 0.9441(8) 0.8283(5) 0.9654(7)
H11 H 1.0492 0.8029 0.9327
H12 H 0.9762 0.8874 1.0287
C7 C 0.6655(8) 0.9250(5) 0.9232(6)
H13 H 0.5858 0.9661 0.8636
H14 H 0.6948 0.9832 0.9876
C8 C 0.5799(7) 0.8132(5) 0.9686(5)
H15 H 0.5688 0.8232 1.0523
H16 H 0.4646 0.8031 0.9268
loop_
_geom_bond_atom_site_label_1
_geom_bond_atom_site_label_2
_geom_bond_site_symmetry_1
_geom_bond_site_symmetry_2
Cl1 O1 1_555 1_555
O2 Cl1 1_555 1_555
O3 Cl1 1_555 1_555
O4 Cl1 1_555 1_555
N1 H1 1_555 1_555
C1 H2 1_555 1_555
C2 C1 1_555 1_555
H3 C2 1_555 1_555
C3 C2 1_555 1_555
H4 C3 1_555 1_555
H5 C3 1_555 1_555
H6 C3 1_555 1_555
C4 N1 1_555 1_555
H7 C4 1_555 1_555
H8 C4 1_555 1_555
C5 N1 1_555 1_555
H9 C5 1_555 1_555
H10 C5 1_555 1_555
C6 C1 1_555 1_555
H11 C6 1_555 1_555
H12 C6 1_555 1_555
C7 C1 1_555 1_555
H13 C7 1_555 1_555
H14 C7 1_555 1_555
C8 N1 1_555 1_555
H15 C8 1_555 1_555
H16 C8 1_555 1_555
C2 C4 1_555 1_555
C5 C6 1_555 1_555
C7 C8 1_555 1_555

#END
