
#######################################################################
#
#                 Cambridge Crystallographic Data Centre
#                                CCDC 
#
#######################################################################
#
# If this CIF has been generated from an entry in the Cambridge 
# Structural Database, then it will include bibliographic, chemical, 
# crystal, experimental, refinement or atomic coordinate data resulting 
# from the CCDC's data processing and validation procedures.
#
#######################################################################

data_KIVGEE
_chemical_formula_moiety         'C8 H14 N1 1+,Cl1 O4 1-'
_chemical_name_systematic        '3-methylenequinuclidinium perchlorate'
_symmetry_cell_setting           orthorhombic
_symmetry_space_group_name_H-M   'P n m a'
_symmetry_Int_Tables_number      62
_space_group_name_Hall           '-P 2ac 2n'
loop_
_symmetry_equiv_pos_site_id
_symmetry_equiv_pos_as_xyz
1 x,y,z
2 1/2-x,-y,1/2+z
3 -x,1/2+y,-z
4 1/2+x,1/2-y,1/2-z
5 -x,-y,-z
6 1/2+x,y,1/2-z
7 x,1/2-y,z
8 1/2-x,1/2+y,1/2+z
_cell_length_a                   12.3345(6)
_cell_length_b                   8.4335(4)
_cell_length_c                   9.7578(5)
_cell_angle_alpha                90
_cell_angle_beta                 90
_cell_angle_gamma                90
_cell_volume                     1015.04
_exptl_crystal_colour            colorless
_exptl_crystal_description       block
_cell_formula_units_Z            4
loop_
_atom_site_label
_atom_site_type_symbol
_atom_site_fract_x
_atom_site_fract_y
_atom_site_fract_z
Cl1 Cl 0.04824(5) 0.2500 0.71426(7)
O1 O -0.00203(15) 0.11348(19) 0.6534(2)
O2 O 0.16172(19) 0.2500 0.6876(2)
O3 O 0.0316(2) 0.2500 0.8579(3)
O1F O -0.00203(15) 0.38652(19) 0.6534(2)
C1 C 0.26233(18) 0.1042(2) 0.0176(2)
H1 H 0.3085 0.0083 0.0223
H2 H 0.2241 0.1041 -0.0716
C2 C 0.17953(18) 0.1020(3) 0.1350(2)
H3 H 0.1893 0.0051 0.1909
H4 H 0.1051 0.1013 0.0971
C3 C 0.1959(2) 0.2500 0.2248(3)
H5 H 0.1434 0.2500 0.3028
C4 C 0.3107(2) 0.2500 0.2775(3)
C5 C 0.3923(2) 0.2500 0.1625(3)
H6 H 0.4389 0.3452 0.1685
C6 C 0.3399(3) 0.2500 0.4073(3)
H7 H 0.2863 0.2500 0.4772
H8 H 0.4146 0.2500 0.4310
N1 N 0.33132(19) 0.2500 0.0297(2)
H9 H 0.3850 0.2500 -0.0472
H6F H 0.4389 0.1548 0.1685
C1F C 0.26233(18) 0.3958(2) 0.0176(2)
H1F H 0.3085 0.4917 0.0223
H2F H 0.2241 0.3959 -0.0716
C2F C 0.17953(18) 0.3980(3) 0.1350(2)
H3F H 0.1893 0.4949 0.1909
H4F H 0.1051 0.3987 0.0971
H10? H 0.4389 0.3452 0.1685
loop_
_geom_bond_atom_site_label_1
_geom_bond_atom_site_label_2
_geom_bond_site_symmetry_1
_geom_bond_site_symmetry_2
Cl1 O1 1_555 1_555
O2 Cl1 1_555 1_555
O3 Cl1 1_555 1_555
C1 H1 1_555 1_555
H2 C1 1_555 1_555
C2 C1 1_555 1_555
H3 C2 1_555 1_555
H4 C2 1_555 1_555
C3 C2 1_555 1_555
H5 C3 1_555 1_555
C4 C3 1_555 1_555
C5 C4 1_555 1_555
H6 C5 1_555 1_555
C6 C4 1_555 1_555
H7 C6 1_555 1_555
H8 C6 1_555 1_555
N1 C1 1_555 1_555
H9 N1 1_555 1_555
O1F Cl1 1_555 1_555
H6F C5 1_555 1_555
C1F N1 1_555 1_555
H1F C1F 1_555 1_555
H2F C1F 1_555 1_555
C2F C3 1_555 1_555
H3F C2F 1_555 1_555
H4F C2F 1_555 1_555
C5 N1 1_555 1_555
C1F C2F 1_555 1_555

#END
