
#######################################################################
#
#                 Cambridge Crystallographic Data Centre
#                                CCDC 
#
#######################################################################
#
# If this CIF has been generated from an entry in the Cambridge 
# Structural Database, then it will include bibliographic, chemical, 
# crystal, experimental, refinement or atomic coordinate data resulting 
# from the CCDC's data processing and validation procedures.
#
#######################################################################

data_KIWNOV
_chemical_formula_moiety         'C24 H14 O2 P2'
_chemical_name_systematic        
2,7-diphenyl[1,3]oxaphospholo[5',4':5,6]naphtho[2,1-d][1,3]oxaphosphole
_symmetry_cell_setting           monoclinic
_symmetry_space_group_name_H-M   'P 21/n'
_symmetry_Int_Tables_number      14
_space_group_name_Hall           '-P 2yn'
loop_
_symmetry_equiv_pos_site_id
_symmetry_equiv_pos_as_xyz
1 x,y,z
2 1/2-x,1/2+y,1/2-z
3 -x,-y,-z
4 1/2+x,1/2-y,1/2+z
_cell_length_a                   3.9088(2)
_cell_length_b                   19.9940(10)
_cell_length_c                   11.2543(5)
_cell_angle_alpha                90
_cell_angle_beta                 93.829(3)
_cell_angle_gamma                90
_cell_volume                     877.589
_exptl_crystal_colour            orange
_exptl_crystal_description       rod
_cell_formula_units_Z            2
loop_
_atom_site_label
_atom_site_type_symbol
_atom_site_fract_x
_atom_site_fract_y
_atom_site_fract_z
P1 P 0.77106(19) 0.49140(4) 0.14201(7)
O1 O 0.4967(5) 0.40693(10) 0.28766(18)
C1 C 0.5354(7) 0.53124(15) 0.5282(3)
C2 C 0.6905(8) 0.58446(15) 0.4670(3)
H1 H 0.7409 0.6253 0.5076
C3 C 0.7681(7) 0.57780(15) 0.3510(3)
H2 H 0.8667 0.6140 0.3106
C4 C 0.6996(7) 0.51596(15) 0.2911(3)
C5 C 0.5519(7) 0.46443(14) 0.3521(3)
C6 C 0.5983(8) 0.41433(15) 0.1738(3)
C7 C 0.5342(7) 0.35669(15) 0.0971(3)
C8 C 0.3768(8) 0.29835(15) 0.1378(3)
H3 H 0.3170 0.2956 0.2181
C9 C 0.3089(8) 0.24501(16) 0.0614(3)
H4 H 0.2043 0.2058 0.0900
C10 C 0.3919(8) 0.24815(15) -0.0563(3)
H5 H 0.3417 0.2115 -0.1083
C11 C 0.5493(9) 0.30534(16) -0.0982(3)
H6 H 0.6071 0.3076 -0.1788
C12 C 0.6217(8) 0.35902(15) -0.0220(3)
H7 H 0.7314 0.3976 -0.0506
P1B P 0.22894(19) 0.50860(4) 0.85799(7)
O1B O 0.5033(5) 0.59307(10) 0.71234(18)
C1B C 0.4646(7) 0.46876(15) 0.4718(3)
C2B C 0.3095(8) 0.41554(15) 0.5330(3)
H1B H 0.2591 0.3747 0.4924
C3B C 0.2319(7) 0.42220(15) 0.6490(3)
H2B H 0.1333 0.3860 0.6894
C4B C 0.3004(7) 0.48404(15) 0.7089(3)
C5B C 0.4481(7) 0.53557(14) 0.6479(3)
C6B C 0.4017(8) 0.58567(15) 0.8262(3)
C7B C 0.4658(7) 0.64331(15) 0.9029(3)
C8B C 0.6232(8) 0.70165(15) 0.8622(3)
H3B H 0.6830 0.7044 0.7819
C9B C 0.6911(8) 0.75499(16) 0.9386(3)
H4B H 0.7957 0.7942 0.9100
C10B C 0.6081(8) 0.75185(15) 1.0563(3)
H5B H 0.6583 0.7885 1.1083
C11B C 0.4507(9) 0.69466(16) 1.0982(3)
H6B H 0.3929 0.6924 1.1788
C12B C 0.3783(8) 0.64098(15) 1.0220(3)
H7B H 0.2686 0.6024 1.0506
loop_
_geom_bond_atom_site_label_1
_geom_bond_atom_site_label_2
_geom_bond_site_symmetry_1
_geom_bond_site_symmetry_2
P1 C4 1_555 1_555
O1 C5 1_555 1_555
C1 C2 1_555 1_555
C2 H1 1_555 1_555
C3 C2 1_555 1_555
H2 C3 1_555 1_555
C4 C3 1_555 1_555
C5 C4 1_555 1_555
C6 P1 1_555 1_555
C7 C6 1_555 1_555
C8 C7 1_555 1_555
H3 C8 1_555 1_555
C9 C8 1_555 1_555
H4 C9 1_555 1_555
C10 C9 1_555 1_555
H5 C10 1_555 1_555
C11 C10 1_555 1_555
H6 C11 1_555 1_555
C12 C7 1_555 1_555
H7 C12 1_555 1_555
P1B C4B 1_555 1_555
O1B C5B 1_555 1_555
C1B C1 1_555 1_555
C2B C1B 1_555 1_555
H1B C2B 1_555 1_555
C3B C2B 1_555 1_555
H2B C3B 1_555 1_555
C4B C3B 1_555 1_555
C5B C1 1_555 1_555
C6B P1B 1_555 1_555
C7B C6B 1_555 1_555
C8B C7B 1_555 1_555
H3B C8B 1_555 1_555
C9B C8B 1_555 1_555
H4B C9B 1_555 1_555
C10B C9B 1_555 1_555
H5B C10B 1_555 1_555
C11B C10B 1_555 1_555
H6B C11B 1_555 1_555
C12B C7B 1_555 1_555
H7B C12B 1_555 1_555
O1 C6 1_555 1_555
C5 C1B 1_555 1_555
C11 C12 1_555 1_555
O1B C6B 1_555 1_555
C4B C5B 1_555 1_555
C11B C12B 1_555 1_555

#END
