
#######################################################################
#
#                 Cambridge Crystallographic Data Centre
#                                CCDC 
#
#######################################################################
#
# If this CIF has been generated from an entry in the Cambridge 
# Structural Database, then it will include bibliographic, chemical, 
# crystal, experimental, refinement or atomic coordinate data resulting 
# from the CCDC's data processing and validation procedures.
#
#######################################################################

data_KIWZUL
_chemical_formula_moiety         'C18 H13 N5 O6,C4 H8 O1'
_chemical_name_systematic        
'2,2-Diphenyl-1-picrylhydrazine tetrahydrofuran clathrate'
_symmetry_cell_setting           rhombohedral
_symmetry_space_group_name_H-M   'R -3'
_symmetry_Int_Tables_number      148
_space_group_name_Hall           '-R 3'
loop_
_symmetry_equiv_pos_site_id
_symmetry_equiv_pos_as_xyz
1 x,y,z
2 1/3+x,2/3+y,2/3+z
3 2/3+x,1/3+y,1/3+z
4 -y,x-y,z
5 -x+y,-x,z
6 1/3-y,2/3+x-y,2/3+z
7 1/3-x+y,2/3-x,2/3+z
8 2/3-y,1/3+x-y,1/3+z
9 2/3-x+y,1/3-x,1/3+z
10 -x,-y,-z
11 2/3-x,1/3-y,1/3-z
12 1/3-x,2/3-y,2/3-z
13 y,-x+y,-z
14 x-y,x,-z
15 2/3+y,1/3-x+y,1/3-z
16 2/3+x-y,1/3+x,1/3-z
17 1/3+y,2/3-x+y,2/3-z
18 1/3+x-y,2/3+x,2/3-z
_cell_length_a                   25.820(4)
_cell_length_b                   25.820(4)
_cell_length_c                   15.096(2)
_cell_angle_alpha                90
_cell_angle_beta                 90
_cell_angle_gamma                120
_cell_volume                     8715.75
_exptl_crystal_colour            red
_cell_formula_units_Z            18
loop_
_atom_site_label
_atom_site_type_symbol
_atom_site_fract_x
_atom_site_fract_y
_atom_site_fract_z
C1 C 0.0217(2) 0.7864(2) 0.1141(3)
C2 C 0.0226(2) 0.7864(2) 0.2070(3)
C3 C 0.0657(3) 0.7819(2) 0.2551(4)
C4 C 0.1096(2) 0.7772(2) 0.2121(3)
C5 C 0.1139(2) 0.7797(2) 0.1203(3)
C6 C 0.0705(2) 0.7840(2) 0.0735(3)
N1 N -0.0227(2) 0.7918(2) 0.2589(3)
O1 O -0.0198(2) 0.7910(2) 0.3399(2)
O2 O -0.0611(2) 0.7972(2) 0.2197(3)
N2 N 0.1550(3) 0.7720(2) 0.2635(4)
O3 O 0.1954(2) 0.7701(2) 0.2228(3)
O4 O 0.1487(2) 0.7686(2) 0.3445(3)
N3 N 0.0815(2) 0.7924(2) -0.0231(3)
O5 O 0.0973(2) 0.8421(2) -0.0529(2)
O6 O 0.0792(2) 0.7507(2) -0.0650(3)
N4 N -0.0223(2) 0.7865(2) 0.0656(3)
N5 N -0.0299(2) 0.7704(2) -0.0226(2)
C7 C -0.0635(2) 0.7068(2) -0.0393(2)
C8 C -0.0993(2) 0.6673(2) 0.0268(4)
C9 C -0.1305(3) 0.6059(3) 0.0111(6)
C10 C -0.1261(4) 0.5847(3) -0.0686(7)
C11 C -0.0889(4) 0.6234(3) -0.1344(6)
C12 C -0.0567(3) 0.6849(3) -0.1197(4)
C13 C -0.0296(2) 0.8147(2) -0.0807(3)
C14 C -0.0612(3) 0.7997(3) -0.1593(3)
C15 C -0.0565(3) 0.8434(3) -0.2157(4)
C16 C -0.0212(3) 0.9029(3) -0.1943(4)
C17 C 0.0088(3) 0.9184(3) -0.1142(4)
C18 C 0.0046(2) 0.8744(2) -0.0585(4)
loop_
_geom_bond_atom_site_label_1
_geom_bond_atom_site_label_2
_geom_bond_site_symmetry_1
_geom_bond_site_symmetry_2
C1 C2 1_555 1_555
C2 C3 1_555 1_555
C3 C4 1_555 1_555
C4 C5 1_555 1_555
C5 C6 1_555 1_555
C6 C1 1_555 1_555
N1 C2 1_555 1_555
O1 N1 1_555 1_555
O2 N1 1_555 1_555
N2 C4 1_555 1_555
O3 N2 1_555 1_555
O4 N2 1_555 1_555
N3 C6 1_555 1_555
O5 N3 1_555 1_555
O6 N3 1_555 1_555
N4 C1 1_555 1_555
N5 N4 1_555 1_555
C7 N5 1_555 1_555
C8 C7 1_555 1_555
C9 C8 1_555 1_555
C10 C9 1_555 1_555
C11 C10 1_555 1_555
C12 C7 1_555 1_555
C13 N5 1_555 1_555
C14 C13 1_555 1_555
C15 C14 1_555 1_555
C16 C15 1_555 1_555
C17 C16 1_555 1_555
C18 C13 1_555 1_555
C11 C12 1_555 1_555
C17 C18 1_555 1_555

#END
