
#######################################################################
#
#                 Cambridge Crystallographic Data Centre
#                                CCDC 
#
#######################################################################
#
# If this CIF has been generated from an entry in the Cambridge 
# Structural Database, then it will include bibliographic, chemical, 
# crystal, experimental, refinement or atomic coordinate data resulting 
# from the CCDC's data processing and validation procedures.
#
#######################################################################

data_KIXKAD02
_chemical_formula_moiety         'C19 H13 N1'
_chemical_name_systematic        9-phenylacridine
_symmetry_cell_setting           monoclinic
_symmetry_space_group_name_H-M   'P 21/n'
_symmetry_Int_Tables_number      14
_space_group_name_Hall           '-P 2yn'
loop_
_symmetry_equiv_pos_site_id
_symmetry_equiv_pos_as_xyz
1 x,y,z
2 1/2-x,1/2+y,1/2-z
3 -x,-y,-z
4 1/2+x,1/2-y,1/2+z
_cell_length_a                   8.4892(6)
_cell_length_b                   17.7731(15)
_cell_length_c                   9.0884(7)
_cell_angle_alpha                90
_cell_angle_beta                 107.345(8)
_cell_angle_gamma                90
_cell_volume                     1308.9
_exptl_crystal_colour            brown
_exptl_crystal_description       parallelepiped
_cell_formula_units_Z            4
loop_
_atom_site_label
_atom_site_type_symbol
_atom_site_fract_x
_atom_site_fract_y
_atom_site_fract_z
N1 N -0.21711(19) 0.13981(10) 0.03014(19)
C1 C -0.2340(2) 0.15445(12) 0.1701(2)
C2 C -0.3898(2) 0.18129(12) 0.1768(2)
H1 H -0.4787 0.1857 0.0845
C3 C -0.4130(2) 0.20067(13) 0.3132(3)
H2 H -0.5172 0.2194 0.3152
C4 C -0.2831(2) 0.19319(13) 0.4528(3)
H3 H -0.3008 0.2070 0.5476
C5 C -0.1333(2) 0.16630(12) 0.4520(2)
H4 H -0.0480 0.1608 0.5467
C6 C -0.1022(2) 0.14622(11) 0.3109(2)
C7 C 0.0506(2) 0.11936(12) 0.3029(2)
C8 C 0.0706(2) 0.10515(11) 0.1577(2)
C9 C 0.2228(2) 0.08113(12) 0.1360(2)
H5 H 0.3161 0.0734 0.2233
C10 C 0.2362(3) 0.06914(13) -0.0069(2)
H6 H 0.3387 0.0533 -0.0187
C11 C 0.0980(3) 0.08005(13) -0.1395(2)
H7 H 0.1087 0.0709 -0.2390
C12 C -0.0495(2) 0.10348(12) -0.1251(2)
H8 H -0.1405 0.1110 -0.2147
C13 C -0.0681(2) 0.11669(12) 0.0230(2)
C14 C 0.1910(2) 0.10522(12) 0.4458(2)
C15 C 0.2805(2) 0.16457(13) 0.5308(2)
H9 H 0.2516 0.2149 0.4990
C16 C 0.4119(2) 0.15052(14) 0.6619(2)
H10 H 0.4721 0.1914 0.7195
C17 C 0.4553(2) 0.07762(14) 0.7088(2)
H11 H 0.5460 0.0683 0.7977
C18 C 0.3668(2) 0.01827(14) 0.6263(2)
H12 H 0.3959 -0.0319 0.6592
C19 C 0.2348(2) 0.03175(13) 0.4948(2)
H13 H 0.1745 -0.0093 0.4383
loop_
_geom_bond_atom_site_label_1
_geom_bond_atom_site_label_2
_geom_bond_site_symmetry_1
_geom_bond_site_symmetry_2
N1 C1 1_555 1_555
C1 C2 1_555 1_555
C2 H1 1_555 1_555
C3 C2 1_555 1_555
H2 C3 1_555 1_555
C4 C3 1_555 1_555
H3 C4 1_555 1_555
C5 C4 1_555 1_555
H4 C5 1_555 1_555
C6 C1 1_555 1_555
C7 C6 1_555 1_555
C8 C7 1_555 1_555
C9 C8 1_555 1_555
H5 C9 1_555 1_555
C10 C9 1_555 1_555
H6 C10 1_555 1_555
C11 C10 1_555 1_555
H7 C11 1_555 1_555
C12 C11 1_555 1_555
H8 C12 1_555 1_555
C13 N1 1_555 1_555
C14 C7 1_555 1_555
C15 C14 1_555 1_555
H9 C15 1_555 1_555
C16 C15 1_555 1_555
H10 C16 1_555 1_555
C17 C16 1_555 1_555
H11 C17 1_555 1_555
C18 C17 1_555 1_555
H12 C18 1_555 1_555
C19 C14 1_555 1_555
H13 C19 1_555 1_555
C5 C6 1_555 1_555
C8 C13 1_555 1_555
C12 C13 1_555 1_555
C18 C19 1_555 1_555

#END
