
#######################################################################
#
#                 Cambridge Crystallographic Data Centre
#                                CCDC 
#
#######################################################################
#
# If this CIF has been generated from an entry in the Cambridge 
# Structural Database, then it will include bibliographic, chemical, 
# crystal, experimental, refinement or atomic coordinate data resulting 
# from the CCDC's data processing and validation procedures.
#
#######################################################################

data_KIXROA
_chemical_formula_moiety         'C11 H13 N5 O6,H2 O1'
_chemical_name_systematic        
'5-amino-8-(3,4-dihydroxy-5-(hydroxymethyl)tetrahydrofuran-2-yl)pyrimido[4,5-d]pyrimidine-2,4(3H,8H)-dione monohydrate'
_symmetry_cell_setting           monoclinic
_symmetry_space_group_name_H-M   'P 21'
_symmetry_Int_Tables_number      4
_space_group_name_Hall           'P 2yb'
loop_
_symmetry_equiv_pos_site_id
_symmetry_equiv_pos_as_xyz
1 x,y,z
2 -x,1/2+y,-z
_cell_length_a                   5.6548(14)
_cell_length_b                   27.587(7)
_cell_length_c                   8.526(2)
_cell_angle_alpha                90
_cell_angle_beta                 95.291(5)
_cell_angle_gamma                90
_cell_volume                     1324.38
_cell_formula_units_Z            4
loop_
_atom_site_label
_atom_site_type_symbol
_atom_site_fract_x
_atom_site_fract_y
_atom_site_fract_z
O1 O 0.0090(5) 0.69095(10) 0.5966(4)
H1 H 0.0455 0.7138 0.6555
O2 O 0.4585(5) 0.72252(8) 0.5477(4)
H2 H 0.5608 0.7261 0.6214
O3 O 0.1870(4) 0.61920(7) 0.3589(2)
O4 O 0.4320(6) 0.64941(15) 0.0959(3)
O5 O -0.0943(4) 0.42583(7) 0.8340(3)
O6 O -0.4570(4) 0.57044(8) 0.8784(3)
N1 N -0.1445(4) 0.57037(9) 0.7278(3)
N2 N -0.2661(4) 0.49950(9) 0.8561(3)
H3 H -0.3611 0.4869 0.9180
N3 N 0.3877(4) 0.49398(9) 0.5390(3)
N4 N 0.1644(4) 0.56508(8) 0.5684(3)
N5 N 0.2916(5) 0.42274(9) 0.6525(3)
H4 H 0.4060 0.4098 0.6073
H5 H 0.2080 0.4053 0.7101
C1 C 0.0977(5) 0.61423(10) 0.5069(3)
H6 H -0.0759 0.6165 0.4926
C2 C -0.2940(5) 0.54810(10) 0.8224(3)
C3 C 0.1923(6) 0.65599(11) 0.6098(4)
H7 H 0.2353 0.6461 0.7191
C4 C 0.4076(6) 0.67302(10) 0.5275(4)
H8 H 0.5475 0.6536 0.5631
C5 C -0.1004(5) 0.46926(10) 0.7999(3)
C6 C 0.3308(5) 0.66234(11) 0.3561(4)
H9 H 0.2322 0.6891 0.3120
C7 C 0.5290(7) 0.65340(14) 0.2530(4)
H10 H 0.6415 0.6800 0.2633
H11 H 0.6123 0.6238 0.2852
C8 C 0.2444(5) 0.46916(10) 0.6333(3)
C9 C 0.3380(5) 0.53964(10) 0.5102(3)
H12 H 0.4318 0.5559 0.4433
C10 C 0.0196(5) 0.54269(10) 0.6710(3)
C11 C 0.0592(5) 0.49319(10) 0.7018(3)
H13 H 0.560(12) 0.642(2) 0.044(7)
O7 O -0.0197(5) 0.27776(8) 0.2335(4)
H14 H -0.103(14) 0.296(3) 0.290(9)
O8 O 0.3158(5) 0.21978(8) 0.1489(3)
H15 H 0.2240 0.1968 0.1366
O9 O 0.5158(4) 0.31920(8) 0.1087(3)
O10 O 0.2335(7) 0.33268(10) -0.1968(4)
H16 H 0.1306 0.3179 -0.2514
O11 O -0.1568(4) 0.52546(8) 0.2883(3)
O12 O -0.3441(4) 0.37819(8) 0.4706(3)
N6 N -0.0445(4) 0.37913(8) 0.3098(3)
N7 N -0.2457(4) 0.45075(9) 0.3747(3)
H17 H -0.3570 0.4633 0.4238
N8 N 0.3909(4) 0.45813(8) 0.0460(3)
N9 N 0.2633(4) 0.38462(8) 0.1509(3)
N10 N 0.2232(4) 0.53068(9) 0.1032(3)
H18 H 0.3239 0.5443 0.0477
H19 H 0.1219 0.5480 0.1475
C12 C 0.3114(5) 0.33126(10) 0.1811(4)
H20 H 0.3414 0.3259 0.2948
C13 C -0.2136(5) 0.40120(11) 0.3883(3)
C14 C 0.1101(5) 0.29749(10) 0.1151(4)
H21 H 0.0037 0.3144 0.0359
C15 C 0.2444(6) 0.25682(11) 0.0384(4)
H22 H 0.1487 0.2434 -0.0530
C16 C -0.1159(5) 0.48192(10) 0.2899(3)
C17 C 0.4631(6) 0.28195(11) -0.0111(4)
H23 H 0.5943 0.2586 -0.0045
C18 C 0.2240(5) 0.48299(10) 0.1204(3)
C19 C 0.4400(9) 0.30379(16) -0.1733(5)
H24 H 0.5786 0.3235 -0.1869
H25 H 0.4330 0.2781 -0.2513
C20 C 0.4019(5) 0.41114(10) 0.0641(3)
H26 H 0.5153 0.3946 0.0125
C21 C 0.0876(5) 0.40725(10) 0.2272(3)
C22 C 0.0678(5) 0.45797(10) 0.2108(3)
O13 O -0.0489(7) 0.64462(12) 0.9805(4)
H27 H 0.103(13) 0.656(3) 0.996(8)
H28 H -0.085(13) 0.6211(16) 0.896(5)
O14 O 0.1091(8) 0.79443(13) 0.4018(5)
H29 H -0.004(8) 0.7677(15) 0.385(10)
H30 H 0.195(15) 0.772(3) 0.472(11)
loop_
_geom_bond_atom_site_label_1
_geom_bond_atom_site_label_2
_geom_bond_site_symmetry_1
_geom_bond_site_symmetry_2
O1 H1 1_555 1_555
O2 H2 1_555 1_555
O3 C1 1_555 1_555
O4 C7 1_555 1_555
O5 C5 1_555 1_555
O6 C2 1_555 1_555
N1 C2 1_555 1_555
N2 H3 1_555 1_555
N3 C8 1_555 1_555
N4 C1 1_555 1_555
N5 H4 1_555 1_555
H5 N5 1_555 1_555
C1 H6 1_555 1_555
C2 N2 1_555 1_555
C3 O1 1_555 1_555
H7 C3 1_555 1_555
C4 O2 1_555 1_555
H8 C4 1_555 1_555
C5 N2 1_555 1_555
C6 O3 1_555 1_555
H9 C6 1_555 1_555
C7 C6 1_555 1_555
H10 C7 1_555 1_555
H11 C7 1_555 1_555
C8 N5 1_555 1_555
C9 N3 1_555 1_555
H12 C9 1_555 1_555
C10 N1 1_555 1_555
C11 C5 1_555 1_555
H13 O4 1_555 1_555
O7 H14 1_555 1_555
O8 H15 1_555 1_555
O9 C12 1_555 1_555
O10 H16 1_555 1_555
O11 C16 1_555 1_555
O12 C13 1_555 1_555
N6 C13 1_555 1_555
N7 H17 1_555 1_555
N8 C18 1_555 1_555
N9 C12 1_555 1_555
N10 H18 1_555 1_555
H19 N10 1_555 1_555
C12 H20 1_555 1_555
C13 N7 1_555 1_555
C14 O7 1_555 1_555
H21 C14 1_555 1_555
C15 O8 1_555 1_555
H22 C15 1_555 1_555
C16 N7 1_555 1_555
C17 O9 1_555 1_555
H23 C17 1_555 1_555
C18 N10 1_555 1_555
C19 O10 1_555 1_555
H24 C19 1_555 1_555
H25 C19 1_555 1_555
C20 N8 1_555 1_555
H26 C20 1_555 1_555
C21 N6 1_555 1_555
C22 C16 1_555 1_555
O13 H27 1_555 1_555
H28 O13 1_555 1_555
O14 H29 1_555 1_555
H30 O14 1_555 1_555
N4 C9 1_555 1_555
N4 C10 1_555 1_555
C1 C3 1_555 1_555
C3 C4 1_555 1_555
C4 C6 1_555 1_555
C8 C11 1_555 1_555
C10 C11 1_555 1_555
N9 C20 1_555 1_555
N9 C21 1_555 1_555
C12 C14 1_555 1_555
C14 C15 1_555 1_555
C15 C17 1_555 1_555
C17 C19 1_555 1_555
C18 C22 1_555 1_555
C21 C22 1_555 1_555

#END
