
#######################################################################
#
#                 Cambridge Crystallographic Data Centre
#                                CCDC 
#
#######################################################################
#
# If this CIF has been generated from an entry in the Cambridge 
# Structural Database, then it will include bibliographic, chemical, 
# crystal, experimental, refinement or atomic coordinate data resulting 
# from the CCDC's data processing and validation procedures.
#
#######################################################################

data_KIYGIK
_chemical_name_common            
(8aS,9R,10S,12aR)-9-Benzyl-10-hydroxydecahydrobenzo[b]pyrrolo[1,2-a]azepin-5(1H)-one
_chemical_formula_moiety         'C20 H27 N1 O2'
_chemical_name_systematic        
(8aS,9R,10S,12aR)-9-Benzyl-10-hydroxydecahydro-1H,5H-pyrrolo[2,1-k][1]benzazepin-5-one
_symmetry_cell_setting           triclinic
_symmetry_space_group_name_H-M   'P -1'
_symmetry_Int_Tables_number      2
_space_group_name_Hall           '-P 1'
loop_
_symmetry_equiv_pos_site_id
_symmetry_equiv_pos_as_xyz
1 x,y,z
2 -x,-y,-z
_cell_length_a                   8.5052(3)
_cell_length_b                   15.5856(6)
_cell_length_c                   19.9392(8)
_cell_angle_alpha                101.0840(10)
_cell_angle_beta                 100.283(2)
_cell_angle_gamma                90.2400(10)
_cell_volume                     2550.12
_exptl_crystal_colour            colorless
_exptl_crystal_description       Needle
_chemical_melting_point          '442-444 K'
_cell_formula_units_Z            6
_exptl_crystal_recrystallization_method 'ethyl acetate/tetrahydrofuran'
loop_
_atom_site_label
_atom_site_type_symbol
_atom_site_fract_x
_atom_site_fract_y
_atom_site_fract_z
O1 O -0.67120(12) 1.18842(7) 0.23835(6)
O2 O 0.08009(13) 1.06466(7) 0.22076(5)
H1 H 0.157(3) 1.1048(15) 0.2269(11)
N1 N -0.49709(14) 1.13894(7) 0.16895(6)
C1 C -0.53620(17) 1.16076(9) 0.23236(8)
C2 C -0.42021(18) 1.14923(10) 0.29631(8)
H2 H -0.4688 1.1697 0.3378
H3 H -0.3223 1.1860 0.3008
C3 C -0.37437(19) 1.05392(10) 0.29404(8)
H4 H -0.3383 1.0451 0.3422
H5 H -0.4705 1.0153 0.2735
C4 C -0.24315(17) 1.02701(9) 0.25241(7)
H6 H -0.2063 0.9694 0.2613
H7 H -0.1516 1.0696 0.2705
C5 C -0.28638(16) 1.02043(8) 0.17342(7)
H8 H -0.3748 0.9748 0.1558
C6 C -0.14299(17) 0.98746(8) 0.13785(7)
H9 H -0.1847 0.9748 0.0866
C7 C -0.00508(17) 1.05620(9) 0.15073(7)
H10 H 0.0703 1.0341 0.1187
C8 C -0.06304(17) 1.14460(9) 0.13527(8)
H11 H 0.0251 1.1892 0.1539
H12 H -0.0886 1.1401 0.0843
C9 C -0.21013(17) 1.17570(8) 0.16608(7)
H13 H -0.2492 1.2286 0.1487
H14 H -0.1798 1.1917 0.2173
C10 C -0.34520(16) 1.10434(8) 0.14657(7)
C11 C -0.40394(17) 1.08055(9) 0.06692(7)
H15 H -0.3140 1.0839 0.0420
H16 H -0.4531 1.0206 0.0531
C12 C -0.52708(17) 1.14777(9) 0.05052(7)
H17 H -0.4749 1.2046 0.0503
H18 H -0.5981 1.1270 0.0051
C13 C -0.61815(17) 1.15475(9) 0.10977(8)
H19 H -0.6619 1.2136 0.1203
H20 H -0.7072 1.1102 0.0985
C14 C -0.08375(18) 0.90018(9) 0.15693(8)
H21 H -0.0258 0.9120 0.2056
H22 H -0.1778 0.8612 0.1543
C15 C 0.02464(18) 0.85287(9) 0.11103(7)
C16 C 0.18970(19) 0.86954(9) 0.12680(8)
H23 H 0.2343 0.9133 0.1658
C17 C 0.2900(2) 0.82293(10) 0.08608(9)
H24 H 0.4021 0.8354 0.0972
C18 C 0.2266(2) 0.75820(10) 0.02919(9)
H25 H 0.2951 0.7257 0.0019
C19 C 0.0626(2) 0.74142(9) 0.01260(8)
H26 H 0.0184 0.6974 -0.0263
C20 C -0.03740(18) 0.78900(9) 0.05292(8)
H27 H -0.1498 0.7778 0.0406
O3 O 1.19576(12) 0.61422(7) 0.56633(6)
O4 O 0.43564(13) 0.72838(7) 0.55459(6)
H28 H 0.366(3) 0.6918(17) 0.5579(13)
N2 N 0.96367(15) 0.63500(7) 0.49884(6)
C21 C 1.05692(17) 0.64067(9) 0.56165(8)
C22 C 0.99742(18) 0.68081(10) 0.62697(7)
H29 H 1.0820 0.6785 0.6676
H30 H 0.9034 0.6457 0.6309
C23 C 0.95057(18) 0.77576(10) 0.62876(8)
H31 H 0.9571 0.8058 0.6777
H32 H 1.0281 0.8059 0.6087
C24 C 0.78278(18) 0.78347(9) 0.58890(8)
H33 H 0.7521 0.8450 0.6007
H34 H 0.7082 0.7470 0.6055
C25 C 0.75874(17) 0.75668(9) 0.50927(7)
H35 H 0.8325 0.7956 0.4936
C26 C 0.58543(17) 0.77424(9) 0.47486(7)
H36 H 0.5842 0.7659 0.4238
C27 C 0.45845(17) 0.70921(9) 0.48431(7)
H37 H 0.3554 0.7182 0.4539
C28 C 0.50205(17) 0.61381(9) 0.46339(7)
H38 H 0.4861 0.5978 0.4121
H39 H 0.4286 0.5757 0.4792
C29 C 0.67508(17) 0.59635(8) 0.49383(7)
H40 H 0.6999 0.5358 0.4740
H41 H 0.6867 0.6019 0.5448
C30 C 0.79413(17) 0.66103(9) 0.47793(7)
C31 C 0.78647(18) 0.65133(9) 0.39869(7)
H42 H 0.6751 0.6386 0.3734
H43 H 0.8273 0.7057 0.3878
C32 C 0.89158(18) 0.57539(10) 0.37856(8)
H44 H 0.8360 0.5184 0.3754
H45 H 0.9252 0.5769 0.3337
C33 C 1.03280(18) 0.59187(10) 0.43832(8)
H46 H 1.0810 0.5362 0.4464
H47 H 1.1156 0.6305 0.4289
C34 C 0.54116(17) 0.86978(9) 0.49877(8)
H48 H 0.5277 0.8783 0.5479
H49 H 0.6307 0.9093 0.4965
C35 C 0.38995(18) 0.89538(9) 0.45585(8)
C36 C 0.2447(2) 0.89395(10) 0.47852(9)
H50 H 0.2393 0.8745 0.5204
C37 C 0.1064(2) 0.92107(11) 0.44001(10)
H51 H 0.0076 0.9199 0.4558
C38 C 0.1134(2) 0.94973(11) 0.37881(10)
H52 H 0.0199 0.9691 0.3531
C39 C 0.2564(2) 0.95004(10) 0.35534(9)
H53 H 0.2612 0.9689 0.3132
C40 C 0.3937(2) 0.92272(9) 0.39358(8)
H54 H 0.4917 0.9227 0.3769
O5 O 0.37468(12) 0.63953(6) 0.87831(6)
O6 O 1.12673(13) 0.53345(7) 0.89135(5)
H55 H 1.208(3) 0.5679(15) 0.8916(11)
N3 N 0.55735(14) 0.58202(8) 0.81621(6)
C41 C 0.51067(17) 0.61013(9) 0.87724(8)
C42 C 0.61775(18) 0.60535(10) 0.94534(8)
H56 H 0.5621 0.6295 0.9840
H57 H 0.7160 0.6421 0.9505
C43 C 0.66439(18) 0.51201(10) 0.95072(8)
H58 H 0.6925 0.5080 1.0004
H59 H 0.5715 0.4714 0.9292
C44 C 0.80497(18) 0.48401(9) 0.91523(8)
H60 H 0.8439 0.4292 0.9293
H61 H 0.8923 0.5292 0.9334
C45 C 0.77492(17) 0.46885(9) 0.83527(7)
H62 H 0.6925 0.4199 0.8181
C46 C 0.92910(17) 0.43636(9) 0.80766(7)
H63 H 0.8968 0.4160 0.7563
C47 C 1.05967(17) 0.50886(9) 0.81888(7)
H64 H 1.1465 0.4848 0.7937
C48 C 0.99534(17) 0.58836(9) 0.78964(7)
H65 H 1.0779 0.6366 0.8040
H66 H 0.9744 0.5729 0.7382
C49 C 0.84142(17) 0.62022(8) 0.81432(7)
H67 H 0.7996 0.6678 0.7905
H68 H 0.8656 0.6443 0.8649
C50 C 0.71282(17) 0.54578(9) 0.79936(7)
C51 C 0.66027(18) 0.51164(9) 0.72000(7)
H69 H 0.7533 0.5094 0.6962
H70 H 0.6089 0.4524 0.7105
C52 C 0.54162(18) 0.57721(9) 0.69560(8)
H71 H 0.5972 0.6314 0.6916
H72 H 0.4736 0.5519 0.6503
C53 C 0.44443(18) 0.59431(10) 0.75313(8)
H73 H 0.4055 0.6546 0.7590
H74 H 0.3515 0.5524 0.7430
C54 C 0.99458(18) 0.35627(9) 0.83722(8)
H75 H 1.0327 0.3750 0.8879
H76 H 0.9057 0.3124 0.8304
C55 C 1.12899(18) 0.31315(9) 0.80505(8)
C56 C 1.28700(19) 0.33170(10) 0.83935(9)
H77 H 1.3090 0.3736 0.8816
C57 C 1.4129(2) 0.28960(10) 0.81234(10)
H78 H 1.5199 0.3030 0.8362
C58 C 1.3824(2) 0.22839(10) 0.75089(10)
H79 H 1.4681 0.1993 0.7327
C59 C 1.2266(2) 0.20969(10) 0.71598(9)
H80 H 1.2054 0.1678 0.6737
C60 C 1.1007(2) 0.25212(9) 0.74265(8)
H81 H 0.9943 0.2393 0.7180
loop_
_geom_bond_atom_site_label_1
_geom_bond_atom_site_label_2
_geom_bond_site_symmetry_1
_geom_bond_site_symmetry_2
O1 C1 1_555 1_555
O2 H1 1_555 1_555
N1 C1 1_555 1_555
C1 C2 1_555 1_555
C2 H2 1_555 1_555
H3 C2 1_555 1_555
C3 C2 1_555 1_555
H4 C3 1_555 1_555
H5 C3 1_555 1_555
C4 C3 1_555 1_555
H6 C4 1_555 1_555
H7 C4 1_555 1_555
C5 C4 1_555 1_555
H8 C5 1_555 1_555
C6 C5 1_555 1_555
H9 C6 1_555 1_555
C7 O2 1_555 1_555
H10 C7 1_555 1_555
C8 C7 1_555 1_555
H11 C8 1_555 1_555
H12 C8 1_555 1_555
C9 C8 1_555 1_555
H13 C9 1_555 1_555
H14 C9 1_555 1_555
C10 N1 1_555 1_555
C11 C10 1_555 1_555
H15 C11 1_555 1_555
H16 C11 1_555 1_555
C12 C11 1_555 1_555
H17 C12 1_555 1_555
H18 C12 1_555 1_555
C13 N1 1_555 1_555
H19 C13 1_555 1_555
H20 C13 1_555 1_555
C14 C6 1_555 1_555
H21 C14 1_555 1_555
H22 C14 1_555 1_555
C15 C14 1_555 1_555
C16 C15 1_555 1_555
H23 C16 1_555 1_555
C17 C16 1_555 1_555
H24 C17 1_555 1_555
C18 C17 1_555 1_555
H25 C18 1_555 1_555
C19 C18 1_555 1_555
H26 C19 1_555 1_555
C20 C15 1_555 1_555
H27 C20 1_555 1_555
O3 C21 1_555 1_555
O4 H28 1_555 1_555
N2 C21 1_555 1_555
C21 C22 1_555 1_555
C22 H29 1_555 1_555
H30 C22 1_555 1_555
C23 C22 1_555 1_555
H31 C23 1_555 1_555
H32 C23 1_555 1_555
C24 C23 1_555 1_555
H33 C24 1_555 1_555
H34 C24 1_555 1_555
C25 C24 1_555 1_555
H35 C25 1_555 1_555
C26 C25 1_555 1_555
H36 C26 1_555 1_555
C27 O4 1_555 1_555
H37 C27 1_555 1_555
C28 C27 1_555 1_555
H38 C28 1_555 1_555
H39 C28 1_555 1_555
C29 C28 1_555 1_555
H40 C29 1_555 1_555
H41 C29 1_555 1_555
C30 N2 1_555 1_555
C31 C30 1_555 1_555
H42 C31 1_555 1_555
H43 C31 1_555 1_555
C32 C31 1_555 1_555
H44 C32 1_555 1_555
H45 C32 1_555 1_555
C33 N2 1_555 1_555
H46 C33 1_555 1_555
H47 C33 1_555 1_555
C34 C26 1_555 1_555
H48 C34 1_555 1_555
H49 C34 1_555 1_555
C35 C34 1_555 1_555
C36 C35 1_555 1_555
H50 C36 1_555 1_555
C37 C36 1_555 1_555
H51 C37 1_555 1_555
C38 C37 1_555 1_555
H52 C38 1_555 1_555
C39 C38 1_555 1_555
H53 C39 1_555 1_555
C40 C35 1_555 1_555
H54 C40 1_555 1_555
O5 C41 1_555 1_555
O6 H55 1_555 1_555
N3 C41 1_555 1_555
C41 C42 1_555 1_555
C42 H56 1_555 1_555
H57 C42 1_555 1_555
C43 C42 1_555 1_555
H58 C43 1_555 1_555
H59 C43 1_555 1_555
C44 C43 1_555 1_555
H60 C44 1_555 1_555
H61 C44 1_555 1_555
C45 C44 1_555 1_555
H62 C45 1_555 1_555
C46 C45 1_555 1_555
H63 C46 1_555 1_555
C47 O6 1_555 1_555
H64 C47 1_555 1_555
C48 C47 1_555 1_555
H65 C48 1_555 1_555
H66 C48 1_555 1_555
C49 C48 1_555 1_555
H67 C49 1_555 1_555
H68 C49 1_555 1_555
C50 N3 1_555 1_555
C51 C50 1_555 1_555
H69 C51 1_555 1_555
H70 C51 1_555 1_555
C52 C51 1_555 1_555
H71 C52 1_555 1_555
H72 C52 1_555 1_555
C53 N3 1_555 1_555
H73 C53 1_555 1_555
H74 C53 1_555 1_555
C54 C46 1_555 1_555
H75 C54 1_555 1_555
H76 C54 1_555 1_555
C55 C54 1_555 1_555
C56 C55 1_555 1_555
H77 C56 1_555 1_555
C57 C56 1_555 1_555
H78 C57 1_555 1_555
C58 C57 1_555 1_555
H79 C58 1_555 1_555
C59 C58 1_555 1_555
H80 C59 1_555 1_555
C60 C55 1_555 1_555
H81 C60 1_555 1_555
C5 C10 1_555 1_555
C6 C7 1_555 1_555
C9 C10 1_555 1_555
C12 C13 1_555 1_555
C19 C20 1_555 1_555
C25 C30 1_555 1_555
C26 C27 1_555 1_555
C29 C30 1_555 1_555
C32 C33 1_555 1_555
C39 C40 1_555 1_555
C45 C50 1_555 1_555
C46 C47 1_555 1_555
C49 C50 1_555 1_555
C52 C53 1_555 1_555
C59 C60 1_555 1_555

#END
