
#######################################################################
#
#                 Cambridge Crystallographic Data Centre
#                                CCDC 
#
#######################################################################
#
# If this CIF has been generated from an entry in the Cambridge 
# Structural Database, then it will include bibliographic, chemical, 
# crystal, experimental, refinement or atomic coordinate data resulting 
# from the CCDC's data processing and validation procedures.
#
#######################################################################

data_KIYQAN
_chemical_formula_moiety         'C24 H48 Mg1 O6 2+,2(C19 H3 B1 F15 1-)'
_chemical_name_systematic        
'hexakis(tetrahydrofuran)-magnesium bis(methyl[tris(pentafluorophenyl)]borate)'
_symmetry_cell_setting           monoclinic
_symmetry_space_group_name_H-M   'P 21/n'
_symmetry_Int_Tables_number      14
_space_group_name_Hall           '-P 2yn'
loop_
_symmetry_equiv_pos_site_id
_symmetry_equiv_pos_as_xyz
1 x,y,z
2 1/2-x,1/2+y,1/2-z
3 -x,-y,-z
4 1/2+x,1/2-y,1/2+z
_cell_length_a                   11.4306(6)
_cell_length_b                   19.3251(10)
_cell_length_c                   14.7999(8)
_cell_angle_alpha                90
_cell_angle_beta                 110.6150(10)
_cell_angle_gamma                90
_cell_volume                     3059.92
_exptl_crystal_colour            colorless
_exptl_crystal_description       shard
_cell_formula_units_Z            2
_chemical_properties_physical    
Air-sensitive,Moisture-sensitive,Oxygen-sensitive
loop_
_atom_site_label
_atom_site_type_symbol
_atom_site_fract_x
_atom_site_fract_y
_atom_site_fract_z
Mg1 Mg 0.5000 0.0000 0.0000
O1 O 0.59040(8) 0.07982(4) 0.09513(6)
O2 O 0.40794(8) 0.07388(4) -0.10473(6)
O3 O 0.65038(8) -0.00259(4) -0.04985(6)
C1 C 0.68129(12) 0.07221(7) 0.19307(9)
H1 H 0.7384 0.0330 0.1965
H2 H 0.6384 0.0641 0.2397
C2 C 0.75273(12) 0.13992(7) 0.21464(10)
H3 H 0.8210 0.1404 0.1881
H4 H 0.7879 0.1491 0.2849
C3 C 0.65073(12) 0.19175(7) 0.16287(9)
H5 H 0.5984 0.2029 0.2019
H6 H 0.6868 0.2351 0.1483
C4 C 0.57582(12) 0.15370(6) 0.07102(9)
H7 H 0.4867 0.1672 0.0496
H8 H 0.6082 0.1644 0.0187
C5 C 0.29275(11) 0.11103(6) -0.11516(9)
H9 H 0.2879 0.1219 -0.0512
H10 H 0.2187 0.0833 -0.1525
C6 C 0.29998(13) 0.17662(7) -0.16869(10)
H11 H 0.3529 0.2119 -0.1245
H12 H 0.2159 0.1962 -0.2028
C7 C 0.35978(12) 0.15046(7) -0.23979(9)
H13 H 0.2968 0.1289 -0.2970
H14 H 0.4019 0.1885 -0.2613
C8 C 0.45355(12) 0.09742(6) -0.18070(9)
H15 H 0.4591 0.0581 -0.2218
H16 H 0.5374 0.1186 -0.1519
C9 C 0.76625(12) 0.03715(7) -0.01005(9)
H17 H 0.8187 0.0188 0.0538
H18 H 0.7480 0.0865 -0.0029
C10 C 0.83128(13) 0.02874(7) -0.08230(10)
H19 H 0.9230 0.0339 -0.0512
H20 H 0.8000 0.0626 -0.1357
C11 C 0.79554(13) -0.04534(7) -0.11794(11)
H21 H 0.8061 -0.0536 -0.1806
H22 H 0.8450 -0.0798 -0.0703
C12 C 0.65914(12) -0.04674(6) -0.12789(9)
H23 H 0.6059 -0.0284 -0.1916
H24 H 0.6323 -0.0945 -0.1211
O1B O 0.40960(8) -0.07982(4) -0.09513(6)
O2B O 0.59206(8) -0.07388(4) 0.10473(6)
O3B O 0.34962(8) 0.00259(4) 0.04985(6)
C1B C 0.31871(12) -0.07221(7) -0.19307(9)
H1B H 0.2616 -0.0330 -0.1965
H2B H 0.3616 -0.0641 -0.2397
C2B C 0.24727(12) -0.13992(7) -0.21464(10)
H3B H 0.1790 -0.1404 -0.1881
H4B H 0.2121 -0.1491 -0.2849
C3B C 0.34927(12) -0.19175(7) -0.16287(9)
H5B H 0.4016 -0.2029 -0.2019
H6B H 0.3132 -0.2351 -0.1483
C4B C 0.42418(12) -0.15370(6) -0.07102(9)
H7B H 0.5133 -0.1672 -0.0496
H8B H 0.3918 -0.1644 -0.0187
C5B C 0.70725(11) -0.11103(6) 0.11516(9)
H9B H 0.7121 -0.1219 0.0512
H10B H 0.7813 -0.0833 0.1525
C6B C 0.70002(13) -0.17662(7) 0.16869(10)
H11B H 0.6471 -0.2119 0.1245
H12B H 0.7841 -0.1962 0.2028
C7B C 0.64022(12) -0.15046(7) 0.23979(9)
H13B H 0.7032 -0.1289 0.2970
H14B H 0.5981 -0.1885 0.2613
C8B C 0.54645(12) -0.09742(6) 0.18070(9)
H15B H 0.5409 -0.0581 0.2218
H16B H 0.4626 -0.1186 0.1519
C9B C 0.23375(12) -0.03715(7) 0.01005(9)
H17B H 0.1813 -0.0188 -0.0538
H18B H 0.2520 -0.0865 0.0029
C10B C 0.16872(13) -0.02874(7) 0.08230(10)
H19B H 0.0770 -0.0339 0.0512
H20B H 0.2000 -0.0626 0.1357
C11B C 0.20446(13) 0.04534(7) 0.11794(11)
H21B H 0.1939 0.0536 0.1806
H22B H 0.1550 0.0798 0.0703
C12B C 0.34086(12) 0.04674(6) 0.12789(9)
H23B H 0.3941 0.0284 0.1916
H24B H 0.3677 0.0945 0.1211
B1 B 0.78652(12) 0.18326(7) 0.63077(10)
C13 C 0.79755(12) 0.26248(6) 0.59600(9)
H25 H 0.8793 0.2816 0.6346
H26 H 0.7314 0.2909 0.6049
H27 H 0.7885 0.2625 0.5277
C14 C 0.89544(11) 0.13035(6) 0.62063(9)
C15 C 0.97314(12) 0.14189(6) 0.56807(9)
C16 C 1.06171(12) 0.09496(7) 0.56089(9)
C17 C 1.07529(12) 0.03206(7) 0.60681(9)
C18 C 0.99905(12) 0.01678(6) 0.65870(9)
C19 C 0.91229(11) 0.06515(6) 0.66349(9)
C20 C 0.79610(11) 0.19533(6) 0.74426(9)
C21 C 0.69809(12) 0.22679(7) 0.76418(9)
C22 C 0.70025(13) 0.24440(7) 0.85530(10)
C23 C 0.80645(14) 0.23176(7) 0.93423(10)
C24 C 0.90756(13) 0.20198(7) 0.91951(9)
C25 C 0.90101(12) 0.18540(6) 0.82653(9)
C26 C 0.65274(11) 0.14630(6) 0.56470(9)
C27 C 0.60763(13) 0.15139(7) 0.46413(9)
C28 C 0.49471(13) 0.12455(7) 0.40456(9)
C29 C 0.42043(12) 0.08816(7) 0.44313(10)
C30 C 0.46200(12) 0.07854(7) 0.54170(10)
C31 C 0.57512(11) 0.10708(6) 0.59881(9)
F1 F 0.96709(8) 0.20165(4) 0.51889(6)
F2 F 1.13334(8) 0.11029(5) 0.50863(6)
F3 F 1.16122(8) -0.01382(4) 0.60180(6)
F4 F 1.01088(8) -0.04417(4) 0.70483(6)
F5 F 0.84238(7) 0.04674(4) 0.71647(6)
F6 F 0.59002(7) 0.24153(4) 0.69116(6)
F7 F 0.59954(8) 0.27270(5) 0.86770(7)
F8 F 0.81089(9) 0.24768(5) 1.02380(6)
F9 F 1.01094(9) 0.18774(5) 0.99536(6)
F10 F 1.00653(7) 0.15704(4) 0.82092(6)
F11 F 0.67574(9) 0.18396(5) 0.41828(6)
F12 F 0.45776(10) 0.13344(5) 0.30800(6)
F13 F 0.31129(8) 0.06139(5) 0.38624(7)
F14 F 0.39345(8) 0.04148(5) 0.58200(6)
F15 F 0.60658(7) 0.09445(4) 0.69466(5)
loop_
_geom_bond_atom_site_label_1
_geom_bond_atom_site_label_2
_geom_bond_site_symmetry_1
_geom_bond_site_symmetry_2
Mg1 O1 1_555 1_555
O1 C1 1_555 1_555
O2 Mg1 1_555 1_555
O3 Mg1 1_555 1_555
C1 H1 1_555 1_555
H2 C1 1_555 1_555
C2 C1 1_555 1_555
H3 C2 1_555 1_555
H4 C2 1_555 1_555
C3 C2 1_555 1_555
H5 C3 1_555 1_555
H6 C3 1_555 1_555
C4 O1 1_555 1_555
H7 C4 1_555 1_555
H8 C4 1_555 1_555
C5 O2 1_555 1_555
H9 C5 1_555 1_555
H10 C5 1_555 1_555
C6 C5 1_555 1_555
H11 C6 1_555 1_555
H12 C6 1_555 1_555
C7 C6 1_555 1_555
H13 C7 1_555 1_555
H14 C7 1_555 1_555
C8 O2 1_555 1_555
H15 C8 1_555 1_555
H16 C8 1_555 1_555
C9 O3 1_555 1_555
H17 C9 1_555 1_555
H18 C9 1_555 1_555
C10 C9 1_555 1_555
H19 C10 1_555 1_555
H20 C10 1_555 1_555
C11 C10 1_555 1_555
H21 C11 1_555 1_555
H22 C11 1_555 1_555
C12 O3 1_555 1_555
H23 C12 1_555 1_555
H24 C12 1_555 1_555
B1 C13 1_555 1_555
C13 H25 1_555 1_555
H26 C13 1_555 1_555
H27 C13 1_555 1_555
C14 B1 1_555 1_555
C15 C14 1_555 1_555
C16 C15 1_555 1_555
C17 C16 1_555 1_555
C18 C17 1_555 1_555
C19 C14 1_555 1_555
C20 B1 1_555 1_555
C21 C20 1_555 1_555
C22 C21 1_555 1_555
C23 C22 1_555 1_555
C24 C23 1_555 1_555
C25 C20 1_555 1_555
C26 B1 1_555 1_555
C27 C26 1_555 1_555
C28 C27 1_555 1_555
C29 C28 1_555 1_555
C30 C29 1_555 1_555
C31 C26 1_555 1_555
F1 C15 1_555 1_555
F2 C16 1_555 1_555
F3 C17 1_555 1_555
F4 C18 1_555 1_555
F5 C19 1_555 1_555
F6 C21 1_555 1_555
F7 C22 1_555 1_555
F8 C23 1_555 1_555
F9 C24 1_555 1_555
F10 C25 1_555 1_555
F11 C27 1_555 1_555
F12 C28 1_555 1_555
F13 C29 1_555 1_555
F14 C30 1_555 1_555
F15 C31 1_555 1_555
O1B Mg1 1_555 1_555
O2B Mg1 1_555 1_555
O3B Mg1 1_555 1_555
C1B O1B 1_555 1_555
H1B C1B 1_555 1_555
H2B C1B 1_555 1_555
C2B C1B 1_555 1_555
H3B C2B 1_555 1_555
H4B C2B 1_555 1_555
C3B C2B 1_555 1_555
H5B C3B 1_555 1_555
H6B C3B 1_555 1_555
C4B O1B 1_555 1_555
H7B C4B 1_555 1_555
H8B C4B 1_555 1_555
C5B O2B 1_555 1_555
H9B C5B 1_555 1_555
H10B C5B 1_555 1_555
C6B C5B 1_555 1_555
H11B C6B 1_555 1_555
H12B C6B 1_555 1_555
C7B C6B 1_555 1_555
H13B C7B 1_555 1_555
H14B C7B 1_555 1_555
C8B O2B 1_555 1_555
H15B C8B 1_555 1_555
H16B C8B 1_555 1_555
C9B O3B 1_555 1_555
H17B C9B 1_555 1_555
H18B C9B 1_555 1_555
C10B C9B 1_555 1_555
H19B C10B 1_555 1_555
H20B C10B 1_555 1_555
C11B C10B 1_555 1_555
H21B C11B 1_555 1_555
H22B C11B 1_555 1_555
C12B O3B 1_555 1_555
H23B C12B 1_555 1_555
H24B C12B 1_555 1_555
C3 C4 1_555 1_555
C7 C8 1_555 1_555
C11 C12 1_555 1_555
C18 C19 1_555 1_555
C24 C25 1_555 1_555
C30 C31 1_555 1_555
C3B C4B 1_555 1_555
C7B C8B 1_555 1_555
C11B C12B 1_555 1_555

#END
