
#######################################################################
#
#                 Cambridge Crystallographic Data Centre
#                                CCDC 
#
#######################################################################
#
# If this CIF has been generated from an entry in the Cambridge 
# Structural Database, then it will include bibliographic, chemical, 
# crystal, experimental, refinement or atomic coordinate data resulting 
# from the CCDC's data processing and validation procedures.
#
#######################################################################

data_KIZGEF
_chemical_formula_moiety         'C28 H58 Si6'
_chemical_name_systematic        
3,7-Dihydro-1,3,3,5,7,7-hexakis(trimethylsilyl)fulvalene
_symmetry_cell_setting           orthorhombic
_symmetry_space_group_name_H-M   'P b c n'
_symmetry_Int_Tables_number      60
_space_group_name_Hall           '-P 2n 2ab'
loop_
_symmetry_equiv_pos_site_id
_symmetry_equiv_pos_as_xyz
1 x,y,z
2 1/2-x,1/2-y,1/2+z
3 1/2+x,1/2-y,-z
4 -x,y,1/2-z
5 -x,-y,-z
6 1/2+x,1/2+y,1/2-z
7 1/2-x,1/2+y,z
8 x,-y,1/2+z
_cell_length_a                   10.927(2)
_cell_length_b                   18.617(6)
_cell_length_c                   18.914(7)
_cell_angle_alpha                90
_cell_angle_beta                 90
_cell_angle_gamma                90
_cell_volume                     3847.64
_exptl_crystal_colour            colorless
_chemical_melting_point          132deg.C
_cell_formula_units_Z            4
loop_
_atom_site_label
_atom_site_type_symbol
_atom_site_fract_x
_atom_site_fract_y
_atom_site_fract_z
Si1 Si 0.21053(10) 0.20053(6) 0.32901(5)
Si2 Si 0.25944(14) -0.02177(7) 0.16805(6)
Si3 Si 0.23754(11) 0.11235(7) 0.05709(6)
C1 C 0.0585(3) 0.1118(2) 0.2293(2)
C2 C 0.1745(3) 0.1431(2) 0.2517(2)
C3 C 0.2595(3) 0.1208(2) 0.2033(2)
C4 C 0.2063(3) 0.0736(2) 0.1481(2)
C5 C 0.0755(3) 0.0736(2) 0.1687(2)
C6 C 0.2093(4) 0.1469(2) 0.4121(2)
C7 C 0.3673(4) 0.2396(2) 0.3169(2)
C8 C 0.0995(4) 0.2760(2) 0.3345(2)
C9 C 0.2276(5) -0.0423(2) 0.2630(2)
C10 C 0.1728(7) -0.0889(2) 0.1132(3)
C11 C 0.4268(5) -0.0324(3) 0.1503(3)
C12 C 0.1689(6) 0.0573(3) -0.0138(2)
C13 C 0.4038(5) 0.1215(4) 0.0395(3)
C14 C 0.1697(5) 0.2019(3) 0.0524(2)
H1 H 0.0121 0.0500 0.1431
H2 H 0.3433 0.1341 0.2049
H3 H 0.2279 0.1772 0.4509
H4 H 0.1306 0.1262 0.4186
H5 H 0.2687 0.1097 0.4089
H6 H 0.3867 0.2691 0.3562
H7 H 0.4254 0.2018 0.3133
H8 H 0.3690 0.2675 0.2748
H9 H 0.1185 0.3051 0.3742
H10 H 0.1041 0.3040 0.2926
H11 H 0.0190 0.2572 0.3395
H12 H 0.2538 -0.0898 0.2733
H13 H 0.2705 -0.0092 0.2921
H14 H 0.1423 -0.0382 0.2717
H15 H 0.2006 -0.1360 0.1239
H16 H 0.0878 -0.0853 0.1234
H17 H 0.1859 -0.0792 0.0644
H18 H 0.4508 -0.0803 0.1606
H19 H 0.4429 -0.0222 0.1020
H20 H 0.4715 0.0000 0.1793
H21 H 0.1864 0.0783 -0.0583
H22 H 0.2021 0.0101 -0.0121
H23 H 0.0827 0.0550 -0.0073
H24 H 0.4157 0.1410 -0.0063
H25 H 0.4392 0.1526 0.0737
H26 H 0.4416 0.0756 0.0422
H27 H 0.1846 0.2220 0.0070
H28 H 0.0839 0.1985 0.0601
H29 H 0.2052 0.2317 0.0876
C1C C -0.0585(3) 0.1118(2) 0.2707(2)
C2C C -0.1745(3) 0.1431(2) 0.2483(2)
C5C C -0.0755(3) 0.0736(2) 0.3313(2)
Si1C Si -0.21053(10) 0.20053(6) 0.17099(5)
C3C C -0.2595(3) 0.1208(2) 0.2967(2)
C4C C -0.2063(3) 0.0736(2) 0.3519(2)
H1C H -0.0121 0.0500 0.3569
C6C C -0.2093(4) 0.1469(2) 0.0879(2)
C7C C -0.3673(4) 0.2396(2) 0.1831(2)
C8C C -0.0995(4) 0.2760(2) 0.1655(2)
H2C H -0.3433 0.1341 0.2951
Si2C Si -0.25944(14) -0.02177(7) 0.33195(6)
Si3C Si -0.23754(11) 0.11235(7) 0.44291(6)
H3C H -0.2279 0.1772 0.0491
H4C H -0.1306 0.1262 0.0814
H5C H -0.2687 0.1097 0.0911
H6C H -0.3867 0.2691 0.1438
H7C H -0.4254 0.2018 0.1867
H8C H -0.3690 0.2675 0.2252
H9C H -0.1185 0.3051 0.1258
H10C H -0.1041 0.3040 0.2074
H11C H -0.0190 0.2572 0.1605
C9C C -0.2276(5) -0.0423(2) 0.2370(2)
C10C C -0.1728(7) -0.0889(2) 0.3868(3)
C11C C -0.4268(5) -0.0324(3) 0.3497(3)
C12C C -0.1689(6) 0.0573(3) 0.5138(2)
C13C C -0.4038(5) 0.1215(4) 0.4605(3)
C14C C -0.1697(5) 0.2019(3) 0.4476(2)
H12C H -0.2538 -0.0898 0.2267
H13C H -0.2705 -0.0092 0.2079
H14C H -0.1423 -0.0382 0.2283
H15C H -0.2006 -0.1360 0.3761
H16C H -0.0878 -0.0853 0.3766
H17C H -0.1859 -0.0792 0.4356
H18C H -0.4508 -0.0803 0.3394
H19C H -0.4429 -0.0222 0.3980
H20C H -0.4715 0.0000 0.3207
H21C H -0.1864 0.0783 0.5583
H22C H -0.2021 0.0101 0.5121
H23C H -0.0827 0.0550 0.5073
H24C H -0.4157 0.1410 0.5063
H25C H -0.4392 0.1526 0.4263
H26C H -0.4416 0.0756 0.4578
H27C H -0.1846 0.2220 0.4930
H28C H -0.0839 0.1985 0.4399
H29C H -0.2052 0.2317 0.4124
loop_
_geom_bond_atom_site_label_1
_geom_bond_atom_site_label_2
_geom_bond_site_symmetry_1
_geom_bond_site_symmetry_2
Si1 C2 1_555 1_555
Si2 C4 1_555 1_555
Si3 C4 1_555 1_555
C1 C2 1_555 1_555
C2 C3 1_555 1_555
C3 C4 1_555 1_555
C4 C5 1_555 1_555
C5 C1 1_555 1_555
C6 Si1 1_555 1_555
C7 Si1 1_555 1_555
C8 Si1 1_555 1_555
C9 Si2 1_555 1_555
C10 Si2 1_555 1_555
C11 Si2 1_555 1_555
C12 Si3 1_555 1_555
C13 Si3 1_555 1_555
C14 Si3 1_555 1_555
H1 C5 1_555 1_555
H2 C3 1_555 1_555
H3 C6 1_555 1_555
H4 C6 1_555 1_555
H5 C6 1_555 1_555
H6 C7 1_555 1_555
H7 C7 1_555 1_555
H8 C7 1_555 1_555
H9 C8 1_555 1_555
H10 C8 1_555 1_555
H11 C8 1_555 1_555
H12 C9 1_555 1_555
H13 C9 1_555 1_555
H14 C9 1_555 1_555
H15 C10 1_555 1_555
H16 C10 1_555 1_555
H17 C10 1_555 1_555
H18 C11 1_555 1_555
H19 C11 1_555 1_555
H20 C11 1_555 1_555
H21 C12 1_555 1_555
H22 C12 1_555 1_555
H23 C12 1_555 1_555
H24 C13 1_555 1_555
H25 C13 1_555 1_555
H26 C13 1_555 1_555
H27 C14 1_555 1_555
H28 C14 1_555 1_555
H29 C14 1_555 1_555
C1C C1 1_555 1_555
C2C C1C 1_555 1_555
C5C C1C 1_555 1_555
Si1C C2C 1_555 1_555
C3C C2C 1_555 1_555
C4C C5C 1_555 1_555
H1C C5C 1_555 1_555
C6C Si1C 1_555 1_555
C7C Si1C 1_555 1_555
C8C Si1C 1_555 1_555
H2C C3C 1_555 1_555
Si2C C4C 1_555 1_555
Si3C C4C 1_555 1_555
H3C C6C 1_555 1_555
H4C C6C 1_555 1_555
H5C C6C 1_555 1_555
H6C C7C 1_555 1_555
H7C C7C 1_555 1_555
H8C C7C 1_555 1_555
H9C C8C 1_555 1_555
H10C C8C 1_555 1_555
H11C C8C 1_555 1_555
C9C Si2C 1_555 1_555
C10C Si2C 1_555 1_555
C11C Si2C 1_555 1_555
C12C Si3C 1_555 1_555
C13C Si3C 1_555 1_555
C14C Si3C 1_555 1_555
H12C C9C 1_555 1_555
H13C C9C 1_555 1_555
H14C C9C 1_555 1_555
H15C C10C 1_555 1_555
H16C C10C 1_555 1_555
H17C C10C 1_555 1_555
H18C C11C 1_555 1_555
H19C C11C 1_555 1_555
H20C C11C 1_555 1_555
H21C C12C 1_555 1_555
H22C C12C 1_555 1_555
H23C C12C 1_555 1_555
H24C C13C 1_555 1_555
H25C C13C 1_555 1_555
H26C C13C 1_555 1_555
H27C C14C 1_555 1_555
H28C C14C 1_555 1_555
H29C C14C 1_555 1_555
C3C C4C 1_555 1_555

#END
