
#######################################################################
#
#                 Cambridge Crystallographic Data Centre
#                                CCDC 
#
#######################################################################
#
# If this CIF has been generated from an entry in the Cambridge 
# Structural Database, then it will include bibliographic, chemical, 
# crystal, experimental, refinement or atomic coordinate data resulting 
# from the CCDC's data processing and validation procedures.
#
#######################################################################

data_KIZQEQ
_chemical_formula_moiety         'C26 H20 Br1 N1 O1'
_chemical_name_systematic        N-(2-Bromophenyl)-2,2,2-triphenylacetamide
_symmetry_cell_setting           triclinic
_symmetry_space_group_name_H-M   'P -1'
_symmetry_Int_Tables_number      2
_space_group_name_Hall           '-P 1'
loop_
_symmetry_equiv_pos_site_id
_symmetry_equiv_pos_as_xyz
1 x,y,z
2 -x,-y,-z
_cell_length_a                   9.4628(18)
_cell_length_b                   9.6755(19)
_cell_length_c                   13.058(3)
_cell_angle_alpha                72.908(4)
_cell_angle_beta                 75.294(4)
_cell_angle_gamma                66.122(4)
_cell_volume                     1032.42
_exptl_crystal_colour            colorless
_exptl_crystal_description       prismatic
_chemical_melting_point          '165-166 deg.C'
_cell_formula_units_Z            2
_exptl_crystal_recrystallization_method chloroform
loop_
_atom_site_label
_atom_site_type_symbol
_atom_site_fract_x
_atom_site_fract_y
_atom_site_fract_z
Br1 Br 0.31786(10) 1.15622(11) 0.57613(6)
O1 O 0.7595(5) 0.9447(5) 0.8111(4)
N1 N 0.5951(6) 0.9814(5) 0.6997(4)
C1 C 0.6655(6) 0.9077(6) 0.7897(4)
C2 C 0.6157(9) 1.1026(7) 0.6137(5)
C3 C 0.7620(12) 1.1234(10) 0.5940(6)
H1 H 0.8394 1.0618 0.6370
C4 C 0.783(2) 1.2437(16) 0.5048(9)
H2 H 0.8755 1.2633 0.4879
C5 C 0.664(2) 1.3308(14) 0.4439(8)
H3 H 0.6786 1.4104 0.3866
C6 C 0.5294(17) 1.3061(11) 0.4635(8)
H4 H 0.4542 1.3659 0.4185
C7 C 0.5012(13) 1.1921(7) 0.5503(5)
C8 C 0.6188(5) 0.7661(5) 0.8584(4)
C9 C 0.7215(5) 0.6236(6) 0.8081(4)
C10 C 0.7239(6) 0.4770(6) 0.8656(5)
H5 H 0.6640 0.4666 0.9340
C11 C 0.8116(6) 0.3474(7) 0.8246(5)
H6 H 0.8086 0.2512 0.8642
C12 C 0.9038(7) 0.3592(8) 0.7254(6)
H7 H 0.9646 0.2713 0.6976
C13 C 0.9057(8) 0.5016(8) 0.6676(5)
H8 H 0.9683 0.5102 0.6001
C14 C 0.8153(7) 0.6339(7) 0.7084(4)
H9 H 0.8181 0.7298 0.6682
C15 C 0.6562(5) 0.7284(5) 0.9746(4)
C16 C 0.5448(6) 0.7309(6) 1.0658(4)
H10 H 0.4406 0.7611 1.0584
C17 C 0.5848(7) 0.6893(6) 1.1687(5)
H11 H 0.5078 0.6913 1.2295
C18 C 0.7376(8) 0.6455(6) 1.1809(5)
H12 H 0.7650 0.6184 1.2495
C19 C 0.8490(7) 0.6421(6) 1.0909(5)
H13 H 0.9529 0.6125 1.0988
C20 C 0.8108(6) 0.6816(6) 0.9886(4)
H14 H 0.8890 0.6770 0.9284
C21 C 0.4434(5) 0.8066(5) 0.8591(4)
C22 C 0.3355(6) 0.9410(6) 0.8914(4)
H15 H 0.3712 1.0035 0.9124
C23 C 0.1784(6) 0.9837(6) 0.8930(5)
H16 H 0.1092 1.0744 0.9146
C24 C 0.1219(6) 0.8923(7) 0.8626(5)
H17 H 0.0151 0.9203 0.8642
C25 C 0.2257(6) 0.7607(7) 0.8302(5)
H18 H 0.1890 0.6990 0.8091
C26 C 0.3846(6) 0.7172(6) 0.8282(5)
H19 H 0.4531 0.6269 0.8057
H20 H 0.527(6) 0.949(6) 0.692(4)
loop_
_geom_bond_atom_site_label_1
_geom_bond_atom_site_label_2
_geom_bond_site_symmetry_1
_geom_bond_site_symmetry_2
Br1 C7 1_555 1_555
O1 C1 1_555 1_555
N1 C1 1_555 1_555
C1 C8 1_555 1_555
C2 N1 1_555 1_555
C3 C2 1_555 1_555
H1 C3 1_555 1_555
C4 C3 1_555 1_555
H2 C4 1_555 1_555
C5 C4 1_555 1_555
H3 C5 1_555 1_555
C6 C5 1_555 1_555
H4 C6 1_555 1_555
C7 C2 1_555 1_555
C8 C9 1_555 1_555
C9 C10 1_555 1_555
C10 H5 1_555 1_555
C11 C10 1_555 1_555
H6 C11 1_555 1_555
C12 C11 1_555 1_555
H7 C12 1_555 1_555
C13 C12 1_555 1_555
H8 C13 1_555 1_555
C14 C9 1_555 1_555
H9 C14 1_555 1_555
C15 C8 1_555 1_555
C16 C15 1_555 1_555
H10 C16 1_555 1_555
C17 C16 1_555 1_555
H11 C17 1_555 1_555
C18 C17 1_555 1_555
H12 C18 1_555 1_555
C19 C18 1_555 1_555
H13 C19 1_555 1_555
C20 C15 1_555 1_555
H14 C20 1_555 1_555
C21 C8 1_555 1_555
C22 C21 1_555 1_555
H15 C22 1_555 1_555
C23 C22 1_555 1_555
H16 C23 1_555 1_555
C24 C23 1_555 1_555
H17 C24 1_555 1_555
C25 C24 1_555 1_555
H18 C25 1_555 1_555
C26 C21 1_555 1_555
H19 C26 1_555 1_555
H20 N1 1_555 1_555
C6 C7 1_555 1_555
C13 C14 1_555 1_555
C19 C20 1_555 1_555
C25 C26 1_555 1_555

#END
