
#######################################################################
#
#                 Cambridge Crystallographic Data Centre
#                                CCDC 
#
#######################################################################
#
# If this CIF has been generated from an entry in the Cambridge 
# Structural Database, then it will include bibliographic, chemical, 
# crystal, experimental, refinement or atomic coordinate data resulting 
# from the CCDC's data processing and validation procedures.
#
#######################################################################

data_KIZXIB
_chemical_formula_moiety         
'C16 H36 N1 1+,C24 H13 N5 O2,C2 H3 O2 1-,C1 H1 Cl3,0.5(H2 O1)'
_chemical_name_systematic        
"Tetra-n-butylammonium 13-nitro-5,6-dihydrodi-indolo(3,2-a:2',3'-c)phenazine acetate chloroform solvate hemihydrate"
_symmetry_cell_setting           triclinic
_symmetry_space_group_name_H-M   'P -1'
_symmetry_Int_Tables_number      2
_space_group_name_Hall           '-P 1'
loop_
_symmetry_equiv_pos_site_id
_symmetry_equiv_pos_as_xyz
1 x,y,z
2 -x,-y,-z
_cell_length_a                   12.077(2)
_cell_length_b                   13.878(3)
_cell_length_c                   14.279(3)
_cell_angle_alpha                108.73(3)
_cell_angle_beta                 107.18(3)
_cell_angle_gamma                95.52(3)
_cell_volume                     2116.54
_cell_formula_units_Z            2
_exptl_crystal_recrystallization_method chloroform/n-hexane
loop_
_atom_site_label
_atom_site_type_symbol
_atom_site_fract_x
_atom_site_fract_y
_atom_site_fract_z
N9 N 0.68536(16) 0.70861(15) 0.34447(15)
C31 C 0.5758(2) 0.65130(18) 0.3509(2)
H15 H 0.5063 0.6473 0.2908
H16 H 0.5636 0.6929 0.4164
C32 C 0.5796(2) 0.54182(19) 0.3499(2)
H17 H 0.6389 0.5454 0.4165
H18 H 0.6042 0.5024 0.2909
C33 C 0.4582(2) 0.4856(2) 0.3374(2)
H19 H 0.4000 0.4796 0.2693
H20 H 0.4322 0.5272 0.3945
C34 C 0.4604(3) 0.3772(2) 0.3412(2)
H21 H 0.4861 0.3357 0.2848
H22 H 0.3808 0.3432 0.3317
H23 H 0.5158 0.3830 0.4096
C35 C 0.7970(2) 0.69760(19) 0.42099(19)
H24 H 0.8666 0.7340 0.4134
H25 H 0.7999 0.6229 0.4003
C36 C 0.8085(2) 0.73947(19) 0.5365(2)
H26 H 0.8235 0.8165 0.5631
H27 H 0.7337 0.7135 0.5442
C37 C 0.9099(2) 0.7046(2) 0.6002(2)
H28 H 0.8942 0.6276 0.5727
H29 H 0.9840 0.7300 0.5911
C38 C 0.9270(2) 0.7441(2) 0.7166(2)
H30 H 0.9439 0.8204 0.7447
H31 H 0.9934 0.7198 0.7542
H32 H 0.8546 0.7177 0.7264
C39 C 0.6774(2) 0.82249(18) 0.3711(2)
H33 H 0.6740 0.8503 0.4431
H34 H 0.6022 0.8265 0.3218
C40 C 0.7793(2) 0.89208(19) 0.3660(2)
H35 H 0.8541 0.8947 0.4202
H36 H 0.7875 0.8623 0.2960
C41 C 0.7579(2) 1.0013(2) 0.3841(3)
H37 H 0.7343 1.0256 0.4472
H38 H 0.6917 1.0001 0.3229
C42 C 0.8670(3) 1.0772(2) 0.3998(3)
H39 H 0.9329 1.0785 0.4602
H40 H 0.8499 1.1470 0.4129
H41 H 0.8886 1.0551 0.3363
C43 C 0.6924(2) 0.66167(19) 0.23464(18)
H42 H 0.7688 0.6958 0.2357
H43 H 0.6937 0.5871 0.2195
C44 C 0.5942(2) 0.66982(19) 0.14461(19)
H44 H 0.5865 0.7432 0.1604
H45 H 0.5179 0.6280 0.1355
C45 C 0.6232(2) 0.62989(19) 0.04382(19)
H46 H 0.6973 0.6748 0.0527
H47 H 0.6374 0.5586 0.0323
C46 C 0.5254(2) 0.6280(2) -0.0529(2)
H48 H 0.4513 0.5846 -0.0615
H49 H 0.5474 0.5990 -0.1154
H50 H 0.5143 0.6990 -0.0440
Cl1 Cl 0.26393(7) 0.17879(6) 1.06753(6)
Cl2 Cl 0.38982(8) 0.07100(6) 0.93523(7)
Cl3 Cl 0.14619(16) -0.02436(13) 0.9062(4)
C47 C 0.2838(2) 0.0567(2) 0.9937(2)
H51 H 0.3155 0.0244 1.0431
O5 O 0.38572(17) -0.06664(14) 0.13254(15)
O6 O 0.43303(18) -0.07633(14) 0.29108(15)
C48 C 0.4266(2) -0.0262(2) 0.2313(2)
C49 C 0.4706(2) 0.0910(2) 0.2802(2)
H55 H 0.5140 0.1116 0.3558
H56 H 0.4029 0.1249 0.2699
H57 H 0.5234 0.1121 0.2465
O7 O 0.4466(4) 0.0354(5) 0.4901(4)
H58 H 0.502(6) 0.033(7) 0.542(3)
H59 H 0.453(7) -0.001(6) 0.432(2)
O7A O 0.5534(4) -0.0354(5) 0.5099(4)
H58A H 0.498(6) -0.033(7) 0.458(3)
H59A H 0.547(7) 0.001(6) 0.568(2)
N1 N 0.29063(18) 0.73231(17) 1.00026(17)
N2 N 0.30503(17) 0.72923(16) 1.22180(16)
C1 C 0.2558(2) 0.6990(2) 0.8915(2)
C2 C 0.2804(3) 0.7518(2) 0.8299(2)
H1 H 0.3274 0.8204 0.8602
C3 C 0.2326(3) 0.6987(3) 0.7213(2)
H2 H 0.2479 0.7320 0.6764
C4 C 0.1627(3) 0.5979(3) 0.6760(2)
H3 H 0.1306 0.5652 0.6014
C5 C 0.1397(2) 0.5456(2) 0.7369(2)
H4 H 0.0921 0.4771 0.7057
C6 C 0.1882(2) 0.5957(2) 0.8469(2)
C7 C 0.1837(2) 0.56692(18) 0.93399(19)
C8 C 0.12868(19) 0.47345(18) 0.9396(2)
C9 C 0.13534(19) 0.47295(18) 1.0434(2)
C10 C 0.19616(19) 0.56445(18) 1.13410(19)
C11 C 0.2119(2) 0.59146(19) 1.2437(2)
C12 C 0.1739(2) 0.5414(2) 1.3032(2)
H5 H 0.1265 0.4729 1.2706
C13 C 0.2069(3) 0.5942(3) 1.4102(2)
H6 H 0.1814 0.5611 1.4513
C14 C 0.2762(3) 0.6942(3) 1.4599(2)
H7 H 0.2982 0.7274 1.5341
C15 C 0.3139(2) 0.7465(2) 1.4037(2)
H8 H 0.3606 0.8153 1.4375
C16 C 0.2806(2) 0.69413(19) 1.2955(2)
C17 C 0.25289(19) 0.65192(17) 1.12516(19)
C18 C 0.2463(2) 0.65312(18) 1.02477(19)
O1 O -0.1995(8) -0.0393(5) 0.7143(4)
O2 O -0.1361(3) 0.0276(2) 0.6182(2)
N3 N -0.1452(2) 0.0325(2) 0.7028(2)
N4 N 0.0752(5) 0.3877(5) 0.8561(4)
N5 N 0.0869(6) 0.3919(5) 1.0600(4)
C19 C 0.0251(7) 0.3034(4) 0.8711(5)
C20 C -0.0332(5) 0.2119(4) 0.7810(3)
H9 H -0.0358 0.2089 0.7130
C21 C -0.0856(4) 0.1281(3) 0.7945(3)
C22 C -0.0848(3) 0.1289(3) 0.8935(3)
H10 H -0.1230 0.0693 0.8998
C23 C -0.0281(4) 0.2168(3) 0.9805(3)
H11 H -0.0271 0.2184 1.0477
C24 C 0.0291(9) 0.3056(5) 0.9715(5)
H53 H 0.327(3) 0.796(2) 1.049(2)
H54 H 0.348(3) 0.792(2) 1.237(2)
O3? O -0.185(2) -0.0418(17) 0.7554(15)
O4? O -0.1184(10) 0.0185(9) 0.9259(11)
N6? N -0.1323(10) 0.0266(8) 0.8410(10)
N7? N 0.079(2) 0.398(2) 0.8321(17)
N8? N 0.082(3) 0.378(2) 1.0292(16)
C25? C 0.026(3) 0.3090(15) 0.8392(13)
C26? C -0.030(2) 0.2246(12) 0.7439(12)
H12? H -0.0303 0.2301 0.6793
C27? C -0.0851(16) 0.1329(10) 0.7450(10)
H13? H -0.1279 0.0765 0.6808
C28? C -0.0771(15) 0.1242(9) 0.8408(10)
C29? C -0.0215(16) 0.2068(10) 0.9356(10)
H14? H -0.0189 0.2000 1.0003
C30? C 0.031(3) 0.3005(12) 0.9342(13)
Cl4? Cl 0.1576(9) 0.0009(19) 0.8722(12)
H52? H 0.2978 0.0112 1.0323
loop_
_geom_bond_atom_site_label_1
_geom_bond_atom_site_label_2
_geom_bond_site_symmetry_1
_geom_bond_site_symmetry_2
N1 C1 1_555 1_555
N2 C16 1_555 1_555
C1 C2 1_555 1_555
C2 H1 1_555 1_555
C3 C2 1_555 1_555
H2 C3 1_555 1_555
C4 C3 1_555 1_555
H3 C4 1_555 1_555
C5 C4 1_555 1_555
H4 C5 1_555 1_555
C6 C1 1_555 1_555
C7 C6 1_555 1_555
C8 C7 1_555 1_555
C9 C8 1_555 1_555
C10 C9 1_555 1_555
C11 C10 1_555 1_555
C12 C11 1_555 1_555
H5 C12 1_555 1_555
C13 C12 1_555 1_555
H6 C13 1_555 1_555
C14 C13 1_555 1_555
H7 C14 1_555 1_555
C15 C14 1_555 1_555
H8 C15 1_555 1_555
C16 C11 1_555 1_555
C17 N2 1_555 1_555
C18 N1 1_555 1_555
O1 N3 1_555 1_555
O2 N3 1_555 1_555
N3 C21 1_555 1_555
N4 C8 1_555 1_555
N5 C9 1_555 1_555
C19 N4 1_555 1_555
C20 C19 1_555 1_555
H9 C20 1_555 1_555
C21 C20 1_555 1_555
C22 C21 1_555 1_555
H10 C22 1_555 1_555
C23 C22 1_555 1_555
H11 C23 1_555 1_555
C24 N5 1_555 1_555
N9 C31 1_555 1_555
C31 H15 1_555 1_555
H16 C31 1_555 1_555
C32 C31 1_555 1_555
H17 C32 1_555 1_555
H18 C32 1_555 1_555
C33 C32 1_555 1_555
H19 C33 1_555 1_555
H20 C33 1_555 1_555
C34 C33 1_555 1_555
H21 C34 1_555 1_555
H22 C34 1_555 1_555
H23 C34 1_555 1_555
C35 N9 1_555 1_555
H24 C35 1_555 1_555
H25 C35 1_555 1_555
C36 C35 1_555 1_555
H26 C36 1_555 1_555
H27 C36 1_555 1_555
C37 C36 1_555 1_555
H28 C37 1_555 1_555
H29 C37 1_555 1_555
C38 C37 1_555 1_555
H30 C38 1_555 1_555
H31 C38 1_555 1_555
H32 C38 1_555 1_555
C39 N9 1_555 1_555
H33 C39 1_555 1_555
H34 C39 1_555 1_555
C40 C39 1_555 1_555
H35 C40 1_555 1_555
H36 C40 1_555 1_555
C41 C40 1_555 1_555
H37 C41 1_555 1_555
H38 C41 1_555 1_555
C42 C41 1_555 1_555
H39 C42 1_555 1_555
H40 C42 1_555 1_555
H41 C42 1_555 1_555
C43 N9 1_555 1_555
H42 C43 1_555 1_555
H43 C43 1_555 1_555
C44 C43 1_555 1_555
H44 C44 1_555 1_555
H45 C44 1_555 1_555
C45 C44 1_555 1_555
H46 C45 1_555 1_555
H47 C45 1_555 1_555
C46 C45 1_555 1_555
H48 C46 1_555 1_555
H49 C46 1_555 1_555
H50 C46 1_555 1_555
Cl1 C47 1_555 1_555
Cl2 C47 1_555 1_555
Cl3 C47 1_555 1_555
C47 H51 1_555 1_555
H53 N1 1_555 1_555
H54 N2 1_555 1_555
O5 C48 1_555 1_555
O6 C48 1_555 1_555
C48 C49 1_555 1_555
C49 H55 1_555 1_555
H56 C49 1_555 1_555
H57 C49 1_555 1_555
O7 H58 1_555 1_555
H58 O7A 1_555 1_555
H59 O7 1_555 1_555
O7A O7 1_555 1_555
H58A O7 1_555 1_555
H59A H58 1_555 1_555
C5 C6 1_555 1_555
C7 C18 1_555 1_555
C10 C17 1_555 1_555
C15 C16 1_555 1_555
C17 C18 1_555 1_555
C19 C24 1_555 1_555
C23 C24 1_555 1_555
H59 H58A 1_555 1_555
O7A H58A 1_555 1_555
O7A H59A 1_555 1_555

#END
