
#######################################################################
#
#                 Cambridge Crystallographic Data Centre
#                                CCDC 
#
#######################################################################
#
# If this CIF has been generated from an entry in the Cambridge 
# Structural Database, then it will include bibliographic, chemical, 
# crystal, experimental, refinement or atomic coordinate data resulting 
# from the CCDC's data processing and validation procedures.
#
#######################################################################

data_KOBJIX
_chemical_formula_moiety         'C30 H24 O9,C1 H1 Cl3'
_chemical_name_systematic        
'3,10,17-trioxotetracyclo[16.3.1.1^4,8^.1^11,15^]tetracosa-1(22),4(24),5,7,11(23),12,14,18,20-nonaene-2,9,16-triyl triacetate chloroform solvate'
_symmetry_cell_setting           triclinic
_symmetry_space_group_name_H-M   'P -1'
_symmetry_Int_Tables_number      2
_space_group_name_Hall           '-P 1'
loop_
_symmetry_equiv_pos_site_id
_symmetry_equiv_pos_as_xyz
1 x,y,z
2 -x,-y,-z
_cell_length_a                   9.0924(2)
_cell_length_b                   10.4187(3)
_cell_length_c                   15.9902(4)
_cell_angle_alpha                76.9300(10)
_cell_angle_beta                 78.0490(10)
_cell_angle_gamma                86.0090(10)
_cell_volume                     1443.13
_exptl_crystal_colour            colorless
_exptl_crystal_description       polyhedron
_cell_formula_units_Z            2
loop_
_atom_site_label
_atom_site_type_symbol
_atom_site_fract_x
_atom_site_fract_y
_atom_site_fract_z
O1 O 0.3540(2) 0.12416(17) 0.39513(12)
O2 O 0.41306(19) 0.18346(15) 0.53151(10)
O3 O 0.4362(2) 0.33246(16) 0.60929(11)
O4 O 1.1378(2) 0.3992(2) 0.42651(15)
O5 O 1.1052(2) 0.64561(17) 0.36084(12)
O6 O 0.9573(2) 0.8272(2) 0.34021(19)
O7 O 0.7189(3) 0.7337(2) 0.02435(12)
O8 O 0.4981(3) 0.9144(2) 0.13914(14)
O9 O 0.4416(2) 0.72009(17) 0.11654(12)
C1 C 0.4194(3) 0.2265(2) 0.37939(15)
C2 C 0.4795(3) 0.2713(2) 0.45099(14)
H1 H 0.4496 0.3651 0.4524
C3 C 0.4070(3) 0.2224(2) 0.60690(15)
C4 C 0.3670(3) 0.1111(3) 0.68373(17)
H2 H 0.2781 0.0679 0.6784
H3 H 0.3453 0.1449 0.7376
H4 H 0.4514 0.0474 0.6858
C5 C 0.6493(3) 0.2516(2) 0.43654(14)
C6 C 0.7065(3) 0.1230(2) 0.44178(15)
H5 H 0.6391 0.0529 0.4517
C7 C 0.8595(3) 0.0950(3) 0.43285(17)
H6 H 0.8961 0.0068 0.4358
C8 C 0.9582(3) 0.1951(3) 0.41976(17)
H7 H 1.0630 0.1759 0.4146
C9 C 0.9047(3) 0.3244(3) 0.41406(16)
C10 C 0.7486(3) 0.3539(2) 0.42181(15)
H8 H 0.7121 0.4424 0.4170
C11 C 1.0190(3) 0.4268(3) 0.40222(17)
C12 C 0.9840(3) 0.5672(2) 0.35548(17)
H9 H 0.8860 0.5997 0.3861
C13 C 1.0780(3) 0.7760(3) 0.35008(18)
C14 C 1.2166(3) 0.8457(3) 0.34825(19)
H10 H 1.2816 0.8556 0.2902
H11 H 1.2703 0.7944 0.3925
H12 H 1.1890 0.9329 0.3609
C15 C 0.9801(3) 0.5758(2) 0.25944(18)
C16 C 1.1089(3) 0.5499(3) 0.2026(2)
H13 H 1.1979 0.5206 0.2243
C17 C 1.1101(3) 0.5661(4) 0.1144(2)
H14 H 1.1991 0.5460 0.0761
C18 C 0.9808(3) 0.6119(3) 0.0811(2)
H15 H 0.9834 0.6273 0.0199
C19 C 0.8488(3) 0.6347(2) 0.13768(18)
C20 C 0.8494(3) 0.6153(2) 0.22714(17)
H16 H 0.7591 0.6293 0.2665
C21 C 0.7111(3) 0.6827(2) 0.10054(16)
C22 C 0.5570(3) 0.6561(2) 0.16190(15)
H17 H 0.5532 0.6889 0.2164
C23 C 0.4271(3) 0.8528(3) 0.10698(18)
C24 C 0.3130(4) 0.9068(3) 0.0524(2)
H18 H 0.2952 1.0009 0.0517
H19 H 0.2187 0.8599 0.0771
H20 H 0.3501 0.8952 -0.0076
C25 C 0.5253(3) 0.5107(2) 0.18412(15)
C26 C 0.5251(3) 0.4475(3) 0.11626(16)
H21 H 0.5510 0.4949 0.0573
C27 C 0.4876(3) 0.3165(3) 0.13376(18)
H22 H 0.4857 0.2745 0.0871
C28 C 0.4526(3) 0.2468(3) 0.21991(17)
H23 H 0.4263 0.1568 0.2322
C29 C 0.4557(3) 0.3079(2) 0.28852(15)
C30 C 0.4918(2) 0.4409(2) 0.27032(15)
H24 H 0.4934 0.4833 0.3168
C31 C -0.0522(4) 0.1194(4) 0.1993(3)
H25 H -0.0857 0.0574 0.2569
Cl1 Cl 0.13559(12) 0.15979(16) 0.18788(9)
Cl2 Cl -0.0839(5) 0.0503(4) 0.1136(3)
Cl3 Cl -0.1528(4) 0.2706(3) 0.1974(2)
C32? C -0.0047(12) 0.1619(12) 0.1425(8)
H26? H 0.0624 0.2170 0.0914
Cl4? Cl -0.1723(12) 0.2481(12) 0.1816(8)
Cl5? Cl -0.0716(8) 0.0204(11) 0.1169(6)
Cl6? Cl 0.0932(6) 0.0710(8) 0.2211(3)
loop_
_geom_bond_atom_site_label_1
_geom_bond_atom_site_label_2
_geom_bond_site_symmetry_1
_geom_bond_site_symmetry_2
O1 C1 1_555 1_555
O2 C2 1_555 1_555
O3 C3 1_555 1_555
O4 C11 1_555 1_555
O5 C12 1_555 1_555
O6 C13 1_555 1_555
O7 C21 1_555 1_555
O8 C23 1_555 1_555
O9 C22 1_555 1_555
C1 C2 1_555 1_555
C2 H1 1_555 1_555
C3 O2 1_555 1_555
C4 C3 1_555 1_555
H2 C4 1_555 1_555
H3 C4 1_555 1_555
H4 C4 1_555 1_555
C5 C2 1_555 1_555
C6 C5 1_555 1_555
H5 C6 1_555 1_555
C7 C6 1_555 1_555
H6 C7 1_555 1_555
C8 C7 1_555 1_555
H7 C8 1_555 1_555
C9 C8 1_555 1_555
C10 C5 1_555 1_555
H8 C10 1_555 1_555
C11 C9 1_555 1_555
C12 C11 1_555 1_555
H9 C12 1_555 1_555
C13 O5 1_555 1_555
C14 C13 1_555 1_555
H10 C14 1_555 1_555
H11 C14 1_555 1_555
H12 C14 1_555 1_555
C15 C12 1_555 1_555
C16 C15 1_555 1_555
H13 C16 1_555 1_555
C17 C16 1_555 1_555
H14 C17 1_555 1_555
C18 C17 1_555 1_555
H15 C18 1_555 1_555
C19 C18 1_555 1_555
C20 C15 1_555 1_555
H16 C20 1_555 1_555
C21 C19 1_555 1_555
C22 C21 1_555 1_555
H17 C22 1_555 1_555
C23 O9 1_555 1_555
C24 C23 1_555 1_555
H18 C24 1_555 1_555
H19 C24 1_555 1_555
H20 C24 1_555 1_555
C25 C22 1_555 1_555
C26 C25 1_555 1_555
H21 C26 1_555 1_555
C27 C26 1_555 1_555
H22 C27 1_555 1_555
C28 C27 1_555 1_555
H23 C28 1_555 1_555
C29 C1 1_555 1_555
C30 C25 1_555 1_555
H24 C30 1_555 1_555
C31 H25 1_555 1_555
Cl1 C31 1_555 1_555
Cl2 C31 1_555 1_555
Cl3 C31 1_555 1_555
C9 C10 1_555 1_555
C19 C20 1_555 1_555
C28 C29 1_555 1_555
C29 C30 1_555 1_555

#END
