
#######################################################################
#
#                 Cambridge Crystallographic Data Centre
#                                CCDC 
#
#######################################################################
#
# If this CIF has been generated from an entry in the Cambridge 
# Structural Database, then it will include bibliographic, chemical, 
# crystal, experimental, refinement or atomic coordinate data resulting 
# from the CCDC's data processing and validation procedures.
#
#######################################################################

data_KOBJET
_chemical_formula_moiety         'C48 H48 O12,0.62(C1 S2)'
_chemical_name_systematic        
'3,9,15,21-tetraoxopentacyclo[20.2.2.2^4,7^.2^10,13^.2^16,19^]dotriaconta-1(24),4,6,10,12,16,18,22,25,27,29,31-dodecaene-2,8,14,20-tetrayl tetrakis(2-methylpropanoate) carbon disulfide solvate'
_symmetry_cell_setting           tetragonal
_symmetry_space_group_name_H-M   'P 4/n'
_symmetry_Int_Tables_number      85
_space_group_name_Hall           '-P 4a'
loop_
_symmetry_equiv_pos_site_id
_symmetry_equiv_pos_as_xyz
1 x,y,z
2 1/2-x,1/2-y,z
3 1/2-y,x,z
4 y,1/2-x,z
5 -x,-y,-z
6 1/2+x,1/2+y,-z
7 1/2+y,-x,-z
8 -y,1/2+x,-z
_cell_length_a                   18.8252(7)
_cell_length_b                   18.8252(7)
_cell_length_c                   6.6536(4)
_cell_angle_alpha                90
_cell_angle_beta                 90
_cell_angle_gamma                90
_cell_volume                     2357.96
_exptl_crystal_colour            colorless
_exptl_crystal_description       plate
_cell_formula_units_Z            2
loop_
_atom_site_label
_atom_site_type_symbol
_atom_site_fract_x
_atom_site_fract_y
_atom_site_fract_z
C1 C 0.90070(19) 0.39741(17) 0.2635(5)
C2 C 0.82265(18) 0.43078(18) 0.5619(5)
H1 H 0.8626 0.4296 0.6491
C3 C 0.75609(18) 0.44578(19) 0.6387(5)
H2 H 0.7504 0.4539 0.7787
C4 C 0.69747(18) 0.44908(18) 0.5117(5)
C5 C 0.7061(2) 0.4375(2) 0.3080(6)
H3 H 0.6664 0.4408 0.2201
C6 C 0.77255(19) 0.42120(19) 0.2323(5)
H4 H 0.7780 0.4125 0.0925
C7 C 0.62396(18) 0.46250(18) 0.5999(5)
H5 H 0.5884 0.4685 0.4897
C8 C 0.5649(2) 0.55311(19) 0.7822(6)
C9 C 0.5745(2) 0.6189(2) 0.9084(7)
H6 H 0.5262 0.6378 0.9403
C10 C 0.6112(3) 0.6008(2) 1.1091(7)
H7 H 0.6592 0.5829 1.0827
H8 H 0.5837 0.5643 1.1797
H9 H 0.6140 0.6436 1.1924
C11 C 0.6146(2) 0.6763(2) 0.7941(8)
H10 H 0.6631 0.6601 0.7671
H11 H 0.6160 0.7198 0.8749
H12 H 0.5903 0.6859 0.6666
C12 C 0.83151(19) 0.41732(17) 0.3577(5)
O1 O 0.50950(13) 0.52572(14) 0.7381(4)
O2 O 0.62835(13) 0.52644(13) 0.7180(4)
O3 O 0.90750(14) 0.39522(14) 0.0816(4)
C1F C 0.89741(17) 0.09930(19) 0.7365(5)
C2F C 0.93078(18) 0.17735(18) 0.4381(5)
H1F H 0.9296 0.1374 0.3509
C3F C 0.94578(19) 0.24391(18) 0.3613(5)
H2F H 0.9539 0.2496 0.2213
C4F C 0.94908(18) 0.30253(18) 0.4883(5)
C5F C 0.9375(2) 0.2939(2) 0.6920(6)
H3F H 0.9408 0.3336 0.7799
C6F C 0.92120(19) 0.22745(19) 0.7677(5)
H4F H 0.9125 0.2220 0.9075
C7F C 0.96250(18) 0.37604(18) 0.4001(5)
H5F H 0.9685 0.4116 0.5103
C8F C 1.05311(19) 0.4351(2) 0.2178(6)
C9F C 1.1189(2) 0.4255(2) 0.0916(7)
H6F H 1.1378 0.4738 0.0597
C10F C 1.1008(2) 0.3888(3) -0.1091(7)
H7F H 1.0829 0.3408 -0.0827
H8F H 1.0643 0.4163 -0.1797
H9F H 1.1436 0.3860 -0.1924
C11F C 1.1763(2) 0.3854(2) 0.2059(8)
H10F H 1.1601 0.3369 0.2329
H11F H 1.2198 0.3840 0.1251
H12F H 1.1859 0.4097 0.3334
C12F C 0.91732(17) 0.16849(19) 0.6423(5)
O1F O 1.02572(14) 0.49050(13) 0.2619(4)
O2F O 1.02644(13) 0.37165(13) 0.2820(4)
O3F O 0.89522(14) 0.09250(14) 0.9184(4)
C1G C 0.60259(17) 0.40070(19) 0.7365(5)
C2G C 0.56922(18) 0.32265(18) 0.4381(5)
H1G H 0.5704 0.3626 0.3509
C3G C 0.55422(19) 0.25609(18) 0.3613(5)
H2G H 0.5461 0.2504 0.2213
C4G C 0.55092(18) 0.19747(18) 0.4883(5)
C5G C 0.5625(2) 0.2061(2) 0.6920(6)
H3G H 0.5592 0.1664 0.7799
C6G C 0.57880(19) 0.27255(19) 0.7677(5)
H4G H 0.5875 0.2780 0.9075
C7G C 0.53750(18) 0.12396(18) 0.4001(5)
H5G H 0.5315 0.0884 0.5103
C8G C 0.44689(19) 0.0649(2) 0.2178(6)
C9G C 0.3811(2) 0.0745(2) 0.0916(7)
H6G H 0.3622 0.0262 0.0597
C10G C 0.3992(2) 0.1112(3) -0.1091(7)
H7G H 0.4171 0.1592 -0.0827
H8G H 0.4357 0.0837 -0.1797
H9G H 0.3564 0.1140 -0.1924
C11G C 0.3237(2) 0.1146(2) 0.2059(8)
H10G H 0.3399 0.1631 0.2329
H11G H 0.2802 0.1160 0.1251
H12G H 0.3141 0.0903 0.3334
C12G C 0.58268(17) 0.33151(19) 0.6423(5)
O1G O 0.47428(14) 0.00950(13) 0.2619(4)
O2G O 0.47356(13) 0.12835(13) 0.2820(4)
O3G O 0.60478(14) 0.40750(14) 0.9184(4)
C1A C 0.59930(19) 0.10259(17) 0.2635(5)
C2A C 0.67735(18) 0.06922(18) 0.5619(5)
H1A H 0.6374 0.0704 0.6491
C3A C 0.74391(18) 0.05422(19) 0.6387(5)
H2A H 0.7496 0.0461 0.7787
C4A C 0.80253(18) 0.05092(18) 0.5117(5)
C5A C 0.7939(2) 0.0625(2) 0.3080(6)
H3A H 0.8336 0.0592 0.2201
C6A C 0.72745(19) 0.07880(19) 0.2323(5)
H4A H 0.7220 0.0875 0.0925
C7A C 0.87604(18) 0.03750(18) 0.5999(5)
H5A H 0.9116 0.0315 0.4897
C8A C 0.9351(2) -0.05311(19) 0.7822(6)
C9A C 0.9255(2) -0.1189(2) 0.9084(7)
H6A H 0.9738 -0.1378 0.9403
C10A C 0.8888(3) -0.1008(2) 1.1091(7)
H7A H 0.8408 -0.0829 1.0827
H8A H 0.9163 -0.0643 1.1797
H9A H 0.8860 -0.1436 1.1924
C11A C 0.8854(2) -0.1763(2) 0.7941(8)
H10A H 0.8369 -0.1601 0.7671
H11A H 0.8840 -0.2198 0.8749
H12A H 0.9097 -0.1859 0.6666
C12A C 0.66849(19) 0.08268(17) 0.3577(5)
O1A O 0.99050(13) -0.02572(14) 0.7381(4)
O2A O 0.87165(13) -0.02644(13) 0.7180(4)
O3A O 0.59250(14) 0.10478(14) 0.0816(4)
C13? C 0.7501(12) 0.253(3) 0.7520(3)
S1? S 0.7430(13) 0.250(3) 0.5185(4)
S2? S 0.7577(13) 0.255(4) 0.9854(4)
loop_
_geom_bond_atom_site_label_1
_geom_bond_atom_site_label_2
_geom_bond_site_symmetry_1
_geom_bond_site_symmetry_2
C1 C12 1_555 1_555
C2 H1 1_555 1_555
C3 C2 1_555 1_555
H2 C3 1_555 1_555
C4 C3 1_555 1_555
C5 C4 1_555 1_555
H3 C5 1_555 1_555
C6 C5 1_555 1_555
H4 C6 1_555 1_555
C7 C4 1_555 1_555
H5 C7 1_555 1_555
C8 C9 1_555 1_555
C9 H6 1_555 1_555
C10 C9 1_555 1_555
H7 C10 1_555 1_555
H8 C10 1_555 1_555
H9 C10 1_555 1_555
C11 C9 1_555 1_555
H10 C11 1_555 1_555
H11 C11 1_555 1_555
H12 C11 1_555 1_555
C12 C2 1_555 1_555
O1 C8 1_555 1_555
O2 C7 1_555 1_555
O3 C1 1_555 1_555
C1F C12F 1_555 1_555
C2F H1F 1_555 1_555
C3F C2F 1_555 1_555
H2F C3F 1_555 1_555
C4F C3F 1_555 1_555
C5F C4F 1_555 1_555
H3F C5F 1_555 1_555
C6F C5F 1_555 1_555
H4F C6F 1_555 1_555
C7F C1 1_555 1_555
H5F C7F 1_555 1_555
C8F C9F 1_555 1_555
C9F H6F 1_555 1_555
C10F C9F 1_555 1_555
H7F C10F 1_555 1_555
H8F C10F 1_555 1_555
H9F C10F 1_555 1_555
C11F C9F 1_555 1_555
H10F C11F 1_555 1_555
H11F C11F 1_555 1_555
H12F C11F 1_555 1_555
C12F C2F 1_555 1_555
O1F C8F 1_555 1_555
O2F C7F 1_555 1_555
O3F C1F 1_555 1_555
C1G C7 1_555 1_555
C2G H1G 1_555 1_555
C3G C2G 1_555 1_555
H2G C3G 1_555 1_555
C4G C3G 1_555 1_555
C5G C4G 1_555 1_555
H3G C5G 1_555 1_555
C6G C5G 1_555 1_555
H4G C6G 1_555 1_555
C7G C4G 1_555 1_555
H5G C7G 1_555 1_555
C8G C9G 1_555 1_555
C9G H6G 1_555 1_555
C10G C9G 1_555 1_555
H7G C10G 1_555 1_555
H8G C10G 1_555 1_555
H9G C10G 1_555 1_555
C11G C9G 1_555 1_555
H10G C11G 1_555 1_555
H11G C11G 1_555 1_555
H12G C11G 1_555 1_555
C12G C1G 1_555 1_555
O1G C8G 1_555 1_555
O2G C7G 1_555 1_555
O3G C1G 1_555 1_555
C1A C7G 1_555 1_555
C2A H1A 1_555 1_555
C3A C2A 1_555 1_555
H2A C3A 1_555 1_555
C4A C3A 1_555 1_555
C5A C4A 1_555 1_555
H3A C5A 1_555 1_555
C6A C5A 1_555 1_555
H4A C6A 1_555 1_555
C7A C1F 1_555 1_555
H5A C7A 1_555 1_555
C8A C9A 1_555 1_555
C9A H6A 1_555 1_555
C10A C9A 1_555 1_555
H7A C10A 1_555 1_555
H8A C10A 1_555 1_555
H9A C10A 1_555 1_555
C11A C9A 1_555 1_555
H10A C11A 1_555 1_555
H11A C11A 1_555 1_555
H12A C11A 1_555 1_555
C12A C1A 1_555 1_555
O1A C8A 1_555 1_555
O2A C7A 1_555 1_555
O3A C1A 1_555 1_555
C6 C12 1_555 1_555
C8 O2 1_555 1_555
C4F C7F 1_555 1_555
C6F C12F 1_555 1_555
C8F O2F 1_555 1_555
C2G C12G 1_555 1_555
C6G C12G 1_555 1_555
C8G O2G 1_555 1_555
C2A C12A 1_555 1_555
C4A C7A 1_555 1_555
C6A C12A 1_555 1_555
C8A O2A 1_555 1_555

#END
