
#######################################################################
#
#                 Cambridge Crystallographic Data Centre
#                                CCDC 
#
#######################################################################
#
# If this CIF has been generated from an entry in the Cambridge 
# Structural Database, then it will include bibliographic, chemical, 
# crystal, experimental, refinement or atomic coordinate data resulting 
# from the CCDC's data processing and validation procedures.
#
#######################################################################

data_KOBNIZ
_chemical_formula_moiety         'C36 H36 N24 O12,2(C2 H2),2.34(H2 O1)'
_chemical_name_systematic        'Cucurbit(6)uril acetylene solvate hydrate'
_symmetry_cell_setting           rhombohedral
_symmetry_space_group_name_H-M   'R -3'
_symmetry_Int_Tables_number      148
_space_group_name_Hall           '-R 3'
loop_
_symmetry_equiv_pos_site_id
_symmetry_equiv_pos_as_xyz
1 x,y,z
2 -y,x-y,z
3 -x+y,-x,z
4 2/3+x,1/3+y,1/3+z
5 2/3-y,1/3+x-y,1/3+z
6 2/3-x+y,1/3-x,1/3+z
7 1/3+x,2/3+y,2/3+z
8 1/3-y,2/3+x-y,2/3+z
9 1/3-x+y,2/3-x,2/3+z
10 -x,-y,-z
11 y,-x+y,-z
12 x-y,x,-z
13 1/3-x,2/3-y,2/3-z
14 1/3+y,2/3-x+y,2/3-z
15 1/3+x-y,2/3+x,2/3-z
16 2/3-x,1/3-y,1/3-z
17 2/3+y,1/3-x+y,1/3-z
18 2/3+x-y,1/3+x,1/3-z
_cell_length_a                   31.812(5)
_cell_length_b                   31.812(5)
_cell_length_c                   12.334(3)
_cell_angle_alpha                90
_cell_angle_beta                 90
_cell_angle_gamma                120.00
_cell_volume                     10809.8
_exptl_crystal_colour            colorless
_exptl_crystal_description       'Hexagonal Column'
_cell_formula_units_Z            9
loop_
_atom_site_label
_atom_site_type_symbol
_atom_site_fract_x
_atom_site_fract_y
_atom_site_fract_z
O1 O 0.08251(15) 0.68875(13) -0.9625(3)
O2 O 0.28010(15) 0.77933(15) -1.1849(4)
O3 O 0.03893(13) 0.69872(12) -1.1991(3)
O4 O 0.22828(15) 0.77375(14) -1.4481(3)
O5 O 0.01336(13) 0.78942(13) -1.3040(3)
O6 O 0.21191(15) 0.87698(15) -1.5211(3)
N1 N 0.16235(18) 0.71039(17) -0.9336(5)
N2 N 0.12619(16) 0.66934(15) -1.0825(4)
N3 N 0.24162(16) 0.74628(16) -1.0212(6)
N4 N 0.20482(17) 0.70993(16) -1.1758(5)
N5 N 0.09374(15) 0.67617(15) -1.2545(4)
N6 N 0.06918(15) 0.71189(15) -1.3732(4)
N7 N 0.17038(16) 0.70766(16) -1.3523(4)
N8 N 0.14597(16) 0.74408(15) -1.4681(4)
N9 N 0.05576(14) 0.77592(16) -1.4368(4)
N10 N 0.06235(15) 0.84850(17) -1.4255(4)
N11 N 0.13480(15) 0.81068(17) -1.5273(4)
N12 N 0.14295(15) 0.88342(17) -1.5077(4)
C1 C 0.1201(2) 0.6901(2) -0.9929(6)
C2 C 0.1992(2) 0.7029(2) -0.9854(5)
H1 H 0.2080 0.6826 -0.9391
C3 C 0.1746(2) 0.6766(2) -1.0914(5)
H2 H 0.1738 0.6448 -1.0972
C4 C 0.2455(2) 0.7489(2) -1.1324(7)
C5 C 0.0885(2) 0.64563(19) -1.1633(5)
H3 H 0.0888 0.6164 -1.1898
H4 H 0.0566 0.6348 -1.1287
C6 C 0.2020(2) 0.6971(2) -1.2890(6)
H5 H 0.2350 0.7148 -1.3206
H6 H 0.1905 0.6619 -1.2945
C7 C 0.0651(2) 0.69610(18) -1.2695(6)
C8 C 0.1179(2) 0.6760(2) -1.3540(5)
H7 H 0.1084 0.6423 -1.3774
C9 C 0.10092(19) 0.70145(19) -1.4362(5)
H8 H 0.0838 0.6801 -1.4996
C10 C 0.1859(2) 0.7451(2) -1.4244(5)
C11 C 0.03576(18) 0.72475(19) -1.4203(5)
H9 H 0.0246 0.7080 -1.4910
H10 H 0.0070 0.7128 -1.3725
C12 C 0.1486(2) 0.7751(2) -1.5553(5)
H11 H 0.1273 0.7547 -1.6148
H12 H 0.1822 0.7924 -1.5833
C13 C 0.04177(19) 0.8035(2) -1.3786(5)
C14 C 0.08525(18) 0.8016(2) -1.5300(5)
H13 H 0.0687 0.7859 -1.5995
C15 C 0.09144(18) 0.8524(2) -1.5183(5)
H14 H 0.0793 0.8611 -1.5845
C16 C 0.1676(2) 0.8589(2) -1.5173(5)
C17 C 0.2789(2) 0.7806(2) -0.9501(5)
H15 H 0.3101 0.7961 -0.9900
H16 H 0.2822 0.7626 -0.8883
C18 C 0.1658(2) 0.7307(2) -0.8277(6)
H17 H 0.1326 0.7178 -0.7983
H18 H 0.1833 0.7198 -0.7794
O1L O 0.25082(15) 0.97792(13) -1.3708(3)
O2L O 0.05323(15) 0.88734(15) -1.1484(4)
O3L O 0.29440(13) 0.96795(12) -1.1342(3)
O4L O 0.10505(15) 0.89292(14) -0.8852(3)
O5L O 0.31997(13) 0.87725(13) -1.0293(3)
O6L O 0.12142(15) 0.78969(15) -0.8122(3)
N1L N 0.17098(18) 0.95628(17) -1.3997(5)
N2L N 0.20714(16) 0.99733(15) -1.2508(4)
N3L N 0.09171(16) 0.92039(16) -1.3121(6)
N4L N 0.12851(17) 0.95674(16) -1.1575(5)
N5L N 0.23959(15) 0.99050(15) -1.0788(4)
N6L N 0.26415(15) 0.95478(15) -0.9601(4)
N7L N 0.16295(16) 0.95901(16) -0.9810(4)
N8L N 0.18736(16) 0.92259(15) -0.8652(4)
N9L N 0.27757(14) 0.89075(16) -0.8965(4)
N10L N 0.27098(15) 0.81817(17) -0.9078(4)
N11L N 0.19853(15) 0.85599(17) -0.8060(4)
N12L N 0.19038(15) 0.78325(17) -0.8256(4)
C1L C 0.2132(2) 0.9766(2) -1.3404(6)
C2L C 0.1341(2) 0.9638(2) -1.3479(5)
H1L H 0.1253 0.9841 -1.3942
C3L C 0.1587(2) 0.9901(2) -1.2419(5)
H2L H 0.1595 1.0219 -1.2361
C4L C 0.0878(2) 0.9178(2) -1.2009(7)
C5L C 0.2448(2) 1.02104(19) -1.1700(5)
H3L H 0.2445 1.0503 -1.1435
H4L H 0.2767 1.0319 -1.2046
C6L C 0.1313(2) 0.9696(2) -1.0443(6)
H5L H 0.0983 0.9519 -1.0127
H6L H 0.1428 1.0048 -1.0388
C7L C 0.2682(2) 0.97057(18) -1.0638(6)
C8L C 0.2154(2) 0.9907(2) -0.9793(5)
H7L H 0.2249 1.0244 -0.9559
C9L C 0.23241(19) 0.96522(19) -0.8971(5)
H8L H 0.2495 0.9866 -0.8337
C10L C 0.1474(2) 0.9216(2) -0.9089(5)
C11L C 0.29757(18) 0.94192(19) -0.9130(5)
H9L H 0.3087 0.9587 -0.8423
H10L H 0.3263 0.9539 -0.9608
C12L C 0.1847(2) 0.8916(2) -0.7780(5)
H11L H 0.2060 0.9120 -0.7185
H12L H 0.1511 0.8743 -0.7500
C13L C 0.29156(19) 0.8632(2) -0.9547(5)
C14L C 0.24808(18) 0.8651(2) -0.8033(5)
H13L H 0.2646 0.8808 -0.7338
C15L C 0.24189(18) 0.8143(2) -0.8150(5)
H14L H 0.2540 0.8056 -0.7488
C16L C 0.1657(2) 0.8078(2) -0.8160(5)
C17L C 0.0544(2) 0.8861(2) -1.3832(5)
H15L H 0.0232 0.8706 -1.3433
H16L H 0.0511 0.9041 -1.4450
C18L C 0.1675(2) 0.9360(2) -1.5056(6)
H17L H 0.2007 0.9489 -1.5350
H18L H 0.1500 0.9469 -1.5539
O7 O 0.24114(19) 0.88724(19) -1.2808(5)
O8 O 0.1972(4) 0.8106(4) -1.1028(10)
C19 C 0.0695(8) 0.9554(6) -1.7379(19)
H19 H 0.0871 0.9516 -1.7957
C21 C 0.0478(9) 0.9601(7) -1.666(2)
H21 H 0.0303 0.9639 -1.6084
C20? C 0.0695(8) 0.9554(6) -1.7379(19)
H20? H 0.0436 0.9616 -1.7490
C22? C 0.1013(14) 0.9479(18) -1.724(4)
H22? H 0.1272 0.9417 -1.7132
loop_
_geom_bond_atom_site_label_1
_geom_bond_atom_site_label_2
_geom_bond_site_symmetry_1
_geom_bond_site_symmetry_2
O1 C1 1_555 1_555
O2 C4 1_555 1_555
O3 C7 1_555 1_555
O4 C10 1_555 1_555
O5 C13 1_555 1_555
O6 C16 1_555 1_555
N1 C1 1_555 1_555
N2 C1 1_555 1_555
N3 C2 1_555 1_555
N4 C3 1_555 1_555
N5 C5 1_555 1_555
N6 C7 1_555 1_555
N7 C6 1_555 1_555
N8 C9 1_555 1_555
N9 C11 1_555 1_555
N10 C13 1_555 1_555
N11 C12 1_555 1_555
N12 C15 1_555 1_555
C2 N1 1_555 1_555
H1 C2 1_555 1_555
C3 N2 1_555 1_555
H2 C3 1_555 1_555
C4 N3 1_555 1_555
C5 N2 1_555 1_555
H3 C5 1_555 1_555
H4 C5 1_555 1_555
C6 N4 1_555 1_555
H5 C6 1_555 1_555
H6 C6 1_555 1_555
C7 N5 1_555 1_555
C8 N5 1_555 1_555
H7 C8 1_555 1_555
C9 N6 1_555 1_555
H8 C9 1_555 1_555
C10 N7 1_555 1_555
C11 N6 1_555 1_555
H9 C11 1_555 1_555
H10 C11 1_555 1_555
C12 N8 1_555 1_555
H11 C12 1_555 1_555
H12 C12 1_555 1_555
C13 N9 1_555 1_555
C14 N9 1_555 1_555
H13 C14 1_555 1_555
C15 N10 1_555 1_555
H14 C15 1_555 1_555
C16 N11 1_555 1_555
C17 N3 1_555 1_555
H15 C17 1_555 1_555
H16 C17 1_555 1_555
C18 N1 1_555 1_555
H17 C18 1_555 1_555
H18 C18 1_555 1_555
C19 H19 1_555 1_555
C21 C19 1_555 1_555
H21 C21 1_555 1_555
O1L C1L 1_555 1_555
O2L C4L 1_555 1_555
O3L C7L 1_555 1_555
O4L C10L 1_555 1_555
O5L C13L 1_555 1_555
O6L C16L 1_555 1_555
N1L C1L 1_555 1_555
N2L C1L 1_555 1_555
N3L C2L 1_555 1_555
N4L C3L 1_555 1_555
N5L C5L 1_555 1_555
N6L C7L 1_555 1_555
N7L C6L 1_555 1_555
N8L C9L 1_555 1_555
N9L C11L 1_555 1_555
N10L C17 1_555 1_555
N11L C12L 1_555 1_555
N12L C18 1_555 1_555
C2L N1L 1_555 1_555
H1L C2L 1_555 1_555
C3L N2L 1_555 1_555
H2L C3L 1_555 1_555
C4L N3L 1_555 1_555
C5L N2L 1_555 1_555
H3L C5L 1_555 1_555
H4L C5L 1_555 1_555
C6L N4L 1_555 1_555
H5L C6L 1_555 1_555
H6L C6L 1_555 1_555
C7L N5L 1_555 1_555
C8L N5L 1_555 1_555
H7L C8L 1_555 1_555
C9L N6L 1_555 1_555
H8L C9L 1_555 1_555
C10L N7L 1_555 1_555
C11L N6L 1_555 1_555
H9L C11L 1_555 1_555
H10L C11L 1_555 1_555
C12L N8L 1_555 1_555
H11L C12L 1_555 1_555
H12L C12L 1_555 1_555
C13L N9L 1_555 1_555
C14L N9L 1_555 1_555
H13L C14L 1_555 1_555
C15L N10L 1_555 1_555
H14L C15L 1_555 1_555
C16L N11L 1_555 1_555
C17L N10 1_555 1_555
H15L C17L 1_555 1_555
H16L C17L 1_555 1_555
C18L N12 1_555 1_555
H17L C18L 1_555 1_555
H18L C18L 1_555 1_555
N4 C4 1_555 1_555
N7 C8 1_555 1_555
N8 C10 1_555 1_555
N11 C14 1_555 1_555
N12 C16 1_555 1_555
C2 C3 1_555 1_555
C8 C9 1_555 1_555
C14 C15 1_555 1_555
N1L C18L 1_555 1_555
N3L C17L 1_555 1_555
N4L C4L 1_555 1_555
N7L C8L 1_555 1_555
N8L C10L 1_555 1_555
N10L C13L 1_555 1_555
N11L C14L 1_555 1_555
N12L C15L 1_555 1_555
N12L C16L 1_555 1_555
C2L C3L 1_555 1_555
C8L C9L 1_555 1_555
C14L C15L 1_555 1_555

#END
