
#######################################################################
#
#                 Cambridge Crystallographic Data Centre
#                                CCDC 
#
#######################################################################
#
# If this CIF has been generated from an entry in the Cambridge 
# Structural Database, then it will include bibliographic, chemical, 
# crystal, experimental, refinement or atomic coordinate data resulting 
# from the CCDC's data processing and validation procedures.
#
#######################################################################

data_KOBNEV
_chemical_formula_moiety         'C36 H36 N24 O12,10.88(H2 O1)'
_chemical_name_systematic        'Cucurbit(6)uril hydrate'
_symmetry_cell_setting           rhombohedral
_symmetry_space_group_name_H-M   'R -3'
_symmetry_Int_Tables_number      148
_space_group_name_Hall           '-R 3'
loop_
_symmetry_equiv_pos_site_id
_symmetry_equiv_pos_as_xyz
1 x,y,z
2 -y,x-y,z
3 -x+y,-x,z
4 2/3+x,1/3+y,1/3+z
5 2/3-y,1/3+x-y,1/3+z
6 2/3-x+y,1/3-x,1/3+z
7 1/3+x,2/3+y,2/3+z
8 1/3-y,2/3+x-y,2/3+z
9 1/3-x+y,2/3-x,2/3+z
10 -x,-y,-z
11 y,-x+y,-z
12 x-y,x,-z
13 1/3-x,2/3-y,2/3-z
14 1/3+y,2/3-x+y,2/3-z
15 1/3+x-y,2/3+x,2/3-z
16 2/3-x,1/3-y,1/3-z
17 2/3+y,1/3-x+y,1/3-z
18 2/3+x-y,1/3+x,1/3-z
_cell_length_a                   32.0956(18)
_cell_length_b                   32.0956(18)
_cell_length_c                   12.4911(10)
_cell_angle_alpha                90
_cell_angle_beta                 90
_cell_angle_gamma                120
_cell_volume                     11143.5
_exptl_crystal_colour            colorless
_exptl_crystal_description       block
_cell_formula_units_Z            9
loop_
_atom_site_label
_atom_site_type_symbol
_atom_site_fract_x
_atom_site_fract_y
_atom_site_fract_z
O1 O 0.36275(15) -0.01917(18) 0.5291(3)
O2 O 0.44884(15) -0.12284(16) 0.7536(3)
O3 O 0.43642(19) 0.09137(19) 0.6548(3)
O4 O 0.53659(13) -0.00938(14) 0.8595(3)
O5 O 0.46626(19) -0.1532(2) 0.4938(4)
O6 O 0.64217(12) 0.06556(14) 0.7208(3)
N1 N 0.34636(15) -0.0959(2) 0.5683(3)
N2 N 0.36993(16) -0.0426(2) 0.6990(4)
N3 N 0.37987(16) -0.13841(18) 0.6615(4)
N4 N 0.40763(15) -0.0824(2) 0.7863(3)
N5 N 0.42826(18) 0.0334(2) 0.7757(3)
N6 N 0.4958(2) 0.1032(2) 0.7755(4)
N7 N 0.46668(16) -0.00603(18) 0.8651(3)
N8 N 0.53648(17) 0.06190(17) 0.8492(3)
N9 N 0.5672(2) 0.15045(18) 0.6676(4)
N10 N 0.3919(2) -0.15877(18) 0.4815(4)
N11 N 0.61002(18) 0.11425(17) 0.7518(4)
N12 N 0.34591(16) -0.12669(17) 0.3925(4)
C1 C 0.3771(3) -0.1749(2) 0.5900(5)
H1 H 0.3439 -0.2017 0.5889
H2 H 0.3974 -0.1872 0.6184
C2 C 0.36009(17) -0.0491(3) 0.5930(4)
C3 C 0.34511(19) -0.1232(2) 0.6628(4)
H3 H 0.3123 -0.1502 0.6774
C4 C 0.36298(19) -0.0855(3) 0.7521(4)
H4 H 0.3395 -0.0951 0.8114
C5 C 0.41594(19) -0.1155(2) 0.7345(4)
C6 C 0.3785(2) 0.0003(3) 0.7538(5)
H5 H 0.3657 0.0167 0.7103
H6 H 0.3608 -0.0088 0.8216
C7 C 0.4335(2) -0.0568(2) 0.8809(4)
H7 H 0.4515 -0.0719 0.9081
H8 H 0.4101 -0.0605 0.9359
C8 C 0.4518(2) 0.0768(3) 0.7269(4)
C9 C 0.4535(2) 0.0308(2) 0.8691(4)
H9 H 0.4358 0.0286 0.9357
C10 C 0.5014(2) 0.0774(2) 0.8646(4)
H10 H 0.5076 0.0957 0.9321
C11 C 0.51493(19) 0.0129(2) 0.8569(4)
C12 C 0.5311(3) 0.1501(2) 0.7376(5)
H11 H 0.5473 0.1706 0.7996
H12 H 0.5145 0.1642 0.6993
C13 C 0.5877(2) 0.0935(2) 0.8535(4)
H13 H 0.6025 0.0755 0.8822
H14 H 0.5946 0.1196 0.9037
C14 C 0.4334(3) -0.1544(2) 0.4416(5)
C15 C 0.6128(2) 0.1571(2) 0.7057(5)
H15 H 0.6292 0.1852 0.7541
C16 C 0.3580(2) -0.1639(2) 0.3981(5)
H16 H 0.3287 -0.1961 0.4004
C17 C 0.63549(17) 0.09885(19) 0.6956(4)
C18 C 0.31895(18) -0.1182(3) 0.4732(4)
H17 H 0.2907 -0.1489 0.4927
H18 H 0.3075 -0.0976 0.4431
O1I O 0.63725(15) 0.01917(18) 0.4709(3)
O2I O 0.55116(15) 0.12284(16) 0.2464(3)
O3I O 0.56358(19) -0.09137(19) 0.3452(3)
O4I O 0.46341(13) 0.00938(14) 0.1405(3)
O5I O 0.53374(19) 0.1532(2) 0.5062(4)
O6I O 0.35783(12) -0.06556(14) 0.2792(3)
N1I N 0.65364(15) 0.0959(2) 0.4317(3)
N2I N 0.63007(16) 0.0426(2) 0.3010(4)
N3I N 0.62013(16) 0.13841(18) 0.3385(4)
N4I N 0.59237(15) 0.0824(2) 0.2137(3)
N5I N 0.57174(18) -0.0334(2) 0.2243(3)
N6I N 0.5042(2) -0.1032(2) 0.2245(4)
N7I N 0.53332(16) 0.00603(18) 0.1349(3)
N8I N 0.46352(17) -0.06190(17) 0.1508(3)
N9I N 0.4328(2) -0.15045(18) 0.3324(4)
N10I N 0.6081(2) 0.15877(18) 0.5185(4)
N11I N 0.38998(18) -0.11425(17) 0.2482(4)
N12I N 0.65409(16) 0.12669(17) 0.6075(4)
C1I C 0.6229(3) 0.1749(2) 0.4100(5)
H1I H 0.6561 0.2017 0.4111
H2I H 0.6026 0.1872 0.3816
C2I C 0.63991(17) 0.0491(3) 0.4070(4)
C3I C 0.65489(19) 0.1232(2) 0.3372(4)
H3I H 0.6877 0.1502 0.3226
C4I C 0.63702(19) 0.0855(3) 0.2479(4)
H4I H 0.6605 0.0951 0.1886
C5I C 0.58406(19) 0.1155(2) 0.2655(4)
C6I C 0.6215(2) -0.0003(3) 0.2462(5)
H5I H 0.6343 -0.0167 0.2897
H6I H 0.6392 0.0088 0.1784
C7I C 0.5665(2) 0.0568(2) 0.1191(4)
H7I H 0.5485 0.0719 0.0919
H8I H 0.5899 0.0605 0.0641
C8I C 0.5482(2) -0.0768(3) 0.2731(4)
C9I C 0.5465(2) -0.0308(2) 0.1309(4)
H9I H 0.5642 -0.0286 0.0643
C10I C 0.4986(2) -0.0774(2) 0.1354(4)
H10I H 0.4924 -0.0957 0.0679
C11I C 0.48507(19) -0.0129(2) 0.1431(4)
C12I C 0.4689(3) -0.1501(2) 0.2624(5)
H11I H 0.4527 -0.1706 0.2004
H12I H 0.4855 -0.1642 0.3007
C13I C 0.4123(2) -0.0935(2) 0.1465(4)
H13I H 0.3975 -0.0755 0.1178
H14I H 0.4054 -0.1196 0.0963
C14I C 0.5666(3) 0.1544(2) 0.5584(5)
C15I C 0.3872(2) -0.1571(2) 0.2943(5)
H15I H 0.3708 -0.1852 0.2459
C16I C 0.6420(2) 0.1639(2) 0.6019(5)
H16I H 0.6713 0.1961 0.5996
C17I C 0.36451(17) -0.09885(19) 0.3044(4)
C18I C 0.68105(18) 0.1182(3) 0.5268(4)
H17I H 0.7093 0.1489 0.5073
H18I H 0.6925 0.0976 0.5569
O7 O 0.7295(3) 0.2762(3) 0.7018(6)
O8 O 0.5666(2) -0.02093(17) 0.6466(6)
O9 O 0.5081(5) -0.0491(4) 0.5413(12)
O10 O 0.4865(5) -0.0105(7) 0.5931(13)
O11 O 0.7398(5) 0.3112(5) 0.4773(10)
O12 O 0.6340(8) 0.2657(6) 0.625(2)
O13 O 0.7079(10) 0.2982(11) 0.811(3)
O14? O 0.7479(3) 0.2627(4) 0.6616(11)
O15? O 0.7110(12) 0.3757(15) 0.347(5)
loop_
_geom_bond_atom_site_label_1
_geom_bond_atom_site_label_2
_geom_bond_site_symmetry_1
_geom_bond_site_symmetry_2
O1 C2 1_555 1_555
O2 C5 1_555 1_555
O3 C8 1_555 1_555
O4 C11 1_555 1_555
O5 C14 1_555 1_555
O6 C17 1_555 1_555
N1 C2 1_555 1_555
N2 C2 1_555 1_555
N3 C1 1_555 1_555
N4 C4 1_555 1_555
N5 C6 1_555 1_555
N6 C8 1_555 1_555
N7 C7 1_555 1_555
N8 C10 1_555 1_555
N9 C12 1_555 1_555
N10 C1 1_555 1_555
N11 C13 1_555 1_555
N12 C16 1_555 1_555
C1 H1 1_555 1_555
H2 C1 1_555 1_555
C3 N1 1_555 1_555
H3 C3 1_555 1_555
C4 N2 1_555 1_555
H4 C4 1_555 1_555
C5 N3 1_555 1_555
C6 N2 1_555 1_555
H5 C6 1_555 1_555
H6 C6 1_555 1_555
C7 N4 1_555 1_555
H7 C7 1_555 1_555
H8 C7 1_555 1_555
C8 N5 1_555 1_555
C9 N5 1_555 1_555
H9 C9 1_555 1_555
C10 N6 1_555 1_555
H10 C10 1_555 1_555
C11 N7 1_555 1_555
C12 N6 1_555 1_555
H11 C12 1_555 1_555
H12 C12 1_555 1_555
C13 N8 1_555 1_555
H13 C13 1_555 1_555
H14 C13 1_555 1_555
C14 N10 1_555 1_555
C15 N9 1_555 1_555
H15 C15 1_555 1_555
C16 N10 1_555 1_555
H16 C16 1_555 1_555
C17 N11 1_555 1_555
C18 N1 1_555 1_555
H17 C18 1_555 1_555
H18 C18 1_555 1_555
O1I C2I 1_555 1_555
O2I C5I 1_555 1_555
O3I C8I 1_555 1_555
O4I C11I 1_555 1_555
O5I C14I 1_555 1_555
O6I C17I 1_555 1_555
N1I C2I 1_555 1_555
N2I C2I 1_555 1_555
N3I C1I 1_555 1_555
N4I C4I 1_555 1_555
N5I C6I 1_555 1_555
N6I C8I 1_555 1_555
N7I C7I 1_555 1_555
N8I C10I 1_555 1_555
N9I C14 1_555 1_555
N10I C1I 1_555 1_555
N11I C13I 1_555 1_555
N12I C17 1_555 1_555
C1I H1I 1_555 1_555
H2I C1I 1_555 1_555
C3I N1I 1_555 1_555
H3I C3I 1_555 1_555
C4I N2I 1_555 1_555
H4I C4I 1_555 1_555
C5I N3I 1_555 1_555
C6I N2I 1_555 1_555
H5I C6I 1_555 1_555
H6I C6I 1_555 1_555
C7I N4I 1_555 1_555
H7I C7I 1_555 1_555
H8I C7I 1_555 1_555
C8I N5I 1_555 1_555
C9I N5I 1_555 1_555
H9I C9I 1_555 1_555
C10I N6I 1_555 1_555
H10I C10I 1_555 1_555
C11I N7I 1_555 1_555
C12I N6I 1_555 1_555
H11I C12I 1_555 1_555
H12I C12I 1_555 1_555
C13I N8I 1_555 1_555
H13I C13I 1_555 1_555
H14I C13I 1_555 1_555
C14I N9 1_555 1_555
C15I C16 1_555 1_555
H15I C15I 1_555 1_555
C16I C15 1_555 1_555
H16I C16I 1_555 1_555
C17I N12 1_555 1_555
C18I N1I 1_555 1_555
H17I C18I 1_555 1_555
H18I C18I 1_555 1_555
N3 C3 1_555 1_555
N4 C5 1_555 1_555
N7 C9 1_555 1_555
N8 C11 1_555 1_555
N11 C15 1_555 1_555
N12 C18 1_555 1_555
C3 C4 1_555 1_555
C9 C10 1_555 1_555
N3I C3I 1_555 1_555
N4I C5I 1_555 1_555
N7I C9I 1_555 1_555
N8I C11I 1_555 1_555
N9I C12I 1_555 1_555
N9I C15I 1_555 1_555
N10I C14I 1_555 1_555
N10I C16I 1_555 1_555
N11I C15I 1_555 1_555
N11I C17I 1_555 1_555
N12I C16I 1_555 1_555
N12I C18I 1_555 1_555
C3I C4I 1_555 1_555
C9I C10I 1_555 1_555

#END
