
#######################################################################
#
#                 Cambridge Crystallographic Data Centre
#                                CCDC 
#
#######################################################################
#
# If this CIF has been generated from an entry in the Cambridge 
# Structural Database, then it will include bibliographic, chemical, 
# crystal, experimental, refinement or atomic coordinate data resulting 
# from the CCDC's data processing and validation procedures.
#
#######################################################################

data_KOBYIL
_chemical_formula_moiety         'C8 H23 B10 N1 O1'
_chemical_name_systematic        
N-pentyl-1,2-dicarba-closo-dodecaborane-1-carboxamide
_symmetry_cell_setting           orthorhombic
_symmetry_space_group_name_H-M   'P b c a'
_symmetry_Int_Tables_number      61
_space_group_name_Hall           '-P 2ac 2ab'
loop_
_symmetry_equiv_pos_site_id
_symmetry_equiv_pos_as_xyz
1 x,y,z
2 1/2-x,-y,1/2+z
3 1/2+x,1/2-y,-z
4 -x,1/2+y,1/2-z
5 -x,-y,-z
6 1/2+x,y,1/2-z
7 1/2-x,1/2+y,z
8 x,1/2-y,1/2+z
_cell_length_a                   11.6375(6)
_cell_length_b                   10.1626(6)
_cell_length_c                   27.496(2)
_cell_angle_alpha                90
_cell_angle_beta                 90
_cell_angle_gamma                90
_cell_volume                     3251.88
_cell_formula_units_Z            8
loop_
_atom_site_label
_atom_site_type_symbol
_atom_site_fract_x
_atom_site_fract_y
_atom_site_fract_z
O1 O 0.70564(15) -0.00700(15) 0.34917(8)
N1 N 0.77268(15) 0.20193(18) 0.35138(8)
H1 H 0.7547 0.2832 0.3471
C1 C 0.69152(19) 0.1119(2) 0.34653(9)
C2 C 0.57169(18) 0.1666(2) 0.33811(8)
B1 B 0.5207(2) 0.3006(2) 0.36832(10)
H2 H 0.5721 0.3629 0.3928
C3 C 0.4711(2) 0.0568(2) 0.33182(10)
H3 H 0.4926 -0.0485 0.3329
B2 B 0.4128(2) 0.3656(3) 0.32955(11)
H4 H 0.3926 0.4714 0.3288
C4 C 0.8909(2) 0.1700(2) 0.36356(10)
H5 H 0.9419 0.2208 0.3429
H6 H 0.9044 0.0775 0.3570
B3 B 0.5135(3) 0.1431(3) 0.28108(11)
H7 H 0.5598 0.1023 0.2496
B4 B 0.5422(2) 0.3033(2) 0.30450(10)
H8 H 0.6074 0.3674 0.2878
B5 B 0.4783(2) 0.1394(3) 0.38551(11)
H9 H 0.5023 0.0959 0.4207
B6 B 0.3042(3) 0.2445(3) 0.32252(11)
H10 H 0.2135 0.2714 0.3173
B7 B 0.3739(2) 0.2642(3) 0.37958(11)
H11 H 0.3286 0.3038 0.4115
B8 B 0.3451(2) 0.1047(3) 0.35669(12)
H12 H 0.2816 0.0385 0.3735
B9 B 0.4084(2) 0.2680(3) 0.27583(11)
H13 H 0.3854 0.3098 0.2402
C5 C 0.9188(3) 0.1978(4) 0.41572(12)
H14 H 0.9037 0.2900 0.4222
H15 H 0.8674 0.1466 0.4361
B10 B 0.3664(3) 0.1062(3) 0.29301(13)
H16 H 0.3170 0.0410 0.2688
C6 C 1.0396(3) 0.1679(4) 0.43008(12)
H17 H 1.0549 0.0759 0.4232
H18 H 1.0909 0.2200 0.4100
C7 C 1.0670(4) 0.1935(8) 0.48168(16)
H19 H 1.0629 0.2875 0.4874
H20 H 1.0088 0.1520 0.5017
C8 C 1.1802(4) 0.1463(9) 0.49734(19)
H21 H 1.2294 0.1371 0.4695
H22 H 1.1720 0.0626 0.5131
H23 H 1.2133 0.2084 0.5196
loop_
_geom_bond_atom_site_label_1
_geom_bond_atom_site_label_2
_geom_bond_site_symmetry_1
_geom_bond_site_symmetry_2
O1 C1 1_555 1_555
N1 H1 1_555 1_555
C1 N1 1_555 1_555
C2 C1 1_555 1_555
B1 C2 1_555 1_555
H2 B1 1_555 1_555
C3 C2 1_555 1_555
H3 C3 1_555 1_555
B2 B1 1_555 1_555
H4 B2 1_555 1_555
C4 N1 1_555 1_555
H5 C4 1_555 1_555
H6 C4 1_555 1_555
B3 C2 1_555 1_555
H7 B3 1_555 1_555
B4 C2 1_555 1_555
H8 B4 1_555 1_555
B5 C2 1_555 1_555
H9 B5 1_555 1_555
B6 B2 1_555 1_555
H10 B6 1_555 1_555
B7 B1 1_555 1_555
H11 B7 1_555 1_555
B8 C3 1_555 1_555
H12 B8 1_555 1_555
B9 B2 1_555 1_555
H13 B9 1_555 1_555
C5 C4 1_555 1_555
H14 C5 1_555 1_555
H15 C5 1_555 1_555
B10 C3 1_555 1_555
H16 B10 1_555 1_555
C6 C5 1_555 1_555
H17 C6 1_555 1_555
H18 C6 1_555 1_555
C7 C6 1_555 1_555
H19 C7 1_555 1_555
H20 C7 1_555 1_555
C8 C7 1_555 1_555
H21 C8 1_555 1_555
H22 C8 1_555 1_555
H23 C8 1_555 1_555
B1 B4 1_555 1_555
B1 B5 1_555 1_555
C3 B3 1_555 1_555
C3 B5 1_555 1_555
B2 B4 1_555 1_555
B2 B7 1_555 1_555
B3 B4 1_555 1_555
B3 B9 1_555 1_555
B3 B10 1_555 1_555
B4 B9 1_555 1_555
B5 B7 1_555 1_555
B5 B8 1_555 1_555
B6 B7 1_555 1_555
B6 B8 1_555 1_555
B6 B9 1_555 1_555
B6 B10 1_555 1_555
B7 B8 1_555 1_555
B8 B10 1_555 1_555
B9 B10 1_555 1_555

#END
