
#######################################################################
#
#                 Cambridge Crystallographic Data Centre
#                                CCDC 
#
#######################################################################
#
# If this CIF has been generated from an entry in the Cambridge 
# Structural Database, then it will include bibliographic, chemical, 
# crystal, experimental, refinement or atomic coordinate data resulting 
# from the CCDC's data processing and validation procedures.
#
#######################################################################

data_KODDUE
_chemical_formula_moiety         'C38 H30 O2 P2 S1'
_chemical_name_systematic        
'(dibenzo[b,d]thiene-4,6-diylbis(methylene))bis(diphenylphosphine) dioxide'
_symmetry_cell_setting           orthorhombic
_symmetry_space_group_name_H-M   'P 21 21 21'
_symmetry_Int_Tables_number      19
_space_group_name_Hall           'P 2ac 2ab'
loop_
_symmetry_equiv_pos_site_id
_symmetry_equiv_pos_as_xyz
1 x,y,z
2 1/2+x,1/2-y,-z
3 -x,1/2+y,1/2-z
4 1/2-x,-y,1/2+z
_cell_length_a                   5.7594(6)
_cell_length_b                   16.772(2)
_cell_length_c                   31.593(4)
_cell_angle_alpha                90
_cell_angle_beta                 90
_cell_angle_gamma                90
_cell_volume                     3051.78
_exptl_crystal_colour            colorless
_exptl_crystal_description       rod
_cell_formula_units_Z            4
loop_
_atom_site_label
_atom_site_type_symbol
_atom_site_fract_x
_atom_site_fract_y
_atom_site_fract_z
S1 S 0.50295(17) 0.03333(6) 0.12194(3)
P1 P 0.76547(17) 0.02537(6) 0.00854(3)
P2 P 0.21054(17) 0.16393(6) 0.20898(3)
O1 O 0.4688(4) 0.16142(17) 0.20677(8)
O2 O 0.5094(4) 0.02608(16) 0.01580(8)
C1 C 0.9755(8) -0.2095(3) -0.05536(13)
H1 H 1.0167 -0.2586 -0.0684
C2 C 1.1260(8) -0.1463(3) -0.05643(13)
H2 H 1.2719 -0.1522 -0.0701
C3 C 1.0694(7) -0.0738(3) -0.03787(13)
H3 H 1.1757 -0.0306 -0.0389
C4 C 0.8553(7) -0.0650(2) -0.01774(11)
C5 C 0.9366(6) 0.0299(2) 0.05678(10)
H4 H 1.1033 0.0319 0.0492
H5 H 0.8985 0.0798 0.0720
C6 C 0.8964(6) -0.0396(2) 0.08582(11)
C7 C 0.7123(6) -0.0418(2) 0.11500(11)
C8 C 0.3811(6) -0.0179(2) 0.16487(11)
C9 C 0.1861(6) 0.0066(2) 0.18778(11)
C10 C 0.0694(6) 0.0847(2) 0.17868(12)
H6 H -0.0968 0.0815 0.1865
H7 H 0.0795 0.0967 0.1481
C11 C 0.1125(7) 0.1512(2) 0.26276(12)
C12 C 0.2666(8) 0.1161(2) 0.29140(13)
H8 H 0.4161 0.0998 0.2821
C13 C 0.2036(8) 0.1048(3) 0.33318(13)
H9 H 0.3112 0.0823 0.3526
C14 C -0.0172(8) 0.1263(2) 0.34683(13)
H10 H -0.0624 0.1169 0.3753
C15 C 0.0971(7) 0.2568(2) 0.18887(11)
C16 C -0.1177(7) 0.2630(3) 0.16844(12)
H11 H -0.2157 0.2177 0.1661
C17 C -0.1874(8) 0.3357(3) 0.15150(12)
H12 H -0.3337 0.3402 0.1378
C18 C -0.0440(8) 0.4016(3) 0.15456(14)
H13 H -0.0914 0.4510 0.1427
C19 C 0.1679(9) 0.3959(3) 0.17483(14)
H14 H 0.2654 0.4413 0.1771
C20 C 0.2374(8) 0.3236(2) 0.19175(12)
H15 H 0.3835 0.3198 0.2055
C21 C 0.6855(7) -0.1041(2) 0.14418(11)
C22 C 0.4938(7) -0.0899(2) 0.17318(11)
C23 C 0.4158(7) -0.1379(3) 0.20667(12)
H16 H 0.4923 -0.1866 0.2131
C24 C 0.2280(8) -0.1137(3) 0.23001(12)
H17 H 0.1760 -0.1457 0.2529
C25 C 0.1114(7) -0.0425(2) 0.22066(12)
H18 H -0.0202 -0.0275 0.2369
C26 C 0.8413(7) -0.1672(2) 0.14353(12)
H19 H 0.8258 -0.2098 0.1631
C27 C 1.0186(7) -0.1676(2) 0.11431(12)
H20 H 1.1226 -0.2115 0.1132
C28 C 1.0469(7) -0.1040(2) 0.08621(12)
H21 H 1.1730 -0.1050 0.0668
C29 C 0.7646(8) -0.2017(3) -0.03543(13)
H22 H 0.6598 -0.2455 -0.0345
C30 C 0.7050(7) -0.1300(2) -0.01662(12)
H23 H 0.5594 -0.1250 -0.0028
C31 C 0.8621(7) 0.1098(2) -0.02224(11)
C32 C 1.0753(7) 0.1479(2) -0.01680(12)
H24 H 1.1872 0.1255 0.0018
C33 C 1.1260(8) 0.2176(3) -0.03810(12)
H25 H 1.2711 0.2433 -0.0337
C34 C 0.9669(8) 0.2500(3) -0.06571(13)
H26 H 1.0015 0.2983 -0.0801
C35 C 0.7566(8) 0.2123(3) -0.07244(12)
H27 H 0.6493 0.2340 -0.0922
C36 C 0.7010(7) 0.1430(3) -0.05067(12)
H28 H 0.5546 0.1182 -0.0549
C37 C -0.1088(7) 0.1722(3) 0.27686(12)
H29 H -0.2183 0.1941 0.2576
C38 C -0.1694(8) 0.1611(3) 0.31904(12)
H30 H -0.3178 0.1778 0.3287
loop_
_geom_bond_atom_site_label_1
_geom_bond_atom_site_label_2
_geom_bond_site_symmetry_1
_geom_bond_site_symmetry_2
S1 C7 1_555 1_555
P1 O2 1_555 1_555
P2 O1 1_555 1_555
C1 H1 1_555 1_555
C2 C1 1_555 1_555
H2 C2 1_555 1_555
C3 C2 1_555 1_555
H3 C3 1_555 1_555
C4 P1 1_555 1_555
C5 P1 1_555 1_555
H4 C5 1_555 1_555
H5 C5 1_555 1_555
C6 C5 1_555 1_555
C7 C6 1_555 1_555
C8 S1 1_555 1_555
C9 C8 1_555 1_555
C10 P2 1_555 1_555
H6 C10 1_555 1_555
H7 C10 1_555 1_555
C11 P2 1_555 1_555
C12 C11 1_555 1_555
H8 C12 1_555 1_555
C13 C12 1_555 1_555
H9 C13 1_555 1_555
C14 C13 1_555 1_555
H10 C14 1_555 1_555
C15 P2 1_555 1_555
C16 C15 1_555 1_555
H11 C16 1_555 1_555
C17 C16 1_555 1_555
H12 C17 1_555 1_555
C18 C17 1_555 1_555
H13 C18 1_555 1_555
C19 C18 1_555 1_555
H14 C19 1_555 1_555
C20 C15 1_555 1_555
H15 C20 1_555 1_555
C21 C7 1_555 1_555
C22 C8 1_555 1_555
C23 C22 1_555 1_555
H16 C23 1_555 1_555
C24 C23 1_555 1_555
H17 C24 1_555 1_555
C25 C9 1_555 1_555
H18 C25 1_555 1_555
C26 C21 1_555 1_555
H19 C26 1_555 1_555
C27 C26 1_555 1_555
H20 C27 1_555 1_555
C28 C6 1_555 1_555
H21 C28 1_555 1_555
C29 C1 1_555 1_555
H22 C29 1_555 1_555
C30 C4 1_555 1_555
H23 C30 1_555 1_555
C31 P1 1_555 1_555
C32 C31 1_555 1_555
H24 C32 1_555 1_555
C33 C32 1_555 1_555
H25 C33 1_555 1_555
C34 C33 1_555 1_555
H26 C34 1_555 1_555
C35 C34 1_555 1_555
H27 C35 1_555 1_555
C36 C31 1_555 1_555
H28 C36 1_555 1_555
C37 C11 1_555 1_555
H29 C37 1_555 1_555
C38 C14 1_555 1_555
H30 C38 1_555 1_555
C3 C4 1_555 1_555
C9 C10 1_555 1_555
C19 C20 1_555 1_555
C21 C22 1_555 1_555
C24 C25 1_555 1_555
C27 C28 1_555 1_555
C29 C30 1_555 1_555
C35 C36 1_555 1_555
C37 C38 1_555 1_555

#END
