
#######################################################################
#
#                 Cambridge Crystallographic Data Centre
#                                CCDC 
#
#######################################################################
#
# If this CIF has been generated from an entry in the Cambridge 
# Structural Database, then it will include bibliographic, chemical, 
# crystal, experimental, refinement or atomic coordinate data resulting 
# from the CCDC's data processing and validation procedures.
#
#######################################################################

data_KODFIS
_chemical_formula_moiety         'C24 H32 N12 4+,4(N1 O3 1-)'
_chemical_name_systematic        
'(16-(4-Amino-2-methyl)pyridinium crown-4) tetranitrate clathrate'
_symmetry_cell_setting           orthorhombic
_symmetry_space_group_name_H-M   'P c c n'
_symmetry_Int_Tables_number      56
_space_group_name_Hall           '-P 2ab 2ac'
loop_
_symmetry_equiv_pos_site_id
_symmetry_equiv_pos_as_xyz
1 x,y,z
2 1/2-x,y,1/2+z
3 x,1/2-y,1/2+z
4 1/2-x,1/2-y,z
5 -x,-y,-z
6 1/2+x,-y,1/2-z
7 -x,1/2+y,1/2-z
8 1/2+x,1/2+y,-z
_cell_length_a                   10.874(8)
_cell_length_b                   20.50(2)
_cell_length_c                   14.53(2)
_cell_angle_alpha                90
_cell_angle_beta                 90
_cell_angle_gamma                90
_cell_volume                     3238.98
_cell_formula_units_Z            4
loop_
_atom_site_label
_atom_site_type_symbol
_atom_site_fract_x
_atom_site_fract_y
_atom_site_fract_z
N1 N 0.398(4) 0.377(2) 0.307(2)
C1 C 0.435(5) 0.407(3) 0.230(4)
N2 N 0.358(4) 0.428(2) 0.158(3)
C2 C 0.246(6) 0.416(2) 0.180(3)
C3 C 0.189(4) 0.383(2) 0.252(4)
C4 C 0.277(4) 0.365(2) 0.320(4)
C5 C 0.578(5) 0.420(3) 0.229(4)
C6 C 0.482(4) 0.352(2) 0.386(3)
C7 C 0.063(3) 0.365(2) 0.259(3)
N3 N 0.168(3) 0.437(2) 0.114(3)
N4 N 0.024(3) 0.323(2) 0.334(3)
C8 C -0.014(5) 0.351(3) 0.422(5)
N5 N -0.059(3) 0.305(2) 0.479(3)
C9 C -0.054(4) 0.242(2) 0.469(3)
C10 C 0.495(4) 0.284(2) 0.392(3)
C11 C 0.047(4) 0.249(4) 0.321(3)
C12 C -0.036(5) 0.417(3) 0.428(4)
N6 N -0.105(3) 0.207(2) 0.536(3)
H1 H 0.2517 0.3419 0.3749
H2 H 0.4507 0.3684 0.4433
H3 H 0.5624 0.3707 0.3769
H4 H 0.0383 0.3455 0.2012
H5 H 0.0167 0.4044 0.2655
H6 H 0.0869 0.4289 0.1193
H7 H 0.1974 0.4586 0.0650
H8 H 0.0864 0.2302 0.2678
H9 H -0.1015 0.1637 0.5317
H10 H -0.1420 0.2263 0.5845
C10C C 0.005(4) 0.216(2) 0.392(3)
C9C C 0.554(4) 0.258(2) 0.469(3)
C11C C 0.453(4) 0.251(4) 0.321(3)
C6C C 0.018(4) 0.148(2) 0.386(3)
N5C N 0.559(3) 0.195(2) 0.479(3)
N6C N 0.605(3) 0.293(2) 0.536(3)
N4C N 0.476(3) 0.177(2) 0.334(3)
H8C H 0.4136 0.2698 0.2678
N1C N 0.102(4) 0.123(2) 0.307(2)
H2C H 0.0493 0.1316 0.4433
H3C H -0.0624 0.1293 0.3769
C8C C 0.514(5) 0.149(3) 0.422(5)
H9C H 0.6015 0.3363 0.5317
H10C H 0.6420 0.2737 0.5845
C7C C 0.437(3) 0.135(2) 0.259(3)
C1C C 0.065(5) 0.093(3) 0.230(4)
C4C C 0.223(4) 0.135(2) 0.320(4)
C12C C 0.536(5) 0.083(3) 0.428(4)
C3C C 0.311(4) 0.117(2) 0.252(4)
H4C H 0.4617 0.1545 0.2012
H5C H 0.4833 0.0956 0.2655
N2C N 0.142(4) 0.072(2) 0.158(3)
C5C C -0.078(5) 0.080(3) 0.229(4)
H1C H 0.2483 0.1581 0.3749
C2C C 0.254(6) 0.084(2) 0.180(3)
N3C N 0.332(3) 0.063(2) 0.114(3)
H6C H 0.4131 0.0711 0.1193
H7C H 0.3026 0.0414 0.0650
N7 N 0.160(4) 0.969(2) 0.410(3)
O1 O 0.105(5) 0.941(2) 0.467(3)
O2 O 0.246(3) 1.011(1) 0.432(2)
O3 O 0.112(4) 0.965(3) 0.338(3)
N8 N 0.2500 0.2500 0.08(1)
O4 O 0.2500 0.2500 0.150(4)
O5 O 0.255(8) 0.292(4) 0.016(5)
O5C O 0.245(8) 0.208(4) 0.016(5)
N9? N 0.2500 0.7500 0.242(7)
O6? O 0.19(1) 0.790(6) 0.29(1)
O7? O 0.2500 0.7500 0.17(2)
O8? O 0.2500 0.7500 0.30(2)
O9? O 0.253(8) 0.700(4) 0.188(5)
loop_
_geom_bond_atom_site_label_1
_geom_bond_atom_site_label_2
_geom_bond_site_symmetry_1
_geom_bond_site_symmetry_2
N1 C1 1_555 1_555
C1 N2 1_555 1_555
N2 C2 1_555 1_555
C2 C3 1_555 1_555
C3 C4 1_555 1_555
C4 N1 1_555 1_555
C5 C1 1_555 1_555
C6 N1 1_555 1_555
C7 C3 1_555 1_555
N3 C2 1_555 1_555
N4 C7 1_555 1_555
C8 N4 1_555 1_555
N5 C8 1_555 1_555
C9 N5 1_555 1_555
C10 C6 1_555 1_555
C11 N4 1_555 1_555
C12 C8 1_555 1_555
N6 C9 1_555 1_555
N7 O1 1_555 1_555
O2 N7 1_555 1_555
O3 N7 1_555 1_555
N8 O4 1_555 1_555
O5 N8 1_555 1_555
H1 C4 1_555 1_555
H2 C6 1_555 1_555
H3 C6 1_555 1_555
H4 C7 1_555 1_555
H5 C7 1_555 1_555
H6 N3 1_555 1_555
H7 N3 1_555 1_555
H8 C11 1_555 1_555
H9 N6 1_555 1_555
H10 N6 1_555 1_555
C10C C9 1_555 1_555
C9C C10 1_555 1_555
C11C C10 1_555 1_555
C6C C10C 1_555 1_555
N5C C9C 1_555 1_555
N6C C9C 1_555 1_555
N4C C11C 1_555 1_555
H8C C11C 1_555 1_555
N1C C6C 1_555 1_555
H2C C6C 1_555 1_555
H3C C6C 1_555 1_555
C8C N5C 1_555 1_555
H9C N6C 1_555 1_555
H10C N6C 1_555 1_555
C7C N4C 1_555 1_555
C1C N1C 1_555 1_555
C4C N1C 1_555 1_555
C12C C8C 1_555 1_555
C3C C7C 1_555 1_555
H4C C7C 1_555 1_555
H5C C7C 1_555 1_555
N2C C1C 1_555 1_555
C5C C1C 1_555 1_555
H1C C4C 1_555 1_555
C2C C3C 1_555 1_555
N3C C2C 1_555 1_555
H6C N3C 1_555 1_555
H7C N3C 1_555 1_555
O5C N8 1_555 1_555
C11 C10C 1_555 1_555
N4C C8C 1_555 1_555
C4C C3C 1_555 1_555
N2C C2C 1_555 1_555

#END
