
#######################################################################
#
#                 Cambridge Crystallographic Data Centre
#                                CCDC 
#
#######################################################################
#
# If this CIF has been generated from an entry in the Cambridge 
# Structural Database, then it will include bibliographic, chemical, 
# crystal, experimental, refinement or atomic coordinate data resulting 
# from the CCDC's data processing and validation procedures.
#
#######################################################################

data_KODQUR
_chemical_formula_moiety         'C16 H17 Cl2 N1 O1'
_chemical_name_systematic        
3-chloro-2-(2-chlorobicyclo[2.2.1]hept-7-yl)-3-phenylacrylamide
_symmetry_cell_setting           monoclinic
_symmetry_space_group_name_H-M   'P 21/c'
_symmetry_Int_Tables_number      14
_space_group_name_Hall           '-P 2ybc'
loop_
_symmetry_equiv_pos_site_id
_symmetry_equiv_pos_as_xyz
1 x,y,z
2 -x,1/2+y,1/2-z
3 -x,-y,-z
4 x,1/2-y,1/2+z
_cell_length_a                   8.0311(16)
_cell_length_b                   25.318(5)
_cell_length_c                   8.1170(16)
_cell_angle_alpha                90
_cell_angle_beta                 109.37(3)
_cell_angle_gamma                90
_cell_volume                     1557.02
_cell_formula_units_Z            4
loop_
_atom_site_label
_atom_site_type_symbol
_atom_site_fract_x
_atom_site_fract_y
_atom_site_fract_z
Cl1 Cl 1.44483(10) 0.63138(3) 0.59031(10)
C1 C 1.2588(3) 0.63301(9) 0.4016(3)
C2 C 1.1286(3) 0.66686(9) 0.3893(3)
C3 C 1.2687(3) 0.59398(9) 0.2691(3)
C4 C 1.2619(4) 0.61019(10) 0.1044(3)
H1 H 1.2527 0.6460 0.0768
C5 C 1.2684(4) 0.57362(11) -0.0195(4)
H2 H 1.2636 0.5848 -0.1301
C6 C 1.2853(5) 0.54084(11) 0.3080(4)
H3 H 1.2929 0.5294 0.4192
C7 C 1.2821(5) 0.52105(12) 0.0199(5)
H4 H 1.2855 0.4964 -0.0638
C8 C 1.2907(6) 0.50472(12) 0.1841(6)
H5 H 1.3002 0.4689 0.2113
O1 O 1.1747(3) 0.75433(7) 0.4967(2)
N1 N 1.1353(4) 0.69262(8) 0.6776(3)
H6 H 1.1431 0.7153 0.7588
H7 H 1.1180 0.6598 0.6939
C9 C 0.8552(4) 0.61770(10) 0.1754(4)
H8 H 0.9227 0.5864 0.1644
C10 C 0.9648(3) 0.66917(9) 0.2284(3)
H9 H 0.9994 0.6809 0.1294
C11 C 1.1501(4) 0.70833(10) 0.5271(3)
C12 C 0.7630(4) 0.61335(11) 0.3112(4)
H10 H 0.6482 0.5962 0.2585
C13 C 0.8059(4) 0.70160(10) 0.2314(4)
H11 H 0.8324 0.7387 0.2642
C14 C 0.7343(4) 0.67074(11) 0.3535(4)
H12 H 0.6100 0.6781 0.3300
H13 H 0.7989 0.6789 0.4746
C15 C 0.7157(4) 0.63578(13) 0.0063(4)
H14 H 0.6093 0.6146 -0.0194
H15 H 0.7597 0.6336 -0.0912
C16 C 0.6806(4) 0.69333(12) 0.0448(4)
H16 H 0.7078 0.7174 -0.0358
H17 H 0.5586 0.6983 0.0376
Cl2 Cl 0.89007(13) 0.57681(4) 0.50324(13)
loop_
_geom_bond_atom_site_label_1
_geom_bond_atom_site_label_2
_geom_bond_site_symmetry_1
_geom_bond_site_symmetry_2
Cl1 C1 1_555 1_555
C1 C2 1_555 1_555
C2 C10 1_555 1_555
C3 C1 1_555 1_555
C4 C3 1_555 1_555
H1 C4 1_555 1_555
C5 C4 1_555 1_555
H2 C5 1_555 1_555
C6 C3 1_555 1_555
H3 C6 1_555 1_555
C7 C5 1_555 1_555
H4 C7 1_555 1_555
C8 C6 1_555 1_555
H5 C8 1_555 1_555
O1 C11 1_555 1_555
N1 H6 1_555 1_555
H7 N1 1_555 1_555
C9 H8 1_555 1_555
C10 C9 1_555 1_555
H9 C10 1_555 1_555
C11 C2 1_555 1_555
C12 C9 1_555 1_555
H10 C12 1_555 1_555
C13 C10 1_555 1_555
H11 C13 1_555 1_555
C14 C12 1_555 1_555
H12 C14 1_555 1_555
H13 C14 1_555 1_555
C15 C9 1_555 1_555
H14 C15 1_555 1_555
H15 C15 1_555 1_555
C16 C13 1_555 1_555
H16 C16 1_555 1_555
H17 C16 1_555 1_555
Cl2 C12 1_555 1_555
C7 C8 1_555 1_555
N1 C11 1_555 1_555
C13 C14 1_555 1_555
C15 C16 1_555 1_555

#END
