
#######################################################################
#
#                 Cambridge Crystallographic Data Centre
#                                CCDC 
#
#######################################################################
#
# If this CIF has been generated from an entry in the Cambridge 
# Structural Database, then it will include bibliographic, chemical, 
# crystal, experimental, refinement or atomic coordinate data resulting 
# from the CCDC's data processing and validation procedures.
#
#######################################################################

data_KODQIF
_chemical_formula_moiety         'C40 H35 N1,C1 H2 Cl2'
_chemical_name_systematic        
'pentakis(4-methylphenyl)pyridine dichloromethane solvate'
_symmetry_cell_setting           monoclinic
_symmetry_space_group_name_H-M   'C 2/c'
_symmetry_Int_Tables_number      15
_space_group_name_Hall           '-C 2yn'
loop_
_symmetry_equiv_pos_site_id
_symmetry_equiv_pos_as_xyz
1 x,y,z
2 -x,y,1/2-z
3 1/2+x,1/2+y,z
4 1/2-x,1/2+y,1/2-z
5 -x,-y,-z
6 x,-y,1/2+z
7 1/2-x,1/2-y,-z
8 1/2+x,1/2-y,1/2+z
_cell_length_a                   28.5509(4)
_cell_length_b                   11.8913(2)
_cell_length_c                   22.0638(3)
_cell_angle_alpha                90
_cell_angle_beta                 116.213(1)
_cell_angle_gamma                90
_cell_volume                     6720.45
_exptl_crystal_colour            colorless
_exptl_crystal_description       prism
_cell_formula_units_Z            8
loop_
_atom_site_label
_atom_site_type_symbol
_atom_site_fract_x
_atom_site_fract_y
_atom_site_fract_z
C1 C 0.76590(8) 0.08882(16) 0.05862(10)
C2 C 0.81955(8) 0.07391(16) 0.07750(10)
C3 C 0.83363(8) 0.00137(16) 0.03797(10)
C4 C 0.79436(8) -0.05187(16) -0.01880(10)
C5 C 0.74219(8) -0.02194(16) -0.03686(10)
C6 C 0.74674(8) 0.15482(16) 0.10068(10)
C7 C 0.70832(8) 0.23614(18) 0.07099(10)
H1 H 0.6938 0.2483 0.0236
C8 C 0.69106(9) 0.29955(19) 0.10980(11)
H2 H 0.6650 0.3550 0.0885
C9 C 0.71095(8) 0.28407(18) 0.17912(11)
C10 C 0.74791(8) 0.19971(19) 0.20803(11)
H3 H 0.7612 0.1851 0.2550
C11 C 0.76579(8) 0.13666(18) 0.16993(10)
H4 H 0.7914 0.0802 0.1912
C12 C 0.69374(10) 0.3567(2) 0.22143(12)
H5 H 0.6927 0.4355 0.2079
H6 H 0.7184 0.3485 0.2692
H7 H 0.6589 0.3334 0.2148
C13 C 0.85940(8) 0.13518(17) 0.13703(10)
C14 C 0.85841(8) 0.25231(18) 0.13982(10)
H8 H 0.8327 0.2929 0.1031
C15 C 0.89435(8) 0.31025(19) 0.19538(11)
H9 H 0.8930 0.3900 0.1962
C16 C 0.93246(8) 0.2533(2) 0.24999(11)
C17 C 0.93381(9) 0.1369(2) 0.24691(11)
H10 H 0.9598 0.0965 0.2834
C18 C 0.89789(8) 0.07840(19) 0.19144(11)
H11 H 0.8996 -0.0013 0.1906
C19 C 0.97135(10) 0.3165(2) 0.31107(13)
H12 H 0.9740 0.3944 0.2984
H13 H 1.0056 0.2803 0.3277
H14 H 0.9597 0.3157 0.3467
C20 C 0.89001(8) -0.01628(17) 0.05564(10)
C21 C 0.92041(8) 0.07380(17) 0.05410(10)
H15 H 0.9053 0.1466 0.0424
C22 C 0.97266(8) 0.05843(19) 0.06953(11)
H16 H 0.9927 0.1209 0.0676
C23 C 0.99610(8) -0.04610(19) 0.08764(11)
C24 C 0.96560(8) -0.13595(19) 0.08906(11)
H17 H 0.9809 -0.2085 0.1013
C25 C 0.91316(8) -0.12177(18) 0.07295(11)
H18 H 0.8929 -0.1847 0.0737
C26 C 1.05344(9) -0.0608(2) 0.10640(13)
H19 H 1.0631 -0.0120 0.0779
H20 H 1.0602 -0.1394 0.0995
H21 H 1.0742 -0.0406 0.1540
C27 C 0.80751(8) -0.13982(17) -0.05729(10)
C28 C 0.84078(8) -0.11956(18) -0.08694(11)
H22 H 0.8551 -0.0466 -0.0842
C29 C 0.85336(9) -0.20397(19) -0.12042(12)
H23 H 0.8759 -0.1877 -0.1405
C30 C 0.83361(9) -0.31181(19) -0.12511(12)
C31 C 0.80034(9) -0.33236(18) -0.09565(11)
H24 H 0.7863 -0.4056 -0.0982
C32 C 0.78732(8) -0.24810(18) -0.06259(10)
H25 H 0.7643 -0.2643 -0.0432
C33 C 0.84699(12) -0.4038(2) -0.16173(16)
H26 H 0.8384 -0.3792 -0.2078
H27 H 0.8269 -0.4715 -0.1634
H28 H 0.8844 -0.4206 -0.1378
C34 C 0.69737(8) -0.06142(16) -0.10013(10)
C35 C 0.69898(8) -0.06396(17) -0.16224(11)
H29 H 0.7297 -0.0407 -0.1652
C36 C 0.65617(9) -0.10003(18) -0.21979(11)
H30 H 0.6583 -0.1023 -0.2615
C37 C 0.61015(9) -0.13291(18) -0.21791(11)
C38 C 0.60835(8) -0.12860(19) -0.15607(11)
H31 H 0.5772 -0.1498 -0.1535
C39 C 0.65114(8) -0.09392(18) -0.09807(11)
H32 H 0.6490 -0.0922 -0.0563
C40 C 0.56367(11) -0.1713(3) -0.28067(13)
H33 H 0.5547 -0.2486 -0.2744
H34 H 0.5721 -0.1685 -0.3192
H35 H 0.5339 -0.1218 -0.2894
N1 N 0.72865(6) 0.04497(14) 0.00198(8)
C41 C 0.91124(13) 0.4319(3) 0.0156(2)
H36 H 0.9144 0.3987 0.0584
H37 H 0.8737 0.4453 -0.0139
Cl1 Cl 0.94476(4) 0.56072(8) 0.03276(6)
Cl2 Cl 0.93561(4) 0.33782(7) -0.02362(6)
loop_
_geom_bond_atom_site_label_1
_geom_bond_atom_site_label_2
_geom_bond_site_symmetry_1
_geom_bond_site_symmetry_2
C1 C2 1_555 1_555
C2 C3 1_555 1_555
C3 C4 1_555 1_555
C4 C5 1_555 1_555
C5 C34 1_555 1_555
C6 C1 1_555 1_555
C7 C6 1_555 1_555
H1 C7 1_555 1_555
C8 C7 1_555 1_555
H2 C8 1_555 1_555
C9 C8 1_555 1_555
C10 C9 1_555 1_555
H3 C10 1_555 1_555
C11 C6 1_555 1_555
H4 C11 1_555 1_555
C12 C9 1_555 1_555
H5 C12 1_555 1_555
H6 C12 1_555 1_555
H7 C12 1_555 1_555
C13 C2 1_555 1_555
C14 C13 1_555 1_555
H8 C14 1_555 1_555
C15 C14 1_555 1_555
H9 C15 1_555 1_555
C16 C15 1_555 1_555
C17 C16 1_555 1_555
H10 C17 1_555 1_555
C18 C13 1_555 1_555
H11 C18 1_555 1_555
C19 C16 1_555 1_555
H12 C19 1_555 1_555
H13 C19 1_555 1_555
H14 C19 1_555 1_555
C20 C3 1_555 1_555
C21 C20 1_555 1_555
H15 C21 1_555 1_555
C22 C21 1_555 1_555
H16 C22 1_555 1_555
C23 C22 1_555 1_555
C24 C23 1_555 1_555
H17 C24 1_555 1_555
C25 C20 1_555 1_555
H18 C25 1_555 1_555
C26 C23 1_555 1_555
H19 C26 1_555 1_555
H20 C26 1_555 1_555
H21 C26 1_555 1_555
C27 C4 1_555 1_555
C28 C27 1_555 1_555
H22 C28 1_555 1_555
C29 C28 1_555 1_555
H23 C29 1_555 1_555
C30 C29 1_555 1_555
C31 C30 1_555 1_555
H24 C31 1_555 1_555
C32 C27 1_555 1_555
H25 C32 1_555 1_555
C33 C30 1_555 1_555
H26 C33 1_555 1_555
H27 C33 1_555 1_555
H28 C33 1_555 1_555
C34 C35 1_555 1_555
C35 H29 1_555 1_555
C36 C35 1_555 1_555
H30 C36 1_555 1_555
C37 C36 1_555 1_555
C38 C37 1_555 1_555
H31 C38 1_555 1_555
C39 C34 1_555 1_555
H32 C39 1_555 1_555
C40 C37 1_555 1_555
H33 C40 1_555 1_555
H34 C40 1_555 1_555
H35 C40 1_555 1_555
N1 C1 1_555 1_555
C41 H36 1_555 1_555
H37 C41 1_555 1_555
Cl1 C41 1_555 1_555
Cl2 C41 1_555 1_555
C5 N1 1_555 1_555
C10 C11 1_555 1_555
C17 C18 1_555 1_555
C24 C25 1_555 1_555
C31 C32 1_555 1_555
C38 C39 1_555 1_555

#END
