
#######################################################################
#
#                 Cambridge Crystallographic Data Centre
#                                CCDC 
#
#######################################################################
#
# If this CIF has been generated from an entry in the Cambridge 
# Structural Database, then it will include bibliographic, chemical, 
# crystal, experimental, refinement or atomic coordinate data resulting 
# from the CCDC's data processing and validation procedures.
#
#######################################################################

data_KODXOR
_chemical_formula_moiety         'C26 H26 O4'
_chemical_name_systematic        'Diethyl 2-(triphenylmethyl)malonate'
_symmetry_cell_setting           monoclinic
_symmetry_space_group_name_H-M   'P 21/c'
_symmetry_Int_Tables_number      14
_space_group_name_Hall           '-P 2ybc'
loop_
_symmetry_equiv_pos_site_id
_symmetry_equiv_pos_as_xyz
1 x,y,z
2 -x,1/2+y,1/2-z
3 -x,-y,-z
4 x,1/2-y,1/2+z
_cell_length_a                   8.5871(5)
_cell_length_b                   19.8840(10)
_cell_length_c                   12.7591(8)
_cell_angle_alpha                90
_cell_angle_beta                 97.3020(10)
_cell_angle_gamma                90
_cell_volume                     2160.9
_exptl_crystal_colour            colorless
_exptl_crystal_description       Block
_chemical_melting_point          '411-412 K'
_cell_formula_units_Z            4
_exptl_crystal_recrystallization_method acetone
loop_
_atom_site_label
_atom_site_type_symbol
_atom_site_fract_x
_atom_site_fract_y
_atom_site_fract_z
O1 O 0.53297(19) 0.54974(7) 0.74906(12)
O2 O 0.64769(19) 0.50922(8) 0.61546(13)
O3 O 0.24156(16) 0.46954(7) 0.79704(10)
O4 O 0.19910(17) 0.51697(8) 0.63787(11)
C1 C 0.4903(2) 0.38239(8) 0.71672(13)
C2 C 0.6123(2) 0.39784(8) 0.81297(13)
C3 C 0.7724(2) 0.39498(10) 0.80592(15)
H1 H 0.8065 0.3808 0.7432
C4 C 0.8819(2) 0.41277(11) 0.89050(17)
H2 H 0.9885 0.4104 0.8842
C5 C 0.8340(3) 0.43394(10) 0.98370(17)
H3 H 0.9076 0.4454 1.0408
C6 C 0.6760(3) 0.43800(10) 0.99189(15)
H4 H 0.6428 0.4524 1.0547
C7 C 0.5668(2) 0.42082(9) 0.90763(14)
H5 H 0.4605 0.4246 0.9141
C8 C 0.5680(2) 0.33995(9) 0.63526(14)
C9 C 0.6181(2) 0.27544(9) 0.66570(16)
H6 H 0.6047 0.2602 0.7329
C10 C 0.6866(3) 0.23381(11) 0.5992(2)
H7 H 0.7203 0.1912 0.6220
C11 C 0.7059(3) 0.25471(12) 0.49889(19)
H8 H 0.7513 0.2264 0.4534
C12 C 0.6575(3) 0.31736(13) 0.46735(18)
H9 H 0.6697 0.3318 0.3995
C13 C 0.5898(2) 0.36049(11) 0.53507(15)
H10 H 0.5591 0.4035 0.5123
C14 C 0.3499(2) 0.33914(9) 0.74171(14)
C15 C 0.3452(2) 0.30478(9) 0.83520(16)
H11 H 0.4302 0.3075 0.8881
C16 C 0.2164(3) 0.26641(11) 0.8516(2)
H12 H 0.2153 0.2439 0.9154
C17 C 0.0903(3) 0.26130(12) 0.7744(2)
H13 H 0.0027 0.2363 0.7863
C18 C 0.0944(3) 0.29331(11) 0.6800(2)
H14 H 0.0101 0.2895 0.6269
C19 C 0.2231(2) 0.33111(10) 0.66349(17)
H15 H 0.2253 0.3518 0.5983
C20 C 0.4235(2) 0.45117(9) 0.66689(14)
H16 H 0.3912 0.4426 0.5916
C21 C 0.5482(2) 0.50592(9) 0.67315(15)
C22 C 0.2799(2) 0.47852(9) 0.71124(15)
C23 C 0.6698(11) 0.5959(4) 0.7676(7)
H17 H 0.6579 0.6324 0.7169
H18 H 0.7657 0.5718 0.7592
C25 C 0.6779(11) 0.6230(4) 0.8771(4)
H21 H 0.7610 0.6554 0.8888
H22 H 0.6979 0.5869 0.9269
H23 H 0.5799 0.6441 0.8861
C27 C 0.0595(3) 0.54963(15) 0.6682(2)
H27 H -0.0127 0.5161 0.6889
H28 H 0.0885 0.5793 0.7278
C28 C -0.0156(3) 0.58803(13) 0.5784(2)
H29 H -0.1078 0.6097 0.5975
H30 H -0.0446 0.5583 0.5199
H31 H 0.0562 0.6214 0.5587
C24? C 0.6178(13) 0.6129(4) 0.7620(10)
H19? H 0.5493 0.6492 0.7782
H20? H 0.6640 0.6243 0.6988
C26? C 0.7417(13) 0.5995(6) 0.8527(9)
H24? H 0.8071 0.6386 0.8656
H25? H 0.8045 0.5620 0.8362
H26? H 0.6932 0.5895 0.9146
loop_
_geom_bond_atom_site_label_1
_geom_bond_atom_site_label_2
_geom_bond_site_symmetry_1
_geom_bond_site_symmetry_2
O1 C21 1_555 1_555
O2 C21 1_555 1_555
O3 C22 1_555 1_555
O4 C22 1_555 1_555
C1 C2 1_555 1_555
C2 C3 1_555 1_555
C3 H1 1_555 1_555
C4 C3 1_555 1_555
H2 C4 1_555 1_555
C5 C4 1_555 1_555
H3 C5 1_555 1_555
C6 C5 1_555 1_555
H4 C6 1_555 1_555
C7 C2 1_555 1_555
H5 C7 1_555 1_555
C8 C1 1_555 1_555
C9 C8 1_555 1_555
H6 C9 1_555 1_555
C10 C9 1_555 1_555
H7 C10 1_555 1_555
C11 C10 1_555 1_555
H8 C11 1_555 1_555
C12 C11 1_555 1_555
H9 C12 1_555 1_555
C13 C8 1_555 1_555
H10 C13 1_555 1_555
C14 C1 1_555 1_555
C15 C14 1_555 1_555
H11 C15 1_555 1_555
C16 C15 1_555 1_555
H12 C16 1_555 1_555
C17 C16 1_555 1_555
H13 C17 1_555 1_555
C18 C17 1_555 1_555
H14 C18 1_555 1_555
C19 C14 1_555 1_555
H15 C19 1_555 1_555
C20 C1 1_555 1_555
H16 C20 1_555 1_555
C21 C20 1_555 1_555
C22 C20 1_555 1_555
C23 O1 1_555 1_555
H17 C23 1_555 1_555
H18 C23 1_555 1_555
C25 C23 1_555 1_555
H21 C25 1_555 1_555
H22 C25 1_555 1_555
H23 C25 1_555 1_555
C27 O4 1_555 1_555
H27 C27 1_555 1_555
H28 C27 1_555 1_555
C28 C27 1_555 1_555
H29 C28 1_555 1_555
H30 C28 1_555 1_555
H31 C28 1_555 1_555
C6 C7 1_555 1_555
C12 C13 1_555 1_555
C18 C19 1_555 1_555

#END
