
#######################################################################
#
#                 Cambridge Crystallographic Data Centre
#                                CCDC 
#
#######################################################################
#
# If this CIF has been generated from an entry in the Cambridge 
# Structural Database, then it will include bibliographic, chemical, 
# crystal, experimental, refinement or atomic coordinate data resulting 
# from the CCDC's data processing and validation procedures.
#
#######################################################################

data_KOGWOU
_chemical_formula_moiety         'C15 H15 N1 O2'
_chemical_name_systematic        
N-(2-Hydroxy-3-methylphenyl)-N-methylbenzamide
_symmetry_cell_setting           monoclinic
_symmetry_space_group_name_H-M   'P 21/n'
_symmetry_Int_Tables_number      14
_space_group_name_Hall           '-P 2yn'
loop_
_symmetry_equiv_pos_site_id
_symmetry_equiv_pos_as_xyz
1 x,y,z
2 1/2-x,1/2+y,1/2-z
3 -x,-y,-z
4 1/2+x,1/2-y,1/2+z
_cell_length_a                   10.2481(16)
_cell_length_b                   10.1664(17)
_cell_length_c                   12.1731(19)
_cell_angle_alpha                90
_cell_angle_beta                 93.195(3)
_cell_angle_gamma                90
_cell_volume                     1266.3
_cell_formula_units_Z            4
loop_
_atom_site_label
_atom_site_type_symbol
_atom_site_fract_x
_atom_site_fract_y
_atom_site_fract_z
N1 N 0.65199(12) 0.98976(12) 0.62930(10)
O1 O 0.51972(13) 1.21046(11) 0.71115(10)
H1 H 0.4951 1.1719 0.6546
O2 O 0.60773(12) 0.87064(11) 0.47664(9)
C1 C 0.5148(2) 1.2734(2) 0.93260(18)
H2 H 0.5287 1.2812 1.0110
H3 H 0.4229 1.2667 0.9137
H4 H 0.5494 1.3496 0.8979
C2 C 0.58306(16) 1.15222(17) 0.89387(14)
C3 C 0.64508(19) 1.0645(2) 0.96630(15)
H5 H 0.6447 1.0812 1.0414
C4 C 0.70734(19) 0.95333(19) 0.93131(15)
H6 H 0.7475 0.8959 0.9821
C5 C 0.70951(16) 0.92802(16) 0.82020(14)
H7 H 0.7530 0.8543 0.7955
C6 C 0.64677(15) 1.01252(14) 0.74543(13)
C7 C 0.58267(15) 1.12425(15) 0.78157(13)
C8 C 0.74016(18) 1.07537(17) 0.57080(15)
H8 H 0.7732 1.0284 0.5098
H9 H 0.8117 1.1020 0.6201
H10 H 0.6933 1.1518 0.5442
C9 C 0.59177(14) 0.88911(15) 0.57520(13)
C10 C 0.50759(15) 0.79752(15) 0.63698(12)
C11 C 0.52858(18) 0.66434(17) 0.62546(17)
H11 H 0.5934 0.6348 0.5810
C12 C 0.4541(2) 0.5749(2) 0.6794(2)
H12 H 0.4706 0.4853 0.6731
C13 C 0.3560(2) 0.6178(2) 0.74229(19)
H13 H 0.3062 0.5571 0.7789
C14 C 0.33055(19) 0.7503(2) 0.75178(17)
H14 H 0.2620 0.7790 0.7927
C15 C 0.40739(16) 0.84011(18) 0.70025(14)
H15 H 0.3919 0.9297 0.7080
loop_
_geom_bond_atom_site_label_1
_geom_bond_atom_site_label_2
_geom_bond_site_symmetry_1
_geom_bond_site_symmetry_2
N1 C6 1_555 1_555
O1 H1 1_555 1_555
O2 C9 1_555 1_555
C1 H2 1_555 1_555
H3 C1 1_555 1_555
H4 C1 1_555 1_555
C2 C1 1_555 1_555
C3 C2 1_555 1_555
H5 C3 1_555 1_555
C4 C3 1_555 1_555
H6 C4 1_555 1_555
C5 C4 1_555 1_555
H7 C5 1_555 1_555
C6 C5 1_555 1_555
C7 O1 1_555 1_555
C8 N1 1_555 1_555
H8 C8 1_555 1_555
H9 C8 1_555 1_555
H10 C8 1_555 1_555
C9 N1 1_555 1_555
C10 C9 1_555 1_555
C11 C10 1_555 1_555
H11 C11 1_555 1_555
C12 C11 1_555 1_555
H12 C12 1_555 1_555
C13 C12 1_555 1_555
H13 C13 1_555 1_555
C14 C13 1_555 1_555
H14 C14 1_555 1_555
C15 C10 1_555 1_555
H15 C15 1_555 1_555
C2 C7 1_555 1_555
C6 C7 1_555 1_555
C14 C15 1_555 1_555

#END
