
#######################################################################
#
#                 Cambridge Crystallographic Data Centre
#                                CCDC 
#
#######################################################################
#
# If this CIF has been generated from an entry in the Cambridge 
# Structural Database, then it will include bibliographic, chemical, 
# crystal, experimental, refinement or atomic coordinate data resulting 
# from the CCDC's data processing and validation procedures.
#
#######################################################################

data_KOGXAG
_chemical_compound_source        'stem bark of Zanthoxylum nitidum'
_chemical_formula_moiety         'C37 H45 N1 O5'
_chemical_name_systematic        Zanthomuurolanine
_chemical_properties_biological  
'inactive against MCF-7 (human breast adenocarcinoma), NCI-H460 (non-small-cell lung cancer) and SF-268 (glioblastoma) cells'
_symmetry_cell_setting           orthorhombic
_symmetry_space_group_name_H-M   'P 21 21 21'
_symmetry_Int_Tables_number      19
_space_group_name_Hall           'P 2ac 2ab'
loop_
_symmetry_equiv_pos_site_id
_symmetry_equiv_pos_as_xyz
1 x,y,z
2 1/2-x,-y,1/2+z
3 -x,1/2+y,1/2-z
4 1/2+x,1/2-y,-z
_cell_length_a                   6.415(3)
_cell_length_b                   19.316(7)
_cell_length_c                   26.196(8)
_cell_angle_alpha                90
_cell_angle_beta                 90
_cell_angle_gamma                90
_cell_volume                     3246
_exptl_crystal_colour            colorless
_exptl_crystal_description       prismatic
_chemical_melting_point          198-199deg.C
_cell_formula_units_Z            4
_exptl_crystal_recrystallization_method acetone
loop_
_atom_site_label
_atom_site_type_symbol
_atom_site_fract_x
_atom_site_fract_y
_atom_site_fract_z
O1 O 0.8474(6) 1.05261(15) 0.69548(9)
O2 O 1.0462(5) 0.98699(13) 0.74994(10)
O3 O 0.7763(4) 1.06254(10) 1.09341(8)
O4 O 0.5749(4) 1.16890(11) 1.13724(8)
O5 O 0.5702(4) 0.67309(10) 0.90718(8)
N1 N 0.8683(3) 1.05480(11) 0.93630(9)
C1 C 0.6602(7) 1.11573(19) 0.76209(13)
H1 H 0.5794 1.1413 0.7394
C2 C 0.8007(7) 1.07018(19) 0.74517(13)
C3 C 0.9203(6) 1.03058(17) 0.77803(13)
C4 C 0.9051(6) 1.03473(15) 0.82925(12)
H2 H 0.9849 1.0067 0.8505
C5 C 0.7610(5) 1.08405(14) 0.84955(11)
C6 C 0.7368(4) 1.09377(13) 0.90329(11)
C7 C 0.7731(5) 1.03878(13) 0.98562(10)
H3 H 0.8823 1.0209 1.0082
C8 C 0.6788(4) 1.10242(13) 1.01051(11)
C9 C 0.6777(5) 1.11154(13) 1.06257(11)
C10 C 0.5705(5) 1.16634(14) 1.08503(11)
C11 C 0.4683(5) 1.21328(13) 1.05406(11)
H4 H 0.3948 1.2499 1.0685
C12 C 0.4758(4) 1.20567(13) 1.00160(11)
H5 H 0.4101 1.2384 0.9811
C13 C 0.5783(4) 1.15058(12) 0.97849(10)
C14 C 0.5933(4) 1.14042(12) 0.92281(10)
C15 C 0.4703(5) 1.17855(14) 0.88763(11)
H6 H 0.3725 1.2099 0.8999
C16 C 0.4920(5) 1.17032(16) 0.83658(12)
H7 H 0.4081 1.1961 0.8147
C17 C 0.6377(5) 1.12394(15) 0.81571(12)
C18 C 1.0026(8) 1.0016(2) 0.69763(15)
H8 H 1.1277 1.0178 0.6807
H9 H 0.9552 0.9600 0.6805
C19 C 1.0773(5) 1.08527(18) 0.94171(14)
H10 H 1.1328 1.0955 0.9085
H11 H 1.1672 1.0530 0.9588
H12 H 1.0681 1.1272 0.9613
C20 C 0.9753(7) 1.0853(2) 1.11136(15)
H13 H 1.0666 1.0925 1.0828
H14 H 1.0336 1.0508 1.1335
H15 H 0.9592 1.1280 1.1298
C21 C 0.4561(6) 1.22158(18) 1.16178(13)
H16 H 0.5067 1.2662 1.1514
H17 H 0.4694 1.2169 1.1981
H18 H 0.3122 1.2171 1.1523
C22 C 0.7343(5) 0.77737(13) 0.92686(11)
H19 H 0.6641 0.7695 0.9596
C23 C 0.9276(5) 0.82052(14) 0.93852(11)
H20 H 1.0278 0.7925 0.9571
H21 H 0.9919 0.8353 0.9068
C24 C 0.8698(5) 0.88377(13) 0.97025(11)
H22 H 0.8561 0.8700 1.0057
H23 H 0.9819 0.9174 0.9681
C25 C 0.6703(4) 0.91751(13) 0.95330(10)
C26 C 0.5480(5) 0.88920(13) 0.91868(10)
H24 H 0.4307 0.9141 0.9087
C27 C 0.5831(5) 0.81957(13) 0.89393(9)
H25 H 0.4492 0.7952 0.8942
C28 C 0.6522(5) 0.82527(14) 0.83767(10)
H26 H 0.7868 0.8492 0.8377
C29 C 0.6918(6) 0.75266(16) 0.81611(11)
H27 H 0.5607 0.7277 0.8143
H28 H 0.7464 0.7567 0.7817
C30 C 0.8449(6) 0.71166(15) 0.84859(12)
H29 H 0.8609 0.6658 0.8341
H30 H 0.9799 0.7342 0.8475
C31 C 0.7767(6) 0.70492(14) 0.90371(12)
C32 C 0.6060(5) 0.98315(13) 0.98032(10)
H31 H 0.5577 0.9709 1.0142
H32 H 0.4886 1.0030 0.9621
C33 C 0.5045(6) 0.86876(17) 0.80490(12)
H33 H 0.4963 0.9146 0.8208
C34 C 0.2837(6) 0.8407(2) 0.80220(16)
H34 H 0.2858 0.7950 0.7879
H35 H 0.2004 0.8704 0.7811
H36 H 0.2253 0.8391 0.8359
C35 C 0.5893(8) 0.8792(2) 0.75089(13)
H37 H 0.7323 0.8936 0.7527
H38 H 0.5088 0.9142 0.7338
H39 H 0.5798 0.8365 0.7323
C36 C 0.9343(8) 0.66435(17) 0.93482(15)
H40 H 0.8890 0.6621 0.9697
H41 H 1.0674 0.6870 0.9332
H42 H 0.9463 0.6183 0.9213
C37 C 0.5490(8) 0.60425(16) 0.88964(15)
H43 H 0.5943 0.6014 0.8548
H44 H 0.4055 0.5904 0.8919
H45 H 0.6328 0.5741 0.9103
loop_
_geom_bond_atom_site_label_1
_geom_bond_atom_site_label_2
_geom_bond_site_symmetry_1
_geom_bond_site_symmetry_2
O1 C2 1_555 1_555
O2 C3 1_555 1_555
O3 C9 1_555 1_555
O4 C10 1_555 1_555
O5 C31 1_555 1_555
N1 C6 1_555 1_555
C1 H1 1_555 1_555
C2 C1 1_555 1_555
C3 C2 1_555 1_555
C4 C3 1_555 1_555
H2 C4 1_555 1_555
C5 C4 1_555 1_555
C6 C5 1_555 1_555
C7 N1 1_555 1_555
H3 C7 1_555 1_555
C8 C7 1_555 1_555
C9 C8 1_555 1_555
C10 C9 1_555 1_555
C11 C10 1_555 1_555
H4 C11 1_555 1_555
C12 C11 1_555 1_555
H5 C12 1_555 1_555
C13 C8 1_555 1_555
C14 C6 1_555 1_555
C15 C14 1_555 1_555
H6 C15 1_555 1_555
C16 C15 1_555 1_555
H7 C16 1_555 1_555
C17 C1 1_555 1_555
C18 O1 1_555 1_555
H8 C18 1_555 1_555
H9 C18 1_555 1_555
C19 N1 1_555 1_555
H10 C19 1_555 1_555
H11 C19 1_555 1_555
H12 C19 1_555 1_555
C20 O3 1_555 1_555
H13 C20 1_555 1_555
H14 C20 1_555 1_555
H15 C20 1_555 1_555
C21 O4 1_555 1_555
H16 C21 1_555 1_555
H17 C21 1_555 1_555
H18 C21 1_555 1_555
C22 H19 1_555 1_555
C23 C22 1_555 1_555
H20 C23 1_555 1_555
H21 C23 1_555 1_555
C24 C23 1_555 1_555
H22 C24 1_555 1_555
H23 C24 1_555 1_555
C25 C24 1_555 1_555
C26 C25 1_555 1_555
H24 C26 1_555 1_555
C27 C22 1_555 1_555
H25 C27 1_555 1_555
C28 C27 1_555 1_555
H26 C28 1_555 1_555
C29 C28 1_555 1_555
H27 C29 1_555 1_555
H28 C29 1_555 1_555
C30 C29 1_555 1_555
H29 C30 1_555 1_555
H30 C30 1_555 1_555
C31 C22 1_555 1_555
C32 C7 1_555 1_555
H31 C32 1_555 1_555
H32 C32 1_555 1_555
C33 C28 1_555 1_555
H33 C33 1_555 1_555
C34 C33 1_555 1_555
H34 C34 1_555 1_555
H35 C34 1_555 1_555
H36 C34 1_555 1_555
C35 C33 1_555 1_555
H37 C35 1_555 1_555
H38 C35 1_555 1_555
H39 C35 1_555 1_555
C36 C31 1_555 1_555
H40 C36 1_555 1_555
H41 C36 1_555 1_555
H42 C36 1_555 1_555
C37 O5 1_555 1_555
H43 C37 1_555 1_555
H44 C37 1_555 1_555
H45 C37 1_555 1_555
O2 C18 1_555 1_555
C5 C17 1_555 1_555
C12 C13 1_555 1_555
C13 C14 1_555 1_555
C16 C17 1_555 1_555
C25 C32 1_555 1_555
C26 C27 1_555 1_555
C30 C31 1_555 1_555

#END
