
#######################################################################
#
#                 Cambridge Crystallographic Data Centre
#                                CCDC 
#
#######################################################################
#
# If this CIF has been generated from an entry in the Cambridge 
# Structural Database, then it will include bibliographic, chemical, 
# crystal, experimental, refinement or atomic coordinate data resulting 
# from the CCDC's data processing and validation procedures.
#
#######################################################################

data_KOHDAM
_chemical_formula_moiety         'C20 H38 N4'
_chemical_name_systematic        
syn-4,9-bis(t-Butyl)-5,10-dimethyl-4,5,9,10-tetra-azatetracyclo(6.2.2.2^3,6^.0^2,7^)tetradecane
_symmetry_cell_setting           triclinic
_symmetry_space_group_name_H-M   'P -1'
_symmetry_Int_Tables_number      2
_space_group_name_Hall           '-P 1'
loop_
_symmetry_equiv_pos_site_id
_symmetry_equiv_pos_as_xyz
1 x,y,z
2 -x,-y,-z
_cell_length_a                   8.735(4)
_cell_length_b                   10.524(5)
_cell_length_c                   11.018(5)
_cell_angle_alpha                86.46(4)
_cell_angle_beta                 74.95(4)
_cell_angle_gamma                79.79(4)
_cell_volume                     962.492
_chemical_melting_point          106-108deg.C
_cell_formula_units_Z            2
loop_
_atom_site_label
_atom_site_type_symbol
_atom_site_fract_x
_atom_site_fract_y
_atom_site_fract_z
C1 C -0.3877(5) -0.3763(4) -0.2175(3)
C2 C -0.5138(5) -0.2654(4) -0.1477(4)
C3 C -0.4465(5) -0.1756(4) -0.0771(4)
C4 C -0.3266(5) -0.1075(4) -0.1747(4)
C5 C -0.2942(5) -0.1720(4) -0.3010(4)
C6 C -0.2417(5) -0.3188(4) -0.2973(4)
C7 C -0.0922(5) -0.3807(4) -0.2521(4)
C8 C -0.1154(5) -0.3770(4) -0.1093(4)
C9 C -0.2412(5) -0.4625(4) -0.0481(4)
C10 C -0.3227(5) -0.4949(4) -0.1464(4)
N1 N -0.1960(4) -0.5842(3) -0.2335(3)
C11 C -0.2412(5) -0.6549(4) -0.3291(4)
C12 C -0.2590(5) -0.5809(4) -0.4501(4)
C13 C -0.3973(6) -0.7055(5) -0.2656(4)
C14 C -0.1084(6) -0.7715(5) -0.3658(5)
N2 N -0.0573(4) -0.5174(3) -0.2918(3)
C15 C 0.0861(5) -0.5886(5) -0.2555(4)
N3 N -0.4482(4) -0.1400(3) -0.3411(3)
C16 C -0.4319(5) -0.1919(4) -0.4648(4)
N4 N -0.5786(4) -0.1930(3) -0.2480(3)
C17 C -0.7274(5) -0.0918(4) -0.2109(4)
C18 C -0.7028(5) 0.0422(4) -0.1812(4)
C19 C -0.8447(5) -0.1438(5) -0.1002(5)
C20 C -0.8047(5) -0.0762(4) -0.3229(5)
H1 H -0.4358 -0.4091 -0.2755
H2 H -0.5983 -0.3019 -0.0902
H3 H -0.3860 -0.2277 -0.0253
H4 H -0.5282 -0.1148 -0.0248
H5 H -0.2285 -0.1075 -0.1507
H6 H -0.3773 -0.0193 -0.1791
H7 H -0.2125 -0.1333 -0.3594
H8 H -0.2240 -0.3470 -0.3818
H9 H -0.0033 -0.3383 -0.2928
H10 H -0.1487 -0.2908 -0.0777
H11 H -0.0160 -0.4121 -0.0885
H12 H -0.3178 -0.4158 0.0200
H13 H -0.1911 -0.5400 -0.0140
H14 H -0.4092 -0.5397 -0.1052
H15 H -0.1625 -0.5513 -0.4971
H16 H -0.2895 -0.6383 -0.5006
H17 H -0.3437 -0.5083 -0.4274
H18 H -0.4774 -0.6306 -0.2396
H19 H -0.4302 -0.7542 -0.3224
H20 H -0.3850 -0.7581 -0.1933
H21 H -0.0151 -0.7337 -0.4053
H22 H -0.0876 -0.8259 -0.2967
H23 H -0.1328 -0.8220 -0.4258
H24 H 0.1788 -0.5481 -0.2887
H25 H 0.0707 -0.6014 -0.1664
H26 H 0.1018 -0.6705 -0.2947
H27 H -0.3483 -0.1586 -0.5264
H28 H -0.4065 -0.2844 -0.4615
H29 H -0.5321 -0.1668 -0.4874
H30 H -0.6604 0.0448 -0.1094
H31 H -0.6297 0.0704 -0.2547
H32 H -0.8050 0.0981 -0.1682
H33 H -0.8029 -0.1522 -0.0271
H34 H -0.9470 -0.0877 -0.0822
H35 H -0.8578 -0.2271 -0.1226
H36 H -0.7315 -0.0406 -0.3916
H37 H -0.8177 -0.1596 -0.3451
H38 H -0.9069 -0.0202 -0.3048
loop_
_geom_bond_atom_site_label_1
_geom_bond_atom_site_label_2
_geom_bond_site_symmetry_1
_geom_bond_site_symmetry_2
C1 C2 1_555 1_555
C2 C3 1_555 1_555
C3 C4 1_555 1_555
C4 C5 1_555 1_555
C5 C6 1_555 1_555
C6 C1 1_555 1_555
C7 C6 1_555 1_555
C8 C7 1_555 1_555
C9 C8 1_555 1_555
C10 C1 1_555 1_555
N1 C10 1_555 1_555
C11 N1 1_555 1_555
C12 C11 1_555 1_555
C13 C11 1_555 1_555
C14 C11 1_555 1_555
N2 C7 1_555 1_555
C15 N2 1_555 1_555
N3 C5 1_555 1_555
C16 N3 1_555 1_555
N4 C2 1_555 1_555
C17 N4 1_555 1_555
C18 C17 1_555 1_555
C19 C17 1_555 1_555
C20 C17 1_555 1_555
H1 C1 1_555 1_555
H2 C2 1_555 1_555
H3 C3 1_555 1_555
H4 C3 1_555 1_555
H5 C4 1_555 1_555
H6 C4 1_555 1_555
H7 C5 1_555 1_555
H8 C6 1_555 1_555
H9 C7 1_555 1_555
H10 C8 1_555 1_555
H11 C8 1_555 1_555
H12 C9 1_555 1_555
H13 C9 1_555 1_555
H14 C10 1_555 1_555
H15 C12 1_555 1_555
H16 C12 1_555 1_555
H17 C12 1_555 1_555
H18 C13 1_555 1_555
H19 C13 1_555 1_555
H20 C13 1_555 1_555
H21 C14 1_555 1_555
H22 C14 1_555 1_555
H23 C14 1_555 1_555
H24 C15 1_555 1_555
H25 C15 1_555 1_555
H26 C15 1_555 1_555
H27 C16 1_555 1_555
H28 C16 1_555 1_555
H29 C16 1_555 1_555
H30 C18 1_555 1_555
H31 C18 1_555 1_555
H32 C18 1_555 1_555
H33 C19 1_555 1_555
H34 C19 1_555 1_555
H35 C19 1_555 1_555
H36 C20 1_555 1_555
H37 C20 1_555 1_555
H38 C20 1_555 1_555
C9 C10 1_555 1_555
N1 N2 1_555 1_555
N3 N4 1_555 1_555

#END
