
#######################################################################
#
#                 Cambridge Crystallographic Data Centre
#                                CCDC 
#
#######################################################################
#
# If this CIF has been generated from an entry in the Cambridge 
# Structural Database, then it will include bibliographic, chemical, 
# crystal, experimental, refinement or atomic coordinate data resulting 
# from the CCDC's data processing and validation procedures.
#
#######################################################################

data_KOHHUL
_chemical_compound_source        'roots of Oxytropis falcata Bunge'
_chemical_name_common            
(3R)-7-Hydroxy-3',4'-dimethoxyisoflavanquinone
_chemical_formula_moiety         'C17 H16 O6'
_chemical_name_systematic        
5-((3R)-7-hydroxy-3,4-dihydro-2H-chromen-3-yl)-2,3-dimethoxycyclohexa-2,5-diene-1,4-dione
_chemical_properties_biological  'in vitro antileishmanical activity'
_symmetry_cell_setting           orthorhombic
_symmetry_space_group_name_H-M   'P 21 21 21'
_symmetry_Int_Tables_number      19
_space_group_name_Hall           'P 2ac 2ab'
loop_
_symmetry_equiv_pos_site_id
_symmetry_equiv_pos_as_xyz
1 x,y,z
2 1/2-x,-y,1/2+z
3 -x,1/2+y,1/2-z
4 1/2+x,1/2-y,-z
_cell_length_a                   7.2614(10)
_cell_length_b                   13.1656(18)
_cell_length_c                   15.635(2)
_cell_angle_alpha                90
_cell_angle_beta                 90
_cell_angle_gamma                90
_cell_volume                     1494.72
_exptl_crystal_colour            red
_exptl_crystal_description       block
_cell_formula_units_Z            4
_exptl_crystal_recrystallization_method 'acetone/petroleum ether'
loop_
_atom_site_label
_atom_site_type_symbol
_atom_site_fract_x
_atom_site_fract_y
_atom_site_fract_z
C1 C 1.1031(3) 0.48231(14) 0.15821(15)
H1 H 1.1699 0.4936 0.1053
H2 H 1.1468 0.5311 0.2000
C2 C 0.8994(3) 0.49862(13) 0.14291(11)
H3 H 0.8343 0.4786 0.1952
C3 C 0.8377(3) 0.42707(14) 0.07159(12)
H4 H 0.7043 0.4249 0.0696
H5 H 0.8818 0.4522 0.0170
C4 C 0.8377(3) 0.23731(14) 0.04604(12)
H6 H 0.7422 0.2469 0.0072
C5 C 0.8997(3) 0.14026(14) 0.06087(12)
H7 H 0.8471 0.0855 0.0323
C6 C 1.0406(3) 0.12495(13) 0.11847(11)
C7 C 1.1192(3) 0.20693(14) 0.16002(11)
H8 H 1.2144 0.1969 0.1989
C8 C 1.0552(3) 0.30417(13) 0.14332(11)
C9 C 0.9121(3) 0.32167(13) 0.08687(11)
C10 C 0.8504(3) 0.60736(13) 0.12449(11)
C11 C 0.6555(3) 0.63742(14) 0.14176(12)
C12 C 0.6000(2) 0.74528(14) 0.13336(12)
C13 C 0.7222(3) 0.81534(14) 0.10681(12)
C14 C 0.9121(3) 0.78412(14) 0.08349(12)
C15 C 0.9657(3) 0.67757(14) 0.09423(12)
H9 H 1.0847 0.6582 0.0794
C16 C 0.3531(3) 0.76009(18) 0.23222(17)
H10 H 0.3662 0.6914 0.2519
H11 H 0.2256 0.7792 0.2341
H12 H 0.4233 0.8046 0.2683
C17 C 0.5596(4) 0.96755(16) 0.14578(16)
H13 H 0.4390 0.9468 0.1276
H14 H 0.5727 1.0395 0.1380
H15 H 0.5757 0.9511 0.2051
O1 O 1.1389(2) 0.38128(10) 0.18851(9)
O2 O 1.1100(2) 0.03070(10) 0.13706(9)
H16 H 1.0566 -0.0122 0.1082
O3 O 0.5415(2) 0.57365(11) 0.16215(10)
O4 O 0.41927(18) 0.76759(11) 0.14560(10)
O5 O 0.6957(2) 0.91574(10) 0.09603(10)
O6 O 1.0229(2) 0.84699(10) 0.05720(9)
loop_
_geom_bond_atom_site_label_1
_geom_bond_atom_site_label_2
_geom_bond_site_symmetry_1
_geom_bond_site_symmetry_2
C1 H1 1_555 1_555
H2 C1 1_555 1_555
C2 C1 1_555 1_555
H3 C2 1_555 1_555
C3 C2 1_555 1_555
H4 C3 1_555 1_555
H5 C3 1_555 1_555
C4 H6 1_555 1_555
C5 C4 1_555 1_555
H7 C5 1_555 1_555
C6 C5 1_555 1_555
C7 C6 1_555 1_555
H8 C7 1_555 1_555
C8 C7 1_555 1_555
C9 C3 1_555 1_555
C10 C2 1_555 1_555
C11 C10 1_555 1_555
C12 C11 1_555 1_555
C13 C12 1_555 1_555
C14 C13 1_555 1_555
C15 C10 1_555 1_555
H9 C15 1_555 1_555
C16 H10 1_555 1_555
H11 C16 1_555 1_555
H12 C16 1_555 1_555
C17 H13 1_555 1_555
H14 C17 1_555 1_555
H15 C17 1_555 1_555
O1 C1 1_555 1_555
O2 C6 1_555 1_555
H16 O2 1_555 1_555
O3 C11 1_555 1_555
O4 C12 1_555 1_555
O5 C13 1_555 1_555
O6 C14 1_555 1_555
C4 C9 1_555 1_555
C8 C9 1_555 1_555
C8 O1 1_555 1_555
C14 C15 1_555 1_555
C16 O4 1_555 1_555
C17 O5 1_555 1_555

#END
