
#######################################################################
#
#                 Cambridge Crystallographic Data Centre
#                                CCDC 
#
#######################################################################
#
# If this CIF has been generated from an entry in the Cambridge 
# Structural Database, then it will include bibliographic, chemical, 
# crystal, experimental, refinement or atomic coordinate data resulting 
# from the CCDC's data processing and validation procedures.
#
#######################################################################

data_KOHJUN
_chemical_formula_moiety         'C16 H13 Li1 O6'
_chemical_name_systematic        
((2'-(Carboxymethoxy)biphenyl-2-yl)oxy)acetato-lithium
_symmetry_cell_setting           monoclinic
_symmetry_space_group_name_H-M   'P 21/c'
_symmetry_Int_Tables_number      14
_space_group_name_Hall           '-P 2ybc'
loop_
_symmetry_equiv_pos_site_id
_symmetry_equiv_pos_as_xyz
1 x,y,z
2 -x,1/2+y,1/2-z
3 -x,-y,-z
4 x,1/2-y,1/2+z
_cell_length_a                   13.970(11)
_cell_length_b                   7.098(6)
_cell_length_c                   16.097(12)
_cell_angle_alpha                90
_cell_angle_beta                 103.910(9)
_cell_angle_gamma                90
_cell_volume                     1549.36
_exptl_crystal_colour            colorless
_exptl_crystal_description       block
_cell_formula_units_Z            4
loop_
_atom_site_label
_atom_site_type_symbol
_atom_site_fract_x
_atom_site_fract_y
_atom_site_fract_z
Li1 Li 0.3223(6) 0.5601(11) 0.3084(8)
O1 O 0.2480(3) 0.4096(5) 0.4596(2)
O2 O 0.3782(3) 0.5619(6) 0.4372(2)
O3 O 0.3147(2) 0.4415(4) 0.6279(2)
O4 O 0.2799(13) 0.996(4) 0.606(4)
O6 O 0.1484(2) 1.1360(4) 0.5240(2)
H1 H 0.1899 1.2079 0.5136
O7 O 0.16726(19) 0.7126(4) 0.64001(18)
C1 C 0.3434(3) 0.4588(5) 0.7155(3)
C2 C 0.4408(3) 0.4777(7) 0.7611(4)
H2 H 0.4909 0.4853 0.7323
C3 C 0.4630(4) 0.4853(8) 0.8493(4)
H3 H 0.5284 0.4986 0.8796
C4 C 0.3918(5) 0.4739(8) 0.8919(4)
H4 H 0.4079 0.4770 0.9514
C5 C 0.2946(4) 0.4575(7) 0.8474(3)
H5 H 0.2457 0.4508 0.8776
C6 C 0.2682(3) 0.4507(5) 0.7586(3)
C7 C 0.1629(3) 0.4274(5) 0.7129(2)
C8 C 0.1094(3) 0.2757(6) 0.7318(3)
H6 H 0.1408 0.1875 0.7719
C9 C 0.0112(3) 0.2517(6) 0.6929(3)
H7 H -0.0230 0.1488 0.7070
C10 C -0.0359(3) 0.3791(6) 0.6337(3)
H8 H -0.1020 0.3618 0.6065
C11 C 0.0145(3) 0.5344(6) 0.6140(3)
H9 H -0.0180 0.6220 0.5741
C12 C 0.1128(3) 0.5592(5) 0.6533(2)
C13 C 0.3280(3) 0.4852(7) 0.4882(3)
C14 C 0.3789(3) 0.4978(8) 0.5793(3)
H10 H 0.4367 0.4173 0.5912
H11 H 0.4002 0.6264 0.5936
C15 C 0.1927(3) 0.9970(6) 0.5727(3)
C16 C 0.1198(3) 0.8536(6) 0.5840(3)
H12 H 0.0691 0.9126 0.6070
H13 H 0.0886 0.7985 0.5290
O5? O 0.272(6) 0.965(14) 0.576(10)
loop_
_geom_bond_atom_site_label_1
_geom_bond_atom_site_label_2
_geom_bond_site_symmetry_1
_geom_bond_site_symmetry_2
Li1 O2 1_555 1_555
O1 C13 1_555 1_555
O2 C13 1_555 1_555
O3 C1 1_555 1_555
O4 C15 1_555 1_555
O6 H1 1_555 1_555
O7 C12 1_555 1_555
C1 C2 1_555 1_555
C2 H2 1_555 1_555
C3 C2 1_555 1_555
H3 C3 1_555 1_555
C4 C3 1_555 1_555
H4 C4 1_555 1_555
C5 C4 1_555 1_555
H5 C5 1_555 1_555
C6 C1 1_555 1_555
C7 C6 1_555 1_555
C8 C7 1_555 1_555
H6 C8 1_555 1_555
C9 C8 1_555 1_555
H7 C9 1_555 1_555
C10 C9 1_555 1_555
H8 C10 1_555 1_555
C11 C10 1_555 1_555
H9 C11 1_555 1_555
C12 C7 1_555 1_555
C13 C14 1_555 1_555
C14 O3 1_555 1_555
H10 C14 1_555 1_555
H11 C14 1_555 1_555
C15 O6 1_555 1_555
C16 O7 1_555 1_555
H12 C16 1_555 1_555
H13 C16 1_555 1_555
C5 C6 1_555 1_555
C11 C12 1_555 1_555
C15 C16 1_555 1_555

#END
