
#######################################################################
#
#                 Cambridge Crystallographic Data Centre
#                                CCDC 
#
#######################################################################
#
# If this CIF has been generated from an entry in the Cambridge 
# Structural Database, then it will include bibliographic, chemical, 
# crystal, experimental, refinement or atomic coordinate data resulting 
# from the CCDC's data processing and validation procedures.
#
#######################################################################

data_KOJHOH
_chemical_formula_moiety         'C19 H24 O8'
_chemical_name_systematic        
1\b,10\a:4\a,5\b-Diepoxy-6\b,8\b-diacetoxyglechomanolide
_symmetry_cell_setting           orthorhombic
_symmetry_space_group_name_H-M   'P 21 21 21'
_symmetry_Int_Tables_number      19
_space_group_name_Hall           'P 2ac 2ab'
loop_
_symmetry_equiv_pos_site_id
_symmetry_equiv_pos_as_xyz
1 x,y,z
2 1/2-x,-y,1/2+z
3 -x,1/2+y,1/2-z
4 1/2+x,1/2-y,-z
_cell_length_a                   10.3816(11)
_cell_length_b                   13.3972(14)
_cell_length_c                   13.6007(14)
_cell_angle_alpha                90
_cell_angle_beta                 90
_cell_angle_gamma                90
_cell_volume                     1891.64
_exptl_crystal_colour            colorless
_exptl_crystal_description       prismatic
_chemical_melting_point          '218-219 deg.C'
_cell_formula_units_Z            4
_exptl_crystal_recrystallization_method methanol
loop_
_atom_site_label
_atom_site_type_symbol
_atom_site_fract_x
_atom_site_fract_y
_atom_site_fract_z
O1 O 0.43412(16) 0.03180(13) 0.73657(13)
O2 O 0.81900(15) 0.23972(11) 0.91287(12)
O3 O 0.7847(2) -0.26668(12) 0.9881(2)
O4 O 0.60844(15) -0.17251(10) 0.99003(15)
O5 O 0.64394(13) 0.13625(11) 1.07303(10)
O6 O 0.78857(19) 0.13967(18) 1.19422(15)
O7 O 0.48065(14) -0.04330(12) 1.04737(12)
O8 O 0.59850(19) -0.06875(16) 1.18397(15)
C1 C 0.5474(2) 0.08851(17) 0.76016(17)
C2 C 0.5473(2) 0.19827(18) 0.7346(2)
H1 H 0.4736 0.2302 0.7652
H2 H 0.5392 0.2060 0.6640
C3 C 0.6711(2) 0.24938(18) 0.76952(18)
H3 H 0.7446 0.2192 0.7370
H4 H 0.6686 0.3194 0.7516
C4 C 0.6868(2) 0.24000(15) 0.87895(17)
C5 C 0.74946(18) 0.14674(15) 0.91217(17)
C6 C 0.73728(19) 0.09189(14) 1.00844(17)
C7 C 0.70915(18) -0.01789(14) 0.99443(16)
C8 C 0.5792(2) -0.06761(14) 0.97999(18)
C9 C 0.5176(2) -0.05883(15) 0.87797(18)
H5 H 0.5790 -0.0852 0.8309
H6 H 0.4436 -0.1031 0.8771
C10 C 0.4728(2) 0.04137(17) 0.83923(17)
C11 C 0.8002(2) -0.08709(15) 0.98992(17)
C12 C 0.7375(2) -0.18578(16) 0.9878(2)
C13 C 0.9436(2) -0.07582(19) 0.9900(2)
H7 H 0.9699 -0.0402 1.0478
H8 H 0.9699 -0.0394 0.9326
H9 H 0.9831 -0.1406 0.9896
C14 C 0.3778(2) 0.09762(19) 0.9006(2)
H10 H 0.3079 0.0543 0.9182
H11 H 0.3452 0.1533 0.8637
H12 H 0.4194 0.1214 0.9591
C15 C 0.5987(3) 0.30447(17) 0.9386(2)
H13 H 0.6029 0.3719 0.9148
H14 H 0.6248 0.3027 1.0063
H15 H 0.5121 0.2802 0.9329
C16 C 0.6835(2) 0.15739(17) 1.16505(17)
C17 C 0.5807(3) 0.2047(3) 1.2236(2)
H16 H 0.6185 0.2417 1.2768
H17 H 0.5247 0.1542 1.2496
H18 H 0.5321 0.2492 1.1826
C18 C 0.4983(2) -0.04847(18) 1.14539(19)
C19 C 0.3755(3) -0.0243(3) 1.1964(2)
H19 H 0.3893 -0.0243 1.2662
H20 H 0.3117 -0.0735 1.1799
H21 H 0.3462 0.0404 1.1759
H22 H 0.821(2) 0.0941(15) 1.0382(15)
H23 H 0.778(2) 0.0983(16) 0.8581(16)
H24 H 0.628(2) 0.0592(17) 0.7409(16)
loop_
_geom_bond_atom_site_label_1
_geom_bond_atom_site_label_2
_geom_bond_site_symmetry_1
_geom_bond_site_symmetry_2
O1 C1 1_555 1_555
O2 C4 1_555 1_555
O3 C12 1_555 1_555
O4 C8 1_555 1_555
O5 C6 1_555 1_555
O6 C16 1_555 1_555
O7 C8 1_555 1_555
O8 C18 1_555 1_555
C1 C2 1_555 1_555
C2 H1 1_555 1_555
H2 C2 1_555 1_555
C3 C2 1_555 1_555
H3 C3 1_555 1_555
H4 C3 1_555 1_555
C4 C3 1_555 1_555
C5 O2 1_555 1_555
C6 C5 1_555 1_555
C7 C6 1_555 1_555
C8 C7 1_555 1_555
C9 C8 1_555 1_555
H5 C9 1_555 1_555
H6 C9 1_555 1_555
C10 O1 1_555 1_555
C11 C7 1_555 1_555
C12 O4 1_555 1_555
C13 C11 1_555 1_555
H7 C13 1_555 1_555
H8 C13 1_555 1_555
H9 C13 1_555 1_555
C14 C10 1_555 1_555
H10 C14 1_555 1_555
H11 C14 1_555 1_555
H12 C14 1_555 1_555
C15 C4 1_555 1_555
H13 C15 1_555 1_555
H14 C15 1_555 1_555
H15 C15 1_555 1_555
C16 O5 1_555 1_555
C17 C16 1_555 1_555
H16 C17 1_555 1_555
H17 C17 1_555 1_555
H18 C17 1_555 1_555
C18 O7 1_555 1_555
C19 C18 1_555 1_555
H19 C19 1_555 1_555
H20 C19 1_555 1_555
H21 C19 1_555 1_555
H22 C6 1_555 1_555
H23 C5 1_555 1_555
H24 C1 1_555 1_555
C1 C10 1_555 1_555
C4 C5 1_555 1_555
C9 C10 1_555 1_555
C11 C12 1_555 1_555

#END
