
#######################################################################
#
#                 Cambridge Crystallographic Data Centre
#                                CCDC 
#
#######################################################################
#
# If this CIF has been generated from an entry in the Cambridge 
# Structural Database, then it will include bibliographic, chemical, 
# crystal, experimental, refinement or atomic coordinate data resulting 
# from the CCDC's data processing and validation procedures.
#
#######################################################################

data_KOKMUT
_chemical_formula_moiety         'C32 H18 O2 S4'
_chemical_name_systematic        
3,3'-bis(5-(2-Thienyl)-2-thienyl)-1,1'-bi(isobenzofuran)
_symmetry_cell_setting           monoclinic
_symmetry_space_group_name_H-M   'P 21/c'
_symmetry_Int_Tables_number      14
_space_group_name_Hall           '-P 2ybc'
loop_
_symmetry_equiv_pos_site_id
_symmetry_equiv_pos_as_xyz
1 x,y,z
2 -x,1/2+y,1/2-z
3 -x,-y,-z
4 x,1/2-y,1/2+z
_cell_length_a                   9.842(5)
_cell_length_b                   5.413(3)
_cell_length_c                   22.998(11)
_cell_angle_alpha                90
_cell_angle_beta                 92.559(6)
_cell_angle_gamma                90
_cell_volume                     1223.99
_exptl_crystal_colour            red
_exptl_crystal_description       needle
_chemical_melting_point          '295-297 deg.C'
_cell_formula_units_Z            2
loop_
_atom_site_label
_atom_site_type_symbol
_atom_site_fract_x
_atom_site_fract_y
_atom_site_fract_z
O1 O 0.0465(4) 0.3329(8) 0.06583(19)
C1 C -0.0251(6) 0.4004(12) 0.0157(3)
C2 C -0.1353(6) 0.2360(12) 0.0069(3)
C3 C -0.1281(6) 0.0663(12) 0.0543(3)
C4 C -0.0150(6) 0.1317(12) 0.0895(3)
C5 C -0.2271(7) -0.1252(12) 0.0573(3)
H1 H -0.2240 -0.2403 0.0885
C6 C -0.3266(6) -0.1382(13) 0.0140(3)
H2 H -0.3932 -0.2648 0.0152
C7 C -0.3328(7) 0.0335(13) -0.0331(3)
H3 H -0.4039 0.0175 -0.0622
C8 C -0.2417(6) 0.2181(12) -0.0380(3)
H4 H -0.2475 0.3309 -0.0697
C9 C 0.0478(6) 0.0375(12) 0.1425(3)
C10 C 0.0168(6) -0.1681(12) 0.1745(3)
H5 H -0.0550 -0.2794 0.1643
C11 C 0.1043(7) -0.1935(12) 0.2240(3)
H6 H 0.0967 -0.3262 0.2507
C12 C 0.2011(6) -0.0145(12) 0.2312(3)
S1 S 0.18663(16) 0.1961(3) 0.17407(7)
C13 C 0.3069(7) 0.0173(12) 0.2766(3)
C14 C 0.4072(6) 0.2026(11) 0.2801(2)
H7 H 0.4156 0.3322 0.2526
C15 C 0.4967(7) 0.1681(13) 0.3320(3)
H8 H 0.5710 0.2735 0.3423
C16 C 0.4612(7) -0.0325(14) 0.3636(3)
H9 H 0.5089 -0.0825 0.3985
S2 S 0.32307(18) -0.1846(3) 0.33458(8)
O1B O -0.0465(4) 0.6671(8) -0.06583(19)
C1B C 0.0251(6) 0.5996(12) -0.0157(3)
C2B C 0.1353(6) 0.7640(12) -0.0069(3)
C3B C 0.1281(6) 0.9337(12) -0.0543(3)
C4B C 0.0150(6) 0.8683(12) -0.0895(3)
C5B C 0.2271(7) 1.1252(12) -0.0573(3)
H1B H 0.2240 1.2403 -0.0885
C6B C 0.3266(6) 1.1382(13) -0.0140(3)
H2B H 0.3932 1.2648 -0.0152
C7B C 0.3328(7) 0.9665(13) 0.0331(3)
H3B H 0.4039 0.9825 0.0622
C8B C 0.2417(6) 0.7819(12) 0.0380(3)
H4B H 0.2475 0.6691 0.0697
C9B C -0.0478(6) 0.9625(12) -0.1425(3)
C10B C -0.0168(6) 1.1681(12) -0.1745(3)
H5B H 0.0550 1.2794 -0.1643
C11B C -0.1043(7) 1.1935(12) -0.2240(3)
H6B H -0.0967 1.3262 -0.2507
C12B C -0.2011(6) 1.0145(12) -0.2312(3)
S1B S -0.18663(16) 0.8039(3) -0.17407(7)
C13B C -0.3069(7) 0.9827(12) -0.2766(3)
C14B C -0.4072(6) 0.7974(11) -0.2801(2)
H7B H -0.4156 0.6678 -0.2526
C15B C -0.4967(7) 0.8319(13) -0.3320(3)
H8B H -0.5710 0.7265 -0.3423
C16B C -0.4612(7) 1.0325(14) -0.3636(3)
H9B H -0.5089 1.0825 -0.3985
S2B S -0.32307(18) 1.1846(3) -0.33458(8)
loop_
_geom_bond_atom_site_label_1
_geom_bond_atom_site_label_2
_geom_bond_site_symmetry_1
_geom_bond_site_symmetry_2
O1 C1 1_555 1_555
C1 C2 1_555 1_555
C2 C3 1_555 1_555
C3 C4 1_555 1_555
C4 O1 1_555 1_555
C5 C3 1_555 1_555
H1 C5 1_555 1_555
C6 C5 1_555 1_555
H2 C6 1_555 1_555
C7 C6 1_555 1_555
H3 C7 1_555 1_555
C8 C2 1_555 1_555
H4 C8 1_555 1_555
C9 C4 1_555 1_555
C10 C9 1_555 1_555
H5 C10 1_555 1_555
C11 C10 1_555 1_555
H6 C11 1_555 1_555
C12 C11 1_555 1_555
S1 C9 1_555 1_555
C13 C12 1_555 1_555
C14 C13 1_555 1_555
H7 C14 1_555 1_555
C15 C14 1_555 1_555
H8 C15 1_555 1_555
C16 C15 1_555 1_555
H9 C16 1_555 1_555
S2 C13 1_555 1_555
O1B C1B 1_555 1_555
C1B C1 1_555 1_555
C2B C1B 1_555 1_555
C3B C2B 1_555 1_555
C4B O1B 1_555 1_555
C5B C3B 1_555 1_555
H1B C5B 1_555 1_555
C6B C5B 1_555 1_555
H2B C6B 1_555 1_555
C7B C6B 1_555 1_555
H3B C7B 1_555 1_555
C8B C2B 1_555 1_555
H4B C8B 1_555 1_555
C9B C4B 1_555 1_555
C10B C9B 1_555 1_555
H5B C10B 1_555 1_555
C11B C10B 1_555 1_555
H6B C11B 1_555 1_555
C12B C11B 1_555 1_555
S1B C9B 1_555 1_555
C13B C12B 1_555 1_555
C14B C13B 1_555 1_555
H7B C14B 1_555 1_555
C15B C14B 1_555 1_555
H8B C15B 1_555 1_555
C16B C15B 1_555 1_555
H9B C16B 1_555 1_555
S2B C13B 1_555 1_555
C7 C8 1_555 1_555
C12 S1 1_555 1_555
C16 S2 1_555 1_555
C3B C4B 1_555 1_555
C7B C8B 1_555 1_555
C12B S1B 1_555 1_555
C16B S2B 1_555 1_555

#END
