
#######################################################################
#
#                 Cambridge Crystallographic Data Centre
#                                CCDC 
#
#######################################################################
#
# If this CIF has been generated from an entry in the Cambridge 
# Structural Database, then it will include bibliographic, chemical, 
# crystal, experimental, refinement or atomic coordinate data resulting 
# from the CCDC's data processing and validation procedures.
#
#######################################################################

data_KOKQUY
_chemical_formula_moiety         'C8 H16 B10'
_chemical_name_systematic        
1,3-(hexa-1,3,5-triene-1,6-diyl)-1,2-dicarba-closo-dodecaborane
_symmetry_cell_setting           monoclinic
_symmetry_space_group_name_H-M   'P 21/n'
_symmetry_Int_Tables_number      14
_space_group_name_Hall           '-P 2yn'
loop_
_symmetry_equiv_pos_site_id
_symmetry_equiv_pos_as_xyz
1 x,y,z
2 1/2-x,1/2+y,1/2-z
3 -x,-y,-z
4 1/2+x,1/2-y,1/2+z
_cell_length_a                   7.0193(8)
_cell_length_b                   11.9982(14)
_cell_length_c                   15.5270(19)
_cell_angle_alpha                90
_cell_angle_beta                 90.963(2)
_cell_angle_gamma                90
_cell_volume                     1307.48
_exptl_crystal_colour            colorless
_exptl_crystal_description       block
_cell_formula_units_Z            4
loop_
_atom_site_label
_atom_site_type_symbol
_atom_site_fract_x
_atom_site_fract_y
_atom_site_fract_z
C1 C -0.1015(3) 0.91477(17) 0.29576(13)
C2 C 0.0538(3) 0.81650(15) 0.26673(11)
H1 H 0.0520 0.7353 0.2995
C3 C -0.2458(3) 0.8947(2) 0.36562(14)
H2 H -0.3460 0.9454 0.3665
C4 C -0.2517(4) 0.8163(2) 0.42573(15)
H3 H -0.3595 0.8180 0.4598
C5 C -0.1165(4) 0.7280(2) 0.44699(14)
H4 H -0.1640 0.6557 0.4454
C6 C 0.0653(4) 0.7384(2) 0.46825(14)
H5 H 0.1305 0.6725 0.4800
C7 C 0.1764(4) 0.8409(2) 0.47553(15)
H6 H 0.2365 0.8524 0.5286
C8 C 0.2042(3) 0.9204(2) 0.41711(14)
H7 H 0.2755 0.9809 0.4366
B1 B -0.1312(4) 0.8469(2) 0.19678(15)
H8 H -0.2521 0.7914 0.1820
B2 B -0.1572(4) 0.9933(2) 0.20488(17)
H9 H -0.2960 1.0342 0.1947
B3 B 0.0090(4) 1.04245(19) 0.28324(16)
H10 H -0.0216 1.1151 0.3240
B4 B 0.1363(3) 0.92756(16) 0.32207(13)
B5 B 0.1024(4) 0.8186(2) 0.15948(14)
H11 H 0.1324 0.7447 0.1201
B6 B -0.0282(4) 0.9338(2) 0.11860(16)
H12 H -0.0828 0.9358 0.0518
B7 B 0.0585(4) 1.0553(2) 0.17119(17)
H13 H 0.0604 1.1366 0.1384
B8 B 0.2409(3) 1.01451(19) 0.24566(15)
H14 H 0.3618 1.0694 0.2618
B9 B 0.2689(3) 0.8679(2) 0.23809(14)
H15 H 0.4063 0.8261 0.2497
B10 B 0.2202(4) 0.9474(2) 0.14368(15)
H16 H 0.3272 0.9585 0.0935
loop_
_geom_bond_atom_site_label_1
_geom_bond_atom_site_label_2
_geom_bond_site_symmetry_1
_geom_bond_site_symmetry_2
C1 C2 1_555 1_555
C2 H1 1_555 1_555
C3 C1 1_555 1_555
H2 C3 1_555 1_555
C4 C3 1_555 1_555
H3 C4 1_555 1_555
C5 C4 1_555 1_555
H4 C5 1_555 1_555
C6 C5 1_555 1_555
H5 C6 1_555 1_555
C7 C6 1_555 1_555
H6 C7 1_555 1_555
C8 C7 1_555 1_555
H7 C8 1_555 1_555
B1 C1 1_555 1_555
H8 B1 1_555 1_555
B2 C1 1_555 1_555
H9 B2 1_555 1_555
B3 C1 1_555 1_555
H10 B3 1_555 1_555
B4 C1 1_555 1_555
B5 C2 1_555 1_555
H11 B5 1_555 1_555
B6 B1 1_555 1_555
H12 B6 1_555 1_555
B7 B2 1_555 1_555
H13 B7 1_555 1_555
B8 B3 1_555 1_555
H14 B8 1_555 1_555
B9 C2 1_555 1_555
H15 B9 1_555 1_555
B10 B5 1_555 1_555
H16 B10 1_555 1_555
C2 B1 1_555 1_555
C2 B4 1_555 1_555
C8 B4 1_555 1_555
B1 B2 1_555 1_555
B1 B5 1_555 1_555
B2 B3 1_555 1_555
B2 B6 1_555 1_555
B3 B4 1_555 1_555
B3 B7 1_555 1_555
B4 B8 1_555 1_555
B4 B9 1_555 1_555
B5 B6 1_555 1_555
B5 B9 1_555 1_555
B6 B7 1_555 1_555
B6 B10 1_555 1_555
B7 B8 1_555 1_555
B7 B10 1_555 1_555
B8 B9 1_555 1_555
B8 B10 1_555 1_555
B9 B10 1_555 1_555

#END
