
#######################################################################
#
#                 Cambridge Crystallographic Data Centre
#                                CCDC 
#
#######################################################################
#
# If this CIF has been generated from an entry in the Cambridge 
# Structural Database, then it will include bibliographic, chemical, 
# crystal, experimental, refinement or atomic coordinate data resulting 
# from the CCDC's data processing and validation procedures.
#
#######################################################################

data_KOLBOE
_chemical_formula_moiety         'C20 H26 B10'
_chemical_name_systematic        
1,2-(2-(diphenylmethylene)cyclopentane-1,3-diyl)-1,2-dicarba-closo-dodecaborane
_symmetry_cell_setting           monoclinic
_symmetry_space_group_name_H-M   'P 21/n'
_symmetry_Int_Tables_number      14
_space_group_name_Hall           '-P 2yn'
loop_
_symmetry_equiv_pos_site_id
_symmetry_equiv_pos_as_xyz
1 x,y,z
2 1/2-x,1/2+y,1/2-z
3 -x,-y,-z
4 1/2+x,1/2-y,1/2+z
_cell_length_a                   8.1491(9)
_cell_length_b                   27.789(3)
_cell_length_c                   9.6277(11)
_cell_angle_alpha                90
_cell_angle_beta                 95.746(3)
_cell_angle_gamma                90
_cell_volume                     2169.29
_cell_formula_units_Z            4
loop_
_atom_site_label
_atom_site_type_symbol
_atom_site_fract_x
_atom_site_fract_y
_atom_site_fract_z
B1 B 0.2518(3) 0.21191(8) -0.1350(2)
H1 H 0.1865 0.2385 -0.0764
B2 B 0.4492(3) 0.22395(8) -0.1829(2)
H2 H 0.5139 0.2577 -0.1534
B3 B 0.5592(3) 0.16887(8) -0.1910(2)
H3 H 0.6940 0.1676 -0.1671
B4 B 0.4324(2) 0.12156(7) -0.1461(2)
H4 H 0.4857 0.0891 -0.0941
B5 B 0.1432(3) 0.17325(9) -0.2550(2)
H5 H 0.0077 0.1739 -0.2727
B6 B 0.2724(3) 0.22037(9) -0.3092(2)
H6 H 0.2215 0.2523 -0.3658
B7 B 0.4613(3) 0.19469(8) -0.3467(2)
H7 H 0.5333 0.2101 -0.4267
B8 B 0.4487(3) 0.13177(8) -0.3208(2)
H8 H 0.5120 0.1063 -0.3847
B9 B 0.2532(3) 0.11840(8) -0.2624(2)
H9 H 0.1882 0.0842 -0.2849
B10 B 0.2721(3) 0.16351(9) -0.3906(2)
H10 H 0.2202 0.1585 -0.4996
C1 C 0.4220(2) 0.17829(6) -0.06853(18)
C2 C 0.2503(2) 0.14974(6) -0.10784(17)
C3 C 0.2029(2) 0.13400(7) 0.03832(19)
H11 H 0.1267 0.1067 0.0368
C4 C 0.1542(3) 0.17755(8) 0.1250(2)
H12 H 0.1076 0.1671 0.2088
H13 H 0.0747 0.1978 0.0708
C5 C 0.3187(3) 0.20457(7) 0.1617(2)
H14 H 0.3461 0.2062 0.2620
H15 H 0.3132 0.2370 0.1240
C6 C 0.4463(2) 0.17385(6) 0.09219(18)
H16 H 0.5605 0.1778 0.1332
C7 C 0.3719(2) 0.12477(6) 0.11655(17)
C8 C 0.4323(2) 0.08831(6) 0.19590(16)
C9 C 0.3420(2) 0.04258(6) 0.21108(17)
C10 C 0.2657(2) 0.01777(7) 0.0975(2)
H17 H 0.2660 0.0307 0.0085
C11 C 0.1890(3) -0.02597(7) 0.1146(2)
H18 H 0.1387 -0.0422 0.0373
C12 C 0.1872(3) -0.04529(8) 0.2450(3)
H19 H 0.1359 -0.0747 0.2564
C13 C 0.2612(3) -0.02116(8) 0.3593(2)
H20 H 0.2594 -0.0342 0.4481
C14 C 0.3380(2) 0.02223(7) 0.3427(2)
H21 H 0.3881 0.0382 0.4206
C15 C 0.6043(2) 0.09003(6) 0.26513(17)
C16 C 0.7120(3) 0.05303(8) 0.2415(2)
H22 H 0.6735 0.0268 0.1877
C17 C 0.8750(3) 0.05422(10) 0.2959(2)
H23 H 0.9458 0.0294 0.2769
C18 C 0.9323(3) 0.09190(10) 0.3778(2)
H24 H 1.0423 0.0927 0.4144
C19 C 0.8285(3) 0.12831(9) 0.4059(2)
H25 H 0.8675 0.1537 0.4628
C20 C 0.6654(3) 0.12765(7) 0.35007(19)
H26 H 0.5957 0.1527 0.3697
loop_
_geom_bond_atom_site_label_1
_geom_bond_atom_site_label_2
_geom_bond_site_symmetry_1
_geom_bond_site_symmetry_2
B1 H1 1_555 1_555
B2 B1 1_555 1_555
H2 B2 1_555 1_555
B3 B2 1_555 1_555
H3 B3 1_555 1_555
B4 B3 1_555 1_555
H4 B4 1_555 1_555
B5 B1 1_555 1_555
H5 B5 1_555 1_555
B6 B1 1_555 1_555
H6 B6 1_555 1_555
B7 B2 1_555 1_555
H7 B7 1_555 1_555
B8 B3 1_555 1_555
H8 B8 1_555 1_555
B9 B4 1_555 1_555
H9 B9 1_555 1_555
B10 B5 1_555 1_555
H10 B10 1_555 1_555
C1 B1 1_555 1_555
C2 B1 1_555 1_555
C3 C2 1_555 1_555
H11 C3 1_555 1_555
C4 C3 1_555 1_555
H12 C4 1_555 1_555
H13 C4 1_555 1_555
C5 C4 1_555 1_555
H14 C5 1_555 1_555
H15 C5 1_555 1_555
C6 C1 1_555 1_555
H16 C6 1_555 1_555
C7 C3 1_555 1_555
C8 C7 1_555 1_555
C9 C8 1_555 1_555
C10 C9 1_555 1_555
H17 C10 1_555 1_555
C11 C10 1_555 1_555
H18 C11 1_555 1_555
C12 C11 1_555 1_555
H19 C12 1_555 1_555
C13 C12 1_555 1_555
H20 C13 1_555 1_555
C14 C9 1_555 1_555
H21 C14 1_555 1_555
C15 C8 1_555 1_555
C16 C15 1_555 1_555
H22 C16 1_555 1_555
C17 C16 1_555 1_555
H23 C17 1_555 1_555
C18 C17 1_555 1_555
H24 C18 1_555 1_555
C19 C18 1_555 1_555
H25 C19 1_555 1_555
C20 C15 1_555 1_555
H26 C20 1_555 1_555
B2 B6 1_555 1_555
B2 C1 1_555 1_555
B3 B7 1_555 1_555
B3 C1 1_555 1_555
B4 B8 1_555 1_555
B4 C1 1_555 1_555
B4 C2 1_555 1_555
B5 B6 1_555 1_555
B5 B9 1_555 1_555
B5 C2 1_555 1_555
B6 B7 1_555 1_555
B6 B10 1_555 1_555
B7 B8 1_555 1_555
B7 B10 1_555 1_555
B8 B9 1_555 1_555
B8 B10 1_555 1_555
B9 B10 1_555 1_555
B9 C2 1_555 1_555
C1 C2 1_555 1_555
C5 C6 1_555 1_555
C6 C7 1_555 1_555
C13 C14 1_555 1_555
C19 C20 1_555 1_555

#END
