
#######################################################################
#
#                 Cambridge Crystallographic Data Centre
#                                CCDC 
#
#######################################################################
#
# If this CIF has been generated from an entry in the Cambridge 
# Structural Database, then it will include bibliographic, chemical, 
# crystal, experimental, refinement or atomic coordinate data resulting 
# from the CCDC's data processing and validation procedures.
#
#######################################################################

data_KOLCEV
_chemical_formula_moiety         'C28 H29 B10 N3 O2,C3 H6 O1'
_chemical_name_systematic        
'1,2-(6-(diphenylmethylene)-2-phenyl-1,3-dioxotetrahydro-1H,4aH-cyclopenta[3,4][1,2]diazeto[1,2-a][1,2,4]triazole-5,7-diyl)-1,2-dicarba-closo-dodecaborane acetone solvate'
_symmetry_cell_setting           monoclinic
_symmetry_space_group_name_H-M   'P 21/c'
_symmetry_Int_Tables_number      14
_space_group_name_Hall           '-P 2ybc'
loop_
_symmetry_equiv_pos_site_id
_symmetry_equiv_pos_as_xyz
1 x,y,z
2 -x,1/2+y,1/2-z
3 -x,-y,-z
4 x,1/2-y,1/2+z
_cell_length_a                   15.068(7)
_cell_length_b                   11.464(5)
_cell_length_c                   20.184(9)
_cell_angle_alpha                90
_cell_angle_beta                 103.686(9)
_cell_angle_gamma                90
_cell_volume                     3387.58
_cell_formula_units_Z            4
loop_
_atom_site_label
_atom_site_type_symbol
_atom_site_fract_x
_atom_site_fract_y
_atom_site_fract_z
B1 B 0.3997(2) 0.4142(3) 0.12377(16)
H1 H 0.4378 0.4512 0.0885
B2 B 0.4397(2) 0.4318(3) 0.21234(17)
H2 H 0.5024 0.4808 0.2345
B3 B 0.3440(2) 0.4364(3) 0.24951(17)
H3 H 0.3456 0.4893 0.2952
B4 B 0.2435(2) 0.4190(3) 0.18594(15)
H4 H 0.1791 0.4587 0.1915
B5 B 0.3376(2) 0.2835(3) 0.10548(18)
H5 H 0.3341 0.2357 0.0577
B6 B 0.4395(3) 0.2918(3) 0.17206(18)
H6 H 0.5029 0.2475 0.1684
B7 B 0.4071(3) 0.3050(3) 0.25078(19)
H7 H 0.4501 0.2702 0.2985
B8 B 0.2873(3) 0.2989(3) 0.23357(18)
H8 H 0.2527 0.2589 0.2702
B9 B 0.2426(2) 0.2875(3) 0.14215(17)
H9 H 0.1784 0.2429 0.1180
B10 B 0.3442(3) 0.2125(3) 0.18452(19)
H10 H 0.3459 0.1168 0.1889
C1 C 0.33701(17) 0.4945(2) 0.17022(12)
C2 C 0.28001(18) 0.4107(2) 0.10983(13)
C3 C 0.23468(18) 0.4993(2) 0.05390(13)
H11 H 0.2161 0.4674 0.0076
C4 C 0.15968(18) 0.5637(2) 0.07880(13)
H12 H 0.1121 0.5151 0.0905
C5 C 0.21353(17) 0.6457(2) 0.13627(13)
H13 H 0.1953 0.6428 0.1797
C6 C 0.31514(18) 0.6187(2) 0.13971(12)
H14 H 0.3586 0.6798 0.1600
C7 C 0.30576(18) 0.5966(2) 0.06337(13)
C8 C 0.34159(18) 0.6539(2) 0.01893(13)
C9 C 0.32381(19) 0.6184(2) -0.05390(13)
C10 C 0.3448(3) 0.5077(3) -0.07292(17)
H15 H 0.3675 0.4521 -0.0397
C11 C 0.3324(3) 0.4796(4) -0.1408(2)
H16 H 0.3484 0.4055 -0.1527
C12 C 0.2979(3) 0.5566(5) -0.19024(19)
H17 H 0.2891 0.5357 -0.2359
C13 C 0.2758(4) 0.6649(4) -0.17285(19)
H18 H 0.2513 0.7188 -0.2067
C14 C 0.2897(3) 0.6959(3) -0.10486(16)
H19 H 0.2754 0.7712 -0.0937
C15 C 0.40523(18) 0.7539(2) 0.03947(12)
C16 C 0.3844(2) 0.8490(2) 0.07555(14)
H20 H 0.3287 0.8512 0.0878
C17 C 0.4452(2) 0.9406(3) 0.09361(15)
H21 H 0.4301 1.0038 0.1177
C18 C 0.5275(2) 0.9383(3) 0.07610(15)
H22 H 0.5682 1.0001 0.0878
C19 C 0.5497(2) 0.8446(3) 0.04124(16)
H23 H 0.6064 0.8418 0.0305
C20 C 0.4890(2) 0.7547(3) 0.02204(14)
H24 H 0.5043 0.6930 -0.0031
C21 C 0.1143(2) 0.8229(3) 0.10977(15)
C22 C 0.0345(2) 0.7020(3) 0.02588(15)
C23 C -0.0512(2) 0.8667(2) 0.06049(17)
C24 C -0.0829(3) 0.8797(4) 0.1170(2)
H25 H -0.0503 0.8503 0.1586
C25 C -0.1657(3) 0.9384(5) 0.1120(3)
H26 H -0.1884 0.9479 0.1507
C26 C -0.2129(3) 0.9814(3) 0.0516(3)
H27 H -0.2677 1.0204 0.0490
C27 C -0.1803(3) 0.9677(3) -0.0060(3)
H28 H -0.2130 0.9971 -0.0476
C28 C -0.0997(2) 0.9108(3) -0.00168(19)
H29 H -0.0771 0.9014 -0.0404
N1 N 0.12762(14) 0.67275(18) 0.03825(10)
N2 N 0.17643(14) 0.74592(17) 0.09021(10)
N3 N 0.03160(15) 0.8038(2) 0.06271(12)
O1 O 0.13130(15) 0.89214(19) 0.15570(11)
O2 O -0.02867(15) 0.65139(19) -0.01011(12)
C29 C 0.9815(4) 0.5850(7) 0.2049(5)
C30 C 0.9497(6) 0.6197(8) 0.2645(5)
H30 H 0.9845 0.6856 0.2857
H31 H 0.9574 0.5561 0.2962
H32 H 0.8863 0.6405 0.2509
C31 C 0.9349(8) 0.4816(15) 0.1665(8)
H33 H 0.9796 0.4318 0.1542
H34 H 0.8922 0.5075 0.1260
H35 H 0.9030 0.4392 0.1947
O3 O 1.0425(3) 0.6295(4) 0.1891(3)
loop_
_geom_bond_atom_site_label_1
_geom_bond_atom_site_label_2
_geom_bond_site_symmetry_1
_geom_bond_site_symmetry_2
B1 H1 1_555 1_555
B2 B1 1_555 1_555
H2 B2 1_555 1_555
B3 B2 1_555 1_555
H3 B3 1_555 1_555
B4 B3 1_555 1_555
H4 B4 1_555 1_555
B5 B1 1_555 1_555
H5 B5 1_555 1_555
B6 B1 1_555 1_555
H6 B6 1_555 1_555
B7 B2 1_555 1_555
H7 B7 1_555 1_555
B8 B3 1_555 1_555
H8 B8 1_555 1_555
B9 B4 1_555 1_555
H9 B9 1_555 1_555
B10 B5 1_555 1_555
H10 B10 1_555 1_555
C1 B1 1_555 1_555
C2 B1 1_555 1_555
C3 C2 1_555 1_555
H11 C3 1_555 1_555
C4 C3 1_555 1_555
H12 C4 1_555 1_555
C5 C4 1_555 1_555
H13 C5 1_555 1_555
C6 C1 1_555 1_555
H14 C6 1_555 1_555
C7 C3 1_555 1_555
C8 C7 1_555 1_555
C9 C8 1_555 1_555
C10 C9 1_555 1_555
H15 C10 1_555 1_555
C11 C10 1_555 1_555
H16 C11 1_555 1_555
C12 C11 1_555 1_555
H17 C12 1_555 1_555
C13 C12 1_555 1_555
H18 C13 1_555 1_555
C14 C9 1_555 1_555
H19 C14 1_555 1_555
C15 C8 1_555 1_555
C16 C15 1_555 1_555
H20 C16 1_555 1_555
C17 C16 1_555 1_555
H21 C17 1_555 1_555
C18 C17 1_555 1_555
H22 C18 1_555 1_555
C19 C18 1_555 1_555
H23 C19 1_555 1_555
C20 C15 1_555 1_555
H24 C20 1_555 1_555
C21 N2 1_555 1_555
C22 N1 1_555 1_555
C23 C24 1_555 1_555
C24 H25 1_555 1_555
C25 C24 1_555 1_555
H26 C25 1_555 1_555
C26 C25 1_555 1_555
H27 C26 1_555 1_555
C27 C26 1_555 1_555
H28 C27 1_555 1_555
C28 C23 1_555 1_555
H29 C28 1_555 1_555
N1 C4 1_555 1_555
N2 C5 1_555 1_555
N3 C21 1_555 1_555
O1 C21 1_555 1_555
O2 C22 1_555 1_555
C29 C30 1_555 1_555
C30 H30 1_555 1_555
H31 C30 1_555 1_555
H32 C30 1_555 1_555
C31 C29 1_555 1_555
H33 C31 1_555 1_555
H34 C31 1_555 1_555
H35 C31 1_555 1_555
O3 C29 1_555 1_555
B2 B6 1_555 1_555
B2 C1 1_555 1_555
B3 B7 1_555 1_555
B3 C1 1_555 1_555
B4 B8 1_555 1_555
B4 C1 1_555 1_555
B4 C2 1_555 1_555
B5 B6 1_555 1_555
B5 B9 1_555 1_555
B5 C2 1_555 1_555
B6 B7 1_555 1_555
B6 B10 1_555 1_555
B7 B8 1_555 1_555
B7 B10 1_555 1_555
B8 B9 1_555 1_555
B8 B10 1_555 1_555
B9 B10 1_555 1_555
B9 C2 1_555 1_555
C1 C2 1_555 1_555
C5 C6 1_555 1_555
C6 C7 1_555 1_555
C13 C14 1_555 1_555
C19 C20 1_555 1_555
C22 N3 1_555 1_555
C23 N3 1_555 1_555
C27 C28 1_555 1_555
N1 N2 1_555 1_555

#END
