
#######################################################################
#
#                 Cambridge Crystallographic Data Centre
#                                CCDC 
#
#######################################################################
#
# If this CIF has been generated from an entry in the Cambridge 
# Structural Database, then it will include bibliographic, chemical, 
# crystal, experimental, refinement or atomic coordinate data resulting 
# from the CCDC's data processing and validation procedures.
#
#######################################################################

data_KOLKEC
_chemical_formula_moiety         'C6 H13 N2 1+,C5 H10 N1 O2 S2 1-'
_chemical_name_systematic        
'4-Aza-1-azoniabicyclo(2.2.2)octane N,N-bis(2-hydroxyethyl)dithiocarbamate'
_symmetry_cell_setting           triclinic
_symmetry_space_group_name_H-M   'P -1'
_symmetry_Int_Tables_number      2
_space_group_name_Hall           '-P 1'
loop_
_symmetry_equiv_pos_site_id
_symmetry_equiv_pos_as_xyz
1 x,y,z
2 -x,-y,-z
_cell_length_a                   7.7299(3)
_cell_length_b                   9.8682(4)
_cell_length_c                   10.1834(4)
_cell_angle_alpha                70.968(2)
_cell_angle_beta                 81.797(2)
_cell_angle_gamma                75.6620(18)
_cell_volume                     709.829
_exptl_crystal_colour            yellow
_exptl_crystal_description       slab
_chemical_melting_point          '130-132 deg.C'
_cell_formula_units_Z            2
loop_
_atom_site_label
_atom_site_type_symbol
_atom_site_fract_x
_atom_site_fract_y
_atom_site_fract_z
S1 S 0.81602(6) 0.21037(5) 0.45911(4)
S2 S 0.55152(5) 0.40285(5) 0.25289(4)
O1 O 1.36194(15) 0.16581(12) 0.22330(13)
H1 H 1.4362 0.2117 0.2309
O2 O 0.85040(16) 0.12687(12) -0.03340(12)
H2 H 0.9481 0.1345 -0.0803
N1 N 0.87721(17) 0.26504(14) 0.18500(13)
C1 C 0.7594(2) 0.28970(16) 0.29024(16)
C2 C 1.0571(2) 0.17022(17) 0.20985(16)
H4 H 1.0946 0.1201 0.1373
H5 H 1.0540 0.0942 0.3015
C3 C 1.1900(2) 0.26067(18) 0.20682(18)
H6 H 1.1896 0.3400 0.1172
H7 H 1.1579 0.3059 0.2831
C4 C 0.8422(2) 0.34385(17) 0.03841(16)
H8 H 0.9574 0.3585 -0.0145
H9 H 0.7662 0.4421 0.0327
C5 C 0.7517(2) 0.26799(18) -0.03128(17)
H10 H 0.6332 0.2585 0.0180
H11 H 0.7314 0.3306 -0.1283
N2 N 0.41867(18) 0.24538(14) 0.60033(14)
H3 H 0.5127 0.2597 0.5329
N3 N 0.16333(18) 0.20607(15) 0.78461(14)
C6 C 0.4873(2) 0.20858(19) 0.74106(17)
H12 H 0.5352 0.2905 0.7469
H13 H 0.5847 0.1194 0.7576
C7 C 0.3301(2) 0.1822(2) 0.85030(18)
H14 H 0.3581 0.0802 0.9132
H15 H 0.3137 0.2495 0.9071
C8 C 0.1256(3) 0.35645(19) 0.6883(2)
H16 H 0.1114 0.4273 0.7411
H17 H 0.0116 0.3741 0.6456
C9 C 0.2761(2) 0.38226(17) 0.57288(17)
H18 H 0.2296 0.4051 0.4807
H19 H 0.3249 0.4658 0.5735
C10 C 0.3466(2) 0.12062(18) 0.59321(17)
H20 H 0.4407 0.0293 0.6124
H21 H 0.3058 0.1419 0.4993
C11 C 0.1884(2) 0.10269(18) 0.70367(17)
H22 H 0.0776 0.1195 0.6570
H23 H 0.2105 0.0010 0.7675
loop_
_geom_bond_atom_site_label_1
_geom_bond_atom_site_label_2
_geom_bond_site_symmetry_1
_geom_bond_site_symmetry_2
S1 C1 1_555 1_555
S2 C1 1_555 1_555
O1 H1 1_555 1_555
O2 H2 1_555 1_555
N1 C1 1_555 1_555
N2 H3 1_555 1_555
N3 C7 1_555 1_555
C2 N1 1_555 1_555
H4 C2 1_555 1_555
H5 C2 1_555 1_555
C3 O1 1_555 1_555
H6 C3 1_555 1_555
H7 C3 1_555 1_555
C4 N1 1_555 1_555
H8 C4 1_555 1_555
H9 C4 1_555 1_555
C5 O2 1_555 1_555
H10 C5 1_555 1_555
H11 C5 1_555 1_555
C6 N2 1_555 1_555
H12 C6 1_555 1_555
H13 C6 1_555 1_555
C7 C6 1_555 1_555
H14 C7 1_555 1_555
H15 C7 1_555 1_555
C8 N3 1_555 1_555
H16 C8 1_555 1_555
H17 C8 1_555 1_555
C9 N2 1_555 1_555
H18 C9 1_555 1_555
H19 C9 1_555 1_555
C10 N2 1_555 1_555
H20 C10 1_555 1_555
H21 C10 1_555 1_555
C11 N3 1_555 1_555
H22 C11 1_555 1_555
H23 C11 1_555 1_555
C2 C3 1_555 1_555
C4 C5 1_555 1_555
C8 C9 1_555 1_555
C10 C11 1_555 1_555

#END
