
#######################################################################
#
#                 Cambridge Crystallographic Data Centre
#                                CCDC 
#
#######################################################################
#
# If this CIF has been generated from an entry in the Cambridge 
# Structural Database, then it will include bibliographic, chemical, 
# crystal, experimental, refinement or atomic coordinate data resulting 
# from the CCDC's data processing and validation procedures.
#
#######################################################################

data_KOLKON
_chemical_formula_moiety         'C30 H16 F4 S8'
_chemical_name_systematic        
2-(4,5-bis((3-fluorophenyl)sulfanyl)-1,3-dithiol-2-ylidene)-4,5-bis((3-fluorophenyl)sulfanyl)-1,3-dithiole
_symmetry_cell_setting           monoclinic
_symmetry_space_group_name_H-M   'P 21/c'
_symmetry_Int_Tables_number      14
_space_group_name_Hall           '-P 2ybc'
loop_
_symmetry_equiv_pos_site_id
_symmetry_equiv_pos_as_xyz
1 x,y,z
2 -x,1/2+y,1/2-z
3 -x,-y,-z
4 x,1/2-y,1/2+z
_cell_length_a                   18.4424(6)
_cell_length_b                   6.0843(2)
_cell_length_c                   13.9836(5)
_cell_angle_alpha                90
_cell_angle_beta                 111.454(4)
_cell_angle_gamma                90
_cell_volume                     1460.37
_exptl_crystal_colour            'light orange'
_exptl_crystal_description       block
_chemical_melting_point          '388 K'
_cell_formula_units_Z            2
loop_
_atom_site_label
_atom_site_type_symbol
_atom_site_fract_x
_atom_site_fract_y
_atom_site_fract_z
C1 C 0.97728(14) 0.4115(4) 0.9813(2)
C2 C 0.90917(14) 0.0686(4) 0.8763(2)
C3 C 0.88898(14) 0.0685(4) 0.9591(2)
C4 C 0.78434(15) -0.0629(4) 0.71053(19)
C5 C 0.76254(18) 0.1398(5) 0.6637(2)
H1 H 0.8002 0.2433 0.6658
C6 C 0.68419(19) 0.1869(6) 0.6136(2)
H2 H 0.6694 0.3233 0.5824
C7 C 0.62774(18) 0.0336(7) 0.6093(2)
H3 H 0.5751 0.0653 0.5765
C8 C 0.65172(18) -0.1657(6) 0.6548(3)
C9 C 0.72871(17) -0.2197(5) 0.7062(2)
H4 H 0.7429 -0.3566 0.7369
C10 C 0.73677(14) -0.0346(4) 0.93280(19)
C11 C 0.67937(16) -0.1806(5) 0.9352(2)
H5 H 0.6922 -0.3187 0.9652
C12 C 0.60308(17) -0.1139(6) 0.8917(2)
C13 C 0.58071(18) 0.0853(7) 0.8466(2)
H6 H 0.5284 0.1241 0.8181
C14 C 0.63859(18) 0.2293(6) 0.8446(2)
H7 H 0.6249 0.3662 0.8137
C15 C 0.71674(16) 0.1706(5) 0.8882(2)
H8 H 0.7553 0.2685 0.8875
S1 S 0.96720(4) 0.28591(12) 0.86385(5)
S2 S 0.92299(4) 0.28555(11) 1.04703(5)
S3 S 0.88458(4) -0.12904(12) 0.77713(6)
S4 S 0.83385(4) -0.13404(12) 0.99051(6)
F1 F 0.59724(13) -0.3184(4) 0.6506(2)
F2 F 0.54670(13) -0.2554(5) 0.8926(2)
C1B C 1.02272(14) 0.5885(4) 1.0187(2)
C2B C 1.09083(14) 0.9314(4) 1.1237(2)
C3B C 1.11102(14) 0.9315(4) 1.0409(2)
C4B C 1.21566(15) 1.0629(4) 1.28947(19)
C5B C 1.23746(18) 0.8602(5) 1.3363(2)
H1B H 1.1998 0.7567 1.3342
C6B C 1.31581(19) 0.8131(6) 1.3864(2)
H2B H 1.3306 0.6767 1.4176
C7B C 1.37226(18) 0.9664(7) 1.3907(2)
H3B H 1.4249 0.9347 1.4235
C8B C 1.34828(18) 1.1657(6) 1.3452(3)
C9B C 1.27129(17) 1.2197(5) 1.2938(2)
H4B H 1.2571 1.3566 1.2631
C10B C 1.26323(14) 1.0346(4) 1.06720(19)
C11B C 1.32063(16) 1.1806(5) 1.0648(2)
H5B H 1.3078 1.3187 1.0348
C12B C 1.39692(17) 1.1139(6) 1.1083(2)
C13B C 1.41929(18) 0.9147(7) 1.1534(2)
H6B H 1.4716 0.8759 1.1819
C14B C 1.36141(18) 0.7707(6) 1.1554(2)
H7B H 1.3751 0.6338 1.1863
C15B C 1.28326(16) 0.8294(5) 1.1118(2)
H8B H 1.2447 0.7315 1.1125
S1B S 1.03280(4) 0.71409(12) 1.13615(5)
S2B S 1.07701(4) 0.71445(11) 0.95297(5)
S3B S 1.11542(4) 1.12904(12) 1.22287(6)
S4B S 1.16615(4) 1.13404(12) 1.00949(6)
F1B F 1.40276(13) 1.3184(4) 1.3494(2)
F2B F 1.45330(13) 1.2554(5) 1.1074(2)
loop_
_geom_bond_atom_site_label_1
_geom_bond_atom_site_label_2
_geom_bond_site_symmetry_1
_geom_bond_site_symmetry_2
C1 S1 1_555 1_555
C2 C3 1_555 1_555
C3 S2 1_555 1_555
C4 C5 1_555 1_555
C5 H1 1_555 1_555
C6 C5 1_555 1_555
H2 C6 1_555 1_555
C7 C6 1_555 1_555
H3 C7 1_555 1_555
C8 C7 1_555 1_555
C9 C4 1_555 1_555
H4 C9 1_555 1_555
C10 C11 1_555 1_555
C11 H5 1_555 1_555
C12 C11 1_555 1_555
C13 C12 1_555 1_555
H6 C13 1_555 1_555
C14 C13 1_555 1_555
H7 C14 1_555 1_555
C15 C10 1_555 1_555
H8 C15 1_555 1_555
S1 C2 1_555 1_555
S2 C1 1_555 1_555
S3 C2 1_555 1_555
S4 C3 1_555 1_555
F1 C8 1_555 1_555
F2 C12 1_555 1_555
C1B C1 1_555 1_555
C2B C3B 1_555 1_555
C3B S2B 1_555 1_555
C4B C5B 1_555 1_555
C5B H1B 1_555 1_555
C6B C5B 1_555 1_555
H2B C6B 1_555 1_555
C7B C6B 1_555 1_555
H3B C7B 1_555 1_555
C8B C7B 1_555 1_555
C9B C4B 1_555 1_555
H4B C9B 1_555 1_555
C10B C11B 1_555 1_555
C11B H5B 1_555 1_555
C12B C11B 1_555 1_555
C13B C12B 1_555 1_555
H6B C13B 1_555 1_555
C14B C13B 1_555 1_555
H7B C14B 1_555 1_555
C15B C10B 1_555 1_555
H8B C15B 1_555 1_555
S1B C1B 1_555 1_555
S2B C1B 1_555 1_555
S3B C2B 1_555 1_555
S4B C3B 1_555 1_555
F1B C8B 1_555 1_555
F2B C12B 1_555 1_555
C4 S3 1_555 1_555
C8 C9 1_555 1_555
C10 S4 1_555 1_555
C14 C15 1_555 1_555
C2B S1B 1_555 1_555
C4B S3B 1_555 1_555
C8B C9B 1_555 1_555
C10B S4B 1_555 1_555
C14B C15B 1_555 1_555

#END
