
#######################################################################
#
#                 Cambridge Crystallographic Data Centre
#                                CCDC 
#
#######################################################################
#
# If this CIF has been generated from an entry in the Cambridge 
# Structural Database, then it will include bibliographic, chemical, 
# crystal, experimental, refinement or atomic coordinate data resulting 
# from the CCDC's data processing and validation procedures.
#
#######################################################################

data_KOMKII
_chemical_formula_moiety         'C25 H34 N2 O2'
_chemical_name_systematic        
'8,11-di-t-butyl-7,10-diazatricyclo[4.3.3.0^1,6^]dodeca-7,10-dien-9-yl benzoate'
_symmetry_cell_setting           monoclinic
_symmetry_space_group_name_H-M   'P 21'
_symmetry_Int_Tables_number      4
_space_group_name_Hall           'P 2yb'
loop_
_symmetry_equiv_pos_site_id
_symmetry_equiv_pos_as_xyz
1 x,y,z
2 -x,1/2+y,-z
_cell_length_a                   11.565(2)
_cell_length_b                   13.526(3)
_cell_length_c                   15.417(3)
_cell_angle_alpha                90
_cell_angle_beta                 106.26(3)
_cell_angle_gamma                90
_cell_volume                     2315.19
_cell_formula_units_Z            4
loop_
_atom_site_label
_atom_site_type_symbol
_atom_site_fract_x
_atom_site_fract_y
_atom_site_fract_z
C1 C 0.4934(9) 1.0545(8) 0.7215(5)
C2 C 0.5833(8) 0.9883(7) 0.6851(5)
H1 H 0.6698 1.0044 0.7147
C3 C 0.5481(9) 0.8890(8) 0.7114(6)
C4 C 0.5440(9) 0.8418(8) 0.8530(6)
C5 C 0.4133(8) 0.8413(8) 0.7955(6)
H2 H 0.3839 0.7731 0.7798
H3 H 0.3604 0.8747 0.8270
C6 C 0.4194(8) 0.8982(7) 0.7129(6)
C7 C 0.3174(9) 0.8741(8) 0.6248(6)
H4 H 0.3108 0.9284 0.5806
H5 H 0.2393 0.8682 0.6390
C8 C 0.3479(11) 0.7708(9) 0.5814(7)
H6 H 0.3433 0.7149 0.6218
H7 H 0.2885 0.7592 0.5221
C9 C 0.4713(10) 0.7771(8) 0.5700(6)
H8 H 0.4898 0.7138 0.5445
H9 H 0.4721 0.8297 0.5255
C10 C 0.5686(9) 0.7981(8) 0.6546(6)
H10 H 0.6447 0.8086 0.6384
H11 H 0.5796 0.7387 0.6936
C11 C 0.5873(9) 0.8206(9) 0.9526(6)
C12 C 0.5428(12) 0.7163(11) 0.9607(6)
H12 H 0.4605 0.7189 0.9663
H13 H 0.5956 0.6843 1.0143
H14 H 0.5435 0.6783 0.9067
C13 C 0.7195(9) 0.8279(13) 0.9856(6)
H15 H 0.7557 0.7907 0.9452
H16 H 0.7472 0.8003 1.0467
H17 H 0.7437 0.8974 0.9867
C14 C 0.5263(13) 0.8946(11) 1.0001(6)
H18 H 0.5438 0.9619 0.9840
H19 H 0.5569 0.8857 1.0656
H20 H 0.4391 0.8836 0.9810
C15 C 0.5126(9) 1.1613(8) 0.7411(5)
C16 C 0.5516(10) 1.2173(9) 0.6676(7)
H21 H 0.6309 1.1936 0.6656
H22 H 0.5560 1.2882 0.6812
H23 H 0.4928 1.2059 0.6089
C17 C 0.4060(9) 1.2114(8) 0.7623(6)
H24 H 0.4217 1.2824 0.7707
H25 H 0.3942 1.1831 0.8178
H26 H 0.3333 1.2009 0.7122
C18 C 0.6227(10) 1.1586(10) 0.8402(6)
H27 H 0.6912 1.1203 0.8327
H28 H 0.5918 1.1278 0.8867
H29 H 0.6489 1.2263 0.8585
C19 C 0.6445(8) 0.9969(8) 0.5501(6)
C20 C 0.5977(8) 0.9960(7) 0.4530(6)
C21 C 0.6792(8) 0.9785(8) 0.4006(5)
H30 H 0.7613 0.9650 0.4306
C22 C 0.6439(8) 0.9806(8) 0.3116(6)
H31 H 0.7004 0.9665 0.2790
C23 C 0.5250(10) 1.0031(7) 0.2642(6)
H32 H 0.5014 1.0039 0.2000
C24 C 0.4413(9) 1.0242(8) 0.3111(6)
H33 H 0.3617 1.0439 0.2798
C25 C 0.4771(8) 1.0159(7) 0.4058(5)
H34 H 0.4190 1.0238 0.4384
N1 N 0.4054(6) 1.0081(6) 0.7325(4)
N2 N 0.6118(6) 0.8653(6) 0.8081(4)
O1 O 0.5507(5) 1.0015(5) 0.5899(3)
O2 O 0.7495(6) 0.9895(7) 0.5931(4)
C26 C -0.0041(8) -0.0629(7) 0.2215(5)
C27 C 0.0824(8) 0.0008(8) 0.1899(5)
H35 H 0.1684 -0.0148 0.2218
C28 C 0.0471(9) 0.1078(8) 0.2093(6)
C29 C 0.0448(8) 0.1433(8) 0.3528(5)
C30 C -0.0859(8) 0.1526(7) 0.3008(5)
H36 H -0.1094 0.2225 0.2870
H37 H -0.1392 0.1223 0.3337
C31 C -0.0874(8) 0.0939(9) 0.2146(7)
C32 C -0.1806(9) 0.1263(9) 0.1283(6)
H38 H -0.1891 0.0739 0.0821
H39 H -0.2595 0.1340 0.1408
C33 C -0.1498(10) 0.2177(9) 0.0925(6)
H40 H -0.1400 0.2705 0.1385
H41 H -0.2154 0.2374 0.0388
C34 C -0.0311(10) 0.2051(8) 0.0659(6)
H42 H -0.0376 0.1478 0.0249
H43 H -0.0153 0.2650 0.0340
C35 C 0.0727(10) 0.1886(8) 0.1523(6)
H44 H 0.1470 0.1726 0.1354
H45 H 0.0872 0.2506 0.1879
C36 C 0.0872(10) 0.1723(10) 0.4505(6)
C37 C 0.0269(10) 0.1034(8) 0.5052(6)
H46 H 0.0498 0.0348 0.4982
H47 H -0.0609 0.1101 0.4828
H48 H 0.0535 0.1219 0.5692
C38 C 0.2268(8) 0.1593(9) 0.4931(6)
H49 H 0.2478 0.1751 0.5577
H50 H 0.2699 0.2040 0.4629
H51 H 0.2495 0.0909 0.4851
C39 C 0.0563(9) 0.2802(9) 0.4643(6)
H52 H -0.0308 0.2900 0.4406
H53 H 0.0983 0.3236 0.4322
H54 H 0.0817 0.2960 0.5289
C40 C 0.0213(9) -0.1713(8) 0.2485(6)
C41 C 0.0522(8) -0.2277(8) 0.1690(5)
H55 H -0.0181 -0.2272 0.1158
H56 H 0.0741 -0.2962 0.1872
H57 H 0.1200 -0.1950 0.1543
C42 C -0.0963(8) -0.2184(7) 0.2579(5)
H58 H -0.1264 -0.1800 0.3010
H59 H -0.0803 -0.2865 0.2798
H60 H -0.1568 -0.2187 0.1989
C43 C 0.1190(8) -0.1785(7) 0.3318(5)
H61 H 0.1924 -0.1502 0.3223
H62 H 0.1330 -0.2482 0.3491
H63 H 0.0973 -0.1422 0.3799
C44 C 0.1422(9) -0.0062(8) 0.0521(6)
C45 C 0.1034(8) -0.0137(7) -0.0493(5)
C46 C -0.0156(8) -0.0309(8) -0.0930(6)
H64 H -0.0716 -0.0420 -0.0592
C47 C -0.0538(9) -0.0321(8) -0.1865(7)
H65 H -0.1365 -0.0436 -0.2160
C48 C 0.0237(8) -0.0172(8) -0.2374(6)
H66 H -0.0035 -0.0189 -0.3016
C49 C 0.1417(10) 0.0001(8) -0.1934(6)
H67 H 0.1975 0.0097 -0.2276
C50 C 0.1843(9) 0.0042(8) -0.0954(6)
H68 H 0.2659 0.0189 -0.0651
N3 N -0.0974(7) -0.0113(7) 0.2301(5)
N4 N 0.1185(6) 0.1188(5) 0.3054(4)
O3 O 0.0532(5) -0.0150(5) 0.0890(3)
O4 O 0.2457(6) 0.0020(7) 0.0936(4)
H69? H 0.6650 0.8143 0.8094
H70? H 0.6558 0.9196 0.8342
loop_
_geom_bond_atom_site_label_1
_geom_bond_atom_site_label_2
_geom_bond_site_symmetry_1
_geom_bond_site_symmetry_2
C1 C2 1_555 1_555
C2 H1 1_555 1_555
C3 C2 1_555 1_555
C4 C5 1_555 1_555
C5 H2 1_555 1_555
H3 C5 1_555 1_555
C6 C3 1_555 1_555
C7 C6 1_555 1_555
H4 C7 1_555 1_555
H5 C7 1_555 1_555
C8 C7 1_555 1_555
H6 C8 1_555 1_555
H7 C8 1_555 1_555
C9 C8 1_555 1_555
H8 C9 1_555 1_555
H9 C9 1_555 1_555
C10 C3 1_555 1_555
H10 C10 1_555 1_555
H11 C10 1_555 1_555
C11 C4 1_555 1_555
C12 C11 1_555 1_555
H12 C12 1_555 1_555
H13 C12 1_555 1_555
H14 C12 1_555 1_555
C13 C11 1_555 1_555
H15 C13 1_555 1_555
H16 C13 1_555 1_555
H17 C13 1_555 1_555
C14 C11 1_555 1_555
H18 C14 1_555 1_555
H19 C14 1_555 1_555
H20 C14 1_555 1_555
C15 C1 1_555 1_555
C16 C15 1_555 1_555
H21 C16 1_555 1_555
H22 C16 1_555 1_555
H23 C16 1_555 1_555
C17 C15 1_555 1_555
H24 C17 1_555 1_555
H25 C17 1_555 1_555
H26 C17 1_555 1_555
C18 C15 1_555 1_555
H27 C18 1_555 1_555
H28 C18 1_555 1_555
H29 C18 1_555 1_555
C19 C20 1_555 1_555
C20 C21 1_555 1_555
C21 H30 1_555 1_555
C22 C21 1_555 1_555
H31 C22 1_555 1_555
C23 C22 1_555 1_555
H32 C23 1_555 1_555
C24 C23 1_555 1_555
H33 C24 1_555 1_555
C25 C20 1_555 1_555
H34 C25 1_555 1_555
N1 C1 1_555 1_555
N2 C3 1_555 1_555
O1 C2 1_555 1_555
O2 C19 1_555 1_555
C26 C27 1_555 1_555
C27 H35 1_555 1_555
C28 C27 1_555 1_555
C29 C30 1_555 1_555
C30 H36 1_555 1_555
H37 C30 1_555 1_555
C31 C28 1_555 1_555
C32 C31 1_555 1_555
H38 C32 1_555 1_555
H39 C32 1_555 1_555
C33 C32 1_555 1_555
H40 C33 1_555 1_555
H41 C33 1_555 1_555
C34 C33 1_555 1_555
H42 C34 1_555 1_555
H43 C34 1_555 1_555
C35 C28 1_555 1_555
H44 C35 1_555 1_555
H45 C35 1_555 1_555
C36 C29 1_555 1_555
C37 C36 1_555 1_555
H46 C37 1_555 1_555
H47 C37 1_555 1_555
H48 C37 1_555 1_555
C38 C36 1_555 1_555
H49 C38 1_555 1_555
H50 C38 1_555 1_555
H51 C38 1_555 1_555
C39 C36 1_555 1_555
H52 C39 1_555 1_555
H53 C39 1_555 1_555
H54 C39 1_555 1_555
C40 C26 1_555 1_555
C41 C40 1_555 1_555
H55 C41 1_555 1_555
H56 C41 1_555 1_555
H57 C41 1_555 1_555
C42 C40 1_555 1_555
H58 C42 1_555 1_555
H59 C42 1_555 1_555
H60 C42 1_555 1_555
C43 C40 1_555 1_555
H61 C43 1_555 1_555
H62 C43 1_555 1_555
H63 C43 1_555 1_555
C44 C45 1_555 1_555
C45 C46 1_555 1_555
C46 H64 1_555 1_555
C47 C46 1_555 1_555
H65 C47 1_555 1_555
C48 C47 1_555 1_555
H66 C48 1_555 1_555
C49 C48 1_555 1_555
H67 C49 1_555 1_555
C50 C45 1_555 1_555
H68 C50 1_555 1_555
N3 C26 1_555 1_555
N4 C28 1_555 1_555
O3 C27 1_555 1_555
O4 C44 1_555 1_555
C4 N2 1_555 1_555
C5 C6 1_555 1_555
C6 N1 1_555 1_555
C9 C10 1_555 1_555
C19 O1 1_555 1_555
C24 C25 1_555 1_555
C29 N4 1_555 1_555
C30 C31 1_555 1_555
C31 N3 1_555 1_555
C34 C35 1_555 1_555
C44 O3 1_555 1_555
C49 C50 1_555 1_555

#END
