
#######################################################################
#
#                 Cambridge Crystallographic Data Centre
#                                CCDC 
#
#######################################################################
#
# If this CIF has been generated from an entry in the Cambridge 
# Structural Database, then it will include bibliographic, chemical, 
# crystal, experimental, refinement or atomic coordinate data resulting 
# from the CCDC's data processing and validation procedures.
#
#######################################################################

data_KOMQIN
_chemical_formula_moiety         'C5 H9 N3 2+,2(Cl1 1-)'
_chemical_name_systematic        '4-Amino-3-ammoniopyridinium dichloride'
_symmetry_cell_setting           monoclinic
_symmetry_space_group_name_H-M   'P 21/c'
_symmetry_Int_Tables_number      14
_space_group_name_Hall           '-P 2ybc'
loop_
_symmetry_equiv_pos_site_id
_symmetry_equiv_pos_as_xyz
1 x,y,z
2 -x,1/2+y,1/2-z
3 -x,-y,-z
4 x,1/2-y,1/2+z
_cell_length_a                   8.362(2)
_cell_length_b                   7.3218(19)
_cell_length_c                   13.239(3)
_cell_angle_alpha                90
_cell_angle_beta                 92.065(4)
_cell_angle_gamma                90
_cell_volume                     810.03
_exptl_crystal_colour            colorless
_exptl_crystal_description       block
_cell_formula_units_Z            4
loop_
_atom_site_label
_atom_site_type_symbol
_atom_site_fract_x
_atom_site_fract_y
_atom_site_fract_z
Cl1 Cl 0.05806(5) 0.10977(6) 0.30663(3)
Cl2 Cl 0.51526(5) 0.00029(6) 0.35359(3)
N1 N 0.26647(16) 0.68257(19) 0.30328(10)
H1 H 0.3291 0.6281 0.2594
H2 H 0.3026 0.7949 0.3160
H3 H 0.1670 0.6887 0.2772
N2 N 0.11914(19) 0.8105(2) 0.48188(12)
H4 H 0.1182 0.8773 0.4284
H5 H 0.0737 0.8485 0.5352
N3 N 0.33856(18) 0.3102(2) 0.48536(11)
H6 H 0.3861 0.2061 0.4869
C1 C 0.3383(2) 0.4103(2) 0.40010(13)
H7 H 0.3866 0.3649 0.3431
C2 C 0.26762(18) 0.5778(2) 0.39701(12)
C3 C 0.19067(19) 0.6488(2) 0.48205(12)
C4 C 0.1921(2) 0.5357(2) 0.56891(13)
H8 H 0.1422 0.5751 0.6267
C5 C 0.2655(2) 0.3703(2) 0.56862(14)
H9 H 0.2656 0.2976 0.6262
loop_
_geom_bond_atom_site_label_1
_geom_bond_atom_site_label_2
_geom_bond_site_symmetry_1
_geom_bond_site_symmetry_2
N1 H1 1_555 1_555
H2 N1 1_555 1_555
H3 N1 1_555 1_555
N2 H4 1_555 1_555
H5 N2 1_555 1_555
N3 H6 1_555 1_555
C1 N3 1_555 1_555
H7 C1 1_555 1_555
C2 N1 1_555 1_555
C3 N2 1_555 1_555
C4 C3 1_555 1_555
H8 C4 1_555 1_555
C5 N3 1_555 1_555
H9 C5 1_555 1_555
C1 C2 1_555 1_555
C2 C3 1_555 1_555
C4 C5 1_555 1_555

#END
