
#######################################################################
#
#                 Cambridge Crystallographic Data Centre
#                                CCDC 
#
#######################################################################
#
# If this CIF has been generated from an entry in the Cambridge 
# Structural Database, then it will include bibliographic, chemical, 
# crystal, experimental, refinement or atomic coordinate data resulting 
# from the CCDC's data processing and validation procedures.
#
#######################################################################

data_KOMVIS
_chemical_formula_moiety         'C21 H16 O2,C21 H16 O2'
_chemical_name_systematic        
'3-(4-Biphenyl-1-yl)-3-hydroxy-1-phenylprop-2-en-1-one 3-(4-biphenyl-1-yl)-1-hydroxy-1-phenylprop-1-en-3-one'
_symmetry_cell_setting           triclinic
_symmetry_space_group_name_H-M   'P -1'
_symmetry_Int_Tables_number      2
_space_group_name_Hall           '-P 1'
loop_
_symmetry_equiv_pos_site_id
_symmetry_equiv_pos_as_xyz
1 x,y,z
2 -x,-y,-z
_cell_length_a                   10.6087(13)
_cell_length_b                   17.814(2)
_cell_length_c                   26.394(3)
_cell_angle_alpha                72.170(2)
_cell_angle_beta                 86.069(2)
_cell_angle_gamma                89.450(2)
_cell_volume                     4736.94
_exptl_crystal_colour            colorless
_exptl_crystal_description       block
_chemical_melting_point          '383 K'
_cell_formula_units_Z            6
_exptl_crystal_recrystallization_method chloroform/ethanol
loop_
_atom_site_label
_atom_site_type_symbol
_atom_site_fract_x
_atom_site_fract_y
_atom_site_fract_z
C1 C 0.5878(3) -0.04592(19) 0.92533(13)
C2 C 0.5157(3) -0.0527(2) 0.88522(14)
H1 H 0.4953 -0.0075 0.8584
C3 C 0.4738(3) -0.1249(2) 0.88418(15)
H2 H 0.4253 -0.1280 0.8568
C4 C 0.5028(4) -0.1925(2) 0.92335(17)
H3 H 0.4742 -0.2414 0.9227
C5 C 0.5745(4) -0.1871(2) 0.96328(16)
H4 H 0.5947 -0.2326 0.9899
C6 C 0.6170(3) -0.1146(2) 0.96440(14)
H5 H 0.6659 -0.1119 0.9917
C7 C 0.6346(3) 0.03222(18) 0.92581(13)
C8 C 0.6563(3) 0.09381(19) 0.87890(13)
H6 H 0.6389 0.0864 0.8467
C9 C 0.7029(3) 0.16578(18) 0.87886(13)
H7 H 0.7172 0.2056 0.8466
C10 C 0.7289(3) 0.18012(19) 0.92559(13)
C11 C 0.7056(3) 0.1192(2) 0.97302(13)
H8 H 0.7211 0.1272 1.0052
C12 C 0.6600(3) 0.0468(2) 0.97290(13)
H9 H 0.6459 0.0070 1.0051
C13 C 0.7833(3) 0.2558(2) 0.92644(15)
C14 C 0.7991(3) 0.32151(19) 0.88152(14)
H10 H 0.7713 0.3193 0.8494
C15 C 0.8558(3) 0.3906(2) 0.88353(15)
C16 C 0.8740(3) 0.46205(19) 0.83683(15)
C17 C 0.8367(3) 0.4650(2) 0.78706(16)
H11 H 0.8013 0.4205 0.7820
C18 C 0.8517(4) 0.5335(3) 0.74485(18)
H12 H 0.8252 0.5349 0.7117
C19 C 0.9054(4) 0.5995(2) 0.7512(2)
H13 H 0.9160 0.6454 0.7226
C20 C 0.9433(4) 0.5968(2) 0.8004(2)
H14 H 0.9796 0.6413 0.8051
C21 C 0.9280(3) 0.5292(2) 0.84268(17)
H15 H 0.9542 0.5283 0.8758
O1 O 0.8195(3) 0.25799(15) 0.97179(10)
H91 H 0.857(4) 0.325(3) 0.9602(17)
O2 O 0.8954(2) 0.39522(15) 0.92758(11)
C22 C 0.2752(3) -0.08517(18) 0.73658(12)
C23 C 0.1476(3) -0.1027(2) 0.74626(16)
H16 H 0.0934 -0.0672 0.7558
C24 C 0.0991(4) -0.1718(2) 0.74203(19)
H17 H 0.0128 -0.1823 0.7488
C25 C 0.1759(4) -0.2250(2) 0.72810(16)
H18 H 0.1422 -0.2714 0.7251
C26 C 0.3026(4) -0.2099(2) 0.71852(15)
H19 H 0.3560 -0.2460 0.7092
C27 C 0.3508(3) -0.1405(2) 0.72289(14)
H20 H 0.4373 -0.1307 0.7164
C28 C 0.3293(3) -0.00972(18) 0.73938(11)
C29 C 0.2542(3) 0.0553(2) 0.73719(14)
H21 H 0.1677 0.0513 0.7345
C30 C 0.3040(3) 0.1256(2) 0.73883(14)
H22 H 0.2510 0.1682 0.7368
C31 C 0.4318(3) 0.13387(18) 0.74341(12)
C32 C 0.5075(3) 0.06965(19) 0.74514(13)
H23 H 0.5941 0.0738 0.7475
C33 C 0.4568(3) -0.00013(19) 0.74349(13)
H24 H 0.5102 -0.0424 0.7452
C34 C 0.4883(3) 0.20721(18) 0.74734(11)
C35 C 0.4209(3) 0.27266(19) 0.75000(12)
H25 H 0.3335 0.2721 0.7488
C36 C 0.4808(3) 0.34033(19) 0.75456(12)
C37 C 0.4095(3) 0.41092(18) 0.75769(12)
C38 C 0.2800(3) 0.4143(2) 0.75820(15)
H26 H 0.2346 0.3710 0.7562
C39 C 0.2158(4) 0.4804(2) 0.76161(17)
H27 H 0.1280 0.4811 0.7625
C40 C 0.2813(4) 0.5451(2) 0.76369(15)
H28 H 0.2384 0.5900 0.7657
C41 C 0.4104(4) 0.5433(2) 0.76286(14)
H29 H 0.4553 0.5872 0.7641
C42 C 0.47451(17) 0.47661(11) 0.76022(7)
H30 H 0.5622 0.4758 0.7601
O3 O 0.6110(2) 0.20682(14) 0.74853(9)
H92 H 0.631(3) 0.272(2) 0.7511(14)
O4 O 0.6002(2) 0.34201(14) 0.75623(10)
C43 C 0.66144(17) 0.40465(11) 0.57063(7)
C44 C 0.61617(17) 0.33663(11) 0.60936(7)
H31 H 0.5620 0.3412 0.6375
C45 C 0.6498(3) 0.2625(2) 0.60731(14)
H32 H 0.6176 0.2180 0.6337
C46 C 0.7308(3) 0.2542(2) 0.56646(15)
H33 H 0.7542 0.2044 0.5651
C47 C 0.7767(3) 0.3206(2) 0.52771(14)
H34 H 0.8315 0.3156 0.4999
C48 C 0.7422(3) 0.3947(2) 0.52958(13)
H35 H 0.7738 0.4389 0.5027
C49 C 0.6198(3) 0.48401(18) 0.57178(12)
C50 C 0.5856(3) 0.4987(2) 0.61940(13)
H36 H 0.5953 0.4593 0.6514
C51 C 0.5372(3) 0.5705(2) 0.62040(13)
H37 H 0.5135 0.5784 0.6530
C52 C 0.5238(3) 0.63086(19) 0.57366(13)
C53 C 0.5617(3) 0.61754(19) 0.52591(13)
H38 H 0.5558 0.6578 0.4940
C54 C 0.6079(3) 0.54530(19) 0.52530(13)
H39 H 0.6319 0.5375 0.4927
C55 C 0.4654(3) 0.7057(2) 0.57609(14)
C56 C 0.4660(3) 0.77418(19) 0.53215(13)
H40 H 0.5098 0.7746 0.5003
C57 C 0.4030(3) 0.8408(2) 0.53510(14)
C58 C 0.3959(3) 0.91392(19) 0.48994(13)
C59 C 0.3344(3) 0.9786(2) 0.49812(15)
H41 H 0.2974 0.9751 0.5317
C60 C 0.3274(4) 1.0482(2) 0.45687(18)
H42 H 0.2862 1.0912 0.4629
C61 C 0.3807(4) 1.0538(2) 0.40745(17)
H43 H 0.3751 1.1004 0.3796
C62 C 0.4426(4) 0.9904(2) 0.39914(15)
H44 H 0.4797 0.9945 0.3655
C63 C 0.4507(4) 0.9209(2) 0.43984(14)
H45 H 0.4934 0.8784 0.4335
O5 O 0.4111(3) 0.70518(15) 0.62114(10)
H93 H 0.363(4) 0.777(3) 0.6100(17)
O6 O 0.3433(3) 0.84226(15) 0.57949(10)
C64 C -0.0076(3) 0.64519(19) 0.60137(13)
C65 C 0.0684(4) 0.7057(2) 0.60501(14)
H46 H 0.1556 0.6996 0.6039
C66 C 0.0184(4) 0.7749(2) 0.61019(16)
H47 H 0.0718 0.8149 0.6121
C67 C -0.1092(5) 0.7849(2) 0.61256(18)
H48 H -0.1432 0.8309 0.6171
C68 C -0.1863(4) 0.7270(2) 0.60815(19)
H49 H -0.2733 0.7340 0.6090
C69 C -0.1368(4) 0.6580(2) 0.60241(16)
H50 H -0.1911 0.6192 0.5992
C70 C 0.0463(3) 0.56919(18) 0.59860(12)
C71 C 0.1609(3) 0.5435(2) 0.61956(14)
H51 H 0.2045 0.5748 0.6351
C72 C 0.2118(3) 0.4727(2) 0.61792(14)
H52 H 0.2893 0.4576 0.6320
C73 C 0.1497(3) 0.42378(18) 0.59562(12)
C74 C 0.0361(3) 0.44957(19) 0.57408(13)
H53 H -0.0069 0.4185 0.5582
C75 C -0.0149(3) 0.52034(19) 0.57562(13)
H54 H -0.0918 0.5358 0.5610
C76 C 0.2072(3) 0.34779(19) 0.59541(13)
C77 C 0.1470(3) 0.29011(19) 0.58078(14)
H55 H 0.0669 0.2996 0.5681
C78 C 0.2039(3) 0.2175(2) 0.58464(14)
C79 C 0.1364(3) 0.1508(2) 0.57565(14)
C80 C 0.1699(4) 0.0748(2) 0.60239(15)
H56 H 0.2377 0.0664 0.6239
C81 C 0.1048(5) 0.0114(2) 0.59783(17)
H57 H 0.1273 -0.0395 0.6168
C82 C 0.0065(4) 0.0232(3) 0.5654(2)
H58 H -0.0381 -0.0198 0.5623
C83 C -0.0265(4) 0.0987(3) 0.5371(2)
H59 H -0.0922 0.1068 0.5145
C84 C 0.0386(4) 0.1624(2) 0.54246(17)
H60 H 0.0162 0.2134 0.5235
O7 O 0.3205(2) 0.33673(15) 0.61127(11)
H94 H 0.347(4) 0.269(3) 0.6064(16)
O8 O 0.3175(2) 0.20547(15) 0.59834(11)
C85 C 0.7565(3) -0.22780(17) 0.09724(12)
C86 C 0.8340(3) -0.2897(2) 0.09348(15)
H61 H 0.9211 -0.2821 0.0889
C87 C 0.7834(4) -0.3621(2) 0.09647(16)
H62 H 0.8365 -0.4029 0.0941
C88 C 0.6558(4) -0.3740(2) 0.10284(15)
H63 H 0.6220 -0.4228 0.1047
C89 C 0.5777(3) -0.3141(2) 0.10649(14)
H64 H 0.4907 -0.3223 0.1109
C90 C 0.6274(3) -0.24147(19) 0.10365(13)
H65 H 0.5733 -0.2011 0.1061
C91 C 0.8121(3) -0.15018(17) 0.09457(12)
C92 C 0.9297(3) -0.12523(18) 0.06898(13)
H66 H 0.9749 -0.1579 0.0530
C93 C 0.9814(3) -0.05386(18) 0.06658(13)
H67 H 1.0613 -0.0396 0.0497
C94 C 0.9167(3) -0.00299(17) 0.08885(12)
C95 C 0.7998(3) -0.02704(18) 0.11531(13)
H68 H 0.7554 0.0058 0.1314
C96 C 0.7484(3) -0.09917(18) 0.11802(13)
H69 H 0.6697 -0.1140 0.1359
C97 C 0.9728(3) 0.07476(19) 0.08389(13)
C98 C 0.9081(3) 0.13606(18) 0.09470(13)
H70 H 0.8248 0.1279 0.1088
C99 C 0.9644(4) 0.2103(2) 0.08496(14)
C100 C 0.8937(3) 0.27851(19) 0.09247(14)
C101 C 0.7873(4) 0.2697(2) 0.12713(16)
H71 H 0.7595 0.2194 0.1473
C102 C 0.7220(4) 0.3343(2) 0.13221(18)
H72 H 0.6510 0.3277 0.1559
C103 C 0.7623(5) 0.4089(3) 0.1020(2)
H73 H 0.7178 0.4527 0.1051
C104 C 0.8675(5) 0.4189(2) 0.0675(2)
H74 H 0.8944 0.4694 0.0472
C105 C 0.9333(4) 0.3543(2) 0.06286(16)
H75 H 1.0053 0.3613 0.0396
O9 O 1.0918(2) 0.08344(15) 0.06661(10)
H95 H 1.109(3) 0.152(3) 0.0606(14)
O10 O 1.0808(3) 0.22160(15) 0.06791(11)
C106 C 0.0752(3) -0.15222(19) 0.25599(13)
C107 C 0.0131(3) -0.1710(2) 0.21710(14)
H76 H -0.0088 -0.1308 0.1872
C108 C -0.0173(4) -0.2479(2) 0.22154(16)
H77 H -0.0593 -0.2589 0.1948
C109 C 0.0138(4) -0.3083(2) 0.26497(19)
H78 H -0.0065 -0.3602 0.2679
C110 C 0.0754(4) -0.2910(2) 0.30415(18)
H79 H 0.0975 -0.3316 0.3338
C111 C 0.1046(3) -0.2143(2) 0.29990(15)
H80 H 0.1451 -0.2037 0.3272
C112 C 0.1156(3) -0.07058(19) 0.25050(13)
C113 C 0.1400(3) -0.01567(19) 0.20068(14)
H81 H 0.1245 -0.0296 0.1705
C114 C 0.1862(3) 0.0587(2) 0.19444(14)
H82 H 0.2022 0.0935 0.1603
C115 C 0.2094(3) 0.0824(2) 0.23827(14)
C116 C 0.1825(3) 0.0292(2) 0.28834(15)
H83 H 0.1962 0.0439 0.3184
C117 C 0.1356(3) -0.0453(2) 0.29452(14)
H84 H 0.1169 -0.0794 0.3287
C118 C 0.2652(3) 0.1608(2) 0.23286(16)
C119 C 0.2692(3) 0.2225(2) 0.18547(15)
H85 H 0.2310 0.2155 0.1565
C120 C 0.3283(3) 0.2946(2) 0.17956(17)
C121 C 0.3364(3) 0.3613(2) 0.12977(16)
C122 C 0.2953(4) 0.3548(2) 0.08281(17)
H86 H 0.2627 0.3070 0.0819
C123 C 0.3021(4) 0.4183(3) 0.03741(18)
H87 H 0.2742 0.4128 0.0061
C124 C 0.3493(4) 0.4896(3) 0.0375(2)
H88 H 0.3534 0.5324 0.0065
C125 C 0.3899(4) 0.4970(2) 0.0834(2)
H89 H 0.4218 0.5452 0.0838
C126 C 0.3846(3) 0.4337(2) 0.12953(19)
H90 H 0.4134 0.4396 0.1606
O11 O 0.3126(3) 0.16920(17) 0.27458(11)
H96 H 0.345(4) 0.245(3) 0.2566(18)
O12 O 0.3820(3) 0.30490(17) 0.21993(13)
loop_
_geom_bond_atom_site_label_1
_geom_bond_atom_site_label_2
_geom_bond_site_symmetry_1
_geom_bond_site_symmetry_2
C1 C2 1_555 1_555
C2 H1 1_555 1_555
C3 C2 1_555 1_555
H2 C3 1_555 1_555
C4 C3 1_555 1_555
H3 C4 1_555 1_555
C5 C4 1_555 1_555
H4 C5 1_555 1_555
C6 C1 1_555 1_555
H5 C6 1_555 1_555
C7 C1 1_555 1_555
C8 C7 1_555 1_555
H6 C8 1_555 1_555
C9 C8 1_555 1_555
H7 C9 1_555 1_555
C10 C9 1_555 1_555
C11 C10 1_555 1_555
H8 C11 1_555 1_555
C12 C7 1_555 1_555
H9 C12 1_555 1_555
C13 C10 1_555 1_555
C14 C13 1_555 1_555
H10 C14 1_555 1_555
C15 C14 1_555 1_555
C16 C15 1_555 1_555
C17 C16 1_555 1_555
H11 C17 1_555 1_555
C18 C17 1_555 1_555
H12 C18 1_555 1_555
C19 C18 1_555 1_555
H13 C19 1_555 1_555
C20 C19 1_555 1_555
H14 C20 1_555 1_555
C21 C16 1_555 1_555
H15 C21 1_555 1_555
C22 C23 1_555 1_555
C23 H16 1_555 1_555
C24 C23 1_555 1_555
H17 C24 1_555 1_555
C25 C24 1_555 1_555
H18 C25 1_555 1_555
C26 C25 1_555 1_555
H19 C26 1_555 1_555
C27 C22 1_555 1_555
H20 C27 1_555 1_555
C28 C22 1_555 1_555
C29 C28 1_555 1_555
H21 C29 1_555 1_555
C30 C29 1_555 1_555
H22 C30 1_555 1_555
C31 C30 1_555 1_555
C32 C31 1_555 1_555
H23 C32 1_555 1_555
C33 C28 1_555 1_555
H24 C33 1_555 1_555
C34 C31 1_555 1_555
C35 C34 1_555 1_555
H25 C35 1_555 1_555
C36 C35 1_555 1_555
C37 C36 1_555 1_555
C38 C37 1_555 1_555
H26 C38 1_555 1_555
C39 C38 1_555 1_555
H27 C39 1_555 1_555
C40 C39 1_555 1_555
H28 C40 1_555 1_555
C41 C40 1_555 1_555
H29 C41 1_555 1_555
C42 C37 1_555 1_555
H30 C42 1_555 1_555
C43 C44 1_555 1_555
C44 H31 1_555 1_555
C45 C44 1_555 1_555
H32 C45 1_555 1_555
C46 C45 1_555 1_555
H33 C46 1_555 1_555
C47 C46 1_555 1_555
H34 C47 1_555 1_555
C48 C43 1_555 1_555
H35 C48 1_555 1_555
C49 C43 1_555 1_555
C50 C49 1_555 1_555
H36 C50 1_555 1_555
C51 C50 1_555 1_555
H37 C51 1_555 1_555
C52 C51 1_555 1_555
C53 C52 1_555 1_555
H38 C53 1_555 1_555
C54 C49 1_555 1_555
H39 C54 1_555 1_555
C55 C52 1_555 1_555
C56 C55 1_555 1_555
H40 C56 1_555 1_555
C57 C56 1_555 1_555
C58 C57 1_555 1_555
C59 C58 1_555 1_555
H41 C59 1_555 1_555
C60 C59 1_555 1_555
H42 C60 1_555 1_555
C61 C60 1_555 1_555
H43 C61 1_555 1_555
C62 C61 1_555 1_555
H44 C62 1_555 1_555
C63 C58 1_555 1_555
H45 C63 1_555 1_555
C64 C65 1_555 1_555
C65 H46 1_555 1_555
C66 C65 1_555 1_555
H47 C66 1_555 1_555
C67 C66 1_555 1_555
H48 C67 1_555 1_555
C68 C67 1_555 1_555
H49 C68 1_555 1_555
C69 C64 1_555 1_555
H50 C69 1_555 1_555
C70 C64 1_555 1_555
C71 C70 1_555 1_555
H51 C71 1_555 1_555
C72 C71 1_555 1_555
H52 C72 1_555 1_555
C73 C72 1_555 1_555
C74 C73 1_555 1_555
H53 C74 1_555 1_555
C75 C70 1_555 1_555
H54 C75 1_555 1_555
C76 C73 1_555 1_555
C77 C76 1_555 1_555
H55 C77 1_555 1_555
C78 C77 1_555 1_555
C79 C78 1_555 1_555
C80 C79 1_555 1_555
H56 C80 1_555 1_555
C81 C80 1_555 1_555
H57 C81 1_555 1_555
C82 C81 1_555 1_555
H58 C82 1_555 1_555
C83 C82 1_555 1_555
H59 C83 1_555 1_555
C84 C79 1_555 1_555
H60 C84 1_555 1_555
C85 C86 1_555 1_555
C86 H61 1_555 1_555
C87 C86 1_555 1_555
H62 C87 1_555 1_555
C88 C87 1_555 1_555
H63 C88 1_555 1_555
C89 C88 1_555 1_555
H64 C89 1_555 1_555
C90 C85 1_555 1_555
H65 C90 1_555 1_555
C91 C85 1_555 1_555
C92 C91 1_555 1_555
H66 C92 1_555 1_555
C93 C92 1_555 1_555
H67 C93 1_555 1_555
C94 C93 1_555 1_555
C95 C94 1_555 1_555
H68 C95 1_555 1_555
C96 C91 1_555 1_555
H69 C96 1_555 1_555
C97 C94 1_555 1_555
C98 C97 1_555 1_555
H70 C98 1_555 1_555
C99 C98 1_555 1_555
C100 C99 1_555 1_555
C101 C100 1_555 1_555
H71 C101 1_555 1_555
C102 C101 1_555 1_555
H72 C102 1_555 1_555
C103 C102 1_555 1_555
H73 C103 1_555 1_555
C104 C103 1_555 1_555
H74 C104 1_555 1_555
C105 C100 1_555 1_555
H75 C105 1_555 1_555
C106 C107 1_555 1_555
C107 H76 1_555 1_555
C108 C107 1_555 1_555
H77 C108 1_555 1_555
C109 C108 1_555 1_555
H78 C109 1_555 1_555
C110 C109 1_555 1_555
H79 C110 1_555 1_555
C111 C106 1_555 1_555
H80 C111 1_555 1_555
C112 C106 1_555 1_555
C113 C112 1_555 1_555
H81 C113 1_555 1_555
C114 C113 1_555 1_555
H82 C114 1_555 1_555
C115 C114 1_555 1_555
C116 C115 1_555 1_555
H83 C116 1_555 1_555
C117 C112 1_555 1_555
H84 C117 1_555 1_555
C118 C115 1_555 1_555
C119 C118 1_555 1_555
H85 C119 1_555 1_555
C120 C119 1_555 1_555
C121 C120 1_555 1_555
C122 C121 1_555 1_555
H86 C122 1_555 1_555
C123 C122 1_555 1_555
H87 C123 1_555 1_555
C124 C123 1_555 1_555
H88 C124 1_555 1_555
C125 C124 1_555 1_555
H89 C125 1_555 1_555
C126 C121 1_555 1_555
H90 C126 1_555 1_555
O1 C13 1_555 1_555
H91 O1 1_555 1_555
O2 C15 1_555 1_555
O3 C34 1_555 1_555
H92 O3 1_555 1_555
O4 C36 1_555 1_555
O5 C55 1_555 1_555
H93 O6 1_555 1_555
O6 C57 1_555 1_555
O7 C76 1_555 1_555
H94 O8 1_555 1_555
O8 C78 1_555 1_555
O9 C97 1_555 1_555
H95 O9 1_555 1_555
O10 C99 1_555 1_555
O11 C118 1_555 1_555
H96 O12 1_555 1_555
O12 C120 1_555 1_555
C5 C6 1_555 1_555
C11 C12 1_555 1_555
C20 C21 1_555 1_555
C26 C27 1_555 1_555
C32 C33 1_555 1_555
C41 C42 1_555 1_555
C47 C48 1_555 1_555
C53 C54 1_555 1_555
C62 C63 1_555 1_555
C68 C69 1_555 1_555
C74 C75 1_555 1_555
C83 C84 1_555 1_555
C89 C90 1_555 1_555
C95 C96 1_555 1_555
C104 C105 1_555 1_555
C110 C111 1_555 1_555
C116 C117 1_555 1_555
C125 C126 1_555 1_555

#END
