
#######################################################################
#
#                 Cambridge Crystallographic Data Centre
#                                CCDC 
#
#######################################################################
#
# If this CIF has been generated from an entry in the Cambridge 
# Structural Database, then it will include bibliographic, chemical, 
# crystal, experimental, refinement or atomic coordinate data resulting 
# from the CCDC's data processing and validation procedures.
#
#######################################################################

data_KOMVUE
_chemical_formula_moiety         'C8 H8 N4 O2 S1'
_chemical_name_systematic        '3-Nitrobenzaldehyde thiosemicarbazone'
_symmetry_cell_setting           monoclinic
_symmetry_space_group_name_H-M   'P 21/c'
_symmetry_Int_Tables_number      14
_space_group_name_Hall           '-P 2ybc'
loop_
_symmetry_equiv_pos_site_id
_symmetry_equiv_pos_as_xyz
1 x,y,z
2 -x,1/2+y,1/2-z
3 -x,-y,-z
4 x,1/2-y,1/2+z
_cell_length_a                   13.276(3)
_cell_length_b                   8.225(7)
_cell_length_c                   10.491(4)
_cell_angle_alpha                90
_cell_angle_beta                 112.78(5)
_cell_angle_gamma                90
_cell_volume                     1056.21
_exptl_crystal_colour            yellow
_exptl_crystal_description       block
_cell_formula_units_Z            4
_exptl_crystal_recrystallization_method ethanol
loop_
_atom_site_label
_atom_site_type_symbol
_atom_site_fract_x
_atom_site_fract_y
_atom_site_fract_z
C1 C 0.9248(3) 1.1141(4) 1.1340(3)
C2 C 0.8132(3) 0.8365(4) 0.8634(3)
H1 H 0.8406 0.7429 0.9149
C3 C 0.7415(3) 0.8218(4) 0.7163(3)
C4 C 0.7111(3) 0.6666(4) 0.6615(3)
H2 H 0.7375 0.5743 0.7153
C5 C 0.6401(3) 0.6545(5) 0.5237(4)
C6 C 0.5984(3) 0.7864(5) 0.4403(4)
H3 H 0.5501 0.7733 0.3490
C7 C 0.6301(3) 0.9401(5) 0.4955(4)
H4 H 0.6036 1.0314 0.4404
C8 C 0.7017(3) 0.9588(5) 0.6334(4)
H5 H 0.7229 1.0622 0.6697
N1 N 0.8999(3) 1.2497(4) 1.0619(3)
H6 H 0.8691 1.2460 0.9732
H7 H 0.9145 1.3420 1.1036
N2 N 0.9000(2) 0.9732(3) 1.0633(3)
H8 H 0.9222 0.8823 1.1055
N3 N 0.8385(2) 0.9751(3) 0.9216(3)
N4 N 0.6100(3) 0.4887(5) 0.4659(4)
O1 O 0.6466(3) 0.3718(4) 0.5411(4)
O2 O 0.5489(3) 0.4772(5) 0.3440(3)
S1 S 0.98388(9) 1.10945(12) 1.30902(9)
loop_
_geom_bond_atom_site_label_1
_geom_bond_atom_site_label_2
_geom_bond_site_symmetry_1
_geom_bond_site_symmetry_2
C1 N1 1_555 1_555
C2 H1 1_555 1_555
C3 C2 1_555 1_555
C4 C3 1_555 1_555
H2 C4 1_555 1_555
C5 C4 1_555 1_555
C6 C5 1_555 1_555
H3 C6 1_555 1_555
C7 C6 1_555 1_555
H4 C7 1_555 1_555
C8 C3 1_555 1_555
H5 C8 1_555 1_555
N1 H6 1_555 1_555
H7 N1 1_555 1_555
N2 C1 1_555 1_555
H8 N2 1_555 1_555
N3 C2 1_555 1_555
N4 C5 1_555 1_555
O1 N4 1_555 1_555
O2 N4 1_555 1_555
S1 C1 1_555 1_555
C7 C8 1_555 1_555
N2 N3 1_555 1_555

#END
