
#######################################################################
#
#                 Cambridge Crystallographic Data Centre
#                                CCDC 
#
#######################################################################
#
# If this CIF has been generated from an entry in the Cambridge 
# Structural Database, then it will include bibliographic, chemical, 
# crystal, experimental, refinement or atomic coordinate data resulting 
# from the CCDC's data processing and validation procedures.
#
#######################################################################

data_KOMXIU
_chemical_compound_source        'stem bark of Zanthoxylum nitidum'
_chemical_formula_moiety         'C37 H45 N1 O5'
_chemical_name_systematic        'Zanthocadinanine B'
_chemical_properties_biological  
'inactive against MCF-7 (human breast adenocarcinoma), NCI-H460 (non-small-cell lung cancer) and SF-268 (glioblastoma) cells'
_symmetry_cell_setting           monoclinic
_symmetry_space_group_name_H-M   'P 21'
_symmetry_Int_Tables_number      4
_space_group_name_Hall           'P 2yb'
loop_
_symmetry_equiv_pos_site_id
_symmetry_equiv_pos_as_xyz
1 x,y,z
2 -x,1/2+y,-z
_cell_length_a                   6.9588(17)
_cell_length_b                   12.409(3)
_cell_length_c                   18.863(4)
_cell_angle_alpha                90.00
_cell_angle_beta                 90.00(2)
_cell_angle_gamma                90.00
_cell_volume                     1628.85
_exptl_crystal_colour            colorless
_exptl_crystal_description       plate
_chemical_melting_point          160-161deg.C
_cell_formula_units_Z            2
_exptl_crystal_recrystallization_method acetone
loop_
_atom_site_label
_atom_site_type_symbol
_atom_site_fract_x
_atom_site_fract_y
_atom_site_fract_z
N1 N 0.6166(7) 0.1779(5) 0.6376(3)
O1 O 1.0798(10) -0.0239(6) 0.8939(3)
O2 O 1.1384(8) 0.1333(5) 0.8322(3)
O3 O 0.2213(6) 0.2885(5) 0.4893(3)
O4 O 0.0015(8) 0.1460(5) 0.4195(3)
O5 O 1.0272(8) 0.5868(4) 0.7848(3)
C1 C 0.7850(13) -0.0690(7) 0.8305(5)
H1 H 0.7608 -0.1298 0.8578
C2 C 0.9401(14) -0.0089(8) 0.8428(5)
C3 C 0.9791(11) 0.0847(7) 0.8043(4)
C4 C 0.8614(10) 0.1189(6) 0.7515(4)
H2 H 0.8868 0.1821 0.7268
C5 C 0.6992(10) 0.0552(6) 0.7355(4)
C6 C 0.5758(10) 0.0826(6) 0.6791(4)
C7 C 0.4467(10) 0.2323(6) 0.6102(4)
H3 H 0.4887 0.2883 0.5770
C8 C 0.3165(9) 0.1531(7) 0.5700(4)
C9 C 0.2165(10) 0.1817(7) 0.5110(4)
C10 C 0.1037(11) 0.1059(9) 0.4748(5)
C11 C 0.0924(10) 0.0041(8) 0.5003(5)
H4 H 0.0154 -0.0463 0.4774
C12 C 0.1920(11) -0.0252(7) 0.5588(4)
H5 H 0.1875 -0.0967 0.5736
C13 C 0.3024(9) 0.0491(6) 0.5982(4)
C14 C 0.4155(10) 0.0228(6) 0.6613(4)
C15 C 0.3725(11) -0.0687(6) 0.7047(5)
H6 H 0.2630 -0.1095 0.6958
C16 C 0.4913(13) -0.0958(6) 0.7586(5)
H7 H 0.4593 -0.1556 0.7859
C17 C 0.6588(12) -0.0398(6) 0.7759(4)
C18 C 1.2074(13) 0.0647(9) 0.8861(5)
H8 H 1.2161 0.1041 0.9305
H9 H 1.3348 0.0389 0.8740
C19 C 0.7638(10) 0.1604(7) 0.5827(4)
H10 H 0.7177 0.1087 0.5489
H11 H 0.8793 0.1339 0.6044
H12 H 0.7903 0.2273 0.5591
C20 C 0.3156(13) 0.3096(8) 0.4246(5)
H13 H 0.2567 0.2682 0.3875
H14 H 0.4486 0.2900 0.4286
H15 H 0.3056 0.3850 0.4136
C21 C -0.1369(13) 0.0759(8) 0.3868(5)
H16 H -0.2305 0.0541 0.4213
H17 H -0.0728 0.0133 0.3684
H18 H -0.1998 0.1133 0.3488
C22 C 0.7633(10) 0.4705(6) 0.7899(4)
H19 H 0.8493 0.4179 0.7676
C23 C 0.6623(11) 0.5283(6) 0.7285(4)
H20 H 0.5599 0.5736 0.7467
H21 H 0.7532 0.5737 0.7035
C24 C 0.5807(10) 0.4446(6) 0.6787(4)
H22 H 0.4975 0.4802 0.6447
H23 H 0.6854 0.4118 0.6525
C25 C 0.4679(9) 0.3570(5) 0.7156(4)
C26 C 0.4886(9) 0.3437(6) 0.7845(4)
H24 H 0.4130 0.2908 0.8055
C27 C 0.6207(10) 0.4045(6) 0.8324(4)
H25 H 0.5405 0.4562 0.8582
C28 C 0.7211(11) 0.3348(6) 0.8891(4)
H26 H 0.8039 0.2844 0.8632
C29 C 0.8560(12) 0.4049(8) 0.9342(5)
H27 H 0.7794 0.4524 0.9636
H28 H 0.9303 0.3587 0.9653
C30 C 0.9940(11) 0.4730(7) 0.8894(5)
H29 H 1.0682 0.5190 0.9207
H30 H 1.0831 0.4253 0.8653
C31 C 0.8932(11) 0.5430(7) 0.8345(4)
C32 C 0.3388(9) 0.2875(6) 0.6723(4)
H31 H 0.2351 0.3311 0.6533
H32 H 0.2825 0.2326 0.7024
C33 C 0.5897(13) 0.2655(7) 0.9354(4)
H33 H 0.5089 0.2234 0.9031
C34 C 0.4543(14) 0.3303(8) 0.9819(5)
H34 H 0.3811 0.3789 0.9529
H35 H 0.5275 0.3708 1.0159
H36 H 0.3687 0.2823 1.0063
C35 C 0.7007(15) 0.1844(7) 0.9808(5)
H37 H 0.6116 0.1401 1.0065
H38 H 0.7816 0.2223 1.0136
H39 H 0.7785 0.1398 0.9507
C36 C 0.7812(12) 0.6342(7) 0.8703(5)
H40 H 0.7268 0.6803 0.8347
H41 H 0.8665 0.6752 0.8998
H42 H 0.6802 0.6042 0.8987
C37 C 1.1668(13) 0.6595(8) 0.8101(5)
H43 H 1.2372 0.6267 0.8481
H44 H 1.1047 0.7236 0.8270
H45 H 1.2535 0.6777 0.7723
loop_
_geom_bond_atom_site_label_1
_geom_bond_atom_site_label_2
_geom_bond_site_symmetry_1
_geom_bond_site_symmetry_2
N1 C6 1_555 1_555
O1 C2 1_555 1_555
O2 C3 1_555 1_555
O3 C9 1_555 1_555
O4 C10 1_555 1_555
O5 C31 1_555 1_555
C1 H1 1_555 1_555
C2 C1 1_555 1_555
C3 C2 1_555 1_555
C4 C3 1_555 1_555
H2 C4 1_555 1_555
C5 C4 1_555 1_555
C6 C5 1_555 1_555
C7 N1 1_555 1_555
H3 C7 1_555 1_555
C8 C7 1_555 1_555
C9 C8 1_555 1_555
C10 C9 1_555 1_555
C11 C10 1_555 1_555
H4 C11 1_555 1_555
C12 C11 1_555 1_555
H5 C12 1_555 1_555
C13 C8 1_555 1_555
C14 C6 1_555 1_555
C15 C14 1_555 1_555
H6 C15 1_555 1_555
C16 C15 1_555 1_555
H7 C16 1_555 1_555
C17 C1 1_555 1_555
C18 O1 1_555 1_555
H8 C18 1_555 1_555
H9 C18 1_555 1_555
C19 N1 1_555 1_555
H10 C19 1_555 1_555
H11 C19 1_555 1_555
H12 C19 1_555 1_555
C20 O3 1_555 1_555
H13 C20 1_555 1_555
H14 C20 1_555 1_555
H15 C20 1_555 1_555
C21 O4 1_555 1_555
H16 C21 1_555 1_555
H17 C21 1_555 1_555
H18 C21 1_555 1_555
C22 H19 1_555 1_555
C23 C22 1_555 1_555
H20 C23 1_555 1_555
H21 C23 1_555 1_555
C24 C23 1_555 1_555
H22 C24 1_555 1_555
H23 C24 1_555 1_555
C25 C24 1_555 1_555
C26 C25 1_555 1_555
H24 C26 1_555 1_555
C27 C22 1_555 1_555
H25 C27 1_555 1_555
C28 C27 1_555 1_555
H26 C28 1_555 1_555
C29 C28 1_555 1_555
H27 C29 1_555 1_555
H28 C29 1_555 1_555
C30 C29 1_555 1_555
H29 C30 1_555 1_555
H30 C30 1_555 1_555
C31 C22 1_555 1_555
C32 C7 1_555 1_555
H31 C32 1_555 1_555
H32 C32 1_555 1_555
C33 C28 1_555 1_555
H33 C33 1_555 1_555
C34 C33 1_555 1_555
H34 C34 1_555 1_555
H35 C34 1_555 1_555
H36 C34 1_555 1_555
C35 C33 1_555 1_555
H37 C35 1_555 1_555
H38 C35 1_555 1_555
H39 C35 1_555 1_555
C36 C31 1_555 1_555
H40 C36 1_555 1_555
H41 C36 1_555 1_555
H42 C36 1_555 1_555
C37 O5 1_555 1_555
H43 C37 1_555 1_555
H44 C37 1_555 1_555
H45 C37 1_555 1_555
O2 C18 1_555 1_555
C5 C17 1_555 1_555
C12 C13 1_555 1_555
C13 C14 1_555 1_555
C16 C17 1_555 1_555
C25 C32 1_555 1_555
C26 C27 1_555 1_555
C30 C31 1_555 1_555

#END
