
#######################################################################
#
#                 Cambridge Crystallographic Data Centre
#                                CCDC 
#
#######################################################################
#
# If this CIF has been generated from an entry in the Cambridge 
# Structural Database, then it will include bibliographic, chemical, 
# crystal, experimental, refinement or atomic coordinate data resulting 
# from the CCDC's data processing and validation procedures.
#
#######################################################################

data_KORKAF
_chemical_formula_moiety         'C18 H19 N1 O6'
_chemical_name_systematic        
'methyl 3-(3,4,5-trimethoxybenzoyl)-1H-azepine-1-carboxylate'
_symmetry_cell_setting           monoclinic
_symmetry_space_group_name_H-M   'P 21/n'
_symmetry_Int_Tables_number      14
_space_group_name_Hall           '-P 2yn'
loop_
_symmetry_equiv_pos_site_id
_symmetry_equiv_pos_as_xyz
1 x,y,z
2 1/2-x,1/2+y,1/2-z
3 -x,-y,-z
4 1/2+x,1/2-y,1/2+z
_cell_length_a                   16.884(5)
_cell_length_b                   4.0939(13)
_cell_length_c                   25.208(7)
_cell_angle_alpha                90
_cell_angle_beta                 107.351(7)
_cell_angle_gamma                90
_cell_volume                     1663.13
_exptl_crystal_colour            green
_exptl_crystal_description       prismatic
_cell_formula_units_Z            4
loop_
_atom_site_label
_atom_site_type_symbol
_atom_site_fract_x
_atom_site_fract_y
_atom_site_fract_z
N1 N 0.04497(12) 1.0116(6) 0.82490(8)
O1 O 0.33653(11) 0.9105(6) 0.88506(8)
O2 O 0.43022(11) 0.7028(5) 1.09217(7)
O3 O 0.30872(11) 0.9412(5) 1.12915(7)
O4 O 0.17871(10) 1.2462(5) 1.06198(7)
O5 O -0.00147(12) 1.2193(6) 0.89275(8)
O6 O -0.08872(11) 1.1405(6) 0.80678(8)
C1 C 0.02867(17) 0.8812(8) 0.77058(11)
H1 H -0.0171 0.7461 0.7567
C2 C 0.07702(18) 0.9467(8) 0.73894(11)
H2 H 0.0620 0.8557 0.7035
C3 C 0.15063(18) 1.1457(8) 0.75448(12)
H3 H 0.1636 1.2559 0.7259
C4 C 0.20226(17) 1.1888(7) 0.80570(11)
H4 H 0.2470 1.3285 0.8093
C5 C 0.19525(15) 1.0384(6) 0.85634(10)
C6 C 0.12372(15) 0.9464(7) 0.86385(10)
H5 H 0.1253 0.8338 0.8962
C7 C 0.27565(15) 0.9678(7) 0.89988(10)
C8 C 0.28276(14) 0.9760(6) 0.96066(10)
C9 C 0.35311(15) 0.8334(6) 0.99668(10)
H6 H 0.3929 0.7388 0.9828
C10 C 0.36373(14) 0.8327(7) 1.05300(10)
C11 C 0.30310(15) 0.9715(7) 1.07373(10)
C12 C 0.23377(15) 1.1185(7) 1.03770(10)
C13 C 0.22352(15) 1.1251(7) 0.98136(10)
H7 H 0.1776 1.2279 0.9573
C14 C -0.01505(16) 1.1304(7) 0.84538(11)
C15 C -0.15606(17) 1.2678(10) 0.82498(14)
H8 H -0.1661 1.1244 0.8524
H9 H -0.2052 1.2828 0.7938
H10 H -0.1416 1.4808 0.8408
C16 C 0.49357(16) 0.5545(8) 1.07364(12)
H11 H 0.4693 0.3932 1.0459
H12 H 0.5334 0.4521 1.1045
H13 H 0.5207 0.7183 1.0580
C17 C 0.3610(2) 1.1614(9) 1.16623(12)
H14 H 0.4161 1.1459 1.1630
H15 H 0.3620 1.1091 1.2036
H16 H 0.3405 1.3798 1.1575
C18 C 0.10285(17) 1.3745(8) 1.02640(12)
H17 H 0.1147 1.5532 1.0053
H18 H 0.0690 1.4503 1.0484
H19 H 0.0739 1.2065 1.0016
loop_
_geom_bond_atom_site_label_1
_geom_bond_atom_site_label_2
_geom_bond_site_symmetry_1
_geom_bond_site_symmetry_2
N1 C1 1_555 1_555
O1 C7 1_555 1_555
O2 C10 1_555 1_555
O3 C11 1_555 1_555
O4 C12 1_555 1_555
O5 C14 1_555 1_555
O6 C14 1_555 1_555
C1 H1 1_555 1_555
C2 C1 1_555 1_555
H2 C2 1_555 1_555
C3 C2 1_555 1_555
H3 C3 1_555 1_555
C4 C3 1_555 1_555
H4 C4 1_555 1_555
C5 C4 1_555 1_555
C6 N1 1_555 1_555
H5 C6 1_555 1_555
C7 C5 1_555 1_555
C8 C7 1_555 1_555
C9 C8 1_555 1_555
H6 C9 1_555 1_555
C10 C9 1_555 1_555
C11 C10 1_555 1_555
C12 C11 1_555 1_555
C13 C8 1_555 1_555
H7 C13 1_555 1_555
C14 N1 1_555 1_555
C15 O6 1_555 1_555
H8 C15 1_555 1_555
H9 C15 1_555 1_555
H10 C15 1_555 1_555
C16 O2 1_555 1_555
H11 C16 1_555 1_555
H12 C16 1_555 1_555
H13 C16 1_555 1_555
C17 O3 1_555 1_555
H14 C17 1_555 1_555
H15 C17 1_555 1_555
H16 C17 1_555 1_555
C18 O4 1_555 1_555
H17 C18 1_555 1_555
H18 C18 1_555 1_555
H19 C18 1_555 1_555
C5 C6 1_555 1_555
C12 C13 1_555 1_555

#END
