
#######################################################################
#
#                 Cambridge Crystallographic Data Centre
#                                CCDC 
#
#######################################################################
#
# If this CIF has been generated from an entry in the Cambridge 
# Structural Database, then it will include bibliographic, chemical, 
# crystal, experimental, refinement or atomic coordinate data resulting 
# from the CCDC's data processing and validation procedures.
#
#######################################################################

data_KORKUZ
_chemical_formula_moiety         'C19 H14 Br1 N3 O3'
_chemical_name_systematic        
2-(3-bromo-1-(methoxycarbonyl)-1,2-dihydroquinolin-2-yl)-2-diazonio-1-phenylethenolate
_symmetry_cell_setting           monoclinic
_symmetry_space_group_name_H-M   'P 21/n'
_symmetry_Int_Tables_number      14
_space_group_name_Hall           '-P 2yn'
loop_
_symmetry_equiv_pos_site_id
_symmetry_equiv_pos_as_xyz
1 x,y,z
2 1/2-x,1/2+y,1/2-z
3 -x,-y,-z
4 1/2+x,1/2-y,1/2+z
_cell_length_a                   10.1042(10)
_cell_length_b                   11.7616(13)
_cell_length_c                   14.7663(15)
_cell_angle_alpha                90
_cell_angle_beta                 90.709(2)
_cell_angle_gamma                90
_cell_volume                     1754.72
_exptl_crystal_colour            colorless
_exptl_crystal_description       prismatic
_cell_formula_units_Z            4
loop_
_atom_site_label
_atom_site_type_symbol
_atom_site_fract_x
_atom_site_fract_y
_atom_site_fract_z
Br1 Br 0.61318(3) 0.21081(3) 0.17916(2)
N1 N 0.29437(17) 0.34877(16) 0.04518(12)
N2 N 0.3698(2) 0.10497(18) -0.01907(14)
N3 N 0.4158(3) 0.0791(2) -0.08528(18)
O1 O 0.24157(19) 0.08297(17) 0.19616(11)
O2 O 0.13772(16) 0.48786(15) 0.05919(12)
O3 O 0.14587(16) 0.34006(16) 0.15562(12)
C1 C 0.3420(2) 0.38559(19) -0.03993(15)
C2 C 0.2595(2) 0.4287(2) -0.10744(16)
H1 H 0.1688 0.4337 -0.0980
C3 C 0.3116(3) 0.4641(2) -0.18833(17)
H2 H 0.2562 0.4945 -0.2329
C4 C 0.4457(3) 0.4548(2) -0.20374(17)
H3 H 0.4803 0.4791 -0.2585
C5 C 0.5277(3) 0.4098(2) -0.13851(16)
H4 H 0.6177 0.4026 -0.1499
C6 C 0.4788(2) 0.37483(19) -0.05582(15)
C7 C 0.5635(2) 0.3281(2) 0.01530(17)
H5 H 0.6549 0.3359 0.0120
C8 C 0.5104(2) 0.27472(19) 0.08443(16)
C9 C 0.3647(2) 0.2554(2) 0.09181(15)
H6 H 0.3426 0.2599 0.1562
C10 C 0.3231(2) 0.13861(19) 0.05859(15)
C11 C 0.2531(2) 0.0589(2) 0.11624(16)
C12 C 0.1951(2) -0.0484(2) 0.07910(15)
C13 C 0.1471(2) -0.0588(2) -0.00873(16)
H7 H 0.1544 0.0018 -0.0488
C14 C 0.0883(3) -0.1587(2) -0.03688(19)
H8 H 0.0553 -0.1651 -0.0957
C15 C 0.0783(3) -0.2489(2) 0.0216(2)
H9 H 0.0397 -0.3165 0.0021
C16 C 0.1251(3) -0.2392(2) 0.1087(2)
H10 H 0.1176 -0.3003 0.1483
C17 C 0.1829(2) -0.1400(2) 0.13786(17)
H11 H 0.2139 -0.1339 0.1972
C18 C 0.1875(2) 0.4010(2) 0.08497(16)
C19 C 0.0341(3) 0.3875(3) 0.2030(2)
H12 H 0.0562 0.4622 0.2245
H13 H 0.0127 0.3397 0.2534
H14 H -0.0407 0.3921 0.1624
loop_
_geom_bond_atom_site_label_1
_geom_bond_atom_site_label_2
_geom_bond_site_symmetry_1
_geom_bond_site_symmetry_2
Br1 C8 1_555 1_555
N1 C1 1_555 1_555
N2 N3 1_555 1_555
O1 C11 1_555 1_555
O2 C18 1_555 1_555
O3 C18 1_555 1_555
C1 C2 1_555 1_555
C2 H1 1_555 1_555
C3 C2 1_555 1_555
H2 C3 1_555 1_555
C4 C3 1_555 1_555
H3 C4 1_555 1_555
C5 C4 1_555 1_555
H4 C5 1_555 1_555
C6 C1 1_555 1_555
C7 C6 1_555 1_555
H5 C7 1_555 1_555
C8 C7 1_555 1_555
C9 N1 1_555 1_555
H6 C9 1_555 1_555
C10 N2 1_555 1_555
C11 C10 1_555 1_555
C12 C11 1_555 1_555
C13 C12 1_555 1_555
H7 C13 1_555 1_555
C14 C13 1_555 1_555
H8 C14 1_555 1_555
C15 C14 1_555 1_555
H9 C15 1_555 1_555
C16 C15 1_555 1_555
H10 C16 1_555 1_555
C17 C12 1_555 1_555
H11 C17 1_555 1_555
C18 N1 1_555 1_555
C19 O3 1_555 1_555
H12 C19 1_555 1_555
H13 C19 1_555 1_555
H14 C19 1_555 1_555
C5 C6 1_555 1_555
C8 C9 1_555 1_555
C9 C10 1_555 1_555
C16 C17 1_555 1_555

#END
