
#######################################################################
#
#                 Cambridge Crystallographic Data Centre
#                                CCDC 
#
#######################################################################
#
# If this CIF has been generated from an entry in the Cambridge 
# Structural Database, then it will include bibliographic, chemical, 
# crystal, experimental, refinement or atomic coordinate data resulting 
# from the CCDC's data processing and validation procedures.
#
#######################################################################

data_KOSNIR
_chemical_formula_moiety         'C21 H19 N1 O2 S1,C4 H9 N1 O1'
_chemical_name_systematic        
'1-((4-methylphenyl)sulfonyl)-2,3-diphenylaziridine N,N-dimethylacetamide solvate'
_symmetry_cell_setting           monoclinic
_symmetry_space_group_name_H-M   'P 21'
_symmetry_Int_Tables_number      4
_space_group_name_Hall           'P 2yb'
loop_
_symmetry_equiv_pos_site_id
_symmetry_equiv_pos_as_xyz
1 x,y,z
2 -x,1/2+y,-z
_cell_length_a                   11.181(7)
_cell_length_b                   5.799(4)
_cell_length_c                   17.588(11)
_cell_angle_alpha                90
_cell_angle_beta                 96.723(11)
_cell_angle_gamma                90
_cell_volume                     1132.54
_exptl_crystal_colour            colorless
_exptl_crystal_description       rod
_cell_formula_units_Z            2
loop_
_atom_site_label
_atom_site_type_symbol
_atom_site_fract_x
_atom_site_fract_y
_atom_site_fract_z
N1 N 0.7755(4) 1.1059(8) 0.6406(2)
C1 C 0.7100(4) 0.8867(9) 0.6494(3)
H1 H 0.6643 0.8266 0.6012
C2 C 0.8462(4) 0.8873(9) 0.6502(3)
H2 H 0.8744 0.8289 0.6018
C3 C 0.9352(5) 0.8621(9) 0.7182(3)
C4 C 0.9595(5) 1.0356(10) 0.7730(3)
H3 H 0.9155 1.1759 0.7681
C5 C 1.0485(5) 1.0038(11) 0.8351(3)
H4 H 1.0628 1.1212 0.8728
C6 C 1.1163(5) 0.8015(10) 0.8422(3)
H5 H 1.1780 0.7820 0.8837
C7 C 1.0923(5) 0.6267(11) 0.7871(3)
H6 H 1.1373 0.4874 0.7914
C8 C 1.0025(5) 0.6586(10) 0.7263(3)
H7 H 0.9864 0.5393 0.6896
C9 C 0.6474(4) 0.8594(9) 0.7195(3)
C10 C 0.5854(5) 0.6547(10) 0.7276(3)
H8 H 0.5862 0.5365 0.6903
C11 C 0.5217(5) 0.6225(11) 0.7910(3)
H9 H 0.4778 0.4839 0.7953
C12 C 0.5220(5) 0.7900(10) 0.8473(3)
H10 H 0.4797 0.7667 0.8904
C13 C 0.5859(5) 0.9940(11) 0.8389(3)
H11 H 0.5881 1.1098 0.8772
C14 C 0.6464(5) 1.0293(10) 0.7750(3)
H12 H 0.6872 1.1708 0.7693
S1 S 0.76103(10) 1.2481(2) 0.55768(6)
O1 O 0.8735(3) 1.3701(7) 0.55636(19)
O2 O 0.6503(3) 1.3754(6) 0.55630(18)
C15 C 0.7450(4) 1.0438(9) 0.4823(3)
C16 C 0.6310(4) 0.9583(9) 0.4558(3)
H13 H 0.5613 1.0190 0.4747
C17 C 0.6209(4) 0.7850(10) 0.4020(3)
H14 H 0.5435 0.7257 0.3841
C18 C 0.7218(4) 0.6949(9) 0.3733(3)
C19 C 0.8360(4) 0.7834(10) 0.4007(3)
H15 H 0.9052 0.7235 0.3811
C20 C 0.8499(4) 0.9561(9) 0.4557(3)
H16 H 0.9273 1.0129 0.4748
C21 C 0.7116(6) 0.5040(12) 0.3141(3)
H17 H 0.6267 0.4643 0.3004
H18 H 0.7557 0.3679 0.3352
H19 H 0.7460 0.5564 0.2683
O3 O 0.3429(4) 0.8939(8) 1.0079(3)
C22 C 0.3061(10) 1.097(2) 0.9944(7)
C23 C 0.3402(5) 1.2709(14) 0.9384(3)
H20 H 0.4071 1.2111 0.9128
H21 H 0.3650 1.4142 0.9652
H22 H 0.2710 1.3014 0.9002
N2 N 0.2097(8) 1.1662(16) 1.0358(5)
C24 C 0.1798(5) 1.0096(12) 1.0958(3)
H23 H 0.2207 0.8618 1.0911
H24 H 0.0925 0.9848 1.0906
H25 H 0.2060 1.0772 1.1461
C25 C 0.1645(7) 1.4040(14) 1.0226(4)
H26 H 0.1974 1.4694 0.9781
H27 H 0.1898 1.4984 1.0679
H28 H 0.0764 1.4019 1.0132
H29? H 0.3905 1.1341 0.9342
H30? H 0.3918 1.4042 0.9528
H31? H 0.2925 1.3006 0.8890
H32? H 0.1308 1.1485 1.0992
H33? H 0.2295 0.9843 1.1448
H34? H 0.1269 0.8764 1.0841
N3? N 0.2573(10) 1.230(2) 0.9984(6)
H35? H 0.1213 1.3348 1.0623
H36? H 0.1071 1.4440 0.9781
H37? H 0.2062 1.5436 1.0428
C26? C 0.2654(13) 1.042(3) 1.0291(8)
loop_
_geom_bond_atom_site_label_1
_geom_bond_atom_site_label_2
_geom_bond_site_symmetry_1
_geom_bond_site_symmetry_2
N1 C1 1_555 1_555
C1 H1 1_555 1_555
C2 N1 1_555 1_555
H2 C2 1_555 1_555
C3 C2 1_555 1_555
C4 C3 1_555 1_555
H3 C4 1_555 1_555
C5 C4 1_555 1_555
H4 C5 1_555 1_555
C6 C5 1_555 1_555
H5 C6 1_555 1_555
C7 C6 1_555 1_555
H6 C7 1_555 1_555
C8 C3 1_555 1_555
H7 C8 1_555 1_555
C9 C1 1_555 1_555
C10 C9 1_555 1_555
H8 C10 1_555 1_555
C11 C10 1_555 1_555
H9 C11 1_555 1_555
C12 C11 1_555 1_555
H10 C12 1_555 1_555
C13 C12 1_555 1_555
H11 C13 1_555 1_555
C14 C9 1_555 1_555
H12 C14 1_555 1_555
S1 N1 1_555 1_555
O1 S1 1_555 1_555
O2 S1 1_555 1_555
C15 S1 1_555 1_555
C16 C15 1_555 1_555
H13 C16 1_555 1_555
C17 C16 1_555 1_555
H14 C17 1_555 1_555
C18 C17 1_555 1_555
C19 C18 1_555 1_555
H15 C19 1_555 1_555
C20 C15 1_555 1_555
H16 C20 1_555 1_555
C21 C18 1_555 1_555
H17 C21 1_555 1_555
H18 C21 1_555 1_555
H19 C21 1_555 1_555
O3 C22 1_555 1_555
C22 C23 1_555 1_555
C23 H20 1_555 1_555
H21 C23 1_555 1_555
H22 C23 1_555 1_555
N2 C22 1_555 1_555
C24 N2 1_555 1_555
H23 C24 1_555 1_555
H24 C24 1_555 1_555
H25 C24 1_555 1_555
C25 N2 1_555 1_555
H26 C25 1_555 1_555
H27 C25 1_555 1_555
H28 C25 1_555 1_555
C1 C2 1_555 1_555
C7 C8 1_555 1_555
C13 C14 1_555 1_555
C19 C20 1_555 1_555

#END
