
#######################################################################
#
#                 Cambridge Crystallographic Data Centre
#                                CCDC 
#
#######################################################################
#
# If this CIF has been generated from an entry in the Cambridge 
# Structural Database, then it will include bibliographic, chemical, 
# crystal, experimental, refinement or atomic coordinate data resulting 
# from the CCDC's data processing and validation procedures.
#
#######################################################################

data_KOSQEQ
_chemical_formula_moiety         'C17 H17 N1 O2 S1'
_chemical_name_systematic        
1-((4-methylphenyl)sulfonyl)-1a,2,3,7b-tetrahydro-1H-naphtho[1,2-b]azirene
_symmetry_cell_setting           orthorhombic
_symmetry_space_group_name_H-M   'P n a 21'
_symmetry_Int_Tables_number      33
_space_group_name_Hall           'P 2c -2n'
loop_
_symmetry_equiv_pos_site_id
_symmetry_equiv_pos_as_xyz
1 x,y,z
2 -x,-y,1/2+z
3 1/2+x,1/2-y,z
4 1/2-x,1/2+y,1/2+z
_cell_length_a                   18.983(7)
_cell_length_b                   8.172(3)
_cell_length_c                   19.434(7)
_cell_angle_alpha                90
_cell_angle_beta                 90
_cell_angle_gamma                90
_cell_volume                     3014.78
_exptl_crystal_colour            colorless
_exptl_crystal_description       block
_cell_formula_units_Z            8
loop_
_atom_site_label
_atom_site_type_symbol
_atom_site_fract_x
_atom_site_fract_y
_atom_site_fract_z
N1 N 0.27840(13) 0.5398(3) 0.45665(13)
C1 C 0.33100(15) 0.4463(4) 0.41318(16)
H1 H 0.3689 0.3856 0.4382
C2 C 0.33398(16) 0.6285(4) 0.41538(17)
H2 H 0.3738 0.6792 0.4415
C3 C 0.30577(19) 0.7217(4) 0.35505(19)
H3 H 0.3440 0.7374 0.3210
H4 H 0.2902 0.8312 0.3706
C4 C 0.24399(17) 0.6344(4) 0.32029(17)
H5 H 0.2019 0.6433 0.3501
H6 H 0.2332 0.6900 0.2763
C5 C 0.23146(17) 0.3789(4) 0.24846(16)
H7 H 0.2030 0.4395 0.2174
C6 C 0.2449(2) 0.2155(4) 0.23505(18)
H8 H 0.2248 0.1639 0.1959
C7 C 0.28826(19) 0.1276(4) 0.27957(18)
H9 H 0.2992 0.0166 0.2699
C8 C 0.31542(18) 0.2018(4) 0.33806(16)
H10 H 0.3442 0.1410 0.3689
C9 C 0.30044(16) 0.3658(4) 0.35154(15)
C10 C 0.25869(16) 0.4562(4) 0.30631(16)
S1 S 0.29130(4) 0.54523(9) 0.54091(4)
O1 O 0.36338(11) 0.5074(3) 0.55842(11)
O2 O 0.26374(12) 0.6988(2) 0.56416(11)
C11 C 0.23776(15) 0.3850(3) 0.57050(15)
C12 C 0.25914(16) 0.2241(3) 0.56082(16)
H11 H 0.3011 0.2002 0.5361
C13 C 0.21853(17) 0.0993(4) 0.58765(18)
H12 H 0.2332 -0.0108 0.5813
C14 C 0.15693(18) 0.1304(4) 0.62355(17)
C15 C 0.13599(17) 0.2923(4) 0.63193(19)
H13 H 0.0938 0.3158 0.6562
C16 C 0.17561(16) 0.4194(4) 0.60553(16)
H14 H 0.1605 0.5294 0.6113
C17 C 0.1125(2) -0.0070(5) 0.6515(2)
H15 H 0.1355 -0.1118 0.6418
H16 H 0.0660 -0.0048 0.6294
H17 H 0.1069 0.0063 0.7013
N2 N 0.47859(13) -0.0308(3) 0.59157(13)
C18 C 0.42402(15) 0.0550(4) 0.63490(15)
H18 H 0.3856 0.1132 0.6095
C19 C 0.42445(16) -0.1258(4) 0.62997(17)
H19 H 0.3861 -0.1771 0.6021
C20 C 0.45185(18) -0.2236(4) 0.69019(18)
H20 H 0.4712 -0.3286 0.6732
H21 H 0.4124 -0.2486 0.7217
C21 C 0.50907(18) -0.1322(4) 0.72968(18)
H22 H 0.5188 -0.1911 0.7732
H23 H 0.5529 -0.1324 0.7021
C22 C 0.50998(18) 0.1189(4) 0.80665(17)
H24 H 0.5364 0.0588 0.8395
C23 C 0.4929(2) 0.2801(4) 0.82006(19)
H25 H 0.5082 0.3299 0.8616
C24 C 0.45401(19) 0.3688(4) 0.77376(18)
H26 H 0.4422 0.4794 0.7835
C25 C 0.43192(18) 0.2970(4) 0.71268(17)
H27 H 0.4051 0.3581 0.6804
C26 C 0.44955(16) 0.1337(4) 0.69907(15)
C27 C 0.48930(16) 0.0433(4) 0.74625(16)
S2 S 0.46742(4) -0.02513(9) 0.50701(4)
O3 O 0.39559(11) 0.0126(3) 0.48905(11)
O4 O 0.49661(12) -0.1739(3) 0.48088(12)
C28 C 0.52132(16) 0.1397(3) 0.48348(15)
C29 C 0.49979(16) 0.2981(3) 0.50030(17)
H28 H 0.4571 0.3155 0.5248
C30 C 0.54113(18) 0.4291(4) 0.48102(18)
H29 H 0.5263 0.5372 0.4917
C31 C 0.60430(19) 0.4048(4) 0.44618(18)
C32 C 0.62371(17) 0.2468(4) 0.42912(19)
H30 H 0.6660 0.2296 0.4039
C33 C 0.58343(18) 0.1133(4) 0.44769(17)
H31 H 0.5980 0.0055 0.4362
C34 C 0.6505(2) 0.5492(5) 0.4275(2)
H32 H 0.6284 0.6505 0.4436
H33 H 0.6564 0.5538 0.3774
H34 H 0.6967 0.5367 0.4494
loop_
_geom_bond_atom_site_label_1
_geom_bond_atom_site_label_2
_geom_bond_site_symmetry_1
_geom_bond_site_symmetry_2
N1 C1 1_555 1_555
C1 H1 1_555 1_555
C2 N1 1_555 1_555
H2 C2 1_555 1_555
C3 C2 1_555 1_555
H3 C3 1_555 1_555
H4 C3 1_555 1_555
C4 C3 1_555 1_555
H5 C4 1_555 1_555
H6 C4 1_555 1_555
C5 H7 1_555 1_555
C6 C5 1_555 1_555
H8 C6 1_555 1_555
C7 C6 1_555 1_555
H9 C7 1_555 1_555
C8 C7 1_555 1_555
H10 C8 1_555 1_555
C9 C1 1_555 1_555
C10 C4 1_555 1_555
S1 N1 1_555 1_555
O1 S1 1_555 1_555
O2 S1 1_555 1_555
C11 S1 1_555 1_555
C12 C11 1_555 1_555
H11 C12 1_555 1_555
C13 C12 1_555 1_555
H12 C13 1_555 1_555
C14 C13 1_555 1_555
C15 C14 1_555 1_555
H13 C15 1_555 1_555
C16 C11 1_555 1_555
H14 C16 1_555 1_555
C17 C14 1_555 1_555
H15 C17 1_555 1_555
H16 C17 1_555 1_555
H17 C17 1_555 1_555
N2 C18 1_555 1_555
C18 H18 1_555 1_555
C19 N2 1_555 1_555
H19 C19 1_555 1_555
C20 C19 1_555 1_555
H20 C20 1_555 1_555
H21 C20 1_555 1_555
C21 C20 1_555 1_555
H22 C21 1_555 1_555
H23 C21 1_555 1_555
C22 H24 1_555 1_555
C23 C22 1_555 1_555
H25 C23 1_555 1_555
C24 C23 1_555 1_555
H26 C24 1_555 1_555
C25 C24 1_555 1_555
H27 C25 1_555 1_555
C26 C18 1_555 1_555
C27 C21 1_555 1_555
S2 N2 1_555 1_555
O3 S2 1_555 1_555
O4 S2 1_555 1_555
C28 S2 1_555 1_555
C29 C28 1_555 1_555
H28 C29 1_555 1_555
C30 C29 1_555 1_555
H29 C30 1_555 1_555
C31 C30 1_555 1_555
C32 C31 1_555 1_555
H30 C32 1_555 1_555
C33 C28 1_555 1_555
H31 C33 1_555 1_555
C34 C31 1_555 1_555
H32 C34 1_555 1_555
H33 C34 1_555 1_555
H34 C34 1_555 1_555
C1 C2 1_555 1_555
C5 C10 1_555 1_555
C8 C9 1_555 1_555
C9 C10 1_555 1_555
C15 C16 1_555 1_555
C18 C19 1_555 1_555
C22 C27 1_555 1_555
C25 C26 1_555 1_555
C26 C27 1_555 1_555
C32 C33 1_555 1_555

#END
