
#######################################################################
#
#                 Cambridge Crystallographic Data Centre
#                                CCDC 
#
#######################################################################
#
# If this CIF has been generated from an entry in the Cambridge 
# Structural Database, then it will include bibliographic, chemical, 
# crystal, experimental, refinement or atomic coordinate data resulting 
# from the CCDC's data processing and validation procedures.
#
#######################################################################

data_KOSWAS
_chemical_formula_moiety         'C20 H36 B10 O1 Si1'
_chemical_name_systematic        
1,2,7-(5-methoxy-2-(1-(trimethylsilyl)oct-1-en-1,2,4-triyl)phenyl)-1,2-dicarba-closo-dodecborane(9)
_symmetry_cell_setting           orthorhombic
_symmetry_space_group_name_H-M   'P 21 21 21'
_symmetry_Int_Tables_number      19
_space_group_name_Hall           'P 2ac 2ab'
loop_
_symmetry_equiv_pos_site_id
_symmetry_equiv_pos_as_xyz
1 x,y,z
2 1/2-x,-y,1/2+z
3 -x,1/2+y,1/2-z
4 1/2+x,1/2-y,-z
_cell_length_a                   9.713(3)
_cell_length_b                   11.460(4)
_cell_length_c                   21.611(7)
_cell_angle_alpha                90
_cell_angle_beta                 90
_cell_angle_gamma                90
_cell_volume                     2405.54
_exptl_crystal_colour            colorless
_exptl_crystal_description       block
_cell_formula_units_Z            4
loop_
_atom_site_label
_atom_site_type_symbol
_atom_site_fract_x
_atom_site_fract_y
_atom_site_fract_z
Si1 Si 0.7529(3) -0.1257(2) 0.06046(12)
O1 O 0.2463(8) -0.4155(6) 0.2016(3)
B1 B 0.4321(12) 0.1080(11) 0.1897(5)
H1 H 0.5201 0.0803 0.2198
B2 B 0.3452(13) 0.2434(12) 0.2015(7)
H2 H 0.3769 0.3050 0.2391
B3 B 0.2865(11) 0.2972(12) 0.1287(6)
H3 H 0.2784 0.3929 0.1187
B4 B 0.3379(13) 0.1957(11) 0.0716(7)
H4 H 0.3659 0.2236 0.0236
B5 B 0.3179(11) 0.0065(11) 0.1561(6)
B6 B 0.2605(13) 0.1048(10) 0.2167(5)
H5 H 0.2325 0.0746 0.2644
B7 B 0.1753(12) 0.2213(11) 0.1802(6)
H6 H 0.0907 0.2681 0.2052
B8 B 0.1695(13) 0.1948(11) 0.0998(6)
H7 H 0.0801 0.2246 0.0712
B9 B 0.2552(12) 0.0630(10) 0.0847(5)
H8 H 0.2258 0.0051 0.0451
B10 B 0.1533(12) 0.0730(10) 0.1512(6)
H9 H 0.0562 0.0211 0.1560
C1 C 0.4345(10) 0.2199(9) 0.1350(6)
C2 C 0.4184(9) 0.0872(8) 0.1126(5)
C3 C 0.5808(12) 0.2593(11) 0.1162(7)
H10 H 0.5644 0.3200 0.0838
C4 C 0.6616(11) 0.3131(12) 0.1576(7)
H11 H 0.6771 0.2581 0.1923
H12 H 0.6094 0.3801 0.1745
C5 C 0.8024(10) 0.3585(11) 0.1370(8)
H13 H 0.8582 0.3738 0.1744
H14 H 0.8489 0.2957 0.1135
C6 C 0.8029(12) 0.4669(12) 0.0979(6)
H15 H 0.7597 0.5314 0.1214
H16 H 0.7467 0.4532 0.0604
C7 C 0.9479(11) 0.5035(10) 0.0785(6)
H17 H 0.9429 0.5753 0.0539
H18 H 0.9898 0.4414 0.0536
H19 H 1.0041 0.5173 0.1154
C8 C 0.6394(10) 0.1509(10) 0.0785(5)
H20 H 0.6404 0.1696 0.0338
H21 H 0.7353 0.1349 0.0916
C9 C 0.5515(10) 0.0439(10) 0.0896(5)
C10 C 0.5858(9) -0.0710(9) 0.0933(4)
C11 C 0.8607(10) -0.0148(9) 0.0227(5)
H22 H 0.8840 0.0463 0.0526
H23 H 0.8102 0.0196 -0.0120
H24 H 0.9454 -0.0513 0.0074
C12 C 0.8589(10) -0.1897(9) 0.1236(5)
H25 H 0.8758 -0.1304 0.1553
H26 H 0.9469 -0.2166 0.1066
H27 H 0.8097 -0.2558 0.1420
C13 C 0.7172(10) -0.2346(10) -0.0019(5)
H28 H 0.8044 -0.2634 -0.0188
H29 H 0.6636 -0.1974 -0.0349
H30 H 0.6647 -0.3000 0.0154
C14 C 0.4866(9) -0.1541(9) 0.1211(5)
C15 C 0.5196(10) -0.2706(9) 0.1200(5)
H31 H 0.6019 -0.2938 0.0997
C16 C 0.4385(10) -0.3560(10) 0.1472(5)
H32 H 0.4644 -0.4359 0.1457
C17 C 0.3205(10) -0.3220(10) 0.1762(5)
C18 C 0.2836(10) -0.2093(9) 0.1805(5)
H33 H 0.2022 -0.1883 0.2022
C19 C 0.3646(9) -0.1232(8) 0.1531(4)
C20 C 0.1182(10) -0.3913(9) 0.2299(5)
H34 H 0.0779 -0.4640 0.2455
H35 H 0.0559 -0.3562 0.1994
H36 H 0.1319 -0.3369 0.2643
loop_
_geom_bond_atom_site_label_1
_geom_bond_atom_site_label_2
_geom_bond_site_symmetry_1
_geom_bond_site_symmetry_2
Si1 C10 1_555 1_555
O1 C17 1_555 1_555
B1 H1 1_555 1_555
B2 B1 1_555 1_555
H2 B2 1_555 1_555
B3 B2 1_555 1_555
H3 B3 1_555 1_555
B4 B3 1_555 1_555
H4 B4 1_555 1_555
B5 B1 1_555 1_555
B6 B1 1_555 1_555
H5 B6 1_555 1_555
B7 B2 1_555 1_555
H6 B7 1_555 1_555
B8 B3 1_555 1_555
H7 B8 1_555 1_555
B9 B4 1_555 1_555
H8 B9 1_555 1_555
B10 B5 1_555 1_555
H9 B10 1_555 1_555
C1 B1 1_555 1_555
C2 B1 1_555 1_555
C3 C1 1_555 1_555
H10 C3 1_555 1_555
C4 C3 1_555 1_555
H11 C4 1_555 1_555
H12 C4 1_555 1_555
C5 C4 1_555 1_555
H13 C5 1_555 1_555
H14 C5 1_555 1_555
C6 C5 1_555 1_555
H15 C6 1_555 1_555
H16 C6 1_555 1_555
C7 C6 1_555 1_555
H17 C7 1_555 1_555
H18 C7 1_555 1_555
H19 C7 1_555 1_555
C8 C3 1_555 1_555
H20 C8 1_555 1_555
H21 C8 1_555 1_555
C9 C2 1_555 1_555
C10 C9 1_555 1_555
C11 Si1 1_555 1_555
H22 C11 1_555 1_555
H23 C11 1_555 1_555
H24 C11 1_555 1_555
C12 Si1 1_555 1_555
H25 C12 1_555 1_555
H26 C12 1_555 1_555
H27 C12 1_555 1_555
C13 Si1 1_555 1_555
H28 C13 1_555 1_555
H29 C13 1_555 1_555
H30 C13 1_555 1_555
C14 C10 1_555 1_555
C15 C14 1_555 1_555
H31 C15 1_555 1_555
C16 C15 1_555 1_555
H32 C16 1_555 1_555
C17 C16 1_555 1_555
C18 C17 1_555 1_555
H33 C18 1_555 1_555
C19 B5 1_555 1_555
C20 O1 1_555 1_555
H34 C20 1_555 1_555
H35 C20 1_555 1_555
H36 C20 1_555 1_555
B2 B6 1_555 1_555
B2 C1 1_555 1_555
B3 B7 1_555 1_555
B3 C1 1_555 1_555
B4 B8 1_555 1_555
B4 C1 1_555 1_555
B4 C2 1_555 1_555
B5 B6 1_555 1_555
B5 B9 1_555 1_555
B5 C2 1_555 1_555
B6 B7 1_555 1_555
B6 B10 1_555 1_555
B7 B8 1_555 1_555
B7 B10 1_555 1_555
B8 B9 1_555 1_555
B8 B10 1_555 1_555
B9 B10 1_555 1_555
B9 C2 1_555 1_555
C1 C2 1_555 1_555
C8 C9 1_555 1_555
C14 C19 1_555 1_555
C18 C19 1_555 1_555

#END
