
#######################################################################
#
#                 Cambridge Crystallographic Data Centre
#                                CCDC 
#
#######################################################################
#
# If this CIF has been generated from an entry in the Cambridge 
# Structural Database, then it will include bibliographic, chemical, 
# crystal, experimental, refinement or atomic coordinate data resulting 
# from the CCDC's data processing and validation procedures.
#
#######################################################################

data_KOTFOQ
_chemical_formula_moiety         'C19 H25 N1 O2 S1'
_chemical_name_systematic        
N-(2-(4-isopropylphenyl)propan-2-yl)-4-methylbenzenesulfonamide
_symmetry_cell_setting           monoclinic
_symmetry_space_group_name_H-M   'P 21/c'
_symmetry_Int_Tables_number      14
_space_group_name_Hall           '-P 2ybc'
loop_
_symmetry_equiv_pos_site_id
_symmetry_equiv_pos_as_xyz
1 x,y,z
2 -x,1/2+y,1/2-z
3 -x,-y,-z
4 x,1/2-y,1/2+z
_cell_length_a                   10.923(2)
_cell_length_b                   18.159(4)
_cell_length_c                   19.153(4)
_cell_angle_alpha                90
_cell_angle_beta                 97.905(3)
_cell_angle_gamma                90
_cell_volume                     3762.91
_exptl_crystal_colour            colorless
_exptl_crystal_description       rod
_cell_formula_units_Z            8
loop_
_atom_site_label
_atom_site_type_symbol
_atom_site_fract_x
_atom_site_fract_y
_atom_site_fract_z
C1 C 0.0025(2) 0.37361(13) 0.10719(12)
C2 C 0.0911(3) 0.36677(14) 0.16518(14)
H1 H 0.0691 0.3464 0.2062
C3 C 0.2104(3) 0.38901(16) 0.16442(16)
H2 H 0.2668 0.3846 0.2052
C4 C 0.2487(3) 0.41749(17) 0.10528(19)
C5 C 0.1615(3) 0.42553(18) 0.04740(17)
H3 H 0.1844 0.4457 0.0065
C6 C 0.0389(3) 0.40420(17) 0.04808(13)
H4 H -0.0186 0.4108 0.0080
C7 C -0.1294(2) 0.34652(16) 0.10923(16)
C8 C -0.1256(4) 0.26452(18) 0.1283(3)
H5 H -0.2083 0.2469 0.1292
H6 H -0.0782 0.2578 0.1739
H7 H -0.0880 0.2375 0.0938
C9 C -0.2143(3) 0.3585(2) 0.03983(18)
H8 H -0.2158 0.4099 0.0280
H9 H -0.2963 0.3424 0.0448
H10 H -0.1839 0.3308 0.0031
C10 C 0.3828(3) 0.4409(2) 0.1047(3)
H11 H 0.4231 0.4164 0.1474
C11 C 0.4084(4) 0.5150(3) 0.1218(3)
H12 H 0.4949 0.5243 0.1219
H13 H 0.3865 0.5254 0.1677
H14 H 0.3612 0.5461 0.0876
C12 C 0.4425(3) 0.4047(3) 0.0512(3)
H15 H 0.5273 0.4201 0.0553
H16 H 0.4009 0.4176 0.0054
H17 H 0.4391 0.3523 0.0575
N1 N -0.18476(19) 0.38229(11) 0.16812(12)
H18 H -0.2090 0.3533 0.1989
S1 S -0.20370(6) 0.46876(3) 0.17995(3)
O1 O -0.24321(17) 0.50320(11) 0.11397(9)
O2 O -0.28141(16) 0.47259(10) 0.23423(9)
C13 C -0.0613(2) 0.50885(12) 0.21481(12)
C14 C -0.0116(3) 0.49491(15) 0.28365(13)
H19 H -0.0534 0.4651 0.3120
C15 C 0.1005(3) 0.52554(16) 0.30986(15)
H20 H 0.1338 0.5160 0.3563
C16 C 0.1648(3) 0.56987(14) 0.26942(15)
C17 C 0.1122(3) 0.58431(14) 0.20116(15)
H21 H 0.1531 0.6151 0.1732
C18 C 0.0001(2) 0.55402(13) 0.17350(13)
H22 H -0.0337 0.5641 0.1272
C19 C 0.2900(3) 0.60117(19) 0.29829(19)
H23 H 0.3120 0.5855 0.3463
H24 H 0.2866 0.6540 0.2965
H25 H 0.3508 0.5839 0.2704
C20 C 0.4741(2) 0.88884(14) 0.07134(13)
C21 C 0.5720(3) 0.89707(16) 0.12471(15)
H26 H 0.5606 0.9230 0.1652
C22 C 0.6871(3) 0.86724(19) 0.1189(2)
H27 H 0.7513 0.8737 0.1556
C23 C 0.7087(3) 0.8282(2) 0.0601(2)
C24 C 0.6109(4) 0.81987(19) 0.0085(2)
H28 H 0.6222 0.7935 -0.0318
C25 C 0.4970(3) 0.84861(17) 0.01339(15)
H29 H 0.4331 0.8409 -0.0233
C26 C 0.3493(3) 0.92460(17) 0.07765(15)
C27 C 0.2588(3) 0.9203(3) 0.00847(18)
H30 H 0.2474 0.8698 -0.0056
H31 H 0.2921 0.9473 -0.0277
H32 H 0.1808 0.9412 0.0157
C28 C 0.3672(4) 1.00565(18) 0.0990(2)
H33 H 0.4243 1.0091 0.1417
H34 H 0.2892 1.0264 0.1065
H35 H 0.3993 1.0322 0.0621
C29 C 0.8377(4) 0.7990(3) 0.0554(4)
H36 H 0.8121 0.7688 0.0135
C30 C 0.9121(4) 0.8458(4) 0.0219(3)
H37 H 0.9904 0.8225 0.0195
H38 H 0.9249 0.8909 0.0480
H39 H 0.8724 0.8562 -0.0250
C31 C 0.8773(4) 0.7396(3) 0.0984(3)
H40 H 0.9583 0.7250 0.0898
H41 H 0.8209 0.6993 0.0882
H42 H 0.8799 0.7537 0.1469
C32 C 0.4065(3) 0.76366(14) 0.18680(14)
C33 C 0.4695(3) 0.71459(15) 0.14955(16)
H43 H 0.4385 0.7024 0.1033
C34 C 0.5779(3) 0.68397(15) 0.18114(18)
H44 H 0.6198 0.6508 0.1559
C35 C 0.6266(3) 0.70143(15) 0.25015(19)
C36 C 0.5608(3) 0.74984(16) 0.28628(16)
H45 H 0.5910 0.7616 0.3327
C37 C 0.4527(3) 0.78109(16) 0.25573(15)
H46 H 0.4104 0.8138 0.2811
C38 C 0.7469(4) 0.6694(2) 0.2839(2)
H47 H 0.7660 0.6880 0.3310
H48 H 0.8114 0.6830 0.2570
H49 H 0.7403 0.6167 0.2852
N2 N 0.29008(19) 0.89037(12) 0.13535(11)
H50 H 0.2652 0.9201 0.1654
S2 S 0.26766(7) 0.80427(4) 0.14770(4)
O3 O 0.2330(2) 0.76987(14) 0.08141(12)
O4 O 0.18455(19) 0.80161(11) 0.19962(12)
loop_
_geom_bond_atom_site_label_1
_geom_bond_atom_site_label_2
_geom_bond_site_symmetry_1
_geom_bond_site_symmetry_2
C1 C2 1_555 1_555
C2 H1 1_555 1_555
C3 C2 1_555 1_555
H2 C3 1_555 1_555
C4 C3 1_555 1_555
C5 C4 1_555 1_555
H3 C5 1_555 1_555
C6 C1 1_555 1_555
H4 C6 1_555 1_555
C7 C1 1_555 1_555
C8 C7 1_555 1_555
H5 C8 1_555 1_555
H6 C8 1_555 1_555
H7 C8 1_555 1_555
C9 C7 1_555 1_555
H8 C9 1_555 1_555
H9 C9 1_555 1_555
H10 C9 1_555 1_555
C10 C4 1_555 1_555
H11 C10 1_555 1_555
C11 C10 1_555 1_555
H12 C11 1_555 1_555
H13 C11 1_555 1_555
H14 C11 1_555 1_555
C12 C10 1_555 1_555
H15 C12 1_555 1_555
H16 C12 1_555 1_555
H17 C12 1_555 1_555
N1 C7 1_555 1_555
H18 N1 1_555 1_555
S1 N1 1_555 1_555
O1 S1 1_555 1_555
O2 S1 1_555 1_555
C13 S1 1_555 1_555
C14 C13 1_555 1_555
H19 C14 1_555 1_555
C15 C14 1_555 1_555
H20 C15 1_555 1_555
C16 C15 1_555 1_555
C17 C16 1_555 1_555
H21 C17 1_555 1_555
C18 C13 1_555 1_555
H22 C18 1_555 1_555
C19 C16 1_555 1_555
H23 C19 1_555 1_555
H24 C19 1_555 1_555
H25 C19 1_555 1_555
C20 C21 1_555 1_555
C21 H26 1_555 1_555
C22 C21 1_555 1_555
H27 C22 1_555 1_555
C23 C22 1_555 1_555
C24 C23 1_555 1_555
H28 C24 1_555 1_555
C25 C20 1_555 1_555
H29 C25 1_555 1_555
C26 C20 1_555 1_555
C27 C26 1_555 1_555
H30 C27 1_555 1_555
H31 C27 1_555 1_555
H32 C27 1_555 1_555
C28 C26 1_555 1_555
H33 C28 1_555 1_555
H34 C28 1_555 1_555
H35 C28 1_555 1_555
C29 C23 1_555 1_555
H36 C29 1_555 1_555
C30 C29 1_555 1_555
H37 C30 1_555 1_555
H38 C30 1_555 1_555
H39 C30 1_555 1_555
C31 C29 1_555 1_555
H40 C31 1_555 1_555
H41 C31 1_555 1_555
H42 C31 1_555 1_555
C32 C33 1_555 1_555
C33 H43 1_555 1_555
C34 C33 1_555 1_555
H44 C34 1_555 1_555
C35 C34 1_555 1_555
C36 C35 1_555 1_555
H45 C36 1_555 1_555
C37 C32 1_555 1_555
H46 C37 1_555 1_555
C38 C35 1_555 1_555
H47 C38 1_555 1_555
H48 C38 1_555 1_555
H49 C38 1_555 1_555
N2 C26 1_555 1_555
H50 N2 1_555 1_555
S2 C32 1_555 1_555
O3 S2 1_555 1_555
O4 S2 1_555 1_555
C5 C6 1_555 1_555
C17 C18 1_555 1_555
C24 C25 1_555 1_555
C36 C37 1_555 1_555
N2 S2 1_555 1_555

#END
