
#######################################################################
#
#                 Cambridge Crystallographic Data Centre
#                                CCDC 
#
#######################################################################
#
# If this CIF has been generated from an entry in the Cambridge 
# Structural Database, then it will include bibliographic, chemical, 
# crystal, experimental, refinement or atomic coordinate data resulting 
# from the CCDC's data processing and validation procedures.
#
#######################################################################

data_KOTGEH
_chemical_formula_moiety         'C16 H19 N1 O2 S1'
_chemical_name_systematic        
4-methyl-N-(2-phenylpropan-2-yl)benzenesulfonamide
_symmetry_cell_setting           monoclinic
_symmetry_space_group_name_H-M   'P 21/c'
_symmetry_Int_Tables_number      14
_space_group_name_Hall           '-P 2ybc'
loop_
_symmetry_equiv_pos_site_id
_symmetry_equiv_pos_as_xyz
1 x,y,z
2 -x,1/2+y,1/2-z
3 -x,-y,-z
4 x,1/2-y,1/2+z
_cell_length_a                   8.736(3)
_cell_length_b                   10.298(4)
_cell_length_c                   16.885(6)
_cell_angle_alpha                90
_cell_angle_beta                 94.663(5)
_cell_angle_gamma                90
_cell_volume                     1514
_exptl_crystal_colour            colorless
_exptl_crystal_description       'rectangular parallelepiped'
_cell_formula_units_Z            4
loop_
_atom_site_label
_atom_site_type_symbol
_atom_site_fract_x
_atom_site_fract_y
_atom_site_fract_z
C1 C 0.7423(2) 0.7886(2) 0.64838(12)
C2 C 0.7808(3) 0.9154(2) 0.63355(15)
H1 H 0.7067 0.9711 0.6100
C3 C 0.9274(4) 0.9613(3) 0.65302(19)
H2 H 0.9504 1.0476 0.6430
C4 C 1.0385(4) 0.8818(4) 0.6866(2)
H3 H 1.1377 0.9127 0.6986
C5 C 1.0028(3) 0.7557(3) 0.70263(18)
H4 H 1.0781 0.7007 0.7259
C6 C 0.8562(3) 0.7097(2) 0.68451(15)
H5 H 0.8331 0.6242 0.6967
C7 C 0.5798(3) 0.7357(2) 0.62845(13)
C8 C 0.5871(3) 0.6096(3) 0.58074(16)
H6 H 0.4850 0.5770 0.5683
H7 H 0.6466 0.5464 0.6116
H8 H 0.6343 0.6265 0.5324
C9 C 0.4744(3) 0.8305(3) 0.58046(18)
H9 H 0.3749 0.7918 0.5697
H10 H 0.5172 0.8501 0.5313
H11 H 0.4650 0.9090 0.6103
N1 N 0.5070(2) 0.69841(17) 0.70254(11)
H12 H 0.4739 0.6200 0.7049
S1 S 0.48430(6) 0.78948(5) 0.77816(4)
O1 O 0.44841(19) 0.91760(15) 0.74941(11)
O2 O 0.37902(19) 0.72269(18) 0.82374(11)
C10 C 0.6596(2) 0.79831(19) 0.83768(13)
C11 C 0.7531(2) 0.9062(2) 0.83603(14)
H13 H 0.7229 0.9773 0.8045
C12 C 0.8909(3) 0.9078(3) 0.88121(15)
H14 H 0.9535 0.9807 0.8799
C13 C 0.9388(3) 0.8041(3) 0.92846(14)
C14 C 0.8415(3) 0.6983(3) 0.93069(15)
H15 H 0.8699 0.6285 0.9636
C15 C 0.7038(3) 0.6945(2) 0.88526(15)
H16 H 0.6408 0.6219 0.8867
C16 C 1.0939(4) 0.8037(4) 0.9755(2)
H17 H 1.1072 0.7235 1.0042
H18 H 1.0995 0.8749 1.0123
H19 H 1.1734 0.8124 0.9398
loop_
_geom_bond_atom_site_label_1
_geom_bond_atom_site_label_2
_geom_bond_site_symmetry_1
_geom_bond_site_symmetry_2
C1 C2 1_555 1_555
C2 H1 1_555 1_555
C3 C2 1_555 1_555
H2 C3 1_555 1_555
C4 C3 1_555 1_555
H3 C4 1_555 1_555
C5 C4 1_555 1_555
H4 C5 1_555 1_555
C6 C1 1_555 1_555
H5 C6 1_555 1_555
C7 C1 1_555 1_555
C8 C7 1_555 1_555
H6 C8 1_555 1_555
H7 C8 1_555 1_555
H8 C8 1_555 1_555
C9 C7 1_555 1_555
H9 C9 1_555 1_555
H10 C9 1_555 1_555
H11 C9 1_555 1_555
N1 C7 1_555 1_555
H12 N1 1_555 1_555
S1 N1 1_555 1_555
O1 S1 1_555 1_555
O2 S1 1_555 1_555
C10 S1 1_555 1_555
C11 C10 1_555 1_555
H13 C11 1_555 1_555
C12 C11 1_555 1_555
H14 C12 1_555 1_555
C13 C12 1_555 1_555
C14 C13 1_555 1_555
H15 C14 1_555 1_555
C15 C10 1_555 1_555
H16 C15 1_555 1_555
C16 C13 1_555 1_555
H17 C16 1_555 1_555
H18 C16 1_555 1_555
H19 C16 1_555 1_555
C5 C6 1_555 1_555
C14 C15 1_555 1_555

#END
