
#######################################################################
#
#                 Cambridge Crystallographic Data Centre
#                                CCDC 
#
#######################################################################
#
# If this CIF has been generated from an entry in the Cambridge 
# Structural Database, then it will include bibliographic, chemical, 
# crystal, experimental, refinement or atomic coordinate data resulting 
# from the CCDC's data processing and validation procedures.
#
#######################################################################

data_KOTTOE
_chemical_formula_moiety         'C24 H16 N4 O2'
_chemical_name_systematic        
2,2'-(2,9-dimethoxy-11,12-dihydrodibenzo[a,e][8]annulene-5,6-diylidene)dimalononitrile
_symmetry_cell_setting           monoclinic
_symmetry_space_group_name_H-M   'P 21/c'
_symmetry_Int_Tables_number      14
_space_group_name_Hall           '-P 2ybc'
loop_
_symmetry_equiv_pos_site_id
_symmetry_equiv_pos_as_xyz
1 x,y,z
2 -x,1/2+y,1/2-z
3 -x,-y,-z
4 x,1/2-y,1/2+z
_cell_length_a                   14.2171(6)
_cell_length_b                   9.8967(4)
_cell_length_c                   13.7926(6)
_cell_angle_alpha                90
_cell_angle_beta                 90.825(2)
_cell_angle_gamma                90
_cell_volume                     1940.45
_exptl_crystal_colour            yellow
_exptl_crystal_description       rod
_cell_formula_units_Z            4
_exptl_crystal_recrystallization_method 1,1,2,2-Tetrachloroethane
loop_
_atom_site_label
_atom_site_type_symbol
_atom_site_fract_x
_atom_site_fract_y
_atom_site_fract_z
O1 O 0.57781(5) 0.76272(8) 1.15580(6)
O2 O 0.09939(6) 1.51015(8) 0.90175(6)
N1 N 0.12195(7) 0.66331(11) 1.14968(8)
N2 N -0.00504(7) 0.89068(11) 0.90514(8)
N3 N 0.31669(9) 0.67351(11) 0.80662(8)
N4 N 0.32434(7) 1.06620(10) 0.67036(7)
C1 C 0.22756(8) 0.88498(11) 0.98574(8)
C2 C 0.31628(8) 0.85232(11) 1.03747(8)
C3 C 0.34408(8) 0.71760(12) 1.04526(8)
H1 H 0.3013(9) 0.6456(12) 1.0196(9)
C4 C 0.43136(8) 0.68202(12) 1.08334(8)
H2 H 0.4482(9) 0.5885(14) 1.0884(9)
C5 C 0.49048(8) 0.78398(12) 1.11721(8)
C6 C 0.46219(8) 0.91861(12) 1.11242(8)
H3 H 0.5062(9) 0.9890(13) 1.1381(9)
C7 C 0.37646(7) 0.95604(12) 1.07172(8)
C8 C 0.35189(8) 1.10460(12) 1.06587(9)
H4 H 0.3714(9) 1.1383(12) 1.0036(10)
H5 H 0.3910(10) 1.1501(14) 1.1153(11)
C9 C 0.24806(8) 1.14517(12) 1.08015(8)
H6 H 0.2445(8) 1.2192(13) 1.1279(9)
H7 H 0.2128(8) 1.0687(12) 1.1076(9)
C10 C 0.20044(7) 1.19568(11) 0.98876(8)
C11 C 0.16650(8) 1.32640(12) 0.98428(9)
H8 H 0.1728(9) 1.3871(14) 1.0396(10)
C12 C 0.12646(8) 1.37858(11) 0.89896(9)
C13 C 0.11643(8) 1.29726(12) 0.81730(9)
H9 H 0.0856(9) 1.3279(13) 0.7587(10)
C14 C 0.15078(8) 1.16702(12) 0.82077(8)
H10 H 0.1407(9) 1.1056(13) 0.7657(9)
C15 C 0.19484(7) 1.11509(11) 0.90409(8)
C16 C 0.23400(7) 0.97866(11) 0.90061(8)
C17 C 0.14309(8) 0.82880(11) 1.00634(8)
C18 C 0.13147(8) 0.73648(12) 1.08611(9)
C19 C 0.06010(8) 0.86197(11) 0.95052(8)
C20 C 0.27636(8) 0.92791(11) 0.82050(8)
C21 C 0.30032(9) 0.78675(12) 0.81307(8)
C22 C 0.30040(8) 1.00785(11) 0.73734(9)
C23 C 0.61256(9) 0.62658(13) 1.15758(11)
H11 H 0.6152(9) 0.5913(14) 1.0890(10)
H12 H 0.5672(10) 0.5671(14) 1.1959(10)
H13 H 0.6767(9) 0.6317(13) 1.1882(10)
C24 C 0.06724(12) 1.56702(14) 0.81122(11)
H14 H 0.0088(10) 1.5178(14) 0.7893(10)
H15 H 0.0545(10) 1.6630(16) 0.8258(11)
H16 H 0.1199(11) 1.5631(16) 0.7610(12)
loop_
_geom_bond_atom_site_label_1
_geom_bond_atom_site_label_2
_geom_bond_site_symmetry_1
_geom_bond_site_symmetry_2
O1 C5 1_555 1_555
O2 C12 1_555 1_555
N1 C18 1_555 1_555
N2 C19 1_555 1_555
N3 C21 1_555 1_555
N4 C22 1_555 1_555
C1 C2 1_555 1_555
C2 C3 1_555 1_555
C3 H1 1_555 1_555
C4 C3 1_555 1_555
H2 C4 1_555 1_555
C5 C4 1_555 1_555
C6 C5 1_555 1_555
H3 C6 1_555 1_555
C7 C2 1_555 1_555
C8 C7 1_555 1_555
H4 C8 1_555 1_555
H5 C8 1_555 1_555
C9 C8 1_555 1_555
H6 C9 1_555 1_555
H7 C9 1_555 1_555
C10 C9 1_555 1_555
C11 C10 1_555 1_555
H8 C11 1_555 1_555
C12 C11 1_555 1_555
C13 C12 1_555 1_555
H9 C13 1_555 1_555
C14 C13 1_555 1_555
H10 C14 1_555 1_555
C15 C10 1_555 1_555
C16 C1 1_555 1_555
C17 C1 1_555 1_555
C18 C17 1_555 1_555
C19 C17 1_555 1_555
C20 C16 1_555 1_555
C21 C20 1_555 1_555
C22 C20 1_555 1_555
C23 O1 1_555 1_555
H11 C23 1_555 1_555
H12 C23 1_555 1_555
H13 C23 1_555 1_555
C24 O2 1_555 1_555
H14 C24 1_555 1_555
H15 C24 1_555 1_555
H16 C24 1_555 1_555
C6 C7 1_555 1_555
C14 C15 1_555 1_555
C15 C16 1_555 1_555

#END
