
#######################################################################
#
#                 Cambridge Crystallographic Data Centre
#                                CCDC 
#
#######################################################################
#
# If this CIF has been generated from an entry in the Cambridge 
# Structural Database, then it will include bibliographic, chemical, 
# crystal, experimental, refinement or atomic coordinate data resulting 
# from the CCDC's data processing and validation procedures.
#
#######################################################################

data_KOVDOO01
_chemical_name_common            
"Z-4,24:4',24'-O,O'-(cyclohexane-1,4-dioxo-2,3,5,6-tetrayl)-bis(2,8,14,20-tetrapentyl-6,10:12,16:18,22:24,4-O,O'-tetramethylenecalix[4]resorcinarene) acetonitriel bis(nitrobenzene) clathrate"
_chemical_formula_moiety         'C108 H124 O18,6(C6 H5 N1 O2)'
_chemical_name_systematic        
"Z-4,6,8,10,42,44,46,48-Octapentyl-2,12:3,11:40,50:41,49-tetrametheno-4H,6H,8H,10H,42H,44H,46H,48H-bis(1,3)dioxocino(5'',4'':8',9')(1,3)benzodioxocino(5',4':8,9)(1,3)benzodioxocino(5,4-j:5',4'-j')benzo(1,2-b:5,4-b')bis(1,4)benzodioxonin-26,52-dione bis(nitrobenzene) clathrate nitrobenzene solvate"
_symmetry_cell_setting           triclinic
_symmetry_space_group_name_H-M   'P -1'
_symmetry_Int_Tables_number      2
_space_group_name_Hall           '-P 1'
loop_
_symmetry_equiv_pos_site_id
_symmetry_equiv_pos_as_xyz
1 x,y,z
2 -x,-y,-z
_cell_length_a                   12.5480(18)
_cell_length_b                   12.7420(19)
_cell_length_c                   20.932(3)
_cell_angle_alpha                90.628(4)
_cell_angle_beta                 104.657(4)
_cell_angle_gamma                93.028(4)
_cell_volume                     3232.29
_exptl_crystal_colour            yellow
_chemical_melting_point          'above 360deg.C'
_cell_formula_units_Z            1
loop_
_atom_site_label
_atom_site_type_symbol
_atom_site_fract_x
_atom_site_fract_y
_atom_site_fract_z
O1 O 0.7012(7) 0.5042(6) 0.4847(4)
C1 C 0.6098(10) 0.5032(9) 0.4926(6)
C2 C 0.5883(10) 0.5220(9) 0.5570(6)
C3 C 0.5135(10) 0.4773(8) 0.4342(6)
O2 O 0.5335(6) 0.4481(6) 0.3763(4)
C4 C 0.5486(10) 0.5205(9) 0.3268(6)
C5 C 0.4598(9) 0.5185(9) 0.2691(6)
C6 C 0.4862(9) 0.5838(9) 0.2205(6)
H1 H 0.4313 0.5902 0.1817
C7 C 0.5842(9) 0.6382(9) 0.2250(6)
C8 C 0.6634(10) 0.6348(9) 0.2835(6)
C9 C 0.6478(9) 0.5745(8) 0.3359(5)
H2 H 0.7025 0.5715 0.3752
O3 O 0.7697(7) 0.6835(6) 0.2904(4)
C10 C 0.7820(11) 0.7910(10) 0.3060(6)
H3 H 0.7309 0.8079 0.3319
H4 H 0.8562 0.8076 0.3330
O4 O 0.7625(7) 0.8560(6) 0.2478(4)
C11 C 0.6537(10) 0.8847(9) 0.2202(6)
C12 C 0.6303(11) 0.9829(10) 0.2356(6)
H5 H 0.6827 1.0270 0.2644
C13 C 0.5255(11) 1.0157(10) 0.2067(6)
C14 C 0.4471(10) 0.9525(9) 0.1634(6)
C15 C 0.4780(9) 0.8532(9) 0.1508(5)
H6 H 0.4263 0.8081 0.1223
C16 C 0.5804(9) 0.8176(9) 0.1780(5)
C17 C 0.6034(10) 0.7071(9) 0.1683(6)
H7 H 0.6834 0.7088 0.1738
C18 C 0.5544(11) 0.6556(10) 0.0985(6)
H8 H 0.4745 0.6544 0.0885
H9 H 0.5756 0.5835 0.0988
C19 C 0.5932(12) 0.7139(11) 0.0451(7)
H10 H 0.5863 0.7888 0.0503
H11 H 0.6703 0.7020 0.0489
C20 C 0.520(2) 0.673(2) -0.0261(13)
H12 H 0.4575 0.6343 -0.0168
H13 H 0.5638 0.6208 -0.0399
C21 C 0.482(3) 0.718(3) -0.0747(19)
H14 H 0.4373 0.7701 -0.0617
H15 H 0.5444 0.7581 -0.0843
C22 C 0.4165(19) 0.6758(17) -0.1393(11)
H16 H 0.3710 0.7289 -0.1620
H17 H 0.4651 0.6544 -0.1652
H18 H 0.3707 0.6163 -0.1327
O5 O 0.5024(7) 1.1209(7) 0.2221(4)
C23 C 0.4400(11) 1.1315(11) 0.2692(7)
H19 H 0.4630 1.1972 0.2939
H20 H 0.4548 1.0746 0.3001
O6 O 0.3268(8) 1.1299(7) 0.2396(4)
C24 C 0.2650(11) 1.0350(10) 0.2369(7)
C25 C 0.1439(10) 0.9151(10) 0.2735(6)
C26 C 0.2048(10) 1.0106(10) 0.2809(6)
H21 H 0.2044 1.0571 0.3153
C27 C 0.1380(10) 0.8404(9) 0.2244(6)
C28 C 0.1996(10) 0.8733(10) 0.1794(6)
H22 H 0.1971 0.8271 0.1442
C29 C 0.2623(10) 0.9648(9) 0.1815(6)
C30 C 0.3314(10) 0.9896(10) 0.1343(6)
H23 H 0.3383 1.0663 0.1319
C31 C 0.2784(11) 0.9466(10) 0.0635(6)
H24 H 0.2815 0.8707 0.0622
H25 H 0.2015 0.9634 0.0503
C32 C 0.3412(12) 0.9962(12) 0.0147(7)
H26 H 0.3403 1.0721 0.0179
H27 H 0.4176 0.9778 0.0279
C33 C 0.2912(13) 0.9598(13) -0.0588(8)
H28 H 0.3445 0.9742 -0.0845
H29 H 0.2724 0.8848 -0.0614
C34 C 0.1841(17) 1.0220(16) -0.0872(10)
H30 H 0.2042 1.0955 -0.0920
H31 H 0.1363 1.0176 -0.0573
C35 C 0.125(2) 0.9732(19) -0.1533(12)
H32 H 0.0472 0.9781 -0.1601
H33 H 0.1494 1.0097 -0.1875
H34 H 0.1420 0.9006 -0.1545
C36 C 0.0694(10) 0.7414(9) 0.2208(6)
H35 H 0.0072 0.7556 0.2394
C37 C 0.0227(11) 0.6952(10) 0.1514(6)
H36 H 0.0834 0.6762 0.1336
H37 H -0.0159 0.7489 0.1237
C38 C -0.0557(11) 0.5994(10) 0.1476(6)
H38 H -0.0174 0.5450 0.1747
H39 H -0.1167 0.6179 0.1653
C39 C -0.1012(12) 0.5561(11) 0.0766(7)
H40 H -0.0392 0.5432 0.0583
H41 H -0.1426 0.6100 0.0506
C40 C -0.1706(13) 0.4616(12) 0.0690(8)
H42 H -0.1327 0.4102 0.0990
H43 H -0.2370 0.4766 0.0823
C41 C -0.2044(14) 0.4122(13) -0.0014(8)
H44 H -0.2571 0.3541 -0.0029
H45 H -0.2368 0.4640 -0.0322
H46 H -0.1404 0.3877 -0.0128
O7 O 0.0795(7) 0.8993(7) 0.3192(4)
C42 C 0.1181(12) 0.8317(11) 0.3719(7)
H47 H 0.1980 0.8333 0.3819
H48 H 0.0982 0.8580 0.4107
O8 O 0.0761(7) 0.7264(7) 0.3590(4)
C43 C 0.1410(10) 0.6617(9) 0.3338(6)
C44 C 0.2013(9) 0.5908(8) 0.3750(6)
H49 H 0.1987 0.5886 0.4190
C45 C 0.2640(9) 0.5244(9) 0.3522(6)
O9 O 0.6796(6) 0.5515(6) 0.6055(4)
C46 C 0.2747(9) 0.5279(8) 0.2880(5)
C47 C 0.2096(8) 0.5995(8) 0.2469(5)
H50 H 0.2130 0.6007 0.2031
C48 C 0.1413(9) 0.6679(8) 0.2660(5)
C49 C 0.3508(9) 0.4589(9) 0.2608(6)
H51 H 0.3649 0.3988 0.2900
C50 C 0.3035(10) 0.4131(9) 0.1918(6)
H52 H 0.3585 0.3717 0.1798
H53 H 0.2887 0.4703 0.1612
C51 C 0.1992(11) 0.3450(10) 0.1839(6)
H54 H 0.2115 0.2902 0.2163
H55 H 0.1413 0.3871 0.1917
C52 C 0.1627(12) 0.2949(11) 0.1141(7)
H56 H 0.2239 0.2589 0.1053
H57 H 0.1453 0.3503 0.0824
C53 C 0.0678(14) 0.2209(13) 0.1043(8)
H58 H 0.0852 0.1637 0.1348
H59 H 0.0063 0.2558 0.1135
C54 C 0.0342(16) 0.1757(14) 0.0320(9)
H60 H -0.0235 0.1215 0.0278
H61 H 0.0085 0.2309 0.0022
H62 H 0.0971 0.1467 0.0215
C3A C 0.4865(10) 0.5227(8) 0.5658(6)
C1A C 0.3902(10) 0.4968(9) 0.5074(6)
O1A O 0.2988(7) 0.4958(6) 0.5153(4)
C2A C 0.4117(10) 0.4780(9) 0.4430(6)
O9A O 0.3204(6) 0.4485(6) 0.3945(4)
O2A O 0.4665(6) 0.5519(6) 0.6237(4)
C4A C 0.4514(10) 0.4795(9) 0.6732(6)
C5A C 0.5402(9) 0.4815(9) 0.7309(6)
C6A C 0.5138(9) 0.4162(9) 0.7795(6)
H1A H 0.5687 0.4098 0.8183
C7A C 0.4158(9) 0.3618(9) 0.7750(6)
C8A C 0.3366(10) 0.3652(9) 0.7165(6)
C9A C 0.3522(9) 0.4255(8) 0.6641(5)
H2A H 0.2975 0.4285 0.6248
O3A O 0.2303(7) 0.3165(6) 0.7096(4)
C10A C 0.2180(11) 0.2090(10) 0.6940(6)
H3A H 0.2691 0.1921 0.6681
H4A H 0.1438 0.1924 0.6670
O4A O 0.2375(7) 0.1440(6) 0.7522(4)
C11A C 0.3463(10) 0.1153(9) 0.7798(6)
C12A C 0.3697(11) 0.0171(10) 0.7644(6)
H5A H 0.3173 -0.0270 0.7356
C13A C 0.4745(11) -0.0157(10) 0.7933(6)
C14A C 0.5529(10) 0.0475(9) 0.8366(6)
C15A C 0.5220(9) 0.1468(9) 0.8492(5)
H6A H 0.5737 0.1919 0.8777
C16A C 0.4196(9) 0.1824(9) 0.8220(5)
C17A C 0.3966(10) 0.2929(9) 0.8317(6)
H7A H 0.3166 0.2912 0.8262
C18A C 0.4456(11) 0.3444(10) 0.9015(6)
H8A H 0.5255 0.3456 0.9115
H9A H 0.4244 0.4165 0.9012
C19A C 0.4068(12) 0.2861(11) 0.9549(7)
H10A H 0.4137 0.2112 0.9497
H11A H 0.3297 0.2980 0.9511
C20A C 0.480(2) 0.327(2) 1.0261(13)
H12A H 0.5425 0.3657 1.0168
H13A H 0.4362 0.3792 1.0399
C21A C 0.518(3) 0.282(3) 1.0747(19)
H14A H 0.5627 0.2299 1.0617
H15A H 0.4556 0.2419 1.0843
C22A C 0.5835(19) 0.3242(17) 1.1393(11)
H16A H 0.6290 0.2711 1.1620
H17A H 0.5349 0.3456 1.1652
H18A H 0.6293 0.3837 1.1327
C30A C 0.6686(10) 0.0104(10) 0.8657(6)
C29A C 0.7377(10) 0.0352(9) 0.8185(6)
C24A C 0.7350(11) -0.0350(10) 0.7631(7)
O6A O 0.6732(8) -0.1299(7) 0.7604(4)
C23A C 0.5600(11) -0.1315(11) 0.7308(7)
O5A O 0.4976(7) -0.1209(7) 0.7779(4)
H19A H 0.5370 -0.1972 0.7061
H20A H 0.5452 -0.0746 0.6999
C26A C 0.7952(10) -0.0106(10) 0.7191(6)
C25A C 0.8561(10) 0.0849(10) 0.7265(6)
C27A C 0.8620(10) 0.1596(9) 0.7756(6)
C28A C 0.8004(10) 0.1267(10) 0.8206(6)
H22A H 0.8029 0.1729 0.8558
C36A C 0.9306(10) 0.2586(9) 0.7792(6)
H35A H 0.9928 0.2444 0.7606
C37A C 0.9773(11) 0.3048(10) 0.8486(6)
H36A H 0.9166 0.3238 0.8664
H37A H 1.0159 0.2511 0.8763
C38A C 1.0557(11) 0.4006(10) 0.8524(6)
H38A H 1.0174 0.4550 0.8253
H39A H 1.1167 0.3821 0.8347
C39A C 1.1012(12) 0.4439(11) 0.9234(7)
H40A H 1.0392 0.4568 0.9417
H41A H 1.1426 0.3900 0.9494
C40A C 1.1706(13) 0.5384(12) 0.9310(8)
H42A H 1.1327 0.5898 0.9010
H43A H 1.2370 0.5234 0.9177
C41A C 1.2044(14) 0.5878(13) 1.0014(8)
H44A H 1.2571 0.6459 1.0029
H45A H 1.2368 0.5360 1.0322
H46A H 1.1404 0.6123 1.0128
C48A C 0.8587(9) 0.3321(8) 0.7340(5)
C43A C 0.8590(10) 0.3383(9) 0.6662(6)
O8A O 0.9239(7) 0.2736(7) 0.6410(4)
C42A C 0.8819(12) 0.1683(11) 0.6281(7)
O7A O 0.9205(7) 0.1007(7) 0.6808(4)
H47A H 0.8020 0.1667 0.6181
H48A H 0.9018 0.1420 0.5893
C44A C 0.7987(9) 0.4092(8) 0.6250(6)
H49A H 0.8013 0.4114 0.5810
C45A C 0.7360(9) 0.4756(9) 0.6478(6)
C46A C 0.7253(9) 0.4721(8) 0.7120(5)
C47A C 0.7904(8) 0.4005(8) 0.7531(5)
H50A H 0.7870 0.3993 0.7969
C49A C 0.6492(9) 0.5411(9) 0.7392(6)
H51A H 0.6351 0.6012 0.7100
C50A C 0.6965(10) 0.5869(9) 0.8082(6)
H52A H 0.6415 0.6283 0.8202
H53A H 0.7113 0.5297 0.8388
C51A C 0.8008(11) 0.6550(10) 0.8161(6)
H54A H 0.7885 0.7098 0.7837
H55A H 0.8587 0.6129 0.8083
C52A C 0.8373(12) 0.7051(11) 0.8859(7)
H56A H 0.7761 0.7411 0.8947
H57A H 0.8547 0.6497 0.9176
C53A C 0.9322(14) 0.7791(13) 0.8957(8)
H58A H 0.9148 0.8363 0.8652
H59A H 0.9937 0.7442 0.8865
C54A C 0.9658(16) 0.8243(14) 0.9680(9)
H60A H 1.0235 0.8785 0.9722
H61A H 0.9915 0.7691 0.9978
H62A H 0.9029 0.8533 0.9785
H21A H 0.7956 -0.0571 0.6847
H23A H 0.6617 -0.0663 0.8681
C31A C 0.7216(11) 0.0534(10) 0.9365(6)
H24A H 0.7185 0.1293 0.9378
H25A H 0.7985 0.0366 0.9497
C32A C 0.6588(12) 0.0038(12) 0.9853(7)
H26A H 0.6597 -0.0721 0.9821
H27A H 0.5824 0.0222 0.9721
C33A C 0.7088(13) 0.0402(13) 1.0588(8)
H28A H 0.6555 0.0258 1.0845
H29A H 0.7276 0.1152 1.0614
C34A C 0.8159(17) -0.0220(16) 1.0872(10)
H30A H 0.7958 -0.0955 1.0920
H31A H 0.8637 -0.0176 1.0573
C35A C 0.875(2) 0.0268(19) 1.1533(12)
H32A H 0.9528 0.0219 1.1601
H33A H 0.8506 -0.0097 1.1875
H34A H 0.8580 0.0994 1.1545
O10 O 0.3713(16) 0.0939(15) 0.4156(8)
O11 O 0.4834(19) 0.2327(17) 0.4239(10)
N1 N 0.434(2) 0.165(2) 0.4449(9)
C55 C 0.4655(9) 0.1593(9) 0.5143(4)
C56 C 0.5481(8) 0.2245(7) 0.5548(6)
H64 H 0.5905 0.2712 0.5363
C57 C 0.5673(8) 0.2198(8) 0.6231(5)
H65 H 0.6225 0.2635 0.6502
C58 C 0.5039(9) 0.1500(9) 0.6508(4)
H66 H 0.5167 0.1469 0.6965
C59 C 0.4213(8) 0.0848(8) 0.6103(5)
H67 H 0.3789 0.0381 0.6289
C60 C 0.4021(8) 0.0895(8) 0.5421(5)
H68 H 0.3469 0.0458 0.5149
O14 O 0.0840(19) 0.116(2) 0.5398(12)
O15 O 0.183(2) 0.2607(19) 0.5323(12)
N3 N 0.121(2) 0.195(2) 0.5143(13)
C61 C 0.0800(10) 0.1885(11) 0.4418(4)
C62 C 0.0001(10) 0.1141(8) 0.4078(7)
H69 H -0.0302 0.0638 0.4310
C63 C -0.0346(8) 0.1150(8) 0.3393(7)
H70 H -0.0881 0.0653 0.3166
C64 C 0.0107(11) 0.1902(10) 0.3047(4)
H71 H -0.0124 0.1908 0.2588
C65 C 0.0907(10) 0.2645(8) 0.3386(6)
H72 H 0.1210 0.3149 0.3155
C66 C 0.1253(8) 0.2637(8) 0.4072(6)
H73 H 0.1788 0.3134 0.4299
O16 O 0.2260(15) -0.2511(14) 0.5262(10)
O17 O 0.3124(16) -0.1785(15) 0.6228(10)
N4 N 0.2569(18) -0.2386(17) 0.5828(12)
C67 C 0.2007(10) -0.3186(8) 0.6191(7)
C68 C 0.2301(9) -0.3235(9) 0.6876(6)
H74 H 0.2815 -0.2742 0.7125
C69 C 0.1825(11) -0.4021(11) 0.7187(4)
H75 H 0.2022 -0.4054 0.7645
C70 C 0.1056(11) -0.4759(9) 0.6813(7)
H76 H 0.0738 -0.5285 0.7022
C71 C 0.0763(9) -0.4710(8) 0.6128(7)
H77 H 0.0248 -0.5204 0.5878
C72 C 0.1238(10) -0.3924(11) 0.5817(4)
H78 H 0.1042 -0.3891 0.5359
N2? N 0.320(3) 0.021(4) 0.4984(14)
O12? O 0.318(4) 0.029(5) 0.4390(14)
O13? O 0.240(3) -0.012(4) 0.513(2)
H63? H 0.4527 0.1624 0.4687
loop_
_geom_bond_atom_site_label_1
_geom_bond_atom_site_label_2
_geom_bond_site_symmetry_1
_geom_bond_site_symmetry_2
O1 C1 1_555 1_555
C1 C2 1_555 1_555
C2 O9 1_555 1_555
C3 C1 1_555 1_555
O2 C3 1_555 1_555
C4 O2 1_555 1_555
C5 C4 1_555 1_555
C6 C5 1_555 1_555
H1 C6 1_555 1_555
C7 C6 1_555 1_555
C8 C7 1_555 1_555
C9 C4 1_555 1_555
H2 C9 1_555 1_555
O3 C8 1_555 1_555
C10 O3 1_555 1_555
H3 C10 1_555 1_555
H4 C10 1_555 1_555
O4 C10 1_555 1_555
C11 O4 1_555 1_555
C12 C11 1_555 1_555
H5 C12 1_555 1_555
C13 C12 1_555 1_555
C14 C13 1_555 1_555
C15 C14 1_555 1_555
H6 C15 1_555 1_555
C16 C11 1_555 1_555
C17 C7 1_555 1_555
H7 C17 1_555 1_555
C18 C17 1_555 1_555
H8 C18 1_555 1_555
H9 C18 1_555 1_555
C19 C18 1_555 1_555
H10 C19 1_555 1_555
H11 C19 1_555 1_555
C20 C19 1_555 1_555
H12 C20 1_555 1_555
H13 C20 1_555 1_555
C21 C20 1_555 1_555
H14 C21 1_555 1_555
H15 C21 1_555 1_555
C22 C21 1_555 1_555
H16 C22 1_555 1_555
H17 C22 1_555 1_555
H18 C22 1_555 1_555
O5 C13 1_555 1_555
C23 O5 1_555 1_555
H19 C23 1_555 1_555
H20 C23 1_555 1_555
O6 C23 1_555 1_555
C24 O6 1_555 1_555
C25 C26 1_555 1_555
C26 C24 1_555 1_555
H21 C26 1_555 1_555
C27 C25 1_555 1_555
C28 C27 1_555 1_555
H22 C28 1_555 1_555
C29 C24 1_555 1_555
C30 C14 1_555 1_555
H23 C30 1_555 1_555
C31 C30 1_555 1_555
H24 C31 1_555 1_555
H25 C31 1_555 1_555
C32 C31 1_555 1_555
H26 C32 1_555 1_555
H27 C32 1_555 1_555
C33 C32 1_555 1_555
H28 C33 1_555 1_555
H29 C33 1_555 1_555
C34 C33 1_555 1_555
H30 C34 1_555 1_555
H31 C34 1_555 1_555
C35 C34 1_555 1_555
H32 C35 1_555 1_555
H33 C35 1_555 1_555
H34 C35 1_555 1_555
C36 C27 1_555 1_555
H35 C36 1_555 1_555
C37 C36 1_555 1_555
H36 C37 1_555 1_555
H37 C37 1_555 1_555
C38 C37 1_555 1_555
H38 C38 1_555 1_555
H39 C38 1_555 1_555
C39 C38 1_555 1_555
H40 C39 1_555 1_555
H41 C39 1_555 1_555
C40 C39 1_555 1_555
H42 C40 1_555 1_555
H43 C40 1_555 1_555
C41 C40 1_555 1_555
H44 C41 1_555 1_555
H45 C41 1_555 1_555
H46 C41 1_555 1_555
O7 C25 1_555 1_555
C42 O7 1_555 1_555
H47 C42 1_555 1_555
H48 C42 1_555 1_555
O8 C42 1_555 1_555
C43 O8 1_555 1_555
C44 C43 1_555 1_555
H49 C44 1_555 1_555
C45 C44 1_555 1_555
O9 C45A 1_555 1_555
C46 C45 1_555 1_555
C47 C46 1_555 1_555
H50 C47 1_555 1_555
C48 C36 1_555 1_555
C49 C5 1_555 1_555
H51 C49 1_555 1_555
C50 C49 1_555 1_555
H52 C50 1_555 1_555
H53 C50 1_555 1_555
C51 C50 1_555 1_555
H54 C51 1_555 1_555
H55 C51 1_555 1_555
C52 C51 1_555 1_555
H56 C52 1_555 1_555
H57 C52 1_555 1_555
C53 C52 1_555 1_555
H58 C53 1_555 1_555
H59 C53 1_555 1_555
C54 C53 1_555 1_555
H60 C54 1_555 1_555
H61 C54 1_555 1_555
H62 C54 1_555 1_555
O10 N1 1_555 1_555
O11 N1 1_555 1_555
N1 C55 1_555 1_555
C55 C56 1_555 1_555
C56 H64 1_555 1_555
C57 C56 1_555 1_555
H65 C57 1_555 1_555
C58 C57 1_555 1_555
H66 C58 1_555 1_555
C59 C58 1_555 1_555
H67 C59 1_555 1_555
C60 C55 1_555 1_555
H68 C60 1_555 1_555
O14 N3 1_555 1_555
O15 N3 1_555 1_555
N3 C61 1_555 1_555
C61 C62 1_555 1_555
C62 H69 1_555 1_555
C63 C62 1_555 1_555
H70 C63 1_555 1_555
C64 C63 1_555 1_555
H71 C64 1_555 1_555
C65 C64 1_555 1_555
H72 C65 1_555 1_555
C66 C61 1_555 1_555
H73 C66 1_555 1_555
O16 N4 1_555 1_555
O17 N4 1_555 1_555
N4 C67 1_555 1_555
C67 C68 1_555 1_555
C68 H74 1_555 1_555
C69 C68 1_555 1_555
H75 C69 1_555 1_555
C70 C69 1_555 1_555
H76 C70 1_555 1_555
C71 C70 1_555 1_555
H77 C71 1_555 1_555
C72 C67 1_555 1_555
H78 C72 1_555 1_555
C3A C2 1_555 1_555
C1A C3A 1_555 1_555
O1A C1A 1_555 1_555
C2A C3 1_555 1_555
O9A C45 1_555 1_555
O2A C3A 1_555 1_555
C4A O2A 1_555 1_555
C5A C4A 1_555 1_555
C6A C5A 1_555 1_555
H1A C6A 1_555 1_555
C7A C6A 1_555 1_555
C8A C7A 1_555 1_555
C9A C4A 1_555 1_555
H2A C9A 1_555 1_555
O3A C8A 1_555 1_555
C10A O3A 1_555 1_555
H3A C10A 1_555 1_555
H4A C10A 1_555 1_555
O4A C10A 1_555 1_555
C11A O4A 1_555 1_555
C12A C11A 1_555 1_555
H5A C12A 1_555 1_555
C13A C12A 1_555 1_555
C14A C13A 1_555 1_555
C15A C14A 1_555 1_555
H6A C15A 1_555 1_555
C16A C11A 1_555 1_555
C17A C7A 1_555 1_555
H7A C17A 1_555 1_555
C18A C17A 1_555 1_555
H8A C18A 1_555 1_555
H9A C18A 1_555 1_555
C19A C18A 1_555 1_555
H10A C19A 1_555 1_555
H11A C19A 1_555 1_555
C20A C19A 1_555 1_555
H12A C20A 1_555 1_555
H13A C20A 1_555 1_555
C21A C20A 1_555 1_555
H14A C21A 1_555 1_555
H15A C21A 1_555 1_555
C22A C21A 1_555 1_555
H16A C22A 1_555 1_555
H17A C22A 1_555 1_555
H18A C22A 1_555 1_555
C30A C14A 1_555 1_555
C29A C30A 1_555 1_555
C24A C29A 1_555 1_555
O6A C24A 1_555 1_555
C23A O6A 1_555 1_555
O5A C13A 1_555 1_555
H19A C23A 1_555 1_555
H20A C23A 1_555 1_555
C26A C24A 1_555 1_555
C25A C26A 1_555 1_555
C27A C25A 1_555 1_555
C28A C29A 1_555 1_555
H22A C28A 1_555 1_555
C36A C27A 1_555 1_555
H35A C36A 1_555 1_555
C37A C36A 1_555 1_555
H36A C37A 1_555 1_555
H37A C37A 1_555 1_555
C38A C37A 1_555 1_555
H38A C38A 1_555 1_555
H39A C38A 1_555 1_555
C39A C38A 1_555 1_555
H40A C39A 1_555 1_555
H41A C39A 1_555 1_555
C40A C39A 1_555 1_555
H42A C40A 1_555 1_555
H43A C40A 1_555 1_555
C41A C40A 1_555 1_555
H44A C41A 1_555 1_555
H45A C41A 1_555 1_555
H46A C41A 1_555 1_555
C48A C36A 1_555 1_555
C43A C48A 1_555 1_555
O8A C43A 1_555 1_555
C42A O8A 1_555 1_555
O7A C25A 1_555 1_555
H47A C42A 1_555 1_555
H48A C42A 1_555 1_555
C44A C43A 1_555 1_555
H49A C44A 1_555 1_555
C45A C44A 1_555 1_555
C46A C45A 1_555 1_555
C47A C48A 1_555 1_555
H50A C47A 1_555 1_555
C49A C5A 1_555 1_555
H51A C49A 1_555 1_555
C50A C49A 1_555 1_555
H52A C50A 1_555 1_555
H53A C50A 1_555 1_555
C51A C50A 1_555 1_555
H54A C51A 1_555 1_555
H55A C51A 1_555 1_555
C52A C51A 1_555 1_555
H56A C52A 1_555 1_555
H57A C52A 1_555 1_555
C53A C52A 1_555 1_555
H58A C53A 1_555 1_555
H59A C53A 1_555 1_555
C54A C53A 1_555 1_555
H60A C54A 1_555 1_555
H61A C54A 1_555 1_555
H62A C54A 1_555 1_555
H21A C26A 1_555 1_555
H23A C30A 1_555 1_555
C31A C30A 1_555 1_555
H24A C31A 1_555 1_555
H25A C31A 1_555 1_555
C32A C31A 1_555 1_555
H26A C32A 1_555 1_555
H27A C32A 1_555 1_555
C33A C32A 1_555 1_555
H28A C33A 1_555 1_555
H29A C33A 1_555 1_555
C34A C33A 1_555 1_555
H30A C34A 1_555 1_555
H31A C34A 1_555 1_555
C35A C34A 1_555 1_555
H32A C35A 1_555 1_555
H33A C35A 1_555 1_555
H34A C35A 1_555 1_555
C8 C9 1_555 1_555
C15 C16 1_555 1_555
C16 C17 1_555 1_555
C28 C29 1_555 1_555
C29 C30 1_555 1_555
C43 C48 1_555 1_555
C46 C49 1_555 1_555
C47 C48 1_555 1_555
C59 C60 1_555 1_555
C65 C66 1_555 1_555
C71 C72 1_555 1_555
C1A C2A 1_555 1_555
C2A O9A 1_555 1_555
C8A C9A 1_555 1_555
C15A C16A 1_555 1_555
C16A C17A 1_555 1_555
C23A O5A 1_555 1_555
C27A C28A 1_555 1_555
C42A O7A 1_555 1_555
C46A C47A 1_555 1_555
C46A C49A 1_555 1_555

#END
