
#######################################################################
#
#                 Cambridge Crystallographic Data Centre
#                                CCDC 
#
#######################################################################
#
# If this CIF has been generated from an entry in the Cambridge 
# Structural Database, then it will include bibliographic, chemical, 
# crystal, experimental, refinement or atomic coordinate data resulting 
# from the CCDC's data processing and validation procedures.
#
#######################################################################

data_KOVPAO
_chemical_formula_moiety         'C38 H34 N10 4+,2(C12 H8 O6 S2 2-),9.5(H2 O1)'
_chemical_name_systematic        
"6,15,25,34,42,47-hexaaza-3,12,22,31-tetraazonianonacyclo[34.2.2.2^17,20^.1^3,6^.1^7,11^.1^12,15^.1^22,25^.1^26,30^.1^31,34^]octatetraconta-1(38),3(48),4,7(47),8,10,12(46),13,17,19,22(43),23,26(42),27,29,31(41),32,36,39,44-icosaene bis(biphenyl-4,4'-disulfonate) hydrate"
_symmetry_cell_setting           triclinic
_symmetry_space_group_name_H-M   'P -1'
_symmetry_Int_Tables_number      2
_space_group_name_Hall           '-P 1'
loop_
_symmetry_equiv_pos_site_id
_symmetry_equiv_pos_as_xyz
1 x,y,z
2 -x,-y,-z
_cell_length_a                   14.166(3)
_cell_length_b                   16.380(3)
_cell_length_c                   18.029(4)
_cell_angle_alpha                103.04(3)
_cell_angle_beta                 109.53(3)
_cell_angle_gamma                98.05(3)
_cell_volume                     3733.81
_exptl_crystal_colour            colorless
_exptl_crystal_description       plate
_cell_formula_units_Z            2
loop_
_atom_site_label
_atom_site_type_symbol
_atom_site_fract_x
_atom_site_fract_y
_atom_site_fract_z
S1 S 0.63747(14) 0.05604(14) -0.27351(13)
S2 S -0.08138(14) -0.21359(14) -0.23570(13)
C1 C 0.5190(5) 0.0104(5) -0.2643(4)
C2 C 0.4914(5) 0.0568(5) -0.2028(4)
H1 H 0.5338 0.1091 -0.1662
C3 C 0.3972(5) 0.0224(5) -0.1977(4)
H2 H 0.3777 0.0528 -0.1573
C4 C 0.3304(5) -0.0594(4) -0.2539(4)
C5 C 0.3615(5) -0.1054(5) -0.3143(4)
H3 H 0.3206 -0.1585 -0.3503
C6 C 0.4547(5) -0.0707(5) -0.3200(4)
H4 H 0.4747 -0.1008 -0.3603
C7 C 0.2278(5) -0.0965(4) -0.2510(4)
C8 C 0.2017(5) -0.0567(5) -0.1848(4)
H5 H 0.2466 -0.0078 -0.1440
C9 C 0.1069(5) -0.0915(5) -0.1807(4)
H6 H 0.0894 -0.0649 -0.1375
C10 C 0.0373(5) -0.1679(5) -0.2429(4)
C11 C 0.0613(5) -0.2079(5) -0.3094(4)
H7 H 0.0161 -0.2566 -0.3502
C12 C 0.1553(5) -0.1725(4) -0.3127(4)
H8 H 0.1719 -0.1990 -0.3566
O1 O 0.6103(4) 0.0489(5) -0.3595(4)
O2 O 0.6722(4) 0.1512(4) -0.2250(4)
O3 O 0.7077(4) 0.0010(4) -0.2459(5)
O4 O -0.1518(5) -0.2609(6) -0.3158(4)
O5 O -0.1136(5) -0.1364(4) -0.1959(5)
O6 O -0.0570(5) -0.2713(4) -0.1829(4)
S3 S 0.70962(13) -0.22620(13) 0.04614(11)
S4 S 0.07207(14) -0.73091(13) -0.43156(12)
C13 C 0.6060(5) -0.3209(4) -0.0238(4)
C14 C 0.5144(5) -0.3429(5) -0.0110(4)
H9 H 0.5080 -0.3122 0.0365
C15 C 0.4319(5) -0.4107(4) -0.0693(4)
H10 H 0.3722 -0.4231 -0.0589
C16 C 0.4361(5) -0.4605(4) -0.1422(4)
C17 C 0.5292(5) -0.4406(5) -0.1537(4)
H11 H 0.5360 -0.4728 -0.2005
C18 C 0.6135(5) -0.3724(5) -0.0954(4)
H12 H 0.6743 -0.3614 -0.1045
C19 C 0.3454(5) -0.5283(4) -0.2107(4)
C20 C 0.2654(5) -0.5792(4) -0.1983(4)
H13 H 0.2670 -0.5712 -0.1451
C21 C 0.1821(5) -0.6425(4) -0.2651(4)
H14 H 0.1311 -0.6748 -0.2547
C22 C 0.1778(5) -0.6554(4) -0.3445(4)
C23 C 0.2576(5) -0.6053(4) -0.3577(4)
H15 H 0.2568 -0.6145 -0.4108
C24 C 0.3380(5) -0.5420(4) -0.2922(4)
H16 H 0.3874 -0.5086 -0.3033
O7 O 0.6687(5) -0.1456(4) 0.0405(4)
O8 O 0.7940(4) -0.2262(4) 0.0175(3)
O9 O 0.7360(4) -0.2402(4) 0.1252(3)
O10 O 0.0274(4) -0.6717(4) -0.4790(4)
O11 O 0.0022(4) -0.7776(4) -0.4014(3)
O12 O 0.1159(3) -0.7942(3) -0.4766(3)
N1 N 0.5641(4) -0.2759(4) -0.2992(4)
N2 N 0.5020(4) -0.2273(4) -0.2072(4)
N3 N 0.3418(4) -0.2859(4) -0.2072(4)
N4 N 0.1793(4) -0.3578(4) -0.2210(4)
N5 N 0.0298(4) -0.4487(4) -0.2559(4)
N6 N -0.0219(4) -0.9066(4) -0.2461(3)
N7 N 0.0497(4) -0.9589(3) -0.3306(3)
N8 N 0.2096(4) -0.8942(3) -0.3310(3)
N9 N 0.3697(4) -0.8212(3) -0.3212(3)
N10 N 0.5187(4) -0.7296(4) -0.2880(3)
C25 C 0.4806(5) -0.2883(5) -0.2795(5)
H17 H 0.4199 -0.3305 -0.3096
C26 C 0.6394(6) -0.2045(5) -0.2378(6)
H18 H 0.7042 -0.1830 -0.2369
C27 C 0.6008(6) -0.1726(5) -0.1803(6)
H19 H 0.6325 -0.1254 -0.1336
C28 C 0.4307(5) -0.2216(5) -0.1657(4)
C29 C 0.4524(6) -0.1576(5) -0.0929(5)
H20 H 0.5139 -0.1157 -0.0683
C30 C 0.3778(6) -0.1592(6) -0.0587(5)
H21 H 0.3881 -0.1178 -0.0102
C31 C 0.2855(6) -0.2252(5) -0.0993(5)
H22 H 0.2345 -0.2276 -0.0776
C32 C 0.2721(5) -0.2869(5) -0.1725(4)
C33 C 0.1022(5) -0.3807(5) -0.1954(5)
H23 H 0.0992 -0.3546 -0.1450
C34 C 0.1531(5) -0.4131(5) -0.3003(4)
H24 H 0.1920 -0.4116 -0.3327
C35 C 0.0600(5) -0.4699(5) -0.3222(5)
H25 H 0.0247 -0.5136 -0.3713
C36 C -0.0685(5) -0.4937(5) -0.2522(5)
H26 H -0.1248 -0.5039 -0.3045
H27 H -0.0840 -0.4563 -0.2100
C37 C -0.0610(5) -0.5845(5) -0.2324(5)
C38 C -0.1282(5) -0.6650(5) -0.2864(5)
H28 H -0.1778 -0.6652 -0.3358
C39 C -0.1225(5) -0.7478(5) -0.2678(4)
H29 H -0.1689 -0.7981 -0.3050
C40 C -0.0499(5) -0.7521(5) -0.1965(4)
C41 C 0.0184(6) -0.6704(5) -0.1417(5)
H30 H 0.0693 -0.6704 -0.0932
C42 C 0.0111(6) -0.5875(6) -0.1592(5)
H31 H 0.0551 -0.5367 -0.1209
C43 C -0.0408(5) -0.8436(5) -0.1794(4)
H32 H 0.0153 -0.8339 -0.1271
H33 H -0.1039 -0.8693 -0.1749
C44 C 0.0622(5) -0.8905(5) -0.2634(4)
H34 H 0.1181 -0.8432 -0.2360
C45 C -0.0892(5) -0.9862(5) -0.3028(4)
H35 H -0.1525 -1.0113 -0.3031
C46 C -0.0455(5) -1.0194(5) -0.3562(4)
H36 H -0.0720 -1.0700 -0.3996
C47 C 0.1246(5) -0.9628(4) -0.3694(4)
C48 C 0.1055(5) -1.0320(4) -0.4397(4)
H37 H 0.0453 -1.0754 -0.4629
C49 C 0.1816(5) -1.0314(4) -0.4723(4)
H38 H 0.1740 -1.0753 -0.5183
C50 C 0.2717(5) -0.9623(4) -0.4341(4)
H39 H 0.3244 -0.9610 -0.4540
C51 C 0.2794(5) -0.8953(4) -0.3645(4)
C52 C 0.4490(5) -0.8007(4) -0.3452(4)
H40 H 0.4548 -0.8306 -0.3933
C53 C 0.3930(5) -0.7588(4) -0.2440(4)
H41 H 0.3527 -0.7567 -0.2124
C54 C 0.4859(5) -0.7020(5) -0.2244(4)
H42 H 0.5194 -0.6549 -0.1779
C55 C 0.6148(5) -0.6845(5) -0.2936(5)
H43 H 0.6310 -0.7228 -0.3348
H44 H 0.6716 -0.6718 -0.2411
C56 C 0.6039(5) -0.5960(5) -0.3172(4)
C57 C 0.6814(5) -0.5161(5) -0.2712(5)
H45 H 0.7390 -0.5168 -0.2274
C58 C 0.6734(6) -0.4335(5) -0.2902(5)
H46 H 0.7258 -0.3843 -0.2589
C59 C 0.5871(6) -0.4286(5) -0.3554(5)
C60 C 0.5116(6) -0.5098(6) -0.4017(5)
H47 H 0.4541 -0.5098 -0.4459
C61 C 0.5204(5) -0.5918(5) -0.3830(4)
H48 H 0.4694 -0.6415 -0.4155
C62 C 0.5745(6) -0.3387(5) -0.3717(5)
H49 H 0.6339 -0.3132 -0.3811
H50 H 0.5138 -0.3481 -0.4209
O13 O 0.0942(17) -0.3592(17) -0.0198(11)
O14 O 0.2218(14) -0.0712(18) 0.0531(10)
O15 O 0.1513(5) -0.5771(4) -0.5564(4)
O16 O 0.2886(4) -0.4061(4) -0.4375(4)
O17 O 0.4267(4) -0.8663(4) -0.5331(3)
O18 O 0.6467(4) -0.8397(4) -0.4556(3)
O19 O 0.7319(4) -0.2207(4) -0.4592(4)
O20 O 0.2104(4) -0.2675(4) -0.4992(3)
O21 O 0.708(2) -0.673(2) -0.0790(14)
O22 O -0.1186(10) -0.0771(8) -0.0305(8)
O23 O 0.8833(6) -0.3365(7) -0.0729(4)
O24? O 0.1103(17) -0.2927(17) -0.0098(12)
O25? O 0.2041(14) -0.1755(17) 0.0572(10)
O26? O 0.274(2) 0.012(2) 0.0270(14)
O27? O 0.845(2) -0.505(2) -0.0685(14)
O28? O -0.1009(17) 0.0138(19) -0.0641(13)
O29? O 0.737(2) -0.567(2) -0.0668(14)
loop_
_geom_bond_atom_site_label_1
_geom_bond_atom_site_label_2
_geom_bond_site_symmetry_1
_geom_bond_site_symmetry_2
S1 C1 1_555 1_555
S2 C10 1_555 1_555
C1 C2 1_555 1_555
C2 H1 1_555 1_555
C3 C2 1_555 1_555
H2 C3 1_555 1_555
C4 C3 1_555 1_555
C5 C4 1_555 1_555
H3 C5 1_555 1_555
C6 C1 1_555 1_555
H4 C6 1_555 1_555
C7 C4 1_555 1_555
C8 C7 1_555 1_555
H5 C8 1_555 1_555
C9 C8 1_555 1_555
H6 C9 1_555 1_555
C10 C9 1_555 1_555
C11 C10 1_555 1_555
H7 C11 1_555 1_555
C12 C7 1_555 1_555
H8 C12 1_555 1_555
O1 S1 1_555 1_555
O2 S1 1_555 1_555
O3 S1 1_555 1_555
O4 S2 1_555 1_555
O5 S2 1_555 1_555
O6 S2 1_555 1_555
S3 C13 1_555 1_555
S4 C22 1_555 1_555
C13 C14 1_555 1_555
C14 H9 1_555 1_555
C15 C14 1_555 1_555
H10 C15 1_555 1_555
C16 C15 1_555 1_555
C17 C16 1_555 1_555
H11 C17 1_555 1_555
C18 C13 1_555 1_555
H12 C18 1_555 1_555
C19 C16 1_555 1_555
C20 C19 1_555 1_555
H13 C20 1_555 1_555
C21 C20 1_555 1_555
H14 C21 1_555 1_555
C22 C21 1_555 1_555
C23 C22 1_555 1_555
H15 C23 1_555 1_555
C24 C19 1_555 1_555
H16 C24 1_555 1_555
O7 S3 1_555 1_555
O8 S3 1_555 1_555
O9 S3 1_555 1_555
O10 S4 1_555 1_555
O11 S4 1_555 1_555
O12 S4 1_555 1_555
N1 C25 1_555 1_555
N2 C25 1_555 1_555
N3 C28 1_555 1_555
N4 C32 1_555 1_555
N5 C33 1_555 1_555
N6 C43 1_555 1_555
N7 C44 1_555 1_555
N8 C47 1_555 1_555
N9 C51 1_555 1_555
N10 C52 1_555 1_555
C25 H17 1_555 1_555
C26 N1 1_555 1_555
H18 C26 1_555 1_555
C27 N2 1_555 1_555
H19 C27 1_555 1_555
C28 N2 1_555 1_555
C29 C28 1_555 1_555
H20 C29 1_555 1_555
C30 C29 1_555 1_555
H21 C30 1_555 1_555
C31 C30 1_555 1_555
H22 C31 1_555 1_555
C32 N3 1_555 1_555
C33 N4 1_555 1_555
H23 C33 1_555 1_555
C34 N4 1_555 1_555
H24 C34 1_555 1_555
C35 N5 1_555 1_555
H25 C35 1_555 1_555
C36 N5 1_555 1_555
H26 C36 1_555 1_555
H27 C36 1_555 1_555
C37 C36 1_555 1_555
C38 C37 1_555 1_555
H28 C38 1_555 1_555
C39 C38 1_555 1_555
H29 C39 1_555 1_555
C40 C39 1_555 1_555
C41 C40 1_555 1_555
H30 C41 1_555 1_555
C42 C37 1_555 1_555
H31 C42 1_555 1_555
C43 C40 1_555 1_555
H32 C43 1_555 1_555
H33 C43 1_555 1_555
C44 N6 1_555 1_555
H34 C44 1_555 1_555
C45 N6 1_555 1_555
H35 C45 1_555 1_555
C46 N7 1_555 1_555
H36 C46 1_555 1_555
C47 N7 1_555 1_555
C48 C47 1_555 1_555
H37 C48 1_555 1_555
C49 C48 1_555 1_555
H38 C49 1_555 1_555
C50 C49 1_555 1_555
H39 C50 1_555 1_555
C51 N8 1_555 1_555
C52 N9 1_555 1_555
H40 C52 1_555 1_555
C53 N9 1_555 1_555
H41 C53 1_555 1_555
C54 N10 1_555 1_555
H42 C54 1_555 1_555
C55 N10 1_555 1_555
H43 C55 1_555 1_555
H44 C55 1_555 1_555
C56 C55 1_555 1_555
C57 C56 1_555 1_555
H45 C57 1_555 1_555
C58 C57 1_555 1_555
H46 C58 1_555 1_555
C59 C58 1_555 1_555
C60 C59 1_555 1_555
H47 C60 1_555 1_555
C61 C56 1_555 1_555
H48 C61 1_555 1_555
C62 N1 1_555 1_555
H49 C62 1_555 1_555
H50 C62 1_555 1_555
C5 C6 1_555 1_555
C11 C12 1_555 1_555
C17 C18 1_555 1_555
C23 C24 1_555 1_555
C26 C27 1_555 1_555
C31 C32 1_555 1_555
C34 C35 1_555 1_555
C41 C42 1_555 1_555
C45 C46 1_555 1_555
C50 C51 1_555 1_555
C53 C54 1_555 1_555
C59 C62 1_555 1_555
C60 C61 1_555 1_555

#END
