
#######################################################################
#
#                 Cambridge Crystallographic Data Centre
#                                CCDC 
#
#######################################################################
#
# If this CIF has been generated from an entry in the Cambridge 
# Structural Database, then it will include bibliographic, chemical, 
# crystal, experimental, refinement or atomic coordinate data resulting 
# from the CCDC's data processing and validation procedures.
#
#######################################################################

data_KOVRUK
_chemical_formula_moiety         'C12 H8 O8 S2 2-,2(H3 O1 1+)'
_chemical_name_systematic        
"dioxonium 4,4'-dihydroxybiphenyl-3,3'-disulfonate"
_symmetry_cell_setting           monoclinic
_symmetry_space_group_name_H-M   'C 2/c'
_symmetry_Int_Tables_number      15
_space_group_name_Hall           '-C 2yn'
loop_
_symmetry_equiv_pos_site_id
_symmetry_equiv_pos_as_xyz
1 x,y,z
2 -x,y,1/2-z
3 1/2+x,1/2+y,z
4 1/2-x,1/2+y,1/2-z
5 -x,-y,-z
6 x,-y,1/2+z
7 1/2-x,1/2-y,-z
8 1/2+x,1/2-y,1/2+z
_cell_length_a                   29.188(7)
_cell_length_b                   5.7170(10)
_cell_length_c                   22.742(8)
_cell_angle_alpha                90
_cell_angle_beta                 120.89(2)
_cell_angle_gamma                90
_cell_volume                     3256.62
_exptl_crystal_colour            colorless
_exptl_crystal_description       prism
_cell_formula_units_Z            8
loop_
_atom_site_label
_atom_site_type_symbol
_atom_site_fract_x
_atom_site_fract_y
_atom_site_fract_z
S1 S 0.67467(2) 0.46663(12) 0.53870(3)
S2 S 0.33857(2) 0.05458(12) 0.20888(3)
O1 O 0.66479(8) 0.2489(4) 0.56307(10)
O2 O 0.68356(8) 0.6612(4) 0.58420(9)
O3 O 0.71726(8) 0.4446(4) 0.52403(10)
O4 O 0.65657(8) 0.8453(4) 0.43865(10)
H1 H 0.6536(16) 0.944(5) 0.4091(15)
O5 O 0.33086(9) -0.1935(4) 0.20788(10)
O6 O 0.29081(7) 0.1838(4) 0.19528(9)
O7 O 0.35775(8) 0.1343(4) 0.16478(9)
O8 O 0.33444(8) -0.0332(4) 0.33351(9)
H2 H 0.3406(15) -0.080(6) 0.3719(10)
C1 C 0.61470(10) 0.5320(5) 0.46148(12)
C2 C 0.61163(11) 0.7191(5) 0.42029(13)
C3 C 0.56270(12) 0.7710(6) 0.36196(15)
H3 H 0.5601 0.8942 0.3337
C4 C 0.51799(12) 0.6395(6) 0.34608(15)
H4 H 0.4855 0.6771 0.3072
C5 C 0.52028(11) 0.4530(5) 0.38654(14)
C6 C 0.56964(11) 0.4015(5) 0.44443(14)
H5 H 0.5723 0.2766 0.4722
C7 C 0.47245(11) 0.3173(5) 0.37249(13)
C8 C 0.43318(10) 0.2552(5) 0.30611(13)
H6 H 0.4373 0.2973 0.2696
C9 C 0.38816(10) 0.1318(5) 0.29357(12)
C10 C 0.38094(10) 0.0726(5) 0.34803(13)
C11 C 0.41990(11) 0.1315(5) 0.41433(13)
H7 H 0.4157 0.0913 0.4509
C12 C 0.46473(11) 0.2496(5) 0.42584(13)
H8 H 0.4908 0.2858 0.4707
O9 O 0.73781(7) 0.5305(3) 0.41956(9)
H9 H 0.7175(10) 0.622(4) 0.3872(9)
H10 H 0.7370(12) 0.397(2) 0.4024(12)
H11 H 0.7275(12) 0.519(4) 0.4480(11)
O10 O 0.29392(10) -0.4883(5) 0.28677(13)
H12 H 0.2616(7) -0.454(7) 0.2760(17)
H13 H 0.2922(14) -0.596(5) 0.2592(14)
H14 H 0.3089(13) -0.551(6) 0.3274(9)
loop_
_geom_bond_atom_site_label_1
_geom_bond_atom_site_label_2
_geom_bond_site_symmetry_1
_geom_bond_site_symmetry_2
S1 O1 1_555 1_555
S2 O5 1_555 1_555
O2 S1 1_555 1_555
O3 S1 1_555 1_555
O4 H1 1_555 1_555
O6 S2 1_555 1_555
O7 S2 1_555 1_555
O8 H2 1_555 1_555
C1 S1 1_555 1_555
C2 O4 1_555 1_555
C3 C2 1_555 1_555
H3 C3 1_555 1_555
C4 C3 1_555 1_555
H4 C4 1_555 1_555
C5 C4 1_555 1_555
C6 C1 1_555 1_555
H5 C6 1_555 1_555
C7 C5 1_555 1_555
C8 C7 1_555 1_555
H6 C8 1_555 1_555
C9 S2 1_555 1_555
C10 O8 1_555 1_555
C11 C10 1_555 1_555
H7 C11 1_555 1_555
C12 C7 1_555 1_555
H8 C12 1_555 1_555
O9 H9 1_555 1_555
H10 O9 1_555 1_555
H11 O9 1_555 1_555
O10 H12 1_555 1_555
H13 O10 1_555 1_555
H14 O10 1_555 1_555
C1 C2 1_555 1_555
C5 C6 1_555 1_555
C8 C9 1_555 1_555
C9 C10 1_555 1_555
C11 C12 1_555 1_555

#END
