
#######################################################################
#
#                 Cambridge Crystallographic Data Centre
#                                CCDC 
#
#######################################################################
#
# If this CIF has been generated from an entry in the Cambridge 
# Structural Database, then it will include bibliographic, chemical, 
# crystal, experimental, refinement or atomic coordinate data resulting 
# from the CCDC's data processing and validation procedures.
#
#######################################################################

data_KOVWEZ
_chemical_formula_moiety         'C20 H13 N1 O2 S1'
_chemical_name_systematic        '2-(1,3-benzothiazol-2-yl)phenyl benzoate'
_symmetry_cell_setting           monoclinic
_symmetry_space_group_name_H-M   'P 21/n'
_symmetry_Int_Tables_number      14
_space_group_name_Hall           '-P 2yn'
loop_
_symmetry_equiv_pos_site_id
_symmetry_equiv_pos_as_xyz
1 x,y,z
2 1/2-x,1/2+y,1/2-z
3 -x,-y,-z
4 1/2+x,1/2-y,1/2+z
_cell_length_a                   8.9143(3)
_cell_length_b                   16.4329(5)
_cell_length_c                   11.7355(4)
_cell_angle_alpha                90
_cell_angle_beta                 111.800(2)
_cell_angle_gamma                90
_cell_volume                     1596.17
_exptl_crystal_colour            colorless
_exptl_crystal_description       block
_cell_formula_units_Z            4
_exptl_crystal_recrystallization_method 'hexane/ ethylacetate'
loop_
_atom_site_label
_atom_site_type_symbol
_atom_site_fract_x
_atom_site_fract_y
_atom_site_fract_z
S1 S 0.38933(5) 0.20208(3) 0.85703(4)
C1 C 0.50797(19) 0.17366(11) 1.00820(15)
C2 C 0.46784(19) 0.10467(11) 1.07307(16)
C3 C 0.3296(2) 0.05694(11) 1.02534(16)
C4 C 0.6542(2) 0.27529(11) 0.98043(16)
C5 C 0.5292(2) 0.27716(11) 0.86488(16)
C6 C -0.0265(2) 0.12846(11) 0.76970(16)
C7 C 0.5307(2) 0.33287(12) 0.77543(17)
H1 H 0.4479 0.3339 0.6985
C8 C 0.0788(2) 0.11298(11) 0.89848(18)
C9 C 0.3024(2) -0.00902(12) 1.08816(19)
H2 H 0.2103 -0.0408 1.0531
C10 C 0.6579(2) 0.38586(13) 0.80469(19)
H3 H 0.6615 0.4234 0.7464
C11 C 0.5775(2) 0.08413(12) 1.19057(17)
H4 H 0.6712 0.1148 1.2259
C12 C -0.0089(2) 0.08802(13) 0.67227(18)
H5 H 0.0749 0.0509 0.6863
C13 C 0.7817(2) 0.33046(13) 1.00796(19)
H6 H 0.8650 0.3303 1.0847
C14 C -0.1504(2) 0.18470(13) 0.7467(2)
H7 H -0.1624 0.2126 0.8118
C15 C 0.4128(2) -0.02722(13) 1.2031(2)
H8 H 0.3951 -0.0713 1.2462
C16 C 0.5493(2) 0.01960(13) 1.25440(19)
H9 H 0.6229 0.0076 1.3326
C17 C -0.2550(3) 0.19954(13) 0.6293(2)
H10 H -0.3369 0.2378 0.6147
C18 C -0.2390(3) 0.15811(15) 0.5333(2)
H11 H -0.3116 0.1674 0.4538
C19 C 0.7816(3) 0.38488(13) 0.9193(2)
H12 H 0.8661 0.4219 0.9364
C20 C -0.1158(3) 0.10266(15) 0.55400(19)
H13 H -0.1045 0.0751 0.4884
N1 N 0.63948(17) 0.21585(9) 1.06018(13)
O1 O 0.21853(13) 0.07372(8) 0.90618(11)
O2 O 0.05162(15) 0.13155(9) 0.98723(12)
loop_
_geom_bond_atom_site_label_1
_geom_bond_atom_site_label_2
_geom_bond_site_symmetry_1
_geom_bond_site_symmetry_2
S1 C1 1_555 1_555
C1 C2 1_555 1_555
C2 C3 1_555 1_555
C3 C9 1_555 1_555
C4 C5 1_555 1_555
C5 S1 1_555 1_555
C6 C8 1_555 1_555
C7 C5 1_555 1_555
H1 C7 1_555 1_555
C8 O1 1_555 1_555
C9 H2 1_555 1_555
C10 C7 1_555 1_555
H3 C10 1_555 1_555
C11 C2 1_555 1_555
H4 C11 1_555 1_555
C12 C6 1_555 1_555
H5 C12 1_555 1_555
C13 C4 1_555 1_555
H6 C13 1_555 1_555
C14 C6 1_555 1_555
H7 C14 1_555 1_555
C15 C9 1_555 1_555
H8 C15 1_555 1_555
C16 C11 1_555 1_555
H9 C16 1_555 1_555
C17 C14 1_555 1_555
H10 C17 1_555 1_555
C18 C17 1_555 1_555
H11 C18 1_555 1_555
C19 C10 1_555 1_555
H12 C19 1_555 1_555
C20 C12 1_555 1_555
H13 C20 1_555 1_555
N1 C1 1_555 1_555
O1 C3 1_555 1_555
O2 C8 1_555 1_555
C4 N1 1_555 1_555
C13 C19 1_555 1_555
C15 C16 1_555 1_555
C18 C20 1_555 1_555

#END
