
#######################################################################
#
#                 Cambridge Crystallographic Data Centre
#                                CCDC 
#
#######################################################################
#
# If this CIF has been generated from an entry in the Cambridge 
# Structural Database, then it will include bibliographic, chemical, 
# crystal, experimental, refinement or atomic coordinate data resulting 
# from the CCDC's data processing and validation procedures.
#
#######################################################################

data_KOXHEM
_chemical_formula_moiety         'C17 H12 F3 N1 O2'
_chemical_name_systematic        
1-methyl-4-phenyl-3-(trifluoromethyl)-1-azaspiro[4.5]deca-3,6,9-triene-2,8-dione
_symmetry_cell_setting           monoclinic
_symmetry_space_group_name_H-M   'P 21/c'
_symmetry_Int_Tables_number      14
_space_group_name_Hall           '-P 2ybc'
loop_
_symmetry_equiv_pos_site_id
_symmetry_equiv_pos_as_xyz
1 x,y,z
2 -x,1/2+y,1/2-z
3 -x,-y,-z
4 x,1/2-y,1/2+z
_cell_length_a                   14.1866(12)
_cell_length_b                   6.7856(7)
_cell_length_c                   16.0193(13)
_cell_angle_alpha                90
_cell_angle_beta                 100.964(8)
_cell_angle_gamma                90
_cell_volume                     1513.94
_exptl_crystal_colour            colorless
_exptl_crystal_description       block
_cell_formula_units_Z            4
loop_
_atom_site_label
_atom_site_type_symbol
_atom_site_fract_x
_atom_site_fract_y
_atom_site_fract_z
F1 F 0.0369(2) 0.5556(5) 0.09353(17)
F2 F 0.1096(3) 0.2926(6) 0.1266(2)
F3 F 0.1803(3) 0.5250(6) 0.08218(19)
O1 O 0.3867(2) 1.1763(5) 0.4612(2)
O2 O 0.02958(19) 0.3810(4) 0.28129(18)
N1 N 0.1411(2) 0.5893(5) 0.35817(18)
C1 C 0.3102(2) 0.6904(6) 0.3995(2)
H1 H 0.3320 0.5614 0.4081
C2 C 0.3648(3) 0.8358(6) 0.4377(2)
H2 H 0.4249 0.8056 0.4696
C3 C 0.3341(3) 1.0396(7) 0.4312(2)
C4 C 0.2351(3) 1.0777(6) 0.3865(2)
H3 H 0.2105 1.2048 0.3860
C5 C 0.1807(2) 0.9363(6) 0.3471(2)
H4 H 0.1183 0.9671 0.3206
C6 C 0.2146(2) 0.7270(5) 0.3430(2)
C7 C 0.2189(2) 0.6823(5) 0.2496(2)
C8 C 0.1492(2) 0.5554(6) 0.2194(2)
C9 C 0.0971(2) 0.4958(6) 0.2865(2)
C10 C 0.1094(3) 0.5765(7) 0.4389(3)
H5 H 0.1634 0.5493 0.4834
H6 H 0.0630 0.4724 0.4364
H7 H 0.0806 0.6992 0.4504
C11 C 0.1188(3) 0.4802(7) 0.1267(3)
C12 C 0.2921(3) 0.7755(7) 0.2084(2)
C13 C 0.3764(3) 0.6782(9) 0.2051(3)
H8 H 0.3875 0.5537 0.2292
C14 C 0.4451(4) 0.7658(13) 0.1656(4)
H9 H 0.5013 0.6984 0.1620
C15 C 0.4302(5) 0.9469(13) 0.1327(4)
H10 H 0.4773 1.0056 0.1079
C16 C 0.3482(6) 1.0466(10) 0.1346(4)
H11 H 0.3385 1.1712 0.1103
C17 C 0.2780(4) 0.9605(8) 0.1734(3)
H12 H 0.2216 1.0287 0.1756
loop_
_geom_bond_atom_site_label_1
_geom_bond_atom_site_label_2
_geom_bond_site_symmetry_1
_geom_bond_site_symmetry_2
F1 C11 1_555 1_555
F2 C11 1_555 1_555
F3 C11 1_555 1_555
O1 C3 1_555 1_555
O2 C9 1_555 1_555
N1 C6 1_555 1_555
C1 H1 1_555 1_555
C2 C1 1_555 1_555
H2 C2 1_555 1_555
C3 C2 1_555 1_555
C4 C3 1_555 1_555
H3 C4 1_555 1_555
C5 C4 1_555 1_555
H4 C5 1_555 1_555
C6 C1 1_555 1_555
C7 C6 1_555 1_555
C8 C7 1_555 1_555
C9 N1 1_555 1_555
C10 N1 1_555 1_555
H5 C10 1_555 1_555
H6 C10 1_555 1_555
H7 C10 1_555 1_555
C11 C8 1_555 1_555
C12 C7 1_555 1_555
C13 C12 1_555 1_555
H8 C13 1_555 1_555
C14 C13 1_555 1_555
H9 C14 1_555 1_555
C15 C14 1_555 1_555
H10 C15 1_555 1_555
C16 C15 1_555 1_555
H11 C16 1_555 1_555
C17 C12 1_555 1_555
H12 C17 1_555 1_555
C5 C6 1_555 1_555
C8 C9 1_555 1_555
C16 C17 1_555 1_555

#END
