
#######################################################################
#
#                 Cambridge Crystallographic Data Centre
#                                CCDC 
#
#######################################################################
#
# If this CIF has been generated from an entry in the Cambridge 
# Structural Database, then it will include bibliographic, chemical, 
# crystal, experimental, refinement or atomic coordinate data resulting 
# from the CCDC's data processing and validation procedures.
#
#######################################################################

data_KOXJUE
_chemical_formula_moiety         'C23 H20 N2'
_chemical_name_systematic        1,4-dibenzyl-5-phenyl-1H-imidazole
_symmetry_cell_setting           monoclinic
_symmetry_space_group_name_H-M   'P 21/n'
_symmetry_Int_Tables_number      14
_space_group_name_Hall           '-P 2yn'
loop_
_symmetry_equiv_pos_site_id
_symmetry_equiv_pos_as_xyz
1 x,y,z
2 1/2-x,1/2+y,1/2-z
3 -x,-y,-z
4 1/2+x,1/2-y,1/2+z
_cell_length_a                   11.3860(19)
_cell_length_b                   9.6071(8)
_cell_length_c                   15.515(3)
_cell_angle_alpha                90
_cell_angle_beta                 90.871(13)
_cell_angle_gamma                90
_cell_volume                     1696.93
_exptl_crystal_colour            colorless
_exptl_crystal_description       prismatic
_cell_formula_units_Z            4
loop_
_atom_site_label
_atom_site_type_symbol
_atom_site_fract_x
_atom_site_fract_y
_atom_site_fract_z
N1 N 0.12115(9) 0.69502(12) 0.16187(7)
N2 N 0.10068(9) 0.54287(13) 0.26947(7)
C1 C 0.00863(10) 0.63890(13) 0.15283(7)
C2 C -0.00166(10) 0.54533(13) 0.21991(7)
C3 C 0.17074(11) 0.63418(15) 0.23265(8)
H1 H 0.2476 0.6551 0.2534
C4 C 0.17400(11) 0.80948(14) 0.11374(8)
H2 H 0.2108 0.8749 0.1554
H3 H 0.1107 0.8604 0.0827
C5 C 0.26554(10) 0.76610(13) 0.04916(7)
C6 C 0.28399(10) 0.62871(13) 0.02404(8)
H4 H 0.2380 0.5562 0.0479
C7 C 0.37018(11) 0.59738(14) -0.03623(9)
H5 H 0.3827 0.5035 -0.0531
C8 C 0.43754(11) 0.70296(15) -0.07156(8)
H6 H 0.4954 0.6814 -0.1129
C9 C 0.42011(11) 0.84031(14) -0.04630(8)
H7 H 0.4665 0.9126 -0.0700
C10 C 0.33465(10) 0.87158(13) 0.01372(8)
H8 H 0.3230 0.9654 0.0309
C11 C -0.07600(10) 0.68091(13) 0.08486(8)
C12 C -0.04515(10) 0.68365(14) -0.00234(8)
H9 H 0.0320 0.6578 -0.0185
C13 C -0.12645(11) 0.72389(15) -0.06548(8)
H10 H -0.1041 0.7270 -0.1242
C14 C -0.24048(11) 0.75964(14) -0.04277(8)
H11 H -0.2963 0.7858 -0.0859
C15 C -0.27213(10) 0.75676(13) 0.04360(8)
H12 H -0.3498 0.7810 0.0593
C16 C -0.19075(10) 0.71857(13) 0.10682(8)
H13 H -0.2130 0.7179 0.1656
C17 C -0.10520(10) 0.45504(13) 0.24106(8)
H14 H -0.1707 0.4783 0.2009
H15 H -0.1309 0.4777 0.3001
C18 C -0.08201(10) 0.29986(13) 0.23595(7)
C19 C -0.14001(10) 0.21832(14) 0.17394(8)
H16 H -0.1939 0.2609 0.1347
C20 C -0.12000(11) 0.07554(15) 0.16883(8)
H17 H -0.1590 0.0219 0.1256
C21 C -0.04309(11) 0.01140(14) 0.22688(8)
H18 H -0.0302 -0.0862 0.2241
C22 C 0.01496(11) 0.09143(14) 0.28919(8)
H19 H 0.0677 0.0481 0.3289
C23 C -0.00375(10) 0.23435(14) 0.29362(8)
H20 H 0.0368 0.2880 0.3360
loop_
_geom_bond_atom_site_label_1
_geom_bond_atom_site_label_2
_geom_bond_site_symmetry_1
_geom_bond_site_symmetry_2
N1 C1 1_555 1_555
N2 C2 1_555 1_555
C1 C2 1_555 1_555
C2 C17 1_555 1_555
C3 N1 1_555 1_555
H1 C3 1_555 1_555
C4 N1 1_555 1_555
H2 C4 1_555 1_555
H3 C4 1_555 1_555
C5 C4 1_555 1_555
C6 C5 1_555 1_555
H4 C6 1_555 1_555
C7 C6 1_555 1_555
H5 C7 1_555 1_555
C8 C7 1_555 1_555
H6 C8 1_555 1_555
C9 C8 1_555 1_555
H7 C9 1_555 1_555
C10 C5 1_555 1_555
H8 C10 1_555 1_555
C11 C1 1_555 1_555
C12 C11 1_555 1_555
H9 C12 1_555 1_555
C13 C12 1_555 1_555
H10 C13 1_555 1_555
C14 C13 1_555 1_555
H11 C14 1_555 1_555
C15 C14 1_555 1_555
H12 C15 1_555 1_555
C16 C11 1_555 1_555
H13 C16 1_555 1_555
C17 H14 1_555 1_555
H15 C17 1_555 1_555
C18 C17 1_555 1_555
C19 C18 1_555 1_555
H16 C19 1_555 1_555
C20 C19 1_555 1_555
H17 C20 1_555 1_555
C21 C20 1_555 1_555
H18 C21 1_555 1_555
C22 C21 1_555 1_555
H19 C22 1_555 1_555
C23 C18 1_555 1_555
H20 C23 1_555 1_555
N2 C3 1_555 1_555
C9 C10 1_555 1_555
C15 C16 1_555 1_555
C22 C23 1_555 1_555

#END
