
#######################################################################
#
#                 Cambridge Crystallographic Data Centre
#                                CCDC 
#
#######################################################################
#
# If this CIF has been generated from an entry in the Cambridge 
# Structural Database, then it will include bibliographic, chemical, 
# crystal, experimental, refinement or atomic coordinate data resulting 
# from the CCDC's data processing and validation procedures.
#
#######################################################################

data_KOXMER
_chemical_formula_moiety         'C50 H54 S2'
_chemical_name_systematic        
6,12-bis(4-nonylphenyl)[1]benzothieno[2',3':4,5]pentaleno[1,2-b][1]benzothiophene
_symmetry_cell_setting           monoclinic
_symmetry_space_group_name_H-M   'P 21/c'
_symmetry_Int_Tables_number      14
_space_group_name_Hall           '-P 2ybc'
loop_
_symmetry_equiv_pos_site_id
_symmetry_equiv_pos_as_xyz
1 x,y,z
2 -x,1/2+y,1/2-z
3 -x,-y,-z
4 x,1/2-y,1/2+z
_cell_length_a                   8.4962(8)
_cell_length_b                   10.0547(6)
_cell_length_c                   23.1703(17)
_cell_angle_alpha                90
_cell_angle_beta                 98.262(7)
_cell_angle_gamma                90
_cell_volume                     1958.82
_exptl_crystal_colour            black
_exptl_crystal_description       plate
_cell_formula_units_Z            2
_chemical_properties_physical    'Air-sensitive, Light-sensitive'
_exptl_crystal_recrystallization_method 'Chloroform/ acetonitrile'
loop_
_atom_site_label
_atom_site_type_symbol
_atom_site_fract_x
_atom_site_fract_y
_atom_site_fract_z
S1 S 0.1688(7) 0.6562(3) 0.12619(16)
C1 C 0.128(3) 0.5380(11) 0.1788(6)
C2 C 0.180(2) 0.5521(12) 0.2394(6)
H1 H 0.2379 0.6280 0.2547
C3 C 0.143(3) 0.4521(12) 0.2749(7)
H2 H 0.1667 0.4617 0.3161
C4 C 0.070(3) 0.3363(13) 0.2515(7)
H3 H 0.0530 0.2654 0.2770
C5 C 0.022(2) 0.3210(11) 0.1917(7)
H4 H -0.0386 0.2462 0.1766
C6 C 0.068(2) 0.4235(11) 0.1535(6)
C7 C 0.090(3) 0.5538(12) 0.0716(6)
C8 C 0.037(3) 0.5619(10) 0.0083(6)
C9 C 0.041(3) 0.6438(10) -0.0394(6)
C10 C -0.028(3) 0.5660(10) -0.0902(7)
C11 C 0.107(3) 0.7792(11) -0.0379(6)
C12 C 0.035(3) 0.8789(11) -0.0725(6)
H5 H -0.0556 0.8591 -0.1001
C13 C 0.093(3) 1.0083(12) -0.0679(7)
H6 H 0.0389 1.0750 -0.0922
C14 C 0.229(3) 1.0445(11) -0.0284(7)
C15 C 0.295(3) 0.9434(10) 0.0057(6)
H7 H 0.3844 0.9639 0.0339
C16 C 0.243(3) 0.8144(13) 0.0030(7)
H8 H 0.2967 0.7490 0.0281
C17 C 0.282(3) 1.1838(11) -0.0241(7)
H9 H 0.3828 1.1876 0.0033
H10 H 0.2021 1.2354 -0.0064
C18 C 0.309(3) 1.2528(11) -0.0796(7)
H11 H 0.3897 1.2032 -0.0977
H12 H 0.2086 1.2524 -0.1072
C19 C 0.364(3) 1.3934(10) -0.0688(6)
H13 H 0.4647 1.3932 -0.0416
H14 H 0.2837 1.4420 -0.0497
C20 C 0.390(2) 1.4697(11) -0.1265(6)
H15 H 0.4618 1.4177 -0.1477
H16 H 0.2865 1.4791 -0.1521
C21 C 0.459(3) 1.6046(11) -0.1123(7)
H17 H 0.5599 1.5938 -0.0853
H18 H 0.3852 1.6557 -0.0914
C22 C 0.493(3) 1.6856(12) -0.1648(7)
H19 H 0.5741 1.6381 -0.1837
H20 H 0.3946 1.6902 -0.1933
C23 C 0.551(3) 1.8253(12) -0.1507(7)
H21 H 0.6347 1.8216 -0.1163
H22 H 0.4615 1.8777 -0.1396
C24 C 0.619(3) 1.9004(12) -0.2000(7)
H23 H 0.7128 1.8520 -0.2099
H24 H 0.5377 1.9022 -0.2353
C25 C 0.665(3) 2.0385(13) -0.1832(7)
H25 H 0.5750 2.0849 -0.1705
H26 H 0.6978 2.0850 -0.2168
H27 H 0.7545 2.0370 -0.1512
S1B S -0.1688(7) 0.3438(3) -0.12619(16)
C1B C -0.128(3) 0.4620(11) -0.1788(6)
C2B C -0.180(2) 0.4479(12) -0.2394(6)
H1B H -0.2379 0.3720 -0.2547
C3B C -0.143(3) 0.5479(12) -0.2749(7)
H2B H -0.1667 0.5383 -0.3161
C4B C -0.070(3) 0.6637(13) -0.2515(7)
H3B H -0.0530 0.7346 -0.2770
C5B C -0.022(2) 0.6790(11) -0.1917(7)
H4B H 0.0386 0.7538 -0.1766
C6B C -0.068(2) 0.5765(11) -0.1535(6)
C7B C -0.090(3) 0.4462(12) -0.0716(6)
C8B C -0.037(3) 0.4381(10) -0.0083(6)
C9B C -0.041(3) 0.3562(10) 0.0394(6)
C10B C 0.028(3) 0.4340(10) 0.0902(7)
C11B C -0.107(3) 0.2208(11) 0.0379(6)
C12B C -0.035(3) 0.1211(11) 0.0725(6)
H5B H 0.0556 0.1409 0.1001
C13B C -0.093(3) -0.0083(12) 0.0679(7)
H6B H -0.0389 -0.0750 0.0922
C14B C -0.229(3) -0.0445(11) 0.0284(7)
C15B C -0.295(3) 0.0566(10) -0.0057(6)
H7B H -0.3844 0.0361 -0.0339
C16B C -0.243(3) 0.1856(13) -0.0030(7)
H8B H -0.2967 0.2510 -0.0281
C17B C -0.282(3) -0.1838(11) 0.0241(7)
H9B H -0.3828 -0.1876 -0.0033
H10B H -0.2021 -0.2354 0.0064
C18B C -0.309(3) -0.2528(11) 0.0796(7)
H11B H -0.3897 -0.2032 0.0977
H12B H -0.2086 -0.2524 0.1072
C19B C -0.364(3) -0.3934(10) 0.0688(6)
H13B H -0.4647 -0.3932 0.0416
H14B H -0.2837 -0.4420 0.0497
C20B C -0.390(2) -0.4697(11) 0.1265(6)
H15B H -0.4618 -0.4177 0.1477
H16B H -0.2865 -0.4791 0.1521
C21B C -0.459(3) -0.6046(11) 0.1123(7)
H17B H -0.5599 -0.5938 0.0853
H18B H -0.3852 -0.6557 0.0914
C22B C -0.493(3) -0.6856(12) 0.1648(7)
H19B H -0.5741 -0.6381 0.1837
H20B H -0.3946 -0.6902 0.1933
C23B C -0.551(3) -0.8253(12) 0.1507(7)
H21B H -0.6347 -0.8216 0.1163
H22B H -0.4615 -0.8777 0.1396
C24B C -0.619(3) -0.9004(12) 0.2000(7)
H23B H -0.7128 -0.8520 0.2099
H24B H -0.5377 -0.9022 0.2353
C25B C -0.665(3) -1.0385(13) 0.1832(7)
H25B H -0.5750 -1.0849 0.1705
H26B H -0.6978 -1.0850 0.2168
H27B H -0.7545 -1.0370 0.1512
loop_
_geom_bond_atom_site_label_1
_geom_bond_atom_site_label_2
_geom_bond_site_symmetry_1
_geom_bond_site_symmetry_2
S1 C1 1_555 1_555
C1 C2 1_555 1_555
C2 H1 1_555 1_555
C3 C2 1_555 1_555
H2 C3 1_555 1_555
C4 C3 1_555 1_555
H3 C4 1_555 1_555
C5 C4 1_555 1_555
H4 C5 1_555 1_555
C6 C1 1_555 1_555
C7 S1 1_555 1_555
C8 C7 1_555 1_555
C9 C8 1_555 1_555
C10 C9 1_555 1_555
C11 C9 1_555 1_555
C12 C11 1_555 1_555
H5 C12 1_555 1_555
C13 C12 1_555 1_555
H6 C13 1_555 1_555
C14 C13 1_555 1_555
C15 C14 1_555 1_555
H7 C15 1_555 1_555
C16 C11 1_555 1_555
H8 C16 1_555 1_555
C17 C14 1_555 1_555
H9 C17 1_555 1_555
H10 C17 1_555 1_555
C18 C17 1_555 1_555
H11 C18 1_555 1_555
H12 C18 1_555 1_555
C19 C18 1_555 1_555
H13 C19 1_555 1_555
H14 C19 1_555 1_555
C20 C19 1_555 1_555
H15 C20 1_555 1_555
H16 C20 1_555 1_555
C21 C20 1_555 1_555
H17 C21 1_555 1_555
H18 C21 1_555 1_555
C22 C21 1_555 1_555
H19 C22 1_555 1_555
H20 C22 1_555 1_555
C23 C22 1_555 1_555
H21 C23 1_555 1_555
H22 C23 1_555 1_555
C24 C23 1_555 1_555
H23 C24 1_555 1_555
H24 C24 1_555 1_555
C25 C24 1_555 1_555
H25 C25 1_555 1_555
H26 C25 1_555 1_555
H27 C25 1_555 1_555
S1B C1B 1_555 1_555
C1B C2B 1_555 1_555
C2B H1B 1_555 1_555
C3B C2B 1_555 1_555
H2B C3B 1_555 1_555
C4B C3B 1_555 1_555
H3B C4B 1_555 1_555
C5B C4B 1_555 1_555
H4B C5B 1_555 1_555
C6B C10 1_555 1_555
C7B C10 1_555 1_555
C8B C8 1_555 1_555
C9B C8B 1_555 1_555
C10B C6 1_555 1_555
C11B C9B 1_555 1_555
C12B C11B 1_555 1_555
H5B C12B 1_555 1_555
C13B C12B 1_555 1_555
H6B C13B 1_555 1_555
C14B C13B 1_555 1_555
C15B C14B 1_555 1_555
H7B C15B 1_555 1_555
C16B C11B 1_555 1_555
H8B C16B 1_555 1_555
C17B C14B 1_555 1_555
H9B C17B 1_555 1_555
H10B C17B 1_555 1_555
C18B C17B 1_555 1_555
H11B C18B 1_555 1_555
H12B C18B 1_555 1_555
C19B C18B 1_555 1_555
H13B C19B 1_555 1_555
H14B C19B 1_555 1_555
C20B C19B 1_555 1_555
H15B C20B 1_555 1_555
H16B C20B 1_555 1_555
C21B C20B 1_555 1_555
H17B C21B 1_555 1_555
H18B C21B 1_555 1_555
C22B C21B 1_555 1_555
H19B C22B 1_555 1_555
H20B C22B 1_555 1_555
C23B C22B 1_555 1_555
H21B C23B 1_555 1_555
H22B C23B 1_555 1_555
C24B C23B 1_555 1_555
H23B C24B 1_555 1_555
H24B C24B 1_555 1_555
C25B C24B 1_555 1_555
H25B C25B 1_555 1_555
H26B C25B 1_555 1_555
H27B C25B 1_555 1_555
C5 C6 1_555 1_555
C7 C10B 1_555 1_555
C15 C16 1_555 1_555
S1B C7B 1_555 1_555
C1B C6B 1_555 1_555
C5B C6B 1_555 1_555
C7B C8B 1_555 1_555
C9B C10B 1_555 1_555
C15B C16B 1_555 1_555

#END
