
#######################################################################
#
#                 Cambridge Crystallographic Data Centre
#                                CCDC 
#
#######################################################################
#
# If this CIF has been generated from an entry in the Cambridge 
# Structural Database, then it will include bibliographic, chemical, 
# crystal, experimental, refinement or atomic coordinate data resulting 
# from the CCDC's data processing and validation procedures.
#
#######################################################################

data_KOXXAY
_chemical_formula_moiety         'C32 H36 N2 O5,2(H2 O1)'
_chemical_name_systematic        
'2-hydroxy-8-(1H-indol-3-ylmethyl)-1,9,9a,14-tetramethyl-3a,4,7,8,8a,9,9a,10a,10b,13,14,14a-dodecahydro-3H-cyclopenta[7,8]cyclodeca[1,2-d]oxireno[f]isoindole-3,5,6-trione dihydrate'
_symmetry_cell_setting           monoclinic
_symmetry_space_group_name_H-M   'P 21'
_symmetry_Int_Tables_number      4
_space_group_name_Hall           'P 2yb'
loop_
_symmetry_equiv_pos_site_id
_symmetry_equiv_pos_as_xyz
1 x,y,z
2 -x,1/2+y,-z
_cell_length_a                   13.4499(6)
_cell_length_b                   7.4600(4)
_cell_length_c                   14.9726(7)
_cell_angle_alpha                90
_cell_angle_beta                 104.948(2)
_cell_angle_gamma                90
_cell_volume                     1451.46
_exptl_crystal_colour            colorless
_exptl_crystal_description       prism
_cell_formula_units_Z            2
loop_
_atom_site_label
_atom_site_type_symbol
_atom_site_fract_x
_atom_site_fract_y
_atom_site_fract_z
O1 O 0.6406(3) 0.6924(5) 0.6386(2)
H1 H 0.6208 0.7372 0.5855
O2 O 0.1450(3) 1.2426(6) 0.9743(2)
O3 O 0.2758(2) 1.2335(4) 0.69555(19)
O4 O 0.2969(2) 0.7308(4) 0.84421(19)
O5 O 0.4859(3) 0.9754(5) 0.5904(2)
N1 N 0.1102(3) 1.1322(5) 0.6608(2)
H2 H 0.0885 1.2027 0.6126
N2 N 0.2053(3) 0.5342(5) 0.5807(2)
H3 H 0.2421 0.4354 0.5927
C1 C 0.2455(4) 0.7887(7) 0.3816(3)
H4 H 0.2818 0.7892 0.3349
C2 C 0.2604(4) 0.6509(7) 0.4438(3)
H5 H 0.3071 0.5566 0.4415
C3 C 0.2054(3) 0.6527(6) 0.5104(3)
C4 C 0.1346(3) 0.7900(6) 0.5148(3)
C5 C 0.0911(3) 0.7496(6) 0.5911(3)
C6 C 0.0070(3) 0.8542(7) 0.6170(3)
H6 H -0.0355 0.7694 0.6422
H7 H -0.0378 0.9068 0.5600
C7 C 0.0423(3) 1.0059(6) 0.6879(3)
H8 H -0.0195 1.0710 0.6966
C8 C 0.1078(3) 0.9388(7) 0.7835(3)
H9 H 0.1087 0.8048 0.7822
C9 C 0.2187(3) 1.0068(6) 0.7919(2)
C10 C 0.2929(3) 0.8515(6) 0.7892(3)
C11 C 0.3572(3) 0.8445(7) 0.7199(3)
H10 H 0.3161 0.8972 0.6612
H11 H 0.3690 0.7169 0.7075
C12 C 0.4624(3) 0.9395(6) 0.7461(3)
H12 H 0.4553 1.0710 0.7560
C13 C 0.5393(3) 0.8504(6) 0.8293(3)
H13 H 0.5001 0.7771 0.8646
C14 C 0.6011(3) 0.7262(6) 0.7842(3)
C15 C 0.6734(4) 0.5892(7) 0.8371(3)
H14 H 0.7004 0.5164 0.7941
H15 H 0.6368 0.5118 0.8709
H16 H 0.7304 0.6492 0.8809
C16 C 0.5878(3) 0.7677(7) 0.6946(3)
C17 C 0.6141(3) 0.9782(6) 0.8978(3)
H17 H 0.6517 0.9043 0.9516
C18 C 0.5597(3) 1.1314(7) 0.9360(3)
H18 H 0.6021 1.1646 0.9982
H19 H 0.5556 1.2376 0.8955
C19 C 0.4541(3) 1.0853(6) 0.9427(3)
H20 H 0.4458 0.9897 0.9821
C20 C 0.3713(3) 1.1720(6) 0.8958(3)
H21 H 0.3807 1.2811 0.8663
C21 C 0.2640(3) 1.1081(6) 0.8868(2)
H22 H 0.2666 1.0199 0.9376
C22 C 0.1889(4) 1.2543(8) 0.8957(3)
H23 H 0.2017 1.3770 0.8742
C23 C 0.0813(4) 1.1998(9) 0.8826(3)
C24 C 0.0645(4) 0.9990(8) 0.8659(3)
H24 H 0.1073 0.9376 0.9222
C25 C 0.2062(3) 1.1379(6) 0.7111(3)
C26 C 0.5113(4) 0.9022(6) 0.6668(3)
C27 C 0.1385(3) 0.5956(6) 0.6287(3)
H25 H 0.1267 0.5383 0.6817
C28 C 0.1770(4) 0.9307(7) 0.3855(3)
H26 H 0.1696 1.0269 0.3428
C29 C 0.1209(3) 0.9310(7) 0.4506(3)
H27 H 0.0738 1.0252 0.4521
C30 C -0.0458(4) 0.9356(11) 0.8546(4)
H28 H -0.0678 0.9654 0.9103
H29 H -0.0493 0.8055 0.8452
H30 H -0.0912 0.9950 0.8010
C31 C -0.0046(4) 1.3315(11) 0.8496(4)
H31 H -0.0570 1.3131 0.8835
H32 H -0.0353 1.3138 0.7833
H33 H 0.0226 1.4538 0.8603
C32 C 0.6944(4) 1.0623(7) 0.8552(4)
H34 H 0.6598 1.1237 0.7977
H35 H 0.7395 0.9685 0.8419
H36 H 0.7355 1.1489 0.8987
O6 O 0.3914(4) 0.2989(6) 0.5375(2)
O7 O 0.4547(11) 0.389(2) 0.5913(9)
loop_
_geom_bond_atom_site_label_1
_geom_bond_atom_site_label_2
_geom_bond_site_symmetry_1
_geom_bond_site_symmetry_2
O1 H1 1_555 1_555
O2 C22 1_555 1_555
O3 C25 1_555 1_555
O4 C10 1_555 1_555
O5 C26 1_555 1_555
N1 H2 1_555 1_555
N2 H3 1_555 1_555
C1 H4 1_555 1_555
C2 C1 1_555 1_555
H5 C2 1_555 1_555
C3 N2 1_555 1_555
C4 C3 1_555 1_555
C5 C4 1_555 1_555
C6 C5 1_555 1_555
H6 C6 1_555 1_555
H7 C6 1_555 1_555
C7 N1 1_555 1_555
H8 C7 1_555 1_555
C8 C7 1_555 1_555
H9 C8 1_555 1_555
C9 C8 1_555 1_555
C10 C9 1_555 1_555
C11 C10 1_555 1_555
H10 C11 1_555 1_555
H11 C11 1_555 1_555
C12 C11 1_555 1_555
H12 C12 1_555 1_555
C13 C12 1_555 1_555
H13 C13 1_555 1_555
C14 C13 1_555 1_555
C15 C14 1_555 1_555
H14 C15 1_555 1_555
H15 C15 1_555 1_555
H16 C15 1_555 1_555
C16 O1 1_555 1_555
C17 C13 1_555 1_555
H17 C17 1_555 1_555
C18 C17 1_555 1_555
H18 C18 1_555 1_555
H19 C18 1_555 1_555
C19 C18 1_555 1_555
H20 C19 1_555 1_555
C20 C19 1_555 1_555
H21 C20 1_555 1_555
C21 C9 1_555 1_555
H22 C21 1_555 1_555
C22 C21 1_555 1_555
H23 C22 1_555 1_555
C23 O2 1_555 1_555
C24 C8 1_555 1_555
H24 C24 1_555 1_555
C25 N1 1_555 1_555
C26 C12 1_555 1_555
C27 N2 1_555 1_555
H25 C27 1_555 1_555
C28 C1 1_555 1_555
H26 C28 1_555 1_555
C29 C4 1_555 1_555
H27 C29 1_555 1_555
C30 C24 1_555 1_555
H28 C30 1_555 1_555
H29 C30 1_555 1_555
H30 C30 1_555 1_555
C31 C23 1_555 1_555
H31 C31 1_555 1_555
H32 C31 1_555 1_555
H33 C31 1_555 1_555
C32 C17 1_555 1_555
H34 C32 1_555 1_555
H35 C32 1_555 1_555
H36 C32 1_555 1_555
C2 C3 1_555 1_555
C5 C27 1_555 1_555
C6 C7 1_555 1_555
C9 C25 1_555 1_555
C14 C16 1_555 1_555
C16 C26 1_555 1_555
C20 C21 1_555 1_555
C22 C23 1_555 1_555
C23 C24 1_555 1_555
C28 C29 1_555 1_555

#END
