
#######################################################################
#
#                 Cambridge Crystallographic Data Centre
#                                CCDC 
#
#######################################################################
#
# If this CIF has been generated from an entry in the Cambridge 
# Structural Database, then it will include bibliographic, chemical, 
# crystal, experimental, refinement or atomic coordinate data resulting 
# from the CCDC's data processing and validation procedures.
#
#######################################################################

data_KOYLOB
_chemical_formula_moiety         '2(C12 H24 K1 O6 1+),C2 S4 2-,C5 H5 N1'
_chemical_name_systematic        
'bis((18-crown-6)-potassium) ethanebis((dithioate)) pyridine solvate'
_symmetry_cell_setting           monoclinic
_symmetry_space_group_name_H-M   'C 2/c'
_symmetry_Int_Tables_number      15
_space_group_name_Hall           '-C 2yn'
loop_
_symmetry_equiv_pos_site_id
_symmetry_equiv_pos_as_xyz
1 x,y,z
2 -x,y,1/2-z
3 1/2+x,1/2+y,z
4 1/2-x,1/2+y,1/2-z
5 -x,-y,-z
6 x,-y,1/2+z
7 1/2-x,1/2-y,-z
8 1/2+x,1/2-y,1/2+z
_cell_length_a                   23.321(3)
_cell_length_b                   10.1497(5)
_cell_length_c                   21.907(3)
_cell_angle_alpha                90
_cell_angle_beta                 127.579(19)
_cell_angle_gamma                90
_cell_volume                     4109.51
_exptl_crystal_colour            'intense green'
_exptl_crystal_description       needle
_cell_formula_units_Z            4
loop_
_atom_site_label
_atom_site_type_symbol
_atom_site_fract_x
_atom_site_fract_y
_atom_site_fract_z
S1 S -0.07295(5) 0.88688(9) 0.14850(5)
S2 S 0.03208(5) 1.10731(8) 0.19309(5)
C13 C -0.01107(15) 0.9980(3) 0.20961(18)
S1A S 0.07295(5) 0.88688(9) 0.35150(5)
S2A S -0.03208(5) 1.10731(8) 0.30691(5)
C13A C 0.01107(15) 0.9980(3) 0.29039(18)
K1 K 0.10944(3) 0.81296(6) 0.22348(4)
O1 O 0.24326(10) 0.9500(2) 0.33297(12)
O2 O 0.22804(13) 0.6942(3) 0.37003(13)
O3 O 0.10348(15) 0.5492(2) 0.26446(17)
O4 O 0.03560(12) 0.5939(2) 0.10961(15)
O5 O 0.05931(12) 0.8379(2) 0.06628(12)
O6 O 0.18060(11) 0.9891(2) 0.17831(12)
C1 C 0.29792(18) 0.8884(4) 0.40295(19)
H1 H 0.3265 0.9558 0.4435
H2 H 0.3309 0.8397 0.3969
C2 C 0.2648(2) 0.7955(4) 0.42609(19)
H3 H 0.3029 0.7566 0.4770
H4 H 0.2304 0.8433 0.4303
C3 C 0.2019(3) 0.5943(5) 0.3935(2)
H5 H 0.1682 0.6335 0.4016
H6 H 0.2429 0.5545 0.4426
C4 C 0.1642(3) 0.4920(4) 0.3331(3)
H7 H 0.1975 0.4547 0.3238
H8 H 0.1483 0.4198 0.3500
C5 C 0.0575(3) 0.4539(4) 0.2067(3)
H9 H 0.0352 0.3971 0.2237
H10 H 0.0859 0.3975 0.1971
C6 C 0.0003(2) 0.5260(4) 0.1348(3)
H11 H -0.0357 0.4632 0.0948
H12 H -0.0251 0.5890 0.1454
C7 C -0.01346(18) 0.6519(4) 0.0358(2)
H13 H -0.0471 0.7115 0.0358
H14 H -0.0423 0.5825 -0.0033
C8 C 0.02855(18) 0.7271(3) 0.0171(2)
H15 H 0.0672 0.6709 0.0247
H16 H -0.0036 0.7559 -0.0374
C9 C 0.09743(18) 0.9203(4) 0.04914(19)
H17 H 0.0644 0.9511 -0.0049
H18 H 0.1375 0.8706 0.0559
C10 C 0.12625(18) 1.0335(3) 0.10189(19)
H19 H 0.1471 1.0985 0.0867
H20 H 0.0868 1.0770 0.0993
C11 C 0.21167(19) 1.0945(4) 0.2319(2)
H21 H 0.1748 1.1355 0.2346
H22 H 0.2303 1.1625 0.2156
C12 C 0.27180(18) 1.0408(4) 0.3084(2)
H23 H 0.3074 0.9960 0.3049
H24 H 0.2968 1.1135 0.3462
N1? N 0.2127(13) 0.2967(14) 0.5270(14)
C14? C 0.2036(12) 0.300(2) 0.5141(16)
H25? H 0.1724 0.3398 0.5230
C15? C 0.1799(3) 0.2164(4) 0.4597(3)
H26? H 0.1299 0.1956 0.4296
H27? H 0.1317 0.1854 0.4326
C16? C 0.2205(3) 0.1698(4) 0.4388(3)
H28? H 0.1986 0.1096 0.3971
H29? H 0.1988 0.1178 0.3937
loop_
_geom_bond_atom_site_label_1
_geom_bond_atom_site_label_2
_geom_bond_site_symmetry_1
_geom_bond_site_symmetry_2
K1 O1 1_555 1_555
O1 C1 1_555 1_555
O2 K1 1_555 1_555
O3 K1 1_555 1_555
O4 K1 1_555 1_555
O5 K1 1_555 1_555
O6 K1 1_555 1_555
C1 H1 1_555 1_555
H2 C1 1_555 1_555
C2 O2 1_555 1_555
H3 C2 1_555 1_555
H4 C2 1_555 1_555
C3 O2 1_555 1_555
H5 C3 1_555 1_555
H6 C3 1_555 1_555
C4 O3 1_555 1_555
H7 C4 1_555 1_555
H8 C4 1_555 1_555
C5 O3 1_555 1_555
H9 C5 1_555 1_555
H10 C5 1_555 1_555
C6 O4 1_555 1_555
H11 C6 1_555 1_555
H12 C6 1_555 1_555
C7 O4 1_555 1_555
H13 C7 1_555 1_555
H14 C7 1_555 1_555
C8 O5 1_555 1_555
H15 C8 1_555 1_555
H16 C8 1_555 1_555
C9 O5 1_555 1_555
H17 C9 1_555 1_555
H18 C9 1_555 1_555
C10 O6 1_555 1_555
H19 C10 1_555 1_555
H20 C10 1_555 1_555
C11 O6 1_555 1_555
H21 C11 1_555 1_555
H22 C11 1_555 1_555
C12 O1 1_555 1_555
H23 C12 1_555 1_555
H24 C12 1_555 1_555
S1 C13 1_555 1_555
S2 C13 1_555 1_555
C13 C13A 1_555 1_555
S1A C13A 1_555 1_555
S2A C13A 1_555 1_555
C1 C2 1_555 1_555
C3 C4 1_555 1_555
C5 C6 1_555 1_555
C7 C8 1_555 1_555
C9 C10 1_555 1_555
C11 C12 1_555 1_555

#END
