
#######################################################################
#
#                 Cambridge Crystallographic Data Centre
#                                CCDC 
#
#######################################################################
#
# If this CIF has been generated from an entry in the Cambridge 
# Structural Database, then it will include bibliographic, chemical, 
# crystal, experimental, refinement or atomic coordinate data resulting 
# from the CCDC's data processing and validation procedures.
#
#######################################################################

data_KOYTOH02
_chemical_formula_moiety         'C11 H8 O2'
_chemical_name_systematic        2-hydroxy-1-naphthaldehyde
_symmetry_cell_setting           monoclinic
_symmetry_space_group_name_H-M   'P 21/n'
_symmetry_Int_Tables_number      14
_space_group_name_Hall           '-P 2yn'
loop_
_symmetry_equiv_pos_site_id
_symmetry_equiv_pos_as_xyz
1 x,y,z
2 1/2-x,1/2+y,1/2-z
3 -x,-y,-z
4 1/2+x,1/2-y,1/2+z
_cell_length_a                   5.6237(2)
_cell_length_b                   9.3621(4)
_cell_length_c                   15.5177(7)
_cell_angle_alpha                90
_cell_angle_beta                 98.461(2)
_cell_angle_gamma                90
_cell_volume                     808.109
_cell_formula_units_Z            4
loop_
_atom_site_label
_atom_site_type_symbol
_atom_site_fract_x
_atom_site_fract_y
_atom_site_fract_z
C1 C 1.0344(3) 0.77196(16) 0.51858(9)
C2 C 1.0934(2) 0.86282(15) 0.59356(9)
C3 C 0.9558(2) 0.85168(16) 0.66290(9)
C4 C 1.2823(3) 0.96403(19) 0.60282(11)
H1 H 1.3746 0.9745 0.5582
O1 O 0.7745(2) 0.59198(16) 0.44689(8)
H2 H 0.8592 0.6078 0.4092
C5 C 0.8423(3) 0.67709(17) 0.51572(10)
C6 C 1.0122(3) 0.93833(18) 0.73777(10)
H3 H 0.9219 0.9301 0.7832
O2 O 1.1257(3) 0.70089(17) 0.38062(9)
C7 C 0.7077(3) 0.66728(18) 0.58522(11)
H4 H 0.5805 0.6031 0.5824
C8 C 0.7645(3) 0.75196(18) 0.65628(10)
H5 H 0.6752 0.7443 0.7020
C9 C 1.1685(3) 0.7755(2) 0.44612(11)
H6 H 1.2968 0.8390 0.4493
C10 C 1.1970(3) 1.03359(19) 0.74430(11)
H7 H 1.2330 1.0896 0.7940
C11 C 1.3324(3) 1.0468(2) 0.67591(12)
H8 H 1.4576 1.1125 0.6802
loop_
_geom_bond_atom_site_label_1
_geom_bond_atom_site_label_2
_geom_bond_site_symmetry_1
_geom_bond_site_symmetry_2
C1 C2 1_555 1_555
C2 C3 1_555 1_555
C3 C6 1_555 1_555
C4 C2 1_555 1_555
H1 C4 1_555 1_555
O1 H2 1_555 1_555
C5 C1 1_555 1_555
C6 H3 1_555 1_555
O2 C9 1_555 1_555
C7 C5 1_555 1_555
H4 C7 1_555 1_555
C8 C3 1_555 1_555
H5 C8 1_555 1_555
C9 C1 1_555 1_555
H6 C9 1_555 1_555
C10 C6 1_555 1_555
H7 C10 1_555 1_555
C11 C4 1_555 1_555
H8 C11 1_555 1_555
O1 C5 1_555 1_555
C7 C8 1_555 1_555
C10 C11 1_555 1_555

#END
