
#######################################################################
#
#                 Cambridge Crystallographic Data Centre
#                                CCDC 
#
#######################################################################
#
# If this CIF has been generated from an entry in the Cambridge 
# Structural Database, then it will include bibliographic, chemical, 
# crystal, experimental, refinement or atomic coordinate data resulting 
# from the CCDC's data processing and validation procedures.
#
#######################################################################

data_KOYVOJ
_chemical_formula_moiety         'C10 H2 F12'
_chemical_name_systematic        1,2,4,5-tetrakis(Trifluoromethyl)benzene
_symmetry_cell_setting           orthorhombic
_symmetry_space_group_name_H-M   'P b c a'
_symmetry_Int_Tables_number      61
_space_group_name_Hall           '-P 2ac 2ab'
loop_
_symmetry_equiv_pos_site_id
_symmetry_equiv_pos_as_xyz
1 x,y,z
2 1/2-x,1/2+y,z
3 x,1/2-y,1/2+z
4 1/2-x,-y,1/2+z
5 -x,-y,-z
6 1/2+x,1/2-y,-z
7 -x,1/2+y,1/2-z
8 1/2+x,y,1/2-z
_cell_length_a                   9.203(3)
_cell_length_b                   9.811(3)
_cell_length_c                   12.705(6)
_cell_angle_alpha                90
_cell_angle_beta                 90
_cell_angle_gamma                90
_cell_volume                     1147.14
_exptl_crystal_colour            colorless
_cell_formula_units_Z            4
loop_
_atom_site_label
_atom_site_type_symbol
_atom_site_fract_x
_atom_site_fract_y
_atom_site_fract_z
C1 C 0.0508(3) 0.5285(3) 0.1010(2)
C2 C 0.1113(3) 0.5950(3) 0.0141(2)
C3 C -0.0583(3) 0.4346(3) 0.0854(3)
C4 C 0.0984(4) 0.5536(3) 0.2126(3)
C5 C 0.2326(4) 0.6974(4) 0.0226(3)
F1 F 0.0416(3) 0.6681(2) 0.2518(2)
F2 F 0.0550(3) 0.4539(2) 0.2779(2)
F3 F 0.2415(2) 0.5598(3) 0.2241(2)
F4 F 0.3610(2) 0.6399(3) 0.0356(2)
F5 F 0.2146(3) 0.7856(2) 0.1003(2)
F6 F 0.2461(3) 0.7704(3) -0.0653(2)
H1 H -0.089(4) 0.402(3) 0.133(3)
C3D C 0.0583(3) 0.5654(3) -0.0854(3)
C2D C -0.1113(3) 0.4050(3) -0.0141(2)
C1D C -0.0508(3) 0.4715(3) -0.1010(2)
H1D H 0.089(4) 0.598(3) -0.133(3)
C5D C -0.2326(4) 0.3026(4) -0.0226(3)
C4D C -0.0984(4) 0.4464(3) -0.2126(3)
F4D F -0.3610(2) 0.3601(3) -0.0356(2)
F5D F -0.2146(3) 0.2144(2) -0.1003(2)
F6D F -0.2461(3) 0.2296(3) 0.0653(2)
F1D F -0.0416(3) 0.3319(2) -0.2518(2)
F2D F -0.0550(3) 0.5461(2) -0.2779(2)
F3D F -0.2415(2) 0.4402(3) -0.2241(2)
loop_
_geom_bond_atom_site_label_1
_geom_bond_atom_site_label_2
_geom_bond_site_symmetry_1
_geom_bond_site_symmetry_2
C1 C2 1_555 1_555
C2 C5 1_555 1_555
C3 C1 1_555 1_555
C4 C1 1_555 1_555
C5 F4 1_555 1_555
F1 C4 1_555 1_555
F2 C4 1_555 1_555
F3 C4 1_555 1_555
F5 C5 1_555 1_555
F6 C5 1_555 1_555
H1 C3 1_555 1_555
C3D C2 1_555 1_555
C2D C3 1_555 1_555
C1D C3D 1_555 1_555
H1D C3D 1_555 1_555
C5D C2D 1_555 1_555
C4D C1D 1_555 1_555
F4D C5D 1_555 1_555
F5D C5D 1_555 1_555
F6D C5D 1_555 1_555
F1D C4D 1_555 1_555
F2D C4D 1_555 1_555
F3D C4D 1_555 1_555
C2D C1D 1_555 1_555

#END
