
#######################################################################
#
#                 Cambridge Crystallographic Data Centre
#                                CCDC 
#
#######################################################################
#
# If this CIF has been generated from an entry in the Cambridge 
# Structural Database, then it will include bibliographic, chemical, 
# crystal, experimental, refinement or atomic coordinate data resulting 
# from the CCDC's data processing and validation procedures.
#
#######################################################################

data_KOZWED
_chemical_formula_moiety         'C46 H58 Mg1 N2 O3'
_chemical_name_systematic        
(N,N'-bis(2,6-diethylphenyl)phenanthrene-9,10-diaminato)-tris(tetrahydrofuran)-magnesium
_symmetry_cell_setting           orthorhombic
_symmetry_space_group_name_H-M   'P b c a'
_symmetry_Int_Tables_number      61
_space_group_name_Hall           '-P 2ac 2ab'
loop_
_symmetry_equiv_pos_site_id
_symmetry_equiv_pos_as_xyz
1 x,y,z
2 1/2-x,-y,1/2+z
3 -x,1/2+y,1/2-z
4 1/2+x,1/2-y,-z
5 -x,-y,-z
6 1/2+x,y,1/2-z
7 x,1/2-y,1/2+z
8 1/2-x,1/2+y,z
_cell_length_a                   19.2952(11)
_cell_length_b                   19.2068(11)
_cell_length_c                   21.3926(12)
_cell_angle_alpha                90
_cell_angle_beta                 90
_cell_angle_gamma                90
_cell_volume                     7928.08
_exptl_crystal_colour            red
_exptl_crystal_description       block
_cell_formula_units_Z            8
loop_
_atom_site_label
_atom_site_type_symbol
_atom_site_fract_x
_atom_site_fract_y
_atom_site_fract_z
C1 C 0.32291(15) 0.96207(15) 0.14824(14)
C2 C 0.36987(15) 1.00887(16) 0.11512(15)
C3 C 0.37452(16) 1.01150(18) 0.04873(15)
H1 H 0.3454 0.9819 0.0247
C4 C 0.41946(18) 1.05510(19) 0.01824(17)
H2 H 0.4216 1.0546 -0.0261
C5 C 0.46193(19) 1.09997(19) 0.05175(18)
H3 H 0.4910 1.1322 0.0306
C6 C 0.46130(17) 1.09701(18) 0.11563(18)
H4 H 0.4911 1.1271 0.1384
C7 C 0.41797(15) 1.05091(15) 0.14911(16)
C8 C 0.42490(15) 1.04245(16) 0.21580(15)
C9 C 0.47059(17) 1.08310(17) 0.25231(17)
H5 H 0.4967 1.1187 0.2324
C10 C 0.47878(18) 1.07323(18) 0.31511(17)
H6 H 0.5100 1.1016 0.3382
C11 C 0.44100(17) 1.02134(17) 0.34482(16)
H7 H 0.4463 1.0140 0.3885
C12 C 0.39600(16) 0.98058(16) 0.31112(15)
H8 H 0.3704 0.9456 0.3324
C13 C 0.38616(15) 0.98858(15) 0.24559(14)
C14 C 0.33739(14) 0.94691(15) 0.21139(14)
C15 C 0.24663(16) 0.93419(16) 0.05964(14)
C16 C 0.21222(16) 0.99539(17) 0.03937(15)
C17 C 0.19339(18) 1.00059(19) -0.02325(16)
H9 H 0.1710 1.0417 -0.0374
C18 C 0.20627(19) 0.9480(2) -0.06511(17)
H10 H 0.1940 0.9533 -0.1079
C19 C 0.23705(18) 0.88750(19) -0.04459(16)
H11 H 0.2449 0.8507 -0.0734
C20 C 0.25673(16) 0.87925(17) 0.01721(15)
C21 C 0.19966(19) 1.05369(18) 0.08511(17)
H12 H 0.2432 1.0805 0.0895
H13 H 0.1892 1.0329 0.1264
C22 C 0.1421(2) 1.1041(2) 0.06894(19)
H14 H 0.1542 1.1294 0.0307
H15 H 0.1358 1.1371 0.1034
H16 H 0.0989 1.0782 0.0623
C23 C 0.29523(18) 0.81402(17) 0.03554(16)
H17 H 0.2759 0.7740 0.0122
H18 H 0.2882 0.8052 0.0807
C24 C 0.37278(18) 0.8197(2) 0.02210(17)
H19 H 0.3798 0.8313 -0.0221
H20 H 0.3953 0.7751 0.0314
H21 H 0.3930 0.8563 0.0483
C25 C 0.33512(15) 0.84487(15) 0.27706(14)
C26 C 0.30798(16) 0.82498(16) 0.33601(14)
C27 C 0.34326(18) 0.77762(18) 0.37237(16)
H22 H 0.3245 0.7646 0.4117
C28 C 0.40501(18) 0.74852(19) 0.35337(17)
H23 H 0.4293 0.7172 0.3798
C29 C 0.43097(17) 0.76566(18) 0.29531(16)
H24 H 0.4733 0.7452 0.2819
C30 C 0.39710(15) 0.81194(15) 0.25586(15)
C31 C 0.42218(16) 0.82395(16) 0.18974(15)
H25 H 0.4467 0.8692 0.1884
H26 H 0.3812 0.8278 0.1621
C32 C 0.47010(18) 0.76831(19) 0.16323(17)
H27 H 0.5130 0.7670 0.1877
H28 H 0.4809 0.7793 0.1196
H29 H 0.4471 0.7229 0.1654
C33 C 0.24192(17) 0.85926(17) 0.35877(15)
H30 H 0.2503 0.9100 0.3617
H31 H 0.2056 0.8520 0.3267
C34 C 0.21374(19) 0.8346(2) 0.42103(16)
H32 H 0.2025 0.7850 0.4184
H33 H 0.1718 0.8610 0.4314
H34 H 0.2487 0.8420 0.4536
C35 C 0.07293(19) 0.8969(2) 0.10784(18)
H35 H 0.0912 0.9451 0.1097
H36 H 0.0315 0.8939 0.1350
C36 C 0.0553(3) 0.8778(3) 0.0426(2)
H37 H 0.0060 0.8881 0.0337
H38 H 0.0846 0.9038 0.0127
C37 C 0.0688(3) 0.8024(2) 0.0383(2)
H39 H 0.0914 0.7909 -0.0020
H40 H 0.0250 0.7758 0.0414
C38 C 0.1154(2) 0.7853(2) 0.09151(18)
H41 H 0.0944 0.7484 0.1177
H42 H 0.1606 0.7683 0.0758
C39 C 0.07142(16) 0.92005(17) 0.26199(15)
H43 H 0.0577 0.8706 0.2582
H44 H 0.0380 0.9491 0.2385
C40 C 0.07463(18) 0.94195(19) 0.32963(16)
H45 H 0.0914 0.9034 0.3564
H46 H 0.0286 0.9574 0.3448
C41 C 0.12626(19) 1.0023(2) 0.32891(18)
H47 H 0.1019 1.0475 0.3323
H48 H 0.1596 0.9982 0.3639
C42 C 0.16326(18) 0.99625(17) 0.26639(17)
H49 H 0.1504 1.0355 0.2387
H50 H 0.2141 0.9967 0.2725
C43 C 0.25464(19) 0.71423(17) 0.19483(19)
H51 H 0.3022 0.7332 0.1975
H52 H 0.2466 0.6973 0.1517
C44 C 0.2450(3) 0.6564(2) 0.2409(2)
H53 H 0.2305 0.6132 0.2193
H54 H 0.2889 0.6471 0.2635
C45 C 0.1902(2) 0.6798(2) 0.28547(19)
H55 H 0.1592 0.6408 0.2971
H56 H 0.2108 0.6997 0.3239
C46 C 0.15214(18) 0.73390(19) 0.24918(19)
H57 H 0.1159 0.7124 0.2227
H58 H 0.1300 0.7680 0.2776
Mg1 Mg 0.21157(5) 0.87208(5) 0.18776(5)
N1 N 0.26832(12) 0.92532(13) 0.12232(11)
N2 N 0.29913(12) 0.89342(12) 0.24037(11)
O1 O 0.12489(11) 0.84784(11) 0.12765(10)
O2 O 0.14135(10) 0.93071(10) 0.23926(10)
O3 O 0.20431(11) 0.76700(11) 0.21126(11)
loop_
_geom_bond_atom_site_label_1
_geom_bond_atom_site_label_2
_geom_bond_site_symmetry_1
_geom_bond_site_symmetry_2
C1 C2 1_555 1_555
C2 C3 1_555 1_555
C3 H1 1_555 1_555
C4 C3 1_555 1_555
H2 C4 1_555 1_555
C5 C4 1_555 1_555
H3 C5 1_555 1_555
C6 C5 1_555 1_555
H4 C6 1_555 1_555
C7 C2 1_555 1_555
C8 C7 1_555 1_555
C9 C8 1_555 1_555
H5 C9 1_555 1_555
C10 C9 1_555 1_555
H6 C10 1_555 1_555
C11 C10 1_555 1_555
H7 C11 1_555 1_555
C12 C11 1_555 1_555
H8 C12 1_555 1_555
C13 C8 1_555 1_555
C14 C1 1_555 1_555
C15 C16 1_555 1_555
C16 C17 1_555 1_555
C17 H9 1_555 1_555
C18 C17 1_555 1_555
H10 C18 1_555 1_555
C19 C18 1_555 1_555
H11 C19 1_555 1_555
C20 C15 1_555 1_555
C21 C16 1_555 1_555
H12 C21 1_555 1_555
H13 C21 1_555 1_555
C22 C21 1_555 1_555
H14 C22 1_555 1_555
H15 C22 1_555 1_555
H16 C22 1_555 1_555
C23 C20 1_555 1_555
H17 C23 1_555 1_555
H18 C23 1_555 1_555
C24 C23 1_555 1_555
H19 C24 1_555 1_555
H20 C24 1_555 1_555
H21 C24 1_555 1_555
C25 C26 1_555 1_555
C26 C27 1_555 1_555
C27 H22 1_555 1_555
C28 C27 1_555 1_555
H23 C28 1_555 1_555
C29 C28 1_555 1_555
H24 C29 1_555 1_555
C30 C25 1_555 1_555
C31 C30 1_555 1_555
H25 C31 1_555 1_555
H26 C31 1_555 1_555
C32 C31 1_555 1_555
H27 C32 1_555 1_555
H28 C32 1_555 1_555
H29 C32 1_555 1_555
C33 C26 1_555 1_555
H30 C33 1_555 1_555
H31 C33 1_555 1_555
C34 C33 1_555 1_555
H32 C34 1_555 1_555
H33 C34 1_555 1_555
H34 C34 1_555 1_555
C35 H35 1_555 1_555
H36 C35 1_555 1_555
C36 C35 1_555 1_555
H37 C36 1_555 1_555
H38 C36 1_555 1_555
C37 C36 1_555 1_555
H39 C37 1_555 1_555
H40 C37 1_555 1_555
C38 C37 1_555 1_555
H41 C38 1_555 1_555
H42 C38 1_555 1_555
C39 H43 1_555 1_555
H44 C39 1_555 1_555
C40 C39 1_555 1_555
H45 C40 1_555 1_555
H46 C40 1_555 1_555
C41 C40 1_555 1_555
H47 C41 1_555 1_555
H48 C41 1_555 1_555
C42 C41 1_555 1_555
H49 C42 1_555 1_555
H50 C42 1_555 1_555
C43 H51 1_555 1_555
H52 C43 1_555 1_555
C44 C43 1_555 1_555
H53 C44 1_555 1_555
H54 C44 1_555 1_555
C45 C44 1_555 1_555
H55 C45 1_555 1_555
H56 C45 1_555 1_555
C46 C45 1_555 1_555
H57 C46 1_555 1_555
H58 C46 1_555 1_555
Mg1 N1 1_555 1_555
N1 C1 1_555 1_555
N2 C14 1_555 1_555
O1 C35 1_555 1_555
O2 C39 1_555 1_555
O3 C43 1_555 1_555
C6 C7 1_555 1_555
C12 C13 1_555 1_555
C13 C14 1_555 1_555
C15 N1 1_555 1_555
C19 C20 1_555 1_555
C25 N2 1_555 1_555
C29 C30 1_555 1_555
C38 O1 1_555 1_555
C42 O2 1_555 1_555
C46 O3 1_555 1_555
Mg1 N2 1_555 1_555
Mg1 O1 1_555 1_555
Mg1 O2 1_555 1_555
Mg1 O3 1_555 1_555

#END
