
#######################################################################
#
#                 Cambridge Crystallographic Data Centre
#                                CCDC 
#
#######################################################################
#
# If this CIF has been generated from an entry in the Cambridge 
# Structural Database, then it will include bibliographic, chemical, 
# crystal, experimental, refinement or atomic coordinate data resulting 
# from the CCDC's data processing and validation procedures.
#
#######################################################################

data_KUCDOC
_chemical_formula_moiety         'C16 H21 B1 N8'
_chemical_name_systematic        
tris(4-Methylimidazol-1-yl)(4-methylimidazolium-1-yl)borate
_symmetry_cell_setting           monoclinic
_symmetry_space_group_name_H-M   'P 21/c'
_symmetry_Int_Tables_number      14
_space_group_name_Hall           '-P 2ybc'
loop_
_symmetry_equiv_pos_site_id
_symmetry_equiv_pos_as_xyz
1 x,y,z
2 -x,1/2+y,1/2-z
3 -x,-y,-z
4 x,1/2-y,1/2+z
_cell_length_a                   8.92780(10)
_cell_length_b                   9.54650(10)
_cell_length_c                   21.1523(3)
_cell_angle_alpha                90
_cell_angle_beta                 99.3380(10)
_cell_angle_gamma                90
_cell_volume                     1778.9
_exptl_crystal_colour            colorless
_exptl_crystal_description       rhombic
_cell_formula_units_Z            4
_exptl_crystal_recrystallization_method 'diethyl ether/methanol'
loop_
_atom_site_label
_atom_site_type_symbol
_atom_site_fract_x
_atom_site_fract_y
_atom_site_fract_z
B1 B 0.33515(19) 0.86184(18) 0.10794(8)
N1 N 0.24595(14) 0.88023(13) 0.04021(6)
N2 N 0.1457(2) 0.96906(19) -0.05466(7)
C1 C 0.2264(2) 0.99425(19) 0.00218(8)
H1 H 0.2658 1.0819 0.0148
C2 C 0.1098(2) 0.8303(2) -0.05388(8)
C3 C 0.16945(19) 0.77539(18) 0.00377(8)
H2 H 0.1603 0.6830 0.0165
C4 C 0.0147(3) 0.7584(3) -0.10959(11)
H3 H 0.0009 0.6619 -0.0990
H4 H 0.0647 0.7637 -0.1464
H5 H -0.0825 0.8036 -0.1189
N3 N 0.48488(13) 0.77947(13) 0.10361(6)
N4 N 0.71710(14) 0.70215(14) 0.12949(7)
H6 H 0.8037 0.6821 0.1518
C5 C 0.60374(17) 0.76518(18) 0.15059(8)
H7 H 0.6060 0.7957 0.1925
C6 C 0.67284(18) 0.67398(17) 0.06565(8)
C7 C 0.52875(18) 0.72124(17) 0.04981(8)
H8 H 0.4694 0.7154 0.0095
C8 C 0.7753(3) 0.6088(3) 0.02512(11)
H9 H 0.7198 0.5916 -0.0170
H10 H 0.8136 0.5218 0.0440
H11 H 0.8584 0.6709 0.0222
N5 N 0.38141(14) 1.00320(14) 0.13948(6)
N6 N 0.38089(18) 1.19784(16) 0.19798(7)
C9 C 0.32298(19) 1.07204(18) 0.18559(8)
H12 H 0.2487 1.0342 0.2067
C10 C 0.4843(2) 1.21334(18) 0.15703(9)
C11 C 0.4873(2) 1.09483(19) 0.12203(9)
H13 H 0.5496 1.0781 0.0916
C12 C 0.5753(3) 1.3443(2) 0.15608(12)
H14 H 0.6468 1.3329 0.1271
H15 H 0.6289 1.3630 0.1983
H16 H 0.5087 1.4212 0.1422
N7 N 0.23390(13) 0.77709(13) 0.14679(6)
N8 N 0.02067(14) 0.69817(14) 0.17491(7)
C13 C 0.08236(17) 0.79163(17) 0.14108(8)
H17 H 0.0272 0.8601 0.1160
C14 C 0.13816(17) 0.61561(17) 0.20442(7)
C15 C 0.26823(18) 0.66460(18) 0.18751(8)
H18 H 0.3648 0.6284 0.2011
C16 C 0.1121(2) 0.4955(2) 0.24656(10)
H19 H 0.1666 0.4149 0.2354
H20 H 0.0056 0.4745 0.2409
H21 H 0.1473 0.5199 0.2905
loop_
_geom_bond_atom_site_label_1
_geom_bond_atom_site_label_2
_geom_bond_site_symmetry_1
_geom_bond_site_symmetry_2
B1 N1 1_555 1_555
N1 C1 1_555 1_555
N2 C1 1_555 1_555
C1 H1 1_555 1_555
C2 N2 1_555 1_555
C3 N1 1_555 1_555
H2 C3 1_555 1_555
C4 C2 1_555 1_555
H3 C4 1_555 1_555
H4 C4 1_555 1_555
H5 C4 1_555 1_555
N3 B1 1_555 1_555
N4 H6 1_555 1_555
C5 N3 1_555 1_555
H7 C5 1_555 1_555
C6 N4 1_555 1_555
C7 N3 1_555 1_555
H8 C7 1_555 1_555
C8 C6 1_555 1_555
H9 C8 1_555 1_555
H10 C8 1_555 1_555
H11 C8 1_555 1_555
N5 B1 1_555 1_555
N6 C9 1_555 1_555
C9 N5 1_555 1_555
H12 C9 1_555 1_555
C10 N6 1_555 1_555
C11 N5 1_555 1_555
H13 C11 1_555 1_555
C12 C10 1_555 1_555
H14 C12 1_555 1_555
H15 C12 1_555 1_555
H16 C12 1_555 1_555
N7 B1 1_555 1_555
N8 C13 1_555 1_555
C13 N7 1_555 1_555
H17 C13 1_555 1_555
C14 N8 1_555 1_555
C15 N7 1_555 1_555
H18 C15 1_555 1_555
C16 C14 1_555 1_555
H19 C16 1_555 1_555
H20 C16 1_555 1_555
H21 C16 1_555 1_555
C2 C3 1_555 1_555
N4 C5 1_555 1_555
C6 C7 1_555 1_555
C10 C11 1_555 1_555
C14 C15 1_555 1_555

#END
