
#######################################################################
#
#                 Cambridge Crystallographic Data Centre
#                                CCDC 
#
#######################################################################
#
# If this CIF has been generated from an entry in the Cambridge 
# Structural Database, then it will include bibliographic, chemical, 
# crystal, experimental, refinement or atomic coordinate data resulting 
# from the CCDC's data processing and validation procedures.
#
#######################################################################

data_KUCFUL
_chemical_formula_moiety         'C25 H30 N4 O1'
_chemical_name_systematic        
5-t-Butyl-2-(4-(dimethylamino)pyridin-3-yl)-1-(1-naphthylmethyl)pyrazolidin-3-one
_symmetry_cell_setting           orthorhombic
_symmetry_space_group_name_H-M   'P 21 21 21'
_symmetry_Int_Tables_number      19
_space_group_name_Hall           'P 2ac 2ab'
loop_
_symmetry_equiv_pos_site_id
_symmetry_equiv_pos_as_xyz
1 x,y,z
2 1/2+x,1/2-y,-z
3 -x,1/2+y,1/2-z
4 1/2-x,-y,1/2+z
_cell_length_a                   11.2926(3)
_cell_length_b                   12.7919(3)
_cell_length_c                   15.5672(4)
_cell_angle_alpha                90
_cell_angle_beta                 90
_cell_angle_gamma                90
_cell_volume                     2248.74
_exptl_crystal_colour            colorless
_exptl_crystal_description       chunk
_chemical_melting_point          '198-199 deg.C'
_cell_formula_units_Z            4
loop_
_atom_site_label
_atom_site_type_symbol
_atom_site_fract_x
_atom_site_fract_y
_atom_site_fract_z
O1 O 0.90417(12) 0.72929(10) 0.80250(9)
N1 N 0.90083(15) 0.52200(13) 0.68847(10)
N2 N 0.73660(14) 0.63015(12) 0.81051(10)
N3 N 0.61132(13) 0.64141(12) 0.82642(10)
N4 N 0.81457(15) 0.39446(13) 0.93252(11)
C1 C 0.9937(2) 0.46874(17) 0.64022(14)
H1 H 1.0618 0.4562 0.6778
H2 H 1.0182 0.5125 0.5917
H3 H 0.9635 0.4018 0.6188
C2 C 0.87074(16) 0.48383(15) 0.76769(12)
C3 C 0.79103(16) 0.53166(14) 0.82635(12)
C4 C 0.54426(18) 0.59483(15) 0.75338(12)
H4 H 0.5790 0.5262 0.7382
H5 H 0.5503 0.6411 0.7026
C5 C 0.41628(18) 0.58084(15) 0.77721(12)
C6 C 0.38205(16) 0.50282(15) 0.83847(12)
C7 C 0.46297(19) 0.43041(16) 0.87442(13)
H6 H 0.5445 0.4348 0.8597
C8 C 0.4259(2) 0.35417(17) 0.93002(14)
H7 H 0.4816 0.3056 0.9523
C9 C 0.3059(2) 0.34684(17) 0.95454(14)
H8 H 0.2810 0.2940 0.9934
C10 C 0.8203(2) 0.58361(19) 0.63572(13)
H9 H 0.7399 0.5554 0.6408
H10 H 0.8457 0.5804 0.5756
H11 H 0.8211 0.6564 0.6553
C11 C 0.79634(17) 0.72152(15) 0.80341(12)
C12 C 0.70433(18) 0.80626(15) 0.79532(14)
H12 H 0.6924 0.8259 0.7344
H13 H 0.7279 0.8692 0.8281
C13 C 0.59178(17) 0.75767(14) 0.83293(12)
H14 H 0.5235 0.7769 0.7952
C14 C 0.26063(18) 0.49509(16) 0.86277(12)
C15 C 0.17697(18) 0.56357(16) 0.82528(14)
H15 H 0.0962 0.5596 0.8421
C16 C 0.21068(19) 0.63506(17) 0.76545(14)
H16 H 0.1533 0.6795 0.7398
C17 C 0.33128(19) 0.64336(16) 0.74139(13)
H17 H 0.3537 0.6935 0.6994
C18 C 0.2259(2) 0.41647(17) 0.92189(13)
H18 H 0.1454 0.4121 0.9392
C19 C 0.56237(17) 0.79131(15) 0.92583(12)
C20 C 0.5294(2) 0.90745(16) 0.92560(14)
H19 H 0.5062 0.9288 0.9837
H20 H 0.4632 0.9190 0.8860
H21 H 0.5978 0.9488 0.9070
C21 C 0.45600(19) 0.72914(17) 0.95799(13)
H22 H 0.4762 0.6547 0.9599
H23 H 0.3889 0.7398 0.9190
H24 H 0.4345 0.7531 1.0157
C22 C 0.66704(19) 0.77305(16) 0.98591(14)
H25 H 0.6429 0.7875 1.0452
H26 H 0.7323 0.8197 0.9699
H27 H 0.6932 0.7002 0.9812
C23 C 0.76772(17) 0.48447(15) 0.90473(12)
H28 H 0.7138 0.5190 0.9420
C24 C 0.89199(18) 0.35131(15) 0.87796(13)
H29 H 0.9288 0.2880 0.8953
C25 C 0.92274(18) 0.39093(15) 0.79891(13)
H30 H 0.9797 0.3553 0.7649
H31? H 0.5891 0.6064 0.8815
loop_
_geom_bond_atom_site_label_1
_geom_bond_atom_site_label_2
_geom_bond_site_symmetry_1
_geom_bond_site_symmetry_2
O1 C11 1_555 1_555
N1 C1 1_555 1_555
N2 N3 1_555 1_555
N3 C4 1_555 1_555
N4 C23 1_555 1_555
C1 H1 1_555 1_555
H2 C1 1_555 1_555
H3 C1 1_555 1_555
C2 N1 1_555 1_555
C3 N2 1_555 1_555
C4 H4 1_555 1_555
H5 C4 1_555 1_555
C5 C4 1_555 1_555
C6 C5 1_555 1_555
C7 C6 1_555 1_555
H6 C7 1_555 1_555
C8 C7 1_555 1_555
H7 C8 1_555 1_555
C9 C8 1_555 1_555
H8 C9 1_555 1_555
C10 N1 1_555 1_555
H9 C10 1_555 1_555
H10 C10 1_555 1_555
H11 C10 1_555 1_555
C11 N2 1_555 1_555
C12 C11 1_555 1_555
H12 C12 1_555 1_555
H13 C12 1_555 1_555
C13 N3 1_555 1_555
H14 C13 1_555 1_555
C14 C6 1_555 1_555
C15 C14 1_555 1_555
H15 C15 1_555 1_555
C16 C15 1_555 1_555
H16 C16 1_555 1_555
C17 C5 1_555 1_555
H17 C17 1_555 1_555
C18 C9 1_555 1_555
H18 C18 1_555 1_555
C19 C13 1_555 1_555
C20 C19 1_555 1_555
H19 C20 1_555 1_555
H20 C20 1_555 1_555
H21 C20 1_555 1_555
C21 C19 1_555 1_555
H22 C21 1_555 1_555
H23 C21 1_555 1_555
H24 C21 1_555 1_555
C22 C19 1_555 1_555
H25 C22 1_555 1_555
H26 C22 1_555 1_555
H27 C22 1_555 1_555
C23 C3 1_555 1_555
H28 C23 1_555 1_555
C24 N4 1_555 1_555
H29 C24 1_555 1_555
C25 C2 1_555 1_555
H30 C25 1_555 1_555
C2 C3 1_555 1_555
C12 C13 1_555 1_555
C14 C18 1_555 1_555
C16 C17 1_555 1_555
C24 C25 1_555 1_555

#END
