
#######################################################################
#
#                 Cambridge Crystallographic Data Centre
#                                CCDC 
#
#######################################################################
#
# If this CIF has been generated from an entry in the Cambridge 
# Structural Database, then it will include bibliographic, chemical, 
# crystal, experimental, refinement or atomic coordinate data resulting 
# from the CCDC's data processing and validation procedures.
#
#######################################################################

data_KUCSIM
_chemical_formula_moiety         'C27 H20 Br1 N4 1+,Cl1 O4 1-,3(H2 O1)'
_chemical_name_systematic        
"1-(4-bromobenzyl)-4-(2,2':6',2''-terpyridin-4'-yl)pyridinium perchlorate trihydrate"
_symmetry_cell_setting           monoclinic
_symmetry_space_group_name_H-M   'C c'
_symmetry_Int_Tables_number      9
_space_group_name_Hall           'C -2yc'
loop_
_symmetry_equiv_pos_site_id
_symmetry_equiv_pos_as_xyz
1 x,y,z
2 x,-y,1/2+z
3 1/2+x,1/2+y,z
4 1/2+x,1/2-y,1/2+z
_cell_length_a                   16.215(7)
_cell_length_b                   25.856(11)
_cell_length_c                   7.236(3)
_cell_angle_alpha                90
_cell_angle_beta                 96.340(9)
_cell_angle_gamma                90
_cell_volume                     3015.18
_exptl_crystal_colour            yellowish
_exptl_crystal_description       needle
_cell_formula_units_Z            4
loop_
_atom_site_label
_atom_site_type_symbol
_atom_site_fract_x
_atom_site_fract_y
_atom_site_fract_z
Br1 Br 0.31963(7) 0.16708(4) 0.46940(12)
N1 N 0.4396(5) 0.3287(2) -0.1984(10)
N2 N 0.6929(3) 0.5431(2) 0.0606(7)
N3 N 0.5098(4) 0.6124(3) -0.1171(10)
N4 N 0.8337(4) 0.4407(2) 0.2245(9)
C1 C 0.3377(5) 0.2033(3) 0.2453(12)
C2 C 0.2921(6) 0.2472(4) 0.1967(15)
H1 H 0.2524 0.2599 0.2726
C3 C 0.3061(6) 0.2723(4) 0.0318(14)
H2 H 0.2738 0.3016 -0.0089
C4 C 0.3673(5) 0.2544(3) -0.0724(11)
C5 C 0.4112(6) 0.2100(3) -0.0182(14)
H3 H 0.4508 0.1964 -0.0927
C6 C 0.3968(6) 0.1852(4) 0.1464(17)
H4 H 0.4286 0.1558 0.1882
C7 C 0.3854(6) 0.2823(3) -0.2454(14)
H5 H 0.3326 0.2935 -0.3159
H6 H 0.4135 0.2584 -0.3252
C8 C 0.4058(5) 0.3755(3) -0.1720(14)
H7 H 0.3471 0.3793 -0.1884
C9 C 0.4543(5) 0.4170(3) -0.1224(15)
H8 H 0.4292 0.4496 -0.1055
C10 C 0.5404(4) 0.4125(2) -0.0957(9)
C11 C 0.5729(4) 0.3642(3) -0.1254(11)
H9 H 0.6314 0.3598 -0.1096
C12 C 0.5239(5) 0.3229(3) -0.1765(12)
H10 H 0.5480 0.2902 -0.1969
C13 C 0.5921(4) 0.4584(2) -0.0402(9)
C14 C 0.5640(4) 0.5078(2) -0.0778(8)
H11 H 0.5096 0.5134 -0.1378
C15 C 0.6159(4) 0.5497(2) -0.0272(9)
C16 C 0.7213(4) 0.4949(3) 0.0971(9)
C17 C 0.6728(4) 0.4518(2) 0.0471(9)
H12 H 0.6943 0.4181 0.0721
C18 C 0.5901(4) 0.6033(2) -0.0767(9)
C19 C 0.6513(5) 0.6418(3) -0.0846(12)
H13 H 0.7088 0.6346 -0.0572
C20 C 0.6221(6) 0.6911(3) -0.1354(15)
H14 H 0.6600 0.7189 -0.1435
C21 C 0.5390(7) 0.6993(3) -0.1732(14)
H15 H 0.5188 0.7329 -0.2065
C22 C 0.4847(8) 0.6591(4) -0.1632(18)
H16 H 0.4269 0.6655 -0.1908
C23 C 0.8055(4) 0.4894(2) 0.1933(9)
C24 C 0.8530(5) 0.5329(3) 0.2443(11)
H17 H 0.8317 0.5667 0.2202
C25 C 0.9337(5) 0.5251(4) 0.3330(12)
H18 H 0.9680 0.5537 0.3716
C26 C 0.9617(5) 0.4758(4) 0.3627(15)
H19 H 1.0162 0.4697 0.4215
C27 C 0.9122(5) 0.4359(3) 0.3086(14)
H20 H 0.9335 0.4020 0.3306
Cl1 Cl 0.6383(2) 0.1478(2) 0.1779(8)
O1 O 0.5853(7) 0.1219(7) 0.058(3)
O2 O 0.6047(12) 0.1718(11) 0.317(3)
O3 O 0.660(2) 0.1978(11) 0.103(5)
O4 O 0.7054(7) 0.1200(7) 0.248(3)
O5 O 0.330(2) 0.5034(10) -0.372(3)
O6 O 0.5729(9) 0.2065(4) -0.302(2)
O7 O 0.760(3) 0.0632(17) 0.717(5)
loop_
_geom_bond_atom_site_label_1
_geom_bond_atom_site_label_2
_geom_bond_site_symmetry_1
_geom_bond_site_symmetry_2
Br1 C1 1_555 1_555
N1 C7 1_555 1_555
N2 C15 1_555 1_555
N3 C18 1_555 1_555
N4 C23 1_555 1_555
C1 C2 1_555 1_555
C2 H1 1_555 1_555
C3 C2 1_555 1_555
H2 C3 1_555 1_555
C4 C3 1_555 1_555
C5 C4 1_555 1_555
H3 C5 1_555 1_555
C6 C1 1_555 1_555
H4 C6 1_555 1_555
C7 C4 1_555 1_555
H5 C7 1_555 1_555
H6 C7 1_555 1_555
C8 N1 1_555 1_555
H7 C8 1_555 1_555
C9 C8 1_555 1_555
H8 C9 1_555 1_555
C10 C9 1_555 1_555
C11 C10 1_555 1_555
H9 C11 1_555 1_555
C12 N1 1_555 1_555
H10 C12 1_555 1_555
C13 C10 1_555 1_555
C14 C13 1_555 1_555
H11 C14 1_555 1_555
C15 C14 1_555 1_555
C16 N2 1_555 1_555
C17 C13 1_555 1_555
H12 C17 1_555 1_555
C18 C15 1_555 1_555
C19 C18 1_555 1_555
H13 C19 1_555 1_555
C20 C19 1_555 1_555
H14 C20 1_555 1_555
C21 C20 1_555 1_555
H15 C21 1_555 1_555
C22 N3 1_555 1_555
H16 C22 1_555 1_555
C23 C16 1_555 1_555
C24 C23 1_555 1_555
H17 C24 1_555 1_555
C25 C24 1_555 1_555
H18 C25 1_555 1_555
C26 C25 1_555 1_555
H19 C26 1_555 1_555
C27 N4 1_555 1_555
H20 C27 1_555 1_555
Cl1 O1 1_555 1_555
O2 Cl1 1_555 1_555
O3 Cl1 1_555 1_555
O4 Cl1 1_555 1_555
C5 C6 1_555 1_555
C11 C12 1_555 1_555
C16 C17 1_555 1_555
C21 C22 1_555 1_555
C26 C27 1_555 1_555

#END
