
#######################################################################
#
#                 Cambridge Crystallographic Data Centre
#                                CCDC 
#
#######################################################################
#
# If this CIF has been generated from an entry in the Cambridge 
# Structural Database, then it will include bibliographic, chemical, 
# crystal, experimental, refinement or atomic coordinate data resulting 
# from the CCDC's data processing and validation procedures.
#
#######################################################################

data_KUCSAE01
_chemical_formula_moiety         'C27 H20 Br1 N4 1+,Cl1 O4 1-'
_chemical_name_systematic        
"1-(4-bromobenzyl)-4-(2,2':6',2''-terpyridin-4'-yl)pyridinium perchlorate"
_symmetry_cell_setting           monoclinic
_symmetry_space_group_name_H-M   'P 21/c'
_symmetry_Int_Tables_number      14
_space_group_name_Hall           '-P 2ybc'
loop_
_symmetry_equiv_pos_site_id
_symmetry_equiv_pos_as_xyz
1 x,y,z
2 -x,1/2+y,1/2-z
3 -x,-y,-z
4 x,1/2-y,1/2+z
_cell_length_a                   9.583(2)
_cell_length_b                   9.614(2)
_cell_length_c                   26.703(6)
_cell_angle_alpha                90
_cell_angle_beta                 100.570(7)
_cell_angle_gamma                90
_cell_volume                     2418.43
_exptl_crystal_colour            yellowish
_exptl_crystal_description       block
_cell_formula_units_Z            4
loop_
_atom_site_label
_atom_site_type_symbol
_atom_site_fract_x
_atom_site_fract_y
_atom_site_fract_z
Br1 Br 0.92655(3) 0.62918(3) 0.438872(9)
N1 N 0.6645(2) 0.33830(18) 0.20332(6)
N2 N 0.68237(18) 0.60831(16) -0.03980(6)
N3 N 0.41247(19) 0.83165(19) -0.00693(7)
N4 N 0.93539(19) 0.32931(19) -0.03633(7)
C1 C 0.8397(2) 0.5226(2) 0.38155(8)
C2 C 0.7374(2) 0.4246(2) 0.38645(8)
H1 H 0.7100 0.4090 0.4184
C3 C 0.6759(2) 0.3495(2) 0.34376(8)
H2 H 0.6038 0.2835 0.3464
C4 C 0.7178(3) 0.3692(2) 0.29760(8)
C5 C 0.8207(3) 0.4676(3) 0.29379(9)
H3 H 0.8495 0.4826 0.2620
C6 C 0.8823(3) 0.5446(3) 0.33613(10)
H4 H 0.9533 0.6118 0.3335
C7 C 0.6537(3) 0.2763(2) 0.25365(8)
H5 H 0.7031 0.1854 0.2572
H6 H 0.5526 0.2595 0.2550
C8 C 0.5638(2) 0.4273(2) 0.18116(8)
H7 H 0.4864 0.4484 0.1976
C9 C 0.5708(2) 0.4879(2) 0.13546(8)
H8 H 0.4983 0.5502 0.1203
C10 C 0.6846(2) 0.45840(19) 0.11082(7)
C11 C 0.7883(2) 0.3685(2) 0.13569(9)
H9 H 0.8688 0.3480 0.1209
C12 C 0.7759(2) 0.3094(2) 0.18110(8)
H10 H 0.8471 0.2470 0.1972
C13 C 0.6886(2) 0.51559(19) 0.05953(7)
C14 C 0.6055(2) 0.62919(19) 0.04025(8)
H11 H 0.5507 0.6775 0.0609
C15 C 0.6041(2) 0.6707(2) -0.00982(8)
C16 C 0.7662(2) 0.50143(19) -0.02096(7)
C17 C 0.7711(2) 0.45145(19) 0.02822(7)
H12 H 0.8300 0.3746 0.0403
C18 C 0.5087(2) 0.78483(19) -0.03372(7)
C19 C 0.5182(2) 0.8349(2) -0.08147(8)
H13 H 0.5896 0.8019 -0.0989
C20 C 0.4212(3) 0.9346(2) -0.10352(9)
H14 H 0.4246 0.9699 -0.1365
C21 C 0.3208(3) 0.9811(2) -0.07726(9)
H15 H 0.2524 1.0483 -0.0917
C22 C 0.3214(3) 0.9277(3) -0.02894(9)
H16 H 0.2527 0.9617 -0.0105
C23 C 0.8523(2) 0.4354(2) -0.05551(7)
C24 C 0.8460(2) 0.4838(2) -0.10518(8)
H17 H 0.7871 0.5603 -0.1177
C25 C 0.9286(3) 0.4168(3) -0.13594(9)
H18 H 0.9255 0.4461 -0.1701
C26 C 1.0134(2) 0.3092(2) -0.11645(9)
H19 H 1.0708 0.2626 -0.1366
C27 C 1.0146(2) 0.2688(2) -0.06662(9)
H20 H 1.0748 0.1940 -0.0532
Cl1 Cl 0.21882(7) 0.35062(7) 0.26772(3)
O1 O 0.2874(4) 0.3688(5) 0.22711(17)
O2 O 0.3000(4) 0.2722(4) 0.30550(14)
O3 O 0.1894(4) 0.4810(3) 0.28820(14)
O4 O 0.0891(3) 0.2829(3) 0.25172(13)
loop_
_geom_bond_atom_site_label_1
_geom_bond_atom_site_label_2
_geom_bond_site_symmetry_1
_geom_bond_site_symmetry_2
Br1 C1 1_555 1_555
N1 C7 1_555 1_555
N2 C15 1_555 1_555
N3 C18 1_555 1_555
N4 C23 1_555 1_555
C1 C2 1_555 1_555
C2 H1 1_555 1_555
C3 C2 1_555 1_555
H2 C3 1_555 1_555
C4 C3 1_555 1_555
C5 C4 1_555 1_555
H3 C5 1_555 1_555
C6 C1 1_555 1_555
H4 C6 1_555 1_555
C7 C4 1_555 1_555
H5 C7 1_555 1_555
H6 C7 1_555 1_555
C8 N1 1_555 1_555
H7 C8 1_555 1_555
C9 C8 1_555 1_555
H8 C9 1_555 1_555
C10 C9 1_555 1_555
C11 C10 1_555 1_555
H9 C11 1_555 1_555
C12 N1 1_555 1_555
H10 C12 1_555 1_555
C13 C10 1_555 1_555
C14 C13 1_555 1_555
H11 C14 1_555 1_555
C15 C14 1_555 1_555
C16 N2 1_555 1_555
C17 C13 1_555 1_555
H12 C17 1_555 1_555
C18 C15 1_555 1_555
C19 C18 1_555 1_555
H13 C19 1_555 1_555
C20 C19 1_555 1_555
H14 C20 1_555 1_555
C21 C20 1_555 1_555
H15 C21 1_555 1_555
C22 N3 1_555 1_555
H16 C22 1_555 1_555
C23 C16 1_555 1_555
C24 C23 1_555 1_555
H17 C24 1_555 1_555
C25 C24 1_555 1_555
H18 C25 1_555 1_555
C26 C25 1_555 1_555
H19 C26 1_555 1_555
C27 N4 1_555 1_555
H20 C27 1_555 1_555
Cl1 O1 1_555 1_555
O2 Cl1 1_555 1_555
O3 Cl1 1_555 1_555
O4 Cl1 1_555 1_555
C5 C6 1_555 1_555
C11 C12 1_555 1_555
C16 C17 1_555 1_555
C21 C22 1_555 1_555
C26 C27 1_555 1_555

#END
