
#######################################################################
#
#                 Cambridge Crystallographic Data Centre
#                                CCDC 
#
#######################################################################
#
# If this CIF has been generated from an entry in the Cambridge 
# Structural Database, then it will include bibliographic, chemical, 
# crystal, experimental, refinement or atomic coordinate data resulting 
# from the CCDC's data processing and validation procedures.
#
#######################################################################

data_KUCYOY
_chemical_formula_moiety         'C31 H22 O1 S1'
_chemical_name_systematic        
5-(4-(triphenylvinyl)phenyl)thiophene-2-carbaldehyde
_symmetry_cell_setting           monoclinic
_symmetry_space_group_name_H-M   'P 21'
_symmetry_Int_Tables_number      4
_space_group_name_Hall           'P 2yb'
loop_
_symmetry_equiv_pos_site_id
_symmetry_equiv_pos_as_xyz
1 x,y,z
2 -x,1/2+y,-z
_cell_length_a                   5.59400(16)
_cell_length_b                   47.1662(11)
_cell_length_c                   9.2545(3)
_cell_angle_alpha                90
_cell_angle_beta                 103.425(3)
_cell_angle_gamma                90
_cell_volume                     2375.06
_exptl_crystal_colour            yellow
_exptl_crystal_description       needle
_cell_formula_units_Z            4
loop_
_atom_site_label
_atom_site_type_symbol
_atom_site_fract_x
_atom_site_fract_y
_atom_site_fract_z
S1 S 0.3545(2) 0.53715(2) 0.87796(14)
C1 C 0.7662(7) 0.63723(9) 0.7808(5)
C2 C 0.7420(7) 0.70969(9) 0.5797(5)
C3 C 0.5004(8) 0.59664(10) 0.7756(6)
H1 H 0.3486 0.5881 0.7385
C4 C 0.7481(7) 0.67840(9) 0.6064(5)
C5 C 0.5736(9) 0.62869(10) 0.2089(6)
H2 H 0.5348 0.6181 0.1219
C6 C 0.7918(8) 0.68538(10) 0.9990(5)
H3 H 0.6543 0.6741 0.9958
C7 C 0.9444(7) 0.62251(9) 0.8838(5)
H4 H 1.0957 0.6311 0.9218
C8 C 0.8040(7) 0.66752(9) 0.7454(5)
C9 C 0.9007(7) 0.68544(9) 0.8777(5)
C10 C 0.4095(9) 0.64855(11) 0.2375(6)
H5 H 0.2590 0.6511 0.1706
C11 C 0.4542(8) 0.50870(10) 0.9918(6)
C12 C 0.7909(9) 0.53836(11) 1.0419(6)
H6 H 0.9495 0.5441 1.0877
C13 C 0.8492(8) 0.64023(10) 0.4410(5)
H7 H 0.9965 0.6370 0.5099
O1 O 0.0979(7) 0.48008(7) 0.9302(5)
C14 C 0.9028(7) 0.59558(9) 0.9308(5)
H8 H 1.0266 0.5861 0.9981
C15 C 0.6752(7) 0.58241(8) 0.8777(5)
C16 C 0.6864(7) 0.66050(9) 0.4699(5)
C17 C 0.8873(9) 0.72203(10) 0.4948(5)
H9 H 0.9974 0.7108 0.4588
C18 C 0.7103(10) 0.76740(11) 0.5155(6)
H10 H 0.6989 0.7867 0.4940
C19 C 1.0876(9) 0.71804(10) 1.1311(6)
H11 H 1.1480 0.7292 1.2144
C20 C 0.8826(9) 0.70154(10) 1.1228(5)
H12 H 0.8049 0.7013 1.2015
C21 C 0.8723(10) 0.75075(10) 0.4624(7)
H13 H 0.9712 0.7587 0.4050
C22 C 0.7925(9) 0.62457(10) 0.3081(6)
H14 H 0.9042 0.6114 0.2879
C23 C 1.1108(8) 0.70199(10) 0.8881(5)
H15 H 1.1898 0.7024 0.8101
C24 C 0.6327(8) 0.55431(9) 0.9374(5)
C25 C 0.5662(10) 0.75562(11) 0.5997(7)
H16 H 0.4558 0.7669 0.6352
C26 C 0.5438(8) 0.62338(10) 0.7263(5)
H17 H 0.4221 0.6323 0.6553
C27 C 0.6883(9) 0.51258(12) 1.0721(6)
H18 H 0.7719 0.4994 1.1403
C28 C 0.4689(8) 0.66464(10) 0.3655(5)
H19 H 0.3602 0.6785 0.3817
C29 C 0.5838(9) 0.72701(10) 0.6326(6)
H20 H 0.4866 0.7193 0.6917
C30 C 1.2020(9) 0.71792(10) 1.0159(6)
H21 H 1.3435 0.7287 1.0228
C31 C 0.3048(10) 0.48384(10) 0.9968(6)
H22 H 0.3782 0.4692 1.0587
S2 S 0.2809(2) 0.51091(3) 0.44570(16)
C32 C 0.1125(7) 0.36283(8) 0.6249(5)
C33 C 0.2648(7) 0.33849(9) 0.9242(5)
C34 C 0.1666(7) 0.45334(9) 0.5786(5)
H23 H 0.0499 0.4637 0.5112
C35 C 0.3362(7) 0.38736(8) 1.0332(5)
C36 C 0.5519(8) 0.38184(10) 1.1403(5)
H24 H 0.6550 0.3673 1.1245
C37 C 0.6930(8) 0.50644(10) 0.6360(6)
H25 H 0.8220 0.4996 0.7101
C38 C 0.2243(8) 0.36235(10) 0.5059(5)
H26 H 0.3630 0.3734 0.5088
C39 C 0.1069(7) 0.42662(9) 0.6233(5)
H27 H -0.0492 0.4194 0.5836
C40 C 0.2177(7) 0.38074(8) 0.7593(5)
C41 C 0.3998(7) 0.46469(9) 0.6339(5)
C42 C 0.2711(7) 0.41057(8) 0.7245(5)
C43 C 0.2678(7) 0.36975(9) 0.8976(5)
C44 C 0.1815(8) 0.40852(10) 1.0649(5)
H28 H 0.0340 0.4123 0.9972
C45 C 0.4271(10) 0.29181(11) 0.9003(6)
H29 H 0.5312 0.2800 0.8625
C46 C -0.0972(8) 0.34683(10) 0.6152(5)
H30 H -0.1775 0.3474 0.6926
C47 C -0.0753(9) 0.32978(10) 0.3760(6)
H31 H -0.1391 0.3188 0.2924
C48 C 0.5650(8) 0.44881(9) 0.7401(5)
H32 H 0.7189 0.4563 0.7830
C49 C 0.5034(8) 0.42216(9) 0.7824(5)
H33 H 0.6187 0.4118 0.8506
C50 C 0.2786(10) 0.28057(10) 0.9839(6)
H34 H 0.2836 0.2612 1.0043
C51 C 0.6151(9) 0.39769(11) 1.2698(5)
H35 H 0.7629 0.3942 1.3379
C52 C 0.4608(9) 0.41841(10) 1.2978(5)
H36 H 0.5013 0.4288 1.3856
C53 C 0.4718(8) 0.49210(8) 0.5834(5)
C54 C 0.4913(9) 0.53821(11) 0.4579(6)
C55 C 0.1316(9) 0.34560(11) 0.3833(6)
H37 H 0.2105 0.3451 0.3052
C56 C 0.1168(9) 0.32649(10) 1.0085(6)
H38 H 0.0107 0.3380 1.0465
C57 C 0.4231(9) 0.32060(10) 0.8716(6)
H39 H 0.5276 0.3281 0.8165
C58 C 0.2435(9) 0.42381(10) 1.1940(6)
H40 H 0.1386 0.4380 1.2123
C59 C 0.6964(9) 0.53253(10) 0.5626(6)
H41 H 0.8296 0.5449 0.5848
C60 C -0.1899(9) 0.33012(11) 0.4934(6)
H42 H -0.3290 0.3191 0.4900
C61 C 0.1243(10) 0.29764(10) 1.0370(6)
H43 H 0.0224 0.2899 1.0932
O2 O 0.2513(10) 0.56779(10) 0.2755(6)
C62 C 0.4400(12) 0.56317(12) 0.3651(8)
H44 H 0.5633 0.5768 0.3756
loop_
_geom_bond_atom_site_label_1
_geom_bond_atom_site_label_2
_geom_bond_site_symmetry_1
_geom_bond_site_symmetry_2
S1 C11 1_555 1_555
C1 C7 1_555 1_555
C2 C4 1_555 1_555
C3 H1 1_555 1_555
C4 C8 1_555 1_555
C5 H2 1_555 1_555
C6 H3 1_555 1_555
C7 H4 1_555 1_555
C8 C1 1_555 1_555
C9 C6 1_555 1_555
C10 C5 1_555 1_555
H5 C10 1_555 1_555
C11 C27 1_555 1_555
C12 H6 1_555 1_555
C13 H7 1_555 1_555
O1 C31 1_555 1_555
C14 C7 1_555 1_555
H8 C14 1_555 1_555
C15 C3 1_555 1_555
C16 C4 1_555 1_555
C17 C2 1_555 1_555
H9 C17 1_555 1_555
C18 H10 1_555 1_555
C19 H11 1_555 1_555
C20 C6 1_555 1_555
H12 C20 1_555 1_555
C21 C17 1_555 1_555
H13 C21 1_555 1_555
C22 C5 1_555 1_555
H14 C22 1_555 1_555
C23 C9 1_555 1_555
H15 C23 1_555 1_555
C24 S1 1_555 1_555
C25 C18 1_555 1_555
H16 C25 1_555 1_555
C26 C1 1_555 1_555
H17 C26 1_555 1_555
C27 C12 1_555 1_555
H18 C27 1_555 1_555
C28 C10 1_555 1_555
H19 C28 1_555 1_555
C29 C2 1_555 1_555
H20 C29 1_555 1_555
C30 C19 1_555 1_555
H21 C30 1_555 1_555
C31 C11 1_555 1_555
H22 C31 1_555 1_555
S2 C53 1_555 1_555
C32 C38 1_555 1_555
C33 C43 1_555 1_555
C34 H23 1_555 1_555
C35 C36 1_555 1_555
C36 H24 1_555 1_555
C37 H25 1_555 1_555
C38 H26 1_555 1_555
C39 C34 1_555 1_555
H27 C39 1_555 1_555
C40 C32 1_555 1_555
C41 C34 1_555 1_555
C42 C39 1_555 1_555
C43 C35 1_555 1_555
C44 C35 1_555 1_555
H28 C44 1_555 1_555
C45 H29 1_555 1_555
C46 C32 1_555 1_555
H30 C46 1_555 1_555
C47 H31 1_555 1_555
C48 C41 1_555 1_555
H32 C48 1_555 1_555
C49 C42 1_555 1_555
H33 C49 1_555 1_555
C50 C45 1_555 1_555
H34 C50 1_555 1_555
C51 C36 1_555 1_555
H35 C51 1_555 1_555
C52 C51 1_555 1_555
H36 C52 1_555 1_555
C53 C37 1_555 1_555
C54 S2 1_555 1_555
C55 C38 1_555 1_555
H37 C55 1_555 1_555
C56 C33 1_555 1_555
H38 C56 1_555 1_555
C57 C33 1_555 1_555
H39 C57 1_555 1_555
C58 C44 1_555 1_555
H40 C58 1_555 1_555
C59 C37 1_555 1_555
H41 C59 1_555 1_555
C60 C46 1_555 1_555
H42 C60 1_555 1_555
C61 C50 1_555 1_555
H43 C61 1_555 1_555
O2 C62 1_555 1_555
C62 C54 1_555 1_555
H44 C62 1_555 1_555
C3 C26 1_555 1_555
C8 C9 1_555 1_555
C12 C24 1_555 1_555
C13 C16 1_555 1_555
C13 C22 1_555 1_555
C14 C15 1_555 1_555
C15 C24 1_555 1_555
C16 C28 1_555 1_555
C18 C21 1_555 1_555
C19 C20 1_555 1_555
C23 C30 1_555 1_555
C25 C29 1_555 1_555
C40 C42 1_555 1_555
C40 C43 1_555 1_555
C41 C53 1_555 1_555
C45 C57 1_555 1_555
C47 C55 1_555 1_555
C47 C60 1_555 1_555
C48 C49 1_555 1_555
C52 C58 1_555 1_555
C54 C59 1_555 1_555
C56 C61 1_555 1_555

#END
