
#######################################################################
#
#                 Cambridge Crystallographic Data Centre
#                                CCDC 
#
#######################################################################
#
# If this CIF has been generated from an entry in the Cambridge 
# Structural Database, then it will include bibliographic, chemical, 
# crystal, experimental, refinement or atomic coordinate data resulting 
# from the CCDC's data processing and validation procedures.
#
#######################################################################

data_KUDFEW
_chemical_formula_moiety         'C20 H24 S2 Si2'
_chemical_name_systematic        
'[1]benzothieno[3,2-b][1]benzothiene-2,7-diylbis(trimethylsilane)'
_symmetry_cell_setting           triclinic
_symmetry_space_group_name_H-M   'P -1'
_symmetry_Int_Tables_number      2
_space_group_name_Hall           '-P 1'
loop_
_symmetry_equiv_pos_site_id
_symmetry_equiv_pos_as_xyz
1 x,y,z
2 -x,-y,-z
_cell_length_a                   7.4314(6)
_cell_length_b                   10.0392(8)
_cell_length_c                   13.5335(13)
_cell_angle_alpha                82.833(7)
_cell_angle_beta                 82.075(8)
_cell_angle_gamma                88.632(7)
_cell_volume                     992.192
_exptl_crystal_colour            colorless
_exptl_crystal_description       tablet
_cell_formula_units_Z            2
loop_
_atom_site_label
_atom_site_type_symbol
_atom_site_fract_x
_atom_site_fract_y
_atom_site_fract_z
S1 S -0.54940(9) 1.56490(7) -0.14698(5)
Si1 Si -0.39674(10) 1.08220(7) -0.31863(6)
C1 C -0.4723(4) 1.4384(3) 0.0208(2)
C2 C -0.4441(4) 1.3408(3) -0.0483(2)
C3 C -0.4808(3) 1.3966(3) -0.1441(2)
C4 C -0.4670(3) 1.3211(3) -0.2244(2)
H1 H -0.4927 1.3614 -0.2883
C5 C -0.4151(3) 1.1854(3) -0.2109(2)
C6 C -0.3786(4) 1.1304(3) -0.1147(2)
H2 H -0.3438 1.0386 -0.1045
C7 C -0.3914(4) 1.2043(3) -0.0344(2)
H3 H -0.3650 1.1639 0.0293
C8 C -0.5742(4) 1.1414(3) -0.4006(2)
H4 H -0.5680 1.0867 -0.4561
H5 H -0.5524 1.2357 -0.4277
H6 H -0.6948 1.1329 -0.3607
C9 C -0.1658(4) 1.1028(3) -0.3929(2)
H7 H -0.0737 1.0731 -0.3495
H8 H -0.1464 1.1975 -0.4194
H9 H -0.1560 1.0486 -0.4488
C10 C -0.4315(4) 0.9017(3) -0.2693(2)
H10 H -0.4302 0.8489 -0.3257
H11 H -0.5488 0.8909 -0.2262
H12 H -0.3338 0.8704 -0.2302
S1A S -0.45060(9) 1.43510(7) 0.14698(5)
Si1A Si -0.60326(10) 1.91780(7) 0.31863(6)
C1A C -0.5277(4) 1.5616(3) -0.0208(2)
C2A C -0.5559(4) 1.6592(3) 0.0483(2)
C3A C -0.5192(3) 1.6034(3) 0.1441(2)
C4A C -0.5330(3) 1.6789(3) 0.2244(2)
H1A H -0.5073 1.6386 0.2883
C5A C -0.5849(3) 1.8146(3) 0.2109(2)
C6A C -0.6214(4) 1.8696(3) 0.1147(2)
H2A H -0.6562 1.9614 0.1045
C7A C -0.6086(4) 1.7957(3) 0.0344(2)
H3A H -0.6350 1.8361 -0.0293
C8A C -0.4258(4) 1.8586(3) 0.4006(2)
H4A H -0.4320 1.9133 0.4561
H5A H -0.4476 1.7643 0.4277
H6A H -0.3052 1.8671 0.3607
C9A C -0.8342(4) 1.8972(3) 0.3929(2)
H7A H -0.9263 1.9269 0.3495
H8A H -0.8536 1.8025 0.4194
H9A H -0.8440 1.9514 0.4488
C10A C -0.5685(4) 2.0983(3) 0.2693(2)
H10A H -0.5698 2.1511 0.3257
H11A H -0.4512 2.1091 0.2262
H12A H -0.6662 2.1296 0.2302
S2 S 0.11732(9) 1.06135(7) -0.14778(5)
Si2 Si 0.04381(10) 0.58258(7) -0.31752(6)
C11 C -0.0381(4) 0.9398(3) 0.0207(2)
C12 C -0.0340(3) 0.8412(3) -0.0473(2)
C13 C 0.0468(3) 0.8956(3) -0.1441(2)
C14 C 0.0694(4) 0.8195(3) -0.2239(2)
H13 H 0.1242 0.8582 -0.2884
C15 C 0.0118(4) 0.6858(3) -0.2099(2)
C16 C -0.0700(4) 0.6332(3) -0.1132(2)
H14 H -0.1099 0.5427 -0.1025
C17 C -0.0944(4) 0.7083(3) -0.0331(2)
H15 H -0.1516 0.6700 0.0309
C18 C -0.1413(4) 0.6232(3) -0.3972(3)
H16 H -0.1243 0.5698 -0.4537
H17 H -0.1373 0.7189 -0.4229
H18 H -0.2592 0.6023 -0.3567
C19 C 0.2683(4) 0.6254(3) -0.3951(2)
H19 H 0.3659 0.6047 -0.3536
H20 H 0.2704 0.7212 -0.4203
H21 H 0.2860 0.5726 -0.4519
C20 C 0.0407(4) 0.4014(3) -0.2689(2)
H22 H -0.0773 0.3786 -0.2290
H23 H 0.1372 0.3817 -0.2265
H24 H 0.0606 0.3480 -0.3254
S2A S -0.11732(9) 0.93865(7) 0.14778(5)
Si2A Si -0.04381(10) 1.41742(7) 0.31752(6)
C11A C 0.0381(4) 1.0602(3) -0.0207(2)
C12A C 0.0340(3) 1.1588(3) 0.0473(2)
C13A C -0.0468(3) 1.1044(3) 0.1441(2)
C14A C -0.0694(4) 1.1805(3) 0.2239(2)
H13A H -0.1242 1.1418 0.2884
C15A C -0.0118(4) 1.3142(3) 0.2099(2)
C16A C 0.0700(4) 1.3668(3) 0.1132(2)
H14A H 0.1099 1.4573 0.1025
C17A C 0.0944(4) 1.2917(3) 0.0331(2)
H15A H 0.1516 1.3300 -0.0309
C18A C 0.1413(4) 1.3768(3) 0.3972(3)
H16A H 0.1243 1.4302 0.4537
H17A H 0.1373 1.2811 0.4229
H18A H 0.2592 1.3977 0.3567
C19A C -0.2683(4) 1.3746(3) 0.3951(2)
H19A H -0.3659 1.3953 0.3536
H20A H -0.2704 1.2788 0.4203
H21A H -0.2860 1.4274 0.4519
C20A C -0.0407(4) 1.5986(3) 0.2689(2)
H22A H 0.0773 1.6214 0.2290
H23A H -0.1372 1.6183 0.2265
H24A H -0.0606 1.6520 0.3254
loop_
_geom_bond_atom_site_label_1
_geom_bond_atom_site_label_2
_geom_bond_site_symmetry_1
_geom_bond_site_symmetry_2
S1 C3 1_555 1_555
Si1 C5 1_555 1_555
C1 C2 1_555 1_555
C2 C3 1_555 1_555
C3 C4 1_555 1_555
C4 H1 1_555 1_555
C5 C4 1_555 1_555
C6 C5 1_555 1_555
H2 C6 1_555 1_555
C7 C2 1_555 1_555
H3 C7 1_555 1_555
C8 Si1 1_555 1_555
H4 C8 1_555 1_555
H5 C8 1_555 1_555
H6 C8 1_555 1_555
C9 Si1 1_555 1_555
H7 C9 1_555 1_555
H8 C9 1_555 1_555
H9 C9 1_555 1_555
C10 Si1 1_555 1_555
H10 C10 1_555 1_555
H11 C10 1_555 1_555
H12 C10 1_555 1_555
S2 C13 1_555 1_555
Si2 C15 1_555 1_555
C11 C12 1_555 1_555
C12 C13 1_555 1_555
C13 C14 1_555 1_555
C14 H13 1_555 1_555
C15 C14 1_555 1_555
C16 C15 1_555 1_555
H14 C16 1_555 1_555
C17 C12 1_555 1_555
H15 C17 1_555 1_555
C18 Si2 1_555 1_555
H16 C18 1_555 1_555
H17 C18 1_555 1_555
H18 C18 1_555 1_555
C19 Si2 1_555 1_555
H19 C19 1_555 1_555
H20 C19 1_555 1_555
H21 C19 1_555 1_555
C20 Si2 1_555 1_555
H22 C20 1_555 1_555
H23 C20 1_555 1_555
H24 C20 1_555 1_555
S1A C1 1_555 1_555
Si1A C5A 1_555 1_555
C1A S1 1_555 1_555
C2A C1A 1_555 1_555
C3A S1A 1_555 1_555
C4A C3A 1_555 1_555
H1A C4A 1_555 1_555
C5A C4A 1_555 1_555
C6A C5A 1_555 1_555
H2A C6A 1_555 1_555
C7A C2A 1_555 1_555
H3A C7A 1_555 1_555
C8A Si1A 1_555 1_555
H4A C8A 1_555 1_555
H5A C8A 1_555 1_555
H6A C8A 1_555 1_555
C9A Si1A 1_555 1_555
H7A C9A 1_555 1_555
H8A C9A 1_555 1_555
H9A C9A 1_555 1_555
C10A Si1A 1_555 1_555
H10A C10A 1_555 1_555
H11A C10A 1_555 1_555
H12A C10A 1_555 1_555
S2A C11 1_555 1_555
Si2A C15A 1_555 1_555
C11A S2 1_555 1_555
C12A C11A 1_555 1_555
C13A S2A 1_555 1_555
C14A C13A 1_555 1_555
H13A C14A 1_555 1_555
C15A C14A 1_555 1_555
C16A C15A 1_555 1_555
H14A C16A 1_555 1_555
C17A C12A 1_555 1_555
H15A C17A 1_555 1_555
C18A Si2A 1_555 1_555
H16A C18A 1_555 1_555
H17A C18A 1_555 1_555
H18A C18A 1_555 1_555
C19A Si2A 1_555 1_555
H19A C19A 1_555 1_555
H20A C19A 1_555 1_555
H21A C19A 1_555 1_555
C20A Si2A 1_555 1_555
H22A C20A 1_555 1_555
H23A C20A 1_555 1_555
H24A C20A 1_555 1_555
C1 C1A 1_555 1_555
C6 C7 1_555 1_555
C11 C11A 1_555 1_555
C16 C17 1_555 1_555
C2A C3A 1_555 1_555
C6A C7A 1_555 1_555
C12A C13A 1_555 1_555
C16A C17A 1_555 1_555

#END
