
#######################################################################
#
#                 Cambridge Crystallographic Data Centre
#                                CCDC 
#
#######################################################################
#
# If this CIF has been generated from an entry in the Cambridge 
# Structural Database, then it will include bibliographic, chemical, 
# crystal, experimental, refinement or atomic coordinate data resulting 
# from the CCDC's data processing and validation procedures.
#
#######################################################################

data_KUFWUD
_chemical_formula_moiety         'C22 H38 O4,C9 H12 N1 1+,Cl1 O4 1-'
_chemical_name_systematic        
"2-(6'-(6''-(3'''-Methyltetrahydrofur-2'''-yl)-3''-methyltetrahydropyran-2''-yl)-3'-methyltetrahydropyran-2'-yl)-3-methyltetrahydrofuran 2,3-dihydroindenylammonium perchlorate"
_symmetry_cell_setting           monoclinic
_symmetry_space_group_name_H-M   'P 21'
_symmetry_Int_Tables_number      4
_space_group_name_Hall           'P 2yb'
loop_
_symmetry_equiv_pos_site_id
_symmetry_equiv_pos_as_xyz
1 x,y,z
2 -x,1/2+y,-z
_cell_length_a                   8.3441
_cell_length_b                   9.9022
_cell_length_c                   20.048
_cell_angle_alpha                90
_cell_angle_beta                 99.03
_cell_angle_gamma                90
_cell_volume                     1635.94
_cell_formula_units_Z            2
loop_
_atom_site_label
_atom_site_type_symbol
_atom_site_fract_x
_atom_site_fract_y
_atom_site_fract_z
Cl1 Cl -0.15099 0.0000 -0.25351
O1 O -0.12027 0.13511 -0.22614
O2 O -0.02330 -0.03175 -0.28819
O3 O -0.15148 -0.08878 -0.20054
O4 O -0.29188 -0.00305 -0.29858
O5 O 0.23855 0.42788 -0.11329
O6 O 0.11014 0.54742 -0.23518
O7 O 0.09513 0.42144 -0.36952
O8 O 0.19694 0.16149 -0.40038
C1 C 0.17477 0.34663 -0.06473
C2 C 0.00760 0.40371 -0.05730
C3 C -0.01801 0.52619 -0.10764
C4 C 0.15632 0.55788 -0.11709
C5 C 0.17829 0.63085 -0.17865
C6 C 0.35098 0.66892 -0.18769
C7 C 0.35330 0.73627 -0.25481
C8 C 0.26630 0.65522 -0.31345
C9 C 0.09697 0.61813 -0.29901
C10 C -0.00554 0.52992 -0.35044
C11 C -0.15857 0.47219 -0.32771
C12 C -0.24320 0.38143 -0.38368
C13 C -0.13389 0.27904 -0.41027
C14 C 0.01532 0.34927 -0.42650
C15 C 0.13288 0.25791 -0.45148
C16 C 0.29043 0.31762 -0.47073
C17 C 0.39594 0.19640 -0.47155
C18 C 0.34249 0.10439 -0.41866
C19 C 0.26013 0.39070 -0.53787
C20 C -0.26573 0.58176 -0.30896
C21 C 0.25554 0.73141 -0.38034
C22 C -0.10983 0.64478 -0.08440
N1 N 0.18797 0.25734 -0.24316
C23 C 0.33358 0.17046 -0.23296
C24 C 0.48081 0.25550 -0.23804
C25 C 0.57074 0.27930 -0.16602
C26 C 0.49652 0.17320 -0.12656
C27 C 0.54756 0.13900 -0.05688
C28 C 0.45999 0.03893 -0.03139
C29 C 0.32705 -0.02045 -0.06608
C30 C 0.27431 0.01709 -0.13435
C31 C 0.36332 0.11563 -0.16173
loop_
_geom_bond_atom_site_label_1
_geom_bond_atom_site_label_2
_geom_bond_site_symmetry_1
_geom_bond_site_symmetry_2
Cl1 O1 1_555 1_555
O2 Cl1 1_555 1_555
O3 Cl1 1_555 1_555
O4 Cl1 1_555 1_555
O5 C1 1_555 1_555
O6 C5 1_555 1_555
O7 C10 1_555 1_555
O8 C15 1_555 1_555
C1 C2 1_555 1_555
C2 C3 1_555 1_555
C3 C4 1_555 1_555
C4 O5 1_555 1_555
C5 C4 1_555 1_555
C6 C5 1_555 1_555
C7 C6 1_555 1_555
C8 C7 1_555 1_555
C9 O6 1_555 1_555
C10 C9 1_555 1_555
C11 C10 1_555 1_555
C12 C11 1_555 1_555
C13 C12 1_555 1_555
C14 O7 1_555 1_555
C15 C14 1_555 1_555
C16 C15 1_555 1_555
C17 C16 1_555 1_555
C18 O8 1_555 1_555
C19 C16 1_555 1_555
C20 C11 1_555 1_555
C21 C8 1_555 1_555
C22 C3 1_555 1_555
N1 C23 1_555 1_555
C23 C24 1_555 1_555
C24 C25 1_555 1_555
C25 C26 1_555 1_555
C26 C27 1_555 1_555
C27 C28 1_555 1_555
C28 C29 1_555 1_555
C29 C30 1_555 1_555
C30 C31 1_555 1_555
C31 C23 1_555 1_555
C8 C9 1_555 1_555
C13 C14 1_555 1_555
C17 C18 1_555 1_555
C26 C31 1_555 1_555

#END
