
#######################################################################
#
#                 Cambridge Crystallographic Data Centre
#                                CCDC 
#
#######################################################################
#
# If this CIF has been generated from an entry in the Cambridge 
# Structural Database, then it will include bibliographic, chemical, 
# crystal, experimental, refinement or atomic coordinate data resulting 
# from the CCDC's data processing and validation procedures.
#
#######################################################################

data_KUGDIA
_chemical_formula_moiety         'C14 H15 N1 O2 S1'
_chemical_name_systematic        
7-Hydroxy-3,3,5-trimethyl-4,5-dihydrothiopyrano[3,2-b]indol-2(3H)-one
_symmetry_cell_setting           orthorhombic
_symmetry_space_group_name_H-M   'P b c a'
_symmetry_Int_Tables_number      61
_space_group_name_Hall           '-P 2ac 2ab'
loop_
_symmetry_equiv_pos_site_id
_symmetry_equiv_pos_as_xyz
1 x,y,z
2 1/2-x,-y,1/2+z
3 1/2+x,1/2-y,-z
4 -x,1/2+y,1/2-z
5 -x,-y,-z
6 1/2+x,y,1/2-z
7 1/2-x,1/2+y,z
8 x,1/2-y,1/2+z
_cell_length_a                   11.177(6)
_cell_length_b                   11.353(6)
_cell_length_c                   19.359(9)
_cell_angle_alpha                90
_cell_angle_beta                 90
_cell_angle_gamma                90
_cell_volume                     2456.51
_cell_formula_units_Z            8
loop_
_atom_site_label
_atom_site_type_symbol
_atom_site_fract_x
_atom_site_fract_y
_atom_site_fract_z
C1 C 0.5658(6) 0.8334(6) 0.0460(3)
C2 C 0.5129(6) 0.7207(6) 0.0768(3)
C3 C 0.4560(6) 0.7367(6) 0.1490(3)
H1 H 0.3800 0.7807 0.1441
H2 H 0.4368 0.6582 0.1683
C4 C 0.5352(6) 0.8008(5) 0.1985(3)
C5 C 0.6209(6) 0.8603(5) 0.2977(3)
C6 C 0.6559(7) 0.8740(6) 0.3658(3)
H3 H 0.6176 0.8322 0.4021
C7 C 0.7498(6) 0.9518(5) 0.3790(3)
C8 C 0.8038(6) 1.0156(6) 0.3253(3)
H4 H 0.8660 1.0698 0.3358
C9 C 0.7687(6) 1.0012(6) 0.2578(3)
H5 H 0.8064 1.0444 0.2219
C10 C 0.6762(6) 0.9218(6) 0.2427(3)
C11 C 0.6192(7) 0.8825(6) 0.1811(3)
C12 C 0.6197(6) 0.6354(6) 0.0817(3)
H6 H 0.5913 0.5574 0.0958
H7 H 0.6770 0.6649 0.1159
H8 H 0.6589 0.6297 0.0365
C13 C 0.4190(7) 0.6735(6) 0.0275(3)
H9 H 0.4553 0.6598 -0.0179
H10 H 0.3540 0.7310 0.0231
H11 H 0.3870 0.5992 0.0455
C14 C 0.4440(6) 0.7239(6) 0.3083(3)
H12 H 0.3682 0.7670 0.3056
H13 H 0.4690 0.7178 0.3567
H14 H 0.4335 0.6448 0.2890
N1 N 0.5349(5) 0.7863(5) 0.2692(3)
O1 O 0.5638(4) 0.8530(4) -0.0162(2)
O2 O 0.7907(5) 0.9579(4) 0.4451(2)
H15 H 0.8314 1.0195 0.4501
S1 S 0.64568(17) 0.93448(15) 0.09743(8)
loop_
_geom_bond_atom_site_label_1
_geom_bond_atom_site_label_2
_geom_bond_site_symmetry_1
_geom_bond_site_symmetry_2
C1 C2 1_555 1_555
C2 C3 1_555 1_555
C3 H1 1_555 1_555
H2 C3 1_555 1_555
C4 C3 1_555 1_555
C5 C6 1_555 1_555
C6 H3 1_555 1_555
C7 C6 1_555 1_555
C8 C7 1_555 1_555
H4 C8 1_555 1_555
C9 C8 1_555 1_555
H5 C9 1_555 1_555
C10 C5 1_555 1_555
C11 C4 1_555 1_555
C12 C2 1_555 1_555
H6 C12 1_555 1_555
H7 C12 1_555 1_555
H8 C12 1_555 1_555
C13 C2 1_555 1_555
H9 C13 1_555 1_555
H10 C13 1_555 1_555
H11 C13 1_555 1_555
C14 H12 1_555 1_555
H13 C14 1_555 1_555
H14 C14 1_555 1_555
N1 C4 1_555 1_555
O1 C1 1_555 1_555
O2 C7 1_555 1_555
H15 O2 1_555 1_555
S1 C1 1_555 1_555
C5 N1 1_555 1_555
C9 C10 1_555 1_555
C10 C11 1_555 1_555
C11 S1 1_555 1_555
C14 N1 1_555 1_555

#END
