
#######################################################################
#
#                 Cambridge Crystallographic Data Centre
#                                CCDC 
#
#######################################################################
#
# If this CIF has been generated from an entry in the Cambridge 
# Structural Database, then it will include bibliographic, chemical, 
# crystal, experimental, refinement or atomic coordinate data resulting 
# from the CCDC's data processing and validation procedures.
#
#######################################################################

data_KUGROV
_chemical_formula_moiety         'C48 H34 N2'
_chemical_name_systematic        
4,4'-((1,2-diphenylethene-1,2-diyl)dibiphenyl-2,4'-diyl)dipyridine
_symmetry_cell_setting           monoclinic
_symmetry_space_group_name_H-M   'C 2/c'
_symmetry_Int_Tables_number      15
_space_group_name_Hall           '-C 2yn'
loop_
_symmetry_equiv_pos_site_id
_symmetry_equiv_pos_as_xyz
1 x,y,z
2 -x,y,1/2-z
3 1/2+x,1/2+y,z
4 1/2-x,1/2+y,1/2-z
5 -x,-y,-z
6 x,-y,1/2+z
7 1/2-x,1/2-y,-z
8 1/2+x,1/2-y,1/2+z
_cell_length_a                   21.568(5)
_cell_length_b                   12.842(6)
_cell_length_c                   25.909(8)
_cell_angle_alpha                90
_cell_angle_beta                 106.77(2)
_cell_angle_gamma                90
_cell_volume                     6870.98
_cell_formula_units_Z            8
loop_
_atom_site_label
_atom_site_type_symbol
_atom_site_fract_x
_atom_site_fract_y
_atom_site_fract_z
C1 C 0.33597(10) -0.00208(17) 0.15450(8)
C2 C 0.33989(10) -0.07566(16) 0.11847(8)
C3 C 0.35087(10) -0.02832(16) 0.21304(8)
C4 C 0.30842(11) -0.00028(18) 0.24210(8)
H1 H 0.2730 0.0418 0.2261
C5 C 0.31837(13) -0.0343(2) 0.29444(9)
H2 H 0.2888 -0.0168 0.3130
C6 C 0.37156(14) -0.0937(2) 0.31931(9)
H3 H 0.3778 -0.1172 0.3544
C7 C 0.41516(12) -0.1178(2) 0.29199(10)
H4 H 0.4518 -0.1566 0.3089
C8 C 0.40515(11) -0.08513(18) 0.23974(9)
H5 H 0.4356 -0.1016 0.2219
C9 C 0.34830(11) -0.18774(17) 0.13440(8)
C10 C 0.30639(13) -0.23510(19) 0.15930(9)
H6 H 0.2714 -0.1981 0.1641
C11 C 0.31666(17) -0.3373(2) 0.17691(10)
H7 H 0.2891 -0.3678 0.1943
C12 C 0.3667(2) -0.3935(2) 0.16897(11)
H8 H 0.3734 -0.4619 0.1811
C13 C 0.40710(17) -0.3489(2) 0.14308(11)
H9 H 0.4411 -0.3872 0.1373
C14 C 0.39745(13) -0.24700(18) 0.12550(9)
H10 H 0.4246 -0.2179 0.1073
C15 C 0.33203(10) -0.05686(16) 0.05976(8)
C16 C 0.28603(11) -0.11821(17) 0.02336(8)
H11 H 0.2623 -0.1666 0.0365
C17 C 0.27494(12) -0.10893(18) -0.03147(9)
H12 H 0.2436 -0.1497 -0.0550
C18 C 0.31063(12) -0.03890(19) -0.05118(9)
H13 H 0.3042 -0.0332 -0.0881
C19 C 0.35578(11) 0.02264(18) -0.01613(8)
H14 H 0.3792 0.0703 -0.0300
C20 C 0.36757(10) 0.01589(16) 0.03945(8)
C21 C 0.41759(10) 0.08627(17) 0.07347(8)
C22 C 0.41668(11) 0.19139(18) 0.06068(9)
H15 H 0.3845 0.2161 0.0310
C23 C 0.46162(11) 0.25962(18) 0.09040(9)
H16 H 0.4596 0.3295 0.0806
C24 C 0.51021(11) 0.22557(17) 0.13498(9)
C25 C 0.51264(11) 0.11978(18) 0.14704(9)
H17 H 0.5456 0.0948 0.1760
C26 C 0.46747(11) 0.05160(18) 0.11710(9)
H18 H 0.4703 -0.0187 0.1261
C27 C 0.55849(11) 0.29968(18) 0.16770(9)
C28 C 0.54212(13) 0.4027(2) 0.17434(10)
H19 H 0.4999 0.4257 0.1591
C29 C 0.58860(15) 0.4702(2) 0.20349(11)
H20 H 0.5763 0.5387 0.2069
C30 C 0.66457(13) 0.3456(2) 0.22127(10)
H21 H 0.7069 0.3245 0.2377
C31 C 0.62167(12) 0.2723(2) 0.19264(9)
H22 H 0.6354 0.2043 0.1902
C32 C 0.31803(10) 0.10921(17) 0.14047(8)
C33 C 0.36021(12) 0.18528(18) 0.16880(9)
H23 H 0.3967 0.1652 0.1961
C34 C 0.34926(13) 0.28988(18) 0.15731(10)
H24 H 0.3785 0.3394 0.1763
C35 C 0.29482(15) 0.3204(2) 0.11752(11)
H25 H 0.2872 0.3905 0.1091
C36 C 0.25206(13) 0.24640(19) 0.09046(10)
H26 H 0.2152 0.2678 0.0639
C37 C 0.26163(11) 0.14020(17) 0.10107(9)
C38 C 0.21003(11) 0.06608(18) 0.07240(8)
C39 C 0.18109(11) 0.07330(19) 0.01698(9)
H27 H 0.1949 0.1243 -0.0027
C40 C 0.13253(11) 0.00633(19) -0.00912(9)
H28 H 0.1137 0.0135 -0.0461
C41 C 0.11093(11) -0.07172(19) 0.01838(9)
C42 C 0.13999(11) -0.0790(2) 0.07350(9)
H29 H 0.1270 -0.1313 0.0930
C43 C 0.18758(11) -0.0108(2) 0.09992(9)
H30 H 0.2051 -0.0163 0.1371
C44 C 0.05844(11) -0.14485(19) -0.00882(9)
C45 C 0.00325(12) -0.1118(2) -0.04720(10)
H31 H -0.0017 -0.0420 -0.0571
C46 C -0.04477(13) -0.1833(3) -0.07087(11)
H32 H -0.0818 -0.1588 -0.0961
C47 C 0.01291(14) -0.3161(2) -0.02254(11)
H33 H 0.0172 -0.3865 -0.0138
C48 C 0.06202(12) -0.2504(2) 0.00321(10)
H34 H 0.0981 -0.2767 0.0290
N1 N -0.04112(11) -0.2849(2) -0.05967(10)
N2 N 0.64955(12) 0.44458(18) 0.22703(9)
loop_
_geom_bond_atom_site_label_1
_geom_bond_atom_site_label_2
_geom_bond_site_symmetry_1
_geom_bond_site_symmetry_2
C1 C2 1_555 1_555
C2 C9 1_555 1_555
C3 C1 1_555 1_555
C4 C3 1_555 1_555
H1 C4 1_555 1_555
C5 C4 1_555 1_555
H2 C5 1_555 1_555
C6 C5 1_555 1_555
H3 C6 1_555 1_555
C7 C6 1_555 1_555
H4 C7 1_555 1_555
C8 C3 1_555 1_555
H5 C8 1_555 1_555
C9 C10 1_555 1_555
C10 H6 1_555 1_555
C11 C10 1_555 1_555
H7 C11 1_555 1_555
C12 C11 1_555 1_555
H8 C12 1_555 1_555
C13 C12 1_555 1_555
H9 C13 1_555 1_555
C14 C9 1_555 1_555
H10 C14 1_555 1_555
C15 C2 1_555 1_555
C16 C15 1_555 1_555
H11 C16 1_555 1_555
C17 C16 1_555 1_555
H12 C17 1_555 1_555
C18 C17 1_555 1_555
H13 C18 1_555 1_555
C19 C18 1_555 1_555
H14 C19 1_555 1_555
C20 C15 1_555 1_555
C21 C20 1_555 1_555
C22 C21 1_555 1_555
H15 C22 1_555 1_555
C23 C22 1_555 1_555
H16 C23 1_555 1_555
C24 C23 1_555 1_555
C25 C24 1_555 1_555
H17 C25 1_555 1_555
C26 C21 1_555 1_555
H18 C26 1_555 1_555
C27 C24 1_555 1_555
C28 C27 1_555 1_555
H19 C28 1_555 1_555
C29 C28 1_555 1_555
H20 C29 1_555 1_555
C30 H21 1_555 1_555
C31 C27 1_555 1_555
H22 C31 1_555 1_555
C32 C1 1_555 1_555
C33 C32 1_555 1_555
H23 C33 1_555 1_555
C34 C33 1_555 1_555
H24 C34 1_555 1_555
C35 C34 1_555 1_555
H25 C35 1_555 1_555
C36 C35 1_555 1_555
H26 C36 1_555 1_555
C37 C32 1_555 1_555
C38 C37 1_555 1_555
C39 C38 1_555 1_555
H27 C39 1_555 1_555
C40 C39 1_555 1_555
H28 C40 1_555 1_555
C41 C40 1_555 1_555
C42 C41 1_555 1_555
H29 C42 1_555 1_555
C43 C38 1_555 1_555
H30 C43 1_555 1_555
C44 C41 1_555 1_555
C45 C44 1_555 1_555
H31 C45 1_555 1_555
C46 C45 1_555 1_555
H32 C46 1_555 1_555
C47 H33 1_555 1_555
C48 C44 1_555 1_555
H34 C48 1_555 1_555
N1 C46 1_555 1_555
N2 C29 1_555 1_555
C7 C8 1_555 1_555
C13 C14 1_555 1_555
C19 C20 1_555 1_555
C25 C26 1_555 1_555
C30 C31 1_555 1_555
C30 N2 1_555 1_555
C36 C37 1_555 1_555
C42 C43 1_555 1_555
C47 C48 1_555 1_555
C47 N1 1_555 1_555

#END
