
#######################################################################
#
#                 Cambridge Crystallographic Data Centre
#                                CCDC 
#
#######################################################################
#
# If this CIF has been generated from an entry in the Cambridge 
# Structural Database, then it will include bibliographic, chemical, 
# crystal, experimental, refinement or atomic coordinate data resulting 
# from the CCDC's data processing and validation procedures.
#
#######################################################################

data_KUGRUB
_chemical_formula_moiety         'C52 H38 N2'
_chemical_name_systematic        
"4,4'-((1,2-diphenylethene-1,2-diyl)bis(biphenyl-2,4'-diylethene-2,1-diyl))dipyridine unknown solvate"
_symmetry_cell_setting           triclinic
_symmetry_space_group_name_H-M   'P -1'
_symmetry_Int_Tables_number      2
_space_group_name_Hall           '-P 1'
loop_
_symmetry_equiv_pos_site_id
_symmetry_equiv_pos_as_xyz
1 x,y,z
2 -x,-y,-z
_cell_length_a                   14.4844(8)
_cell_length_b                   17.9574(8)
_cell_length_c                   18.3000(8)
_cell_angle_alpha                83.935(4)
_cell_angle_beta                 68.113(5)
_cell_angle_gamma                72.776(4)
_cell_volume                     4218.65
_exptl_crystal_colour            yellow
_exptl_crystal_description       platelet
_cell_formula_units_Z            4
loop_
_atom_site_label
_atom_site_type_symbol
_atom_site_fract_x
_atom_site_fract_y
_atom_site_fract_z
C1 C 0.4993(2) 0.34458(17) 0.17077(16)
C2 C 0.4535(2) 0.39910(17) 0.34813(16)
C3 C 0.5373(2) 0.26422(16) 0.28085(16)
C4 C 0.4562(2) 0.32120(16) 0.34306(16)
C5 C 0.3816(2) 0.29147(18) 0.39983(17)
H1 H 0.3846 0.2383 0.3965
C6 C 0.5574(2) 0.39027(17) 0.11793(16)
H2 H 0.6308 0.3727 0.1009
C7 C 0.5579(2) 0.27504(16) 0.20309(16)
C8 C 0.6505(2) 0.22371(17) 0.14251(17)
C9 C 0.3909(2) 0.36923(19) 0.19205(17)
C10 C 0.5324(2) 0.43582(17) 0.29290(17)
C11 C 0.6383(2) 0.39725(17) 0.26601(17)
H3 H 0.6612 0.3467 0.2855
C12 C 0.5033(2) 0.51127(17) 0.26588(18)
H4 H 0.4323 0.5402 0.2847
C13 C 0.3473(3) 0.4399(2) 0.16220(19)
H5 H 0.2741 0.4574 0.1768
C14 C 0.6803(2) 0.50405(19) 0.18216(19)
C15 C 0.2989(2) 0.41330(19) 0.46606(18)
H6 H 0.2452 0.4452 0.5079
C16 C 0.3203(3) 0.3245(2) 0.2429(2)
C17 C 0.7102(2) 0.43045(19) 0.21203(18)
H7 H 0.7815 0.4024 0.1950
C18 C 0.5752(3) 0.54485(18) 0.21248(19)
H8 H 0.5530 0.5968 0.1958
C19 C 0.7487(2) 0.20883(19) 0.14627(18)
H9 H 0.7567 0.2287 0.1890
C20 C 0.5118(3) 0.45994(19) 0.08967(18)
H10 H 0.5534 0.4903 0.0547
C21 C 0.3729(2) 0.44427(18) 0.41036(17)
H11 H 0.3688 0.4975 0.4144
C22 C 0.3030(2) 0.33666(19) 0.46095(18)
H12 H 0.2525 0.3150 0.4990
C23 C 0.5895(2) 0.19233(17) 0.31589(17)
C24 C 0.6426(3) 0.19396(18) 0.07914(18)
H13 H 0.5767 0.2050 0.0745
C25 C 0.6220(3) 0.19888(19) 0.37659(19)
H14 H 0.6152 0.2490 0.3937
C26 C 0.8346(3) 0.1651(2) 0.0878(2)
H15 H 0.9013 0.1562 0.0905
C27 C 0.7580(3) 0.53537(19) 0.12145(19)
H16 H 0.8276 0.5149 0.1189
C28 C 0.4061(3) 0.4851(2) 0.1124(2)
H17 H 0.3737 0.5335 0.0940
C29 C 0.5977(3) 0.11867(18) 0.2934(2)
H18 H 0.5755 0.1128 0.2521
C30 C 0.8187(3) 0.61993(18) 0.00737(19)
N1 N 0.9639(3) 0.68085(19) -0.11461(19)
C31 C 0.7964(3) 0.6570(2) -0.0573(2)
H19 H 0.7306 0.6633 -0.0607
C32 C 0.9164(3) 0.6131(2) 0.0074(2)
H20 H 0.9366 0.5867 0.0492
C33 C 0.7406(3) 0.59000(19) 0.0693(2)
H21 H 0.6707 0.6115 0.0727
C34 C 0.3383(3) 0.2454(3) 0.2343(2)
H22 H 0.4010 0.2167 0.1961
C35 C 0.8258(3) 0.1350(2) 0.0271(2)
H23 H 0.8857 0.1048 -0.0122
N2 N -0.1672(3) 0.0505(2) 0.5301(2)
C36 C 0.7291(3) 0.1482(2) 0.0221(2)
H24 H 0.7221 0.1262 -0.0199
C37 C 0.6383(3) 0.0536(2) 0.3313(3)
H25 H 0.6429 0.0031 0.3164
C38 C 0.6643(3) 0.1331(3) 0.4124(2)
H26 H 0.6882 0.1385 0.4529
C39 C 0.2273(3) 0.3644(3) 0.3001(2)
H27 H 0.2127 0.4188 0.3074
C40 C 0.6720(3) 0.0613(2) 0.3906(3)
H28 H 0.7005 0.0164 0.4160
C41 C 0.2654(3) 0.2068(3) 0.2811(3)
H29 H 0.2780 0.1525 0.2746
C42 C 0.9845(3) 0.6446(2) -0.0530(2)
H30 H 1.0502 0.6401 -0.0504
C43 C 0.1569(3) 0.3255(3) 0.3456(3)
H31 H 0.0943 0.3540 0.3840
C44 C 0.8708(3) 0.6845(2) -0.1164(2)
H32 H 0.8552 0.7073 -0.1612
C45 C 0.1732(3) 0.2497(3) 0.3380(3)
C46 C -0.1041(3) 0.0301(3) 0.4565(3)
H33 H -0.1120 -0.0116 0.4336
C47 C -0.0289(3) 0.0645(3) 0.4114(3)
H34 H 0.0129 0.0469 0.3590
C48 C -0.0143(3) 0.1242(3) 0.4421(3)
C49 C 0.0877(5) 0.2193(4) 0.3960(4)
H35 H 0.0399 0.2493 0.4413
C50 C 0.0789(6) 0.1526(5) 0.3845(5)
H36 H 0.1289 0.1208 0.3411
C51 C -0.1524(4) 0.1096(3) 0.5593(3)
H37 H -0.1960 0.1267 0.6115
C52 C -0.0781(4) 0.1472(3) 0.5185(4)
H38 H -0.0707 0.1884 0.5425
C55 C -0.2172(2) 0.56907(18) 0.29214(18)
H41 H -0.2894 0.5936 0.3066
C56 C -0.0552(2) 0.62363(17) 0.38266(16)
H42 H -0.1254 0.6272 0.3917
C57 C 0.0320(2) 0.68793(17) 0.16532(16)
C58 C -0.0781(2) 0.74048(16) 0.30071(17)
C59 C -0.0414(2) 0.57198(17) 0.21646(17)
C60 C -0.0571(2) 0.74557(17) 0.22246(17)
C61 C 0.0355(2) 0.60917(17) 0.16159(16)
C62 C -0.0115(2) 0.67941(18) 0.33582(16)
C63 C -0.1487(2) 0.60594(18) 0.24019(17)
H43 H -0.1744 0.6554 0.2199
C64 C 0.1206(2) 0.56287(19) 0.10076(18)
H44 H 0.1255 0.5093 0.0971
C65 C -0.1751(2) 0.78823(17) 0.36041(17)
C66 C -0.1849(2) 0.49744(18) 0.32416(18)
C67 C -0.2608(3) 0.46121(19) 0.38147(19)
H45 H -0.3305 0.4819 0.3843
C68 C -0.0095(2) 0.49751(18) 0.24650(19)
H46 H 0.0625 0.4717 0.2302
C69 C -0.2431(3) 0.40262(19) 0.4300(2)
H47 H -0.1732 0.3803 0.4261
C70 C -0.1727(3) 0.81709(17) 0.42722(17)
H48 H -0.1082 0.8077 0.4338
C71 C 0.1086(2) 0.71631(18) 0.11041(17)
H49 H 0.1051 0.7697 0.1131
C72 C -0.0775(2) 0.46059(18) 0.2982(2)
H50 H -0.0525 0.4100 0.3167
C73 C 0.1903(2) 0.67002(19) 0.05168(18)
H51 H 0.2421 0.6913 0.0148
C74 C -0.3610(3) 0.8409(2) 0.4126(2)
H52 H -0.4262 0.8474 0.4080
C75 C -0.1130(3) 0.81029(18) 0.18283(18)
C76 C -0.2704(3) 0.80049(19) 0.35457(19)
H53 H -0.2744 0.7809 0.3099
C77 C -0.0011(3) 0.5637(2) 0.41637(19)
H54 H -0.0338 0.5270 0.4488
C78 C 0.1958(2) 0.5927(2) 0.04715(18)
H55 H 0.2516 0.5601 0.0070
C79 C 0.0923(3) 0.6742(2) 0.32278(19)
C80 C -0.3202(3) 0.36942(19) 0.4882(2)
C81 C -0.3563(3) 0.8713(2) 0.4762(2)
H56 H -0.4179 0.9006 0.5148
C82 C -0.2624(3) 0.85925(19) 0.48427(19)
H57 H -0.2589 0.8797 0.5287
C83 C -0.4205(3) 0.3832(2) 0.4924(2)
H58 H -0.4429 0.4160 0.4544
N3 N 0.4580(3) 1.1319(2) 0.0399(2)
C84 C 0.1458(3) 0.6120(3) 0.3574(2)
H59 H 0.2160 0.6073 0.3494
C85 C 0.1001(3) 0.5571(3) 0.4030(2)
H60 H 0.1390 0.5149 0.4249
C86 C 0.1459(3) 0.7322(3) 0.2787(2)
N4 N -0.4654(3) 0.3047(2) 0.6065(2)
C87 C -0.1379(3) 0.8878(2) 0.2024(2)
H61 H -0.1245 0.9011 0.2456
C88 C -0.1321(3) 0.7940(2) 0.1192(2)
H62 H -0.1145 0.7412 0.1039
C89 C -0.4887(3) 0.3507(2) 0.5502(2)
H63 H -0.5570 0.3615 0.5501
C90 C 0.1523(4) 0.8655(3) 0.2487(3)
H64 H 0.1178 0.9198 0.2538
C91 C 0.2571(4) 0.8401(3) 0.2040(3)
C92 C -0.2956(3) 0.3202(2) 0.5461(3)
H65 H -0.2271 0.3068 0.5463
C93 C 0.3054(4) 0.7610(4) 0.1945(3)
H66 H 0.3763 0.7428 0.1619
C94 C 0.3224(5) 0.8945(4) 0.1643(3)
H67 H 0.3949 0.8727 0.1392
C95 C -0.1823(4) 0.9465(2) 0.1600(3)
H68 H -0.1981 0.9996 0.1735
C96 C -0.3685(4) 0.2909(3) 0.6026(3)
H69 H -0.3485 0.2585 0.6418
C97 C 0.0972(4) 0.8116(3) 0.2861(2)
H70 H 0.0256 0.8295 0.3169
C98 C 0.3597(4) 1.1416(3) 0.0523(3)
H71 H 0.3244 1.1880 0.0329
C99 C 0.4542(5) 1.0099(3) 0.1083(3)
H72 H 0.4897 0.9635 0.1275
C100 C 0.5062(4) 1.0643(3) 0.0685(3)
H73 H 0.5773 1.0542 0.0609
C101 C 0.3494(5) 1.0237(3) 0.1199(3)
C102 C 0.2502(3) 0.7087(3) 0.2326(3)
H74 H 0.2849 0.6546 0.2270
C103 C -0.2032(4) 0.9270(3) 0.0977(3)
H75 H -0.2367 0.9666 0.0699
C104 C 0.2854(5) 0.9688(4) 0.1625(3)
H76 H 0.2133 0.9905 0.1895
C105 C 0.3054(4) 1.0915(3) 0.0901(3)
H77 H 0.2345 1.1036 0.0963
C106 C -0.1763(4) 0.8523(3) 0.0767(3)
H78 H -0.1876 0.8392 0.0323
C53? C 0.1243(11) 0.1733(9) 0.3558(9)
H39? H 0.1516 0.1274 0.3246
C54? C 0.0385(10) 0.1883(9) 0.4230(8)
H40? H 0.0148 0.2340 0.4542
loop_
_geom_bond_atom_site_label_1
_geom_bond_atom_site_label_2
_geom_bond_site_symmetry_1
_geom_bond_site_symmetry_2
C1 C6 1_555 1_555
C2 C4 1_555 1_555
C3 C4 1_555 1_555
C4 C5 1_555 1_555
C5 H1 1_555 1_555
C6 H2 1_555 1_555
C7 C1 1_555 1_555
C8 C7 1_555 1_555
C9 C1 1_555 1_555
C10 C2 1_555 1_555
C11 C10 1_555 1_555
H3 C11 1_555 1_555
C12 C10 1_555 1_555
H4 C12 1_555 1_555
C13 C9 1_555 1_555
H5 C13 1_555 1_555
C14 C17 1_555 1_555
C15 H6 1_555 1_555
C16 C9 1_555 1_555
C17 C11 1_555 1_555
H7 C17 1_555 1_555
C18 C12 1_555 1_555
H8 C18 1_555 1_555
C19 C8 1_555 1_555
H9 C19 1_555 1_555
C20 C6 1_555 1_555
H10 C20 1_555 1_555
C21 C2 1_555 1_555
H11 C21 1_555 1_555
C22 C5 1_555 1_555
H12 C22 1_555 1_555
C23 C3 1_555 1_555
C24 C8 1_555 1_555
H13 C24 1_555 1_555
C25 C23 1_555 1_555
H14 C25 1_555 1_555
C26 C19 1_555 1_555
H15 C26 1_555 1_555
C27 C14 1_555 1_555
H16 C27 1_555 1_555
C28 C13 1_555 1_555
H17 C28 1_555 1_555
C29 C23 1_555 1_555
H18 C29 1_555 1_555
C30 C31 1_555 1_555
N1 C42 1_555 1_555
C31 H19 1_555 1_555
C32 C30 1_555 1_555
H20 C32 1_555 1_555
C33 C27 1_555 1_555
H21 C33 1_555 1_555
C34 C16 1_555 1_555
H22 C34 1_555 1_555
C35 C26 1_555 1_555
H23 C35 1_555 1_555
N2 C46 1_555 1_555
C36 C24 1_555 1_555
H24 C36 1_555 1_555
C37 C29 1_555 1_555
H25 C37 1_555 1_555
C38 C25 1_555 1_555
H26 C38 1_555 1_555
C39 C16 1_555 1_555
H27 C39 1_555 1_555
C40 C37 1_555 1_555
H28 C40 1_555 1_555
C41 C34 1_555 1_555
H29 C41 1_555 1_555
C42 C32 1_555 1_555
H30 C42 1_555 1_555
C43 C39 1_555 1_555
H31 C43 1_555 1_555
C44 N1 1_555 1_555
H32 C44 1_555 1_555
C45 C41 1_555 1_555
C46 H33 1_555 1_555
C47 C46 1_555 1_555
H34 C47 1_555 1_555
C48 C47 1_555 1_555
C49 C45 1_555 1_555
H35 C49 1_555 1_555
C50 C48 1_555 1_555
H36 C50 1_555 1_555
C51 N2 1_555 1_555
H37 C51 1_555 1_555
C52 C48 1_555 1_555
H38 C52 1_555 1_555
C55 H41 1_555 1_555
C56 H42 1_555 1_555
C57 C60 1_555 1_555
C58 C60 1_555 1_555
C59 C61 1_555 1_555
C60 C75 1_555 1_555
C61 C57 1_555 1_555
C62 C56 1_555 1_555
C63 C55 1_555 1_555
H43 C63 1_555 1_555
C64 C61 1_555 1_555
H44 C64 1_555 1_555
C65 C58 1_555 1_555
C66 C55 1_555 1_555
C67 C66 1_555 1_555
H45 C67 1_555 1_555
C68 C59 1_555 1_555
H46 C68 1_555 1_555
C69 C67 1_555 1_555
H47 C69 1_555 1_555
C70 C65 1_555 1_555
H48 C70 1_555 1_555
C71 C57 1_555 1_555
H49 C71 1_555 1_555
C72 C66 1_555 1_555
H50 C72 1_555 1_555
C73 C71 1_555 1_555
H51 C73 1_555 1_555
C74 H52 1_555 1_555
C75 C87 1_555 1_555
C76 C65 1_555 1_555
H53 C76 1_555 1_555
C77 C56 1_555 1_555
H54 C77 1_555 1_555
C78 C64 1_555 1_555
H55 C78 1_555 1_555
C79 C62 1_555 1_555
C80 C69 1_555 1_555
C81 C74 1_555 1_555
H56 C81 1_555 1_555
C82 C70 1_555 1_555
H57 C82 1_555 1_555
C83 C80 1_555 1_555
H58 C83 1_555 1_555
N3 C98 1_555 1_555
C84 C79 1_555 1_555
H59 C84 1_555 1_555
C85 C77 1_555 1_555
H60 C85 1_555 1_555
C86 C79 1_555 1_555
N4 C89 1_555 1_555
C87 H61 1_555 1_555
C88 C75 1_555 1_555
H62 C88 1_555 1_555
C89 C83 1_555 1_555
H63 C89 1_555 1_555
C90 H64 1_555 1_555
C91 C90 1_555 1_555
C92 C80 1_555 1_555
H65 C92 1_555 1_555
C93 C91 1_555 1_555
H66 C93 1_555 1_555
C94 C91 1_555 1_555
H67 C94 1_555 1_555
C95 C87 1_555 1_555
H68 C95 1_555 1_555
C96 N4 1_555 1_555
H69 C96 1_555 1_555
C97 C86 1_555 1_555
H70 C97 1_555 1_555
C98 H71 1_555 1_555
C99 H72 1_555 1_555
C100 N3 1_555 1_555
H73 C100 1_555 1_555
C101 C99 1_555 1_555
C102 C86 1_555 1_555
H74 C102 1_555 1_555
C103 C95 1_555 1_555
H75 C103 1_555 1_555
C104 C94 1_555 1_555
H76 C104 1_555 1_555
C105 C98 1_555 1_555
H77 C105 1_555 1_555
C106 C88 1_555 1_555
H78 C106 1_555 1_555
C3 C7 1_555 1_555
C14 C18 1_555 1_555
C15 C21 1_555 1_555
C15 C22 1_555 1_555
C20 C28 1_555 1_555
C30 C33 1_555 1_555
C31 C44 1_555 1_555
C35 C36 1_555 1_555
C38 C40 1_555 1_555
C43 C45 1_555 1_555
C49 C50 1_555 1_555
C51 C52 1_555 1_555
C58 C62 1_555 1_555
C59 C63 1_555 1_555
C68 C72 1_555 1_555
C73 C78 1_555 1_555
C74 C76 1_555 1_555
C81 C82 1_555 1_555
C84 C85 1_555 1_555
C90 C97 1_555 1_555
C92 C96 1_555 1_555
C93 C102 1_555 1_555
C99 C100 1_555 1_555
C101 C104 1_555 1_555
C101 C105 1_555 1_555
C103 C106 1_555 1_555

#END
