
#######################################################################
#
#                 Cambridge Crystallographic Data Centre
#                                CCDC 
#
#######################################################################
#
# If this CIF has been generated from an entry in the Cambridge 
# Structural Database, then it will include bibliographic, chemical, 
# crystal, experimental, refinement or atomic coordinate data resulting 
# from the CCDC's data processing and validation procedures.
#
#######################################################################

data_KUHHUS
_chemical_name_common            
'meso-octakis(pentafluorophenyl)-[50]dodecaphyrin(1.1.0.1.1.0.1.1.0.1.1.0) tetrakis(methanesulfonate) dichloromethane methanol solvate'
_chemical_formula_moiety         
'C104 H34 F40 N12 4+,4(C1 H3 O3 S1 1-),3.4(C1 H4 O1),6(C1 H2 Cl2)'
_chemical_name_systematic        
'6,11,20,25,34,39,48,53-octakis(pentafluorophenyl)-58,59,60,62,64,65,66,68-octaaza-57,61,63,67-tetraazoniatridecacyclo[52.2.1.1^2,5^.1^7,10^.1^12,15^.1^16,19^.1^21,24^.1^26,29^.1^30,33^.1^35,38^.1^40,43^.1^44,47^.1^49,52^]octahexaconta-1(57),2,4,6,8,10(67),11,13,15(66),16,18,20,22,24,26(63),27,29,31,33,35(61),36,38,40(60),41,43,45,47,49,51,53,55-hentriacontaene tetrakis(methanesulfonate) dichloromethane methanol solvate'
_symmetry_cell_setting           monoclinic
_symmetry_space_group_name_H-M   'P 21/c'
_symmetry_Int_Tables_number      14
_space_group_name_Hall           '-P 2ybc'
loop_
_symmetry_equiv_pos_site_id
_symmetry_equiv_pos_as_xyz
1 x,y,z
2 -x,1/2+y,1/2-z
3 -x,-y,-z
4 x,1/2-y,1/2+z
_cell_length_a                   13.634(2)
_cell_length_b                   19.413(3)
_cell_length_c                   25.483(5)
_cell_angle_alpha                90
_cell_angle_beta                 103.004(4)
_cell_angle_gamma                90
_cell_volume                     6571.79
_exptl_crystal_colour            violet
_exptl_crystal_description       Prism
_cell_formula_units_Z            2
loop_
_atom_site_label
_atom_site_type_symbol
_atom_site_fract_x
_atom_site_fract_y
_atom_site_fract_z
C1 C 0.1670(10) 0.2048(6) 0.1846(5)
C2 C 0.0696(11) 0.2291(6) 0.1656(8)
C3 C 0.0003(10) 0.1902(6) 0.1292(9)
C4 C 0.0284(11) 0.1269(6) 0.1117(7)
C5 C 0.1258(11) 0.1026(6) 0.1306(6)
C6 C 0.1951(9) 0.1415(7) 0.1670(6)
F1 F 0.0339(18) 0.2857(10) 0.1813(11)
F2 F -0.0905(11) 0.2130(6) 0.1065(8)
F3 F -0.0368(13) 0.0910(5) 0.0730(8)
F4 F 0.1518(13) 0.0419(7) 0.1109(7)
F5 F 0.274(2) 0.1154(13) 0.1835(11)
F6 F 0.2320(3) 0.01214(16) 0.25010(13)
F7 F 0.0606(4) -0.0359(2) 0.18660(17)
F8 F -0.1052(4) -0.0558(2) 0.2293(3)
F9 F -0.0979(3) -0.0244(2) 0.3319(2)
F10 F 0.0684(2) 0.0282(2) 0.39396(16)
F11 F 0.7359(2) 0.16416(17) 0.63965(13)
F12 F 0.8810(3) 0.1581(2) 0.73123(18)
F13 F 0.8343(3) 0.1749(3) 0.82871(17)
F14 F 0.6405(3) 0.2068(3) 0.83197(14)
F15 F 0.4968(2) 0.2149(2) 0.74089(12)
C7 C 0.5929(14) 0.5189(9) 0.4098(5)
C8 C 0.6530(14) 0.4677(9) 0.3953(4)
C9 C 0.7071(11) 0.4236(7) 0.4343(5)
C10 C 0.7011(9) 0.4308(6) 0.4877(5)
C11 C 0.6411(10) 0.4821(7) 0.5022(4)
C12 C 0.5870(12) 0.5261(7) 0.4632(6)
F16 F 0.6654(17) 0.4497(8) 0.3449(10)
F17 F 0.7679(12) 0.3711(8) 0.4210(5)
F18 F 0.7541(9) 0.3856(6) 0.5250(5)
F19 F 0.6397(10) 0.4877(7) 0.5527(6)
F20 F 0.5294(13) 0.5709(12) 0.4800(9)
N1 N 0.4400(3) 0.4793(2) 0.30799(17)
H1 H 0.4429 0.4470 0.3325
N2 N 0.3251(3) 0.35450(18) 0.25557(16)
N3 N 0.2249(3) 0.15255(19) 0.29027(16)
H2 H 0.1633 0.1409 0.2737
N4 N 0.3519(3) 0.07069(19) 0.44897(15)
H3 H 0.3744 0.1127 0.4461
N5 N 0.4542(3) 0.12067(18) 0.55790(16)
H4 H 0.4402 0.1558 0.5356
N6 N 0.5110(3) 0.31361(19) 0.64426(17)
H5 H 0.5643 0.3201 0.6706
C13 C 0.4809(4) 0.5430(2) 0.3176(2)
C14 C 0.4626(5) 0.5782(3) 0.2676(2)
H6 H 0.4850 0.6232 0.2616
C15 C 0.4068(5) 0.5355(3) 0.2293(2)
H7 H 0.3814 0.5463 0.1924
C16 C 0.3937(4) 0.4724(2) 0.2549(2)
C17 C 0.3411(4) 0.4143(2) 0.2303(2)
C18 C 0.2933(4) 0.4072(3) 0.1744(2)
H8 H 0.2929 0.4408 0.1473
C19 C 0.2490(3) 0.3450(2) 0.1668(2)
H9 H 0.2113 0.3275 0.1335
C20 C 0.2683(3) 0.3092(2) 0.21759(19)
C21 C 0.2394(3) 0.2440(2) 0.2278(2)
C22 C 0.2777(3) 0.2065(2) 0.2755(2)
C23 C 0.3730(3) 0.2073(2) 0.31297(19)
H10 H 0.4256 0.2396 0.3134
C24 C 0.3758(3) 0.1534(2) 0.34848(19)
H11 H 0.4308 0.1413 0.3770
C25 C 0.2811(3) 0.1192(2) 0.33456(19)
C26 C 0.2457(4) 0.0601(2) 0.3575(2)
C27 C 0.2863(3) 0.0356(2) 0.40863(19)
C28 C 0.2742(4) -0.0311(3) 0.4297(2)
H12 H 0.2328 -0.0668 0.4111
C29 C 0.3315(4) -0.0354(2) 0.4809(2)
H13 H 0.3399 -0.0747 0.5037
C30 C 0.3765(4) 0.0308(2) 0.4935(2)
C31 C 0.4303(4) 0.0518(2) 0.54492(19)
C32 C 0.4651(4) 0.0129(2) 0.5907(2)
H14 H 0.4581 -0.0356 0.5937
C33 C 0.5126(4) 0.0573(2) 0.6321(2)
H15 H 0.5451 0.0446 0.6678
C34 C 0.5024(4) 0.1243(2) 0.61040(19)
C35 C 0.5289(4) 0.1893(2) 0.63824(19)
C36 C 0.4781(4) 0.2500(2) 0.6220(2)
C37 C 0.3851(4) 0.2628(3) 0.5820(2)
H16 H 0.3432 0.2291 0.5611
C38 C 0.3694(4) 0.3320(3) 0.5803(2)
H17 H 0.3150 0.3549 0.5570
C39 C 0.4479(4) 0.3648(2) 0.6190(2)
C40 C 0.5413(4) 0.5656(3) 0.3683(2)
C41 C 0.1560(4) 0.0250(3) 0.3241(2)
C42 C 0.1514(5) 0.0054(3) 0.2705(2)
C43 C 0.0614(6) -0.0193(3) 0.2384(3)
C44 C -0.0209(5) -0.0298(3) 0.2596(4)
C45 C -0.0157(5) -0.0145(3) 0.3120(4)
C46 C 0.0699(4) 0.0118(3) 0.3430(3)
C47 C 0.6096(4) 0.1870(2) 0.6873(2)
C48 C 0.7105(4) 0.1732(3) 0.6872(2)
C49 C 0.7853(4) 0.1697(3) 0.7333(3)
C50 C 0.7606(5) 0.1801(4) 0.7827(3)
C51 C 0.6643(5) 0.1949(4) 0.7849(2)
C52 C 0.5915(4) 0.1988(3) 0.7376(2)
C1B C 0.8330(10) 0.7952(6) 0.8154(5)
C2B C 0.9304(11) 0.7709(6) 0.8344(8)
C3B C 0.9997(10) 0.8098(6) 0.8708(9)
C4B C 0.9716(11) 0.8731(6) 0.8883(7)
C5B C 0.8742(11) 0.8974(6) 0.8694(6)
C6B C 0.8049(9) 0.8585(7) 0.8330(6)
F1B F 0.9661(18) 0.7143(10) 0.8187(11)
F2B F 1.0905(11) 0.7870(6) 0.8935(8)
F3B F 1.0368(13) 0.9090(5) 0.9270(8)
F4B F 0.8482(13) 0.9581(7) 0.8891(7)
F5B F 0.726(2) 0.8846(13) 0.8165(11)
F6B F 0.7680(3) 0.98786(16) 0.74990(13)
F7B F 0.9394(4) 1.0359(2) 0.81340(17)
F8B F 1.1052(4) 1.0558(2) 0.7707(3)
F9B F 1.0979(3) 1.0244(2) 0.6681(2)
F10B F 0.9316(2) 0.9718(2) 0.60604(16)
F11B F 0.2641(2) 0.83584(17) 0.36035(13)
F12B F 0.1190(3) 0.8419(2) 0.26877(18)
F13B F 0.1657(3) 0.8251(3) 0.17129(17)
F14B F 0.3595(3) 0.7932(3) 0.16803(14)
F15B F 0.5032(2) 0.7851(2) 0.25911(12)
C7B C 0.4071(14) 0.4811(9) 0.5902(5)
C8B C 0.3470(14) 0.5323(9) 0.6047(4)
C9B C 0.2929(11) 0.5764(7) 0.5657(5)
C10B C 0.2989(9) 0.5692(6) 0.5123(5)
C11B C 0.3589(10) 0.5179(7) 0.4978(4)
C12B C 0.4130(12) 0.4739(7) 0.5368(6)
F16B F 0.3346(17) 0.5503(8) 0.6551(10)
F17B F 0.2321(12) 0.6289(8) 0.5790(5)
F18B F 0.2459(9) 0.6144(6) 0.4750(5)
F19B F 0.3603(10) 0.5123(7) 0.4473(6)
F20B F 0.4706(13) 0.4291(12) 0.5200(9)
N1B N 0.5600(3) 0.5207(2) 0.69201(17)
H1B H 0.5571 0.5530 0.6675
N2B N 0.6749(3) 0.64550(18) 0.74443(16)
N3B N 0.7751(3) 0.84745(19) 0.70973(16)
H2B H 0.8367 0.8591 0.7263
N4B N 0.6481(3) 0.92931(19) 0.55103(15)
H3B H 0.6256 0.8873 0.5539
N5B N 0.5458(3) 0.87933(18) 0.44210(16)
H4B H 0.5598 0.8442 0.4644
N6B N 0.4890(3) 0.68639(19) 0.35574(17)
H5B H 0.4357 0.6799 0.3294
C13B C 0.5191(4) 0.4570(2) 0.6824(2)
C14B C 0.5374(5) 0.4218(3) 0.7324(2)
H6B H 0.5150 0.3768 0.7384
C15B C 0.5932(5) 0.4645(3) 0.7707(2)
H7B H 0.6186 0.4537 0.8076
C16B C 0.6063(4) 0.5276(2) 0.7451(2)
C17B C 0.6589(4) 0.5857(2) 0.7697(2)
C18B C 0.7067(4) 0.5928(3) 0.8256(2)
H8B H 0.7071 0.5592 0.8527
C19B C 0.7510(3) 0.6550(2) 0.8332(2)
H9B H 0.7887 0.6725 0.8665
C20B C 0.7317(3) 0.6908(2) 0.78241(19)
C21B C 0.7606(3) 0.7560(2) 0.7722(2)
C22B C 0.7223(3) 0.7935(2) 0.7245(2)
C23B C 0.6270(3) 0.7927(2) 0.68703(19)
H10B H 0.5744 0.7604 0.6866
C24B C 0.6242(3) 0.8466(2) 0.65152(19)
H11B H 0.5692 0.8587 0.6230
C25B C 0.7189(3) 0.8808(2) 0.66544(19)
C26B C 0.7543(4) 0.9399(2) 0.6425(2)
C27B C 0.7137(3) 0.9644(2) 0.59137(19)
C28B C 0.7258(4) 1.0311(3) 0.5703(2)
H12B H 0.7672 1.0668 0.5889
C29B C 0.6685(4) 1.0354(2) 0.5191(2)
H13B H 0.6601 1.0747 0.4963
C30B C 0.6235(4) 0.9692(2) 0.5065(2)
C31B C 0.5697(4) 0.9482(2) 0.45508(19)
C32B C 0.5349(4) 0.9871(2) 0.4093(2)
H14B H 0.5419 1.0356 0.4063
C33B C 0.4874(4) 0.9427(2) 0.3679(2)
H15B H 0.4549 0.9554 0.3322
C34B C 0.4976(4) 0.8757(2) 0.38960(19)
C35B C 0.4711(4) 0.8107(2) 0.36176(19)
C36B C 0.5219(4) 0.7500(2) 0.3780(2)
C37B C 0.6149(4) 0.7372(3) 0.4180(2)
H16B H 0.6568 0.7709 0.4389
C38B C 0.6306(4) 0.6680(3) 0.4197(2)
H17B H 0.6850 0.6451 0.4430
C39B C 0.5521(4) 0.6352(2) 0.3810(2)
C40B C 0.4587(4) 0.4344(3) 0.6317(2)
C41B C 0.8440(4) 0.9750(3) 0.6759(2)
C42B C 0.8486(5) 0.9946(3) 0.7295(2)
C43B C 0.9386(6) 1.0193(3) 0.7616(3)
C44B C 1.0209(5) 1.0298(3) 0.7404(4)
C45B C 1.0157(5) 1.0145(3) 0.6880(4)
C46B C 0.9301(4) 0.9882(3) 0.6570(3)
C47B C 0.3904(4) 0.8130(2) 0.3127(2)
C48B C 0.2895(4) 0.8268(3) 0.3128(2)
C49B C 0.2147(4) 0.8303(3) 0.2667(3)
C50B C 0.2394(5) 0.8199(4) 0.2173(3)
C51B C 0.3357(5) 0.8051(4) 0.2151(2)
C52B C 0.4085(4) 0.8012(3) 0.2624(2)
S1 S 0.54538(9) 0.22552(6) 0.46074(5)
O1 O 0.5437(3) 0.2860(2) 0.42800(17)
O2 O 0.4477(3) 0.21069(17) 0.47366(14)
O3 O 0.5850(3) 0.16554(19) 0.43866(15)
C65 C 0.6295(5) 0.2447(3) 0.5224(2)
H18 H 0.6340 0.2051 0.5467
H19 H 0.6049 0.2849 0.5389
H20 H 0.6962 0.2547 0.5159
S2 S -0.02696(15) 0.18369(12) 0.29944(10)
O4 O 0.0209(3) 0.1522(3) 0.2619(3)
O5 O -0.1297(4) 0.2031(3) 0.2789(3)
O6 O -0.0114(5) 0.1447(4) 0.3489(3)
C66 C 0.0414(7) 0.2547(8) 0.3185(5)
H21 H 0.0129 0.2801 0.3448
H22 H 0.0402 0.2839 0.2870
H23 H 0.1110 0.2417 0.3349
Cl1 Cl 0.2056(2) 0.56984(15) 0.08670(10)
Cl2 Cl 0.1466(3) 0.7134(2) 0.0591(2)
C67 C 0.2136(8) 0.6569(6) 0.1058(5)
H24 H 0.1897 0.6615 0.1396
H25 H 0.2854 0.6708 0.1138
O7 O 0.4008(3) 0.36425(18) 0.36796(15)
C68 C 0.3162(6) 0.3593(4) 0.3922(3)
H26 H 0.3395 0.3605 0.4315
H27 H 0.2807 0.3158 0.3814
H28 H 0.2705 0.3980 0.3803
Cl3 Cl 0.1540(3) 0.0980(2) 0.52492(15)
Cl4 Cl 0.2072(4) 0.2032(5) 0.4602(3)
C69 C 0.1011(13) 0.1574(11) 0.4729(7)
H29 H 0.0537 0.1892 0.4849
H30 H 0.0649 0.1329 0.4402
O11 O 0.2769(6) 0.6653(4) 0.3114(3)
C72 C 0.2360(8) 0.6028(6) 0.3262(6)
C74 C 0.022(2) 0.3666(11) 0.4542(8)
H35 H -0.0319 0.3779 0.4731
H36 H -0.0079 0.3591 0.4155
Cl9 Cl 0.0958(13) 0.2933(8) 0.4843(7)
Cl10 Cl 0.1197(6) 0.4335(4) 0.4644(5)
C53? C 0.1599(11) 0.2123(10) 0.1845(6)
C54? C 0.0680(13) 0.2443(14) 0.1641(9)
C55? C -0.0014(11) 0.214(2) 0.1220(9)
C56? C 0.0211(11) 0.152(2) 0.1003(10)
C57? C 0.1130(13) 0.1200(17) 0.1207(10)
C58? C 0.1824(11) 0.1502(10) 0.1627(7)
F21? F 0.2823(14) 0.1201(12) 0.1804(9)
F22? F 0.131(2) 0.065(2) 0.0969(15)
F23? F -0.0486(19) 0.125(3) 0.0629(12)
F24? F -0.0921(11) 0.245(3) 0.1057(8)
F25? F 0.051(2) 0.3049(19) 0.1859(12)
C59? C 0.608(2) 0.5109(13) 0.4071(7)
C60? C 0.661(2) 0.4603(14) 0.3871(7)
C61? C 0.7192(18) 0.4132(10) 0.4221(9)
C62? C 0.7230(13) 0.4167(8) 0.4770(8)
C63? C 0.6691(13) 0.4673(10) 0.4969(6)
C64? C 0.6114(16) 0.5144(11) 0.4620(8)
F26? F 0.5598(17) 0.5663(15) 0.4818(9)
F27? F 0.6743(19) 0.4724(13) 0.5499(10)
F28? F 0.7795(16) 0.3722(11) 0.5092(9)
F29? F 0.7736(17) 0.3703(12) 0.4001(11)
F30? F 0.659(2) 0.4682(11) 0.3377(12)
Cl5? Cl -0.0163(3) 0.1339(2) 0.5677(2)
Cl6? Cl 0.1271(16) 0.1533(17) 0.5215(9)
C70? C 0.0497(18) 0.0841(8) 0.5296(7)
H31? H 0.0069 0.0677 0.4952
H32? H 0.0870 0.0453 0.5500
S3? S 0.2129(3) 0.6274(2) 0.2908(2)
O8? O 0.3132(10) 0.6626(9) 0.2993(8)
O9? O 0.227(2) 0.5675(10) 0.3363(10)
O10? O 0.1903(10) 0.5877(7) 0.2378(6)
C71? C 0.1302(8) 0.6748(6) 0.2972(6)
Cl7? Cl 0.0997(7) 0.3419(4) 0.4695(3)
Cl8? Cl 0.0952(8) 0.4809(5) 0.4421(4)
C73? C 0.015(2) 0.4140(14) 0.4483(11)
H33? H -0.0320 0.4043 0.4135
H34? H -0.0240 0.4247 0.4756
loop_
_geom_bond_atom_site_label_1
_geom_bond_atom_site_label_2
_geom_bond_site_symmetry_1
_geom_bond_site_symmetry_2
C1 C2 1_555 1_555
C2 C3 1_555 1_555
C3 C4 1_555 1_555
C4 C5 1_555 1_555
C5 C6 1_555 1_555
C6 C1 1_555 1_555
F1 C2 1_555 1_555
F2 C3 1_555 1_555
F3 C4 1_555 1_555
F4 C5 1_555 1_555
F5 C6 1_555 1_555
F6 C42 1_555 1_555
F7 C43 1_555 1_555
F8 C44 1_555 1_555
F9 C45 1_555 1_555
F10 C46 1_555 1_555
F11 C48 1_555 1_555
F12 C49 1_555 1_555
F13 C50 1_555 1_555
F14 C51 1_555 1_555
F15 C52 1_555 1_555
C7 C8 1_555 1_555
C8 C9 1_555 1_555
C9 C10 1_555 1_555
C10 C11 1_555 1_555
C11 C12 1_555 1_555
C12 C7 1_555 1_555
F16 C8 1_555 1_555
F17 C9 1_555 1_555
F18 C10 1_555 1_555
F19 C11 1_555 1_555
F20 C12 1_555 1_555
N1 H1 1_555 1_555
N2 C17 1_555 1_555
N3 H2 1_555 1_555
N4 H3 1_555 1_555
N5 H4 1_555 1_555
N6 H5 1_555 1_555
C13 N1 1_555 1_555
C14 C13 1_555 1_555
H6 C14 1_555 1_555
C15 C14 1_555 1_555
H7 C15 1_555 1_555
C16 N1 1_555 1_555
C17 C16 1_555 1_555
C18 C17 1_555 1_555
H8 C18 1_555 1_555
C19 C18 1_555 1_555
H9 C19 1_555 1_555
C20 N2 1_555 1_555
C21 C1 1_555 1_555
C22 N3 1_555 1_555
C23 C22 1_555 1_555
H10 C23 1_555 1_555
C24 C23 1_555 1_555
H11 C24 1_555 1_555
C25 N3 1_555 1_555
C26 C25 1_555 1_555
C27 N4 1_555 1_555
C28 C27 1_555 1_555
H12 C28 1_555 1_555
C29 C28 1_555 1_555
H13 C29 1_555 1_555
C30 N4 1_555 1_555
C31 N5 1_555 1_555
C32 C31 1_555 1_555
H14 C32 1_555 1_555
C33 C32 1_555 1_555
H15 C33 1_555 1_555
C34 N5 1_555 1_555
C35 C34 1_555 1_555
C36 N6 1_555 1_555
C37 C36 1_555 1_555
H16 C37 1_555 1_555
C38 C37 1_555 1_555
H17 C38 1_555 1_555
C39 N6 1_555 1_555
C40 C7 1_555 1_555
C41 C26 1_555 1_555
C42 C41 1_555 1_555
C43 C42 1_555 1_555
C44 C43 1_555 1_555
C45 C44 1_555 1_555
C46 C41 1_555 1_555
C47 C35 1_555 1_555
C48 C47 1_555 1_555
C49 C48 1_555 1_555
C50 C49 1_555 1_555
C51 C50 1_555 1_555
C52 C47 1_555 1_555
S1 O1 1_555 1_555
O2 S1 1_555 1_555
O3 S1 1_555 1_555
C65 S1 1_555 1_555
H18 C65 1_555 1_555
H19 C65 1_555 1_555
H20 C65 1_555 1_555
S2 O4 1_555 1_555
O5 S2 1_555 1_555
O6 S2 1_555 1_555
C66 S2 1_555 1_555
H21 C66 1_555 1_555
H22 C66 1_555 1_555
H23 C66 1_555 1_555
Cl1 C67 1_555 1_555
Cl2 C67 1_555 1_555
C67 H24 1_555 1_555
H25 C67 1_555 1_555
O7 C68 1_555 1_555
C68 H26 1_555 1_555
H27 C68 1_555 1_555
H28 C68 1_555 1_555
Cl3 C69 1_555 1_555
Cl4 C69 1_555 1_555
C69 H29 1_555 1_555
H30 C69 1_555 1_555
O11 C72 1_555 1_555
C74 H35 1_555 1_555
H36 C74 1_555 1_555
Cl9 C74 1_555 1_555
Cl10 C74 1_555 1_555
C1B C2B 1_555 1_555
C2B C3B 1_555 1_555
C3B C4B 1_555 1_555
C4B C5B 1_555 1_555
C5B C6B 1_555 1_555
C6B C1B 1_555 1_555
F1B C2B 1_555 1_555
F2B C3B 1_555 1_555
F3B C4B 1_555 1_555
F4B C5B 1_555 1_555
F5B C6B 1_555 1_555
F6B C42B 1_555 1_555
F7B C43B 1_555 1_555
F8B C44B 1_555 1_555
F9B C45B 1_555 1_555
F10B C46B 1_555 1_555
F11B C48B 1_555 1_555
F12B C49B 1_555 1_555
F13B C50B 1_555 1_555
F14B C51B 1_555 1_555
F15B C52B 1_555 1_555
C7B C8B 1_555 1_555
C8B C9B 1_555 1_555
C9B C10B 1_555 1_555
C10B C11B 1_555 1_555
C11B C12B 1_555 1_555
C12B C7B 1_555 1_555
F16B C8B 1_555 1_555
F17B C9B 1_555 1_555
F18B C10B 1_555 1_555
F19B C11B 1_555 1_555
F20B C12B 1_555 1_555
N1B H1B 1_555 1_555
N2B C17B 1_555 1_555
N3B H2B 1_555 1_555
N4B H3B 1_555 1_555
N5B H4B 1_555 1_555
N6B H5B 1_555 1_555
C13B N1B 1_555 1_555
C14B C13B 1_555 1_555
H6B C14B 1_555 1_555
C15B C14B 1_555 1_555
H7B C15B 1_555 1_555
C16B N1B 1_555 1_555
C17B C16B 1_555 1_555
C18B C17B 1_555 1_555
H8B C18B 1_555 1_555
C19B C18B 1_555 1_555
H9B C19B 1_555 1_555
C20B N2B 1_555 1_555
C21B C1B 1_555 1_555
C22B N3B 1_555 1_555
C23B C22B 1_555 1_555
H10B C23B 1_555 1_555
C24B C23B 1_555 1_555
H11B C24B 1_555 1_555
C25B N3B 1_555 1_555
C26B C25B 1_555 1_555
C27B N4B 1_555 1_555
C28B C27B 1_555 1_555
H12B C28B 1_555 1_555
C29B C28B 1_555 1_555
H13B C29B 1_555 1_555
C30B N4B 1_555 1_555
C31B N5B 1_555 1_555
C32B C31B 1_555 1_555
H14B C32B 1_555 1_555
C33B C32B 1_555 1_555
H15B C33B 1_555 1_555
C34B N5B 1_555 1_555
C35B C34B 1_555 1_555
C36B N6B 1_555 1_555
C37B C36B 1_555 1_555
H16B C37B 1_555 1_555
C38B C37B 1_555 1_555
H17B C38B 1_555 1_555
C39B C40 1_555 1_555
C40B C39 1_555 1_555
C41B C26B 1_555 1_555
C42B C41B 1_555 1_555
C43B C42B 1_555 1_555
C44B C43B 1_555 1_555
C45B C44B 1_555 1_555
C46B C41B 1_555 1_555
C47B C35B 1_555 1_555
C48B C47B 1_555 1_555
C49B C48B 1_555 1_555
C50B C49B 1_555 1_555
C51B C50B 1_555 1_555
C52B C47B 1_555 1_555
C13 C40 1_555 1_555
C15 C16 1_555 1_555
C19 C20 1_555 1_555
C20 C21 1_555 1_555
C21 C22 1_555 1_555
C24 C25 1_555 1_555
C26 C27 1_555 1_555
C29 C30 1_555 1_555
C30 C31 1_555 1_555
C33 C34 1_555 1_555
C35 C36 1_555 1_555
C38 C39 1_555 1_555
C45 C46 1_555 1_555
C51 C52 1_555 1_555
C7B C40B 1_555 1_555
N6B C39B 1_555 1_555
C13B C40B 1_555 1_555
C15B C16B 1_555 1_555
C19B C20B 1_555 1_555
C20B C21B 1_555 1_555
C21B C22B 1_555 1_555
C24B C25B 1_555 1_555
C26B C27B 1_555 1_555
C29B C30B 1_555 1_555
C30B C31B 1_555 1_555
C33B C34B 1_555 1_555
C35B C36B 1_555 1_555
C38B C39B 1_555 1_555
C45B C46B 1_555 1_555
C51B C52B 1_555 1_555

#END
