
#######################################################################
#
#                 Cambridge Crystallographic Data Centre
#                                CCDC 
#
#######################################################################
#
# If this CIF has been generated from an entry in the Cambridge 
# Structural Database, then it will include bibliographic, chemical, 
# crystal, experimental, refinement or atomic coordinate data resulting 
# from the CCDC's data processing and validation procedures.
#
#######################################################################

data_KUHTEO
_chemical_formula_moiety         'C14 H18 O3'
_chemical_name_systematic        
3-acetyl-1-hydroxy-4a,5-dimethyl-5,6,7,8-tetrahydronaphthalen-2(4aH)-one
_symmetry_cell_setting           orthorhombic
_symmetry_space_group_name_H-M   'P 21 21 21'
_symmetry_Int_Tables_number      19
_space_group_name_Hall           'P 2ac 2ab'
loop_
_symmetry_equiv_pos_site_id
_symmetry_equiv_pos_as_xyz
1 x,y,z
2 1/2-x,-y,1/2+z
3 1/2+x,1/2-y,-z
4 -x,1/2+y,1/2-z
_cell_length_a                   7.4994(4)
_cell_length_b                   11.9542(6)
_cell_length_c                   13.6882(7)
_cell_angle_alpha                90
_cell_angle_beta                 90
_cell_angle_gamma                90
_cell_volume                     1227.14
_exptl_crystal_colour            'light colorless'
_exptl_crystal_description       block
_cell_formula_units_Z            4
loop_
_atom_site_label
_atom_site_type_symbol
_atom_site_fract_x
_atom_site_fract_y
_atom_site_fract_z
O1 O -0.2009(2) 0.42045(17) 0.55702(15)
O2 O 0.3479(3) 0.40828(19) 0.5756(2)
O3 O 0.5480(3) 0.56986(18) 0.64863(17)
H1 H 0.567(6) 0.512(4) 0.615(3)
C1 C 0.4004(4) 0.7712(2) 0.72306(19)
H2 H 0.5257 0.7512 0.7230
H3 H 0.3649 0.7870 0.7898
C2 C 0.3700(4) 0.8743(2) 0.6589(2)
H4 H 0.4357 0.9373 0.6853
H5 H 0.4135 0.8598 0.5934
C3 C 0.1725(4) 0.9022(2) 0.65527(19)
H6 H 0.1552 0.9657 0.6122
H7 H 0.1336 0.9242 0.7201
C4 C 0.0555(3) 0.8053(2) 0.61980(16)
H8 H 0.0879 0.7910 0.5516
C5 C 0.0920(3) 0.69376(19) 0.67823(16)
C6 C -0.0022(3) 0.6003(2) 0.62771(16)
H9 H -0.1251 0.6070 0.6210
C7 C 0.0729(3) 0.50798(19) 0.59121(15)
C8 C 0.2665(3) 0.4923(2) 0.60194(19)
C9 C 0.3676(3) 0.5844(2) 0.64648(17)
C10 C 0.2911(3) 0.6765(2) 0.68277(15)
C11 C -0.0436(3) 0.42495(19) 0.53853(16)
C12 C 0.0330(4) 0.3520(3) 0.4605(2)
H10 H -0.0618 0.3206 0.4222
H11 H 0.1007 0.2928 0.4900
H12 H 0.1095 0.3957 0.4192
C13 C 0.0147(4) 0.7001(2) 0.78357(17)
H13 H 0.0590 0.7660 0.8155
H14 H 0.0506 0.6350 0.8197
H15 H -0.1131 0.7032 0.7805
C14 C -0.1396(4) 0.8414(3) 0.6203(2)
H16 H -0.1767 0.8559 0.6863
H17 H -0.2119 0.7829 0.5931
H18 H -0.1531 0.9081 0.5820
loop_
_geom_bond_atom_site_label_1
_geom_bond_atom_site_label_2
_geom_bond_site_symmetry_1
_geom_bond_site_symmetry_2
O1 C11 1_555 1_555
O2 C8 1_555 1_555
O3 H1 1_555 1_555
C1 H2 1_555 1_555
H3 C1 1_555 1_555
C2 C1 1_555 1_555
H4 C2 1_555 1_555
H5 C2 1_555 1_555
C3 C2 1_555 1_555
H6 C3 1_555 1_555
H7 C3 1_555 1_555
C4 C3 1_555 1_555
H8 C4 1_555 1_555
C5 C4 1_555 1_555
C6 C5 1_555 1_555
H9 C6 1_555 1_555
C7 C6 1_555 1_555
C8 C7 1_555 1_555
C9 O3 1_555 1_555
C10 C1 1_555 1_555
C11 C7 1_555 1_555
C12 C11 1_555 1_555
H10 C12 1_555 1_555
H11 C12 1_555 1_555
H12 C12 1_555 1_555
C13 C5 1_555 1_555
H13 C13 1_555 1_555
H14 C13 1_555 1_555
H15 C13 1_555 1_555
C14 C4 1_555 1_555
H16 C14 1_555 1_555
H17 C14 1_555 1_555
H18 C14 1_555 1_555
C5 C10 1_555 1_555
C8 C9 1_555 1_555
C9 C10 1_555 1_555

#END
