
#######################################################################
#
#                 Cambridge Crystallographic Data Centre
#                                CCDC 
#
#######################################################################
#
# If this CIF has been generated from an entry in the Cambridge 
# Structural Database, then it will include bibliographic, chemical, 
# crystal, experimental, refinement or atomic coordinate data resulting 
# from the CCDC's data processing and validation procedures.
#
#######################################################################

data_KUHVEQ
_chemical_formula_moiety         'C7 H11 N2 1+,C7 H6 O3,C7 H5 O3 1-'
_chemical_name_systematic        
'4-(dimethylamino)pyridinium salicylate 4-hydroxybenzoic acid'
_symmetry_cell_setting           monoclinic
_symmetry_space_group_name_H-M   'P 21/n'
_symmetry_Int_Tables_number      14
_space_group_name_Hall           '-P 2yn'
loop_
_symmetry_equiv_pos_site_id
_symmetry_equiv_pos_as_xyz
1 x,y,z
2 1/2-x,1/2+y,1/2-z
3 -x,-y,-z
4 1/2+x,1/2-y,1/2+z
_cell_length_a                   7.3082(2)
_cell_length_b                   14.2900(4)
_cell_length_c                   18.4687(5)
_cell_angle_alpha                90
_cell_angle_beta                 96.2040(10)
_cell_angle_gamma                90
_cell_volume                     1917.47
_exptl_crystal_colour            colorless
_exptl_crystal_description       block
_chemical_melting_point          '419-423 K'
_cell_formula_units_Z            4
loop_
_atom_site_label
_atom_site_type_symbol
_atom_site_fract_x
_atom_site_fract_y
_atom_site_fract_z
O1 O 0.34925(12) 0.43664(6) 0.61433(5)
O2 O 0.03751(13) 0.84370(6) 0.64845(5)
O3 O 0.41454(15) 0.45385(6) 0.73414(5)
C1 C 0.34309(16) 0.48321(8) 0.67552(6)
C2 C 0.25115(16) 0.57539(8) 0.66800(6)
C3 C 0.25192(17) 0.63194(8) 0.72964(6)
H1 H 0.3015 0.6090 0.7746
C4 C 0.18042(16) 0.72126(8) 0.72498(6)
H2 H 0.1809 0.7581 0.7665
C5 C 0.10724(16) 0.75598(8) 0.65735(7)
C6 C 0.10374(17) 0.69981(8) 0.59562(6)
H3 H 0.0531 0.7227 0.5507
C7 C 0.17513(16) 0.61041(8) 0.60081(6)
H4 H 0.1726 0.5733 0.5594
H5 H 0.051(2) 0.8749(13) 0.6899(10)
H6 H 0.433(3) 0.3806(14) 0.6228(10)
O4 O 0.60210(12) 0.12002(6) 0.62960(5)
O5 O 0.80397(14) 0.38853(6) 0.60678(5)
O6 O 0.56566(12) 0.29662(6) 0.62514(5)
C8 C 1.13275(18) 0.15611(10) 0.57656(7)
H7 H 1.2527 0.1631 0.5650
C9 C 1.02856(17) 0.23378(9) 0.58879(6)
H8 H 1.0797 0.2931 0.5861
C10 C 0.84714(16) 0.22466(8) 0.60514(6)
C11 C 0.77465(16) 0.13430(8) 0.61156(6)
C12 C 0.73331(17) 0.31046(8) 0.61309(6)
C13 C 1.05764(18) 0.06735(9) 0.58162(7)
H9 H 1.1274 0.0150 0.5727
C14 C 0.88058(18) 0.05605(9) 0.59969(7)
H10 H 0.8323 -0.0037 0.6039
H11 H 0.553(3) 0.1858(14) 0.6348(10)
N1 N 0.71173(14) 0.56891(7) 0.62290(6)
N2 N 0.54767(14) 0.84407(7) 0.63406(6)
C15 C 0.73257(17) 0.61467(9) 0.68693(7)
H12 H 0.7830 0.5832 0.7285
C16 C 0.68192(17) 0.70556(8) 0.69245(7)
H13 H 0.6986 0.7355 0.7374
C17 C 0.60364(16) 0.75517(8) 0.63004(6)
C18 C 0.46428(19) 0.89281(9) 0.56945(7)
H14 H 0.5428 0.8874 0.5312
H15 H 0.4485 0.9577 0.5807
H16 H 0.3466 0.8655 0.5538
C19 C 0.55894(19) 0.89227(9) 0.70423(7)
H17 H 0.4918 0.8575 0.7371
H18 H 0.5069 0.9538 0.6975
H19 H 0.6855 0.8972 0.7241
C20 C 0.64163(17) 0.61381(9) 0.56202(7)
H20 H 0.6299 0.5818 0.5179
C21 C 0.58760(17) 0.70475(8) 0.56337(7)
H21 H 0.5399 0.7341 0.5205
H22 H 0.746(2) 0.5058(12) 0.6197(9)
loop_
_geom_bond_atom_site_label_1
_geom_bond_atom_site_label_2
_geom_bond_site_symmetry_1
_geom_bond_site_symmetry_2
O1 C1 1_555 1_555
O2 C5 1_555 1_555
O3 C1 1_555 1_555
C1 C2 1_555 1_555
C2 C3 1_555 1_555
C3 H1 1_555 1_555
C4 C3 1_555 1_555
H2 C4 1_555 1_555
C5 C4 1_555 1_555
C6 C5 1_555 1_555
H3 C6 1_555 1_555
C7 C2 1_555 1_555
H4 C7 1_555 1_555
H5 O2 1_555 1_555
H6 O1 1_555 1_555
O4 C11 1_555 1_555
O5 C12 1_555 1_555
O6 C12 1_555 1_555
C8 H7 1_555 1_555
C9 C8 1_555 1_555
H8 C9 1_555 1_555
C10 C9 1_555 1_555
C11 C10 1_555 1_555
C12 C10 1_555 1_555
C13 C8 1_555 1_555
H9 C13 1_555 1_555
C14 C11 1_555 1_555
H10 C14 1_555 1_555
H11 O4 1_555 1_555
N1 C15 1_555 1_555
N2 C17 1_555 1_555
C15 H12 1_555 1_555
C16 C15 1_555 1_555
H13 C16 1_555 1_555
C17 C16 1_555 1_555
C18 N2 1_555 1_555
H14 C18 1_555 1_555
H15 C18 1_555 1_555
H16 C18 1_555 1_555
C19 N2 1_555 1_555
H17 C19 1_555 1_555
H18 C19 1_555 1_555
H19 C19 1_555 1_555
C20 N1 1_555 1_555
H20 C20 1_555 1_555
C21 C17 1_555 1_555
H21 C21 1_555 1_555
H22 N1 1_555 1_555
C6 C7 1_555 1_555
C13 C14 1_555 1_555
C20 C21 1_555 1_555

#END
