
#######################################################################
#
#                 Cambridge Crystallographic Data Centre
#                                CCDC 
#
#######################################################################
#
# If this CIF has been generated from an entry in the Cambridge 
# Structural Database, then it will include bibliographic, chemical, 
# crystal, experimental, refinement or atomic coordinate data resulting 
# from the CCDC's data processing and validation procedures.
#
#######################################################################

data_KUJSUF
_chemical_formula_moiety         'C44 H39 N5'
_chemical_name_systematic        
2,2'-((phenylimino)bis(4,1-phenyleneethene-2,1-diyl(5,5-dimethylcyclohex-1-en-1-yl-3-ylidene)))dimalononitrile
_symmetry_cell_setting           monoclinic
_symmetry_space_group_name_H-M   'P 21/n'
_symmetry_Int_Tables_number      14
_space_group_name_Hall           '-P 2yn'
loop_
_symmetry_equiv_pos_site_id
_symmetry_equiv_pos_as_xyz
1 x,y,z
2 1/2-x,1/2+y,1/2-z
3 -x,-y,-z
4 1/2+x,1/2-y,1/2+z
_cell_length_a                   18.600(10)
_cell_length_b                   9.144(6)
_cell_length_c                   23.690(10)
_cell_angle_alpha                90
_cell_angle_beta                 105.818(9)
_cell_angle_gamma                90
_cell_volume                     3876.58
_cell_formula_units_Z            4
loop_
_atom_site_label
_atom_site_type_symbol
_atom_site_fract_x
_atom_site_fract_y
_atom_site_fract_z
C1 C 1.03510(19) -0.5028(4) 0.36030(16)
C2 C 0.9262(3) -0.4281(4) 0.39290(16)
C3 C 0.3422(2) 0.4024(5) 0.46988(18)
C4 C 0.2320(3) 0.2806(4) 0.48372(17)
C5 C 0.3099(2) 0.3132(4) 0.50624(17)
C6 C 1.0060(2) -0.4265(3) 0.40305(14)
C7 C 1.05065(19) -0.3513(3) 0.44880(15)
C8 C 1.1367(5) -0.3762(9) 0.4695(4)
H1 H 1.1488 -0.4517 0.4994
H2 H 1.1552 -0.4065 0.4368
C9 C 1.1705(9) -0.237(3) 0.4933(9)
C10 C 1.1486(4) -0.2016(10) 0.5534(4)
H3 H 1.1664 -0.2781 0.5822
H4 H 1.1698 -0.1089 0.5699
C11 C 1.2625(4) -0.2732(10) 0.5216(4)
H5 H 1.2842 -0.2981 0.4905
H6 H 1.2684 -0.3537 0.5485
H7 H 1.2871 -0.1885 0.5420
C12 C 1.1652(5) -0.1126(9) 0.4559(4)
H8 H 1.1900 -0.1333 0.4261
H9 H 1.1885 -0.0300 0.4786
H10 H 1.1135 -0.0911 0.4377
C13 C 1.06269(19) -0.1950(4) 0.53475(15)
C14 C 1.02162(16) -0.2795(3) 0.49167(13)
H11 H 0.9713 -0.2923 0.4895
C15 C 1.02827(16) -0.1335(3) 0.57765(13)
H12 H 0.9790 -0.1604 0.5741
C16 C 1.05974(17) -0.0425(3) 0.62156(14)
H13 H 1.1092 -0.0159 0.6260
C17 C 1.02261(18) 0.0184(3) 0.66305(13)
C18 C 1.05571(15) 0.1320(3) 0.69966(13)
H14 H 1.1031 0.1631 0.6992
C19 C 1.02030(16) 0.2012(3) 0.73718(12)
H15 H 1.0434 0.2791 0.7603
C20 C 0.95068(17) 0.1538(3) 0.73993(12)
C21 C 0.91798(15) 0.0368(3) 0.70480(12)
H16 H 0.8715 0.0027 0.7066
C22 C 0.95338(17) -0.0297(3) 0.66721(12)
H17 H 0.9304 -0.1082 0.6443
C23 C 0.95234(16) 0.2585(3) 0.83599(13)
C24 C 1.01080(16) 0.1736(3) 0.86678(14)
H18 H 1.0253 0.0919 0.8492
C25 C 1.04816(19) 0.2097(4) 0.92415(16)
H19 H 1.0876 0.1519 0.9450
C26 C 1.0275(2) 0.3290(5) 0.95007(17)
H20 H 1.0534 0.3543 0.9882
C27 C 0.9686(2) 0.4111(4) 0.91990(17)
H21 H 0.9534 0.4912 0.9379
C28 C 0.93144(17) 0.3767(3) 0.86277(13)
H22 H 0.8918 0.4346 0.8423
C29 C 0.83461(16) 0.2310(3) 0.76003(13)
C30 C 0.79290(17) 0.1861(3) 0.79629(12)
H23 H 0.8168 0.1524 0.8337
C31 C 0.71554(17) 0.1902(3) 0.77802(12)
H24 H 0.6883 0.1594 0.8034
C32 C 0.67787(16) 0.2397(3) 0.72212(13)
C33 C 0.79764(17) 0.2833(3) 0.70486(12)
H25 H 0.8252 0.3165 0.6800
C34 C 0.72158(17) 0.2871(3) 0.68632(11)
H26 H 0.6983 0.3222 0.6489
C35 C 0.59655(17) 0.2332(3) 0.70436(12)
H27 H 0.5743 0.1941 0.7317
C36 C 0.54999(17) 0.2767(3) 0.65350(13)
H28 H 0.5706 0.3258 0.6272
C37 C 0.47018(18) 0.2532(3) 0.63636(14)
C38 C 0.43380(16) 0.1786(4) 0.67789(13)
H29 H 0.4557 0.2163 0.7171
H30 H 0.4451 0.0749 0.6785
C39 C 0.34931(19) 0.1974(5) 0.66298(17)
C40 C 0.33233(18) 0.3553(4) 0.67891(15)
H31 H 0.3537 0.3710 0.7202
H32 H 0.2792 0.3694 0.6693
H33 H 0.3536 0.4234 0.6571
C41 C 0.31600(18) 0.0880(4) 0.69851(17)
H34 H 0.3275 -0.0099 0.6892
H35 H 0.2628 0.1004 0.6887
H36 H 0.3370 0.1055 0.7397
C42 C 0.31439(18) 0.1744(4) 0.59778(15)
H37 H 0.3184 0.0719 0.5885
H38 H 0.2617 0.1988 0.5885
C43 C 0.42885(18) 0.2950(3) 0.58222(13)
H39 H 0.4525 0.3455 0.5583
C44 C 0.3506(2) 0.2652(3) 0.56016(15)
N1 N 1.05669(17) -0.5625(3) 0.32618(13)
N2 N 0.86362(19) -0.4263(5) 0.38450(17)
N3 N 0.3671(2) 0.4799(4) 0.44220(14)
N4 N 0.17011(19) 0.2564(4) 0.46558(16)
N5 N 0.91315(13) 0.2219(2) 0.77741(10)
C45? C 1.1261(6) -0.3004(13) 0.4391(5)
H40? H 1.1168 -0.2226 0.4102
H41? H 1.1488 -0.3814 0.4238
C46? C 1.1883(14) -0.238(3) 0.5043(12)
C47? C 1.1340(5) -0.1213(11) 0.5208(5)
H42? H 1.1172 -0.0531 0.4886
H43? H 1.1616 -0.0663 0.5549
C48? C 1.2069(6) -0.3563(10) 0.5412(4)
H44? H 1.2310 -0.3231 0.5802
H45? H 1.2403 -0.4189 0.5278
H46? H 1.1625 -0.4095 0.5413
C49? C 1.2434(6) -0.1603(12) 0.4783(5)
H47? H 1.2822 -0.1172 0.5091
H48? H 1.2182 -0.0852 0.4520
H49? H 1.2651 -0.2294 0.4571
loop_
_geom_bond_atom_site_label_1
_geom_bond_atom_site_label_2
_geom_bond_site_symmetry_1
_geom_bond_site_symmetry_2
C1 C6 1_555 1_555
C2 C6 1_555 1_555
C3 C5 1_555 1_555
C4 C5 1_555 1_555
C5 C44 1_555 1_555
C6 C7 1_555 1_555
C7 C8 1_555 1_555
C8 H1 1_555 1_555
H2 C8 1_555 1_555
C9 C8 1_555 1_555
C10 C9 1_555 1_555
H3 C10 1_555 1_555
H4 C10 1_555 1_555
C11 C9 1_555 1_555
H5 C11 1_555 1_555
H6 C11 1_555 1_555
H7 C11 1_555 1_555
C12 C9 1_555 1_555
H8 C12 1_555 1_555
H9 C12 1_555 1_555
H10 C12 1_555 1_555
C13 C10 1_555 1_555
C14 C7 1_555 1_555
H11 C14 1_555 1_555
C15 C13 1_555 1_555
H12 C15 1_555 1_555
C16 C15 1_555 1_555
H13 C16 1_555 1_555
C17 C16 1_555 1_555
C18 C17 1_555 1_555
H14 C18 1_555 1_555
C19 C18 1_555 1_555
H15 C19 1_555 1_555
C20 C19 1_555 1_555
C21 C20 1_555 1_555
H16 C21 1_555 1_555
C22 C17 1_555 1_555
H17 C22 1_555 1_555
C23 C24 1_555 1_555
C24 H18 1_555 1_555
C25 C24 1_555 1_555
H19 C25 1_555 1_555
C26 C25 1_555 1_555
H20 C26 1_555 1_555
C27 C26 1_555 1_555
H21 C27 1_555 1_555
C28 C23 1_555 1_555
H22 C28 1_555 1_555
C29 C30 1_555 1_555
C30 H23 1_555 1_555
C31 C30 1_555 1_555
H24 C31 1_555 1_555
C32 C31 1_555 1_555
C33 C29 1_555 1_555
H25 C33 1_555 1_555
C34 C32 1_555 1_555
H26 C34 1_555 1_555
C35 C32 1_555 1_555
H27 C35 1_555 1_555
C36 C35 1_555 1_555
H28 C36 1_555 1_555
C37 C36 1_555 1_555
C38 C37 1_555 1_555
H29 C38 1_555 1_555
H30 C38 1_555 1_555
C39 C38 1_555 1_555
C40 C39 1_555 1_555
H31 C40 1_555 1_555
H32 C40 1_555 1_555
H33 C40 1_555 1_555
C41 C39 1_555 1_555
H34 C41 1_555 1_555
H35 C41 1_555 1_555
H36 C41 1_555 1_555
C42 C39 1_555 1_555
H37 C42 1_555 1_555
H38 C42 1_555 1_555
C43 C37 1_555 1_555
H39 C43 1_555 1_555
C44 C42 1_555 1_555
N1 C1 1_555 1_555
N2 C2 1_555 1_555
N3 C3 1_555 1_555
N4 C4 1_555 1_555
N5 C20 1_555 1_555
C13 C14 1_555 1_555
C21 C22 1_555 1_555
C23 N5 1_555 1_555
C27 C28 1_555 1_555
C29 N5 1_555 1_555
C33 C34 1_555 1_555
C43 C44 1_555 1_555

#END
