
#######################################################################
#
#                 Cambridge Crystallographic Data Centre
#                                CCDC 
#
#######################################################################
#
# If this CIF has been generated from an entry in the Cambridge 
# Structural Database, then it will include bibliographic, chemical, 
# crystal, experimental, refinement or atomic coordinate data resulting 
# from the CCDC's data processing and validation procedures.
#
#######################################################################

data_KUJZAS
_chemical_compound_source        
'the marine microorganism Streptomyces griseus (RSH0407), derived from the plant Salicornia sp., Chenopodiaceae'
_chemical_name_common            '(+-)-(2S*,3S*,6R*,8R*)-Homononactic acid'
_chemical_formula_moiety         'C11 H20 O4'
_chemical_name_systematic        
'2-(5-(2-Hydroxybutyl)tetrahydrofuran-2-yl)propanoic acid'
_symmetry_cell_setting           monoclinic
_symmetry_space_group_name_H-M   'C 2/c'
_symmetry_Int_Tables_number      15
_space_group_name_Hall           '-C 2yn'
loop_
_symmetry_equiv_pos_site_id
_symmetry_equiv_pos_as_xyz
1 x,y,z
2 -x,y,1/2-z
3 1/2+x,1/2+y,z
4 1/2-x,1/2+y,1/2-z
5 -x,-y,-z
6 x,-y,1/2+z
7 1/2-x,1/2-y,-z
8 1/2+x,1/2-y,1/2+z
_cell_length_a                   17.620(5)
_cell_length_b                   7.0168(18)
_cell_length_c                   19.496(5)
_cell_angle_alpha                90
_cell_angle_beta                 98.284(5)
_cell_angle_gamma                90
_cell_volume                     2385.26
_exptl_crystal_colour            yellow
_exptl_crystal_description       block
_cell_formula_units_Z            8
_exptl_crystal_recrystallization_method chloroform
loop_
_atom_site_label
_atom_site_type_symbol
_atom_site_fract_x
_atom_site_fract_y
_atom_site_fract_z
C1 C 0.14370(8) 0.08617(19) 0.70678(7)
C2 C 0.16089(8) 0.15996(19) 0.78046(7)
H1 H 0.2085 0.2392 0.7838
C3 C 0.17897(8) -0.01337(19) 0.82794(6)
H2 H 0.2247 -0.0807 0.8146
C4 C 0.11485(8) -0.1576(2) 0.83028(7)
H3 H 0.1145 -0.2550 0.7935
H4 H 0.0641 -0.0946 0.8256
C5 C 0.13646(8) -0.24447(19) 0.90224(7)
H5 H 0.1763 -0.3438 0.9021
H6 H 0.0912 -0.3007 0.9193
C6 C 0.16712(8) -0.07347(18) 0.94630(6)
H7 H 0.2096 -0.1159 0.9827
C7 C 0.10680(7) 0.03058(18) 0.98038(7)
H8 H 0.0876 -0.0562 1.0141
H9 H 0.0630 0.0625 0.9444
C8 C 0.13574(7) 0.21241(18) 1.01765(6)
H10 H 0.1532 0.3024 0.9833
C9 C 0.07388(8) 0.3089(2) 1.05221(7)
H11 H 0.0302 0.3412 1.0162
H12 H 0.0551 0.2175 1.0846
C10 C 0.10054(10) 0.4887(2) 1.09181(9)
H13 H 0.1401 0.4562 1.1307
H14 H 0.0570 0.5484 1.1095
H15 H 0.1218 0.5777 1.0608
C11 C 0.09721(9) 0.2860(2) 0.79991(8)
H16 H 0.0878 0.3911 0.7667
H17 H 0.1125 0.3376 0.8466
H18 H 0.0503 0.2106 0.7990
O1 O 0.20749(6) 0.03424(16) 0.68302(5)
H19 H 0.1962 -0.0213 0.6447
O2 O 0.08085(6) 0.07331(16) 0.67358(5)
O3 O 0.19742(5) 0.05457(13) 0.89844(4)
O4 O 0.20064(5) 0.16040(13) 1.06788(4)
H20 H 0.2289 0.2560 1.0772
loop_
_geom_bond_atom_site_label_1
_geom_bond_atom_site_label_2
_geom_bond_site_symmetry_1
_geom_bond_site_symmetry_2
C1 C2 1_555 1_555
C2 H1 1_555 1_555
C3 C2 1_555 1_555
H2 C3 1_555 1_555
C4 C3 1_555 1_555
H3 C4 1_555 1_555
H4 C4 1_555 1_555
C5 C4 1_555 1_555
H5 C5 1_555 1_555
H6 C5 1_555 1_555
C6 C5 1_555 1_555
H7 C6 1_555 1_555
C7 C6 1_555 1_555
H8 C7 1_555 1_555
H9 C7 1_555 1_555
C8 C7 1_555 1_555
H10 C8 1_555 1_555
C9 C8 1_555 1_555
H11 C9 1_555 1_555
H12 C9 1_555 1_555
C10 C9 1_555 1_555
H13 C10 1_555 1_555
H14 C10 1_555 1_555
H15 C10 1_555 1_555
C11 C2 1_555 1_555
H16 C11 1_555 1_555
H17 C11 1_555 1_555
H18 C11 1_555 1_555
O1 C1 1_555 1_555
H19 O1 1_555 1_555
O2 C1 1_555 1_555
O3 C3 1_555 1_555
O4 C8 1_555 1_555
H20 O4 1_555 1_555
C6 O3 1_555 1_555

#END
