
#######################################################################
#
#                 Cambridge Crystallographic Data Centre
#                                CCDC 
#
#######################################################################
#
# If this CIF has been generated from an entry in the Cambridge 
# Structural Database, then it will include bibliographic, chemical, 
# crystal, experimental, refinement or atomic coordinate data resulting 
# from the CCDC's data processing and validation procedures.
#
#######################################################################

data_KUKNAH
_chemical_formula_moiety         'C20 H17 N1 O2 S1'
_chemical_name_systematic        
(R,R)-6-Ethyl-2,7-diphenyl-6,7-dihydro-5H-pyrano[2,3-d][1,3]thiazol-5-one
_symmetry_cell_setting           monoclinic
_symmetry_space_group_name_H-M   'P 21'
_symmetry_Int_Tables_number      4
_space_group_name_Hall           'P 2yb'
loop_
_symmetry_equiv_pos_site_id
_symmetry_equiv_pos_as_xyz
1 x,y,z
2 -x,1/2+y,-z
_cell_length_a                   5.7758(5)
_cell_length_b                   20.0870(19)
_cell_length_c                   7.3139(6)
_cell_angle_alpha                90
_cell_angle_beta                 92.951(8)
_cell_angle_gamma                90
_cell_volume                     847.422
_exptl_crystal_colour            'light colorless'
_exptl_crystal_description       block
_cell_formula_units_Z            2
_exptl_crystal_recrystallization_method 'petroleum ether/ ethyl acetate'
loop_
_atom_site_label
_atom_site_type_symbol
_atom_site_fract_x
_atom_site_fract_y
_atom_site_fract_z
S1 S -0.0088(2) 0.23899(7) 0.57729(16)
N1 N 0.3427(7) 0.1653(2) 0.5227(6)
O1 O 0.5006(6) 0.2149(2) 0.2680(5)
C1 C 0.2320(7) 0.3802(2) 0.3590(5)
C2 C 0.1561(8) 0.2586(2) 0.3945(7)
C3 C 0.1358(8) 0.3174(3) 0.2714(6)
H1 H -0.0292 0.3247 0.2399
C4 C 0.1741(8) 0.1733(3) 0.6342(6)
C5 C 0.2547(8) 0.2966(3) 0.0929(6)
H2 H 0.1498 0.2642 0.0322
C6 C 0.1489(9) 0.1327(3) 0.7997(7)
C7 C 0.3276(8) 0.2131(3) 0.3925(7)
O2 O 0.6493(7) 0.2666(2) 0.0401(6)
C8 C 0.4841(9) 0.2601(3) 0.1282(7)
C9 C 0.3172(10) 0.0868(3) 0.8557(8)
H3 H 0.4448 0.0801 0.7853
C10 C 0.2814(10) 0.3519(3) -0.0450(8)
H4 H 0.3588 0.3339 -0.1488
H5 H 0.3816 0.3858 0.0106
C11 C 0.1112(11) 0.0616(4) 1.1208(8)
H6 H 0.0987 0.0378 1.2289
C12 C 0.5350(10) 0.4379(3) 0.5352(8)
H7 H 0.6805 0.4373 0.5958
C13 C 0.4130(12) 0.4961(3) 0.5258(8)
H8 H 0.4716 0.5344 0.5826
C14 C 0.1110(9) 0.4389(3) 0.3529(7)
H9 H -0.0362 0.4399 0.2950
C15 C -0.0417(10) 0.1403(3) 0.9071(7)
H10 H -0.1614 0.1687 0.8679
C16 C 0.2966(11) 0.0511(3) 1.0151(8)
H11 H 0.4088 0.0199 1.0508
C17 C -0.0563(11) 0.1071(3) 1.0678(8)
H12 H -0.1795 0.1151 1.1417
C18 C 0.2021(12) 0.4968(3) 0.4305(7)
H13 H 0.1195 0.5364 0.4180
C19 C 0.0580(12) 0.3848(4) -0.1153(7)
H14 H 0.0897 0.4145 -0.2137
H15 H -0.0074 0.4094 -0.0179
H16 H -0.0498 0.3513 -0.1588
C20 C 0.4484(8) 0.3802(3) 0.4575(7)
H17 H 0.5330 0.3410 0.4699
loop_
_geom_bond_atom_site_label_1
_geom_bond_atom_site_label_2
_geom_bond_site_symmetry_1
_geom_bond_site_symmetry_2
S1 C2 1_555 1_555
N1 C4 1_555 1_555
O1 C7 1_555 1_555
C1 C3 1_555 1_555
C2 C3 1_555 1_555
C3 H1 1_555 1_555
C4 S1 1_555 1_555
C5 C3 1_555 1_555
H2 C5 1_555 1_555
C6 C4 1_555 1_555
C7 N1 1_555 1_555
O2 C8 1_555 1_555
C8 O1 1_555 1_555
C9 C6 1_555 1_555
H3 C9 1_555 1_555
C10 C5 1_555 1_555
H4 C10 1_555 1_555
H5 C10 1_555 1_555
C11 H6 1_555 1_555
C12 H7 1_555 1_555
C13 C12 1_555 1_555
H8 C13 1_555 1_555
C14 C1 1_555 1_555
H9 C14 1_555 1_555
C15 C6 1_555 1_555
H10 C15 1_555 1_555
C16 C9 1_555 1_555
H11 C16 1_555 1_555
C17 C11 1_555 1_555
H12 C17 1_555 1_555
C18 C13 1_555 1_555
H13 C18 1_555 1_555
C19 C10 1_555 1_555
H14 C19 1_555 1_555
H15 C19 1_555 1_555
H16 C19 1_555 1_555
C20 C1 1_555 1_555
H17 C20 1_555 1_555
C2 C7 1_555 1_555
C5 C8 1_555 1_555
C11 C16 1_555 1_555
C12 C20 1_555 1_555
C14 C18 1_555 1_555
C15 C17 1_555 1_555

#END
