
#######################################################################
#
#                 Cambridge Crystallographic Data Centre
#                                CCDC 
#
#######################################################################
#
# If this CIF has been generated from an entry in the Cambridge 
# Structural Database, then it will include bibliographic, chemical, 
# crystal, experimental, refinement or atomic coordinate data resulting 
# from the CCDC's data processing and validation procedures.
#
#######################################################################

data_KUKXIZ
_chemical_compound_source        'endophytic fungus Dothideomycete sp. CRI7'
_chemical_name_common            'Dothideomynone C'
_chemical_formula_moiety         'C18 H18 O7,0.5(H2 O1)'
_chemical_name_systematic        
'7,8-Dihydroxy-5-((4-hydroxy-6-methyl-2-oxo-2H-pyran-3-yl)methyl)-3,7-dimethyl-7,8-dihydro-6H-isochromen-6-one hemihydrate'
_chemical_properties_biological  
'Tested for cytotoxic activity, radical scavenging activity and inhibition of aromatase'
_symmetry_cell_setting           monoclinic
_symmetry_space_group_name_H-M   'P 21'
_symmetry_Int_Tables_number      4
_space_group_name_Hall           'P 2yb'
loop_
_symmetry_equiv_pos_site_id
_symmetry_equiv_pos_as_xyz
1 x,y,z
2 -x,1/2+y,-z
_cell_length_a                   12.5434(11)
_cell_length_b                   6.7150(5)
_cell_length_c                   20.4162(16)
_cell_angle_alpha                90
_cell_angle_beta                 104.417(3)
_cell_angle_gamma                90
_cell_volume                     1665.48
_exptl_crystal_colour            colorless
_exptl_crystal_description       Rod
_cell_formula_units_Z            4
loop_
_atom_site_label
_atom_site_type_symbol
_atom_site_fract_x
_atom_site_fract_y
_atom_site_fract_z
C1 C -0.0035(5) -0.2109(8) 0.3266(3)
H1 H 0.0012 -0.3124 0.3581
C2 C -0.0851(4) -0.0827(8) 0.2188(3)
C3 C -0.0197(4) 0.0770(7) 0.2316(3)
H2 H -0.0264 0.1743 0.1985
C4 C 0.0606(4) 0.1040(8) 0.2948(2)
C5 C 0.1290(4) 0.2647(8) 0.3097(2)
C6 C 0.2051(5) 0.2764(8) 0.3751(3)
C7 C 0.1819(5) 0.1470(9) 0.4316(3)
C8 C 0.1605(4) -0.0639(8) 0.4038(3)
H3 H 0.2266 -0.1116 0.3914
C9 C 0.0671(5) -0.0631(8) 0.3417(3)
C10 C 0.1284(4) 0.4341(7) 0.2612(2)
H4 H 0.0524 0.4696 0.2409
H5 H 0.1629 0.5482 0.2871
C11 C -0.1625(4) -0.1351(8) 0.1536(2)
H6 H -0.1676 -0.0260 0.1225
H7 H -0.2338 -0.1620 0.1608
H8 H -0.1361 -0.2512 0.1351
C12 C 0.0862(5) 0.2342(8) 0.4552(2)
H9 H 0.0731 0.1549 0.4916
H10 H 0.0215 0.2347 0.4184
H11 H 0.1036 0.3681 0.4707
C13 C 0.1173(6) 0.3955(8) 0.1373(3)
C14 C 0.1844(5) 0.3990(7) 0.2052(2)
C15 C 0.2943(5) 0.3867(7) 0.2154(3)
C16 C 0.3449(5) 0.3638(7) 0.1606(3)
H12 H 0.4209 0.3523 0.1686
C17 C 0.2819(6) 0.3590(8) 0.0978(3)
C18 C 0.3202(5) 0.3424(9) 0.0338(2)
H13 H 0.3075 0.4664 0.0097
H14 H 0.2801 0.2382 0.0061
H15 H 0.3974 0.3121 0.0448
O1 O -0.0837(3) -0.2251(5) 0.26696(18)
O2 O 0.2852(3) 0.3904(6) 0.38757(16)
O3 O 0.2762(3) 0.1435(7) 0.48766(17)
H16 H 0.3222 0.0666 0.4797
O4 O 0.1347(3) -0.1996(6) 0.45135(19)
H17 H 0.1883 -0.2702 0.4671
O5 O 0.1706(4) 0.3738(5) 0.08549(17)
O6 O 0.0174(4) 0.4104(6) 0.11977(18)
O7 O 0.3672(3) 0.3963(6) 0.27603(16)
H18 H 0.3347 0.4217 0.3053
C19 C 0.2777(4) 0.9575(8) 0.7399(3)
H19 H 0.2419 1.0586 0.7117
C20 C 0.3331(5) 0.8183(9) 0.8481(3)
C21 C 0.3823(4) 0.6693(7) 0.8240(2)
H20 H 0.4193 0.5730 0.8539
C22 C 0.3806(4) 0.6511(7) 0.7535(2)
C23 C 0.4242(4) 0.4948(7) 0.7266(2)
C24 C 0.4164(5) 0.4924(8) 0.6548(3)
C25 C 0.3225(5) 0.6183(8) 0.6103(2)
C26 C 0.3321(4) 0.8288(8) 0.6405(2)
H21 H 0.4034 0.8851 0.6386
C27 C 0.3276(4) 0.8174(8) 0.7134(2)
C28 C 0.4806(4) 0.3194(7) 0.7678(2)
H22 H 0.4348 0.2768 0.7971
H23 H 0.4825 0.2108 0.7368
C29 C 0.3307(5) 0.8553(9) 0.9195(2)
H24 H 0.2557 0.8595 0.9228
H25 H 0.3657 0.9803 0.9342
H26 H 0.3690 0.7502 0.9476
C30 C 0.2131(4) 0.5198(7) 0.6105(2)
H27 H 0.2015 0.5258 0.6552
H28 H 0.2144 0.3832 0.5969
H29 H 0.1544 0.5884 0.5795
C31 C 0.6107(5) 0.3384(8) 0.8825(3)
C32 C 0.5950(4) 0.3489(7) 0.8108(2)
C33 C 0.6832(5) 0.3721(7) 0.7854(3)
C34 C 0.7914(4) 0.3868(7) 0.8280(3)
H30 H 0.8514 0.4019 0.8093
C35 C 0.8062(5) 0.3787(8) 0.8945(3)
C36 C 0.9125(4) 0.3872(9) 0.9477(3)
H31 H 0.9065 0.4823 0.9817
H32 H 0.9707 0.4265 0.9275
H33 H 0.9287 0.2582 0.9681
O8 O 0.2759(3) 0.9624(5) 0.80633(19)
O9 O 0.4760(3) 0.3903(6) 0.62881(16)
O10 O 0.3280(3) 0.6207(7) 0.54174(17)
H34 H 0.3892 0.6584 0.5395
O11 O 0.2476(3) 0.9571(6) 0.60527(17)
H35 H 0.2594 0.9880 0.5688
O12 O 0.7180(4) 0.3562(5) 0.92227(16)
O13 O 0.5399(3) 0.3148(6) 0.91313(18)
O14 O 0.6796(3) 0.3753(6) 0.71850(16)
H36 H 0.6154 0.3685 0.6965
O16 O 0.5016(8) 0.784(3) 0.5061(7)
O15? O 0.5028(11) 0.876(5) 0.5210(9)
loop_
_geom_bond_atom_site_label_1
_geom_bond_atom_site_label_2
_geom_bond_site_symmetry_1
_geom_bond_site_symmetry_2
C1 H1 1_555 1_555
C2 C3 1_555 1_555
C3 H2 1_555 1_555
C4 C3 1_555 1_555
C5 C4 1_555 1_555
C6 C5 1_555 1_555
C7 C6 1_555 1_555
C8 C7 1_555 1_555
H3 C8 1_555 1_555
C9 C1 1_555 1_555
C10 C5 1_555 1_555
H4 C10 1_555 1_555
H5 C10 1_555 1_555
C11 C2 1_555 1_555
H6 C11 1_555 1_555
H7 C11 1_555 1_555
H8 C11 1_555 1_555
C12 C7 1_555 1_555
H9 C12 1_555 1_555
H10 C12 1_555 1_555
H11 C12 1_555 1_555
C13 C14 1_555 1_555
C14 C10 1_555 1_555
C15 C14 1_555 1_555
C16 C15 1_555 1_555
H12 C16 1_555 1_555
C17 C16 1_555 1_555
C18 C17 1_555 1_555
H13 C18 1_555 1_555
H14 C18 1_555 1_555
H15 C18 1_555 1_555
O1 C1 1_555 1_555
O2 C6 1_555 1_555
O3 C7 1_555 1_555
H16 O3 1_555 1_555
O4 C8 1_555 1_555
H17 O4 1_555 1_555
O5 C13 1_555 1_555
O6 C13 1_555 1_555
O7 C15 1_555 1_555
H18 O7 1_555 1_555
C19 H19 1_555 1_555
C20 C21 1_555 1_555
C21 H20 1_555 1_555
C22 C21 1_555 1_555
C23 C22 1_555 1_555
C24 C23 1_555 1_555
C25 C24 1_555 1_555
C26 C25 1_555 1_555
H21 C26 1_555 1_555
C27 C19 1_555 1_555
C28 C23 1_555 1_555
H22 C28 1_555 1_555
H23 C28 1_555 1_555
C29 C20 1_555 1_555
H24 C29 1_555 1_555
H25 C29 1_555 1_555
H26 C29 1_555 1_555
C30 C25 1_555 1_555
H27 C30 1_555 1_555
H28 C30 1_555 1_555
H29 C30 1_555 1_555
C31 C32 1_555 1_555
C32 C28 1_555 1_555
C33 C32 1_555 1_555
C34 C33 1_555 1_555
H30 C34 1_555 1_555
C35 C34 1_555 1_555
C36 C35 1_555 1_555
H31 C36 1_555 1_555
H32 C36 1_555 1_555
H33 C36 1_555 1_555
O8 C19 1_555 1_555
O9 C24 1_555 1_555
O10 C25 1_555 1_555
H34 O10 1_555 1_555
O11 C26 1_555 1_555
H35 O11 1_555 1_555
O12 C31 1_555 1_555
O13 C31 1_555 1_555
O14 C33 1_555 1_555
H36 O14 1_555 1_555
C2 O1 1_555 1_555
C4 C9 1_555 1_555
C8 C9 1_555 1_555
C17 O5 1_555 1_555
C20 O8 1_555 1_555
C22 C27 1_555 1_555
C26 C27 1_555 1_555
C35 O12 1_555 1_555

#END
