
#######################################################################
#
#                 Cambridge Crystallographic Data Centre
#                                CCDC 
#
#######################################################################
#
# If this CIF has been generated from an entry in the Cambridge 
# Structural Database, then it will include bibliographic, chemical, 
# crystal, experimental, refinement or atomic coordinate data resulting 
# from the CCDC's data processing and validation procedures.
#
#######################################################################

data_KULZAU
_chemical_formula_moiety         'C23 H18 Br1 N1 O3'
_chemical_name_systematic        
4-(4-bromobenzyl)-3-hydroxy-1,3-diphenylpyrrolidine-2,5-dione
_symmetry_cell_setting           orthorhombic
_symmetry_space_group_name_H-M   'P 21 21 21'
_symmetry_Int_Tables_number      19
_space_group_name_Hall           'P 2ac 2ab'
loop_
_symmetry_equiv_pos_site_id
_symmetry_equiv_pos_as_xyz
1 x,y,z
2 1/2-x,-y,1/2+z
3 1/2+x,1/2-y,-z
4 -x,1/2+y,1/2-z
_cell_length_a                   10.2604(9)
_cell_length_b                   12.5516(12)
_cell_length_c                   14.6950(13)
_cell_angle_alpha                90
_cell_angle_beta                 90
_cell_angle_gamma                90
_cell_volume                     1892.49
_exptl_crystal_colour            colorless
_exptl_crystal_description       irregular
_cell_formula_units_Z            4
_exptl_crystal_recrystallization_method n-pentane/ethylacetate
loop_
_atom_site_label
_atom_site_type_symbol
_atom_site_fract_x
_atom_site_fract_y
_atom_site_fract_z
Br1 Br 0.53132(2) 0.40226(2) 0.28053(2)
C1 C 0.4865(2) 0.35455(15) 0.86652(15)
C2 C 0.1226(2) 0.3952(2) 0.65364(17)
O1 O 0.35107(13) 0.59643(13) 0.69174(10)
N1 N 0.35682(16) 0.41458(14) 0.67117(12)
C3 C 0.5321(2) 0.36983(14) 0.76842(15)
O2 O 0.41077(16) 0.23643(11) 0.68005(11)
C4 C 0.5407(3) 0.35083(18) 1.02613(17)
C5 C 0.2590(2) 0.3967(2) 0.52040(16)
C6 C 0.66560(19) 0.4006(2) 0.54546(15)
C7 C 0.5369(2) 0.49109(15) 0.74599(15)
C8 C 0.5401(3) 0.54411(17) 0.43220(16)
C9 C 0.24356(19) 0.40300(18) 0.61376(15)
C10 C 0.5778(2) 0.44534(18) 0.40040(15)
C11 C 0.4096(3) 0.34186(18) 1.04900(17)
C12 C 0.6463(2) 0.52686(18) 0.67952(16)
C13 C 0.4061(2) 0.51159(16) 0.70281(15)
O3 O 0.65396(13) 0.32011(12) 0.75282(11)
C14 C 0.0142(3) 0.38222(19) 0.59872(18)
C15 C 0.1494(3) 0.38369(19) 0.46617(18)
C16 C 0.4299(2) 0.32787(17) 0.70160(15)
C17 C 0.3554(2) 0.34477(18) 0.89010(18)
C18 C 0.0274(3) 0.37689(16) 0.50514(18)
C19 C 0.6437(2) 0.37390(18) 0.45544(17)
C20 C 0.6255(2) 0.49834(17) 0.58108(16)
C21 C 0.3180(2) 0.33901(17) 0.98038(18)
C22 C 0.5786(2) 0.35753(18) 0.93582(17)
C23 C 0.5645(2) 0.57013(17) 0.52207(17)
H1 H 0.1175(19) 0.3977(18) 0.7211(16)
H2 H 0.494(2) 0.5894(18) 0.3954(15)
H3 H -0.050(2) 0.3716(18) 0.4699(16)
H4 H 0.343(2) 0.3959(19) 0.4963(15)
H5 H 0.652(2) 0.597(2) 0.6843(15)
H6 H 0.723(2) 0.4972(18) 0.7012(16)
H7 H 0.294(3) 0.3419(19) 0.8451(18)
H8 H 0.704(2) 0.3507(19) 0.5836(18)
H9 H 0.603(3) 0.353(2) 1.0731(19)
H10 H 0.532(3) 0.636(2) 0.5416(16)
H11 H 0.228(3) 0.3318(18) 0.9956(18)
H12 H -0.065(3) 0.379(2) 0.6278(18)
H13 H 0.162(3) 0.382(2) 0.406(2)
H14 H 0.663(3) 0.3610(18) 0.9172(18)
H15 H 0.552(2) 0.5337(16) 0.8002(14)
H16 H 0.674(2) 0.3074(18) 0.4286(16)
H17 H 0.380(3) 0.345(2) 1.1141(19)
H18 H 0.650(2) 0.253(2) 0.771(2)
loop_
_geom_bond_atom_site_label_1
_geom_bond_atom_site_label_2
_geom_bond_site_symmetry_1
_geom_bond_site_symmetry_2
Br1 C10 1_555 1_555
C1 C3 1_555 1_555
C2 C9 1_555 1_555
O1 C13 1_555 1_555
N1 C9 1_555 1_555
C3 C7 1_555 1_555
O2 C16 1_555 1_555
C4 C11 1_555 1_555
C5 C9 1_555 1_555
C6 C19 1_555 1_555
C7 C12 1_555 1_555
C8 C10 1_555 1_555
C10 C19 1_555 1_555
C11 C21 1_555 1_555
C12 C20 1_555 1_555
C13 N1 1_555 1_555
O3 C3 1_555 1_555
C14 C2 1_555 1_555
C15 C5 1_555 1_555
C16 N1 1_555 1_555
C17 C1 1_555 1_555
C18 C14 1_555 1_555
C19 H16 1_555 1_555
C20 C6 1_555 1_555
C21 C17 1_555 1_555
C22 C1 1_555 1_555
C23 C8 1_555 1_555
H1 C2 1_555 1_555
H2 C8 1_555 1_555
H3 C18 1_555 1_555
H4 C5 1_555 1_555
H5 C12 1_555 1_555
H6 C12 1_555 1_555
H7 C17 1_555 1_555
H8 C6 1_555 1_555
H9 C4 1_555 1_555
H10 C23 1_555 1_555
H11 C21 1_555 1_555
H12 C14 1_555 1_555
H13 C15 1_555 1_555
H14 C22 1_555 1_555
H15 C7 1_555 1_555
H17 C11 1_555 1_555
H18 O3 1_555 1_555
C3 C16 1_555 1_555
C4 C22 1_555 1_555
C7 C13 1_555 1_555
C15 C18 1_555 1_555
C20 C23 1_555 1_555

#END
