
#######################################################################
#
#                 Cambridge Crystallographic Data Centre
#                                CCDC 
#
#######################################################################
#
# If this CIF has been generated from an entry in the Cambridge 
# Structural Database, then it will include bibliographic, chemical, 
# crystal, experimental, refinement or atomic coordinate data resulting 
# from the CCDC's data processing and validation procedures.
#
#######################################################################

data_KUMKUZ
_chemical_formula_moiety         'C16 H14 O6'
_chemical_name_systematic        'Diphenyl L-tartrate'
_symmetry_cell_setting           monoclinic
_symmetry_space_group_name_H-M   'P 21'
_symmetry_Int_Tables_number      4
_space_group_name_Hall           'P 2yb'
loop_
_symmetry_equiv_pos_site_id
_symmetry_equiv_pos_as_xyz
1 x,y,z
2 -x,1/2+y,-z
_cell_length_a                   5.4881(3)
_cell_length_b                   8.1373(4)
_cell_length_c                   15.7785(7)
_cell_angle_alpha                90
_cell_angle_beta                 91.134(4)
_cell_angle_gamma                90
_cell_volume                     704.503
_exptl_crystal_colour            colorless
_exptl_crystal_description       plate
_chemical_melting_point          '159-162 deg.C'
_cell_formula_units_Z            2
_exptl_crystal_recrystallization_method dichloromethane/methanol
loop_
_atom_site_label
_atom_site_type_symbol
_atom_site_fract_x
_atom_site_fract_y
_atom_site_fract_z
C1 C 0.3536(7) 0.4395(6) 0.0787(3)
C2 C 0.3173(7) 0.3931(6) -0.0141(3)
H1 H 0.4460 0.3206 -0.0305
O1 O 0.3256(5) 0.5374(4) -0.0637(2)
H2 H 0.4630 0.5688 -0.0817
C3 C 0.0684(8) 0.3051(6) -0.0257(3)
H3 H 0.0927 0.1885 -0.0223
O2 O -0.0975(5) 0.3537(4) 0.0367(2)
H4 H -0.1889 0.2806 0.0578
C4 C -0.0319(8) 0.3488(6) -0.1133(3)
O3 O 0.3493(7) 0.5760(5) 0.1064(2)
O4 O 0.3970(6) 0.3023(4) 0.12635(19)
C5 C 0.4274(8) 0.3242(6) 0.2148(3)
C6 C 0.6274(10) 0.4104(7) 0.2475(3)
H5 H 0.7463 0.4578 0.2110
C7 C 0.6542(10) 0.4225(9) 0.3351(3)
H6 H 0.7891 0.4829 0.3590
C8 C 0.4888(11) 0.3504(8) 0.3877(4)
H7 H 0.5090 0.3609 0.4480
C9 C 0.2917(11) 0.2644(9) 0.3540(3)
H8 H 0.1760 0.2148 0.3910
C10 C 0.2626(10) 0.2507(7) 0.2662(3)
H9 H 0.1277 0.1899 0.2425
O5 O -0.2005(6) 0.4376(5) -0.1300(2)
O6 O 0.1072(6) 0.2754(4) -0.17240(18)
C11 C 0.0630(8) 0.3113(7) -0.2583(3)
C12 C -0.1362(10) 0.2407(8) -0.2998(3)
H10 H -0.2506 0.1764 -0.2686
C13 C -0.1644(11) 0.2683(9) -0.3863(3)
H11 H -0.2997 0.2189 -0.4163
C14 C -0.0021(12) 0.3622(9) -0.4293(4)
H12 H -0.0237 0.3812 -0.4890
C15 C 0.1948(11) 0.4312(10) -0.3859(4)
H13 H 0.3099 0.4964 -0.4162
C16 C 0.2255(10) 0.4070(8) -0.3003(3)
H14 H 0.3609 0.4564 -0.2704
loop_
_geom_bond_atom_site_label_1
_geom_bond_atom_site_label_2
_geom_bond_site_symmetry_1
_geom_bond_site_symmetry_2
C1 C2 1_555 1_555
C2 H1 1_555 1_555
O1 C2 1_555 1_555
H2 O1 1_555 1_555
C3 C2 1_555 1_555
H3 C3 1_555 1_555
O2 C3 1_555 1_555
H4 O2 1_555 1_555
C4 C3 1_555 1_555
O3 C1 1_555 1_555
O4 C1 1_555 1_555
C5 O4 1_555 1_555
C6 C5 1_555 1_555
H5 C6 1_555 1_555
C7 C6 1_555 1_555
H6 C7 1_555 1_555
C8 C7 1_555 1_555
H7 C8 1_555 1_555
C9 C8 1_555 1_555
H8 C9 1_555 1_555
C10 C5 1_555 1_555
H9 C10 1_555 1_555
O5 C4 1_555 1_555
O6 C4 1_555 1_555
C11 O6 1_555 1_555
C12 C11 1_555 1_555
H10 C12 1_555 1_555
C13 C12 1_555 1_555
H11 C13 1_555 1_555
C14 C13 1_555 1_555
H12 C14 1_555 1_555
C15 C14 1_555 1_555
H13 C15 1_555 1_555
C16 C11 1_555 1_555
H14 C16 1_555 1_555
C9 C10 1_555 1_555
C15 C16 1_555 1_555

#END
