
#######################################################################
#
#                 Cambridge Crystallographic Data Centre
#                                CCDC 
#
#######################################################################
#
# If this CIF has been generated from an entry in the Cambridge 
# Structural Database, then it will include bibliographic, chemical, 
# crystal, experimental, refinement or atomic coordinate data resulting 
# from the CCDC's data processing and validation procedures.
#
#######################################################################

data_KUNNUE
_chemical_formula_moiety         'C51 H55 N5 O10,C10 H13 N3 O2'
_chemical_name_systematic        
'6-(2,4-dioxo-3,4-dihydropyrimidin-1(2H)-yl)hexanenitrile 9-(2-((9,14,19,24,26,28,30,32,34-nonamethoxyhexacyclo[21.2.2.2^3,6^.2^8,11^.2^13,16^.2^18,21^]pentatriaconta-1(25),3,5,8,10,13,15,18,20,23,26,28,30,32,34-pentadecaen-4-yl)oxy)ethyl)-9H-purin-6-amine unknown solvate'
_symmetry_cell_setting           monoclinic
_symmetry_space_group_name_H-M   'C 2/c'
_symmetry_Int_Tables_number      15
_space_group_name_Hall           '-C 2yn'
loop_
_symmetry_equiv_pos_site_id
_symmetry_equiv_pos_as_xyz
1 x,y,z
2 -x,y,1/2-z
3 1/2+x,1/2+y,z
4 1/2-x,1/2+y,1/2-z
5 -x,-y,-z
6 x,-y,1/2+z
7 1/2-x,1/2-y,-z
8 1/2+x,1/2-y,1/2+z
_cell_length_a                   48.4142(10)
_cell_length_b                   11.8956(2)
_cell_length_c                   22.5531(4)
_cell_angle_alpha                90
_cell_angle_beta                 94.643(2)
_cell_angle_gamma                90
_cell_volume                     12946.1
_exptl_crystal_colour            colorless
_exptl_crystal_description       BLOCK
_cell_formula_units_Z            8
loop_
_atom_site_label
_atom_site_type_symbol
_atom_site_fract_x
_atom_site_fract_y
_atom_site_fract_z
N4 N 0.2158(2) 0.8632(13) 0.4318(6)
O3 O 0.01900(12) 0.4395(5) 0.3175(3)
O4 O 0.05070(9) 0.7876(4) 0.2748(2)
C11 C 0.19973(16) 0.8410(10) 0.3988(5)
C12 C 0.17687(13) 0.8073(8) 0.3519(3)
H14 H 0.1709 0.8743 0.3299
H15 H 0.1848 0.7568 0.3241
C13 C 0.15179(11) 0.7520(5) 0.3728(3)
H16 H 0.1583 0.6932 0.4003
H17 H 0.1427 0.8074 0.3960
C14 C 0.13007(12) 0.7011(6) 0.3312(3)
H18 H 0.1159 0.6701 0.3545
H19 H 0.1383 0.6387 0.3113
C15 C 0.11572(11) 0.7768(5) 0.2834(2)
H20 H 0.1296 0.8227 0.2663
H21 H 0.1032 0.8270 0.3020
C16 C 0.09925(10) 0.7121(6) 0.2330(2)
H22 H 0.0906 0.7658 0.2050
H23 H 0.1120 0.6673 0.2120
N5 N 0.07835(6) 0.6401(3) 0.25321(14)
C17 C 0.08031(7) 0.5237(3) 0.25242(17)
H24 H 0.0958 0.4893 0.2384
C18 C 0.05882(9) 0.4578(2) 0.27286(19)
H25 H 0.0601 0.3801 0.2695
C19 C 0.03765(8) 0.4983(3) 0.29572(18)
N6 N 0.03279(7) 0.6078(4) 0.29551(17)
H26 H 0.0175 0.6339 0.3070
C20 C 0.05484(7) 0.6864(3) 0.27446(16)
C21 C 0.15815(5) 0.7829(2) 0.14715(9)
C22 C 0.16746(5) 0.6740(2) 0.15821(10)
H27 H 0.1574 0.6141 0.1410
C23 C 0.19139(5) 0.6521(2) 0.19412(10)
C24 C 0.20654(5) 0.7437(2) 0.21824(11)
C25 C 0.19749(5) 0.8522(2) 0.20660(10)
H28 H 0.2081 0.9121 0.2222
C26 C 0.17281(5) 0.87435(19) 0.17187(9)
C27 C 0.16227(6) 0.9938(2) 0.16318(10)
H29 H 0.1775 1.0422 0.1543
H30 H 0.1485 0.9960 0.1295
C28 C 0.16578(5) 1.08557(19) 0.26512(10)
C29 C 0.14952(5) 1.03807(18) 0.21785(9)
C30 C 0.12106(6) 1.0288(2) 0.22245(11)
H31 H 0.1099 0.9990 0.1908
C31 C 0.10893(5) 1.0635(2) 0.27369(11)
C32 C 0.12549(5) 1.10828(18) 0.32117(9)
C33 C 0.15366(5) 1.12022(18) 0.31604(10)
H32 H 0.1647 1.1520 0.3473
C34 C 0.11289(5) 1.1398(2) 0.37837(10)
H33 H 0.0934 1.1574 0.3696
H34 H 0.1221 1.2064 0.3952
C35 C 0.13965(6) 1.03247(19) 0.46219(10)
C36 C 0.11575(5) 1.0448(2) 0.42367(10)
C37 C 0.09422(6) 0.9688(2) 0.42767(11)
H35 H 0.0783 0.9761 0.4021
C38 C 0.09602(6) 0.8816(2) 0.46929(11)
C39 C 0.11972(6) 0.8712(2) 0.50864(10)
C40 C 0.14132(6) 0.9460(2) 0.50406(10)
H36 H 0.1573 0.9385 0.5295
C41 C 0.12214(8) 0.7776(2) 0.55449(11)
H37 H 0.1336 0.8026 0.5892
H38 H 0.1039 0.7599 0.5669
C42 C 0.16305(6) 0.6531(2) 0.53612(10)
C43 C 0.13470(6) 0.6732(2) 0.52935(10)
C44 C 0.11778(6) 0.5986(2) 0.49542(10)
H39 H 0.0987 0.6104 0.4912
C45 C 0.12893(5) 0.5072(2) 0.46788(10)
C46 C 0.15743(5) 0.48699(19) 0.47408(10)
C47 C 0.17423(6) 0.5608(2) 0.50925(11)
H40 H 0.1932 0.5477 0.5147
C48 C 0.17027(6) 0.3899(2) 0.44246(11)
H41 H 0.1866 0.3638 0.4663
H42 H 0.1571 0.3282 0.4385
C49 C 0.20489(5) 0.4663(2) 0.37353(12)
C50 C 0.17839(5) 0.42270(18) 0.38137(11)
C51 C 0.15967(5) 0.41550(18) 0.33117(11)
H43 H 0.1420 0.3866 0.3349
C52 C 0.16678(5) 0.45052(17) 0.27558(10)
C53 C 0.19300(5) 0.49280(19) 0.26802(11)
C54 C 0.21190(5) 0.5000(2) 0.31827(13)
H44 H 0.2296 0.5281 0.3142
C55 C 0.20080(6) 0.5325(2) 0.20782(12)
H45 H 0.1925 0.4828 0.1773
H46 H 0.2208 0.5283 0.2068
C56 C 0.12121(7) 0.7164(3) 0.07902(13)
H47 H 0.1137 0.6619 0.1054
H48 H 0.1347 0.6789 0.0563
C57 C 0.09839(8) 0.7654(4) 0.03794(15)
H49 H 0.1061 0.8236 0.0140
H50 H 0.0909 0.7070 0.0112
C58 C 0.06928(7) 0.9233(3) 0.07244(15)
H51 H 0.0795 0.9805 0.0564
C59 C 0.03903(7) 0.8354(4) 0.11643(16)
C60 C 0.01659(7) 0.7966(6) 0.14811(18)
C61 C 0.03271(11) 0.6209(6) 0.1337(2)
H52 H 0.0300 0.5446 0.1400
C62 C 0.05656(6) 0.7546(4) 0.09721(15)
C63 C 0.24731(7) 0.8089(3) 0.27472(17)
H53 H 0.2505 0.8585 0.2425
H54 H 0.2647 0.7802 0.2920
H55 H 0.2382 0.8492 0.3044
C64 C 0.06269(12) 1.0401(6) 0.2261(3)
H56 H 0.0691 1.0848 0.1944
H57 H 0.0442 1.0627 0.2334
H58 H 0.0627 0.9622 0.2149
C65 C 0.21013(6) 1.1386(3) 0.30806(16)
H59 H 0.2047 1.2141 0.3168
H60 H 0.2292 1.1380 0.2995
H61 H 0.2078 1.0913 0.3418
C66 C 0.05131(8) 0.8118(4) 0.4355(2)
H62 H 0.0419 0.8814 0.4412
H63 H 0.0392 0.7501 0.4423
H64 H 0.0567 0.8083 0.3954
C67 C 0.18423(6) 1.1023(2) 0.49716(13)
H65 H 0.1792 1.1106 0.5372
H66 H 0.1970 1.1605 0.4885
H67 H 0.1928 1.0302 0.4928
C68 C 0.08397(7) 0.4537(3) 0.42527(16)
H68 H 0.0763 0.4533 0.4632
H69 H 0.0751 0.3968 0.4003
H70 H 0.0810 0.5260 0.4069
C69 C 0.20759(9) 0.7147(3) 0.57559(16)
H71 H 0.2119 0.6408 0.5908
H72 H 0.2160 0.7699 0.6024
H73 H 0.2147 0.7229 0.5373
C70 C 0.14131(7) 0.3422(2) 0.20168(12)
H74 H 0.1579 0.3128 0.1868
H75 H 0.1271 0.3490 0.1696
H76 H 0.1351 0.2923 0.2313
C71 C 0.24730(7) 0.5349(4) 0.4212(2)
H77 H 0.2593 0.4965 0.3961
H78 H 0.2564 0.5429 0.4604
H79 H 0.2428 0.6079 0.4050
N7 N 0.07608(5) 0.8128(3) 0.06890(11)
N8 N 0.04706(7) 0.9419(4) 0.10048(15)
N9 N 0.01430(8) 0.6826(6) 0.15509(19)
N10 N 0.05513(7) 0.6429(3) 0.10403(17)
N11 N -0.00159(7) 0.8670(7) 0.17064(19)
H80 H -0.0149 0.8407 0.1897
H81 H 0.0000 0.9384 0.1660
O5 O 0.13398(4) 0.80676(17) 0.11257(8)
O6 O 0.23032(4) 0.71799(17) 0.25309(10)
O7 O 0.08136(5) 1.0565(3) 0.28061(11)
O8 O 0.19343(4) 1.09804(17) 0.25810(9)
O9 O 0.07525(5) 0.8052(2) 0.47593(11)
O10 O 0.16012(4) 1.11031(15) 0.45711(8)
O11 O 0.11312(4) 0.43153(16) 0.43335(9)
O12 O 0.17868(5) 0.73001(19) 0.57016(9)
O13 O 0.14697(4) 0.45020(14) 0.22744(8)
O14 O 0.22269(4) 0.4721(2) 0.42442(10)
N1? N 0.2128(2) 0.8425(12) 0.4307(6)
O1? O 0.00729(11) 0.3705(5) 0.3215(3)
O2? O 0.04724(9) 0.7087(4) 0.2914(2)
C1? C 0.19526(16) 0.8145(9) 0.4013(5)
C2? C 0.17185(14) 0.7359(7) 0.3763(3)
H1? H 0.1792 0.6801 0.3504
H2? H 0.1638 0.6971 0.4086
C3? C 0.14986(11) 0.8055(5) 0.3416(3)
H3? H 0.1368 0.8344 0.3684
H4? H 0.1585 0.8690 0.3233
C4? C 0.13503(12) 0.7353(6) 0.2951(3)
H5? H 0.1485 0.6882 0.2776
H6? H 0.1271 0.7848 0.2641
C5? C 0.11241(10) 0.6610(5) 0.3145(2)
H7? H 0.1006 0.7027 0.3393
H8? H 0.1203 0.5977 0.3372
C6? C 0.09552(10) 0.6192(6) 0.2573(2)
H9? H 0.0893 0.6837 0.2335
H10? H 0.1075 0.5747 0.2341
N2? N 0.07161(6) 0.5521(3) 0.26953(14)
C7? C 0.07416(7) 0.4417(3) 0.26508(17)
H11? H 0.0901 0.4099 0.2520
C8? C 0.05181(9) 0.3727(2) 0.2809(2)
H12? H 0.0531 0.2950 0.2771
C9? C 0.02717(8) 0.4217(3) 0.30271(19)
N3? N 0.02288(6) 0.5370(4) 0.30868(18)
H13? H 0.0083 0.5662 0.3217
C10? C 0.04935(7) 0.6104(3) 0.28750(17)
C72? C 0.06676(15) 0.9610(7) 0.2511(4)
H82? H 0.0688 0.9641 0.2091
H83? H 0.0475 0.9645 0.2579
H84? H 0.0745 0.8920 0.2670
loop_
_geom_bond_atom_site_label_1
_geom_bond_atom_site_label_2
_geom_bond_site_symmetry_1
_geom_bond_site_symmetry_2
N4 C11 1_555 1_555
O3 C19 1_555 1_555
O4 C20 1_555 1_555
C11 C12 1_555 1_555
C12 H14 1_555 1_555
H15 C12 1_555 1_555
C13 C12 1_555 1_555
H16 C13 1_555 1_555
H17 C13 1_555 1_555
C14 C13 1_555 1_555
H18 C14 1_555 1_555
H19 C14 1_555 1_555
C15 C14 1_555 1_555
H20 C15 1_555 1_555
H21 C15 1_555 1_555
C16 C15 1_555 1_555
H22 C16 1_555 1_555
H23 C16 1_555 1_555
N5 C16 1_555 1_555
C17 N5 1_555 1_555
H24 C17 1_555 1_555
C18 C17 1_555 1_555
H25 C18 1_555 1_555
C19 C18 1_555 1_555
N6 C19 1_555 1_555
H26 N6 1_555 1_555
C20 N5 1_555 1_555
C21 C22 1_555 1_555
C22 H27 1_555 1_555
C23 C22 1_555 1_555
C24 C23 1_555 1_555
C25 C24 1_555 1_555
H28 C25 1_555 1_555
C26 C21 1_555 1_555
C27 C26 1_555 1_555
H29 C27 1_555 1_555
H30 C27 1_555 1_555
C28 C29 1_555 1_555
C29 C27 1_555 1_555
C30 C29 1_555 1_555
H31 C30 1_555 1_555
C31 C30 1_555 1_555
C32 C31 1_555 1_555
C33 C28 1_555 1_555
H32 C33 1_555 1_555
C34 C32 1_555 1_555
H33 C34 1_555 1_555
H34 C34 1_555 1_555
C35 C36 1_555 1_555
C36 C34 1_555 1_555
C37 C36 1_555 1_555
H35 C37 1_555 1_555
C38 C37 1_555 1_555
C39 C38 1_555 1_555
C40 C35 1_555 1_555
H36 C40 1_555 1_555
C41 C39 1_555 1_555
H37 C41 1_555 1_555
H38 C41 1_555 1_555
C42 C43 1_555 1_555
C43 C41 1_555 1_555
C44 C43 1_555 1_555
H39 C44 1_555 1_555
C45 C44 1_555 1_555
C46 C45 1_555 1_555
C47 C42 1_555 1_555
H40 C47 1_555 1_555
C48 C46 1_555 1_555
H41 C48 1_555 1_555
H42 C48 1_555 1_555
C49 C50 1_555 1_555
C50 C48 1_555 1_555
C51 C50 1_555 1_555
H43 C51 1_555 1_555
C52 C51 1_555 1_555
C53 C52 1_555 1_555
C54 C49 1_555 1_555
H44 C54 1_555 1_555
C55 C23 1_555 1_555
H45 C55 1_555 1_555
H46 C55 1_555 1_555
C56 H47 1_555 1_555
H48 C56 1_555 1_555
C57 C56 1_555 1_555
H49 C57 1_555 1_555
H50 C57 1_555 1_555
C58 H51 1_555 1_555
C59 C60 1_555 1_555
C60 N9 1_555 1_555
C61 H52 1_555 1_555
C62 C59 1_555 1_555
C63 H53 1_555 1_555
H54 C63 1_555 1_555
H55 C63 1_555 1_555
C64 H56 1_555 1_555
H57 C64 1_555 1_555
H58 C64 1_555 1_555
C65 H59 1_555 1_555
H60 C65 1_555 1_555
H61 C65 1_555 1_555
C66 H62 1_555 1_555
H63 C66 1_555 1_555
H64 C66 1_555 1_555
C67 H65 1_555 1_555
H66 C67 1_555 1_555
H67 C67 1_555 1_555
C68 H68 1_555 1_555
H69 C68 1_555 1_555
H70 C68 1_555 1_555
C69 H71 1_555 1_555
H72 C69 1_555 1_555
H73 C69 1_555 1_555
C70 H74 1_555 1_555
H75 C70 1_555 1_555
H76 C70 1_555 1_555
C71 H77 1_555 1_555
H78 C71 1_555 1_555
H79 C71 1_555 1_555
N7 C57 1_555 1_555
N8 C58 1_555 1_555
N9 C61 1_555 1_555
N10 C61 1_555 1_555
N11 C60 1_555 1_555
H80 N11 1_555 1_555
H81 N11 1_555 1_555
O5 C21 1_555 1_555
O6 C24 1_555 1_555
O7 C31 1_555 1_555
O8 C28 1_555 1_555
O9 C38 1_555 1_555
O10 C35 1_555 1_555
O11 C45 1_555 1_555
O12 C42 1_555 1_555
O13 C52 1_555 1_555
O14 C49 1_555 1_555
N6 C20 1_555 1_555
C25 C26 1_555 1_555
C32 C33 1_555 1_555
C39 C40 1_555 1_555
C46 C47 1_555 1_555
C53 C54 1_555 1_555
C53 C55 1_555 1_555
C56 O5 1_555 1_555
C58 N7 1_555 1_555
C59 N8 1_555 1_555
C62 N7 1_555 1_555
C62 N10 1_555 1_555
C63 O6 1_555 1_555
C64 O7 1_555 1_555
C65 O8 1_555 1_555
C66 O9 1_555 1_555
C67 O10 1_555 1_555
C68 O11 1_555 1_555
C69 O12 1_555 1_555
C70 O13 1_555 1_555
C71 O14 1_555 1_555

#END
