
#######################################################################
#
#                 Cambridge Crystallographic Data Centre
#                                CCDC 
#
#######################################################################
#
# If this CIF has been generated from an entry in the Cambridge 
# Structural Database, then it will include bibliographic, chemical, 
# crystal, experimental, refinement or atomic coordinate data resulting 
# from the CCDC's data processing and validation procedures.
#
#######################################################################

data_KUNYOJ
_chemical_formula_moiety         'C16 H10 N4 O2,C2 H6 O1 S1'
_chemical_name_systematic        
'N-(3-ethynylphenyl)-6-nitroquinazolin-4-amine dimethyl sulfoxide solvate'
_symmetry_cell_setting           monoclinic
_symmetry_space_group_name_H-M   'P 21/c'
_symmetry_Int_Tables_number      14
_space_group_name_Hall           '-P 2ybc'
loop_
_symmetry_equiv_pos_site_id
_symmetry_equiv_pos_as_xyz
1 x,y,z
2 -x,1/2+y,1/2-z
3 -x,-y,-z
4 x,1/2-y,1/2+z
_cell_length_a                   8.280(8)
_cell_length_b                   21.36(2)
_cell_length_c                   10.215(9)
_cell_angle_alpha                90
_cell_angle_beta                 93.43(2)
_cell_angle_gamma                90
_cell_volume                     1803.4
_exptl_crystal_colour            red
_exptl_crystal_description       block
_cell_formula_units_Z            4
loop_
_atom_site_label
_atom_site_type_symbol
_atom_site_fract_x
_atom_site_fract_y
_atom_site_fract_z
C1 C 0.6916(3) 0.33239(11) 0.0702(2)
H1 H 0.7481 0.3265 -0.0048
C2 C 0.6185(3) 0.33999(10) 0.1671(2)
C3 C 0.5303(3) 0.34786(9) 0.2851(2)
C4 C 0.5159(3) 0.29766(10) 0.3722(2)
H2 H 0.5602 0.2588 0.3543
C5 C 0.4343(3) 0.30685(10) 0.4861(2)
H3 H 0.4251 0.2738 0.5446
C6 C 0.3659(3) 0.36483(10) 0.5140(2)
H4 H 0.3117 0.3700 0.5904
C7 C 0.3790(2) 0.41559(9) 0.42650(19)
C8 C 0.4629(3) 0.40706(9) 0.3124(2)
H5 H 0.4742 0.4403 0.2548
C9 C 0.2875(2) 0.52846(9) 0.39678(19)
C10 C 0.1966(2) 0.58058(9) 0.45084(19)
C11 C 0.1207(2) 0.57921(9) 0.5714(2)
H6 H 0.1249 0.5434 0.6232
C12 C 0.0399(2) 0.63221(10) 0.6108(2)
C13 C 0.0285(3) 0.68763(10) 0.5354(2)
H7 H -0.0261 0.7224 0.5650
C14 C 0.0997(3) 0.68912(10) 0.4178(2)
H8 H 0.0913 0.7250 0.3664
C15 C 0.1868(2) 0.63613(9) 0.3728(2)
C16 C 0.3350(3) 0.59000(10) 0.2188(2)
H9 H 0.3836 0.5928 0.1393
N1 N 0.3034(2) 0.47296(7) 0.46337(18)
N2 N 0.3554(2) 0.53438(8) 0.28184(17)
N3 N 0.2566(2) 0.64078(8) 0.25324(18)
N4 N -0.0358(2) 0.63119(9) 0.73797(19)
O1 O -0.0369(3) 0.58149(9) 0.79951(18)
O2 O -0.0965(2) 0.68044(8) 0.77750(18)
H10 H 0.266(3) 0.4719(10) 0.533(2)
C17 C 0.7394(4) 0.52006(13) 0.0474(3)
H11 H 0.7616 0.4764 0.0616
H12 H 0.7482 0.5299 -0.0436
H13 H 0.6319 0.5293 0.0720
C18 C 0.8041(5) 0.64197(13) 0.1052(3)
H14 H 0.6908 0.6434 0.1201
H15 H 0.8195 0.6511 0.0148
H16 H 0.8607 0.6724 0.1598
O3 O 0.8427(3) 0.55461(8) 0.28371(16)
S1 S 0.88118(8) 0.56551(3) 0.14422(6)
loop_
_geom_bond_atom_site_label_1
_geom_bond_atom_site_label_2
_geom_bond_site_symmetry_1
_geom_bond_site_symmetry_2
C1 H1 1_555 1_555
C2 C1 1_555 1_555
C3 C2 1_555 1_555
C4 C3 1_555 1_555
H2 C4 1_555 1_555
C5 C4 1_555 1_555
H3 C5 1_555 1_555
C6 C5 1_555 1_555
H4 C6 1_555 1_555
C7 C6 1_555 1_555
C8 C3 1_555 1_555
H5 C8 1_555 1_555
C9 C10 1_555 1_555
C10 C11 1_555 1_555
C11 H6 1_555 1_555
C12 C11 1_555 1_555
C13 C12 1_555 1_555
H7 C13 1_555 1_555
C14 C13 1_555 1_555
H8 C14 1_555 1_555
C15 C10 1_555 1_555
C16 H9 1_555 1_555
N1 C7 1_555 1_555
N2 C9 1_555 1_555
N3 C15 1_555 1_555
N4 C12 1_555 1_555
O1 N4 1_555 1_555
O2 N4 1_555 1_555
H10 N1 1_555 1_555
C17 H11 1_555 1_555
H12 C17 1_555 1_555
H13 C17 1_555 1_555
C18 H14 1_555 1_555
H15 C18 1_555 1_555
H16 C18 1_555 1_555
O3 S1 1_555 1_555
S1 C17 1_555 1_555
C7 C8 1_555 1_555
C9 N1 1_555 1_555
C14 C15 1_555 1_555
C16 N2 1_555 1_555
C16 N3 1_555 1_555
C18 S1 1_555 1_555

#END
