
#######################################################################
#
#                 Cambridge Crystallographic Data Centre
#                                CCDC 
#
#######################################################################
#
# If this CIF has been generated from an entry in the Cambridge 
# Structural Database, then it will include bibliographic, chemical, 
# crystal, experimental, refinement or atomic coordinate data resulting 
# from the CCDC's data processing and validation procedures.
#
#######################################################################

data_KUPWUP
_chemical_formula_moiety         'C34 H20 S2'
_chemical_name_systematic        
3,10-Diphenylnaphtho[2,3-b]naphtho[2',3':4,5]thieno[2,3-d]thiophene
_symmetry_cell_setting           orthorhombic
_symmetry_space_group_name_H-M   'P b c a'
_symmetry_Int_Tables_number      61
_space_group_name_Hall           '-P 2ac 2ab'
loop_
_symmetry_equiv_pos_site_id
_symmetry_equiv_pos_as_xyz
1 x,y,z
2 1/2-x,-y,1/2+z
3 1/2+x,1/2-y,-z
4 -x,1/2+y,1/2-z
5 -x,-y,-z
6 1/2+x,y,1/2-z
7 1/2-x,1/2+y,z
8 x,1/2-y,1/2+z
_cell_length_a                   6.9888(3)
_cell_length_b                   46.665(9)
_cell_length_c                   7.1800(4)
_cell_angle_alpha                90
_cell_angle_beta                 90
_cell_angle_gamma                90
_cell_volume                     2341.63
_exptl_crystal_colour            yellow
_exptl_crystal_description       platelet
_cell_formula_units_Z            4
loop_
_atom_site_label
_atom_site_type_symbol
_atom_site_fract_x
_atom_site_fract_y
_atom_site_fract_z
C1 C 0.2569(5) -0.03285(4) 0.9558(3)
C2 C 0.4451(5) 0.01179(4) 0.9730(3)
C3 C 0.5539(5) 0.03809(4) 0.9821(3)
C4 C 0.4926(5) 0.06613(4) 0.9451(3)
H1 H 0.3671 0.0697 0.9001
C5 C 0.6227(5) 0.08902(4) 0.9766(3)
C6 C 0.5582(5) 0.11821(4) 0.9565(3)
H2 H 0.4327 0.1221 0.9124
C7 C 0.6803(5) 0.14061(4) 1.0019(3)
C8 C 0.8679(6) 0.13464(5) 1.0603(3)
H3 H 0.9506 0.1501 1.0899
C9 C 0.9353(5) 0.10725(4) 1.0760(3)
H4 H 1.0643 0.1039 1.1117
C10 C 0.8101(5) 0.08349(4) 1.0382(3)
C11 C 0.8722(5) 0.05485(4) 1.0716(3)
H5 H 0.9991 0.0510 1.1117
C12 C 0.6064(5) 0.17081(4) 1.0004(3)
C13 C 0.4673(5) 0.17966(4) 0.8746(4)
H6 H 0.4177 0.1663 0.7872
C14 C 0.3993(6) 0.20770(4) 0.8743(4)
H7 H 0.3043 0.2134 0.7873
C15 C 0.4719(5) 0.22733(4) 1.0028(3)
H8 H 0.4271 0.2465 1.0028
C16 C 0.6073(6) 0.21890(4) 1.1284(4)
H9 H 0.6545 0.2323 1.2168
C17 C 0.6779(5) 0.19065(4) 1.1290(4)
H10 H 0.7734 0.1851 1.2159
S1 S 0.21438(13) 0.003685(10) 0.91254(8)
C1D C 0.7431(5) 0.03285(4) 1.0442(3)
C2D C 0.5549(5) -0.01179(4) 1.0270(3)
C3D C 0.4461(5) -0.03809(4) 1.0179(3)
C4D C 0.5074(5) -0.06613(4) 1.0549(3)
H1D H 0.6329 -0.0697 1.0999
C5D C 0.3773(5) -0.08902(4) 1.0234(3)
C6D C 0.4418(5) -0.11821(4) 1.0435(3)
H2D H 0.5673 -0.1221 1.0876
C7D C 0.3197(5) -0.14061(4) 0.9981(3)
C8D C 0.1321(6) -0.13464(5) 0.9397(3)
H3D H 0.0494 -0.1501 0.9101
C9D C 0.0647(5) -0.10725(4) 0.9240(3)
H4D H -0.0643 -0.1039 0.8883
C10D C 0.1899(5) -0.08349(4) 0.9618(3)
C11D C 0.1278(5) -0.05485(4) 0.9284(3)
H5D H 0.0009 -0.0510 0.8883
C12D C 0.3936(5) -0.17081(4) 0.9996(3)
C13D C 0.5327(5) -0.17966(4) 1.1254(4)
H6D H 0.5823 -0.1663 1.2128
C14D C 0.6007(6) -0.20770(4) 1.1257(4)
H7D H 0.6957 -0.2134 1.2127
C15D C 0.5281(5) -0.22733(4) 0.9972(3)
H8D H 0.5729 -0.2465 0.9972
C16D C 0.3927(6) -0.21890(4) 0.8716(4)
H9D H 0.3455 -0.2323 0.7832
C17D C 0.3221(5) -0.19065(4) 0.8710(4)
H10D H 0.2266 -0.1851 0.7841
S1D S 0.78562(13) -0.003685(10) 1.08746(8)
loop_
_geom_bond_atom_site_label_1
_geom_bond_atom_site_label_2
_geom_bond_site_symmetry_1
_geom_bond_site_symmetry_2
C1 S1 1_555 1_555
C2 C3 1_555 1_555
C3 C4 1_555 1_555
C4 H1 1_555 1_555
C5 C4 1_555 1_555
C6 C5 1_555 1_555
H2 C6 1_555 1_555
C7 C6 1_555 1_555
C8 C7 1_555 1_555
H3 C8 1_555 1_555
C9 C8 1_555 1_555
H4 C9 1_555 1_555
C10 C5 1_555 1_555
C11 C10 1_555 1_555
H5 C11 1_555 1_555
C12 C7 1_555 1_555
C13 C12 1_555 1_555
H6 C13 1_555 1_555
C14 C13 1_555 1_555
H7 C14 1_555 1_555
C15 C14 1_555 1_555
H8 C15 1_555 1_555
C16 C15 1_555 1_555
H9 C16 1_555 1_555
C17 C12 1_555 1_555
H10 C17 1_555 1_555
S1 C2 1_555 1_555
C1D C3 1_555 1_555
C2D C2 1_555 1_555
C3D C1 1_555 1_555
C4D C3D 1_555 1_555
H1D C4D 1_555 1_555
C5D C4D 1_555 1_555
C6D C5D 1_555 1_555
H2D C6D 1_555 1_555
C7D C6D 1_555 1_555
C8D C7D 1_555 1_555
H3D C8D 1_555 1_555
C9D C8D 1_555 1_555
H4D C9D 1_555 1_555
C10D C5D 1_555 1_555
C11D C1 1_555 1_555
H5D C11D 1_555 1_555
C12D C7D 1_555 1_555
C13D C12D 1_555 1_555
H6D C13D 1_555 1_555
C14D C13D 1_555 1_555
H7D C14D 1_555 1_555
C15D C14D 1_555 1_555
H8D C15D 1_555 1_555
C16D C15D 1_555 1_555
H9D C16D 1_555 1_555
C17D C12D 1_555 1_555
H10D C17D 1_555 1_555
S1D C1D 1_555 1_555
C9 C10 1_555 1_555
C11 C1D 1_555 1_555
C16 C17 1_555 1_555
C2D C3D 1_555 1_555
C2D S1D 1_555 1_555
C9D C10D 1_555 1_555
C10D C11D 1_555 1_555
C16D C17D 1_555 1_555

#END
