
#######################################################################
#
#                 Cambridge Crystallographic Data Centre
#                                CCDC 
#
#######################################################################
#
# If this CIF has been generated from an entry in the Cambridge 
# Structural Database, then it will include bibliographic, chemical, 
# crystal, experimental, refinement or atomic coordinate data resulting 
# from the CCDC's data processing and validation procedures.
#
#######################################################################

data_KUQCAC
_chemical_formula_moiety         'C13 H20 O2 Si1'
_chemical_name_systematic        
2,4,4,5,5-Pentamethyl-2-phenyl-1,3,2-dioxasilolane
_symmetry_cell_setting           monoclinic
_symmetry_space_group_name_H-M   'P 21/c'
_symmetry_Int_Tables_number      14
_space_group_name_Hall           '-P 2ybc'
loop_
_symmetry_equiv_pos_site_id
_symmetry_equiv_pos_as_xyz
1 x,y,z
2 -x,1/2+y,1/2-z
3 -x,-y,-z
4 x,1/2-y,1/2+z
_cell_length_a                   7.7423(4)
_cell_length_b                   12.8158(7)
_cell_length_c                   13.6032(8)
_cell_angle_alpha                90
_cell_angle_beta                 97.5650(10)
_cell_angle_gamma                90
_cell_volume                     1338.01
_exptl_crystal_colour            colorless
_exptl_crystal_description       block
_cell_formula_units_Z            4
loop_
_atom_site_label
_atom_site_type_symbol
_atom_site_fract_x
_atom_site_fract_y
_atom_site_fract_z
Si1 Si 0.16947(4) 0.35228(2) 0.09141(2)
O1 O -0.04186(10) 0.37393(6) 0.08603(7)
O2 O 0.16669(10) 0.22773(6) 0.12249(6)
C1 C 0.53771(17) 0.52155(12) 0.34144(12)
H1 H 0.6136 0.5555 0.3921
C2 C 0.46294(17) 0.42703(11) 0.36050(11)
H2 H 0.4869 0.3961 0.4243
C3 C 0.35225(15) 0.37709(10) 0.28598(9)
H3 H 0.3023 0.3118 0.2996
C4 C 0.31322(14) 0.42097(8) 0.19160(9)
C5 C -0.12735(14) 0.28544(8) 0.12586(8)
C6 C -0.31197(16) 0.28001(10) 0.07183(11)
H4 H -0.3768 0.3421 0.0876
H5 H -0.3699 0.2174 0.0929
H6 H -0.3082 0.2769 0.0002
C7 C 0.23722(17) 0.38088(11) -0.03091(9)
H7 H 0.1745 0.3349 -0.081
H8 H 0.3629 0.3692 -0.0281
H9 H 0.2102 0.4538 -0.0486
C8 C -0.01178(14) 0.18890(8) 0.10701(8)
C9 C -0.02374(17) 0.09864(10) 0.17796(10)
H10 H 0.0479 0.0406 0.1596
H11 H -0.1453 0.0759 0.1744
H12 H 0.0184 0.1211 0.2457
C10 C -0.13328(17) 0.30567(12) 0.23581(9)
H13 H -0.0144 0.3063 0.271
H14 H -0.2006 0.2504 0.263
H15 H -0.1886 0.3733 0.2441
C11 C -0.04734(18) 0.15030(10) 0.00004(10)
H16 H -0.055 0.2101 -0.0452
H17 H -0.1575 0.1116 -0.0094
H18 H 0.0477 0.1044 -0.0139
C12 C 0.39109(18) 0.51682(10) 0.17494(10)
H19 H 0.3675 0.5487 0.1116
C13 C 0.50222(19) 0.56634(12) 0.24919(13)
H20 H 0.5537 0.6313 0.2361
loop_
_geom_bond_atom_site_label_1
_geom_bond_atom_site_label_2
_geom_bond_site_symmetry_1
_geom_bond_site_symmetry_2
Si1 O1 1_555 1_555
O1 C5 1_555 1_555
O2 Si1 1_555 1_555
C1 H1 1_555 1_555
C2 C1 1_555 1_555
H2 C2 1_555 1_555
C3 C2 1_555 1_555
H3 C3 1_555 1_555
C4 Si1 1_555 1_555
C5 C6 1_555 1_555
C6 H4 1_555 1_555
H5 C6 1_555 1_555
H6 C6 1_555 1_555
C7 Si1 1_555 1_555
H7 C7 1_555 1_555
H8 C7 1_555 1_555
H9 C7 1_555 1_555
C8 O2 1_555 1_555
C9 C8 1_555 1_555
H10 C9 1_555 1_555
H11 C9 1_555 1_555
H12 C9 1_555 1_555
C10 C5 1_555 1_555
H13 C10 1_555 1_555
H14 C10 1_555 1_555
H15 C10 1_555 1_555
C11 C8 1_555 1_555
H16 C11 1_555 1_555
H17 C11 1_555 1_555
H18 C11 1_555 1_555
C12 C4 1_555 1_555
H19 C12 1_555 1_555
C13 C1 1_555 1_555
H20 C13 1_555 1_555
C3 C4 1_555 1_555
C5 C8 1_555 1_555
C12 C13 1_555 1_555

#END
