
#######################################################################
#
#                 Cambridge Crystallographic Data Centre
#                                CCDC 
#
#######################################################################
#
# If this CIF has been generated from an entry in the Cambridge 
# Structural Database, then it will include bibliographic, chemical, 
# crystal, experimental, refinement or atomic coordinate data resulting 
# from the CCDC's data processing and validation procedures.
#
#######################################################################

data_KUQGOT
_chemical_formula_moiety         'C13 H24 O11,0.38(C1 H4 O1)'
_chemical_name_systematic        
'Methyl 4-O-\b-D-galactopyranosyl \a-D-mannopyranoside methanol solvate'
_symmetry_cell_setting           tetragonal
_symmetry_space_group_name_H-M   'I 4'
_symmetry_Int_Tables_number      79
_space_group_name_Hall           'I 4'
loop_
_symmetry_equiv_pos_site_id
_symmetry_equiv_pos_as_xyz
1 x,y,z
2 -y,x,z
3 y,-x,z
4 -x,-y,z
5 1/2+x,1/2+y,1/2+z
6 1/2-y,1/2+x,1/2+z
7 1/2+y,1/2-x,1/2+z
8 1/2-x,1/2-y,1/2+z
_cell_length_a                   20.1789(4)
_cell_length_b                   20.1789(4)
_cell_length_c                   8.4712(2)
_cell_angle_alpha                90
_cell_angle_beta                 90
_cell_angle_gamma                90
_cell_volume                     3449.37
_exptl_crystal_colour            colorless
_exptl_crystal_description       rod
_cell_formula_units_Z            8
loop_
_atom_site_label
_atom_site_type_symbol
_atom_site_fract_x
_atom_site_fract_y
_atom_site_fract_z
C1 C 0.29044(15) 0.32676(15) -0.2727(4)
H1 H 0.3158 0.2954 -0.3412
C2 C 0.22529(14) 0.29477(14) -0.2249(3)
H2 H 0.1982 0.2855 -0.3212
C3 C 0.18755(13) 0.34140(14) -0.1165(4)
H3 H 0.1740 0.3817 -0.1771
C4 C 0.23077(13) 0.36199(13) 0.0217(3)
H4 H 0.2372 0.3236 0.0947
C5 C 0.29804(14) 0.38855(14) -0.0319(3)
H5 H 0.2912 0.4316 -0.0882
C6 C 0.34617(14) 0.39946(14) 0.1038(4)
H6 H 0.3888 0.4158 0.0609
H7 H 0.3282 0.4341 0.1745
C7 C 0.3281(2) 0.4169(2) -0.4303(4)
H8 H 0.3122 0.4493 -0.5075
H9 H 0.3570 0.3847 -0.4831
H10 H 0.3531 0.4397 -0.3473
O1 O 0.27297(12) 0.38322(11) -0.3619(3)
O2 O 0.23940(10) 0.23441(9) -0.1456(2)
H11 H 0.2080 0.2077 -0.1595
O3 O 0.12942(10) 0.30787(11) -0.0597(3)
H12 H 0.1189 0.3232 0.0291
O4 O 0.32899(9) 0.34258(10) -0.1380(2)
O5 O 0.35807(10) 0.34116(9) 0.1932(2)
H13 H 0.3810 0.3146 0.1397
C8 C 0.17614(13) 0.40078(13) 0.2558(3)
H14 H 0.2142 0.3840 0.3200
C9 C 0.14944(13) 0.46457(13) 0.3253(3)
H15 H 0.1147 0.4828 0.2532
C10 C 0.11873(14) 0.45227(14) 0.4870(3)
H16 H 0.1545 0.4403 0.5634
C11 C 0.06914(13) 0.39510(13) 0.4769(3)
H17 H 0.0530 0.3837 0.5852
C12 C 0.10290(13) 0.33431(13) 0.4030(3)
H18 H 0.1425 0.3225 0.4681
C13 C 0.05834(13) 0.27373(13) 0.3899(3)
H19 H 0.0137 0.2875 0.3539
H20 H 0.0768 0.2428 0.3106
O6 O 0.19650(9) 0.41488(9) 0.1026(2)
O7 O 0.20373(10) 0.50817(10) 0.3280(3)
H21 H 0.1917 0.5449 0.3645
O8 O 0.08741(9) 0.51201(9) 0.5379(2)
H22 H 0.0909 0.5155 0.6363
O9 O 0.01374(9) 0.41235(9) 0.3784(2)
H23 H -0.0131 0.4356 0.4302
O10 O 0.12480(9) 0.35215(9) 0.2478(2)
O11 O 0.05300(9) 0.24089(9) 0.5385(2)
H24 H 0.0245 0.2602 0.5943
loop_
_geom_bond_atom_site_label_1
_geom_bond_atom_site_label_2
_geom_bond_site_symmetry_1
_geom_bond_site_symmetry_2
C1 H1 1_555 1_555
C2 C1 1_555 1_555
H2 C2 1_555 1_555
C3 C2 1_555 1_555
H3 C3 1_555 1_555
C4 C3 1_555 1_555
H4 C4 1_555 1_555
C5 C4 1_555 1_555
H5 C5 1_555 1_555
C6 C5 1_555 1_555
H6 C6 1_555 1_555
H7 C6 1_555 1_555
C7 H8 1_555 1_555
H9 C7 1_555 1_555
H10 C7 1_555 1_555
O1 C1 1_555 1_555
O2 C2 1_555 1_555
H11 O2 1_555 1_555
O3 C3 1_555 1_555
H12 O3 1_555 1_555
O4 C1 1_555 1_555
O5 C6 1_555 1_555
H13 O5 1_555 1_555
C8 H14 1_555 1_555
C9 C8 1_555 1_555
H15 C9 1_555 1_555
C10 C9 1_555 1_555
H16 C10 1_555 1_555
C11 C10 1_555 1_555
H17 C11 1_555 1_555
C12 C11 1_555 1_555
H18 C12 1_555 1_555
C13 C12 1_555 1_555
H19 C13 1_555 1_555
H20 C13 1_555 1_555
O6 C4 1_555 1_555
O7 C9 1_555 1_555
H21 O7 1_555 1_555
O8 C10 1_555 1_555
H22 O8 1_555 1_555
O9 C11 1_555 1_555
H23 O9 1_555 1_555
O10 C8 1_555 1_555
O11 C13 1_555 1_555
H24 O11 1_555 1_555
C5 O4 1_555 1_555
C7 O1 1_555 1_555
C8 O6 1_555 1_555
C12 O10 1_555 1_555

#END
