
#######################################################################
#
#                 Cambridge Crystallographic Data Centre
#                                CCDC 
#
#######################################################################
#
# If this CIF has been generated from an entry in the Cambridge 
# Structural Database, then it will include bibliographic, chemical, 
# crystal, experimental, refinement or atomic coordinate data resulting 
# from the CCDC's data processing and validation procedures.
#
#######################################################################

data_KUQSEW
_chemical_formula_moiety         'C22 H16 S2'
_chemical_name_systematic        2,2'-(1,2-Diphenylethene-1,2-diyl)dithiophene
_symmetry_cell_setting           monoclinic
_symmetry_space_group_name_H-M   'P 21'
_symmetry_Int_Tables_number      4
_space_group_name_Hall           'P 2yb'
loop_
_symmetry_equiv_pos_site_id
_symmetry_equiv_pos_as_xyz
1 x,y,z
2 -x,1/2+y,-z
_cell_length_a                   9.831(5)
_cell_length_b                   9.580(4)
_cell_length_c                   10.090(3)
_cell_angle_alpha                90
_cell_angle_beta                 105.875(19)
_cell_angle_gamma                90
_cell_volume                     914.043
_exptl_crystal_colour            yellow
_exptl_crystal_description       block
_cell_formula_units_Z            2
loop_
_atom_site_label
_atom_site_type_symbol
_atom_site_fract_x
_atom_site_fract_y
_atom_site_fract_z
S1 S 0.6607(4) 0.2524(5) -0.0645(3)
S2 S 0.8351(4) 0.5491(5) 0.0676(4)
C1 C 1.0070(5) 0.3538(7) 0.2021(5)
H1 H 1.0467 0.2814 0.2616
C2 C 0.8203(7) 0.3587(8) 0.4106(7)
C3 C 0.4881(8) 0.4002(8) 0.3673(8)
H2 H 0.5339 0.4860 0.3810
C4 C 0.7601(7) 0.3676(8) 0.2587(7)
C5 C 0.6232(8) 0.3341(9) 0.1919(8)
C6 C 0.3944(9) 0.3682(11) 0.4363(8)
H3 H 0.3766 0.4327 0.4985
C7 C 0.4093(7) 0.3623(8) -0.0395(6)
H4 H 0.3395 0.4037 -0.0064
C8 C 0.5179(8) 0.3021(8) 0.2723(7)
C9 C 0.9719(10) 0.4501(11) 0.6199(9)
H5 H 1.0312 0.5201 0.6671
C10 C 0.9135(8) 0.4623(9) 0.4815(7)
H6 H 0.9352 0.5387 0.4342
C11 C 0.4072(11) 0.3131(12) -0.1883(9)
H7 H 0.3260 0.3178 -0.2617
C12 C 0.5702(8) 0.3188(8) 0.0386(7)
C13 C 0.3230(8) 0.2428(13) 0.4186(9)
H8 H 0.2576 0.2236 0.4675
C14 C 0.8595(7) 0.4177(8) 0.1736(7)
C15 C 0.4443(9) 0.1744(9) 0.2536(8)
H9 H 0.4600 0.1092 0.1911
C16 C 0.7978(9) 0.2404(11) 0.4924(10)
H10 H 0.7426 0.1653 0.4504
C17 C 0.3495(10) 0.1460(10) 0.3277(9)
H11 H 0.3026 0.0606 0.3165
C18 C 1.0698(11) 0.4361(14) 0.1113(12)
H12 H 1.1608 0.4180 0.1053
C19 C 0.8501(12) 0.2406(12) 0.6123(13)
H13 H 0.8252 0.1670 0.6611
C20 C 0.5240(13) 0.2661(11) -0.2024(9)
H14 H 0.5321 0.2401 -0.2887
C21 C 0.9447(12) 0.3374(12) 0.6900(10)
H15 H 0.9866 0.3255 0.7838
C22 C 0.9897(14) 0.5408(14) 0.0357(11)
H16 H 1.0189 0.5988 -0.0251
loop_
_geom_bond_atom_site_label_1
_geom_bond_atom_site_label_2
_geom_bond_site_symmetry_1
_geom_bond_site_symmetry_2
S1 C12 1_555 1_555
S2 C14 1_555 1_555
C1 H1 1_555 1_555
C2 C4 1_555 1_555
C3 H2 1_555 1_555
C4 C5 1_555 1_555
C5 C8 1_555 1_555
C6 C3 1_555 1_555
H3 C6 1_555 1_555
C7 H4 1_555 1_555
C8 C3 1_555 1_555
C9 H5 1_555 1_555
C10 C2 1_555 1_555
H6 C10 1_555 1_555
C11 C7 1_555 1_555
H7 C11 1_555 1_555
C12 C5 1_555 1_555
C13 C6 1_555 1_555
H8 C13 1_555 1_555
C14 C1 1_555 1_555
C15 C8 1_555 1_555
H9 C15 1_555 1_555
C16 C2 1_555 1_555
H10 C16 1_555 1_555
C17 C13 1_555 1_555
H11 C17 1_555 1_555
C18 C1 1_555 1_555
H12 C18 1_555 1_555
C19 C16 1_555 1_555
H13 C19 1_555 1_555
C20 S1 1_555 1_555
H14 C20 1_555 1_555
C21 C9 1_555 1_555
H15 C21 1_555 1_555
C22 S2 1_555 1_555
H16 C22 1_555 1_555
C4 C14 1_555 1_555
C7 C12 1_555 1_555
C9 C10 1_555 1_555
C11 C20 1_555 1_555
C15 C17 1_555 1_555
C18 C22 1_555 1_555
C19 C21 1_555 1_555

#END
