
#######################################################################
#
#                 Cambridge Crystallographic Data Centre
#                                CCDC 
#
#######################################################################
#
# If this CIF has been generated from an entry in the Cambridge 
# Structural Database, then it will include bibliographic, chemical, 
# crystal, experimental, refinement or atomic coordinate data resulting 
# from the CCDC's data processing and validation procedures.
#
#######################################################################

data_KUQVID03
_chemical_formula_moiety         'C38 H28 N10 O7,C1 H2 Cl2,2(H2 O1)'
_chemical_name_systematic        
'Methyl 6-(((6-(((6-(((6-(((6-(benzoylamino)pyridin-2-yl)carbonyl)amino)pyridin-2-yl)carbonyl)amino)pyridin-2-yl)carbonyl)amino)pyridin-2-yl)carbonyl)amino)pyridine-2-carboxylate dichloromethane solvate dihydrate'
_symmetry_cell_setting           monoclinic
_symmetry_space_group_name_H-M   'P 21'
_symmetry_Int_Tables_number      4
_space_group_name_Hall           'P 2yb'
loop_
_symmetry_equiv_pos_site_id
_symmetry_equiv_pos_as_xyz
1 x,y,z
2 -x,1/2+y,-z
_cell_length_a                   13.4731(13)
_cell_length_b                   10.3806(10)
_cell_length_c                   13.7581(14)
_cell_angle_alpha                90
_cell_angle_beta                 95.674(2)
_cell_angle_gamma                90
_cell_volume                     1914.76
_exptl_crystal_colour            colorless
_exptl_crystal_description       Block
_cell_formula_units_Z            2
loop_
_atom_site_label
_atom_site_type_symbol
_atom_site_fract_x
_atom_site_fract_y
_atom_site_fract_z
O1 O 0.62433(17) 0.0053(3) 0.09807(19)
O2 O 0.89454(19) 0.0723(3) -0.35080(18)
O3 O 1.41521(18) 0.1738(3) -0.10662(19)
O4 O 1.25787(17) 0.2289(3) 0.40573(17)
O5 O 0.70887(17) 0.3183(3) 0.24538(17)
O6 O 0.89336(18) 0.3939(3) -0.20607(18)
O7 O 0.74346(18) 0.3986(3) -0.29213(17)
N1 N 0.7780(2) 0.0184(3) 0.0437(2)
H1 H 0.8365(17) 0.034(4) 0.069(3)
N2 N 0.8309(2) 0.0410(3) -0.1085(2)
N3 N 0.9915(2) 0.0849(3) -0.2045(2)
H2 H 0.992(3) 0.091(4) -0.1422(15)
N4 N 1.1561(2) 0.1303(3) -0.1613(2)
N5 N 1.2849(2) 0.1923(3) -0.0122(2)
H3 H 1.2213(15) 0.192(4) -0.016(3)
N6 N 1.26844(19) 0.2150(3) 0.1495(2)
N7 N 1.1369(2) 0.2411(3) 0.2764(2)
H4 H 1.126(3) 0.243(4) 0.2150(15)
N8 N 0.96979(19) 0.2731(3) 0.2584(2)
N9 N 0.8173(2) 0.3204(3) 0.1276(2)
H5 H 0.8793(16) 0.321(4) 0.120(3)
N10 N 0.8018(2) 0.3565(3) -0.0378(2)
C1 C 0.7625(3) -0.0182(3) 0.2165(3)
C2 C 0.7017(3) -0.0033(4) 0.2922(3)
H6 H 0.6331 0.0174 0.2774
C3 C 0.7398(3) -0.0181(4) 0.3876(3)
H7 H 0.6980 -0.0057 0.4385
C4 C 0.8393(3) -0.0510(4) 0.4101(3)
H8 H 0.8660 -0.0601 0.4763
C5 C 0.8991(3) -0.0706(3) 0.3357(3)
H9 H 0.9667 -0.0955 0.3507
C6 C 0.8615(3) -0.0542(3) 0.2397(3)
H10 H 0.9034 -0.0676 0.1890
C7 C 0.7151(3) 0.0025(3) 0.1140(3)
C8 C 0.7522(3) 0.0343(3) -0.0569(3)
C9 C 0.6539(3) 0.0418(4) -0.1006(3)
H11 H 0.5990 0.0367 -0.0623
C10 C 0.6388(3) 0.0569(4) -0.2001(3)
H12 H 0.5729 0.0620 -0.2314
C11 C 0.7203(3) 0.0647(3) -0.2553(3)
H13 H 0.7113 0.0749 -0.3242
C12 C 0.8141(3) 0.0570(3) -0.2058(2)
C13 C 0.9035(3) 0.0711(3) -0.2619(3)
C14 C 1.0864(3) 0.1027(3) -0.2349(3)
C15 C 1.1083(3) 0.0916(3) -0.3314(3)
H14 H 1.0578 0.0708 -0.3820
C16 C 1.2061(3) 0.1118(4) -0.3514(3)
H15 H 1.2231 0.1066 -0.4167
C17 C 1.2789(3) 0.1396(4) -0.2758(3)
H16 H 1.3463 0.1533 -0.2879
C18 C 1.2500(3) 0.1468(3) -0.1823(3)
C19 C 1.3267(3) 0.1722(3) -0.0978(3)
C20 C 1.3315(2) 0.2056(3) 0.0817(2)
C21 C 1.4355(2) 0.2050(3) 0.1037(3)
H17 H 1.4791 0.1987 0.0537
C22 C 1.4720(2) 0.2140(4) 0.2013(3)
H18 H 1.5420 0.2145 0.2190
C23 C 1.4075(2) 0.2223(3) 0.2729(3)
H19 H 1.4317 0.2275 0.3400
C24 C 1.3068(2) 0.2225(3) 0.2434(2)
C25 C 1.2323(2) 0.2316(3) 0.3179(2)
C26 C 1.0486(2) 0.2497(3) 0.3215(2)
C27 C 1.0429(2) 0.2320(3) 0.4209(2)
H20 H 1.1010 0.2150 0.4639
C28 C 0.9503(3) 0.2398(3) 0.4550(2)
H21 H 0.9437 0.2279 0.5226
C29 C 0.8668(2) 0.2650(3) 0.3909(2)
H22 H 0.8024 0.2710 0.4132
C30 C 0.8804(2) 0.2811(3) 0.2930(2)
C31 C 0.7926(2) 0.3085(3) 0.2200(2)
C32 C 0.7545(2) 0.3475(3) 0.0425(2)
C33 C 0.6511(2) 0.3626(3) 0.0422(2)
H23 H 0.6199 0.3573 0.1011
C34 C 0.5961(3) 0.3852(3) -0.0458(3)
H24 H 0.5258 0.3958 -0.0484
C35 C 0.6434(2) 0.3924(3) -0.1306(2)
H25 H 0.6065 0.4058 -0.1923
C36 C 0.7460(2) 0.3795(3) -0.1225(2)
C37 C 0.8037(3) 0.3906(3) -0.2092(3)
C38 C 0.7927(3) 0.4019(4) -0.3811(3)
H26 H 0.8216 0.3172 -0.3922
H27 H 0.8457 0.4668 -0.3749
H28 H 0.7440 0.4238 -0.4363
O8 O 1.00389(19) 0.5642(3) 0.9335(2)
H29 H 0.966(3) 0.530(4) 0.887(2)
H30 H 0.990(3) 0.638(3) 0.957(3)
O9 O 0.9828(2) 0.8157(3) 0.9795(2)
H31 H 1.034(2) 0.816(5) 1.019(3)
H32 H 0.949(3) 0.883(3) 0.980(4)
C39 C 0.5066(15) 0.4009(18) 0.5116(12)
H33 H 0.5162 0.4861 0.5434
H34 H 0.4371 0.3978 0.4809
Cl1 Cl 0.5191(3) 0.2836(7) 0.6032(4)
Cl2 Cl 0.5859(2) 0.3929(4) 0.4182(2)
C40? C 0.4684(14) 0.3267(12) 0.547(2)
H35? H 0.4573 0.3351 0.6163
H36? H 0.4040 0.3013 0.5106
Cl3? Cl 0.5022(9) 0.4792(8) 0.5036(10)
Cl4? Cl 0.5548(6) 0.2017(7) 0.5354(7)
loop_
_geom_bond_atom_site_label_1
_geom_bond_atom_site_label_2
_geom_bond_site_symmetry_1
_geom_bond_site_symmetry_2
O1 C7 1_555 1_555
O2 C13 1_555 1_555
O3 C19 1_555 1_555
O4 C25 1_555 1_555
O5 C31 1_555 1_555
O6 C37 1_555 1_555
O7 C37 1_555 1_555
N1 H1 1_555 1_555
N2 C8 1_555 1_555
N3 H2 1_555 1_555
N4 C14 1_555 1_555
N5 H3 1_555 1_555
N6 C20 1_555 1_555
N7 H4 1_555 1_555
N8 C26 1_555 1_555
N9 H5 1_555 1_555
N10 C32 1_555 1_555
C1 C2 1_555 1_555
C2 H6 1_555 1_555
C3 C2 1_555 1_555
H7 C3 1_555 1_555
C4 C3 1_555 1_555
H8 C4 1_555 1_555
C5 C4 1_555 1_555
H9 C5 1_555 1_555
C6 C1 1_555 1_555
H10 C6 1_555 1_555
C7 N1 1_555 1_555
C8 N1 1_555 1_555
C9 C8 1_555 1_555
H11 C9 1_555 1_555
C10 C9 1_555 1_555
H12 C10 1_555 1_555
C11 C10 1_555 1_555
H13 C11 1_555 1_555
C12 N2 1_555 1_555
C13 N3 1_555 1_555
C14 N3 1_555 1_555
C15 C14 1_555 1_555
H14 C15 1_555 1_555
C16 C15 1_555 1_555
H15 C16 1_555 1_555
C17 C16 1_555 1_555
H16 C17 1_555 1_555
C18 N4 1_555 1_555
C19 N5 1_555 1_555
C20 N5 1_555 1_555
C21 C20 1_555 1_555
H17 C21 1_555 1_555
C22 C21 1_555 1_555
H18 C22 1_555 1_555
C23 C22 1_555 1_555
H19 C23 1_555 1_555
C24 N6 1_555 1_555
C25 N7 1_555 1_555
C26 N7 1_555 1_555
C27 C26 1_555 1_555
H20 C27 1_555 1_555
C28 C27 1_555 1_555
H21 C28 1_555 1_555
C29 C28 1_555 1_555
H22 C29 1_555 1_555
C30 N8 1_555 1_555
C31 N9 1_555 1_555
C32 N9 1_555 1_555
C33 C32 1_555 1_555
H23 C33 1_555 1_555
C34 C33 1_555 1_555
H24 C34 1_555 1_555
C35 C34 1_555 1_555
H25 C35 1_555 1_555
C36 N10 1_555 1_555
C37 C36 1_555 1_555
C38 O7 1_555 1_555
H26 C38 1_555 1_555
H27 C38 1_555 1_555
H28 C38 1_555 1_555
O8 H29 1_555 1_555
H30 O8 1_555 1_555
O9 H31 1_555 1_555
H32 O9 1_555 1_555
C39 H33 1_555 1_555
H34 C39 1_555 1_555
Cl1 C39 1_555 1_555
Cl2 C39 1_555 1_555
C1 C7 1_555 1_555
C5 C6 1_555 1_555
C11 C12 1_555 1_555
C12 C13 1_555 1_555
C17 C18 1_555 1_555
C18 C19 1_555 1_555
C23 C24 1_555 1_555
C24 C25 1_555 1_555
C29 C30 1_555 1_555
C30 C31 1_555 1_555
C35 C36 1_555 1_555

#END
