
#######################################################################
#
#                 Cambridge Crystallographic Data Centre
#                                CCDC 
#
#######################################################################
#
# If this CIF has been generated from an entry in the Cambridge 
# Structural Database, then it will include bibliographic, chemical, 
# crystal, experimental, refinement or atomic coordinate data resulting 
# from the CCDC's data processing and validation procedures.
#
#######################################################################

data_KURBUV
_chemical_name_common            
'1H-Imidazol-3-ium 4-carboxy-2,3,5,6-tetrafluorobenzoate'
_chemical_formula_moiety         'C3 H5 N2 1+,C8 H1 F4 O4 1-'
_chemical_name_systematic        
'Imidazolium hydrogen-2,3,5,6-tetrafluoroterephthalate'
_symmetry_cell_setting           orthorhombic
_symmetry_space_group_name_H-M   'P n a 21'
_symmetry_Int_Tables_number      33
_space_group_name_Hall           'P 2c -2n'
loop_
_symmetry_equiv_pos_site_id
_symmetry_equiv_pos_as_xyz
1 x,y,z
2 -x,-y,1/2+z
3 1/2+x,1/2-y,z
4 1/2-x,1/2+y,1/2+z
_cell_length_a                   9.716(3)
_cell_length_b                   7.229(3)
_cell_length_c                   17.406(6)
_cell_angle_alpha                90
_cell_angle_beta                 90
_cell_angle_gamma                90
_cell_volume                     1222.54
_exptl_crystal_colour            colorless
_exptl_crystal_description       block
_cell_formula_units_Z            4
loop_
_atom_site_label
_atom_site_type_symbol
_atom_site_fract_x
_atom_site_fract_y
_atom_site_fract_z
F1 F 0.42776(14) 0.5920(2) -0.07757(7)
F2 F 0.69164(13) 0.6496(2) -0.04859(8)
F3 F 0.36969(12) 0.3520(2) 0.17285(7)
F4 F 0.63344(13) 0.4084(2) 0.20130(8)
O1 O 0.20150(16) 0.3642(2) -0.02812(8)
O2 O 0.15456(14) 0.5081(2) 0.08150(8)
O3 O 0.90284(14) 0.4847(2) 0.04279(10)
H1 H 0.9832 0.4958 0.0564
O4 O 0.85978(15) 0.6410(3) 0.15075(9)
C1 C 0.38844(19) 0.4724(3) 0.04701(12)
C2 C 0.4755(2) 0.5446(3) -0.00816(11)
C3 C 0.6137(2) 0.5735(3) 0.00650(12)
C4 C 0.6716(2) 0.5305(3) 0.07715(12)
C5 C 0.5845(2) 0.4576(3) 0.13208(12)
C6 C 0.4463(2) 0.4288(3) 0.11741(12)
C7 C 0.23534(19) 0.4443(3) 0.03141(11)
C8 C 0.8223(2) 0.5593(3) 0.09441(12)
N1 N 0.1433(2) 0.5881(3) 0.24288(12)
H2 H 0.1559 0.5844 0.1940
N2 N 0.1630(2) 0.6764(3) 0.35864(12)
H3 H 0.1944 0.7350 0.3979
C9 C 0.2114(3) 0.6965(4) 0.28898(14)
H4 H 0.2828 0.7751 0.2748
C10 C 0.0465(3) 0.4950(4) 0.28392(15)
H5 H -0.0160 0.4090 0.2649
C11 C 0.0584(3) 0.5505(4) 0.35669(15)
H6 H 0.0056 0.5110 0.3981
loop_
_geom_bond_atom_site_label_1
_geom_bond_atom_site_label_2
_geom_bond_site_symmetry_1
_geom_bond_site_symmetry_2
F1 C2 1_555 1_555
F2 C3 1_555 1_555
F3 C6 1_555 1_555
F4 C5 1_555 1_555
O1 C7 1_555 1_555
O2 C7 1_555 1_555
O3 H1 1_555 1_555
O4 C8 1_555 1_555
C1 C2 1_555 1_555
C2 C3 1_555 1_555
C3 C4 1_555 1_555
C4 C5 1_555 1_555
C5 C6 1_555 1_555
C6 C1 1_555 1_555
C7 C1 1_555 1_555
C8 O3 1_555 1_555
N1 H2 1_555 1_555
N2 H3 1_555 1_555
C9 N1 1_555 1_555
H4 C9 1_555 1_555
C10 N1 1_555 1_555
H5 C10 1_555 1_555
C11 N2 1_555 1_555
H6 C11 1_555 1_555
C4 C8 1_555 1_555
N2 C9 1_555 1_555
C10 C11 1_555 1_555

#END
