
#######################################################################
#
#                 Cambridge Crystallographic Data Centre
#                                CCDC 
#
#######################################################################
#
# If this CIF has been generated from an entry in the Cambridge 
# Structural Database, then it will include bibliographic, chemical, 
# crystal, experimental, refinement or atomic coordinate data resulting 
# from the CCDC's data processing and validation procedures.
#
#######################################################################

data_KUTDIO
_chemical_formula_moiety         'C9 H13 N1 O6'
_chemical_name_systematic        
'7-methoxy-7,7a-dimethyl-5-oxotetrahydro[1,3]oxazolo[4,3-b][1,3]oxazole-3-carboxylic acid'
_symmetry_cell_setting           monoclinic
_symmetry_space_group_name_H-M   'P 21'
_symmetry_Int_Tables_number      4
_space_group_name_Hall           'P 2yb'
loop_
_symmetry_equiv_pos_site_id
_symmetry_equiv_pos_as_xyz
1 x,y,z
2 -x,1/2+y,-z
_cell_length_a                   6.801
_cell_length_b                   11.467
_cell_length_c                   6.882
_cell_angle_alpha                90
_cell_angle_beta                 94.28
_cell_angle_gamma                90
_cell_volume                     535.21
_exptl_crystal_colour            colorless
_exptl_crystal_description       prism
_cell_formula_units_Z            2
loop_
_atom_site_label
_atom_site_type_symbol
_atom_site_fract_x
_atom_site_fract_y
_atom_site_fract_z
O1 O 0.63464(15) 0.11035(9) 0.81325(16)
O2 O 0.5832(2) 0.30717(14) 0.33722(16)
O3 O 0.35360(18) 0.42908(11) 0.9378(2)
H1 H 0.3565 0.4859 1.0102
O4 O 0.78324(18) 0.15636(11) 0.41536(16)
O5 O 1.08647(16) 0.15436(12) 0.58728(16)
N1 N 0.70497(18) 0.27736(10) 0.65669(16)
O6 O 0.67656(19) 0.46803(11) 0.92045(19)
C1 C 0.8952(2) 0.11276(14) 0.5897(2)
C2 C 0.7997(2) 0.17722(12) 0.7561(2)
C3 C 0.5232(2) 0.30314(13) 0.7486(2)
H2 H 0.4143 0.3114 0.6479
C4 C 1.2003(3) 0.1056(2) 0.4385(3)
H3 H 1.3297 0.1396 0.4478
H4 H 1.1361 0.1221 0.3125
H5 H 1.2108 0.0227 0.4561
C5 C 0.6814(2) 0.25218(15) 0.4581(2)
C6 C 0.4898(2) 0.19226(13) 0.8726(2)
H6 H 0.5103 0.2092 1.0107
H7 H 0.3574 0.1621 0.8453
C7 C 0.5331(3) 0.41071(13) 0.8775(2)
C8 C 0.9382(2) 0.20900(17) 0.9309(2)
H8 H 1.0468 0.2534 0.8886
H9 H 0.9870 0.1391 0.9943
H10 H 0.8685 0.2546 1.0204
C9 C 0.8782(3) -0.01900(16) 0.5941(3)
H11 H 0.7420 -0.0407 0.5958
H12 H 0.9504 -0.0486 0.7088
H13 H 0.9314 -0.0512 0.4804
loop_
_geom_bond_atom_site_label_1
_geom_bond_atom_site_label_2
_geom_bond_site_symmetry_1
_geom_bond_site_symmetry_2
O1 C2 1_555 1_555
O2 C5 1_555 1_555
O3 H1 1_555 1_555
O4 C1 1_555 1_555
O5 C1 1_555 1_555
N1 C2 1_555 1_555
O6 C7 1_555 1_555
C1 C2 1_555 1_555
C2 C8 1_555 1_555
C3 N1 1_555 1_555
H2 C3 1_555 1_555
C4 O5 1_555 1_555
H3 C4 1_555 1_555
H4 C4 1_555 1_555
H5 C4 1_555 1_555
C5 O4 1_555 1_555
C6 O1 1_555 1_555
H6 C6 1_555 1_555
H7 C6 1_555 1_555
C7 O3 1_555 1_555
C8 H8 1_555 1_555
H9 C8 1_555 1_555
H10 C8 1_555 1_555
C9 C1 1_555 1_555
H11 C9 1_555 1_555
H12 C9 1_555 1_555
H13 C9 1_555 1_555
N1 C5 1_555 1_555
C3 C6 1_555 1_555
C3 C7 1_555 1_555

#END
