
#######################################################################
#
#                 Cambridge Crystallographic Data Centre
#                                CCDC 
#
#######################################################################
#
# If this CIF has been generated from an entry in the Cambridge 
# Structural Database, then it will include bibliographic, chemical, 
# crystal, experimental, refinement or atomic coordinate data resulting 
# from the CCDC's data processing and validation procedures.
#
#######################################################################

data_KUTDEK
_chemical_formula_moiety         'C13 H21 N1 O6'
_chemical_name_systematic        
't-butyl 2-(4-hydroxy-5-methoxy-4,5-dimethyl-2-oxo-1,3-oxazolidin-3-yl)acrylate'
_symmetry_cell_setting           monoclinic
_symmetry_space_group_name_H-M   'P 21'
_symmetry_Int_Tables_number      4
_space_group_name_Hall           'P 2yb'
loop_
_symmetry_equiv_pos_site_id
_symmetry_equiv_pos_as_xyz
1 x,y,z
2 -x,1/2+y,-z
_cell_length_a                   6.4895(4)
_cell_length_b                   12.4868(12)
_cell_length_c                   10.0658(9)
_cell_angle_alpha                90
_cell_angle_beta                 106.939(5)
_cell_angle_gamma                90
_cell_volume                     780.276
_exptl_crystal_colour            colorless
_exptl_crystal_description       prism
_chemical_melting_point          '359 K'
_cell_formula_units_Z            2
loop_
_atom_site_label
_atom_site_type_symbol
_atom_site_fract_x
_atom_site_fract_y
_atom_site_fract_z
O1 O 0.1289(3) 0.04358(19) -0.3489(2)
O2 O 0.4377(3) 0.03133(17) 0.0459(2)
O3 O 0.5029(4) 0.12036(16) -0.1316(2)
O4 O 0.5827(3) -0.19692(18) -0.0055(2)
O5 O 0.1206(3) -0.0577(2) 0.0281(2)
N1 N 0.4164(4) -0.0584(2) -0.1468(2)
O6 O 0.2850(4) -0.0041(2) -0.5140(2)
C1 C 0.3409(5) -0.0710(2) 0.0619(3)
C2 C 0.2042(6) -0.2173(3) -0.1223(4)
H1 H 0.0724 -0.1774 -0.1539
H2 H 0.1904 -0.2703 -0.0563
H3 H 0.2336 -0.2519 -0.2000
C3 C 0.3868(5) -0.1421(2) -0.0542(3)
C4 C 0.4196(5) -0.0754(3) -0.2861(3)
C5 C 0.4549(5) 0.0378(3) -0.0849(3)
C6 C 0.4471(6) -0.1093(3) 0.2078(3)
C7 C 0.2697(5) -0.0076(3) -0.3967(3)
C8 C 0.5355(6) -0.1507(3) -0.3206(4)
H4 H 0.6203 -0.1956 -0.2527
H5 H 0.5329 -0.1591 -0.4128
C9 C -0.1854(6) 0.0707(4) -0.5485(4)
H6 H -0.1177 0.0410 -0.6133
H7 H -0.2926 0.1218 -0.5953
H8 H -0.2525 0.0144 -0.5111
C10 C -0.0196(5) 0.1251(3) -0.4332(3)
C11 C 0.1080(6) 0.2093(4) -0.4838(5)
H9 H 0.2109 0.2416 -0.4056
H10 H 0.0117 0.2633 -0.5349
H11 H 0.1821 0.1765 -0.5430
C12 C 0.0435(7) 0.0088(4) 0.1185(5)
H12 H -0.1108 0.0127 0.0855
H13 H 0.1030 0.0794 0.1203
H14 H 0.0864 -0.0208 0.2105
C13 C -0.1204(7) 0.1716(5) -0.3286(4)
H15 H -0.0114 0.2062 -0.2558
H16 H -0.1858 0.1153 -0.2900
H17 H -0.2282 0.2230 -0.3736
H18 H 0.5592 -0.2602 0.0065
H19 H 0.5993 -0.1162 0.2221
H20 H 0.3882 -0.1775 0.2215
H21 H 0.4214 -0.0584 0.2728
loop_
_geom_bond_atom_site_label_1
_geom_bond_atom_site_label_2
_geom_bond_site_symmetry_1
_geom_bond_site_symmetry_2
O1 C7 1_555 1_555
O2 C1 1_555 1_555
O3 C5 1_555 1_555
O4 C3 1_555 1_555
O5 C1 1_555 1_555
N1 C3 1_555 1_555
O6 C7 1_555 1_555
C1 C3 1_555 1_555
C2 H1 1_555 1_555
H2 C2 1_555 1_555
H3 C2 1_555 1_555
C3 C2 1_555 1_555
C4 N1 1_555 1_555
C5 O2 1_555 1_555
C6 C1 1_555 1_555
C7 C4 1_555 1_555
C8 C4 1_555 1_555
H4 C8 1_555 1_555
H5 C8 1_555 1_555
C9 H6 1_555 1_555
H7 C9 1_555 1_555
H8 C9 1_555 1_555
C10 O1 1_555 1_555
C11 C10 1_555 1_555
H9 C11 1_555 1_555
H10 C11 1_555 1_555
H11 C11 1_555 1_555
C12 O5 1_555 1_555
H12 C12 1_555 1_555
H13 C12 1_555 1_555
H14 C12 1_555 1_555
C13 C10 1_555 1_555
H15 C13 1_555 1_555
H16 C13 1_555 1_555
H17 C13 1_555 1_555
H18 O4 1_555 1_555
H19 C6 1_555 1_555
H20 C6 1_555 1_555
H21 C6 1_555 1_555
N1 C5 1_555 1_555
C9 C10 1_555 1_555

#END
