
#######################################################################
#
#                 Cambridge Crystallographic Data Centre
#                                CCDC 
#
#######################################################################
#
# If this CIF has been generated from an entry in the Cambridge 
# Structural Database, then it will include bibliographic, chemical, 
# crystal, experimental, refinement or atomic coordinate data resulting 
# from the CCDC's data processing and validation procedures.
#
#######################################################################

data_KUTPUM
_chemical_formula_moiety         'C24 H30 N1 O3 1+,C6 H5 O3 S1 1-'
_chemical_name_systematic        
'1-benzyl-4-((5,6-dimethoxy-1-oxo-2,3-dihydro-1H-inden-2-yl)methyl)piperidinium benzenesulfonate'
_symmetry_cell_setting           monoclinic
_symmetry_space_group_name_H-M   'P 21/n'
_symmetry_Int_Tables_number      14
_space_group_name_Hall           '-P 2yn'
loop_
_symmetry_equiv_pos_site_id
_symmetry_equiv_pos_as_xyz
1 x,y,z
2 1/2-x,1/2+y,1/2-z
3 -x,-y,-z
4 1/2+x,1/2-y,1/2+z
_cell_length_a                   8.2183(8)
_cell_length_b                   12.4764(12)
_cell_length_c                   27.310(3)
_cell_angle_alpha                90
_cell_angle_beta                 90.638(7)
_cell_angle_gamma                90
_cell_volume                     2800.05
_exptl_crystal_colour            colorless
_exptl_crystal_description       Needle
_cell_formula_units_Z            4
loop_
_atom_site_label
_atom_site_type_symbol
_atom_site_fract_x
_atom_site_fract_y
_atom_site_fract_z
S1 S 0.61241(17) 0.20003(12) 0.27587(6)
O1 O 0.5106(4) 0.1182(3) 0.29807(15)
O2 O 0.7625(4) 0.2207(3) 0.30265(14)
O3 O 0.5198(4) 0.2978(3) 0.26554(14)
C1 C 0.6710(6) 0.1493(4) 0.2184(2)
C2 C 0.7430(7) 0.0470(5) 0.2155(3)
H1 H 0.7564 0.0054 0.2435
C3 C 0.7932(8) 0.0093(5) 0.1710(3)
H2 H 0.8405 -0.0582 0.1690
C4 C 0.7752(8) 0.0689(7) 0.1297(3)
H3 H 0.8107 0.0424 0.0999
C5 C 0.7037(8) 0.1696(6) 0.1321(3)
H4 H 0.6907 0.2102 0.1038
C6 C 0.6516(6) 0.2097(5) 0.1764(3)
H5 H 0.6038 0.2771 0.1780
N1 N 0.1899(5) 0.2551(3) 0.27894(16)
H6 H 0.307(6) 0.261(4) 0.2770(16)
C7 C 0.1154(6) 0.3522(4) 0.25667(17)
H7 H 0.1499 0.4149 0.2750
H8 H -0.0021 0.3471 0.2587
C8 C 0.1630(6) 0.3654(4) 0.20346(17)
H9 H 0.1081 0.4277 0.1899
H10 H 0.2793 0.3779 0.2017
C9 C 0.1196(6) 0.2681(4) 0.17313(19)
H11 H 0.0008 0.2616 0.1730
C10 C 0.1884(6) 0.1678(4) 0.1973(2)
H12 H 0.1490 0.1054 0.1797
H13 H 0.3061 0.1689 0.1948
C11 C 0.1440(6) 0.1570(4) 0.2500(2)
H14 H 0.1991 0.0951 0.2639
H15 H 0.0277 0.1451 0.2524
C12 C 0.1479(6) 0.2397(4) 0.33225(19)
H16 H 0.0304 0.2363 0.3349
H17 H 0.1911 0.1711 0.3430
C13 C 0.2103(7) 0.3252(4) 0.3664(2)
C14 C 0.3588(7) 0.3141(5) 0.3889(2)
H18 H 0.4246 0.2559 0.3812
C15 C 0.4119(9) 0.3884(6) 0.4230(3)
H19 H 0.5106 0.3784 0.4394
C16 C 0.3189(12) 0.4765(6) 0.4326(3)
H20 H 0.3560 0.5279 0.4547
C17 C 0.1702(12) 0.4894(6) 0.4095(3)
H21 H 0.1062 0.5490 0.4162
C18 C 0.1176(8) 0.4139(5) 0.3768(2)
H22 H 0.0173 0.4227 0.3612
C19 C 0.1736(7) 0.2723(4) 0.1200(2)
H23 H 0.2913 0.2777 0.1197
H24 H 0.1448 0.2047 0.1046
C20 C 0.1044(7) 0.3624(4) 0.08853(19)
H25 H -0.0120 0.3686 0.0954
C21 C 0.1822(7) 0.4732(4) 0.09582(19)
H26 H 0.1048 0.5232 0.1096
H27 H 0.2765 0.4687 0.1174
C22 C 0.2304(7) 0.5071(5) 0.04543(19)
C23 C 0.3126(7) 0.6004(4) 0.03273(19)
H28 H 0.3378 0.6516 0.0564
C24 C 0.3562(7) 0.6160(5) -0.0152(2)
C25 C 0.3189(7) 0.5387(5) -0.0516(2)
C26 C 0.2392(7) 0.4477(5) -0.0384(2)
H29 H 0.2127 0.3966 -0.0620
C27 C 0.1972(7) 0.4311(4) 0.0106(2)
C28 C 0.1231(8) 0.3388(5) 0.0339(2)
O4 O 0.4384(6) 0.7028(3) -0.03228(13)
C29 C 0.4793(10) 0.7855(5) 0.0025(2)
H30 H 0.5370 0.8419 -0.0138
H31 H 0.5468 0.7560 0.0280
H32 H 0.3815 0.8137 0.0163
O5 O 0.3683(5) 0.5639(3) -0.09761(14)
C30 C 0.3345(9) 0.4878(5) -0.1353(2)
H33 H 0.3746 0.5143 -0.1659
H34 H 0.2192 0.4767 -0.1379
H35 H 0.3871 0.4212 -0.1275
O6 O 0.0881(6) 0.2540(4) 0.01457(16)
loop_
_geom_bond_atom_site_label_1
_geom_bond_atom_site_label_2
_geom_bond_site_symmetry_1
_geom_bond_site_symmetry_2
S1 O1 1_555 1_555
O2 S1 1_555 1_555
O3 S1 1_555 1_555
C1 S1 1_555 1_555
C2 C1 1_555 1_555
H1 C2 1_555 1_555
C3 C2 1_555 1_555
H2 C3 1_555 1_555
C4 C3 1_555 1_555
H3 C4 1_555 1_555
C5 C4 1_555 1_555
H4 C5 1_555 1_555
C6 C1 1_555 1_555
H5 C6 1_555 1_555
N1 H6 1_555 1_555
C7 N1 1_555 1_555
H7 C7 1_555 1_555
H8 C7 1_555 1_555
C8 C7 1_555 1_555
H9 C8 1_555 1_555
H10 C8 1_555 1_555
C9 C8 1_555 1_555
H11 C9 1_555 1_555
C10 C9 1_555 1_555
H12 C10 1_555 1_555
H13 C10 1_555 1_555
C11 N1 1_555 1_555
H14 C11 1_555 1_555
H15 C11 1_555 1_555
C12 N1 1_555 1_555
H16 C12 1_555 1_555
H17 C12 1_555 1_555
C13 C12 1_555 1_555
C14 C13 1_555 1_555
H18 C14 1_555 1_555
C15 C14 1_555 1_555
H19 C15 1_555 1_555
C16 C15 1_555 1_555
H20 C16 1_555 1_555
C17 C16 1_555 1_555
H21 C17 1_555 1_555
C18 C13 1_555 1_555
H22 C18 1_555 1_555
C19 C9 1_555 1_555
H23 C19 1_555 1_555
H24 C19 1_555 1_555
C20 C19 1_555 1_555
H25 C20 1_555 1_555
C21 C20 1_555 1_555
H26 C21 1_555 1_555
H27 C21 1_555 1_555
C22 C21 1_555 1_555
C23 C22 1_555 1_555
H28 C23 1_555 1_555
C24 C23 1_555 1_555
C25 C24 1_555 1_555
C26 C25 1_555 1_555
H29 C26 1_555 1_555
C27 C22 1_555 1_555
C28 C20 1_555 1_555
O4 C24 1_555 1_555
C29 O4 1_555 1_555
H30 C29 1_555 1_555
H31 C29 1_555 1_555
H32 C29 1_555 1_555
O5 C25 1_555 1_555
C30 O5 1_555 1_555
H33 C30 1_555 1_555
H34 C30 1_555 1_555
H35 C30 1_555 1_555
O6 C28 1_555 1_555
C5 C6 1_555 1_555
C10 C11 1_555 1_555
C17 C18 1_555 1_555
C26 C27 1_555 1_555
C27 C28 1_555 1_555

#END
