
#######################################################################
#
#                 Cambridge Crystallographic Data Centre
#                                CCDC 
#
#######################################################################
#
# If this CIF has been generated from an entry in the Cambridge 
# Structural Database, then it will include bibliographic, chemical, 
# crystal, experimental, refinement or atomic coordinate data resulting 
# from the CCDC's data processing and validation procedures.
#
#######################################################################

data_KUTQIB01
_chemical_formula_moiety         'C22 H16 O6 S2 2-,2(C1 H6 N3 1+)'
_chemical_name_systematic        
"bis(diaminomethaniminium) 2,2'-(1,4-phenylenediethene-2,1-diyl)dibenzenesulfonate"
_symmetry_cell_setting           orthorhombic
_symmetry_space_group_name_H-M   'P c a 21'
_symmetry_Int_Tables_number      29
_space_group_name_Hall           'P 2c -2ac'
loop_
_symmetry_equiv_pos_site_id
_symmetry_equiv_pos_as_xyz
1 x,y,z
2 -x,-y,1/2+z
3 1/2+x,-y,z
4 1/2-x,y,1/2+z
_cell_length_a                   21.7900(10)
_cell_length_b                   7.5850(3)
_cell_length_c                   16.3519(7)
_cell_angle_alpha                90
_cell_angle_beta                 90
_cell_angle_gamma                90
_cell_volume                     2702.6
_exptl_crystal_colour            colorless
_exptl_crystal_description       plate
_cell_formula_units_Z            4
loop_
_atom_site_label
_atom_site_type_symbol
_atom_site_fract_x
_atom_site_fract_y
_atom_site_fract_z
S1 S 0.23502(4) 0.93582(10) 0.64648(6)
S2 S 0.51328(4) -0.45478(11) 0.34971(6)
O1 O 0.20671(11) 0.7759(3) 0.67957(15)
O2 O 0.30148(11) 0.9352(3) 0.65439(17)
O3 O 0.20720(13) 1.0940(3) 0.68183(17)
O4 O 0.44675(11) -0.4607(3) 0.34025(18)
O5 O 0.53951(12) -0.2897(3) 0.31846(17)
O6 O 0.54328(12) -0.6080(3) 0.31204(17)
C1 C 0.21562(15) 0.9401(4) 0.5406(2)
C2 C 0.23922(14) 0.8147(4) 0.4847(2)
C3 C 0.21817(16) 0.8260(4) 0.4037(2)
H1 H 0.2338 0.7459 0.3642
C4 C 0.17535(19) 0.9504(5) 0.3796(3)
H2 H 0.1621 0.9541 0.3243
C5 C 0.15167(16) 1.0699(4) 0.4359(2)
H3 H 0.1217 1.1539 0.4196
C6 C 0.17245(16) 1.0644(4) 0.5163(2)
H4 H 0.1570 1.1466 0.5550
C7 C 0.28434(14) 0.6772(4) 0.5069(2)
H5 H 0.3131 0.7020 0.5490
C8 C 0.28654(18) 0.5192(4) 0.4703(3)
H6 H 0.2560 0.4959 0.4303
C9 C 0.33150(14) 0.3780(4) 0.4858(2)
C10 C 0.32369(15) 0.2138(4) 0.4478(2)
H7 H 0.2895 0.1966 0.4126
C11 C 0.36421(15) 0.0767(4) 0.4600(2)
H8 H 0.3576 -0.0326 0.4330
C12 C 0.41508(15) 0.0967(4) 0.5116(2)
C13 C 0.42281(15) 0.2599(4) 0.5505(2)
H9 H 0.4565 0.2765 0.5865
C14 C 0.38201(14) 0.3980(4) 0.5373(2)
H10 H 0.3887 0.5078 0.5638
C15 C 0.45959(16) -0.0441(4) 0.5276(2)
H11 H 0.4891 -0.0222 0.5692
C16 C 0.46304(15) -0.2009(4) 0.4896(2)
H12 H 0.4352 -0.2239 0.4462
C17 C 0.50776(14) -0.3395(4) 0.5118(2)
C18 C 0.53173(15) -0.4621(4) 0.4553(2)
C19 C 0.57328(16) -0.5914(4) 0.4800(2)
H13 H 0.5891 -0.6722 0.4409
C20 C 0.59168(17) -0.6032(4) 0.5608(2)
H14 H 0.6202 -0.6910 0.5773
C21 C 0.5680(2) -0.4853(5) 0.6171(3)
H15 H 0.5805 -0.4923 0.6726
C22 C 0.52634(15) -0.3572(4) 0.5936(2)
H16 H 0.5100 -0.2796 0.6336
N1 N 0.25881(14) 1.4345(4) 0.6815(2)
H17 H 0.2402 1.5341 0.6694
H18 H 0.2409 1.3332 0.6707
N2 N 0.34047(15) 1.5903(4) 0.7317(2)
H19 H 0.3769 1.5934 0.7549
H20 H 0.3216 1.6892 0.7189
N3 N 0.34176(15) 1.2866(4) 0.7347(2)
H21 H 0.3782 1.2879 0.7579
H22 H 0.3237 1.1855 0.7238
C23 C 0.31407(18) 1.4371(4) 0.7159(2)
N4 N 0.40871(17) 1.8890(4) 0.2637(2)
H23 H 0.4293 1.7913 0.2730
H24 H 0.3718 1.8840 0.2421
N5 N 0.48886(15) 2.0525(4) 0.3149(2)
H25 H 0.5054 2.1555 0.3263
H26 H 0.5093 1.9548 0.3251
N6 N 0.40275(15) 2.1919(4) 0.2671(2)
H27 H 0.4194 2.2947 0.2786
H28 H 0.3658 2.1869 0.2454
C24 C 0.43340(19) 2.0443(5) 0.2824(2)
S3? S 0.2332(8) 1.0627(19) 0.6537(15)
O7? O 0.2083(16) 1.214(5) 0.672(2)
O8? O 0.3004(17) 1.052(5) 0.651(3)
O9? O 0.2071(18) 0.875(5) 0.677(2)
S4? S 0.5181(8) 2.436(2) 0.3461(16)
O10? O 0.444(2) 2.442(5) 0.334(3)
O11? O 0.5432(18) 2.280(5) 0.308(2)
O12? O 0.5424(18) 2.615(5) 0.303(3)
C25? C 0.2205(17) 1.052(5) 0.545(2)
C26? C 0.2422(14) 1.167(4) 0.486(3)
C27? C 0.2182(17) 1.162(4) 0.407(2)
H29? H 0.2331 1.2405 0.3662
C28? C 0.1726(18) 1.041(5) 0.387(2)
H30? H 0.1562 1.0368 0.3336
C29? C 0.1509(15) 0.925(4) 0.447(3)
H31? H 0.1197 0.8426 0.4336
C30? C 0.1749(17) 0.931(4) 0.526(2)
H32? H 0.1600 0.8521 0.5661
C31? C 0.288(2) 1.303(5) 0.510(4)
H33? H 0.3166 1.2752 0.5511
C32? C 0.289(3) 1.466(6) 0.475(5)
H34? H 0.2554 1.4948 0.4414
C33? C 0.3364(14) 1.607(3) 0.483(2)
C34? C 0.3858(15) 1.585(3) 0.536(2)
H35? H 0.3920 1.4749 0.5624
C35? C 0.4260(14) 1.724(4) 0.550(2)
H36? H 0.4597 1.7088 0.5863
C36? C 0.4168(15) 1.885(3) 0.512(2)
C37? C 0.3675(16) 1.907(3) 0.459(2)
H37? H 0.3612 2.0173 0.4323
C38? C 0.3273(14) 1.768(4) 0.444(2)
H38? H 0.2936 1.7834 0.4083
C39? C 0.459(3) 2.036(5) 0.525(4)
H39? H 0.4846 2.0208 0.5716
C40? C 0.468(2) 2.192(4) 0.486(3)
H40? H 0.4447 2.2153 0.4384
C41? C 0.5128(15) 2.328(4) 0.514(2)
C42? C 0.5369(18) 2.446(4) 0.4570(19)
C43? C 0.5775(17) 2.576(4) 0.482(2)
H41? H 0.5940 2.6570 0.4436
C44? C 0.5940(16) 2.589(4) 0.564(2)
H42? H 0.6217 2.6782 0.5816
C45? C 0.570(2) 2.471(5) 0.621(2)
H43? H 0.5810 2.4798 0.6768
C46? C 0.5292(17) 2.341(4) 0.596(2)
H44? H 0.5127 2.2603 0.6342
N7? N 0.2559(17) 0.562(5) 0.685(4)
H45? H 0.2404 0.6658 0.6735
H46? H 0.2335 0.4661 0.6789
N8? N 0.338(2) 0.389(5) 0.726(4)
H47? H 0.3761 0.3785 0.7414
H48? H 0.3147 0.2945 0.7197
N9? N 0.3475(19) 0.694(5) 0.721(3)
H49? H 0.3861 0.6856 0.7368
H50? H 0.3311 0.7978 0.7122
C47? C 0.3139(16) 0.549(5) 0.712(3)
N10? N 0.4097(19) 0.111(4) 0.264(4)
H51? H 0.3727 0.1175 0.2423
H52? H 0.4303 0.2086 0.2742
N11? N 0.4903(15) -0.053(5) 0.315(3)
H53? H 0.5103 0.0448 0.3264
H54? H 0.5069 -0.1559 0.3263
N12? N 0.4041(18) -0.194(4) 0.265(3)
H55? H 0.3671 -0.1899 0.2438
H56? H 0.4211 -0.2962 0.2767
C48? C 0.4344(14) -0.045(4) 0.281(3)
loop_
_geom_bond_atom_site_label_1
_geom_bond_atom_site_label_2
_geom_bond_site_symmetry_1
_geom_bond_site_symmetry_2
S1 O1 1_555 1_555
S2 O4 1_555 1_555
O2 S1 1_555 1_555
O3 S1 1_555 1_555
O5 S2 1_555 1_555
O6 S2 1_555 1_555
C1 S1 1_555 1_555
C2 C1 1_555 1_555
C3 C2 1_555 1_555
H1 C3 1_555 1_555
C4 C3 1_555 1_555
H2 C4 1_555 1_555
C5 C4 1_555 1_555
H3 C5 1_555 1_555
C6 C1 1_555 1_555
H4 C6 1_555 1_555
C7 C2 1_555 1_555
H5 C7 1_555 1_555
C8 C7 1_555 1_555
H6 C8 1_555 1_555
C9 C8 1_555 1_555
C10 C9 1_555 1_555
H7 C10 1_555 1_555
C11 C10 1_555 1_555
H8 C11 1_555 1_555
C12 C11 1_555 1_555
C13 C12 1_555 1_555
H9 C13 1_555 1_555
C14 C9 1_555 1_555
H10 C14 1_555 1_555
C15 C12 1_555 1_555
H11 C15 1_555 1_555
C16 C15 1_555 1_555
H12 C16 1_555 1_555
C17 C16 1_555 1_555
C18 S2 1_555 1_555
C19 C18 1_555 1_555
H13 C19 1_555 1_555
C20 C19 1_555 1_555
H14 C20 1_555 1_555
C21 C20 1_555 1_555
H15 C21 1_555 1_555
C22 C17 1_555 1_555
H16 C22 1_555 1_555
N1 H17 1_555 1_555
H18 N1 1_555 1_555
N2 H19 1_555 1_555
H20 N2 1_555 1_555
N3 H21 1_555 1_555
H22 N3 1_555 1_555
C23 N1 1_555 1_555
N4 H23 1_555 1_555
H24 N4 1_555 1_555
N5 H25 1_555 1_555
H26 N5 1_555 1_555
N6 H27 1_555 1_555
H28 N6 1_555 1_555
C24 N4 1_555 1_555
C5 C6 1_555 1_555
C13 C14 1_555 1_555
C17 C18 1_555 1_555
C21 C22 1_555 1_555
N2 C23 1_555 1_555
N3 C23 1_555 1_555
N5 C24 1_555 1_555
N6 C24 1_555 1_555

#END
