
#######################################################################
#
#                 Cambridge Crystallographic Data Centre
#                                CCDC 
#
#######################################################################
#
# If this CIF has been generated from an entry in the Cambridge 
# Structural Database, then it will include bibliographic, chemical, 
# crystal, experimental, refinement or atomic coordinate data resulting 
# from the CCDC's data processing and validation procedures.
#
#######################################################################

data_KUTYEE
_chemical_formula_moiety         'C16 H16 N2 O3 S1'
_chemical_name_systematic        
4-[(2,4-Dimethylthiazol-5-yl)methyl]-4-hydroxy-2-methylisoquinoline-1,3(2H,4H)-dione
_symmetry_cell_setting           monoclinic
_symmetry_space_group_name_H-M   'P 21/c'
_symmetry_Int_Tables_number      14
_space_group_name_Hall           '-P 2ybc'
loop_
_symmetry_equiv_pos_site_id
_symmetry_equiv_pos_as_xyz
1 x,y,z
2 -x,1/2+y,1/2-z
3 -x,-y,-z
4 x,1/2-y,1/2+z
_cell_length_a                   10.2424(8)
_cell_length_b                   15.0438(13)
_cell_length_c                   9.4786(8)
_cell_angle_alpha                90
_cell_angle_beta                 92.839(2)
_cell_angle_gamma                90
_cell_volume                     1458.71
_exptl_crystal_colour            colorless
_exptl_crystal_description       block
_cell_formula_units_Z            4
_exptl_crystal_recrystallization_method 'acetone/petroleum ether'
loop_
_atom_site_label
_atom_site_type_symbol
_atom_site_fract_x
_atom_site_fract_y
_atom_site_fract_z
S1 S 0.86697(2) 0.201051(14) 0.69225(2)
O1 O 0.38478(7) 0.29484(4) 0.78648(8)
O2 O 0.46407(7) 0.59074(5) 0.82383(8)
O3 O 0.57054(7) 0.27421(4) 0.59312(7)
N1 N 0.42666(7) 0.44221(5) 0.81117(8)
N2 N 1.03523(7) 0.32678(5) 0.71641(8)
C1 C 0.45580(8) 0.35744(5) 0.76386(9)
C2 C 0.49293(8) 0.51881(6) 0.77347(9)
C3 C 0.59432(8) 0.50884(5) 0.66814(9)
C4 C 0.64725(9) 0.58622(6) 0.61172(10)
C5 C 0.73988(9) 0.57934(6) 0.51012(10)
C6 C 0.77833(9) 0.49566(6) 0.46357(10)
C7 C 0.72519(9) 0.41869(6) 0.51860(9)
C8 C 0.63326(8) 0.42498(5) 0.62248(8)
C9 C 0.58517(8) 0.34274(5) 0.69351(8)
C10 C 0.68361(8) 0.31399(6) 0.81709(9)
C11 C 0.81935(8) 0.29894(5) 0.77079(9)
C12 C 0.92179(8) 0.35759(6) 0.77307(9)
C13 C 1.02070(8) 0.24530(6) 0.66982(9)
C14 C 0.31069(9) 0.45045(6) 0.89534(10)
C15 C 0.92066(10) 0.45085(7) 0.82696(11)
C16 C 1.12481(9) 0.19431(6) 0.59986(11)
H1 H 0.6166(16) 0.6451(12) 0.6429(18)
H2 H 0.7767(17) 0.6330(12) 0.4682(18)
H3 H 0.8450(15) 0.4910(11) 0.3912(16)
H4 H 0.7529(14) 0.3644(11) 0.4837(16)
H5 H 0.6458(14) 0.2612(11) 0.8585(15)
H6 H 0.6861(14) 0.3595(10) 0.8887(15)
H7 H 0.2427(16) 0.4203(11) 0.8507(16)
H8 H 0.2864(18) 0.5111(13) 0.8938(19)
H9 H 0.3297(17) 0.4255(12) 0.9861(18)
H10 H 1.0023(19) 0.4647(13) 0.870(2)
H11 H 0.9089(19) 0.4918(15) 0.751(2)
H12 H 0.8533(19) 0.4625(13) 0.886(2)
H13 H 1.1181(16) 0.2067(11) 0.5008(17)
H14 H 1.2092(17) 0.2095(11) 0.6394(18)
H15 H 1.1129(18) 0.1315(14) 0.6097(19)
H16 H 0.544(2) 0.2340(15) 0.629(2)
loop_
_geom_bond_atom_site_label_1
_geom_bond_atom_site_label_2
_geom_bond_site_symmetry_1
_geom_bond_site_symmetry_2
S1 C11 1_555 1_555
O1 C1 1_555 1_555
O2 C2 1_555 1_555
O3 C9 1_555 1_555
N1 C1 1_555 1_555
N2 C12 1_555 1_555
C1 C9 1_555 1_555
C2 N1 1_555 1_555
C3 C2 1_555 1_555
C4 C3 1_555 1_555
C5 C4 1_555 1_555
C6 C5 1_555 1_555
C7 C6 1_555 1_555
C8 C3 1_555 1_555
C9 C8 1_555 1_555
C10 C9 1_555 1_555
C11 C10 1_555 1_555
C12 C11 1_555 1_555
C13 S1 1_555 1_555
C14 N1 1_555 1_555
C15 C12 1_555 1_555
C16 C13 1_555 1_555
H1 C4 1_555 1_555
H2 C5 1_555 1_555
H3 C6 1_555 1_555
H4 C7 1_555 1_555
H5 C10 1_555 1_555
H6 C10 1_555 1_555
H7 C14 1_555 1_555
H8 C14 1_555 1_555
H9 C14 1_555 1_555
H10 C15 1_555 1_555
H11 C15 1_555 1_555
H12 C15 1_555 1_555
H13 C16 1_555 1_555
H14 C16 1_555 1_555
H15 C16 1_555 1_555
H16 O3 1_555 1_555
N2 C13 1_555 1_555
C7 C8 1_555 1_555

#END
