
#######################################################################
#
#                 Cambridge Crystallographic Data Centre
#                                CCDC 
#
#######################################################################
#
# If this CIF has been generated from an entry in the Cambridge 
# Structural Database, then it will include bibliographic, chemical, 
# crystal, experimental, refinement or atomic coordinate data resulting 
# from the CCDC's data processing and validation procedures.
#
#######################################################################

data_KUVBEJ
_chemical_formula_moiety         'C14 H10 Cl1 N1 O1'
_chemical_name_systematic        (2-Chlorobenzo[h]quinolin-3-yl)methanol
_symmetry_cell_setting           monoclinic
_symmetry_space_group_name_H-M   'P 21/c'
_symmetry_Int_Tables_number      14
_space_group_name_Hall           '-P 2ybc'
loop_
_symmetry_equiv_pos_site_id
_symmetry_equiv_pos_as_xyz
1 x,y,z
2 -x,1/2+y,1/2-z
3 -x,-y,-z
4 x,1/2-y,1/2+z
_cell_length_a                   16.6953(4)
_cell_length_b                   4.61459(11)
_cell_length_c                   14.5588(3)
_cell_angle_alpha                90
_cell_angle_beta                 95.123(2)
_cell_angle_gamma                90
_cell_volume                     1117.16
_exptl_crystal_colour            colorless
_exptl_crystal_description       block
_cell_formula_units_Z            4
_exptl_crystal_recrystallization_method chloroform
loop_
_atom_site_label
_atom_site_type_symbol
_atom_site_fract_x
_atom_site_fract_y
_atom_site_fract_z
Cl1 Cl 0.38036(3) 0.30225(12) 0.55246(3)
N1 N 0.28031(8) 0.6236(3) 0.45110(8)
O1 O 0.47139(8) 0.0886(3) 0.28368(8)
H1 H 0.4911 0.2355 0.2633
C1 C 0.37487(9) 0.3556(3) 0.36689(10)
C2 C 0.33981(9) 0.4434(3) 0.44662(10)
C3 C 0.18191(9) 0.9418(4) 0.37325(11)
C4 C 0.27796(9) 0.6741(3) 0.28570(10)
C5 C 0.34176(9) 0.4759(3) 0.28642(10)
H2 H 0.3619 0.4254 0.2311
C6 C 0.24384(10) 0.8084(4) 0.20323(11)
H3 H 0.2637 0.7635 0.1472
C7 C 0.24801(9) 0.7420(3) 0.37074(10)
C8 C 0.14987(10) 1.0709(4) 0.28978(12)
C9 C 0.14771(10) 1.0095(4) 0.45516(12)
H4 H 0.1685 0.9266 0.5105
C10 C 0.18321(11) 0.9994(4) 0.20550(12)
H5 H 0.1625 1.0872 0.1510
C11 C 0.44481(9) 0.1482(4) 0.37137(11)
H6 H 0.4891 0.2296 0.4108
H7 H 0.4291 -0.0321 0.3990
C12 C 0.08499(11) 1.2661(4) 0.29225(15)
H8 H 0.0639 1.3552 0.2381
C13 C 0.05304(11) 1.3253(5) 0.37239(16)
H9 H 0.0100 1.4531 0.3726
C14 C 0.08390(12) 1.1971(5) 0.45434(15)
H10 H 0.0612 1.2386 0.5089
loop_
_geom_bond_atom_site_label_1
_geom_bond_atom_site_label_2
_geom_bond_site_symmetry_1
_geom_bond_site_symmetry_2
Cl1 C2 1_555 1_555
N1 C2 1_555 1_555
O1 H1 1_555 1_555
C1 C2 1_555 1_555
C3 C7 1_555 1_555
C4 C5 1_555 1_555
C5 C1 1_555 1_555
H2 C5 1_555 1_555
C6 C4 1_555 1_555
H3 C6 1_555 1_555
C7 N1 1_555 1_555
C8 C3 1_555 1_555
C9 C3 1_555 1_555
H4 C9 1_555 1_555
C10 C6 1_555 1_555
H5 C10 1_555 1_555
C11 O1 1_555 1_555
H6 C11 1_555 1_555
H7 C11 1_555 1_555
C12 C8 1_555 1_555
H8 C12 1_555 1_555
C13 C12 1_555 1_555
H9 C13 1_555 1_555
C14 C9 1_555 1_555
H10 C14 1_555 1_555
C1 C11 1_555 1_555
C4 C7 1_555 1_555
C8 C10 1_555 1_555
C13 C14 1_555 1_555

#END
