
#######################################################################
#
#                 Cambridge Crystallographic Data Centre
#                                CCDC 
#
#######################################################################
#
# If this CIF has been generated from an entry in the Cambridge 
# Structural Database, then it will include bibliographic, chemical, 
# crystal, experimental, refinement or atomic coordinate data resulting 
# from the CCDC's data processing and validation procedures.
#
#######################################################################

data_KUVCAG
_chemical_formula_moiety         'C8 H9 Cl1 N2'
_chemical_name_systematic        N-(4-Chlorophenyl)ethanimidamide
_symmetry_cell_setting           orthorhombic
_symmetry_space_group_name_H-M   'P b c a'
_symmetry_Int_Tables_number      61
_space_group_name_Hall           '-P 2ac 2ab'
loop_
_symmetry_equiv_pos_site_id
_symmetry_equiv_pos_as_xyz
1 x,y,z
2 1/2-x,-y,1/2+z
3 1/2+x,1/2-y,-z
4 -x,1/2+y,1/2-z
5 -x,-y,-z
6 1/2+x,y,1/2-z
7 1/2-x,1/2+y,z
8 x,1/2-y,1/2+z
_cell_length_a                   9.6460(9)
_cell_length_b                   9.0192(4)
_cell_length_c                   19.3281(5)
_cell_angle_alpha                90
_cell_angle_beta                 90
_cell_angle_gamma                90
_cell_volume                     1681.53
_exptl_crystal_colour            colorless
_exptl_crystal_description       block
_chemical_melting_point          '389-390 K'
_cell_formula_units_Z            8
loop_
_atom_site_label
_atom_site_type_symbol
_atom_site_fract_x
_atom_site_fract_y
_atom_site_fract_z
Cl1 Cl 0.43525(8) 0.20450(7) 0.43084(3)
N1 N 0.36389(19) 0.4659(2) 0.71058(10)
N2 N 0.1234(2) 0.4244(2) 0.70948(11)
H1 H 0.044(3) 0.438(3) 0.7313(13)
H2 H 0.124(3) 0.379(3) 0.6740(14)
C1 C 0.3774(2) 0.4032(3) 0.64327(12)
C2 C 0.4543(2) 0.2746(3) 0.63454(14)
H3 H 0.4938 0.2272 0.6738
C3 C 0.4741(3) 0.2144(3) 0.56933(13)
H4 H 0.5266 0.1260 0.5638
C4 C 0.4169(2) 0.2837(3) 0.51261(13)
C5 C 0.3428(3) 0.4144(3) 0.51965(12)
H5 H 0.3054 0.4627 0.4802
C6 C 0.3243(3) 0.4736(3) 0.58491(13)
H6 H 0.2745 0.5638 0.5901
C7 C 0.2408(2) 0.4770(3) 0.73731(13)
C8 C 0.2239(3) 0.5538(3) 0.80540(14)
H7 H 0.3153 0.5706 0.8261
H8 H 0.1680 0.4919 0.8364
H9 H 0.1774 0.6492 0.7983
loop_
_geom_bond_atom_site_label_1
_geom_bond_atom_site_label_2
_geom_bond_site_symmetry_1
_geom_bond_site_symmetry_2
Cl1 C4 1_555 1_555
N1 C1 1_555 1_555
N2 H1 1_555 1_555
H2 N2 1_555 1_555
C1 C2 1_555 1_555
C2 H3 1_555 1_555
C3 C2 1_555 1_555
H4 C3 1_555 1_555
C4 C3 1_555 1_555
C5 C4 1_555 1_555
H5 C5 1_555 1_555
C6 C1 1_555 1_555
H6 C6 1_555 1_555
C7 N1 1_555 1_555
C8 C7 1_555 1_555
H7 C8 1_555 1_555
H8 C8 1_555 1_555
H9 C8 1_555 1_555
N2 C7 1_555 1_555
C5 C6 1_555 1_555

#END
