
#######################################################################
#
#                 Cambridge Crystallographic Data Centre
#                                CCDC 
#
#######################################################################
#
# If this CIF has been generated from an entry in the Cambridge 
# Structural Database, then it will include bibliographic, chemical, 
# crystal, experimental, refinement or atomic coordinate data resulting 
# from the CCDC's data processing and validation procedures.
#
#######################################################################

data_KUWWIJ
_chemical_formula_moiety         'C18 H10 S2'
_chemical_name_systematic        
Benzo[b][1]benzothieno[3,2-e][1]benzothiophene
_symmetry_cell_setting           orthorhombic
_symmetry_space_group_name_H-M   'P 21 21 21'
_symmetry_Int_Tables_number      19
_space_group_name_Hall           'P 2ac 2ab'
loop_
_symmetry_equiv_pos_site_id
_symmetry_equiv_pos_as_xyz
1 x,y,z
2 1/2-x,-y,1/2+z
3 -x,1/2+y,1/2-z
4 1/2+x,1/2-y,-z
_cell_length_a                   3.9971(16)
_cell_length_b                   10.334(4)
_cell_length_c                   31.473(13)
_cell_angle_alpha                90
_cell_angle_beta                 90
_cell_angle_gamma                90
_cell_volume                     1300.02
_exptl_crystal_colour            yellow
_exptl_crystal_description       rod
_cell_formula_units_Z            4
loop_
_atom_site_label
_atom_site_type_symbol
_atom_site_fract_x
_atom_site_fract_y
_atom_site_fract_z
S1 S 0.33376(16) 1.00249(6) 0.975179(17)
S2 S 0.96461(15) 0.64683(5) 0.837293(18)
C1 C 0.6929(5) 0.86307(18) 0.86638(6)
C2 C 0.7140(5) 0.87767(18) 0.82030(6)
C3 C 0.7962(6) 0.73751(19) 0.87883(6)
C4 C 0.5762(5) 0.94770(19) 0.89904(6)
C5 C 0.5185(6) 1.08808(18) 0.89975(6)
C6 C 0.9058(6) 0.7597(2) 0.75691(7)
H1 H 1.0145 0.6891 0.7449
C7 C 0.5767(6) 0.97249(19) 0.79335(6)
H2 H 0.4614 1.0424 0.8048
C8 C 0.8646(6) 0.76846(19) 0.80092(6)
C9 C 0.7826(6) 0.8574(2) 0.73170(7)
H3 H 0.8127 0.8537 0.7024
C10 C 0.3778(6) 1.1288(2) 0.93867(7)
C11 C 0.5090(6) 0.89303(19) 0.93910(7)
C12 C 0.6142(6) 1.1843(2) 0.87068(7)
H4 H 0.7225 1.1615 0.8456
C13 C 0.3874(7) 1.3497(2) 0.91681(9)
H5 H 0.3365 1.4363 0.9215
C14 C 0.5895(6) 0.7643(2) 0.94947(7)
H6 H 0.5359 0.7310 0.9761
C15 C 0.6132(6) 0.9617(2) 0.74958(7)
H7 H 0.5233 1.0251 0.7320
C16 C 0.3041(7) 1.2592(2) 0.94684(8)
H8 H 0.2010 1.2837 0.9721
C17 C 0.7471(6) 0.6886(2) 0.92008(7)
H9 H 0.8209 0.6060 0.9272
C18 C 0.5469(7) 1.3137(2) 0.87940(8)
H10 H 0.6095 1.3769 0.8599
loop_
_geom_bond_atom_site_label_1
_geom_bond_atom_site_label_2
_geom_bond_site_symmetry_1
_geom_bond_site_symmetry_2
S1 C10 1_555 1_555
S2 C3 1_555 1_555
C1 C2 1_555 1_555
C2 C7 1_555 1_555
C3 C1 1_555 1_555
C4 C1 1_555 1_555
C5 C4 1_555 1_555
C6 H1 1_555 1_555
C7 H2 1_555 1_555
C8 S2 1_555 1_555
C9 C6 1_555 1_555
H3 C9 1_555 1_555
C10 C5 1_555 1_555
C11 S1 1_555 1_555
C12 C5 1_555 1_555
H4 C12 1_555 1_555
C13 H5 1_555 1_555
C14 C11 1_555 1_555
H6 C14 1_555 1_555
C15 C7 1_555 1_555
H7 C15 1_555 1_555
C16 C10 1_555 1_555
H8 C16 1_555 1_555
C17 C3 1_555 1_555
H9 C17 1_555 1_555
C18 C12 1_555 1_555
H10 C18 1_555 1_555
C2 C8 1_555 1_555
C4 C11 1_555 1_555
C6 C8 1_555 1_555
C9 C15 1_555 1_555
C13 C16 1_555 1_555
C13 C18 1_555 1_555
C14 C17 1_555 1_555

#END
