
#######################################################################
#
#                 Cambridge Crystallographic Data Centre
#                                CCDC 
#
#######################################################################
#
# If this CIF has been generated from an entry in the Cambridge 
# Structural Database, then it will include bibliographic, chemical, 
# crystal, experimental, refinement or atomic coordinate data resulting 
# from the CCDC's data processing and validation procedures.
#
#######################################################################

data_KUWZUY
_chemical_formula_moiety         'C32 H38 O10'
_chemical_name_systematic        
4,7,10,13,19,22,25,28,32,39-Decaoxatetracyclo[14.14.10.1^3,29^.1^14,18^]dotetraconta-1,3(41),14(42),15,17,29-hexaene-34,36-diyne
_symmetry_cell_setting           monoclinic
_symmetry_space_group_name_H-M   'P 21/c'
_symmetry_Int_Tables_number      14
_space_group_name_Hall           '-P 2ybc'
loop_
_symmetry_equiv_pos_site_id
_symmetry_equiv_pos_as_xyz
1 x,y,z
2 -x,1/2+y,1/2-z
3 -x,-y,-z
4 x,1/2-y,1/2+z
_cell_length_a                   21.4741(6)
_cell_length_b                   8.4195(2)
_cell_length_c                   16.4840(5)
_cell_angle_alpha                90
_cell_angle_beta                 91.403(2)
_cell_angle_gamma                90
_cell_volume                     2979.43
_exptl_crystal_colour            colorless
_exptl_crystal_description       block
_cell_formula_units_Z            4
loop_
_atom_site_label
_atom_site_type_symbol
_atom_site_fract_x
_atom_site_fract_y
_atom_site_fract_z
C1 C 0.16357(16) 0.4641(4) 0.2653(2)
C2 C 0.11067(16) 0.5180(4) 0.3042(2)
H1 H 0.0773 0.5607 0.2746
C3 C 0.10904(16) 0.5063(4) 0.3879(2)
C4 C 0.15734(16) 0.4364(4) 0.4321(2)
H2 H 0.1557 0.4293 0.4884
C5 C 0.20770(16) 0.3778(4) 0.3921(2)
C6 C 0.21184(16) 0.3953(4) 0.3084(2)
H3 H 0.2471 0.3607 0.2819
C7 C 0.30794(15) 0.8675(4) 0.1965(2)
C8 C 0.31548(15) 0.7202(4) 0.23111(19)
H4 H 0.2865 0.6818 0.2672
C9 C 0.36689(15) 0.6297(4) 0.21166(19)
C10 C 0.41113(15) 0.6862(4) 0.15961(19)
H5 H 0.4459 0.6252 0.1478
C11 C 0.40296(15) 0.8360(4) 0.12503(19)
C12 C 0.35236(15) 0.9263(4) 0.1441(2)
H6 H 0.3476 1.0273 0.1220
C13 C 0.41956(16) 0.3790(4) 0.2310(2)
H7 H 0.4585 0.4243 0.2511
H8 H 0.4223 0.3637 0.1729
C14 C 0.40765(17) 0.2236(4) 0.2719(2)
H9 H 0.3653 0.1894 0.2596
H10 H 0.4358 0.1438 0.2515
C15 C 0.40138(19) 0.0960(4) 0.3979(2)
H11 H 0.4280 0.0104 0.3800
H12 H 0.3585 0.0669 0.3856
C16 C 0.41031(17) 0.1199(4) 0.4875(2)
H13 H 0.4061 0.0183 0.5146
H14 H 0.4523 0.1581 0.4984
C17 C 0.30783(16) 0.1627(5) 0.5354(2)
H15 H 0.3051 0.1359 0.5924
H16 H 0.3026 0.0657 0.5042
C18 C 0.25686(16) 0.2769(5) 0.5125(2)
H17 H 0.2170 0.2352 0.5288
H18 H 0.2638 0.3778 0.5397
C19 C 0.00342(16) 0.6076(5) 0.3946(2)
H19 H -0.0292 0.6062 0.4343
H20 H -0.0072 0.5291 0.3535
C20 C 0.00433(17) 0.7676(4) 0.3556(2)
H21 H 0.0354 0.7693 0.3139
H22 H -0.0359 0.7892 0.3300
C21 C 0.03193(17) 1.0374(5) 0.3814(2)
H23 H 0.0281 1.1163 0.4238
H24 H 0.0010 1.0617 0.3393
C22 C 0.09557(17) 1.0517(5) 0.3461(2)
H25 H 0.1066 1.1630 0.3414
H26 H 0.1261 1.0012 0.3820
C23 C 0.15237(16) 1.0112(4) 0.2257(2)
H27 H 0.1635 1.1219 0.2336
H28 H 0.1444 0.9947 0.1682
C24 C 0.20596(16) 0.9100(4) 0.2525(2)
H29 H 0.2138 0.9208 0.3105
H30 H 0.1977 0.7992 0.2403
C25 C 0.44867(15) 0.8963(4) 0.0634(2)
H31 H 0.4414 1.0087 0.0544
H32 H 0.4907 0.8844 0.0855
C26 C 0.39571(16) 0.8718(4) -0.0658(2)
H33 H 0.4049 0.8413 -0.1210
H34 H 0.3949 0.9869 -0.0635
C27 C 0.33391(18) 0.8104(4) -0.0455(2)
C28 C 0.28397(19) 0.7616(4) -0.0273(2)
C29 C 0.22726(19) 0.7080(4) -0.0008(2)
C30 C 0.17976(18) 0.6609(5) 0.0250(2)
C31 C 0.12137(17) 0.6070(5) 0.0596(2)
H35 H 0.0882 0.6795 0.0435
H36 H 0.1110 0.5029 0.0379
C32 C 0.16664(17) 0.4778(4) 0.1742(2)
H37 H 0.2088 0.5035 0.1590
H38 H 0.1553 0.3772 0.1493
O1 O 0.25685(11) 0.2983(3) 0.42782(15)
O2 O 0.36744(11) 0.2288(3) 0.52071(14)
O3 O 0.41639(10) 0.2384(2) 0.35649(14)
O4 O 0.36900(10) 0.4822(3) 0.24837(14)
O5 O 0.25810(11) 0.9663(3) 0.20825(15)
O6 O 0.09677(11) 0.9790(3) 0.26822(15)
O7 O 0.01824(11) 0.8862(3) 0.41423(15)
O8 O 0.06103(12) 0.5622(3) 0.43406(14)
O9 O 0.44409(10) 0.8152(3) -0.01281(14)
O10 O 0.12529(10) 0.5985(3) 0.14596(15)
loop_
_geom_bond_atom_site_label_1
_geom_bond_atom_site_label_2
_geom_bond_site_symmetry_1
_geom_bond_site_symmetry_2
C1 C2 1_555 1_555
C2 H1 1_555 1_555
C3 C2 1_555 1_555
C4 C3 1_555 1_555
H2 C4 1_555 1_555
C5 C4 1_555 1_555
C6 C1 1_555 1_555
H3 C6 1_555 1_555
C7 C8 1_555 1_555
C8 H4 1_555 1_555
C9 C8 1_555 1_555
C10 C9 1_555 1_555
H5 C10 1_555 1_555
C11 C10 1_555 1_555
C12 C7 1_555 1_555
H6 C12 1_555 1_555
C13 H7 1_555 1_555
H8 C13 1_555 1_555
C14 C13 1_555 1_555
H9 C14 1_555 1_555
H10 C14 1_555 1_555
C15 H11 1_555 1_555
H12 C15 1_555 1_555
C16 C15 1_555 1_555
H13 C16 1_555 1_555
H14 C16 1_555 1_555
C17 H15 1_555 1_555
H16 C17 1_555 1_555
C18 C17 1_555 1_555
H17 C18 1_555 1_555
H18 C18 1_555 1_555
C19 H19 1_555 1_555
H20 C19 1_555 1_555
C20 C19 1_555 1_555
H21 C20 1_555 1_555
H22 C20 1_555 1_555
C21 H23 1_555 1_555
H24 C21 1_555 1_555
C22 C21 1_555 1_555
H25 C22 1_555 1_555
H26 C22 1_555 1_555
C23 H27 1_555 1_555
H28 C23 1_555 1_555
C24 C23 1_555 1_555
H29 C24 1_555 1_555
H30 C24 1_555 1_555
C25 C11 1_555 1_555
H31 C25 1_555 1_555
H32 C25 1_555 1_555
C26 H33 1_555 1_555
H34 C26 1_555 1_555
C27 C26 1_555 1_555
C28 C27 1_555 1_555
C29 C28 1_555 1_555
C30 C29 1_555 1_555
C31 C30 1_555 1_555
H35 C31 1_555 1_555
H36 C31 1_555 1_555
C32 C1 1_555 1_555
H37 C32 1_555 1_555
H38 C32 1_555 1_555
O1 C5 1_555 1_555
O2 C16 1_555 1_555
O3 C14 1_555 1_555
O4 C9 1_555 1_555
O5 C7 1_555 1_555
O6 C22 1_555 1_555
O7 C20 1_555 1_555
O8 C3 1_555 1_555
O9 C25 1_555 1_555
O10 C31 1_555 1_555
C5 C6 1_555 1_555
C11 C12 1_555 1_555
C13 O4 1_555 1_555
C15 O3 1_555 1_555
C17 O2 1_555 1_555
C18 O1 1_555 1_555
C19 O8 1_555 1_555
C21 O7 1_555 1_555
C23 O6 1_555 1_555
C24 O5 1_555 1_555
C26 O9 1_555 1_555
C32 O10 1_555 1_555

#END
