
#######################################################################
#
#                 Cambridge Crystallographic Data Centre
#                                CCDC 
#
#######################################################################
#
# If this CIF has been generated from an entry in the Cambridge 
# Structural Database, then it will include bibliographic, chemical, 
# crystal, experimental, refinement or atomic coordinate data resulting 
# from the CCDC's data processing and validation procedures.
#
#######################################################################

data_KUXJIW
_chemical_compound_source        'aerial part of Centaurea salonitana Vis'
_chemical_name_common            
3beta-Acetoxy-8alpha,9beta-dihydroxy-1alphaH,5alphaH,6betaH,7alphaH-guaian-4(15),10(14),11(13)-trien-6,12-olide
_chemical_formula_moiety         'C17 H20 O6'
_chemical_name_systematic        'Salograviolide A'
_symmetry_cell_setting           monoclinic
_symmetry_space_group_name_H-M   'P 21'
_symmetry_Int_Tables_number      4
_space_group_name_Hall           'P 2yb'
loop_
_symmetry_equiv_pos_site_id
_symmetry_equiv_pos_as_xyz
1 x,y,z
2 -x,1/2+y,-z
_cell_length_a                   8.485(2)
_cell_length_b                   7.398(1)
_cell_length_c                   12.919(3)
_cell_angle_alpha                90
_cell_angle_beta                 98.17(3)
_cell_angle_gamma                90
_cell_volume                     802.721
_chemical_melting_point          140-141deg.C
_cell_formula_units_Z            2
loop_
_atom_site_label
_atom_site_type_symbol
_atom_site_fract_x
_atom_site_fract_y
_atom_site_fract_z
C1 C -0.3818(3) 0.1189(4) -0.7273(2)
C2 C -0.2221(3) 0.1124(4) -0.7727(3)
C3 C -0.1710(3) -0.0867(4) -0.7710(2)
C4 C -0.3196(3) -0.1916(4) -0.7610(2)
C5 C -0.4059(3) -0.0799(4) -0.6895(2)
C6 C -0.5777(3) -0.1199(4) -0.6859(2)
C7 C -0.6624(3) 0.0200(4) -0.6237(2)
C8 C -0.7552(3) 0.1572(4) -0.6969(2)
C9 C -0.6487(3) 0.2822(4) -0.7529(2)
C10 C -0.5225(3) 0.1842(4) -0.8030(2)
C11 C -0.7592(3) -0.0973(4) -0.5614(2)
C12 C -0.7097(3) -0.2855(4) -0.5741(2)
C13 C -0.8638(5) -0.0563(5) -0.4989(3)
C14 C -0.5408(4) 0.1590(5) -0.9047(2)
C15 C -0.3670(4) -0.3425(5) -0.8097(2)
C16 C 0.0140(3) -0.2413(4) -0.8612(2)
C17 C 0.0752(4) -0.2573(6) -0.9632(3)
O1 O -0.1058(2) -0.1255(3) -0.8662(1)
O2 O -0.5943(2) -0.2936 -0.6350(1)
O3 O -0.8598(2) 0.2624(4) -0.6453(2)
O4 O -0.7448(3) 0.3842(4) -0.8294(2)
O5 O -0.7559(3) -0.4218(3) -0.5350(2)
O6 O 0.0672(3) -0.3191(4) -0.7824(2)
loop_
_geom_bond_atom_site_label_1
_geom_bond_atom_site_label_2
_geom_bond_site_symmetry_1
_geom_bond_site_symmetry_2
C1 C2 1_555 1_555
C2 C3 1_555 1_555
C3 C4 1_555 1_555
C4 C5 1_555 1_555
C5 C1 1_555 1_555
C6 C5 1_555 1_555
C7 C6 1_555 1_555
C8 C7 1_555 1_555
C9 C8 1_555 1_555
C10 C1 1_555 1_555
C11 C7 1_555 1_555
C12 C11 1_555 1_555
C13 C11 1_555 1_555
C14 C10 1_555 1_555
C15 C4 1_555 1_555
C16 C17 1_555 1_555
O1 C3 1_555 1_555
O2 C6 1_555 1_555
O3 C8 1_555 1_555
O4 C9 1_555 1_555
O5 C12 1_555 1_555
O6 C16 1_555 1_555
C9 C10 1_555 1_555
C12 O2 1_555 1_555
C16 O1 1_555 1_555

#END
