
#######################################################################
#
#                 Cambridge Crystallographic Data Centre
#                                CCDC 
#
#######################################################################
#
# If this CIF has been generated from an entry in the Cambridge 
# Structural Database, then it will include bibliographic, chemical, 
# crystal, experimental, refinement or atomic coordinate data resulting 
# from the CCDC's data processing and validation procedures.
#
#######################################################################

data_KUXSEC
_chemical_name_common            3-Acetylamino-5-methyl-1,2,4-oxadiazole
_chemical_formula_moiety         'C5 H7 N3 O2'
_chemical_name_systematic        N-(5-Methyl-1,2,4-oxadiazol-3-yl)acetamide
_symmetry_cell_setting           monoclinic
_symmetry_space_group_name_H-M   'P 21/c'
_symmetry_Int_Tables_number      14
_space_group_name_Hall           '-P 2ybc'
loop_
_symmetry_equiv_pos_site_id
_symmetry_equiv_pos_as_xyz
1 x,y,z
2 -x,1/2+y,1/2-z
3 -x,-y,-z
4 x,1/2-y,1/2+z
_cell_length_a                   7.949(2)
_cell_length_b                   9.6680(10)
_cell_length_c                   8.840(2)
_cell_angle_alpha                90
_cell_angle_beta                 99.09(2)
_cell_angle_gamma                90
_cell_volume                     670.83
_exptl_crystal_colour            colorless
_exptl_crystal_description       platelet
_chemical_melting_point          '436 K'
_cell_formula_units_Z            4
loop_
_atom_site_label
_atom_site_type_symbol
_atom_site_fract_x
_atom_site_fract_y
_atom_site_fract_z
O1 O 0.88475(15) 0.75227(11) 0.60979(13)
N1 N 0.75280(19) 0.72982(13) 0.48221(16)
C1 C 0.70266(18) 0.85604(13) 0.44904(16)
N2 N 0.78611(16) 0.95774(11) 0.53911(14)
C2 C 0.89429(19) 0.88822(14) 0.63386(17)
C3 C 1.0230(3) 0.9358(2) 0.7623(2)
N3 N 0.57524(16) 0.89208(12) 0.33076(14)
C4 C 0.47978(18) 0.80172(14) 0.23393(16)
O2 O 0.49904(17) 0.67734(11) 0.24782(14)
C5 C 0.3532(2) 0.86661(18) 0.1115(2)
H1 H 0.993(3) 0.907(3) 0.858(3)
H2 H 1.132(4) 0.893(3) 0.754(3)
H3 H 1.036(3) 1.028(3) 0.762(3)
H4 H 0.554(2) 0.9771(19) 0.319(2)
H5 H 0.2453 0.8209 0.1068
H6 H 0.3923 0.8579 0.0146
H7 H 0.3407 0.9627 0.1346
loop_
_geom_bond_atom_site_label_1
_geom_bond_atom_site_label_2
_geom_bond_site_symmetry_1
_geom_bond_site_symmetry_2
O1 N1 1_555 1_555
N1 C1 1_555 1_555
C1 N2 1_555 1_555
N2 C2 1_555 1_555
C2 O1 1_555 1_555
C3 C2 1_555 1_555
N3 C1 1_555 1_555
C4 N3 1_555 1_555
O2 C4 1_555 1_555
C5 C4 1_555 1_555
H1 C3 1_555 1_555
H2 C3 1_555 1_555
H3 C3 1_555 1_555
H4 N3 1_555 1_555
H5 C5 1_555 1_555
H6 C5 1_555 1_555
H7 C5 1_555 1_555

#END
