
#######################################################################
#
#                 Cambridge Crystallographic Data Centre
#                                CCDC 
#
#######################################################################
#
# If this CIF has been generated from an entry in the Cambridge 
# Structural Database, then it will include bibliographic, chemical, 
# crystal, experimental, refinement or atomic coordinate data resulting 
# from the CCDC's data processing and validation procedures.
#
#######################################################################

data_KUYKOG
_chemical_formula_moiety         'C38 H30 Br1 N3 O1 S2'
_chemical_name_systematic        
5'-(4-bromo-1-butyl-7-(4-(diphenylamino)phenyl)-1H-benzimidazol-2-yl)-2,2'-bithiophene-5-carbaldehyde
_symmetry_cell_setting           triclinic
_symmetry_space_group_name_H-M   'P -1'
_symmetry_Int_Tables_number      2
_space_group_name_Hall           '-P 1'
loop_
_symmetry_equiv_pos_site_id
_symmetry_equiv_pos_as_xyz
1 x,y,z
2 -x,-y,-z
_cell_length_a                   10.0416(5)
_cell_length_b                   12.3341(6)
_cell_length_c                   14.3639(7)
_cell_angle_alpha                99.687(3)
_cell_angle_beta                 97.512(3)
_cell_angle_gamma                104.946(3)
_cell_volume                     1665.77
_exptl_crystal_colour            yellow
_exptl_crystal_description       block
_cell_formula_units_Z            2
loop_
_atom_site_label
_atom_site_type_symbol
_atom_site_fract_x
_atom_site_fract_y
_atom_site_fract_z
Br1 Br 0.52203(7) 0.90382(6) 0.20014(5)
S1 S 0.20563(16) 1.17488(13) 0.34775(10)
S2 S -0.08528(16) 1.38055(14) 0.38297(12)
N1 N 0.5724(4) 1.1925(4) 0.5049(3)
N2 N 0.4620(4) 1.1021(4) 0.3542(3)
N3 N 1.1353(6) 1.3139(6) 0.8745(4)
O1 O -0.3576(5) 1.4468(5) 0.3501(4)
C1 C 0.5746(6) 1.0613(5) 0.3801(4)
C2 C 0.6184(6) 0.9773(5) 0.3265(4)
C3 C 0.7322(7) 0.9477(5) 0.3678(5)
H1 H 0.7612 0.8892 0.3343
C4 C 0.8032(6) 1.0052(6) 0.4592(5)
H2 H 0.8811 0.9849 0.4845
C5 C 0.7655(6) 1.0908(5) 0.5151(4)
C6 C 0.6448(5) 1.1162(5) 0.4725(4)
C7 C 0.4645(6) 1.1793(5) 0.4297(4)
C8 C 0.3559(5) 1.2394(5) 0.4337(4)
C9 C 0.3475(6) 1.3359(5) 0.4895(5)
H3 H 0.4184 1.3818 0.5396
C10 C 0.2184(6) 1.3598(5) 0.4635(5)
H4 H 0.1956 1.4231 0.4949
C11 C 0.1328(6) 1.2816(5) 0.3891(4)
C12 C -0.0084(6) 1.2768(5) 0.3447(4)
C13 C -0.0984(7) 1.1941(6) 0.2730(5)
H5 H -0.0753 1.1304 0.2427
C14 C -0.2297(6) 1.2133(6) 0.2484(5)
H6 H -0.3016 1.1641 0.2007
C15 C -0.2394(6) 1.3123(6) 0.3026(4)
C16 C -0.3574(7) 1.3600(7) 0.3007(5)
H7 H -0.4391 1.3191 0.2571
C17 C 0.5946(6) 1.2600(5) 0.6033(4)
H8 H 0.6302 1.2186 0.6478
H9 H 0.5049 1.2667 0.6176
C18 C 0.6937(6) 1.3774(6) 0.6197(5)
H10 H 0.6536 1.4236 0.5822
H11 H 0.7809 1.3728 0.5995
C19 C 0.7226(10) 1.4343(7) 0.7290(7)
H12 H 0.7617 1.3864 0.7650
H13 H 0.7930 1.5079 0.7397
C20 C 0.6087(14) 1.4513(10) 0.7649(9)
H14 H 0.5713 1.5016 0.7320
H15 H 0.6362 1.4853 0.8323
H16 H 0.5385 1.3790 0.7558
C21 C 0.8574(6) 1.1529(5) 0.6109(4)
C22 C 0.8294(6) 1.1230(5) 0.6972(5)
H17 H 0.7478 1.0660 0.6966
C23 C 0.9199(7) 1.1761(6) 0.7840(5)
H18 H 0.8987 1.1542 0.8405
C24 C 1.0419(7) 1.2615(6) 0.7865(5)
C25 C 1.0697(6) 1.2937(6) 0.7027(5)
H19 H 1.1505 1.3517 0.7035
C26 C 0.9776(7) 1.2400(6) 0.6166(5)
H20 H 0.9981 1.2639 0.5607
C27 C 1.1893(8) 1.4371(8) 0.8996(5)
C28 C 1.1014(9) 1.5044(9) 0.9037(6)
H21 H 1.0050 1.4708 0.8886
C29 C 1.1555(12) 1.6242(10) 0.9308(7)
H22 H 1.0967 1.6713 0.9313
C30 C 1.2933(16) 1.6677(10) 0.9557(7)
H23 H 1.3289 1.7463 0.9803
C31 C 1.3841(11) 1.6066(13) 0.9478(8)
H24 H 1.4800 1.6425 0.9594
C32 C 1.3323(9) 1.4883(10) 0.9219(6)
H25 H 1.3937 1.4433 0.9196
C33 C 1.1666(6) 1.2493(7) 0.9419(5)
C34 C 1.1929(7) 1.2938(7) 1.0391(5)
H26 H 1.1861 1.3672 1.0611
C35 C 1.2294(10) 1.2317(10) 1.1047(6)
H27 H 1.2486 1.2641 1.1701
C36 C 1.2373(11) 1.1255(11) 1.0749(8)
H28 H 1.2635 1.0844 1.1192
C37 C 1.2073(11) 1.0779(10) 0.9803(7)
H29 H 1.2099 1.0030 0.9597
C38 C 1.1728(9) 1.1388(9) 0.9139(6)
H30 H 1.1533 1.1048 0.8489
loop_
_geom_bond_atom_site_label_1
_geom_bond_atom_site_label_2
_geom_bond_site_symmetry_1
_geom_bond_site_symmetry_2
Br1 C2 1_555 1_555
S1 C8 1_555 1_555
S2 C12 1_555 1_555
N1 C6 1_555 1_555
N2 C1 1_555 1_555
N3 C24 1_555 1_555
O1 C16 1_555 1_555
C1 C2 1_555 1_555
C2 C3 1_555 1_555
C3 H1 1_555 1_555
C4 C3 1_555 1_555
H2 C4 1_555 1_555
C5 C4 1_555 1_555
C6 C1 1_555 1_555
C7 N1 1_555 1_555
C8 C7 1_555 1_555
C9 C8 1_555 1_555
H3 C9 1_555 1_555
C10 C9 1_555 1_555
H4 C10 1_555 1_555
C11 S1 1_555 1_555
C12 C11 1_555 1_555
C13 C12 1_555 1_555
H5 C13 1_555 1_555
C14 C13 1_555 1_555
H6 C14 1_555 1_555
C15 S2 1_555 1_555
C16 C15 1_555 1_555
H7 C16 1_555 1_555
C17 N1 1_555 1_555
H8 C17 1_555 1_555
H9 C17 1_555 1_555
C18 C17 1_555 1_555
H10 C18 1_555 1_555
H11 C18 1_555 1_555
C19 C18 1_555 1_555
H12 C19 1_555 1_555
H13 C19 1_555 1_555
C20 C19 1_555 1_555
H14 C20 1_555 1_555
H15 C20 1_555 1_555
H16 C20 1_555 1_555
C21 C5 1_555 1_555
C22 C21 1_555 1_555
H17 C22 1_555 1_555
C23 C22 1_555 1_555
H18 C23 1_555 1_555
C24 C23 1_555 1_555
C25 C24 1_555 1_555
H19 C25 1_555 1_555
C26 C21 1_555 1_555
H20 C26 1_555 1_555
C27 N3 1_555 1_555
C28 C27 1_555 1_555
H21 C28 1_555 1_555
C29 C28 1_555 1_555
H22 C29 1_555 1_555
C30 C29 1_555 1_555
H23 C30 1_555 1_555
C31 C30 1_555 1_555
H24 C31 1_555 1_555
C32 C27 1_555 1_555
H25 C32 1_555 1_555
C33 N3 1_555 1_555
C34 C33 1_555 1_555
H26 C34 1_555 1_555
C35 C34 1_555 1_555
H27 C35 1_555 1_555
C36 C35 1_555 1_555
H28 C36 1_555 1_555
C37 C36 1_555 1_555
H29 C37 1_555 1_555
C38 C33 1_555 1_555
H30 C38 1_555 1_555
N2 C7 1_555 1_555
C5 C6 1_555 1_555
C10 C11 1_555 1_555
C14 C15 1_555 1_555
C25 C26 1_555 1_555
C31 C32 1_555 1_555
C37 C38 1_555 1_555

#END
