
#######################################################################
#
#                 Cambridge Crystallographic Data Centre
#                                CCDC 
#
#######################################################################
#
# If this CIF has been generated from an entry in the Cambridge 
# Structural Database, then it will include bibliographic, chemical, 
# crystal, experimental, refinement or atomic coordinate data resulting 
# from the CCDC's data processing and validation procedures.
#
#######################################################################

data_KUYNIB
_chemical_formula_moiety         'C44 H54 O4,C2 H3 N1'
_chemical_name_systematic        
'1,5,9,13-Tetradehydroxy-5,8:13,16-diepoxy-p-t-butylalix(4)arene-1,9-dione acetonitrile solvate'
_symmetry_cell_setting           triclinic
_symmetry_space_group_name_H-M   'P -1'
_symmetry_Int_Tables_number      2
_space_group_name_Hall           '-P 1'
loop_
_symmetry_equiv_pos_site_id
_symmetry_equiv_pos_as_xyz
1 x,y,z
2 -x,-y,-z
_cell_length_a                   14.130(2)
_cell_length_b                   15.467(2)
_cell_length_c                   9.906(2)
_cell_angle_alpha                92.04(1)
_cell_angle_beta                 105.96(2)
_cell_angle_gamma                82.92(2)
_cell_volume                     2065.62
_cell_formula_units_Z            2
loop_
_atom_site_label
_atom_site_type_symbol
_atom_site_fract_x
_atom_site_fract_y
_atom_site_fract_z
O1 O 0.4046(2) 0.3700(2) 1.0212(3)
O2 O 0.2117(2) 0.4612(2) 1.0492(2)
O3 O 0.2164(2) 0.4086(2) 1.3218(3)
O4 O 0.4085(2) 0.4282(2) 1.4384(3)
C1 C 0.3846(3) 0.4431(3) 1.0620(4)
C2 C 0.4513(3) 0.4832(2) 1.1814(4)
C3 C 0.4326(3) 0.5681(3) 1.2032(4)
C4 C 0.3493(3) 0.6265(2) 1.1153(4)
C5 C 0.2811(3) 0.5907(3) 1.0175(4)
C6 C 0.2852(3) 0.4953(3) 0.9873(4)
C7 C 0.2524(3) 0.4730(3) 0.8298(4)
C8 C 0.1407(3) 0.4268(2) 0.9405(4)
C9 C 0.1586(3) 0.4319(2) 0.8126(4)
C10 C 0.0936(3) 0.4016(2) 0.6942(4)
C11 C 0.0097(3) 0.3667(2) 0.7048(4)
C12 C -0.0042(3) 0.3640(2) 0.8389(4)
C13 C 0.0589(3) 0.3930(2) 0.9601(4)
C14 C 0.0383(3) 0.3893(2) 1.1017(4)
C15 C 0.1820(3) 0.3279(2) 1.3007(4)
C16 C 0.0970(3) 0.3147(2) 1.1956(3)
C17 C 0.0653(3) 0.2331(3) 1.1824(4)
C18 C 0.1128(3) 0.1648(2) 1.2720(4)
C19 C 0.1970(3) 0.1812(3) 1.3760(4)
C20 C 0.2333(3) 0.2603(3) 1.3928(4)
C21 C 0.3301(3) 0.2736(3) 1.5033(4)
C22 C 0.4454(3) 0.3467(3) 1.3990(4)
C23 C 0.4154(3) 0.2712(3) 1.4357(4)
C24 C 0.4617(3) 0.1920(3) 1.4036(4)
C25 C 0.5350(3) 0.1847(3) 1.3355(4)
C26 C 0.5595(3) 0.2627(3) 1.2950(4)
C27 C 0.5155(3) 0.3436(2) 1.3239(4)
C28 C 0.5394(3) 0.4263(2) 1.2703(4)
C29 C 0.3468(3) 0.7238(2) 1.1457(4)
C30 C 0.3348(4) 0.7420(3) 1.2937(5)
C31 C 0.4445(3) 0.7541(3) 1.1377(5)
C32 C 0.2606(3) 0.7766(3) 1.0410(5)
C33 C -0.0660(3) 0.3321(3) 0.5783(4)
C34 C -0.0360(3) 0.3376(4) 0.4434(5)
C35 C -0.1663(3) 0.3854(3) 0.5595(5)
C36 C -0.0742(4) 0.2372(3) 0.6044(5)
C37 C 0.0761(4) 0.0749(3) 1.2584(5)
C38 C -0.0257(5) 0.0747(4) 1.1599(8)
C39 C 0.0750(6) 0.0435(4) 1.4013(7)
C40 C 0.1483(5) 0.0109(4) 1.2070(7)
C41 C 0.5857(4) 0.0968(3) 1.3039(5)
C42 C 0.527(1) 0.0614(7) 1.177(1)
C43 C 0.6017(8) 0.0348(4) 1.415(1)
C44 C 0.6836(8) 0.1024(5) 1.285(2)
H1 H 0.2099 0.4411 1.2298
H2 H 0.3297 0.4434 1.4114
H3 H 0.4759 0.5933 1.2814
H4 H 0.2263 0.6281 0.9637
H5 H 0.1063 0.4045 0.6052
H6 H -0.0612 0.3404 0.8471
H7 H 0.0081 0.2235 1.1088
H8 H 0.2311 0.1355 1.4391
H9 H 0.4417 0.1402 1.4303
H10 H 0.6085 0.2603 1.2452
H11 H 0.3016 0.4329 0.8044
H12 H 0.2403 0.5238 0.7741
H13 H 0.0531 0.4424 1.1498
H14 H -0.0303 0.3842 1.0863
H15 H 0.3222 0.3287 1.5477
H16 H 0.3450 0.2288 1.5717
H17 H 0.5701 0.4593 1.3498
H18 H 0.5846 0.4103 1.2162
H19 H 0.3883 0.7108 1.3605
H20 H 0.3346 0.8027 1.3129
H21 H 0.2740 0.7242 1.2992
H22 H 0.4981 0.7232 1.2048
H23 H 0.4523 0.7433 1.0463
H24 H 0.4431 0.8148 1.1574
H25 H 0.2621 0.8369 1.0616
H26 H 0.2665 0.7660 0.9481
H27 H 0.1995 0.7597 1.0472
H28 H 0.0265 0.3043 0.4525
H29 H -0.0843 0.3151 0.3677
H30 H -0.0318 0.3966 0.4249
H31 H -0.1613 0.4447 0.5420
H32 H -0.2134 0.3634 0.4821
H33 H -0.1874 0.3823 0.6421
H34 H -0.0953 0.2331 0.6867
H35 H -0.1210 0.2154 0.5264
H36 H -0.0114 0.2039 0.6159
H37 H -0.0718 0.1126 1.1964
H38 H -0.0265 0.0950 1.0706
H39 H -0.0443 0.0176 1.1524
H40 H 0.0302 0.0828 1.4372
H41 H 0.0541 -0.0127 1.3926
H42 H 0.1396 0.0417 1.4640
H43 H 0.1268 -0.0451 1.1983
H44 H 0.1521 0.0294 1.1182
H45 H 0.2123 0.0088 1.2722
H46 H 0.4650 0.0520 1.1869
H47 H 0.5180 0.1018 1.1014
H48 H 0.5612 0.0082 1.1544
H49 H 0.5394 0.0256 1.4282
H50 H 0.6332 -0.0189 1.3900
H51 H 0.6420 0.0563 1.4989
H52 H 0.7110 0.0460 1.2632
H53 H 0.6768 0.1405 1.2082
H54 H 0.7249 0.1237 1.3672
N1 N 0.258(1) 0.1425(8) 0.784(1)
C45 C 0.2672(8) 0.1758(6) 0.898(1)
C46 C 0.2766(6) 0.2066(5) 1.0242(8)
loop_
_geom_bond_atom_site_label_1
_geom_bond_atom_site_label_2
_geom_bond_site_symmetry_1
_geom_bond_site_symmetry_2
O1 C1 1_555 1_555
O2 C6 1_555 1_555
O3 C15 1_555 1_555
O4 C22 1_555 1_555
C1 C2 1_555 1_555
C2 C3 1_555 1_555
C3 C4 1_555 1_555
C4 C5 1_555 1_555
C5 C6 1_555 1_555
C6 C1 1_555 1_555
C7 C6 1_555 1_555
C8 O2 1_555 1_555
C9 C7 1_555 1_555
C10 C9 1_555 1_555
C11 C10 1_555 1_555
C12 C11 1_555 1_555
C13 C8 1_555 1_555
C14 C13 1_555 1_555
C15 C16 1_555 1_555
C16 C14 1_555 1_555
C17 C16 1_555 1_555
C18 C17 1_555 1_555
C19 C18 1_555 1_555
C20 C15 1_555 1_555
C21 C20 1_555 1_555
C22 C23 1_555 1_555
C23 C21 1_555 1_555
C24 C23 1_555 1_555
C25 C24 1_555 1_555
C26 C25 1_555 1_555
C27 C22 1_555 1_555
C28 C2 1_555 1_555
C29 C4 1_555 1_555
C30 C29 1_555 1_555
C31 C29 1_555 1_555
C32 C29 1_555 1_555
C33 C11 1_555 1_555
C34 C33 1_555 1_555
C35 C33 1_555 1_555
C36 C33 1_555 1_555
C37 C18 1_555 1_555
C38 C37 1_555 1_555
C39 C37 1_555 1_555
C40 C37 1_555 1_555
C41 C25 1_555 1_555
C42 C41 1_555 1_555
C43 C41 1_555 1_555
C44 C41 1_555 1_555
H1 O3 1_555 1_555
H2 O4 1_555 1_555
H3 C3 1_555 1_555
H4 C5 1_555 1_555
H5 C10 1_555 1_555
H6 C12 1_555 1_555
H7 C17 1_555 1_555
H8 C19 1_555 1_555
H9 C24 1_555 1_555
H10 C26 1_555 1_555
H11 C7 1_555 1_555
H12 C7 1_555 1_555
H13 C14 1_555 1_555
H14 C14 1_555 1_555
H15 C21 1_555 1_555
H16 C21 1_555 1_555
H17 C28 1_555 1_555
H18 C28 1_555 1_555
H19 C30 1_555 1_555
H20 C30 1_555 1_555
H21 C30 1_555 1_555
H22 C31 1_555 1_555
H23 C31 1_555 1_555
H24 C31 1_555 1_555
H25 C32 1_555 1_555
H26 C32 1_555 1_555
H27 C32 1_555 1_555
H28 C34 1_555 1_555
H29 C34 1_555 1_555
H30 C34 1_555 1_555
H31 C35 1_555 1_555
H32 C35 1_555 1_555
H33 C35 1_555 1_555
H34 C36 1_555 1_555
H35 C36 1_555 1_555
H36 C36 1_555 1_555
H37 C38 1_555 1_555
H38 C38 1_555 1_555
H39 C38 1_555 1_555
H40 C39 1_555 1_555
H41 C39 1_555 1_555
H42 C39 1_555 1_555
H43 C40 1_555 1_555
H44 C40 1_555 1_555
H45 C40 1_555 1_555
H46 C42 1_555 1_555
H47 C42 1_555 1_555
H48 C42 1_555 1_555
H49 C43 1_555 1_555
H50 C43 1_555 1_555
H51 C43 1_555 1_555
H52 C44 1_555 1_555
H53 C44 1_555 1_555
H54 C44 1_555 1_555
N1 C45 1_555 1_555
C45 C46 1_555 1_555
C8 C9 1_555 1_555
C12 C13 1_555 1_555
C19 C20 1_555 1_555
C26 C27 1_555 1_555
C27 C28 1_555 1_555

#END
