
#######################################################################
#
#                 Cambridge Crystallographic Data Centre
#                                CCDC 
#
#######################################################################
#
# If this CIF has been generated from an entry in the Cambridge 
# Structural Database, then it will include bibliographic, chemical, 
# crystal, experimental, refinement or atomic coordinate data resulting 
# from the CCDC's data processing and validation procedures.
#
#######################################################################

data_KUYRON
_chemical_formula_moiety         'C31 H27 N1 O3 Se1'
_chemical_name_systematic        
2-(3-((2-methylbenzyl)oxy)-1-phenyl-2-(phenylselanyl)propyl)-1H-isoindole-1,3(2H)-dione
_symmetry_cell_setting           triclinic
_symmetry_space_group_name_H-M   'P -1'
_symmetry_Int_Tables_number      2
_space_group_name_Hall           '-P 1'
loop_
_symmetry_equiv_pos_site_id
_symmetry_equiv_pos_as_xyz
1 x,y,z
2 -x,-y,-z
_cell_length_a                   6.8204(8)
_cell_length_b                   13.7059(15)
_cell_length_c                   14.4554(16)
_cell_angle_alpha                72.8040(10)
_cell_angle_beta                 87.4050(10)
_cell_angle_gamma                88.7930(10)
_cell_volume                     1289.52
_exptl_crystal_colour            colorless
_exptl_crystal_description       block
_cell_formula_units_Z            2
loop_
_atom_site_label
_atom_site_type_symbol
_atom_site_fract_x
_atom_site_fract_y
_atom_site_fract_z
N1 N 0.3008(3) 0.28495(18) 0.15966(17)
O1 O 0.0698(3) 0.31249(16) 0.31965(14)
O2 O 0.5920(3) 0.23769(19) 0.2366(2)
O3 O 0.0389(3) 0.38096(16) 0.08490(15)
Se1 Se -0.04663(5) 0.02750(3) 0.30027(2)
C1 C 0.3293(5) 0.1202(2) 0.0436(2)
H1 H 0.4511 0.1090 0.0715
C2 C 0.3039(7) 0.0994(3) -0.0431(3)
H2 H 0.4083 0.0748 -0.0736
C3 C 0.1239(8) 0.1154(3) -0.0838(3)
H3 H 0.1061 0.1011 -0.1418
C4 C -0.0296(6) 0.1522(3) -0.0396(3)
H4 H -0.1512 0.1629 -0.0677
C5 C -0.0047(5) 0.1734(3) 0.0469(2)
H5 H -0.1099 0.1984 0.0766
C6 C 0.1744(5) 0.1578(2) 0.0894(2)
C7 C 0.2170(4) 0.1820(2) 0.1829(2)
H6 H 0.3201 0.1342 0.2138
C8 C 0.0470(4) 0.1692(2) 0.2578(2)
H7 H -0.0615 0.2119 0.2253
C9 C 0.0926(5) 0.2050(2) 0.3444(2)
H8 H 0.0044 0.1726 0.3989
H9 H 0.2260 0.1859 0.3631
C10 C 0.1233(5) 0.3526(3) 0.3942(2)
H10 H 0.2647 0.3491 0.3997
H11 H 0.0635 0.3130 0.4557
C11 C 0.0546(5) 0.4616(3) 0.3705(2)
C12 C -0.1391(6) 0.4871(3) 0.3924(2)
C13 C -0.1890(6) 0.5893(3) 0.3695(3)
H12 H -0.3160 0.6075 0.3844
C14 C -0.0575(8) 0.6646(3) 0.3255(3)
H13 H -0.0955 0.7328 0.3110
C15 C 0.1281(8) 0.6397(3) 0.3030(3)
H14 H 0.2172 0.6907 0.2723
C16 C 0.1840(6) 0.5391(3) 0.3259(3)
H15 H 0.3122 0.5225 0.3111
C17 C -0.2876(6) 0.4064(4) 0.4385(3)
H16 H -0.4097 0.4381 0.4496
H17 H -0.2413 0.3640 0.4991
H18 H -0.3070 0.3652 0.3962
C18 C 0.1934(5) -0.0439(2) 0.3431(2)
C19 C 0.2543(6) -0.0579(3) 0.4357(2)
H19 H 0.1820 -0.0293 0.4775
C20 C 0.4216(7) -0.1140(3) 0.4672(3)
H20 H 0.4608 -0.1231 0.5300
C21 C 0.5311(6) -0.1566(3) 0.4065(3)
H21 H 0.6443 -0.1940 0.4278
C22 C 0.4716(6) -0.1432(3) 0.3148(3)
H22 H 0.5450 -0.1717 0.2733
C23 C 0.3040(6) -0.0880(3) 0.2827(3)
H23 H 0.2645 -0.0803 0.2202
C24 C 0.4832(4) 0.3035(3) 0.1917(2)
C25 C 0.5066(4) 0.4161(2) 0.1603(2)
C26 C 0.3387(4) 0.4603(2) 0.1146(2)
C27 C 0.2018(5) 0.3763(2) 0.1153(2)
C28 C 0.3157(5) 0.5634(3) 0.0770(2)
H24 H 0.2021 0.5922 0.0465
C29 C 0.4710(6) 0.6234(3) 0.0867(3)
H25 H 0.4612 0.6941 0.0623
C30 C 0.6401(6) 0.5799(3) 0.1321(3)
H26 H 0.7414 0.6222 0.1371
C31 C 0.6619(5) 0.4755(3) 0.1701(2)
H27 H 0.7752 0.4464 0.2007
loop_
_geom_bond_atom_site_label_1
_geom_bond_atom_site_label_2
_geom_bond_site_symmetry_1
_geom_bond_site_symmetry_2
N1 C7 1_555 1_555
O1 C9 1_555 1_555
O2 C24 1_555 1_555
O3 C27 1_555 1_555
Se1 C8 1_555 1_555
C1 H1 1_555 1_555
C2 C1 1_555 1_555
H2 C2 1_555 1_555
C3 C2 1_555 1_555
H3 C3 1_555 1_555
C4 C3 1_555 1_555
H4 C4 1_555 1_555
C5 C4 1_555 1_555
H5 C5 1_555 1_555
C6 C1 1_555 1_555
C7 C6 1_555 1_555
H6 C7 1_555 1_555
C8 C7 1_555 1_555
H7 C8 1_555 1_555
C9 C8 1_555 1_555
H8 C9 1_555 1_555
H9 C9 1_555 1_555
C10 O1 1_555 1_555
H10 C10 1_555 1_555
H11 C10 1_555 1_555
C11 C10 1_555 1_555
C12 C11 1_555 1_555
C13 C12 1_555 1_555
H12 C13 1_555 1_555
C14 C13 1_555 1_555
H13 C14 1_555 1_555
C15 C14 1_555 1_555
H14 C15 1_555 1_555
C16 C11 1_555 1_555
H15 C16 1_555 1_555
C17 C12 1_555 1_555
H16 C17 1_555 1_555
H17 C17 1_555 1_555
H18 C17 1_555 1_555
C18 Se1 1_555 1_555
C19 C18 1_555 1_555
H19 C19 1_555 1_555
C20 C19 1_555 1_555
H20 C20 1_555 1_555
C21 C20 1_555 1_555
H21 C21 1_555 1_555
C22 C21 1_555 1_555
H22 C22 1_555 1_555
C23 C18 1_555 1_555
H23 C23 1_555 1_555
C24 N1 1_555 1_555
C25 C24 1_555 1_555
C26 C25 1_555 1_555
C27 N1 1_555 1_555
C28 C26 1_555 1_555
H24 C28 1_555 1_555
C29 C28 1_555 1_555
H25 C29 1_555 1_555
C30 C29 1_555 1_555
H26 C30 1_555 1_555
C31 C25 1_555 1_555
H27 C31 1_555 1_555
C5 C6 1_555 1_555
C15 C16 1_555 1_555
C22 C23 1_555 1_555
C26 C27 1_555 1_555
C30 C31 1_555 1_555

#END
