
#######################################################################
#
#                 Cambridge Crystallographic Data Centre
#                                CCDC 
#
#######################################################################
#
# If this CIF has been generated from an entry in the Cambridge 
# Structural Database, then it will include bibliographic, chemical, 
# crystal, experimental, refinement or atomic coordinate data resulting 
# from the CCDC's data processing and validation procedures.
#
#######################################################################

data_KUZJIA01
_chemical_formula_moiety         'C15 H10 O3'
_chemical_name_systematic        7-hydroxy-3-phenyl-4H-chromen-4-one
_symmetry_cell_setting           orthorhombic
_symmetry_space_group_name_H-M   'P c a b'
_symmetry_Int_Tables_number      61
_space_group_name_Hall           '-P 2bc 2ac'
loop_
_symmetry_equiv_pos_site_id
_symmetry_equiv_pos_as_xyz
1 x,y,z
2 -x,1/2-y,1/2+z
3 1/2+x,-y,1/2-z
4 1/2-x,1/2+y,-z
5 -x,-y,-z
6 x,1/2+y,1/2-z
7 1/2-x,y,1/2+z
8 1/2+x,1/2-y,z
_cell_length_a                   10.881(3)
_cell_length_b                   20.031(5)
_cell_length_c                   21.169(5)
_cell_angle_alpha                90
_cell_angle_beta                 90
_cell_angle_gamma                90
_cell_volume                     4613.94
_exptl_crystal_colour            colorless
_exptl_crystal_description       plate
_cell_formula_units_Z            16
loop_
_atom_site_label
_atom_site_type_symbol
_atom_site_fract_x
_atom_site_fract_y
_atom_site_fract_z
O1 O 0.77972(9) 0.13517(5) 0.04616(5)
O2 O 0.43207(10) 0.05848(5) 0.05370(5)
O3 O 0.69710(10) 0.26778(5) -0.12937(5)
H1 H 0.6441 0.2753 -0.1560
C1 C 0.74483(14) 0.09093(8) 0.09031(7)
H2 H 0.8040 0.0777 0.1195
C2 C 0.63211(14) 0.06389(7) 0.09625(7)
C3 C 0.53760(13) 0.08222(7) 0.05095(7)
C4 C 0.49539(13) 0.15279(8) -0.04452(7)
H3 H 0.4152 0.1367 -0.0460
C5 C 0.53303(13) 0.19836(7) -0.08874(7)
H4 H 0.4791 0.2125 -0.1201
C6 C 0.65349(13) 0.22364(6) -0.08660(7)
C7 C 0.73357(13) 0.20248(7) -0.04036(7)
H5 H 0.8131 0.2194 -0.0383
C8 C 0.69392(12) 0.15589(7) 0.00278(7)
C9 C 0.57469(12) 0.12970(6) 0.00300(6)
C10 C 0.60924(15) 0.01731(7) 0.14950(7)
C11 C 0.68295(18) -0.03800(9) 0.15822(10)
H6 H 0.7443 -0.0476 0.1290
C12 C 0.6668(2) -0.07945(12) 0.20986(12)
H7 H 0.7173 -0.1165 0.2151
C13 C 0.5773(2) -0.06623(10) 0.25307(10)
H8 H 0.5672 -0.0940 0.2879
C14 C 0.50200(19) -0.01184(9) 0.24508(8)
H9 H 0.4408 -0.0027 0.2745
C15 C 0.51741(16) 0.02961(7) 0.19296(8)
H10 H 0.4654 0.0660 0.1873
O4 O 0.80565(9) 0.12132(5) 0.29025(5)
O5 O 0.46189(9) 0.20118(5) 0.27996(5)
O6 O 0.70087(10) -0.01259(5) 0.46650(5)
H11 H 0.7707 -0.0267 0.4606
C16 C 0.77381(13) 0.16494(7) 0.24510(7)
H12 H 0.8346 0.1776 0.2167
C17 C 0.66129(12) 0.19200(6) 0.23733(6)
C18 C 0.56609(12) 0.17508(6) 0.28255(6)
C19 C 0.51746(13) 0.10425(7) 0.37732(7)
H13 H 0.4377 0.1209 0.3781
C20 C 0.55194(14) 0.05793(7) 0.42135(7)
H14 H 0.4959 0.0435 0.4516
C21 C 0.67209(13) 0.03216(6) 0.42089(7)
C22 C 0.75549(13) 0.05350(6) 0.37641(7)
H15 H 0.8351 0.0367 0.3759
C23 C 0.71832(12) 0.10062(6) 0.33245(6)
C24 C 0.59960(12) 0.12722(6) 0.33107(6)
C25 C 0.63957(12) 0.23893(6) 0.18413(6)
C26 C 0.72130(15) 0.29009(7) 0.17154(8)
H16 H 0.7890 0.2964 0.1977
C27 C 0.70334(17) 0.33191(9) 0.12046(9)
H17 H 0.7600 0.3655 0.1119
C28 C 0.60205(18) 0.32412(8) 0.08218(8)
H18 H 0.5895 0.3527 0.0481
C29 C 0.51974(17) 0.27383(8) 0.09468(8)
H19 H 0.4509 0.2686 0.0691
C30 C 0.53848(14) 0.23121(7) 0.14475(7)
H20 H 0.4828 0.1969 0.1523
loop_
_geom_bond_atom_site_label_1
_geom_bond_atom_site_label_2
_geom_bond_site_symmetry_1
_geom_bond_site_symmetry_2
O1 C1 1_555 1_555
O2 C3 1_555 1_555
O3 H1 1_555 1_555
C1 H2 1_555 1_555
C2 C1 1_555 1_555
C3 C2 1_555 1_555
C4 H3 1_555 1_555
C5 C4 1_555 1_555
H4 C5 1_555 1_555
C6 O3 1_555 1_555
C7 C6 1_555 1_555
H5 C7 1_555 1_555
C8 O1 1_555 1_555
C9 C3 1_555 1_555
C10 C2 1_555 1_555
C11 C10 1_555 1_555
H6 C11 1_555 1_555
C12 C11 1_555 1_555
H7 C12 1_555 1_555
C13 C12 1_555 1_555
H8 C13 1_555 1_555
C14 C13 1_555 1_555
H9 C14 1_555 1_555
C15 C10 1_555 1_555
H10 C15 1_555 1_555
O4 C16 1_555 1_555
O5 C18 1_555 1_555
O6 H11 1_555 1_555
C16 H12 1_555 1_555
C17 C16 1_555 1_555
C18 C17 1_555 1_555
C19 H13 1_555 1_555
C20 C19 1_555 1_555
H14 C20 1_555 1_555
C21 O6 1_555 1_555
C22 C21 1_555 1_555
H15 C22 1_555 1_555
C23 O4 1_555 1_555
C24 C18 1_555 1_555
C25 C17 1_555 1_555
C26 C25 1_555 1_555
H16 C26 1_555 1_555
C27 C26 1_555 1_555
H17 C27 1_555 1_555
C28 C27 1_555 1_555
H18 C28 1_555 1_555
C29 C28 1_555 1_555
H19 C29 1_555 1_555
C30 C25 1_555 1_555
H20 C30 1_555 1_555
C4 C9 1_555 1_555
C5 C6 1_555 1_555
C7 C8 1_555 1_555
C8 C9 1_555 1_555
C14 C15 1_555 1_555
C19 C24 1_555 1_555
C20 C21 1_555 1_555
C22 C23 1_555 1_555
C23 C24 1_555 1_555
C29 C30 1_555 1_555

#END
