
#######################################################################
#
#                 Cambridge Crystallographic Data Centre
#                                CCDC 
#
#######################################################################
#
# If this CIF has been generated from an entry in the Cambridge 
# Structural Database, then it will include bibliographic, chemical, 
# crystal, experimental, refinement or atomic coordinate data resulting 
# from the CCDC's data processing and validation procedures.
#
#######################################################################

data_KUZRAY
_chemical_formula_moiety         'C19 H24 N2'
_chemical_name_systematic        
r-4-t-Butyl-c-1-dicyanomethyl-t-1-phenylcyclohexane
_symmetry_cell_setting           triclinic
_symmetry_space_group_name_H-M   'P -1'
_symmetry_Int_Tables_number      2
_space_group_name_Hall           '-P 1'
loop_
_symmetry_equiv_pos_site_id
_symmetry_equiv_pos_as_xyz
1 x,y,z
2 -x,-y,-z
_cell_length_a                   8.331(1)
_cell_length_b                   17.829(2)
_cell_length_c                   18.643(2)
_cell_angle_alpha                71.82(1)
_cell_angle_beta                 78.96(1)
_cell_angle_gamma                85.66(1)
_cell_volume                     2581.81
_exptl_crystal_colour            white
_chemical_melting_point          123-124deg.C
_cell_formula_units_Z            6
loop_
_atom_site_label
_atom_site_type_symbol
_atom_site_fract_x
_atom_site_fract_y
_atom_site_fract_z
C1 C 0.4050(8) 0.3942(4) 0.4555(4)
C2 C 0.5607(10) 0.4216(4) 0.4640(4)
N1 N 0.6766(8) 0.4444(4) 0.4732(4)
C3 C 0.4020(10) 0.4105(4) 0.3728(5)
N2 N 0.3933(9) 0.4236(4) 0.3102(4)
C4 C -0.2306(8) 0.3308(4) 0.6629(4)
C5 C -0.0588(8) 0.4462(3) 0.6315(4)
C6 C -0.0448(9) 0.3356(4) 0.7496(4)
C19 C 0.3712(8) 0.3041(4) 0.5017(4)
C20 C 0.1954(8) 0.2864(4) 0.4973(4)
C21 C 0.0619(8) 0.3298(3) 0.5388(3)
C22 C 0.0746(8) 0.3150(4) 0.6227(3)
C23 C 0.2467(7) 0.3357(4) 0.6276(3)
C24 C 0.3787(8) 0.2911(3) 0.5871(3)
C25 C 0.4997(8) 0.2527(4) 0.4665(4)
C26 C 0.4699(9) 0.2200(4) 0.4129(4)
C27 C 0.5909(9) 0.1744(4) 0.3808(4)
C28 C 0.7385(9) 0.1624(4) 0.4035(4)
C29 C 0.7725(10) 0.1942(4) 0.4556(4)
C30 C 0.6539(9) 0.2396(4) 0.4884(4)
C31 C -0.0612(9) 0.3575(4) 0.6659(4)
H1 H 0.177 0.224 0.523
H2 H 0.184 0.304 0.438
H3 H -0.056 0.310 0.536
H4 H 0.072 0.392 0.510
H5 H 0.054 0.253 0.652
H6 H 0.258 0.320 0.687
H7 H 0.264 0.398 0.601
H8 H 0.497 0.310 0.590
H9 H 0.366 0.229 0.617
H10 H 0.307 0.427 0.480
H11 H 0.352 0.229 0.395
H12 H 0.566 0.149 0.338
H13 H 0.831 0.127 0.379
H14 H 0.892 0.185 0.472
H15 H 0.681 0.265 0.531
H16 H -0.238 0.267 0.687
H17 H -0.248 0.348 0.604
H18 H -0.324 0.358 0.695
H19 H 0.058 0.468 0.632
H20 H -0.154 0.472 0.664
H21 H -0.079 0.462 0.573
H22 H 0.073 0.354 0.754
H23 H -0.056 0.272 0.775
H24 H -0.140 0.365 0.779
C7 C 0.2634(8) 0.7450(4) 0.9332(4)
C8 C 0.1805(10) 0.7568(5) 1.0054(5)
N3 N 0.1100(10) 0.7647(5) 1.0604(4)
C9 C 0.3796(11) 0.8088(5) 0.8924(5)
N4 N 0.4651(10) 0.8589(4) 0.8591(4)
C10 C -0.0409(8) 0.6893(4) 0.7617(4)
C11 C 0.1485(9) 0.5990(4) 0.7060(4)
C12 C -0.0738(9) 0.5448(4) 0.8154(4)
C32 C 0.3417(8) 0.6600(4) 0.9422(4)
C33 C 0.4242(8) 0.6551(4) 0.8626(3)
C34 C 0.3083(8) 0.6653(4) 0.8061(4)
C35 C 0.1713(8) 0.6041(4) 0.8373(4)
C36 C 0.0833(8) 0.6090(4) 0.9155(3)
C37 C 0.1998(8) 0.6010(4) 0.9709(3)
C38 C 0.4610(9) 0.6432(4) 0.9977(4)
C39 C 0.6163(9) 0.6768(4) 0.9745(4)
C40 C 0.7208(10) 0.6648(4) 1.0285(4)
C41 C 0.6755(10) 0.6216(4) 1.1010(5)
C42 C 0.5250(10) 0.5893(4) 1.1270(5)
C43 C 0.4189(10) 0.6016(4) 1.0742(4)
C44 C 0.0521(9) 0.6100(4) 0.7812(4)
H25 H 0.484 0.598 0.870
H26 H 0.515 0.701 0.838
H27 H 0.254 0.724 0.795
H28 H 0.377 0.659 0.753
H29 H 0.228 0.546 0.844
H30 H -0.004 0.562 0.940
H31 H 0.020 0.665 0.908
H32 H 0.130 0.609 1.023
H33 H 0.252 0.542 0.983
H34 H 0.172 0.748 0.898
H35 H 0.656 0.712 0.916
H36 H 0.840 0.691 1.010
H37 H 0.761 0.612 1.140
H38 H 0.488 0.555 1.186
H39 H 0.298 0.577 1.095
H40 H 0.045 0.737 0.737
H41 H -0.116 0.696 0.813
H42 H -0.118 0.690 0.721
H43 H 0.239 0.645 0.680
H44 H 0.065 0.603 0.667
H45 H 0.209 0.542 0.718
H46 H -0.012 0.488 0.830
H47 H -0.150 0.547 0.774
H48 H -0.149 0.553 0.867
C13 C -0.1999(9) -0.0564(4) 0.7658(4)
C14 C -0.2157(10) -0.0873(5) 0.7044(5)
N5 N -0.2318(11) -0.1108(4) 0.6570(4)
C15 C -0.0971(11) -0.1103(5) 0.8152(5)
N6 N -0.0205(11) -0.1517(4) 0.8544(5)
C16 C -0.6672(9) 0.0503(4) 0.9071(4)
C17 C -0.6808(9) 0.1897(4) 0.8268(4)
C18 C -0.5359(9) 0.1534(4) 0.9376(4)
C45 C -0.1399(9) 0.0319(4) 0.7357(4)
C46 C -0.1215(8) 0.0586(4) 0.8045(4)
C47 C -0.2810(8) 0.0626(4) 0.8604(4)
C48 C -0.4085(8) 0.1165(4) 0.8195(4)
C49 C -0.4335(8) 0.0898(4) 0.7520(4)
C50 C -0.2743(8) 0.0848(4) 0.6972(3)
C51 C 0.0225(9) 0.0383(4) 0.6791(4)
C52 C 0.0235(10) 0.0560(4) 0.6014(4)
C53 C 0.1723(11) 0.0590(4) 0.5493(5)
C54 C 0.3114(11) 0.0440(4) 0.5769(5)
C55 C 0.3144(12) 0.0205(5) 0.6507(5)
C56 C 0.1682(11) 0.0168(4) 0.7051(5)
C57 C -0.5706(10) 0.1269(5) 0.8717(5)
H49 H -0.039 0.018 0.836
H50 H -0.069 0.117 0.783
H51 H -0.255 0.085 0.904
H52 H -0.330 0.004 0.887
H53 H -0.360 0.175 0.798
H54 H -0.515 0.131 0.720
H55 H -0.488 0.032 0.774
H56 H -0.301 0.062 0.654
H57 H -0.227 0.144 0.670
H58 H -0.319 -0.053 0.800
H59 H -0.091 0.068 0.580
H60 H 0.173 0.073 0.488
H61 H 0.426 0.052 0.537
H62 H 0.429 0.004 0.670
H63 H 0.171 -0.003 0.766
H64 H -0.694 0.030 0.862
H65 H -0.780 0.061 0.942
H66 H -0.596 0.006 0.942
H67 H -0.616 0.245 0.801
H68 H -0.790 0.199 0.865
H69 H -0.714 0.170 0.783
H70 H -0.468 0.207 0.915
H71 H -0.466 0.108 0.973
H72 H -0.650 0.163 0.972
loop_
_geom_bond_atom_site_label_1
_geom_bond_atom_site_label_2
_geom_bond_site_symmetry_1
_geom_bond_site_symmetry_2
C1 C2 1_555 1_555
C2 N1 1_555 1_555
C3 C1 1_555 1_555
N2 C3 1_555 1_555
C4 C31 1_555 1_555
C5 C31 1_555 1_555
C6 C31 1_555 1_555
C7 C8 1_555 1_555
C8 N3 1_555 1_555
C9 C7 1_555 1_555
N4 C9 1_555 1_555
C10 C44 1_555 1_555
C11 C44 1_555 1_555
C12 C44 1_555 1_555
C13 C14 1_555 1_555
C14 N5 1_555 1_555
C15 C13 1_555 1_555
N6 C15 1_555 1_555
C16 C57 1_555 1_555
C17 C57 1_555 1_555
C18 C57 1_555 1_555
C19 C1 1_555 1_555
C20 C19 1_555 1_555
C21 C20 1_555 1_555
C22 C21 1_555 1_555
C23 C22 1_555 1_555
C24 C19 1_555 1_555
C25 C19 1_555 1_555
C26 C25 1_555 1_555
C27 C26 1_555 1_555
C28 C27 1_555 1_555
C29 C28 1_555 1_555
C30 C25 1_555 1_555
C31 C22 1_555 1_555
C32 C7 1_555 1_555
C33 C32 1_555 1_555
C34 C33 1_555 1_555
C35 C34 1_555 1_555
C36 C35 1_555 1_555
C37 C32 1_555 1_555
C38 C32 1_555 1_555
C39 C38 1_555 1_555
C40 C39 1_555 1_555
C41 C40 1_555 1_555
C42 C41 1_555 1_555
C43 C38 1_555 1_555
C44 C35 1_555 1_555
C45 C13 1_555 1_555
C46 C45 1_555 1_555
C47 C46 1_555 1_555
C48 C47 1_555 1_555
C49 C48 1_555 1_555
C50 C45 1_555 1_555
C51 C45 1_555 1_555
C52 C51 1_555 1_555
C53 C52 1_555 1_555
C54 C53 1_555 1_555
C55 C54 1_555 1_555
C56 C51 1_555 1_555
C57 C48 1_555 1_555
H1 C20 1_555 1_555
H2 C20 1_555 1_555
H3 C21 1_555 1_555
H4 C21 1_555 1_555
H5 C22 1_555 1_555
H6 C23 1_555 1_555
H7 C23 1_555 1_555
H8 C24 1_555 1_555
H9 C24 1_555 1_555
H10 C1 1_555 1_555
H11 C26 1_555 1_555
H12 C27 1_555 1_555
H13 C28 1_555 1_555
H14 C29 1_555 1_555
H15 C30 1_555 1_555
H16 C4 1_555 1_555
H17 C4 1_555 1_555
H18 C4 1_555 1_555
H19 C5 1_555 1_555
H20 C5 1_555 1_555
H21 C5 1_555 1_555
H22 C6 1_555 1_555
H23 C6 1_555 1_555
H24 C6 1_555 1_555
H25 C33 1_555 1_555
H26 C33 1_555 1_555
H27 C34 1_555 1_555
H28 C34 1_555 1_555
H29 C35 1_555 1_555
H30 C36 1_555 1_555
H31 C36 1_555 1_555
H32 C37 1_555 1_555
H33 C37 1_555 1_555
H34 C7 1_555 1_555
H35 C39 1_555 1_555
H36 C40 1_555 1_555
H37 C41 1_555 1_555
H38 C42 1_555 1_555
H39 C43 1_555 1_555
H40 C10 1_555 1_555
H41 C10 1_555 1_555
H42 C10 1_555 1_555
H43 C11 1_555 1_555
H44 C11 1_555 1_555
H45 C11 1_555 1_555
H46 C12 1_555 1_555
H47 C12 1_555 1_555
H48 C12 1_555 1_555
H49 C46 1_555 1_555
H50 C46 1_555 1_555
H51 C47 1_555 1_555
H52 C47 1_555 1_555
H53 C48 1_555 1_555
H54 C49 1_555 1_555
H55 C49 1_555 1_555
H56 C50 1_555 1_555
H57 C50 1_555 1_555
H58 C13 1_555 1_555
H59 C52 1_555 1_555
H60 C53 1_555 1_555
H61 C54 1_555 1_555
H62 C55 1_555 1_555
H63 C56 1_555 1_555
H64 C16 1_555 1_555
H65 C16 1_555 1_555
H66 C16 1_555 1_555
H67 C17 1_555 1_555
H68 C17 1_555 1_555
H69 C17 1_555 1_555
H70 C18 1_555 1_555
H71 C18 1_555 1_555
H72 C18 1_555 1_555
C23 C24 1_555 1_555
C29 C30 1_555 1_555
C36 C37 1_555 1_555
C42 C43 1_555 1_555
C49 C50 1_555 1_555
C55 C56 1_555 1_555

#END
