
#######################################################################
#
#                 Cambridge Crystallographic Data Centre
#                                CCDC 
#
#######################################################################
#
# If this CIF has been generated from an entry in the Cambridge 
# Structural Database, then it will include bibliographic, chemical, 
# crystal, experimental, refinement or atomic coordinate data resulting 
# from the CCDC's data processing and validation procedures.
#
#######################################################################

data_KUZRIH
_chemical_name_common            2-Ethyl-5-trityl-1,3-dioxane
_chemical_formula_moiety         'C25 H26 O2'
_chemical_name_systematic        2-Ethyl-5-triphenylmethyl-1,3-dioxane
_symmetry_cell_setting           monoclinic
_symmetry_space_group_name_H-M   'P 21/c'
_symmetry_Int_Tables_number      14
_space_group_name_Hall           '-P 2ybc'
loop_
_symmetry_equiv_pos_site_id
_symmetry_equiv_pos_as_xyz
1 x,y,z
2 -x,1/2+y,1/2-z
3 -x,-y,-z
4 x,1/2-y,1/2+z
_cell_length_a                   10.5401(6)
_cell_length_b                   13.3550(8)
_cell_length_c                   14.6044(8)
_cell_angle_alpha                90
_cell_angle_beta                 110.523(1)
_cell_angle_gamma                90
_cell_volume                     1925.28
_exptl_crystal_colour            colorless
_exptl_crystal_description       block
_cell_formula_units_Z            4
_exptl_crystal_recrystallization_method 'ethyl acetate'
loop_
_atom_site_label
_atom_site_type_symbol
_atom_site_fract_x
_atom_site_fract_y
_atom_site_fract_z
O1 O 0.30810(9) 0.32447(7) 0.08575(6)
O2 O 0.26796(9) 0.32596(7) 0.23220(7)
C1 C 0.71880(14) 0.43893(10) 0.23149(9)
C2 C 0.65864(15) 0.52062(11) 0.17152(10)
H1 H 0.5682 0.5389 0.1633
C3 C 0.72914(16) 0.57512(11) 0.12403(11)
H2 H 0.6864 0.6300 0.0835
C4 C 0.86148(16) 0.55018(12) 0.13528(11)
H3 H 0.9093 0.5872 0.1022
C5 C 0.92283(15) 0.47091(12) 0.19517(11)
H4 H 1.0137 0.4537 0.2038
C6 C 0.85276(14) 0.41622(11) 0.24288(10)
H5 H 0.8968 0.3622 0.2841
C7 C 0.69636(13) 0.27847(10) 0.32337(10)
C8 C 0.72962(14) 0.21427(11) 0.25990(11)
H6 H 0.7284 0.2387 0.1985
C9 C 0.76470(15) 0.11462(12) 0.28526(13)
H7 H 0.7870 0.0719 0.2411
C10 C 0.76718(16) 0.07774(12) 0.37422(14)
H8 H 0.7914 0.0100 0.3915
C11 C 0.73423(16) 0.13999(12) 0.43758(13)
H9 H 0.7355 0.1150 0.4988
C12 C 0.69899(14) 0.23933(11) 0.41254(11)
H10 H 0.6763 0.2813 0.4570
C13 C 0.67391(13) 0.45454(10) 0.38294(9)
C14 C 0.80413(14) 0.45411(11) 0.45377(10)
H11 H 0.8701 0.4091 0.4470
C15 C 0.83889(15) 0.51776(11) 0.53341(10)
H12 H 0.9278 0.5156 0.5807
C16 C 0.74504(15) 0.58467(11) 0.54476(10)
H13 H 0.7689 0.6287 0.5993
C17 C 0.61592(15) 0.58622(11) 0.47519(10)
H14 H 0.5504 0.6314 0.4824
C18 C 0.58085(14) 0.52241(10) 0.39474(10)
H15 H 0.4921 0.5253 0.3473
C19 C 0.64436(13) 0.38587(10) 0.29220(9)
C20 C 0.48869(13) 0.37838(10) 0.23326(9)
H16 H 0.4528 0.4483 0.2205
C21 C 0.45229(13) 0.32618(11) 0.13438(10)
H17 H 0.4950 0.3620 0.0933
H18 H 0.4876 0.2568 0.1440
C22 C 0.41008(13) 0.32455(11) 0.28894(10)
H19 H 0.4418 0.2545 0.3020
H20 H 0.4263 0.3582 0.3525
C23 C 0.24357(14) 0.27454(11) 0.14269(9)
H21 H 0.2791 0.2046 0.1563
C24 C 0.09327(14) 0.27184(11) 0.08743(10)
H22 H 0.0758 0.2405 0.0227
H23 H 0.0578 0.3412 0.0765
C25 C 0.01923(15) 0.21322(12) 0.14283(11)
H24 H -0.0782 0.2131 0.1051
H25 H 0.0354 0.2447 0.2066
H26 H 0.0528 0.1442 0.1525
loop_
_geom_bond_atom_site_label_1
_geom_bond_atom_site_label_2
_geom_bond_site_symmetry_1
_geom_bond_site_symmetry_2
O1 C21 1_555 1_555
O2 C22 1_555 1_555
C1 C2 1_555 1_555
C2 H1 1_555 1_555
C3 C2 1_555 1_555
H2 C3 1_555 1_555
C4 C3 1_555 1_555
H3 C4 1_555 1_555
C5 C4 1_555 1_555
H4 C5 1_555 1_555
C6 C1 1_555 1_555
H5 C6 1_555 1_555
C7 C8 1_555 1_555
C8 H6 1_555 1_555
C9 C8 1_555 1_555
H7 C9 1_555 1_555
C10 C9 1_555 1_555
H8 C10 1_555 1_555
C11 C10 1_555 1_555
H9 C11 1_555 1_555
C12 C7 1_555 1_555
H10 C12 1_555 1_555
C13 C14 1_555 1_555
C14 H11 1_555 1_555
C15 C14 1_555 1_555
H12 C15 1_555 1_555
C16 C15 1_555 1_555
H13 C16 1_555 1_555
C17 C16 1_555 1_555
H14 C17 1_555 1_555
C18 C13 1_555 1_555
H15 C18 1_555 1_555
C19 C1 1_555 1_555
C20 C19 1_555 1_555
H16 C20 1_555 1_555
C21 C20 1_555 1_555
H17 C21 1_555 1_555
H18 C21 1_555 1_555
C22 C20 1_555 1_555
H19 C22 1_555 1_555
H20 C22 1_555 1_555
C23 O1 1_555 1_555
H21 C23 1_555 1_555
C24 C23 1_555 1_555
H22 C24 1_555 1_555
H23 C24 1_555 1_555
C25 C24 1_555 1_555
H24 C25 1_555 1_555
H25 C25 1_555 1_555
H26 C25 1_555 1_555
O2 C23 1_555 1_555
C5 C6 1_555 1_555
C7 C19 1_555 1_555
C11 C12 1_555 1_555
C13 C19 1_555 1_555
C17 C18 1_555 1_555

#END
