
#######################################################################
#
#                 Cambridge Crystallographic Data Centre
#                                CCDC 
#
#######################################################################
#
# If this CIF has been generated from an entry in the Cambridge 
# Structural Database, then it will include bibliographic, chemical, 
# crystal, experimental, refinement or atomic coordinate data resulting 
# from the CCDC's data processing and validation procedures.
#
#######################################################################

data_LADCEB01
_chemical_compound_source        'isolated from Mylabis phalerata Palla'
_chemical_name_common            'Palasoninimide A'
_chemical_formula_moiety         'C9 H11 N1 O3'
_chemical_name_systematic        
2-methyl-10-oxa-4-azatricyclo[5.2.1.0^2,6^]decane-3,5-dione
_symmetry_cell_setting           orthorhombic
_symmetry_space_group_name_H-M   'P 21 21 21'
_symmetry_Int_Tables_number      19
_space_group_name_Hall           'P 2ac 2ab'
loop_
_symmetry_equiv_pos_site_id
_symmetry_equiv_pos_as_xyz
1 x,y,z
2 1/2-x,-y,1/2+z
3 1/2+x,1/2-y,-z
4 -x,1/2+y,1/2-z
_cell_length_a                   5.3760(5)
_cell_length_b                   11.9366(11)
_cell_length_c                   13.1122(13)
_cell_angle_alpha                90
_cell_angle_beta                 90
_cell_angle_gamma                90
_cell_volume                     841.425
_exptl_crystal_description       prism
_cell_formula_units_Z            4
loop_
_atom_site_label
_atom_site_type_symbol
_atom_site_fract_x
_atom_site_fract_y
_atom_site_fract_z
O1 O 0.1807(3) 0.29254(12) 0.39803(11)
O2 O 0.5555(3) 0.16880(11) 0.17117(11)
C1 C 0.3460(4) 0.03589(15) 0.26719(14)
C2 C 0.2985(4) 0.20551(16) 0.17041(15)
H1 H 0.2784 0.2871 0.1708
O3 O 0.6781(3) -0.01510(12) 0.38688(11)
N1 N 0.4599(3) 0.14816(13) 0.40877(12)
H2 H 0.5361 0.1710 0.4626
C3 C 0.2694(4) 0.20649(16) 0.36376(15)
C4 C 0.3419(4) 0.03756(17) 0.07365(15)
H3 H 0.2334 -0.0272 0.0783
H4 H 0.4428 0.0317 0.0126
C5 C 0.1943(4) 0.14670(15) 0.26711(14)
H5 H 0.0145 0.1337 0.2631
C6 C 0.1916(4) 0.14848(17) 0.07553(15)
H6 H 0.2209 0.1927 0.0146
H7 H 0.0146 0.1346 0.0826
C7 C 0.5030(4) 0.04987(16) 0.16907(15)
H8 H 0.6528 0.0031 0.1680
C8 C 0.5181(4) 0.04894(15) 0.35931(14)
C9 C 0.2025(4) -0.07417(16) 0.27564(15)
H9 H 0.1292 -0.0798 0.3422
H10 H 0.3142 -0.1359 0.2652
H11 H 0.0740 -0.0761 0.2249
loop_
_geom_bond_atom_site_label_1
_geom_bond_atom_site_label_2
_geom_bond_site_symmetry_1
_geom_bond_site_symmetry_2
O1 C3 1_555 1_555
O2 C2 1_555 1_555
C1 C5 1_555 1_555
C2 H1 1_555 1_555
O3 C8 1_555 1_555
N1 H2 1_555 1_555
C3 N1 1_555 1_555
C4 H3 1_555 1_555
H4 C4 1_555 1_555
C5 C2 1_555 1_555
H5 C5 1_555 1_555
C6 C2 1_555 1_555
H6 C6 1_555 1_555
H7 C6 1_555 1_555
C7 O2 1_555 1_555
H8 C7 1_555 1_555
C8 C1 1_555 1_555
C9 C1 1_555 1_555
H9 C9 1_555 1_555
H10 C9 1_555 1_555
H11 C9 1_555 1_555
C1 C7 1_555 1_555
N1 C8 1_555 1_555
C3 C5 1_555 1_555
C4 C6 1_555 1_555
C4 C7 1_555 1_555

#END
