
#######################################################################
#
#                 Cambridge Crystallographic Data Centre
#                                CCDC 
#
#######################################################################
#
# If this CIF has been generated from an entry in the Cambridge 
# Structural Database, then it will include bibliographic, chemical, 
# crystal, experimental, refinement or atomic coordinate data resulting 
# from the CCDC's data processing and validation procedures.
#
#######################################################################

data_LAFVAS
_chemical_formula_moiety         'C22 H18 O3'
_chemical_name_systematic        4,6-dimethoxy-2,3-diphenyl-1-benzofuran
_symmetry_cell_setting           triclinic
_symmetry_space_group_name_H-M   'P -1'
_symmetry_Int_Tables_number      2
_space_group_name_Hall           '-P 1'
loop_
_symmetry_equiv_pos_site_id
_symmetry_equiv_pos_as_xyz
1 x,y,z
2 -x,-y,-z
_cell_length_a                   8.0579(6)
_cell_length_b                   9.5536(7)
_cell_length_c                   11.1123(8)
_cell_angle_alpha                85.301(2)
_cell_angle_beta                 87.020(2)
_cell_angle_gamma                81.260(2)
_cell_volume                     841.992
_exptl_crystal_colour            colorless
_cell_formula_units_Z            2
loop_
_atom_site_label
_atom_site_type_symbol
_atom_site_fract_x
_atom_site_fract_y
_atom_site_fract_z
O1 O -0.16423(19) 1.03159(13) 0.22693(12)
O2 O 0.14253(16) 0.64577(11) 0.47232(10)
O3 O 0.13898(18) 0.62270(13) 0.06014(11)
C1 C -0.2354(3) 1.1060(2) 0.3270(2)
H1 H -0.2982 1.0459 0.3789
H2 H -0.3088 1.1896 0.2988
H3 H -0.1473 1.1328 0.3712
C2 C -0.0613(2) 0.90522(18) 0.25028(17)
C3 C -0.0133(2) 0.85135(18) 0.36340(17)
H4 H -0.0459 0.8995 0.4322
C4 C 0.0874(2) 0.71991(18) 0.36782(16)
C5 C 0.1392(2) 0.64175(17) 0.26958(16)
C6 C 0.2282(2) 0.50767(17) 0.31819(16)
C7 C 0.2895(2) 0.38138(17) 0.24989(16)
C8 C 0.2270(3) 0.25481(19) 0.28096(18)
H5 H 0.1491 0.2498 0.3453
C9 C 0.2790(3) 0.1365(2) 0.2176(2)
H6 H 0.2366 0.0524 0.2394
C10 C 0.3935(3) 0.1436(2) 0.1224(2)
H7 H 0.4282 0.0642 0.0793
C11 C 0.2297(2) 0.51618(17) 0.43947(16)
C12 C 0.0888(2) 0.70192(18) 0.15548(16)
C13 C 0.0699(3) 0.6720(2) -0.05352(18)
H8 H -0.0505 0.6843 -0.0454
H9 H 0.1079 0.6037 -0.1115
H10 H 0.1058 0.7611 -0.0804
C14 C -0.0093(2) 0.83372(18) 0.14677(17)
H11 H -0.0413 0.8754 0.0713
C15 C 0.4059(2) 0.3859(2) 0.15375(17)
H12 H 0.4498 0.4693 0.1318
C16 C 0.4569(3) 0.2674(2) 0.0906(2)
H13 H 0.5348 0.2715 0.0261
C17 C 0.3041(2) 0.42361(17) 0.54000(16)
C18 C 0.4305(2) 0.3106(2) 0.52025(18)
H14 H 0.4693 0.2939 0.4417
C19 C 0.4986(3) 0.2231(2) 0.61487(19)
H15 H 0.5813 0.1468 0.5998
C20 C 0.4454(3) 0.2476(2) 0.73195(19)
H16 H 0.4920 0.1883 0.7960
C21 C 0.3231(3) 0.3603(2) 0.75333(18)
H17 H 0.2876 0.3780 0.8323
C22 C 0.2525(3) 0.44774(19) 0.65858(16)
H18 H 0.1694 0.5236 0.6743
loop_
_geom_bond_atom_site_label_1
_geom_bond_atom_site_label_2
_geom_bond_site_symmetry_1
_geom_bond_site_symmetry_2
O1 C1 1_555 1_555
O2 C4 1_555 1_555
O3 C12 1_555 1_555
C1 H1 1_555 1_555
H2 C1 1_555 1_555
H3 C1 1_555 1_555
C2 O1 1_555 1_555
C3 C2 1_555 1_555
H4 C3 1_555 1_555
C4 C3 1_555 1_555
C5 C4 1_555 1_555
C6 C5 1_555 1_555
C7 C6 1_555 1_555
C8 C7 1_555 1_555
H5 C8 1_555 1_555
C9 C8 1_555 1_555
H6 C9 1_555 1_555
C10 C9 1_555 1_555
H7 C10 1_555 1_555
C11 O2 1_555 1_555
C12 C5 1_555 1_555
C13 O3 1_555 1_555
H8 C13 1_555 1_555
H9 C13 1_555 1_555
H10 C13 1_555 1_555
C14 C2 1_555 1_555
H11 C14 1_555 1_555
C15 C7 1_555 1_555
H12 C15 1_555 1_555
C16 C10 1_555 1_555
H13 C16 1_555 1_555
C17 C11 1_555 1_555
C18 C17 1_555 1_555
H14 C18 1_555 1_555
C19 C18 1_555 1_555
H15 C19 1_555 1_555
C20 C19 1_555 1_555
H16 C20 1_555 1_555
C21 C20 1_555 1_555
H17 C21 1_555 1_555
C22 C17 1_555 1_555
H18 C22 1_555 1_555
C6 C11 1_555 1_555
C12 C14 1_555 1_555
C15 C16 1_555 1_555
C21 C22 1_555 1_555

#END
