
#######################################################################
#
#                 Cambridge Crystallographic Data Centre
#                                CCDC 
#
#######################################################################
#
# If this CIF has been generated from an entry in the Cambridge 
# Structural Database, then it will include bibliographic, chemical, 
# crystal, experimental, refinement or atomic coordinate data resulting 
# from the CCDC's data processing and validation procedures.
#
#######################################################################

data_LAHBEC
_chemical_formula_moiety         'C20 H4 F8 N2'
_chemical_name_systematic        
1,4-bis(2,3,5,6-Tetrafluoropyridylethynyl)benzene
_symmetry_cell_setting           monoclinic
_symmetry_space_group_name_H-M   'P 21/c'
_symmetry_Int_Tables_number      14
_space_group_name_Hall           '-P 2ybc'
loop_
_symmetry_equiv_pos_site_id
_symmetry_equiv_pos_as_xyz
1 x,y,z
2 x,1/2-y,1/2+z
3 -x,-y,-z
4 -x,1/2+y,1/2-z
_cell_length_a                   8.920(2)
_cell_length_b                   5.060(1)
_cell_length_c                   18.101(4)
_cell_angle_alpha                90.00
_cell_angle_beta                 91.93(3)
_cell_angle_gamma                90.00
_cell_volume                     816.529
_exptl_crystal_colour            'light yellow'
_exptl_crystal_description       needle
_chemical_melting_point          '520 K'
_cell_formula_units_Z            2
_exptl_crystal_recrystallization_method toluene
_exptl_crystal_preparation       luminescent
loop_
_atom_site_label
_atom_site_type_symbol
_atom_site_fract_x
_atom_site_fract_y
_atom_site_fract_z
F1 F -0.0905(2) 0.2752(4) 0.12876(12)
F2 F 0.0334(2) 0.6933(4) 0.05887(9)
F3 F 0.4083(2) 0.7066(4) 0.24904(9)
F4 F 0.2654(2) 0.2917(4) 0.31081(10)
N1 N 0.0893(3) 0.2866(5) 0.21905(14)
C1 C 0.0340(3) 0.3876(5) 0.15724(16)
C2 C 0.0969(3) 0.5984(5) 0.12140(14)
C3 C 0.2275(3) 0.7126(5) 0.15028(13)
C4 C 0.2847(3) 0.6056(5) 0.21620(14)
C5 C 0.2110(3) 0.3951(6) 0.24768(15)
C6 C 0.3000(3) 0.9236(5) 0.11371(13)
C7 C 0.3604(3) 1.0963(5) 0.08047(13)
C8 C 0.4313(3) 1.3013(5) 0.03969(13)
C9 C 0.5695(3) 1.4024(5) 0.06467(13)
H1 H 0.623(4) 1.336(8) 0.113(2)
C10 C 0.3621(3) 1.3988(5) -0.02503(14)
H2 H 0.267(4) 1.335(8) -0.039(2)
C10B C 0.6379(3) 1.6012(5) 0.02503(14)
C8B C 0.5687(3) 1.6987(5) -0.03969(13)
C7B C 0.6396(3) 1.9037(5) -0.08047(13)
C6B C 0.7000(3) 2.0764(5) -0.11371(13)
C3B C 0.7725(3) 2.2874(5) -0.15028(13)
C2B C 0.9031(3) 2.4016(5) -0.12140(14)
F2B F 0.9666(2) 2.3067(4) -0.05887(9)
C1B C 0.9660(3) 2.6124(5) -0.15724(16)
F1B F 1.0905(2) 2.7248(4) -0.12876(12)
N1B N 0.9107(3) 2.7134(5) -0.21905(14)
C5B C 0.7890(3) 2.6049(6) -0.24768(15)
F4B F 0.7346(2) 2.7083(4) -0.31081(10)
C4B C 0.7153(3) 2.3944(5) -0.21620(14)
F3B F 0.5917(2) 2.2934(4) -0.24904(9)
C9B C 0.4305(3) 1.5976(5) -0.06467(13)
H1B H 0.377(4) 1.664(8) -0.113(2)
H2B H 0.733(4) 1.665(8) 0.039(2)
loop_
_geom_bond_atom_site_label_1
_geom_bond_atom_site_label_2
_geom_bond_site_symmetry_1
_geom_bond_site_symmetry_2
F1 C1 1_555 1_555
F2 C2 1_555 1_555
F3 C4 1_555 1_555
F4 C5 1_555 1_555
N1 C1 1_555 1_555
C1 C2 1_555 1_555
C2 C3 1_555 1_555
C3 C4 1_555 1_555
C4 C5 1_555 1_555
C5 N1 1_555 1_555
C6 C3 1_555 1_555
C7 C6 1_555 1_555
C8 C7 1_555 1_555
C9 C8 1_555 1_555
H1 C9 1_555 1_555
C10 C8 1_555 1_555
H2 C10 1_555 1_555
C10B C9 1_555 1_555
C8B C10B 1_555 1_555
C7B C8B 1_555 1_555
C6B C7B 1_555 1_555
C3B C6B 1_555 1_555
C2B C3B 1_555 1_555
F2B C2B 1_555 1_555
C1B C2B 1_555 1_555
F1B C1B 1_555 1_555
N1B C1B 1_555 1_555
C5B N1B 1_555 1_555
F4B C5B 1_555 1_555
C4B C3B 1_555 1_555
F3B C4B 1_555 1_555
C9B C10 1_555 1_555
H1B C9B 1_555 1_555
H2B C10B 1_555 1_555
C8B C9B 1_555 1_555
C5B C4B 1_555 1_555

#END
