
#######################################################################
#
#                 Cambridge Crystallographic Data Centre
#                                CCDC 
#
#######################################################################
#
# If this CIF has been generated from an entry in the Cambridge 
# Structural Database, then it will include bibliographic, chemical, 
# crystal, experimental, refinement or atomic coordinate data resulting 
# from the CCDC's data processing and validation procedures.
#
#######################################################################

data_LAHCUT
_chemical_formula_moiety         'C40 H36 N2'
_chemical_name_systematic        
N,N,N',N'-Tetraphenyl-2,2',6,6'-tetramethyl-1,1'-biphenyl-4,4'-diamine
_symmetry_cell_setting           monoclinic
_symmetry_space_group_name_H-M   'C 2/c'
_symmetry_Int_Tables_number      15
_space_group_name_Hall           '-C 2yn'
loop_
_symmetry_equiv_pos_site_id
_symmetry_equiv_pos_as_xyz
1 x,y,z
2 1/2+x,1/2+y,z
3 x,-y,1/2+z
4 1/2+x,1/2-y,1/2+z
5 -x,-y,-z
6 1/2-x,1/2-y,-z
7 -x,y,1/2-z
8 1/2-x,1/2+y,1/2-z
_cell_length_a                   9.7412(8)
_cell_length_b                   16.6699(12)
_cell_length_c                   18.7844(16)
_cell_angle_alpha                90
_cell_angle_beta                 97.068(4)
_cell_angle_gamma                90
_cell_volume                     3027.12
_exptl_crystal_colour            colorless
_exptl_crystal_description       'rectangular prism'
_cell_formula_units_Z            4
loop_
_atom_site_label
_atom_site_type_symbol
_atom_site_fract_x
_atom_site_fract_y
_atom_site_fract_z
N1 N 0.50454(14) 0.24844(7) 0.51497(6)
C1 C 0.50233(14) 0.23241(8) 0.29005(6)
C2 C 0.41065(14) 0.18528(8) 0.32430(7)
C3 C 0.41256(14) 0.19037(8) 0.39867(7)
C4 C 0.50486(15) 0.24095(8) 0.43928(7)
C5 C 0.59670(15) 0.28671(8) 0.40519(7)
C6 C 0.59546(14) 0.28363(8) 0.33092(7)
C7 C 0.49505(14) 0.17941(8) 0.55755(7)
C8 C 0.42143(16) 0.18008(9) 0.61701(8)
C9 C 0.41321(17) 0.11084(10) 0.65744(8)
C10 C 0.47614(17) 0.04039(9) 0.63959(8)
C11 C 0.54895(15) 0.03986(8) 0.58123(8)
C12 C 0.55943(15) 0.10842(8) 0.54038(7)
C13 C 0.30581(16) 0.13177(9) 0.28215(8)
C14 C 0.48585(15) 0.32637(8) 0.54325(7)
C15 C 0.39198(15) 0.37948(9) 0.50696(8)
C16 C 0.37406(17) 0.45524(9) 0.53501(9)
C17 C 0.4470(2) 0.47830(9) 0.59899(9)
C18 C 0.5409(2) 0.42578(10) 0.63503(9)
C19 C 0.56171(19) 0.35016(10) 0.60712(8)
C20 C 0.69348(17) 0.33521(10) 0.29522(8)
H1 H 0.3475(18) 0.1586(10) 0.4225(9)
H2 H 0.6602(16) 0.3218(9) 0.4334(8)
H3 H 0.3734(19) 0.2291(11) 0.6275(9)
H4 H 0.358(2) 0.1114(11) 0.6979(10)
H5 H 0.468(2) -0.0093(12) 0.6695(10)
H6 H 0.5962(18) -0.0088(11) 0.5670(9)
H7 H 0.6117(17) 0.1069(9) 0.4988(9)
H8 H 0.226(3) 0.1617(16) 0.2604(14)
H9 H 0.342(2) 0.1067(14) 0.2422(13)
H10 H 0.268(3) 0.0880(14) 0.3110(13)
H11 H 0.3347(19) 0.3633(11) 0.4611(10)
H12 H 0.308(2) 0.4939(12) 0.5068(10)
H13 H 0.436(2) 0.5329(12) 0.6197(10)
H14 H 0.598(2) 0.4435(13) 0.6806(12)
H15 H 0.631(2) 0.3121(12) 0.6318(11)
H16 H 0.749(2) 0.3682(12) 0.3289(11)
H17 H 0.642(2) 0.3723(13) 0.2601(11)
H18 H 0.754(2) 0.3033(13) 0.2676(11)
C1F C 0.49767(14) 0.23241(8) 0.20995(6)
C2F C 0.58935(14) 0.18528(8) 0.17570(7)
C3F C 0.58744(14) 0.19037(8) 0.10133(7)
C4F C 0.49514(15) 0.24095(8) 0.06072(7)
N1F N 0.49546(14) 0.24844(7) -0.01497(6)
C7F C 0.50495(14) 0.17941(8) -0.05755(7)
C8F C 0.57857(16) 0.18008(9) -0.11701(8)
C9F C 0.58679(17) 0.11084(10) -0.15744(8)
C10F C 0.52386(17) 0.04039(9) -0.13959(8)
C11F C 0.45105(15) 0.03986(8) -0.08123(8)
C12F C 0.44057(15) 0.10842(8) -0.04038(7)
H7F H 0.3883(17) 0.1069(9) 0.0012(9)
H6F H 0.4038(18) -0.0088(11) -0.0670(9)
H5F H 0.532(2) -0.0093(12) -0.1695(10)
H4F H 0.642(2) 0.1114(11) -0.1979(10)
H3F H 0.6266(19) 0.2291(11) -0.1275(9)
C14F C 0.51415(15) 0.32637(8) -0.04325(7)
C15F C 0.60802(15) 0.37948(9) -0.00696(8)
C16F C 0.62594(17) 0.45524(9) -0.03501(9)
C17F C 0.5530(2) 0.47830(9) -0.09899(9)
C18F C 0.4591(2) 0.42578(10) -0.13503(9)
C19F C 0.43829(19) 0.35016(10) -0.10712(8)
H15F H 0.369(2) 0.3121(12) -0.1318(11)
H14F H 0.402(2) 0.4435(13) -0.1806(12)
H13F H 0.564(2) 0.5329(12) -0.1197(10)
H12F H 0.692(2) 0.4939(12) -0.0068(10)
H11F H 0.6653(19) 0.3633(11) 0.0389(10)
C5F C 0.40330(15) 0.28671(8) 0.09481(7)
C6F C 0.40454(14) 0.28363(8) 0.16908(7)
C20F C 0.30652(17) 0.33521(10) 0.20478(8)
H16F H 0.251(2) 0.3682(12) 0.1711(11)
H17F H 0.358(2) 0.3723(13) 0.2399(11)
H18F H 0.246(2) 0.3033(13) 0.2324(11)
H2F H 0.3398(16) 0.3218(9) 0.0666(8)
H1F H 0.6525(18) 0.1586(10) 0.0775(9)
C13F C 0.69419(16) 0.13177(9) 0.21785(8)
H8F H 0.774(3) 0.1617(16) 0.2396(14)
H9F H 0.658(2) 0.1067(14) 0.2578(13)
H10F H 0.732(3) 0.0880(14) 0.1890(13)
loop_
_geom_bond_atom_site_label_1
_geom_bond_atom_site_label_2
_geom_bond_site_symmetry_1
_geom_bond_site_symmetry_2
N1 C4 1_555 1_555
C1 C2 1_555 1_555
C2 C3 1_555 1_555
C3 C4 1_555 1_555
C4 C5 1_555 1_555
C5 C6 1_555 1_555
C6 C1 1_555 1_555
C7 N1 1_555 1_555
C8 C7 1_555 1_555
C9 C8 1_555 1_555
C10 C9 1_555 1_555
C11 C10 1_555 1_555
C12 C7 1_555 1_555
C13 C2 1_555 1_555
C14 N1 1_555 1_555
C15 C14 1_555 1_555
C16 C15 1_555 1_555
C17 C16 1_555 1_555
C18 C17 1_555 1_555
C19 C14 1_555 1_555
C20 C6 1_555 1_555
H1 C3 1_555 1_555
H2 C5 1_555 1_555
H3 C8 1_555 1_555
H4 C9 1_555 1_555
H5 C10 1_555 1_555
H6 C11 1_555 1_555
H7 C12 1_555 1_555
H8 C13 1_555 1_555
H9 C13 1_555 1_555
H10 C13 1_555 1_555
H11 C15 1_555 1_555
H12 C16 1_555 1_555
H13 C17 1_555 1_555
H14 C18 1_555 1_555
H15 C19 1_555 1_555
H16 C20 1_555 1_555
H17 C20 1_555 1_555
H18 C20 1_555 1_555
C1F C1 1_555 1_555
C2F C1F 1_555 1_555
C3F C2F 1_555 1_555
C4F C3F 1_555 1_555
N1F C4F 1_555 1_555
C7F N1F 1_555 1_555
C8F C7F 1_555 1_555
C9F C8F 1_555 1_555
C10F C9F 1_555 1_555
C11F C10F 1_555 1_555
C12F C7F 1_555 1_555
H7F C12F 1_555 1_555
H6F C11F 1_555 1_555
H5F C10F 1_555 1_555
H4F C9F 1_555 1_555
H3F C8F 1_555 1_555
C14F N1F 1_555 1_555
C15F C14F 1_555 1_555
C16F C15F 1_555 1_555
C17F C16F 1_555 1_555
C18F C17F 1_555 1_555
C19F C14F 1_555 1_555
H15F C19F 1_555 1_555
H14F C18F 1_555 1_555
H13F C17F 1_555 1_555
H12F C16F 1_555 1_555
H11F C15F 1_555 1_555
C5F C4F 1_555 1_555
C6F C1F 1_555 1_555
C20F C6F 1_555 1_555
H16F C20F 1_555 1_555
H17F C20F 1_555 1_555
H18F C20F 1_555 1_555
H2F C5F 1_555 1_555
H1F C3F 1_555 1_555
C13F C2F 1_555 1_555
H8F C13F 1_555 1_555
H9F C13F 1_555 1_555
H10F C13F 1_555 1_555
C11 C12 1_555 1_555
C18 C19 1_555 1_555
C11F C12F 1_555 1_555
C18F C19F 1_555 1_555
C5F C6F 1_555 1_555

#END
