
#######################################################################
#
#                 Cambridge Crystallographic Data Centre
#                                CCDC 
#
#######################################################################
#
# If this CIF has been generated from an entry in the Cambridge 
# Structural Database, then it will include bibliographic, chemical, 
# crystal, experimental, refinement or atomic coordinate data resulting 
# from the CCDC's data processing and validation procedures.
#
#######################################################################

data_LAHLOY
_chemical_formula_moiety         'C31 H26 N2 O4'
_chemical_name_systematic        
"ethyl 1',2-dimethyl-1-(4-methylphenyl)-2',5-dioxo-1,1',2',5-tetrahydrospiro[indeno[1,2-b]pyridine-4,3'-indole]-3-carboxylate"
_symmetry_cell_setting           monoclinic
_symmetry_space_group_name_H-M   'P 21/c'
_symmetry_Int_Tables_number      14
_space_group_name_Hall           '-P 2ybc'
loop_
_symmetry_equiv_pos_site_id
_symmetry_equiv_pos_as_xyz
1 x,y,z
2 -x,1/2+y,1/2-z
3 -x,-y,-z
4 x,1/2-y,1/2+z
_cell_length_a                   13.0213(4)
_cell_length_b                   11.8208(4)
_cell_length_c                   16.5008(5)
_cell_angle_alpha                90
_cell_angle_beta                 94.5110(10)
_cell_angle_gamma                90
_cell_volume                     2531.97
_exptl_crystal_colour            red
_exptl_crystal_description       block
_cell_formula_units_Z            4
loop_
_atom_site_label
_atom_site_type_symbol
_atom_site_fract_x
_atom_site_fract_y
_atom_site_fract_z
O1 O 0.24863(12) -0.21900(12) 0.98693(9)
O2 O 0.2676(3) 0.0286(2) 0.62294(11)
O3 O 0.36584(12) -0.09751(17) 0.68556(9)
O4 O 0.17116(11) -0.23177(13) 0.77235(9)
N1 N 0.18189(11) 0.13221(13) 0.85657(9)
N2 N 0.33803(14) -0.27366(15) 0.81699(11)
C1 C 0.0487(3) 0.58554(19) 0.91543(19)
H1 H 0.0609 0.6303 0.8686
H2 H 0.0871 0.6162 0.9624
H3 H -0.0234 0.5866 0.9237
C2 C 0.08260(17) 0.46529(16) 0.90212(12)
C3 C 0.02014(15) 0.39099(16) 0.85669(12)
H4 H -0.0444 0.4150 0.8353
C4 C 0.05130(13) 0.28184(15) 0.84226(11)
H5 H 0.0080 0.2330 0.8114
C5 C 0.14680(13) 0.24522(14) 0.87380(11)
C6 C 0.22115(14) 0.10788(17) 0.78121(11)
C7 C 0.26507(13) 0.00698(16) 0.76670(10)
C8 C 0.28720(12) -0.08302(15) 0.83159(10)
C9 C 0.40068(13) -0.10057(18) 0.85783(11)
C10 C 0.47295(15) -0.0249(2) 0.88805(13)
H6 H 0.4563 0.0511 0.8937
C11 C 0.57198(18) -0.0638(4) 0.91018(16)
H7 H 0.6226 -0.0134 0.9303
C12 C 0.59506(18) -0.1760(4) 0.90246(16)
H8 H 0.6616 -0.2006 0.9178
C13 C 0.17715(19) 0.42671(19) 0.93475(13)
H9 H 0.2195 0.4749 0.9670
C14 C 0.21015(15) 0.31725(18) 0.92024(13)
H10 H 0.2745 0.2929 0.9418
C15 C 0.18446(11) 0.04901(13) 0.91424(10)
C16 C 0.22929(11) -0.05243(14) 0.90362(10)
C17 C 0.21928(12) -0.12202(14) 0.97533(10)
C18 C 0.16384(12) -0.05078(14) 1.03264(10)
C19 C 0.13990(11) 0.05332(14) 0.99522(9)
C20 C 0.08206(13) 0.13161(15) 1.03406(11)
H11 H 0.0640 0.2005 1.0097
C21 C 0.05143(14) 0.10436(16) 1.11122(11)
H12 H 0.0118 0.1557 1.1379
C22 C 0.07868(15) 0.00353(17) 1.14831(11)
H13 H 0.0592 -0.0114 1.2003
C23 C 0.13522(14) -0.07647(17) 1.10882(11)
H14 H 0.1531 -0.1453 1.1333
C24 C 0.2123(2) 0.2039(2) 0.72153(16)
H15 H 0.2480 0.1848 0.6747
H16 H 0.2423 0.2708 0.7465
H17 H 0.1410 0.2176 0.7053
C25 C 0.29855(16) -0.0169(2) 0.68447(12)
C26 C 0.4015(2) -0.1348(3) 0.60889(16)
H18 H 0.3462 -0.1739 0.5776
H19 H 0.4209 -0.0696 0.5778
C27 C 0.4838(5) -0.2052(5) 0.6220(3)
H20 H 0.5353 -0.1694 0.6581
H21 H 0.5119 -0.2214 0.5713
H22 H 0.4621 -0.2743 0.6460
C28 C 0.52248(19) -0.2544(3) 0.87248(15)
H23 H 0.5388 -0.3306 0.8678
C29 C 0.42458(15) -0.2140(2) 0.84977(12)
C30 C 0.25536(14) -0.20387(17) 0.80221(11)
C31 C 0.3341(3) -0.3942(2) 0.80182(19)
H24 H 0.2665 -0.4145 0.7791
H25 H 0.3492 -0.4341 0.8520
H26 H 0.3840 -0.4138 0.7643
loop_
_geom_bond_atom_site_label_1
_geom_bond_atom_site_label_2
_geom_bond_site_symmetry_1
_geom_bond_site_symmetry_2
O1 C17 1_555 1_555
O2 C25 1_555 1_555
O3 C25 1_555 1_555
O4 C30 1_555 1_555
N1 C5 1_555 1_555
N2 C29 1_555 1_555
C1 H1 1_555 1_555
H2 C1 1_555 1_555
H3 C1 1_555 1_555
C2 C1 1_555 1_555
C3 C2 1_555 1_555
H4 C3 1_555 1_555
C4 C3 1_555 1_555
H5 C4 1_555 1_555
C5 C4 1_555 1_555
C6 N1 1_555 1_555
C7 C6 1_555 1_555
C8 C7 1_555 1_555
C9 C8 1_555 1_555
C10 C9 1_555 1_555
H6 C10 1_555 1_555
C11 C10 1_555 1_555
H7 C11 1_555 1_555
C12 C11 1_555 1_555
H8 C12 1_555 1_555
C13 C2 1_555 1_555
H9 C13 1_555 1_555
C14 C5 1_555 1_555
H10 C14 1_555 1_555
C15 N1 1_555 1_555
C16 C8 1_555 1_555
C17 C16 1_555 1_555
C18 C17 1_555 1_555
C19 C15 1_555 1_555
C20 C19 1_555 1_555
H11 C20 1_555 1_555
C21 C20 1_555 1_555
H12 C21 1_555 1_555
C22 C21 1_555 1_555
H13 C22 1_555 1_555
C23 C18 1_555 1_555
H14 C23 1_555 1_555
C24 C6 1_555 1_555
H15 C24 1_555 1_555
H16 C24 1_555 1_555
H17 C24 1_555 1_555
C25 C7 1_555 1_555
C26 O3 1_555 1_555
H18 C26 1_555 1_555
H19 C26 1_555 1_555
C27 C26 1_555 1_555
H20 C27 1_555 1_555
H21 C27 1_555 1_555
H22 C27 1_555 1_555
C28 C12 1_555 1_555
H23 C28 1_555 1_555
C29 C9 1_555 1_555
C30 N2 1_555 1_555
C31 N2 1_555 1_555
H24 C31 1_555 1_555
H25 C31 1_555 1_555
H26 C31 1_555 1_555
C8 C30 1_555 1_555
C13 C14 1_555 1_555
C15 C16 1_555 1_555
C18 C19 1_555 1_555
C22 C23 1_555 1_555
C28 C29 1_555 1_555

#END
