
#######################################################################
#
#                 Cambridge Crystallographic Data Centre
#                                CCDC 
#
#######################################################################
#
# If this CIF has been generated from an entry in the Cambridge 
# Structural Database, then it will include bibliographic, chemical, 
# crystal, experimental, refinement or atomic coordinate data resulting 
# from the CCDC's data processing and validation procedures.
#
#######################################################################

data_LAHTEV
_chemical_formula_moiety         'C14 H10 I1 N3 O2'
_chemical_name_systematic        
1-(4-Iodobenzylidene)-2-(4-nitrobenzylidene)hydrazine
_symmetry_cell_setting           triclinic
_symmetry_space_group_name_H-M   'P -1'
_symmetry_Int_Tables_number      2
_space_group_name_Hall           '-P 1'
loop_
_symmetry_equiv_pos_site_id
_symmetry_equiv_pos_as_xyz
1 x,y,z
2 -x,-y,-z
_cell_length_a                   7.490(4)
_cell_length_b                   8.191(4)
_cell_length_c                   11.853(6)
_cell_angle_alpha                81.93(2)
_cell_angle_beta                 85.558(18)
_cell_angle_gamma                67.52(3)
_cell_volume                     665.053
_exptl_crystal_colour            colorless
_exptl_crystal_description       plate
_cell_formula_units_Z            2
loop_
_atom_site_label
_atom_site_type_symbol
_atom_site_fract_x
_atom_site_fract_y
_atom_site_fract_z
C1 C 0.7138(19) 0.2237(16) 0.1771(11)
C2 C 0.790(2) 0.0656(18) 0.1264(11)
H1 H 0.8421 0.0681 0.0507
C3 C 0.793(2) -0.0919(17) 0.1833(12)
H2 H 0.8405 -0.1980 0.1477
C4 C 0.652(2) 0.0563(18) 0.3502(11)
H3 H 0.6067 0.0519 0.4272
C5 C 0.6488(19) 0.2153(16) 0.2900(11)
H4 H 0.6012 0.3203 0.3266
C6 C 0.7213(19) -0.0916(16) 0.2973(10)
N1 N 0.723(3) -0.255(3) 0.3556(17)
O1 O 0.7805(16) -0.3925(14) 0.3041(10)
O2 O 0.6789(19) -0.2609(19) 0.4584(13)
C7 C 0.704(2) 0.3971(19) 0.1152(13)
H5 H 0.6518 0.5001 0.1538
N2 N 0.7622(16) 0.4124(14) 0.0141(10)
N3 N 0.7385(18) 0.5906(15) -0.0261(10)
C8 C 0.800(2) 0.6073(18) -0.1284(12)
H6 H 0.8554 0.5044 -0.1668
C9 C 0.7876(19) 0.7777(17) -0.1885(11)
C10 C 0.709(2) 0.9354(18) -0.1388(12)
H7 H 0.6579 0.9324 -0.0629
C11 C 0.702(2) 1.0953(18) -0.1968(12)
H8 H 0.6531 1.2003 -0.1601
C12 C 0.7677(19) 1.1013(17) -0.3086(11)
C13 C 0.847(2) 0.9462(17) -0.3596(12)
H9 H 0.8954 0.9499 -0.4361
C14 C 0.857(2) 0.7880(17) -0.3001(12)
H10 H 0.9119 0.6825 -0.3360
I2 I 0.75445(16) 1.34093(13) -0.40286(9)
I1? I 0.751(3) -0.338(2) 0.3984(17)
loop_
_geom_bond_atom_site_label_1
_geom_bond_atom_site_label_2
_geom_bond_site_symmetry_1
_geom_bond_site_symmetry_2
C1 C2 1_555 1_555
C2 H1 1_555 1_555
C3 C2 1_555 1_555
H2 C3 1_555 1_555
C4 H3 1_555 1_555
C5 C1 1_555 1_555
H4 C5 1_555 1_555
C6 C3 1_555 1_555
N1 C6 1_555 1_555
O1 N1 1_555 1_555
O2 N1 1_555 1_555
C7 C1 1_555 1_555
H5 C7 1_555 1_555
N2 C7 1_555 1_555
N3 N2 1_555 1_555
C8 N3 1_555 1_555
H6 C8 1_555 1_555
C9 C8 1_555 1_555
C10 C9 1_555 1_555
H7 C10 1_555 1_555
C11 C10 1_555 1_555
H8 C11 1_555 1_555
C12 C11 1_555 1_555
C13 C12 1_555 1_555
H9 C13 1_555 1_555
C14 C9 1_555 1_555
H10 C14 1_555 1_555
I2 C12 1_555 1_555
C4 C5 1_555 1_555
C4 C6 1_555 1_555
C13 C14 1_555 1_555

#END
