
#######################################################################
#
#                 Cambridge Crystallographic Data Centre
#                                CCDC 
#
#######################################################################
#
# If this CIF has been generated from an entry in the Cambridge 
# Structural Database, then it will include bibliographic, chemical, 
# crystal, experimental, refinement or atomic coordinate data resulting 
# from the CCDC's data processing and validation procedures.
#
#######################################################################

data_LAHYUR
_chemical_formula_moiety         'C30 H24 N2 O4,H2 O1'
_chemical_name_systematic        
"ethyl 1'-benzyl-5'-methyl-2',11-dioxo-1',2',5,11-tetrahydrospiro[indeno[1,2-b]quinoline-10,3'-pyrrole]-4'-carboxylate monohydrate"
_symmetry_cell_setting           triclinic
_symmetry_space_group_name_H-M   'P -1'
_symmetry_Int_Tables_number      2
_space_group_name_Hall           '-P 1'
loop_
_symmetry_equiv_pos_site_id
_symmetry_equiv_pos_as_xyz
1 x,y,z
2 -x,-y,-z
_cell_length_a                   10.376(3)
_cell_length_b                   11.365(3)
_cell_length_c                   11.593(3)
_cell_angle_alpha                107.004(3)
_cell_angle_beta                 98.301(3)
_cell_angle_gamma                103.674(3)
_cell_volume                     1236.28
_exptl_crystal_colour            red
_exptl_crystal_description       block
_cell_formula_units_Z            2
loop_
_atom_site_label
_atom_site_type_symbol
_atom_site_fract_x
_atom_site_fract_y
_atom_site_fract_z
N1 N 0.58106(15) 0.01703(14) 0.87652(14)
O1 O 0.21180(11) 0.05542(11) 0.98859(11)
O2 O 0.47880(12) 0.15544(12) 0.65928(11)
O3 O 0.32435(13) 0.22574(14) 0.56610(12)
O4 O 0.12310(13) -0.15870(13) 0.65435(12)
C1 C 0.33644(16) 0.09965(15) 0.83199(15)
N2 N 0.13174(13) 0.14764(13) 0.85458(12)
C2 C 0.4780(3) -0.4071(2) 0.6511(2)
H1 H 0.5344 -0.4602 0.6436
C3 C 0.5324(2) -0.2773(2) 0.72353(18)
H2 H 0.6238 -0.2427 0.7644
C4 C 0.44483(19) -0.20259(17) 0.73200(16)
C5 C 0.46513(16) -0.06552(16) 0.80057(15)
C6 C 0.34825(16) -0.03336(15) 0.77667(15)
C7 C 0.22271(16) 0.09609(15) 0.90291(15)
C8 C 0.01845(16) 0.16810(17) 0.91118(16)
H3 H -0.0263 0.0906 0.9262
H4 H -0.0475 0.1845 0.8543
C9 C 0.06550(16) 0.27976(16) 1.03174(16)
C10 C 0.1186(3) 0.4033(2) 1.0341(2)
H5 H 0.1253 0.4180 0.9601
C11 C 0.1621(4) 0.5054(2) 1.1431(2)
H6 H 0.1989 0.5881 1.1423
C12 C 0.1516(3) 0.4867(2) 1.2520(2)
H7 H 0.1790 0.5562 1.3258
C13 C 0.3428(3) -0.4582(2) 0.5906(2)
H8 H 0.3092 -0.5454 0.5437
C14 C 0.2557(2) -0.38184(18) 0.59825(18)
H9 H 0.1644 -0.4163 0.5568
C15 C 0.30864(19) -0.25364(17) 0.66904(16)
C16 C 0.58571(16) 0.14412(16) 0.94005(15)
C17 C 0.70638(17) 0.22664(18) 1.02113(17)
H10 H 0.7818 0.1969 1.0323
C18 C 0.71540(19) 0.35185(18) 1.08507(17)
H11 H 0.7969 0.4069 1.1389
C19 C 0.6031(2) 0.39581(18) 1.06922(18)
H12 H 0.6082 0.4802 1.1131
C20 C 0.48362(19) 0.31399(17) 0.98816(16)
H13 H 0.4088 0.3446 0.9773
C21 C 0.47174(16) 0.18705(15) 0.92208(15)
C22 C 0.28746(15) 0.15815(15) 0.73811(15)
C23 C 0.17015(16) 0.18343(16) 0.75498(15)
C24 C 0.1001(2) 0.3638(2) 1.2518(2)
H14 H 0.0935 0.3496 1.3261
C25 C 0.0582(2) 0.26152(19) 1.14251(18)
H15 H 0.0242 0.1786 1.1437
C26 C 0.0831(2) 0.2383(2) 0.68516(19)
H16 H 0.1323 0.2737 0.6330
H17 H 0.0589 0.3050 0.7425
H18 H 0.0019 0.1717 0.6349
C27 C 0.36058(16) 0.18345(16) 0.64584(15)
C28 C 0.56575(18) 0.1823(2) 0.57771(18)
H19 H 0.5873 0.2726 0.5858
H20 H 0.5203 0.1312 0.4922
C29 C 0.6918(2) 0.1494(2) 0.6138(2)
H21 H 0.7356 0.2003 0.6985
H22 H 0.7522 0.1666 0.5614
H23 H 0.6693 0.0597 0.6047
C30 C 0.24254(17) -0.14731(16) 0.69497(15)
H24 H 0.6473(19) -0.0076(17) 0.8999(16)
O5 O 0.1155(3) 0.0665(2) 0.3384(2)
H25 H 0.184(3) 0.118(3) 0.402(3)
H26 H 0.037(3) 0.088(5) 0.336(5)
loop_
_geom_bond_atom_site_label_1
_geom_bond_atom_site_label_2
_geom_bond_site_symmetry_1
_geom_bond_site_symmetry_2
N1 C5 1_555 1_555
O1 C7 1_555 1_555
O2 C27 1_555 1_555
O3 C27 1_555 1_555
O4 C30 1_555 1_555
C1 C6 1_555 1_555
N2 C7 1_555 1_555
C2 H1 1_555 1_555
C3 C2 1_555 1_555
H2 C3 1_555 1_555
C4 C3 1_555 1_555
C5 C4 1_555 1_555
C6 C5 1_555 1_555
C7 C1 1_555 1_555
C8 N2 1_555 1_555
H3 C8 1_555 1_555
H4 C8 1_555 1_555
C9 C8 1_555 1_555
C10 C9 1_555 1_555
H5 C10 1_555 1_555
C11 C10 1_555 1_555
H6 C11 1_555 1_555
C12 C11 1_555 1_555
H7 C12 1_555 1_555
C13 C2 1_555 1_555
H8 C13 1_555 1_555
C14 C13 1_555 1_555
H9 C14 1_555 1_555
C15 C4 1_555 1_555
C16 N1 1_555 1_555
C17 C16 1_555 1_555
H10 C17 1_555 1_555
C18 C17 1_555 1_555
H11 C18 1_555 1_555
C19 C18 1_555 1_555
H12 C19 1_555 1_555
C20 C19 1_555 1_555
H13 C20 1_555 1_555
C21 C1 1_555 1_555
C22 C1 1_555 1_555
C23 N2 1_555 1_555
C24 C12 1_555 1_555
H14 C24 1_555 1_555
C25 C9 1_555 1_555
H15 C25 1_555 1_555
C26 C23 1_555 1_555
H16 C26 1_555 1_555
H17 C26 1_555 1_555
H18 C26 1_555 1_555
C27 C22 1_555 1_555
C28 O2 1_555 1_555
H19 C28 1_555 1_555
H20 C28 1_555 1_555
C29 C28 1_555 1_555
H21 C29 1_555 1_555
H22 C29 1_555 1_555
H23 C29 1_555 1_555
C30 C6 1_555 1_555
H24 N1 1_555 1_555
O5 H25 1_555 1_555
H26 O5 1_555 1_555
C14 C15 1_555 1_555
C15 C30 1_555 1_555
C16 C21 1_555 1_555
C20 C21 1_555 1_555
C22 C23 1_555 1_555
C24 C25 1_555 1_555

#END
