
#######################################################################
#
#                 Cambridge Crystallographic Data Centre
#                                CCDC 
#
#######################################################################
#
# If this CIF has been generated from an entry in the Cambridge 
# Structural Database, then it will include bibliographic, chemical, 
# crystal, experimental, refinement or atomic coordinate data resulting 
# from the CCDC's data processing and validation procedures.
#
#######################################################################

data_LAJCIK
_chemical_name_common            
1,3-alternate-5,11,17,23-Tetra-t-butyl-25,26,27-tris[(2-pyridyl)carbamoylmethoxy]-28-(hydroxylcarbonylmethoxy)-2,8,14,20-tetra-thiacalix[4]arene
_chemical_formula_moiety         'C63 H68 N6 O9 S4'
_chemical_name_systematic        
'((5,11,17,23-Tetra-t-butyl-26,27,28-tris(2-oxo-2-(pyridin-2-ylamino)ethoxy)-2,8,14,20-tetrathiapentacyclo[19.3.1.1^3,7^.1^9,13^.1^15,19^]octacosa-1(25),3(28),4,6,9(27),10,12,15(26),16,18,21,23-dodecaen-25-yl)oxy)acetic acid'
_symmetry_cell_setting           monoclinic
_symmetry_space_group_name_H-M   'P 21/n'
_symmetry_Int_Tables_number      14
_space_group_name_Hall           '-P 2yn'
loop_
_symmetry_equiv_pos_site_id
_symmetry_equiv_pos_as_xyz
1 x,y,z
2 1/2-x,1/2+y,1/2-z
3 -x,-y,-z
4 1/2+x,1/2-y,1/2+z
_cell_length_a                   13.9579(6)
_cell_length_b                   34.2622(14)
_cell_length_c                   15.0300(6)
_cell_angle_alpha                90
_cell_angle_beta                 109.8420(10)
_cell_angle_gamma                90
_cell_volume                     6761.05
_exptl_crystal_colour            colorless
_exptl_crystal_description       block
_cell_formula_units_Z            4
loop_
_atom_site_label
_atom_site_type_symbol
_atom_site_fract_x
_atom_site_fract_y
_atom_site_fract_z
C1 C 0.7476(2) 0.16049(9) 0.2509(2)
C2 C 0.7329(2) 0.19078(9) 0.3071(2)
C3 C 0.7519(3) 0.18491(10) 0.4037(2)
H1 H 0.7400 0.2052 0.4396
C4 C 0.7878(3) 0.14963(10) 0.4473(2)
C5 C 0.7999(3) 0.11964(10) 0.3897(2)
H2 H 0.8211 0.0953 0.4167
C6 C 0.7817(2) 0.12453(9) 0.2936(2)
C7 C 0.8098(3) 0.14461(12) 0.5534(2)
C8 C 0.7110(4) 0.1464(2) 0.5726(3)
H3 H 0.6702 0.1241 0.5452
H4 H 0.6750 0.1698 0.5453
H5 H 0.7247 0.1466 0.6397
C9 C 0.8643(6) 0.10714(17) 0.5914(3)
H6 H 0.8205 0.0855 0.5643
H7 H 0.8821 0.1066 0.6589
H8 H 0.9250 0.1054 0.5751
C10 C 0.8766(5) 0.17912(16) 0.6077(3)
H9 H 0.8877 0.1766 0.6741
H10 H 0.8424 0.2033 0.5851
H11 H 0.9409 0.1788 0.5977
C11 C 0.8129(3) 0.18066(11) 0.1337(2)
H12 H 0.8684 0.1620 0.1541
H13 H 0.8360 0.2047 0.1682
C12 C 0.7871(3) 0.18824(11) 0.0299(3)
C13 C 0.6208(2) 0.24008(9) 0.1524(2)
C14 C 0.6401(3) 0.26637(9) 0.0906(2)
H14 H 0.7010 0.2803 0.1103
C15 C 0.5721(2) 0.27266(9) 0.0007(2)
C16 C 0.4831(2) 0.25108(9) -0.0271(2)
H15 H 0.4378 0.2538 -0.0885
C17 C 0.4593(2) 0.22522(9) 0.0345(2)
C18 C 0.5287(3) 0.21974(9) 0.1250(2)
C19 C 0.5962(3) 0.30357(11) -0.0627(3)
C20 C 0.7043(3) 0.29994(15) -0.0600(3)
H16 H 0.7497 0.3060 0.0024
H17 H 0.7157 0.3177 -0.1047
H18 H 0.7165 0.2737 -0.0759
C21 C 0.5836(4) 0.34431(12) -0.0235(4)
H19 H 0.5127 0.3493 -0.0353
H20 H 0.6105 0.3639 -0.0542
H21 H 0.6199 0.3450 0.0434
C22 C 0.5229(3) 0.30070(13) -0.1645(3)
H22 H 0.5263 0.2749 -0.1884
H23 H 0.5418 0.3195 -0.2030
H24 H 0.4548 0.3059 -0.1660
C23 C 0.4597(3) 0.21477(11) 0.2452(3)
H25 H 0.3933 0.2241 0.2054
H26 H 0.5005 0.2373 0.2739
C24 C 0.4470(3) 0.18917(12) 0.3218(3)
C25 C 0.4812(3) 0.12341(12) 0.3939(3)
N1 N 0.5207(3) 0.08986(11) 0.3790(2)
C26 C 0.5238(4) 0.06124(14) 0.4395(4)
H27 H 0.5509 0.0374 0.4305
C27 C 0.4888(4) 0.06479(16) 0.5158(4)
H28 H 0.4937 0.0442 0.5574
C28 C 0.4478(4) 0.09914(15) 0.5270(3)
H29 H 0.4223 0.1023 0.5763
C29 C 0.4431(3) 0.12958(13) 0.4667(3)
H30 H 0.4154 0.1535 0.4743
C30 C 0.3355(2) 0.15845(9) 0.0343(2)
C31 C 0.3818(2) 0.12991(10) -0.0028(2)
C32 C 0.3766(2) 0.09127(9) 0.0254(2)
C33 C 0.3177(3) 0.08189(10) 0.0805(2)
H31 H 0.3132 0.0559 0.0966
C34 C 0.2657(3) 0.10988(10) 0.1124(2)
C35 C 0.2775(3) 0.14861(10) 0.0895(2)
H32 H 0.2457 0.1683 0.1118
C36 C 0.1941(3) 0.09798(11) 0.1652(3)
C37 C 0.1025(4) 0.07802(18) 0.0946(4)
H33 H 0.0680 0.0961 0.0452
H34 H 0.0568 0.0695 0.1261
H35 H 0.1249 0.0559 0.0677
C38 C 0.2449(4) 0.06860(17) 0.2429(4)
H36 H 0.2637 0.0458 0.2155
H37 H 0.1983 0.0614 0.2746
H38 H 0.3047 0.0801 0.2875
C39 C 0.1667(6) 0.13219(16) 0.2156(5)
H39 H 0.2260 0.1481 0.2435
H40 H 0.1424 0.1227 0.2641
H41 H 0.1145 0.1474 0.1710
C40 C 0.3605(3) 0.13554(14) -0.1613(3)
H42 H 0.2948 0.1461 -0.1651
H43 H 0.3512 0.1080 -0.1770
C41 C 0.3960(3) 0.15555(12) -0.2320(3)
C42 C 0.5350(3) 0.19596(11) -0.2489(3)
C43 C 0.4881(3) 0.20927(13) -0.3405(3)
H44 H 0.4202 0.2034 -0.3735
C44 C 0.5437(4) 0.23114(14) -0.3814(3)
H45 H 0.5135 0.2407 -0.4425
C45 C 0.6442(4) 0.23898(14) -0.3321(3)
H46 H 0.6830 0.2536 -0.3594
C46 C 0.6862(3) 0.22490(13) -0.2425(3)
H47 H 0.7543 0.2303 -0.2092
N2 N 0.6336(3) 0.20358(10) -0.1999(2)
C47 C 0.5624(3) 0.06451(9) 0.0118(2)
C48 C 0.6009(3) 0.06612(9) -0.0619(2)
H48 H 0.5568 0.0614 -0.1231
C49 C 0.7013(3) 0.07435(10) -0.0490(2)
C50 C 0.7642(3) 0.08235(9) 0.0441(2)
H49 H 0.8319 0.0891 0.0559
C51 C 0.7275(3) 0.08044(9) 0.1186(2)
C52 C 0.6271(3) 0.07019(9) 0.1046(2)
C53 C 0.7429(3) 0.07341(12) -0.1301(3)
C54 C 0.6684(12) 0.0970(7) -0.2106(11)
H50 H 0.6576 0.1221 -0.1873
H51 H 0.6047 0.0833 -0.2345
H52 H 0.6962 0.1003 -0.2604
C55 C 0.738(2) 0.0314(3) -0.1639(14)
H53 H 0.7676 0.0296 -0.2127
H54 H 0.6678 0.0232 -0.1886
H55 H 0.7743 0.0149 -0.1119
C56 C 0.8484(12) 0.0894(8) -0.1080(12)
H56 H 0.8966 0.0719 -0.0660
H57 H 0.8528 0.1145 -0.0783
H58 H 0.8634 0.0921 -0.1654
C57 C 0.5467(3) 0.03349(12) 0.1962(3)
H59 H 0.5250 0.0191 0.1370
H60 H 0.4857 0.0414 0.2086
C58 C 0.6046(4) 0.00637(13) 0.2724(3)
C59 C 0.7646(4) -0.00237(14) 0.4064(4)
C60 C 0.7527(5) -0.03965(16) 0.4266(5)
H61 H 0.6997 -0.0543 0.3860
C61 C 0.8164(7) -0.0559(3) 0.5045(8)
H62 H 0.8074 -0.0818 0.5187
C62 C 0.8927(8) -0.0353(3) 0.5621(7)
H63 H 0.9385 -0.0463 0.6164
C63 C 0.9022(6) 0.0042(2) 0.5380(6)
H64 H 0.9543 0.0195 0.5775
N3 N 0.8372(4) 0.01947(14) 0.4592(4)
N4 N 0.4819(2) 0.15259(9) 0.3272(2)
H65 H 0.5079 0.1460 0.2851
N5 N 0.4860(2) 0.17447(9) -0.1970(2)
H66 H 0.5164 0.1732 -0.1369
N6 N 0.6982(3) 0.01689(9) 0.3262(3)
H67 H 0.7209 0.0381 0.3101
O1 O 0.72860(17) 0.16596(6) 0.15583(14)
O2 O 0.6916(2) 0.18315(8) -0.02027(17)
H68 H 0.6830 0.1876 -0.0761
O3 O 0.8511(2) 0.19866(11) -0.0016(2)
O4 O 0.50686(17) 0.19484(6) 0.18827(15)
O5 O 0.4061(3) 0.20322(10) 0.3740(3)
O6 O 0.42894(17) 0.13947(7) -0.06668(15)
O7 O 0.3442(2) 0.15388(11) -0.3159(2)
O8 O 0.59808(18) 0.06803(7) 0.18321(15)
O9 O 0.5628(3) -0.02349(11) 0.2841(3)
S1 S 0.70841(7) 0.23995(3) 0.26936(6)
S2 S 0.33204(7) 0.20799(3) -0.00241(7)
S3 S 0.43023(7) 0.05238(3) -0.02133(7)
S4 S 0.82049(7) 0.08576(3) 0.23461(6)
C64? C 0.8217(18) 0.0396(5) -0.1075(14)
C65? C 0.6699(14) 0.0681(9) -0.2281(10)
C66? C 0.8072(16) 0.1102(5) -0.1272(12)
H69? H 0.8486 0.0370 -0.1581
H70? H 0.7890 0.0157 -0.1007
H71? H 0.8762 0.0452 -0.0497
H72? H 0.6222 0.0893 -0.2437
H73? H 0.6339 0.0439 -0.2319
H74? H 0.7066 0.0676 -0.2718
H75? H 0.8490 0.1155 -0.0631
H76? H 0.7630 0.1319 -0.1520
H77? H 0.8499 0.1060 -0.1648
loop_
_geom_bond_atom_site_label_1
_geom_bond_atom_site_label_2
_geom_bond_site_symmetry_1
_geom_bond_site_symmetry_2
C1 C2 1_555 1_555
C2 C3 1_555 1_555
C3 H1 1_555 1_555
C4 C3 1_555 1_555
C5 C4 1_555 1_555
H2 C5 1_555 1_555
C6 C1 1_555 1_555
C7 C4 1_555 1_555
C8 C7 1_555 1_555
H3 C8 1_555 1_555
H4 C8 1_555 1_555
H5 C8 1_555 1_555
C9 C7 1_555 1_555
H6 C9 1_555 1_555
H7 C9 1_555 1_555
H8 C9 1_555 1_555
C10 C7 1_555 1_555
H9 C10 1_555 1_555
H10 C10 1_555 1_555
H11 C10 1_555 1_555
C11 H12 1_555 1_555
H13 C11 1_555 1_555
C12 C11 1_555 1_555
C13 C14 1_555 1_555
C14 H14 1_555 1_555
C15 C14 1_555 1_555
C16 C15 1_555 1_555
H15 C16 1_555 1_555
C17 C16 1_555 1_555
C18 C13 1_555 1_555
C19 C15 1_555 1_555
C20 C19 1_555 1_555
H16 C20 1_555 1_555
H17 C20 1_555 1_555
H18 C20 1_555 1_555
C21 C19 1_555 1_555
H19 C21 1_555 1_555
H20 C21 1_555 1_555
H21 C21 1_555 1_555
C22 C19 1_555 1_555
H22 C22 1_555 1_555
H23 C22 1_555 1_555
H24 C22 1_555 1_555
C23 H25 1_555 1_555
H26 C23 1_555 1_555
C24 C23 1_555 1_555
C25 N1 1_555 1_555
N1 C26 1_555 1_555
C26 H27 1_555 1_555
C27 C26 1_555 1_555
H28 C27 1_555 1_555
C28 C27 1_555 1_555
H29 C28 1_555 1_555
C29 C25 1_555 1_555
H30 C29 1_555 1_555
C30 C31 1_555 1_555
C31 C32 1_555 1_555
C32 C33 1_555 1_555
C33 H31 1_555 1_555
C34 C33 1_555 1_555
C35 C30 1_555 1_555
H32 C35 1_555 1_555
C36 C34 1_555 1_555
C37 C36 1_555 1_555
H33 C37 1_555 1_555
H34 C37 1_555 1_555
H35 C37 1_555 1_555
C38 C36 1_555 1_555
H36 C38 1_555 1_555
H37 C38 1_555 1_555
H38 C38 1_555 1_555
C39 C36 1_555 1_555
H39 C39 1_555 1_555
H40 C39 1_555 1_555
H41 C39 1_555 1_555
C40 H42 1_555 1_555
H43 C40 1_555 1_555
C41 C40 1_555 1_555
C42 C43 1_555 1_555
C43 H44 1_555 1_555
C44 C43 1_555 1_555
H45 C44 1_555 1_555
C45 C44 1_555 1_555
H46 C45 1_555 1_555
C46 C45 1_555 1_555
H47 C46 1_555 1_555
N2 C42 1_555 1_555
C47 C48 1_555 1_555
C48 H48 1_555 1_555
C49 C48 1_555 1_555
C50 C49 1_555 1_555
H49 C50 1_555 1_555
C51 C50 1_555 1_555
C52 C47 1_555 1_555
C53 C49 1_555 1_555
C54 C53 1_555 1_555
H50 C54 1_555 1_555
H51 C54 1_555 1_555
H52 C54 1_555 1_555
C55 C53 1_555 1_555
H53 C55 1_555 1_555
H54 C55 1_555 1_555
H55 C55 1_555 1_555
C56 C53 1_555 1_555
H56 C56 1_555 1_555
H57 C56 1_555 1_555
H58 C56 1_555 1_555
C57 H59 1_555 1_555
H60 C57 1_555 1_555
C58 C57 1_555 1_555
C59 C60 1_555 1_555
C60 H61 1_555 1_555
C61 C60 1_555 1_555
H62 C61 1_555 1_555
C62 C61 1_555 1_555
H63 C62 1_555 1_555
C63 C62 1_555 1_555
H64 C63 1_555 1_555
N3 C59 1_555 1_555
N4 C24 1_555 1_555
H65 N4 1_555 1_555
N5 C41 1_555 1_555
H66 N5 1_555 1_555
N6 C58 1_555 1_555
H67 N6 1_555 1_555
O1 C1 1_555 1_555
O2 C12 1_555 1_555
H68 O2 1_555 1_555
O3 C12 1_555 1_555
O4 C18 1_555 1_555
O5 C24 1_555 1_555
O6 C31 1_555 1_555
O7 C41 1_555 1_555
O8 C52 1_555 1_555
O9 C58 1_555 1_555
S1 C2 1_555 1_555
S2 C17 1_555 1_555
S3 C32 1_555 1_555
S4 C6 1_555 1_555
C5 C6 1_555 1_555
C11 O1 1_555 1_555
C13 S1 1_555 1_555
C17 C18 1_555 1_555
C23 O4 1_555 1_555
C25 N4 1_555 1_555
C28 C29 1_555 1_555
C30 S2 1_555 1_555
C34 C35 1_555 1_555
C40 O6 1_555 1_555
C42 N5 1_555 1_555
C46 N2 1_555 1_555
C47 S3 1_555 1_555
C51 C52 1_555 1_555
C51 S4 1_555 1_555
C57 O8 1_555 1_555
C59 N6 1_555 1_555
C63 N3 1_555 1_555

#END
