
#######################################################################
#
#                 Cambridge Crystallographic Data Centre
#                                CCDC 
#
#######################################################################
#
# If this CIF has been generated from an entry in the Cambridge 
# Structural Database, then it will include bibliographic, chemical, 
# crystal, experimental, refinement or atomic coordinate data resulting 
# from the CCDC's data processing and validation procedures.
#
#######################################################################

data_LAJZED
_chemical_formula_moiety         'C10 H8 N4 O1 S1'
_chemical_name_systematic        
N'-[(1E)-thien-2-ylmethylidene]pyrazine-2-carbohydrazide
_symmetry_cell_setting           orthorhombic
_symmetry_space_group_name_H-M   'P b c a'
_symmetry_Int_Tables_number      61
_space_group_name_Hall           '-P 2ac 2ab'
loop_
_symmetry_equiv_pos_site_id
_symmetry_equiv_pos_as_xyz
1 x,y,z
2 1/2-x,-y,1/2+z
3 -x,1/2+y,1/2-z
4 1/2+x,1/2-y,-z
5 -x,-y,-z
6 1/2+x,y,1/2-z
7 x,1/2-y,1/2+z
8 1/2-x,1/2+y,z
_cell_length_a                   11.6558(6)
_cell_length_b                   7.7408(3)
_cell_length_c                   23.1699(13)
_cell_angle_alpha                90
_cell_angle_beta                 90
_cell_angle_gamma                90
_cell_volume                     2090.51
_exptl_crystal_colour            colorless
_exptl_crystal_description       block
_cell_formula_units_Z            8
_exptl_crystal_recrystallization_method ethanol
loop_
_atom_site_label
_atom_site_type_symbol
_atom_site_fract_x
_atom_site_fract_y
_atom_site_fract_z
S1 S 0.22548(6) 0.09179(10) 0.76548(3)
O1 O 0.39371(14) 0.0855(2) 0.56415(7)
N1 N 0.4478(2) 0.3010(3) 0.40308(10)
N2 N 0.33950(17) 0.4837(3) 0.49284(9)
N3 N 0.27224(17) 0.3015(3) 0.59003(9)
H1 H 0.2387 0.3994 0.5807
N4 N 0.24978(17) 0.2223(3) 0.64257(9)
C1 C 0.3702(2) 0.3175(3) 0.49841(11)
C2 C 0.4246(2) 0.2286(3) 0.45421(11)
H2 H 0.4463 0.1118 0.4605
C3 C 0.4178(2) 0.4657(3) 0.39803(12)
H3 H 0.4329 0.5236 0.3627
C4 C 0.3653(2) 0.5565(3) 0.44225(12)
H4 H 0.3470 0.6748 0.4364
C5 C 0.3466(2) 0.2248(3) 0.55362(10)
C6 C 0.1636(2) 0.2844(3) 0.67001(10)
H5 H 0.1193 0.3747 0.6535
C7 C 0.1341(2) 0.2162(3) 0.72640(10)
C8 C 0.02668(17) 0.2477(3) 0.75763(9)
H6 H -0.0363 0.3141 0.7441
C9 C 0.0332(3) 0.1617(3) 0.81160(12)
H7 H -0.0273 0.1644 0.8391
C10 C 0.1322(3) 0.0761(3) 0.82076(12)
H8 H 0.1478 0.0130 0.8550
C11? C 0.22548(6) 0.09179(10) 0.76548(3)
H9? H 0.3004 0.0479 0.7588
S2? S 0.02668(17) 0.2477(3) 0.75763(9)
loop_
_geom_bond_atom_site_label_1
_geom_bond_atom_site_label_2
_geom_bond_site_symmetry_1
_geom_bond_site_symmetry_2
S1 C7 1_555 1_555
O1 C5 1_555 1_555
N1 C2 1_555 1_555
N2 C1 1_555 1_555
N3 H1 1_555 1_555
N4 N3 1_555 1_555
C1 C2 1_555 1_555
C2 H2 1_555 1_555
C3 N1 1_555 1_555
H3 C3 1_555 1_555
C4 N2 1_555 1_555
H4 C4 1_555 1_555
C5 N3 1_555 1_555
C6 N4 1_555 1_555
H5 C6 1_555 1_555
C7 C6 1_555 1_555
C8 C7 1_555 1_555
H6 C8 1_555 1_555
C9 C8 1_555 1_555
H7 C9 1_555 1_555
C10 S1 1_555 1_555
H8 C10 1_555 1_555
C1 C5 1_555 1_555
C3 C4 1_555 1_555
C9 C10 1_555 1_555

#END
