
#######################################################################
#
#                 Cambridge Crystallographic Data Centre
#                                CCDC 
#
#######################################################################
#
# If this CIF has been generated from an entry in the Cambridge 
# Structural Database, then it will include bibliographic, chemical, 
# crystal, experimental, refinement or atomic coordinate data resulting 
# from the CCDC's data processing and validation procedures.
#
#######################################################################

data_LAKXUS
_chemical_formula_moiety         'C8 H10 N4 O2,C11 H8 O3'
_chemical_name_systematic        'Caffeine 2-hydroxy-1-naphthoic acid'
_symmetry_cell_setting           monoclinic
_symmetry_space_group_name_H-M   'P 21/n'
_symmetry_Int_Tables_number      14
_space_group_name_Hall           '-P 2yn'
loop_
_symmetry_equiv_pos_site_id
_symmetry_equiv_pos_as_xyz
1 x,y,z
2 1/2-x,1/2+y,1/2-z
3 -x,-y,-z
4 1/2+x,1/2-y,1/2+z
_cell_length_a                   7.909(2)
_cell_length_b                   15.275(5)
_cell_length_c                   14.704(5)
_cell_angle_alpha                90
_cell_angle_beta                 103.661(5)
_cell_angle_gamma                90
_cell_volume                     1726.14
_exptl_crystal_colour            colorless
_exptl_crystal_description       rod
_cell_formula_units_Z            4
loop_
_atom_site_label
_atom_site_type_symbol
_atom_site_fract_x
_atom_site_fract_y
_atom_site_fract_z
O1 O 0.4697(2) 0.89031(12) 0.55843(11)
O2 O 0.8348(2) 0.72661(12) 0.78251(13)
N1 N 0.6542(3) 0.80986(13) 0.67217(14)
N2 N 0.7382(2) 0.85455(13) 0.83029(13)
N3 N 0.6281(3) 0.99799(13) 0.86045(13)
N4 N 0.4814(2) 1.02675(12) 0.71483(13)
C1 C 0.6699(4) 0.7438(2) 0.6027(2)
H1 H 0.7906 0.731 0.6077
H2 H 0.6186 0.7655 0.5411
H3 H 0.6107 0.6913 0.6137
C2 C 0.5498(3) 0.88361(16) 0.63971(16)
C3 C 0.5553(3) 0.94489(15) 0.71417(15)
C4 C 0.3753(3) 1.07390(17) 0.63461(16)
H4 H 0.365 1.1341 0.6512
H5 H 0.2617 1.0479 0.6172
H6 H 0.4297 1.0706 0.5829
C5 C 0.5280(3) 1.05501(16) 0.80264(16)
H7 H 0.4944 1.1089 0.822
C6 C 0.6444(3) 0.92981(15) 0.80409(15)
C7 C 0.8302(4) 0.83957(18) 0.92765(17)
H8 H 0.9381 0.8712 0.941
H9 H 0.8532 0.7782 0.9375
H10 H 0.7596 0.8595 0.9684
C8 C 0.7490(3) 0.79296(16) 0.76343(17)
O3 O 0.7559(2) 1.03007(12) 1.03850(12)
H11 H 0.7115 1.0205 0.9831
O4 O 0.5760(2) 1.14238(12) 1.00837(12)
O5 O 0.5748(2) 1.25926(12) 1.12587(14)
H12 H 0.5523 1.2358 1.0743
C9 C 0.6889(3) 1.10039(15) 1.06472(16)
C10 C 0.7521(3) 1.12915(15) 1.16353(15)
C11 C 0.8720(3) 1.08061(15) 1.23564(15)
C12 C 0.9505(3) 0.99946(16) 1.22191(17)
H13 H 0.9247 0.9742 1.1627
C13 C 1.0639(3) 0.95742(18) 1.29431(18)
H14 H 1.1128 0.9043 1.2831
C14 C 1.1066(3) 0.9934(2) 1.38442(19)
H15 H 1.184 0.9648 1.4327
C15 C 1.0335(3) 1.07072(19) 1.40053(17)
H16 H 1.0608 1.0944 1.4605
C16 C 0.9165(3) 1.11606(17) 1.32787(17)
C17 C 0.8443(3) 1.19688(18) 1.34684(18)
H17 H 0.8733 1.2192 1.4074
C18 C 0.7341(3) 1.24249(17) 1.27909(19)
H18 H 0.6897 1.2959 1.2931
C19 C 0.6863(3) 1.20899(16) 1.18688(17)
loop_
_geom_bond_atom_site_label_1
_geom_bond_atom_site_label_2
_geom_bond_site_symmetry_1
_geom_bond_site_symmetry_2
O1 C2 1_555 1_555
O2 C8 1_555 1_555
N1 C1 1_555 1_555
N2 C6 1_555 1_555
N3 C5 1_555 1_555
N4 C3 1_555 1_555
C1 H1 1_555 1_555
H2 C1 1_555 1_555
H3 C1 1_555 1_555
C2 N1 1_555 1_555
C3 C2 1_555 1_555
C4 N4 1_555 1_555
H4 C4 1_555 1_555
H5 C4 1_555 1_555
H6 C4 1_555 1_555
C5 N4 1_555 1_555
H7 C5 1_555 1_555
C6 N3 1_555 1_555
C7 N2 1_555 1_555
H8 C7 1_555 1_555
H9 C7 1_555 1_555
H10 C7 1_555 1_555
C8 N1 1_555 1_555
O3 H11 1_555 1_555
O4 C9 1_555 1_555
O5 H12 1_555 1_555
C9 O3 1_555 1_555
C10 C9 1_555 1_555
C11 C10 1_555 1_555
C12 C11 1_555 1_555
H13 C12 1_555 1_555
C13 C12 1_555 1_555
H14 C13 1_555 1_555
C14 C13 1_555 1_555
H15 C14 1_555 1_555
C15 C14 1_555 1_555
H16 C15 1_555 1_555
C16 C11 1_555 1_555
C17 C16 1_555 1_555
H17 C17 1_555 1_555
C18 C17 1_555 1_555
H18 C18 1_555 1_555
C19 O5 1_555 1_555
N2 C8 1_555 1_555
C3 C6 1_555 1_555
C10 C19 1_555 1_555
C15 C16 1_555 1_555
C18 C19 1_555 1_555

#END
