
#######################################################################
#
#                 Cambridge Crystallographic Data Centre
#                                CCDC 
#
#######################################################################
#
# If this CIF has been generated from an entry in the Cambridge 
# Structural Database, then it will include bibliographic, chemical, 
# crystal, experimental, refinement or atomic coordinate data resulting 
# from the CCDC's data processing and validation procedures.
#
#######################################################################

data_LAMMES
_chemical_formula_moiety         'C20 H20 Br1 N1 O2'
_chemical_name_systematic        
N-Methyl-9-(4-bromophenyl)-1,8-dioxo-1,2,3,4,5,6,7,8,9,10-decahydroacridine
_symmetry_cell_setting           monoclinic
_symmetry_space_group_name_H-M   'P 21/n'
_symmetry_Int_Tables_number      14
_space_group_name_Hall           '-P 2yn'
loop_
_symmetry_equiv_pos_site_id
_symmetry_equiv_pos_as_xyz
1 x,y,z
2 1/2-x,1/2+y,1/2-z
3 -x,-y,-z
4 1/2+x,1/2-y,1/2+z
_cell_length_a                   10.7999(18)
_cell_length_b                   13.845(2)
_cell_length_c                   11.4031(19)
_cell_angle_alpha                90
_cell_angle_beta                 99.324(4)
_cell_angle_gamma                90
_cell_volume                     1682.52
_exptl_crystal_colour            colorless
_exptl_crystal_description       platelet
_chemical_melting_point          '267-268 deg.C'
_cell_formula_units_Z            4
_exptl_crystal_recrystallization_method '95% ethanol'
loop_
_atom_site_label
_atom_site_type_symbol
_atom_site_fract_x
_atom_site_fract_y
_atom_site_fract_z
Br1 Br 0.35239(3) 1.12777(2) 0.68564(3)
O1 O 0.88029(18) 0.81867(14) 0.60199(18)
O2 O 0.8631(2) 0.85350(15) 1.02629(18)
N1 N 0.61208(19) 0.62422(13) 0.79176(18)
C1 C 0.6636(2) 0.64935(16) 0.6915(2)
C2 C 0.7363(2) 0.72976(16) 0.6936(2)
C3 C 0.7453(2) 0.79943(16) 0.79685(19)
H1 H 0.8303 0.8299 0.8067
C4 C 0.7386(2) 0.74158(16) 0.9073(2)
C5 C 0.6671(2) 0.66032(16) 0.9020(2)
C6 C 0.8126(2) 0.74721(18) 0.6009(2)
C7 C 0.8080(3) 0.6724(2) 0.5046(2)
H2 H 0.8729 0.6228 0.5297
H3 H 0.8275 0.7035 0.4316
C8 C 0.6813(3) 0.62407(19) 0.4773(2)
H4 H 0.6840 0.5728 0.4172
H5 H 0.6175 0.6722 0.4435
C9 C 0.6440(3) 0.58002(18) 0.5887(2)
H6 H 0.5545 0.5609 0.5721
H7 H 0.6944 0.5211 0.6104
C10 C 0.8108(2) 0.77475(18) 1.0192(2)
C11 C 0.8201(3) 0.7081(2) 1.1243(2)
H8 H 0.8432 0.7456 1.1985
H9 H 0.8867 0.6597 1.1203
C12 C 0.6957(3) 0.6567(2) 1.1262(2)
H10 H 0.7058 0.6100 1.1929
H11 H 0.6318 0.7047 1.1402
C13 C 0.6499(3) 0.60325(18) 1.0106(2)
H12 H 0.6962 0.5415 1.0107
H13 H 0.5598 0.5878 1.0065
C14 C 0.6486(2) 0.88057(15) 0.7734(2)
C15 C 0.6482(2) 0.94035(17) 0.6748(2)
H14 H 0.7076 0.9293 0.6233
C16 C 0.5630(2) 1.01547(18) 0.6503(2)
H15 H 0.5650 1.0563 0.5837
C17 C 0.4756(2) 1.02996(17) 0.7241(2)
C18 C 0.4739(2) 0.97347(18) 0.8235(2)
H16 H 0.4141 0.9851 0.8745
C19 C 0.5614(2) 0.89898(17) 0.8478(2)
H17 H 0.5614 0.8602 0.9165
C20 C 0.5134(3) 0.54975(19) 0.7840(2)
H18 H 0.5523 0.4858 0.7950
H19 H 0.4603 0.5530 0.7058
H20 H 0.4620 0.5610 0.8461
loop_
_geom_bond_atom_site_label_1
_geom_bond_atom_site_label_2
_geom_bond_site_symmetry_1
_geom_bond_site_symmetry_2
Br1 C17 1_555 1_555
O1 C6 1_555 1_555
O2 C10 1_555 1_555
N1 C1 1_555 1_555
C1 C2 1_555 1_555
C2 C3 1_555 1_555
C3 H1 1_555 1_555
C4 C3 1_555 1_555
C5 N1 1_555 1_555
C6 C2 1_555 1_555
C7 C6 1_555 1_555
H2 C7 1_555 1_555
H3 C7 1_555 1_555
C8 C7 1_555 1_555
H4 C8 1_555 1_555
H5 C8 1_555 1_555
C9 C1 1_555 1_555
H6 C9 1_555 1_555
H7 C9 1_555 1_555
C10 C4 1_555 1_555
C11 C10 1_555 1_555
H8 C11 1_555 1_555
H9 C11 1_555 1_555
C12 C11 1_555 1_555
H10 C12 1_555 1_555
H11 C12 1_555 1_555
C13 C5 1_555 1_555
H12 C13 1_555 1_555
H13 C13 1_555 1_555
C14 C3 1_555 1_555
C15 C14 1_555 1_555
H14 C15 1_555 1_555
C16 C15 1_555 1_555
H15 C16 1_555 1_555
C17 C16 1_555 1_555
C18 C17 1_555 1_555
H16 C18 1_555 1_555
C19 C14 1_555 1_555
H17 C19 1_555 1_555
C20 N1 1_555 1_555
H18 C20 1_555 1_555
H19 C20 1_555 1_555
H20 C20 1_555 1_555
C4 C5 1_555 1_555
C8 C9 1_555 1_555
C12 C13 1_555 1_555
C18 C19 1_555 1_555

#END
