
#######################################################################
#
#                 Cambridge Crystallographic Data Centre
#                                CCDC 
#
#######################################################################
#
# If this CIF has been generated from an entry in the Cambridge 
# Structural Database, then it will include bibliographic, chemical, 
# crystal, experimental, refinement or atomic coordinate data resulting 
# from the CCDC's data processing and validation procedures.
#
#######################################################################

data_LAMVUT
_chemical_formula_moiety         'C16 H13 F3 N2 O1 S1'
_chemical_name_systematic        
2-methyl-N-((4-(trifluoromethyl)phenyl)carbamothioyl)benzamide
_symmetry_cell_setting           triclinic
_symmetry_space_group_name_H-M   'P -1'
_symmetry_Int_Tables_number      2
_space_group_name_Hall           '-P 1'
loop_
_symmetry_equiv_pos_site_id
_symmetry_equiv_pos_as_xyz
1 x,y,z
2 -x,-y,-z
_cell_length_a                   7.431(3)
_cell_length_b                   7.762(4)
_cell_length_c                   14.075(7)
_cell_angle_alpha                100.619(9)
_cell_angle_beta                 96.159(8)
_cell_angle_gamma                91.718(8)
_cell_volume                     792.3
_exptl_crystal_colour            white
_exptl_crystal_description       block
_chemical_melting_point          '461.15 K'
_cell_formula_units_Z            2
_exptl_crystal_recrystallization_method 'Vapour deposition'
loop_
_atom_site_label
_atom_site_type_symbol
_atom_site_fract_x
_atom_site_fract_y
_atom_site_fract_z
S1 S 0.31233(15) -0.00172(14) 0.60714(7)
F1 F -0.4419(5) 0.2380(8) 0.9078(3)
F2 F -0.2298(7) 0.3950(6) 0.9870(3)
F3 F -0.2250(6) 0.1313(5) 0.9706(3)
N1 N 0.2875(4) 0.1922(4) 0.4733(2)
H1 H 0.3813 0.1372 0.4566
N2 N 0.0820(4) 0.2488(4) 0.5854(2)
H2 H 0.0402 0.3201 0.5494
O1 O 0.0903(4) 0.3887(4) 0.42658(19)
C1 C 0.0753(6) 0.2418(7) 0.2070(3)
H3 H 0.0289 0.1726 0.2497
H4 H 0.0615 0.1752 0.1418
H5 H 0.0094 0.3467 0.2088
C2 C 0.2701(6) 0.2896(5) 0.2388(3)
C3 C 0.3913(7) 0.3038(7) 0.1711(3)
H6 H 0.3488 0.2791 0.1051
C4 C 0.5691(7) 0.3524(7) 0.1983(4)
H7 H 0.6447 0.3630 0.1509
C5 C 0.6388(6) 0.3862(6) 0.2939(3)
H8 H 0.7607 0.4197 0.3118
C6 C 0.5255(5) 0.3699(5) 0.3636(3)
H9 H 0.5710 0.3920 0.4291
C7 C 0.3428(5) 0.3202(5) 0.3359(3)
C8 C 0.2249(5) 0.3066(5) 0.4144(3)
C9 C 0.2205(4) 0.1534(5) 0.5558(2)
C10 C -0.0016(5) 0.2422(4) 0.6710(2)
C11 C 0.0966(5) 0.2511(5) 0.7603(3)
H10 H 0.2226 0.2551 0.7659
C12 C 0.0076(6) 0.2540(6) 0.8415(3)
H11 H 0.0740 0.2605 0.9021
C13 C -0.1767(6) 0.2475(6) 0.8339(3)
C14 C -0.2747(5) 0.2403(6) 0.7450(3)
H12 H -0.4007 0.2364 0.7397
C15 C -0.1869(5) 0.2388(5) 0.6634(3)
H13 H -0.2536 0.2354 0.6033
C16 C -0.2704(8) 0.2524(8) 0.9223(4)
loop_
_geom_bond_atom_site_label_1
_geom_bond_atom_site_label_2
_geom_bond_site_symmetry_1
_geom_bond_site_symmetry_2
S1 C9 1_555 1_555
F1 C16 1_555 1_555
F2 C16 1_555 1_555
F3 C16 1_555 1_555
N1 H1 1_555 1_555
N2 H2 1_555 1_555
O1 C8 1_555 1_555
C1 H3 1_555 1_555
H4 C1 1_555 1_555
H5 C1 1_555 1_555
C2 C1 1_555 1_555
C3 C2 1_555 1_555
H6 C3 1_555 1_555
C4 C3 1_555 1_555
H7 C4 1_555 1_555
C5 C4 1_555 1_555
H8 C5 1_555 1_555
C6 C5 1_555 1_555
H9 C6 1_555 1_555
C7 C2 1_555 1_555
C8 N1 1_555 1_555
C9 N1 1_555 1_555
C10 N2 1_555 1_555
C11 C10 1_555 1_555
H10 C11 1_555 1_555
C12 C11 1_555 1_555
H11 C12 1_555 1_555
C13 C12 1_555 1_555
C14 C13 1_555 1_555
H12 C14 1_555 1_555
C15 C10 1_555 1_555
H13 C15 1_555 1_555
C16 C13 1_555 1_555
N2 C9 1_555 1_555
C6 C7 1_555 1_555
C7 C8 1_555 1_555
C14 C15 1_555 1_555

#END
