
#######################################################################
#
#                 Cambridge Crystallographic Data Centre
#                                CCDC 
#
#######################################################################
#
# If this CIF has been generated from an entry in the Cambridge 
# Structural Database, then it will include bibliographic, chemical, 
# crystal, experimental, refinement or atomic coordinate data resulting 
# from the CCDC's data processing and validation procedures.
#
#######################################################################

data_LAMWUU
_chemical_formula_moiety         'C16 H13 F3 N2 O1 S1'
_chemical_name_systematic        
4-methyl-N-((4-(trifluoromethyl)phenyl)carbamothioyl)benzamide
_symmetry_cell_setting           orthorhombic
_symmetry_space_group_name_H-M   'P b c a'
_symmetry_Int_Tables_number      61
_space_group_name_Hall           '-P 2ac 2ab'
loop_
_symmetry_equiv_pos_site_id
_symmetry_equiv_pos_as_xyz
1 x,y,z
2 1/2-x,-y,1/2+z
3 -x,1/2+y,1/2-z
4 1/2+x,1/2-y,-z
5 -x,-y,-z
6 1/2+x,y,1/2-z
7 x,1/2-y,1/2+z
8 1/2-x,1/2+y,z
_cell_length_a                   6.622(2)
_cell_length_b                   15.490(5)
_cell_length_c                   31.130(10)
_cell_angle_alpha                90
_cell_angle_beta                 90
_cell_angle_gamma                90
_cell_volume                     3193.15
_exptl_crystal_colour            white
_exptl_crystal_description       needle
_cell_formula_units_Z            8
loop_
_atom_site_label
_atom_site_type_symbol
_atom_site_fract_x
_atom_site_fract_y
_atom_site_fract_z
S1 S 0.09079(16) 0.75778(7) 0.46029(3)
F1 F 0.6022(8) 0.7792(3) 0.27971(13)
F2 F 0.7419(11) 0.6635(3) 0.27772(13)
F3 F 0.8712(9) 0.7699(5) 0.30869(13)
N1 N 0.3260(5) 0.6179(2) 0.45799(10)
H1 H 0.3626 0.5694 0.4690
N2 N 0.1115(5) 0.6325(2) 0.51677(10)
H2 H 0.0016 0.6557 0.5259
O1 O 0.3374(6) 0.5254(2) 0.53173(11)
C1 C 0.7112(10) 0.7267(4) 0.30362(16)
C2 C 0.6056(8) 0.7005(3) 0.34418(13)
C3 C 0.7112(7) 0.7027(3) 0.38278(13)
H3 H 0.8440 0.7222 0.3836
C4 C 0.6159(6) 0.6753(3) 0.41991(13)
H4 H 0.6852 0.6766 0.4459
C5 C 0.4200(6) 0.6463(3) 0.41888(13)
C6 C 0.3154(7) 0.6440(3) 0.38052(14)
H5 H 0.1826 0.6244 0.3799
C7 C 0.4087(7) 0.6710(4) 0.34297(14)
H6 H 0.3390 0.6692 0.3170
C8 C 0.1838(6) 0.6641(2) 0.47796(12)
C9 C 0.1926(7) 0.5684(3) 0.54288(14)
C10 C 0.0934(6) 0.5596(2) 0.58571(13)
C11 C -0.1041(7) 0.5837(3) 0.59346(16)
H7 H -0.1828 0.6044 0.5710
C12 C -0.1867(8) 0.5773(4) 0.63426(18)
H8 H -0.3192 0.5949 0.6388
C13 C -0.0748(8) 0.5452(3) 0.66836(16)
C14 C 0.1213(8) 0.5198(3) 0.66012(15)
H9 H 0.1993 0.4979 0.6824
C15 C 0.2048(7) 0.5262(3) 0.61946(14)
H10 H 0.3367 0.5078 0.6148
C16 C -0.1687(11) 0.5371(5) 0.71260(16)
H11 H -0.1662 0.4777 0.7214
H12 H -0.3059 0.5570 0.7117
H13 H -0.0935 0.5713 0.7327
loop_
_geom_bond_atom_site_label_1
_geom_bond_atom_site_label_2
_geom_bond_site_symmetry_1
_geom_bond_site_symmetry_2
S1 C8 1_555 1_555
F1 C1 1_555 1_555
F2 C1 1_555 1_555
F3 C1 1_555 1_555
N1 H1 1_555 1_555
N2 H2 1_555 1_555
O1 C9 1_555 1_555
C1 C2 1_555 1_555
C2 C3 1_555 1_555
C3 H3 1_555 1_555
C4 C3 1_555 1_555
H4 C4 1_555 1_555
C5 N1 1_555 1_555
C6 C5 1_555 1_555
H5 C6 1_555 1_555
C7 C2 1_555 1_555
H6 C7 1_555 1_555
C8 N1 1_555 1_555
C9 N2 1_555 1_555
C10 C9 1_555 1_555
C11 C10 1_555 1_555
H7 C11 1_555 1_555
C12 C11 1_555 1_555
H8 C12 1_555 1_555
C13 C12 1_555 1_555
C14 C13 1_555 1_555
H9 C14 1_555 1_555
C15 C10 1_555 1_555
H10 C15 1_555 1_555
C16 C13 1_555 1_555
H11 C16 1_555 1_555
H12 C16 1_555 1_555
H13 C16 1_555 1_555
N2 C8 1_555 1_555
C4 C5 1_555 1_555
C6 C7 1_555 1_555
C14 C15 1_555 1_555

#END
