
#######################################################################
#
#                 Cambridge Crystallographic Data Centre
#                                CCDC 
#
#######################################################################
#
# If this CIF has been generated from an entry in the Cambridge 
# Structural Database, then it will include bibliographic, chemical, 
# crystal, experimental, refinement or atomic coordinate data resulting 
# from the CCDC's data processing and validation procedures.
#
#######################################################################

data_LANTEC
_chemical_formula_moiety         'C15 H13 N1 O3'
_chemical_name_systematic        
3-hydroxy-1-(4-methoxyphenyl)-3-(pyridin-3-yl)prop-2-en-1-one
_symmetry_cell_setting           monoclinic
_symmetry_space_group_name_H-M   'C 2/c'
_symmetry_Int_Tables_number      15
_space_group_name_Hall           '-C 2yn'
loop_
_symmetry_equiv_pos_site_id
_symmetry_equiv_pos_as_xyz
1 x,y,z
2 -x,y,1/2-z
3 1/2+x,1/2+y,z
4 1/2-x,1/2+y,1/2-z
5 -x,-y,-z
6 x,-y,1/2+z
7 1/2-x,1/2-y,-z
8 1/2+x,1/2-y,1/2+z
_cell_length_a                   21.986(2)
_cell_length_b                   3.9115(4)
_cell_length_c                   30.020(2)
_cell_angle_alpha                90
_cell_angle_beta                 106.946(9)
_cell_angle_gamma                90
_cell_volume                     2469.57
_exptl_crystal_colour            'off white'
_cell_formula_units_Z            8
_exptl_crystal_preparation       Luminescent
loop_
_atom_site_label
_atom_site_type_symbol
_atom_site_fract_x
_atom_site_fract_y
_atom_site_fract_z
O1 O 0.17590(8) 0.2239(6) 0.05451(5)
O2 O 0.45549(8) -0.3171(5) 0.09127(6)
O3 O 0.10350(7) 0.5035(6) 0.09248(5)
N1 N 0.16618(9) 0.8334(6) 0.25150(6)
C1 C 0.13283(10) 0.6397(6) 0.17198(7)
C2 C 0.14862(10) 0.4945(6) 0.13105(7)
C3 C 0.07032(11) 0.7245(7) 0.16877(8)
H1 H 0.0380 0.6887 0.1413
C4 C 0.17829(10) 0.7015(7) 0.21394(7)
H2 H 0.2203 0.6473 0.2162
C5 C 0.28178(10) 0.0781(6) 0.09378(7)
C6 C 0.34790(11) -0.1576(7) 0.04959(8)
H3 H 0.3528 -0.2255 0.0211
C7 C 0.29045(11) -0.0221(7) 0.05183(8)
H4 H 0.2571 0.0018 0.0246
C8 C 0.21960(10) 0.2229(6) 0.09361(7)
C9 C 0.10543(11) 0.9119(7) 0.24685(8)
H5 H 0.0956 1.0060 0.2724
C10 C 0.20780(10) 0.3569(6) 0.13372(7)
H6 H 0.2396 0.3534 0.1620
C11 C 0.38944(11) -0.0927(7) 0.13200(8)
H7 H 0.4229 -0.1165 0.1592
C12 C 0.33184(10) 0.0403(7) 0.13376(7)
H8 H 0.3268 0.1050 0.1623
C13 C 0.39697(10) -0.1904(6) 0.08939(7)
C14 C 0.05732(12) 0.8628(8) 0.20727(8)
H9 H 0.0159 0.9218 0.2061
C15 C 0.46619(12) -0.4246(8) 0.04852(9)
H10 H 0.4616 -0.2323 0.0279
H11 H 0.4358 -0.5972 0.0342
H12 H 0.5084 -0.5160 0.0548
H13 H 0.1159 0.4221 0.0717
H14? H 0.1438 0.3118 0.0577
loop_
_geom_bond_atom_site_label_1
_geom_bond_atom_site_label_2
_geom_bond_site_symmetry_1
_geom_bond_site_symmetry_2
O1 C8 1_555 1_555
O2 C13 1_555 1_555
O3 C2 1_555 1_555
N1 C4 1_555 1_555
C1 C2 1_555 1_555
C2 C10 1_555 1_555
C3 C1 1_555 1_555
H1 C3 1_555 1_555
C4 C1 1_555 1_555
H2 C4 1_555 1_555
C5 C7 1_555 1_555
C6 H3 1_555 1_555
C7 C6 1_555 1_555
H4 C7 1_555 1_555
C8 C5 1_555 1_555
C9 N1 1_555 1_555
H5 C9 1_555 1_555
C10 C8 1_555 1_555
H6 C10 1_555 1_555
C11 H7 1_555 1_555
C12 C5 1_555 1_555
H8 C12 1_555 1_555
C13 C6 1_555 1_555
C14 C3 1_555 1_555
H9 C14 1_555 1_555
C15 O2 1_555 1_555
H10 C15 1_555 1_555
H11 C15 1_555 1_555
H12 C15 1_555 1_555
H13 O3 1_555 1_555
C9 C14 1_555 1_555
C11 C12 1_555 1_555
C11 C13 1_555 1_555

#END
