
#######################################################################
#
#                 Cambridge Crystallographic Data Centre
#                                CCDC 
#
#######################################################################
#
# If this CIF has been generated from an entry in the Cambridge 
# Structural Database, then it will include bibliographic, chemical, 
# crystal, experimental, refinement or atomic coordinate data resulting 
# from the CCDC's data processing and validation procedures.
#
#######################################################################

data_LANVIF
_chemical_formula_moiety         'C17 H19 Cl1 O5'
_chemical_name_systematic        
(1SR,5RS,6RS,7RS)-6-((3RS)-4-(3-Chlorophenoxy)-3-hydroxybut-1(E)-enyl)-7-hydroxy-2-oxabicyclo(3.3.0)octan-3-one
_symmetry_cell_setting           monoclinic
_symmetry_space_group_name_H-M   'P 21/n'
_symmetry_Int_Tables_number      14
_space_group_name_Hall           '-P 2yn'
loop_
_symmetry_equiv_pos_site_id
_symmetry_equiv_pos_as_xyz
1 x,y,z
2 1/2-x,1/2+y,1/2-z
3 -x,-y,-z
4 1/2+x,1/2-y,1/2+z
_cell_length_a                   5.817(5)
_cell_length_b                   8.318(12)
_cell_length_c                   33.427(16)
_cell_angle_alpha                90
_cell_angle_beta                 93.08(5)
_cell_angle_gamma                90
_cell_volume                     1615.06
_cell_formula_units_Z            4
loop_
_atom_site_label
_atom_site_type_symbol
_atom_site_fract_x
_atom_site_fract_y
_atom_site_fract_z
Cl1 Cl 0.261(2) -0.171(1) 0.6794(2)
O1 O -0.504(3) 0.648(2) 0.9491(5)
O2 O -0.199(2) 0.503(2) 0.9679(4)
O3 O -0.525(2) 0.215(2) 0.9710(4)
O4 O 0.108(3) -0.324(3) 0.8931(6)
O5 O 0.397(3) -0.264(2) 0.8303(4)
C1 C -0.281(4) 0.141(3) 0.9179(7)
C2 C -0.178(4) 0.319(3) 0.9132(6)
C3 C -0.376(4) 0.443(3) 0.9052(6)
C4 C -0.372(3) 0.541(3) 0.9424(7)
C5 C -0.066(4) 0.367(3) 0.9547(7)
C6 C -0.106(3) 0.223(3) 0.9823(6)
C7 C -0.312(4) 0.136(3) 0.9645(6)
C8 C -0.064(7) 0.044(5) 0.9083(9)
C9 C -0.037(8) -0.081(5) 0.8888(9)
C10 C 0.179(4) -0.165(3) 0.8808(8)
C11 C 0.194(4) -0.170(3) 0.8349(6)
C12 C 0.459(4) -0.286(3) 0.7886(7)
C13 C 0.665(5) -0.372(3) 0.7882(6)
C14 C 0.726(4) -0.398(3) 0.7484(8)
C15 C 0.623(3) -0.333(3) 0.7148(5)
C16 C 0.412(3) -0.252(3) 0.7203(7)
C17 C 0.331(4) -0.221(3) 0.7582(7)
H1 H -0.4354 0.1042 0.9009
H2 H -0.0608 0.3190 0.8891
H3 H 0.1151 0.3963 0.9545
H4 H -0.1381 0.2643 1.0121
H5 H 0.0430 0.1450 0.9836
H6 H -0.3198 0.0172 0.9776
H7 H 0.0950 0.0943 0.9209
H8 H -0.1926 -0.1363 0.8760
H9 H 0.3381 -0.1173 0.8942
H10 H 0.7633 -0.4120 0.8146
H11 H 0.8699 -0.4772 0.7443
H12 H 0.6962 -0.3423 0.6858
H13 H 0.1781 -0.1507 0.7626
H14 H 0.2134 -0.0504 0.8228
H15 H 0.0442 -0.2264 0.8207
H16 H -0.3439 0.5173 0.8796
H17 H -0.5395 0.3829 0.9003
loop_
_geom_bond_atom_site_label_1
_geom_bond_atom_site_label_2
_geom_bond_site_symmetry_1
_geom_bond_site_symmetry_2
Cl1 C16 1_555 1_555
O1 C4 1_555 1_555
O2 C4 1_555 1_555
O3 C7 1_555 1_555
O4 C10 1_555 1_555
O5 C11 1_555 1_555
C1 C2 1_555 1_555
C2 C3 1_555 1_555
C3 C4 1_555 1_555
C5 O2 1_555 1_555
C6 C5 1_555 1_555
C7 C1 1_555 1_555
C8 C1 1_555 1_555
C9 C8 1_555 1_555
C10 C9 1_555 1_555
C11 C10 1_555 1_555
C12 O5 1_555 1_555
C13 C12 1_555 1_555
C14 C13 1_555 1_555
C15 C14 1_555 1_555
C16 C15 1_555 1_555
C17 C12 1_555 1_555
H1 C1 1_555 1_555
H2 C2 1_555 1_555
H3 C5 1_555 1_555
H4 C6 1_555 1_555
H5 C6 1_555 1_555
H6 C7 1_555 1_555
H7 C8 1_555 1_555
H8 C9 1_555 1_555
H9 C10 1_555 1_555
H10 C13 1_555 1_555
H11 C14 1_555 1_555
H12 C15 1_555 1_555
H13 C17 1_555 1_555
H14 C11 1_555 1_555
H15 C11 1_555 1_555
H16 C3 1_555 1_555
H17 C3 1_555 1_555
C2 C5 1_555 1_555
C6 C7 1_555 1_555
C16 C17 1_555 1_555

#END
