
#######################################################################
#
#                 Cambridge Crystallographic Data Centre
#                                CCDC 
#
#######################################################################
#
# If this CIF has been generated from an entry in the Cambridge 
# Structural Database, then it will include bibliographic, chemical, 
# crystal, experimental, refinement or atomic coordinate data resulting 
# from the CCDC's data processing and validation procedures.
#
#######################################################################

data_LAPCIP
_chemical_formula_moiety         'C39 H38 N2 O8'
_chemical_name_systematic        
"(+-)-1,1'-diethyl 3,3'-(6H,12H-5,11-methanodibenzo(b,f)(1,5)diazocine-2,8-diylbis(p-phenylenemethylene)) dimalonate"
_symmetry_cell_setting           monoclinic
_symmetry_space_group_name_H-M   'C 2/c'
_symmetry_Int_Tables_number      15
_space_group_name_Hall           '-C 2yn'
loop_
_symmetry_equiv_pos_site_id
_symmetry_equiv_pos_as_xyz
1 x,y,z
2 1/2+x,1/2+y,z
3 -x,y,1/2-z
4 1/2-x,1/2+y,1/2-z
5 -x,-y,-z
6 1/2-x,1/2-y,-z
7 x,-y,1/2+z
8 1/2+x,1/2-y,1/2+z
_cell_length_a                   25.1985(6)
_cell_length_b                   5.5400(1)
_cell_length_c                   23.6427(5)
_cell_angle_alpha                90
_cell_angle_beta                 96.801(1)
_cell_angle_gamma                90
_cell_volume                     3277.29
_exptl_crystal_colour            colorless
_chemical_melting_point          123-125deg.C
_cell_formula_units_Z            4
_exptl_crystal_recrystallization_method hexane/dichloromethane
loop_
_atom_site_label
_atom_site_type_symbol
_atom_site_fract_x
_atom_site_fract_y
_atom_site_fract_z
C1 C -0.07454(8) 0.5275(4) 0.24483(9)
H1 H -0.0939 0.3988 0.2218
H2 H -0.1011 0.6490 0.2539
N1 N -0.03604(7) 0.6424(3) 0.21124(7)
C2 C 0.0000 0.7920(5) 0.2500
H3 H 0.0214 0.8970 0.2275
H4 H -0.0214 0.8970 0.2725
C3 C -0.00576(8) 0.4703(4) 0.18200(8)
C4 C -0.04774(8) 0.4204(4) 0.29925(8)
C5 C -0.07609(8) 0.2637(4) 0.33162(8)
H5 H -0.1128 0.2330 0.3196
C6 C -0.05181(8) 0.1530(4) 0.38053(8)
C7 C 0.00233(8) 0.1981(4) 0.39713(8)
H6 H 0.0200 0.1193 0.4298
C8 C -0.03059(8) 0.3563(4) 0.13339(8)
H7 H -0.0672 0.3873 0.1211
C9 C -0.08383(8) -0.0031(4) 0.41538(8)
C10 C -0.06278(8) -0.2144(4) 0.43998(9)
H8 H -0.0277 -0.2623 0.4340
C11 C -0.09212(8) -0.3575(4) 0.47323(8)
H9 H -0.0770 -0.5025 0.4895
C12 C -0.14363(7) -0.2894(3) 0.48290(7)
C13 C -0.16467(8) -0.0761(4) 0.45907(8)
H10 H -0.1993 -0.0254 0.4660
C14 C -0.13550(8) 0.0636(4) 0.42514(8)
H11 H -0.1508 0.2069 0.4083
C15 C -0.17920(8) -0.4431(4) 0.51467(8)
H12 H -0.2020 -0.3387 0.5357
H13 H -0.2028 -0.5419 0.4874
O1 O -0.14719(5) -0.5998(3) 0.55429(5)
C16 C -0.17566(8) -0.7511(4) 0.58294(8)
O2 O -0.22365(6) -0.7546(3) 0.57814(7)
C17 C -0.14006(8) -0.9186(4) 0.62078(9)
H14 H -0.1259 -1.0465 0.5974
H15 H -0.1094 -0.8273 0.6403
C18 C -0.17132(9) -1.0309(4) 0.66418(9)
O3 O -0.17068(9) -0.9599(4) 0.71193(7)
O4 O -0.20079(7) -1.2174(3) 0.64302(7)
C19 C -0.24051(12) -1.3102(5) 0.67790(11)
H16 H -0.2243 -1.3222 0.7180
H17 H -0.2516 -1.4742 0.6647
C20 C -0.28832(12) -1.1508(6) 0.67448(11)
H18 H -0.3142 -1.2179 0.6980
H19 H -0.3047 -1.1402 0.6348
H20 H -0.2775 -0.9893 0.6883
C1B C 0.07454(8) 0.5275(4) 0.25517(9)
H1B H 0.0939 0.3988 0.2782
H2B H 0.1011 0.6490 0.2461
N1B N 0.03604(7) 0.6424(3) 0.28876(7)
C3B C 0.00576(8) 0.4703(4) 0.31800(8)
C4B C 0.04774(8) 0.4204(4) 0.20075(8)
C5B C 0.07609(8) 0.2637(4) 0.16838(8)
H5B H 0.1128 0.2330 0.1804
C6B C 0.05181(8) 0.1530(4) 0.11947(8)
C7B C -0.00233(8) 0.1981(4) 0.10287(8)
H6B H -0.0200 0.1193 0.0702
C8B C 0.03059(8) 0.3563(4) 0.36661(8)
H7B H 0.0672 0.3873 0.3789
C9B C 0.08383(8) -0.0031(4) 0.08462(8)
C10B C 0.06278(8) -0.2144(4) 0.06002(9)
H8B H 0.0277 -0.2623 0.0660
C11B C 0.09212(8) -0.3575(4) 0.02677(8)
H9B H 0.0770 -0.5025 0.0105
C12B C 0.14363(7) -0.2894(3) 0.01710(7)
C13B C 0.16467(8) -0.0761(4) 0.04093(8)
H10B H 0.1993 -0.0254 0.0340
C14B C 0.13550(8) 0.0636(4) 0.07486(8)
H11B H 0.1508 0.2069 0.0917
C15B C 0.17920(8) -0.4431(4) -0.01467(8)
H12B H 0.2020 -0.3387 -0.0357
H13B H 0.2028 -0.5419 0.0126
O1B O 0.14719(5) -0.5998(3) -0.05429(5)
C16B C 0.17566(8) -0.7511(4) -0.08294(8)
O2B O 0.22365(6) -0.7546(3) -0.07814(7)
C17B C 0.14006(8) -0.9186(4) -0.12078(9)
H14B H 0.1259 -1.0465 -0.0974
H15B H 0.1094 -0.8273 -0.1403
C18B C 0.17132(9) -1.0309(4) -0.16418(9)
O3B O 0.17068(9) -0.9599(4) -0.21193(7)
O4B O 0.20079(7) -1.2174(3) -0.14302(7)
C19B C 0.24051(12) -1.3102(5) -0.17790(11)
H16B H 0.2243 -1.3222 -0.2180
H17B H 0.2516 -1.4742 -0.1647
C20B C 0.28832(12) -1.1508(6) -0.17448(11)
H18B H 0.3142 -1.2179 -0.1980
H19B H 0.3047 -1.1402 -0.1348
H20B H 0.2775 -0.9893 -0.1883
loop_
_geom_bond_atom_site_label_1
_geom_bond_atom_site_label_2
_geom_bond_site_symmetry_1
_geom_bond_site_symmetry_2
C1 H1 1_555 1_555
H2 C1 1_555 1_555
N1 C1 1_555 1_555
C2 N1 1_555 1_555
H3 C2 1_555 1_555
H4 C2 1_555 1_555
C3 N1 1_555 1_555
C4 C1 1_555 1_555
C5 C4 1_555 1_555
H5 C5 1_555 1_555
C6 C5 1_555 1_555
C7 C6 1_555 1_555
H6 C7 1_555 1_555
C8 C3 1_555 1_555
H7 C8 1_555 1_555
C9 C6 1_555 1_555
C10 C9 1_555 1_555
H8 C10 1_555 1_555
C11 C10 1_555 1_555
H9 C11 1_555 1_555
C12 C11 1_555 1_555
C13 C12 1_555 1_555
H10 C13 1_555 1_555
C14 C9 1_555 1_555
H11 C14 1_555 1_555
C15 C12 1_555 1_555
H12 C15 1_555 1_555
H13 C15 1_555 1_555
O1 C15 1_555 1_555
C16 O1 1_555 1_555
O2 C16 1_555 1_555
C17 C16 1_555 1_555
H14 C17 1_555 1_555
H15 C17 1_555 1_555
C18 C17 1_555 1_555
O3 C18 1_555 1_555
O4 C18 1_555 1_555
C19 O4 1_555 1_555
H16 C19 1_555 1_555
H17 C19 1_555 1_555
C20 C19 1_555 1_555
H18 C20 1_555 1_555
H19 C20 1_555 1_555
H20 C20 1_555 1_555
C1B H1B 1_555 1_555
H2B C1B 1_555 1_555
N1B C2 1_555 1_555
C3B C4 1_555 1_555
C4B C3 1_555 1_555
C5B C4B 1_555 1_555
H5B C5B 1_555 1_555
C6B C5B 1_555 1_555
C7B C8 1_555 1_555
H6B C7B 1_555 1_555
C8B C7 1_555 1_555
H7B C8B 1_555 1_555
C9B C6B 1_555 1_555
C10B C9B 1_555 1_555
H8B C10B 1_555 1_555
C11B C10B 1_555 1_555
H9B C11B 1_555 1_555
C12B C11B 1_555 1_555
C13B C12B 1_555 1_555
H10B C13B 1_555 1_555
C14B C9B 1_555 1_555
H11B C14B 1_555 1_555
C15B C12B 1_555 1_555
H12B C15B 1_555 1_555
H13B C15B 1_555 1_555
O1B C15B 1_555 1_555
C16B O1B 1_555 1_555
O2B C16B 1_555 1_555
C17B C16B 1_555 1_555
H14B C17B 1_555 1_555
H15B C17B 1_555 1_555
C18B C17B 1_555 1_555
O3B C18B 1_555 1_555
O4B C18B 1_555 1_555
C19B O4B 1_555 1_555
H16B C19B 1_555 1_555
H17B C19B 1_555 1_555
C20B C19B 1_555 1_555
H18B C20B 1_555 1_555
H19B C20B 1_555 1_555
H20B C20B 1_555 1_555
C13 C14 1_555 1_555
C1B N1B 1_555 1_555
C1B C4B 1_555 1_555
N1B C3B 1_555 1_555
C3B C8B 1_555 1_555
C6B C7B 1_555 1_555
C13B C14B 1_555 1_555

#END
