
#######################################################################
#
#                 Cambridge Crystallographic Data Centre
#                                CCDC 
#
#######################################################################
#
# If this CIF has been generated from an entry in the Cambridge 
# Structural Database, then it will include bibliographic, chemical, 
# crystal, experimental, refinement or atomic coordinate data resulting 
# from the CCDC's data processing and validation procedures.
#
#######################################################################

data_LAPFEN
_chemical_formula_moiety         'C29 H48 N4 O5'
_chemical_name_systematic        
2-Benzyloxycarbonyl-tris(D-\a-methylvalyl)-N-isopropylamide
_symmetry_cell_setting           monoclinic
_symmetry_space_group_name_H-M   'P 21'
_symmetry_Int_Tables_number      4
_space_group_name_Hall           'P 2yb'
loop_
_symmetry_equiv_pos_site_id
_symmetry_equiv_pos_as_xyz
1 x,y,z
2 -x,1/2+y,-z
_cell_length_a                   15.471(2)
_cell_length_b                   9.908(2)
_cell_length_c                   10.423(2)
_cell_angle_alpha                90
_cell_angle_beta                 101.2(1)
_cell_angle_gamma                90
_cell_volume                     1567.28
_chemical_melting_point          196-197deg.C
_cell_formula_units_Z            2
loop_
_atom_site_label
_atom_site_type_symbol
_atom_site_fract_x
_atom_site_fract_y
_atom_site_fract_z
O1 O -0.7828(7) -0.20693 -1.3108(8)
O2 O -0.7385(6) -0.260(1) -1.0980(8)
O3 O -0.6389(5) -0.583(1) -0.9637(6)
O4 O -0.8068(7) -0.611(1) -0.7634(8)
O5 O -0.6591(7) -0.416(1) -0.5188(7)
N1 N -0.7060(7) -0.394(1) -1.2605(8)
N2 N -0.7739(7) -0.546(1) -1.0885(9)
N3 N -0.7717(6) -0.419(1) -0.8508(8)
N4 N -0.6109(7) -0.489(1) -0.6965(8)
C1 C -0.9306(9) 0.167(1) -1.589(1)
C2 C -0.8414(9) 0.133(1) -1.563(1)
C3 C -0.8085(9) 0.045(1) -1.461(1)
C4 C -0.8647(9) -0.009(1) -1.384(1)
C5 C -0.9539(9) 0.026(1) -1.410(1)
C6 C -0.9868(9) 0.113(1) -1.513(1)
C7 C -0.830(1) -0.091(2) -1.268(2)
C8 C -0.743(1) -0.282(1) -1.215(1)
C9 C -0.6412(9) -0.477(1) -1.172(1)
C10 C -0.562(1) -0.397(2) -1.110(1)
C11 C -0.615(1) -0.595(2) -1.256(1)
C12 C -0.690(1) -0.680(2) -1.323(2)
C13 C -0.543(1) -0.686(2) -1.178(2)
C14 C -0.6882(9) -0.542(1) -1.0637(9)
C15 C -0.8236(9) -0.609(2) -0.997(1)
C16 C -0.808(1) -0.764(2) -0.981(1)
C17 C -0.919(1) -0.559(4) -1.050(2)
C18 C -0.948(2) -0.627(4) -1.168(4)
C19 C -0.977(3) -0.585(6) -0.970(4)
C20 C -0.7973(8) -0.544(2) -0.859(1)
C21 C -0.7414(7) -0.345(1) -0.727(1)
C22 C -0.821(1) -0.328(2) -0.658(1)
C23 C -0.7030(8) -0.207(1) -0.767(1)
C24 C -0.643(1) -0.133(2) -0.650(2)
C25 C -0.772(1) -0.113(2) -0.836(1)
C26 C -0.6684(8) -0.423(1) -0.641(1)
C27 C -0.5438(9) -0.576(2) -0.625(1)
C28 C -0.574(1) -0.721(2) -0.631(2)
C29 C -0.4636(8) -0.567(2) -0.685(1)
H1 H -0.72642 -0.42695 -1.36057
H2 H -0.81135 -0.50651 -1.17999
H3 H -0.77166 -0.36085 -0.94088
H4 H -0.61468 -0.47632 -0.80158
H5 H -0.95479 0.23630 -1.67420
H6 H -0.79801 0.16751 -1.62856
H7 H -0.74267 0.01108 -1.44593
H8 H -1.00088 -0.00770 -1.35459
H9 H -1.05622 0.14866 -1.53722
H10 H -0.88474 -0.12770 -1.22353
H11 H -0.78772 -0.02975 -1.19765
H12 H -0.57958 -0.30154 -1.09473
H13 H -0.51564 -0.40498 -1.17775
H14 H -0.52092 -0.42439 -1.02735
H15 H -0.56443 -0.57903 -1.30581
H16 H -0.72265 -0.73915 -1.25646
H17 H -0.67625 -0.74822 -1.39798
H18 H -0.56098 -0.68425 -1.08441
H19 H -0.48500 -0.60782 -1.16794
H20 H -0.73190 -0.61466 -1.36401
H21 H -0.49918 -0.75977 -1.15744
H23 H -0.80421 -0.78911 -1.07471
H24 H -0.73827 -0.75627 -0.91992
H25 H -0.91904 -0.45822 -1.06572
H26 H -0.90445 -0.62025 -1.23481
H27 H -1.01427 -0.58746 -1.22078
H28 H -0.96272 -0.71490 -1.17389
H29 H -0.95664 -0.54109 -0.86928
H30 H -0.98263 -0.69954 -0.94394
H31 H -1.04528 -0.55606 -1.00332
H32 H -0.80155 -0.27872 -0.56596
H33 H -0.84783 -0.42838 -0.64134
H34 H -0.87262 -0.27166 -0.72015
H35 H -0.66134 -0.24141 -0.83503
H36 H -0.59386 -0.19919 -0.60117
H37 H -0.68576 -0.10038 -0.58403
H38 H -0.61496 -0.04576 -0.68735
H39 H -0.81545 -0.16451 -0.92004
H40 H -0.74510 -0.02534 -0.87459
H41 H -0.81590 -0.07996 -0.77128
H42 H -0.51633 -0.57922 -0.52193
H43 H -0.62974 -0.72035 -0.57807
H44 H -0.52044 -0.77428 -0.57254
H45 H -0.59925 -0.80016 -0.69864
H46 H -0.46327 -0.66538 -0.73562
H47 H -0.40958 -0.56519 -0.60417
H48 H -0.43742 -0.50814 -0.75285
H22? H -0.83497 -0.91477 -0.91902
loop_
_geom_bond_atom_site_label_1
_geom_bond_atom_site_label_2
_geom_bond_site_symmetry_1
_geom_bond_site_symmetry_2
O1 C7 1_555 1_555
O2 C8 1_555 1_555
O3 C14 1_555 1_555
O4 C20 1_555 1_555
O5 C26 1_555 1_555
N1 C8 1_555 1_555
N2 C14 1_555 1_555
N3 C20 1_555 1_555
N4 C26 1_555 1_555
C1 C2 1_555 1_555
C2 C3 1_555 1_555
C3 C4 1_555 1_555
C4 C5 1_555 1_555
C5 C6 1_555 1_555
C6 C1 1_555 1_555
C7 C4 1_555 1_555
C8 O1 1_555 1_555
C9 N1 1_555 1_555
C10 C9 1_555 1_555
C11 C9 1_555 1_555
C12 C11 1_555 1_555
C13 C11 1_555 1_555
C14 C9 1_555 1_555
C15 N2 1_555 1_555
C16 C15 1_555 1_555
C17 C15 1_555 1_555
C18 C17 1_555 1_555
C19 C17 1_555 1_555
C20 C15 1_555 1_555
C21 N3 1_555 1_555
C22 C21 1_555 1_555
C23 C21 1_555 1_555
C24 C23 1_555 1_555
C25 C23 1_555 1_555
C26 C21 1_555 1_555
C27 N4 1_555 1_555
C28 C27 1_555 1_555
C29 C27 1_555 1_555
H1 N1 1_555 1_555
H2 N2 1_555 1_555
H3 N3 1_555 1_555
H4 N4 1_555 1_555
H5 C1 1_555 1_555
H6 C2 1_555 1_555
H7 C3 1_555 1_555
H8 C5 1_555 1_555
H9 C6 1_555 1_555
H10 C7 1_555 1_555
H11 C7 1_555 1_555
H12 C10 1_555 1_555
H13 C10 1_555 1_555
H14 C10 1_555 1_555
H15 C11 1_555 1_555
H16 C12 1_555 1_555
H17 C12 1_555 1_555
H18 C13 1_555 1_555
H19 C13 1_555 1_555
H20 C12 1_555 1_555
H21 C13 1_555 1_555
H23 C16 1_555 1_555
H24 C16 1_555 1_555
H25 C17 1_555 1_555
H26 C18 1_555 1_555
H27 C18 1_555 1_555
H28 C18 1_555 1_555
H29 C19 1_555 1_555
H30 C19 1_555 1_555
H31 C19 1_555 1_555
H32 C22 1_555 1_555
H33 C22 1_555 1_555
H34 C22 1_555 1_555
H35 C23 1_555 1_555
H36 C24 1_555 1_555
H37 C24 1_555 1_555
H38 C24 1_555 1_555
H39 C25 1_555 1_555
H40 C25 1_555 1_555
H41 C25 1_555 1_555
H42 C27 1_555 1_555
H43 C28 1_555 1_555
H44 C28 1_555 1_555
H45 C28 1_555 1_555
H46 C29 1_555 1_555
H47 C29 1_555 1_555
H48 C29 1_555 1_555

#END
