
#######################################################################
#
#                 Cambridge Crystallographic Data Centre
#                                CCDC 
#
#######################################################################
#
# If this CIF has been generated from an entry in the Cambridge 
# Structural Database, then it will include bibliographic, chemical, 
# crystal, experimental, refinement or atomic coordinate data resulting 
# from the CCDC's data processing and validation procedures.
#
#######################################################################

data_LAPGOZ01
_chemical_formula_moiety         'C20 H22 O4'
_chemical_name_systematic        
3,14-dimethyl-6-(prop-1-en-2-yl)-11,17-dioxapentacyclo[7.6.1.1^1,5^.0^5,9^.0^12,16^]heptadeca-2,14-diene-4,10-dione
_symmetry_cell_setting           monoclinic
_symmetry_space_group_name_H-M   'P 21'
_symmetry_Int_Tables_number      4
_space_group_name_Hall           'P 2yb'
loop_
_symmetry_equiv_pos_site_id
_symmetry_equiv_pos_as_xyz
1 x,y,z
2 -x,1/2+y,-z
_cell_length_a                   7.1044(7)
_cell_length_b                   12.620(1)
_cell_length_c                   9.4568(9)
_cell_angle_alpha                90
_cell_angle_beta                 105.523(2)
_cell_angle_gamma                90
_cell_volume                     816.946
_exptl_crystal_colour            colorless
_exptl_crystal_description       blocky
_cell_formula_units_Z            2
loop_
_atom_site_label
_atom_site_type_symbol
_atom_site_fract_x
_atom_site_fract_y
_atom_site_fract_z
O1 O 0.2856(3) 0.4412 0.0814(2)
O2 O 0.2782(3) 0.1726(2) 0.0349(2)
O3 O -0.1768(3) 0.2596(2) -0.3057(2)
O4 O -0.1539(3) 0.4085(3) -0.1727(2)
C1 C 0.2562(4) 0.3591(3) 0.0112(3)
C2 C 0.2981(4) 0.3459(3) -0.1324(3)
C3 C 0.2572(4) 0.2513(3) -0.1979(3)
C4 C 0.2029(4) 0.1541(3) -0.1209(3)
C5 C 0.2582(4) 0.0560(3) -0.1877(3)
C6 C 0.1379(5) 0.0284(3) -0.3173(3)
C7 C -0.0413(5) 0.0950(3) -0.3888(3)
C8 C -0.1420(4) 0.1455(3) -0.2798(3)
C9 C -0.0142(4) 0.1414(3) -0.1257(3)
C10 C -0.0519(4) 0.2392(3) -0.0477(3)
C11 C -0.1858(4) 0.2281(3) 0.0552(3)
C12 C -0.0457(4) 0.1935(3) 0.2005(3)
C13 C 0.1314(4) 0.2663(3) 0.2123(3)
C14 C 0.1608(4) 0.2623(3) 0.0580(3)
C15 C 0.3667(4) 0.4408(3) -0.1991(3)
C16 C 0.1722(6) -0.0658(3) -0.4048(4)
C17 C -0.1302(4) 0.3144(3) -0.1757(3)
C18 C 0.3085(4) 0.2458(3) 0.3395(3)
C19 C 0.3922(6) 0.1358(4) 0.3617(4)
C20 C 0.3837(5) 0.3228(3) 0.4317(4)
H1 H 0.2622 0.2443 -0.2969
H2 H 0.3709 0.0158 -0.1416
H3 H -0.0021 0.1503 -0.4429
H4 H -0.1335 0.0509 -0.4538
H5 H -0.2620 0.1104 -0.2855
H6 H -0.0364 0.0789 -0.0765
H7 H -0.2458 0.2939 0.0658
H8 H -0.2838 0.1761 0.0198
H9 H -0.1014 0.2045 0.2801
H10 H -0.0106 0.1210 0.1974
H11 H 0.0889 0.3361 0.2252
H12 H 0.4958 0.4583 -0.1446
H13 H 0.3655 0.4256 -0.2977
H14 H 0.2824 0.4990 -0.1974
H15 H 0.0593 -0.1096 -0.4277
H16 H 0.1981 -0.0422 -0.4931
H17 H 0.2808 -0.1051 -0.3490
H18 H 0.4895 0.1324 0.4527
H19 H 0.2912 0.0866 0.3622
H20 H 0.4489 0.1189 0.2842
H21 H 0.4921 0.3091 0.5134
H22 H 0.3293 0.3920 0.4163
loop_
_geom_bond_atom_site_label_1
_geom_bond_atom_site_label_2
_geom_bond_site_symmetry_1
_geom_bond_site_symmetry_2
O1 C1 1_555 1_555
O2 C4 1_555 1_555
O3 C8 1_555 1_555
O4 C17 1_555 1_555
C1 C2 1_555 1_555
C2 C3 1_555 1_555
C3 C4 1_555 1_555
C4 C5 1_555 1_555
C5 C6 1_555 1_555
C6 C7 1_555 1_555
C7 C8 1_555 1_555
C8 C9 1_555 1_555
C9 C4 1_555 1_555
C10 C9 1_555 1_555
C11 C10 1_555 1_555
C12 C11 1_555 1_555
C13 C12 1_555 1_555
C14 O2 1_555 1_555
C15 C2 1_555 1_555
C16 C6 1_555 1_555
C17 O3 1_555 1_555
C18 C13 1_555 1_555
C19 C18 1_555 1_555
C20 C18 1_555 1_555
H1 C3 1_555 1_555
H2 C5 1_555 1_555
H3 C7 1_555 1_555
H4 C7 1_555 1_555
H5 C8 1_555 1_555
H6 C9 1_555 1_555
H7 C11 1_555 1_555
H8 C11 1_555 1_555
H9 C12 1_555 1_555
H10 C12 1_555 1_555
H11 C13 1_555 1_555
H12 C15 1_555 1_555
H13 C15 1_555 1_555
H14 C15 1_555 1_555
H15 C16 1_555 1_555
H16 C16 1_555 1_555
H17 C16 1_555 1_555
H18 C19 1_555 1_555
H19 C19 1_555 1_555
H20 C19 1_555 1_555
H21 C20 1_555 1_555
H22 C20 1_555 1_555
C1 C14 1_555 1_555
C10 C14 1_555 1_555
C10 C17 1_555 1_555
C13 C14 1_555 1_555

#END
