
#######################################################################
#
#                 Cambridge Crystallographic Data Centre
#                                CCDC 
#
#######################################################################
#
# If this CIF has been generated from an entry in the Cambridge 
# Structural Database, then it will include bibliographic, chemical, 
# crystal, experimental, refinement or atomic coordinate data resulting 
# from the CCDC's data processing and validation procedures.
#
#######################################################################

data_LAPGIU
_chemical_formula_moiety         'C28 H30 Br2 O6,C1 H2 Cl2'
_chemical_name_systematic        
'6,7-bis(Bromomethyl)-2,11,18,21,24,27-hexaoxatetracyclo[26.4.0.0^4,9^.0^12,17^]dotriaconta-1(28),4,6,8,12(17),13,15,29,31-nonaene dichloromethane solvate'
_symmetry_cell_setting           triclinic
_symmetry_space_group_name_H-M   'P -1'
_symmetry_Int_Tables_number      2
_space_group_name_Hall           '-P 1'
loop_
_symmetry_equiv_pos_site_id
_symmetry_equiv_pos_as_xyz
1 x,y,z
2 -x,-y,-z
_cell_length_a                   9.133(3)
_cell_length_b                   12.191(4)
_cell_length_c                   15.038(6)
_cell_angle_alpha                66.116(7)
_cell_angle_beta                 85.263(9)
_cell_angle_gamma                77.080(6)
_cell_volume                     1492.14
_exptl_crystal_colour            colorless
_exptl_crystal_description       block
_chemical_melting_point          '373 K'
_cell_formula_units_Z            2
_exptl_crystal_recrystallization_method dichloromethane/hexane
loop_
_atom_site_label
_atom_site_type_symbol
_atom_site_fract_x
_atom_site_fract_y
_atom_site_fract_z
Br1 Br -0.19294(12) 1.08922(9) 0.11382(8)
Br2 Br -0.07519(10) 0.64380(8) 0.27325(7)
O1 O 0.4952(5) 0.8625(4) 0.3957(3)
O2 O 0.6891(5) 0.6718(4) 0.4961(3)
O3 O 0.7455(6) 0.4547(4) 0.4600(3)
O4 O 0.8421(6) 0.3167(4) 0.3362(4)
O5 O 0.7269(5) 0.5068(4) 0.1510(4)
O6 O 0.5641(5) 0.6725(4) 0.2045(4)
C1 C -0.1111(8) 0.9652(8) 0.2398(6)
H1 H -0.1290 1.0022 0.2885
H2 H -0.1654 0.8971 0.2612
C2 C 0.0548(7) 0.9141(6) 0.2369(5)
C3 C 0.1536(8) 0.9547(6) 0.2733(5)
H3 H 0.1156 1.0179 0.2959
C4 C 0.3080(7) 0.9074(6) 0.2788(5)
C5 C 0.4108(7) 0.9594(6) 0.3164(5)
H4 H 0.4793 0.9982 0.2643
H5 H 0.3515 1.0226 0.3380
C6 C 0.6127(8) 0.8848(6) 0.4308(5)
C7 C 0.6316(8) 1.0009(6) 0.4179(5)
H6 H 0.5604 1.0721 0.3809
C8 C 0.7548(8) 1.0117(6) 0.4594(5)
H7 H 0.7679 1.0906 0.4506
C9 C 0.8566(8) 0.9105(7) 0.5124(5)
H8 H 0.9402 0.9196 0.5404
C10 C 0.8415(8) 0.7938(7) 0.5267(5)
H9 H 0.9143 0.7237 0.5634
C11 C 0.7193(7) 0.7816(6) 0.4866(5)
C12 C 0.7963(8) 0.5648(6) 0.5493(5)
H10 H 0.8080 0.5596 0.6159
H11 H 0.8951 0.5675 0.5169
C13 C 0.7415(8) 0.4562(6) 0.5536(5)
H12 H 0.8057 0.3799 0.5988
H13 H 0.6374 0.4599 0.5783
C14 C 0.6927(8) 0.3521(6) 0.4625(5)
H14 H 0.5897 0.3542 0.4890
H15 H 0.7586 0.2751 0.5054
C15 C 0.6924(8) 0.3555(6) 0.3627(5)
H16 H 0.6288 0.3007 0.3604
H17 H 0.6502 0.4399 0.3163
C16 C 0.8545(9) 0.3047(6) 0.2475(6)
H18 H 0.7658 0.2760 0.2386
H19 H 0.9445 0.2408 0.2499
C17 C 0.8662(8) 0.4209(7) 0.1606(6)
H20 H 0.9499 0.4547 0.1700
H21 H 0.8856 0.4039 0.1012
C18 C 0.7255(7) 0.6274(6) 0.0888(5)
C19 C 0.8058(10) 0.6615(7) 0.0047(6)
H22 H 0.8681 0.6009 -0.0140
C20 C 0.7959(10) 0.7854(7) -0.0535(6)
H23 H 0.8514 0.8094 -0.1121
C21 C 0.7059(9) 0.8734(7) -0.0264(6)
H24 H 0.7012 0.9579 -0.0655
C22 C 0.6228(8) 0.8392(6) 0.0573(6)
H25 H 0.5567 0.9002 0.0737
C23 C 0.6348(8) 0.7163(6) 0.1179(5)
C24 C 0.5265(7) 0.7510(6) 0.2567(5)
H26 H 0.5892 0.8137 0.2327
H27 H 0.5502 0.7016 0.3266
C25 C 0.3637(7) 0.8142(6) 0.2457(5)
C26 C 0.2625(8) 0.7756(6) 0.2077(5)
H28 H 0.3005 0.7137 0.1838
C27 C 0.1104(8) 0.8208(6) 0.2023(5)
C28 C 0.0080(9) 0.7699(7) 0.1649(6)
H29 H 0.0638 0.7333 0.1208
H30 H -0.0750 0.8367 0.1272
C29 C 0.4177(12) 0.4097(10) 0.1362(8)
H31 H 0.4380 0.3623 0.0948
H32 H 0.5156 0.4160 0.1553
Cl1 Cl 0.3250(4) 0.3302(3) 0.2405(2)
Cl2 Cl 0.3166(4) 0.5569(3) 0.0682(2)
loop_
_geom_bond_atom_site_label_1
_geom_bond_atom_site_label_2
_geom_bond_site_symmetry_1
_geom_bond_site_symmetry_2
Br1 C1 1_555 1_555
Br2 C28 1_555 1_555
O1 C5 1_555 1_555
O2 C11 1_555 1_555
O3 C13 1_555 1_555
O4 C15 1_555 1_555
O5 C17 1_555 1_555
O6 C23 1_555 1_555
C1 H1 1_555 1_555
H2 C1 1_555 1_555
C2 C1 1_555 1_555
C3 C2 1_555 1_555
H3 C3 1_555 1_555
C4 C3 1_555 1_555
C5 C4 1_555 1_555
H4 C5 1_555 1_555
H5 C5 1_555 1_555
C6 O1 1_555 1_555
C7 C6 1_555 1_555
H6 C7 1_555 1_555
C8 C7 1_555 1_555
H7 C8 1_555 1_555
C9 C8 1_555 1_555
H8 C9 1_555 1_555
C10 C9 1_555 1_555
H9 C10 1_555 1_555
C11 C6 1_555 1_555
C12 O2 1_555 1_555
H10 C12 1_555 1_555
H11 C12 1_555 1_555
C13 C12 1_555 1_555
H12 C13 1_555 1_555
H13 C13 1_555 1_555
C14 O3 1_555 1_555
H14 C14 1_555 1_555
H15 C14 1_555 1_555
C15 C14 1_555 1_555
H16 C15 1_555 1_555
H17 C15 1_555 1_555
C16 O4 1_555 1_555
H18 C16 1_555 1_555
H19 C16 1_555 1_555
C17 C16 1_555 1_555
H20 C17 1_555 1_555
H21 C17 1_555 1_555
C18 O5 1_555 1_555
C19 C18 1_555 1_555
H22 C19 1_555 1_555
C20 C19 1_555 1_555
H23 C20 1_555 1_555
C21 C20 1_555 1_555
H24 C21 1_555 1_555
C22 C21 1_555 1_555
H25 C22 1_555 1_555
C23 C18 1_555 1_555
C24 O6 1_555 1_555
H26 C24 1_555 1_555
H27 C24 1_555 1_555
C25 C4 1_555 1_555
C26 C25 1_555 1_555
H28 C26 1_555 1_555
C27 C2 1_555 1_555
C28 C27 1_555 1_555
H29 C28 1_555 1_555
H30 C28 1_555 1_555
C29 H31 1_555 1_555
H32 C29 1_555 1_555
Cl1 C29 1_555 1_555
Cl2 C29 1_555 1_555
C10 C11 1_555 1_555
C22 C23 1_555 1_555
C24 C25 1_555 1_555
C26 C27 1_555 1_555

#END
