
#######################################################################
#
#                 Cambridge Crystallographic Data Centre
#                                CCDC 
#
#######################################################################
#
# If this CIF has been generated from an entry in the Cambridge 
# Structural Database, then it will include bibliographic, chemical, 
# crystal, experimental, refinement or atomic coordinate data resulting 
# from the CCDC's data processing and validation procedures.
#
#######################################################################

data_LAPGUG
_chemical_formula_moiety         'C6 H7 N1 O2'
_chemical_name_systematic        2-(Hydroxymethyl)pyridin-3-ol
_symmetry_cell_setting           monoclinic
_symmetry_space_group_name_H-M   'P 21/n'
_symmetry_Int_Tables_number      14
_space_group_name_Hall           '-P 2yn'
loop_
_symmetry_equiv_pos_site_id
_symmetry_equiv_pos_as_xyz
1 x,y,z
2 1/2-x,1/2+y,1/2-z
3 -x,-y,-z
4 1/2+x,1/2-y,1/2+z
_cell_length_a                   7.0430(14)
_cell_length_b                   7.1280(14)
_cell_length_c                   12.264(3)
_cell_angle_alpha                90
_cell_angle_beta                 100.30(3)
_cell_angle_gamma                90
_cell_volume                     605.762
_exptl_crystal_colour            colorless
_exptl_crystal_description       block
_cell_formula_units_Z            4
loop_
_atom_site_label
_atom_site_type_symbol
_atom_site_fract_x
_atom_site_fract_y
_atom_site_fract_z
N1 N 0.59730(19) 0.28061(17) 0.05259(10)
O1 O 0.21831(16) 0.3738(2) 0.20521(9)
H1 H 0.2217 0.4225 0.2661
C1 C 0.7372(2) 0.3911(2) 0.10511(13)
H2 H 0.8548 0.3932 0.0807
O2 O 0.27768(19) -0.02901(16) 0.08581(9)
H3 H 0.3277 -0.1099 0.0527
C2 C 0.7152(2) 0.5019(2) 0.19373(13)
H4 H 0.8160 0.5772 0.2284
C3 C 0.5409(2) 0.4995(2) 0.23031(13)
H5 H 0.5223 0.5731 0.2901
C4 C 0.3939(2) 0.3855(2) 0.17644(12)
C5 C 0.4270(2) 0.2764(2) 0.08702(11)
C6 C 0.2761(2) 0.1456(2) 0.02825(13)
H6 H 0.1500 0.2034 0.0225
H7 H 0.2994 0.1228 -0.0462
loop_
_geom_bond_atom_site_label_1
_geom_bond_atom_site_label_2
_geom_bond_site_symmetry_1
_geom_bond_site_symmetry_2
N1 C1 1_555 1_555
O1 H1 1_555 1_555
C1 H2 1_555 1_555
O2 H3 1_555 1_555
C2 C1 1_555 1_555
H4 C2 1_555 1_555
C3 C2 1_555 1_555
H5 C3 1_555 1_555
C4 O1 1_555 1_555
C5 N1 1_555 1_555
C6 O2 1_555 1_555
H6 C6 1_555 1_555
H7 C6 1_555 1_555
C3 C4 1_555 1_555
C4 C5 1_555 1_555
C5 C6 1_555 1_555

#END
