
#######################################################################
#
#                 Cambridge Crystallographic Data Centre
#                                CCDC 
#
#######################################################################
#
# If this CIF has been generated from an entry in the Cambridge 
# Structural Database, then it will include bibliographic, chemical, 
# crystal, experimental, refinement or atomic coordinate data resulting 
# from the CCDC's data processing and validation procedures.
#
#######################################################################

data_LAPMAS
_chemical_formula_moiety         'C11 H16 N2 O4 S1'
_chemical_name_systematic        
'Ethyl 2-[(t-butoxycarbonyl)amino]thiazole-5-carboxylate'
_symmetry_cell_setting           monoclinic
_symmetry_space_group_name_H-M   'P 21/c'
_symmetry_Int_Tables_number      14
_space_group_name_Hall           '-P 2ybc'
loop_
_symmetry_equiv_pos_site_id
_symmetry_equiv_pos_as_xyz
1 x,y,z
2 -x,1/2+y,1/2-z
3 -x,-y,-z
4 x,1/2-y,1/2+z
_cell_length_a                   5.8258(12)
_cell_length_b                   9.4916(19)
_cell_length_c                   24.350(5)
_cell_angle_alpha                90
_cell_angle_beta                 92.37(3)
_cell_angle_gamma                90
_cell_volume                     1345.31
_exptl_crystal_colour            colorless
_exptl_crystal_description       block
_cell_formula_units_Z            4
loop_
_atom_site_label
_atom_site_type_symbol
_atom_site_fract_x
_atom_site_fract_y
_atom_site_fract_z
S1 S 0.48801(9) 0.74851(5) 0.499500(19)
O1 O 0.4912(3) 0.86694(18) 0.65493(6)
O2 O 0.2511(3) 0.91136(16) 0.58203(6)
O3 O 0.5169(3) 0.68642(17) 0.39011(6)
O4 O 0.7506(3) 0.51367(14) 0.35826(6)
N1 N 0.8382(3) 0.60995(19) 0.54014(7)
N2 N 0.7723(3) 0.5693(2) 0.44654(7)
C1 C 0.7172(4) 0.6345(2) 0.49427(9)
C2 C 0.7472(4) 0.6836(2) 0.58220(9)
H1 H 0.8121 0.6796 0.6186
C3 C 0.5600(4) 0.7625(2) 0.56921(8)
C4 C 0.4342(4) 0.8514(2) 0.60725(9)
C5 C 0.1173(5) 1.0034(3) 0.61617(11)
H2 H 0.2188 1.0727 0.6355
H3 H 0.0377 0.9476 0.6440
C6 C -0.0552(4) 1.0780(3) 0.57876(11)
H4 H 0.0257 1.1341 0.5518
H5 H -0.1502 1.1402 0.6005
H6 H -0.1532 1.0084 0.5595
C7 C 0.6642(4) 0.5978(2) 0.39667(9)
C8 C 0.6805(4) 0.5341(2) 0.29934(8)
C9 C 0.4230(4) 0.5149(2) 0.29012(10)
H7 H 0.3779 0.4226 0.3042
H8 H 0.3828 0.5204 0.2507
H9 H 0.3423 0.5892 0.3095
C10 C 0.7627(4) 0.6774(2) 0.28086(10)
H10 H 0.6756 0.7513 0.2989
H11 H 0.7391 0.6857 0.2409
H12 H 0.9265 0.6879 0.2909
C11 C 0.8063(4) 0.4163(2) 0.27124(9)
H13 H 0.9718 0.4255 0.2793
H14 H 0.7752 0.4220 0.2314
H15 H 0.7531 0.3252 0.2848
H16 H 0.881(5) 0.512(3) 0.4476(13)
loop_
_geom_bond_atom_site_label_1
_geom_bond_atom_site_label_2
_geom_bond_site_symmetry_1
_geom_bond_site_symmetry_2
S1 C1 1_555 1_555
O1 C4 1_555 1_555
O2 C4 1_555 1_555
O3 C7 1_555 1_555
O4 C7 1_555 1_555
N1 C1 1_555 1_555
N2 C1 1_555 1_555
C2 N1 1_555 1_555
H1 C2 1_555 1_555
C3 S1 1_555 1_555
C4 C3 1_555 1_555
C5 O2 1_555 1_555
H2 C5 1_555 1_555
H3 C5 1_555 1_555
C6 C5 1_555 1_555
H4 C6 1_555 1_555
H5 C6 1_555 1_555
H6 C6 1_555 1_555
C7 N2 1_555 1_555
C8 O4 1_555 1_555
C9 C8 1_555 1_555
H7 C9 1_555 1_555
H8 C9 1_555 1_555
H9 C9 1_555 1_555
C10 C8 1_555 1_555
H10 C10 1_555 1_555
H11 C10 1_555 1_555
H12 C10 1_555 1_555
C11 C8 1_555 1_555
H13 C11 1_555 1_555
H14 C11 1_555 1_555
H15 C11 1_555 1_555
H16 N2 1_555 1_555
C2 C3 1_555 1_555

#END
