
#######################################################################
#
#                 Cambridge Crystallographic Data Centre
#                                CCDC 
#
#######################################################################
#
# If this CIF has been generated from an entry in the Cambridge 
# Structural Database, then it will include bibliographic, chemical, 
# crystal, experimental, refinement or atomic coordinate data resulting 
# from the CCDC's data processing and validation procedures.
#
#######################################################################

data_LAPPOJ
_chemical_formula_moiety         'C20 H16 Cl1 N3 S1'
_chemical_name_systematic        
1-(2-((4-Chlorobenzylidene)amino)phenyl)-3-phenylthiourea
_symmetry_cell_setting           monoclinic
_symmetry_space_group_name_H-M   'P 21/n'
_symmetry_Int_Tables_number      14
_space_group_name_Hall           '-P 2yn'
loop_
_symmetry_equiv_pos_site_id
_symmetry_equiv_pos_as_xyz
1 x,y,z
2 1/2-x,1/2+y,1/2-z
3 -x,-y,-z
4 1/2+x,1/2-y,1/2+z
_cell_length_a                   9.410(3)
_cell_length_b                   23.079(3)
_cell_length_c                   16.807(2)
_cell_angle_alpha                90
_cell_angle_beta                 100.226(2)
_cell_angle_gamma                90
_cell_volume                     3592.05
_exptl_crystal_colour            yellow
_exptl_crystal_description       block
_cell_formula_units_Z            8
_exptl_crystal_recrystallization_method methanol
loop_
_atom_site_label
_atom_site_type_symbol
_atom_site_fract_x
_atom_site_fract_y
_atom_site_fract_z
Cl1 Cl 0.63112(12) 0.39717(5) -0.02622(6)
N1 N 0.2757(2) 0.37248(10) 0.28692(14)
N2 N 0.1379(3) 0.28279(10) 0.32759(15)
N3 N 0.1149(3) 0.19376(10) 0.27030(15)
S1 S -0.09328(8) 0.21834(4) 0.34837(5)
C1 C 0.4126(3) 0.40775(12) 0.18976(17)
C2 C 0.4179(3) 0.35595(13) 0.14910(18)
H1 H 0.3767 0.3230 0.1673
C3 C 0.4832(3) 0.35242(14) 0.08212(19)
H2 H 0.4857 0.3174 0.0549
C4 C 0.5446(3) 0.40117(15) 0.05601(18)
C5 C 0.5406(3) 0.45284(14) 0.09521(19)
H3 H 0.5830 0.4856 0.0772
C6 C 0.4738(3) 0.45629(13) 0.16128(18)
H4 H 0.4697 0.4917 0.1872
C7 C 0.3428(3) 0.41324(12) 0.25979(17)
H5 H 0.3477 0.4488 0.2862
C8 C 0.2020(3) 0.38065(13) 0.35255(17)
C9 C 0.1256(3) 0.33273(12) 0.37331(17)
C10 C 0.0506(3) 0.33636(14) 0.43690(19)
H6 H 0.0021 0.3042 0.4519
C11 C 0.0481(4) 0.38780(16) 0.4776(2)
H7 H -0.0041 0.3904 0.5196
C12 C 0.1207(4) 0.43513(16) 0.4576(2)
H8 H 0.1178 0.4697 0.4856
C13 C 0.1980(3) 0.43156(14) 0.3960(2)
H9 H 0.2487 0.4638 0.3831
C14 C 0.0607(3) 0.23353(12) 0.31572(16)
C15 C 0.2432(3) 0.19785(11) 0.23773(18)
C16 C 0.3757(3) 0.20611(12) 0.2862(2)
H10 H 0.3822 0.2106 0.3417
C17 C 0.4981(3) 0.20764(13) 0.2527(2)
H11 H 0.5875 0.2136 0.2854
C18 C 0.4892(4) 0.20044(13) 0.1708(2)
H12 H 0.5725 0.2014 0.1482
C19 C 0.3582(4) 0.19191(14) 0.1227(2)
H13 H 0.3525 0.1867 0.0673
C20 C 0.2348(3) 0.19091(13) 0.15560(18)
H14 H 0.1455 0.1856 0.1225
H29 H 0.056(3) 0.1640(10) 0.2513(18)
H31 H 0.206(3) 0.2887(14) 0.2977(16)
Cl2 Cl 0.63346(9) 0.20059(4) 0.47794(5)
N4 N 0.2947(2) 0.10566(9) 0.77336(13)
N5 N 0.2405(3) -0.00077(10) 0.81666(14)
N6 N 0.2450(3) -0.08378(10) 0.74386(17)
S2 S 0.03254(10) -0.07857(4) 0.82505(5)
C21 C 0.5270(3) 0.18491(13) 0.54944(16)
C22 C 0.5486(3) 0.13397(13) 0.59180(17)
H15 H 0.6169 0.1074 0.5808
C23 C 0.4681(3) 0.12249(12) 0.65079(16)
H16 H 0.4824 0.0880 0.6798
C24 C 0.3664(3) 0.16162(12) 0.66733(16)
C25 C 0.3474(3) 0.21226(13) 0.62326(19)
H17 H 0.2795 0.2391 0.6340
C26 C 0.4263(3) 0.22396(14) 0.56382(19)
H18 H 0.4112 0.2580 0.5339
C27 C 0.2832(3) 0.15137(12) 0.73111(16)
H19 H 0.2186 0.1797 0.7413
C28 C 0.2163(3) 0.10037(11) 0.83720(16)
C29 C 0.1911(3) 0.04411(11) 0.86153(16)
C30 C 0.1266(3) 0.03522(13) 0.92816(17)
H20 H 0.1132 -0.0022 0.9458
C31 C 0.0822(3) 0.08202(14) 0.96840(18)
H21 H 0.0378 0.0760 1.0129
C32 C 0.1031(3) 0.13720(14) 0.94326(18)
H22 H 0.0704 0.1685 0.9699
C33 C 0.1717(3) 0.14676(12) 0.87925(17)
H23 H 0.1885 0.1845 0.8638
C34 C 0.1802(3) -0.05245(12) 0.79539(17)
C35 C 0.3686(4) -0.06772(12) 0.7116(2)
C36 C 0.4987(4) -0.05871(14) 0.7615(3)
H24 H 0.5053 -0.0612 0.8173
C37 C 0.6190(4) -0.04602(17) 0.7293(4)
H25 H 0.7072 -0.0399 0.7630
C38 C 0.6087(6) -0.0425(2) 0.6481(4)
H26 H 0.6904 -0.0338 0.6264
C39 C 0.4806(7) -0.0514(2) 0.5980(3)
H27 H 0.4747 -0.0489 0.5423
C40 C 0.3587(4) -0.06431(15) 0.6302(2)
H28 H 0.2706 -0.0706 0.5963
H30 H 0.306(3) 0.0129(13) 0.7888(17)
H32 H 0.196(3) -0.1152(9) 0.7242(18)
loop_
_geom_bond_atom_site_label_1
_geom_bond_atom_site_label_2
_geom_bond_site_symmetry_1
_geom_bond_site_symmetry_2
Cl1 C4 1_555 1_555
Cl2 C21 1_555 1_555
N1 C7 1_555 1_555
N2 C9 1_555 1_555
N3 C14 1_555 1_555
N4 C27 1_555 1_555
N5 C29 1_555 1_555
N6 C34 1_555 1_555
S1 C14 1_555 1_555
S2 C34 1_555 1_555
C1 C2 1_555 1_555
C2 H1 1_555 1_555
C3 C2 1_555 1_555
H2 C3 1_555 1_555
C4 C3 1_555 1_555
C5 C4 1_555 1_555
H3 C5 1_555 1_555
C6 C1 1_555 1_555
H4 C6 1_555 1_555
C7 C1 1_555 1_555
H5 C7 1_555 1_555
C8 N1 1_555 1_555
C9 C8 1_555 1_555
C10 C9 1_555 1_555
H6 C10 1_555 1_555
C11 C10 1_555 1_555
H7 C11 1_555 1_555
C12 C11 1_555 1_555
H8 C12 1_555 1_555
C13 C8 1_555 1_555
H9 C13 1_555 1_555
C14 N2 1_555 1_555
C15 N3 1_555 1_555
C16 C15 1_555 1_555
H10 C16 1_555 1_555
C17 C16 1_555 1_555
H11 C17 1_555 1_555
C18 C17 1_555 1_555
H12 C18 1_555 1_555
C19 C18 1_555 1_555
H13 C19 1_555 1_555
C20 C15 1_555 1_555
H14 C20 1_555 1_555
C21 C22 1_555 1_555
C22 H15 1_555 1_555
C23 C22 1_555 1_555
H16 C23 1_555 1_555
C24 C23 1_555 1_555
C25 C24 1_555 1_555
H17 C25 1_555 1_555
C26 C21 1_555 1_555
H18 C26 1_555 1_555
C27 C24 1_555 1_555
H19 C27 1_555 1_555
C28 N4 1_555 1_555
C29 C28 1_555 1_555
C30 C29 1_555 1_555
H20 C30 1_555 1_555
C31 C30 1_555 1_555
H21 C31 1_555 1_555
C32 C31 1_555 1_555
H22 C32 1_555 1_555
C33 C28 1_555 1_555
H23 C33 1_555 1_555
C34 N5 1_555 1_555
C35 N6 1_555 1_555
C36 C35 1_555 1_555
H24 C36 1_555 1_555
C37 C36 1_555 1_555
H25 C37 1_555 1_555
C38 C37 1_555 1_555
H26 C38 1_555 1_555
C39 C38 1_555 1_555
H27 C39 1_555 1_555
C40 C35 1_555 1_555
H28 C40 1_555 1_555
H29 N3 1_555 1_555
H30 N5 1_555 1_555
H31 N2 1_555 1_555
H32 N6 1_555 1_555
C5 C6 1_555 1_555
C12 C13 1_555 1_555
C19 C20 1_555 1_555
C25 C26 1_555 1_555
C32 C33 1_555 1_555
C39 C40 1_555 1_555

#END
