
#######################################################################
#
#                 Cambridge Crystallographic Data Centre
#                                CCDC 
#
#######################################################################
#
# If this CIF has been generated from an entry in the Cambridge 
# Structural Database, then it will include bibliographic, chemical, 
# crystal, experimental, refinement or atomic coordinate data resulting 
# from the CCDC's data processing and validation procedures.
#
#######################################################################

data_LAPSUT
_chemical_formula_moiety         'C25 H22 F12 N2 O1'
_chemical_name_systematic        
4,4-dimethyl-2-(2,2,3,3,4,4,5,5,5-nonafluoropentyl)-2-phenyl-N-(3-(trifluoromethyl)phenyl)pyrrolidine-1-carboxamide
_symmetry_cell_setting           hexagonal
_symmetry_space_group_name_H-M   'P 65'
_symmetry_Int_Tables_number      170
_space_group_name_Hall           'P 65'
loop_
_symmetry_equiv_pos_site_id
_symmetry_equiv_pos_as_xyz
1 x,y,z
2 x-y,x,5/6+z
3 -y,x-y,2/3+z
4 -x,-y,1/2+z
5 -x+y,-x,1/3+z
6 y,-x+y,1/6+z
_cell_length_a                   14.0367(7)
_cell_length_b                   14.0367(7)
_cell_length_c                   23.0011(12)
_cell_angle_alpha                90
_cell_angle_beta                 90
_cell_angle_gamma                120
_cell_volume                     3924.73
_exptl_crystal_colour            colorless
_exptl_crystal_description       prism
_cell_formula_units_Z            6
loop_
_atom_site_label
_atom_site_type_symbol
_atom_site_fract_x
_atom_site_fract_y
_atom_site_fract_z
F1 F 0.85196(17) 0.3303(2) -0.09092(10)
F2 F 0.9249(3) 0.23767(19) -0.05742(13)
F3 F 1.0391(2) 0.52074(19) -0.04814(11)
F4 F 1.1081(2) 0.4159(3) -0.03221(12)
F5 F 1.0168(2) 0.4801(2) -0.15797(11)
F6 F 1.1776(2) 0.5236(3) -0.12844(14)
F7 F 0.9658(2) 0.2714(2) -0.17329(13)
F8 F 1.1181(3) 0.3050(4) -0.13260(16)
F9 F 1.1184(2) 0.3835(3) -0.21298(12)
F10 F 0.7637(3) -0.3586(2) 0.0016(2)
F11 F 0.8188(6) -0.3698(3) 0.0849(3)
F12 F 0.9147(4) -0.3494(3) 0.0132(2)
O1 O 0.91327(16) 0.17548(16) 0.07651(9)
N1 N 0.7582(2) 0.1355(2) 0.02623(11)
N2 N 0.8281(2) 0.0179(2) 0.02240(12)
H1 H 0.7763 -0.0178 -0.0036
C1 C 0.8498(4) -0.3170(4) 0.0354(3)
C2 C 0.9041(3) -0.1943(3) 0.04324(18)
C3 C 1.0097(3) -0.1364(3) 0.06485(17)
H2 H 1.0496 -0.1727 0.0739
C4 C 1.0565(3) -0.0237(3) 0.07318(17)
H3 H 1.1290 0.0171 0.0883
C5 C 0.9995(3) 0.0303(3) 0.05992(15)
H4 H 1.0329 0.1075 0.0655
C6 C 0.8928(3) -0.0293(3) 0.03841(13)
C7 C 0.8454(3) -0.1416(3) 0.03069(15)
H5 H 0.7721 -0.1829 0.0167
C8 C 0.8382(2) 0.1136(2) 0.04349(13)
C9 C 0.6663(3) 0.0662(3) -0.01227(15)
H6 H 0.6280 -0.0113 0.0010
H7 H 0.6920 0.0695 -0.0527
C10 C 0.5902(2) 0.1154(3) -0.00805(16)
C11 C 0.5153(3) 0.0699(3) 0.04519(18)
H8 H 0.5604 0.0832 0.0801
H9 H 0.4658 -0.0094 0.0404
H10 H 0.4719 0.1066 0.0492
C12 C 0.5200(3) 0.0928(3) -0.06242(19)
H11 H 0.4770 0.1302 -0.0592
H12 H 0.4701 0.0134 -0.0664
H13 H 0.5678 0.1204 -0.0966
C13 C 0.6743(3) 0.2378(3) -0.00165(16)
H14 H 0.6408 0.2763 0.0185
H15 H 0.7003 0.2719 -0.0404
C14 C 0.7715(2) 0.2462(2) 0.03451(15)
C15 C 0.7628(3) 0.2723(3) 0.09830(16)
C16 C 0.7437(3) 0.1988(3) 0.14294(16)
H16 H 0.7334 0.1282 0.1341
C17 C 0.7393(3) 0.2262(3) 0.20034(17)
H17 H 0.7271 0.1750 0.2304
C18 C 0.7527(3) 0.3284(4) 0.2138(2)
H18 H 0.7519 0.3485 0.2532
C19 C 0.7670(3) 0.4004(3) 0.1698(2)
H19 H 0.7730 0.4693 0.1788
C20 C 0.7728(3) 0.3738(3) 0.11276(19)
H20 H 0.7836 0.4249 0.0828
C21 C 0.8847(2) 0.3392(2) 0.01145(15)
H21 H 0.8845 0.4094 0.0142
H22 H 0.9422 0.3445 0.0384
C22 C 0.9198(3) 0.3307(2) -0.04943(16)
C23 C 1.0350(3) 0.4256(3) -0.06399(17)
C24 C 1.0731(3) 0.4426(3) -0.12873(17)
C25 C 1.0670(4) 0.3466(4) -0.1622(2)
loop_
_geom_bond_atom_site_label_1
_geom_bond_atom_site_label_2
_geom_bond_site_symmetry_1
_geom_bond_site_symmetry_2
F1 C22 1_555 1_555
F2 C22 1_555 1_555
F3 C23 1_555 1_555
F4 C23 1_555 1_555
F5 C24 1_555 1_555
F6 C24 1_555 1_555
F7 C25 1_555 1_555
F8 C25 1_555 1_555
F9 C25 1_555 1_555
F10 C1 1_555 1_555
F11 C1 1_555 1_555
F12 C1 1_555 1_555
O1 C8 1_555 1_555
N1 C8 1_555 1_555
N2 H1 1_555 1_555
C1 C2 1_555 1_555
C2 C3 1_555 1_555
C3 H2 1_555 1_555
C4 C3 1_555 1_555
H3 C4 1_555 1_555
C5 C4 1_555 1_555
H4 C5 1_555 1_555
C6 N2 1_555 1_555
C7 C2 1_555 1_555
H5 C7 1_555 1_555
C8 N2 1_555 1_555
C9 N1 1_555 1_555
H6 C9 1_555 1_555
H7 C9 1_555 1_555
C10 C9 1_555 1_555
C11 C10 1_555 1_555
H8 C11 1_555 1_555
H9 C11 1_555 1_555
H10 C11 1_555 1_555
C12 C10 1_555 1_555
H11 C12 1_555 1_555
H12 C12 1_555 1_555
H13 C12 1_555 1_555
C13 C10 1_555 1_555
H14 C13 1_555 1_555
H15 C13 1_555 1_555
C14 N1 1_555 1_555
C15 C14 1_555 1_555
C16 C15 1_555 1_555
H16 C16 1_555 1_555
C17 C16 1_555 1_555
H17 C17 1_555 1_555
C18 C17 1_555 1_555
H18 C18 1_555 1_555
C19 C18 1_555 1_555
H19 C19 1_555 1_555
C20 C15 1_555 1_555
H20 C20 1_555 1_555
C21 C14 1_555 1_555
H21 C21 1_555 1_555
H22 C21 1_555 1_555
C22 C21 1_555 1_555
C23 C22 1_555 1_555
C24 C23 1_555 1_555
C25 C24 1_555 1_555
C5 C6 1_555 1_555
C6 C7 1_555 1_555
C13 C14 1_555 1_555
C19 C20 1_555 1_555

#END
