
#######################################################################
#
#                 Cambridge Crystallographic Data Centre
#                                CCDC 
#
#######################################################################
#
# If this CIF has been generated from an entry in the Cambridge 
# Structural Database, then it will include bibliographic, chemical, 
# crystal, experimental, refinement or atomic coordinate data resulting 
# from the CCDC's data processing and validation procedures.
#
#######################################################################

data_LAPYEG
_chemical_formula_moiety         'C18 H18 Br2'
_chemical_name_systematic        cis-1,4-bis(4-Bromophenyl)cyclohexane
_symmetry_cell_setting           monoclinic
_symmetry_space_group_name_H-M   'P 21/c'
_symmetry_Int_Tables_number      14
_space_group_name_Hall           '-P 2ybc'
loop_
_symmetry_equiv_pos_site_id
_symmetry_equiv_pos_as_xyz
1 x,y,z
2 -x,1/2+y,1/2-z
3 -x,-y,-z
4 x,1/2-y,1/2+z
_cell_length_a                   6.366(1)
_cell_length_b                   25.951(4)
_cell_length_c                   9.665(1)
_cell_angle_alpha                90
_cell_angle_beta                 96.01(1)
_cell_angle_gamma                90
_cell_volume                     1587.92
_exptl_crystal_colour            colorless
_chemical_melting_point          112deg.C
_cell_formula_units_Z            4
loop_
_atom_site_label
_atom_site_type_symbol
_atom_site_fract_x
_atom_site_fract_y
_atom_site_fract_z
Br1 Br 0.4752(2) 0.5550(1) 0.3608(1)
Br2 Br 0.3840(1) 0.3243(1) -0.6430(1)
C1 C 0.9858(9) 0.3883(2) 0.0854(6)
C2 C 1.0548(10) 0.4067(2) -0.0524(7)
C3 C 1.1900(10) 0.3671(3) -0.1153(7)
C4 C 1.0758(10) 0.3160(3) -0.1406(7)
C5 C 1.0041(11) 0.2973(2) -0.0036(7)
C6 C 0.8698(11) 0.3365(2) 0.0634(7)
C7 C 0.8585(10) 0.4282(2) 0.1533(7)
C8 C 0.6510(12) 0.4387(3) 0.1080(9)
C9 C 0.5398(11) 0.4756(3) 0.1711(9)
C10 C 0.6310(11) 0.5036(2) 0.2771(7)
C11 C 0.8373(13) 0.4949(3) 0.3243(7)
C12 C 0.9484(11) 0.4580(3) 0.2625(7)
C13 C 0.9024(9) 0.3183(2) -0.2624(6)
C14 C 0.7105(10) 0.2930(2) -0.2592(7)
C15 C 0.5577(10) 0.2945(3) -0.3740(7)
C16 C 0.5966(10) 0.3208(3) -0.4898(6)
C17 C 0.7861(11) 0.3455(3) -0.4961(7)
C18 C 0.9347(10) 0.3435(3) -0.3838(7)
H1 H 1.1116 0.3821 0.1470
H2 H 1.1330 0.4382 -0.0377
H3 H 0.9321 0.4137 -0.1161
H4 H 1.3167 0.3617 -0.0540
H5 H 1.2299 0.3800 -0.2020
H6 H 1.1788 0.2917 -0.1659
H7 H 1.1263 0.2894 0.0597
H8 H 0.9245 0.2661 -0.0201
H9 H 0.7397 0.3416 0.0052
H10 H 0.8362 0.3236 0.1515
H11 H 0.5826 0.4197 0.0306
H12 H 0.3939 0.4814 0.1387
H13 H 0.9042 0.5146 0.4006
H14 H 1.0940 0.4525 0.2960
H15 H 0.6828 0.2743 -0.1774
H16 H 0.4255 0.2770 -0.3709
H17 H 0.8136 0.3639 -0.5784
H18 H 1.0676 0.3605 -0.3896
loop_
_geom_bond_atom_site_label_1
_geom_bond_atom_site_label_2
_geom_bond_site_symmetry_1
_geom_bond_site_symmetry_2
Br1 C10 1_555 1_555
Br2 C16 1_555 1_555
C1 C2 1_555 1_555
C2 C3 1_555 1_555
C3 C4 1_555 1_555
C4 C5 1_555 1_555
C5 C6 1_555 1_555
C6 C1 1_555 1_555
C7 C1 1_555 1_555
C8 C7 1_555 1_555
C9 C8 1_555 1_555
C10 C9 1_555 1_555
C11 C10 1_555 1_555
C12 C7 1_555 1_555
C13 C4 1_555 1_555
C14 C13 1_555 1_555
C15 C14 1_555 1_555
C16 C15 1_555 1_555
C17 C16 1_555 1_555
C18 C13 1_555 1_555
H1 C1 1_555 1_555
H2 C2 1_555 1_555
H3 C2 1_555 1_555
H4 C3 1_555 1_555
H5 C3 1_555 1_555
H6 C4 1_555 1_555
H7 C5 1_555 1_555
H8 C5 1_555 1_555
H9 C6 1_555 1_555
H10 C6 1_555 1_555
H11 C8 1_555 1_555
H12 C9 1_555 1_555
H13 C11 1_555 1_555
H14 C12 1_555 1_555
H15 C14 1_555 1_555
H16 C15 1_555 1_555
H17 C17 1_555 1_555
H18 C18 1_555 1_555
C11 C12 1_555 1_555
C17 C18 1_555 1_555

#END
