
#######################################################################
#
#                 Cambridge Crystallographic Data Centre
#                                CCDC 
#
#######################################################################
#
# If this CIF has been generated from an entry in the Cambridge 
# Structural Database, then it will include bibliographic, chemical, 
# crystal, experimental, refinement or atomic coordinate data resulting 
# from the CCDC's data processing and validation procedures.
#
#######################################################################

data_LAPZOT
_chemical_formula_moiety         'C23 H20 Cl1 N2 O3 1+,C1 H3 O1 1-'
_chemical_name_systematic        
'4-(4-Chlorophenyl)-3-cyano-7-(4-methoxyphenyl)-5-oxo-5,6,7,8-tetrahydro-4H-chromen-2-aminium methanolate'
_symmetry_cell_setting           monoclinic
_symmetry_space_group_name_H-M   'P 21/n'
_symmetry_Int_Tables_number      14
_space_group_name_Hall           '-P 2yn'
loop_
_symmetry_equiv_pos_site_id
_symmetry_equiv_pos_as_xyz
1 x,y,z
2 1/2-x,1/2+y,1/2-z
3 -x,-y,-z
4 1/2+x,1/2-y,1/2+z
_cell_length_a                   8.4408(12)
_cell_length_b                   26.844(4)
_cell_length_c                   10.4615(13)
_cell_angle_alpha                90
_cell_angle_beta                 100.398(3)
_cell_angle_gamma                90
_cell_volume                     2331.49
_exptl_crystal_colour            colorless
_exptl_crystal_description       block
_cell_formula_units_Z            4
loop_
_atom_site_label
_atom_site_type_symbol
_atom_site_fract_x
_atom_site_fract_y
_atom_site_fract_z
C1 C 1.1955(3) 0.37698(10) 1.1850(2)
C2 C 1.2679(3) 0.38035(10) 1.3165(3)
H1 H 1.2491 0.4078 1.3661
C3 C 1.3696(3) 0.34133(10) 1.3721(3)
H2 H 1.4215 0.3430 1.4584
C4 C 1.3903(3) 0.30112(10) 1.2970(3)
C5 C 1.3237(3) 0.29740(10) 1.1703(3)
H3 H 1.3429 0.2697 1.1220
C6 C 1.2232(3) 0.33683(10) 1.1117(3)
H4 H 1.1767 0.3353 1.0242
C7 C 1.0925(3) 0.42032(10) 1.1254(2)
H5 H 1.0677 0.4414 1.1957
C8 C 1.1785(3) 0.45122(9) 1.0401(2)
C9 C 1.1299(3) 0.45753(9) 0.9128(2)
C10 C 0.8945(3) 0.40928(10) 0.9150(2)
C11 C 0.9333(3) 0.40222(10) 1.0433(2)
C12 C 0.8178(3) 0.37688(10) 1.1067(3)
C13 C 0.6618(3) 0.35784(12) 1.0346(3)
H6 H 0.6427 0.3248 1.0659
H7 H 0.5755 0.3793 1.0512
C14 C 0.6599(4) 0.35575(12) 0.8962(3)
H8 H 0.7259 0.3259 0.8936
C15 C 0.7507(3) 0.39052(10) 0.8273(2)
H9 H 0.7831 0.3736 0.7543
H10 H 0.6821 0.4183 0.7938
C16 C 0.5059(3) 0.33767(11) 0.8126(3)
C17 C 0.3746(3) 0.37013(10) 0.7654(3)
H11 H 0.3815 0.4034 0.7903
C18 C 0.2351(3) 0.35330(10) 0.6822(3)
H12 H 0.1502 0.3747 0.6512
C19 C 0.2300(3) 0.30415(9) 0.6492(3)
C20 C 0.3501(3) 0.27166(10) 0.6969(3)
H13 H 0.3393 0.2381 0.6751
C21 C 0.4885(3) 0.28832(11) 0.7779(3)
H14 H 0.5704 0.2659 0.8090
C22 C 1.3256(3) 0.47351(9) 1.0965(2)
C23 C -0.0285(3) 0.31490(11) 0.5070(3)
H15 H -0.0693 0.3324 0.5742
H16 H -0.1129 0.2951 0.4581
H17 H 0.0094 0.3384 0.4503
Cl1 Cl 1.51263(8) 0.25245(3) 1.36958(7)
N1 N 1.2003(3) 0.48469(10) 0.8308(3)
H21 H 1.1508 0.4791 0.7496
H22 H 1.3035 0.4761 0.8393
H23 H 1.1932 0.5169 0.8494
N2 N 1.4468(3) 0.49159(8) 1.1468(2)
O1 O 0.9900(2) 0.43720(7) 0.84663(16)
O2 O 0.8398(2) 0.37310(7) 1.22654(17)
O3 O 0.1011(2) 0.28334(7) 0.56417(18)
C24 C 0.7601(4) 0.45139(11) 0.4691(3)
H18 H 0.6616 0.4430 0.4118
H19 H 0.7419 0.4792 0.5224
H20 H 0.7964 0.4233 0.5234
O4 O 0.8804(2) 0.46438(8) 0.3939(2)
loop_
_geom_bond_atom_site_label_1
_geom_bond_atom_site_label_2
_geom_bond_site_symmetry_1
_geom_bond_site_symmetry_2
C1 C2 1_555 1_555
C2 H1 1_555 1_555
C3 C2 1_555 1_555
H2 C3 1_555 1_555
C4 C3 1_555 1_555
C5 C4 1_555 1_555
H3 C5 1_555 1_555
C6 C1 1_555 1_555
H4 C6 1_555 1_555
C7 C1 1_555 1_555
H5 C7 1_555 1_555
C8 C7 1_555 1_555
C9 C8 1_555 1_555
C10 C11 1_555 1_555
C11 C7 1_555 1_555
C12 C11 1_555 1_555
C13 C12 1_555 1_555
H6 C13 1_555 1_555
H7 C13 1_555 1_555
C14 C13 1_555 1_555
H8 C14 1_555 1_555
C15 C10 1_555 1_555
H9 C15 1_555 1_555
H10 C15 1_555 1_555
C16 C14 1_555 1_555
C17 C16 1_555 1_555
H11 C17 1_555 1_555
C18 C17 1_555 1_555
H12 C18 1_555 1_555
C19 C18 1_555 1_555
C20 C19 1_555 1_555
H13 C20 1_555 1_555
C21 C16 1_555 1_555
H14 C21 1_555 1_555
C22 C8 1_555 1_555
C23 H15 1_555 1_555
H16 C23 1_555 1_555
H17 C23 1_555 1_555
C24 H18 1_555 1_555
H19 C24 1_555 1_555
H20 C24 1_555 1_555
Cl1 C4 1_555 1_555
N1 C9 1_555 1_555
H21 N1 1_555 1_555
H22 N1 1_555 1_555
H23 N1 1_555 1_555
N2 C22 1_555 1_555
O1 C9 1_555 1_555
O2 C12 1_555 1_555
O3 C19 1_555 1_555
O4 C24 1_555 1_555
C5 C6 1_555 1_555
C10 O1 1_555 1_555
C14 C15 1_555 1_555
C20 C21 1_555 1_555
C23 O3 1_555 1_555

#END
