
#######################################################################
#
#                 Cambridge Crystallographic Data Centre
#                                CCDC 
#
#######################################################################
#
# If this CIF has been generated from an entry in the Cambridge 
# Structural Database, then it will include bibliographic, chemical, 
# crystal, experimental, refinement or atomic coordinate data resulting 
# from the CCDC's data processing and validation procedures.
#
#######################################################################

data_LAPZIN
_chemical_formula_moiety         'C18 H17 Cl1 N2 O2,0.5(H2 O1)'
_chemical_name_systematic        
'2-Amino-4-(2-chlorophenyl)-7,7-dimethyl-5-oxo-5,6,7,8-tetrahydro-4H-chromene-3-carbonitrile hemihydrate'
_symmetry_cell_setting           monoclinic
_symmetry_space_group_name_H-M   'C 2/c'
_symmetry_Int_Tables_number      15
_space_group_name_Hall           '-C 2yn'
loop_
_symmetry_equiv_pos_site_id
_symmetry_equiv_pos_as_xyz
1 x,y,z
2 -x,y,1/2-z
3 1/2+x,1/2+y,z
4 1/2-x,1/2+y,1/2-z
5 -x,-y,-z
6 x,-y,1/2+z
7 1/2-x,1/2-y,-z
8 1/2+x,1/2-y,1/2+z
_cell_length_a                   31.431(6)
_cell_length_b                   9.3230(19)
_cell_length_c                   25.079(5)
_cell_angle_alpha                90
_cell_angle_beta                 111.24(3)
_cell_angle_gamma                90
_cell_volume                     6849.73
_exptl_crystal_colour            colorless
_exptl_crystal_description       prism
_cell_formula_units_Z            16
loop_
_atom_site_label
_atom_site_type_symbol
_atom_site_fract_x
_atom_site_fract_y
_atom_site_fract_z
C1 C 0.87769(10) 0.7977(4) 0.80107(13)
C2 C 0.87215(12) 0.9275(4) 0.82590(15)
H1 H 0.8973 0.9748 0.8516
C3 C 0.82914(13) 0.9840(4) 0.81178(15)
H2 H 0.8251 1.0715 0.8271
C4 C 0.79199(11) 0.9116(3) 0.77502(14)
H3 H 0.7629 0.9499 0.7664
C5 C 0.79701(11) 0.7834(3) 0.75071(13)
H4 H 0.7714 0.7367 0.7256
C6 C 0.84100(10) 0.7219(3) 0.76370(12)
C7 C 0.84471(9) 0.5760(3) 0.73737(12)
H5 H 0.8135 0.5475 0.7140
C8 C 0.86352(9) 0.4584(3) 0.78183(12)
C9 C 0.90599(10) 0.3998(3) 0.79355(12)
C10 C 0.91149(10) 0.5090(4) 0.71063(12)
C11 C 0.93956(11) 0.5026(4) 0.67499(15)
H6 H 0.9348 0.4110 0.6554
H7 H 0.9715 0.5087 0.6994
C12 C 0.92855(10) 0.6222(4) 0.63111(13)
C13 C 0.87805(11) 0.6376(5) 0.60281(15)
H8 H 0.8664 0.5554 0.5782
H9 H 0.8717 0.7223 0.5787
C14 C 0.85235(10) 0.6499(3) 0.64347(13)
C15 C 0.87098(9) 0.5780(3) 0.69802(12)
C16 C 0.94814(13) 0.7637(4) 0.66638(15)
H10 H 0.9448 0.8423 0.6405
H11 H 0.9799 0.7504 0.6890
H12 H 0.9316 0.7840 0.6910
C17 C 0.95296(13) 0.6054(5) 0.59000(14)
H13 H 0.9409 0.5238 0.5659
H14 H 0.9850 0.5916 0.6109
H15 H 0.9486 0.6900 0.5668
C18 C 0.83765(10) 0.4130(3) 0.81353(13)
Cl1 Cl 0.93301(3) 0.73422(10) 0.82028(4)
N1 N 0.81581(8) 0.3730(3) 0.83876(11)
N2 N 0.92876(9) 0.3135(3) 0.83506(11)
H31 H 0.9171 0.2864 0.8596
H32 H 0.9553 0.2836 0.8378
O1 O 0.93091(7) 0.4299(3) 0.75980(9)
O2 O 0.81516(6) 0.7103(2) 0.62866(8)
C19 C 0.94532(11) 0.1569(4) 0.51895(14)
C20 C 0.96005(16) 0.2732(4) 0.49501(17)
H16 H 0.9910 0.2864 0.5024
C21 C 0.92824(18) 0.3689(4) 0.46015(17)
H17 H 0.9379 0.4462 0.4440
C22 C 0.88321(17) 0.3500(5) 0.44952(17)
H18 H 0.8619 0.4138 0.4259
C23 C 0.86889(13) 0.2357(4) 0.47387(15)
H19 H 0.8379 0.2247 0.4665
C24 C 0.89882(10) 0.1381(3) 0.50843(12)
C25 C 0.88120(9) 0.0083(3) 0.53129(11)
H20 H 0.9078 -0.0417 0.5581
C26 C 0.85659(9) -0.0962(3) 0.48349(11)
C27 C 0.81138(9) -0.1227(3) 0.46640(12)
C28 C 0.80578(9) 0.0119(3) 0.54358(12)
C29 C 0.77329(10) 0.0455(3) 0.57239(14)
H21 H 0.7681 -0.0404 0.5910
H22 H 0.7443 0.0739 0.5438
C30 C 0.79024(10) 0.1653(3) 0.61691(12)
C31 C 0.83979(12) 0.1330(4) 0.65379(13)
H23 H 0.8517 0.2110 0.6807
H24 H 0.8409 0.0464 0.6757
C32 C 0.86993(11) 0.1136(4) 0.61901(13)
C33 C 0.85047(10) 0.0454(3) 0.56274(12)
C34 C 0.78655(12) 0.3096(3) 0.58672(15)
H25 H 0.8034 0.3059 0.5616
H26 H 0.7989 0.3837 0.6147
H27 H 0.7551 0.3299 0.5649
C35 C 0.76102(14) 0.1704(4) 0.65389(17)
H28 H 0.7717 0.2460 0.6816
H29 H 0.7632 0.0804 0.6733
H30 H 0.7298 0.1881 0.6301
C36 C 0.88196(9) -0.1639(3) 0.45490(12)
Cl2 Cl 0.98615(3) 0.04182(10) 0.56223(4)
N3 N 0.90360(9) -0.2218(3) 0.43262(11)
N4 N 0.78563(9) -0.2024(3) 0.42255(12)
H33 H 0.7979 -0.2469 0.4018
H34 H 0.7569 -0.2109 0.4154
O3 O 0.78475(6) -0.0620(2) 0.49361(9)
O4 O 0.91002(8) 0.1490(3) 0.63733(10)
O5 O 1.00378(11) 0.1570(4) 0.68730(14)
H35 H 0.9740 0.1980 0.6788
H36 H 1.0031 0.0925 0.6572
loop_
_geom_bond_atom_site_label_1
_geom_bond_atom_site_label_2
_geom_bond_site_symmetry_1
_geom_bond_site_symmetry_2
C1 C2 1_555 1_555
C2 H1 1_555 1_555
C3 C2 1_555 1_555
H2 C3 1_555 1_555
C4 C3 1_555 1_555
H3 C4 1_555 1_555
C5 C4 1_555 1_555
H4 C5 1_555 1_555
C6 C1 1_555 1_555
C7 C6 1_555 1_555
H5 C7 1_555 1_555
C8 C7 1_555 1_555
C9 C8 1_555 1_555
C10 C11 1_555 1_555
C11 H6 1_555 1_555
H7 C11 1_555 1_555
C12 C11 1_555 1_555
C13 C12 1_555 1_555
H8 C13 1_555 1_555
H9 C13 1_555 1_555
C14 C13 1_555 1_555
C15 C7 1_555 1_555
C16 C12 1_555 1_555
H10 C16 1_555 1_555
H11 C16 1_555 1_555
H12 C16 1_555 1_555
C17 C12 1_555 1_555
H13 C17 1_555 1_555
H14 C17 1_555 1_555
H15 C17 1_555 1_555
C18 C8 1_555 1_555
C19 C20 1_555 1_555
C20 H16 1_555 1_555
C21 C20 1_555 1_555
H17 C21 1_555 1_555
C22 C21 1_555 1_555
H18 C22 1_555 1_555
C23 C22 1_555 1_555
H19 C23 1_555 1_555
C24 C19 1_555 1_555
C25 C24 1_555 1_555
H20 C25 1_555 1_555
C26 C25 1_555 1_555
C27 C26 1_555 1_555
C28 C29 1_555 1_555
C29 H21 1_555 1_555
H22 C29 1_555 1_555
C30 C29 1_555 1_555
C31 C30 1_555 1_555
H23 C31 1_555 1_555
H24 C31 1_555 1_555
C32 C31 1_555 1_555
C33 C25 1_555 1_555
C34 C30 1_555 1_555
H25 C34 1_555 1_555
H26 C34 1_555 1_555
H27 C34 1_555 1_555
C35 C30 1_555 1_555
H28 C35 1_555 1_555
H29 C35 1_555 1_555
H30 C35 1_555 1_555
C36 C26 1_555 1_555
Cl1 C1 1_555 1_555
Cl2 C19 1_555 1_555
N1 C18 1_555 1_555
N2 C9 1_555 1_555
H31 N2 1_555 1_555
H32 N2 1_555 1_555
N3 C36 1_555 1_555
N4 C27 1_555 1_555
H33 N4 1_555 1_555
H34 N4 1_555 1_555
O1 C9 1_555 1_555
O2 C14 1_555 1_555
O3 C27 1_555 1_555
O4 C32 1_555 1_555
O5 H35 1_555 1_555
H36 O5 1_555 1_555
C5 C6 1_555 1_555
C10 C15 1_555 1_555
C10 O1 1_555 1_555
C14 C15 1_555 1_555
C23 C24 1_555 1_555
C28 C33 1_555 1_555
C28 O3 1_555 1_555
C32 C33 1_555 1_555

#END
