
#######################################################################
#
#                 Cambridge Crystallographic Data Centre
#                                CCDC 
#
#######################################################################
#
# If this CIF has been generated from an entry in the Cambridge 
# Structural Database, then it will include bibliographic, chemical, 
# crystal, experimental, refinement or atomic coordinate data resulting 
# from the CCDC's data processing and validation procedures.
#
#######################################################################

data_LAQDOY
_chemical_formula_moiety         'C13 H8 Cl3 N1 O1'
_chemical_name_systematic        2,6-Dichloro-N-(4-chlorophenyl)benzamide
_symmetry_cell_setting           monoclinic
_symmetry_space_group_name_H-M   'P 21/c'
_symmetry_Int_Tables_number      14
_space_group_name_Hall           '-P 2ybc'
loop_
_symmetry_equiv_pos_site_id
_symmetry_equiv_pos_as_xyz
1 x,y,z
2 -x,1/2+y,1/2-z
3 -x,-y,-z
4 x,1/2-y,1/2+z
_cell_length_a                   11.241(2)
_cell_length_b                   12.590(3)
_cell_length_c                   9.6450(19)
_cell_angle_alpha                90
_cell_angle_beta                 100.60(3)
_cell_angle_gamma                90
_cell_volume                     1341.71
_exptl_crystal_colour            colorless
_exptl_crystal_description       block
_chemical_melting_point          '397 K'
_cell_formula_units_Z            4
loop_
_atom_site_label
_atom_site_type_symbol
_atom_site_fract_x
_atom_site_fract_y
_atom_site_fract_z
N1 N 0.7580(3) 0.3117(2) 0.1127(3)
H1 H 0.7677 0.2870 0.1972
O1 O 0.7776(3) 0.2668(2) -0.1093(3)
Cl1 Cl 0.57123(16) 0.75067(10) 0.0703(2)
C1 C 0.7243(4) 0.4801(4) -0.0171(5)
H2 H 0.7651 0.4547 -0.0859
Cl2 Cl 0.64198(10) 0.05573(10) 0.07481(12)
C2 C 0.6810(5) 0.5830(4) -0.0246(5)
H3 H 0.6917 0.6268 -0.0990
Cl3 Cl 1.06285(13) 0.25773(11) 0.06642(19)
C3 C 0.6224(4) 0.6202(4) 0.0774(6)
C4 C 0.6040(4) 0.5568(4) 0.1854(6)
H4 H 0.5638 0.5829 0.2543
C5 C 0.6460(4) 0.4524(4) 0.1924(5)
H5 H 0.6323 0.4082 0.2652
C6 C 0.7070(3) 0.4148(3) 0.0926(4)
C7 C 0.7928(4) 0.2481(3) 0.0165(4)
C8 C 0.8579(4) 0.1497(3) 0.0788(4)
C9 C 0.7988(4) 0.0590(3) 0.1085(4)
C10 C 0.8603(5) -0.0302(4) 0.1654(5)
H6 H 0.8188 -0.0911 0.1831
C11 C 0.9838(5) -0.0267(5) 0.1951(6)
H7 H 1.0264 -0.0859 0.2346
C12 C 1.0461(5) 0.0615(5) 0.1683(6)
H8 H 1.1302 0.0628 0.1906
C13 C 0.9836(4) 0.1479(4) 0.1082(5)
loop_
_geom_bond_atom_site_label_1
_geom_bond_atom_site_label_2
_geom_bond_site_symmetry_1
_geom_bond_site_symmetry_2
N1 H1 1_555 1_555
O1 C7 1_555 1_555
Cl1 C3 1_555 1_555
C1 H2 1_555 1_555
Cl2 C9 1_555 1_555
C2 C1 1_555 1_555
H3 C2 1_555 1_555
Cl3 C13 1_555 1_555
C3 C2 1_555 1_555
C4 C3 1_555 1_555
H4 C4 1_555 1_555
C5 C4 1_555 1_555
H5 C5 1_555 1_555
C6 N1 1_555 1_555
C7 N1 1_555 1_555
C8 C7 1_555 1_555
C9 C8 1_555 1_555
C10 C9 1_555 1_555
H6 C10 1_555 1_555
C11 C10 1_555 1_555
H7 C11 1_555 1_555
C12 C11 1_555 1_555
H8 C12 1_555 1_555
C13 C8 1_555 1_555
C1 C6 1_555 1_555
C5 C6 1_555 1_555
C12 C13 1_555 1_555

#END
