
#######################################################################
#
#                 Cambridge Crystallographic Data Centre
#                                CCDC 
#
#######################################################################
#
# If this CIF has been generated from an entry in the Cambridge 
# Structural Database, then it will include bibliographic, chemical, 
# crystal, experimental, refinement or atomic coordinate data resulting 
# from the CCDC's data processing and validation procedures.
#
#######################################################################

data_LAQFEP
_chemical_formula_moiety         'C12 H16 O5'
_chemical_name_systematic        
'methyl 5-(1-hydroxyethyl)-3-oxo-1,3,3a,4,5,7a-hexahydro-2-benzofuran-4-carboxylate'
_symmetry_cell_setting           monoclinic
_symmetry_space_group_name_H-M   'P 21'
_symmetry_Int_Tables_number      4
_space_group_name_Hall           'P 2yb'
loop_
_symmetry_equiv_pos_site_id
_symmetry_equiv_pos_as_xyz
1 x,y,z
2 -x,1/2+y,-z
_cell_length_a                   6.7425(2)
_cell_length_b                   7.5101(3)
_cell_length_c                   12.0271(4)
_cell_angle_alpha                90
_cell_angle_beta                 103.131(2)
_cell_angle_gamma                90
_cell_volume                     593.091
_exptl_crystal_colour            colorless
_exptl_crystal_description       plate
_cell_formula_units_Z            2
loop_
_atom_site_label
_atom_site_type_symbol
_atom_site_fract_x
_atom_site_fract_y
_atom_site_fract_z
O1 O 0.4440(2) 0.0388(2) 0.11509(11)
O2 O 0.4564(3) -0.1289(2) 0.27073(13)
O3 O 0.6702(2) 0.0985(2) 0.50454(13)
O4 O 0.3350(2) 0.5278(2) 0.17147(12)
O5 O 0.3963(2) 0.0198(2) 0.56872(11)
C1 C 0.3564(3) 0.1807(3) 0.27166(15)
C2 C 0.1573(3) 0.2621(3) 0.19824(17)
C3 C 0.3227(3) 0.1541(3) 0.39084(15)
C4 C 0.4883(3) 0.0911(3) 0.48904(16)
C5 C 0.4209(3) 0.0126(3) 0.22110(16)
C6 C -0.0409(3) 0.0825(4) 0.31572(18)
C7 C -0.0333(3) 0.1834(3) 0.22630(19)
C8 C 0.1531(3) 0.0250(3) 0.39706(15)
C9 C 0.5145(4) -0.1130(3) 0.0600(2)
C10 C 0.1616(3) 0.4665(3) 0.21064(17)
C11 C 0.1740(3) 0.0203(4) 0.52582(17)
C12 C -0.0290(4) 0.5573(4) 0.1427(3)
H1 H 0.4737(3) 0.2632(3) 0.27412(15)
H2 H 0.1507(3) 0.2299(3) 0.11679(17)
H3 H 0.2969(3) 0.2834(3) 0.40188(15)
H4 H -0.1757(3) 0.0455(4) 0.32963(18)
H5 H -0.1659(3) 0.2112(3) 0.17234(19)
H6 H 0.1602(3) -0.1001(3) 0.36969(15)
H7 H 0.5256(4) -0.0789(3) -0.0187(2)
H8 H 0.6512(4) -0.1506(3) 0.1056(2)
H9 H 0.4161(4) -0.2139(3) 0.0554(2)
H10 H 0.1701(3) 0.4981(3) 0.29236(17)
H11 H 0.1095(3) 0.1274(4) 0.55228(17)
H12 H 0.1116(3) -0.0900(4) 0.54966(17)
H13 H -0.1497(4) 0.5141(4) 0.1702(3)
H14 H -0.0176(4) 0.6895(4) 0.1518(3)
H15 H -0.0457(4) 0.5255(4) 0.0604(3)
H16 H 0.3823(2) 0.6208(2) 0.22212(12)
loop_
_geom_bond_atom_site_label_1
_geom_bond_atom_site_label_2
_geom_bond_site_symmetry_1
_geom_bond_site_symmetry_2
O1 C5 1_555 1_555
O2 C5 1_555 1_555
O3 C4 1_555 1_555
O4 C10 1_555 1_555
O5 C4 1_555 1_555
C1 C2 1_555 1_555
C2 C7 1_555 1_555
C3 C1 1_555 1_555
C4 C3 1_555 1_555
C5 C1 1_555 1_555
C6 C7 1_555 1_555
C7 H5 1_555 1_555
C8 C3 1_555 1_555
C9 O1 1_555 1_555
C10 C2 1_555 1_555
C11 O5 1_555 1_555
C12 C10 1_555 1_555
H1 C1 1_555 1_555
H2 C2 1_555 1_555
H3 C3 1_555 1_555
H4 C6 1_555 1_555
H6 C8 1_555 1_555
H7 C9 1_555 1_555
H8 C9 1_555 1_555
H9 C9 1_555 1_555
H10 C10 1_555 1_555
H11 C11 1_555 1_555
H12 C11 1_555 1_555
H13 C12 1_555 1_555
H14 C12 1_555 1_555
H15 C12 1_555 1_555
H16 O4 1_555 1_555
C6 C8 1_555 1_555
C8 C11 1_555 1_555

#END
