
#######################################################################
#
#                 Cambridge Crystallographic Data Centre
#                                CCDC 
#
#######################################################################
#
# If this CIF has been generated from an entry in the Cambridge 
# Structural Database, then it will include bibliographic, chemical, 
# crystal, experimental, refinement or atomic coordinate data resulting 
# from the CCDC's data processing and validation procedures.
#
#######################################################################

data_LAQNUO
_chemical_formula_moiety         'C18 H19 N3 O1'
_chemical_name_systematic        
(E)-4-[(4-Diethylamino-2-hydroxybenzylidene)amino]benzonitrile
_symmetry_cell_setting           monoclinic
_symmetry_space_group_name_H-M   'P 21/c'
_symmetry_Int_Tables_number      14
_space_group_name_Hall           '-P 2ybc'
loop_
_symmetry_equiv_pos_site_id
_symmetry_equiv_pos_as_xyz
1 x,y,z
2 -x,1/2+y,1/2-z
3 -x,-y,-z
4 x,1/2-y,1/2+z
_cell_length_a                   15.361(3)
_cell_length_b                   12.118(2)
_cell_length_c                   8.7317(14)
_cell_angle_alpha                90
_cell_angle_beta                 100.717(4)
_cell_angle_gamma                90
_cell_volume                     1597.01
_exptl_crystal_colour            yellow
_exptl_crystal_description       parallelepiped
_cell_formula_units_Z            4
loop_
_atom_site_label
_atom_site_type_symbol
_atom_site_fract_x
_atom_site_fract_y
_atom_site_fract_z
O1 O -0.12526(16) -0.02917(13) 0.1327(2)
H1 H -0.0756 -0.0162 0.1827
N1 N 0.3699(2) 0.1233(3) 0.8181(4)
N2 N 0.01778(14) 0.08093(15) 0.2272(3)
N3 N -0.34058(17) 0.11544(19) -0.2774(3)
C1 C 0.3116(2) 0.1190(2) 0.7158(4)
C2 C 0.23844(18) 0.1117(2) 0.5869(3)
C3 C 0.20738(19) 0.2036(2) 0.4999(4)
H2 H 0.2351 0.2714 0.5233
C4 C 0.13636(18) 0.1961(2) 0.3796(3)
H3 H 0.1161 0.2590 0.3230
C5 C 0.09401(18) 0.09504(19) 0.3410(3)
C6 C 0.1265(2) 0.0040(2) 0.4290(3)
H4 H 0.0992 -0.0641 0.4061
C7 C 0.1975(2) 0.0111(2) 0.5485(3)
H5 H 0.2185 -0.0518 0.6043
C8 C -0.00756(15) 0.14955(19) 0.1149(3)
H6 H 0.0292 0.2083 0.1014
C9 C -0.08947(16) 0.13804(18) 0.0117(3)
C10 C -0.11940(19) 0.21569(19) -0.1058(3)
H7 H -0.0825 0.2744 -0.1187
C11 C -0.1997(2) 0.2089(2) -0.2014(3)
H8 H -0.2159 0.2620 -0.2784
C12 C -0.25904(18) 0.1226(2) -0.1858(3)
C13 C -0.23028(19) 0.04469(19) -0.0681(3)
H9 H -0.2681 -0.0127 -0.0535
C14 C -0.14852(19) 0.05040(18) 0.0257(3)
C15 C -0.3678(2) 0.1867(3) -0.4140(3)
H10 H -0.4051 0.1449 -0.4956
H11 H -0.3156 0.2101 -0.4532
C16 C -0.4175(2) 0.2868(3) -0.3755(4)
H12 H -0.4337 0.3316 -0.4670
H13 H -0.3805 0.3287 -0.2954
H14 H -0.4700 0.2639 -0.3394
C17 C -0.40588(19) 0.0308(2) -0.2501(3)
H15 H -0.4654 0.0586 -0.2864
H16 H -0.3990 0.0167 -0.1392
C18 C -0.3941(3) -0.0743(3) -0.3325(5)
H17 H -0.3371 -0.1052 -0.2905
H18 H -0.3979 -0.0598 -0.4417
H19 H -0.4396 -0.1255 -0.3185
loop_
_geom_bond_atom_site_label_1
_geom_bond_atom_site_label_2
_geom_bond_site_symmetry_1
_geom_bond_site_symmetry_2
O1 H1 1_555 1_555
N1 C1 1_555 1_555
N2 C5 1_555 1_555
N3 C12 1_555 1_555
C1 C2 1_555 1_555
C2 C3 1_555 1_555
C3 H2 1_555 1_555
C4 C3 1_555 1_555
H3 C4 1_555 1_555
C5 C4 1_555 1_555
C6 C5 1_555 1_555
H4 C6 1_555 1_555
C7 C2 1_555 1_555
H5 C7 1_555 1_555
C8 N2 1_555 1_555
H6 C8 1_555 1_555
C9 C8 1_555 1_555
C10 C9 1_555 1_555
H7 C10 1_555 1_555
C11 C10 1_555 1_555
H8 C11 1_555 1_555
C12 C11 1_555 1_555
C13 C12 1_555 1_555
H9 C13 1_555 1_555
C14 O1 1_555 1_555
C15 N3 1_555 1_555
H10 C15 1_555 1_555
H11 C15 1_555 1_555
C16 C15 1_555 1_555
H12 C16 1_555 1_555
H13 C16 1_555 1_555
H14 C16 1_555 1_555
C17 N3 1_555 1_555
H15 C17 1_555 1_555
H16 C17 1_555 1_555
C18 C17 1_555 1_555
H17 C18 1_555 1_555
H18 C18 1_555 1_555
H19 C18 1_555 1_555
C6 C7 1_555 1_555
C9 C14 1_555 1_555
C13 C14 1_555 1_555

#END
