
#######################################################################
#
#                 Cambridge Crystallographic Data Centre
#                                CCDC 
#
#######################################################################
#
# If this CIF has been generated from an entry in the Cambridge 
# Structural Database, then it will include bibliographic, chemical, 
# crystal, experimental, refinement or atomic coordinate data resulting 
# from the CCDC's data processing and validation procedures.
#
#######################################################################

data_LAQVOQ
_chemical_formula_moiety         'C26 H27 Cl1 N4 O1 S1'
_chemical_name_systematic        
7-Benzyl-3-(4-chlorophenyl)-2-(isobutylamino)-5,6,7,8-tetrahydropyrido[4',3':4,5]thieno[2,3-d]pyrimidin-4(3H)-one
_symmetry_cell_setting           monoclinic
_symmetry_space_group_name_H-M   'P 21/c'
_symmetry_Int_Tables_number      14
_space_group_name_Hall           '-P 2ybc'
loop_
_symmetry_equiv_pos_site_id
_symmetry_equiv_pos_as_xyz
1 x,y,z
2 -x,1/2+y,1/2-z
3 -x,-y,-z
4 x,1/2-y,1/2+z
_cell_length_a                   17.428(13)
_cell_length_b                   9.391(7)
_cell_length_c                   16.170(13)
_cell_angle_alpha                90
_cell_angle_beta                 111.995(7)
_cell_angle_gamma                90
_cell_volume                     2453.86
_exptl_crystal_colour            colorless
_exptl_crystal_description       prism
_chemical_melting_point          '462 K'
_cell_formula_units_Z            4
_exptl_crystal_recrystallization_method ethanol/dichloromethane
loop_
_atom_site_label
_atom_site_type_symbol
_atom_site_fract_x
_atom_site_fract_y
_atom_site_fract_z
Cl1 Cl 0.63895(6) 1.09995(13) 0.09315(7)
C1 C 0.0316(2) 1.1445(5) 0.6378(3)
H1 H -0.0188 1.1831 0.6337
C2 C 0.0970(2) 1.2321(4) 0.6461(2)
H2 H 0.0913 1.3303 0.6480
C3 C 0.1715(2) 1.1734(4) 0.6516(2)
H3 H 0.2158 1.2333 0.6577
C4 C 0.18193(19) 1.0276(3) 0.64841(19)
C5 C 0.1159(2) 0.9416(4) 0.6414(3)
H4 H 0.1215 0.8431 0.6404
C6 C 0.0411(2) 1.0003(5) 0.6358(3)
H5 H -0.0032 0.9408 0.6305
C7 C 0.26265(19) 0.9681(4) 0.65007(19)
H6 H 0.3077 1.0067 0.7009
H7 H 0.2627 0.8654 0.6570
C8 C 0.35672(18) 0.9495(4) 0.57200(19)
H8 H 0.3558 0.8462 0.5708
H9 H 0.3992 0.9794 0.6278
C9 C 0.37759(17) 1.0049(4) 0.49451(18)
H10 H 0.3894 1.1061 0.5020
H11 H 0.4264 0.9567 0.4934
C10 C 0.30634(16) 0.9793(3) 0.40863(17)
C11 C 0.23083(16) 0.9471(3) 0.40872(17)
C12 C 0.20962(17) 0.9400(3) 0.49018(18)
H12 H 0.1583 0.9908 0.4794
H13 H 0.2016 0.8415 0.5030
C13 C 0.30607(15) 0.9815(3) 0.31940(17)
C14 C 0.23034(16) 0.9494(3) 0.25440(18)
C15 C 0.27191(17) 0.9691(3) 0.13904(18)
C16 C 0.37323(17) 1.0126(3) 0.29188(18)
C17 C 0.41915(16) 1.0218(3) 0.16662(17)
C18 C 0.43494(19) 1.1580(3) 0.1439(2)
H14 H 0.4005 1.2332 0.1445
C19 C 0.50245(19) 1.1807(4) 0.1202(2)
H15 H 0.5141 1.2717 0.1054
C20 C 0.55211(18) 1.0682(4) 0.11873(19)
C21 C 0.53581(18) 0.9314(4) 0.1390(2)
H16 H 0.5690 0.8558 0.1356
C22 C 0.46907(18) 0.9086(3) 0.16437(19)
H17 H 0.4580 0.8177 0.1798
C23 C 0.17702(19) 0.9558(3) -0.01924(19)
H18 H 0.1411 0.9049 0.0041
H19 H 0.1808 0.9003 -0.0682
C24 C 0.1383(2) 1.0970(4) -0.0548(2)
H20 H 0.1388 1.1552 -0.0043
C25 C 0.1863(3) 1.1749(5) -0.1013(3)
H21 H 0.2408 1.1960 -0.0591
H22 H 0.1583 1.2620 -0.1261
H23 H 0.1903 1.1162 -0.1481
C26 C 0.0481(3) 1.0733(6) -0.1165(3)
H24 H 0.0231 1.1631 -0.1401
H25 H 0.0185 1.0301 -0.0835
H26 H 0.0461 1.0118 -0.1647
N1 N 0.27599(14) 1.0031(3) 0.56719(14)
N2 N 0.21063(14) 0.9434(3) 0.16459(15)
N3 N 0.35216(13) 0.9995(3) 0.19807(14)
N4 N 0.25971(15) 0.9662(3) 0.05109(15)
H27 H 0.3020 0.9707 0.0360
S1 S 0.15757(4) 0.91648(9) 0.30144(5)
O1 O 0.44421(12) 1.0478(3) 0.33911(13)
loop_
_geom_bond_atom_site_label_1
_geom_bond_atom_site_label_2
_geom_bond_site_symmetry_1
_geom_bond_site_symmetry_2
Cl1 C20 1_555 1_555
C1 H1 1_555 1_555
C2 C1 1_555 1_555
H2 C2 1_555 1_555
C3 C2 1_555 1_555
H3 C3 1_555 1_555
C4 C3 1_555 1_555
C5 C4 1_555 1_555
H4 C5 1_555 1_555
C6 C1 1_555 1_555
H5 C6 1_555 1_555
C7 C4 1_555 1_555
H6 C7 1_555 1_555
H7 C7 1_555 1_555
C8 H8 1_555 1_555
H9 C8 1_555 1_555
C9 C8 1_555 1_555
H10 C9 1_555 1_555
H11 C9 1_555 1_555
C10 C9 1_555 1_555
C11 C10 1_555 1_555
C12 C11 1_555 1_555
H12 C12 1_555 1_555
H13 C12 1_555 1_555
C13 C10 1_555 1_555
C14 C13 1_555 1_555
C15 N2 1_555 1_555
C16 C13 1_555 1_555
C17 C18 1_555 1_555
C18 H14 1_555 1_555
C19 C18 1_555 1_555
H15 C19 1_555 1_555
C20 C19 1_555 1_555
C21 C20 1_555 1_555
H16 C21 1_555 1_555
C22 C17 1_555 1_555
H17 C22 1_555 1_555
C23 H18 1_555 1_555
H19 C23 1_555 1_555
C24 C23 1_555 1_555
H20 C24 1_555 1_555
C25 C24 1_555 1_555
H21 C25 1_555 1_555
H22 C25 1_555 1_555
H23 C25 1_555 1_555
C26 C24 1_555 1_555
H24 C26 1_555 1_555
H25 C26 1_555 1_555
H26 C26 1_555 1_555
N1 C7 1_555 1_555
N2 C14 1_555 1_555
N3 C15 1_555 1_555
N4 C15 1_555 1_555
H27 N4 1_555 1_555
S1 C11 1_555 1_555
O1 C16 1_555 1_555
C5 C6 1_555 1_555
C8 N1 1_555 1_555
C12 N1 1_555 1_555
C14 S1 1_555 1_555
C16 N3 1_555 1_555
C17 N3 1_555 1_555
C21 C22 1_555 1_555
C23 N4 1_555 1_555

#END
