
#######################################################################
#
#                 Cambridge Crystallographic Data Centre
#                                CCDC 
#
#######################################################################
#
# If this CIF has been generated from an entry in the Cambridge 
# Structural Database, then it will include bibliographic, chemical, 
# crystal, experimental, refinement or atomic coordinate data resulting 
# from the CCDC's data processing and validation procedures.
#
#######################################################################

data_LAQWAC
_chemical_name_common            'Tetraresorcinol dioxolane clathrate'
_chemical_formula_moiety         'C24 H20 O8 Si1,3.3(C3 H6 O2)'
_chemical_name_systematic        
'tetrakis(3,5-Dihydroxyphenyl)silane dioxolane clathrate'
_symmetry_cell_setting           tetragonal
_symmetry_space_group_name_H-M   'I 41/a'
_symmetry_Int_Tables_number      88
_space_group_name_Hall           '-I 4ad'
loop_
_symmetry_equiv_pos_site_id
_symmetry_equiv_pos_as_xyz
1 x,y,z
2 3/4-y,1/4+x,1/4+z
3 1/2+x,1/2+y,1/2+z
4 1/4-y,3/4+x,3/4+z
5 1/4+y,1/4-x,1/4+z
6 1/2-x,-y,1/2+z
7 3/4+y,3/4-x,3/4+z
8 -x,1/2-y,z
9 -x,-y,-z
10 1/4+y,3/4-x,3/4-z
11 1/2-x,1/2-y,1/2-z
12 3/4+y,1/4-x,1/4-z
13 3/4-y,3/4+x,3/4-z
14 1/2+x,y,1/2-z
15 1/4-y,1/4+x,1/4-z
16 x,1/2+y,-z
_cell_length_a                   16.926(4)
_cell_length_b                   16.926(4)
_cell_length_c                   38.794(16)
_cell_angle_alpha                90
_cell_angle_beta                 90
_cell_angle_gamma                90
_cell_volume                     11114.1
_exptl_crystal_colour            colorless
_exptl_crystal_description       block
_cell_formula_units_Z            12
_exptl_crystal_recrystallization_method hexane/dioxolane
loop_
_atom_site_label
_atom_site_type_symbol
_atom_site_fract_x
_atom_site_fract_y
_atom_site_fract_z
Si1 Si 0.5000 0.7500 0.1250
O1 O 0.32258(14) 0.50700(14) 0.09905(7)
H1 H 0.3038 0.4815 0.0827
O2 O 0.51673(15) 0.57062(15) 0.01549(7)
H2 H 0.5300 0.5235 0.0146
C1 C 0.4674(2) 0.6651(2) 0.09698(8)
C2 C 0.40484(19) 0.61776(19) 0.10811(8)
H3 H 0.3782 0.6286 0.1288
C3 C 0.38308(19) 0.55350(19) 0.08739(8)
C4 C 0.4198(2) 0.5381(2) 0.05644(9)
H4 H 0.4033 0.4958 0.0425
C5 C 0.4806(2) 0.5854(2) 0.04641(10)
C6 C 0.5042(2) 0.6489(2) 0.06600(10)
H5 H 0.5455 0.6814 0.0583
O1N O 0.74300(14) 0.57258(14) 0.15095(7)
O1K O 0.25700(14) 0.92742(14) 0.15095(7)
O1G O 0.67742(14) 0.99300(14) 0.09905(7)
H1N H 0.7685 0.5538 0.1673
H1K H 0.2315 0.9462 0.1673
H1G H 0.6962 1.0185 0.0827
O2N O 0.67938(15) 0.76673(15) 0.23451(7)
O2K O 0.32062(15) 0.73327(15) 0.23451(7)
O2G O 0.48327(15) 0.92938(15) 0.01549(7)
H2N H 0.7265 0.7800 0.2354
H2K H 0.2735 0.7200 0.2354
H2G H 0.4700 0.9765 0.0146
C1N C 0.5849(2) 0.7174(2) 0.15302(8)
C1K C 0.4151(2) 0.7826(2) 0.15302(8)
C1G C 0.5326(2) 0.8349(2) 0.09698(8)
C2N C 0.63224(19) 0.65484(19) 0.14189(8)
C2K C 0.36776(19) 0.84516(19) 0.14189(8)
C2G C 0.59516(19) 0.88224(19) 0.10811(8)
H3N H 0.6214 0.6282 0.1212
H3K H 0.3786 0.8718 0.1212
H3G H 0.6218 0.8714 0.1288
C3N C 0.69650(19) 0.63308(19) 0.16261(8)
C3K C 0.30350(19) 0.86692(19) 0.16261(8)
C3G C 0.61692(19) 0.94650(19) 0.08739(8)
C4N C 0.7119(2) 0.6698(2) 0.19356(9)
C4K C 0.2881(2) 0.8302(2) 0.19356(9)
C4G C 0.5802(2) 0.9619(2) 0.05644(9)
H4N H 0.7542 0.6533 0.2075
H4K H 0.2458 0.8467 0.2075
H4G H 0.5967 1.0042 0.0425
C5N C 0.6646(2) 0.7306(2) 0.20359(10)
C5K C 0.3354(2) 0.7694(2) 0.20359(10)
C5G C 0.5194(2) 0.9146(2) 0.04641(10)
C6N C 0.6011(2) 0.7542(2) 0.18400(10)
C6K C 0.3989(2) 0.7458(2) 0.18400(10)
C6G C 0.4958(2) 0.8511(2) 0.06600(10)
H5N H 0.5686 0.7955 0.1917
H5K H 0.4314 0.7045 0.1917
H5G H 0.4545 0.8186 0.0583
Si2 Si 0.0000 0.2500 0.02865(2)
O3 O -0.17805(14) 0.49446(14) -0.00174(6)
H6 H -0.1983 0.4794 0.0166
O4 O 0.02661(15) 0.43635(14) -0.07936(7)
H7 H 0.0588 0.4011 -0.0844
C7 C -0.03111(19) 0.3337(2) 0.00062(9)
C8 C -0.09370(19) 0.3834(2) 0.01061(9)
H8 H -0.1204 0.3735 0.0314
C9 C -0.11651(19) 0.44684(19) -0.00984(9)
C10 C -0.07624(19) 0.4638(2) -0.03988(9)
H9 H -0.0914 0.5070 -0.0536
C11 C -0.0126(2) 0.4161(2) -0.04985(9)
C12 C 0.0101(2) 0.3519(2) -0.02992(9)
H10 H 0.0531 0.3206 -0.0368
O5 O 0.25492(13) 0.41687(13) 0.05143(6)
H11 H 0.2355 0.4400 0.0346
O6 O 0.18149(13) 0.22849(13) 0.13708(6)
H12 H 0.2257 0.2409 0.1446
C13 C 0.08617(19) 0.27988(18) 0.05551(8)
C14 C 0.13769(19) 0.33853(19) 0.04338(9)
H13 H 0.1274 0.3639 0.0223
C15 C 0.20380(17) 0.35907(17) 0.06248(8)
C16 C 0.22041(19) 0.32422(19) 0.09402(8)
H14 H 0.2649 0.3394 0.1070
C17 C 0.1688(2) 0.26573(19) 0.10595(8)
C18 C 0.10313(18) 0.24320(18) 0.08769(8)
H15 H 0.0695 0.2037 0.0964
O3G O 0.17805(14) 0.00554(14) -0.00174(6)
H6G H 0.1983 0.0206 0.0166
O4G O -0.02661(15) 0.06365(14) -0.07936(7)
H7G H -0.0588 0.0989 -0.0844
C7G C 0.03111(19) 0.1663(2) 0.00062(9)
C8G C 0.09370(19) 0.1166(2) 0.01061(9)
H8G H 0.1204 0.1265 0.0314
C9G C 0.11651(19) 0.05316(19) -0.00984(9)
C10G C 0.07624(19) 0.0362(2) -0.03988(9)
H9G H 0.0914 -0.0070 -0.0536
C11G C 0.0126(2) 0.0839(2) -0.04985(9)
C12G C -0.0101(2) 0.1481(2) -0.02992(9)
H10G H -0.0531 0.1794 -0.0368
O5G O -0.25492(13) 0.08313(13) 0.05143(6)
H11G H -0.2355 0.0600 0.0346
O6G O -0.18149(13) 0.27151(13) 0.13708(6)
H12G H -0.2257 0.2591 0.1446
C13G C -0.08617(19) 0.22012(18) 0.05551(8)
C14G C -0.13769(19) 0.16147(19) 0.04338(9)
H13G H -0.1274 0.1361 0.0223
C15G C -0.20380(17) 0.14093(17) 0.06248(8)
C16G C -0.22041(19) 0.17578(19) 0.09402(8)
H14G H -0.2649 0.1606 0.1070
C17G C -0.1688(2) 0.23427(19) 0.10595(8)
C18G C -0.10313(18) 0.25680(18) 0.08769(8)
H15G H -0.0695 0.2963 0.0964
O7 O 0.3705(3) 0.0946(3) 0.08055(13)
C19 C 0.3057(5) 0.0897(6) 0.1055(2)
H16 H 0.3190 0.0516 0.1236
H17 H 0.2975 0.1414 0.1163
O8 O 0.2378(3) 0.0664(3) 0.08888(14)
C20 C 0.2592(8) 0.0465(10) 0.0570(4)
H18 H 0.2376 0.0847 0.0405
H19 H 0.2380 -0.0058 0.0513
C21 C 0.3470(4) 0.0453(5) 0.05441(19)
H20 H 0.3677 -0.0083 0.0578
H21 H 0.3647 0.0651 0.0320
O11 O 0.2018(3) 0.7297(3) 0.07439(14)
C25 C 0.1488(4) 0.7566(4) 0.10232(18)
H28 H 0.0983 0.7285 0.1005
H29 H 0.1724 0.7432 0.1246
O12 O 0.1351(4) 0.8364(3) 0.10103(16)
C26 C 0.1915(6) 0.8618(5) 0.0800(2)
H30 H 0.2378 0.8782 0.0934
H31 H 0.1726 0.9075 0.0668
C27 C 0.2131(8) 0.7981(5) 0.0566(3)
H32 H 0.1797 0.7992 0.0359
H33 H 0.2684 0.8031 0.0494
C31 C 0.5000 0.7500 0.89627(18)
H40 H 0.4684 0.7140 0.8821
H41 H 0.5316 0.7860 0.8821
C32 C 0.5362(3) 0.7258(3) 0.95997(13)
H42 H 0.5818 0.7547 0.9691
H43 H 0.5293 0.6763 0.9727
O15 O 0.54202(18) 0.71305(18) 0.92300(9)
C32G C 0.4638(3) 0.7742(3) 0.95997(13)
H42G H 0.4182 0.7453 0.9691
H43G H 0.4707 0.8237 0.9727
O15G O 0.45798(18) 0.78695(18) 0.92300(9)
O9? O 0.2681(12) 0.0473(11) 0.0513(5)
C22? C 0.3234(8) -0.0049(8) 0.0703(3)
H22? H 0.2935 -0.0468 0.0818
H23? H 0.3599 -0.0297 0.0540
O10? O 0.3672(5) 0.0379(6) 0.0951(2)
C23? C 0.3252(10) 0.1036(9) 0.0992(4)
H24? H 0.3596 0.1479 0.1056
H25? H 0.2852 0.0966 0.1172
C24? C 0.2878(9) 0.1182(8) 0.0657(4)
H26? H 0.2403 0.1506 0.0687
H27? H 0.3243 0.1467 0.0505
O13? O 0.2432(4) 0.7051(3) 0.05148(16)
C28? C 0.2686(6) 0.7873(6) 0.0580(3)
H34? H 0.2257 0.8172 0.0689
H35? H 0.3144 0.7879 0.0734
O14? O 0.2882(4) 0.8208(3) 0.02615(16)
C29? C 0.3284(5) 0.7621(5) 0.0117(2)
H36? H 0.3842 0.7649 0.0182
H37? H 0.3246 0.7651 -0.0135
C30? C 0.2931(6) 0.6886(6) 0.0242(2)
H38? H 0.2634 0.6631 0.0056
H39? H 0.3348 0.6522 0.0317
loop_
_geom_bond_atom_site_label_1
_geom_bond_atom_site_label_2
_geom_bond_site_symmetry_1
_geom_bond_site_symmetry_2
Si1 C1 1_555 1_555
O1 H1 1_555 1_555
O2 H2 1_555 1_555
C1 C2 1_555 1_555
C2 H3 1_555 1_555
C3 O1 1_555 1_555
C4 C3 1_555 1_555
H4 C4 1_555 1_555
C5 O2 1_555 1_555
C6 C1 1_555 1_555
H5 C6 1_555 1_555
Si2 C7 1_555 1_555
O3 H6 1_555 1_555
O4 H7 1_555 1_555
C7 C8 1_555 1_555
C8 H8 1_555 1_555
C9 O3 1_555 1_555
C10 C9 1_555 1_555
H9 C10 1_555 1_555
C11 O4 1_555 1_555
C12 C7 1_555 1_555
H10 C12 1_555 1_555
O5 H11 1_555 1_555
O6 H12 1_555 1_555
C13 Si2 1_555 1_555
C14 C13 1_555 1_555
H13 C14 1_555 1_555
C15 O5 1_555 1_555
C16 C15 1_555 1_555
H14 C16 1_555 1_555
C17 O6 1_555 1_555
C18 C13 1_555 1_555
H15 C18 1_555 1_555
O7 C19 1_555 1_555
C19 H16 1_555 1_555
H17 C19 1_555 1_555
O8 C19 1_555 1_555
C20 O8 1_555 1_555
H18 C20 1_555 1_555
H19 C20 1_555 1_555
C21 O7 1_555 1_555
H20 C21 1_555 1_555
H21 C21 1_555 1_555
O11 C25 1_555 1_555
C25 H28 1_555 1_555
H29 C25 1_555 1_555
O12 C25 1_555 1_555
C26 O12 1_555 1_555
H30 C26 1_555 1_555
H31 C26 1_555 1_555
C27 O11 1_555 1_555
H32 C27 1_555 1_555
H33 C27 1_555 1_555
C31 H40 1_555 1_555
H41 C31 1_555 1_555
C32 H42 1_555 1_555
H43 C32 1_555 1_555
O15 C31 1_555 1_555
O1N H1N 1_555 1_555
O1K H1K 1_555 1_555
O1G H1G 1_555 1_555
O2N H2N 1_555 1_555
O2K H2K 1_555 1_555
O2G H2G 1_555 1_555
C1N Si1 1_555 1_555
C1K Si1 1_555 1_555
C1G Si1 1_555 1_555
C2N C1N 1_555 1_555
C2K C1K 1_555 1_555
C2G C1G 1_555 1_555
H3N C2N 1_555 1_555
H3K C2K 1_555 1_555
H3G C2G 1_555 1_555
C3N O1N 1_555 1_555
C3K O1K 1_555 1_555
C3G O1G 1_555 1_555
C4N C3N 1_555 1_555
C4K C3K 1_555 1_555
C4G C3G 1_555 1_555
H4N C4N 1_555 1_555
H4K C4K 1_555 1_555
H4G C4G 1_555 1_555
C5N O2N 1_555 1_555
C5K O2K 1_555 1_555
C5G O2G 1_555 1_555
C6N C1N 1_555 1_555
C6K C1K 1_555 1_555
C6G C1G 1_555 1_555
H5N C6N 1_555 1_555
H5K C6K 1_555 1_555
H5G C6G 1_555 1_555
O3G H6G 1_555 1_555
O4G H7G 1_555 1_555
C7G Si2 1_555 1_555
C8G C7G 1_555 1_555
H8G C8G 1_555 1_555
C9G O3G 1_555 1_555
C10G C9G 1_555 1_555
H9G C10G 1_555 1_555
C11G O4G 1_555 1_555
C12G C7G 1_555 1_555
H10G C12G 1_555 1_555
O5G H11G 1_555 1_555
O6G H12G 1_555 1_555
C13G Si2 1_555 1_555
C14G C13G 1_555 1_555
H13G C14G 1_555 1_555
C15G O5G 1_555 1_555
C16G C15G 1_555 1_555
H14G C16G 1_555 1_555
C17G O6G 1_555 1_555
C18G C13G 1_555 1_555
H15G C18G 1_555 1_555
C32G C32 1_555 1_555
H42G C32G 1_555 1_555
H43G C32G 1_555 1_555
O15G C31 1_555 1_555
C2 C3 1_555 1_555
C4 C5 1_555 1_555
C5 C6 1_555 1_555
C8 C9 1_555 1_555
C10 C11 1_555 1_555
C11 C12 1_555 1_555
C14 C15 1_555 1_555
C16 C17 1_555 1_555
C17 C18 1_555 1_555
C20 C21 1_555 1_555
C26 C27 1_555 1_555
C32 O15 1_555 1_555
C2N C3N 1_555 1_555
C2K C3K 1_555 1_555
C2G C3G 1_555 1_555
C4N C5N 1_555 1_555
C4K C5K 1_555 1_555
C4G C5G 1_555 1_555
C5N C6N 1_555 1_555
C5K C6K 1_555 1_555
C5G C6G 1_555 1_555
C8G C9G 1_555 1_555
C10G C11G 1_555 1_555
C11G C12G 1_555 1_555
C14G C15G 1_555 1_555
C16G C17G 1_555 1_555
C17G C18G 1_555 1_555
C32G O15G 1_555 1_555

#END
