
#######################################################################
#
#                 Cambridge Crystallographic Data Centre
#                                CCDC 
#
#######################################################################
#
# If this CIF has been generated from an entry in the Cambridge 
# Structural Database, then it will include bibliographic, chemical, 
# crystal, experimental, refinement or atomic coordinate data resulting 
# from the CCDC's data processing and validation procedures.
#
#######################################################################

data_LASBUC01
_chemical_name_common            
"1,4-bis(3,3'-Benzylidenedi-indole)benzene ethyl acetate solvate"
_chemical_formula_moiety         'C40 H30 N4,2(C4 H8 O2)'
_chemical_name_systematic        
"1,4-bis(1H,1'H-Methanediyl-bis(indole))benzene ethyl acetate solvate"
_symmetry_cell_setting           triclinic
_symmetry_space_group_name_H-M   'P -1'
_symmetry_Int_Tables_number      2
_space_group_name_Hall           '-P 1'
loop_
_symmetry_equiv_pos_site_id
_symmetry_equiv_pos_as_xyz
1 x,y,z
2 -x,-y,-z
_cell_length_a                   7.1255(9)
_cell_length_b                   12.1249(5)
_cell_length_c                   12.5865(5)
_cell_angle_alpha                68.89(2)
_cell_angle_beta                 82.29(2)
_cell_angle_gamma                84.44(2)
_cell_volume                     1003.89
_exptl_crystal_colour            colorless
_chemical_melting_point          121-123deg.C
_cell_formula_units_Z            1
loop_
_atom_site_label
_atom_site_type_symbol
_atom_site_fract_x
_atom_site_fract_y
_atom_site_fract_z
O1 O 0.0904(4) 0.8535(2) 0.4583(2)
O2 O 0.3464(3) 0.8845(2) 0.3317(2)
C21 C 0.1076(5) 0.7836(3) 0.3027(3)
C22 C 0.1764(4) 0.8426(3) 0.3740(2)
C23 C 0.4308(5) 0.9419(3) 0.3964(3)
C24 C 0.6091(6) 0.9933(4) 0.3271(5)
H16 H 0.2125(5) 0.7434(3) 0.2635(3)
H17 H 0.0065(5) 0.7324(3) 0.3475(3)
H18 H 0.0475(5) 0.8544(3) 0.2315(3)
H19 H 0.3281(5) 1.0048(3) 0.4049(3)
H20 H 0.4381(5) 0.8738(3) 0.4809(3)
H21 H 0.7025(6) 0.9187(4) 0.3176(5)
H22 H 0.680(7) 1.038(4) 0.364(4)
H23 H 0.575(6) 1.049(4) 0.249(4)
N1 N 0.0303(4) 0.5200(2) 1.1657(2)
N2 N -0.0871(3) 0.8211(2) 0.6862(2)
C1 C 0.0016(4) 0.6074(2) 1.0621(2)
C2 C -0.1374(4) 0.6877(2) 1.0774(2)
C3 C -0.1999(4) 0.6478(2) 1.1977(2)
C4 C -0.3368(4) 0.6920(2) 1.2659(2)
C5 C -0.3590(4) 0.6319(3) 1.3823(2)
C6 C -0.2476(4) 0.5294(3) 1.4333(3)
C7 C -0.1127(4) 0.4829(2) 1.3690(2)
C8 C -0.0909(4) 0.5433(2) 1.2507(2)
C9 C -0.0553(4) 0.8494(3) 0.7787(2)
C10 C -0.1820(4) 0.7977(2) 0.8708(2)
C11 C -0.3018(4) 0.7330(2) 0.8328(2)
C12 C -0.4550(4) 0.6611(3) 0.8863(3)
C13 C -0.5394(5) 0.6109(3) 0.8229(3)
C14 C -0.4742(4) 0.6310(3) 0.7078(3)
C15 C -0.3244(4) 0.7007(3) 0.6531(2)
C16 C -0.2386(4) 0.7509(2) 0.7168(2)
C17 C -0.2004(4) 0.8028(2) 0.9899(2)
C18 C -0.0960(4) 0.9055(2) 0.9948(2)
C19 C 0.0999(4) 0.9027(2) 0.9850(2)
C20 C -0.1956(4) 1.0041(2) 1.0102(2)
H1 H 0.1239(4) 0.4550(2) 1.1767(2)
H2 H 0.0084(3) 0.8355(2) 0.6203(2)
H3 H 0.0852(4) 0.6107(2) 0.9868(2)
H4 H -0.4152(4) 0.7652(2) 1.2248(2)
H5 H -0.4546(4) 0.6629(3) 1.4316(2)
H6 H -0.2601(4) 0.4929(3) 1.5194(3)
H7 H -0.0364(4) 0.3970(2) 1.4124(2)
H8 H 0.0507(4) 0.9053(3) 0.7719(2)
H9 H -0.5056(4) 0.6432(3) 0.9719(3)
H10 H -0.6400(5) 0.5461(3) 0.8636(3)
H11 H -0.5501(4) 0.6043(3) 0.6579(3)
H12 H -0.2731(4) 0.7180(3) 0.5702(2)
H13 H -0.3456(4) 0.8187(2) 1.0095(2)
H14 H 0.1890(4) 0.8349(2) 0.9681(2)
H15 H -0.3393(4) 1.0070(2) 1.0270(2)
C20A C 0.1956(4) 0.9959(2) 0.9898(2)
C18A C 0.0960(4) 1.0945(2) 1.0052(2)
C17A C 0.2004(4) 1.1972(2) 1.0101(2)
C2A C 0.1374(4) 1.3123(2) 0.9226(2)
C1A C -0.0016(4) 1.3926(2) 0.9379(2)
N1A N -0.0303(4) 1.4800(2) 0.8343(2)
C8A C 0.0909(4) 1.4567(2) 0.7493(2)
C3A C 0.1999(4) 1.3522(2) 0.8023(2)
C4A C 0.3368(4) 1.3080(2) 0.7341(2)
C5A C 0.3590(4) 1.3681(3) 0.6177(2)
C6A C 0.2476(4) 1.4706(3) 0.5667(3)
C7A C 0.1127(4) 1.5171(2) 0.6310(2)
H7A H 0.0364(4) 1.6030(2) 0.5876(2)
H6A H 0.2601(4) 1.5071(3) 0.4806(3)
H5A H 0.4546(4) 1.3371(3) 0.5684(2)
H4A H 0.4152(4) 1.2348(2) 0.7752(2)
H1A H -0.1239(4) 1.5450(2) 0.8233(2)
H3A H -0.0852(4) 1.3893(2) 1.0132(2)
C10A C 0.1820(4) 1.2023(2) 1.1292(2)
C9A C 0.0553(4) 1.1506(3) 1.2213(2)
N2A N 0.0871(3) 1.1789(2) 1.3138(2)
C16A C 0.2386(4) 1.2491(2) 1.2832(2)
C11A C 0.3018(4) 1.2670(2) 1.1672(2)
C12A C 0.4550(4) 1.3389(3) 1.1137(3)
C13A C 0.5394(5) 1.3891(3) 1.1771(3)
C14A C 0.4742(4) 1.3690(3) 1.2922(3)
C15A C 0.3244(4) 1.2993(3) 1.3469(2)
H12A H 0.2731(4) 1.2820(3) 1.4298(2)
H11A H 0.5501(4) 1.3957(3) 1.3421(3)
H10A H 0.6400(5) 1.4539(3) 1.1364(3)
H9A H 0.5056(4) 1.3568(3) 1.0281(3)
H2A H -0.0084(3) 1.1645(2) 1.3797(2)
H8A H -0.0507(4) 1.0947(3) 1.2281(2)
H13A H 0.3456(4) 1.1813(2) 0.9905(2)
C19A C -0.0999(4) 1.0973(2) 1.0150(2)
H14A H -0.1890(4) 1.1651(2) 1.0319(2)
H15A H 0.3393(4) 0.9930(2) 0.9730(2)
loop_
_geom_bond_atom_site_label_1
_geom_bond_atom_site_label_2
_geom_bond_site_symmetry_1
_geom_bond_site_symmetry_2
O1 C22 1_555 1_555
O2 C22 1_555 1_555
N1 C1 1_555 1_555
N2 C9 1_555 1_555
C1 C2 1_555 1_555
C2 C3 1_555 1_555
C3 C4 1_555 1_555
C4 C5 1_555 1_555
C5 C6 1_555 1_555
C6 C7 1_555 1_555
C7 C8 1_555 1_555
C8 N1 1_555 1_555
C9 C10 1_555 1_555
C10 C11 1_555 1_555
C11 C12 1_555 1_555
C12 C13 1_555 1_555
C13 C14 1_555 1_555
C14 C15 1_555 1_555
C15 C16 1_555 1_555
C16 N2 1_555 1_555
C17 C2 1_555 1_555
C18 C17 1_555 1_555
C19 C18 1_555 1_555
C20 C18 1_555 1_555
C21 C22 1_555 1_555
C23 O2 1_555 1_555
C24 C23 1_555 1_555
H1 N1 1_555 1_555
H2 N2 1_555 1_555
H3 C1 1_555 1_555
H4 C4 1_555 1_555
H5 C5 1_555 1_555
H6 C6 1_555 1_555
H7 C7 1_555 1_555
H8 C9 1_555 1_555
H9 C12 1_555 1_555
H10 C13 1_555 1_555
H11 C14 1_555 1_555
H12 C15 1_555 1_555
H13 C17 1_555 1_555
H14 C19 1_555 1_555
H15 C20 1_555 1_555
H16 C21 1_555 1_555
H17 C21 1_555 1_555
H18 C21 1_555 1_555
H19 C23 1_555 1_555
H20 C23 1_555 1_555
H21 C24 1_555 1_555
H22 C24 1_555 1_555
H23 C24 1_555 1_555
C20A C19 1_555 1_555
C18A C20A 1_555 1_555
C17A C18A 1_555 1_555
C2A C17A 1_555 1_555
C1A C2A 1_555 1_555
N1A C1A 1_555 1_555
C8A N1A 1_555 1_555
C3A C2A 1_555 1_555
C4A C3A 1_555 1_555
C5A C4A 1_555 1_555
C6A C5A 1_555 1_555
C7A C8A 1_555 1_555
H7A C7A 1_555 1_555
H6A C6A 1_555 1_555
H5A C5A 1_555 1_555
H4A C4A 1_555 1_555
H1A N1A 1_555 1_555
H3A C1A 1_555 1_555
C10A C17A 1_555 1_555
C9A C10A 1_555 1_555
N2A C9A 1_555 1_555
C16A N2A 1_555 1_555
C11A C10A 1_555 1_555
C12A C11A 1_555 1_555
C13A C12A 1_555 1_555
C14A C13A 1_555 1_555
C15A C16A 1_555 1_555
H12A C15A 1_555 1_555
H11A C14A 1_555 1_555
H10A C13A 1_555 1_555
H9A C12A 1_555 1_555
H2A N2A 1_555 1_555
H8A C9A 1_555 1_555
H13A C17A 1_555 1_555
C19A C20 1_555 1_555
H14A C19A 1_555 1_555
H15A C20A 1_555 1_555
C3 C8 1_555 1_555
C10 C17 1_555 1_555
C11 C16 1_555 1_555
C18A C19A 1_555 1_555
C8A C3A 1_555 1_555
C6A C7A 1_555 1_555
C16A C11A 1_555 1_555
C14A C15A 1_555 1_555

#END
