
#######################################################################
#
#                 Cambridge Crystallographic Data Centre
#                                CCDC 
#
#######################################################################
#
# If this CIF has been generated from an entry in the Cambridge 
# Structural Database, then it will include bibliographic, chemical, 
# crystal, experimental, refinement or atomic coordinate data resulting 
# from the CCDC's data processing and validation procedures.
#
#######################################################################

data_LASCAJ
_chemical_formula_moiety         'C19 H20 Br1 N2 O3'
_chemical_name_systematic        
2-(4-((6-Bromo-hexa-2,4-diyn-1-yl)oxy)phenyl)-4,4,5,5-tetramethyl-1,3-diazole-1,3-dioxide
_symmetry_cell_setting           monoclinic
_symmetry_space_group_name_H-M   'P 21/n'
_symmetry_Int_Tables_number      14
_space_group_name_Hall           '-P 2yn'
loop_
_symmetry_equiv_pos_site_id
_symmetry_equiv_pos_as_xyz
1 x,y,z
2 1/2-x,1/2+y,1/2-z
3 -x,-y,-z
4 1/2+x,1/2-y,1/2+z
_cell_length_a                   11.021(3)
_cell_length_b                   24.306(9)
_cell_length_c                   7.126(1)
_cell_angle_alpha                90
_cell_angle_beta                 90.44(4)
_cell_angle_gamma                90
_cell_volume                     1908.83
_cell_formula_units_Z            4
loop_
_atom_site_label
_atom_site_type_symbol
_atom_site_fract_x
_atom_site_fract_y
_atom_site_fract_z
Br1 Br 0.4718(4) 0.3457(2) 0.1083(5)
O1 O 0.2898(13) 0.5239(6) 1.0718(18)
O2 O 0.0034(14) 0.5806(7) 1.8458(19)
O3 O 0.2044(14) 0.7268(7) 1.5970(19)
N1 N 0.0388(13) 0.6293(6) 1.8132(19)
N2 N 0.1394(16) 0.6978(8) 1.7046(21)
C1 C 0.2078(17) 0.4856(9) 0.9746(23)
C2 C 0.2724(17) 0.4691(8) 0.8045(22)
C3 C 0.3229(17) 0.4565(8) 0.6645(23)
C4 C 0.3777(17) 0.4414(9) 0.5015(24)
C5 C 0.4294(17) 0.4299(9) 0.3557(24)
C6 C 0.5007(18) 0.4205(9) 0.1819(24)
C7 C 0.2442(18) 0.5478(7) 1.2263(21)
C8 C 0.3188(18) 0.5883(9) 1.3020(24)
C9 C 0.2764(18) 0.6220(9) 1.4546(25)
C10 C 0.1612(18) 0.6089(9) 1.5326(24)
C11 C 0.0943(18) 0.5665(9) 1.4612(24)
C12 C 0.1303(18) 0.5360(9) 1.3063(24)
C13 C 0.1179(18) 0.6443(9) 1.6785(24)
C14 C -0.0093(19) 0.6810(10) 1.9149(25)
C15 C 0.0922(21) 0.7224(10) 1.8818(27)
C16 C -0.1311(20) 0.6920(11) 1.7988(27)
C17 C -0.0384(18) 0.6634(9) 2.1242(24)
C18 C 0.0480(19) 0.7795(9) 1.8606(25)
C19 C 0.1949(19) 0.7142(9) 2.0334(25)
loop_
_geom_bond_atom_site_label_1
_geom_bond_atom_site_label_2
_geom_bond_site_symmetry_1
_geom_bond_site_symmetry_2
Br1 C6 1_555 1_555
O1 C1 1_555 1_555
O2 N1 1_555 1_555
O3 N2 1_555 1_555
N1 C13 1_555 1_555
N2 C13 1_555 1_555
C1 C2 1_555 1_555
C2 C3 1_555 1_555
C3 C4 1_555 1_555
C4 C5 1_555 1_555
C5 C6 1_555 1_555
C7 O1 1_555 1_555
C8 C7 1_555 1_555
C9 C8 1_555 1_555
C10 C9 1_555 1_555
C11 C10 1_555 1_555
C12 C7 1_555 1_555
C13 C10 1_555 1_555
C14 N1 1_555 1_555
C15 N2 1_555 1_555
C16 C14 1_555 1_555
C17 C14 1_555 1_555
C18 C15 1_555 1_555
C19 C15 1_555 1_555
C11 C12 1_555 1_555
C14 C15 1_555 1_555

#END
