
#######################################################################
#
#                 Cambridge Crystallographic Data Centre
#                                CCDC 
#
#######################################################################
#
# If this CIF has been generated from an entry in the Cambridge 
# Structural Database, then it will include bibliographic, chemical, 
# crystal, experimental, refinement or atomic coordinate data resulting 
# from the CCDC's data processing and validation procedures.
#
#######################################################################

data_LASPRT02
_chemical_name_common            'DrugBank: DB00128'
_chemical_formula_moiety         'C4 H7 N1 O4'
_chemical_name_systematic        'L-Aspartic acid'
_symmetry_cell_setting           monoclinic
_symmetry_space_group_name_H-M   'P 21'
_symmetry_Int_Tables_number      4
_space_group_name_Hall           'P 2yb'
loop_
_symmetry_equiv_pos_site_id
_symmetry_equiv_pos_as_xyz
1 x,y,z
2 -x,1/2+y,-z
_cell_length_a                   5.138(3)
_cell_length_b                   6.976(4)
_cell_length_c                   7.618(4)
_cell_angle_alpha                90
_cell_angle_beta                 99.770(7)
_cell_angle_gamma                90
_cell_volume                     269.09
_cell_formula_units_Z            2
loop_
_atom_site_label
_atom_site_type_symbol
_atom_site_fract_x
_atom_site_fract_y
_atom_site_fract_z
N1 N 0.1392(3) 0.6580(2) 0.1814(2)
H1 H 0.1881 0.5485 0.1366
H2 H 0.0021 0.7069 0.1080
H3 H 0.0936 0.6359 0.2872
O1 O 0.6791(2) 0.8633(2) 0.01670(17)
O2 O 0.2550(3) 0.8490(2) -0.10973(16)
O3 O 0.3873(3) 0.8825(2) 0.57949(17)
H4 H 0.3373 0.8804 0.6761
O4 O 0.0153(4) 1.0448(3) 0.4971(2)
C1 C 0.4401(3) 0.8375(2) 0.0197(2)
C2 C 0.3635(3) 0.7965(2) 0.2022(2)
H5 H 0.5152 0.7415 0.2815
C3 C 0.2859(4) 0.9854(3) 0.2798(3)
H6 H 0.4319 1.0744 0.2841
H7 H 0.1368 1.0385 0.1993
C4 C 0.2137(4) 0.9730(2) 0.4636(2)
loop_
_geom_bond_atom_site_label_1
_geom_bond_atom_site_label_2
_geom_bond_site_symmetry_1
_geom_bond_site_symmetry_2
N1 H1 1_555 1_555
H2 N1 1_555 1_555
H3 N1 1_555 1_555
O1 C1 1_555 1_555
O2 C1 1_555 1_555
O3 H4 1_555 1_555
O4 C4 1_555 1_555
C1 C2 1_555 1_555
C2 N1 1_555 1_555
H5 C2 1_555 1_555
C3 C2 1_555 1_555
H6 C3 1_555 1_555
H7 C3 1_555 1_555
C4 O3 1_555 1_555
C3 C4 1_555 1_555

#END
