
#######################################################################
#
#                 Cambridge Crystallographic Data Centre
#                                CCDC 
#
#######################################################################
#
# If this CIF has been generated from an entry in the Cambridge 
# Structural Database, then it will include bibliographic, chemical, 
# crystal, experimental, refinement or atomic coordinate data resulting 
# from the CCDC's data processing and validation procedures.
#
#######################################################################

data_LATJEY
_chemical_formula_moiety         'C25 H22 F1 I2 N1 O2 S1'
_chemical_name_systematic        
4-(4-fluorophenyl)-3-(2-iodoethyl)-2-(iodomethyl)-1-[(4-methylphenyl)sulfonyl]-1,2-dihydroquinoline
_symmetry_cell_setting           triclinic
_symmetry_space_group_name_H-M   'P -1'
_symmetry_Int_Tables_number      2
_space_group_name_Hall           '-P 1'
loop_
_symmetry_equiv_pos_site_id
_symmetry_equiv_pos_as_xyz
1 x,y,z
2 -x,-y,-z
_cell_length_a                   8.7048(10)
_cell_length_b                   10.5461(13)
_cell_length_c                   13.9946(17)
_cell_angle_alpha                82.330(2)
_cell_angle_beta                 79.359(2)
_cell_angle_gamma                79.100(2)
_cell_volume                     1233.37
_exptl_crystal_colour            colorless
_exptl_crystal_description       prismatic
_cell_formula_units_Z            2
loop_
_atom_site_label
_atom_site_type_symbol
_atom_site_fract_x
_atom_site_fract_y
_atom_site_fract_z
I1 I 1.29221(2) 0.10588(2) 1.02685(2)
I2 I 0.70022(3) 0.44115(3) 1.06849(2)
N1 N 1.1751(3) 0.1552(2) 0.81948(18)
O1 O 1.1259(3) -0.0709(2) 0.84027(18)
O2 O 1.3420(3) -0.0039(3) 0.7124(2)
S1 S 1.18529(10) 0.02241(8) 0.76534(6)
F1 F 0.5979(3) 0.7940(2) 0.58820(19)
C1 C 1.2439(4) 0.2615(3) 0.7663(2)
C2 C 1.4063(4) 0.2504(4) 0.7379(3)
H1 H 1.4723 0.1727 0.7525
C3 C 1.4694(4) 0.3546(4) 0.6882(3)
H2 H 1.5783 0.3473 0.6680
C4 C 1.3714(4) 0.4701(4) 0.6681(3)
H3 H 1.4149 0.5403 0.6339
C5 C 1.2098(4) 0.4829(4) 0.6980(2)
H4 H 1.1451 0.5617 0.6843
C6 C 1.1431(4) 0.3780(3) 0.7486(2)
C7 C 0.9709(3) 0.3871(3) 0.7828(2)
C8 C 0.9174(3) 0.2988(3) 0.8528(2)
C9 C 1.0385(3) 0.1919(3) 0.8944(2)
H5 H 0.9881 0.1157 0.9188
C10 C 1.0946(3) 0.2378(3) 0.9795(2)
H6 H 1.0076 0.2468 1.0339
H7 H 1.1248 0.3225 0.9594
C11 C 0.7436(3) 0.2929(3) 0.8864(2)
H8 H 0.7192 0.2205 0.8592
H9 H 0.6827 0.3714 0.8587
C12 C 0.6865(4) 0.2784(3) 0.9954(2)
H10 H 0.7490 0.2016 1.0241
H11 H 0.5772 0.2648 1.0071
C13 C 0.8668(4) 0.4947(3) 0.7334(2)
C14 C 0.8552(4) 0.4918(3) 0.6357(2)
H12 H 0.9103 0.4217 0.6027
C15 C 0.7628(4) 0.5919(4) 0.5875(3)
H13 H 0.7542 0.5893 0.5226
C16 C 0.6845(4) 0.6944(4) 0.6365(3)
C17 C 0.6908(5) 0.6989(4) 0.7326(3)
H14 H 0.6337 0.7685 0.7655
C18 C 0.7826(5) 0.5993(4) 0.7799(3)
H15 H 0.7882 0.6025 0.8452
C19 C 1.0531(4) 0.0628(3) 0.6817(2)
C20 C 0.9071(4) 0.0250(4) 0.7042(3)
H16 H 0.8795 -0.0240 0.7632
C21 C 0.8014(5) 0.0598(4) 0.6393(3)
H17 H 0.7036 0.0321 0.6541
C22 C 0.8386(5) 0.1354(4) 0.5523(3)
C23 C 0.9849(5) 0.1707(4) 0.5309(3)
H18 H 1.0121 0.2200 0.4720
C24 C 1.0930(5) 0.1358(3) 0.5937(3)
H19 H 1.1922 0.1609 0.5774
C25 C 0.7200(6) 0.1761(5) 0.4831(4)
H20 H 0.6455 0.2503 0.5046
H21 H 0.6645 0.1059 0.4821
H22 H 0.7745 0.1980 0.4186
loop_
_geom_bond_atom_site_label_1
_geom_bond_atom_site_label_2
_geom_bond_site_symmetry_1
_geom_bond_site_symmetry_2
I1 C10 1_555 1_555
I2 C12 1_555 1_555
N1 S1 1_555 1_555
O1 S1 1_555 1_555
O2 S1 1_555 1_555
S1 C19 1_555 1_555
F1 C16 1_555 1_555
C1 N1 1_555 1_555
C2 C1 1_555 1_555
H1 C2 1_555 1_555
C3 C2 1_555 1_555
H2 C3 1_555 1_555
C4 C3 1_555 1_555
H3 C4 1_555 1_555
C5 C4 1_555 1_555
H4 C5 1_555 1_555
C6 C1 1_555 1_555
C7 C6 1_555 1_555
C8 C7 1_555 1_555
C9 N1 1_555 1_555
H5 C9 1_555 1_555
C10 C9 1_555 1_555
H6 C10 1_555 1_555
H7 C10 1_555 1_555
C11 C8 1_555 1_555
H8 C11 1_555 1_555
H9 C11 1_555 1_555
C12 C11 1_555 1_555
H10 C12 1_555 1_555
H11 C12 1_555 1_555
C13 C7 1_555 1_555
C14 C13 1_555 1_555
H12 C14 1_555 1_555
C15 C14 1_555 1_555
H13 C15 1_555 1_555
C16 C15 1_555 1_555
C17 C16 1_555 1_555
H14 C17 1_555 1_555
C18 C13 1_555 1_555
H15 C18 1_555 1_555
C19 C20 1_555 1_555
C20 H16 1_555 1_555
C21 C20 1_555 1_555
H17 C21 1_555 1_555
C22 C21 1_555 1_555
C23 C22 1_555 1_555
H18 C23 1_555 1_555
C24 C19 1_555 1_555
H19 C24 1_555 1_555
C25 C22 1_555 1_555
H20 C25 1_555 1_555
H21 C25 1_555 1_555
H22 C25 1_555 1_555
C5 C6 1_555 1_555
C8 C9 1_555 1_555
C17 C18 1_555 1_555
C23 C24 1_555 1_555

#END
