
#######################################################################
#
#                 Cambridge Crystallographic Data Centre
#                                CCDC 
#
#######################################################################
#
# If this CIF has been generated from an entry in the Cambridge 
# Structural Database, then it will include bibliographic, chemical, 
# crystal, experimental, refinement or atomic coordinate data resulting 
# from the CCDC's data processing and validation procedures.
#
#######################################################################

data_LAVQUV
_chemical_formula_moiety         'C1 H6 N3 1+,C17 H27 O3 S1 1-'
_chemical_name_systematic        'Guanidinium 4-undecylbenzenesulfonate'
_symmetry_cell_setting           triclinic
_symmetry_space_group_name_H-M   'P -1'
_symmetry_Int_Tables_number      2
_space_group_name_Hall           '-P 1'
loop_
_symmetry_equiv_pos_site_id
_symmetry_equiv_pos_as_xyz
1 x,y,z
2 -x,-y,-z
_cell_length_a                   7.796(2)
_cell_length_b                   11.825(4)
_cell_length_c                   23.588(7)
_cell_angle_alpha                82.830(5)
_cell_angle_beta                 86.091(5)
_cell_angle_gamma                89.365(5)
_cell_volume                     2152.49
_cell_formula_units_Z            4
loop_
_atom_site_label
_atom_site_type_symbol
_atom_site_fract_x
_atom_site_fract_y
_atom_site_fract_z
S1 S 0.05950(8) 0.75272(6) 0.09269(3)
C2 C -0.1175(4) -0.1896(3) 0.77451(14)
H8 H -0.1226 -0.2721 0.7861
H9 H -0.2168 -0.1530 0.7925
H10 H -0.0113 -0.1594 0.7867
O3 O -0.0874(2) 0.82474(16) 0.07791(7)
C3 C -0.1203(4) -0.1652(3) 0.70947(13)
H13 H -0.0211 -0.2040 0.6917
H14 H -0.2264 -0.1979 0.6975
O4 O 0.2190(2) 0.81681(17) 0.08806(8)
C5 C -0.0162(4) 0.5456(3) 0.24199(12)
H21 H -0.0202 0.4659 0.2540
O6 O 0.0733(2) 0.65292(16) 0.06228(8)
C7 C -0.0310(4) 0.7366(3) 0.26349(12)
H26 H -0.0452 0.7893 0.2907
C9 C -0.1133(4) -0.0398(3) 0.68712(11)
H28 H -0.0082 -0.0072 0.6999
H29 H -0.2133 -0.0015 0.7047
C11 C -0.0031(4) 0.7781(3) 0.20566(12)
H32 H -0.0006 0.8577 0.1936
C12 C -0.1132(4) -0.0120(3) 0.62189(12)
H33 H -0.0128 -0.0498 0.6042
H34 H -0.2180 -0.0447 0.6090
C14 C 0.0122(4) 0.5852(3) 0.18399(11)
H36 H 0.0255 0.5324 0.1567
C18 C -0.0845(4) 0.4247(3) 0.42963(11)
H42 H 0.0093 0.4608 0.4472
H43 H -0.1945 0.4572 0.4437
C19 C -0.0667(4) 0.5818(3) 0.34610(11)
H44 H 0.0224 0.6176 0.3659
H45 H -0.1795 0.6113 0.3597
C20 C -0.0980(4) 0.2681(3) 0.51470(11)
H46 H 0.0004 0.3024 0.5307
H47 H -0.2044 0.3031 0.5301
C27 C -0.0835(4) 0.2983(3) 0.44957(11)
H55 H 0.0243 0.2651 0.4341
H56 H -0.1804 0.2626 0.4334
C31 C 0.0211(3) 0.7005(2) 0.16598(11)
C32 C -0.0626(4) 0.4553(3) 0.36473(11)
H61 H 0.0483 0.4242 0.3505
H62 H -0.1555 0.4187 0.3470
C33 C -0.1068(4) 0.1132(3) 0.60020(11)
H63 H -0.0039 0.1462 0.6142
H64 H -0.2090 0.1505 0.6171
C34 C -0.1014(4) 0.1422(3) 0.53520(11)
H65 H 0.0021 0.1064 0.5182
H66 H -0.2033 0.1085 0.5210
C35 C -0.0388(3) 0.6215(3) 0.28246(11)
O1 O 0.5600(2) 0.68112(17) -0.08697(8)
C1 C 0.4847(5) 1.6890(3) -0.77310(14)
H3 H 0.4827 1.7715 -0.7848
H4 H 0.3937 1.6528 -0.7911
H5 H 0.5966 1.6581 -0.7852
S2 S 0.40208(8) 0.74718(6) -0.09155(3)
O2 O 0.2491(2) 0.67780(17) -0.07624(8)
C4 C 0.4553(4) 1.6650(3) -0.70807(13)
H17 H 0.5462 1.7034 -0.6902
H18 H 0.3434 1.6982 -0.6962
O5 O 0.4033(2) 0.84771(16) -0.06149(7)
C6 C 0.4292(4) 1.5119(3) -0.62111(11)
H24 H 0.5204 1.5497 -0.6032
H25 H 0.3175 1.5444 -0.6084
C8 C 0.3835(4) 0.7630(3) -0.26225(12)
H27 H 0.3802 0.7098 -0.2892
C10 C 0.4562(4) 1.5399(3) -0.68617(11)
H30 H 0.5676 1.5070 -0.6988
H31 H 0.3647 1.5021 -0.7040
C13 C 0.3899(4) 0.7225(3) -0.20476(12)
H35 H 0.3924 0.6428 -0.1927
C15 C 0.4309(4) 1.3862(3) -0.59960(11)
H37 H 0.5410 1.3533 -0.6134
H38 H 0.3373 1.3489 -0.6167
C16 C 0.3961(4) 1.2007(3) -0.44885(11)
H39 H 0.4950 1.2344 -0.4329
H40 H 0.2900 1.2356 -0.4331
C17 C 0.3831(4) 0.9536(3) -0.24132(12)
H41 H 0.3802 1.0333 -0.2534
C21 C 0.3888(4) 0.9141(3) -0.18315(11)
H48 H 0.3901 0.9670 -0.1560
C22 C 0.4098(3) 1.2308(2) -0.51406(11)
H49 H 0.5172 1.1973 -0.5296
H50 H 0.3124 1.1952 -0.5300
C23 C 0.3926(3) 0.7989(2) -0.16496(11)
C25 C 0.3869(3) 1.0437(3) -0.36408(11)
H51 H 0.4901 1.0753 -0.3496
H52 H 0.2846 1.0800 -0.3467
C26 C 0.3800(4) 0.9175(3) -0.34567(11)
H53 H 0.4792 0.8820 -0.3652
H54 H 0.2745 0.8877 -0.3595
C28 C 0.4093(4) 1.3571(3) -0.53436(11)
H57 H 0.5036 1.3933 -0.5171
H58 H 0.2996 1.3902 -0.5203
C30 C 0.3924(4) 1.0739(2) -0.42917(11)
H59 H 0.4958 1.0384 -0.4464
H60 H 0.2904 1.0407 -0.4436
C36 C 0.3816(3) 0.8778(3) -0.28170(11)
N1 N 0.4269(3) 0.2656(2) -0.05824(9)
H1 H 0.3295 0.2282 -0.0572
H2 H 0.5254 0.2286 -0.0594
N3 N 0.2773(3) 0.4331(2) -0.05638(10)
H11 H 0.1797 0.3960 -0.0553
H12 H 0.2767 0.5075 -0.0563
N6 N 0.5710(3) 0.4343(2) -0.05983(10)
H22 H 0.6700 0.3980 -0.0611
H23 H 0.5688 0.5087 -0.0597
C24 C 0.4251(3) 0.3770(3) -0.05809(11)
N2 N 0.2467(3) 1.0618(2) 0.06167(11)
H6 H 0.3460 1.0961 0.0623
H7 H 0.2430 0.9873 0.0622
N4 N 0.1067(3) 1.2342(2) 0.05906(10)
H15 H 0.0105 1.2738 0.0580
H16 H 0.2056 1.2690 0.0595
N5 N -0.0456(3) 1.0684(2) 0.05917(9)
H19 H -0.1426 1.1071 0.0582
H20 H -0.0467 0.9939 0.0597
C29 C 0.1024(3) 1.1224(3) 0.05986(11)
loop_
_geom_bond_atom_site_label_1
_geom_bond_atom_site_label_2
_geom_bond_site_symmetry_1
_geom_bond_site_symmetry_2
S1 O3 1_555 1_555
O1 S2 1_555 1_555
N1 H1 1_555 1_555
H2 N1 1_555 1_555
C1 H3 1_555 1_555
H4 C1 1_555 1_555
H5 C1 1_555 1_555
S2 O2 1_555 1_555
N2 H6 1_555 1_555
H7 N2 1_555 1_555
C2 H8 1_555 1_555
H9 C2 1_555 1_555
H10 C2 1_555 1_555
N3 H11 1_555 1_555
H12 N3 1_555 1_555
C3 C2 1_555 1_555
H13 C3 1_555 1_555
H14 C3 1_555 1_555
O4 S1 1_555 1_555
N4 H15 1_555 1_555
H16 N4 1_555 1_555
C4 C1 1_555 1_555
H17 C4 1_555 1_555
H18 C4 1_555 1_555
O5 S2 1_555 1_555
N5 H19 1_555 1_555
H20 N5 1_555 1_555
C5 H21 1_555 1_555
O6 S1 1_555 1_555
N6 H22 1_555 1_555
H23 N6 1_555 1_555
C6 H24 1_555 1_555
H25 C6 1_555 1_555
C7 H26 1_555 1_555
C8 H27 1_555 1_555
C9 C3 1_555 1_555
H28 C9 1_555 1_555
H29 C9 1_555 1_555
C10 C4 1_555 1_555
H30 C10 1_555 1_555
H31 C10 1_555 1_555
C11 C7 1_555 1_555
H32 C11 1_555 1_555
C12 C9 1_555 1_555
H33 C12 1_555 1_555
H34 C12 1_555 1_555
C13 C8 1_555 1_555
H35 C13 1_555 1_555
C14 C5 1_555 1_555
H36 C14 1_555 1_555
C15 C6 1_555 1_555
H37 C15 1_555 1_555
H38 C15 1_555 1_555
C16 H39 1_555 1_555
H40 C16 1_555 1_555
C17 H41 1_555 1_555
C18 H42 1_555 1_555
H43 C18 1_555 1_555
C19 H44 1_555 1_555
H45 C19 1_555 1_555
C20 H46 1_555 1_555
H47 C20 1_555 1_555
C21 C17 1_555 1_555
H48 C21 1_555 1_555
C22 C16 1_555 1_555
H49 C22 1_555 1_555
H50 C22 1_555 1_555
C23 S2 1_555 1_555
C24 N1 1_555 1_555
C25 H51 1_555 1_555
H52 C25 1_555 1_555
C26 C25 1_555 1_555
H53 C26 1_555 1_555
H54 C26 1_555 1_555
C27 C18 1_555 1_555
H55 C27 1_555 1_555
H56 C27 1_555 1_555
C28 C15 1_555 1_555
H57 C28 1_555 1_555
H58 C28 1_555 1_555
C29 N2 1_555 1_555
C30 C16 1_555 1_555
H59 C30 1_555 1_555
H60 C30 1_555 1_555
C31 S1 1_555 1_555
C32 C18 1_555 1_555
H61 C32 1_555 1_555
H62 C32 1_555 1_555
C33 C12 1_555 1_555
H63 C33 1_555 1_555
H64 C33 1_555 1_555
C34 C20 1_555 1_555
H65 C34 1_555 1_555
H66 C34 1_555 1_555
C35 C5 1_555 1_555
C36 C8 1_555 1_555
N3 C24 1_555 1_555
N4 C29 1_555 1_555
N5 C29 1_555 1_555
N6 C24 1_555 1_555
C6 C10 1_555 1_555
C7 C35 1_555 1_555
C11 C31 1_555 1_555
C13 C23 1_555 1_555
C14 C31 1_555 1_555
C17 C36 1_555 1_555
C19 C32 1_555 1_555
C19 C35 1_555 1_555
C20 C27 1_555 1_555
C21 C23 1_555 1_555
C22 C28 1_555 1_555
C25 C30 1_555 1_555
C26 C36 1_555 1_555
C33 C34 1_555 1_555

#END
