
#######################################################################
#
#                 Cambridge Crystallographic Data Centre
#                                CCDC 
#
#######################################################################
#
# If this CIF has been generated from an entry in the Cambridge 
# Structural Database, then it will include bibliographic, chemical, 
# crystal, experimental, refinement or atomic coordinate data resulting 
# from the CCDC's data processing and validation procedures.
#
#######################################################################

data_LAWBAO
_chemical_name_common            3,5-di-iodosalicylaldehyde-2-aminoethanol
_chemical_formula_moiety         'C9 H9 I2 N1 O2'
_chemical_name_systematic        
2-(((2-Hydroxyethyl)imino)methyl)-4,6-diiodophenol
_chemical_properties_biological  'antibacterial activity'
_symmetry_cell_setting           monoclinic
_symmetry_space_group_name_H-M   'P 21/c'
_symmetry_Int_Tables_number      14
_space_group_name_Hall           '-P 2ybc'
loop_
_symmetry_equiv_pos_site_id
_symmetry_equiv_pos_as_xyz
1 x,y,z
2 -x,1/2+y,1/2-z
3 -x,-y,-z
4 x,1/2-y,1/2+z
_cell_length_a                   16.026(5)
_cell_length_b                   8.693(1)
_cell_length_c                   8.406(3)
_cell_angle_alpha                90
_cell_angle_beta                 102.0010(10)
_cell_angle_gamma                90
_cell_volume                     1145.48
_cell_formula_units_Z            4
loop_
_atom_site_label
_atom_site_type_symbol
_atom_site_fract_x
_atom_site_fract_y
_atom_site_fract_z
I1 I 0.7318(1) 0.6479(1) 0.9344(1)
I2 I 1.0327(1) 0.3566(1) 0.7353(1)
N1 N 0.6359(2) 0.4037(4) 0.2903(4)
O1 O 0.6473(2) 0.5268(3) 0.5802(4)
O2 O 0.5348(2) 0.1221(4) 0.2339(4)
C1 C 0.7161(3) 0.3691(5) 0.3394(5)
C2 C 0.7645(3) 0.4086(5) 0.4959(5)
C3 C 0.7262(2) 0.4883(5) 0.6116(5)
C4 C 0.7816(3) 0.5224(5) 0.7631(5)
C5 C 0.8658(2) 0.4838(5) 0.7965(5)
C6 C 0.9023(3) 0.4071(5) 0.6807(5)
C7 C 0.8524(3) 0.3700(5) 0.5328(6)
C8 C 0.5864(3) 0.3586(5) 0.1321(5)
C9 C 0.5113(3) 0.2582(6) 0.1456(6)
loop_
_geom_bond_atom_site_label_1
_geom_bond_atom_site_label_2
_geom_bond_site_symmetry_1
_geom_bond_site_symmetry_2
I1 C4 1_555 1_555
I2 C6 1_555 1_555
N1 C1 1_555 1_555
O1 C3 1_555 1_555
O2 C9 1_555 1_555
C1 C2 1_555 1_555
C2 C3 1_555 1_555
C3 C4 1_555 1_555
C4 C5 1_555 1_555
C5 C6 1_555 1_555
C6 C7 1_555 1_555
C7 C2 1_555 1_555
C8 N1 1_555 1_555
C9 C8 1_555 1_555

#END
