
#######################################################################
#
#                 Cambridge Crystallographic Data Centre
#                                CCDC 
#
#######################################################################
#
# If this CIF has been generated from an entry in the Cambridge 
# Structural Database, then it will include bibliographic, chemical, 
# crystal, experimental, refinement or atomic coordinate data resulting 
# from the CCDC's data processing and validation procedures.
#
#######################################################################

data_LAWGOF
_chemical_formula_moiety         'C20 H20 N2 O4'
_chemical_name_systematic        
1-Methyl-6-(E-ethoxycarbonylvinyl)-8-benzoyl-2,3-dihydro-1H-imidazo(1,2-a)pyridin-5-one
_symmetry_cell_setting           monoclinic
_symmetry_space_group_name_H-M   'C 2/c'
_symmetry_Int_Tables_number      15
_space_group_name_Hall           '-C 2yn'
loop_
_symmetry_equiv_pos_site_id
_symmetry_equiv_pos_as_xyz
1 x,y,z
2 1/2+x,1/2+y,z
3 -x,y,1/2-z
4 1/2-x,1/2+y,1/2-z
5 -x,-y,-z
6 1/2-x,1/2-y,-z
7 x,-y,1/2+z
8 1/2+x,1/2-y,1/2+z
_cell_length_a                   19.208(4)
_cell_length_b                   11.714(3)
_cell_length_c                   32.336(8)
_cell_angle_alpha                90
_cell_angle_beta                 100.83(2)
_cell_angle_gamma                90
_cell_volume                     7146.09
_exptl_crystal_colour            yellow
_cell_formula_units_Z            16
loop_
_atom_site_label
_atom_site_type_symbol
_atom_site_fract_x
_atom_site_fract_y
_atom_site_fract_z
O1 O 0.4875(3) 0.3114(5) 0.1652(2)
O2 O 0.3617(3) -0.1609(5) 0.1003(2)
O3 O 0.6821(4) 0.2938(6) 0.2891(2)
O4 O 0.6920(3) 0.1141(4) 0.2695(2)
N1 N 0.3111(3) 0.0945(6) 0.0991(2)
N2 N 0.4044(4) 0.1870(5) 0.1342(2)
C1 C 0.2544(5) 0.0126(9) 0.0885(3)
C2 C 0.2980(5) 0.2112(9) 0.0862(3)
C3 C 0.3622(5) 0.2763(8) 0.1087(3)
C4 C 0.3724(4) 0.0827(7) 0.1265(2)
C5 C 0.4048(4) -0.0129(6) 0.1479(2)
C6 C 0.4673(3) 0.0077(5) 0.1762(2)
C7 C 0.4998(4) 0.1142(6) 0.1850(3)
C8 C 0.4674(4) 0.2109(7) 0.1632(2)
C9 C 0.5652(3) 0.12635 0.2160(2)
C10 C 0.5960(4) 0.2183(7) 0.2337(3)
C11 C 0.6601(5) 0.2149(7) 0.2671(3)
C12 C 0.7601(4) 0.0959(6) 0.2996(3)
C13 C 0.7884(4) -0.0221(7) 0.2989(3)
C14 C 0.3855(4) -0.1321(5) 0.1377(1)
C15 C 0.3966(4) -0.2221(7) 0.1709(2)
C16 C 0.4085(4) -0.3347(2) 0.1598(2)
C17 C 0.4167(4) -0.4179(7) 0.1893(3)
C18 C 0.4113(5) -0.3936(8) 0.2301(3)
C19 C 0.3995(4) -0.2836(8) 0.2425(3)
C20 C 0.3920(4) -0.1962(6) 0.2119(1)
O5 O 0.5054(3) 0.2507(5) 0.0546(2)
O6 O 0.6111(3) -0.1690(5) 0.1658(2)
O7 O 0.2854(3) 0.0880(6) 0.0300(2)
O8 O 0.2767(1) -0.0996(6) 0.0297(2)
N3 N 0.6752(3) 0.0640(5) 0.1407(2)
N4 N 0.5864(3) 0.1424(5) 0.0973(2)
C21 C 0.7275(4) -0.0183(8) 0.1607(3)
C22 C 0.6921(5) 0.1852(7) 0.1418(3)
C23 C 0.6318(5) 0.2398(7) 0.1119(3)
C24 C 0.6127(4) 0.0419(7) 0.1152(2)
C25 C 0.5753(4) -0.0596(6) 0.1045(2)
C26 C 0.5137(3) -0.0480(5) 0.0741(2)
C27 C 0.4859(4) 0.0514(6) 0.0560(2)
C28 C 0.5245(3) 0.1562(6) 0.0681(2)
C29 C 0.4185(2) 0.0590(2) 0.0266(2)
C30 C 0.3784(4) -0.0233(7) 0.0087(3)
C31 C 0.3092(4) -0.0014(8) 0.0190(3)
C32 C 0.2039(4) -0.0946(10) 0.0525(3)
C33 C 0.1481(2) -0.1131(13) 0.0271(3)
C34 C 0.5907(4) -0.1681(6) 0.1273(2)
C35 C 0.5778(4) -0.2756(7) 0.1030(3)
C36 C 0.5832(4) -0.2828(6) 0.0617(2)
C37 C 0.5694(4) -0.3843(7) 0.0391(3)
C38 C 0.5506(4) -0.4794(7) 0.0598(3)
C39 C 0.5460(4) -0.4761(7) 0.1011(3)
C40 C 0.5595(4) -0.3733(7) 0.1241(3)
loop_
_geom_bond_atom_site_label_1
_geom_bond_atom_site_label_2
_geom_bond_site_symmetry_1
_geom_bond_site_symmetry_2
O1 C8 1_555 1_555
O2 C14 1_555 1_555
O3 C11 1_555 1_555
O4 C11 1_555 1_555
O5 C28 1_555 1_555
O6 C34 1_555 1_555
O7 C31 1_555 1_555
O8 C31 1_555 1_555
N1 C1 1_555 1_555
N2 C3 1_555 1_555
N3 C21 1_555 1_555
N4 C23 1_555 1_555
C2 N1 1_555 1_555
C3 C2 1_555 1_555
C4 N1 1_555 1_555
C5 C4 1_555 1_555
C6 C5 1_555 1_555
C7 C6 1_555 1_555
C8 N2 1_555 1_555
C9 C7 1_555 1_555
C10 C9 1_555 1_555
C11 C10 1_555 1_555
C12 O4 1_555 1_555
C13 C12 1_555 1_555
C14 C5 1_555 1_555
C15 C14 1_555 1_555
C16 C15 1_555 1_555
C17 C16 1_555 1_555
C18 C17 1_555 1_555
C19 C18 1_555 1_555
C20 C15 1_555 1_555
C22 N3 1_555 1_555
C23 C22 1_555 1_555
C24 N3 1_555 1_555
C25 C24 1_555 1_555
C26 C25 1_555 1_555
C27 C26 1_555 1_555
C28 N4 1_555 1_555
C29 C27 1_555 1_555
C30 C29 1_555 1_555
C31 C30 1_555 1_555
C32 O8 1_555 1_555
C33 C32 1_555 1_555
C34 C25 1_555 1_555
C35 C34 1_555 1_555
C36 C35 1_555 1_555
C37 C36 1_555 1_555
C38 C37 1_555 1_555
C39 C38 1_555 1_555
C40 C35 1_555 1_555
N2 C4 1_555 1_555
N4 C24 1_555 1_555
C7 C8 1_555 1_555
C19 C20 1_555 1_555
C27 C28 1_555 1_555
C39 C40 1_555 1_555

#END
