
#######################################################################
#
#                 Cambridge Crystallographic Data Centre
#                                CCDC 
#
#######################################################################
#
# If this CIF has been generated from an entry in the Cambridge 
# Structural Database, then it will include bibliographic, chemical, 
# crystal, experimental, refinement or atomic coordinate data resulting 
# from the CCDC's data processing and validation procedures.
#
#######################################################################

data_LAWJEB
_chemical_name_common            
N-trifluoroacetyl-N-(m-fluorobenzyl)-6-aminocoumarin
_chemical_formula_moiety         'C18 H11 F4 N1 O3'
_chemical_name_systematic        
2,2,2-trifluoro-N-(3-fluorobenzyl)-N-(2-oxo-2H-chromen-6-yl)acetamide
_symmetry_cell_setting           monoclinic
_symmetry_space_group_name_H-M   'P 21/n'
_symmetry_Int_Tables_number      14
_space_group_name_Hall           '-P 2yn'
loop_
_symmetry_equiv_pos_site_id
_symmetry_equiv_pos_as_xyz
1 x,y,z
2 1/2-x,1/2+y,1/2-z
3 -x,-y,-z
4 1/2+x,1/2-y,1/2+z
_cell_length_a                   11.8849(5)
_cell_length_b                   11.3960(6)
_cell_length_c                   12.5697(6)
_cell_angle_alpha                90
_cell_angle_beta                 106.5827(14)
_cell_angle_gamma                90
_cell_volume                     1631.64
_exptl_crystal_colour            yellow
_chemical_melting_point          '115-117 deg.C'
_cell_formula_units_Z            4
_exptl_crystal_recrystallization_method Ethanol/water
loop_
_atom_site_label
_atom_site_type_symbol
_atom_site_fract_x
_atom_site_fract_y
_atom_site_fract_z
N1 N 0.2656(3) 0.7529(3) 0.8635(3)
O1 O 0.4039(3) 0.8494(4) 0.8066(4)
C1 C 0.3755(4) 0.7735(5) 0.8617(4)
C2 C 0.4738(8) 0.7037(10) 0.9351(8)
F1 F 0.4843(4) 0.7035(5) 1.0378(4)
F2 F 0.5734(4) 0.7153(5) 0.9132(4)
F3 F 0.4546(4) 0.5821(5) 0.9130(4)
C3 C 0.1703(4) 0.8212(4) 0.7879(4)
H1 H 0.1022 0.7709 0.7615
H2 H 0.1952 0.8448 0.7240
C4 C 0.1346(4) 0.9292(4) 0.8394(4)
C5 C 0.0177(5) 0.9571(5) 0.8157(5)
H3 H -0.0387 0.9076 0.7713
C6 C 0.0601(6) 1.1321(5) 0.9248(6)
H4 H 0.0341 1.1984 0.9538
C7 C 0.2145(5) 1.0042(5) 0.9067(5)
H5 H 0.2942 0.9872 0.9243
C8 C -0.0154(5) 1.0572(5) 0.8572(7)
C9 C 0.1774(6) 1.1052(5) 0.9487(6)
H6 H 0.2327 1.1553 0.9936
F4 F -0.1300(4) 1.0860(4) 0.8309(6)
O2 O 0.1236(3) 0.4008(3) 1.1021(3)
O3 O 0.0872(4) 0.3314(4) 1.2520(3)
C10 C 0.1850(4) 0.6016(4) 1.0937(3)
C11 C 0.2226(4) 0.6880(3) 1.0328(3)
H7 H 0.2424 0.7622 1.0632
C12 C 0.2303(4) 0.6637(4) 0.9284(3)
C13 C 0.1706(5) 0.6195(4) 1.2019(4)
H8 H 0.1869 0.6925 1.2360
C14 C 0.1582(4) 0.4914(3) 1.0461(4)
C15 C 0.1977(4) 0.5546(4) 0.8814(4)
H9 H 0.1995 0.5403 0.8091
C16 C 0.1338(5) 0.5322(5) 1.2535(4)
H10 H 0.1214 0.5468 1.3221
C17 C 0.1628(5) 0.4673(4) 0.9399(4)
H11 H 0.1427 0.3935 0.9087
C18 C 0.1126(4) 0.4159(4) 1.2077(4)
loop_
_geom_bond_atom_site_label_1
_geom_bond_atom_site_label_2
_geom_bond_site_symmetry_1
_geom_bond_site_symmetry_2
N1 C1 1_555 1_555
O1 C1 1_555 1_555
C1 C2 1_555 1_555
C2 F1 1_555 1_555
F2 C2 1_555 1_555
F3 C2 1_555 1_555
C3 N1 1_555 1_555
H1 C3 1_555 1_555
H2 C3 1_555 1_555
C4 C3 1_555 1_555
C5 C4 1_555 1_555
H3 C5 1_555 1_555
C6 H4 1_555 1_555
C7 C4 1_555 1_555
H5 C7 1_555 1_555
C8 C5 1_555 1_555
C9 C6 1_555 1_555
H6 C9 1_555 1_555
F4 C8 1_555 1_555
O2 C14 1_555 1_555
O3 C18 1_555 1_555
C10 C11 1_555 1_555
C11 H7 1_555 1_555
C12 N1 1_555 1_555
C13 C10 1_555 1_555
H8 C13 1_555 1_555
C14 C10 1_555 1_555
C15 C12 1_555 1_555
H9 C15 1_555 1_555
C16 C13 1_555 1_555
H10 C16 1_555 1_555
C17 C14 1_555 1_555
H11 C17 1_555 1_555
C18 O2 1_555 1_555
C6 C8 1_555 1_555
C7 C9 1_555 1_555
C11 C12 1_555 1_555
C15 C17 1_555 1_555
C16 C18 1_555 1_555

#END
