
#######################################################################
#
#                 Cambridge Crystallographic Data Centre
#                                CCDC 
#
#######################################################################
#
# If this CIF has been generated from an entry in the Cambridge 
# Structural Database, then it will include bibliographic, chemical, 
# crystal, experimental, refinement or atomic coordinate data resulting 
# from the CCDC's data processing and validation procedures.
#
#######################################################################

data_LAWRAF
_chemical_formula_moiety         'C36 H50 N2 O6'
_chemical_name_systematic        
'4,4,6a,6b,11,11,14b-heptamethyl-1,2,3,4,4a,5,6,6a,6b,7,8,8a,9,10,11,12,12a,14,14a,14b-icosahydropicen-3-yl 3,5-dinitrobenzoate'
_symmetry_cell_setting           monoclinic
_symmetry_space_group_name_H-M   'P 21'
_symmetry_Int_Tables_number      4
_space_group_name_Hall           'P 2yb'
loop_
_symmetry_equiv_pos_site_id
_symmetry_equiv_pos_as_xyz
1 x,y,z
2 -x,1/2+y,-z
_cell_length_a                   14.3817(4)
_cell_length_b                   7.2036(2)
_cell_length_c                   15.6304(5)
_cell_angle_alpha                90
_cell_angle_beta                 93.3070(10)
_cell_angle_gamma                90
_cell_volume                     1616.61
_exptl_crystal_colour            colorless
_exptl_crystal_description       block
_cell_formula_units_Z            2
loop_
_atom_site_label
_atom_site_type_symbol
_atom_site_fract_x
_atom_site_fract_y
_atom_site_fract_z
O1 O 0.11472(9) 0.53181(17) 0.64256(8)
O2 O 0.16714(9) 0.25479(19) 0.69298(8)
O3 O 0.00045(10) -0.0004(2) 0.93842(9)
O4 O -0.11877(12) 0.1459(2) 0.98361(11)
O5 O -0.19196(10) 0.7630(2) 0.87773(9)
O6 O -0.10846(10) 0.8833(2) 0.78091(9)
N1 N -0.05368(11) 0.1313(2) 0.93706(10)
N2 N -0.12958(10) 0.7556(2) 0.82774(9)
C1 C 0.76796(14) 0.4495(3) 0.11723(13)
H1 H 0.8154 0.4568 0.0748
H2 H 0.7456 0.3214 0.1208
H3 H 0.7952 0.4884 0.1733
C2 C 0.64282(15) 0.5099(4) 0.00392(13)
H4 H 0.5900 0.5900 -0.0135
H5 H 0.6211 0.3818 0.0095
H6 H 0.6893 0.5154 -0.0394
C3 C 0.68677(13) 0.5769(3) 0.09047(12)
C4 C 0.72211(14) 0.7783(3) 0.08339(12)
H7 H 0.7589 0.8109 0.1368
H8 H 0.7641 0.7859 0.0355
C5 C 0.64414(15) 0.9192(3) 0.06851(13)
H9 H 0.6120 0.8959 0.0118
H10 H 0.6714 1.0454 0.0675
C6 C 0.57247(13) 0.9116(3) 0.13769(12)
H11 H 0.5186 0.9912 0.1175
C7 C 0.53529(12) 0.7133(3) 0.14730(11)
H12 H 0.5002 0.6812 0.0922
C8 C 0.61495(13) 0.5711(3) 0.15999(12)
H13 H 0.5877 0.4450 0.1611
H14 H 0.6478 0.5935 0.2165
C9 C 0.46682(12) 0.6976(2) 0.21796(11)
C10 C 0.47915(12) 0.8142(2) 0.29995(11)
C11 C 0.52894(13) 1.0015(3) 0.28511(12)
H15 H 0.4826 1.0920 0.2612
H16 H 0.5540 1.0500 0.3410
C12 C 0.60878(13) 0.9867(3) 0.22443(12)
H17 H 0.6369 1.1107 0.2169
H18 H 0.6576 0.9030 0.2496
C13 C 0.54424(12) 0.7023(3) 0.36378(11)
H19 H 0.5226 0.5735 0.3661
H20 H 0.5433 0.7580 0.4209
H21 H 0.6079 0.7047 0.3446
C14 C 0.31641(12) 0.9532(3) 0.26656(11)
H22 H 0.2615 1.0031 0.2930
H23 H 0.2965 0.8675 0.2204
H24 H 0.3519 1.0554 0.2430
C15 C 0.37847(11) 0.8485(2) 0.33492(11)
C16 C 0.33669(11) 0.6551(2) 0.35505(11)
H25 H 0.3854 0.5924 0.3931
C17 C 0.32743(13) 0.5342(3) 0.27381(12)
H26 H 0.3318 0.4021 0.2910
H27 H 0.2648 0.5541 0.2456
C18 C 0.39900(13) 0.5715(3) 0.20988(12)
H28 H 0.3957 0.4988 0.1591
C19 C 0.38626(11) 0.9674(2) 0.41728(11)
H29 H 0.4394 0.9216 0.4545
H30 H 0.3999 1.0972 0.4015
C20 C 0.29810(12) 0.9649(2) 0.46836(11)
H31 H 0.3093 1.0369 0.5219
H32 H 0.2462 1.0245 0.4342
C21 C 0.27097(11) 0.7654(2) 0.49030(10)
H33 H 0.3298 0.7078 0.5151
C22 C 0.15919(12) 0.7272(3) 0.35568(11)
H34 H 0.1035 0.6672 0.3762
H35 H 0.1640 0.6992 0.2947
H36 H 0.1546 0.8618 0.3635
C23 C 0.24648(11) 0.6535(2) 0.40704(10)
C24 C 0.22843(12) 0.4498(2) 0.43280(11)
H37 H 0.2064 0.3793 0.3812
H38 H 0.2878 0.3936 0.4551
C25 C 0.15645(12) 0.4318(2) 0.50084(11)
H39 H 0.0952 0.4771 0.4772
H40 H 0.1496 0.2996 0.5166
C26 C 0.18657(12) 0.5431(2) 0.57955(11)
H41 H 0.2458 0.4896 0.6055
C27 C 0.20121(12) 0.7517(2) 0.56299(11)
C28 C 0.10774(12) 0.8514(3) 0.54375(12)
H42 H 0.1192 0.9747 0.5201
H43 H 0.0751 0.8640 0.5968
H44 H 0.0694 0.7788 0.5021
C29 C 0.24752(12) 0.8369(3) 0.64534(11)
H45 H 0.3122 0.7942 0.6526
H46 H 0.2135 0.7979 0.6948
H47 H 0.2463 0.9726 0.6409
C30 C 0.11538(12) 0.3863(2) 0.69492(11)
C31 C 0.04250(12) 0.4067(2) 0.75947(11)
C32 C 0.02787(12) 0.2612(3) 0.81622(11)
H48 H 0.0632 0.1500 0.8142
C33 C -0.03923(12) 0.2827(3) 0.87549(11)
C34 C -0.09294(12) 0.4412(3) 0.88070(11)
H49 H -0.1393 0.4525 0.9213
C35 C -0.07569(12) 0.5818(3) 0.82393(11)
C36 C -0.00919(12) 0.5697(3) 0.76345(11)
H50 H 0.0009 0.6700 0.7256
loop_
_geom_bond_atom_site_label_1
_geom_bond_atom_site_label_2
_geom_bond_site_symmetry_1
_geom_bond_site_symmetry_2
O1 C26 1_555 1_555
O2 C30 1_555 1_555
O3 N1 1_555 1_555
O4 N1 1_555 1_555
O5 N2 1_555 1_555
O6 N2 1_555 1_555
N1 C33 1_555 1_555
N2 C35 1_555 1_555
C1 H1 1_555 1_555
H2 C1 1_555 1_555
H3 C1 1_555 1_555
C2 H4 1_555 1_555
H5 C2 1_555 1_555
H6 C2 1_555 1_555
C3 C1 1_555 1_555
C4 C3 1_555 1_555
H7 C4 1_555 1_555
H8 C4 1_555 1_555
C5 C4 1_555 1_555
H9 C5 1_555 1_555
H10 C5 1_555 1_555
C6 C5 1_555 1_555
H11 C6 1_555 1_555
C7 C6 1_555 1_555
H12 C7 1_555 1_555
C8 C3 1_555 1_555
H13 C8 1_555 1_555
H14 C8 1_555 1_555
C9 C7 1_555 1_555
C10 C9 1_555 1_555
C11 C10 1_555 1_555
H15 C11 1_555 1_555
H16 C11 1_555 1_555
C12 C6 1_555 1_555
H17 C12 1_555 1_555
H18 C12 1_555 1_555
C13 C10 1_555 1_555
H19 C13 1_555 1_555
H20 C13 1_555 1_555
H21 C13 1_555 1_555
C14 H22 1_555 1_555
H23 C14 1_555 1_555
H24 C14 1_555 1_555
C15 C10 1_555 1_555
C16 C15 1_555 1_555
H25 C16 1_555 1_555
C17 C16 1_555 1_555
H26 C17 1_555 1_555
H27 C17 1_555 1_555
C18 C9 1_555 1_555
H28 C18 1_555 1_555
C19 C15 1_555 1_555
H29 C19 1_555 1_555
H30 C19 1_555 1_555
C20 C19 1_555 1_555
H31 C20 1_555 1_555
H32 C20 1_555 1_555
C21 C20 1_555 1_555
H33 C21 1_555 1_555
C22 H34 1_555 1_555
H35 C22 1_555 1_555
H36 C22 1_555 1_555
C23 C16 1_555 1_555
C24 C23 1_555 1_555
H37 C24 1_555 1_555
H38 C24 1_555 1_555
C25 C24 1_555 1_555
H39 C25 1_555 1_555
H40 C25 1_555 1_555
C26 C25 1_555 1_555
H41 C26 1_555 1_555
C27 C21 1_555 1_555
C28 C27 1_555 1_555
H42 C28 1_555 1_555
H43 C28 1_555 1_555
H44 C28 1_555 1_555
C29 C27 1_555 1_555
H45 C29 1_555 1_555
H46 C29 1_555 1_555
H47 C29 1_555 1_555
C30 O1 1_555 1_555
C31 C30 1_555 1_555
C32 C31 1_555 1_555
H48 C32 1_555 1_555
C33 C32 1_555 1_555
C34 C33 1_555 1_555
H49 C34 1_555 1_555
C35 C34 1_555 1_555
C36 C31 1_555 1_555
H50 C36 1_555 1_555
C2 C3 1_555 1_555
C7 C8 1_555 1_555
C11 C12 1_555 1_555
C14 C15 1_555 1_555
C17 C18 1_555 1_555
C21 C23 1_555 1_555
C22 C23 1_555 1_555
C26 C27 1_555 1_555
C35 C36 1_555 1_555

#END
