
#######################################################################
#
#                 Cambridge Crystallographic Data Centre
#                                CCDC 
#
#######################################################################
#
# If this CIF has been generated from an entry in the Cambridge 
# Structural Database, then it will include bibliographic, chemical, 
# crystal, experimental, refinement or atomic coordinate data resulting 
# from the CCDC's data processing and validation procedures.
#
#######################################################################

data_LAWWUB
_chemical_formula_moiety         'C12 H32 Li1 N4 1+,C8 H23 B4 Si2 1-'
_chemical_name_systematic        
'bis(Tetramethylethylenediamine)-lithium nido-2,3-bis(trimethylsilyl)-2,3-dicarbahexaborane(5)'
_symmetry_cell_setting           monoclinic
_symmetry_space_group_name_H-M   'P 21/c'
_symmetry_Int_Tables_number      14
_space_group_name_Hall           '-P 2ybc'
loop_
_symmetry_equiv_pos_site_id
_symmetry_equiv_pos_as_xyz
1 x,y,z
2 -x,1/2+y,1/2-z
3 -x,-y,-z
4 x,1/2-y,1/2+z
_cell_length_a                   11.606(5)
_cell_length_b                   13.459(6)
_cell_length_c                   20.622(9)
_cell_angle_alpha                90
_cell_angle_beta                 96.94(3)
_cell_angle_gamma                90
_cell_volume                     3197.66
_exptl_crystal_colour            colorless
_cell_formula_units_Z            4
_chemical_properties_physical    'Air- and moisture-sensitive'
loop_
_atom_site_label
_atom_site_type_symbol
_atom_site_fract_x
_atom_site_fract_y
_atom_site_fract_z
Li1 Li 0.4848(11) 0.2353(9) 0.3701(6)
N1 N 0.3741(8) 0.1112(7) 0.3762(4)
N2 N 0.3397(7) 0.3217(6) 0.3436(4)
C9 C 0.2629(11) 0.1566(12) 0.3570(7)
C10 C 0.2531(10) 0.2542(13) 0.3500(7)
C11 C 0.3735(11) 0.0752(10) 0.4404(6)
C12 C 0.3818(9) 0.0271(8) 0.3354(6)
C13 C 0.3306(9) 0.4045(10) 0.3844(6)
C14 C 0.3251(8) 0.3578(8) 0.2790(5)
N3 N 0.6215(6) 0.2164(6) 0.3139(4)
N4 N 0.6073(7) 0.2815(7) 0.4478(4)
C15 C 0.7250(8) 0.2268(8) 0.3637(6)
C16 C 0.7089(9) 0.2953(9) 0.4133(6)
C17 C 0.6214(8) 0.2948(7) 0.2656(5)
C18 C 0.6315(7) 0.1235(7) 0.2796(5)
C19 C 0.6277(9) 0.2066(7) 0.4973(5)
C20 C 0.5902(8) 0.3745(8) 0.4799(5)
H24 H 0.2077 0.1274 0.3824
H25 H 0.2418 0.1363 0.3125
H26 H 0.1863 0.2709 0.3198
H27 H 0.2341 0.2698 0.3928
H28 H 0.3216 0.0198 0.4415
H29 H 0.4508 0.0549 0.4569
H30 H 0.3493 0.1280 0.4669
H31 H 0.3276 -0.0246 0.3423
H32 H 0.3670 0.0505 0.2912
H33 H 0.4594 0.0015 0.3432
H34 H 0.2617 0.4423 0.3708
H35 H 0.3278 0.3799 0.4279
H36 H 0.3975 0.4463 0.3838
H37 H 0.2561 0.3973 0.2705
H38 H 0.3916 0.3976 0.2728
H39 H 0.3205 0.3024 0.2495
H40 H 0.7933 0.2395 0.3431
H41 H 0.7345 0.1637 0.3854
H42 H 0.7779 0.2978 0.4440
H43 H 0.7008 0.3584 0.3915
H44 H 0.6848 0.2850 0.2403
H45 H 0.5496 0.2940 0.2372
H46 H 0.6302 0.3576 0.2876
H47 H 0.6964 0.1233 0.2548
H48 H 0.6412 0.0718 0.3118
H49 H 0.5612 0.1124 0.2509
H50 H 0.6830 0.2296 0.5325
H51 H 0.5553 0.1925 0.5136
H52 H 0.6564 0.1473 0.4790
H53 H 0.6516 0.3867 0.5145
H54 H 0.5887 0.4268 0.4481
H55 H 0.5173 0.3725 0.4974
Si1 Si 0.0878(3) 0.3390(2) 0.0852(2)
Si2 Si 0.0380(2) 0.0859(2) 0.1539(1)
C1 C 0.1947(7) 0.2456(6) 0.1187(4)
C2 C 0.1766(6) 0.1473(6) 0.1467(3)
B1 B 0.2883(9) 0.0886(8) 0.1573(5)
B2 B 0.3921(8) 0.1565(11) 0.1280(5)
B3 B 0.3200(12) 0.2604(9) 0.1086(6)
B4 B 0.2529(8) 0.1510(8) 0.0829(4)
C3 C 0.1554(10) 0.4609(7) 0.0893(7)
C4 C -0.0371(10) 0.3540(8) 0.1301(6)
C5 C 0.0316(8) 0.3154(7) 0.0014(5)
C6 C 0.0608(9) -0.0477(7) 0.1693(6)
C7 C -0.0218(8) 0.1281(10) 0.2257(5)
C8 C -0.0701(8) 0.0957(8) 0.0816(5)
H1 H 0.2993 0.0096 0.1742
H2 H 0.4881 0.1473 0.1212
H3 H 0.3642 0.1429 0.1832
H4 H 0.3311 0.3215 0.0728
H5 H 0.2430 0.1190 0.0310
H6 H 0.2226 0.4572 0.0665
H7 H 0.1044 0.5121 0.0704
H8 H 0.1789 0.4759 0.1345
H9 H -0.0113 0.3671 0.1753
H10 H -0.0839 0.4085 0.1120
H11 H -0.0822 0.2941 0.1264
H12 H 0.0964 0.3076 -0.0230
H13 H -0.0139 0.2556 -0.0016
H14 H -0.0156 0.3700 -0.0160
H15 H 0.1149 -0.0566 0.2079
H16 H -0.0119 -0.0780 0.1756
H17 H 0.0908 -0.0781 0.1327
H18 H -0.0359 0.1982 0.2209
H19 H -0.0936 0.0944 0.2294
H20 H 0.0313 0.1163 0.2644
H21 H -0.0852 0.1642 0.0708
H22 H -0.0384 0.0635 0.0462
H23 H -0.1412 0.0636 0.0890
loop_
_geom_bond_atom_site_label_1
_geom_bond_atom_site_label_2
_geom_bond_site_symmetry_1
_geom_bond_site_symmetry_2
Li1 N1 1_555 1_555
Si1 C1 1_555 1_555
Si2 C2 1_555 1_555
C1 C2 1_555 1_555
C2 B1 1_555 1_555
B1 B2 1_555 1_555
B2 B3 1_555 1_555
B3 C1 1_555 1_555
B4 C1 1_555 1_555
C3 Si1 1_555 1_555
C4 Si1 1_555 1_555
C5 Si1 1_555 1_555
C6 Si2 1_555 1_555
C7 Si2 1_555 1_555
C8 Si2 1_555 1_555
N1 C9 1_555 1_555
N2 Li1 1_555 1_555
C9 C10 1_555 1_555
C10 N2 1_555 1_555
C11 N1 1_555 1_555
C12 N1 1_555 1_555
C13 N2 1_555 1_555
C14 N2 1_555 1_555
N3 Li1 1_555 1_555
N4 Li1 1_555 1_555
C15 N3 1_555 1_555
C16 N4 1_555 1_555
C17 N3 1_555 1_555
C18 N3 1_555 1_555
C19 N4 1_555 1_555
C20 N4 1_555 1_555
H1 B1 1_555 1_555
H2 B2 1_555 1_555
H3 B1 1_555 1_555
H4 B3 1_555 1_555
H5 B4 1_555 1_555
H6 C3 1_555 1_555
H7 C3 1_555 1_555
H8 C3 1_555 1_555
H9 C4 1_555 1_555
H10 C4 1_555 1_555
H11 C4 1_555 1_555
H12 C5 1_555 1_555
H13 C5 1_555 1_555
H14 C5 1_555 1_555
H15 C6 1_555 1_555
H16 C6 1_555 1_555
H17 C6 1_555 1_555
H18 C7 1_555 1_555
H19 C7 1_555 1_555
H20 C7 1_555 1_555
H21 C8 1_555 1_555
H22 C8 1_555 1_555
H23 C8 1_555 1_555
H24 C9 1_555 1_555
H25 C9 1_555 1_555
H26 C10 1_555 1_555
H27 C10 1_555 1_555
H28 C11 1_555 1_555
H29 C11 1_555 1_555
H30 C11 1_555 1_555
H31 C12 1_555 1_555
H32 C12 1_555 1_555
H33 C12 1_555 1_555
H34 C13 1_555 1_555
H35 C13 1_555 1_555
H36 C13 1_555 1_555
H37 C14 1_555 1_555
H38 C14 1_555 1_555
H39 C14 1_555 1_555
H40 C15 1_555 1_555
H41 C15 1_555 1_555
H42 C16 1_555 1_555
H43 C16 1_555 1_555
H44 C17 1_555 1_555
H45 C17 1_555 1_555
H46 C17 1_555 1_555
H47 C18 1_555 1_555
H48 C18 1_555 1_555
H49 C18 1_555 1_555
H50 C19 1_555 1_555
H51 C19 1_555 1_555
H52 C19 1_555 1_555
H53 C20 1_555 1_555
H54 C20 1_555 1_555
H55 C20 1_555 1_555
C2 B4 1_555 1_555
B1 B4 1_555 1_555
B2 B4 1_555 1_555
B2 H3 1_555 1_555
B3 B4 1_555 1_555
C15 C16 1_555 1_555

#END
