
#######################################################################
#
#                 Cambridge Crystallographic Data Centre
#                                CCDC 
#
#######################################################################
#
# If this CIF has been generated from an entry in the Cambridge 
# Structural Database, then it will include bibliographic, chemical, 
# crystal, experimental, refinement or atomic coordinate data resulting 
# from the CCDC's data processing and validation procedures.
#
#######################################################################

data_LAWYOY01
_chemical_name_common            
1-Phenyl-3-(5-phenyl-1H-pyrrol-2-yl)prop-2-yn-1-one
_chemical_formula_moiety         'C19 H13 N1 O1'
_chemical_name_systematic        2-(2-Benzoylethynyl)-5-phenylpyrrole
_symmetry_cell_setting           orthorhombic
_symmetry_space_group_name_H-M   'P n a 21'
_symmetry_Int_Tables_number      33
_space_group_name_Hall           'P 2c -2n'
loop_
_symmetry_equiv_pos_site_id
_symmetry_equiv_pos_as_xyz
1 x,y,z
2 -x,-y,1/2+z
3 1/2+x,1/2-y,z
4 1/2-x,1/2+y,1/2+z
_cell_length_a                   10.684(4)
_cell_length_b                   23.336(11)
_cell_length_c                   5.5288(16)
_cell_angle_alpha                90
_cell_angle_beta                 90
_cell_angle_gamma                90
_cell_volume                     1378.45
_exptl_crystal_colour            orange
_exptl_crystal_description       needle
_chemical_melting_point          '192-194 deg.C'
_cell_formula_units_Z            4
loop_
_atom_site_label
_atom_site_type_symbol
_atom_site_fract_x
_atom_site_fract_y
_atom_site_fract_z
O1 O 0.76280(14) 0.67829(7) 0.4129(3)
N1 N 0.45606(18) 0.87368(8) 0.1037(4)
H1 H 0.3992 0.8564 0.2213
C1 C 0.5619(2) 0.84325(10) 0.0413(4)
C2 C 0.6098(2) 0.86793(10) -0.1684(5)
H2 H 0.6822 0.8558 -0.2541
C3 C 0.5316(2) 0.91389(10) -0.2296(5)
H3 H 0.5417 0.9387 -0.3643
C4 C 0.4367(2) 0.91669(9) -0.0587(4)
C5 C 0.6048(2) 0.79689(10) 0.1794(5)
C6 C 0.6411(2) 0.75708(10) 0.2977(5)
C7 C 0.6694(2) 0.70803(9) 0.4464(5)
C8 C 0.5791(2) 0.69555(9) 0.6447(5)
C9 C 0.4736(2) 0.72951(9) 0.6800(5)
H4 H 0.4563 0.7603 0.5728
C10 C 0.3939(2) 0.71829(10) 0.8717(4)
H5 H 0.3226 0.7419 0.8972
C11 C 0.4176(2) 0.67299(10) 1.0261(5)
H6 H 0.3631 0.6658 1.1585
C12 C 0.5207(2) 0.63790(10) 0.9883(5)
H7 H 0.5359 0.6063 1.0925
C13 C 0.6016(2) 0.64928(9) 0.7973(5)
H8 H 0.6724 0.6254 0.7710
C14 C 0.3354(2) 0.95865(9) -0.0338(4)
C15 C 0.2572(2) 0.96034(10) 0.1678(5)
H9 H 0.2672 0.9327 0.2925
C16 C 0.1652(2) 1.00173(10) 0.1888(5)
H10 H 0.1119 1.0019 0.3265
C17 C 0.1499(2) 1.04298(11) 0.0102(5)
H11 H 0.0879 1.0719 0.0260
C18 C 0.2269(2) 1.04121(10) -0.1916(5)
H12 H 0.2163 1.0688 -0.3163
C19 C 0.3186(2) 1.00009(10) -0.2138(5)
H13 H 0.3709 0.9998 -0.3527
loop_
_geom_bond_atom_site_label_1
_geom_bond_atom_site_label_2
_geom_bond_site_symmetry_1
_geom_bond_site_symmetry_2
O1 C7 1_555 1_555
N1 H1 1_555 1_555
C1 N1 1_555 1_555
C2 C1 1_555 1_555
H2 C2 1_555 1_555
C3 C2 1_555 1_555
H3 C3 1_555 1_555
C4 N1 1_555 1_555
C5 C1 1_555 1_555
C6 C5 1_555 1_555
C7 C6 1_555 1_555
C8 C7 1_555 1_555
C9 C8 1_555 1_555
H4 C9 1_555 1_555
C10 C9 1_555 1_555
H5 C10 1_555 1_555
C11 C10 1_555 1_555
H6 C11 1_555 1_555
C12 C11 1_555 1_555
H7 C12 1_555 1_555
C13 C8 1_555 1_555
H8 C13 1_555 1_555
C14 C4 1_555 1_555
C15 C14 1_555 1_555
H9 C15 1_555 1_555
C16 C15 1_555 1_555
H10 C16 1_555 1_555
C17 C16 1_555 1_555
H11 C17 1_555 1_555
C18 C17 1_555 1_555
H12 C18 1_555 1_555
C19 C14 1_555 1_555
H13 C19 1_555 1_555
C3 C4 1_555 1_555
C12 C13 1_555 1_555
C18 C19 1_555 1_555

#END
