
#######################################################################
#
#                 Cambridge Crystallographic Data Centre
#                                CCDC 
#
#######################################################################
#
# If this CIF has been generated from an entry in the Cambridge 
# Structural Database, then it will include bibliographic, chemical, 
# crystal, experimental, refinement or atomic coordinate data resulting 
# from the CCDC's data processing and validation procedures.
#
#######################################################################

data_LAXYOB
_chemical_name_common            
2-amino-4-(4-isopropylphenyl)-3-cyano-5-oxo-4H,5H-pyrano[3,2c]chromene
_chemical_formula_moiety         'C22 H18 N2 O3'
_chemical_name_systematic        
2-amino-5-oxo-4-(4-isopropylphenyl)-4H,5H-pyrano[3,2-c][1]benzopyran-3-carbonitrile
_symmetry_cell_setting           orthorhombic
_symmetry_space_group_name_H-M   'P b c a'
_symmetry_Int_Tables_number      61
_space_group_name_Hall           '-P 2ac 2ab'
loop_
_symmetry_equiv_pos_site_id
_symmetry_equiv_pos_as_xyz
1 x,y,z
2 1/2-x,-y,1/2+z
3 -x,1/2+y,1/2-z
4 1/2+x,1/2-y,-z
5 -x,-y,-z
6 1/2+x,y,1/2-z
7 x,1/2-y,1/2+z
8 1/2-x,1/2+y,z
_cell_length_a                   14.8532(7)
_cell_length_b                   11.3579(6)
_cell_length_c                   22.1712(18)
_cell_angle_alpha                90
_cell_angle_beta                 90
_cell_angle_gamma                90
_cell_volume                     3740.31
_exptl_crystal_colour            colorless
_exptl_crystal_description       block
_cell_formula_units_Z            8
loop_
_atom_site_label
_atom_site_type_symbol
_atom_site_fract_x
_atom_site_fract_y
_atom_site_fract_z
C1 C 0.14089(17) 0.6946(2) 0.06000(9)
C2 C 0.07861(17) 0.7806(2) 0.05626(8)
C3 C -0.02137(16) 0.7621(2) 0.06168(10)
H1 H -0.0502 0.7903 0.0246
C4 C -0.03804(16) 0.6312(2) 0.06736(10)
C5 C 0.02782(16) 0.5523(2) 0.07542(10)
C6 C -0.12938(18) 0.5891(2) 0.06115(13)
C7 C -0.07789(18) 0.3941(2) 0.08643(12)
C8 C 0.01098(17) 0.4295(2) 0.08677(11)
C9 C 0.07765(19) 0.3466(2) 0.09986(13)
H2 H 0.1380 0.3684 0.1000
C10 C 0.0534(2) 0.2325(2) 0.11244(14)
H3 H 0.0975 0.1771 0.1213
C11 C -0.0358(2) 0.1995(3) 0.11196(15)
H4 H -0.0512 0.1220 0.1207
C12 C -0.1023(2) 0.2792(2) 0.09881(15)
H5 H -0.1625 0.2564 0.0982
C13 C 0.11218(18) 0.8972(2) 0.04761(14)
C14 C -0.06315(17) 0.8269(2) 0.11565(12)
C15 C -0.0265(3) 0.8203(3) 0.17222(15)
H6 H 0.0256 0.7763 0.1781
C16 C -0.0653(3) 0.8776(4) 0.22075(17)
H7 H -0.0385 0.8715 0.2585
C17 C -0.1420(2) 0.9429(3) 0.21456(15)
C18 C -0.1776(2) 0.9513(3) 0.15767(14)
H8 H -0.2294 0.9958 0.1518
C19 C -0.13839(18) 0.8951(2) 0.10859(13)
H9 H -0.1636 0.9040 0.0705
C20 C -0.1840(3) 1.0070(3) 0.26753(18)
H10 H -0.1347 1.0136 0.3025
O1 O 0.11744(11) 0.58008(14) 0.07339(8)
O2 O -0.14573(12) 0.47180(16) 0.07157(9)
O3 O -0.19358(13) 0.64855(18) 0.04692(10)
N1 N 0.23053(15) 0.70270(19) 0.05340(11)
H11 H 0.2521 0.6343 0.0451
H12 H 0.2418 0.7502 0.0241
N2 N 0.14056(19) 0.9894(2) 0.04219(14)
C21 C -0.1672(16) 1.1355(9) 0.2666(11)
H13 H -0.1047 1.1503 0.2744
H14 H -0.2032 1.1729 0.2970
H15 H -0.1830 1.1665 0.2277
C22 C -0.2624(9) 0.9503(12) 0.2942(6)
H16 H -0.3119 0.9539 0.2664
H17 H -0.2784 0.9901 0.3309
H18 H -0.2486 0.8695 0.3029
H19? H -0.1573 0.9899 0.3070
C23? C -0.2004(15) 1.1356(8) 0.2542(10)
H20? H -0.1482 1.1687 0.2352
H21? H -0.2122 1.1767 0.2912
H22? H -0.2513 1.1433 0.2279
C24? C -0.2877(7) 0.9925(18) 0.2636(10)
H23? H -0.3110 1.0432 0.2326
H24? H -0.3144 1.0131 0.3016
H25? H -0.3021 0.9122 0.2541
loop_
_geom_bond_atom_site_label_1
_geom_bond_atom_site_label_2
_geom_bond_site_symmetry_1
_geom_bond_site_symmetry_2
C1 C2 1_555 1_555
C2 C3 1_555 1_555
C3 H1 1_555 1_555
C4 C3 1_555 1_555
C5 C4 1_555 1_555
C6 C4 1_555 1_555
C7 C8 1_555 1_555
C8 C5 1_555 1_555
C9 C8 1_555 1_555
H2 C9 1_555 1_555
C10 C9 1_555 1_555
H3 C10 1_555 1_555
C11 C10 1_555 1_555
H4 C11 1_555 1_555
C12 C7 1_555 1_555
H5 C12 1_555 1_555
C13 C2 1_555 1_555
C14 C3 1_555 1_555
C15 C14 1_555 1_555
H6 C15 1_555 1_555
C16 C15 1_555 1_555
H7 C16 1_555 1_555
C17 C16 1_555 1_555
C18 C17 1_555 1_555
H8 C18 1_555 1_555
C19 C14 1_555 1_555
H9 C19 1_555 1_555
C20 C17 1_555 1_555
H10 C20 1_555 1_555
O1 C1 1_555 1_555
O2 C6 1_555 1_555
O3 C6 1_555 1_555
N1 C1 1_555 1_555
H11 N1 1_555 1_555
H12 N1 1_555 1_555
N2 C13 1_555 1_555
C21 C20 1_555 1_555
H13 C21 1_555 1_555
H14 C21 1_555 1_555
H15 C21 1_555 1_555
C22 C20 1_555 1_555
H16 C22 1_555 1_555
H17 C22 1_555 1_555
H18 C22 1_555 1_555
C5 O1 1_555 1_555
C7 O2 1_555 1_555
C11 C12 1_555 1_555
C18 C19 1_555 1_555

#END
