
#######################################################################
#
#                 Cambridge Crystallographic Data Centre
#                                CCDC 
#
#######################################################################
#
# If this CIF has been generated from an entry in the Cambridge 
# Structural Database, then it will include bibliographic, chemical, 
# crystal, experimental, refinement or atomic coordinate data resulting 
# from the CCDC's data processing and validation procedures.
#
#######################################################################

data_LAYKOO
_chemical_formula_moiety         'C40 H36 B1 N2 O1 P2'
_chemical_name_systematic        
N-{2-[(\l^5^-boranyl)(diphenyl)-\l^5^-phosphanyl]-1-[2-(diphenylphosphanyl)phenyl]ethyl}-4-(methylidyne-\l^5^-azanyl)benzamide
_symmetry_cell_setting           orthorhombic
_symmetry_space_group_name_H-M   'P 21 21 21'
_symmetry_Int_Tables_number      19
_space_group_name_Hall           'P 2ac 2ab'
loop_
_symmetry_equiv_pos_site_id
_symmetry_equiv_pos_as_xyz
1 x,y,z
2 1/2-x,-y,1/2+z
3 1/2+x,1/2-y,-z
4 -x,1/2+y,1/2-z
_cell_length_a                   10.330(2)
_cell_length_b                   14.989(3)
_cell_length_c                   25.081(5)
_cell_angle_alpha                90
_cell_angle_beta                 90
_cell_angle_gamma                90
_cell_volume                     3883.45
_cell_formula_units_Z            4
loop_
_atom_site_label
_atom_site_type_symbol
_atom_site_fract_x
_atom_site_fract_y
_atom_site_fract_z
P1 P -0.13504(18) -0.89991(12) -0.16564(7)
P2 P 0.02691(16) -0.98838(11) -0.00703(7)
O1 O -0.2126(4) -0.7540(3) 0.0101(2)
N1 N 0.0006(5) -0.7674(3) -0.0112(2)
H1 H 0.0784 -0.7573 -0.0006
N2 N 0.0266(6) -0.4812(5) 0.1775(2)
C1 C -0.2248(7) -0.8805(5) -0.2277(3)
C2 C -0.3380(7) -0.8267(5) -0.2236(3)
H2 H -0.3610 -0.8030 -0.1906
C3 C -0.4143(8) -0.8089(5) -0.2675(3)
H3 H -0.4856 -0.7714 -0.2641
C4 C -0.3851(8) -0.8467(6) -0.3165(3)
H4 H -0.4386 -0.8366 -0.3457
C5 C -0.2774(9) -0.8988(6) -0.3217(3)
H5 H -0.2564 -0.9221 -0.3550
C6 C -0.1965(8) -0.9181(6) -0.2772(3)
H6 H -0.1254 -0.9555 -0.2811
C7 C -0.0092(7) -0.9823(5) -0.1839(3)
C8 C 0.0986(7) -0.9644(5) -0.2155(3)
H7 H 0.1091 -0.9085 -0.2309
C9 C 0.1903(9) -1.0307(7) -0.2236(4)
H8 H 0.2609 -1.0191 -0.2455
C10 C 0.1797(10) -1.1092(7) -0.2012(4)
H9 H 0.2448 -1.1510 -0.2069
C11 C 0.0772(12) -1.1322(6) -0.1699(4)
H10 H 0.0719 -1.1886 -0.1546
C12 C -0.0211(10) -1.0681(5) -0.1611(3)
H11 H -0.0930 -1.0823 -0.1406
C13 C -0.0387(7) -0.7969(4) -0.1606(2)
C14 C -0.0082(8) -0.7473(5) -0.2052(3)
H12 H -0.0387 -0.7659 -0.2383
C15 C 0.0662(8) -0.6705(5) -0.2024(3)
H13 H 0.0835 -0.6376 -0.2330
C16 C 0.1140(8) -0.6438(5) -0.1543(3)
H14 H 0.1665 -0.5935 -0.1526
C17 C 0.0855(7) -0.6904(5) -0.1074(3)
H15 H 0.1172 -0.6705 -0.0748
C18 C 0.0082(6) -0.7681(4) -0.1100(3)
C19 C -0.0175(6) -0.8195(4) -0.0596(2)
H16 H -0.1078 -0.8394 -0.0605
C20 C 0.0699(6) -0.9040(4) -0.0573(2)
H17 H 0.1582 -0.8849 -0.0507
H18 H 0.0683 -0.9322 -0.0921
C21 C 0.1337(6) -1.0794(4) -0.0227(3)
C22 C 0.2552(8) -1.0684(5) -0.0469(3)
H19 H 0.2849 -1.0110 -0.0537
C23 C 0.3318(9) -1.1397(5) -0.0607(3)
H20 H 0.4124 -1.1299 -0.0761
C24 C 0.2900(8) -1.2250(6) -0.0520(4)
H21 H 0.3400 -1.2729 -0.0635
C25 C 0.1711(8) -1.2408(6) -0.0256(4)
H22 H 0.1451 -1.2984 -0.0167
C26 C 0.0947(8) -1.1675(5) -0.0134(4)
H23 H 0.0136 -1.1774 0.0017
C27 C 0.0755(7) -0.9446(4) 0.0579(3)
C28 C 0.2032(8) -0.9226(5) 0.0688(3)
H24 H 0.2667 -0.9280 0.0427
C29 C 0.2349(10) -0.8918(6) 0.1202(3)
H25 H 0.3201 -0.8769 0.1282
C30 C 0.1394(12) -0.8835(6) 0.1590(3)
H26 H 0.1607 -0.8632 0.1929
C31 C 0.0139(9) -0.9052(7) 0.1470(3)
H27 H -0.0501 -0.8994 0.1728
C32 C -0.0177(8) -0.9354(6) 0.0973(3)
H28 H -0.1033 -0.9500 0.0897
C33 C -0.0969(6) -0.7346(4) 0.0174(2)
C34 C -0.0573(6) -0.6702(5) 0.0607(2)
C35 C 0.0396(6) -0.6077(5) 0.0523(3)
H29 H 0.0856 -0.6081 0.0204
C36 C 0.0690(7) -0.5436(5) 0.0915(3)
H30 H 0.1335 -0.5012 0.0861
C37 C -0.0019(6) -0.5460(5) 0.1386(3)
C38 C -0.0946(7) -0.6091(5) 0.1479(3)
H31 H -0.1369 -0.6106 0.1807
C39 C -0.1255(7) -0.6699(5) 0.1096(3)
H32 H -0.1913 -0.7111 0.1155
C40 C 0.0501(10) -0.4252(6) 0.2095(4)
B1 B -0.1529(8) -1.0227(6) -0.0074(3)
H33 H -0.1717 -1.0548 -0.0396
H34 H -0.2061 -0.9703 -0.0056
H35 H -0.1704 -1.0602 0.0228
loop_
_geom_bond_atom_site_label_1
_geom_bond_atom_site_label_2
_geom_bond_site_symmetry_1
_geom_bond_site_symmetry_2
P1 C1 1_555 1_555
P2 C20 1_555 1_555
O1 C33 1_555 1_555
N1 H1 1_555 1_555
N2 C37 1_555 1_555
C1 C2 1_555 1_555
C2 H2 1_555 1_555
C3 C2 1_555 1_555
H3 C3 1_555 1_555
C4 C3 1_555 1_555
H4 C4 1_555 1_555
C5 C4 1_555 1_555
H5 C5 1_555 1_555
C6 C1 1_555 1_555
H6 C6 1_555 1_555
C7 P1 1_555 1_555
C8 C7 1_555 1_555
H7 C8 1_555 1_555
C9 C8 1_555 1_555
H8 C9 1_555 1_555
C10 C9 1_555 1_555
H9 C10 1_555 1_555
C11 C10 1_555 1_555
H10 C11 1_555 1_555
C12 C7 1_555 1_555
H11 C12 1_555 1_555
C13 P1 1_555 1_555
C14 C13 1_555 1_555
H12 C14 1_555 1_555
C15 C14 1_555 1_555
H13 C15 1_555 1_555
C16 C15 1_555 1_555
H14 C16 1_555 1_555
C17 C16 1_555 1_555
H15 C17 1_555 1_555
C18 C13 1_555 1_555
C19 N1 1_555 1_555
H16 C19 1_555 1_555
C20 C19 1_555 1_555
H17 C20 1_555 1_555
H18 C20 1_555 1_555
C21 P2 1_555 1_555
C22 C21 1_555 1_555
H19 C22 1_555 1_555
C23 C22 1_555 1_555
H20 C23 1_555 1_555
C24 C23 1_555 1_555
H21 C24 1_555 1_555
C25 C24 1_555 1_555
H22 C25 1_555 1_555
C26 C21 1_555 1_555
H23 C26 1_555 1_555
C27 P2 1_555 1_555
C28 C27 1_555 1_555
H24 C28 1_555 1_555
C29 C28 1_555 1_555
H25 C29 1_555 1_555
C30 C29 1_555 1_555
H26 C30 1_555 1_555
C31 C30 1_555 1_555
H27 C31 1_555 1_555
C32 C27 1_555 1_555
H28 C32 1_555 1_555
C33 N1 1_555 1_555
C34 C33 1_555 1_555
C35 C34 1_555 1_555
H29 C35 1_555 1_555
C36 C35 1_555 1_555
H30 C36 1_555 1_555
C37 C36 1_555 1_555
C38 C37 1_555 1_555
H31 C38 1_555 1_555
C39 C34 1_555 1_555
H32 C39 1_555 1_555
C40 N2 1_555 1_555
B1 P2 1_555 1_555
H33 B1 1_555 1_555
H34 B1 1_555 1_555
H35 B1 1_555 1_555
C5 C6 1_555 1_555
C11 C12 1_555 1_555
C17 C18 1_555 1_555
C18 C19 1_555 1_555
C25 C26 1_555 1_555
C31 C32 1_555 1_555
C38 C39 1_555 1_555

#END
