
#######################################################################
#
#                 Cambridge Crystallographic Data Centre
#                                CCDC 
#
#######################################################################
#
# If this CIF has been generated from an entry in the Cambridge 
# Structural Database, then it will include bibliographic, chemical, 
# crystal, experimental, refinement or atomic coordinate data resulting 
# from the CCDC's data processing and validation procedures.
#
#######################################################################

data_LAYKAA
_chemical_formula_moiety         'C17 H18 Cl2 N4 O1 S1,0.5(C4 H8 O2)'
_chemical_name_systematic        
'1-(4-t-butylphenyl)-1-(3,4-dichloro-1,2-thiazol-5-yl)-2-(1H-1,2,4-triazol-1-yl)ethan-1-ol ethyl acetate solvate'
_symmetry_cell_setting           orthorhombic
_symmetry_space_group_name_H-M   'P b c a'
_symmetry_Int_Tables_number      61
_space_group_name_Hall           '-P 2ac 2ab'
loop_
_symmetry_equiv_pos_site_id
_symmetry_equiv_pos_as_xyz
1 x,y,z
2 1/2-x,-y,1/2+z
3 -x,1/2+y,1/2-z
4 1/2+x,1/2-y,-z
5 -x,-y,-z
6 1/2+x,y,1/2-z
7 x,1/2-y,1/2+z
8 1/2-x,1/2+y,z
_cell_length_a                   12.918(2)
_cell_length_b                   13.602(2)
_cell_length_c                   24.182(4)
_cell_angle_alpha                90
_cell_angle_beta                 90
_cell_angle_gamma                90
_cell_volume                     4249.03
_exptl_crystal_colour            colorless
_exptl_crystal_description       Prism
_cell_formula_units_Z            8
loop_
_atom_site_label
_atom_site_type_symbol
_atom_site_fract_x
_atom_site_fract_y
_atom_site_fract_z
S1 S 1.12805(7) 1.09860(6) 0.67524(4)
Cl1 Cl 1.14401(12) 1.16078(12) 0.51112(7)
Cl2 Cl 1.12105(9) 0.92375(9) 0.53367(4)
O1 O 1.12412(16) 0.92246(19) 0.73049(9)
H1 H 1.0653 0.9305 0.7446
N1 N 1.1367(3) 1.1679(2) 0.61969(18)
N2 N 1.30414(19) 0.88089(19) 0.67060(11)
N3 N 1.3553(2) 0.9283(2) 0.62917(12)
N4 N 1.4452(2) 0.9361(2) 0.70903(12)
C1 C 1.1341(3) 1.1112(3) 0.57663(19)
C2 C 1.1240(3) 1.0089(3) 0.58556(14)
C3 C 1.1188(2) 0.9893(2) 0.64079(13)
C4 C 1.1132(2) 0.8954(2) 0.67408(12)
C5 C 1.2069(2) 0.8310(2) 0.66005(15)
H2 H 1.2041 0.7700 0.6824
H3 H 1.2037 0.8121 0.6206
C6 C 1.3586(2) 0.8858(3) 0.71694(15)
H4 H 1.3383 0.8572 0.7511
C7 C 1.4387(3) 0.9599(3) 0.65451(14)
H5 H 1.4908 0.9967 0.6361
C8 C 1.0131(2) 0.8378(2) 0.66401(12)
C9 C 1.0001(2) 0.7447(2) 0.68721(12)
H6 H 1.0549 0.7164 0.7080
C10 C 0.9084(3) 0.6927(2) 0.68051(13)
H7 H 0.9024 0.6288 0.6961
C11 C 0.8254(3) 0.7320(2) 0.65145(13)
C12 C 0.8388(3) 0.8246(3) 0.62847(15)
H8 H 0.7835 0.8535 0.6083
C13 C 0.9308(3) 0.8760(2) 0.63409(14)
H9 H 0.9376 0.9387 0.6171
C14 C 0.7233(3) 0.6764(3) 0.64502(15)
C15 C 0.6299(5) 0.7570(5) 0.6564(4)
C16 C 0.7026(6) 0.6421(6) 0.5887(3)
C17 C 0.7084(12) 0.6026(9) 0.6913(5)
C18? C 0.6502(8) 0.7200(9) 0.6047(5)
C19? C 0.7604(8) 0.5834(7) 0.6046(4)
C20? C 0.6863(13) 0.6238(13) 0.6962(6)
O2? O 0.3947(7) 0.0510(6) 0.4535(3)
O3? O 0.4942(6) -0.0013(5) 0.5217(2)
C21? C 0.4356(15) 0.1539(10) 0.5399(5)
C22? C 0.4331(6) 0.0692(6) 0.4979(3)
C23? C 0.4724(13) -0.1033(8) 0.5034(6)
C24? C 0.5667(17) -0.1552(18) 0.4811(9)
loop_
_geom_bond_atom_site_label_1
_geom_bond_atom_site_label_2
_geom_bond_site_symmetry_1
_geom_bond_site_symmetry_2
S1 N1 1_555 1_555
Cl1 C1 1_555 1_555
Cl2 C2 1_555 1_555
O1 H1 1_555 1_555
N1 C1 1_555 1_555
N2 N3 1_555 1_555
N3 C7 1_555 1_555
N4 C6 1_555 1_555
C1 C2 1_555 1_555
C2 C3 1_555 1_555
C3 S1 1_555 1_555
C4 O1 1_555 1_555
C5 N2 1_555 1_555
H2 C5 1_555 1_555
H3 C5 1_555 1_555
C6 N2 1_555 1_555
H4 C6 1_555 1_555
C7 N4 1_555 1_555
H5 C7 1_555 1_555
C8 C4 1_555 1_555
C9 C8 1_555 1_555
H6 C9 1_555 1_555
C10 C9 1_555 1_555
H7 C10 1_555 1_555
C11 C10 1_555 1_555
C12 C11 1_555 1_555
H8 C12 1_555 1_555
C13 C8 1_555 1_555
H9 C13 1_555 1_555
C14 C11 1_555 1_555
C15 C14 1_555 1_555
C16 C14 1_555 1_555
C17 C14 1_555 1_555
C3 C4 1_555 1_555
C4 C5 1_555 1_555
C12 C13 1_555 1_555

#END
