
#######################################################################
#
#                 Cambridge Crystallographic Data Centre
#                                CCDC 
#
#######################################################################
#
# If this CIF has been generated from an entry in the Cambridge 
# Structural Database, then it will include bibliographic, chemical, 
# crystal, experimental, refinement or atomic coordinate data resulting 
# from the CCDC's data processing and validation procedures.
#
#######################################################################

data_LAYWUE
_chemical_formula_moiety         'C25 H26 N2 O5 S1'
_chemical_name_systematic        
10,10-dimethyl-3-p-tosyl-4-(2-oxo-2-phenylacetyl)-3,4-diazatricyclo(5.2.1.0^1,5^)decan-2-one
_symmetry_cell_setting           monoclinic
_symmetry_space_group_name_H-M   'P 21'
_symmetry_Int_Tables_number      4
_space_group_name_Hall           'P 2yb'
loop_
_symmetry_equiv_pos_site_id
_symmetry_equiv_pos_as_xyz
1 x,y,z
2 -x,1/2+y,-z
_cell_length_a                   10.1710(5)
_cell_length_b                   11.8910(5)
_cell_length_c                   19.5700(12)
_cell_angle_alpha                90
_cell_angle_beta                 94.097(2)
_cell_angle_gamma                90
_cell_volume                     2360.81
_exptl_crystal_colour            colorless
_exptl_crystal_description       prism
_chemical_melting_point          '179-181 deg.C'
_cell_formula_units_Z            4
_exptl_crystal_recrystallization_method 'ethyl acetate/hexanes'
loop_
_atom_site_label
_atom_site_type_symbol
_atom_site_fract_x
_atom_site_fract_y
_atom_site_fract_z
S1 S 0.5743(3) 0.32573(17) 0.31781(12)
O1 O 0.4269(7) 0.4238(5) 0.4381(4)
O2 O 0.4403(6) 0.2932(5) 0.3134(3)
O3 O 0.6740(7) 0.2566(5) 0.2936(3)
O4 O 0.9580(7) 0.2868(5) 0.4377(4)
O5 O 0.7212(7) 0.1276(5) 0.4749(4)
N1 N 0.6162(6) 0.3372(5) 0.4042(3)
N2 N 0.7519(7) 0.3582(5) 0.4203(3)
C1 C 0.5430(10) 0.4228(6) 0.4407(4)
C2 C 0.6404(8) 0.5012(6) 0.4744(4)
C3 C 0.7713(8) 0.4758(6) 0.4444(5)
H1 H 0.7818 0.5250 0.4062
C4 C 0.8764(8) 0.5033(8) 0.5036(5)
H2 H 0.9164 0.4344 0.5202
H3 H 0.9428 0.5519 0.4874
C5 C 0.7900(9) 0.5602(8) 0.5550(5)
H4 H 0.8383 0.5708 0.5985
C6 C 0.7321(11) 0.6692(8) 0.5239(6)
H5 H 0.6993 0.7150 0.5593
H6 H 0.8003 0.7090 0.5026
C7 C 0.6190(10) 0.6290(7) 0.4711(5)
H7 H 0.6274 0.6543 0.4251
H8 H 0.5314 0.6442 0.4840
C8 C 0.6695(9) 0.4809(7) 0.5541(5)
C9 C 0.5579(11) 0.5222(9) 0.5956(5)
H9 H 0.5815 0.5074 0.6431
H10 H 0.4782 0.4826 0.5817
H11 H 0.5443 0.6014 0.5890
C10 C 0.7009(11) 0.3610(8) 0.5762(5)
H12 H 0.7152 0.3567 0.6252
H13 H 0.7795 0.3384 0.5556
H14 H 0.6296 0.3122 0.5610
C11 C 0.8417(11) 0.2728(7) 0.4265(4)
C12 C 0.7891(9) 0.1500(7) 0.4284(5)
C13 C 0.8384(8) 0.0635(7) 0.3824(5)
C14 C 0.9027(10) 0.0930(9) 0.3253(6)
H15 H 0.9136 0.1708 0.3139
C15 C 0.9493(11) 0.0092(12) 0.2839(6)
H16 H 0.9969 0.0296 0.2451
C16 C 0.9307(14) -0.1023(13) 0.3018(9)
H17 H 0.9597 -0.1584 0.2709
C17 C 0.8651(14) -0.1291(10) 0.3582(8)
H18 H 0.8577 -0.2075 0.3691
C18 C 0.8200(10) -0.0472(8) 0.3975(6)
H19 H 0.7718 -0.0648 0.4365
C19 C 0.5885(10) 0.4626(7) 0.2834(4)
C20 C 0.7078(10) 0.4964(10) 0.2597(5)
H20 H 0.7806 0.4448 0.2626
C21 C 0.7155(13) 0.6055(11) 0.2338(5)
H21 H 0.7942 0.6340 0.2158
C22 C 0.6140(13) 0.6763(9) 0.2319(6)
C23 C 0.4986(11) 0.6398(9) 0.2559(6)
H22 H 0.4275 0.6930 0.2542
C24 C 0.4832(9) 0.5323(7) 0.2815(5)
H23 H 0.4015 0.5081 0.2984
C25 C 0.6240(14) 0.7925(10) 0.2017(7)
H24 H 0.7120 0.8018 0.1878
H25 H 0.6059 0.8496 0.2344
H26 H 0.5623 0.7988 0.1624
S2 S -0.0742(2) 0.73239(15) 0.04640(11)
O6 O 0.0645(6) 0.8647(4) -0.0600(3)
O7 O -0.1140(6) 0.8440(4) 0.0585(3)
O8 O -0.0807(6) 0.6490(4) 0.0982(3)
O9 O 0.2653(6) 0.5140(4) 0.1149(3)
O10 O 0.1897(7) 0.7648(4) 0.1749(3)
N3 N 0.0907(6) 0.7415(4) 0.0323(3)
N4 N 0.1666(6) 0.6420(4) 0.0439(3)
C26 C 0.1211(9) 0.7841(6) -0.0348(4)
C27 C 0.2233(8) 0.7111(5) -0.0625(4)
C28 C 0.2199(8) 0.6031(6) -0.0199(4)
H27 H 0.1592 0.5529 -0.0442
C29 C 0.3616(9) 0.5572(7) -0.0207(5)
H28 H 0.4018 0.5660 0.0249
H29 H 0.3607 0.4790 -0.0330
C30 C 0.4200(9) 0.6375(7) -0.0715(5)
H30 H 0.5137 0.6280 -0.0717
C31 C 0.3470(12) 0.6198(8) -0.1416(6)
H31 H 0.3348 0.5417 -0.1527
H32 H 0.3936 0.6558 -0.1765
C32 C 0.2142(11) 0.6776(7) -0.1373(4)
H33 H 0.1399 0.6283 -0.1455
H34 H 0.2009 0.7443 -0.1646
C33 C 0.3693(8) 0.7510(7) -0.0510(4)
C34 C 0.4032(11) 0.8498(7) -0.0973(6)
H35 H 0.4945 0.8680 -0.0871
H36 H 0.3499 0.9144 -0.0893
H37 H 0.3896 0.8274 -0.1444
C35 C 0.4158(10) 0.7860(8) 0.0222(5)
H38 H 0.5063 0.8088 0.0222
H39 H 0.4085 0.7237 0.0528
H40 H 0.3638 0.8477 0.0369
C36 C 0.1999(8) 0.6001(6) 0.1072(4)
C37 C 0.1676(8) 0.6650(6) 0.1718(4)
C38 C 0.1317(8) 0.5966(6) 0.2311(4)
C39 C 0.0896(9) 0.4857(7) 0.2255(5)
H41 H 0.0732 0.4536 0.1807
C40 C 0.0737(11) 0.4234(9) 0.2840(7)
H42 H 0.0444 0.3468 0.2798
C41 C 0.1002(13) 0.4748(12) 0.3487(6)
H43 H 0.0901 0.4293 0.3885
C42 C 0.1388(12) 0.5830(10) 0.3537(5)
H44 H 0.1546 0.6192 0.3973
C43 C 0.1530(9) 0.6431(8) 0.2953(5)
H45 H 0.1803 0.7202 0.2997
C44 C -0.1488(8) 0.6830(5) -0.0300(4)
C45 C -0.1425(8) 0.5676(6) -0.0459(5)
H46 H -0.1014 0.5175 -0.0123
C46 C -0.1910(9) 0.5319(6) -0.1083(5)
H47 H -0.1814 0.4530 -0.1173
C47 C -0.2500(9) 0.6016(7) -0.1566(5)
C48 C -0.2583(8) 0.7152(6) -0.1408(5)
H48 H -0.2990 0.7660 -0.1741
C49 C -0.2098(8) 0.7564(6) -0.0786(5)
H49 H -0.2136 0.8356 -0.0695
C50 C -0.3052(10) 0.5572(9) -0.2250(5)
H50 H -0.2924 0.4773 -0.2263
H51 H -0.2600 0.5919 -0.2609
H52 H -0.3977 0.5738 -0.2314
loop_
_geom_bond_atom_site_label_1
_geom_bond_atom_site_label_2
_geom_bond_site_symmetry_1
_geom_bond_site_symmetry_2
S1 O2 1_555 1_555
S2 O7 1_555 1_555
O1 C1 1_555 1_555
O3 S1 1_555 1_555
O4 C11 1_555 1_555
O5 C12 1_555 1_555
O6 C26 1_555 1_555
O8 S2 1_555 1_555
O9 C36 1_555 1_555
O10 C37 1_555 1_555
N1 S1 1_555 1_555
N2 N1 1_555 1_555
N3 S2 1_555 1_555
N4 N3 1_555 1_555
C1 N1 1_555 1_555
C2 C1 1_555 1_555
C3 N2 1_555 1_555
H1 C3 1_555 1_555
C4 C3 1_555 1_555
H2 C4 1_555 1_555
H3 C4 1_555 1_555
C5 C4 1_555 1_555
H4 C5 1_555 1_555
C6 C5 1_555 1_555
H5 C6 1_555 1_555
H6 C6 1_555 1_555
C7 C2 1_555 1_555
H7 C7 1_555 1_555
H8 C7 1_555 1_555
C8 C2 1_555 1_555
C9 C8 1_555 1_555
H9 C9 1_555 1_555
H10 C9 1_555 1_555
H11 C9 1_555 1_555
C10 C8 1_555 1_555
H12 C10 1_555 1_555
H13 C10 1_555 1_555
H14 C10 1_555 1_555
C11 N2 1_555 1_555
C12 C11 1_555 1_555
C13 C12 1_555 1_555
C14 C13 1_555 1_555
H15 C14 1_555 1_555
C15 C14 1_555 1_555
H16 C15 1_555 1_555
C16 C15 1_555 1_555
H17 C16 1_555 1_555
C17 C16 1_555 1_555
H18 C17 1_555 1_555
C18 C13 1_555 1_555
H19 C18 1_555 1_555
C19 S1 1_555 1_555
C20 C19 1_555 1_555
H20 C20 1_555 1_555
C21 C20 1_555 1_555
H21 C21 1_555 1_555
C22 C21 1_555 1_555
C23 C22 1_555 1_555
H22 C23 1_555 1_555
C24 C19 1_555 1_555
H23 C24 1_555 1_555
C25 C22 1_555 1_555
H24 C25 1_555 1_555
H25 C25 1_555 1_555
H26 C25 1_555 1_555
C26 N3 1_555 1_555
C27 C26 1_555 1_555
C28 N4 1_555 1_555
H27 C28 1_555 1_555
C29 C28 1_555 1_555
H28 C29 1_555 1_555
H29 C29 1_555 1_555
C30 C29 1_555 1_555
H30 C30 1_555 1_555
C31 C30 1_555 1_555
H31 C31 1_555 1_555
H32 C31 1_555 1_555
C32 C27 1_555 1_555
H33 C32 1_555 1_555
H34 C32 1_555 1_555
C33 C27 1_555 1_555
C34 C33 1_555 1_555
H35 C34 1_555 1_555
H36 C34 1_555 1_555
H37 C34 1_555 1_555
C35 C33 1_555 1_555
H38 C35 1_555 1_555
H39 C35 1_555 1_555
H40 C35 1_555 1_555
C36 N4 1_555 1_555
C37 C36 1_555 1_555
C38 C37 1_555 1_555
C39 C38 1_555 1_555
H41 C39 1_555 1_555
C40 C39 1_555 1_555
H42 C40 1_555 1_555
C41 C40 1_555 1_555
H43 C41 1_555 1_555
C42 C41 1_555 1_555
H44 C42 1_555 1_555
C43 C38 1_555 1_555
H45 C43 1_555 1_555
C44 S2 1_555 1_555
C45 C44 1_555 1_555
H46 C45 1_555 1_555
C46 C45 1_555 1_555
H47 C46 1_555 1_555
C47 C46 1_555 1_555
C48 C47 1_555 1_555
H48 C48 1_555 1_555
C49 C44 1_555 1_555
H49 C49 1_555 1_555
C50 C47 1_555 1_555
H50 C50 1_555 1_555
H51 C50 1_555 1_555
H52 C50 1_555 1_555
C2 C3 1_555 1_555
C5 C8 1_555 1_555
C6 C7 1_555 1_555
C17 C18 1_555 1_555
C23 C24 1_555 1_555
C27 C28 1_555 1_555
C30 C33 1_555 1_555
C31 C32 1_555 1_555
C42 C43 1_555 1_555
C48 C49 1_555 1_555

#END
