
#######################################################################
#
#                 Cambridge Crystallographic Data Centre
#                                CCDC 
#
#######################################################################
#
# If this CIF has been generated from an entry in the Cambridge 
# Structural Database, then it will include bibliographic, chemical, 
# crystal, experimental, refinement or atomic coordinate data resulting 
# from the CCDC's data processing and validation procedures.
#
#######################################################################

data_LAYXAL
_chemical_formula_moiety         'C28 H32 N2 O5 S1'
_chemical_name_systematic        
10,10-dimethyl-3-tosyl-4-((R)-2-hydroxy-2-phenylpentylpent-4-enoyl)-3,4-diazatricyclo(5.2.1.0^1,5^)decan-2-one
_symmetry_cell_setting           monoclinic
_symmetry_space_group_name_H-M   'P 21'
_symmetry_Int_Tables_number      4
_space_group_name_Hall           'P 2yb'
loop_
_symmetry_equiv_pos_site_id
_symmetry_equiv_pos_as_xyz
1 x,y,z
2 -x,1/2+y,-z
_cell_length_a                   8.6460(2)
_cell_length_b                   11.5040(3)
_cell_length_c                   13.4890(3)
_cell_angle_alpha                90
_cell_angle_beta                 104.1250(10)
_cell_angle_gamma                90
_cell_volume                     1301.1
_exptl_crystal_colour            colorless
_exptl_crystal_description       prism
_chemical_melting_point          '194-195 deg.C'
_cell_formula_units_Z            2
_exptl_crystal_recrystallization_method 'ethyl acetate/hexanes'
loop_
_atom_site_label
_atom_site_type_symbol
_atom_site_fract_x
_atom_site_fract_y
_atom_site_fract_z
S1 S 0.88731(8) -0.00642(7) 0.29923(6)
O1 O 0.6770(3) -0.0470(2) 0.45116(18)
O2 O 0.9626(3) 0.0343(2) 0.39886(19)
O3 O 0.9175(3) 0.0496(2) 0.21244(19)
O4 O 0.6356(3) -0.0873(2) 0.10691(18)
O5 O 0.4246(3) 0.1717(2) 0.02942(17)
H1 H 0.3628 0.1983 -0.0216
N1 N 0.6871(3) 0.0031(3) 0.28723(17)
N2 N 0.5909(3) 0.0676(3) 0.20133(18)
C1 C 0.6235(4) 0.0086(3) 0.3745(2)
C2 C 0.4978(4) 0.0980(3) 0.3536(2)
C3 C 0.4522(4) 0.1164(3) 0.2380(3)
H2 H 0.3582 0.0722 0.2082
C4 C 0.4123(5) 0.2475(3) 0.2274(3)
H3 H 0.4931 0.2869 0.2025
H4 H 0.3109 0.2567 0.1794
C5 C 0.4078(4) 0.2801(3) 0.3370(3)
H5 H 0.4007 0.3630 0.3432
C6 C 0.2744(5) 0.2118(4) 0.3666(3)
H6 H 0.2512 0.2468 0.4259
H7 H 0.1808 0.2138 0.3110
C7 C 0.3406(5) 0.0859(4) 0.3867(3)
H8 H 0.2760 0.0266 0.3465
H9 H 0.3652 0.0641 0.4575
C8 C 0.5603(4) 0.2203(3) 0.3991(3)
C9 C 0.7133(5) 0.2629(4) 0.3733(3)
H10 H 0.8034 0.2225 0.4146
H11 H 0.7252 0.3448 0.3863
H12 H 0.7071 0.2481 0.3023
C10 C 0.5862(6) 0.2302(5) 0.5149(3)
H13 H 0.6828 0.1908 0.5481
H14 H 0.4978 0.1956 0.5354
H15 H 0.5941 0.3108 0.5340
C11 C 0.9250(4) -0.1560(3) 0.2963(2)
C12 C 0.9106(5) -0.2246(4) 0.3778(3)
H16 H 0.8736 -0.1900 0.4326
C13 C 0.9497(5) -0.3401(4) 0.3776(3)
H17 H 0.9375 -0.3897 0.4325
C14 C 1.0079(5) -0.3886(4) 0.3008(3)
C15 C 1.0545(7) -0.5159(5) 0.3049(4)
H18 H 1.0907 -0.5331 0.2447
H19 H 0.9650 -0.5645 0.3068
H20 H 1.1392 -0.5302 0.3645
C16 C 1.0226(5) -0.3173(4) 0.2222(3)
H21 H 1.0694 -0.3477 0.1700
C17 C 0.9816(5) -0.2018(4) 0.2187(3)
H22 H 0.9895 -0.1540 0.1618
C18 C 0.5653(4) 0.0030(3) 0.1116(2)
C19 C 0.4528(4) 0.0531(3) 0.0134(2)
C20 C 0.5420(4) 0.0406(4) -0.0717(3)
H23 H 0.6426 0.0801 -0.0522
H24 H 0.5596 -0.0403 -0.0828
C21 C 0.4489(5) 0.0899(5) -0.1710(3)
H25 H 0.3484 0.0563 -0.2051
C22 C 0.4918(8) 0.1799(7) -0.2160(4)
H26 H 0.4284 0.2107 -0.2791
H27 H 0.5918 0.2157 -0.1838
C23 C 0.2965(4) -0.0167(3) -0.0071(2)
C24 C 0.2880(5) -0.1307(4) -0.0440(3)
H28 H 0.3814 -0.1640 -0.0592
C25 C 0.1467(6) -0.1915(4) -0.0615(3)
H29 H 0.1418 -0.2699 -0.0864
C26 C 0.0140(6) -0.1419(5) -0.0407(3)
H30 H -0.0832 -0.1857 -0.0521
C27 C 0.0206(5) -0.0323(4) -0.0041(3)
H31 H -0.0735 0.0021 0.0090
C28 C 0.1604(4) 0.0306(3) 0.0127(3)
H32 H 0.1630 0.1074 0.0408
loop_
_geom_bond_atom_site_label_1
_geom_bond_atom_site_label_2
_geom_bond_site_symmetry_1
_geom_bond_site_symmetry_2
S1 O2 1_555 1_555
O1 C1 1_555 1_555
O3 S1 1_555 1_555
O4 C18 1_555 1_555
O5 H1 1_555 1_555
N1 S1 1_555 1_555
N2 N1 1_555 1_555
C1 N1 1_555 1_555
C2 C1 1_555 1_555
C3 N2 1_555 1_555
H2 C3 1_555 1_555
C4 C3 1_555 1_555
H3 C4 1_555 1_555
H4 C4 1_555 1_555
C5 C4 1_555 1_555
H5 C5 1_555 1_555
C6 C5 1_555 1_555
H6 C6 1_555 1_555
H7 C6 1_555 1_555
C7 C2 1_555 1_555
H8 C7 1_555 1_555
H9 C7 1_555 1_555
C8 C2 1_555 1_555
C9 C8 1_555 1_555
H10 C9 1_555 1_555
H11 C9 1_555 1_555
H12 C9 1_555 1_555
C10 C8 1_555 1_555
H13 C10 1_555 1_555
H14 C10 1_555 1_555
H15 C10 1_555 1_555
C11 S1 1_555 1_555
C12 C11 1_555 1_555
H16 C12 1_555 1_555
C13 C12 1_555 1_555
H17 C13 1_555 1_555
C14 C13 1_555 1_555
C15 C14 1_555 1_555
H18 C15 1_555 1_555
H19 C15 1_555 1_555
H20 C15 1_555 1_555
C16 C14 1_555 1_555
H21 C16 1_555 1_555
C17 C11 1_555 1_555
H22 C17 1_555 1_555
C18 N2 1_555 1_555
C19 O5 1_555 1_555
C20 C19 1_555 1_555
H23 C20 1_555 1_555
H24 C20 1_555 1_555
C21 C20 1_555 1_555
H25 C21 1_555 1_555
C22 C21 1_555 1_555
H26 C22 1_555 1_555
H27 C22 1_555 1_555
C23 C19 1_555 1_555
C24 C23 1_555 1_555
H28 C24 1_555 1_555
C25 C24 1_555 1_555
H29 C25 1_555 1_555
C26 C25 1_555 1_555
H30 C26 1_555 1_555
C27 C26 1_555 1_555
H31 C27 1_555 1_555
C28 C23 1_555 1_555
H32 C28 1_555 1_555
C2 C3 1_555 1_555
C5 C8 1_555 1_555
C6 C7 1_555 1_555
C16 C17 1_555 1_555
C18 C19 1_555 1_555
C27 C28 1_555 1_555

#END
