
#######################################################################
#
#                 Cambridge Crystallographic Data Centre
#                                CCDC 
#
#######################################################################
#
# If this CIF has been generated from an entry in the Cambridge 
# Structural Database, then it will include bibliographic, chemical, 
# crystal, experimental, refinement or atomic coordinate data resulting 
# from the CCDC's data processing and validation procedures.
#
#######################################################################

data_LAZFEA
_chemical_formula_moiety         'C20 H40 K1 O8 1+,0.5(C54 H56 B2 2-),C4 H8 O1'
_chemical_name_systematic        
"(18-crown-6)-bis(tetrahydrofuran)-potassium hemikis(5,5,11,11-tetramesityl-5,5a,11,11a-tetrahydrodibenzo[d,d']benzo[1,2-b:4,5-b']bisborol-5,11-diide) tetrahydrofuran solvate"
_symmetry_cell_setting           triclinic
_symmetry_space_group_name_H-M   'P -1'
_symmetry_Int_Tables_number      2
_space_group_name_Hall           '-P 1'
loop_
_symmetry_equiv_pos_site_id
_symmetry_equiv_pos_as_xyz
1 x,y,z
2 -x,-y,-z
_cell_length_a                   12.8138(5)
_cell_length_b                   13.8501(6)
_cell_length_c                   16.3243(7)
_cell_angle_alpha                104.712(4)
_cell_angle_beta                 107.141(4)
_cell_angle_gamma                103.546(4)
_cell_volume                     2523.51
_exptl_crystal_colour            colorless
_exptl_crystal_description       block
_cell_formula_units_Z            2
loop_
_atom_site_label
_atom_site_type_symbol
_atom_site_fract_x
_atom_site_fract_y
_atom_site_fract_z
K1 K 0.03185(7) 0.72587(6) 0.28634(5)
O1 O 0.2364(3) 0.8371(2) 0.2710(2)
O2 O 0.0177(3) 0.7821(3) 0.1306(2)
O3 O -0.1847(3) 0.7123(3) 0.1669(2)
O4 O -0.1699(3) 0.6163(3) 0.3019(2)
O5 O 0.0463(3) 0.6721(2) 0.4444(2)
O6 O 0.2435(3) 0.7368(3) 0.4034(2)
O7 O 0.0358(3) 0.9214(3) 0.3805(3)
C1 C 0.2236(5) 0.8320(4) 0.1831(4)
H1 H 0.2157 0.7597 0.1467
H2 H 0.2936 0.8822 0.1842
C2 C 0.1182(5) 0.8588(4) 0.1386(3)
H3 H 0.1240 0.9298 0.1761
H4 H 0.1137 0.8600 0.0773
C3 C -0.0847(6) 0.8014(5) 0.0895(4)
H5 H -0.0903 0.8052 0.0287
H6 H -0.0837 0.8700 0.1278
C4 C -0.1873(5) 0.7135(5) 0.0795(3)
H7 H -0.2597 0.7236 0.0461
H8 H -0.1860 0.6448 0.0435
C5 C -0.2760(4) 0.6295(5) 0.1606(4)
H9 H -0.2718 0.5608 0.1276
H10 H -0.3509 0.6352 0.1263
C6 C -0.2678(4) 0.6355(5) 0.2563(4)
H11 H -0.2652 0.7067 0.2906
H12 H -0.3374 0.5827 0.2530
C7 C -0.1592(5) 0.6242(4) 0.3903(4)
H13 H -0.2290 0.5743 0.3896
H14 H -0.1515 0.6969 0.4255
C8 C -0.0520(5) 0.5979(4) 0.4352(4)
H15 H -0.0481 0.5957 0.4961
H16 H -0.0576 0.5271 0.3974
C9 C 0.1456(5) 0.6481(5) 0.4809(3)
H17 H 0.1403 0.5790 0.4402
H18 H 0.1524 0.6424 0.5414
C10 C 0.2498(5) 0.7322(5) 0.4909(3)
H19 H 0.2543 0.8015 0.5306
H20 H 0.3205 0.7169 0.5200
C11 C 0.3392(4) 0.8092(4) 0.4058(4)
H21 H 0.4097 0.7943 0.4363
H22 H 0.3462 0.8813 0.4419
C12 C 0.3305(4) 0.8046(4) 0.3119(4)
H23 H 0.4037 0.8517 0.3147
H24 H 0.3181 0.7314 0.2744
C13 C 0.1473(6) 0.9786(5) 0.4463(5)
H25 H 0.2036 0.9829 0.4157
H26 H 0.1671 0.9402 0.4891
C14 C 0.1294(7) 0.5000(5) 0.2053(6)
H27 H 0.2058 0.5500 0.2169
H28 H 0.1335 0.4790 0.2594
C15 C 0.0919(6) 0.4086(5) 0.1234(4)
H29 H 0.1153 0.3499 0.1382
H30 H 0.1246 0.4267 0.0792
C16 C -0.0361(8) 0.3799(7) 0.0866(6)
H31 H -0.0747 0.3028 0.0690
H32 H -0.0633 0.4018 0.0332
O8 O 0.0422(9) 0.5290(9) 0.2213(7)
C17 C 0.1580(9) 1.0858(7) 0.4983(7)
H33 H 0.2370 1.1365 0.5182
H34 H 0.1362 1.0880 0.5519
C18 C 0.0697(13) 1.1051(9) 0.4244(8)
H35 H 0.0094 1.1231 0.4454
H36 H 0.1077 1.1636 0.4073
C19 C 0.0180(11) 1.0021(8) 0.3449(6)
H37 H -0.0658 0.9874 0.3132
H38 H 0.0562 1.0055 0.3006
C20 C -0.0576(11) 0.4425(10) 0.1676(10)
H39 H -0.1242 0.4667 0.1458
H40 H -0.0755 0.3976 0.2034
C25 C 0.4313(3) 1.4223(3) 0.2617(2)
C26 C 0.3983(3) 1.4155(3) 0.1695(2)
H55 H 0.3699 1.3478 0.1231
C27 C 0.4058(3) 1.5044(3) 0.1445(2)
H56 H 0.3843 1.4967 0.0817
C28 C 0.4445(3) 1.6048(3) 0.2100(2)
H57 H 0.4493 1.6656 0.1925
C29 C 0.4757(3) 1.6147(3) 0.3012(2)
H58 H 0.5030 1.6828 0.3469
C30 C 0.4674(3) 1.5251(3) 0.3265(2)
C31 C 0.4919(3) 1.5240(2) 0.4204(2)
C32 C 0.4979(3) 1.4160(3) 0.4187(2)
H59 H 0.5790 1.4240 0.4226
C33 C 0.5025(3) 1.4008(3) 0.5076(2)
H60 H 0.5014 1.3337 0.5125
C34 C 0.2748(3) 1.2676(3) 0.2658(2)
C35 C 0.2220(3) 1.1841(3) 0.1797(2)
C36 C 0.1020(3) 1.1323(3) 0.1393(2)
H61 H 0.0710 1.0761 0.0822
C37 C 0.0268(3) 1.1597(3) 0.1792(3)
C38 C 0.0777(3) 1.2424(3) 0.2637(2)
H62 H 0.0291 1.2632 0.2937
C39 C 0.1967(3) 1.2956(3) 0.3056(2)
C40 C 0.2889(4) 1.1413(3) 0.1253(2)
H63 H 0.3599 1.1980 0.1379
H64 H 0.2410 1.1148 0.0599
H65 H 0.3090 1.0835 0.1428
C41 C -0.1027(4) 1.1039(4) 0.1344(3)
H66 H -0.1236 1.0653 0.0694
H67 H -0.1424 1.1562 0.1407
H68 H -0.1261 1.0539 0.1640
C42 C 0.2361(3) 1.3840(3) 0.3954(2)
H69 H 0.2869 1.3677 0.4439
H70 H 0.1685 1.3917 0.4093
H71 H 0.2785 1.4503 0.3913
C43 C 0.4873(3) 1.2423(3) 0.2995(2)
C44 C 0.5836(4) 1.2519(3) 0.2718(2)
C45 C 0.6373(4) 1.1747(4) 0.2662(3)
H72 H 0.7002 1.1832 0.2460
C46 C 0.6020(5) 1.0863(4) 0.2891(3)
C47 C 0.5146(4) 1.0795(3) 0.3207(3)
H73 H 0.4913 1.0212 0.3395
C48 C 0.4570(3) 1.1537(3) 0.3270(2)
C49 C 0.3626(4) 1.1339(3) 0.3646(3)
H74 H 0.3584 1.2017 0.3976
H75 H 0.3801 1.0950 0.4065
H76 H 0.2882 1.0920 0.3141
C50 C 0.6635(7) 1.0044(6) 0.2844(5)
H77 H 0.6518 0.9689 0.2206
H78 H 0.6318 0.9519 0.3090
H79 H 0.7466 1.0398 0.3206
C51 C 0.6334(4) 1.3461(4) 0.2485(3)
H80 H 0.5811 1.3412 0.1889
H81 H 0.7092 1.3474 0.2460
H82 H 0.6425 1.4112 0.2954
B1 B 0.4189(4) 1.3296(3) 0.3094(2)
C25A C 0.5687(3) 1.5777(3) 0.7383(2)
C26A C 0.6017(3) 1.5845(3) 0.8305(2)
H55A H 0.6301 1.6522 0.8769
C27A C 0.5942(3) 1.4956(3) 0.8555(2)
H56A H 0.6157 1.5033 0.9183
C28A C 0.5555(3) 1.3952(3) 0.7900(2)
H57A H 0.5507 1.3344 0.8075
C29A C 0.5243(3) 1.3853(3) 0.6988(2)
H58A H 0.4970 1.3172 0.6531
C30A C 0.5326(3) 1.4749(3) 0.6735(2)
C31A C 0.5081(3) 1.4760(2) 0.5796(2)
C32A C 0.5021(3) 1.5840(3) 0.5813(2)
H59A H 0.4210 1.5760 0.5774
C33A C 0.4975(3) 1.5992(3) 0.4924(2)
H60A H 0.4986 1.6663 0.4875
C34A C 0.7252(3) 1.7324(3) 0.7342(2)
C35A C 0.7780(3) 1.8159(3) 0.8203(2)
C36A C 0.8980(3) 1.8677(3) 0.8607(2)
H61A H 0.9290 1.9239 0.9178
C37A C 0.9732(3) 1.8403(3) 0.8208(3)
C38A C 0.9223(3) 1.7576(3) 0.7363(2)
H62A H 0.9709 1.7368 0.7063
C39A C 0.8033(3) 1.7044(3) 0.6944(2)
C40A C 0.7111(4) 1.8587(3) 0.8747(2)
H63A H 0.6401 1.8020 0.8621
H64A H 0.7590 1.8852 0.9401
H65A H 0.6910 1.9165 0.8572
C41A C 1.1027(4) 1.8961(4) 0.8656(3)
H66A H 1.1236 1.9347 0.9306
H67A H 1.1424 1.8438 0.8593
H68A H 1.1261 1.9461 0.8360
C42A C 0.7639(3) 1.6160(3) 0.6046(2)
H69A H 0.7131 1.6323 0.5561
H70A H 0.8315 1.6083 0.5907
H71A H 0.7215 1.5497 0.6087
C43A C 0.5127(3) 1.7577(3) 0.7005(2)
C44A C 0.4164(4) 1.7481(3) 0.7282(2)
C45A C 0.3627(4) 1.8253(4) 0.7338(3)
H72A H 0.2998 1.8168 0.7540
C46A C 0.3980(5) 1.9137(4) 0.7109(3)
C47A C 0.4854(4) 1.9205(3) 0.6793(3)
H73A H 0.5087 1.9788 0.6605
C48A C 0.5430(3) 1.8463(3) 0.6730(2)
C49A C 0.6374(4) 1.8661(3) 0.6354(3)
H74A H 0.6416 1.7983 0.6024
H75A H 0.6199 1.9050 0.5935
H76A H 0.7118 1.9080 0.6859
C50A C 0.3365(7) 1.9956(6) 0.7156(5)
H77A H 0.3482 2.0311 0.7794
H78A H 0.3682 2.0481 0.6910
H79A H 0.2534 1.9602 0.6794
C51A C 0.3666(4) 1.6539(4) 0.7515(3)
H80A H 0.4189 1.6588 0.8111
H81A H 0.2908 1.6526 0.7540
H82A H 0.3575 1.5888 0.7046
B1A B 0.5811(4) 1.6704(3) 0.6906(2)
O10 O -0.3269(7) 0.2013(7) -0.0164(7)
C52 C -0.3635(9) 0.2872(7) -0.0016(6)
H83 H -0.3422 0.3296 -0.0384
H84 H -0.3251 0.3326 0.0637
C53 C -0.4908(10) 0.2513(11) -0.0276(7)
H85 H -0.5324 0.2423 -0.0921
H86 H -0.5151 0.2999 0.0129
C54 C -0.5081(9) 0.1415(10) -0.0120(6)
H87 H -0.5083 0.1485 0.0498
H88 H -0.5814 0.0872 -0.0582
C55 C -0.4088(9) 0.1153(9) -0.0223(8)
H89 H -0.3759 0.0875 0.0260
H90 H -0.4336 0.0591 -0.0823
H41? H 0.2096 0.9654 0.4256
H42? H 0.1585 0.9697 0.5063
H43? H 0.1731 0.4843 0.2584
H44? H 0.1829 0.5604 0.2000
H45? H -0.0727 0.3421 0.1203
H46? H -0.0717 0.3381 0.0204
O9? O 0.0365(12) 0.5463(8) 0.1817(7)
C21? C 0.126(2) 1.1029(16) 0.4429(18)
H47? H 0.1594 1.1561 0.5054
H48? H 0.1640 1.1307 0.4051
C22? C 0.0033(17) 1.0828(14) 0.4040(13)
H49? H -0.0131 1.1275 0.3665
H50? H -0.0274 1.0991 0.4530
C23? C -0.0528(18) 0.9664(15) 0.3450(13)
H51? H -0.1255 0.9343 0.3524
H52? H -0.0695 0.9563 0.2796
C24? C -0.0387(18) 0.4948(15) 0.1075(15)
H53? H -0.0237 0.5231 0.0606
H54? H -0.1152 0.4968 0.1081
loop_
_geom_bond_atom_site_label_1
_geom_bond_atom_site_label_2
_geom_bond_site_symmetry_1
_geom_bond_site_symmetry_2
K1 O1 1_555 1_555
O1 C1 1_555 1_555
O2 K1 1_555 1_555
O3 K1 1_555 1_555
O4 K1 1_555 1_555
O5 K1 1_555 1_555
O6 K1 1_555 1_555
O7 K1 1_555 1_555
C1 H1 1_555 1_555
H2 C1 1_555 1_555
C2 O2 1_555 1_555
H3 C2 1_555 1_555
H4 C2 1_555 1_555
C3 O2 1_555 1_555
H5 C3 1_555 1_555
H6 C3 1_555 1_555
C4 O3 1_555 1_555
H7 C4 1_555 1_555
H8 C4 1_555 1_555
C5 O3 1_555 1_555
H9 C5 1_555 1_555
H10 C5 1_555 1_555
C6 O4 1_555 1_555
H11 C6 1_555 1_555
H12 C6 1_555 1_555
C7 O4 1_555 1_555
H13 C7 1_555 1_555
H14 C7 1_555 1_555
C8 O5 1_555 1_555
H15 C8 1_555 1_555
H16 C8 1_555 1_555
C9 O5 1_555 1_555
H17 C9 1_555 1_555
H18 C9 1_555 1_555
C10 O6 1_555 1_555
H19 C10 1_555 1_555
H20 C10 1_555 1_555
C11 O6 1_555 1_555
H21 C11 1_555 1_555
H22 C11 1_555 1_555
C12 O1 1_555 1_555
H23 C12 1_555 1_555
H24 C12 1_555 1_555
C13 O7 1_555 1_555
H25 C13 1_555 1_555
H26 C13 1_555 1_555
C14 H27 1_555 1_555
H28 C14 1_555 1_555
C15 C14 1_555 1_555
H29 C15 1_555 1_555
H30 C15 1_555 1_555
C16 C15 1_555 1_555
H31 C16 1_555 1_555
H32 C16 1_555 1_555
O8 K1 1_555 1_555
C17 C13 1_555 1_555
H33 C17 1_555 1_555
H34 C17 1_555 1_555
C18 C17 1_555 1_555
H35 C18 1_555 1_555
H36 C18 1_555 1_555
C19 O7 1_555 1_555
H37 C19 1_555 1_555
H38 C19 1_555 1_555
C20 C16 1_555 1_555
H39 C20 1_555 1_555
H40 C20 1_555 1_555
C25 C26 1_555 1_555
C26 H55 1_555 1_555
C27 C26 1_555 1_555
H56 C27 1_555 1_555
C28 C27 1_555 1_555
H57 C28 1_555 1_555
C29 C28 1_555 1_555
H58 C29 1_555 1_555
C30 C25 1_555 1_555
C31 C30 1_555 1_555
C32 C31 1_555 1_555
H59 C32 1_555 1_555
C33 C32 1_555 1_555
H60 C33 1_555 1_555
C34 C35 1_555 1_555
C35 C36 1_555 1_555
C36 H61 1_555 1_555
C37 C36 1_555 1_555
C38 C37 1_555 1_555
H62 C38 1_555 1_555
C39 C34 1_555 1_555
C40 C35 1_555 1_555
H63 C40 1_555 1_555
H64 C40 1_555 1_555
H65 C40 1_555 1_555
C41 C37 1_555 1_555
H66 C41 1_555 1_555
H67 C41 1_555 1_555
H68 C41 1_555 1_555
C42 C39 1_555 1_555
H69 C42 1_555 1_555
H70 C42 1_555 1_555
H71 C42 1_555 1_555
C43 C44 1_555 1_555
C44 C45 1_555 1_555
C45 H72 1_555 1_555
C46 C45 1_555 1_555
C47 C46 1_555 1_555
H73 C47 1_555 1_555
C48 C43 1_555 1_555
C49 C48 1_555 1_555
H74 C49 1_555 1_555
H75 C49 1_555 1_555
H76 C49 1_555 1_555
C50 C46 1_555 1_555
H77 C50 1_555 1_555
H78 C50 1_555 1_555
H79 C50 1_555 1_555
C51 C44 1_555 1_555
H80 C51 1_555 1_555
H81 C51 1_555 1_555
H82 C51 1_555 1_555
B1 C25 1_555 1_555
O10 C52 1_555 1_555
C52 H83 1_555 1_555
H84 C52 1_555 1_555
C53 C52 1_555 1_555
H85 C53 1_555 1_555
H86 C53 1_555 1_555
C54 C53 1_555 1_555
H87 C54 1_555 1_555
H88 C54 1_555 1_555
C55 O10 1_555 1_555
H89 C55 1_555 1_555
H90 C55 1_555 1_555
C25A C26A 1_555 1_555
C26A H55A 1_555 1_555
C27A C26A 1_555 1_555
H56A C27A 1_555 1_555
C28A C27A 1_555 1_555
H57A C28A 1_555 1_555
C29A C28A 1_555 1_555
H58A C29A 1_555 1_555
C30A C25A 1_555 1_555
C31A C33 1_555 1_555
C32A C31A 1_555 1_555
H59A C32A 1_555 1_555
C33A C31 1_555 1_555
H60A C33A 1_555 1_555
C34A C35A 1_555 1_555
C35A C36A 1_555 1_555
C36A H61A 1_555 1_555
C37A C36A 1_555 1_555
C38A C37A 1_555 1_555
H62A C38A 1_555 1_555
C39A C34A 1_555 1_555
C40A C35A 1_555 1_555
H63A C40A 1_555 1_555
H64A C40A 1_555 1_555
H65A C40A 1_555 1_555
C41A C37A 1_555 1_555
H66A C41A 1_555 1_555
H67A C41A 1_555 1_555
H68A C41A 1_555 1_555
C42A C39A 1_555 1_555
H69A C42A 1_555 1_555
H70A C42A 1_555 1_555
H71A C42A 1_555 1_555
C43A C44A 1_555 1_555
C44A C45A 1_555 1_555
C45A H72A 1_555 1_555
C46A C45A 1_555 1_555
C47A C46A 1_555 1_555
H73A C47A 1_555 1_555
C48A C43A 1_555 1_555
C49A C48A 1_555 1_555
H74A C49A 1_555 1_555
H75A C49A 1_555 1_555
H76A C49A 1_555 1_555
C50A C46A 1_555 1_555
H77A C50A 1_555 1_555
H78A C50A 1_555 1_555
H79A C50A 1_555 1_555
C51A C44A 1_555 1_555
H80A C51A 1_555 1_555
H81A C51A 1_555 1_555
H82A C51A 1_555 1_555
B1A C25A 1_555 1_555
C1 C2 1_555 1_555
C3 C4 1_555 1_555
C5 C6 1_555 1_555
C7 C8 1_555 1_555
C9 C10 1_555 1_555
C11 C12 1_555 1_555
C14 O8 1_555 1_555
O8 C20 1_555 1_555
C18 C19 1_555 1_555
C29 C30 1_555 1_555
C32 B1 1_555 1_555
C34 B1 1_555 1_555
C38 C39 1_555 1_555
C43 B1 1_555 1_555
C47 C48 1_555 1_555
C54 C55 1_555 1_555
C29A C30A 1_555 1_555
C30A C31A 1_555 1_555
C32A C33A 1_555 1_555
C32A B1A 1_555 1_555
C34A B1A 1_555 1_555
C38A C39A 1_555 1_555
C43A B1A 1_555 1_555
C47A C48A 1_555 1_555

#END
