
#######################################################################
#
#                 Cambridge Crystallographic Data Centre
#                                CCDC 
#
#######################################################################
#
# If this CIF has been generated from an entry in the Cambridge 
# Structural Database, then it will include bibliographic, chemical, 
# crystal, experimental, refinement or atomic coordinate data resulting 
# from the CCDC's data processing and validation procedures.
#
#######################################################################

data_LAZFIE
_chemical_formula_moiety         'C70 H88 B2 K2 O4,2(C4 H8 O1)'
_chemical_name_systematic        
"(\m-\h^6^,\h^6^,\h^2^,\h^2^-5,5,11,11-tetramesityl-5,5a,11,11a-tetrahydrodibenzo[d,d']benzo[1,2-b:4,5-b']bisborol-5,11-diide)-tetrakis(tetrahydrofuran)-di-potassium tetrahydrofuran solvate"
_symmetry_cell_setting           triclinic
_symmetry_space_group_name_H-M   'P -1'
_symmetry_Int_Tables_number      2
_space_group_name_Hall           '-P 1'
loop_
_symmetry_equiv_pos_site_id
_symmetry_equiv_pos_as_xyz
1 x,y,z
2 -x,-y,-z
_cell_length_a                   12.2166(9)
_cell_length_b                   12.8705(12)
_cell_length_c                   13.0567(12)
_cell_angle_alpha                72.277(8)
_cell_angle_beta                 70.112(7)
_cell_angle_gamma                67.341(8)
_cell_volume                     1745.59
_exptl_crystal_colour            colorless
_exptl_crystal_description       block
_cell_formula_units_Z            1
loop_
_atom_site_label
_atom_site_type_symbol
_atom_site_fract_x
_atom_site_fract_y
_atom_site_fract_z
K1 K 0.96798(7) -0.14796(7) 0.85683(7)
H1 H 0.978(2) 0.185(3) 0.951(2)
O1 O 0.8591(2) -0.3080(2) 0.9525(2)
O2 O 1.1184(2) -0.2881(2) 0.7204(2)
C1 C 0.7371(3) 0.2413(3) 0.9995(3)
C2 C 0.6302(3) 0.3333(3) 1.0238(3)
H2 H 0.6058 0.3920 0.9658
C3 C 0.5600(3) 0.3393(3) 1.1315(3)
H3 H 0.4886 0.4007 1.1447
C4 C 0.5953(3) 0.2542(3) 1.2200(3)
H4 H 0.5462 0.2569 1.2920
C5 C 0.7043(3) 0.1650(3) 1.2004(3)
H5 H 0.7306 0.1093 1.2594
C6 C 0.7741(3) 0.1597(3) 1.0917(3)
C7 C 0.8915(2) 0.0719(3) 1.0540(2)
C8 C 0.9552(3) 0.1250(3) 0.9401(3)
C9 C 0.9304(3) -0.0368(3) 1.1075(3)
H6 H 0.8704 -0.0651 1.1706
C10 C 0.8352(3) 0.3295(3) 0.7880(2)
C11 C 0.9269(3) 0.3841(3) 0.7511(3)
C12 C 0.9162(3) 0.4864(3) 0.6711(3)
H7 H 0.9793 0.5184 0.6473
C13 C 0.8165(3) 0.5416(3) 0.6261(3)
C14 C 0.7258(3) 0.4911(3) 0.6637(3)
H8 H 0.6563 0.5274 0.6365
C15 C 0.7333(3) 0.3881(3) 0.7405(3)
C16 C 1.0421(3) 0.3374(3) 0.7917(3)
H9 H 1.0211 0.3425 0.8682
H10 H 1.0962 0.3816 0.7479
H11 H 1.0822 0.2586 0.7846
C17 C 0.8078(4) 0.6519(3) 0.5392(3)
H12 H 0.8059 0.6391 0.4712
H13 H 0.8777 0.6755 0.5263
H14 H 0.7342 0.7108 0.5650
C18 C 0.6279(3) 0.3420(3) 0.7648(3)
H15 H 0.6513 0.2861 0.7202
H16 H 0.5574 0.4040 0.7477
H17 H 0.6083 0.3066 0.8421
C19 C 0.8095(3) 0.1192(3) 0.8262(3)
C20 C 0.8819(3) 0.1001(3) 0.7176(3)
C21 C 0.8632(3) 0.0311(3) 0.6649(3)
H18 H 0.9126 0.0215 0.5942
C22 C 0.7751(3) -0.0235(3) 0.7127(3)
C23 C 0.7051(3) -0.0084(3) 0.8195(3)
H19 H 0.6458 -0.0450 0.8551
C24 C 0.7209(3) 0.0602(3) 0.8756(3)
C25 C 0.9813(3) 0.1540(3) 0.6504(3)
H20 H 1.0162 0.1663 0.6997
H21 H 0.9469 0.2263 0.6053
H22 H 1.0441 0.1038 0.6034
C26 C 0.7562(4) -0.0974(4) 0.6537(4)
H23 H 0.8328 -0.1542 0.6297
H24 H 0.7258 -0.0501 0.5904
H25 H 0.6979 -0.1349 0.7037
C27 C 0.6365(3) 0.0662(3) 0.9911(3)
H26 H 0.5827 0.0221 1.0069
H27 H 0.5888 0.1448 0.9950
H28 H 0.6845 0.0356 1.0447
C28 C 0.8746(4) -0.3945(5) 0.8983(5)
H29 H 0.9362 -0.4646 0.9218
H30 H 0.9016 -0.3700 0.8184
C29 C 0.7594(4) -0.4148(6) 0.9264(5)
H31 H 0.7299 -0.3940 0.8604
H32 H 0.7691 -0.4956 0.9578
C30 C 0.6741(4) -0.3468(5) 1.0054(4)
H33 H 0.6362 -0.3941 1.0705
H34 H 0.6102 -0.2871 0.9732
C31 C 0.7463(4) -0.2952(4) 1.0361(3)
H35 H 0.7026 -0.2147 1.0380
H36 H 0.7611 -0.3350 1.1086
C32 C 1.1463(6) -0.2658(6) 0.6054(4)
H37 H 1.1800 -0.2025 0.5745
H38 H 1.0731 -0.2455 0.5805
C33 C 1.2370(6) -0.3713(7) 0.5693(5)
H39 H 1.1971 -0.4206 0.5632
H40 H 1.2930 -0.3534 0.4983
C34 C 1.3011(5) -0.4253(5) 0.6578(6)
H41 H 1.3684 -0.3963 0.6438
H42 H 1.3328 -0.5081 0.6649
C35 C 1.2046(4) -0.3924(4) 0.7588(4)
H43 H 1.1657 -0.4515 0.7969
H44 H 1.2394 -0.3811 0.8096
B1 B 0.8340(3) 0.2074(3) 0.8808(3)
H1A H 1.022(2) -0.185(3) 1.049(2)
C1A C 1.2629(3) -0.2413(3) 1.0005(3)
C2A C 1.3698(3) -0.3333(3) 0.9762(3)
H2A H 1.3942 -0.3920 1.0342
C3A C 1.4400(3) -0.3393(3) 0.8685(3)
H3A H 1.5114 -0.4007 0.8553
C4A C 1.4047(3) -0.2542(3) 0.7800(3)
H4A H 1.4538 -0.2569 0.7080
C5A C 1.2957(3) -0.1650(3) 0.7996(3)
H5A H 1.2694 -0.1093 0.7406
C6A C 1.2259(3) -0.1597(3) 0.9083(3)
C7A C 1.1085(2) -0.0719(3) 0.9460(2)
C8A C 1.0448(3) -0.1250(3) 1.0599(3)
C9A C 1.0696(3) 0.0368(3) 0.8925(3)
H6A H 1.1296 0.0651 0.8294
C10A C 1.1648(3) -0.3295(3) 1.2120(2)
C11A C 1.0731(3) -0.3841(3) 1.2489(3)
C12A C 1.0838(3) -0.4864(3) 1.3289(3)
H7A H 1.0207 -0.5184 1.3527
C13A C 1.1835(3) -0.5416(3) 1.3739(3)
C14A C 1.2742(3) -0.4911(3) 1.3363(3)
H8A H 1.3437 -0.5274 1.3635
C15A C 1.2667(3) -0.3881(3) 1.2595(3)
C16A C 0.9579(3) -0.3374(3) 1.2083(3)
H9A H 0.9789 -0.3425 1.1318
H10A H 0.9038 -0.3816 1.2521
H11A H 0.9178 -0.2586 1.2154
C17A C 1.1922(4) -0.6519(3) 1.4608(3)
H12A H 1.1941 -0.6391 1.5288
H13A H 1.1223 -0.6755 1.4737
H14A H 1.2658 -0.7108 1.4350
C18A C 1.3721(3) -0.3420(3) 1.2352(3)
H15A H 1.3487 -0.2861 1.2798
H16A H 1.4426 -0.4040 1.2523
H17A H 1.3917 -0.3066 1.1579
C19A C 1.1905(3) -0.1192(3) 1.1738(3)
C20A C 1.1181(3) -0.1001(3) 1.2824(3)
C21A C 1.1368(3) -0.0311(3) 1.3351(3)
H18A H 1.0874 -0.0215 1.4058
C22A C 1.2249(3) 0.0235(3) 1.2873(3)
C23A C 1.2949(3) 0.0084(3) 1.1805(3)
H19A H 1.3542 0.0450 1.1449
C24A C 1.2791(3) -0.0602(3) 1.1244(3)
C25A C 1.0187(3) -0.1540(3) 1.3496(3)
H20A H 0.9838 -0.1663 1.3003
H21A H 1.0531 -0.2263 1.3947
H22A H 0.9559 -0.1038 1.3966
C26A C 1.2438(4) 0.0974(4) 1.3463(4)
H23A H 1.1672 0.1542 1.3703
H24A H 1.2742 0.0501 1.4096
H25A H 1.3021 0.1349 1.2963
C27A C 1.3635(3) -0.0662(3) 1.0089(3)
H26A H 1.4173 -0.0221 0.9931
H27A H 1.4112 -0.1448 1.0050
H28A H 1.3155 -0.0356 0.9553
B1A B 1.1660(3) -0.2074(3) 1.1192(3)
K1A K 1.03202(7) 0.14796(7) 1.14317(7)
O1A O 1.1409(2) 0.3080(2) 1.0475(2)
O2A O 0.8816(2) 0.2881(2) 1.2796(2)
C28A C 1.1254(4) 0.3945(5) 1.1017(5)
H29A H 1.0638 0.4646 1.0782
H30A H 1.0984 0.3700 1.1816
C29A C 1.2406(4) 0.4148(6) 1.0736(5)
H31A H 1.2701 0.3940 1.1396
H32A H 1.2309 0.4956 1.0422
C30A C 1.3259(4) 0.3468(5) 0.9946(4)
H33A H 1.3638 0.3941 0.9295
H34A H 1.3898 0.2871 1.0268
C31A C 1.2537(4) 0.2952(4) 0.9639(3)
H35A H 1.2974 0.2147 0.9620
H36A H 1.2389 0.3350 0.8914
C32A C 0.8537(6) 0.2658(6) 1.3946(4)
H37A H 0.8200 0.2025 1.4255
H38A H 0.9269 0.2455 1.4195
C33A C 0.7630(6) 0.3713(7) 1.4307(5)
H39A H 0.8029 0.4206 1.4368
H40A H 0.7070 0.3534 1.5017
C34A C 0.6989(5) 0.4253(5) 1.3422(6)
H41A H 0.6316 0.3963 1.3562
H42A H 0.6672 0.5081 1.3351
C35A C 0.7954(4) 0.3924(4) 1.2412(4)
H43A H 0.8343 0.4515 1.2031
H44A H 0.7606 0.3811 1.1904
O3 O 0.4877(4) 0.1461(4) 0.5280(3)
C36 C 0.4067(6) 0.0877(5) 0.6124(5)
H45 H 0.3266 0.1161 0.5976
H46 H 0.4398 0.0057 0.6144
C37 C 0.3980(5) 0.1113(6) 0.7155(5)
H47 H 0.4587 0.0516 0.7516
H48 H 0.3171 0.1164 0.7651
C38 C 0.4208(6) 0.2216(6) 0.6859(5)
H49 H 0.3450 0.2849 0.6855
H50 H 0.4588 0.2264 0.7378
C39 C 0.5026(6) 0.2233(6) 0.5757(5)
H51 H 0.4828 0.3002 0.5308
H52 H 0.5868 0.1998 0.5798
loop_
_geom_bond_atom_site_label_1
_geom_bond_atom_site_label_2
_geom_bond_site_symmetry_1
_geom_bond_site_symmetry_2
K1 O1 1_555 1_555
H1 C8 1_555 1_555
O1 C28 1_555 1_555
O2 K1 1_555 1_555
C1 C2 1_555 1_555
C2 H2 1_555 1_555
C3 C2 1_555 1_555
H3 C3 1_555 1_555
C4 C3 1_555 1_555
H4 C4 1_555 1_555
C5 C4 1_555 1_555
H5 C5 1_555 1_555
C6 C1 1_555 1_555
C7 C6 1_555 1_555
C8 C7 1_555 1_555
C9 C7 1_555 1_555
H6 C9 1_555 1_555
C10 C11 1_555 1_555
C11 C12 1_555 1_555
C12 H7 1_555 1_555
C13 C12 1_555 1_555
C14 C13 1_555 1_555
H8 C14 1_555 1_555
C15 C10 1_555 1_555
C16 C11 1_555 1_555
H9 C16 1_555 1_555
H10 C16 1_555 1_555
H11 C16 1_555 1_555
C17 C13 1_555 1_555
H12 C17 1_555 1_555
H13 C17 1_555 1_555
H14 C17 1_555 1_555
C18 C15 1_555 1_555
H15 C18 1_555 1_555
H16 C18 1_555 1_555
H17 C18 1_555 1_555
C19 K1 1_555 1_555
C20 K1 1_555 1_555
C21 K1 1_555 1_555
H18 C21 1_555 1_555
C22 K1 1_555 1_555
C23 K1 1_555 1_555
H19 C23 1_555 1_555
C24 K1 1_555 1_555
C25 C20 1_555 1_555
H20 C25 1_555 1_555
H21 C25 1_555 1_555
H22 C25 1_555 1_555
C26 C22 1_555 1_555
H23 C26 1_555 1_555
H24 C26 1_555 1_555
H25 C26 1_555 1_555
C27 C24 1_555 1_555
H26 C27 1_555 1_555
H27 C27 1_555 1_555
H28 C27 1_555 1_555
C28 H29 1_555 1_555
H30 C28 1_555 1_555
C29 C28 1_555 1_555
H31 C29 1_555 1_555
H32 C29 1_555 1_555
C30 C29 1_555 1_555
H33 C30 1_555 1_555
H34 C30 1_555 1_555
C31 O1 1_555 1_555
H35 C31 1_555 1_555
H36 C31 1_555 1_555
C32 O2 1_555 1_555
H37 C32 1_555 1_555
H38 C32 1_555 1_555
C33 C32 1_555 1_555
H39 C33 1_555 1_555
H40 C33 1_555 1_555
C34 C33 1_555 1_555
H41 C34 1_555 1_555
H42 C34 1_555 1_555
C35 O2 1_555 1_555
H43 C35 1_555 1_555
H44 C35 1_555 1_555
B1 C1 1_555 1_555
O3 C36 1_555 1_555
C36 H45 1_555 1_555
H46 C36 1_555 1_555
C37 C36 1_555 1_555
H47 C37 1_555 1_555
H48 C37 1_555 1_555
C38 C37 1_555 1_555
H49 C38 1_555 1_555
H50 C38 1_555 1_555
C39 O3 1_555 1_555
H51 C39 1_555 1_555
H52 C39 1_555 1_555
H1A C8A 1_555 1_555
C1A C2A 1_555 1_555
C2A H2A 1_555 1_555
C3A C2A 1_555 1_555
H3A C3A 1_555 1_555
C4A C3A 1_555 1_555
H4A C4A 1_555 1_555
C5A C4A 1_555 1_555
H5A C5A 1_555 1_555
C6A C1A 1_555 1_555
C7A K1 1_555 1_555
C8A C9 1_555 1_555
C9A K1 1_555 1_555
H6A C9A 1_555 1_555
C10A C11A 1_555 1_555
C11A C12A 1_555 1_555
C12A H7A 1_555 1_555
C13A C12A 1_555 1_555
C14A C13A 1_555 1_555
H8A C14A 1_555 1_555
C15A C10A 1_555 1_555
C16A C11A 1_555 1_555
H9A C16A 1_555 1_555
H10A C16A 1_555 1_555
H11A C16A 1_555 1_555
C17A C13A 1_555 1_555
H12A C17A 1_555 1_555
H13A C17A 1_555 1_555
H14A C17A 1_555 1_555
C18A C15A 1_555 1_555
H15A C18A 1_555 1_555
H16A C18A 1_555 1_555
H17A C18A 1_555 1_555
C19A C20A 1_555 1_555
C20A C21A 1_555 1_555
C21A H18A 1_555 1_555
C22A C21A 1_555 1_555
C23A C22A 1_555 1_555
H19A C23A 1_555 1_555
C24A C19A 1_555 1_555
C25A C20A 1_555 1_555
H20A C25A 1_555 1_555
H21A C25A 1_555 1_555
H22A C25A 1_555 1_555
C26A C22A 1_555 1_555
H23A C26A 1_555 1_555
H24A C26A 1_555 1_555
H25A C26A 1_555 1_555
C27A C24A 1_555 1_555
H26A C27A 1_555 1_555
H27A C27A 1_555 1_555
H28A C27A 1_555 1_555
B1A C1A 1_555 1_555
K1A C7 1_555 1_555
O1A K1A 1_555 1_555
O2A K1A 1_555 1_555
C28A O1A 1_555 1_555
H29A C28A 1_555 1_555
H30A C28A 1_555 1_555
C29A C28A 1_555 1_555
H31A C29A 1_555 1_555
H32A C29A 1_555 1_555
C30A C29A 1_555 1_555
H33A C30A 1_555 1_555
H34A C30A 1_555 1_555
C31A O1A 1_555 1_555
H35A C31A 1_555 1_555
H36A C31A 1_555 1_555
C32A O2A 1_555 1_555
H37A C32A 1_555 1_555
H38A C32A 1_555 1_555
C33A C32A 1_555 1_555
H39A C33A 1_555 1_555
H40A C33A 1_555 1_555
C34A C33A 1_555 1_555
H41A C34A 1_555 1_555
H42A C34A 1_555 1_555
C35A O2A 1_555 1_555
H43A C35A 1_555 1_555
H44A C35A 1_555 1_555
C5 C6 1_555 1_555
C8 B1 1_555 1_555
C8 C9A 1_555 1_555
C9 K1A 1_555 1_555
C10 B1 1_555 1_555
C14 C15 1_555 1_555
C19 C20 1_555 1_555
C19 C24 1_555 1_555
C19 B1 1_555 1_555
C20 C21 1_555 1_555
C21 C22 1_555 1_555
C22 C23 1_555 1_555
C23 C24 1_555 1_555
C30 C31 1_555 1_555
C34 C35 1_555 1_555
C38 C39 1_555 1_555
C5A C6A 1_555 1_555
C6A C7A 1_555 1_555
C7A C8A 1_555 1_555
C7A C9A 1_555 1_555
C8A B1A 1_555 1_555
C10A B1A 1_555 1_555
C14A C15A 1_555 1_555
C19A B1A 1_555 1_555
C19A K1A 1_555 1_555
C20A K1A 1_555 1_555
C21A K1A 1_555 1_555
C22A K1A 1_555 1_555
C23A C24A 1_555 1_555
C23A K1A 1_555 1_555
C24A K1A 1_555 1_555
C30A C31A 1_555 1_555
C34A C35A 1_555 1_555

#END
