
#######################################################################
#
#                 Cambridge Crystallographic Data Centre
#                                CCDC 
#
#######################################################################
#
# If this CIF has been generated from an entry in the Cambridge 
# Structural Database, then it will include bibliographic, chemical, 
# crystal, experimental, refinement or atomic coordinate data resulting 
# from the CCDC's data processing and validation procedures.
#
#######################################################################

data_LCYSTI14
_chemical_name_common            'DrugBank: DB00138'
_chemical_formula_moiety         'C6 H12 N2 O4 S2'
_chemical_name_systematic        L-Cystine
_symmetry_cell_setting           hexagonal
_symmetry_space_group_name_H-M   'P 61 2 2'
_symmetry_Int_Tables_number      178
_space_group_name_Hall           "P 61 2' (0,0,5)"
loop_
_symmetry_equiv_pos_site_id
_symmetry_equiv_pos_as_xyz
1 x,y,z
2 x-y,x,1/6+z
3 -y,-x,5/6-z
4 -y,x-y,1/3+z
5 x-y,-y,-z
6 -x,-y,1/2+z
7 x,x-y,1/6-z
8 -x+y,-x,2/3+z
9 y,x,1/3-z
10 y,-x+y,5/6+z
11 -x+y,y,1/2-z
12 -x,-x+y,2/3-z
_cell_length_a                   5.412(1)
_cell_length_b                   5.412(1)
_cell_length_c                   55.956(1)
_cell_angle_alpha                90
_cell_angle_beta                 90
_cell_angle_gamma                120
_cell_volume                     1419.36
_exptl_crystal_colour            colorless
_cell_formula_units_Z            6
loop_
_atom_site_label
_atom_site_type_symbol
_atom_site_fract_x
_atom_site_fract_y
_atom_site_fract_z
S1 S 0.03234(4) 0.83060(4) 0.07980(3)
O1 O 0.0738(2) 1.2250(2) 0.02275(1)
C1 C -0.1720(2) 1.0311(1) 0.02913(1)
O2 O -0.3830(2) 1.0614(2) 0.03230(2)
C2 C -0.2129(1) 0.7320(1) 0.03332(1)
C3 C -0.2656(2) 0.6395(2) 0.05941(1)
N1 N 0.0320(1) 0.7173(1) 0.02317(1)
H1 H -0.31048 0.42059 0.06023
H2 H -0.44231 0.65857 0.06635
H3 H -0.40397 0.57561 0.02410
H4 H 0.01816 0.52107 0.02503
H5 H 0.22427 0.86655 0.03052
H6 H 0.04481 0.75936 0.00508
S1F S 0.03234(4) 1.20174(6) 0.08687(3)
C3F C -0.2656(2) 1.0949(3) 0.10726(1)
C2F C -0.2129(1) 1.0551(1) 0.13335(1)
C1F C -0.1720(2) 0.7969(2) 0.13754(1)
O1F O 0.0738(2) 0.8488(3) 0.14392(1)
O2F O -0.3830(2) 0.5556(3) 0.13437(2)
N1F N 0.0320(1) 1.3147(1) 0.14350(1)
H4F H 0.01816 1.49709 0.14164
H5F H 0.22427 1.35772 0.13615
H6F H 0.04481 1.28545 0.16159
H3F H -0.40397 1.02042 0.14257
H1F H -0.31048 1.26893 0.10644
H2F H -0.44231 0.89912 0.10032
loop_
_geom_bond_atom_site_label_1
_geom_bond_atom_site_label_2
_geom_bond_site_symmetry_1
_geom_bond_site_symmetry_2
S1 C3 1_555 1_555
O1 C1 1_555 1_555
C1 O2 1_555 1_555
C2 C1 1_555 1_555
C3 C2 1_555 1_555
N1 C2 1_555 1_555
H1 C3 1_555 1_555
H2 C3 1_555 1_555
H3 C2 1_555 1_555
H4 N1 1_555 1_555
H5 N1 1_555 1_555
H6 N1 1_555 1_555
S1F S1 1_555 1_555
C3F S1F 1_555 1_555
C2F C3F 1_555 1_555
C1F C2F 1_555 1_555
O1F C1F 1_555 1_555
O2F C1F 1_555 1_555
N1F C2F 1_555 1_555
H4F N1F 1_555 1_555
H5F N1F 1_555 1_555
H6F N1F 1_555 1_555
H3F C2F 1_555 1_555
H1F C3F 1_555 1_555
H2F C3F 1_555 1_555

#END
