
#######################################################################
#
#                 Cambridge Crystallographic Data Centre
#                                CCDC 
#
#######################################################################
#
# If this CIF has been generated from an entry in the Cambridge 
# Structural Database, then it will include bibliographic, chemical, 
# crystal, experimental, refinement or atomic coordinate data resulting 
# from the CCDC's data processing and validation procedures.
#
#######################################################################

data_LEBGIK
_chemical_formula_moiety         'C22 H16 N2 S2,C2 H6 O1'
_chemical_name_systematic        
'3,8-bis(5-methyl-2-thienyl)-1,10-phenanthroline ethanol solvate'
_symmetry_cell_setting           monoclinic
_symmetry_space_group_name_H-M   'P 21/c'
_symmetry_Int_Tables_number      14
_space_group_name_Hall           '-P 2ybc'
loop_
_symmetry_equiv_pos_site_id
_symmetry_equiv_pos_as_xyz
1 x,y,z
2 -x,1/2+y,1/2-z
3 -x,-y,-z
4 x,1/2-y,1/2+z
_cell_length_a                   10.791(3)
_cell_length_b                   20.465(5)
_cell_length_c                   9.441(2)
_cell_angle_alpha                90
_cell_angle_beta                 90.00
_cell_angle_gamma                90
_cell_volume                     2084.93
_exptl_crystal_colour            yellow
_exptl_crystal_description       block
_cell_formula_units_Z            4
loop_
_atom_site_label
_atom_site_type_symbol
_atom_site_fract_x
_atom_site_fract_y
_atom_site_fract_z
C1 C 0.5528(2) 0.14680(14) 0.4314(3)
H1 H 0.5388 0.1915 0.4531
C2 C 0.6472(2) 0.11366(14) 0.5066(3)
C3 C 0.6691(2) 0.05032(13) 0.4695(3)
H2 H 0.7332 0.0267 0.5157
C4 C 0.5984(2) 0.01935(13) 0.3640(3)
C5 C 0.6188(2) -0.04658(13) 0.3217(3)
H3 H 0.6835 -0.0710 0.3649
C6 C 0.5479(2) -0.07503(13) 0.2213(3)
H4 H 0.5642 -0.1189 0.1940
C7 C 0.4481(2) -0.03994(12) 0.1554(3)
C8 C 0.3709(2) -0.06854(12) 0.0527(3)
H5 H 0.3850 -0.1124 0.0236
C9 C 0.2750(2) -0.03351(12) -0.0061(3)
C10 C 0.2615(2) 0.03138(13) 0.0409(3)
H6 H 0.1960 0.0562 0.0007
C11 C 0.4253(2) 0.02504(12) 0.1942(2)
C12 C 0.5036(2) 0.05644(12) 0.2997(2)
C13 C 0.7152(2) 0.14739(14) 0.6203(3)
C14 C 0.6782(3) 0.19746(14) 0.7029(3)
H7 H 0.6014 0.2195 0.6910
C15 C 0.7658(3) 0.21409(14) 0.8101(3)
H8 H 0.7523 0.2477 0.8777
C16 C 0.8697(3) 0.17750(15) 0.8064(3)
C17 C 0.9828(3) 0.18135(19) 0.8989(4)
H9 H 1.0528 0.1980 0.8434
H10 H 1.0028 0.1377 0.9350
H11 H 0.9666 0.2108 0.9786
C18 C 0.1916(2) -0.06107(12) -0.1129(3)
C19 C 0.1915(3) -0.12200(13) -0.1700(3)
H12 H 0.2504 -0.1546 -0.1458
C20 C 0.0949(3) -0.13219(14) -0.2689(3)
H13 H 0.0831 -0.1725 -0.3171
C21 C 0.0215(2) -0.08003(14) -0.2889(3)
C22 C -0.0889(3) -0.07321(16) -0.3848(3)
H14 H -0.0998 -0.1136 -0.4393
H15 H -0.0757 -0.0366 -0.4498
H16 H -0.1632 -0.0651 -0.3277
N1 N 0.4826(2) 0.11954(10) 0.3329(2)
N2 N 0.33190(19) 0.06077(10) 0.1361(2)
S1 S 0.86060(7) 0.12098(4) 0.67158(8)
S2 S 0.07080(6) -0.01632(4) -0.18440(8)
C23 C 0.3082(6) 0.2203(3) 0.0517(9)
H17 H 0.3175 0.2366 -0.0464
H18 H 0.2653 0.1776 0.0467
C24 C 0.2345(6) 0.2629(5) 0.1245(9)
H19 H 0.2062 0.2423 0.2125
H20 H 0.1627 0.2745 0.0662
H21 H 0.2818 0.3024 0.1471
O1 O 0.4247(4) 0.21028(17) 0.1073(6)
H22 H 0.4224 0.1791 0.1652
loop_
_geom_bond_atom_site_label_1
_geom_bond_atom_site_label_2
_geom_bond_site_symmetry_1
_geom_bond_site_symmetry_2
C1 H1 1_555 1_555
C2 C1 1_555 1_555
C3 C2 1_555 1_555
H2 C3 1_555 1_555
C4 C3 1_555 1_555
C5 C4 1_555 1_555
H3 C5 1_555 1_555
C6 C5 1_555 1_555
H4 C6 1_555 1_555
C7 C6 1_555 1_555
C8 C7 1_555 1_555
H5 C8 1_555 1_555
C9 C8 1_555 1_555
C10 C9 1_555 1_555
H6 C10 1_555 1_555
C11 C7 1_555 1_555
C12 C4 1_555 1_555
C13 C2 1_555 1_555
C14 C13 1_555 1_555
H7 C14 1_555 1_555
C15 C14 1_555 1_555
H8 C15 1_555 1_555
C16 C15 1_555 1_555
C17 C16 1_555 1_555
H9 C17 1_555 1_555
H10 C17 1_555 1_555
H11 C17 1_555 1_555
C18 C9 1_555 1_555
C19 C18 1_555 1_555
H12 C19 1_555 1_555
C20 C19 1_555 1_555
H13 C20 1_555 1_555
C21 C20 1_555 1_555
C22 C21 1_555 1_555
H14 C22 1_555 1_555
H15 C22 1_555 1_555
H16 C22 1_555 1_555
C23 H17 1_555 1_555
H18 C23 1_555 1_555
C24 C23 1_555 1_555
H19 C24 1_555 1_555
H20 C24 1_555 1_555
H21 C24 1_555 1_555
N1 C1 1_555 1_555
N2 C10 1_555 1_555
O1 C23 1_555 1_555
H22 O1 1_555 1_555
S1 C13 1_555 1_555
S2 C18 1_555 1_555
C11 C12 1_555 1_555
C11 N2 1_555 1_555
C12 N1 1_555 1_555
C16 S1 1_555 1_555
C21 S2 1_555 1_555

#END
