
#######################################################################
#
#                 Cambridge Crystallographic Data Centre
#                                CCDC 
#
#######################################################################
#
# If this CIF has been generated from an entry in the Cambridge 
# Structural Database, then it will include bibliographic, chemical, 
# crystal, experimental, refinement or atomic coordinate data resulting 
# from the CCDC's data processing and validation procedures.
#
#######################################################################

data_LEBSOC
_chemical_formula_moiety         'C19 H16 Br2 O2'
_chemical_name_systematic        
3-Bromo-4-(2-bromoethyl)-5-(4-methoxyphenyl)-2-phenylfuran
_symmetry_cell_setting           monoclinic
_symmetry_space_group_name_H-M   'P 21/c'
_symmetry_Int_Tables_number      14
_space_group_name_Hall           '-P 2ybc'
loop_
_symmetry_equiv_pos_site_id
_symmetry_equiv_pos_as_xyz
1 x,y,z
2 -x,1/2+y,1/2-z
3 -x,-y,-z
4 x,1/2-y,1/2+z
_cell_length_a                   23.314(4)
_cell_length_b                   5.8048(10)
_cell_length_c                   13.495(2)
_cell_angle_alpha                90
_cell_angle_beta                 106.307(2)
_cell_angle_gamma                90
_cell_volume                     1752.85
_exptl_crystal_colour            colorless
_exptl_crystal_description       block
_cell_formula_units_Z            4
loop_
_atom_site_label
_atom_site_type_symbol
_atom_site_fract_x
_atom_site_fract_y
_atom_site_fract_z
Br1 Br 0.78599(7) 1.4460(2) 0.38510(11)
Br2 Br 0.62286(7) 0.8802(3) 0.19627(14)
O1 O 0.7380(3) 0.6420(12) 0.0458(6)
O2 O 1.0138(4) 0.766(2) 0.1002(8)
C1 C 0.6841(5) 0.802(2) 0.1395(10)
C2 C 0.6822(5) 0.660(2) 0.0591(10)
C3 C 0.7760(5) 0.772(2) 0.1200(9)
C4 C 0.7463(6) 0.8784(19) 0.1845(10)
C5 C 0.8386(5) 0.776(2) 0.1201(9)
C6 C 0.8609(5) 0.6059(19) 0.0687(9)
H1 H 0.8357 0.4873 0.0365
C7 C 0.9187(6) 0.607(2) 0.0639(10)
H2 H 0.9319 0.4909 0.0284
C8 C 0.9574(5) 0.778(3) 0.1109(10)
C9 C 0.9359(6) 0.964(2) 0.1585(11)
H3 H 0.9603 1.0885 0.1855
C10 C 0.8779(5) 0.954(2) 0.1635(10)
H4 H 0.8641 1.0713 0.1976
C11 C 0.6364(6) 0.517(2) -0.0083(10)
C12 C 0.5758(6) 0.582(3) -0.0401(12)
H5 H 0.5640 0.7209 -0.0174
C13 C 0.5347(7) 0.445(3) -0.1032(13)
H6 H 0.4948 0.4907 -0.1236
C14 C 0.5506(8) 0.238(4) -0.1378(14)
H7 H 0.5216 0.1444 -0.1802
C15 C 0.6102(8) 0.170(3) -0.1093(12)
H8 H 0.6214 0.0317 -0.1336
C16 C 0.6526(7) 0.310(2) -0.0440(11)
H9 H 0.6924 0.2642 -0.0240
C17 C 1.0530(6) 0.955(3) 0.1383(11)
H10 H 1.0339 1.0960 0.1099
H11 H 1.0892 0.9356 0.1184
H12 H 1.0624 0.9599 0.2123
C18 C 0.7690(5) 1.020(2) 0.2819(10)
H13 H 0.7489 0.9747 0.3327
H14 H 0.8116 0.9966 0.3112
C19 C 0.7565(7) 1.268(3) 0.2536(11)
H15 H 0.7140 1.2929 0.2236
H16 H 0.7773 1.3160 0.2041
loop_
_geom_bond_atom_site_label_1
_geom_bond_atom_site_label_2
_geom_bond_site_symmetry_1
_geom_bond_site_symmetry_2
Br1 C19 1_555 1_555
Br2 C1 1_555 1_555
O1 C2 1_555 1_555
O2 C8 1_555 1_555
C1 C2 1_555 1_555
C2 C11 1_555 1_555
C3 O1 1_555 1_555
C4 C1 1_555 1_555
C5 C3 1_555 1_555
C6 C5 1_555 1_555
H1 C6 1_555 1_555
C7 C6 1_555 1_555
H2 C7 1_555 1_555
C8 C7 1_555 1_555
C9 C8 1_555 1_555
H3 C9 1_555 1_555
C10 C5 1_555 1_555
H4 C10 1_555 1_555
C11 C12 1_555 1_555
C12 H5 1_555 1_555
C13 C12 1_555 1_555
H6 C13 1_555 1_555
C14 C13 1_555 1_555
H7 C14 1_555 1_555
C15 C14 1_555 1_555
H8 C15 1_555 1_555
C16 C11 1_555 1_555
H9 C16 1_555 1_555
C17 O2 1_555 1_555
H10 C17 1_555 1_555
H11 C17 1_555 1_555
H12 C17 1_555 1_555
C18 C4 1_555 1_555
H13 C18 1_555 1_555
H14 C18 1_555 1_555
C19 C18 1_555 1_555
H15 C19 1_555 1_555
H16 C19 1_555 1_555
C3 C4 1_555 1_555
C9 C10 1_555 1_555
C15 C16 1_555 1_555

#END
