
#######################################################################
#
#                 Cambridge Crystallographic Data Centre
#                                CCDC 
#
#######################################################################
#
# If this CIF has been generated from an entry in the Cambridge 
# Structural Database, then it will include bibliographic, chemical, 
# crystal, experimental, refinement or atomic coordinate data resulting 
# from the CCDC's data processing and validation procedures.
#
#######################################################################

data_LEBXUM
_chemical_compound_source        'Aloe vera'
_chemical_formula_moiety         'C24 H24 O8'
_chemical_name_systematic        
'Ethyl 3-(4-hydroxyphenyl)-3-(2,4-dihydroxy-6-methyl-5-(4-methoxy-2-oxo-2H-pyran-6-yl)phenyl)propanoate'
_chemical_properties_biological  
'antioxidant activity against superoxide and hydroxyl radicals'
_symmetry_cell_setting           monoclinic
_symmetry_space_group_name_H-M   'P 21/n'
_symmetry_Int_Tables_number      14
_space_group_name_Hall           '-P 2yn'
loop_
_symmetry_equiv_pos_site_id
_symmetry_equiv_pos_as_xyz
1 x,y,z
2 1/2-x,1/2+y,1/2-z
3 -x,-y,-z
4 1/2+x,1/2-y,1/2+z
_cell_length_a                   8.2228(3)
_cell_length_b                   21.9337(8)
_cell_length_c                   12.0067(4)
_cell_angle_alpha                90
_cell_angle_beta                 100.647(1)
_cell_angle_gamma                90
_cell_volume                     2128.2
_exptl_crystal_colour            colorless
_exptl_crystal_description       block
_cell_formula_units_Z            4
_exptl_crystal_recrystallization_method methanol
loop_
_atom_site_label
_atom_site_type_symbol
_atom_site_fract_x
_atom_site_fract_y
_atom_site_fract_z
O1 O 0.52822(13) 0.21995(5) 0.68064(9)
O2 O 0.34666(15) 0.29367(5) 0.63465(10)
O3 O 0.85959(14) 0.29740(5) 0.50991(10)
O4 O 0.69996(15) 0.19317(5) 0.90796(10)
O5 O 0.82857(16) -0.01945(5) 0.93449(10)
O6 O 1.19096(16) 0.01317(6) 0.84067(11)
O7 O 1.13660(15) 0.01077(6) 0.65220(10)
O8 O 0.35085(17) -0.22633(6) 0.70564(11)
C1 C 0.4848(2) 0.27472(8) 0.62716(14)
C2 C 0.5963(2) 0.30248(7) 0.56786(13)
H1 H 0.5683 0.3393 0.5307
C3 C 0.7444(2) 0.27634(7) 0.56409(14)
C4 C 0.7852(2) 0.21998(7) 0.62287(13)
H2 H 0.8869 0.2017 0.6220
C5 C 0.6791(2) 0.19381(7) 0.67844(14)
C6 C 0.70736(19) 0.13609(7) 0.74269(14)
C7 C 0.7235(2) 0.13807(7) 0.85986(15)
C8 C 0.7634(2) 0.08630(7) 0.92500(14)
H3 H 0.7732 0.0879 1.0034
C9 C 0.7884(2) 0.03221(7) 0.87151(14)
C10 C 0.77400(19) 0.02770(7) 0.75444(14)
C11 C 0.7283(2) 0.08025(7) 0.68934(14)
C12 C 0.6960(2) 0.07681(7) 0.56163(13)
H4 H 0.7986 0.0707 0.5359
H5 H 0.6459 0.1141 0.5307
H6 H 0.6228 0.0434 0.5371
C13 C 0.80978(19) -0.03236(7) 0.69945(14)
H7 H 0.8077 -0.0231 0.6193
C14 C 0.6805(2) -0.08213(7) 0.70132(13)
C15 C 0.5446(2) -0.07573(7) 0.75312(14)
H8 H 0.5280 -0.0388 0.7875
C16 C 0.4323(2) -0.12269(8) 0.75538(15)
H9 H 0.3426 -0.1172 0.7915
C17 C 0.4536(2) -0.17734(8) 0.70426(14)
C18 C 0.5857(2) -0.18454(8) 0.64964(14)
H10 H 0.5996 -0.2211 0.6133
C19 C 0.6967(2) -0.13802(8) 0.64865(14)
H11 H 0.7855 -0.1438 0.6118
C20 C 0.98532(19) -0.05643(7) 0.74657(15)
H12 H 0.9872 -0.0737 0.8212
H13 H 1.0116 -0.0888 0.6977
C21 C 1.1148(2) -0.00781(8) 0.75485(17)
C22 C 1.2560(2) 0.06006(9) 0.64891(17)
H14 H 1.3129 0.0539 0.5859
H15 H 1.3376 0.0603 0.7185
C23 C 1.1662(3) 0.11839(10) 0.63575(18)
H16 H 1.0868 0.1180 0.5662
H17 H 1.2431 0.1511 0.6342
H18 H 1.1099 0.1241 0.6983
C24 C 0.8203(2) 0.35227(8) 0.44424(17)
H19 H 0.7169 0.3470 0.3930
H20 H 0.9061 0.3605 0.4019
H21 H 0.8116 0.3858 0.4942
H22 H 0.273(2) -0.2172(8) 0.7495(16)
H23 H 0.737(2) 0.1977(8) 0.9842(15)
H24 H 0.828(2) -0.0119(8) 1.0129(15)
loop_
_geom_bond_atom_site_label_1
_geom_bond_atom_site_label_2
_geom_bond_site_symmetry_1
_geom_bond_site_symmetry_2
O1 C1 1_555 1_555
O2 C1 1_555 1_555
O3 C3 1_555 1_555
O4 C7 1_555 1_555
O5 C9 1_555 1_555
O6 C21 1_555 1_555
O7 C21 1_555 1_555
O8 C17 1_555 1_555
C1 C2 1_555 1_555
C2 H1 1_555 1_555
C3 C2 1_555 1_555
C4 C3 1_555 1_555
H2 C4 1_555 1_555
C5 O1 1_555 1_555
C6 C5 1_555 1_555
C7 C6 1_555 1_555
C8 C7 1_555 1_555
H3 C8 1_555 1_555
C9 C8 1_555 1_555
C10 C9 1_555 1_555
C11 C6 1_555 1_555
C12 C11 1_555 1_555
H4 C12 1_555 1_555
H5 C12 1_555 1_555
H6 C12 1_555 1_555
C13 C10 1_555 1_555
H7 C13 1_555 1_555
C14 C13 1_555 1_555
C15 C14 1_555 1_555
H8 C15 1_555 1_555
C16 C15 1_555 1_555
H9 C16 1_555 1_555
C17 C16 1_555 1_555
C18 C17 1_555 1_555
H10 C18 1_555 1_555
C19 C14 1_555 1_555
H11 C19 1_555 1_555
C20 C13 1_555 1_555
H12 C20 1_555 1_555
H13 C20 1_555 1_555
C21 C20 1_555 1_555
C22 O7 1_555 1_555
H14 C22 1_555 1_555
H15 C22 1_555 1_555
C23 C22 1_555 1_555
H16 C23 1_555 1_555
H17 C23 1_555 1_555
H18 C23 1_555 1_555
C24 O3 1_555 1_555
H19 C24 1_555 1_555
H20 C24 1_555 1_555
H21 C24 1_555 1_555
H22 O8 1_555 1_555
H23 O4 1_555 1_555
H24 O5 1_555 1_555
C4 C5 1_555 1_555
C10 C11 1_555 1_555
C18 C19 1_555 1_555

#END
