
#######################################################################
#
#                 Cambridge Crystallographic Data Centre
#                                CCDC 
#
#######################################################################
#
# If this CIF has been generated from an entry in the Cambridge 
# Structural Database, then it will include bibliographic, chemical, 
# crystal, experimental, refinement or atomic coordinate data resulting 
# from the CCDC's data processing and validation procedures.
#
#######################################################################

data_LECDUV
_chemical_formula_moiety         '2(C8 H6 O5),C6 H8 N2'
_chemical_name_systematic        
'bis(4-hydroxybenzene-1,3-dicarboxylic acid) 2,3-dimethylpyrazine'
_symmetry_cell_setting           triclinic
_symmetry_space_group_name_H-M   'P -1'
_symmetry_Int_Tables_number      2
_space_group_name_Hall           '-P 1'
loop_
_symmetry_equiv_pos_site_id
_symmetry_equiv_pos_as_xyz
1 x,y,z
2 -x,-y,-z
_cell_length_a                   7.6054(4)
_cell_length_b                   10.2188(6)
_cell_length_c                   14.3833(10)
_cell_angle_alpha                75.759(6)
_cell_angle_beta                 76.740(5)
_cell_angle_gamma                84.491(5)
_cell_volume                     1053.68
_exptl_crystal_colour            colorless
_exptl_crystal_description       BLOCK
_cell_formula_units_Z            2
loop_
_atom_site_label
_atom_site_type_symbol
_atom_site_fract_x
_atom_site_fract_y
_atom_site_fract_z
O1 O 0.67943(19) 0.69347(17) 0.46258(10)
H1 H 0.6739 0.6615 0.5213
O2 O 0.95251(19) 0.91007(16) 0.11765(10)
O3 O 0.38601(19) 0.65087(16) 0.50594(10)
O4 O 0.7678(2) 0.98554(18) 0.01403(11)
H2 H 0.8636 1.0087 -0.0239
O5 O 0.18467(19) 0.72881(17) 0.38099(11)
H3 H 0.2074 0.7014 0.4357
C1 C 0.7987(3) 0.9242(2) 0.09981(15)
C2 C 0.5062(3) 0.7613(2) 0.34128(14)
C3 C 0.6561(3) 0.8119(2) 0.26990(14)
H4 H 0.7683 0.8062 0.2864
C4 C 0.6399(3) 0.8708(2) 0.17458(14)
C5 C 0.5185(3) 0.6972(2) 0.44361(15)
C6 C 0.3199(3) 0.8326(2) 0.22006(15)
H5 H 0.2079 0.8398 0.2031
C7 C 0.3356(3) 0.7732(2) 0.31594(15)
C8 C 0.4692(3) 0.8804(2) 0.15064(15)
H6 H 0.4576 0.9199 0.0867
O6 O 0.4948(2) 0.30585(17) 0.03537(10)
H7 H 0.5275 0.3499 -0.0211
O7 O 0.52986(19) 0.09548(16) 0.37966(10)
O8 O 0.2902(2) -0.01201(17) 0.47937(11)
H8 H 0.3607 -0.0308 0.5166
O9 O 0.2274(2) 0.33734(17) -0.00682(11)
O10 O -0.0534(2) 0.2318(2) 0.11366(12)
H9 H 0.0075 0.2673 0.0600
C9 C 0.3416(3) 0.1723(2) 0.22659(14)
H10 H 0.4641 0.1891 0.2116
C10 C 0.3684(3) 0.0603(2) 0.39715(14)
C11 C 0.2408(3) 0.2159(2) 0.15415(14)
C12 C 0.2622(3) 0.1045(2) 0.32027(15)
C13 C 0.3201(3) 0.2911(2) 0.05440(15)
C14 C 0.0552(3) 0.1891(2) 0.17863(16)
C15 C -0.0231(3) 0.1184(3) 0.27173(16)
H11 H -0.1451 0.0996 0.2868
C16 C 0.0784(3) 0.0758(2) 0.34199(16)
H12 H 0.0251 0.0277 0.4043
N1 N 0.6005(2) 0.45638(18) 0.85063(12)
N2 N 0.6618(2) 0.57838(18) 0.65305(12)
C17 C 0.7692(3) 0.4735(2) 0.79817(15)
C18 C 0.8003(3) 0.5357(2) 0.69720(15)
C19 C 0.4938(3) 0.5626(2) 0.70774(16)
H13 H 0.3957 0.5934 0.6786
C20 C 0.4638(3) 0.5022(2) 0.80536(16)
H14 H 0.3455 0.4926 0.8414
C21 C 0.9872(3) 0.5568(3) 0.63575(17)
H15 H 0.9804 0.6005 0.5694
H16 H 1.0515 0.4711 0.6370
H17 H 1.0496 0.6125 0.6614
C22 C 0.9203(3) 0.4244(3) 0.84995(18)
H18 H 0.8717 0.3817 0.9172
H19 H 0.9895 0.4995 0.8474
H20 H 0.9968 0.3605 0.8186
loop_
_geom_bond_atom_site_label_1
_geom_bond_atom_site_label_2
_geom_bond_site_symmetry_1
_geom_bond_site_symmetry_2
O1 H1 1_555 1_555
O2 C1 1_555 1_555
O3 C5 1_555 1_555
O4 H2 1_555 1_555
O5 H3 1_555 1_555
C1 O4 1_555 1_555
C2 C3 1_555 1_555
C3 H4 1_555 1_555
C4 C1 1_555 1_555
C5 O1 1_555 1_555
C6 H5 1_555 1_555
C7 O5 1_555 1_555
C8 C4 1_555 1_555
H6 C8 1_555 1_555
O6 H7 1_555 1_555
O7 C10 1_555 1_555
O8 H8 1_555 1_555
O9 C13 1_555 1_555
O10 H9 1_555 1_555
C9 H10 1_555 1_555
C10 O8 1_555 1_555
C11 C9 1_555 1_555
C12 C9 1_555 1_555
C13 O6 1_555 1_555
C14 O10 1_555 1_555
C15 C14 1_555 1_555
H11 C15 1_555 1_555
C16 C12 1_555 1_555
H12 C16 1_555 1_555
N1 C17 1_555 1_555
N2 C18 1_555 1_555
C17 C18 1_555 1_555
C18 C21 1_555 1_555
C19 N2 1_555 1_555
H13 C19 1_555 1_555
C20 N1 1_555 1_555
H14 C20 1_555 1_555
C21 H15 1_555 1_555
H16 C21 1_555 1_555
H17 C21 1_555 1_555
C22 C17 1_555 1_555
H18 C22 1_555 1_555
H19 C22 1_555 1_555
H20 C22 1_555 1_555
C2 C5 1_555 1_555
C2 C7 1_555 1_555
C3 C4 1_555 1_555
C6 C7 1_555 1_555
C6 C8 1_555 1_555
C10 C12 1_555 1_555
C11 C13 1_555 1_555
C11 C14 1_555 1_555
C15 C16 1_555 1_555
C19 C20 1_555 1_555

#END
