
#######################################################################
#
#                 Cambridge Crystallographic Data Centre
#                                CCDC 
#
#######################################################################
#
# If this CIF has been generated from an entry in the Cambridge 
# Structural Database, then it will include bibliographic, chemical, 
# crystal, experimental, refinement or atomic coordinate data resulting 
# from the CCDC's data processing and validation procedures.
#
#######################################################################

data_LECQIU
_chemical_formula_moiety         'C16 H18 N2 O5'
_chemical_name_systematic        
'(4S*,4aS*,6S*,7R*)-7-(Hydroxymethyl)-4-methyl-1,3-dioxooctahydropyrrolo(1,2-c)pyrimidin-6-yl benzoate'
_symmetry_cell_setting           monoclinic
_symmetry_space_group_name_H-M   'P 21'
_symmetry_Int_Tables_number      4
_space_group_name_Hall           'P 2yb'
loop_
_symmetry_equiv_pos_site_id
_symmetry_equiv_pos_as_xyz
1 x,y,z
2 -x,1/2+y,-z
_cell_length_a                   6.2583(7)
_cell_length_b                   7.3007(8)
_cell_length_c                   16.5882(16)
_cell_angle_alpha                90
_cell_angle_beta                 98.717(3)
_cell_angle_gamma                90
_cell_volume                     749.16
_exptl_crystal_colour            colorless
_exptl_crystal_description       'rectangular plate'
_cell_formula_units_Z            2
_exptl_crystal_recrystallization_method methanol
loop_
_atom_site_label
_atom_site_type_symbol
_atom_site_fract_x
_atom_site_fract_y
_atom_site_fract_z
C1 C 0.1757(4) 0.6410(4) 0.00360(14)
H1 H 0.685(3) 0.731(4) 0.0684(13)
C2 C 0.1850(4) 0.6327(5) -0.07953(14)
C3 C 0.3786(4) 0.6642(4) -0.10757(14)
C4 C 0.5628(4) 0.7014(4) -0.05384(14)
C5 C 0.5553(3) 0.7103(3) 0.02921(13)
C6 C 0.3609(3) 0.6806(3) 0.05785(12)
C7 C 0.3601(3) 0.6870(3) 0.14753(12)
O1 O 0.5146(2) 0.7188(3) 0.19793(9)
O2 O 0.1620(2) 0.6507(2) 0.16627(8)
C8 C 0.1440(3) 0.6285(3) 0.25120(11)
C9 C 0.0548(3) 0.7972(3) 0.28839(12)
C10 C -0.0424(3) 0.7156(3) 0.35983(12)
C11 C -0.2173(3) 0.8310(3) 0.39001(12)
C12 C -0.1214(4) 0.9896(3) 0.44350(13)
C13 C -0.3583(3) 0.7127(3) 0.43563(13)
O3 O -0.4512(4) 0.7695(3) 0.48983(12)
N1 N -0.3883(3) 0.5358(3) 0.41008(10)
C14 C -0.2962(3) 0.4540(3) 0.34710(12)
O4 O -0.3728(2) 0.3096(2) 0.31656(8)
N2 N -0.1273(3) 0.5396(2) 0.32537(9)
C15 C -0.0214(3) 0.4761(3) 0.25732(12)
C16 C 0.0837(3) 0.2886(3) 0.27386(15)
O5 O 0.2026(5) 0.2663(4) 0.34325(16)
H2 H 0.033(4) 0.613(4) 0.0226(14)
H3 H 0.055(4) 0.603(4) -0.1169(15)
H4 H 0.380(4) 0.655(4) -0.1652(15)
H5 H 0.701(3) 0.724(3) -0.0714(13)
H6 H 0.287(3) 0.598(3) 0.2800(12)
H7 H 0.164(4) 0.898(3) 0.3068(13)
H8 H -0.061(4) 0.860(3) 0.2491(13)
H9 H 0.077(4) 0.694(3) 0.4039(13)
H10 H -0.320(4) 0.871(4) 0.3410(15)
H11 H -0.242(4) 1.069(4) 0.4586(14)
H12 H -0.032(4) 0.936(4) 0.4939(17)
H13 H -0.022(4) 1.070(4) 0.4122(15)
H14 H -0.472(4) 0.463(4) 0.4358(14)
H15 H -0.130(3) 0.474(3) 0.2078(11)
H16 H -0.022(4) 0.200(4) 0.2735(14)
H17 H 0.309(9) 0.265(8) 0.336(3)
O6? O 0.2284(5) 0.2458(5) 0.22627(19)
H18? H 0.336(8) 0.261(8) 0.248(3)
loop_
_geom_bond_atom_site_label_1
_geom_bond_atom_site_label_2
_geom_bond_site_symmetry_1
_geom_bond_site_symmetry_2
C1 C2 1_555 1_555
H1 C5 1_555 1_555
C2 C3 1_555 1_555
C3 C4 1_555 1_555
C4 C5 1_555 1_555
C5 C6 1_555 1_555
C6 C1 1_555 1_555
C7 C6 1_555 1_555
O1 C7 1_555 1_555
O2 C7 1_555 1_555
C8 O2 1_555 1_555
C9 C8 1_555 1_555
C10 C9 1_555 1_555
C11 C10 1_555 1_555
C12 C11 1_555 1_555
C13 C11 1_555 1_555
O3 C13 1_555 1_555
N1 C13 1_555 1_555
C14 N1 1_555 1_555
O4 C14 1_555 1_555
N2 C10 1_555 1_555
C15 C8 1_555 1_555
C16 C15 1_555 1_555
O5 C16 1_555 1_555
H2 C1 1_555 1_555
H3 C2 1_555 1_555
H4 C3 1_555 1_555
H5 C4 1_555 1_555
H6 C8 1_555 1_555
H7 C9 1_555 1_555
H8 C9 1_555 1_555
H9 C10 1_555 1_555
H10 C11 1_555 1_555
H11 C12 1_555 1_555
H12 C12 1_555 1_555
H13 C12 1_555 1_555
H14 N1 1_555 1_555
H15 C15 1_555 1_555
H16 C16 1_555 1_555
H17 O5 1_555 1_555
C14 N2 1_555 1_555
N2 C15 1_555 1_555

#END
