
#######################################################################
#
#                 Cambridge Crystallographic Data Centre
#                                CCDC 
#
#######################################################################
#
# If this CIF has been generated from an entry in the Cambridge 
# Structural Database, then it will include bibliographic, chemical, 
# crystal, experimental, refinement or atomic coordinate data resulting 
# from the CCDC's data processing and validation procedures.
#
#######################################################################

data_LECSIY
_chemical_formula_moiety         'C33 H37 N3 O4,0.5(C6 H12)'
_chemical_name_systematic        
'5-[2,6-bis{2-[4-(dimethylamino)phenyl]ethenyl}-1-ethylpyridin-4(1H)-ylidene]-2,2-dimethyl-1,3-dioxane-4,6-dione cyclohexane solvate'
_symmetry_cell_setting           triclinic
_symmetry_space_group_name_H-M   'P -1'
_symmetry_Int_Tables_number      2
_space_group_name_Hall           '-P 1'
loop_
_symmetry_equiv_pos_site_id
_symmetry_equiv_pos_as_xyz
1 x,y,z
2 -x,-y,-z
_cell_length_a                   14.7343(14)
_cell_length_b                   14.7727(15)
_cell_length_c                   15.7694(15)
_cell_angle_alpha                92.545(3)
_cell_angle_beta                 93.186(2)
_cell_angle_gamma                110.150(2)
_cell_volume                     3209.98
_exptl_crystal_colour            colorless
_exptl_crystal_description       prismatic
_cell_formula_units_Z            4
loop_
_atom_site_label
_atom_site_type_symbol
_atom_site_fract_x
_atom_site_fract_y
_atom_site_fract_z
N1 N 0.56179(17) 0.12619(18) 0.95114(15)
N2 N 0.4066(2) 0.0515(2) 0.39064(18)
N3 N 0.9456(2) 0.2698(3) 1.43975(19)
O1 O 0.12491(14) 0.07310(16) 1.02825(14)
O2 O 0.20472(16) 0.14335(18) 1.15850(14)
O3 O 0.18964(16) 0.00110(19) 0.93782(16)
O4 O 0.35446(17) 0.1564(2) 1.19573(14)
C1 C 0.2044(2) 0.0544(2) 1.0017(2)
C2 C 0.2929(2) 0.0961(2) 1.05363(18)
C3 C 0.2903(2) 0.1327(2) 1.1382(2)
C4 C 0.1415(2) 0.1512(3) 1.0897(2)
C5 C 0.1841(3) 0.2461(3) 1.0498(3)
H1 H 0.1950 0.2983 1.0921
H2 H 0.1400 0.2506 1.0045
H3 H 0.2446 0.2498 1.0276
C6 C 0.0460(3) 0.1393(3) 1.1265(3)
H4 H 0.0237 0.0791 1.1532
H5 H -0.0008 0.1395 1.0818
H6 H 0.0545 0.1917 1.1680
C7 C 0.3831(2) 0.1007(2) 1.01993(18)
C8 C 0.3929(2) 0.0960(2) 0.93189(19)
H7 H 0.3377 0.0829 0.8950
C9 C 0.4801(2) 0.1099(2) 0.89763(18)
C10 C 0.5572(2) 0.1304(2) 1.03765(18)
C11 C 0.4694(2) 0.1162(2) 1.07055(19)
H8 H 0.4668 0.1168 1.1294
C12 C 0.4864(2) 0.1114(2) 0.80578(19)
H9 H 0.5440 0.1500 0.7852
C13 C 0.4136(2) 0.0601(2) 0.74978(19)
H10 H 0.3587 0.0185 0.7721
C14 C 0.4110(2) 0.0621(2) 0.65796(19)
C15 C 0.3359(2) -0.0060(2) 0.6073(2)
H11 H 0.2857 -0.0499 0.6334
C16 C 0.3336(2) -0.0103(3) 0.5197(2)
H12 H 0.2826 -0.0575 0.4881
C17 C 0.4063(3) 0.0548(3) 0.4778(2)
C18 C 0.4794(2) 0.1257(2) 0.5286(2)
H13 H 0.5277 0.1722 0.5027
C19 C 0.4817(2) 0.1285(2) 0.6154(2)
H14 H 0.5321 0.1763 0.6470
C20 C 0.3325(3) -0.0217(3) 0.3385(2)
H15 H 0.3331 -0.0842 0.3522
H16 H 0.3443 -0.0127 0.2796
H17 H 0.2705 -0.0173 0.3486
C21 C 0.4847(3) 0.1161(3) 0.3493(2)
H18 H 0.4840 0.1807 0.3572
H19 H 0.4775 0.0972 0.2896
H20 H 0.5451 0.1140 0.3735
C22 C 0.6436(2) 0.1489(2) 1.09387(19)
H21 H 0.6904 0.1239 1.0775
C23 C 0.6587(2) 0.2002(2) 1.1678(2)
H22 H 0.6130 0.2288 1.1786
C24 C 0.7362(2) 0.2180(2) 1.23414(19)
C25 C 0.8109(2) 0.1804(2) 1.2325(2)
H23 H 0.8144 0.1430 1.1847
C26 C 0.8789(2) 0.1971(2) 1.2994(2)
H24 H 0.9274 0.1705 1.2958
C27 C 0.8782(2) 0.2529(2) 1.3729(2)
C28 C 0.8038(2) 0.2906(3) 1.3745(2)
H25 H 0.8001 0.3281 1.4223
C29 C 0.7361(2) 0.2737(3) 1.3076(2)
H26 H 0.6878 0.3007 1.3112
C30 C 0.9442(3) 0.3309(4) 1.5132(3)
H27 H 0.9354 0.3887 1.4950
H28 H 1.0045 0.3477 1.5472
H29 H 0.8918 0.2971 1.5464
C31 C 1.0229(3) 0.2327(3) 1.4399(3)
H30 H 0.9970 0.1639 1.4276
H31 H 1.0580 0.2471 1.4949
H32 H 1.0658 0.2620 1.3974
C32 C 0.6575(2) 0.1479(3) 0.9148(2)
H33 H 0.6485 0.1153 0.8585
H34 H 0.6986 0.1236 0.9505
C33 C 0.7064(3) 0.2550(3) 0.9087(3)
H35 H 0.6711 0.2772 0.8664
H36 H 0.7715 0.2681 0.8931
H37 H 0.7077 0.2881 0.9629
N4 N 0.55975(17) 0.63328(18) 0.54853(15)
N5 N 0.4218(2) 0.5747(2) 1.09098(18)
N6 N 1.0064(3) 0.7988(3) 0.1774(2)
O5 O 0.11470(14) 0.48263(16) 0.39941(13)
O6 O 0.18406(16) 0.58657(16) 0.29488(14)
O7 O 0.19643(15) 0.46933(18) 0.51556(14)
O8 O 0.33854(17) 0.67457(18) 0.30230(14)
C34 C 0.2014(2) 0.5060(2) 0.4472(2)
C35 C 0.2846(2) 0.5684(2) 0.41252(18)
C36 C 0.2760(2) 0.6128(2) 0.3353(2)
C37 C 0.1149(2) 0.4949(2) 0.3109(2)
C38 C 0.0171(2) 0.4975(3) 0.2822(3)
H38 H -0.0316 0.4361 0.2894
H39 H 0.0161 0.5111 0.2233
H40 H 0.0043 0.5471 0.3156
C39 C 0.1383(3) 0.4148(3) 0.2649(2)
H41 H 0.2004 0.4150 0.2868
H42 H 0.1397 0.4247 0.2052
H43 H 0.0896 0.3538 0.2734
C40 C 0.3786(2) 0.5928(2) 0.45850(18)
C41 C 0.3897(2) 0.5919(2) 0.54757(19)
H44 H 0.3344 0.5765 0.5776
C42 C 0.4773(2) 0.6126(2) 0.59221(18)
C43 C 0.5540(2) 0.6370(2) 0.46164(19)
C44 C 0.4658(2) 0.6183(2) 0.41847(19)
H45 H 0.4634 0.6227 0.3598
C45 C 0.4866(2) 0.6183(2) 0.68504(18)
H46 H 0.5435 0.6613 0.7129
C46 C 0.4178(2) 0.5650(2) 0.73235(19)
H47 H 0.3632 0.5201 0.7030
C47 C 0.4193(2) 0.5699(2) 0.82410(19)
C48 C 0.3439(2) 0.5080(3) 0.8649(2)
H48 H 0.2915 0.4640 0.8321
C49 C 0.3436(3) 0.5093(3) 0.9527(2)
H49 H 0.2911 0.4668 0.9774
C50 C 0.4205(3) 0.5729(2) 1.0045(2)
C51 C 0.4956(2) 0.6362(2) 0.9632(2)
H50 H 0.5476 0.6812 0.9956
C52 C 0.4948(2) 0.6337(2) 0.8767(2)
H51 H 0.5470 0.6767 0.8520
C53 C 0.3430(3) 0.5100(3) 1.1330(2)
H52 H 0.2828 0.5145 1.1109
H53 H 0.3522 0.5274 1.1931
H54 H 0.3415 0.4449 1.1232
C54 C 0.5032(3) 0.6361(3) 1.1449(2)
H55 H 0.5562 0.6126 1.1415
H56 H 0.4857 0.6360 1.2026
H57 H 0.5223 0.7007 1.1267
C55 C 0.6423(2) 0.6572(2) 0.41686(19)
H58 H 0.6885 0.6325 0.4379
C56 C 0.6619(2) 0.7078(2) 0.3488(2)
H59 H 0.6161 0.7338 0.3291
C57 C 0.7474(2) 0.7266(2) 0.30210(19)
C58 C 0.8162(2) 0.6837(2) 0.3186(2)
H60 H 0.8058 0.6386 0.3596
C59 C 0.8983(3) 0.7058(3) 0.2765(2)
H61 H 0.9416 0.6739 0.2887
C60 C 0.9203(3) 0.7743(3) 0.2157(2)
C61 C 0.8511(3) 0.8161(3) 0.1974(2)
H62 H 0.8615 0.8611 0.1562
C62 C 0.7676(3) 0.7924(3) 0.2391(2)
H63 H 0.7225 0.8215 0.2246
C63 C 1.0381(3) 0.8804(4) 0.1288(3)
H64 H 0.9836 0.8861 0.0961
H65 H 1.0844 0.8731 0.0911
H66 H 1.0677 0.9374 0.1661
C64 C 1.0828(4) 0.7669(4) 0.2123(4)
H67 H 1.0937 0.7838 0.2724
H68 H 1.1413 0.7976 0.1852
H69 H 1.0636 0.6980 0.2023
C65 C 0.6555(2) 0.6532(2) 0.5956(2)
H70 H 0.6938 0.6247 0.5629
H71 H 0.6459 0.6232 0.6494
C66 C 0.7100(3) 0.7599(3) 0.6123(2)
H72 H 0.7185 0.7901 0.5592
H73 H 0.7722 0.7698 0.6408
H74 H 0.6739 0.7878 0.6474
C67 C 0.9524(8) 0.3870(11) 0.0393(7)
H75 H 0.9034 0.3303 0.0105
H76 H 0.9763 0.3700 0.0926
C68 C 0.9163(9) 0.4693(12) 0.0516(7)
H77 H 0.9150 0.4811 0.1124
H78 H 0.8495 0.4469 0.0279
C69 C 0.9669(10) 0.5657(11) 0.0165(8)
H79 H 0.9130 0.5797 -0.0109
H80 H 0.9858 0.6086 0.0677
C67A C 1.0476(8) 0.6130(11) -0.0393(7)
H75A H 1.0966 0.6697 -0.0105
H76A H 1.0237 0.6300 -0.0926
C68A C 1.0837(9) 0.5307(12) -0.0516(7)
H77A H 1.0850 0.5189 -0.1124
H78A H 1.1505 0.5531 -0.0279
C69A C 1.0331(10) 0.4343(11) -0.0165(8)
H79A H 1.0870 0.4203 0.0109
H80A H 1.0142 0.3914 -0.0677
C70 C 0.0615(10) 0.0402(7) 0.5755(9)
H81 H 0.0903 0.1089 0.5912
H82 H 0.0916 0.0084 0.6148
C71 C 0.0927(9) 0.0254(7) 0.4937(9)
H83 H 0.1301 -0.0162 0.5039
H84 H 0.1399 0.0880 0.4843
C72 C 0.0421(7) -0.0111(5) 0.4055(8)
H85 H 0.0586 0.0395 0.3659
H86 H 0.0576 -0.0656 0.3827
C70A C -0.0615(10) -0.0402(7) 0.4245(9)
H81A H -0.0903 -0.1089 0.4088
H82A H -0.0916 -0.0084 0.3852
C71A C -0.0927(9) -0.0254(7) 0.5063(9)
H83A H -0.1301 0.0162 0.4961
H84A H -0.1399 -0.0880 0.5157
C72A C -0.0421(7) 0.0111(5) 0.5945(8)
H85A H -0.0586 -0.0395 0.6341
H86A H -0.0576 0.0656 0.6173
loop_
_geom_bond_atom_site_label_1
_geom_bond_atom_site_label_2
_geom_bond_site_symmetry_1
_geom_bond_site_symmetry_2
N1 C9 1_555 1_555
N2 C17 1_555 1_555
N3 C27 1_555 1_555
O1 C1 1_555 1_555
O2 C3 1_555 1_555
O3 C1 1_555 1_555
O4 C3 1_555 1_555
C1 C2 1_555 1_555
C2 C3 1_555 1_555
C4 O1 1_555 1_555
C5 C4 1_555 1_555
H1 C5 1_555 1_555
H2 C5 1_555 1_555
H3 C5 1_555 1_555
C6 C4 1_555 1_555
H4 C6 1_555 1_555
H5 C6 1_555 1_555
H6 C6 1_555 1_555
C7 C2 1_555 1_555
C8 C7 1_555 1_555
H7 C8 1_555 1_555
C9 C8 1_555 1_555
C10 N1 1_555 1_555
C11 C7 1_555 1_555
H8 C11 1_555 1_555
C12 C9 1_555 1_555
H9 C12 1_555 1_555
C13 C12 1_555 1_555
H10 C13 1_555 1_555
C14 C13 1_555 1_555
C15 C14 1_555 1_555
H11 C15 1_555 1_555
C16 C15 1_555 1_555
H12 C16 1_555 1_555
C17 C16 1_555 1_555
C18 C17 1_555 1_555
H13 C18 1_555 1_555
C19 C14 1_555 1_555
H14 C19 1_555 1_555
C20 N2 1_555 1_555
H15 C20 1_555 1_555
H16 C20 1_555 1_555
H17 C20 1_555 1_555
C21 N2 1_555 1_555
H18 C21 1_555 1_555
H19 C21 1_555 1_555
H20 C21 1_555 1_555
C22 C10 1_555 1_555
H21 C22 1_555 1_555
C23 C22 1_555 1_555
H22 C23 1_555 1_555
C24 C23 1_555 1_555
C25 C24 1_555 1_555
H23 C25 1_555 1_555
C26 C25 1_555 1_555
H24 C26 1_555 1_555
C27 C26 1_555 1_555
C28 C27 1_555 1_555
H25 C28 1_555 1_555
C29 C24 1_555 1_555
H26 C29 1_555 1_555
C30 N3 1_555 1_555
H27 C30 1_555 1_555
H28 C30 1_555 1_555
H29 C30 1_555 1_555
C31 N3 1_555 1_555
H30 C31 1_555 1_555
H31 C31 1_555 1_555
H32 C31 1_555 1_555
C32 N1 1_555 1_555
H33 C32 1_555 1_555
H34 C32 1_555 1_555
C33 C32 1_555 1_555
H35 C33 1_555 1_555
H36 C33 1_555 1_555
H37 C33 1_555 1_555
N4 C42 1_555 1_555
N5 C50 1_555 1_555
N6 C60 1_555 1_555
O5 C34 1_555 1_555
O6 C36 1_555 1_555
O7 C34 1_555 1_555
O8 C36 1_555 1_555
C34 C35 1_555 1_555
C35 C36 1_555 1_555
C37 O5 1_555 1_555
C38 C37 1_555 1_555
H38 C38 1_555 1_555
H39 C38 1_555 1_555
H40 C38 1_555 1_555
C39 C37 1_555 1_555
H41 C39 1_555 1_555
H42 C39 1_555 1_555
H43 C39 1_555 1_555
C40 C35 1_555 1_555
C41 C40 1_555 1_555
H44 C41 1_555 1_555
C42 C41 1_555 1_555
C43 N4 1_555 1_555
C44 C40 1_555 1_555
H45 C44 1_555 1_555
C45 C42 1_555 1_555
H46 C45 1_555 1_555
C46 C45 1_555 1_555
H47 C46 1_555 1_555
C47 C46 1_555 1_555
C48 C47 1_555 1_555
H48 C48 1_555 1_555
C49 C48 1_555 1_555
H49 C49 1_555 1_555
C50 C49 1_555 1_555
C51 C50 1_555 1_555
H50 C51 1_555 1_555
C52 C47 1_555 1_555
H51 C52 1_555 1_555
C53 N5 1_555 1_555
H52 C53 1_555 1_555
H53 C53 1_555 1_555
H54 C53 1_555 1_555
C54 N5 1_555 1_555
H55 C54 1_555 1_555
H56 C54 1_555 1_555
H57 C54 1_555 1_555
C55 C43 1_555 1_555
H58 C55 1_555 1_555
C56 C55 1_555 1_555
H59 C56 1_555 1_555
C57 C56 1_555 1_555
C58 C57 1_555 1_555
H60 C58 1_555 1_555
C59 C58 1_555 1_555
H61 C59 1_555 1_555
C60 C59 1_555 1_555
C61 C60 1_555 1_555
H62 C61 1_555 1_555
C62 C57 1_555 1_555
H63 C62 1_555 1_555
C63 N6 1_555 1_555
H64 C63 1_555 1_555
H65 C63 1_555 1_555
H66 C63 1_555 1_555
C64 N6 1_555 1_555
H67 C64 1_555 1_555
H68 C64 1_555 1_555
H69 C64 1_555 1_555
C65 N4 1_555 1_555
H70 C65 1_555 1_555
H71 C65 1_555 1_555
C66 C65 1_555 1_555
H72 C66 1_555 1_555
H73 C66 1_555 1_555
H74 C66 1_555 1_555
C67 H75 1_555 1_555
H76 C67 1_555 1_555
C68 C67 1_555 1_555
H77 C68 1_555 1_555
H78 C68 1_555 1_555
C69 C68 1_555 1_555
H79 C69 1_555 1_555
H80 C69 1_555 1_555
C70 H81 1_555 1_555
H82 C70 1_555 1_555
C71 C70 1_555 1_555
H83 C71 1_555 1_555
H84 C71 1_555 1_555
C72 C71 1_555 1_555
H85 C72 1_555 1_555
H86 C72 1_555 1_555
C67A C69 1_555 1_555
H75A C67A 1_555 1_555
H76A C67A 1_555 1_555
C68A C67A 1_555 1_555
H77A C68A 1_555 1_555
H78A C68A 1_555 1_555
C69A C67 1_555 1_555
H79A C69A 1_555 1_555
H80A C69A 1_555 1_555
C70A C72 1_555 1_555
H81A C70A 1_555 1_555
H82A C70A 1_555 1_555
C71A C70A 1_555 1_555
H83A C71A 1_555 1_555
H84A C71A 1_555 1_555
C72A C70 1_555 1_555
H85A C72A 1_555 1_555
H86A C72A 1_555 1_555
O2 C4 1_555 1_555
C10 C11 1_555 1_555
C18 C19 1_555 1_555
C28 C29 1_555 1_555
O6 C37 1_555 1_555
C43 C44 1_555 1_555
C51 C52 1_555 1_555
C61 C62 1_555 1_555
C68A C69A 1_555 1_555
C71A C72A 1_555 1_555

#END
