
#######################################################################
#
#                 Cambridge Crystallographic Data Centre
#                                CCDC 
#
#######################################################################
#
# If this CIF has been generated from an entry in the Cambridge 
# Structural Database, then it will include bibliographic, chemical, 
# crystal, experimental, refinement or atomic coordinate data resulting 
# from the CCDC's data processing and validation procedures.
#
#######################################################################

data_LEDDUW
_chemical_formula_moiety         'C23 H26 Cl1 O11'
_chemical_name_systematic        
'3,4-bis(acetyloxy)-6-[(acetyloxy)methyl]-5-(1-hydroxyethoxy)oxan-2-yl 3-(4-chlorophenyl)prop-2-enoate'
_chemical_properties_biological  'potent acaricidal activity'
_symmetry_cell_setting           orthorhombic
_symmetry_space_group_name_H-M   'P 21 21 21'
_symmetry_Int_Tables_number      19
_space_group_name_Hall           'P 2ac 2ab'
loop_
_symmetry_equiv_pos_site_id
_symmetry_equiv_pos_as_xyz
1 x,y,z
2 1/2-x,-y,1/2+z
3 1/2+x,1/2-y,-z
4 -x,1/2+y,1/2-z
_cell_length_a                   21.2653(15)
_cell_length_b                   20.4571(10)
_cell_length_c                   5.8193(3)
_cell_angle_alpha                90
_cell_angle_beta                 90
_cell_angle_gamma                90
_cell_volume                     2531.55
_exptl_crystal_colour            colorless
_exptl_crystal_description       needle
_cell_formula_units_Z            4
loop_
_atom_site_label
_atom_site_type_symbol
_atom_site_fract_x
_atom_site_fract_y
_atom_site_fract_z
Cl1 Cl -0.19473(18) -0.79456(13) -0.8112(5)
O1 O -0.0632(3) -1.2906(3) -0.2946(11)
O2 O -0.1343(3) -1.2220(3) -0.4604(9)
O3 O -0.1440(4) -1.1737(3) -0.1122(11)
O4 O -0.2123(3) -1.3312(3) -0.5562(9)
O5 O -0.2045(4) -1.3433(4) -0.9384(11)
O6 O -0.1360(3) -1.4480(3) -0.6286(9)
O7 O -0.1910(4) -1.5169(3) -0.4090(12)
O8 O -0.0515(3) -1.4675(3) -0.2464(10)
O9 O 0.0146(4) -1.3093(4) 0.1244(16)
O10 O 0.0613(5) -1.2342(5) -0.0909(18)
C1 C -0.1279(4) -1.2841(4) -0.3548(15)
H1 H -0.154897 -1.287614 -0.218754
C2 C -0.1447(4) -1.3349(4) -0.5302(14)
H2 H -0.123429 -1.326443 -0.676532
C3 C -0.1285(4) -1.4026(4) -0.4390(14)
H3 H -0.156897 -1.414405 -0.313024
C4 C -0.0603(4) -1.4052(4) -0.3570(16)
H4 H -0.031069 -1.399801 -0.485945
C5 C -0.0513(4) -1.3517(4) -0.1806(16)
H5 H -0.080059 -1.357687 -0.050630
C6 C -0.1424(4) -1.1682(4) -0.3176(17)
C7 C -0.1475(4) -1.1094(4) -0.4538(17)
H6 H -0.140071 -1.110977 -0.611219
C8 C -0.1628(4) -1.0530(4) -0.3544(17)
H7 H -0.170435 -1.054203 -0.197105
C9 C -0.1688(4) -0.9899(4) -0.4648(15)
C10 C -0.1395(5) -0.9765(5) -0.6760(15)
H8 H -0.115237 -1.008440 -0.747299
C11 C -0.1466(5) -0.9168(5) -0.7766(17)
H9 H -0.126506 -0.908001 -0.915130
C12 C -0.1828(6) -0.8698(5) -0.6762(19)
C13 C -0.2114(5) -0.8801(5) -0.4646(18)
H10 H -0.235361 -0.847533 -0.395825
C14 C -0.2032(5) -0.9402(4) -0.3583(15)
H11 H -0.220824 -0.947461 -0.214338
C15 C -0.2365(5) -1.3343(4) -0.7710(18)
C16 C -0.3051(4) -1.3274(4) -0.7703(18)
H12 H -0.323674 -1.364505 -0.695638
H13 H -0.320144 -1.324773 -0.925631
H14 H -0.316540 -1.288255 -0.689162
C17 C -0.1680(5) -1.5030(4) -0.5887(17)
C18 C -0.1688(5) -1.5450(5) -0.8017(16)
H15 H -0.179923 -1.518733 -0.932155
H16 H -0.199062 -1.579433 -0.783332
H17 H -0.127842 -1.563625 -0.825170
C19 C -0.0139(6) -1.5121(6) -0.343(3)
C20 C -0.0142(6) -1.5738(5) -0.209(2)
H18 H -0.015291 -1.563864 -0.047631
H19 H 0.023038 -1.598401 -0.243112
H20 H -0.050661 -1.599015 -0.249117
C21 C 0.0168(5) -1.3492(5) -0.099(2)
H21 H 0.043401 -1.328095 -0.212044
H22 H 0.032801 -1.392892 -0.070042
C22 C 0.0357(6) -1.2521(8) 0.089(3)
C23 C 0.0306(6) -1.2070(5) 0.2856(19)
H23 H -0.009690 -1.185831 0.282422
H24 H 0.063228 -1.174707 0.276055
H25 H 0.034903 -1.231075 0.426365
O11 O 0.0285(15) -1.4912(13) -0.439(6)
O12? O 0.0049(16) -1.5059(14) -0.555(4)
loop_
_geom_bond_atom_site_label_1
_geom_bond_atom_site_label_2
_geom_bond_site_symmetry_1
_geom_bond_site_symmetry_2
Cl1 C12 1_555 1_555
O1 C1 1_555 1_555
O2 C1 1_555 1_555
O3 C6 1_555 1_555
O4 C2 1_555 1_555
O5 C15 1_555 1_555
O6 C3 1_555 1_555
O7 C17 1_555 1_555
O8 C4 1_555 1_555
O9 C21 1_555 1_555
O10 C22 1_555 1_555
C1 H1 1_555 1_555
C2 C1 1_555 1_555
H2 C2 1_555 1_555
C3 C2 1_555 1_555
H3 C3 1_555 1_555
C4 C3 1_555 1_555
H4 C4 1_555 1_555
C5 O1 1_555 1_555
H5 C5 1_555 1_555
C6 O2 1_555 1_555
C7 C6 1_555 1_555
H6 C7 1_555 1_555
C8 C7 1_555 1_555
H7 C8 1_555 1_555
C9 C8 1_555 1_555
C10 C9 1_555 1_555
H8 C10 1_555 1_555
C11 C10 1_555 1_555
H9 C11 1_555 1_555
C12 C11 1_555 1_555
C13 C12 1_555 1_555
H10 C13 1_555 1_555
C14 C9 1_555 1_555
H11 C14 1_555 1_555
C15 O4 1_555 1_555
C16 C15 1_555 1_555
H12 C16 1_555 1_555
H13 C16 1_555 1_555
H14 C16 1_555 1_555
C17 O6 1_555 1_555
C18 C17 1_555 1_555
H15 C18 1_555 1_555
H16 C18 1_555 1_555
H17 C18 1_555 1_555
C19 O8 1_555 1_555
C20 C19 1_555 1_555
H18 C20 1_555 1_555
H19 C20 1_555 1_555
H20 C20 1_555 1_555
C21 C5 1_555 1_555
H21 C21 1_555 1_555
H22 C21 1_555 1_555
C22 O9 1_555 1_555
C23 C22 1_555 1_555
H23 C23 1_555 1_555
H24 C23 1_555 1_555
H25 C23 1_555 1_555
O11 C19 1_555 1_555
C4 C5 1_555 1_555
C13 C14 1_555 1_555

#END
