
#######################################################################
#
#                 Cambridge Crystallographic Data Centre
#                                CCDC 
#
#######################################################################
#
# If this CIF has been generated from an entry in the Cambridge 
# Structural Database, then it will include bibliographic, chemical, 
# crystal, experimental, refinement or atomic coordinate data resulting 
# from the CCDC's data processing and validation procedures.
#
#######################################################################

data_LEDQES
_chemical_formula_moiety         'C14 H10 N4 O2 S1'
_chemical_name_systematic        
N-Carbamoyl-5-cyano-6-(phenylsulfanyl)nicotinamide
_symmetry_cell_setting           triclinic
_symmetry_space_group_name_H-M   'P -1'
_symmetry_Int_Tables_number      2
_space_group_name_Hall           '-P 1'
loop_
_symmetry_equiv_pos_site_id
_symmetry_equiv_pos_as_xyz
1 x,y,z
2 -x,-y,-z
_cell_length_a                   7.185(9)
_cell_length_b                   7.718(9)
_cell_length_c                   12.095(14)
_cell_angle_alpha                99.548(12)
_cell_angle_beta                 91.258(14)
_cell_angle_gamma                93.960(14)
_cell_volume                     659.463
_exptl_crystal_colour            colorless
_exptl_crystal_description       block
_cell_formula_units_Z            2
_exptl_crystal_recrystallization_method methanol/water
loop_
_atom_site_label
_atom_site_type_symbol
_atom_site_fract_x
_atom_site_fract_y
_atom_site_fract_z
C1 C 0.2077(9) 0.7652(9) 0.7645(5)
C2 C 0.1747(9) 0.7153(9) 0.8692(6)
C3 C 0.1974(9) 0.8364(8) 0.9633(5)
H1 H 0.1706 0.8049 1.0325
C4 C 0.2608(8) 1.0080(8) 0.9569(5)
C5 C 0.2922(9) 1.0473(9) 0.8517(6)
H2 H 0.3333 1.1625 0.8463
C6 C 0.1097(10) 0.5388(10) 0.8705(5)
C7 C 0.2790(9) 1.1396(9) 1.0620(5)
C8 C 0.3783(10) 1.4428(9) 1.1441(5)
C9 C 0.2311(12) 0.7238(9) 0.5337(5)
C10 C 0.0993(13) 0.7855(11) 0.4733(7)
H3 H -0.0247 0.7785 0.4938
C11 C 0.1502(15) 0.8618(11) 0.3774(7)
H4 H 0.0617 0.9030 0.3329
C12 C 0.3354(16) 0.8712(11) 0.3546(7)
H5 H 0.3709 0.9220 0.2931
C13 C 0.4671(12) 0.8138(10) 0.4129(7)
H6 H 0.5912 0.8266 0.3935
C14 C 0.4184(12) 0.7332(9) 0.5046(6)
H7 H 0.5084 0.6870 0.5453
N1 N 0.2673(8) 0.9307(7) 0.7565(4)
N2 N 0.0583(9) 0.3955(8) 0.8721(5)
N3 N 0.3590(7) 1.2983(7) 1.0581(4)
H8 H 0.4043 1.3137 0.9950
N4 N 0.3201(9) 1.4188(8) 1.2438(5)
H9 H 0.3308 1.5046 1.2994
H10 H 0.2717 1.3174 1.2531
O1 O 0.2240(7) 1.0953(6) 1.1497(3)
O2 O 0.4489(7) 1.5827(6) 1.1233(4)
S1 S 0.1656(3) 0.6097(3) 0.64411(16)
loop_
_geom_bond_atom_site_label_1
_geom_bond_atom_site_label_2
_geom_bond_site_symmetry_1
_geom_bond_site_symmetry_2
C1 C2 1_555 1_555
C2 C3 1_555 1_555
C3 H1 1_555 1_555
C4 C3 1_555 1_555
C5 C4 1_555 1_555
H2 C5 1_555 1_555
C6 C2 1_555 1_555
C7 C4 1_555 1_555
C8 N3 1_555 1_555
C9 C10 1_555 1_555
C10 H3 1_555 1_555
C11 C10 1_555 1_555
H4 C11 1_555 1_555
C12 C11 1_555 1_555
H5 C12 1_555 1_555
C13 C12 1_555 1_555
H6 C13 1_555 1_555
C14 C9 1_555 1_555
H7 C14 1_555 1_555
N1 C1 1_555 1_555
N2 C6 1_555 1_555
N3 C7 1_555 1_555
H8 N3 1_555 1_555
N4 C8 1_555 1_555
H9 N4 1_555 1_555
H10 N4 1_555 1_555
O1 C7 1_555 1_555
O2 C8 1_555 1_555
S1 C1 1_555 1_555
C5 N1 1_555 1_555
C9 S1 1_555 1_555
C13 C14 1_555 1_555

#END
