
#######################################################################
#
#                 Cambridge Crystallographic Data Centre
#                                CCDC 
#
#######################################################################
#
# If this CIF has been generated from an entry in the Cambridge 
# Structural Database, then it will include bibliographic, chemical, 
# crystal, experimental, refinement or atomic coordinate data resulting 
# from the CCDC's data processing and validation procedures.
#
#######################################################################

data_LEDXOK
_chemical_formula_moiety         'C48 H65 F2 N1 O6 S1'
_chemical_name_systematic        
'ethyl 3-(3-(((3S,8S,9S,10R,13R,14S,17R)-10,13-dimethyl-17-((R)-6-methylheptan-2-yl)-2,3,4,7,8,9,10,11,12,13,14,15,16,17-tetradecahydro-1H-cyclopenta(a)phenanthren-3-yl)oxy)-2,2-difluoro-3-oxopropyl)-1-p-tosylindoline-2-carboxylate'
_symmetry_cell_setting           monoclinic
_symmetry_space_group_name_H-M   'P 21'
_symmetry_Int_Tables_number      4
_space_group_name_Hall           'P 2yb'
loop_
_symmetry_equiv_pos_site_id
_symmetry_equiv_pos_as_xyz
1 x,y,z
2 -x,1/2+y,-z
_cell_length_a                   8.962(3)
_cell_length_b                   14.153(5)
_cell_length_c                   36.220(13)
_cell_angle_alpha                90
_cell_angle_beta                 96.078(7)
_cell_angle_gamma                90
_cell_volume                     4568.29
_exptl_crystal_colour            colorless
_exptl_crystal_description       block
_cell_formula_units_Z            4
loop_
_atom_site_label
_atom_site_type_symbol
_atom_site_fract_x
_atom_site_fract_y
_atom_site_fract_z
C1 C 0.4373(12) 1.4053(12) 0.9957(3)
C2 C 0.4932(13) 1.3160(9) 0.9988(3)
C3 C 0.4461(18) 1.2523(11) 1.0268(4)
H1 H 0.4774 1.1896 1.0288
C4 C 0.3504(19) 1.2918(15) 1.0507(4)
H2 H 0.3252 1.2569 1.0709
C5 C 0.2933(19) 1.3806(12) 1.0449(4)
H3 H 0.2196 1.4010 1.0593
C6 C 0.3383(15) 1.4397(11) 1.0196(3)
H4 H 0.3045 1.5018 1.0179
C7 C 0.5912(12) 1.2929(8) 0.9685(4)
H5 H 0.6860 1.2646 0.9791
C8 C 0.6182(14) 1.4017(8) 0.9552(4)
H6 H 0.6143 1.4034 0.9280
C9 C 0.7719(17) 1.4318(11) 0.9718(4)
C10 C 0.926(2) 1.5738(17) 0.9848(7)
H7 H 1.0089 1.5293 0.9860
H8 H 0.9369 1.6189 0.9651
C11 C 0.920(2) 1.616(2) 1.0167(6)
H9 H 0.9671 1.6773 1.0161
H10 H 0.9713 1.5791 1.0362
H11 H 0.8170 1.6243 1.0212
C12 C 0.2757(13) 1.4293(8) 0.9095(4)
C13 C 0.3163(16) 1.3998(11) 0.8755(5)
H12 H 0.3963 1.4274 0.8651
C14 C 0.2346(19) 1.3291(12) 0.8581(4)
H13 H 0.2663 1.3062 0.8361
C15 C 0.1106(17) 1.2889(9) 0.8699(4)
C16 C 0.0736(16) 1.3167(10) 0.9056(4)
H14 H -0.0075 1.2903 0.9159
C17 C 0.1648(15) 1.3859(10) 0.9245(3)
H15 H 0.1469 1.4020 0.9486
C18 C 0.0120(17) 1.2144(12) 0.8485(4)
H16 H 0.0695 1.1580 0.8460
H17 H -0.0227 1.2384 0.8243
H18 H -0.0726 1.2003 0.8617
C19 C 0.5115(13) 1.2289(7) 0.9399(3)
H19 H 0.4750 1.1742 0.9523
H20 H 0.4250 1.2620 0.9278
C20 C 0.6021(16) 1.1966(10) 0.9118(4)
C21 C 0.5101(18) 1.1282(12) 0.8824(5)
C22 C 0.3359(15) 1.0038(11) 0.8766(4)
H21 H 0.2952 1.0380 0.8543
C23 C 0.4042(19) 0.9214(12) 0.8641(5)
H22 H 0.4474 0.8856 0.8854
H23 H 0.4852 0.9397 0.8498
C24 C 0.2949(17) 0.8584(12) 0.8402(4)
H24 H 0.3473 0.8048 0.8310
H25 H 0.2479 0.8936 0.8191
C25 C 0.1675(14) 0.8223(8) 0.8666(4)
C26 C 0.0560(14) 0.7568(7) 0.8447(4)
H26 H 0.0423 0.7859 0.8200
C27 C 0.1094(19) 0.6625(12) 0.8373(5)
H27 H 0.1226 0.6274 0.8604
H28 H 0.2069 0.6675 0.8280
C28 C 0.0024(18) 0.6060(12) 0.8087(5)
H29 H -0.0149 0.6402 0.7854
H30 H 0.0447 0.5447 0.8039
C29 C -0.1443(13) 0.5950(8) 0.8265(4)
C30 C -0.2808(14) 0.5564(8) 0.8026(4)
H31 H -0.2746 0.5863 0.7784
C31 C -0.4207(15) 0.6004(10) 0.8160(4)
H32 H -0.4676 0.5568 0.8320
H33 H -0.4929 0.6168 0.7951
C32 C -0.3661(12) 0.6889(11) 0.8376(4)
H34 H -0.3779 0.6823 0.8637
H35 H -0.4210 0.7443 0.8280
C33 C -0.1977(13) 0.6964(9) 0.8313(3)
H36 H -0.1977 0.7251 0.8067
C34 C -0.0991(13) 0.7632(8) 0.8578(4)
H37 H -0.0943 0.7379 0.8831
C35 C -0.1571(13) 0.8567(8) 0.8578(3)
H38 H -0.2548 0.8728 0.8488
C36 C -0.0440(13) 0.9254(8) 0.8739(3)
H39 H -0.0782 0.9849 0.8800
C37 C 0.1001(14) 0.9095(8) 0.8803(3)
C38 C 0.2083(16) 0.9833(10) 0.8972(4)
H40 H 0.1532 1.0415 0.8998
H41 H 0.2464 0.9627 0.9220
C39 C 0.234(2) 0.7695(16) 0.9009(5)
H42 H 0.3148 0.8056 0.9134
H43 H 0.2709 0.7093 0.8938
H44 H 0.1578 0.7602 0.9173
C40 C -0.140(2) 0.5436(14) 0.8639(4)
H45 H -0.0465 0.5564 0.8785
H46 H -0.1501 0.4768 0.8597
H47 H -0.2213 0.5655 0.8770
C41 C -0.3054(16) 0.4529(10) 0.7931(5)
H48 H -0.3197 0.4227 0.8168
C42 C -0.4463(17) 0.4336(8) 0.7692(4)
H49 H -0.4349 0.4581 0.7446
H50 H -0.5256 0.4697 0.7788
C43 C -0.4982(18) 0.3331(12) 0.7649(5)
H51 H -0.4189 0.2979 0.7548
H52 H -0.5057 0.3087 0.7896
C44 C -0.637(2) 0.3096(13) 0.7426(5)
H53 H -0.6372 0.3450 0.7197
H54 H -0.7173 0.3357 0.7555
C45 C -0.684(3) 0.2105(19) 0.7317(7)
H55 H -0.6266 0.1776 0.7140
C46 C -0.723(3) 0.1558(18) 0.7649(6)
H56 H -0.7613 0.0947 0.7571
H57 H -0.7987 0.1894 0.7766
H58 H -0.6354 0.1483 0.7823
C47 C -0.851(4) 0.221(5) 0.7216(17)
H59 H -0.9030 0.2206 0.7434
H60 H -0.8845 0.1691 0.7059
H61 H -0.8708 0.2794 0.7085
C48 C -0.1741(19) 0.3985(15) 0.7789(7)
H62 H -0.2052 0.3729 0.7547
H63 H -0.1440 0.3480 0.7957
H64 H -0.0911 0.4407 0.7773
F1 F 0.7213(9) 1.1406(6) 0.9255(3)
F2 F 0.6622(9) 1.2655(6) 0.8927(2)
N1 N 0.4981(10) 1.4552(6) 0.9663(3)
O1 O 0.2883(9) 1.5696(5) 0.9558(3)
O2 O 0.4801(12) 1.5573(6) 0.9115(3)
O3 O 0.8785(11) 1.3836(9) 0.9746(4)
O4 O 0.7766(10) 1.5233(9) 0.9789(5)
O5 O 0.5192(17) 1.1390(11) 0.8510(4)
O6 O 0.4329(11) 1.0689(6) 0.8979(3)
S1 S 0.3860(4) 1.5131(2) 0.93504(9)
C49 C 0.5140(14) -0.0733(10) 0.4950(4)
C50 C 0.5746(12) -0.1634(8) 0.5008(3)
C51 C 0.6803(14) -0.1952(10) 0.4768(5)
H65 H 0.7204 -0.2559 0.4784
C52 C 0.7224(17) -0.126(2) 0.4491(4)
H66 H 0.7938 -0.1411 0.4332
C53 C 0.653(2) -0.0358(15) 0.4471(6)
H67 H 0.6772 0.0082 0.4297
C54 C 0.5564(19) -0.0157(12) 0.4694(4)
H68 H 0.5128 0.0439 0.4674
C55 C 0.4072(13) -0.0547(8) 0.5238(4)
H69 H 0.3116 -0.0302 0.5120
C56 C 0.3852(11) -0.1501(9) 0.5403(4)
H70 H 0.3885 -0.1470 0.5674
C57 C 0.2350(15) -0.1931(12) 0.5224(4)
C58 C 0.0805(16) -0.3119(11) 0.4958(5)
H71 H 0.0092 -0.3106 0.5142
H72 H 0.0436 -0.2712 0.4753
C59 C 0.099(2) -0.4060(15) 0.4830(6)
H73 H 0.1578 -0.4051 0.4623
H74 H 0.0027 -0.4333 0.4755
H75 H 0.1500 -0.4431 0.5027
C60 C 0.7280(14) -0.1856(8) 0.5845(4)
C61 C 0.6975(17) -0.1497(11) 0.6183(4)
H76 H 0.6146 -0.1734 0.6287
C62 C 0.783(2) -0.0807(13) 0.6377(5)
H77 H 0.7571 -0.0602 0.6606
C63 C 0.904(2) -0.0427(11) 0.6233(5)
C64 C 0.9393(14) -0.0823(11) 0.5915(4)
H78 H 1.0265 -0.0617 0.5822
C65 C 0.8581(13) -0.1492(9) 0.5723(4)
H79 H 0.8898 -0.1718 0.5504
C66 C 1.007(2) 0.0247(13) 0.6465(5)
H80 H 1.0920 -0.0092 0.6579
H81 H 0.9532 0.0525 0.6654
H82 H 1.0395 0.0736 0.6309
C67 C 0.4813(13) 0.0175(10) 0.5516(4)
H83 H 0.5739 -0.0103 0.5630
H84 H 0.5087 0.0719 0.5375
C68 C 0.3959(17) 0.0529(10) 0.5822(5)
C69 C 0.491(2) 0.1031(13) 0.6135(4)
O7 O 0.550(2) 0.0785(13) 0.6462(4)
C70 C 0.644(2) 0.2429(14) 0.6193(6)
H85 H 0.6588 0.2242 0.6455
C71 C 0.5771(19) 0.3380(13) 0.6143(5)
H86 H 0.4835 0.3414 0.6254
H87 H 0.5576 0.3532 0.5881
C72 C 0.7017(18) 0.4118(10) 0.6351(4)
C73 C 0.657(2) 0.4803(13) 0.6545(5)
H88 H 0.5543 0.4839 0.6565
C74 C 0.747(3) 0.5495(16) 0.6727(7)
H89 H 0.7190 0.5851 0.6924
C75 C 0.893(2) 0.5599(18) 0.6568(6)
H90 H 0.8734 0.5898 0.6324
C76 C 1.008(2) 0.6278(12) 0.6825(6)
H91 H 1.0300 0.5915 0.7055
C77 C 0.958(3) 0.7219(15) 0.6957(8)
H92 H 0.8997 0.7142 0.7166
H93 H 0.8974 0.7547 0.6760
C78 C 1.102(3) 0.777(2) 0.7073(10)
H94 H 1.1047 0.8354 0.6937
H95 H 1.1126 0.7898 0.7337
C79 C 1.221(2) 0.7093(18) 0.6972(6)
H96 H 1.2343 0.6694 0.7194
C80 C 1.160(2) 0.6389(11) 0.6683(4)
C81 C 1.2259(19) 0.5417(11) 0.6675(5)
H97 H 1.2378 0.5134 0.6921
H98 H 1.3220 0.5423 0.6575
C82 C 1.1057(17) 0.4900(14) 0.6415(5)
H99 H 1.0942 0.5255 0.6185
H100 H 1.1485 0.4294 0.6358
C83 C 0.9469(17) 0.4698(13) 0.6515(5)
H101 H 0.9560 0.4374 0.6756
C84 C 0.8481(18) 0.4024(11) 0.6215(5)
C85 C 0.912(2) 0.3020(14) 0.6242(5)
H102 H 0.9306 0.2813 0.6498
H103 H 1.0051 0.2977 0.6126
C86 C 0.784(2) 0.2430(16) 0.6022(5)
H104 H 0.7649 0.2685 0.5773
H105 H 0.8178 0.1783 0.6001
C87 C 1.174(2) 0.6833(12) 0.6295(4)
H106 H 1.2387 0.6449 0.6162
H107 H 1.2151 0.7457 0.6325
H108 H 1.0764 0.6866 0.6157
C88 C 0.8572(15) 0.4453(10) 0.5822(3)
H109 H 0.9307 0.4115 0.5700
H110 H 0.8853 0.5106 0.5846
H111 H 0.7611 0.4401 0.5679
C89 C 1.369(3) 0.7585(17) 0.6995(7)
H112 H 1.3597 0.7931 0.6759
C90 C 1.401(2) 0.8378(17) 0.7266(7)
H113 H 1.3256 0.8867 0.7217
H114 H 1.3958 0.8146 0.7516
C91 C 1.553(2) 0.8785(15) 0.7235(6)
H115 H 1.5597 0.8991 0.6982
H116 H 1.6288 0.8302 0.7294
C92 C 1.584(2) 0.9608(18) 0.7494(8)
H117 H 1.5632 0.9405 0.7740
H118 H 1.5116 1.0099 0.7416
C93 C 1.7374(17) 1.0048(10) 0.7530(4)
H119 H 1.7320 1.0392 0.7294
C94 C 1.760(3) 1.0864(18) 0.7797(8)
H120 H 1.7471 1.0649 0.8044
H121 H 1.6869 1.1347 0.7726
H122 H 1.8588 1.1117 0.7793
C95 C 1.870(2) 0.9421(14) 0.7487(6)
H123 H 1.8783 0.8955 0.7681
H124 H 1.9595 0.9796 0.7503
H125 H 1.8560 0.9112 0.7250
C96 C 1.493(3) 0.690(2) 0.6934(8)
H126 H 1.5042 0.6873 0.6673
H127 H 1.4684 0.6279 0.7018
H128 H 1.5859 0.7102 0.7067
F3 F 0.3527(10) -0.0208(7) 0.6030(3)
F4 F 0.2645(11) 0.0878(6) 0.5666(3)
N2 N 0.5113(10) -0.2109(6) 0.5283(3)
O8 O 0.5171(11) -0.3084(7) 0.5838(3)
O9 O 0.7154(11) -0.3260(7) 0.5417(3)
O10 O 0.1242(11) -0.1480(8) 0.5189(3)
O11 O 0.2355(10) -0.2785(9) 0.5130(3)
O12 O 0.5535(13) 0.1771(7) 0.5972(3)
S2 S 0.6190(4) -0.2679(2) 0.56058(11)
C97? C 0.411(2) 0.1501(14) 0.5994(9)
O13? O 0.321(3) 0.2022(14) 0.6149(9)
loop_
_geom_bond_atom_site_label_1
_geom_bond_atom_site_label_2
_geom_bond_site_symmetry_1
_geom_bond_site_symmetry_2
C1 C2 1_555 1_555
C2 C3 1_555 1_555
C3 H1 1_555 1_555
C4 C3 1_555 1_555
H2 C4 1_555 1_555
C5 C4 1_555 1_555
H3 C5 1_555 1_555
C6 C1 1_555 1_555
H4 C6 1_555 1_555
C7 C2 1_555 1_555
H5 C7 1_555 1_555
C8 C7 1_555 1_555
H6 C8 1_555 1_555
C9 C8 1_555 1_555
C10 H7 1_555 1_555
H8 C10 1_555 1_555
C11 C10 1_555 1_555
H9 C11 1_555 1_555
H10 C11 1_555 1_555
H11 C11 1_555 1_555
C12 C13 1_555 1_555
C13 H12 1_555 1_555
C14 C13 1_555 1_555
H13 C14 1_555 1_555
C15 C14 1_555 1_555
C16 C15 1_555 1_555
H14 C16 1_555 1_555
C17 C12 1_555 1_555
H15 C17 1_555 1_555
C18 C15 1_555 1_555
H16 C18 1_555 1_555
H17 C18 1_555 1_555
H18 C18 1_555 1_555
C19 C7 1_555 1_555
H19 C19 1_555 1_555
H20 C19 1_555 1_555
C20 C19 1_555 1_555
C21 C20 1_555 1_555
C22 H21 1_555 1_555
C23 C22 1_555 1_555
H22 C23 1_555 1_555
H23 C23 1_555 1_555
C24 C23 1_555 1_555
H24 C24 1_555 1_555
H25 C24 1_555 1_555
C25 C24 1_555 1_555
C26 C25 1_555 1_555
H26 C26 1_555 1_555
C27 C26 1_555 1_555
H27 C27 1_555 1_555
H28 C27 1_555 1_555
C28 C27 1_555 1_555
H29 C28 1_555 1_555
H30 C28 1_555 1_555
C29 C28 1_555 1_555
C30 C29 1_555 1_555
H31 C30 1_555 1_555
C31 C30 1_555 1_555
H32 C31 1_555 1_555
H33 C31 1_555 1_555
C32 C31 1_555 1_555
H34 C32 1_555 1_555
H35 C32 1_555 1_555
C33 C29 1_555 1_555
H36 C33 1_555 1_555
C34 C26 1_555 1_555
H37 C34 1_555 1_555
C35 C34 1_555 1_555
H38 C35 1_555 1_555
C36 C35 1_555 1_555
H39 C36 1_555 1_555
C37 C25 1_555 1_555
C38 C22 1_555 1_555
H40 C38 1_555 1_555
H41 C38 1_555 1_555
C39 C25 1_555 1_555
H42 C39 1_555 1_555
H43 C39 1_555 1_555
H44 C39 1_555 1_555
C40 C29 1_555 1_555
H45 C40 1_555 1_555
H46 C40 1_555 1_555
H47 C40 1_555 1_555
C41 C30 1_555 1_555
H48 C41 1_555 1_555
C42 C41 1_555 1_555
H49 C42 1_555 1_555
H50 C42 1_555 1_555
C43 C42 1_555 1_555
H51 C43 1_555 1_555
H52 C43 1_555 1_555
C44 C43 1_555 1_555
H53 C44 1_555 1_555
H54 C44 1_555 1_555
C45 C44 1_555 1_555
H55 C45 1_555 1_555
C46 C45 1_555 1_555
H56 C46 1_555 1_555
H57 C46 1_555 1_555
H58 C46 1_555 1_555
C47 C45 1_555 1_555
H59 C47 1_555 1_555
H60 C47 1_555 1_555
H61 C47 1_555 1_555
C48 C41 1_555 1_555
H62 C48 1_555 1_555
H63 C48 1_555 1_555
H64 C48 1_555 1_555
F1 C20 1_555 1_555
F2 C20 1_555 1_555
N1 C1 1_555 1_555
O1 S1 1_555 1_555
O2 S1 1_555 1_555
O3 C9 1_555 1_555
O4 C9 1_555 1_555
O5 C21 1_555 1_555
O6 C21 1_555 1_555
S1 C12 1_555 1_555
C49 C50 1_555 1_555
C50 C51 1_555 1_555
C51 H65 1_555 1_555
C52 C51 1_555 1_555
H66 C52 1_555 1_555
C53 C52 1_555 1_555
H67 C53 1_555 1_555
C54 C49 1_555 1_555
H68 C54 1_555 1_555
C55 C49 1_555 1_555
H69 C55 1_555 1_555
C56 C55 1_555 1_555
H70 C56 1_555 1_555
C57 C56 1_555 1_555
C58 H71 1_555 1_555
H72 C58 1_555 1_555
C59 C58 1_555 1_555
H73 C59 1_555 1_555
H74 C59 1_555 1_555
H75 C59 1_555 1_555
C60 C61 1_555 1_555
C61 H76 1_555 1_555
C62 C61 1_555 1_555
H77 C62 1_555 1_555
C63 C62 1_555 1_555
C64 C63 1_555 1_555
H78 C64 1_555 1_555
C65 C60 1_555 1_555
H79 C65 1_555 1_555
C66 C63 1_555 1_555
H80 C66 1_555 1_555
H81 C66 1_555 1_555
H82 C66 1_555 1_555
C67 C55 1_555 1_555
H83 C67 1_555 1_555
H84 C67 1_555 1_555
C68 C67 1_555 1_555
C69 C68 1_555 1_555
O7 C69 1_555 1_555
C70 H85 1_555 1_555
C71 C70 1_555 1_555
H86 C71 1_555 1_555
H87 C71 1_555 1_555
C72 C71 1_555 1_555
C73 C72 1_555 1_555
H88 C73 1_555 1_555
C74 C73 1_555 1_555
H89 C74 1_555 1_555
C75 C74 1_555 1_555
H90 C75 1_555 1_555
C76 C75 1_555 1_555
H91 C76 1_555 1_555
C77 C76 1_555 1_555
H92 C77 1_555 1_555
H93 C77 1_555 1_555
C78 C77 1_555 1_555
H94 C78 1_555 1_555
H95 C78 1_555 1_555
C79 C78 1_555 1_555
H96 C79 1_555 1_555
C80 C76 1_555 1_555
C81 C80 1_555 1_555
H97 C81 1_555 1_555
H98 C81 1_555 1_555
C82 C81 1_555 1_555
H99 C82 1_555 1_555
H100 C82 1_555 1_555
C83 C75 1_555 1_555
H101 C83 1_555 1_555
C84 C72 1_555 1_555
C85 C84 1_555 1_555
H102 C85 1_555 1_555
H103 C85 1_555 1_555
C86 C70 1_555 1_555
H104 C86 1_555 1_555
H105 C86 1_555 1_555
C87 C80 1_555 1_555
H106 C87 1_555 1_555
H107 C87 1_555 1_555
H108 C87 1_555 1_555
C88 C84 1_555 1_555
H109 C88 1_555 1_555
H110 C88 1_555 1_555
H111 C88 1_555 1_555
C89 C79 1_555 1_555
H112 C89 1_555 1_555
C90 C89 1_555 1_555
H113 C90 1_555 1_555
H114 C90 1_555 1_555
C91 C90 1_555 1_555
H115 C91 1_555 1_555
H116 C91 1_555 1_555
C92 C91 1_555 1_555
H117 C92 1_555 1_555
H118 C92 1_555 1_555
C93 C92 1_555 1_555
H119 C93 1_555 1_555
C94 C93 1_555 1_555
H120 C94 1_555 1_555
H121 C94 1_555 1_555
H122 C94 1_555 1_555
C95 C93 1_555 1_555
H123 C95 1_555 1_555
H124 C95 1_555 1_555
H125 C95 1_555 1_555
C96 C89 1_555 1_555
H126 C96 1_555 1_555
H127 C96 1_555 1_555
H128 C96 1_555 1_555
F3 C68 1_555 1_555
F4 C68 1_555 1_555
N2 C50 1_555 1_555
O8 S2 1_555 1_555
O9 S2 1_555 1_555
O10 C57 1_555 1_555
O11 C57 1_555 1_555
O12 C69 1_555 1_555
S2 C60 1_555 1_555
C5 C6 1_555 1_555
C8 N1 1_555 1_555
C10 O4 1_555 1_555
C16 C17 1_555 1_555
C22 O6 1_555 1_555
C32 C33 1_555 1_555
C33 C34 1_555 1_555
C36 C37 1_555 1_555
C37 C38 1_555 1_555
N1 S1 1_555 1_555
C53 C54 1_555 1_555
C56 N2 1_555 1_555
C58 O11 1_555 1_555
C64 C65 1_555 1_555
C70 O12 1_555 1_555
C79 C80 1_555 1_555
C82 C83 1_555 1_555
C83 C84 1_555 1_555
C85 C86 1_555 1_555
N2 S2 1_555 1_555

#END
