
#######################################################################
#
#                 Cambridge Crystallographic Data Centre
#                                CCDC 
#
#######################################################################
#
# If this CIF has been generated from an entry in the Cambridge 
# Structural Database, then it will include bibliographic, chemical, 
# crystal, experimental, refinement or atomic coordinate data resulting 
# from the CCDC's data processing and validation procedures.
#
#######################################################################

data_LEDXEZ
_chemical_formula_moiety         'C10 H11 N2 O2 P1,H2 O1'
_chemical_name_systematic        
'(1-Methyl-1H-imidazol-3-ium-2-yl)(phenyl)phosphinate monohydrate'
_symmetry_cell_setting           monoclinic
_symmetry_space_group_name_H-M   'P 21/n'
_symmetry_Int_Tables_number      14
_space_group_name_Hall           '-P 2yn'
loop_
_symmetry_equiv_pos_site_id
_symmetry_equiv_pos_as_xyz
1 x,y,z
2 1/2-x,1/2+y,1/2-z
3 -x,-y,-z
4 1/2+x,1/2-y,1/2+z
_cell_length_a                   6.7946(5)
_cell_length_b                   24.753(2)
_cell_length_c                   7.5277(7)
_cell_angle_alpha                90
_cell_angle_beta                 114.4330(10)
_cell_angle_gamma                90
_cell_volume                     1152.68
_exptl_crystal_colour            colorless
_exptl_crystal_description       block
_cell_formula_units_Z            4
loop_
_atom_site_label
_atom_site_type_symbol
_atom_site_fract_x
_atom_site_fract_y
_atom_site_fract_z
P1 P 0.73237(13) 0.10122(3) 0.11830(10)
O1 O 0.8280(4) 0.07348(9) -0.0024(3)
O2 O 0.5092(3) 0.09076(9) 0.0956(3)
N1 N 0.8906(4) 0.09159(8) 0.5352(3)
N2 N 1.1068(4) 0.06002(9) 0.4191(3)
H1 H 1.1542 0.0490 0.3337
C1 C 0.7732(5) 0.17278(12) 0.1149(4)
C2 C 0.9522(5) 0.19315(13) 0.0927(5)
H2 H 1.0506 0.1695 0.0775
C3 C 0.9849(7) 0.24800(15) 0.0931(6)
H3 H 1.1050 0.2613 0.0778
C4 C 0.8414(8) 0.28317(15) 0.1158(6)
H4 H 0.8644 0.3202 0.1153
C5 C 0.6659(7) 0.26430(14) 0.1391(6)
H5 H 0.5698 0.2884 0.1557
C6 C 0.6298(5) 0.20933(14) 0.1381(5)
H6 H 0.5086 0.1966 0.1529
C7 C 0.9148(4) 0.08320(10) 0.3684(4)
C8 C 1.0715(5) 0.07368(11) 0.6899(4)
H7 H 1.0965 0.0750 0.8210
C9 C 1.2055(5) 0.05385(12) 0.6160(4)
H8 H 1.3409 0.0387 0.6864
C10 C 0.7023(5) 0.11496(13) 0.5516(4)
H9 H 0.6580 0.1468 0.4721
H10 H 0.7382 0.1243 0.6852
H11 H 0.5864 0.0892 0.5083
O3 O 0.3180(3) 0.01614(8) 0.2251(3)
H12 H 0.2753 -0.0110 0.1494
H13 H 0.3774 0.0385 0.1767
loop_
_geom_bond_atom_site_label_1
_geom_bond_atom_site_label_2
_geom_bond_site_symmetry_1
_geom_bond_site_symmetry_2
P1 O1 1_555 1_555
O2 P1 1_555 1_555
N1 C7 1_555 1_555
N2 H1 1_555 1_555
C1 P1 1_555 1_555
C2 C1 1_555 1_555
H2 C2 1_555 1_555
C3 C2 1_555 1_555
H3 C3 1_555 1_555
C4 C3 1_555 1_555
H4 C4 1_555 1_555
C5 C4 1_555 1_555
H5 C5 1_555 1_555
C6 C1 1_555 1_555
H6 C6 1_555 1_555
C7 P1 1_555 1_555
C8 N1 1_555 1_555
H7 C8 1_555 1_555
C9 N2 1_555 1_555
H8 C9 1_555 1_555
C10 N1 1_555 1_555
H9 C10 1_555 1_555
H10 C10 1_555 1_555
H11 C10 1_555 1_555
O3 H12 1_555 1_555
H13 O3 1_555 1_555
N2 C7 1_555 1_555
C5 C6 1_555 1_555
C8 C9 1_555 1_555

#END
