
#######################################################################
#
#                 Cambridge Crystallographic Data Centre
#                                CCDC 
#
#######################################################################
#
# If this CIF has been generated from an entry in the Cambridge 
# Structural Database, then it will include bibliographic, chemical, 
# crystal, experimental, refinement or atomic coordinate data resulting 
# from the CCDC's data processing and validation procedures.
#
#######################################################################

data_LEFGIP
_chemical_formula_moiety         'C38 H60 Cl1 Li1 Mg1 O4 Si2'
_chemical_name_systematic        
(\m-chloro)-(\m-2,3-diphenyl-1,4-bis(trimethylsilyl)buta-1,3-dien-1,4-diido)-tetrakis(tetrahydrofuran)-lithium-magnesium
_symmetry_cell_setting           monoclinic
_symmetry_space_group_name_H-M   'P 21/c'
_symmetry_Int_Tables_number      14
_space_group_name_Hall           '-P 2ybc'
loop_
_symmetry_equiv_pos_site_id
_symmetry_equiv_pos_as_xyz
1 x,y,z
2 -x,1/2+y,1/2-z
3 -x,-y,-z
4 x,1/2-y,1/2+z
_cell_length_a                   19.2230(7)
_cell_length_b                   17.8263(8)
_cell_length_c                   12.4229(5)
_cell_angle_alpha                90
_cell_angle_beta                 96.264(4)
_cell_angle_gamma                90
_cell_volume                     4231.6
_exptl_crystal_colour            orange
_exptl_crystal_description       block
_cell_formula_units_Z            4
_chemical_properties_physical    ', Air-sensitive,Moisture-sensitive'
_exptl_crystal_recrystallization_method tetrahydrofuran
loop_
_atom_site_label
_atom_site_type_symbol
_atom_site_fract_x
_atom_site_fract_y
_atom_site_fract_z
Cl1 Cl 0.75551(4) 0.35636(4) 0.73948(5)
Si1 Si 0.58288(4) 0.55075(4) 0.75721(7)
Si2 Si 0.92683(3) 0.55153(4) 0.77656(6)
Mg1 Mg 0.75687(4) 0.48264(4) 0.79680(6)
O1 O 0.72898(10) 0.42876(12) 0.46564(18)
O2 O 0.83114(9) 0.30017(12) 0.51272(15)
O3 O 0.66418(10) 0.27312(12) 0.51875(16)
O4 O 0.77020(12) 0.46484(11) 0.96167(14)
C1 C 0.83191(11) 0.56520(14) 0.76361(18)
C2 C 0.79415(11) 0.62947(13) 0.75478(17)
C3 C 0.71395(11) 0.62975(13) 0.75122(17)
C4 C 0.67733(12) 0.56638(14) 0.76483(19)
C5 C 0.94705(15) 0.46493(16) 0.8602(3)
H1 H 0.9966 0.4560 0.8677
H2 H 0.9233 0.4227 0.8250
H3 H 0.9316 0.4717 0.9305
C6 C 0.95772(16) 0.5331(2) 0.6413(3)
H4 H 0.9467 0.5754 0.5947
H5 H 0.9348 0.4892 0.6098
H6 H 1.0074 0.5253 0.6501
C7 C 0.98365(14) 0.62659(17) 0.8462(3)
H7 H 1.0317 0.6107 0.8525
H8 H 0.9698 0.6354 0.9170
H9 H 0.9786 0.6720 0.8046
C8 C 0.82885(11) 0.70470(13) 0.75251(18)
C9 C 0.86339(13) 0.72677(16) 0.6649(2)
H10 H 0.8626 0.6955 0.6049
C10 C 0.89882(15) 0.79432(18) 0.6652(3)
H11 H 0.9210 0.8081 0.6053
C11 C 0.90154(15) 0.84107(17) 0.7531(3)
H12 H 0.9262 0.8860 0.7539
C12 C 0.86727(14) 0.82062(16) 0.8404(3)
H13 H 0.8687 0.8521 0.9003
C13 C 0.83092(12) 0.75391(14) 0.8396(2)
H14 H 0.8073 0.7416 0.8986
C14 C 0.67891(11) 0.70434(13) 0.73056(18)
C15 C 0.68145(14) 0.74362(15) 0.6343(2)
H15 H 0.7075 0.7246 0.5817
C16 C 0.64568(17) 0.81066(17) 0.6158(2)
H16 H 0.6481 0.8360 0.5509
C17 C 0.60683(16) 0.84034(17) 0.6917(3)
H17 H 0.5826 0.8851 0.6785
C18 C 0.60450(15) 0.80285(17) 0.7869(3)
H18 H 0.5785 0.8225 0.8393
C19 C 0.64014(13) 0.73620(15) 0.8067(2)
H19 H 0.6381 0.7120 0.8727
C20 C 0.52152(18) 0.6193(2) 0.6820(4)
H20 H 0.5239 0.6665 0.7197
H21 H 0.4746 0.6003 0.6776
H22 H 0.5346 0.6264 0.6103
C21 C 0.55727(19) 0.5394(2) 0.8976(3)
H23 H 0.5875 0.5034 0.9364
H24 H 0.5097 0.5223 0.8938
H25 H 0.5615 0.5868 0.9346
C22 C 0.56171(17) 0.45869(19) 0.6867(3)
H26 H 0.5690 0.4631 0.6118
H27 H 0.5137 0.4459 0.6924
H28 H 0.5916 0.4202 0.7201
C23 C 0.6158(2) 0.2520(3) 0.5929(3)
H29 H 0.6383 0.2192 0.6486
H30 H 0.5988 0.2961 0.6276
C24 C 0.5593(3) 0.2140(4) 0.5317(5)
H31 H 0.5189 0.2468 0.5198
H32 H 0.5462 0.1698 0.5703
C25 C 0.5833(3) 0.1926(3) 0.4280(5)
H33 H 0.6019 0.1420 0.4310
H34 H 0.5454 0.1957 0.3698
C26 C 0.63782(17) 0.2473(2) 0.4131(3)
H35 H 0.6749 0.2243 0.3776
H36 H 0.6187 0.2889 0.3689
C27 C 0.66296(18) 0.4541(2) 0.4234(3)
H37 H 0.6263 0.4260 0.4533
H38 H 0.6567 0.4496 0.3452
C28 C 0.6621(3) 0.5359(3) 0.4579(5)
H39 H 0.6297 0.5647 0.4089
H40 H 0.6489 0.5406 0.5308
C29 C 0.7319(2) 0.5607(2) 0.4533(3)
H41 H 0.7445 0.5989 0.5076
H42 H 0.7377 0.5810 0.3825
C30 C 0.77535(18) 0.4925(2) 0.4753(3)
H43 H 0.8095 0.4886 0.4236
H44 H 0.8001 0.4947 0.5476
C31 C 0.84718(17) 0.2990(2) 0.4025(2)
H45 H 0.8404 0.3483 0.3701
H46 H 0.8173 0.2635 0.3602
C32 C 0.92117(19) 0.2761(3) 0.4066(3)
H47 H 0.9432 0.2983 0.3476
H48 H 0.9255 0.2220 0.4032
C33 C 0.95251(16) 0.3051(2) 0.5122(3)
H49 H 0.9651 0.3576 0.5071
H50 H 0.9938 0.2766 0.5390
C34 C 0.89528(15) 0.2949(2) 0.5833(2)
H51 H 0.8991 0.2463 0.6186
H52 H 0.8974 0.3336 0.6384
C35 C 0.7737(3) 0.5308(2) 1.0301(3)
H53 H 0.8172 0.5574 1.0253
H54 H 0.7352 0.5644 1.0073
C36 C 0.7695(4) 0.5065(3) 1.1369(4)
H55 H 0.7225 0.5136 1.1566
H56 H 0.8018 0.5346 1.1870
C37 C 0.7878(4) 0.4274(4) 1.1403(3)
H57 H 0.7541 0.3992 1.1768
H58 H 0.8338 0.4203 1.1793
C38 C 0.7872(2) 0.4015(2) 1.0273(3)
H59 H 0.8328 0.3821 1.0148
H60 H 0.7527 0.3623 1.0116
Li1 Li 0.7437(2) 0.3385(3) 0.5528(4)
loop_
_geom_bond_atom_site_label_1
_geom_bond_atom_site_label_2
_geom_bond_site_symmetry_1
_geom_bond_site_symmetry_2
Cl1 Mg1 1_555 1_555
Si1 C4 1_555 1_555
Si2 C1 1_555 1_555
Mg1 O4 1_555 1_555
O1 C27 1_555 1_555
O2 C31 1_555 1_555
O3 C23 1_555 1_555
O4 C35 1_555 1_555
C1 Mg1 1_555 1_555
C2 C1 1_555 1_555
C3 C2 1_555 1_555
C4 Mg1 1_555 1_555
C5 Si2 1_555 1_555
H1 C5 1_555 1_555
H2 C5 1_555 1_555
H3 C5 1_555 1_555
C6 Si2 1_555 1_555
H4 C6 1_555 1_555
H5 C6 1_555 1_555
H6 C6 1_555 1_555
C7 Si2 1_555 1_555
H7 C7 1_555 1_555
H8 C7 1_555 1_555
H9 C7 1_555 1_555
C8 C2 1_555 1_555
C9 C8 1_555 1_555
H10 C9 1_555 1_555
C10 C9 1_555 1_555
H11 C10 1_555 1_555
C11 C10 1_555 1_555
H12 C11 1_555 1_555
C12 C11 1_555 1_555
H13 C12 1_555 1_555
C13 C8 1_555 1_555
H14 C13 1_555 1_555
C14 C3 1_555 1_555
C15 C14 1_555 1_555
H15 C15 1_555 1_555
C16 C15 1_555 1_555
H16 C16 1_555 1_555
C17 C16 1_555 1_555
H17 C17 1_555 1_555
C18 C17 1_555 1_555
H18 C18 1_555 1_555
C19 C14 1_555 1_555
H19 C19 1_555 1_555
C20 Si1 1_555 1_555
H20 C20 1_555 1_555
H21 C20 1_555 1_555
H22 C20 1_555 1_555
C21 Si1 1_555 1_555
H23 C21 1_555 1_555
H24 C21 1_555 1_555
H25 C21 1_555 1_555
C22 Si1 1_555 1_555
H26 C22 1_555 1_555
H27 C22 1_555 1_555
H28 C22 1_555 1_555
C23 H29 1_555 1_555
H30 C23 1_555 1_555
C24 C23 1_555 1_555
H31 C24 1_555 1_555
H32 C24 1_555 1_555
C25 C24 1_555 1_555
H33 C25 1_555 1_555
H34 C25 1_555 1_555
C26 O3 1_555 1_555
H35 C26 1_555 1_555
H36 C26 1_555 1_555
C27 H37 1_555 1_555
H38 C27 1_555 1_555
C28 C27 1_555 1_555
H39 C28 1_555 1_555
H40 C28 1_555 1_555
C29 C28 1_555 1_555
H41 C29 1_555 1_555
H42 C29 1_555 1_555
C30 O1 1_555 1_555
H43 C30 1_555 1_555
H44 C30 1_555 1_555
C31 H45 1_555 1_555
H46 C31 1_555 1_555
C32 C31 1_555 1_555
H47 C32 1_555 1_555
H48 C32 1_555 1_555
C33 C32 1_555 1_555
H49 C33 1_555 1_555
H50 C33 1_555 1_555
C34 O2 1_555 1_555
H51 C34 1_555 1_555
H52 C34 1_555 1_555
C35 H53 1_555 1_555
H54 C35 1_555 1_555
C36 C35 1_555 1_555
H55 C36 1_555 1_555
H56 C36 1_555 1_555
C37 C36 1_555 1_555
H57 C37 1_555 1_555
H58 C37 1_555 1_555
C38 O4 1_555 1_555
H59 C38 1_555 1_555
H60 C38 1_555 1_555
Li1 Cl1 1_555 1_555
O1 Li1 1_555 1_555
O2 Li1 1_555 1_555
O3 Li1 1_555 1_555
C3 C4 1_555 1_555
C12 C13 1_555 1_555
C18 C19 1_555 1_555
C25 C26 1_555 1_555
C29 C30 1_555 1_555
C33 C34 1_555 1_555
C37 C38 1_555 1_555

#END
