
#######################################################################
#
#                 Cambridge Crystallographic Data Centre
#                                CCDC 
#
#######################################################################
#
# If this CIF has been generated from an entry in the Cambridge 
# Structural Database, then it will include bibliographic, chemical, 
# crystal, experimental, refinement or atomic coordinate data resulting 
# from the CCDC's data processing and validation procedures.
#
#######################################################################

data_LEFJIS
_chemical_formula_moiety         'C26 H29 N1 O9'
_chemical_name_systematic        
"[4'-(acetyloxy)-4',7-dimethyl-4-methylidene-6-oxo-3,4,4a,5,6,8a-hexahydrospiro[1-benzopyran-2,2'-oxan]-6'-yl]methyl 4-nitrobenzoate"
_symmetry_cell_setting           monoclinic
_symmetry_space_group_name_H-M   'I 2'
_symmetry_Int_Tables_number      5
_space_group_name_Hall           'I 2y'
loop_
_symmetry_equiv_pos_site_id
_symmetry_equiv_pos_as_xyz
1 x,y,z
2 -x,y,-z
3 1/2+x,1/2+y,1/2+z
4 1/2-x,1/2+y,1/2-z
_cell_length_a                   18.5949(11)
_cell_length_b                   7.03400(10)
_cell_length_c                   19.2237(19)
_cell_angle_alpha                90
_cell_angle_beta                 98.328(11)
_cell_angle_gamma                90
_cell_volume                     2487.88
_exptl_crystal_colour            colorless
_exptl_crystal_description       block
_cell_formula_units_Z            4
loop_
_atom_site_label
_atom_site_type_symbol
_atom_site_fract_x
_atom_site_fract_y
_atom_site_fract_z
O1 O 0.41181(5) 0.48424(16) 0.25518(5)
O2 O 0.49978(6) 0.54388(16) 0.18192(5)
O3 O 0.39091(8) 0.5970(2) 0.50100(6)
O4 O 0.34148(6) 0.27025(16) 0.13680(5)
O5 O 0.23249(6) 0.3979(2) 0.14922(7)
O6 O 0.61433(6) 0.30133(19) 0.20114(5)
O7 O 0.71409(6) 0.3087(2) 0.14795(6)
O8 O 0.81540(10) 0.4541(3) 0.52136(8)
O9 O 0.91377(9) 0.3899(3) 0.47972(9)
N1 N 0.84809(10) 0.4094(3) 0.47330(9)
C1 C 0.46713(8) 0.4533(3) 0.31513(8)
H1 H 0.5102 0.3933 0.2982
C2 C 0.43533(9) 0.3135(3) 0.36068(8)
H2 H 0.4317 0.1848 0.3455
C3 C 0.41143(9) 0.3563(3) 0.42156(9)
C4 C 0.41211(9) 0.5560(3) 0.44548(8)
C5 C 0.43567(9) 0.7074(3) 0.39883(8)
H3 H 0.4568 0.8144 0.4284
H4 H 0.3924 0.7560 0.3679
C6 C 0.49174(8) 0.6386(3) 0.35291(8)
H5 H 0.5382 0.6126 0.3846
C7 C 0.50645(8) 0.7909(3) 0.30159(8)
C8 C 0.45136(9) 0.8044(3) 0.23597(8)
H6 H 0.4706 0.8871 0.2013
H7 H 0.4062 0.8630 0.2477
C9 C 0.43398(8) 0.6084(2) 0.20360(8)
C10 C 0.37235(8) 0.6133(3) 0.14185(8)
H8 H 0.3805 0.7219 0.1112
H9 H 0.3261 0.6365 0.1603
C11 C 0.36432(8) 0.4317(2) 0.09711(8)
C12 C 0.43922(8) 0.3694(3) 0.08166(8)
H10 H 0.4353 0.2424 0.0592
H11 H 0.4566 0.4600 0.0484
C13 C 0.49352(8) 0.3611(2) 0.14846(8)
H12 H 0.4774 0.2649 0.1812
C14 C 0.56878(8) 0.3126(3) 0.13380(8)
H13 H 0.5685 0.1895 0.1088
H14 H 0.5869 0.4121 0.1043
C15 C 0.68629(8) 0.3098(2) 0.20058(8)
C16 C 0.72665(8) 0.3250(2) 0.27322(8)
C17 C 0.69218(9) 0.3777(3) 0.32981(9)
H15 H 0.6410 0.3950 0.3232
C18 C 0.73180(10) 0.4050(3) 0.39547(9)
H16 H 0.7088 0.4437 0.4341
C19 C 0.80575(10) 0.3745(3) 0.40337(9)
C20 C 0.84184(9) 0.3188(3) 0.34891(10)
H17 H 0.8928 0.2967 0.3564
C21 C 0.80158(9) 0.2959(3) 0.28289(9)
H18 H 0.8251 0.2603 0.2442
C22 C 0.38096(13) 0.2108(4) 0.46616(10)
H19 H 0.4116 0.2033 0.5121
H20 H 0.3798 0.0866 0.4429
H21 H 0.3315 0.2473 0.4726
C23 C 0.56253(10) 0.9086(3) 0.31482(10)
H22 H 0.5949 0.8984 0.3577
H23 H 0.5703 1.0031 0.2814
C24 C 0.31231(9) 0.4570(3) 0.02884(9)
H24 H 0.3010 0.3324 0.0071
H25 H 0.3351 0.5375 -0.0034
H26 H 0.2674 0.5172 0.0389
C25 C 0.27613(8) 0.2696(3) 0.15855(8)
C26 C 0.26503(11) 0.0895(4) 0.19604(12)
H27 H 0.2773 -0.0186 0.1678
H28 H 0.2141 0.0799 0.2034
H29 H 0.2964 0.0885 0.2416
loop_
_geom_bond_atom_site_label_1
_geom_bond_atom_site_label_2
_geom_bond_site_symmetry_1
_geom_bond_site_symmetry_2
O1 C1 1_555 1_555
O2 C9 1_555 1_555
O3 C4 1_555 1_555
O4 C11 1_555 1_555
O5 C25 1_555 1_555
O6 C14 1_555 1_555
O7 C15 1_555 1_555
O8 N1 1_555 1_555
O9 N1 1_555 1_555
N1 C19 1_555 1_555
C1 H1 1_555 1_555
C2 C1 1_555 1_555
H2 C2 1_555 1_555
C3 C2 1_555 1_555
C4 C3 1_555 1_555
C5 C4 1_555 1_555
H3 C5 1_555 1_555
H4 C5 1_555 1_555
C6 C1 1_555 1_555
H5 C6 1_555 1_555
C7 C6 1_555 1_555
C8 C7 1_555 1_555
H6 C8 1_555 1_555
H7 C8 1_555 1_555
C9 O1 1_555 1_555
C10 C9 1_555 1_555
H8 C10 1_555 1_555
H9 C10 1_555 1_555
C11 C10 1_555 1_555
C12 C11 1_555 1_555
H10 C12 1_555 1_555
H11 C12 1_555 1_555
C13 O2 1_555 1_555
H12 C13 1_555 1_555
C14 C13 1_555 1_555
H13 C14 1_555 1_555
H14 C14 1_555 1_555
C15 O6 1_555 1_555
C16 C15 1_555 1_555
C17 C16 1_555 1_555
H15 C17 1_555 1_555
C18 C17 1_555 1_555
H16 C18 1_555 1_555
C19 C18 1_555 1_555
C20 C19 1_555 1_555
H17 C20 1_555 1_555
C21 C16 1_555 1_555
H18 C21 1_555 1_555
C22 C3 1_555 1_555
H19 C22 1_555 1_555
H20 C22 1_555 1_555
H21 C22 1_555 1_555
C23 C7 1_555 1_555
H22 C23 1_555 1_555
H23 C23 1_555 1_555
C24 C11 1_555 1_555
H24 C24 1_555 1_555
H25 C24 1_555 1_555
H26 C24 1_555 1_555
C25 O4 1_555 1_555
C26 C25 1_555 1_555
H27 C26 1_555 1_555
H28 C26 1_555 1_555
H29 C26 1_555 1_555
C5 C6 1_555 1_555
C8 C9 1_555 1_555
C12 C13 1_555 1_555
C20 C21 1_555 1_555

#END
