
#######################################################################
#
#                 Cambridge Crystallographic Data Centre
#                                CCDC 
#
#######################################################################
#
# If this CIF has been generated from an entry in the Cambridge 
# Structural Database, then it will include bibliographic, chemical, 
# crystal, experimental, refinement or atomic coordinate data resulting 
# from the CCDC's data processing and validation procedures.
#
#######################################################################

data_LEGGEM
_chemical_formula_moiety         'C19 H17 N2 1+,I1 1-'
_chemical_name_systematic        
'1,3-dimethyl-2-phenyl-1H-perimidin-3-ium iodide'
_symmetry_cell_setting           monoclinic
_symmetry_space_group_name_H-M   'C 2/c'
_symmetry_Int_Tables_number      15
_space_group_name_Hall           '-C 2yn'
loop_
_symmetry_equiv_pos_site_id
_symmetry_equiv_pos_as_xyz
1 x,y,z
2 -x,y,1/2-z
3 1/2+x,1/2+y,z
4 1/2-x,1/2+y,1/2-z
5 -x,-y,-z
6 x,-y,1/2+z
7 1/2-x,1/2-y,-z
8 1/2+x,1/2-y,1/2+z
_cell_length_a                   18.701(4)
_cell_length_b                   7.9230(16)
_cell_length_c                   24.069(6)
_cell_angle_alpha                90
_cell_angle_beta                 111.168(2)
_cell_angle_gamma                90
_cell_volume                     3325.63
_exptl_crystal_colour            yellow
_exptl_crystal_description       block
_cell_formula_units_Z            8
loop_
_atom_site_label
_atom_site_type_symbol
_atom_site_fract_x
_atom_site_fract_y
_atom_site_fract_z
N1 N 0.02337(10) 0.0880(2) 0.10919(7)
N2 N 0.00485(9) 0.3438(2) 0.14921(7)
C1 C -0.05664(12) 0.0579(3) 0.08300(9)
C2 C 0.13526(12) 0.2481(3) 0.16972(10)
C3 C 0.05110(11) 0.2267(2) 0.14101(9)
C4 C -0.10546(11) 0.1761(2) 0.09493(8)
C5 C -0.18568(12) 0.1482(3) 0.07256(9)
C6 C -0.07554(11) 0.3222(3) 0.12880(9)
C7 C -0.12331(14) 0.4357(3) 0.14080(11)
H1 H -0.1035 0.5329 0.1626
C8 C 0.25785(14) 0.3241(3) 0.16719(13)
H2 H 0.2876 0.3660 0.1466
C9 C -0.08599(14) -0.0823(3) 0.04876(11)
H3 H -0.0537 -0.1605 0.0410
C10 C 0.29231(13) 0.2778(3) 0.22568(12)
H4 H 0.3452 0.2870 0.2445
C11 C 0.07474(14) -0.0462(3) 0.10397(12)
H5 H 0.0642 -0.1485 0.1210
H6 H 0.1270 -0.0134 0.1248
H7 H 0.0666 -0.0646 0.0627
C12 C 0.17931(13) 0.3095(3) 0.13828(11)
H8 H 0.1563 0.3402 0.0985
C13 C -0.20211(15) 0.4040(4) 0.11994(12)
H9 H -0.2342 0.4796 0.1292
C14 C 0.17027(13) 0.2034(3) 0.22913(10)
H10 H 0.1409 0.1638 0.2504
C15 C 0.03612(15) 0.5060(3) 0.17746(13)
H11 H 0.0310 0.5131 0.2157
H12 H 0.0084 0.5970 0.1527
H13 H 0.0893 0.5136 0.1825
C16 C 0.24860(13) 0.2178(3) 0.25649(12)
H14 H 0.2721 0.1865 0.2962
C17 C -0.21444(14) 0.0039(3) 0.03718(11)
H15 H -0.2670 -0.0164 0.0217
C18 C -0.23314(14) 0.2659(4) 0.08657(11)
H16 H -0.2859 0.2488 0.0729
C19 C -0.16575(16) -0.1051(3) 0.02568(12)
H17 H -0.1859 -0.1983 0.0016
I1 I 0.0000 0.92943(3) 0.2500
I2 I 0.0000 0.5000 0.0000
loop_
_geom_bond_atom_site_label_1
_geom_bond_atom_site_label_2
_geom_bond_site_symmetry_1
_geom_bond_site_symmetry_2
N1 C1 1_555 1_555
N2 C3 1_555 1_555
C1 C4 1_555 1_555
C2 C3 1_555 1_555
C3 N1 1_555 1_555
C4 C5 1_555 1_555
C5 C17 1_555 1_555
C6 N2 1_555 1_555
C7 C6 1_555 1_555
H1 C7 1_555 1_555
C8 H2 1_555 1_555
C9 C1 1_555 1_555
H3 C9 1_555 1_555
C10 C8 1_555 1_555
H4 C10 1_555 1_555
C11 N1 1_555 1_555
H5 C11 1_555 1_555
H6 C11 1_555 1_555
H7 C11 1_555 1_555
C12 C2 1_555 1_555
H8 C12 1_555 1_555
C13 C7 1_555 1_555
H9 C13 1_555 1_555
C14 C2 1_555 1_555
H10 C14 1_555 1_555
C15 N2 1_555 1_555
H11 C15 1_555 1_555
H12 C15 1_555 1_555
H13 C15 1_555 1_555
C16 C10 1_555 1_555
H14 C16 1_555 1_555
C17 H15 1_555 1_555
C18 C5 1_555 1_555
H16 C18 1_555 1_555
C19 C9 1_555 1_555
H17 C19 1_555 1_555
C4 C6 1_555 1_555
C8 C12 1_555 1_555
C13 C18 1_555 1_555
C14 C16 1_555 1_555
C17 C19 1_555 1_555

#END
