
#######################################################################
#
#                 Cambridge Crystallographic Data Centre
#                                CCDC 
#
#######################################################################
#
# If this CIF has been generated from an entry in the Cambridge 
# Structural Database, then it will include bibliographic, chemical, 
# crystal, experimental, refinement or atomic coordinate data resulting 
# from the CCDC's data processing and validation procedures.
#
#######################################################################

data_LEGTEY
_chemical_formula_moiety         'C19 H20 N2 O2'
_chemical_name_systematic        
2-Amino-7,7-dimethyl-4-(4-methylphenyl)-5-oxo-5,6,7,8-tetrahydro-4H-chromene-3-carbonitrile
_symmetry_cell_setting           monoclinic
_symmetry_space_group_name_H-M   'P 21/n'
_symmetry_Int_Tables_number      14
_space_group_name_Hall           '-P 2yn'
loop_
_symmetry_equiv_pos_site_id
_symmetry_equiv_pos_as_xyz
1 x,y,z
2 1/2-x,1/2+y,1/2-z
3 -x,-y,-z
4 1/2+x,1/2-y,1/2+z
_cell_length_a                   9.4622(3)
_cell_length_b                   16.8820(5)
_cell_length_c                   10.8301(4)
_cell_angle_alpha                90
_cell_angle_beta                 111.842(4)
_cell_angle_gamma                90
_cell_volume                     1605.82
_exptl_crystal_colour            white
_exptl_crystal_description       block
_cell_formula_units_Z            4
loop_
_atom_site_label
_atom_site_type_symbol
_atom_site_fract_x
_atom_site_fract_y
_atom_site_fract_z
O1 O 0.62616(12) 0.12747(6) 0.06792(11)
C1 C 0.87094(17) 0.17332(9) 0.42111(15)
C2 C 1.00784(18) 0.14575(11) 0.41998(17)
H1 H 1.0343 0.1568 0.3472
C3 C 1.1067(2) 0.10204(11) 0.52474(19)
H2 H 1.1978 0.0842 0.5206
C4 C 1.0732(2) 0.08433(10) 0.63476(17)
C5 C 0.9371(2) 0.11238(11) 0.63673(18)
H3 H 0.9118 0.1018 0.7103
C6 C 0.8370(2) 0.15591(11) 0.53232(17)
H4 H 0.7459 0.1737 0.5367
C7 C 1.1810(2) 0.03593(13) 0.7475(2)
H5 H 1.1854 -0.0172 0.7175
H6 H 1.1456 0.0350 0.8199
H7 H 1.2807 0.0592 0.7770
C8 C 0.74563(17) 0.17699(9) 0.07890(15)
C9 C 0.80680(17) 0.22511(9) 0.18489(15)
C10 C 0.75981(17) 0.22126(9) 0.30428(15)
H8 H 0.7564 0.2755 0.3353
O2 O 0.53082(14) 0.26138(8) 0.40897(12)
C11 C 0.49500(18) 0.21056(10) 0.32139(16)
C12 C 0.33944(19) 0.17324(11) 0.27258(19)
H9 H 0.2688 0.2083 0.2076
H10 H 0.3062 0.1686 0.3469
C13 C 0.33113(18) 0.09159(10) 0.20960(17)
C14 C 0.39789(18) 0.09955(11) 0.10153(17)
H11 H 0.4110 0.0472 0.0705
H12 H 0.3267 0.1284 0.0267
C15 C 0.54697(16) 0.14144(9) 0.14978(15)
C16 C 0.60023(17) 0.18777(9) 0.25695(15)
C17 C 0.4198(2) 0.03164(12) 0.3151(2)
H13 H 0.5238 0.0486 0.3562
H14 H 0.4164 -0.0192 0.2743
H15 H 0.3752 0.0277 0.3813
C18 C 0.1651(2) 0.06452(13) 0.1450(2)
H16 H 0.1612 0.0141 0.1030
H17 H 0.1084 0.1027 0.0797
H18 H 0.1218 0.0598 0.2120
N1 N 0.78732(18) 0.16693(10) -0.02573(15)
C19 C 0.92224(19) 0.27927(10) 0.18699(16)
N2 N 1.01708(19) 0.32308(10) 0.19332(17)
H19 H 0.864(2) 0.1956(12) -0.0300(19)
H20 H 0.716(2) 0.1541(12) -0.101(2)
loop_
_geom_bond_atom_site_label_1
_geom_bond_atom_site_label_2
_geom_bond_site_symmetry_1
_geom_bond_site_symmetry_2
O1 C8 1_555 1_555
C1 C2 1_555 1_555
C2 H1 1_555 1_555
C3 C2 1_555 1_555
H2 C3 1_555 1_555
C4 C3 1_555 1_555
C5 C4 1_555 1_555
H3 C5 1_555 1_555
C6 C1 1_555 1_555
H4 C6 1_555 1_555
C7 C4 1_555 1_555
H5 C7 1_555 1_555
H6 C7 1_555 1_555
H7 C7 1_555 1_555
C8 C9 1_555 1_555
C9 C10 1_555 1_555
C10 C1 1_555 1_555
H8 C10 1_555 1_555
O2 C11 1_555 1_555
C11 C12 1_555 1_555
C12 H9 1_555 1_555
H10 C12 1_555 1_555
C13 C12 1_555 1_555
C14 C13 1_555 1_555
H11 C14 1_555 1_555
H12 C14 1_555 1_555
C15 O1 1_555 1_555
C16 C10 1_555 1_555
C17 C13 1_555 1_555
H13 C17 1_555 1_555
H14 C17 1_555 1_555
H15 C17 1_555 1_555
C18 C13 1_555 1_555
H16 C18 1_555 1_555
H17 C18 1_555 1_555
H18 C18 1_555 1_555
N1 C8 1_555 1_555
C19 C9 1_555 1_555
N2 C19 1_555 1_555
H19 N1 1_555 1_555
H20 N1 1_555 1_555
C5 C6 1_555 1_555
C11 C16 1_555 1_555
C14 C15 1_555 1_555
C15 C16 1_555 1_555

#END
