
#######################################################################
#
#                 Cambridge Crystallographic Data Centre
#                                CCDC 
#
#######################################################################
#
# If this CIF has been generated from an entry in the Cambridge 
# Structural Database, then it will include bibliographic, chemical, 
# crystal, experimental, refinement or atomic coordinate data resulting 
# from the CCDC's data processing and validation procedures.
#
#######################################################################

data_LEHGEL
_chemical_formula_moiety         'C22 H18 O8'
_chemical_name_systematic        
6,7,9-Trimethoxy-9-(3,4-(methylenedioxy)phenyl)-1,3,4,9-tetrahydronaptho[2,3-c]furan-1,4-dione
_symmetry_cell_setting           monoclinic
_symmetry_space_group_name_H-M   'P 21/c'
_symmetry_Int_Tables_number      14
_space_group_name_Hall           '-P 2ybc'
loop_
_symmetry_equiv_pos_site_id
_symmetry_equiv_pos_as_xyz
1 x,y,z
2 -x,1/2+y,1/2-z
3 -x,-y,-z
4 x,1/2-y,1/2+z
_cell_length_a                   11.9852(5)
_cell_length_b                   14.3476(10)
_cell_length_c                   11.1874(6)
_cell_angle_alpha                90
_cell_angle_beta                 110.07(3)
_cell_angle_gamma                90
_cell_volume                     1806.95
_exptl_crystal_colour            yellow
_exptl_crystal_description       Prism
_chemical_melting_point          230deg.C
_cell_formula_units_Z            4
loop_
_atom_site_label
_atom_site_type_symbol
_atom_site_fract_x
_atom_site_fract_y
_atom_site_fract_z
O1 O 0.22079(13) 0.27189(11) 0.65837(15)
O2 O 0.34632(13) 0.30928(11) 0.55632(14)
O3 O 0.45340(13) 0.09841(12) 0.33901(15)
O4 O 0.30670(13) -0.24020(11) 0.27375(15)
O5 O 0.15839(13) -0.25503(11) 0.39082(15)
O6 O 0.28009(15) -0.03315(12) 1.03752(14)
O7 O 0.10225(14) 0.03797(13) 0.92671(15)
O8 O 0.08211(11) 0.09520(11) 0.47666(13)
C1 C 0.27400(19) 0.24935(17) 0.5888(2)
C2 C 0.27808(18) 0.15849(16) 0.5269(2)
C3 C 0.35315(17) 0.16653(17) 0.4633(2)
C4 C 0.4009(2) 0.26324(18) 0.4744(2)
H1 H 0.4922(17) 0.2673(13) 0.5167(17)
H2 H 0.3775(16) 0.2949(15) 0.3920(19)
C5 C 0.38139(18) 0.08928(17) 0.3935(2)
C6 C 0.31884(17) 0.00058(16) 0.39582(19)
C7 C 0.23791(17) -0.00717(16) 0.45924(19)
C8 C 0.20641(17) 0.07332(16) 0.5321(2)
C9 C 0.18216(19) -0.09276(17) 0.4585(2)
H3 H 0.1245(17) -0.0966(15) 0.4974(18)
C10 C 0.20651(18) -0.16890(17) 0.3958(2)
C11 C 0.28904(18) -0.16063(17) 0.3315(2)
C12 C 0.34400(19) -0.07707(17) 0.3321(2)
H4 H 0.3993(17) -0.0673(14) 0.2852(18)
C13 C 0.3847(3) -0.2344(2) 0.2019(3)
H5 H 0.3831(19) -0.3015(19) 0.167(2)
H6 H 0.467(2) -0.2120(15) 0.261(2)
H7 H 0.3556(19) -0.1909(18) 0.134(2)
C14 C 0.0785(2) -0.2696(2) 0.4597(3)
H8 H 0.0543(17) -0.3357(17) 0.444(2)
H9 H 0.005(2) -0.2253(17) 0.428(2)
H10 H 0.120(2) -0.2559(17) 0.553(3)
C15 C 0.22916(18) 0.04530(16) 0.6705(2)
C16 C 0.3366(2) 0.00393(18) 0.7380(2)
H11 H 0.3982(18) -0.0094(15) 0.6991(19)
C17 C 0.3628(2) -0.02453(18) 0.8643(2)
H12 H 0.432(2) -0.0498(17) 0.907(2)
C18 C 0.2783(2) -0.00856(17) 0.9180(2)
C19 C 0.1726(2) 0.03366(17) 0.8519(2)
C20 C 0.1446(2) 0.06136(17) 0.7277(2)
H13 H 0.0713(19) 0.0897(17) 0.680(2)
C21 C 0.1775(3) 0.0089(2) 1.0518(2)
H14 H 0.2039(18) 0.0679(17) 1.106(2)
H15 H 0.133(2) -0.0340(19) 1.088(2)
C22 C 0.0461(2) 0.1276(2) 0.3472(2)
H16 H -0.040(2) 0.1379(16) 0.319(2)
H17 H 0.070(2) 0.079(2) 0.289(3)
H18 H 0.095(2) 0.1871(19) 0.347(2)
loop_
_geom_bond_atom_site_label_1
_geom_bond_atom_site_label_2
_geom_bond_site_symmetry_1
_geom_bond_site_symmetry_2
O1 C1 1_555 1_555
O2 C1 1_555 1_555
O3 C5 1_555 1_555
O4 C11 1_555 1_555
O5 C10 1_555 1_555
O6 C18 1_555 1_555
O7 C19 1_555 1_555
O8 C8 1_555 1_555
C1 C2 1_555 1_555
C2 C3 1_555 1_555
C3 C4 1_555 1_555
C4 O2 1_555 1_555
H1 C4 1_555 1_555
H2 C4 1_555 1_555
C5 C3 1_555 1_555
C6 C5 1_555 1_555
C7 C6 1_555 1_555
C8 C2 1_555 1_555
C9 C7 1_555 1_555
H3 C9 1_555 1_555
C10 C9 1_555 1_555
C11 C10 1_555 1_555
C12 C6 1_555 1_555
H4 C12 1_555 1_555
C13 O4 1_555 1_555
H5 C13 1_555 1_555
H6 C13 1_555 1_555
H7 C13 1_555 1_555
C14 O5 1_555 1_555
H8 C14 1_555 1_555
H9 C14 1_555 1_555
H10 C14 1_555 1_555
C15 C8 1_555 1_555
C16 C15 1_555 1_555
H11 C16 1_555 1_555
C17 C16 1_555 1_555
H12 C17 1_555 1_555
C18 C17 1_555 1_555
C19 C18 1_555 1_555
C20 C15 1_555 1_555
H13 C20 1_555 1_555
C21 O6 1_555 1_555
H14 C21 1_555 1_555
H15 C21 1_555 1_555
C22 O8 1_555 1_555
H16 C22 1_555 1_555
H17 C22 1_555 1_555
H18 C22 1_555 1_555
O7 C21 1_555 1_555
C7 C8 1_555 1_555
C11 C12 1_555 1_555
C19 C20 1_555 1_555

#END
