
#######################################################################
#
#                 Cambridge Crystallographic Data Centre
#                                CCDC 
#
#######################################################################
#
# If this CIF has been generated from an entry in the Cambridge 
# Structural Database, then it will include bibliographic, chemical, 
# crystal, experimental, refinement or atomic coordinate data resulting 
# from the CCDC's data processing and validation procedures.
#
#######################################################################

data_LEHQIB
_chemical_formula_moiety         'C21 H19 Cl1 O3'
_chemical_name_systematic        
'methyl 3-[1-(4-chlorophenyl)ethylidene]-4-phenyl-3,4-dihydro-2H-pyran-6-carboxylate'
_symmetry_cell_setting           orthorhombic
_symmetry_space_group_name_H-M   'P 21 21 21'
_symmetry_Int_Tables_number      19
_space_group_name_Hall           'P 2ac 2ab'
loop_
_symmetry_equiv_pos_site_id
_symmetry_equiv_pos_as_xyz
1 x,y,z
2 1/2-x,-y,1/2+z
3 -x,1/2+y,1/2-z
4 1/2+x,1/2-y,-z
_cell_length_a                   8.1867(11)
_cell_length_b                   9.6089(13)
_cell_length_c                   22.066(3)
_cell_angle_alpha                90
_cell_angle_beta                 90
_cell_angle_gamma                90
_cell_volume                     1735.83
_exptl_crystal_colour            colorless
_exptl_crystal_description       block
_cell_formula_units_Z            4
loop_
_atom_site_label
_atom_site_type_symbol
_atom_site_fract_x
_atom_site_fract_y
_atom_site_fract_z
C1 C 0.4833(3) 0.3594(2) 0.73307(9)
H1 H 0.4088 0.2881 0.7487
Cl1 Cl -0.22581(8) 0.76007(7) 0.52010(3)
O1 O 0.55727(18) 0.40245(16) 0.60376(7)
C2 C 0.3834(3) 0.4513(2) 0.69065(9)
O2 O 0.8444(2) 0.13420(18) 0.62666(8)
C3 C 0.4818(3) 0.5110(2) 0.63963(10)
H2 H 0.4114 0.5667 0.6139
H3 H 0.5659 0.5714 0.6560
O3 O 0.7352(2) 0.23166(16) 0.54358(7)
C4 C 0.6352(3) 0.3043(2) 0.63794(10)
C5 C 0.6120(3) 0.2847(2) 0.69702(10)
H4 H 0.6789 0.2213 0.7170
C6 C 0.5558(3) 0.4335(2) 0.78803(9)
C7 C 0.4865(3) 0.4149(2) 0.84533(10)
H5 H 0.3922 0.3619 0.8494
C8 C 0.5567(3) 0.4746(3) 0.89615(11)
H6 H 0.5097 0.4608 0.9341
C9 C 0.6960(3) 0.5543(3) 0.89078(11)
H7 H 0.7432 0.5939 0.9250
C10 C 0.7652(3) 0.5753(2) 0.83452(11)
H8 H 0.8583 0.6300 0.8308
C11 C 0.6960(3) 0.5150(2) 0.78354(10)
H9 H 0.7438 0.5292 0.7458
C12 C 0.2218(3) 0.4699(2) 0.69576(9)
C13 C 0.1216(3) 0.5486(2) 0.65024(9)
C14 C 0.0261(3) 0.4725(2) 0.60976(10)
H10 H 0.0330 0.3759 0.6099
C15 C -0.0788(3) 0.5373(3) 0.56937(10)
H11 H -0.1410 0.4852 0.5424
C16 C -0.0893(3) 0.6803(2) 0.56999(10)
C17 C 0.0047(3) 0.7589(3) 0.60874(10)
H12 H -0.0027 0.8555 0.6084
C18 C 0.1104(3) 0.6925(3) 0.64833(11)
H13 H 0.1751 0.7456 0.6742
C19 C 0.1195(3) 0.4098(3) 0.74620(11)
H14 H 0.1812 0.3400 0.7673
H15 H 0.0225 0.3687 0.7295
H16 H 0.0896 0.4825 0.7739
C20 C 0.7502(3) 0.2139(2) 0.60328(10)
C21 C 0.8469(3) 0.1507(3) 0.50659(12)
H17 H 0.8182 0.1609 0.4646
H18 H 0.8400 0.0544 0.5179
H19 H 0.9565 0.1834 0.5128
loop_
_geom_bond_atom_site_label_1
_geom_bond_atom_site_label_2
_geom_bond_site_symmetry_1
_geom_bond_site_symmetry_2
C1 H1 1_555 1_555
Cl1 C16 1_555 1_555
O1 C3 1_555 1_555
C2 C1 1_555 1_555
O2 C20 1_555 1_555
C3 C2 1_555 1_555
H2 C3 1_555 1_555
H3 C3 1_555 1_555
O3 C20 1_555 1_555
C4 O1 1_555 1_555
C5 C1 1_555 1_555
H4 C5 1_555 1_555
C6 C1 1_555 1_555
C7 C6 1_555 1_555
H5 C7 1_555 1_555
C8 C7 1_555 1_555
H6 C8 1_555 1_555
C9 C8 1_555 1_555
H7 C9 1_555 1_555
C10 C9 1_555 1_555
H8 C10 1_555 1_555
C11 C6 1_555 1_555
H9 C11 1_555 1_555
C12 C2 1_555 1_555
C13 C12 1_555 1_555
C14 C13 1_555 1_555
H10 C14 1_555 1_555
C15 C14 1_555 1_555
H11 C15 1_555 1_555
C16 C15 1_555 1_555
C17 C16 1_555 1_555
H12 C17 1_555 1_555
C18 C13 1_555 1_555
H13 C18 1_555 1_555
C19 C12 1_555 1_555
H14 C19 1_555 1_555
H15 C19 1_555 1_555
H16 C19 1_555 1_555
C20 C4 1_555 1_555
C21 O3 1_555 1_555
H17 C21 1_555 1_555
H18 C21 1_555 1_555
H19 C21 1_555 1_555
C4 C5 1_555 1_555
C10 C11 1_555 1_555
C17 C18 1_555 1_555

#END
