
#######################################################################
#
#                 Cambridge Crystallographic Data Centre
#                                CCDC 
#
#######################################################################
#
# If this CIF has been generated from an entry in the Cambridge 
# Structural Database, then it will include bibliographic, chemical, 
# crystal, experimental, refinement or atomic coordinate data resulting 
# from the CCDC's data processing and validation procedures.
#
#######################################################################

data_LEJLER
_chemical_formula_moiety         'C12 H16 Br1 N5 O1 S1'
_chemical_name_systematic        
3-(4-(5-Bromo-3-methyl-2-pyridyl)butylamino)-4-amino-1,2,5-thiadiazole-1-oxide
_chemical_properties_biological  'specific histamine H1 antagonist activity'
_symmetry_cell_setting           triclinic
_symmetry_space_group_name_H-M   'P -1'
_symmetry_Int_Tables_number      2
_space_group_name_Hall           '-P 1'
loop_
_symmetry_equiv_pos_site_id
_symmetry_equiv_pos_as_xyz
1 x,y,z
2 -x,-y,-z
_cell_length_a                   14.295(2)
_cell_length_b                   12.447(2)
_cell_length_c                   9.917(2)
_cell_angle_alpha                95.77(2)
_cell_angle_beta                 113.86(2)
_cell_angle_gamma                106.91(1)
_cell_volume                     1495.18
_cell_formula_units_Z            4
loop_
_atom_site_label
_atom_site_type_symbol
_atom_site_fract_x
_atom_site_fract_y
_atom_site_fract_z
N1 N -0.1057(2) 0.0350(3) -0.2581(3)
C1 C -0.1603(3) 0.0174(4) -0.1751(4)
C2 C -0.1146(3) 0.0762(3) -0.0260(4)
Br1 Br -0.19840(3) 0.05224(4) 0.08231(5)
C3 C -0.0069(3) 0.1529(3) 0.0445(4)
C4 C 0.0509(3) 0.1717(3) -0.0395(4)
C5 C 0.1683(3) 0.2552(4) 0.0372(6)
C6 C -0.0026(3) 0.1112(3) -0.1933(4)
C7 C 0.0502(3) 0.1277(4) -0.2981(5)
C8 C -0.0136(3) 0.1672(3) -0.4349(4)
C9 C -0.0201(3) 0.2840(3) -0.3904(3)
C10 C -0.0953(3) 0.3187(4) -0.5240(4)
N2 N -0.0429(2) 0.3579(3) -0.6185(3)
C11 C -0.0968(2) 0.3835(3) -0.7445(3)
S1 S -0.2472(1) 0.3684(1) -0.9875(1)
N3 N -0.2056(3) 0.3545(7) -0.8102(4)
O1 O -0.2971(4) 0.4587(4) -1.0029(6)
N4 N -0.1222(2) 0.4298(7) -0.9787(5)
C12 C -0.0467(2) 0.4301(3) -0.8434(3)
N5 N 0.0573(2) 0.4517(3) -0.8094(3)
H1 H -0.2370(3) -0.0409(4) -0.2242(4)
H2 H 0.0284(3) 0.1943(3) 0.1544(4)
H3 H 0.1901(3) 0.3003(4) 0.1540(6)
H4 H 0.1768(3) 0.3137(4) -0.0232(6)
H5 H 0.2186(3) 0.2123(4) 0.0429(6)
H6 H 0.1253(3) 0.1889(4) -0.2395(5)
H7 H 0.0564(3) 0.0532(4) -0.3334(5)
H8 H 0.0218(3) 0.1719(3) -0.5040(4)
H9 H -0.0901(3) 0.1085(3) -0.4900(4)
H10 H 0.0557(3) 0.3439(3) -0.3462(3)
H11 H -0.0468(3) 0.2816(3) -0.3114(3)
H12 H -0.1129(3) 0.3833(4) -0.4841(4)
H13 H -0.1647(3) 0.2503(4) -0.5872(4)
H14 H 0.0271(2) 0.3635(3) -0.5893(3)
H15 H 0.0803(2) 0.4951(3) -0.8694(3)
H16 H 0.1026(2) 0.4488(2) -0.7225(3)
N6 N -0.4169(2) -0.1559(3) 0.5539(3)
C13 C -0.3832(3) -0.1017(3) 0.4620(4)
C14 C -0.4569(3) -0.0863(3) 0.3312(3)
Br2 Br -0.40567(4) -0.01079(4) 0.20454(5)
C15 C -0.5664(3) -0.1237(3) 0.2944(4)
C16 C -0.6023(3) -0.1796(3) 0.3878(3)
C17 C -0.7211(3) -0.2230(5) 0.3497(5)
C18 C -0.5233(2) -0.1937(3) 0.5190(3)
C19 C -0.5580(3) -0.2542(3) 0.6252(3)
C20 C -0.4646(3) -0.2483(3) 0.7744(3)
C21 C -0.5079(2) -0.3023(3) 0.8783(3)
C22 C -0.4169(2) -0.3060(3) 1.0237(3)
N7 N -0.4622(2) -0.3550(3) 1.1213(3)
C23 C -0.4015(2) -0.3626(3) 1.2570(3)
S2 S -0.25321(8) -0.3298(1) 1.5073(1)
N8 N -0.2926(2) -0.3139(4) 1.3307(3)
O2 O -0.1886(3) -0.4072(3) 1.5289(5)
N9 N -0.3758(2) -0.4097(3) 1.4919(3)
C24 C -0.4502(2) -0.4179(3) 1.3535(3)
N10 N -0.5567(2) -0.4604(3) 1.3086(3)
H17 H -0.3033(3) -0.0732(3) 0.4890(4)
H18 H -0.6200(3) -0.1117(3) 0.1999(4)
H19 H -0.7515(3) -0.2978(5) 0.3565(5)
H20 H -0.7313(3) -0.1695(5) 0.4203(5)
H21 H -0.7634(3) -0.2197(5) 0.2425(5)
H22 H -0.6058(3) -0.2187(3) 0.6489(3)
H23 H -0.6013(3) -0.3378(3) 0.5708(3)
H24 H -0.4166(3) -0.1652(3) 0.8260(3)
H25 H -0.4207(3) -0.2911(3) 0.7534(3)
H26 H -0.5468(2) -0.2555(3) 0.9055(3)
H27 H -0.5607(2) -0.3833(3) 0.8229(3)
H28 H -0.3629(2) -0.2254(3) 1.0791(3)
H29 H -0.3790(2) -0.3547(3) 0.9979(3)
H30 H -0.5357(2) -0.3813(3) 1.0853(3)
H31 H -0.5819(2) -0.4801(3) 1.3778(3)
H32 H -0.6098(2) -0.4716(3) 1.2001(3)
S3? S -0.2166(1) 0.4686(2) -0.9136(2)
N11? N -0.1913(5) 0.3991(9) -0.7765(9)
O3? O -0.3138(4) 0.3888(6) -1.0541(5)
N12? N -0.1056(5) 0.4795(9) -0.9416(9)
S4? S -0.2655(2) -0.4293(3) 1.4355(3)
N13? N -0.2997(4) -0.3605(7) 1.2978(8)
O4? O -0.1690(4) -0.3493(5) 1.5754(5)
N14? N -0.3803(4) -0.4530(7) 1.4581(7)
loop_
_geom_bond_atom_site_label_1
_geom_bond_atom_site_label_2
_geom_bond_site_symmetry_1
_geom_bond_site_symmetry_2
N1 C1 1_555 1_555
C1 C2 1_555 1_555
C2 Br1 1_555 1_555
C3 C2 1_555 1_555
C4 C3 1_555 1_555
C5 C4 1_555 1_555
C6 N1 1_555 1_555
C7 C6 1_555 1_555
C8 C7 1_555 1_555
C9 C8 1_555 1_555
C10 C9 1_555 1_555
N2 C10 1_555 1_555
C11 N2 1_555 1_555
S1 N3 1_555 1_555
N3 C11 1_555 1_555
O1 S1 1_555 1_555
N4 S1 1_555 1_555
C12 C11 1_555 1_555
N5 C12 1_555 1_555
H1 C1 1_555 1_555
H2 C3 1_555 1_555
H3 C5 1_555 1_555
H4 C5 1_555 1_555
H5 C5 1_555 1_555
H6 C7 1_555 1_555
H7 C7 1_555 1_555
H8 C8 1_555 1_555
H9 C8 1_555 1_555
H10 C9 1_555 1_555
H11 C9 1_555 1_555
H12 C10 1_555 1_555
H13 C10 1_555 1_555
H14 N2 1_555 1_555
H15 N5 1_555 1_555
H16 N5 1_555 1_555
N6 C13 1_555 1_555
C13 C14 1_555 1_555
C14 Br2 1_555 1_555
C15 C14 1_555 1_555
C16 C15 1_555 1_555
C17 C16 1_555 1_555
C18 N6 1_555 1_555
C19 C18 1_555 1_555
C20 C19 1_555 1_555
C21 C20 1_555 1_555
C22 C21 1_555 1_555
N7 C22 1_555 1_555
C23 N7 1_555 1_555
S2 N8 1_555 1_555
N8 C23 1_555 1_555
O2 S2 1_555 1_555
N9 S2 1_555 1_555
C24 C23 1_555 1_555
N10 C24 1_555 1_555
H17 C13 1_555 1_555
H18 C15 1_555 1_555
H19 C17 1_555 1_555
H20 C17 1_555 1_555
H21 C17 1_555 1_555
H22 C19 1_555 1_555
H23 C19 1_555 1_555
H24 C20 1_555 1_555
H25 C20 1_555 1_555
H26 C21 1_555 1_555
H27 C21 1_555 1_555
H28 C22 1_555 1_555
H29 C22 1_555 1_555
H30 N7 1_555 1_555
H31 N10 1_555 1_555
H32 N10 1_555 1_555
C4 C6 1_555 1_555
N4 C12 1_555 1_555
C16 C18 1_555 1_555
N9 C24 1_555 1_555

#END
