
#######################################################################
#
#                 Cambridge Crystallographic Data Centre
#                                CCDC 
#
#######################################################################
#
# If this CIF has been generated from an entry in the Cambridge 
# Structural Database, then it will include bibliographic, chemical, 
# crystal, experimental, refinement or atomic coordinate data resulting 
# from the CCDC's data processing and validation procedures.
#
#######################################################################

data_LEJLOB
_chemical_formula_moiety         '0.5(C19 H21 N5 O1),0.5(C19 H21 N5 O1)'
_chemical_name_systematic        
2-(3-(N-Benzyl-N-2-pyridylamino)propylamino)-4-pyrimidone
_chemical_properties_biological  'specific histamine H1 antagonist activity'
_symmetry_cell_setting           orthorhombic
_symmetry_space_group_name_H-M   'P b n a'
_symmetry_Int_Tables_number      60
_space_group_name_Hall           '-P 2ac 2b'
loop_
_symmetry_equiv_pos_site_id
_symmetry_equiv_pos_as_xyz
1 x,y,z
2 1/2-x,-y,1/2+z
3 x,1/2-y,-z
4 1/2-x,1/2+y,1/2-z
5 -x,-y,-z
6 1/2+x,y,1/2-z
7 -x,1/2+y,z
8 1/2+x,1/2-y,1/2+z
_cell_length_a                   7.082(1)
_cell_length_b                   19.889(3)
_cell_length_c                   24.899(3)
_cell_angle_alpha                90
_cell_angle_beta                 90
_cell_angle_gamma                90
_cell_volume                     3507.12
_cell_formula_units_Z            8
loop_
_atom_site_label
_atom_site_type_symbol
_atom_site_fract_x
_atom_site_fract_y
_atom_site_fract_z
N1 N -0.3058(2) 0.1804(1) 0.3542(1)
C1 C -0.4164(3) 0.2145(1) 0.3198(1)
C2 C -0.5419(3) 0.1856(1) 0.2854(1)
C3 C -0.5575(3) 0.1163(1) 0.2865(1)
C4 C -0.4473(3) 0.0792(1) 0.3206(1)
C5 C -0.3192(3) 0.1130(1) 0.3544(1)
N2 N -0.2009(2) 0.0792(1) 0.3888(1)
C6 C -0.2315(3) 0.0079(1) 0.3989(1)
C7 C -0.1549(3) -0.0403(1) 0.3571(1)
C8 C -0.2196(3) -0.1064(1) 0.3571(1)
C9 C -0.1433(4) -0.1534(1) 0.3225(1)
C10 C -0.0043(4) -0.1352(1) 0.2869(1)
C11 C 0.0590(4) -0.0699(1) 0.2859(1)
C12 C -0.0152(3) -0.0228(1) 0.3208(1)
C13 C -0.0769(3) 0.1166(1) 0.4252(1)
C14 C 0.0928(3) 0.1470(1) 0.3975(1)
C15 C 0.2376(3) 0.1735(1) 0.4383(1)
N3 N 0.3343(2) 0.1174(1) 0.463(1)
C16 C 0.4720(2) 0.1231(1) 0.4994(1)
N4 N 0.5558(2) 0.0661(1) 0.5163(1)
C17 C 0.6993(3) 0.0666(1) 0.5531(1)
O1 O 0.7737(2) 0.0128(1) 0.5664(1)
C18 C 0.7528(3) 0.1313(1) 0.5738(1)
C19 C 0.6637(3) 0.1860(1) 0.5555(1)
N5 N 0.5233(2) 0.1838(1) 0.5180(1)
H1 H -0.4052(3) 0.2646(1) 0.31958(9)
H2 H -0.6186(3) 0.2135(1) 0.2601(1)
H3 H -0.6498(3) 0.0935(1) 0.2621(1)
H4 H -0.4578(3) 0.0291(1) 0.32180(9)
H5 H -0.1711(3) -0.00327(9) 0.43405(8)
H6 H -0.3707(3) 0.00022(9) 0.40134(8)
H7 H -0.3205(3) -0.1198(1) 0.38301(9)
H8 H -0.1906(4) -0.2008(1) 0.3227(1)
H9 H 0.0509(4) -0.1692(1) 0.2618(1)
H10 H 0.1593(4) -0.0561(1) 0.2598(1)
H11 H 0.0305(3) 0.0247(1) 0.31990(8)
H12 H -0.1517(3) 0.15349(9) 0.44229(8)
H13 H -0.0306(3) 0.08507(9) 0.45357(8)
H14 H 0.0490(3) 0.1847(1) 0.37407(8)
H15 H 0.1546(3) 0.1117(1) 0.37496(8)
H16 H 0.1703(3) 0.20003(9) 0.46656(9)
H17 H 0.3320(3) 0.20290(9) 0.41984(9)
H18 H 0.2988(2) 0.07568(7) 0.45360(7)
H19 H 0.5161(2) 0.02650(6) 0.50296(6)
H20 H 0.8522(3) 0.13496(9) 0.60219(8)
H21 H 0.7028(3) 0.23102(8) 0.56958(8)
H22 H 0.4674(2) 0.22160(7) 0.50601(6)
loop_
_geom_bond_atom_site_label_1
_geom_bond_atom_site_label_2
_geom_bond_site_symmetry_1
_geom_bond_site_symmetry_2
N1 C1 1_555 1_555
C1 C2 1_555 1_555
C2 C3 1_555 1_555
C3 C4 1_555 1_555
C4 C5 1_555 1_555
C5 N1 1_555 1_555
N2 C5 1_555 1_555
C6 N2 1_555 1_555
C7 C6 1_555 1_555
C8 C7 1_555 1_555
C9 C8 1_555 1_555
C10 C9 1_555 1_555
C11 C10 1_555 1_555
C12 C7 1_555 1_555
C13 N2 1_555 1_555
C14 C13 1_555 1_555
C15 C14 1_555 1_555
N3 C15 1_555 1_555
C16 N3 1_555 1_555
N4 C16 1_555 1_555
C17 N4 1_555 1_555
O1 C17 1_555 1_555
C18 C17 1_555 1_555
C19 C18 1_555 1_555
N5 C16 1_555 1_555
H1 C1 1_555 1_555
H2 C2 1_555 1_555
H3 C3 1_555 1_555
H4 C4 1_555 1_555
H5 C6 1_555 1_555
H6 C6 1_555 1_555
H7 C8 1_555 1_555
H8 C9 1_555 1_555
H9 C10 1_555 1_555
H10 C11 1_555 1_555
H11 C12 1_555 1_555
H12 C13 1_555 1_555
H13 C13 1_555 1_555
H14 C14 1_555 1_555
H15 C14 1_555 1_555
H16 C15 1_555 1_555
H17 C15 1_555 1_555
H18 N3 1_555 1_555
H19 N4 1_555 1_555
H20 C18 1_555 1_555
H21 C19 1_555 1_555
H22 N5 1_555 1_555
C11 C12 1_555 1_555
C19 N5 1_555 1_555

#END
