
#######################################################################
#
#                 Cambridge Crystallographic Data Centre
#                                CCDC 
#
#######################################################################
#
# If this CIF has been generated from an entry in the Cambridge 
# Structural Database, then it will include bibliographic, chemical, 
# crystal, experimental, refinement or atomic coordinate data resulting 
# from the CCDC's data processing and validation procedures.
#
#######################################################################

data_LEJLUH
_chemical_formula_moiety         'C19 H23 F1 N6 O1 S1'
_chemical_name_systematic        
3-(3-(N-4-Fluorobenzyl-N-2-pyridylamino)propylamino)-4-ethylamino-1,2,5-thiadiazole-1-oxide
_chemical_properties_biological  'specific histamine H1 antagonist activity'
_symmetry_cell_setting           monoclinic
_symmetry_space_group_name_H-M   'P 21/n'
_symmetry_Int_Tables_number      14
_space_group_name_Hall           '-P 2yn'
loop_
_symmetry_equiv_pos_site_id
_symmetry_equiv_pos_as_xyz
1 x,y,z
2 1/2-x,1/2+y,1/2-z
3 -x,-y,-z
4 1/2+x,1/2-y,1/2+z
_cell_length_a                   6.686(2)
_cell_length_b                   14.717(3)
_cell_length_c                   20.850(5)
_cell_angle_alpha                90
_cell_angle_beta                 97.83(2)
_cell_angle_gamma                90
_cell_volume                     2032.47
_cell_formula_units_Z            4
loop_
_atom_site_label
_atom_site_type_symbol
_atom_site_fract_x
_atom_site_fract_y
_atom_site_fract_z
N1 N 0.3001(5) 0.5504(2) 0.2580(2)
C1 C 0.3655(7) 0.6127(2) 0.3032(2)
C2 C 0.2592(8) 0.6376(3) 0.3528(2)
C3 C 0.0770(8) 0.5951(2) 0.3548(2)
C4 C 0.0042(6) 0.5309(2) 0.3095(2)
C5 C 0.1210(5) 0.5103(2) 0.2615(2)
N2 N 0.0530(7) 0.4486(3) 0.2146(2)
C6 C -0.1419(9) 0.4070(4) 0.2118(3)
C7 C -0.1484(5) 0.3263(2) 0.2576(1)
C8 C 0.0184(5) 0.2969(2) 0.2990(1)
C9 C 0.0109(5) 0.2237(2) 0.3405(1)
C10 C -0.1746(5) 0.1816(2) 0.3380(1)
F1 F -0.1884(6) 0.1091(3) 0.3792(2)
C11 C -0.3481(5) 0.2067(2) 0.2981(1)
C12 C -0.3290(5) 0.2804(2) 0.2580(1)
C13 C 0.1805(8) 0.4229(3) 0.1653(2)
C14 C 0.1431(7) 0.4812(3) 0.1052(2)
C15 C 0.2986(7) 0.4636(3) 0.0593(2)
N3 N 0.2836(5) 0.3711(2) 0.0342(2)
C16 C 0.4453(5) 0.3210(3) 0.0279(2)
N4 N 0.6288(5) 0.3479(3) 0.0477(2)
S1 S 0.7803(2) 0.2604(1) 0.03661(7)
O1 O 0.9024(5) 0.2913(3) -0.0138(2)
N5 N 0.6087(5) 0.1899(3) -0.0015(2)
C17 C 0.4325(6) 0.2280(3) -0.0018(2)
N6 N 0.2622(5) 0.1891(3) -0.0247(2)
C18 C 0.2540(9) 0.0992(4) -0.0545(3)
C19 C 0.053(1) 0.0763(7) -0.0853(5)
H1 H 0.4993(7) 0.6415(2) 0.3002(2)
H2 H 0.3096(8) 0.6840(3) 0.3862(3)
H3 H -0.0046(8) 0.6117(2) 0.3898(2)
H4 H -0.1293(6) 0.5012(2) 0.3116(2)
H5 H -0.2412(9) 0.4536(4) 0.2224(3)
H6 H -0.1818(9) 0.3848(4) 0.1665(3)
H7 H 0.1488(5) 0.3302(2) 0.2990(1)
H8 H 0.1306(5) 0.2020(2) 0.3707(1)
H9 H -0.4776(5) 0.1728(2) 0.2986(1)
H10 H -0.4497(5) 0.3014(2) 0.2280(1)
H11 H 0.3251(8) 0.4321(3) 0.1838(2)
H12 H 0.1580(8) 0.3578(3) 0.1526(2)
H13 H 0.1432(7) 0.5463(3) 0.1190(2)
H14 H 0.0066(7) 0.4648(3) 0.0824(2)
H15 H 0.2769(7) 0.5073(3) 0.0223(2)
H16 H 0.4364(7) 0.4728(3) 0.0838(2)
H17 H 0.1510(5) 0.3454(2) 0.0104(2)
H18 H 0.1467(5) 0.2259(3) -0.0363(2)
H19 H 0.3551(9) 0.0939(4) -0.0855(3)
H20 H 0.2879(9) 0.0549(4) -0.0183(3)
H21 H -0.054(1) 0.1121(7) -0.1126(5)
H22 H 0.039(1) 0.0549(7) -0.0416(5)
H23 H 0.062(1) 0.0095(7) -0.1126(5)
loop_
_geom_bond_atom_site_label_1
_geom_bond_atom_site_label_2
_geom_bond_site_symmetry_1
_geom_bond_site_symmetry_2
N1 C1 1_555 1_555
C1 C2 1_555 1_555
C2 C3 1_555 1_555
C3 C4 1_555 1_555
C4 C5 1_555 1_555
C5 N1 1_555 1_555
N2 C5 1_555 1_555
C6 N2 1_555 1_555
C7 C6 1_555 1_555
C8 C7 1_555 1_555
C9 C8 1_555 1_555
C10 C9 1_555 1_555
F1 C10 1_555 1_555
C11 C10 1_555 1_555
C12 C7 1_555 1_555
C13 N2 1_555 1_555
C14 C13 1_555 1_555
C15 C14 1_555 1_555
N3 C15 1_555 1_555
C16 N3 1_555 1_555
N4 C16 1_555 1_555
S1 N4 1_555 1_555
O1 S1 1_555 1_555
N5 S1 1_555 1_555
C17 C16 1_555 1_555
N6 C17 1_555 1_555
C18 N6 1_555 1_555
C19 C18 1_555 1_555
H1 C1 1_555 1_555
H2 C2 1_555 1_555
H3 C3 1_555 1_555
H4 C4 1_555 1_555
H5 C6 1_555 1_555
H6 C6 1_555 1_555
H7 C8 1_555 1_555
H8 C9 1_555 1_555
H9 C11 1_555 1_555
H10 C12 1_555 1_555
H11 C13 1_555 1_555
H12 C13 1_555 1_555
H13 C14 1_555 1_555
H14 C14 1_555 1_555
H15 C15 1_555 1_555
H16 C15 1_555 1_555
H17 N3 1_555 1_555
H18 N6 1_555 1_555
H19 C18 1_555 1_555
H20 C18 1_555 1_555
H21 C19 1_555 1_555
H22 C19 1_555 1_555
H23 C19 1_555 1_555
C11 C12 1_555 1_555
N5 C17 1_555 1_555

#END
