
#######################################################################
#
#                 Cambridge Crystallographic Data Centre
#                                CCDC 
#
#######################################################################
#
# If this CIF has been generated from an entry in the Cambridge 
# Structural Database, then it will include bibliographic, chemical, 
# crystal, experimental, refinement or atomic coordinate data resulting 
# from the CCDC's data processing and validation procedures.
#
#######################################################################

data_LEJMES
_chemical_formula_moiety         
'0.5(C20 H22 N4 O1),0.5(C20 H22 N4 O1),2(H2 O1)'
_chemical_name_systematic        
'2-(4-Phenylbutylamino)-5-(3-pyridylmethyl)-4-pyrimidone dihydrate'
_chemical_properties_biological  
'specific histamine H1 and H2 antagonist activity'
_symmetry_cell_setting           monoclinic
_symmetry_space_group_name_H-M   'P 21/c'
_symmetry_Int_Tables_number      14
_space_group_name_Hall           '-P 2ybc'
loop_
_symmetry_equiv_pos_site_id
_symmetry_equiv_pos_as_xyz
1 x,y,z
2 -x,1/2+y,1/2-z
3 -x,-y,-z
4 x,1/2-y,1/2+z
_cell_length_a                   8.040(4)
_cell_length_b                   21.279(4)
_cell_length_c                   11.404(2)
_cell_angle_alpha                90
_cell_angle_beta                 92.08(5)
_cell_angle_gamma                90
_cell_volume                     1949.75
_cell_formula_units_Z            4
loop_
_atom_site_label
_atom_site_type_symbol
_atom_site_fract_x
_atom_site_fract_y
_atom_site_fract_z
O2 O 0.5619(4) 0.0852(1) 0.5196(3)
H3 H 0.5070(68) 0.0689(27) 0.4407(46)
H4 H 0.6015(85) 0.1359(30) 0.4947(59)
C1 C 0.7729(4) -0.2738(2) 0.2821(3)
C2 C 0.8007(4) -0.3374(2) 0.2673(3)
C3 C 0.8807(4) -0.3713(2) 0.3534(3)
C4 C 0.9316(4) -0.3424(2) 0.4561(3)
C5 C 0.9050(4) -0.2790(2) 0.4716(3)
C6 C 0.8246(4) -0.2436(1) 0.3841(3)
C7 C 0.7977(4) -0.1743(2) 0.4003(4)
C8 C 0.9537(4) -0.1357(1) 0.3751(3)
C9 C 0.9407(4) -0.0670(2) 0.4088(3)
C10 C 0.8132(4) -0.0283(1) 0.3393(3)
N1 N 0.8587(3) -0.0221(1) 0.2171(2)
C11 C 0.7724(3) 0.0117(1) 0.1387(3)
N2 N 0.8336(3) 0.0191(1) 0.0312(2)
C12 C 0.7522(3) 0.0540(1) -0.0543(3)
O3 O 0.8125(2) 0.0587(1) -0.1530(2)
C13 C 0.5989(3) 0.0845(1) -0.0232(3)
C14 C 0.5462(4) 0.0737(1) 0.0850(3)
N3 N 0.6273(3) 0.0378(1) 0.1677(2)
C15 C 0.5072(3) 0.1252(1) -0.1119(3)
C16 C 0.5898(3) 0.1880(1) -0.1316(3)
C17 C 0.6795(4) 0.2005(2) -0.2296(3)
C18 C 0.7486(4) 0.2589(2) -0.2444(3)
C19 C 0.7263(5) 0.3035(2) -0.1610(3)
N4 N 0.6399(4) 0.2934(1) -0.0645(3)
C20 C 0.5757(4) 0.2366(2) -0.0525(3)
H5 H 0.7150(4) -0.2492(2) 0.2179(3)
H6 H 0.7619(4) -0.3587(2) 0.1930(3)
H7 H 0.9022(4) -0.4172(2) 0.3420(3)
H8 H 0.9879(4) -0.3675(2) 0.5201(3)
H9 H 0.9438(4) -0.2581(2) 0.5462(3)
H10 H 0.7666(4) -0.1667(2) 0.4832(4)
H11 H 0.7048(4) -0.1603(2) 0.3457(4)
H12 H 1.0505(4) -0.1544(1) 0.4202(3)
H13 H 0.9737(4) -0.1381(1) 0.2892(3)
H14 H 1.0523(4) -0.0473(2) 0.3989(3)
H15 H 0.9116(4) -0.0650(2) 0.4932(3)
H16 H 0.8068(4) 0.0145(1) 0.3748(3)
H17 H 0.7021(4) -0.0493(1) 0.3424(3)
H18 H 0.9545(35) -0.0362(14) 0.1996(24)
H19 H 0.9328(67) -0.0014(32) 0.0167(61)
H20 H 0.4383(4) 0.0932(1) 0.1064(3)
H21 H 0.5771(52) 0.0245(20) 0.2367(36)
H22 H 0.3920(3) 0.1327(1) -0.0847(3)
H23 H 0.5012(3) 0.1021(1) -0.1883(3)
H24 H 0.6939(4) 0.1671(2) -0.2900(3)
H25 H 0.8140(4) 0.2682(2) -0.3153(3)
H26 H 0.7769(5) 0.3458(2) -0.1728(3)
H27 H 0.5130(4) 0.2280(2) 0.0199(3)
O1 O 0.3803(4) 0.0150(2) 0.3328(3)
H1 H 0.3624(95) -0.0265(34) 0.3847(61)
H2 H 0.4066(34) 0.0386(12) 0.3668(23)
loop_
_geom_bond_atom_site_label_1
_geom_bond_atom_site_label_2
_geom_bond_site_symmetry_1
_geom_bond_site_symmetry_2
O1 H1 1_555 1_555
H2 O1 1_555 1_555
O2 H3 1_555 1_555
H4 O2 1_555 1_555
C1 C2 1_555 1_555
C2 C3 1_555 1_555
C3 C4 1_555 1_555
C4 C5 1_555 1_555
C5 C6 1_555 1_555
C6 C1 1_555 1_555
C7 C6 1_555 1_555
C8 C7 1_555 1_555
C9 C8 1_555 1_555
C10 C9 1_555 1_555
N1 C10 1_555 1_555
C11 N1 1_555 1_555
N2 C11 1_555 1_555
C12 N2 1_555 1_555
O3 C12 1_555 1_555
C13 C12 1_555 1_555
C14 C13 1_555 1_555
N3 C11 1_555 1_555
C15 C13 1_555 1_555
C16 C15 1_555 1_555
C17 C16 1_555 1_555
C18 C17 1_555 1_555
C19 C18 1_555 1_555
N4 C19 1_555 1_555
C20 C16 1_555 1_555
H5 C1 1_555 1_555
H6 C2 1_555 1_555
H7 C3 1_555 1_555
H8 C4 1_555 1_555
H9 C5 1_555 1_555
H10 C7 1_555 1_555
H11 C7 1_555 1_555
H12 C8 1_555 1_555
H13 C8 1_555 1_555
H14 C9 1_555 1_555
H15 C9 1_555 1_555
H16 C10 1_555 1_555
H17 C10 1_555 1_555
H18 N1 1_555 1_555
H19 N2 1_555 1_555
H20 C14 1_555 1_555
H21 N3 1_555 1_555
H22 C15 1_555 1_555
H23 C15 1_555 1_555
H24 C17 1_555 1_555
H25 C18 1_555 1_555
H26 C19 1_555 1_555
H27 C20 1_555 1_555
C14 N3 1_555 1_555
N4 C20 1_555 1_555

#END
