
#######################################################################
#
#                 Cambridge Crystallographic Data Centre
#                                CCDC 
#
#######################################################################
#
# If this CIF has been generated from an entry in the Cambridge 
# Structural Database, then it will include bibliographic, chemical, 
# crystal, experimental, refinement or atomic coordinate data resulting 
# from the CCDC's data processing and validation procedures.
#
#######################################################################

data_LEJQEX
_chemical_formula_moiety         'C22 H32 Br2 Mg2 N2 O3,0.5(C4 H8 O1)'
_chemical_name_systematic        
'bis(\m~2~-pyridyl-C^2^,N)-(\m~2~-tetrahydrofuran-O,O)-dibromo-bis(tetrahydrofuran-O)-di-magnesium(ii) tetrahydrofuran solvate'
_symmetry_cell_setting           tetragonal
_symmetry_space_group_name_H-M   'P 4/n c c'
_symmetry_Int_Tables_number      130
_space_group_name_Hall           '-P 4a 2ac'
loop_
_symmetry_equiv_pos_site_id
_symmetry_equiv_pos_as_xyz
1 x,y,z
2 1/2-y,x,z
3 y,1/2-x,z
4 1/2+y,1/2+x,1/2-z
5 1/2-x,1/2-y,z
6 -x,1/2+y,1/2-z
7 1/2+x,-y,1/2-z
8 -y,-x,1/2-z
9 -x,-y,-z
10 1/2+y,-x,-z
11 -y,1/2+x,-z
12 1/2-y,1/2-x,1/2+z
13 1/2+x,1/2+y,-z
14 x,1/2-y,1/2+z
15 1/2-x,y,1/2+z
16 y,x,1/2+z
_cell_length_a                   17.3368(3)
_cell_length_b                   17.3368(3)
_cell_length_c                   18.8696(4)
_cell_angle_alpha                90
_cell_angle_beta                 90
_cell_angle_gamma                90
_cell_volume                     5671.53
_exptl_crystal_colour            colorless
_exptl_crystal_description       block
_cell_formula_units_Z            8
_chemical_properties_physical    air-sensitive
loop_
_atom_site_label
_atom_site_type_symbol
_atom_site_fract_x
_atom_site_fract_y
_atom_site_fract_z
Br1 Br 0.00140(2) 0.130532(18) 0.410058(15)
Mg1 Mg 0.03748(6) 0.02350(5) 0.32866(5)
N1 N -0.02342(14) -0.08313(15) 0.32806(14)
C1 C 0.11090(15) 0.04365(15) 0.23880(14)
C2 C -0.0382(2) -0.1275(2) 0.38650(18)
H1 H -0.0231 -0.1082 0.4315
C3 C -0.0731(2) -0.1975(2) 0.3840(2)
H2 H -0.0842 -0.2252 0.4262
C4 C -0.0918(2) -0.22714(19) 0.3187(2)
H3 H -0.1148 -0.2767 0.3148
C5 C 0.18353(18) 0.07646(19) 0.2414(2)
H4 H 0.2046 0.0891 0.2864
O1 O 0.12524(11) -0.01943(12) 0.39346(11)
C6 C 0.17086(19) -0.08419(19) 0.36970(18)
H5 H 0.2209 -0.0667 0.3502
H6 H 0.1431 -0.1139 0.3328
C7 C 0.1827(2) -0.1326(2) 0.4360(2)
H7 H 0.1386 -0.1679 0.4439
H8 H 0.2308 -0.1633 0.4328
C8 C 0.18817(19) -0.0729(2) 0.49443(18)
H9 H 0.1694 -0.0941 0.5400
H10 H 0.2420 -0.0551 0.5006
C9 C 0.1372(2) -0.0084(2) 0.46924(17)
H11 H 0.0873 -0.0096 0.4946
H12 H 0.1622 0.0420 0.4782
O2 O -0.06215(10) 0.06215(10) 0.2500
C10 C -0.14031(16) 0.05431(17) 0.27933(16)
H13 H -0.1384 0.0318 0.3275
H14 H -0.1722 0.0206 0.2488
C11 C -0.17336(18) 0.13479(18) 0.28166(16)
H15 H -0.1598 0.1612 0.3265
H16 H -0.2302 0.1340 0.2763
Br1G Br -0.130532(18) -0.00140(2) 0.089942(15)
Mg1G Mg -0.02350(5) -0.03748(6) 0.17134(5)
N1G N 0.08313(15) 0.02342(14) 0.17194(14)
C1G C -0.04365(15) -0.11090(15) 0.26120(14)
C2G C 0.1275(2) 0.0382(2) 0.11350(18)
H1G H 0.1082 0.0231 0.0685
C3G C 0.1975(2) 0.0731(2) 0.1160(2)
H2G H 0.2252 0.0842 0.0738
C4G C 0.22714(19) 0.0918(2) 0.1813(2)
H3G H 0.2767 0.1148 0.1852
C5G C -0.07646(19) -0.18353(18) 0.2586(2)
H4G H -0.0891 -0.2046 0.2136
O1G O 0.01943(12) -0.12524(11) 0.10654(11)
C6G C 0.08419(19) -0.17086(19) 0.13030(18)
H5G H 0.0667 -0.2209 0.1498
H6G H 0.1139 -0.1431 0.1672
C7G C 0.1326(2) -0.1827(2) 0.0640(2)
H7G H 0.1679 -0.1386 0.0561
H8G H 0.1633 -0.2308 0.0672
C8G C 0.0729(2) -0.18817(19) 0.00557(18)
H9G H 0.0941 -0.1694 -0.0400
H10G H 0.0551 -0.2420 -0.0006
C9G C 0.0084(2) -0.1372(2) 0.03076(17)
H11G H 0.0096 -0.0873 0.0054
H12G H -0.0420 -0.1622 0.0218
C10G C -0.05431(17) 0.14031(16) 0.22067(16)
H13G H -0.0318 0.1384 0.1725
H14G H -0.0206 0.1722 0.2512
C11G C -0.13479(18) 0.17336(18) 0.21834(16)
H15G H -0.1612 0.1598 0.1735
H16G H -0.1340 0.2302 0.2237
C12? C 0.7304(14) 0.751(2) -0.0028(6)
H17? H 0.6801 0.7243 -0.0069
H18? H 0.7420 0.7770 -0.0483
C13? C 0.7638(17) 0.7662(10) 0.1203(6)
H19? H 0.8090 0.7944 0.1392
H20? H 0.7251 0.7604 0.1585
C14? C 0.7875(12) 0.6884(11) 0.0919(8)
H21? H 0.8383 0.6732 0.1113
H22? H 0.7491 0.6487 0.1050
C15? C 0.7297(18) 0.8081(12) 0.0576(10)
H23? H 0.7609 0.8541 0.0457
H24? H 0.6763 0.8248 0.0681
O3? O 0.7917(7) 0.6964(7) 0.0158(5)
loop_
_geom_bond_atom_site_label_1
_geom_bond_atom_site_label_2
_geom_bond_site_symmetry_1
_geom_bond_site_symmetry_2
Br1 Mg1 1_555 1_555
Mg1 N1 1_555 1_555
N1 C2 1_555 1_555
C1 Mg1 1_555 1_555
C2 H1 1_555 1_555
C3 C2 1_555 1_555
H2 C3 1_555 1_555
C4 C3 1_555 1_555
H3 C4 1_555 1_555
C5 C1 1_555 1_555
H4 C5 1_555 1_555
O1 Mg1 1_555 1_555
C6 O1 1_555 1_555
H5 C6 1_555 1_555
H6 C6 1_555 1_555
C7 C6 1_555 1_555
H7 C7 1_555 1_555
H8 C7 1_555 1_555
C8 C7 1_555 1_555
H9 C8 1_555 1_555
H10 C8 1_555 1_555
C9 O1 1_555 1_555
H11 C9 1_555 1_555
H12 C9 1_555 1_555
O2 Mg1 1_555 1_555
C10 O2 1_555 1_555
H13 C10 1_555 1_555
H14 C10 1_555 1_555
C11 C10 1_555 1_555
H15 C11 1_555 1_555
H16 C11 1_555 1_555
Br1G Mg1G 1_555 1_555
Mg1G O2 1_555 1_555
N1G C1 1_555 1_555
C1G N1 1_555 1_555
C2G N1G 1_555 1_555
H1G C2G 1_555 1_555
C3G C2G 1_555 1_555
H2G C3G 1_555 1_555
C4G C5 1_555 1_555
H3G C4G 1_555 1_555
C5G C4 1_555 1_555
H4G C5G 1_555 1_555
O1G Mg1G 1_555 1_555
C6G O1G 1_555 1_555
H5G C6G 1_555 1_555
H6G C6G 1_555 1_555
C7G C6G 1_555 1_555
H7G C7G 1_555 1_555
H8G C7G 1_555 1_555
C8G C7G 1_555 1_555
H9G C8G 1_555 1_555
H10G C8G 1_555 1_555
C9G O1G 1_555 1_555
H11G C9G 1_555 1_555
H12G C9G 1_555 1_555
C10G O2 1_555 1_555
H13G C10G 1_555 1_555
H14G C10G 1_555 1_555
C11G C11 1_555 1_555
H15G C11G 1_555 1_555
H16G C11G 1_555 1_555
C8 C9 1_555 1_555
Mg1G N1G 1_555 1_555
Mg1G C1G 1_555 1_555
C1G C5G 1_555 1_555
C3G C4G 1_555 1_555
C8G C9G 1_555 1_555
C10G C11G 1_555 1_555

#END
