
#######################################################################
#
#                 Cambridge Crystallographic Data Centre
#                                CCDC 
#
#######################################################################
#
# If this CIF has been generated from an entry in the Cambridge 
# Structural Database, then it will include bibliographic, chemical, 
# crystal, experimental, refinement or atomic coordinate data resulting 
# from the CCDC's data processing and validation procedures.
#
#######################################################################

data_LEJREZ
_chemical_formula_moiety         'C27 H19 F3 N2 O5 S1,0.25(C6 H14)'
_chemical_name_systematic        
'(R)-(E)-4-(3-Formyl-4-hydroxy-4-(3-methoxystyryl)-1-(trifluoromethylsulfonyl)-1,4-dihydroquinolin-2-yl)benzonitrile n-hexane solvate'
_symmetry_cell_setting           tetragonal
_symmetry_space_group_name_H-M   'P 43'
_symmetry_Int_Tables_number      78
_space_group_name_Hall           'P 4cw'
loop_
_symmetry_equiv_pos_site_id
_symmetry_equiv_pos_as_xyz
1 x,y,z
2 -x,-y,1/2+z
3 -y,x,3/4+z
4 y,-x,1/4+z
_cell_length_a                   16.2484(2)
_cell_length_b                   16.2484(2)
_cell_length_c                   9.8784(2)
_cell_angle_alpha                90
_cell_angle_beta                 90
_cell_angle_gamma                90
_cell_volume                     2608
_exptl_crystal_colour            colorless
_exptl_crystal_description       cut
_cell_formula_units_Z            4
loop_
_atom_site_label
_atom_site_type_symbol
_atom_site_fract_x
_atom_site_fract_y
_atom_site_fract_z
S1 S 0.77315(2) 0.51998(2) 0.14700(5)
N1 N 0.78868(8) 0.46792(8) 0.28745(15)
N2 N 0.7676(2) 0.07639(18) -0.1139(3)
O1 O 0.83434(9) 0.49875(9) 0.05044(15)
O2 O 0.75163(9) 0.60238(8) 0.17862(18)
O3 O 1.05681(8) 0.37933(8) 0.40539(16)
O4 O 0.97606(8) 0.49236(8) 0.56544(13)
H1 H 1.0215 0.4712 0.5445
O5 O 1.18159(10) 0.74347(11) 0.0739(2)
C1 C 0.67763(14) 0.47695(15) 0.0764(3)
F1 F 0.65996(10) 0.51646(10) -0.03589(18)
F2 F 0.68448(14) 0.39944(10) 0.0493(3)
F3 F 0.61514(11) 0.48859(17) 0.1606(2)
C2 C 0.85427(9) 0.40760(9) 0.28671(16)
C3 C 0.91941(10) 0.42158(9) 0.36718(16)
C4 C 0.92720(9) 0.50245(10) 0.44671(16)
C5 C 0.84218(10) 0.52644(10) 0.49554(17)
C6 C 0.82882(12) 0.56151(12) 0.6222(2)
H2 H 0.8743 0.5735 0.6794
C7 C 0.74943(14) 0.57905(15) 0.6655(3)
H3 H 0.7409 0.6041 0.7513
C8 C 0.68266(14) 0.56032(16) 0.5843(3)
H4 H 0.6285 0.5726 0.6147
C9 C 0.69424(12) 0.52374(13) 0.4590(3)
H5 H 0.6485 0.5094 0.4040
C10 C 0.77430(10) 0.50848(10) 0.41515(19)
C11 C 0.83956(10) 0.33359(9) 0.20240(17)
C12 C 0.77078(11) 0.28455(11) 0.23183(19)
H6 H 0.7358 0.2985 0.3054
C13 C 0.75391(12) 0.21604(11) 0.1540(2)
H7 H 0.7076 0.1824 0.1739
C14 C 0.80551(13) 0.19682(12) 0.0460(2)
C15 C 0.87564(13) 0.24366(12) 0.0189(2)
H8 H 0.9117 0.2286 -0.0526
C16 C 0.89221(11) 0.31261(11) 0.09768(19)
H9 H 0.9395 0.3452 0.0797
C17 C 0.78525(18) 0.12856(16) -0.0414(3)
C18 C 0.98813(11) 0.36183(11) 0.36766(18)
H10 H 0.9779 0.3074 0.3370
C19 C 0.96773(10) 0.56468(10) 0.35447(17)
H11 H 1.0198 0.5500 0.3180
C20 C 0.93817(10) 0.63776(10) 0.31907(18)
H12 H 0.8862 0.6533 0.3548
C21 C 0.97984(11) 0.69648(10) 0.22858(18)
C22 C 1.06381(11) 0.68940(11) 0.1976(2)
H13 H 1.0957 0.6465 0.2366
C23 C 1.10019(12) 0.74527(12) 0.1098(2)
C24 C 1.05355(16) 0.80745(14) 0.0503(3)
H14 H 1.0786 0.8450 -0.0108
C25 C 0.97055(15) 0.81428(14) 0.0805(3)
H15 H 0.9386 0.8565 0.0396
C26 C 0.93376(13) 0.75956(11) 0.1704(2)
H16 H 0.8771 0.7652 0.1923
C27 C 1.23464(14) 0.68879(18) 0.1468(3)
H17 H 1.2302 0.6999 0.2440
H18 H 1.2916 0.6973 0.1175
H19 H 1.2184 0.6317 0.1287
C28? C 0.9728 0.0314 1.0118
H20? H 0.9779 0.0885 1.0357
H21? H 0.9223 0.0100 1.0477
H22? H 1.0184 0.0012 1.0489
C29? C 0.9727 0.0246 0.8898
H23? H 0.9897 -0.0301 0.8655
H24? H 1.0238 0.0555 0.8698
H25? H 0.9283 0.0642 0.8686
H26? H 0.9277 -0.0068 1.0360
H27? H 0.9482 0.0868 1.0218
H28? H 0.9183 0.0346 0.8559
H29? H 1.0102 0.0638 0.8513
loop_
_geom_bond_atom_site_label_1
_geom_bond_atom_site_label_2
_geom_bond_site_symmetry_1
_geom_bond_site_symmetry_2
S1 N1 1_555 1_555
N1 C2 1_555 1_555
N2 C17 1_555 1_555
O1 S1 1_555 1_555
O2 S1 1_555 1_555
O3 C18 1_555 1_555
O4 H1 1_555 1_555
O5 C23 1_555 1_555
C1 S1 1_555 1_555
F1 C1 1_555 1_555
F2 C1 1_555 1_555
F3 C1 1_555 1_555
C2 C3 1_555 1_555
C3 C4 1_555 1_555
C4 O4 1_555 1_555
C5 C4 1_555 1_555
C6 C5 1_555 1_555
H2 C6 1_555 1_555
C7 C6 1_555 1_555
H3 C7 1_555 1_555
C8 C7 1_555 1_555
H4 C8 1_555 1_555
C9 C8 1_555 1_555
H5 C9 1_555 1_555
C10 N1 1_555 1_555
C11 C2 1_555 1_555
C12 C11 1_555 1_555
H6 C12 1_555 1_555
C13 C12 1_555 1_555
H7 C13 1_555 1_555
C14 C13 1_555 1_555
C15 C14 1_555 1_555
H8 C15 1_555 1_555
C16 C11 1_555 1_555
H9 C16 1_555 1_555
C17 C14 1_555 1_555
C18 C3 1_555 1_555
H10 C18 1_555 1_555
C19 C4 1_555 1_555
H11 C19 1_555 1_555
C20 C19 1_555 1_555
H12 C20 1_555 1_555
C21 C20 1_555 1_555
C22 C21 1_555 1_555
H13 C22 1_555 1_555
C23 C22 1_555 1_555
C24 C23 1_555 1_555
H14 C24 1_555 1_555
C25 C24 1_555 1_555
H15 C25 1_555 1_555
C26 C21 1_555 1_555
H16 C26 1_555 1_555
C27 O5 1_555 1_555
H17 C27 1_555 1_555
H18 C27 1_555 1_555
H19 C27 1_555 1_555
C5 C10 1_555 1_555
C9 C10 1_555 1_555
C15 C16 1_555 1_555
C25 C26 1_555 1_555

#END
