
#######################################################################
#
#                 Cambridge Crystallographic Data Centre
#                                CCDC 
#
#######################################################################
#
# If this CIF has been generated from an entry in the Cambridge 
# Structural Database, then it will include bibliographic, chemical, 
# crystal, experimental, refinement or atomic coordinate data resulting 
# from the CCDC's data processing and validation procedures.
#
#######################################################################

data_LEJSOL
_chemical_formula_moiety         'C22 H18 Br1 N1 O4 S1,0.75(C6 H14)'
_chemical_name_systematic        
"N-(4'-bromo-4-oxo[1,1'-biphenyl]-1(4H)-yl)-N-[(4-methylphenyl)sulfonyl]prop-2-enamide hexane solvate"
_symmetry_cell_setting           triclinic
_symmetry_space_group_name_H-M   'P -1'
_symmetry_Int_Tables_number      2
_space_group_name_Hall           '-P 1'
loop_
_symmetry_equiv_pos_site_id
_symmetry_equiv_pos_as_xyz
1 x,y,z
2 -x,-y,-z
_cell_length_a                   8.2619(7)
_cell_length_b                   12.0578(12)
_cell_length_c                   12.2736(10)
_cell_angle_alpha                86.934(5)
_cell_angle_beta                 75.930(5)
_cell_angle_gamma                83.499(6)
_cell_volume                     1177.96
_exptl_crystal_colour            colorless
_exptl_crystal_description       Prism
_cell_formula_units_Z            2
loop_
_atom_site_label
_atom_site_type_symbol
_atom_site_fract_x
_atom_site_fract_y
_atom_site_fract_z
Br1 Br -0.34391(4) 0.95395(2) 0.85745(3)
S1 S 0.23053(8) 0.36172(5) 0.61577(5)
O1 O -0.3815(2) 0.22409(16) 0.86346(18)
O2 O 0.2029(2) 0.54425(16) 0.85410(15)
O3 O 0.1440(2) 0.36769(15) 0.52727(14)
O4 O 0.4066(2) 0.37312(15) 0.58808(15)
N1 N 0.1414(2) 0.46276(16) 0.70650(16)
C1 C -0.0753(3) 0.6665(2) 0.7113(2)
H1 H -0.0031 0.6469 0.6407
C2 C -0.1453(3) 0.7765(2) 0.7291(2)
H2 H -0.1212 0.8321 0.6713
C3 C -0.2508(3) 0.8036(2) 0.8327(2)
C4 C -0.2886(3) 0.7235(2) 0.9182(2)
H3 H -0.3618 0.7435 0.9884
C5 C -0.2179(3) 0.6137(2) 0.8996(2)
H4 H -0.2432 0.5583 0.9574
C6 C -0.1101(3) 0.58462(19) 0.79633(19)
C7 C -0.0409(3) 0.46192(19) 0.77047(19)
C8 C -0.1461(3) 0.4291(2) 0.6948(2)
H5 H -0.1319 0.4626 0.6217
C9 C -0.2582(3) 0.3548(2) 0.7263(2)
H6 H -0.3282 0.3428 0.6780
C10 C -0.2769(3) 0.2912(2) 0.8338(2)
C11 C -0.1648(3) 0.3133(2) 0.9048(2)
H7 H -0.1700 0.2717 0.9733
C12 C -0.0561(3) 0.3897(2) 0.87621(19)
H8 H 0.0150 0.3992 0.9246
C13 C 0.2428(3) 0.5270(2) 0.7547(2)
C14 C 0.3809(3) 0.5791(2) 0.6752(2)
H9 H 0.3950 0.5735 0.5965
C15 C 0.4839(4) 0.6333(3) 0.7144(3)
H10 H 0.4696 0.6388 0.7931
H11 H 0.5724 0.6667 0.6638
C16 C 0.1970(3) 0.2357(2) 0.6924(2)
C17 C 0.2821(3) 0.2091(2) 0.7766(2)
H12 H 0.3533 0.2591 0.7932
C18 C 0.2615(4) 0.1089(2) 0.8356(2)
H13 H 0.3184 0.0906 0.8938
C19 C 0.1586(4) 0.0339(2) 0.8115(2)
C20 C 0.0744(4) 0.0630(2) 0.7267(2)
H14 H 0.0032 0.0132 0.7097
C21 C 0.0933(3) 0.1638(2) 0.6666(2)
H15 H 0.0358 0.1829 0.6089
C22 C 0.1422(4) -0.0764(2) 0.8746(3)
H16 H 0.1868 -0.1373 0.8223
H17 H 0.0236 -0.0832 0.9095
H18 H 0.2054 -0.0804 0.9329
C23? C 0.2415(17) 0.0219(11) 0.4336(12)
C24? C 0.369(2) -0.0420(13) 0.4822(16)
C25? C 0.523(3) -0.0003(18) 0.502(3)
C26? C 0.559(2) 0.1174(15) 0.465(2)
C27? C 0.720(3) 0.1590(19) 0.4716(18)
C28? C 0.815(4) 0.216(3) 0.360(2)
C29? C 0.1706(12) 0.0036(8) 0.4384(9)
C30? C 0.2928(11) -0.0693(7) 0.4784(8)
C31? C 0.4474(11) -0.0241(6) 0.4908(9)
C32? C 0.4882(13) 0.0912(7) 0.4419(9)
C33? C 0.6266(15) 0.1216(9) 0.4983(10)
C34? C 0.7551(18) 0.1862(15) 0.4657(15)
loop_
_geom_bond_atom_site_label_1
_geom_bond_atom_site_label_2
_geom_bond_site_symmetry_1
_geom_bond_site_symmetry_2
Br1 C3 1_555 1_555
S1 O3 1_555 1_555
O1 C10 1_555 1_555
O2 C13 1_555 1_555
O4 S1 1_555 1_555
N1 S1 1_555 1_555
C1 H1 1_555 1_555
C2 C1 1_555 1_555
H2 C2 1_555 1_555
C3 C2 1_555 1_555
C4 C3 1_555 1_555
H3 C4 1_555 1_555
C5 C4 1_555 1_555
H4 C5 1_555 1_555
C6 C1 1_555 1_555
C7 N1 1_555 1_555
C8 C7 1_555 1_555
H5 C8 1_555 1_555
C9 C8 1_555 1_555
H6 C9 1_555 1_555
C10 C9 1_555 1_555
C11 C10 1_555 1_555
H7 C11 1_555 1_555
C12 C7 1_555 1_555
H8 C12 1_555 1_555
C13 N1 1_555 1_555
C14 C13 1_555 1_555
H9 C14 1_555 1_555
C15 C14 1_555 1_555
H10 C15 1_555 1_555
H11 C15 1_555 1_555
C16 S1 1_555 1_555
C17 C16 1_555 1_555
H12 C17 1_555 1_555
C18 C17 1_555 1_555
H13 C18 1_555 1_555
C19 C18 1_555 1_555
C20 C19 1_555 1_555
H14 C20 1_555 1_555
C21 C16 1_555 1_555
H15 C21 1_555 1_555
C22 C19 1_555 1_555
H16 C22 1_555 1_555
H17 C22 1_555 1_555
H18 C22 1_555 1_555
C5 C6 1_555 1_555
C6 C7 1_555 1_555
C11 C12 1_555 1_555
C20 C21 1_555 1_555

#END
