
#######################################################################
#
#                 Cambridge Crystallographic Data Centre
#                                CCDC 
#
#######################################################################
#
# If this CIF has been generated from an entry in the Cambridge 
# Structural Database, then it will include bibliographic, chemical, 
# crystal, experimental, refinement or atomic coordinate data resulting 
# from the CCDC's data processing and validation procedures.
#
#######################################################################

data_LEJZUY
_chemical_formula_moiety         'C19 H18 O1'
_chemical_name_systematic        
(1S,2'S)-2'-phenyl-2',3'-dihydro-2H-spiro[cyclopentane-1,1'-inden]-2-one
_symmetry_cell_setting           orthorhombic
_symmetry_space_group_name_H-M   'P 21 21 21'
_symmetry_Int_Tables_number      19
_space_group_name_Hall           'P 2ac 2ab'
loop_
_symmetry_equiv_pos_site_id
_symmetry_equiv_pos_as_xyz
1 x,y,z
2 1/2-x,-y,1/2+z
3 -x,1/2+y,1/2-z
4 1/2+x,1/2-y,-z
_cell_length_a                   6.87534(8)
_cell_length_b                   8.44204(8)
_cell_length_c                   24.1015(2)
_cell_angle_alpha                90
_cell_angle_beta                 90
_cell_angle_gamma                90
_cell_volume                     1398.9
_exptl_crystal_colour            colorless
_exptl_crystal_description       prism
_cell_formula_units_Z            4
loop_
_atom_site_label
_atom_site_type_symbol
_atom_site_fract_x
_atom_site_fract_y
_atom_site_fract_z
O1 O 0.93696(11) 0.42048(9) 0.50004(3)
C1 C 0.76225(15) 0.63823(12) 0.40811(4)
H1 H 0.7688(19) 0.7068(16) 0.4417(6)
C2 C 0.96800(16) 0.61482(13) 0.38280(5)
H2 H 0.995(2) 0.6949(17) 0.3537(6)
H3 H 1.069(2) 0.6251(16) 0.4120(5)
C3 C 0.96341(15) 0.44730(12) 0.36096(4)
C4 C 1.08091(17) 0.37645(15) 0.32120(4)
H4 H 1.181(2) 0.4338(16) 0.3030(6)
C5 C 1.04441(19) 0.21970(15) 0.30629(5)
H5 H 1.127(2) 0.1687(19) 0.2776(6)
C6 C 0.89538(19) 0.13514(14) 0.33124(4)
H6 H 0.872(2) 0.025(2) 0.3193(7)
C7 C 0.77717(17) 0.20580(12) 0.37121(4)
H7 H 0.670(2) 0.1464(17) 0.3887(6)
C8 C 0.81193(15) 0.36296(12) 0.38538(4)
C9 C 0.70019(14) 0.46440(12) 0.42580(4)
C10 C 0.77055(16) 0.44587(12) 0.48611(4)
C11 C 0.59890(17) 0.46675(16) 0.52482(5)
H8 H 0.630(2) 0.5469(18) 0.5537(6)
H9 H 0.582(2) 0.3662(19) 0.5433(6)
C12 C 0.42771(17) 0.51175(15) 0.48739(5)
H10 H 0.422(2) 0.6325(17) 0.4835(6)
H11 H 0.302(2) 0.4731(18) 0.5012(6)
C13 C 0.48086(15) 0.43735(13) 0.43126(4)
H12 H 0.4556(18) 0.3222(15) 0.4331(5)
H13 H 0.405(2) 0.4819(16) 0.4005(5)
C14 C 0.62016(15) 0.71199(12) 0.36778(4)
C15 C 0.50920(16) 0.84242(12) 0.38361(4)
H14 H 0.529(2) 0.8881(16) 0.4213(6)
C16 C 0.37490(17) 0.90967(12) 0.34734(5)
H15 H 0.301(2) 1.0030(18) 0.3578(6)
C17 C 0.34784(17) 0.84577(14) 0.29487(5)
H16 H 0.247(2) 0.8876(17) 0.2706(6)
C18 C 0.45866(18) 0.71692(14) 0.27838(4)
H17 H 0.444(2) 0.6691(17) 0.2409(6)
C19 C 0.59358(17) 0.65096(13) 0.31438(4)
H18 H 0.674(2) 0.5610(16) 0.3025(6)
loop_
_geom_bond_atom_site_label_1
_geom_bond_atom_site_label_2
_geom_bond_site_symmetry_1
_geom_bond_site_symmetry_2
O1 C10 1_555 1_555
C1 H1 1_555 1_555
C2 C1 1_555 1_555
H2 C2 1_555 1_555
H3 C2 1_555 1_555
C3 C2 1_555 1_555
C4 C3 1_555 1_555
H4 C4 1_555 1_555
C5 C4 1_555 1_555
H5 C5 1_555 1_555
C6 C5 1_555 1_555
H6 C6 1_555 1_555
C7 C6 1_555 1_555
H7 C7 1_555 1_555
C8 C3 1_555 1_555
C9 C1 1_555 1_555
C10 C9 1_555 1_555
C11 C10 1_555 1_555
H8 C11 1_555 1_555
H9 C11 1_555 1_555
C12 C11 1_555 1_555
H10 C12 1_555 1_555
H11 C12 1_555 1_555
C13 C9 1_555 1_555
H12 C13 1_555 1_555
H13 C13 1_555 1_555
C14 C1 1_555 1_555
C15 C14 1_555 1_555
H14 C15 1_555 1_555
C16 C15 1_555 1_555
H15 C16 1_555 1_555
C17 C16 1_555 1_555
H16 C17 1_555 1_555
C18 C17 1_555 1_555
H17 C18 1_555 1_555
C19 C14 1_555 1_555
H18 C19 1_555 1_555
C7 C8 1_555 1_555
C8 C9 1_555 1_555
C12 C13 1_555 1_555
C18 C19 1_555 1_555

#END
