
#######################################################################
#
#                 Cambridge Crystallographic Data Centre
#                                CCDC 
#
#######################################################################
#
# If this CIF has been generated from an entry in the Cambridge 
# Structural Database, then it will include bibliographic, chemical, 
# crystal, experimental, refinement or atomic coordinate data resulting 
# from the CCDC's data processing and validation procedures.
#
#######################################################################

data_LEKPUM
_chemical_formula_moiety         'C16 H22 N1 1+,Cl1 O4 1-'
_chemical_name_systematic        
'cis,trans,cis-2,3,6,7,7a,8,12b,12c-Octahydro-4H,1H,5H-naphtho(1,2,3-ij)quinolizinium perchlorate'
_chemical_properties_biological  
'activity at selected neuroreceptor binding sites'
_symmetry_cell_setting           triclinic
_symmetry_space_group_name_H-M   'P -1'
_symmetry_Int_Tables_number      2
_space_group_name_Hall           '-P 1'
loop_
_symmetry_equiv_pos_site_id
_symmetry_equiv_pos_as_xyz
1 x,y,z
2 -x,-y,-z
_cell_length_a                   8.427(2)
_cell_length_b                   13.509(1)
_cell_length_c                   7.467(3)
_cell_angle_alpha                92.06(2)
_cell_angle_beta                 111.18(2)
_cell_angle_gamma                94.11(1)
_cell_volume                     788.837
_exptl_crystal_colour            colorless
_cell_formula_units_Z            2
loop_
_atom_site_label
_atom_site_type_symbol
_atom_site_fract_x
_atom_site_fract_y
_atom_site_fract_z
N1 N 0.2044(5) -0.1615(3) 0.2655(5)
C1 C 0.3703(8) -0.3461(4) 0.3513(8)
C2 C 0.4260(8) -0.2665(4) 0.241(1)
C3 C 0.2877(8) -0.2042(5) 0.1361(7)
C4 C 0.3164(6) -0.0786(4) 0.4045(7)
C5 C 0.2275(7) -0.0375(4) 0.5315(8)
C6 C 0.1632(6) -0.1187(4) 0.6312(7)
C7 C 0.0460(6) -0.1969(4) 0.4811(7)
C8 C -0.0320(6) -0.2823(4) 0.5593(7)
C9 C 0.0843(6) -0.3611(4) 0.6429(7)
C10 C 0.0426(8) -0.4279(5) 0.7601(8)
C11 C 0.143(1) -0.5011(4) 0.8408(9)
C12 C 0.293(1) -0.5090(4) 0.8096(9)
C13 C 0.3383(7) -0.4435(4) 0.6950(8)
C14 C 0.2360(6) -0.3700(3) 0.6080(7)
C15 C 0.2908(6) -0.2987(3) 0.4858(7)
C16 C 0.1429(5) -0.2423(3) 0.3657(6)
H1 H 0.1057 -0.1331 0.1858
H2 H 0.2882 -0.3934 0.2623
H3 H 0.4669 -0.3784 0.4256
H4 H 0.5175 -0.2242 0.3308
H5 H 0.4644 -0.2983 0.1510
H6 H 0.2035 -0.2440 0.0335
H7 H 0.3348 -0.1511 0.0854
H8 H 0.4197 -0.1034 0.4833
H9 H 0.3413 -0.0268 0.3334
H10 H 0.3059 0.0088 0.6267
H11 H 0.1330 -0.0046 0.4541
H12 H 0.2577 -0.1488 0.7163
H13 H 0.1020 -0.0905 0.7020
H14 H -0.0449 -0.1646 0.3949
H15 H -0.0667 -0.2553 0.6572
H16 H -0.1293 -0.3128 0.4569
H17 H -0.0595 -0.4223 0.7846
H18 H 0.1099 -0.5464 0.9181
H19 H 0.3644 -0.5593 0.8666
H20 H 0.4426 -0.4491 0.6754
H21 H 0.3751 -0.2510 0.5710
H22 H 0.0647 -0.2880 0.2690
Cl1 Cl 0.2604(1) 0.1587(1) 0.0732(2)
O1 O 0.3190(6) 0.1604(4) 0.2745(6)
O2 O 0.1126(6) 0.0924(4) -0.0020(8)
O3 O 0.2200(9) 0.2523(4) 0.011(1)
O4 O 0.382(1) 0.1249(7) 0.015(1)
loop_
_geom_bond_atom_site_label_1
_geom_bond_atom_site_label_2
_geom_bond_site_symmetry_1
_geom_bond_site_symmetry_2
N1 C3 1_555 1_555
C1 C2 1_555 1_555
C2 C3 1_555 1_555
C3 H6 1_555 1_555
C4 N1 1_555 1_555
C5 C4 1_555 1_555
C6 C5 1_555 1_555
C7 C6 1_555 1_555
C8 C7 1_555 1_555
C9 C8 1_555 1_555
C10 C9 1_555 1_555
C11 C10 1_555 1_555
C12 C11 1_555 1_555
C13 C12 1_555 1_555
C14 C9 1_555 1_555
C15 C1 1_555 1_555
C16 N1 1_555 1_555
H1 N1 1_555 1_555
H2 C1 1_555 1_555
H3 C1 1_555 1_555
H4 C2 1_555 1_555
H5 C2 1_555 1_555
H7 C3 1_555 1_555
H8 C4 1_555 1_555
H9 C4 1_555 1_555
H10 C5 1_555 1_555
H11 C5 1_555 1_555
H12 C6 1_555 1_555
H13 C6 1_555 1_555
H14 C7 1_555 1_555
H15 C8 1_555 1_555
H16 C8 1_555 1_555
H17 C10 1_555 1_555
H18 C11 1_555 1_555
H19 C12 1_555 1_555
H20 C13 1_555 1_555
H21 C15 1_555 1_555
H22 C16 1_555 1_555
Cl1 O1 1_555 1_555
O2 Cl1 1_555 1_555
O3 Cl1 1_555 1_555
O4 Cl1 1_555 1_555
C7 C16 1_555 1_555
C13 C14 1_555 1_555
C14 C15 1_555 1_555
C15 C16 1_555 1_555

#END
