
#######################################################################
#
#                 Cambridge Crystallographic Data Centre
#                                CCDC 
#
#######################################################################
#
# If this CIF has been generated from an entry in the Cambridge 
# Structural Database, then it will include bibliographic, chemical, 
# crystal, experimental, refinement or atomic coordinate data resulting 
# from the CCDC's data processing and validation procedures.
#
#######################################################################

data_LEKSAY
_chemical_formula_moiety         'C22 H18 S3'
_chemical_name_systematic        
2-(5-butylthiophen-2-yl)[1]benzothieno[3,2-b][1]benzothiophene
_symmetry_cell_setting           triclinic
_symmetry_space_group_name_H-M   'P -1'
_symmetry_Int_Tables_number      2
_space_group_name_Hall           '-P 1'
loop_
_symmetry_equiv_pos_site_id
_symmetry_equiv_pos_as_xyz
1 x,y,z
2 -x,-y,-z
_cell_length_a                   5.9656(2)
_cell_length_b                   7.8049(2)
_cell_length_c                   39.9337(13)
_cell_angle_alpha                91.6519(12)
_cell_angle_beta                 90.1201(12)
_cell_angle_gamma                90.0104(11)
_cell_volume                     1858.57
_exptl_crystal_colour            colorless
_exptl_crystal_description       block
_cell_formula_units_Z            4
loop_
_atom_site_label
_atom_site_type_symbol
_atom_site_fract_x
_atom_site_fract_y
_atom_site_fract_z
S1 S 0.56863(12) 0.66934(9) 0.37488(2)
S2 S -0.00423(11) 0.45029(9) 0.33051(2)
S3 S -0.02932(17) 0.47009(14) 0.18966(2)
C1 C 0.3938(5) 0.6081(3) 0.40745(8)
C2 C 0.4383(5) 0.6290(4) 0.44134(8)
H1 H 0.5697 0.6822 0.4487
C3 C 0.2846(6) 0.5695(5) 0.46396(9)
H2 H 0.3123 0.5824 0.4868
C4 C 0.0858(6) 0.4892(5) 0.45268(9)
H3 H -0.0160 0.4491 0.4682
C5 C 0.0398(5) 0.4695(4) 0.41914(8)
H4 H -0.0921 0.4163 0.4120
C6 C 0.1926(4) 0.5297(3) 0.39564(7)
C7 C 0.1895(4) 0.5255(3) 0.35990(7)
C8 C 0.3767(4) 0.5938(3) 0.34534(7)
C9 C 0.3727(4) 0.5896(3) 0.30964(7)
C10 C 0.1706(5) 0.5129(3) 0.29780(8)
C11 C 0.1191(5) 0.5002(4) 0.26414(8)
H5 H -0.0143 0.4489 0.2571
C12 C 0.2675(5) 0.5647(4) 0.24068(8)
C13 C 0.4722(5) 0.6370(4) 0.25237(8)
H6 H 0.5746 0.6768 0.2369
C14 C 0.5235(5) 0.6499(4) 0.28580(8)
H7 H 0.6587 0.6987 0.2927
C15 C 0.2109(5) 0.5652(4) 0.20492(8)
C16 C 0.3219(6) 0.6399(5) 0.17912(9)
H8 H 0.4565 0.6986 0.1820
C17 C 0.2161(7) 0.6205(6) 0.14822(10)
H9 H 0.2740 0.6644 0.1286
C18 C 0.0219(7) 0.5322(5) 0.14918(9)
C19 C -0.1405(9) 0.4850(8) 0.12178(12)
H10 H -0.1387 0.3614 0.1185
H11 H -0.2899 0.5171 0.1292
C20 C -0.0986(11) 0.5639(9) 0.08903(12)
H12 H 0.0492 0.5304 0.0812
H13 H -0.0995 0.6877 0.0921
C21 C -0.2729(15) 0.5120(12) 0.06220(17)
H14 H -0.3239 0.3963 0.0661
H15 H -0.4014 0.5879 0.0639
C22 C -0.183(3) 0.541(3) 0.0278(2)
H16 H -0.0575 0.6178 0.0294
H17 H -0.2982 0.5905 0.0143
H18 H -0.1364 0.4338 0.0178
S4 S 1.06466(12) -0.04864(9) 0.37669(2)
S5 S 0.49351(11) 0.16825(9) 0.33393(2)
S6 S 0.47153(16) 0.14098(14) 0.19309(2)
C24 C 0.8877(5) 0.0128(4) 0.40964(8)
C25 C 0.9287(6) -0.0104(4) 0.44346(9)
H24 H 1.0591 -0.0641 0.4504
C26 C 0.7719(6) 0.0477(5) 0.46651(9)
H25 H 0.7968 0.0330 0.4892
C27 C 0.5754(6) 0.1288(5) 0.45588(9)
H26 H 0.4725 0.1682 0.4718
C28 C 0.5315(5) 0.1512(4) 0.42243(8)
H27 H 0.3999 0.2042 0.4157
C29 C 0.6888(5) 0.0925(3) 0.39850(7)
C30 C 0.6879(4) 0.0974(3) 0.36300(7)
C31 C 0.8749(4) 0.0280(3) 0.34775(7)
C32 C 0.8697(4) 0.0273(3) 0.31210(7)
C33 C 0.6679(4) 0.1028(3) 0.30096(7)
C34 C 0.6184(5) 0.1134(4) 0.26725(8)
H28 H 0.4854 0.1642 0.2605
C35 C 0.7677(5) 0.0480(4) 0.24339(8)
C36 C 0.9713(5) -0.0239(4) 0.25448(8)
H29 H 1.0740 -0.0649 0.2387
C37 C 1.0213(5) -0.0349(4) 0.28791(8)
H30 H 1.1560 -0.0836 0.2945
C38 C 0.7131(5) 0.0470(4) 0.20757(8)
C39 C 0.8250(6) -0.0267(5) 0.18097(9)
H31 H 0.9597 -0.0851 0.1833
C40 C 0.7209(7) -0.0073(6) 0.15012(10)
H32 H 0.7799 -0.0504 0.1301
C41 C 0.5253(7) 0.0803(5) 0.15211(9)
C42 C 0.3642(8) 0.1259(8) 0.12507(11)
H33 H 0.2148 0.0934 0.1320
H34 H 0.3653 0.2494 0.1231
C43 C 0.4067(11) 0.0470(9) 0.09149(12)
H35 H 0.4078 -0.0767 0.0932
H36 H 0.5537 0.0819 0.0839
C44 C 0.2313(15) 0.0967(13) 0.06539(16)
H37 H 0.0910 0.0382 0.0695
H38 H 0.2039 0.2192 0.0671
C45 C 0.319(3) 0.061(3) 0.0305(2)
H39 H 0.4613 0.1162 0.0280
H40 H 0.2148 0.1042 0.0145
H41 H 0.3360 -0.0605 0.0269
H19? H -0.2646 0.3938 0.0570
H20? H -0.4203 0.5443 0.0696
C23? C -0.279(4) 0.642(2) 0.0350(4)
H21? H -0.4048 0.7172 0.0385
H22? H -0.2930 0.5842 0.0136
H23? H -0.1430 0.7080 0.0357
H42? H 0.0809 0.0635 0.0729
H43? H 0.2338 0.2150 0.0617
C46? C 0.218(4) -0.032(2) 0.0370(3)
H44? H 0.3585 -0.0352 0.0253
H45? H 0.1007 -0.0003 0.0219
H46? H 0.1869 -0.1431 0.0456
loop_
_geom_bond_atom_site_label_1
_geom_bond_atom_site_label_2
_geom_bond_site_symmetry_1
_geom_bond_site_symmetry_2
S1 C1 1_555 1_555
S2 C7 1_555 1_555
S3 C15 1_555 1_555
C1 C2 1_555 1_555
C2 H1 1_555 1_555
C3 C2 1_555 1_555
H2 C3 1_555 1_555
C4 C3 1_555 1_555
H3 C4 1_555 1_555
C5 C4 1_555 1_555
H4 C5 1_555 1_555
C6 C1 1_555 1_555
C7 C6 1_555 1_555
C8 S1 1_555 1_555
C9 C8 1_555 1_555
C10 S2 1_555 1_555
C11 C10 1_555 1_555
H5 C11 1_555 1_555
C12 C11 1_555 1_555
C13 C12 1_555 1_555
H6 C13 1_555 1_555
C14 C9 1_555 1_555
H7 C14 1_555 1_555
C15 C12 1_555 1_555
C16 C15 1_555 1_555
H8 C16 1_555 1_555
C17 C16 1_555 1_555
H9 C17 1_555 1_555
C18 S3 1_555 1_555
C19 C18 1_555 1_555
H10 C19 1_555 1_555
H11 C19 1_555 1_555
C20 C19 1_555 1_555
H12 C20 1_555 1_555
H13 C20 1_555 1_555
C21 C20 1_555 1_555
H14 C21 1_555 1_555
H15 C21 1_555 1_555
C22 C21 1_555 1_555
H16 C22 1_555 1_555
H17 C22 1_555 1_555
H18 C22 1_555 1_555
S4 C24 1_555 1_555
S5 C30 1_555 1_555
S6 C38 1_555 1_555
C24 C25 1_555 1_555
C25 H24 1_555 1_555
C26 C25 1_555 1_555
H25 C26 1_555 1_555
C27 C26 1_555 1_555
H26 C27 1_555 1_555
C28 C27 1_555 1_555
H27 C28 1_555 1_555
C29 C24 1_555 1_555
C30 C29 1_555 1_555
C31 S4 1_555 1_555
C32 C31 1_555 1_555
C33 S5 1_555 1_555
C34 C33 1_555 1_555
H28 C34 1_555 1_555
C35 C34 1_555 1_555
C36 C35 1_555 1_555
H29 C36 1_555 1_555
C37 C32 1_555 1_555
H30 C37 1_555 1_555
C38 C35 1_555 1_555
C39 C38 1_555 1_555
H31 C39 1_555 1_555
C40 C39 1_555 1_555
H32 C40 1_555 1_555
C41 S6 1_555 1_555
C42 C41 1_555 1_555
H33 C42 1_555 1_555
H34 C42 1_555 1_555
C43 C42 1_555 1_555
H35 C43 1_555 1_555
H36 C43 1_555 1_555
C44 C43 1_555 1_555
H37 C44 1_555 1_555
H38 C44 1_555 1_555
C45 C44 1_555 1_555
H39 C45 1_555 1_555
H40 C45 1_555 1_555
H41 C45 1_555 1_555
C5 C6 1_555 1_555
C7 C8 1_555 1_555
C9 C10 1_555 1_555
C13 C14 1_555 1_555
C17 C18 1_555 1_555
C28 C29 1_555 1_555
C30 C31 1_555 1_555
C32 C33 1_555 1_555
C36 C37 1_555 1_555
C40 C41 1_555 1_555

#END
