
#######################################################################
#
#                 Cambridge Crystallographic Data Centre
#                                CCDC 
#
#######################################################################
#
# If this CIF has been generated from an entry in the Cambridge 
# Structural Database, then it will include bibliographic, chemical, 
# crystal, experimental, refinement or atomic coordinate data resulting 
# from the CCDC's data processing and validation procedures.
#
#######################################################################

data_LELBUC
_chemical_formula_moiety         'C20 H6 F8 S2'
_chemical_name_systematic        
5,5'-bis(2,3,5,6-tetrafluorophenyl)-2,2'-bithiophene
_symmetry_cell_setting           orthorhombic
_symmetry_space_group_name_H-M   'P b c a'
_symmetry_Int_Tables_number      61
_space_group_name_Hall           '-P 2ac 2ab'
loop_
_symmetry_equiv_pos_site_id
_symmetry_equiv_pos_as_xyz
1 x,y,z
2 1/2-x,-y,1/2+z
3 -x,1/2+y,1/2-z
4 1/2+x,1/2-y,-z
5 -x,-y,-z
6 1/2+x,y,1/2-z
7 x,1/2-y,1/2+z
8 1/2-x,1/2+y,z
_cell_length_a                   7.1369(3)
_cell_length_b                   13.1737(7)
_cell_length_c                   35.7724(17)
_cell_angle_alpha                90
_cell_angle_beta                 90
_cell_angle_gamma                90
_cell_volume                     3363.3
_exptl_crystal_colour            'greenish green'
_exptl_crystal_description       block
_cell_formula_units_Z            8
loop_
_atom_site_label
_atom_site_type_symbol
_atom_site_fract_x
_atom_site_fract_y
_atom_site_fract_z
S1 S 0.60622(7) 0.33081(4) 0.72498(2)
S2 S 0.62691(7) 0.46106(4) 0.61289(2)
F1 F 0.5873(2) 0.58363(9) 0.81401(3)
F2 F 0.5935(2) 0.54696(10) 0.88611(3)
F3 F 0.6110(2) 0.19532(10) 0.86314(4)
F4 F 0.6091(2) 0.22926(9) 0.79035(3)
F5 F 0.48249(18) 0.23133(9) 0.52596(3)
F6 F 0.50095(19) 0.26476(9) 0.45291(3)
F7 F 0.82952(18) 0.56911(9) 0.47430(3)
F8 F 0.81253(18) 0.53775(9) 0.54756(3)
C1 C 0.6043(3) 0.41482(15) 0.68806(5)
C2 C 0.5988(3) 0.51260(16) 0.70060(6)
H1 H 0.5959 0.5698 0.6844
C3 C 0.5977(3) 0.52051(16) 0.73985(6)
H2 H 0.5951 0.5836 0.7527
C4 C 0.6006(3) 0.42848(15) 0.75769(5)
C5 C 0.6013(3) 0.40807(15) 0.79808(5)
C6 C 0.5968(3) 0.48584(15) 0.82473(5)
C7 C 0.6002(3) 0.46683(16) 0.86264(5)
C8 C 0.6068(3) 0.37002(17) 0.87687(6)
H3 H 0.6098 0.3576 0.9030
C9 C 0.6087(3) 0.29233(16) 0.85143(6)
C10 C 0.6073(3) 0.31059(15) 0.81333(5)
C11 C 0.6112(3) 0.37706(15) 0.64986(5)
C12 C 0.6135(3) 0.27893(16) 0.63757(5)
H4 H 0.6067 0.2220 0.6538
C13 C 0.6269(3) 0.27054(15) 0.59825(5)
H5 H 0.6292 0.2075 0.5854
C14 C 0.6365(3) 0.36296(15) 0.58055(5)
C15 C 0.6490(3) 0.38242(14) 0.54011(5)
C16 C 0.7350(3) 0.46773(14) 0.52479(5)
C17 C 0.7445(3) 0.48416(15) 0.48679(5)
C18 C 0.6677(3) 0.41691(16) 0.46165(5)
H6 H 0.6746 0.4282 0.4355
C19 C 0.5806(3) 0.33263(15) 0.47619(5)
C20 C 0.5718(3) 0.31531(14) 0.51415(5)
loop_
_geom_bond_atom_site_label_1
_geom_bond_atom_site_label_2
_geom_bond_site_symmetry_1
_geom_bond_site_symmetry_2
S1 C1 1_555 1_555
S2 C11 1_555 1_555
F1 C6 1_555 1_555
F2 C7 1_555 1_555
F3 C9 1_555 1_555
F4 C10 1_555 1_555
F5 C20 1_555 1_555
F6 C19 1_555 1_555
F7 C17 1_555 1_555
F8 C16 1_555 1_555
C1 C2 1_555 1_555
C2 H1 1_555 1_555
C3 C2 1_555 1_555
H2 C3 1_555 1_555
C4 S1 1_555 1_555
C5 C4 1_555 1_555
C6 C5 1_555 1_555
C7 C6 1_555 1_555
C8 C7 1_555 1_555
H3 C8 1_555 1_555
C9 C8 1_555 1_555
C10 C5 1_555 1_555
C11 C1 1_555 1_555
C12 C11 1_555 1_555
H4 C12 1_555 1_555
C13 C12 1_555 1_555
H5 C13 1_555 1_555
C14 S2 1_555 1_555
C15 C14 1_555 1_555
C16 C15 1_555 1_555
C17 C16 1_555 1_555
C18 C17 1_555 1_555
H6 C18 1_555 1_555
C19 C18 1_555 1_555
C20 C15 1_555 1_555
C3 C4 1_555 1_555
C9 C10 1_555 1_555
C13 C14 1_555 1_555
C19 C20 1_555 1_555

#END
