
#######################################################################
#
#                 Cambridge Crystallographic Data Centre
#                                CCDC 
#
#######################################################################
#
# If this CIF has been generated from an entry in the Cambridge 
# Structural Database, then it will include bibliographic, chemical, 
# crystal, experimental, refinement or atomic coordinate data resulting 
# from the CCDC's data processing and validation procedures.
#
#######################################################################

data_LELGUG
_chemical_formula_moiety         'C28 H21 Br1 N2 O3'
_chemical_name_systematic        
'Methyl 2-((2-(4-bromobenzoyl)-1-cyano-1,2-dihydroisoquinolin-1-yl)(phenyl)methyl)acrylate'
_symmetry_cell_setting           orthorhombic
_symmetry_space_group_name_H-M   'P 21 21 21'
_symmetry_Int_Tables_number      19
_space_group_name_Hall           'P 2ac 2ab'
loop_
_symmetry_equiv_pos_site_id
_symmetry_equiv_pos_as_xyz
1 x,y,z
2 1/2-x,-y,1/2+z
3 -x,1/2+y,1/2-z
4 1/2+x,1/2-y,-z
_cell_length_a                   9.098(3)
_cell_length_b                   15.524(6)
_cell_length_c                   17.674(6)
_cell_angle_alpha                90
_cell_angle_beta                 90
_cell_angle_gamma                90
_cell_volume                     2496.23
_cell_formula_units_Z            4
loop_
_atom_site_label
_atom_site_type_symbol
_atom_site_fract_x
_atom_site_fract_y
_atom_site_fract_z
O1 O 0.8550(3) -0.14550(16) 0.17191(15)
Br1 Br 1.57094(4) 0.22561(3) 0.00049(2)
C1 C 0.5443(3) 0.0536(3) 0.3609(2)
H1 H 0.5106 0.0832 0.3185
C2 C 0.4503(4) 0.0385(4) 0.4216(3)
H2 H 0.3536 0.0578 0.4191
C3 C 0.4974(5) -0.0041(3) 0.4849(3)
H3 H 0.4341 -0.0127 0.5256
C4 C 0.6388(4) -0.0338(3) 0.4876(2)
H4 H 0.6715 -0.0631 0.5304
C5 C 0.7334(4) -0.0209(2) 0.42770(19)
H5 H 0.8284 -0.0427 0.4303
C6 C 0.6896(3) 0.0240(2) 0.36364(17)
C7 C 0.7928(3) 0.04195(19) 0.29768(17)
H6 H 0.7290 0.0624 0.2568
C8 C 0.9016(3) 0.11864(19) 0.31374(15)
C9 C 0.8108(3) 0.2002(2) 0.3247(2)
C10 C 0.7688(5) 0.2304(3) 0.3955(3)
H7 H 0.8049 0.2042 0.4390
C11 C 0.6748(8) 0.2981(5) 0.4011(5)
H8 H 0.6469 0.3172 0.4489
C12 C 0.6207(7) 0.3388(4) 0.3394(6)
H9 H 0.5567 0.3851 0.3451
C13 C 0.6613(4) 0.3112(3) 0.2665(4)
H10 H 0.6239 0.3383 0.2237
C14 C 0.7601(3) 0.2413(2) 0.2598(2)
C15 C 0.8167(3) 0.2146(2) 0.1871(2)
H11 H 0.7692 0.2318 0.1430
C16 C 0.9361(3) 0.1657(2) 0.18279(16)
H12 H 0.9775 0.1539 0.1358
C17 C 0.9870(4) 0.1023(3) 0.38408(17)
C18 C 0.8651(3) -0.0390(2) 0.26681(18)
C19 C 0.7962(4) -0.0715(2) 0.19582(18)
C20 C 0.9784(4) -0.0797(2) 0.2959(2)
H13 H 1.0153 -0.1286 0.2721
H14 H 1.0217 -0.0597 0.3401
C21 C 0.7969(7) -0.1817(3) 0.1029(3)
H15 H 0.6988 -0.2022 0.1117
H16 H 0.8580 -0.2287 0.0869
H17 H 0.7953 -0.1382 0.0643
C22 C 1.1464(3) 0.1043(2) 0.2477(2)
C23 C 1.2413(3) 0.1360(2) 0.18545(17)
C24 C 1.3224(4) 0.0769(3) 0.1444(3)
H18 H 1.3107 0.0185 0.1545
C25 C 1.4196(5) 0.1020(3) 0.0893(2)
H19 H 1.4711 0.0616 0.0609
C26 C 1.4386(3) 0.1891(2) 0.07715(17)
C27 C 1.3622(3) 0.2494(2) 0.11715(17)
H20 H 1.3765 0.3078 0.1080
C28 C 1.2631(3) 0.2224(2) 0.17154(16)
H21 H 1.2106 0.2631 0.1991
N1 N 1.0008(2) 0.13164(16) 0.24889(13)
N2 N 1.0358(4) 0.0934(3) 0.44317(18)
O2 O 0.6964(3) -0.03739(18) 0.16355(17)
O3 O 1.1959(3) 0.0583(2) 0.29747(17)
loop_
_geom_bond_atom_site_label_1
_geom_bond_atom_site_label_2
_geom_bond_site_symmetry_1
_geom_bond_site_symmetry_2
O1 C19 1_555 1_555
Br1 C26 1_555 1_555
C1 H1 1_555 1_555
C2 C1 1_555 1_555
H2 C2 1_555 1_555
C3 C2 1_555 1_555
H3 C3 1_555 1_555
C4 C3 1_555 1_555
H4 C4 1_555 1_555
C5 C4 1_555 1_555
H5 C5 1_555 1_555
C6 C1 1_555 1_555
C7 C6 1_555 1_555
H6 C7 1_555 1_555
C8 C7 1_555 1_555
C9 C8 1_555 1_555
C10 C9 1_555 1_555
H7 C10 1_555 1_555
C11 C10 1_555 1_555
H8 C11 1_555 1_555
C12 C11 1_555 1_555
H9 C12 1_555 1_555
C13 C12 1_555 1_555
H10 C13 1_555 1_555
C14 C9 1_555 1_555
C15 C14 1_555 1_555
H11 C15 1_555 1_555
C16 C15 1_555 1_555
H12 C16 1_555 1_555
C17 C8 1_555 1_555
C18 C7 1_555 1_555
C19 C18 1_555 1_555
C20 C18 1_555 1_555
H13 C20 1_555 1_555
H14 C20 1_555 1_555
C21 O1 1_555 1_555
H15 C21 1_555 1_555
H16 C21 1_555 1_555
H17 C21 1_555 1_555
C22 C23 1_555 1_555
C23 C24 1_555 1_555
C24 H18 1_555 1_555
C25 C24 1_555 1_555
H19 C25 1_555 1_555
C26 C25 1_555 1_555
C27 C26 1_555 1_555
H20 C27 1_555 1_555
C28 C23 1_555 1_555
H21 C28 1_555 1_555
N1 C8 1_555 1_555
N2 C17 1_555 1_555
O2 C19 1_555 1_555
O3 C22 1_555 1_555
C5 C6 1_555 1_555
C13 C14 1_555 1_555
C16 N1 1_555 1_555
C22 N1 1_555 1_555
C27 C28 1_555 1_555

#END
