
#######################################################################
#
#                 Cambridge Crystallographic Data Centre
#                                CCDC 
#
#######################################################################
#
# If this CIF has been generated from an entry in the Cambridge 
# Structural Database, then it will include bibliographic, chemical, 
# crystal, experimental, refinement or atomic coordinate data resulting 
# from the CCDC's data processing and validation procedures.
#
#######################################################################

data_LELHOB
_chemical_formula_moiety         'C20 H16 Cl1 N5 O2'
_chemical_name_systematic        
1-(4-Chlorophenyl)-5-methyl-N-((3-phenyl-1,2-oxazol-5-yl)methyl)-1H-1,2,3-triazole-4-carboxamide
_symmetry_cell_setting           monoclinic
_symmetry_space_group_name_H-M   'P 21/c'
_symmetry_Int_Tables_number      14
_space_group_name_Hall           '-P 2ybc'
loop_
_symmetry_equiv_pos_site_id
_symmetry_equiv_pos_as_xyz
1 x,y,z
2 -x,1/2+y,1/2-z
3 -x,-y,-z
4 x,1/2-y,1/2+z
_cell_length_a                   17.877(6)
_cell_length_b                   9.516(3)
_cell_length_c                   10.966(3)
_cell_angle_alpha                90
_cell_angle_beta                 91.469(5)
_cell_angle_gamma                90
_cell_volume                     1864.9
_cell_formula_units_Z            4
loop_
_atom_site_label
_atom_site_type_symbol
_atom_site_fract_x
_atom_site_fract_y
_atom_site_fract_z
C1 C 1.31454(15) 0.3292(3) -0.3288(3)
C2 C 1.30703(16) 0.4411(4) -0.2511(3)
H1 H 1.3380 0.5191 -0.2579
C3 C 1.25355(15) 0.4378(3) -0.1628(3)
H2 H 1.2484 0.5131 -0.1096
C4 C 1.20744(13) 0.3212(3) -0.1541(3)
C5 C 1.21593(15) 0.2092(3) -0.2322(3)
H3 H 1.1849 0.1312 -0.2264
C6 C 1.26995(16) 0.2127(3) -0.3184(3)
H4 H 1.2764 0.1362 -0.3698
C7 C 1.12204(12) 0.2147(2) 0.0006(2)
C8 C 1.14455(16) 0.0648(2) -0.0053(3)
H5 H 1.1381 0.0216 0.0728
H6 H 1.1961 0.0586 -0.0270
H7 H 1.1140 0.0172 -0.0656
C9 C 1.07283(12) 0.2798(2) 0.0758(2)
C10 C 1.02549(12) 0.2162(2) 0.1682(2)
C11 C 0.94425(13) 0.2561(3) 0.3378(2)
H8 H 0.9484 0.3235 0.4039
H9 H 0.9649 0.1678 0.3674
C12 C 0.86337(13) 0.2347(2) 0.3065(2)
C13 C 0.80255(13) 0.2286(3) 0.3743(2)
H10 H 0.7997 0.2454 0.4576
C14 C 0.74353(13) 0.1914(3) 0.2931(2)
C15 C 0.66409(14) 0.1664(3) 0.3197(3)
C16 C 0.63477(18) 0.2157(4) 0.4257(3)
H11 H 0.6653 0.2644 0.4811
C17 C 0.56098(19) 0.1940(5) 0.4513(4)
H12 H 0.5417 0.2299 0.5228
C18 C 0.5162(2) 0.1211(5) 0.3732(5)
H13 H 0.4661 0.1069 0.3910
C19 C 0.54467(19) 0.0674(5) 0.2668(4)
H14 H 0.5139 0.0164 0.2134
C20 C 0.61908(17) 0.0898(3) 0.2396(3)
H15 H 0.6385 0.0536 0.1682
Cl1 Cl 1.37966(5) 0.33601(13) -0.44283(10)
N1 N 1.15138(11) 0.3205(2) -0.0642(2)
N2 N 1.12205(12) 0.4477(2) -0.0292(2)
N3 N 1.07487(12) 0.4207(2) 0.0560(2)
N4 N 0.98861(11) 0.3045(2) 0.2391(2)
H16 H 0.9915 0.3933 0.2253
N5 N 0.76719(12) 0.1786(3) 0.1817(2)
O1 O 1.02220(11) 0.08771(17) 0.17992(19)
O2 O 0.84458(10) 0.2062(2) 0.18973(17)
loop_
_geom_bond_atom_site_label_1
_geom_bond_atom_site_label_2
_geom_bond_site_symmetry_1
_geom_bond_site_symmetry_2
C1 C2 1_555 1_555
C2 H1 1_555 1_555
C3 C2 1_555 1_555
H2 C3 1_555 1_555
C4 C3 1_555 1_555
C5 C4 1_555 1_555
H3 C5 1_555 1_555
C6 C1 1_555 1_555
H4 C6 1_555 1_555
C7 C8 1_555 1_555
C8 H5 1_555 1_555
H6 C8 1_555 1_555
H7 C8 1_555 1_555
C9 C7 1_555 1_555
C10 C9 1_555 1_555
C11 H8 1_555 1_555
H9 C11 1_555 1_555
C12 C11 1_555 1_555
C13 C12 1_555 1_555
H10 C13 1_555 1_555
C14 C13 1_555 1_555
C15 C14 1_555 1_555
C16 C15 1_555 1_555
H11 C16 1_555 1_555
C17 C16 1_555 1_555
H12 C17 1_555 1_555
C18 C17 1_555 1_555
H13 C18 1_555 1_555
C19 C18 1_555 1_555
H14 C19 1_555 1_555
C20 C15 1_555 1_555
H15 C20 1_555 1_555
Cl1 C1 1_555 1_555
N1 C4 1_555 1_555
N2 N1 1_555 1_555
N3 C9 1_555 1_555
N4 C10 1_555 1_555
H16 N4 1_555 1_555
N5 C14 1_555 1_555
O1 C10 1_555 1_555
O2 C12 1_555 1_555
C5 C6 1_555 1_555
C7 N1 1_555 1_555
C11 N4 1_555 1_555
C19 C20 1_555 1_555
N2 N3 1_555 1_555
N5 O2 1_555 1_555

#END
