
#######################################################################
#
#                 Cambridge Crystallographic Data Centre
#                                CCDC 
#
#######################################################################
#
# If this CIF has been generated from an entry in the Cambridge 
# Structural Database, then it will include bibliographic, chemical, 
# crystal, experimental, refinement or atomic coordinate data resulting 
# from the CCDC's data processing and validation procedures.
#
#######################################################################

data_LELSEB
_chemical_formula_moiety         'C50 H78 Li2 N4 O4,2(C4 H8 O1)'
_chemical_name_systematic        
bis(\m~2~-4,6-Di-t-butyl-2-((1-isopropylimidazol-2-yl)methyl)phenolato)-bis((tetrahydrofuran)-lithium)
_symmetry_cell_setting           triclinic
_symmetry_space_group_name_H-M   'P -1'
_symmetry_Int_Tables_number      2
_space_group_name_Hall           '-P 1'
loop_
_symmetry_equiv_pos_site_id
_symmetry_equiv_pos_as_xyz
1 x,y,z
2 -x,-y,-z
_cell_length_a                   9.238(4)
_cell_length_b                   10.286(3)
_cell_length_c                   15.532(5)
_cell_angle_alpha                76.15(2)
_cell_angle_beta                 84.74(3)
_cell_angle_gamma                86.45(3)
_cell_volume                     1425.72
_exptl_crystal_colour            colorless
_exptl_crystal_description       block
_cell_formula_units_Z            1
loop_
_atom_site_label
_atom_site_type_symbol
_atom_site_fract_x
_atom_site_fract_y
_atom_site_fract_z
O1 O -0.01306(19) 0.57974(19) 0.41321(12)
O2 O -0.2292(2) 0.3049(2) 0.49639(15)
N1 N 0.0858(3) 0.2907(2) 0.39920(17)
N2 N 0.2530(3) 0.2720(3) 0.29056(16)
C1 C 0.0423(3) 0.6367(3) 0.33336(18)
C2 C -0.0314(3) 0.7454(3) 0.27545(18)
C3 C 0.0387(3) 0.8040(3) 0.19528(19)
H1 H -0.0117 0.8755 0.1575
C4 C 0.1793(3) 0.7670(3) 0.16440(19)
C5 C 0.2465(3) 0.6598(3) 0.22041(19)
H2 H 0.3414 0.6301 0.2024
C6 C 0.1813(3) 0.5944(3) 0.30132(18)
C7 C 0.2594(3) 0.4739(3) 0.35791(19)
H3 H 0.3647 0.4757 0.3391
H4 H 0.2470 0.4793 0.4210
C8 C 0.2018(3) 0.3446(3) 0.34975(18)
C9 C 0.0647(4) 0.1767(3) 0.3692(2)
H5 H -0.0102 0.1159 0.3926
C10 C 0.1630(4) 0.1643(3) 0.3037(2)
H6 H 0.1706 0.0954 0.2720
C11 C 0.3776(3) 0.2992(3) 0.2235(2)
H7 H 0.4340 0.3708 0.2369
C12 C 0.4782(4) 0.1754(4) 0.2282(2)
H8 H 0.5008 0.1381 0.2899
H9 H 0.5685 0.2000 0.1910
H10 H 0.4303 0.1083 0.2066
C13 C 0.3257(4) 0.3509(4) 0.1310(2)
H11 H 0.2726 0.2812 0.1155
H12 H 0.4098 0.3743 0.0878
H13 H 0.2613 0.4305 0.1299
C14 C -0.1853(3) 0.7950(3) 0.30382(18)
C15 C -0.2518(4) 0.8973(4) 0.2267(2)
H14 H -0.2569 0.8558 0.1765
H15 H -0.1909 0.9754 0.2081
H16 H -0.3499 0.9257 0.2464
C16 C -0.1770(3) 0.8656(3) 0.3795(2)
H17 H -0.2735 0.9031 0.3944
H18 H -0.1084 0.9379 0.3607
H19 H -0.1437 0.8009 0.4319
C17 C -0.2890(3) 0.6809(3) 0.3335(2)
H20 H -0.2521 0.6150 0.3842
H21 H -0.2966 0.6379 0.2843
H22 H -0.3852 0.7162 0.3512
C18 C 0.2449(3) 0.8395(3) 0.0730(2)
C19 C 0.1517(4) 0.8181(4) 0.0012(2)
H23 H 0.1487 0.7220 0.0044
H24 H 0.1941 0.8639 -0.0576
H25 H 0.0527 0.8548 0.0110
C20 C 0.3992(4) 0.7864(4) 0.0528(2)
H26 H 0.4612 0.7976 0.0983
H27 H 0.4380 0.8364 -0.0058
H28 H 0.3975 0.6912 0.0531
C21 C 0.2478(4) 0.9893(4) 0.0675(2)
H29 H 0.1491 1.0242 0.0803
H30 H 0.2851 1.0356 0.0076
H31 H 0.3112 1.0044 0.1112
C22 C -0.2357(4) 0.1785(4) 0.5599(3)
H32 H -0.2426 0.1923 0.6211
H33 H -0.1467 0.1225 0.5516
C23 C -0.3656(4) 0.1111(4) 0.5460(3)
H34 H -0.4359 0.0986 0.5991
H35 H -0.3380 0.0225 0.5335
C24 C -0.4292(4) 0.2033(4) 0.4677(3)
H36 H -0.3994 0.1732 0.4124
H37 H -0.5368 0.2075 0.4761
C25 C -0.3704(4) 0.3340(4) 0.4637(3)
H38 H -0.3632 0.3888 0.4018
H39 H -0.4334 0.3834 0.5012
Li1 Li -0.0391(5) 0.4006(5) 0.4743(3)
O1A O 0.01306(19) 0.42026(19) 0.58679(12)
O2A O 0.2292(2) 0.6951(2) 0.50361(15)
N1A N -0.0858(3) 0.7093(2) 0.60080(17)
N2A N -0.2530(3) 0.7280(3) 0.70944(16)
C1A C -0.0423(3) 0.3633(3) 0.66664(18)
C2A C 0.0314(3) 0.2546(3) 0.72455(18)
C3A C -0.0387(3) 0.1960(3) 0.80472(19)
H1A H 0.0117 0.1245 0.8425
C4A C -0.1793(3) 0.2330(3) 0.83560(19)
C5A C -0.2465(3) 0.3402(3) 0.77959(19)
H2A H -0.3414 0.3699 0.7976
C6A C -0.1813(3) 0.4056(3) 0.69868(18)
C7A C -0.2594(3) 0.5261(3) 0.64209(19)
H3A H -0.3647 0.5243 0.6609
H4A H -0.2470 0.5207 0.5790
C8A C -0.2018(3) 0.6554(3) 0.65025(18)
C9A C -0.0647(4) 0.8233(3) 0.6308(2)
H5A H 0.0102 0.8841 0.6074
C10A C -0.1630(4) 0.8357(3) 0.6963(2)
H6A H -0.1706 0.9046 0.7280
C11A C -0.3776(3) 0.7008(3) 0.7765(2)
H7A H -0.4340 0.6292 0.7631
C12A C -0.4782(4) 0.8246(4) 0.7718(2)
H8A H -0.5008 0.8619 0.7101
H9A H -0.5685 0.8000 0.8090
H10A H -0.4303 0.8917 0.7934
C13A C -0.3257(4) 0.6491(4) 0.8690(2)
H11A H -0.2726 0.7188 0.8845
H12A H -0.4098 0.6257 0.9122
H13A H -0.2613 0.5695 0.8701
C14A C 0.1853(3) 0.2050(3) 0.69618(18)
C15A C 0.2518(4) 0.1027(4) 0.7733(2)
H14A H 0.2569 0.1442 0.8235
H15A H 0.1909 0.0246 0.7919
H16A H 0.3499 0.0743 0.7536
C16A C 0.1770(3) 0.1344(3) 0.6205(2)
H17A H 0.2735 0.0969 0.6056
H18A H 0.1084 0.0621 0.6393
H19A H 0.1437 0.1991 0.5681
C17A C 0.2890(3) 0.3191(3) 0.6665(2)
H20A H 0.2521 0.3850 0.6158
H21A H 0.2966 0.3621 0.7157
H22A H 0.3852 0.2838 0.6488
C18A C -0.2449(3) 0.1605(3) 0.9270(2)
C19A C -0.1517(4) 0.1819(4) 0.9988(2)
H23A H -0.1487 0.2780 0.9956
H24A H -0.1941 0.1361 1.0576
H25A H -0.0527 0.1452 0.9890
C20A C -0.3992(4) 0.2136(4) 0.9472(2)
H26A H -0.4612 0.2024 0.9017
H27A H -0.4380 0.1636 1.0058
H28A H -0.3975 0.3088 0.9469
C21A C -0.2478(4) 0.0107(4) 0.9325(2)
H29A H -0.1491 -0.0242 0.9197
H30A H -0.2851 -0.0356 0.9924
H31A H -0.3112 -0.0044 0.8888
C22A C 0.2357(4) 0.8215(4) 0.4401(3)
H32A H 0.2426 0.8077 0.3789
H33A H 0.1467 0.8775 0.4484
C23A C 0.3656(4) 0.8889(4) 0.4540(3)
H34A H 0.4359 0.9014 0.4009
H35A H 0.3380 0.9775 0.4665
C24A C 0.4292(4) 0.7967(4) 0.5323(3)
H36A H 0.3994 0.8268 0.5876
H37A H 0.5368 0.7925 0.5239
C25A C 0.3704(4) 0.6660(4) 0.5363(3)
H38A H 0.3632 0.6112 0.5982
H39A H 0.4334 0.6166 0.4988
Li1A Li 0.0391(5) 0.5994(5) 0.5257(3)
O3 O 0.6851(3) 0.4368(3) 0.2057(2)
C26 C 0.8237(5) 0.3811(6) 0.2299(4)
H40 H 0.8261 0.2826 0.2375
H41 H 0.8442 0.4002 0.2870
C27 C 0.9316(5) 0.4392(7) 0.1609(4)
H42 H 0.9741 0.3718 0.1287
H43 H 1.0107 0.4753 0.1860
C28 C 0.8508(6) 0.5496(7) 0.1000(3)
H44 H 0.8619 0.6372 0.1140
H45 H 0.8850 0.5554 0.0369
C29 C 0.7005(5) 0.5093(5) 0.1183(3)
H46 H 0.6332 0.5892 0.1094
H47 H 0.6781 0.4535 0.0777
loop_
_geom_bond_atom_site_label_1
_geom_bond_atom_site_label_2
_geom_bond_site_symmetry_1
_geom_bond_site_symmetry_2
O1 C1 1_555 1_555
O2 C22 1_555 1_555
O3 C26 1_555 1_555
N1 C8 1_555 1_555
N2 C8 1_555 1_555
C1 C2 1_555 1_555
C2 C3 1_555 1_555
C3 H1 1_555 1_555
C4 C3 1_555 1_555
C5 C4 1_555 1_555
H2 C5 1_555 1_555
C6 C1 1_555 1_555
C7 C6 1_555 1_555
H3 C7 1_555 1_555
H4 C7 1_555 1_555
C8 C7 1_555 1_555
C9 N1 1_555 1_555
H5 C9 1_555 1_555
C10 N2 1_555 1_555
H6 C10 1_555 1_555
C11 N2 1_555 1_555
H7 C11 1_555 1_555
C12 C11 1_555 1_555
H8 C12 1_555 1_555
H9 C12 1_555 1_555
H10 C12 1_555 1_555
C13 C11 1_555 1_555
H11 C13 1_555 1_555
H12 C13 1_555 1_555
H13 C13 1_555 1_555
C14 C2 1_555 1_555
C15 C14 1_555 1_555
H14 C15 1_555 1_555
H15 C15 1_555 1_555
H16 C15 1_555 1_555
C16 C14 1_555 1_555
H17 C16 1_555 1_555
H18 C16 1_555 1_555
H19 C16 1_555 1_555
C17 C14 1_555 1_555
H20 C17 1_555 1_555
H21 C17 1_555 1_555
H22 C17 1_555 1_555
C18 C4 1_555 1_555
C19 C18 1_555 1_555
H23 C19 1_555 1_555
H24 C19 1_555 1_555
H25 C19 1_555 1_555
C20 C18 1_555 1_555
H26 C20 1_555 1_555
H27 C20 1_555 1_555
H28 C20 1_555 1_555
C21 C18 1_555 1_555
H29 C21 1_555 1_555
H30 C21 1_555 1_555
H31 C21 1_555 1_555
C22 H32 1_555 1_555
H33 C22 1_555 1_555
C23 C22 1_555 1_555
H34 C23 1_555 1_555
H35 C23 1_555 1_555
C24 C23 1_555 1_555
H36 C24 1_555 1_555
H37 C24 1_555 1_555
C25 O2 1_555 1_555
H38 C25 1_555 1_555
H39 C25 1_555 1_555
C26 H40 1_555 1_555
H41 C26 1_555 1_555
C27 C26 1_555 1_555
H42 C27 1_555 1_555
H43 C27 1_555 1_555
C28 C27 1_555 1_555
H44 C28 1_555 1_555
H45 C28 1_555 1_555
C29 O3 1_555 1_555
H46 C29 1_555 1_555
H47 C29 1_555 1_555
Li1 O1 1_555 1_555
O1A Li1 1_555 1_555
O2A C22A 1_555 1_555
N1A C8A 1_555 1_555
N2A C8A 1_555 1_555
C1A O1A 1_555 1_555
C2A C1A 1_555 1_555
C3A C2A 1_555 1_555
H1A C3A 1_555 1_555
C4A C3A 1_555 1_555
C5A C4A 1_555 1_555
H2A C5A 1_555 1_555
C6A C1A 1_555 1_555
C7A C6A 1_555 1_555
H3A C7A 1_555 1_555
H4A C7A 1_555 1_555
C8A C7A 1_555 1_555
C9A N1A 1_555 1_555
H5A C9A 1_555 1_555
C10A N2A 1_555 1_555
H6A C10A 1_555 1_555
C11A N2A 1_555 1_555
H7A C11A 1_555 1_555
C12A C11A 1_555 1_555
H8A C12A 1_555 1_555
H9A C12A 1_555 1_555
H10A C12A 1_555 1_555
C13A C11A 1_555 1_555
H11A C13A 1_555 1_555
H12A C13A 1_555 1_555
H13A C13A 1_555 1_555
C14A C2A 1_555 1_555
C15A C14A 1_555 1_555
H14A C15A 1_555 1_555
H15A C15A 1_555 1_555
H16A C15A 1_555 1_555
C16A C14A 1_555 1_555
H17A C16A 1_555 1_555
H18A C16A 1_555 1_555
H19A C16A 1_555 1_555
C17A C14A 1_555 1_555
H20A C17A 1_555 1_555
H21A C17A 1_555 1_555
H22A C17A 1_555 1_555
C18A C4A 1_555 1_555
C19A C18A 1_555 1_555
H23A C19A 1_555 1_555
H24A C19A 1_555 1_555
H25A C19A 1_555 1_555
C20A C18A 1_555 1_555
H26A C20A 1_555 1_555
H27A C20A 1_555 1_555
H28A C20A 1_555 1_555
C21A C18A 1_555 1_555
H29A C21A 1_555 1_555
H30A C21A 1_555 1_555
H31A C21A 1_555 1_555
C22A H32A 1_555 1_555
H33A C22A 1_555 1_555
C23A C22A 1_555 1_555
H34A C23A 1_555 1_555
H35A C23A 1_555 1_555
C24A C23A 1_555 1_555
H36A C24A 1_555 1_555
H37A C24A 1_555 1_555
C25A O2A 1_555 1_555
H38A C25A 1_555 1_555
H39A C25A 1_555 1_555
Li1A O1 1_555 1_555
O2 Li1 1_555 1_555
N1 Li1 1_555 1_555
C5 C6 1_555 1_555
C9 C10 1_555 1_555
C24 C25 1_555 1_555
C28 C29 1_555 1_555
O1A Li1A 1_555 1_555
O2A Li1A 1_555 1_555
N1A Li1A 1_555 1_555
C5A C6A 1_555 1_555
C9A C10A 1_555 1_555
C24A C25A 1_555 1_555

#END
