
#######################################################################
#
#                 Cambridge Crystallographic Data Centre
#                                CCDC 
#
#######################################################################
#
# If this CIF has been generated from an entry in the Cambridge 
# Structural Database, then it will include bibliographic, chemical, 
# crystal, experimental, refinement or atomic coordinate data resulting 
# from the CCDC's data processing and validation procedures.
#
#######################################################################

data_LELVUW
_chemical_formula_moiety         'C25 H22 Br1 N1 O4 S1'
_chemical_name_systematic        
2-{2-acetyl-5-bromo-1-[(4-methylphenyl)sulfonyl]-2,3-dihydro-1H-indol-3-yl}-1-phenylethan-1-one
_symmetry_cell_setting           orthorhombic
_symmetry_space_group_name_H-M   'P 21 21 21'
_symmetry_Int_Tables_number      19
_space_group_name_Hall           'P 2ac 2ab'
loop_
_symmetry_equiv_pos_site_id
_symmetry_equiv_pos_as_xyz
1 x,y,z
2 1/2-x,-y,1/2+z
3 -x,1/2+y,1/2-z
4 1/2+x,1/2-y,-z
_cell_length_a                   10.3185(9)
_cell_length_b                   14.6660(11)
_cell_length_c                   14.8630(14)
_cell_angle_alpha                90
_cell_angle_beta                 90
_cell_angle_gamma                90
_cell_volume                     2249.23
_exptl_crystal_colour            colorless
_exptl_crystal_description       Block
_cell_formula_units_Z            4
loop_
_atom_site_label
_atom_site_type_symbol
_atom_site_fract_x
_atom_site_fract_y
_atom_site_fract_z
N1 N 0.92149(16) 0.89456(11) 0.79243(13)
C1 C 0.8472(2) 0.82597(13) 0.84461(14)
H1 H 0.7651 0.8120 0.8130
C2 C 0.93549(17) 0.74062(13) 0.84414(12)
H2 H 0.9071 0.7020 0.7932
C3 C 1.06706(17) 0.77981(13) 0.81900(12)
C4 C 1.18737(18) 0.73987(14) 0.82419(13)
H3 H 1.1978 0.6817 0.8498
C5 C 1.29273(18) 0.78749(14) 0.79082(15)
C6 C 1.2790(2) 0.87290(15) 0.75227(15)
H4 H 1.3517 0.9029 0.7284
C7 C 1.1581(2) 0.91432(14) 0.74875(14)
H5 H 1.1478 0.9729 0.7242
C8 C 1.05314(19) 0.86645(13) 0.78265(13)
C9 C 0.8175(2) 0.86203(15) 0.93874(16)
O1 O 0.71525(17) 0.84237(15) 0.97358(14)
C10 C 0.9175(3) 0.91782(18) 0.98553(17)
H6 H 0.9188 0.9787 0.9601
H7 H 1.0019 0.8897 0.9778
H8 H 0.8970 0.9214 1.0491
C11 C 0.93541(19) 0.68052(13) 0.92773(13)
H9 H 1.0163 0.6456 0.9296
H10 H 0.9328 0.7194 0.9813
C12 C 0.8226(2) 0.61537(14) 0.93057(15)
O2 O 0.73471(16) 0.61990(12) 0.87639(12)
C13 C 0.8260(2) 0.54107(13) 1.00012(14)
C14 C 0.7280(2) 0.47566(16) 0.99862(17)
H11 H 0.6617 0.4792 0.9554
C15 C 0.7285(3) 0.40558(18) 1.0609(2)
H12 H 0.6622 0.3616 1.0598
C16 C 0.8255(3) 0.39964(16) 1.12461(19)
H13 H 0.8245 0.3521 1.1671
C17 C 0.9236(2) 0.46311(16) 1.12609(16)
H14 H 0.9903 0.4586 1.1689
C18 C 0.9235(2) 0.53394(14) 1.06387(14)
H15 H 0.9903 0.5775 1.0651
Br1 Br 1.46004(2) 0.733902(17) 0.801033(18)
S1 S 0.84468(5) 0.97385(3) 0.73745(4)
O3 O 0.94011(16) 1.03765(10) 0.70744(12)
O4 O 0.74119(16) 1.00214(10) 0.79473(12)
C19 C 0.7756(2) 0.92022(14) 0.64322(15)
C20 C 0.8475(2) 0.90997(16) 0.56465(16)
H16 H 0.9323 0.9331 0.5611
C21 C 0.7937(2) 0.86585(19) 0.49245(17)
H17 H 0.8422 0.8599 0.4392
C22 C 0.6690(3) 0.82962(16) 0.49592(16)
C23 C 0.5994(2) 0.84051(17) 0.57530(17)
H18 H 0.5152 0.8164 0.5793
C24 C 0.6507(2) 0.88582(15) 0.64828(15)
H19 H 0.6015 0.8933 0.7010
C25 C 0.6126(3) 0.7816(2) 0.41651(19)
H20 H 0.5325 0.7519 0.4339
H21 H 0.6735 0.7363 0.3948
H22 H 0.5951 0.8255 0.3692
loop_
_geom_bond_atom_site_label_1
_geom_bond_atom_site_label_2
_geom_bond_site_symmetry_1
_geom_bond_site_symmetry_2
N1 C1 1_555 1_555
C1 H1 1_555 1_555
C2 C1 1_555 1_555
H2 C2 1_555 1_555
C3 C2 1_555 1_555
C4 C3 1_555 1_555
H3 C4 1_555 1_555
C5 C4 1_555 1_555
C6 C5 1_555 1_555
H4 C6 1_555 1_555
C7 C6 1_555 1_555
H5 C7 1_555 1_555
C8 N1 1_555 1_555
C9 C1 1_555 1_555
O1 C9 1_555 1_555
C10 C9 1_555 1_555
H6 C10 1_555 1_555
H7 C10 1_555 1_555
H8 C10 1_555 1_555
C11 C2 1_555 1_555
H9 C11 1_555 1_555
H10 C11 1_555 1_555
C12 C11 1_555 1_555
O2 C12 1_555 1_555
C13 C12 1_555 1_555
C14 C13 1_555 1_555
H11 C14 1_555 1_555
C15 C14 1_555 1_555
H12 C15 1_555 1_555
C16 C15 1_555 1_555
H13 C16 1_555 1_555
C17 C16 1_555 1_555
H14 C17 1_555 1_555
C18 C13 1_555 1_555
H15 C18 1_555 1_555
Br1 C5 1_555 1_555
S1 N1 1_555 1_555
O3 S1 1_555 1_555
O4 S1 1_555 1_555
C19 S1 1_555 1_555
C20 C19 1_555 1_555
H16 C20 1_555 1_555
C21 C20 1_555 1_555
H17 C21 1_555 1_555
C22 C21 1_555 1_555
C23 C22 1_555 1_555
H18 C23 1_555 1_555
C24 C19 1_555 1_555
H19 C24 1_555 1_555
C25 C22 1_555 1_555
H20 C25 1_555 1_555
H21 C25 1_555 1_555
H22 C25 1_555 1_555
C3 C8 1_555 1_555
C7 C8 1_555 1_555
C17 C18 1_555 1_555
C23 C24 1_555 1_555

#END
