
#######################################################################
#
#                 Cambridge Crystallographic Data Centre
#                                CCDC 
#
#######################################################################
#
# If this CIF has been generated from an entry in the Cambridge 
# Structural Database, then it will include bibliographic, chemical, 
# crystal, experimental, refinement or atomic coordinate data resulting 
# from the CCDC's data processing and validation procedures.
#
#######################################################################

data_LELVAC
_chemical_formula_moiety         'C18 H32 Mg1 N4'
_chemical_name_systematic        
benzyl-(1,4,7-trimethyl-1,4,7,10-tetraazacyclododecanato)-magnesium
_symmetry_cell_setting           monoclinic
_symmetry_space_group_name_H-M   'P 21/n'
_symmetry_Int_Tables_number      14
_space_group_name_Hall           '-P 2yn'
loop_
_symmetry_equiv_pos_site_id
_symmetry_equiv_pos_as_xyz
1 x,y,z
2 1/2-x,1/2+y,1/2-z
3 -x,-y,-z
4 1/2+x,1/2-y,1/2+z
_cell_length_a                   14.484(2)
_cell_length_b                   7.1219(11)
_cell_length_c                   18.303(3)
_cell_angle_alpha                90
_cell_angle_beta                 90.915(2)
_cell_angle_gamma                90
_cell_volume                     1887.78
_exptl_crystal_colour            colorless
_exptl_crystal_description       block
_cell_formula_units_Z            4
_chemical_properties_physical    
Air-sensitive,Moisture-sensitive,Oxygen-sensitive
loop_
_atom_site_label
_atom_site_type_symbol
_atom_site_fract_x
_atom_site_fract_y
_atom_site_fract_z
N1 N 0.59754(7) 0.12261(14) 0.22710(5)
N2 N 0.56496(7) 0.33601(15) 0.34954(5)
N3 N 0.50283(7) 0.56926(15) 0.22691(6)
N4 N 0.48739(7) 0.27777(15) 0.11760(5)
Mg1 Mg 0.48186(3) 0.26831(6) 0.24455(2)
C1 C 0.66982(9) 0.12343(19) 0.28148(7)
H1 H 0.7237(9) 0.2142(19) 0.2683(7)
H2 H 0.7017(8) -0.0044(19) 0.2895(7)
C2 C 0.63031(9) 0.17656(19) 0.35532(7)
H3 H 0.6810(9) 0.2054(18) 0.3927(7)
H4 H 0.5960(9) 0.0691(19) 0.3753(7)
C3 C 0.61358(9) 0.51053(19) 0.32916(7)
H5 H 0.6421(9) 0.5693(19) 0.3737(7)
H6 H 0.6624(8) 0.4766(17) 0.2953(7)
C4 C 0.54799(10) 0.64992(19) 0.29311(8)
H7 H 0.4976(9) 0.6821(18) 0.3266(7)
H8 H 0.5791(9) 0.7675(19) 0.2833(7)
C5 C 0.56762(9) 0.56701(19) 0.16505(7)
H9 H 0.6263(8) 0.5041(18) 0.1820(6)
H10 H 0.5844(9) 0.6995(19) 0.1514(7)
C6 C 0.52775(9) 0.4630(2) 0.09894(7)
H11 H 0.4793(9) 0.5414(19) 0.0753(7)
H12 H 0.5760(9) 0.4473(18) 0.0624(7)
C7 C 0.55125(9) 0.12101(19) 0.10027(7)
H13 H 0.5161(8) 0.0053(18) 0.1022(6)
H14 H 0.5724(8) 0.1322(17) 0.0494(7)
C8 C 0.63185(9) 0.10962(19) 0.15437(7)
H15 H 0.6662(9) -0.0113(19) 0.1433(7)
H16 H 0.6792(9) 0.2154(18) 0.1438(7)
C9 C 0.51893(10) 0.3624(2) 0.41995(7)
H17 H 0.5649(10) 0.395(2) 0.4593(8)
H18 H 0.4746(10) 0.469(2) 0.4152(7)
H19 H 0.4850(10) 0.248(2) 0.4335(8)
C10 C 0.41928(10) 0.6792(2) 0.20823(9)
H20 H 0.3770(9) 0.6756(19) 0.2502(7)
H21 H 0.4333(9) 0.812(2) 0.2001(7)
H22 H 0.3862(10) 0.628(2) 0.1653(8)
C11 C 0.39957(10) 0.2482(2) 0.07749(8)
H23 H 0.3718(9) 0.130(2) 0.0932(7)
H24 H 0.3561(10) 0.349(2) 0.0884(8)
H25 H 0.4071(9) 0.2450(18) 0.0231(8)
C12 C 0.33733(9) 0.2033(2) 0.26491(7)
H26 H 0.3026(9) 0.3035(19) 0.2430(7)
H27 H 0.3267(9) 0.085(2) 0.2387(7)
C13 C 0.31659(8) 0.18451(18) 0.34269(7)
C14 C 0.33219(9) 0.0153(2) 0.38059(7)
H28 H 0.3547(10) -0.092(2) 0.3528(8)
C15 C 0.31861(10) -0.0012(2) 0.45506(7)
H29 H 0.3292(9) -0.125(2) 0.4775(8)
C16 C 0.28772(10) 0.1503(2) 0.49540(8)
H30 H 0.2773(10) 0.140(2) 0.5459(8)
C17 C 0.27065(9) 0.3182(2) 0.45953(8)
H31 H 0.2492(10) 0.424(2) 0.4877(8)
C18 C 0.28467(9) 0.3355(2) 0.38531(7)
H32 H 0.2749(9) 0.455(2) 0.3613(7)
loop_
_geom_bond_atom_site_label_1
_geom_bond_atom_site_label_2
_geom_bond_site_symmetry_1
_geom_bond_site_symmetry_2
N1 Mg1 1_555 1_555
N2 Mg1 1_555 1_555
N3 Mg1 1_555 1_555
N4 Mg1 1_555 1_555
Mg1 C12 1_555 1_555
C1 N1 1_555 1_555
H1 C1 1_555 1_555
H2 C1 1_555 1_555
C2 N2 1_555 1_555
H3 C2 1_555 1_555
H4 C2 1_555 1_555
C3 N2 1_555 1_555
H5 C3 1_555 1_555
H6 C3 1_555 1_555
C4 N3 1_555 1_555
H7 C4 1_555 1_555
H8 C4 1_555 1_555
C5 N3 1_555 1_555
H9 C5 1_555 1_555
H10 C5 1_555 1_555
C6 N4 1_555 1_555
H11 C6 1_555 1_555
H12 C6 1_555 1_555
C7 N4 1_555 1_555
H13 C7 1_555 1_555
H14 C7 1_555 1_555
C8 N1 1_555 1_555
H15 C8 1_555 1_555
H16 C8 1_555 1_555
C9 N2 1_555 1_555
H17 C9 1_555 1_555
H18 C9 1_555 1_555
H19 C9 1_555 1_555
C10 N3 1_555 1_555
H20 C10 1_555 1_555
H21 C10 1_555 1_555
H22 C10 1_555 1_555
C11 N4 1_555 1_555
H23 C11 1_555 1_555
H24 C11 1_555 1_555
H25 C11 1_555 1_555
C12 H26 1_555 1_555
H27 C12 1_555 1_555
C13 C12 1_555 1_555
C14 C13 1_555 1_555
H28 C14 1_555 1_555
C15 C14 1_555 1_555
H29 C15 1_555 1_555
C16 C15 1_555 1_555
H30 C16 1_555 1_555
C17 C16 1_555 1_555
H31 C17 1_555 1_555
C18 C13 1_555 1_555
H32 C18 1_555 1_555
C1 C2 1_555 1_555
C3 C4 1_555 1_555
C5 C6 1_555 1_555
C7 C8 1_555 1_555
C17 C18 1_555 1_555

#END
