
#######################################################################
#
#                 Cambridge Crystallographic Data Centre
#                                CCDC 
#
#######################################################################
#
# If this CIF has been generated from an entry in the Cambridge 
# Structural Database, then it will include bibliographic, chemical, 
# crystal, experimental, refinement or atomic coordinate data resulting 
# from the CCDC's data processing and validation procedures.
#
#######################################################################

data_LELZEK
_chemical_formula_moiety         'C28 H22 F1 N3 O2'
_chemical_name_systematic        
5-[3-(4-fluorophenyl)-1-isopropyl-1H-indol-2-yl]-2-(4-nitrophenyl)penta-2,4-dienenitrile
_symmetry_cell_setting           triclinic
_symmetry_space_group_name_H-M   'P -1'
_symmetry_Int_Tables_number      2
_space_group_name_Hall           '-P 1'
loop_
_symmetry_equiv_pos_site_id
_symmetry_equiv_pos_as_xyz
1 x,y,z
2 -x,-y,-z
_cell_length_a                   6.8722(3)
_cell_length_b                   12.1460(5)
_cell_length_c                   15.6701(5)
_cell_angle_alpha                109.070(3)
_cell_angle_beta                 91.048(3)
_cell_angle_gamma                106.353(3)
_cell_volume                     1177.38
_cell_formula_units_Z            2
loop_
_atom_site_label
_atom_site_type_symbol
_atom_site_fract_x
_atom_site_fract_y
_atom_site_fract_z
C1 C 0.9501(2) 0.83628(14) 0.13248(11)
C2 C 1.1190(3) 0.89319(15) 0.09619(12)
H1 H 1.1508 0.9755 0.1029
C3 C 1.2354(3) 0.82282(17) 0.05039(13)
H2 H 1.3461 0.8582 0.0247
C4 C 1.1927(3) 0.70025(17) 0.04126(12)
H3 H 1.2747 0.6555 0.0096
C5 C 1.0315(2) 0.64465(15) 0.07827(11)
H4 H 1.0052 0.5632 0.0731
C6 C 0.9068(2) 0.71275(13) 0.12409(10)
C7 C 0.7256(2) 0.68053(13) 0.16498(10)
C8 C 0.6227(2) 0.55547(13) 0.16347(10)
C9 C 0.7219(3) 0.49745(16) 0.20380(13)
H5 H 0.8530 0.5395 0.2341
C10 C 0.6322(4) 0.37870(18) 0.20052(16)
H6 H 0.6996 0.3416 0.2294
C11 C 0.4422(3) 0.31759(17) 0.15382(16)
C12 C 0.3390(3) 0.36931(18) 0.11204(16)
H7 H 0.2094 0.3254 0.0806
C13 C 0.4294(3) 0.48853(16) 0.11683(14)
H8 H 0.3594 0.5247 0.0882
C14 C 0.6649(2) 0.78487(14) 0.19748(10)
C15 C 0.8047(3) 1.00874(14) 0.20883(13)
H9 H 0.6813 1.0123 0.2386
C16 C 0.7927(4) 1.0549(2) 0.12997(17)
H10 H 0.9191 1.0630 0.1039
H11 H 0.7687 1.1330 0.1518
H12 H 0.6828 0.9977 0.0845
C17 C 0.9850(4) 1.08812(18) 0.28009(15)
H13 H 0.9796 1.0584 0.3300
H14 H 0.9803 1.1709 0.3016
H15 H 1.1096 1.0855 0.2539
C18 C 0.4936(2) 0.80361(14) 0.24522(11)
H16 H 0.4518 0.8697 0.2442
C19 C 0.3882(2) 0.73532(16) 0.29095(11)
H17 H 0.4245 0.6678 0.2927
C20 C 0.2220(2) 0.76350(15) 0.33707(11)
H18 H 0.1900 0.8318 0.3342
C21 C 0.1061(2) 0.69977(15) 0.38477(11)
C22 C 0.1498(3) 0.5920(2) 0.38605(15)
C23 C -0.0625(2) 0.73144(15) 0.43395(11)
C24 C -0.1668(3) 0.66103(18) 0.48277(14)
H19 H -0.1309 0.5929 0.4832
C25 C -0.3223(3) 0.6904(2) 0.53049(15)
H20 H -0.3916 0.6423 0.5626
C26 C -0.3732(3) 0.79128(17) 0.52991(12)
C27 C -0.2763(3) 0.86267(18) 0.48187(13)
H21 H -0.3140 0.9303 0.4816
C28 C -0.1221(3) 0.83186(17) 0.43412(13)
H22 H -0.0559 0.8794 0.4011
F1 F 0.3559(2) 0.20001(11) 0.14813(13)
N1 N 0.8017(2) 0.88011(11) 0.17696(9)
N2 N 0.163(4) 0.4937(19) 0.3751(16)
N3 N -0.5326(3) 0.82640(19) 0.58375(13)
O1 O -0.6262(4) 0.7594(2) 0.62161(18)
O2 O -0.5682(3) 0.91974(18) 0.58679(14)
N4? N 0.216(4) 0.526(3) 0.402(3)
loop_
_geom_bond_atom_site_label_1
_geom_bond_atom_site_label_2
_geom_bond_site_symmetry_1
_geom_bond_site_symmetry_2
C1 C2 1_555 1_555
C2 H1 1_555 1_555
C3 C2 1_555 1_555
H2 C3 1_555 1_555
C4 C3 1_555 1_555
H3 C4 1_555 1_555
C5 C4 1_555 1_555
H4 C5 1_555 1_555
C6 C1 1_555 1_555
C7 C6 1_555 1_555
C8 C7 1_555 1_555
C9 C8 1_555 1_555
H5 C9 1_555 1_555
C10 C9 1_555 1_555
H6 C10 1_555 1_555
C11 C10 1_555 1_555
C12 C11 1_555 1_555
H7 C12 1_555 1_555
C13 C8 1_555 1_555
H8 C13 1_555 1_555
C14 C7 1_555 1_555
C15 H9 1_555 1_555
C16 C15 1_555 1_555
H10 C16 1_555 1_555
H11 C16 1_555 1_555
H12 C16 1_555 1_555
C17 C15 1_555 1_555
H13 C17 1_555 1_555
H14 C17 1_555 1_555
H15 C17 1_555 1_555
C18 C14 1_555 1_555
H16 C18 1_555 1_555
C19 C18 1_555 1_555
H17 C19 1_555 1_555
C20 C19 1_555 1_555
H18 C20 1_555 1_555
C21 C20 1_555 1_555
C22 C21 1_555 1_555
C23 C21 1_555 1_555
C24 C23 1_555 1_555
H19 C24 1_555 1_555
C25 C24 1_555 1_555
H20 C25 1_555 1_555
C26 C25 1_555 1_555
C27 C26 1_555 1_555
H21 C27 1_555 1_555
C28 C23 1_555 1_555
H22 C28 1_555 1_555
F1 C11 1_555 1_555
N1 C1 1_555 1_555
N2 C22 1_555 1_555
N3 C26 1_555 1_555
O1 N3 1_555 1_555
O2 N3 1_555 1_555
C5 C6 1_555 1_555
C12 C13 1_555 1_555
C14 N1 1_555 1_555
C15 N1 1_555 1_555
C27 C28 1_555 1_555

#END
