
#######################################################################
#
#                 Cambridge Crystallographic Data Centre
#                                CCDC 
#
#######################################################################
#
# If this CIF has been generated from an entry in the Cambridge 
# Structural Database, then it will include bibliographic, chemical, 
# crystal, experimental, refinement or atomic coordinate data resulting 
# from the CCDC's data processing and validation procedures.
#
#######################################################################

data_LEMGUI
_chemical_name_common            
N-(2-iodophenyl)-N-methyl-5-oxo-5-phenylpentanamide
_chemical_formula_moiety         'C19 H20 I1 N1 O2'
_chemical_name_systematic        
N-(2-iodophenyl)-N-methyl-5-(4-methylphenyl)-5-oxopentanamide
_symmetry_cell_setting           triclinic
_symmetry_space_group_name_H-M   'P -1'
_symmetry_Int_Tables_number      2
_space_group_name_Hall           '-P 1'
loop_
_symmetry_equiv_pos_site_id
_symmetry_equiv_pos_as_xyz
1 x,y,z
2 -x,-y,-z
_cell_length_a                   8.4076(5)
_cell_length_b                   9.8021(6)
_cell_length_c                   11.6851(6)
_cell_angle_alpha                112.053(2)
_cell_angle_beta                 94.500(2)
_cell_angle_gamma                95.336(2)
_cell_volume                     881.938
_exptl_crystal_colour            white
_cell_formula_units_Z            2
loop_
_atom_site_label
_atom_site_type_symbol
_atom_site_fract_x
_atom_site_fract_y
_atom_site_fract_z
C1 C 0.8841(6) 0.4691(6) 0.1179(4)
H1 H 0.9241 0.5634 0.1166
H2 H 0.7867 0.4285 0.0614
H3 H 0.9632 0.4025 0.0931
C2 C 0.8499(5) 0.4895(5) 0.2480(4)
C3 C 0.9039(5) 0.6235(5) 0.3476(4)
H4 H 0.9636 0.6994 0.3338
C4 C 0.8696(5) 0.6452(4) 0.4668(4)
H5 H 0.9061 0.7356 0.5319
C5 C 0.7809(4) 0.5328(4) 0.4901(3)
C6 C 0.7302(5) 0.3980(4) 0.3911(4)
H6 H 0.6726 0.3213 0.4051
C7 C 0.7642(6) 0.3765(5) 0.2721(4)
H7 H 0.7293 0.2855 0.2073
C8 C 0.7434(4) 0.5617(4) 0.6194(3)
C9 C 0.6528(5) 0.4375(4) 0.6442(3)
H8 H 0.7093 0.3511 0.6152
H9 H 0.5470 0.4110 0.5963
C10 C 0.6330(5) 0.4755(4) 0.7802(3)
H10 H 0.5818 0.5649 0.8108
H11 H 0.7386 0.4960 0.8277
C11 C 0.5324(5) 0.3506(4) 0.8019(3)
H12 H 0.5101 0.3866 0.8877
H13 H 0.4302 0.3244 0.7492
C12 C 0.6151(4) 0.2124(4) 0.7749(3)
C13 C 0.5979(5) -0.0457(4) 0.7563(4)
H14 H 0.5973 -0.0936 0.6679
H15 H 0.5356 -0.1100 0.7859
H16 H 0.7066 -0.0243 0.7963
C14 C 0.3684(4) 0.0970(4) 0.8221(3)
C15 C 0.3491(4) 0.1431(4) 0.9540(4)
H17 H 0.4376 0.1679 1.0143
C16 C 0.1972(5) 0.1484(4) 0.9850(3)
H18 H 0.1828 0.1825 1.0687
C17 C 0.0622(5) 0.1050(4) 0.8969(4)
H19 H -0.0400 0.1089 0.9222
C18 C 0.0793(4) 0.0559(4) 0.7712(3)
H20 H -0.0115 0.0255 0.7124
C19 C 0.2320(4) 0.0521(4) 0.7333(3)
I1 I 0.25601(3) -0.02091(3) 0.54325(2)
N1 N 0.5279(3) 0.0930(3) 0.7850(3)
O1 O 0.7867(4) 0.6832(3) 0.7029(3)
O2 O 0.7514(3) 0.2054(3) 0.7465(3)
loop_
_geom_bond_atom_site_label_1
_geom_bond_atom_site_label_2
_geom_bond_site_symmetry_1
_geom_bond_site_symmetry_2
C1 H1 1_555 1_555
H2 C1 1_555 1_555
H3 C1 1_555 1_555
C2 C1 1_555 1_555
C3 C2 1_555 1_555
H4 C3 1_555 1_555
C4 C3 1_555 1_555
H5 C4 1_555 1_555
C5 C4 1_555 1_555
C6 C5 1_555 1_555
H6 C6 1_555 1_555
C7 C2 1_555 1_555
H7 C7 1_555 1_555
C8 C5 1_555 1_555
C9 C8 1_555 1_555
H8 C9 1_555 1_555
H9 C9 1_555 1_555
C10 C9 1_555 1_555
H10 C10 1_555 1_555
H11 C10 1_555 1_555
C11 C10 1_555 1_555
H12 C11 1_555 1_555
H13 C11 1_555 1_555
C12 C11 1_555 1_555
C13 H14 1_555 1_555
H15 C13 1_555 1_555
H16 C13 1_555 1_555
C14 C15 1_555 1_555
C15 H17 1_555 1_555
C16 C15 1_555 1_555
H18 C16 1_555 1_555
C17 C16 1_555 1_555
H19 C17 1_555 1_555
C18 C17 1_555 1_555
H20 C18 1_555 1_555
C19 C14 1_555 1_555
I1 C19 1_555 1_555
N1 C12 1_555 1_555
O1 C8 1_555 1_555
O2 C12 1_555 1_555
C6 C7 1_555 1_555
C13 N1 1_555 1_555
C14 N1 1_555 1_555
C18 C19 1_555 1_555

#END
