
#######################################################################
#
#                 Cambridge Crystallographic Data Centre
#                                CCDC 
#
#######################################################################
#
# If this CIF has been generated from an entry in the Cambridge 
# Structural Database, then it will include bibliographic, chemical, 
# crystal, experimental, refinement or atomic coordinate data resulting 
# from the CCDC's data processing and validation procedures.
#
#######################################################################

data_LEMJUJ
_chemical_formula_moiety         'C16 H16 N2 S1'
_chemical_name_systematic        3-(piperidin-1-yl)naphtho(2,3-d)isothiazole
_symmetry_cell_setting           triclinic
_symmetry_space_group_name_H-M   'P -1'
_symmetry_Int_Tables_number      2
_space_group_name_Hall           '-P 1'
loop_
_symmetry_equiv_pos_site_id
_symmetry_equiv_pos_as_xyz
1 x,y,z
2 -x,-y,-z
_cell_length_a                   6.9033(5)
_cell_length_b                   8.3374(6)
_cell_length_c                   12.0033(9)
_cell_angle_alpha                104.056(1)
_cell_angle_beta                 98.015(1)
_cell_angle_gamma                100.406(1)
_cell_volume                     646.87
_exptl_crystal_colour            orange
_exptl_crystal_description       plates
_chemical_melting_point          '121 deg.C'
_cell_formula_units_Z            2
loop_
_atom_site_label
_atom_site_type_symbol
_atom_site_fract_x
_atom_site_fract_y
_atom_site_fract_z
S1 S -0.08079(6) 0.21504(5) 0.32750(3)
C1 C 0.2263(2) 0.51387(19) 0.39997(13)
H1 H 0.1497 0.5736 0.4482
C2 C 0.5118(2) 0.76377(19) 0.45977(13)
H2 H 0.4417 0.8247 0.5119
C3 C 0.6987(2) 0.83942(19) 0.45057(14)
H3 H 0.7575 0.9523 0.4966
C4 C 0.8062(2) 0.7521(2) 0.37332(14)
H4 H 0.9360 0.8069 0.3673
C5 C 0.7242(2) 0.58943(19) 0.30733(13)
H5 H 0.7975 0.5320 0.2556
C6 C 0.4461(2) 0.33503(18) 0.25023(13)
H6 H 0.5168 0.2758 0.1976
C7 C 0.1444(2) 0.08100(18) 0.21005(13)
N1 N -0.03289(18) 0.04525(16) 0.23605(11)
C8 C 0.1499(2) 0.34725(19) 0.33655(13)
C9 C 0.2604(2) 0.25481(18) 0.26353(13)
C10 C 0.5302(2) 0.50480(18) 0.31502(13)
C11 C 0.4200(2) 0.59426(18) 0.39215(13)
N2 N 0.21358(17) -0.03943(15) 0.13274(11)
C12 C 0.0579(2) -0.19154(18) 0.06721(13)
H7 H -0.0610 -0.1574 0.0319
H8 H 0.0159 -0.2582 0.1211
C13 C 0.1397(2) -0.29926(19) -0.02828(13)
H9 H 0.1722 -0.2348 -0.0850
H10 H 0.0356 -0.4027 -0.0707
C14 C 0.3276(2) -0.35018(18) 0.02177(14)
H11 H 0.3829 -0.4135 -0.0428
H12 H 0.2932 -0.4250 0.0721
C15 C 0.4840(2) -0.19135(19) 0.09341(14)
H13 H 0.6015 -0.2245 0.1313
H14 H 0.5302 -0.1235 0.0410
C16 C 0.3954(2) -0.08521(19) 0.18618(14)
H15 H 0.3602 -0.1498 0.2424
H16 H 0.4967 0.0195 0.2298
loop_
_geom_bond_atom_site_label_1
_geom_bond_atom_site_label_2
_geom_bond_site_symmetry_1
_geom_bond_site_symmetry_2
S1 N1 1_555 1_555
C1 H1 1_555 1_555
C2 H2 1_555 1_555
C3 C2 1_555 1_555
H3 C3 1_555 1_555
C4 C3 1_555 1_555
H4 C4 1_555 1_555
C5 C4 1_555 1_555
H5 C5 1_555 1_555
C6 H6 1_555 1_555
C7 N1 1_555 1_555
C8 S1 1_555 1_555
C9 C6 1_555 1_555
C10 C5 1_555 1_555
C11 C1 1_555 1_555
N2 C7 1_555 1_555
C12 N2 1_555 1_555
H7 C12 1_555 1_555
H8 C12 1_555 1_555
C13 C12 1_555 1_555
H9 C13 1_555 1_555
H10 C13 1_555 1_555
C14 C13 1_555 1_555
H11 C14 1_555 1_555
H12 C14 1_555 1_555
C15 C14 1_555 1_555
H13 C15 1_555 1_555
H14 C15 1_555 1_555
C16 N2 1_555 1_555
H15 C16 1_555 1_555
H16 C16 1_555 1_555
C1 C8 1_555 1_555
C2 C11 1_555 1_555
C6 C10 1_555 1_555
C7 C9 1_555 1_555
C8 C9 1_555 1_555
C10 C11 1_555 1_555
C15 C16 1_555 1_555

#END
