
#######################################################################
#
#                 Cambridge Crystallographic Data Centre
#                                CCDC 
#
#######################################################################
#
# If this CIF has been generated from an entry in the Cambridge 
# Structural Database, then it will include bibliographic, chemical, 
# crystal, experimental, refinement or atomic coordinate data resulting 
# from the CCDC's data processing and validation procedures.
#
#######################################################################

data_LENGIX
_chemical_formula_moiety         'C6 H13 N1 O2,C5 H11 N1 O2'
_chemical_name_systematic        'L-isoleucine L-valine'
_symmetry_cell_setting           monoclinic
_symmetry_space_group_name_H-M   'C 2'
_symmetry_Int_Tables_number      5
_space_group_name_Hall           'C 2y'
loop_
_symmetry_equiv_pos_site_id
_symmetry_equiv_pos_as_xyz
1 x,y,z
2 1/2+x,1/2+y,z
3 -x,y,-z
4 1/2-x,1/2+y,-z
_cell_length_a                   26.142(6)
_cell_length_b                   5.2621(12)
_cell_length_c                   9.688(2)
_cell_angle_alpha                90
_cell_angle_beta                 96.961(7)
_cell_angle_gamma                90
_cell_volume                     1322.88
_exptl_crystal_colour            colorless
_exptl_crystal_description       platelet
_cell_formula_units_Z            4
loop_
_atom_site_label
_atom_site_type_symbol
_atom_site_fract_x
_atom_site_fract_y
_atom_site_fract_z
O1 O 0.29652(15) -0.0312(8) 1.3870(3)
O2 O 0.32358(16) -0.4067(9) 1.3180(3)
C1 C 0.3116(2) -0.1753(11) 1.2972(5)
C2 C 0.3202(2) -0.0638(10) 1.1570(5)
C3 C 0.3782(2) -0.0218(12) 1.1402(5)
C4 C 0.4082(2) 0.0854(14) 1.2749(6)
C5 C 0.4018(3) -0.2710(13) 1.0968(6)
C6 C 0.4579(5) -0.256(3) 1.0746(14)
N1 N 0.29143(18) 0.1807(10) 1.1365(4)
H1 H 0.3055 -0.1848 1.0848
H2 H 0.3799 0.1052 1.0651
H3 H 0.4418 0.1471 1.2551
H4 H 0.3890 0.2200 1.3127
H5 H 0.4135 -0.0485 1.3441
H6 H 0.3807 -0.3354 1.0133
H7 H 0.4012 -0.3949 1.1721
H8 H 0.4670 -0.4127 1.0269
H9 H 0.4602 -0.1165 1.0056
H10 H 0.4794 -0.2276 1.1540
H11 H 0.2955 0.2466 1.0523
H12 H 0.2571 0.1573 1.1387
H13 H 0.3035 0.2943 1.2018
O3 O 0.29930(16) 0.3790(8) 0.8730(4)
C7 C 0.3146(2) 0.2211(14) 0.7895(5)
O4 O 0.31350(17) -0.0148(9) 0.7981(4)
C8 C 0.3388(2) 0.3435(11) 0.6647(5)
N2 N 0.30737(19) 0.5645(10) 0.6106(4)
C9 C 0.3943(2) 0.4307(12) 0.7122(6)
C10 C 0.4192(3) 0.5504(17) 0.5946(6)
C11 C 0.4285(3) 0.2085(18) 0.7763(9)
H15 H 0.3389 0.2145 0.5910
H16 H 0.3938 0.5617 0.7863
H17 H 0.4576 0.6302 0.6373
H18 H 0.4213 0.4083 0.5162
H19 H 0.3941 0.6993 0.5563
H20 H 0.4645 0.2516 0.7875
H21 H 0.4229 0.0619 0.7167
H22 H 0.4189 0.1620 0.8690
H23 H 0.3220 0.6391 0.5349
H24 H 0.2732 0.5081 0.5796
H25 H 0.3064 0.6872 0.6824
H14? H 0.4364 -0.2437 1.0783
loop_
_geom_bond_atom_site_label_1
_geom_bond_atom_site_label_2
_geom_bond_site_symmetry_1
_geom_bond_site_symmetry_2
O1 C1 1_555 1_555
O2 C1 1_555 1_555
C1 C2 1_555 1_555
C2 C3 1_555 1_555
C3 C4 1_555 1_555
C4 H3 1_555 1_555
C5 C3 1_555 1_555
C6 C5 1_555 1_555
N1 C2 1_555 1_555
H1 C2 1_555 1_555
H2 C3 1_555 1_555
H4 C4 1_555 1_555
H5 C4 1_555 1_555
H6 C5 1_555 1_555
H7 C5 1_555 1_555
H8 C6 1_555 1_555
H9 C6 1_555 1_555
H10 C6 1_555 1_555
H11 N1 1_555 1_555
H12 N1 1_555 1_555
H13 N1 1_555 1_555
O3 C7 1_555 1_555
C7 O4 1_555 1_555
C8 C7 1_555 1_555
N2 C8 1_555 1_555
C9 C8 1_555 1_555
C10 C9 1_555 1_555
C11 C9 1_555 1_555
H15 C8 1_555 1_555
H16 C9 1_555 1_555
H17 C10 1_555 1_555
H18 C10 1_555 1_555
H19 C10 1_555 1_555
H20 C11 1_555 1_555
H21 C11 1_555 1_555
H22 C11 1_555 1_555
H23 N2 1_555 1_555
H24 N2 1_555 1_555
H25 N2 1_555 1_555

#END
