
#######################################################################
#
#                 Cambridge Crystallographic Data Centre
#                                CCDC 
#
#######################################################################
#
# If this CIF has been generated from an entry in the Cambridge 
# Structural Database, then it will include bibliographic, chemical, 
# crystal, experimental, refinement or atomic coordinate data resulting 
# from the CCDC's data processing and validation procedures.
#
#######################################################################

data_LENPAW
_chemical_formula_moiety         'C26 H38 N10 O4,2(C1 H4 O1)'
_chemical_name_systematic        
'3,6,9,12,20,23,26,29,35,36-Decaazatricyclo[29.3.1.1^14,18^]hexatriaconta-1(36),14(35),15,17,31,33-hexaene-2,13,19,30-tetraone bis(methanol) clathrate'
_symmetry_cell_setting           triclinic
_symmetry_space_group_name_H-M   'P -1'
_symmetry_Int_Tables_number      2
_space_group_name_Hall           '-P 1'
loop_
_symmetry_equiv_pos_site_id
_symmetry_equiv_pos_as_xyz
1 x,y,z
2 -x,-y,-z
_cell_length_a                   9.1721(7)
_cell_length_b                   9.4004(7)
_cell_length_c                   10.7902(8)
_cell_angle_alpha                102.0700(10)
_cell_angle_beta                 115.0170(10)
_cell_angle_gamma                92.1090(10)
_cell_volume                     816.152
_exptl_crystal_colour            colorless
_exptl_crystal_description       prism
_cell_formula_units_Z            1
loop_
_atom_site_label
_atom_site_type_symbol
_atom_site_fract_x
_atom_site_fract_y
_atom_site_fract_z
N1 N 0.45347(12) 0.67111(11) 0.16979(10)
C1 C 0.21590(15) 0.79245(15) 0.07301(14)
O2 O 0.06877(13) 0.78355(14) 0.00659(16)
O3 O 0.76364(12) 0.45851(11) 0.31804(12)
N2 N 0.31538(14) 0.91876(12) 0.14503(12)
H5 H 0.414(2) 0.9154(18) 0.1970(18)
C3 C 0.29614(14) 0.65581(14) 0.08061(12)
N3 N 0.77327(13) 0.70451(13) 0.34707(11)
H6 H 0.7245(19) 0.7757(19) 0.3248(16)
C4 C 0.20313(16) 0.51972(16) 0.00264(14)
H7 H 0.091(2) 0.514(2) -0.0607(19)
N4 N 1.22614(12) 0.73789(12) 0.49339(10)
H8 H 1.2352(18) 0.6797(17) 0.5516(16)
C5 C 0.27575(18) 0.39505(16) 0.01815(15)
H9 H 0.212(2) 0.296(2) -0.0309(19)
C6 C 0.43815(17) 0.40871(15) 0.11054(14)
H10 H 0.493(2) 0.322(2) 0.1259(17)
N5 N 1.58474(15) 0.86778(13) 0.58057(14)
H11 H 1.584(2) 0.894(2) 0.503(2)
C7 C 0.52248(14) 0.54900(13) 0.18451(12)
C8 C 0.69794(15) 0.56655(14) 0.28905(13)
C9 C 0.94245(16) 0.73814(17) 0.45201(14)
H12 H 0.966(2) 0.674(2) 0.5191(18)
H13 H 0.961(2) 0.839(2) 0.501(2)
C10 C 1.05741(16) 0.71295(18) 0.38534(14)
H14 H 1.046(2) 0.778(2) 0.324(2)
H15 H 1.025(2) 0.609(2) 0.323(2)
C11 C 1.33565(17) 0.69391(18) 0.42983(14)
H16 H 1.326(2) 0.757(2) 0.3626(18)
H17 H 1.302(2) 0.591(2) 0.374(2)
C12 C 1.51112(16) 0.71509(15) 0.53752(15)
H18 H 1.5165(18) 0.6820(17) 0.6184(16)
H19 H 1.570(2) 0.650(2) 0.4963(19)
C13 C 1.74837(18) 0.89617(19) 0.6961(2)
H20 H 1.805(3) 0.812(2) 0.696(2)
H21 H 1.811(2) 0.977(2) 0.6843(19)
C14 C 0.25566(19) 1.05857(17) 0.16276(18)
H22 H 0.332(2) 1.133(2) 0.1558(19)
H23 H 0.154(3) 1.048(2) 0.087(2)
N1A N 1.54653(12) 1.32889(11) 0.83021(10)
C1A C 1.78410(15) 1.20755(15) 0.92699(14)
O2A O 1.93123(13) 1.21645(14) 0.99341(16)
O3A O 1.23636(12) 1.54149(11) 0.68196(12)
N2A N 1.68462(14) 1.08124(12) 0.85497(12)
H5A H 1.586(2) 1.0846(18) 0.8030(18)
C3A C 1.70386(14) 1.34419(14) 0.91939(12)
N3A N 1.22673(13) 1.29549(13) 0.65293(11)
H6A H 1.2755(19) 1.2243(19) 0.6752(16)
C4A C 1.79687(16) 1.48028(16) 0.99736(14)
H7A H 1.909(2) 1.486(2) 1.0607(19)
N4A N 0.77386(12) 1.26211(12) 0.50661(10)
H8A H 0.7648(18) 1.3203(17) 0.4484(16)
C5A C 1.72425(18) 1.60495(16) 0.98185(15)
H9A H 1.788(2) 1.704(2) 1.0309(19)
C6A C 1.56185(17) 1.59129(15) 0.88946(14)
H10A H 1.507(2) 1.678(2) 0.8741(17)
N5A N 0.41526(15) 1.13222(13) 0.41943(14)
H11A H 0.416(2) 1.106(2) 0.497(2)
C7A C 1.47752(14) 1.45100(13) 0.81549(12)
C8A C 1.30206(15) 1.43345(14) 0.71095(13)
C9A C 1.05755(16) 1.26186(17) 0.54799(14)
H12A H 1.034(2) 1.326(2) 0.4809(18)
H13A H 1.039(2) 1.161(2) 0.499(2)
C10A C 0.94259(16) 1.28705(18) 0.61466(14)
H14A H 0.954(2) 1.222(2) 0.676(2)
H15A H 0.975(2) 1.391(2) 0.677(2)
C11A C 0.66435(17) 1.30609(18) 0.57017(14)
H16A H 0.674(2) 1.243(2) 0.6374(18)
H17A H 0.698(2) 1.409(2) 0.626(2)
C12A C 0.48888(16) 1.28491(15) 0.46248(15)
H18A H 0.4835(18) 1.3180(17) 0.3816(16)
H19A H 0.430(2) 1.350(2) 0.5037(19)
C13A C 0.25163(18) 1.10383(19) 0.3039(2)
H20A H 0.195(3) 1.188(2) 0.304(2)
H21A H 0.189(2) 1.023(2) 0.3157(19)
C14A C 1.74434(19) 0.94143(17) 0.83724(18)
H22A H 1.668(2) 0.867(2) 0.8442(19)
H23A H 1.846(3) 0.952(2) 0.913(2)
O1 O 0.69097(14) -0.00565(12) 0.30526(12)
H1 H 0.715(2) 0.073(2) 0.374(2)
C2 C 0.7263(3) 0.0310(3) 0.2009(2)
H2 H 0.758(4) 0.131(4) 0.211(3)
H3 H 0.653(4) -0.018(3) 0.117(4)
H4 H 0.818(6) -0.002(5) 0.203(4)
loop_
_geom_bond_atom_site_label_1
_geom_bond_atom_site_label_2
_geom_bond_site_symmetry_1
_geom_bond_site_symmetry_2
N1 C3 1_555 1_555
O1 H1 1_555 1_555
C1 O2 1_555 1_555
C2 O1 1_555 1_555
H2 C2 1_555 1_555
H3 C2 1_555 1_555
H4 C2 1_555 1_555
O3 C8 1_555 1_555
N2 C1 1_555 1_555
H5 N2 1_555 1_555
C3 C1 1_555 1_555
N3 H6 1_555 1_555
C4 C3 1_555 1_555
H7 C4 1_555 1_555
N4 H8 1_555 1_555
C5 C4 1_555 1_555
H9 C5 1_555 1_555
C6 C5 1_555 1_555
H10 C6 1_555 1_555
N5 H11 1_555 1_555
C7 N1 1_555 1_555
C8 N3 1_555 1_555
C9 N3 1_555 1_555
H12 C9 1_555 1_555
H13 C9 1_555 1_555
C10 N4 1_555 1_555
H14 C10 1_555 1_555
H15 C10 1_555 1_555
C11 N4 1_555 1_555
H16 C11 1_555 1_555
H17 C11 1_555 1_555
C12 N5 1_555 1_555
H18 C12 1_555 1_555
H19 C12 1_555 1_555
C13 N5 1_555 1_555
H20 C13 1_555 1_555
H21 C13 1_555 1_555
C14 N2 1_555 1_555
H22 C14 1_555 1_555
H23 C14 1_555 1_555
N1A C3A 1_555 1_555
C1A O2A 1_555 1_555
O3A C8A 1_555 1_555
N2A C1A 1_555 1_555
H5A N2A 1_555 1_555
C3A C1A 1_555 1_555
N3A H6A 1_555 1_555
C4A C3A 1_555 1_555
H7A C4A 1_555 1_555
N4A H8A 1_555 1_555
C5A C4A 1_555 1_555
H9A C5A 1_555 1_555
C6A C5A 1_555 1_555
H10A C6A 1_555 1_555
N5A H11A 1_555 1_555
C7A N1A 1_555 1_555
C8A N3A 1_555 1_555
C9A N3A 1_555 1_555
H12A C9A 1_555 1_555
H13A C9A 1_555 1_555
C10A N4A 1_555 1_555
H14A C10A 1_555 1_555
H15A C10A 1_555 1_555
C11A N4A 1_555 1_555
H16A C11A 1_555 1_555
H17A C11A 1_555 1_555
C12A N5A 1_555 1_555
H18A C12A 1_555 1_555
H19A C12A 1_555 1_555
C13A C14 1_555 1_555
H20A C13A 1_555 1_555
H21A C13A 1_555 1_555
C14A C13 1_555 1_555
H22A C14A 1_555 1_555
H23A C14A 1_555 1_555
C6 C7 1_555 1_555
C7 C8 1_555 1_555
C9 C10 1_555 1_555
C11 C12 1_555 1_555
N2A C14A 1_555 1_555
C6A C7A 1_555 1_555
N5A C13A 1_555 1_555
C7A C8A 1_555 1_555
C9A C10A 1_555 1_555
C11A C12A 1_555 1_555

#END
