
#######################################################################
#
#                 Cambridge Crystallographic Data Centre
#                                CCDC 
#
#######################################################################
#
# If this CIF has been generated from an entry in the Cambridge 
# Structural Database, then it will include bibliographic, chemical, 
# crystal, experimental, refinement or atomic coordinate data resulting 
# from the CCDC's data processing and validation procedures.
#
#######################################################################

data_LENQEB
_chemical_formula_moiety         'C14 H14 F3 N3 O3'
_chemical_name_systematic        
'Methyl 2-diazo-3-(N-ethyl-trifluoroacetamido)-3-phenylpropionate'
_symmetry_cell_setting           monoclinic
_symmetry_space_group_name_H-M   'P 21/n'
_symmetry_Int_Tables_number      14
_space_group_name_Hall           '-P 2yn'
loop_
_symmetry_equiv_pos_site_id
_symmetry_equiv_pos_as_xyz
1 x,y,z
2 1/2-x,1/2+y,1/2-z
3 -x,-y,-z
4 1/2+x,1/2-y,1/2+z
_cell_length_a                   13.072(3)
_cell_length_b                   7.8287(16)
_cell_length_c                   15.190(3)
_cell_angle_alpha                90
_cell_angle_beta                 97.86(3)
_cell_angle_gamma                90
_cell_volume                     1539.89
_exptl_crystal_colour            yellow
_exptl_crystal_description       block
_cell_formula_units_Z            4
loop_
_atom_site_label
_atom_site_type_symbol
_atom_site_fract_x
_atom_site_fract_y
_atom_site_fract_z
F1 F 0.43152(12) 0.3775(2) 0.08166(10)
F2 F 0.47684(12) 0.2147(3) -0.01657(13)
F3 F 0.34530(11) 0.37008(18) -0.04447(9)
O1 O 0.02947(10) 0.18496(19) 0.08205(10)
O2 O 0.06812(10) 0.13962(19) 0.22984(9)
O3 O 0.37334(10) 0.0699(2) 0.12521(9)
N1 N 0.24804(11) 0.0710(2) 0.00558(9)
N2 N 0.20906(13) -0.0755(2) 0.20708(12)
N3 N 0.25128(17) -0.1331(3) 0.26992(12)
C1 C 0.07973(14) 0.1133(3) 0.14438(14)
C2 C 0.15851(14) -0.0099(3) 0.13373(12)
C3 C 0.18559(13) -0.0623(2) 0.04514(12)
H1 H 0.1198 -0.0684 0.0056
C4 C 0.23330(16) -0.2393(3) 0.04252(14)
H2 H 0.2570 -0.2557 -0.0147
H3 H 0.2930 -0.2464 0.0880
C5 C 0.15874(18) -0.3805(3) 0.05716(17)
H4 H 0.1928 -0.4890 0.0556
H5 H 0.1006 -0.3768 0.0112
H6 H 0.1355 -0.3657 0.1139
C6 C 0.33700(14) 0.1249(3) 0.05253(13)
C7 C 0.39599(16) 0.2734(3) 0.01673(15)
C8 C -0.01028(17) 0.2608(3) 0.24523(17)
H7 H -0.0127 0.2703 0.3079
H8 H -0.0761 0.2227 0.2160
H9 H 0.0057 0.3702 0.2220
C9 C 0.21609(14) 0.1041(2) -0.08788(12)
C10 C 0.12426(14) 0.1889(3) -0.11393(13)
H10 H 0.0861 0.2330 -0.0718
C11 C 0.08975(16) 0.2074(3) -0.20418(14)
H11 H 0.0280 0.2640 -0.2226
C12 C 0.14655(19) 0.1422(3) -0.26622(14)
H12 H 0.1228 0.1548 -0.3264
C13 C 0.2373(2) 0.0595(3) -0.24031(14)
H13 H 0.2756 0.0167 -0.2826
C14 C 0.27225(16) 0.0393(3) -0.15067(12)
H14 H 0.3339 -0.0182 -0.1328
loop_
_geom_bond_atom_site_label_1
_geom_bond_atom_site_label_2
_geom_bond_site_symmetry_1
_geom_bond_site_symmetry_2
F1 C7 1_555 1_555
F2 C7 1_555 1_555
F3 C7 1_555 1_555
O1 C1 1_555 1_555
O2 C1 1_555 1_555
O3 C6 1_555 1_555
N1 C3 1_555 1_555
N2 N3 1_555 1_555
C1 C2 1_555 1_555
C2 N2 1_555 1_555
C3 C2 1_555 1_555
H1 C3 1_555 1_555
C4 C3 1_555 1_555
H2 C4 1_555 1_555
H3 C4 1_555 1_555
C5 C4 1_555 1_555
H4 C5 1_555 1_555
H5 C5 1_555 1_555
H6 C5 1_555 1_555
C6 N1 1_555 1_555
C7 C6 1_555 1_555
C8 O2 1_555 1_555
H7 C8 1_555 1_555
H8 C8 1_555 1_555
H9 C8 1_555 1_555
C9 N1 1_555 1_555
C10 C9 1_555 1_555
H10 C10 1_555 1_555
C11 C10 1_555 1_555
H11 C11 1_555 1_555
C12 C11 1_555 1_555
H12 C12 1_555 1_555
C13 C12 1_555 1_555
H13 C13 1_555 1_555
C14 C9 1_555 1_555
H14 C14 1_555 1_555
C13 C14 1_555 1_555

#END
