
#######################################################################
#
#                 Cambridge Crystallographic Data Centre
#                                CCDC 
#
#######################################################################
#
# If this CIF has been generated from an entry in the Cambridge 
# Structural Database, then it will include bibliographic, chemical, 
# crystal, experimental, refinement or atomic coordinate data resulting 
# from the CCDC's data processing and validation procedures.
#
#######################################################################

data_LENWEJ
_chemical_formula_moiety         'C64 H68 Br4 O8,2(C10 H8 N2)'
_chemical_name_systematic        
"5,11,17,23-tetrakis(bromoethynyl)-2,8,14,20-tetrakis(n-hexyl)-4,24:6,10:12,16:18,22-O,O'-tetramethylenecalix(4)resorcinarene bis(4,4'-bipyridine)"
_symmetry_cell_setting           triclinic
_symmetry_space_group_name_H-M   'P -1'
_symmetry_Int_Tables_number      2
_space_group_name_Hall           '-P 1'
loop_
_symmetry_equiv_pos_site_id
_symmetry_equiv_pos_as_xyz
1 x,y,z
2 -x,-y,-z
_cell_length_a                   14.0898(2)
_cell_length_b                   16.0276(2)
_cell_length_c                   17.0485(2)
_cell_angle_alpha                78.0210(10)
_cell_angle_beta                 88.7700(10)
_cell_angle_gamma                85.2200(10)
_cell_volume                     3753.02
_exptl_crystal_colour            colorless
_exptl_crystal_description       plate
_cell_formula_units_Z            2
loop_
_atom_site_label
_atom_site_type_symbol
_atom_site_fract_x
_atom_site_fract_y
_atom_site_fract_z
Br1 Br 0.28479(5) 0.79148(4) 0.06498(4)
Br2 Br 0.03213(4) 0.45981(4) 0.41109(4)
Br3 Br 0.48745(4) 0.52153(4) 0.68741(3)
Br4 Br 0.76703(7) 0.83256(5) 0.31299(7)
C1 C 0.6219(3) 0.4679(3) 0.1008(3)
C2 C 0.5667(4) 0.5457(3) 0.0864(3)
C3 C 0.4665(4) 0.5486(3) 0.0883(3)
C4 C 0.4231(3) 0.4731(3) 0.1010(3)
C5 C 0.4756(4) 0.3935(3) 0.1166(3)
C6 C 0.5751(3) 0.3937(3) 0.1171(3)
H1 H 0.6121 0.3404 0.1292
C7 C 0.4110(4) 0.6293(3) 0.0780(3)
C8 C 0.3623(4) 0.6949(4) 0.0727(3)
C9 C 0.2694(4) 0.4694(4) 0.1648(3)
H2 H 0.3042 0.4906 0.2057
H3 H 0.2085 0.5051 0.1540
C10 C 0.4240(4) 0.3127(3) 0.1357(3)
H4 H 0.3627 0.3247 0.1054
C11 C 0.3988(3) 0.2964(3) 0.2247(3)
C12 C 0.3156(3) 0.3361(3) 0.2507(3)
C13 C 0.2932(3) 0.3273(3) 0.3318(3)
C14 C 0.3545(3) 0.2750(3) 0.3882(3)
C15 C 0.4382(3) 0.2337(3) 0.3650(3)
C16 C 0.4595(3) 0.2466(3) 0.2828(3)
H5 H 0.5173 0.2205 0.2662
C17 C 0.2085(4) 0.3708(4) 0.3577(3)
C18 C 0.1395(4) 0.4081(4) 0.3787(3)
C19 C 0.3735(4) 0.3146(4) 0.5128(3)
H6 H 0.3284 0.3300 0.5538
H7 H 0.3892 0.3683 0.4763
C20 C 0.5059(4) 0.1802(3) 0.4280(3)
H8 H 0.4666 0.1577 0.4761
C21 C 0.5722(4) 0.2399(3) 0.4523(3)
C22 C 0.5427(4) 0.2874(4) 0.5096(3)
C23 C 0.5984(4) 0.3482(3) 0.5297(3)
C24 C 0.6876(4) 0.3579(3) 0.4930(3)
C25 C 0.7201(3) 0.3127(3) 0.4358(3)
C26 C 0.6603(3) 0.2549(3) 0.4152(3)
H9 H 0.6805 0.2249 0.3745
C27 C 0.5636(4) 0.4020(4) 0.5845(3)
C28 C 0.5325(4) 0.4498(4) 0.6246(3)
C29 C 0.7469(4) 0.4962(3) 0.4747(3)
H10 H 0.7546 0.5356 0.5114
H11 H 0.6847 0.5130 0.4475
C30 C 0.8143(3) 0.3316(3) 0.3926(3)
H12 H 0.8579 0.3468 0.4320
C31 C 0.7968(3) 0.4106(3) 0.3258(3)
C32 C 0.7964(3) 0.4931(3) 0.3412(3)
C33 C 0.7765(3) 0.5657(3) 0.2818(3)
C34 C 0.7569(3) 0.5563(3) 0.2040(3)
C35 C 0.7569(3) 0.4748(3) 0.1860(3)
C36 C 0.7754(3) 0.4050(3) 0.2477(3)
H13 H 0.7735 0.3497 0.2362
C37 C 0.7747(4) 0.6508(4) 0.2965(3)
C38 C 0.7698(5) 0.7227(4) 0.3039(4)
C39 C 0.6434(4) 0.6569(4) 0.1281(3)
H14 H 0.6045 0.6395 0.1769
H15 H 0.6368 0.7201 0.1130
C40 C 0.7296(4) 0.4674(3) 0.1019(3)
H16 H 0.7469 0.5209 0.0646
C41 C 0.4784(4) 0.2358(3) 0.1095(3)
H17 H 0.4965 0.2527 0.0524
H18 H 0.5378 0.2202 0.1411
C42 C 0.4216(5) 0.1585(4) 0.1203(4)
H19 H 0.4130 0.1358 0.1784
H20 H 0.3576 0.1765 0.0969
C43 C 0.4659(6) 0.0890(5) 0.0832(5)
H21 H 0.4441 0.0335 0.1118
H22 H 0.5360 0.0863 0.0885
C44 C 0.4400(9) 0.1035(8) -0.0052(7)
H23 H 0.4435 0.1647 -0.0302
H24 H 0.4868 0.0697 -0.0326
C45 C 0.3409(7) 0.0781(7) -0.0168(8)
H25 H 0.3365 0.0182 0.0122
H26 H 0.2944 0.1147 0.0080
C46 C 0.3129(10) 0.0846(11) -0.1011(8)
H27 H 0.3567 0.1194 -0.1368
H28 H 0.2479 0.1116 -0.1094
H29 H 0.3157 0.0273 -0.1132
C47 C 0.5561(4) 0.1024(3) 0.4000(3)
H30 H 0.5936 0.1226 0.3510
H31 H 0.6008 0.0713 0.4422
C48 C 0.4859(4) 0.0413(3) 0.3824(3)
H32 H 0.4562 0.0141 0.4334
H33 H 0.4347 0.0747 0.3477
C49 C 0.5306(5) -0.0283(4) 0.3418(4)
H34 H 0.5781 -0.0649 0.3783
H35 H 0.5645 -0.0015 0.2928
C50 C 0.4574(5) -0.0841(4) 0.3192(4)
H36 H 0.4300 -0.1172 0.3689
H37 H 0.4049 -0.0467 0.2894
C51 C 0.4988(7) -0.1460(5) 0.2682(5)
H38 H 0.5532 -0.1817 0.2968
H39 H 0.5231 -0.1130 0.2172
C52 C 0.4253(8) -0.2040(6) 0.2499(6)
H40 H 0.3703 -0.1689 0.2232
H41 H 0.4046 -0.2399 0.3000
H42 H 0.4539 -0.2405 0.2147
C53 C 0.8634(4) 0.2544(3) 0.3634(3)
H43 H 0.8670 0.2042 0.4086
H44 H 0.8241 0.2410 0.3209
C54 C 0.9638(4) 0.2697(4) 0.3306(4)
H45 H 0.9606 0.3213 0.2870
H46 H 1.0038 0.2807 0.3738
C55 C 1.0106(4) 0.1943(4) 0.2986(4)
H47 H 1.0099 0.1418 0.3410
H48 H 0.9733 0.1859 0.2527
C56 C 1.1125(5) 0.2081(6) 0.2718(6)
H49 H 1.1125 0.2632 0.2327
H50 H 1.1495 0.2136 0.3190
C57 C 1.1634(7) 0.1396(7) 0.2345(7)
H51 H 1.1261 0.1324 0.1881
H52 H 1.2261 0.1584 0.2141
C58 C 1.1781(11) 0.0565(9) 0.2903(10)
H53 H 1.2130 0.0152 0.2631
H54 H 1.1162 0.0359 0.3086
H55 H 1.2148 0.0630 0.3366
C59 C 0.7843(4) 0.3919(3) 0.0734(3)
H56 H 0.7761 0.3385 0.1133
H57 H 0.7572 0.3858 0.0220
C60 C 0.8899(4) 0.4041(4) 0.0621(4)
H58 H 0.9151 0.4152 0.1124
H59 H 0.8975 0.4556 0.0196
C61 C 0.9499(4) 0.3288(4) 0.0398(4)
H60 H 0.9223 0.3147 -0.0083
H61 H 0.9472 0.2783 0.0843
C62 C 1.0540(5) 0.3468(5) 0.0227(5)
H62 H 1.0563 0.3947 -0.0243
H63 H 1.0793 0.3659 0.0691
C63 C 1.1186(6) 0.2723(5) 0.0064(5)
H64 H 1.1849 0.2890 0.0014
H65 H 1.1160 0.2239 0.0530
C64 C 1.0937(6) 0.2423(6) -0.0681(6)
H66 H 1.0911 0.2907 -0.1140
H67 H 1.0315 0.2184 -0.0609
H68 H 1.1423 0.1981 -0.0780
O1 O 0.3245(2) 0.4785(2) 0.0931(2)
O2 O 0.2502(2) 0.3838(2) 0.1956(2)
O3 O 0.3287(2) 0.2641(2) 0.4686(2)
O4 O 0.4576(3) 0.2733(2) 0.5512(2)
O5 O 0.7459(2) 0.4123(3) 0.5201(2)
O6 O 0.8204(2) 0.5057(2) 0.4164(2)
O7 O 0.7403(3) 0.6290(2) 0.1457(2)
O8 O 0.6079(3) 0.6229(2) 0.0653(2)
C65 C -0.0255(4) 1.0012(4) 0.1499(4)
C66 C 0.0265(5) 1.0453(4) 0.0871(4)
H69 H 0.0082 1.1036 0.0645
C67 C 0.1049(5) 1.0041(5) 0.0574(5)
H70 H 0.1400 1.0360 0.0150
C68 C 0.0845(5) 0.8808(5) 0.1456(5)
H71 H 0.1047 0.8227 0.1672
C69 C 0.0050(5) 0.9171(4) 0.1795(4)
H72 H -0.0279 0.8840 0.2228
C70 C -0.1113(4) 1.0434(3) 0.1821(3)
C71 C -0.1700(4) 1.1042(4) 0.1331(4)
H73 H -0.1565 1.1198 0.0773
C72 C -0.2489(5) 1.1427(4) 0.1652(4)
H74 H -0.2891 1.1833 0.1295
C73 C -0.2155(5) 1.0677(4) 0.2896(4)
H75 H -0.2312 1.0538 0.3450
C74 C -0.1347(4) 1.0249(4) 0.2635(4)
H76 H -0.0963 0.9839 0.3003
N1 N 0.1341(4) 0.9226(4) 0.0848(4)
N2 N -0.2722(4) 1.1269(3) 0.2420(4)
C75 C 0.0416(7) 0.7818(7) 0.3937(6)
C76 C -0.0389(9) 0.7626(9) 0.4377(6)
H77 H -0.0660 0.7105 0.4370
C77 C -0.0815(10) 0.8172(11) 0.4831(7)
H78 H -0.1377 0.8012 0.5122
C78 C 0.0380(9) 0.9099(8) 0.4487(6)
H79 H 0.0703 0.9583 0.4537
C79 C 0.0757(8) 0.8565(7) 0.4022(6)
H80 H 0.1315 0.8726 0.3726
C80 C 0.0855(8) 0.7276(6) 0.3406(5)
C81 C 0.0281(7) 0.6860(6) 0.2984(7)
H81 H -0.0391 0.6909 0.3051
C82 C 0.0685(9) 0.6382(7) 0.2476(7)
H82 H 0.0281 0.6099 0.2195
C83 C 0.2161(8) 0.6672(7) 0.2721(6)
H83 H 0.2827 0.6595 0.2632
C84 C 0.1831(8) 0.7201(7) 0.3252(6)
H84 H 0.2259 0.7496 0.3497
N3 N -0.0464(9) 0.8948(9) 0.4887(6)
N4 N 0.1603(8) 0.6292(5) 0.2354(6)
loop_
_geom_bond_atom_site_label_1
_geom_bond_atom_site_label_2
_geom_bond_site_symmetry_1
_geom_bond_site_symmetry_2
Br1 C8 1_555 1_555
Br2 C18 1_555 1_555
Br3 C28 1_555 1_555
Br4 C38 1_555 1_555
C1 C2 1_555 1_555
C2 C3 1_555 1_555
C3 C4 1_555 1_555
C4 C5 1_555 1_555
C5 C6 1_555 1_555
C6 C1 1_555 1_555
H1 C6 1_555 1_555
C7 C3 1_555 1_555
C8 C7 1_555 1_555
C9 H2 1_555 1_555
H3 C9 1_555 1_555
C10 C5 1_555 1_555
H4 C10 1_555 1_555
C11 C10 1_555 1_555
C12 C11 1_555 1_555
C13 C12 1_555 1_555
C14 C13 1_555 1_555
C15 C14 1_555 1_555
C16 C11 1_555 1_555
H5 C16 1_555 1_555
C17 C13 1_555 1_555
C18 C17 1_555 1_555
C19 H6 1_555 1_555
H7 C19 1_555 1_555
C20 C15 1_555 1_555
H8 C20 1_555 1_555
C21 C20 1_555 1_555
C22 C21 1_555 1_555
C23 C22 1_555 1_555
C24 C23 1_555 1_555
C25 C24 1_555 1_555
C26 C21 1_555 1_555
H9 C26 1_555 1_555
C27 C23 1_555 1_555
C28 C27 1_555 1_555
C29 H10 1_555 1_555
H11 C29 1_555 1_555
C30 C25 1_555 1_555
H12 C30 1_555 1_555
C31 C30 1_555 1_555
C32 C31 1_555 1_555
C33 C32 1_555 1_555
C34 C33 1_555 1_555
C35 C34 1_555 1_555
C36 C31 1_555 1_555
H13 C36 1_555 1_555
C37 C33 1_555 1_555
C38 C37 1_555 1_555
C39 H14 1_555 1_555
H15 C39 1_555 1_555
C40 C1 1_555 1_555
H16 C40 1_555 1_555
C41 C10 1_555 1_555
H17 C41 1_555 1_555
H18 C41 1_555 1_555
C42 C41 1_555 1_555
H19 C42 1_555 1_555
H20 C42 1_555 1_555
C43 C42 1_555 1_555
H21 C43 1_555 1_555
H22 C43 1_555 1_555
C44 C43 1_555 1_555
H23 C44 1_555 1_555
H24 C44 1_555 1_555
C45 C44 1_555 1_555
H25 C45 1_555 1_555
H26 C45 1_555 1_555
C46 C45 1_555 1_555
H27 C46 1_555 1_555
H28 C46 1_555 1_555
H29 C46 1_555 1_555
C47 C20 1_555 1_555
H30 C47 1_555 1_555
H31 C47 1_555 1_555
C48 C47 1_555 1_555
H32 C48 1_555 1_555
H33 C48 1_555 1_555
C49 C48 1_555 1_555
H34 C49 1_555 1_555
H35 C49 1_555 1_555
C50 C49 1_555 1_555
H36 C50 1_555 1_555
H37 C50 1_555 1_555
C51 C50 1_555 1_555
H38 C51 1_555 1_555
H39 C51 1_555 1_555
C52 C51 1_555 1_555
H40 C52 1_555 1_555
H41 C52 1_555 1_555
H42 C52 1_555 1_555
C53 C30 1_555 1_555
H43 C53 1_555 1_555
H44 C53 1_555 1_555
C54 C53 1_555 1_555
H45 C54 1_555 1_555
H46 C54 1_555 1_555
C55 C54 1_555 1_555
H47 C55 1_555 1_555
H48 C55 1_555 1_555
C56 C55 1_555 1_555
H49 C56 1_555 1_555
H50 C56 1_555 1_555
C57 C56 1_555 1_555
H51 C57 1_555 1_555
H52 C57 1_555 1_555
C58 C57 1_555 1_555
H53 C58 1_555 1_555
H54 C58 1_555 1_555
H55 C58 1_555 1_555
C59 C40 1_555 1_555
H56 C59 1_555 1_555
H57 C59 1_555 1_555
C60 C59 1_555 1_555
H58 C60 1_555 1_555
H59 C60 1_555 1_555
C61 C60 1_555 1_555
H60 C61 1_555 1_555
H61 C61 1_555 1_555
C62 C61 1_555 1_555
H62 C62 1_555 1_555
H63 C62 1_555 1_555
C63 C62 1_555 1_555
H64 C63 1_555 1_555
H65 C63 1_555 1_555
C64 C63 1_555 1_555
H66 C64 1_555 1_555
H67 C64 1_555 1_555
H68 C64 1_555 1_555
O1 C4 1_555 1_555
O2 C9 1_555 1_555
O3 C14 1_555 1_555
O4 C19 1_555 1_555
O5 C24 1_555 1_555
O6 C29 1_555 1_555
O7 C34 1_555 1_555
O8 C2 1_555 1_555
C65 C66 1_555 1_555
C66 H69 1_555 1_555
C67 C66 1_555 1_555
H70 C67 1_555 1_555
C68 H71 1_555 1_555
C69 C65 1_555 1_555
H72 C69 1_555 1_555
C70 C65 1_555 1_555
C71 C70 1_555 1_555
H73 C71 1_555 1_555
C72 C71 1_555 1_555
H74 C72 1_555 1_555
C73 H75 1_555 1_555
C74 C70 1_555 1_555
H76 C74 1_555 1_555
N1 C67 1_555 1_555
N2 C72 1_555 1_555
C75 C76 1_555 1_555
C76 H77 1_555 1_555
C77 C76 1_555 1_555
H78 C77 1_555 1_555
C78 H79 1_555 1_555
C79 C75 1_555 1_555
H80 C79 1_555 1_555
C80 C75 1_555 1_555
C81 C80 1_555 1_555
H81 C81 1_555 1_555
C82 C81 1_555 1_555
H82 C82 1_555 1_555
C83 H83 1_555 1_555
C84 C80 1_555 1_555
H84 C84 1_555 1_555
N3 C77 1_555 1_555
N4 C82 1_555 1_555
C9 O1 1_555 1_555
C12 O2 1_555 1_555
C15 C16 1_555 1_555
C19 O3 1_555 1_555
C22 O4 1_555 1_555
C25 C26 1_555 1_555
C29 O5 1_555 1_555
C32 O6 1_555 1_555
C35 C36 1_555 1_555
C35 C40 1_555 1_555
C39 O7 1_555 1_555
C39 O8 1_555 1_555
C68 C69 1_555 1_555
C68 N1 1_555 1_555
C73 C74 1_555 1_555
C73 N2 1_555 1_555
C78 C79 1_555 1_555
C78 N3 1_555 1_555
C83 C84 1_555 1_555
C83 N4 1_555 1_555

#END
