
#######################################################################
#
#                 Cambridge Crystallographic Data Centre
#                                CCDC 
#
#######################################################################
#
# If this CIF has been generated from an entry in the Cambridge 
# Structural Database, then it will include bibliographic, chemical, 
# crystal, experimental, refinement or atomic coordinate data resulting 
# from the CCDC's data processing and validation procedures.
#
#######################################################################

data_LENXAG
_chemical_formula_moiety         'C64 H68 I4 O8,C10 H8 N2,2.5(C3 H6 O1)'
_chemical_name_systematic        
"5,11,17,23-tetrakis(iodoethynyl)-2,8,14,20-tetrakis(n-hexyl)-4,24:6,10:12,16:18,22-O,O'-tetramethylenecalix(4)resorcinarene bis(1,4-diazabicyclo(2.2.2)octane) 4,4'-bipyridine acetone solvate"
_symmetry_cell_setting           triclinic
_symmetry_space_group_name_H-M   'P -1'
_symmetry_Int_Tables_number      2
_space_group_name_Hall           '-P 1'
loop_
_symmetry_equiv_pos_site_id
_symmetry_equiv_pos_as_xyz
1 x,y,z
2 -x,-y,-z
_cell_length_a                   15.1288(6)
_cell_length_b                   17.5989(7)
_cell_length_c                   17.8466(7)
_cell_angle_alpha                83.336(3)
_cell_angle_beta                 88.738(3)
_cell_angle_gamma                65.640(4)
_cell_volume                     4297.63
_exptl_crystal_colour            colorless
_exptl_crystal_description       block
_cell_formula_units_Z            2
loop_
_atom_site_label
_atom_site_type_symbol
_atom_site_fract_x
_atom_site_fract_y
_atom_site_fract_z
C1 C 0.2902(5) 0.6910(4) 0.3008(4)
C2 C 0.2371(5) 0.6508(4) 0.2737(4)
C3 C 0.2143(5) 0.6591(4) 0.1962(4)
C4 C 0.2414(6) 0.7125(4) 0.1473(4)
C5 C 0.2934(5) 0.7551(4) 0.1719(4)
C6 C 0.3181(5) 0.7417(4) 0.2483(4)
H1 H 0.3550 0.7678 0.2653
C7 C 0.1668(6) 0.6108(4) 0.1696(4)
C8 C 0.1352(6) 0.5655(5) 0.1482(4)
C9 C 0.2815(6) 0.6786(4) 0.0211(4)
H2 H 0.3260 0.6261 0.0484
H3 H 0.2487 0.6652 -0.0181
C10 C 0.3276(6) 0.8082(4) 0.1147(4)
H4 H 0.2800 0.8300 0.0726
C11 C 0.4229(5) 0.7507(4) 0.0838(4)
C12 C 0.4212(6) 0.7072(4) 0.0236(4)
C13 C 0.5066(6) 0.6489(4) -0.0046(4)
C14 C 0.5947(6) 0.6381(4) 0.0274(4)
C15 C 0.6003(5) 0.6805(4) 0.0872(4)
C16 C 0.5132(5) 0.7348(4) 0.1153(4)
H5 H 0.5155 0.7615 0.1567
C17 C 0.5028(6) 0.6011(5) -0.0635(4)
C18 C 0.5010(6) 0.5591(5) -0.1108(4)
C19 C 0.7249(6) 0.5016(4) 0.0324(4)
H6 H 0.6760 0.4863 0.0574
H7 H 0.7541 0.4635 -0.0052
C20 C 0.6995(5) 0.6613(4) 0.1226(4)
H8 H 0.7471 0.6440 0.0829
C21 C 0.7235(6) 0.5859(4) 0.1815(4)
C22 C 0.7689(6) 0.5043(4) 0.1596(4)
C23 C 0.7874(6) 0.4333(4) 0.2123(4)
C24 C 0.7663(6) 0.4435(4) 0.2875(4)
C25 C 0.7219(5) 0.5235(4) 0.3114(4)
C26 C 0.7013(5) 0.5922(4) 0.2569(4)
H9 H 0.6708 0.6456 0.2720
C27 C 0.8238(6) 0.3512(5) 0.1881(4)
C28 C 0.8464(8) 0.2822(5) 0.1704(4)
C29 C 0.7226(6) 0.3423(4) 0.3598(4)
H10 H 0.6774 0.3562 0.3174
H11 H 0.7533 0.2816 0.3705
C30 C 0.6909(5) 0.5317(4) 0.3937(4)
H12 H 0.7366 0.4815 0.4244
C31 C 0.5926(5) 0.5283(4) 0.3985(4)
C32 C 0.5868(6) 0.4501(4) 0.4093(4)
C33 C 0.4991(5) 0.4437(4) 0.4110(4)
C34 C 0.4126(6) 0.5178(5) 0.4035(4)
C35 C 0.4152(5) 0.5967(4) 0.3938(3)
C36 C 0.5058(5) 0.5998(4) 0.3889(4)
H13 H 0.5082 0.6519 0.3787
C37 C 0.4945(6) 0.3631(5) 0.4204(4)
C38 C 0.4910(6) 0.2964(5) 0.4283(5)
C39 C 0.2721(6) 0.5181(5) 0.3454(4)
H14 H 0.3172 0.4989 0.3052
H15 H 0.2378 0.4820 0.3531
C40 C 0.3195(5) 0.6753(5) 0.3838(4)
H16 H 0.2705 0.6616 0.4117
C41 C 0.3315(6) 0.8845(4) 0.1460(4)
H17 H 0.3762 0.8648 0.1893
H18 H 0.3570 0.9133 0.1078
C42 C 0.2328(6) 0.9474(5) 0.1699(5)
H19 H 0.1871 0.9656 0.1274
H20 H 0.2084 0.9196 0.2099
C43 C 0.2383(10) 1.0242(8) 0.1974(9)
H21 H 0.2857 1.0048 0.2388
H22 H 0.2628 1.0511 0.1568
C44 C 0.1456(11) 1.0899(9) 0.2235(9)
H23 H 0.1583 1.1364 0.2369
H24 H 0.0979 1.1112 0.1823
C45 C 0.1067(11) 1.0583(11) 0.2866(10)
H25 H 0.1593 1.0233 0.3221
H26 H 0.0778 1.0230 0.2696
C46 C 0.0249(12) 1.1315(12) 0.3303(9)
H27 H -0.0308 1.1625 0.2974
H28 H 0.0516 1.1689 0.3445
H29 H 0.0060 1.1062 0.3747
C47 C 0.7074(6) 0.7367(4) 0.1526(4)
H30 H 0.6874 0.7834 0.1128
H31 H 0.6632 0.7538 0.1937
C48 C 0.8091(6) 0.7179(4) 0.1803(4)
H32 H 0.8285 0.6722 0.2210
H33 H 0.8537 0.6996 0.1395
C49 C 0.8167(6) 0.7930(5) 0.2079(5)
H34 H 0.7740 0.8094 0.2500
H35 H 0.7935 0.8394 0.1678
C50 C 0.9178(6) 0.7790(5) 0.2326(5)
H36 H 0.9603 0.7656 0.1900
H37 H 0.9426 0.7314 0.2714
C51 C 0.9198(6) 0.8562(5) 0.2633(6)
H38 H 0.8923 0.9043 0.2251
H39 H 0.8792 0.8682 0.3070
C52 C 1.0220(7) 0.8450(7) 0.2857(7)
H40 H 1.0635 0.8304 0.2434
H41 H 1.0473 0.8010 0.3269
H42 H 1.0192 0.8965 0.3009
C53 C 0.6957(5) 0.6083(4) 0.4246(4)
H43 H 0.6566 0.6589 0.3920
H44 H 0.6685 0.6132 0.4745
C54 C 0.7994(6) 0.6008(5) 0.4293(5)
H45 H 0.8381 0.5493 0.4609
H46 H 0.8258 0.5961 0.3791
C55 C 0.8098(7) 0.6729(6) 0.4602(5)
H47 H 0.7819 0.6794 0.5097
H48 H 0.7745 0.7244 0.4273
C56 C 0.9190(9) 0.6576(9) 0.4662(6)
H49 H 0.9528 0.6072 0.5007
H50 H 0.9472 0.6473 0.4170
C57 C 0.9361(10) 0.7281(10) 0.4924(7)
H51 H 0.9059 0.7406 0.5406
H52 H 0.9065 0.7780 0.4564
C58 C 1.0450(11) 0.7055(13) 0.5008(9)
H53 H 1.0778 0.6789 0.4581
H54 H 1.0706 0.6679 0.5461
H55 H 1.0548 0.7557 0.5034
C59 C 0.3246(6) 0.7498(4) 0.4165(4)
H56 H 0.3545 0.7311 0.4667
H57 H 0.3655 0.7701 0.3854
C60 C 0.2255(7) 0.8214(6) 0.4211(6)
H58 H 0.1866 0.7995 0.4531
H59 H 0.1956 0.8360 0.3709
C61 C 0.2306(15) 0.8782(10) 0.4774(12)
H60 H 0.2733 0.9042 0.4584
H61 H 0.2591 0.8440 0.5246
C62 C 0.1326(13) 0.9470(13) 0.4932(14)
H62 H 0.1008 0.9763 0.4452
H63 H 0.0929 0.9206 0.5177
C63 C 0.1352(19) 1.0117(17) 0.5419(18)
H64 H 0.1395 0.9884 0.5943
H65 H 0.0738 1.0606 0.5344
C64 C 0.217(2) 1.042(2) 0.529(2)
H66 H 0.2456 1.0280 0.4808
H67 H 0.2665 1.0177 0.5679
H68 H 0.1867 1.1015 0.5283
I1 I 0.09939(4) 0.47658(3) 0.11167(3)
I2 I 0.49923(4) 0.48980(3) -0.19135(2)
I3 I 0.87437(6) 0.16799(3) 0.13748(3)
I4 I 0.48486(5) 0.18509(4) 0.44867(4)
O1 O 0.2046(4) 0.6009(3) 0.3226(3)
O2 O 0.2116(4) 0.7251(3) 0.0716(3)
O3 O 0.3347(4) 0.7218(3) -0.0125(3)
O4 O 0.6794(4) 0.5853(3) -0.0044(3)
O5 O 0.7971(4) 0.4922(3) 0.0861(3)
O6 O 0.7947(4) 0.3722(3) 0.3392(3)
O7 O 0.6710(4) 0.3760(3) 0.4227(3)
O8 O 0.3255(4) 0.5099(3) 0.4127(3)
C69 C 0.1681(7) 0.2765(6) 0.0535(8)
H80 H 0.2250 0.2798 0.0679
C70 C 0.1766(7) 0.2040(6) 0.0246(7)
H81 H 0.2373 0.1608 0.0200
C71 C 0.0940(6) 0.1971(4) 0.0028(4)
C72 C 0.0082(7) 0.2666(5) 0.0084(5)
H82 H -0.0499 0.2671 -0.0083
C73 C 0.0079(6) 0.3354(5) 0.0388(5)
H83 H -0.0516 0.3804 0.0427
C74 C 0.0975(6) 0.1213(4) -0.0281(4)
C75 C 0.0164(7) 0.1177(5) -0.0576(5)
H84 H -0.0433 0.1636 -0.0580
C76 C 0.0236(9) 0.0458(6) -0.0866(6)
H85 H -0.0322 0.0453 -0.1070
C77 C 0.1839(10) -0.0196(5) -0.0577(6)
H86 H 0.2419 -0.0674 -0.0565
C78 C 0.1852(8) 0.0502(5) -0.0287(5)
H87 H 0.2426 0.0495 -0.0102
N1 N 0.0850(5) 0.3414(4) 0.0620(4)
N2 N 0.1061(8) -0.0225(4) -0.0868(5)
C79 C 0.0834(11) 0.3983(10) 0.3158(8)
C80 C 0.0439(13) 0.3435(12) 0.2858(10)
H88 H 0.0946 0.2882 0.2854
H89 H 0.0188 0.3661 0.2353
H90 H -0.0073 0.3407 0.3171
C81 C 0.0165(13) 0.4927(12) 0.3167(10)
H91 H -0.0090 0.5020 0.3662
H92 H -0.0362 0.5089 0.2806
H93 H 0.0531 0.5255 0.3039
O9 O 0.1666(6) 0.3749(6) 0.3373(6)
C82 C 0.5140(17) 0.8800(15) 0.3327(14)
C83 C 0.6017(17) 0.8936(19) 0.3494(15)
H94 H 0.6539 0.8407 0.3667
H95 H 0.5877 0.9305 0.3879
H96 H 0.6202 0.9184 0.3045
C84 C 0.4290(17) 0.9569(18) 0.3485(15)
H97 H 0.4030 0.9921 0.3020
H98 H 0.4489 0.9867 0.3815
H99 H 0.3803 0.9415 0.3722
O10 O 0.5177(16) 0.8158(14) 0.3081(10)
C85 C 0.4710(8) 0.0520(6) 0.0752(6)
C86 C 0.5316(9) -0.0130(7) 0.1378(7)
H100 H 0.5300 0.0138 0.1820
H101 H 0.5974 -0.0395 0.1222
H102 H 0.5058 -0.0544 0.1491
C87 C 0.5003(11) 0.1188(7) 0.0471(7)
H103 H 0.4759 0.1398 -0.0038
H104 H 0.5698 0.0972 0.0480
H105 H 0.4745 0.1634 0.0784
O11 O 0.3996(6) 0.0464(6) 0.0490(6)
H69? H 0.1783 0.7990 0.4369
H70? H 0.2050 0.8534 0.3717
C65? C 0.216(3) 0.9049(18) 0.4502(16)
H71? H 0.2696 0.9187 0.4346
H72? H 0.1553 0.9513 0.4320
C66? C 0.217(3) 0.8845(18) 0.5346(16)
H73? H 0.2781 0.8376 0.5493
H74? H 0.1661 0.8649 0.5462
C67? C 0.203(5) 0.953(2) 0.585(2)
H75? H 0.1365 0.9941 0.5810
H76? H 0.2445 0.9812 0.5683
C68? C 0.229(4) 0.916(3) 0.669(2)
H77? H 0.2282 0.9600 0.6962
H78? H 0.2912 0.8686 0.6773
H79? H 0.1790 0.8986 0.6869
loop_
_geom_bond_atom_site_label_1
_geom_bond_atom_site_label_2
_geom_bond_site_symmetry_1
_geom_bond_site_symmetry_2
C1 C2 1_555 1_555
C2 C3 1_555 1_555
C3 C4 1_555 1_555
C4 C5 1_555 1_555
C5 C6 1_555 1_555
C6 C1 1_555 1_555
H1 C6 1_555 1_555
C7 C3 1_555 1_555
C8 C7 1_555 1_555
C9 H2 1_555 1_555
H3 C9 1_555 1_555
C10 C5 1_555 1_555
H4 C10 1_555 1_555
C11 C10 1_555 1_555
C12 C11 1_555 1_555
C13 C12 1_555 1_555
C14 C13 1_555 1_555
C15 C14 1_555 1_555
C16 C11 1_555 1_555
H5 C16 1_555 1_555
C17 C13 1_555 1_555
C18 C17 1_555 1_555
C19 H6 1_555 1_555
H7 C19 1_555 1_555
C20 C15 1_555 1_555
H8 C20 1_555 1_555
C21 C20 1_555 1_555
C22 C21 1_555 1_555
C23 C22 1_555 1_555
C24 C23 1_555 1_555
C25 C24 1_555 1_555
C26 C21 1_555 1_555
H9 C26 1_555 1_555
C27 C23 1_555 1_555
C28 C27 1_555 1_555
C29 H10 1_555 1_555
H11 C29 1_555 1_555
C30 C25 1_555 1_555
H12 C30 1_555 1_555
C31 C30 1_555 1_555
C32 C31 1_555 1_555
C33 C32 1_555 1_555
C34 C33 1_555 1_555
C35 C34 1_555 1_555
C36 C31 1_555 1_555
H13 C36 1_555 1_555
C37 C33 1_555 1_555
C38 C37 1_555 1_555
C39 H14 1_555 1_555
H15 C39 1_555 1_555
C40 C1 1_555 1_555
H16 C40 1_555 1_555
C41 C10 1_555 1_555
H17 C41 1_555 1_555
H18 C41 1_555 1_555
C42 C41 1_555 1_555
H19 C42 1_555 1_555
H20 C42 1_555 1_555
C43 C42 1_555 1_555
H21 C43 1_555 1_555
H22 C43 1_555 1_555
C44 C43 1_555 1_555
H23 C44 1_555 1_555
H24 C44 1_555 1_555
C45 C44 1_555 1_555
H25 C45 1_555 1_555
H26 C45 1_555 1_555
C46 C45 1_555 1_555
H27 C46 1_555 1_555
H28 C46 1_555 1_555
H29 C46 1_555 1_555
C47 C20 1_555 1_555
H30 C47 1_555 1_555
H31 C47 1_555 1_555
C48 C47 1_555 1_555
H32 C48 1_555 1_555
H33 C48 1_555 1_555
C49 C48 1_555 1_555
H34 C49 1_555 1_555
H35 C49 1_555 1_555
C50 C49 1_555 1_555
H36 C50 1_555 1_555
H37 C50 1_555 1_555
C51 C50 1_555 1_555
H38 C51 1_555 1_555
H39 C51 1_555 1_555
C52 C51 1_555 1_555
H40 C52 1_555 1_555
H41 C52 1_555 1_555
H42 C52 1_555 1_555
C53 C30 1_555 1_555
H43 C53 1_555 1_555
H44 C53 1_555 1_555
C54 C53 1_555 1_555
H45 C54 1_555 1_555
H46 C54 1_555 1_555
C55 C54 1_555 1_555
H47 C55 1_555 1_555
H48 C55 1_555 1_555
C56 C55 1_555 1_555
H49 C56 1_555 1_555
H50 C56 1_555 1_555
C57 C56 1_555 1_555
H51 C57 1_555 1_555
H52 C57 1_555 1_555
C58 C57 1_555 1_555
H53 C58 1_555 1_555
H54 C58 1_555 1_555
H55 C58 1_555 1_555
C59 C40 1_555 1_555
H56 C59 1_555 1_555
H57 C59 1_555 1_555
C60 C59 1_555 1_555
H58 C60 1_555 1_555
H59 C60 1_555 1_555
C61 C60 1_555 1_555
H60 C61 1_555 1_555
H61 C61 1_555 1_555
C62 C61 1_555 1_555
H62 C62 1_555 1_555
H63 C62 1_555 1_555
C63 C62 1_555 1_555
H64 C63 1_555 1_555
H65 C63 1_555 1_555
C64 C63 1_555 1_555
H66 C64 1_555 1_555
H67 C64 1_555 1_555
H68 C64 1_555 1_555
I1 C8 1_555 1_555
I2 C18 1_555 1_555
I3 C28 1_555 1_555
I4 C38 1_555 1_555
O1 C2 1_555 1_555
O2 C4 1_555 1_555
O3 C9 1_555 1_555
O4 C14 1_555 1_555
O5 C19 1_555 1_555
O6 C24 1_555 1_555
O7 C29 1_555 1_555
O8 C34 1_555 1_555
C69 H80 1_555 1_555
C70 C69 1_555 1_555
H81 C70 1_555 1_555
C71 C70 1_555 1_555
C72 C71 1_555 1_555
H82 C72 1_555 1_555
C73 C72 1_555 1_555
H83 C73 1_555 1_555
C74 C71 1_555 1_555
C75 C74 1_555 1_555
H84 C75 1_555 1_555
C76 C75 1_555 1_555
H85 C76 1_555 1_555
C77 H86 1_555 1_555
C78 C74 1_555 1_555
H87 C78 1_555 1_555
N1 C69 1_555 1_555
N2 C76 1_555 1_555
C79 C80 1_555 1_555
C80 H88 1_555 1_555
H89 C80 1_555 1_555
H90 C80 1_555 1_555
C81 C79 1_555 1_555
H91 C81 1_555 1_555
H92 C81 1_555 1_555
H93 C81 1_555 1_555
O9 C79 1_555 1_555
C82 C83 1_555 1_555
C83 H94 1_555 1_555
H95 C83 1_555 1_555
H96 C83 1_555 1_555
C84 C82 1_555 1_555
H97 C84 1_555 1_555
H98 C84 1_555 1_555
H99 C84 1_555 1_555
O10 C82 1_555 1_555
C85 C86 1_555 1_555
C86 H100 1_555 1_555
H101 C86 1_555 1_555
H102 C86 1_555 1_555
C87 C85 1_555 1_555
H103 C87 1_555 1_555
H104 C87 1_555 1_555
H105 C87 1_555 1_555
O11 C85 1_555 1_555
C9 O2 1_555 1_555
C12 O3 1_555 1_555
C15 C16 1_555 1_555
C19 O4 1_555 1_555
C22 O5 1_555 1_555
C25 C26 1_555 1_555
C29 O6 1_555 1_555
C32 O7 1_555 1_555
C35 C36 1_555 1_555
C35 C40 1_555 1_555
C39 O1 1_555 1_555
C39 O8 1_555 1_555
C73 N1 1_555 1_555
C77 C78 1_555 1_555
C77 N2 1_555 1_555

#END
