
#######################################################################
#
#                 Cambridge Crystallographic Data Centre
#                                CCDC 
#
#######################################################################
#
# If this CIF has been generated from an entry in the Cambridge 
# Structural Database, then it will include bibliographic, chemical, 
# crystal, experimental, refinement or atomic coordinate data resulting 
# from the CCDC's data processing and validation procedures.
#
#######################################################################

data_LEPROO
_chemical_name_common            
(E)-7-((4-Dimethylaminocinnamoyl)oxy)-4-methylcoumarin
_chemical_formula_moiety         'C21 H19 N1 O4'
_chemical_name_systematic        
'(E)-4-methyl-2-oxo-2H-1-benzopyran-7-yl 3-(4-(dimethylamino)phenyl)prop-2-enoate'
_chemical_properties_biological  'potential pharmacological activity'
_symmetry_cell_setting           monoclinic
_symmetry_space_group_name_H-M   'P 21/c'
_symmetry_Int_Tables_number      14
_space_group_name_Hall           '-P 2ybc'
loop_
_symmetry_equiv_pos_site_id
_symmetry_equiv_pos_as_xyz
1 x,y,z
2 -x,1/2+y,1/2-z
3 -x,-y,-z
4 x,1/2-y,1/2+z
_cell_length_a                   8.174(3)
_cell_length_b                   9.071(3)
_cell_length_c                   24.175(9)
_cell_angle_alpha                90
_cell_angle_beta                 97.670(6)
_cell_angle_gamma                90
_cell_volume                     1776.45
_exptl_crystal_colour            yellow
_exptl_crystal_description       block
_chemical_melting_point          '471-473 K'
_cell_formula_units_Z            4
_exptl_crystal_recrystallization_method ethanol
loop_
_atom_site_label
_atom_site_type_symbol
_atom_site_fract_x
_atom_site_fract_y
_atom_site_fract_z
N1 N 0.9194(3) 0.2716(3) 0.04477(11)
O1 O 0.1772(2) 1.3877(2) 0.24349(7)
O2 O -0.0085(3) 1.5044(2) 0.28456(9)
O3 O 0.5743(2) 1.1123(2) 0.16305(7)
O4 O 0.4815(3) 1.1098(3) 0.07196(8)
C1 C 0.0971(4) 1.5174(3) 0.25432(13)
C2 C 0.1464(3) 1.6483(3) 0.22918(11)
H1 H 0.0920 1.7355 0.2355
C3 C 0.2669(4) 1.6532(3) 0.19691(11)
C4 C 0.3514(3) 1.5180(3) 0.18715(10)
C5 C 0.4811(4) 1.5056(4) 0.15472(12)
H2 H 0.5190 1.5900 0.1387
C6 C 0.5532(4) 1.3726(4) 0.14611(13)
H3 H 0.6393 1.3671 0.1246
C7 C 0.4971(4) 1.2479(4) 0.16948(11)
C8 C 0.3719(4) 1.2526(3) 0.20194(10)
H4 H 0.3352 1.1674 0.2178
C9 C 0.3024(3) 1.3876(3) 0.21028(10)
C10 C 0.3150(4) 1.7942(3) 0.17166(12)
H5 H 0.2350 1.8689 0.1767
H6 H 0.3191 1.7800 0.1325
H7 H 0.4216 1.8245 0.1896
C11 C 0.5655(4) 1.0545(4) 0.11046(12)
C12 C 0.6634(3) 0.9226(3) 0.11007(11)
H8 H 0.7316 0.8948 0.1423
C13 C 0.6581(3) 0.8394(3) 0.06432(11)
H9 H 0.5951 0.8758 0.0324
C14 C 0.7383(3) 0.7000(3) 0.05862(11)
C15 C 0.6928(3) 0.6147(4) 0.01140(11)
H10 H 0.6187 0.6534 -0.0175
C16 C 0.7538(4) 0.4744(4) 0.00594(11)
H11 H 0.7189 0.4201 -0.0261
C17 C 0.8668(3) 0.4132(4) 0.04770(11)
C18 C 0.9203(3) 0.5023(4) 0.09350(12)
H12 H 1.0009 0.4670 0.1211
C19 C 0.8571(3) 0.6409(4) 0.09877(11)
H13 H 0.8949 0.6967 0.1302
C20 C 0.8593(4) 0.1790(4) -0.00179(13)
H14 H 0.7413 0.1870 -0.0093
H15 H 0.8893 0.0785 0.0069
H16 H 0.9071 0.2098 -0.0341
C21 C 1.0429(4) 0.2099(4) 0.08652(14)
H17 H 1.0637 0.1094 0.0771
H18 H 1.0041 0.2133 0.1223
H19 H 1.1430 0.2659 0.0879
loop_
_geom_bond_atom_site_label_1
_geom_bond_atom_site_label_2
_geom_bond_site_symmetry_1
_geom_bond_site_symmetry_2
N1 C17 1_555 1_555
O1 C1 1_555 1_555
O2 C1 1_555 1_555
O3 C7 1_555 1_555
O4 C11 1_555 1_555
C1 C2 1_555 1_555
C2 H1 1_555 1_555
C3 C2 1_555 1_555
C4 C3 1_555 1_555
C5 C4 1_555 1_555
H2 C5 1_555 1_555
C6 C5 1_555 1_555
H3 C6 1_555 1_555
C7 C6 1_555 1_555
C8 C7 1_555 1_555
H4 C8 1_555 1_555
C9 O1 1_555 1_555
C10 C3 1_555 1_555
H5 C10 1_555 1_555
H6 C10 1_555 1_555
H7 C10 1_555 1_555
C11 O3 1_555 1_555
C12 C11 1_555 1_555
H8 C12 1_555 1_555
C13 C12 1_555 1_555
H9 C13 1_555 1_555
C14 C13 1_555 1_555
C15 C14 1_555 1_555
H10 C15 1_555 1_555
C16 C15 1_555 1_555
H11 C16 1_555 1_555
C17 C16 1_555 1_555
C18 C17 1_555 1_555
H12 C18 1_555 1_555
C19 C14 1_555 1_555
H13 C19 1_555 1_555
C20 N1 1_555 1_555
H14 C20 1_555 1_555
H15 C20 1_555 1_555
H16 C20 1_555 1_555
C21 N1 1_555 1_555
H17 C21 1_555 1_555
H18 C21 1_555 1_555
H19 C21 1_555 1_555
C4 C9 1_555 1_555
C8 C9 1_555 1_555
C18 C19 1_555 1_555

#END
