
#######################################################################
#
#                 Cambridge Crystallographic Data Centre
#                                CCDC 
#
#######################################################################
#
# If this CIF has been generated from an entry in the Cambridge 
# Structural Database, then it will include bibliographic, chemical, 
# crystal, experimental, refinement or atomic coordinate data resulting 
# from the CCDC's data processing and validation procedures.
#
#######################################################################

data_LEPTEG
_chemical_formula_moiety         'C25 H23 N3 O5 S1'
_chemical_name_systematic        
'(E)-4-(1,5-Dimethyl-3-oxo-2-phenyl-2,3-dihydro-1H-pyrazol-4-yliminomethyl)-2-methoxyphenyl benzenesulfonate'
_symmetry_cell_setting           triclinic
_symmetry_space_group_name_H-M   'P -1'
_symmetry_Int_Tables_number      2
_space_group_name_Hall           '-P 1'
loop_
_symmetry_equiv_pos_site_id
_symmetry_equiv_pos_as_xyz
1 x,y,z
2 -x,-y,-z
_cell_length_a                   7.306(7)
_cell_length_b                   12.977(12)
_cell_length_c                   13.162(12)
_cell_angle_alpha                89.272(15)
_cell_angle_beta                 77.437(16)
_cell_angle_gamma                78.286(14)
_cell_volume                     1192
_exptl_crystal_colour            yellow
_exptl_crystal_description       block
_cell_formula_units_Z            2
_exptl_crystal_recrystallization_method acetonitrile
loop_
_atom_site_label
_atom_site_type_symbol
_atom_site_fract_x
_atom_site_fract_y
_atom_site_fract_z
S1 S 0.28118(12) 0.03787(6) 0.74494(8)
O1 O 0.2410(4) 0.0170(2) 0.6465(2)
O2 O 0.1541(3) 0.0254(2) 0.8412(2)
O3 O 0.2974(3) 0.15947(14) 0.75151(13)
O4 O 0.6496(3) 0.14780(15) 0.63406(15)
O5 O 0.2793(3) 0.59949(15) 0.26313(14)
N1 N 0.5714(3) 0.43213(16) 0.35748(15)
N2 N 0.5630(3) 0.62556(17) 0.15520(15)
N3 N 0.7564(3) 0.57369(17) 0.13715(16)
C1 C 0.5099(4) -0.0338(2) 0.7498(2)
C2 C 0.6136(5) -0.1029(3) 0.6688(3)
H1 H 0.5659 -0.1100 0.6098
C3 C 0.7917(6) -0.1619(3) 0.6777(4)
H2 H 0.8628 -0.2101 0.6250
C4 C 0.8606(6) -0.1486(3) 0.7634(5)
H3 H 0.9806 -0.1872 0.7677
C5 C 0.7608(6) -0.0814(3) 0.8419(4)
H4 H 0.8115 -0.0736 0.8997
C6 C 0.5821(5) -0.0240(3) 0.8365(3)
H5 H 0.5106 0.0213 0.8916
C7 C 0.3225(4) 0.22074(19) 0.66138(18)
C8 C 0.1663(4) 0.2878(2) 0.6387(2)
H6 H 0.0441 0.2885 0.6785
C9 C 0.1925(4) 0.3549(2) 0.55570(19)
H7 H 0.0870 0.3999 0.5396
C10 C 0.3754(4) 0.3551(2) 0.49668(18)
C11 C 0.5319(4) 0.2853(2) 0.52036(19)
H8 H 0.6541 0.2840 0.4804
C12 C 0.5078(4) 0.2178(2) 0.60255(19)
C13 C 0.8364(4) 0.1306(3) 0.5683(3)
H9 H 0.8304 0.1098 0.4996
H10 H 0.9202 0.0759 0.5958
H11 H 0.8846 0.1943 0.5653
C14 C 0.4038(4) 0.4298(2) 0.41227(19)
H12 H 0.2980 0.4763 0.3983
C15 C 0.9648(4) 0.4457(2) 0.2292(2)
H13 H 1.0215 0.3977 0.1707
H14 H 0.9482 0.4069 0.2920
H15 H 1.0471 0.4938 0.2333
C16 C 0.7751(4) 0.5056(2) 0.21632(18)
C17 C 0.5968(4) 0.50318(19) 0.27773(18)
C18 C 0.4569(4) 0.5778(2) 0.23778(19)
C19 C 0.9033(4) 0.6334(2) 0.0885(2)
H16 H 0.9355 0.6721 0.1415
H17 H 0.8538 0.6816 0.0402
H18 H 1.0158 0.5854 0.0521
C20 C 0.4847(4) 0.6737(2) 0.0706(2)
C21 C 0.3372(4) 0.7612(2) 0.0919(2)
H19 H 0.2924 0.7895 0.1595
C22 C 0.2568(5) 0.8066(3) 0.0115(3)
H20 H 0.1555 0.8645 0.0254
C23 C 0.3269(5) 0.7659(3) -0.0894(3)
H21 H 0.2735 0.7970 -0.1431
C24 C 0.4751(5) 0.6798(3) -0.1101(2)
H22 H 0.5232 0.6536 -0.1782
C25 C 0.5536(4) 0.6316(2) -0.0305(2)
H23 H 0.6512 0.5719 -0.0444
loop_
_geom_bond_atom_site_label_1
_geom_bond_atom_site_label_2
_geom_bond_site_symmetry_1
_geom_bond_site_symmetry_2
S1 O1 1_555 1_555
O2 S1 1_555 1_555
O3 S1 1_555 1_555
O4 C12 1_555 1_555
O5 C18 1_555 1_555
N1 C14 1_555 1_555
N2 N3 1_555 1_555
N3 C16 1_555 1_555
C1 S1 1_555 1_555
C2 C1 1_555 1_555
H1 C2 1_555 1_555
C3 C2 1_555 1_555
H2 C3 1_555 1_555
C4 C3 1_555 1_555
H3 C4 1_555 1_555
C5 C4 1_555 1_555
H4 C5 1_555 1_555
C6 C1 1_555 1_555
H5 C6 1_555 1_555
C7 O3 1_555 1_555
C8 C7 1_555 1_555
H6 C8 1_555 1_555
C9 C8 1_555 1_555
H7 C9 1_555 1_555
C10 C9 1_555 1_555
C11 C10 1_555 1_555
H8 C11 1_555 1_555
C12 C7 1_555 1_555
C13 O4 1_555 1_555
H9 C13 1_555 1_555
H10 C13 1_555 1_555
H11 C13 1_555 1_555
C14 C10 1_555 1_555
H12 C14 1_555 1_555
C15 H13 1_555 1_555
H14 C15 1_555 1_555
H15 C15 1_555 1_555
C16 C15 1_555 1_555
C17 N1 1_555 1_555
C18 N2 1_555 1_555
C19 N3 1_555 1_555
H16 C19 1_555 1_555
H17 C19 1_555 1_555
H18 C19 1_555 1_555
C20 N2 1_555 1_555
C21 C20 1_555 1_555
H19 C21 1_555 1_555
C22 C21 1_555 1_555
H20 C22 1_555 1_555
C23 C22 1_555 1_555
H21 C23 1_555 1_555
C24 C23 1_555 1_555
H22 C24 1_555 1_555
C25 C20 1_555 1_555
H23 C25 1_555 1_555
C5 C6 1_555 1_555
C11 C12 1_555 1_555
C16 C17 1_555 1_555
C17 C18 1_555 1_555
C24 C25 1_555 1_555

#END
