
#######################################################################
#
#                 Cambridge Crystallographic Data Centre
#                                CCDC 
#
#######################################################################
#
# If this CIF has been generated from an entry in the Cambridge 
# Structural Database, then it will include bibliographic, chemical, 
# crystal, experimental, refinement or atomic coordinate data resulting 
# from the CCDC's data processing and validation procedures.
#
#######################################################################

data_LEQLUQ
_chemical_formula_moiety         'C22 H23 N1 O1 S2'
_chemical_name_systematic        
2-(Ethylsulfanyl)-4-phenyl-5-(1-phenylpropyl)thiophene-3-carboxamide
_symmetry_cell_setting           monoclinic
_symmetry_space_group_name_H-M   'P 21/c'
_symmetry_Int_Tables_number      14
_space_group_name_Hall           '-P 2ybc'
loop_
_symmetry_equiv_pos_site_id
_symmetry_equiv_pos_as_xyz
1 x,y,z
2 -x,1/2+y,1/2-z
3 -x,-y,-z
4 x,1/2-y,1/2+z
_cell_length_a                   10.307(5)
_cell_length_b                   7.191(5)
_cell_length_c                   27.329(5)
_cell_angle_alpha                90
_cell_angle_beta                 97.666(5)
_cell_angle_gamma                90
_cell_volume                     2007.46
_exptl_crystal_colour            colorless
_exptl_crystal_description       block
_chemical_melting_point          '125-126 deg.C'
_cell_formula_units_Z            4
loop_
_atom_site_label
_atom_site_type_symbol
_atom_site_fract_x
_atom_site_fract_y
_atom_site_fract_z
C1 C -0.1019(2) 0.3452(4) 0.08266(9)
H1 H -0.1867 0.3113 0.0906
H2 H -0.0988 0.4772 0.0776
H3 H -0.0362 0.3105 0.1093
C2 C -0.0769(2) 0.2458(3) 0.03620(8)
H4 H -0.1449 0.2797 0.0097
H5 H -0.0829 0.1128 0.0414
C3 C 0.18847(18) 0.1630(3) 0.05758(6)
C4 C 0.32318(18) 0.1687(3) 0.06420(6)
C5 C 0.39380(19) 0.3097(3) 0.03799(7)
C6 C 0.37928(18) 0.0315(3) 0.09977(6)
C7 C 0.28711(18) -0.0698(3) 0.11935(6)
C8 C 0.30703(19) -0.2187(3) 0.15884(7)
H6 H 0.4017 -0.2363 0.1669
C9 C 0.2498(2) -0.4065(3) 0.14012(8)
H7 H 0.1555 -0.3950 0.1326
H8 H 0.2839 -0.4382 0.1098
C10 C 0.2819(3) -0.5635(3) 0.17741(9)
H9 H 0.2433 -0.6772 0.1640
H10 H 0.2473 -0.5338 0.2074
H11 H 0.3751 -0.5783 0.1843
C11 C 0.25731(19) -0.1482(3) 0.20573(7)
C12 C 0.3412(3) -0.0525(3) 0.24097(8)
H12 H 0.4288 -0.0384 0.2369
C13 C 0.2953(3) 0.0223(4) 0.28224(9)
H13 H 0.3522 0.0873 0.3054
C14 C 0.1676(3) 0.0010(4) 0.28893(10)
H14 H 0.1375 0.0519 0.3166
C15 C 0.0840(3) -0.0945(4) 0.25521(9)
H15 H -0.0030 -0.1100 0.2600
C16 C 0.1289(2) -0.1688(3) 0.21365(8)
H16 H 0.0711 -0.2337 0.1907
C17 C 0.52158(17) -0.0052(3) 0.11364(6)
C18 C 0.5908(2) 0.0731(3) 0.15562(7)
H17 H 0.5481 0.1494 0.1758
C19 C 0.7225(2) 0.0383(4) 0.16739(9)
H18 H 0.7683 0.0901 0.1957
C20 C 0.7864(2) -0.0722(4) 0.13761(10)
H19 H 0.8757 -0.0938 0.1456
C21 C 0.7197(2) -0.1510(4) 0.09616(10)
H20 H 0.7634 -0.2260 0.0760
C22 C 0.5874(2) -0.1189(3) 0.08436(8)
H21 H 0.5420 -0.1743 0.0564
O1 O 0.33393(14) 0.4098(2) 0.00634(5)
S1 S 0.13118(5) -0.00533(7) 0.094216(18)
S2 S 0.08072(5) 0.29757(8) 0.017314(18)
N1 N 0.52157(19) 0.3277(3) 0.04966(8)
H22 H 0.5633 0.4100 0.0351
H23 H 0.5631 0.2572 0.0719
loop_
_geom_bond_atom_site_label_1
_geom_bond_atom_site_label_2
_geom_bond_site_symmetry_1
_geom_bond_site_symmetry_2
C1 H1 1_555 1_555
H2 C1 1_555 1_555
H3 C1 1_555 1_555
C2 C1 1_555 1_555
H4 C2 1_555 1_555
H5 C2 1_555 1_555
C3 C4 1_555 1_555
C4 C5 1_555 1_555
C5 O1 1_555 1_555
C6 C4 1_555 1_555
C7 C6 1_555 1_555
C8 C7 1_555 1_555
H6 C8 1_555 1_555
C9 C8 1_555 1_555
H7 C9 1_555 1_555
H8 C9 1_555 1_555
C10 C9 1_555 1_555
H9 C10 1_555 1_555
H10 C10 1_555 1_555
H11 C10 1_555 1_555
C11 C8 1_555 1_555
C12 C11 1_555 1_555
H12 C12 1_555 1_555
C13 C12 1_555 1_555
H13 C13 1_555 1_555
C14 C13 1_555 1_555
H14 C14 1_555 1_555
C15 C14 1_555 1_555
H15 C15 1_555 1_555
C16 C11 1_555 1_555
H16 C16 1_555 1_555
C17 C6 1_555 1_555
C18 C17 1_555 1_555
H17 C18 1_555 1_555
C19 C18 1_555 1_555
H18 C19 1_555 1_555
C20 C19 1_555 1_555
H19 C20 1_555 1_555
C21 C20 1_555 1_555
H20 C21 1_555 1_555
C22 C17 1_555 1_555
H21 C22 1_555 1_555
S1 C3 1_555 1_555
S2 C2 1_555 1_555
N1 C5 1_555 1_555
H22 N1 1_555 1_555
H23 N1 1_555 1_555
C3 S2 1_555 1_555
C7 S1 1_555 1_555
C15 C16 1_555 1_555
C21 C22 1_555 1_555

#END
