
#######################################################################
#
#                 Cambridge Crystallographic Data Centre
#                                CCDC 
#
#######################################################################
#
# If this CIF has been generated from an entry in the Cambridge 
# Structural Database, then it will include bibliographic, chemical, 
# crystal, experimental, refinement or atomic coordinate data resulting 
# from the CCDC's data processing and validation procedures.
#
#######################################################################

data_LEQMAW
_chemical_formula_moiety         'C25 H31 N1 O2'
_chemical_name_systematic        
N-((Z)-1-((2R,3S)-3-Hydroxy-3-methyl-2-phenylcyclohexylidene)-(phenyl)methyl)pivalamide
_symmetry_cell_setting           triclinic
_symmetry_space_group_name_H-M   'P -1'
_symmetry_Int_Tables_number      2
_space_group_name_Hall           '-P 1'
loop_
_symmetry_equiv_pos_site_id
_symmetry_equiv_pos_as_xyz
1 x,y,z
2 -x,-y,-z
_cell_length_a                   10.10000(10)
_cell_length_b                   17.0482(2)
_cell_length_c                   20.4921(2)
_cell_angle_alpha                102.6690(10)
_cell_angle_beta                 96.0060(10)
_cell_angle_gamma                106.5260(10)
_cell_volume                     3247.31
_exptl_crystal_colour            colorless
_exptl_crystal_description       plate
_chemical_melting_point          '398.0-399.5 K'
_cell_formula_units_Z            6
_exptl_crystal_recrystallization_method 'ethyl acetate/hexanes'
loop_
_atom_site_label
_atom_site_type_symbol
_atom_site_fract_x
_atom_site_fract_y
_atom_site_fract_z
C1 C 0.89862(19) 0.89660(11) 0.34585(9)
C2 C 0.96584(18) 0.82500(11) 0.33995(9)
H1 H 0.9446 0.7946 0.2917
C3 C 0.90023(17) 0.75982(11) 0.37752(8)
C4 C 0.8753(2) 0.79460(12) 0.44807(9)
H2 H 0.9635 0.8140 0.4797
H3 H 0.8113 0.7493 0.4617
C5 C 0.8148(2) 0.86760(12) 0.45277(10)
H4 H 0.8187 0.8941 0.5002
H5 H 0.7170 0.8453 0.4309
C6 C 0.8936(2) 0.93475(12) 0.41952(10)
H6 H 0.8476 0.9778 0.4216
H7 H 0.9886 0.9619 0.4447
C7 C 0.7536(2) 0.86275(13) 0.30144(10)
H8 H 0.7094 0.9062 0.3077
H9 H 0.6976 0.8145 0.3140
H10 H 0.7624 0.8462 0.2546
C8 C 1.12569(19) 0.85677(11) 0.35962(9)
C9 C 1.2051(2) 0.85295(13) 0.30882(11)
H11 H 1.1599 0.8313 0.2637
C10 C 1.3497(2) 0.88042(16) 0.32320(13)
H12 H 1.4001 0.8772 0.2878
C11 C 1.4201(2) 0.91233(16) 0.38891(14)
H13 H 1.5177 0.9314 0.3984
C12 C 1.3441(2) 0.91561(16) 0.44053(13)
H14 H 1.3904 0.9360 0.4855
C13 C 1.1990(2) 0.88875(14) 0.42604(11)
H15 H 1.1491 0.8922 0.4617
C14 C 0.86798(17) 0.67649(11) 0.34853(8)
C15 C 0.82739(18) 0.60706(11) 0.38266(9)
C16 C 0.7287(2) 0.52930(13) 0.34930(11)
H16 H 0.6843 0.5210 0.3051
C17 C 0.6955(3) 0.46478(14) 0.38016(13)
H17 H 0.6282 0.4135 0.3568
C18 C 0.7596(3) 0.47429(16) 0.44495(13)
H18 H 0.7361 0.4300 0.4656
C19 C 0.8582(3) 0.54941(16) 0.47875(12)
H19 H 0.9027 0.5564 0.5227
C20 C 0.8924(2) 0.61520(13) 0.44819(10)
H20 H 0.9603 0.6660 0.4719
C21 C 0.76240(19) 0.63469(11) 0.22877(9)
C22 C 0.7792(2) 0.61500(12) 0.15470(9)
C23 C 0.7346(3) 0.67991(16) 0.12395(11)
H21 H 0.6424 0.6790 0.1322
H22 H 0.7337 0.6658 0.0759
H23 H 0.7999 0.7355 0.1446
C24 C 0.6793(3) 0.52625(15) 0.12050(12)
H24 H 0.7078 0.4859 0.1399
H25 H 0.6812 0.5132 0.0727
H26 H 0.5857 0.5237 0.1274
C25 C 0.9278(2) 0.62063(16) 0.14396(10)
H27 H 0.9894 0.6772 0.1650
H28 H 0.9298 0.6069 0.0961
H29 H 0.9583 0.5814 0.1640
N1 N 0.87341(14) 0.64815(9) 0.27748(7)
H88 H 0.9486 0.6397 0.2659
O1 O 0.98808(14) 0.96055(8) 0.32001(7)
H91 H 0.9639 1.0032 0.3278
O2 O 0.64943(13) 0.63894(9) 0.24372(6)
C26 C 0.0246(2) 0.34642(12) 0.15966(10)
C27 C 0.17966(18) 0.40295(11) 0.16995(9)
H30 H 0.2065 0.4325 0.2184
C28 C 0.19730(18) 0.47189(11) 0.13221(8)
C29 C 0.1204(2) 0.44250(12) 0.05938(9)
H31 H 0.1673 0.4089 0.0318
H32 H 0.1244 0.4916 0.0421
C30 C -0.0325(2) 0.38998(13) 0.05244(10)
H33 H -0.0834 0.4263 0.0733
H34 H -0.0739 0.3675 0.0046
C31 C -0.0484(2) 0.31695(13) 0.08556(10)
H35 H -0.0093 0.2764 0.0605
H36 H -0.1474 0.2884 0.0831
C32 C -0.0554(2) 0.39345(14) 0.20347(11)
H37 H -0.1528 0.3603 0.1942
H38 H -0.0459 0.4470 0.1934
H39 H -0.0180 0.4029 0.2506
C33 C 0.28411(19) 0.35487(12) 0.15477(9)
C34 C 0.2771(2) 0.29796(15) 0.09359(11)
H40 H 0.2040 0.2874 0.0580
C35 C 0.3754(3) 0.25682(16) 0.08425(12)
H41 H 0.3664 0.2182 0.0429
C36 C 0.4849(3) 0.27174(15) 0.13434(13)
H42 H 0.5509 0.2436 0.1279
C37 C 0.4965(3) 0.32862(17) 0.19425(13)
H43 H 0.5728 0.3408 0.2287
C38 C 0.3967(2) 0.36835(14) 0.20456(11)
H44 H 0.4056 0.4056 0.2466
C39 C 0.27565(17) 0.55232(11) 0.16167(8)
C40 C 0.31281(17) 0.62112(11) 0.12674(9)
C41 C 0.3571(2) 0.60848(13) 0.06445(9)
H45 H 0.3621 0.5554 0.0437
C42 C 0.3936(2) 0.67259(16) 0.03285(11)
H46 H 0.4218 0.6624 -0.0091
C43 C 0.3886(3) 0.75093(18) 0.06272(14)
H47 H 0.4136 0.7945 0.0414
C44 C 0.3461(3) 0.76538(15) 0.12496(15)
H48 H 0.3422 0.8189 0.1454
C45 C 0.3094(2) 0.70136(13) 0.15686(11)
H49 H 0.2822 0.7121 0.1990
C46 C 0.25673(19) 0.59778(11) 0.28113(9)
C47 C 0.32976(19) 0.62369(12) 0.35521(9)
C48 C 0.3485(3) 0.54487(16) 0.37262(12)
H50 H 0.2589 0.5017 0.3637
H51 H 0.3889 0.5585 0.4198
H52 H 0.4097 0.5246 0.3453
C49 C 0.4727(2) 0.69118(17) 0.36662(11)
H53 H 0.5355 0.6670 0.3435
H54 H 0.5103 0.7117 0.4144
H55 H 0.4624 0.7373 0.3491
C50 C 0.2392(3) 0.65817(18) 0.40013(11)
H56 H 0.2214 0.7052 0.3866
H57 H 0.2866 0.6767 0.4466
H58 H 0.1517 0.6146 0.3958
N2 N 0.33327(14) 0.57891(9) 0.23293(7)
H89 H 0.4195 0.5830 0.2455
O3 O 0.01890(15) 0.27357(9) 0.18569(7)
H92 H 0.0737 0.2505 0.1697
O4 O 0.13312(14) 0.59120(9) 0.26565(7)
C51 C 1.0185(2) -0.05294(14) 0.12972(10)
C52 C 1.0066(2) 0.03916(12) 0.14424(9)
H59 H 1.0482 0.0622 0.1086
C53 C 1.10486(18) 0.09482(12) 0.20989(9)
C54 C 1.2543(2) 0.09729(14) 0.20531(11)
H60 H 1.3159 0.1339 0.2470
H61 H 1.2828 0.1208 0.1681
C55 C 1.2688(2) 0.00931(16) 0.19405(12)
H62 H 1.2454 -0.0133 0.2324
H63 H 1.3649 0.0123 0.1904
C56 C 1.1709(3) -0.04847(17) 0.12931(13)
H64 H 1.1781 -0.1051 0.1234
H65 H 1.2007 -0.0282 0.0909
C57 C 0.9298(3) -0.10808(16) 0.06177(11)
H66 H 0.9463 -0.1618 0.0520
H67 H 0.9547 -0.0805 0.0266
H68 H 0.8323 -0.1167 0.0638
C58 C 0.8555(2) 0.03828(12) 0.13120(9)
C59 C 0.8180(2) 0.08113(14) 0.08633(10)
H69 H 0.8870 0.1132 0.0675
C60 C 0.6800(3) 0.0775(2) 0.06867(13)
H70 H 0.6574 0.1072 0.0385
C61 C 0.5772(3) 0.0304(2) 0.09520(15)
H71 H 0.4843 0.0276 0.0832
C62 C 0.6120(3) -0.01236(17) 0.13960(15)
H72 H 0.5418 -0.0451 0.1573
C63 C 0.7497(2) -0.00802(14) 0.15879(12)
H73 H 0.7716 -0.0362 0.1903
C64 C 1.07594(18) 0.14020(11) 0.26578(9)
C65 C 1.18557(19) 0.19063(12) 0.32726(9)
C66 C 1.2595(2) 0.15290(14) 0.36444(10)
H74 H 1.2391 0.0943 0.3527
C67 C 1.3646(2) 0.20302(17) 0.41946(11)
H75 H 1.4141 0.1778 0.4445
C68 C 1.3952(3) 0.28943(18) 0.43683(12)
H76 H 1.4669 0.3227 0.4730
C69 C 1.3211(3) 0.32646(16) 0.40128(13)
H77 H 1.3416 0.3850 0.4136
C70 C 1.2157(2) 0.27776(14) 0.34712(11)
H78 H 1.1644 0.3037 0.3237
C71 C 0.87546(19) 0.14058(11) 0.32154(9)
C72 C 0.7509(2) 0.17272(13) 0.33033(10)
C73 C 0.7023(3) 0.20485(18) 0.27186(13)
H79 H 0.7750 0.2539 0.2690
H80 H 0.6193 0.2198 0.2793
H81 H 0.6819 0.1613 0.2302
C74 C 0.7909(3) 0.24099(19) 0.39630(14)
H82 H 0.8201 0.2190 0.4326
H83 H 0.7114 0.2592 0.4053
H84 H 0.8665 0.2882 0.3930
C75 C 0.6286(2) 0.09766(18) 0.33576(15)
H85 H 0.6055 0.0530 0.2946
H86 H 0.5483 0.1159 0.3426
H87 H 0.6557 0.0773 0.3735
N3 N 0.94313(15) 0.15276(9) 0.26996(7)
H90 H 0.9048 0.1688 0.2380
O5 O 0.96547(18) -0.09532(9) 0.17853(7)
H93 H 0.9979 -0.0639 0.2168
O6 O 0.91425(15) 0.10504(9) 0.36266(7)
loop_
_geom_bond_atom_site_label_1
_geom_bond_atom_site_label_2
_geom_bond_site_symmetry_1
_geom_bond_site_symmetry_2
C1 C2 1_555 1_555
C2 H1 1_555 1_555
C3 C2 1_555 1_555
C4 C3 1_555 1_555
H2 C4 1_555 1_555
H3 C4 1_555 1_555
C5 C4 1_555 1_555
H4 C5 1_555 1_555
H5 C5 1_555 1_555
C6 C1 1_555 1_555
H6 C6 1_555 1_555
H7 C6 1_555 1_555
C7 C1 1_555 1_555
H8 C7 1_555 1_555
H9 C7 1_555 1_555
H10 C7 1_555 1_555
C8 C2 1_555 1_555
C9 C8 1_555 1_555
H11 C9 1_555 1_555
C10 C9 1_555 1_555
H12 C10 1_555 1_555
C11 C10 1_555 1_555
H13 C11 1_555 1_555
C12 C11 1_555 1_555
H14 C12 1_555 1_555
C13 C8 1_555 1_555
H15 C13 1_555 1_555
C14 C3 1_555 1_555
C15 C14 1_555 1_555
C16 C15 1_555 1_555
H16 C16 1_555 1_555
C17 C16 1_555 1_555
H17 C17 1_555 1_555
C18 C17 1_555 1_555
H18 C18 1_555 1_555
C19 C18 1_555 1_555
H19 C19 1_555 1_555
C20 C15 1_555 1_555
H20 C20 1_555 1_555
C21 C22 1_555 1_555
C22 C23 1_555 1_555
C23 H21 1_555 1_555
H22 C23 1_555 1_555
H23 C23 1_555 1_555
C24 C22 1_555 1_555
H24 C24 1_555 1_555
H25 C24 1_555 1_555
H26 C24 1_555 1_555
C25 C22 1_555 1_555
H27 C25 1_555 1_555
H28 C25 1_555 1_555
H29 C25 1_555 1_555
C26 C27 1_555 1_555
C27 H30 1_555 1_555
C28 C27 1_555 1_555
C29 C28 1_555 1_555
H31 C29 1_555 1_555
H32 C29 1_555 1_555
C30 C29 1_555 1_555
H33 C30 1_555 1_555
H34 C30 1_555 1_555
C31 C26 1_555 1_555
H35 C31 1_555 1_555
H36 C31 1_555 1_555
C32 C26 1_555 1_555
H37 C32 1_555 1_555
H38 C32 1_555 1_555
H39 C32 1_555 1_555
C33 C27 1_555 1_555
C34 C33 1_555 1_555
H40 C34 1_555 1_555
C35 C34 1_555 1_555
H41 C35 1_555 1_555
C36 C35 1_555 1_555
H42 C36 1_555 1_555
C37 C36 1_555 1_555
H43 C37 1_555 1_555
C38 C33 1_555 1_555
H44 C38 1_555 1_555
C39 C28 1_555 1_555
C40 C39 1_555 1_555
C41 C40 1_555 1_555
H45 C41 1_555 1_555
C42 C41 1_555 1_555
H46 C42 1_555 1_555
C43 C42 1_555 1_555
H47 C43 1_555 1_555
C44 C43 1_555 1_555
H48 C44 1_555 1_555
C45 C40 1_555 1_555
H49 C45 1_555 1_555
C46 C47 1_555 1_555
C47 C48 1_555 1_555
C48 H50 1_555 1_555
H51 C48 1_555 1_555
H52 C48 1_555 1_555
C49 C47 1_555 1_555
H53 C49 1_555 1_555
H54 C49 1_555 1_555
H55 C49 1_555 1_555
C50 C47 1_555 1_555
H56 C50 1_555 1_555
H57 C50 1_555 1_555
H58 C50 1_555 1_555
C51 C52 1_555 1_555
C52 H59 1_555 1_555
C53 C52 1_555 1_555
C54 C53 1_555 1_555
H60 C54 1_555 1_555
H61 C54 1_555 1_555
C55 C54 1_555 1_555
H62 C55 1_555 1_555
H63 C55 1_555 1_555
C56 C51 1_555 1_555
H64 C56 1_555 1_555
H65 C56 1_555 1_555
C57 C51 1_555 1_555
H66 C57 1_555 1_555
H67 C57 1_555 1_555
H68 C57 1_555 1_555
C58 C52 1_555 1_555
C59 C58 1_555 1_555
H69 C59 1_555 1_555
C60 C59 1_555 1_555
H70 C60 1_555 1_555
C61 C60 1_555 1_555
H71 C61 1_555 1_555
C62 C61 1_555 1_555
H72 C62 1_555 1_555
C63 C58 1_555 1_555
H73 C63 1_555 1_555
C64 C53 1_555 1_555
C65 C64 1_555 1_555
C66 C65 1_555 1_555
H74 C66 1_555 1_555
C67 C66 1_555 1_555
H75 C67 1_555 1_555
C68 C67 1_555 1_555
H76 C68 1_555 1_555
C69 C68 1_555 1_555
H77 C69 1_555 1_555
C70 C65 1_555 1_555
H78 C70 1_555 1_555
C71 C72 1_555 1_555
C72 C73 1_555 1_555
C73 H79 1_555 1_555
H80 C73 1_555 1_555
H81 C73 1_555 1_555
C74 C72 1_555 1_555
H82 C74 1_555 1_555
H83 C74 1_555 1_555
H84 C74 1_555 1_555
C75 C72 1_555 1_555
H85 C75 1_555 1_555
H86 C75 1_555 1_555
H87 C75 1_555 1_555
N1 C14 1_555 1_555
H88 N1 1_555 1_555
N2 C39 1_555 1_555
H89 N2 1_555 1_555
N3 C64 1_555 1_555
H90 N3 1_555 1_555
O1 C1 1_555 1_555
H91 O1 1_555 1_555
O2 C21 1_555 1_555
O3 C26 1_555 1_555
H92 O3 1_555 1_555
O4 C46 1_555 1_555
O5 C51 1_555 1_555
H93 O5 1_555 1_555
O6 C71 1_555 1_555
C5 C6 1_555 1_555
C12 C13 1_555 1_555
C19 C20 1_555 1_555
C21 N1 1_555 1_555
C30 C31 1_555 1_555
C37 C38 1_555 1_555
C44 C45 1_555 1_555
C46 N2 1_555 1_555
C55 C56 1_555 1_555
C62 C63 1_555 1_555
C69 C70 1_555 1_555
C71 N3 1_555 1_555

#END
