
#######################################################################
#
#                 Cambridge Crystallographic Data Centre
#                                CCDC 
#
#######################################################################
#
# If this CIF has been generated from an entry in the Cambridge 
# Structural Database, then it will include bibliographic, chemical, 
# crystal, experimental, refinement or atomic coordinate data resulting 
# from the CCDC's data processing and validation procedures.
#
#######################################################################

data_LERDIW
_chemical_formula_moiety         'C22 H26 F3 N2 O3 P1 S1'
_chemical_name_systematic        
N-(4-Methylbenzothiazole-2-yl)-1-(4-trifluoromethylphenyl)-O,O-dipropyl-\a-aminophosphonate
_symmetry_cell_setting           monoclinic
_symmetry_space_group_name_H-M   'P 21/c'
_symmetry_Int_Tables_number      14
_space_group_name_Hall           '-P 2ybc'
loop_
_symmetry_equiv_pos_site_id
_symmetry_equiv_pos_as_xyz
1 x,y,z
2 -x,1/2+y,1/2-z
3 -x,-y,-z
4 x,1/2-y,1/2+z
_cell_length_a                   9.0204(13)
_cell_length_b                   25.289(4)
_cell_length_c                   10.8869(15)
_cell_angle_alpha                90
_cell_angle_beta                 104.159(2)
_cell_angle_gamma                90
_cell_volume                     2408.04
_exptl_crystal_colour            colorless
_exptl_crystal_description       plates
_chemical_melting_point          127-129deg.C
_cell_formula_units_Z            4
_exptl_crystal_recrystallization_method ethanol/water
loop_
_atom_site_label
_atom_site_type_symbol
_atom_site_fract_x
_atom_site_fract_y
_atom_site_fract_z
S1 S 0.3461(1) 0.5908(1) -0.3225(1)
P1 P 0.2667(1) 0.5052(1) 0.0887(1)
O1 O 0.4258(3) 0.4872(1) 0.1234(2)
O2 O 0.217 0.460 0.166
O3 O 0.1563(3) 0.4679(1) -0.0071(2)
N1 N 0.1309(3) 0.6225(1) -0.2175(2)
N2 N 0.3135(3) 0.5670(1) -0.0903(3)
C1 C 0.2046(4) 0.6324(1) -0.4096(3)
C2 C 0.1892(5) 0.6521(2) -0.5303(4)
C3 C 0.0688(6) 0.6853(2) -0.5777(4)
C4 C -0.0337(5) 0.6982(2) -0.5082(4)
C5 C -0.0212(4) 0.6790(1) -0.3869(3)
C6 C 0.1012(4) 0.6451(1) -0.3372(3)
C7 C 0.2545(4) 0.5942(1) -0.1980(3)
C8 C -0.1333(5) 0.6931(2) -0.3103(4)
C9 C 0.2448(4) 0.5705(1) 0.0178(3)
C10 C 0.3068(4) 0.6162(1) 0.1050(3)
C11 C 0.2344(4) 0.6648(1) 0.0851(3)
C12 C 0.2905(5) 0.7076(2) 0.1589(4)
C13 C 0.4202(4) 0.7030(2) 0.2559(4)
C14 C 0.4937(4) 0.6554(2) 0.2765(4)
C15 C 0.4381(4) 0.6125(2) 0.2026(4)
C16 C 0.4801(5) 0.7490(2) 0.3364(4)
C17 C 0.1774(19) 0.4684(5) 0.2871(10)
C18 C 0.2550(20) 0.4905(5) 0.4148(10)
C19 C 0.2690(20) 0.4484(6) 0.5154(1)
C20 C 0.1999(6) 0.4454(2) -0.1177(5)
C21 C 0.1419(6) 0.3918(2) -0.1416(5)
C22 C 0.2190(30) 0.3532(3) -0.0417(13)
F1 F 0.5195(15) 0.7346(4) 0.4621(6)
F2 F 0.3875(12) 0.7885(4) 0.3336(12)
F3 F 0.6132(12) 0.7669(5) 0.3214(13)
loop_
_geom_bond_atom_site_label_1
_geom_bond_atom_site_label_2
_geom_bond_site_symmetry_1
_geom_bond_site_symmetry_2
S1 C1 1_555 1_555
P1 O1 1_555 1_555
O2 P1 1_555 1_555
O3 P1 1_555 1_555
N1 C6 1_555 1_555
N2 C7 1_555 1_555
C1 C2 1_555 1_555
C2 C3 1_555 1_555
C3 C4 1_555 1_555
C4 C5 1_555 1_555
C5 C6 1_555 1_555
C6 C1 1_555 1_555
C7 S1 1_555 1_555
C8 C5 1_555 1_555
C9 P1 1_555 1_555
C10 C9 1_555 1_555
C11 C10 1_555 1_555
C12 C11 1_555 1_555
C13 C12 1_555 1_555
C14 C13 1_555 1_555
C15 C10 1_555 1_555
C16 C13 1_555 1_555
C17 O2 1_555 1_555
C18 C17 1_555 1_555
C19 C18 1_555 1_555
C20 O3 1_555 1_555
C21 C20 1_555 1_555
C22 C21 1_555 1_555
F1 C16 1_555 1_555
F2 C16 1_555 1_555
F3 C16 1_555 1_555
N1 C7 1_555 1_555
N2 C9 1_555 1_555
C14 C15 1_555 1_555

#END
