
#######################################################################
#
#                 Cambridge Crystallographic Data Centre
#                                CCDC 
#
#######################################################################
#
# If this CIF has been generated from an entry in the Cambridge 
# Structural Database, then it will include bibliographic, chemical, 
# crystal, experimental, refinement or atomic coordinate data resulting 
# from the CCDC's data processing and validation procedures.
#
#######################################################################

data_LESZAM
_chemical_name_common            2-Benzhydryl-6-t-butyl-4-methylphenol
_chemical_formula_moiety         'C24 H26 O1'
_chemical_name_systematic        2-t-Butyl-6-(diphenylmethyl)-4-methylphenol
_symmetry_cell_setting           monoclinic
_symmetry_space_group_name_H-M   'P 21/n'
_symmetry_Int_Tables_number      14
_space_group_name_Hall           '-P 2yn'
loop_
_symmetry_equiv_pos_site_id
_symmetry_equiv_pos_as_xyz
1 x,y,z
2 1/2-x,1/2+y,1/2-z
3 -x,-y,-z
4 1/2+x,1/2-y,1/2+z
_cell_length_a                   8.014(4)
_cell_length_b                   15.472(7)
_cell_length_c                   16.006(7)
_cell_angle_alpha                90
_cell_angle_beta                 99.98(2)
_cell_angle_gamma                90
_cell_volume                     1954.59
_exptl_crystal_colour            colorless
_exptl_crystal_description       block
_cell_formula_units_Z            4
loop_
_atom_site_label
_atom_site_type_symbol
_atom_site_fract_x
_atom_site_fract_y
_atom_site_fract_z
O1 O -0.0324(3) 0.35794(17) 0.04276(16)
H1 H -0.0789 0.3841 0.0769
C1 C 0.3942(4) 0.3867(2) 0.1619(2)
H2 H 0.4591 0.4304 0.1914
C2 C 0.2285(4) 0.4048(2) 0.1234(2)
C3 C 0.0376(4) 0.4945(2) 0.1985(2)
C4 C 0.1322(4) 0.3377(2) 0.0801(2)
C5 C 0.3647(5) 0.2417(2) 0.1124(2)
H3 H 0.4114 0.1871 0.1088
C6 C 0.4652(4) 0.3057(2) 0.1578(2)
C7 C 0.1977(4) 0.2555(2) 0.0721(2)
C8 C 0.3685(4) 0.5791(2) 0.0708(2)
H4 H 0.3627 0.5374 0.0285
C9 C 0.2722(4) 0.5693(2) 0.1352(2)
C10 C 0.1469(4) 0.4931(2) 0.1297(2)
H5 H 0.0684 0.5009 0.0761
C11 C 0.3905(5) 0.7026(2) 0.1965(3)
H6 H 0.3976 0.7441 0.2389
C12 C 0.4725(5) 0.6503(3) 0.0696(3)
H7 H 0.5354 0.6564 0.0263
C13 C 0.2870(4) 0.6314(2) 0.1981(2)
H8 H 0.2263 0.6252 0.2422
C14 C -0.1169(5) 0.5383(2) 0.1838(3)
H9 H -0.1529 0.5650 0.1317
C15 C 0.0933(5) 0.1835(2) 0.0202(2)
C16 C 0.0871(5) 0.4564(2) 0.2772(2)
H10 H 0.1895 0.4267 0.2882
C17 C -0.0125(6) 0.4612(3) 0.3404(3)
H11 H 0.0227 0.4351 0.3928
C18 C 0.4836(5) 0.7122(3) 0.1319(3)
H12 H 0.5530 0.7602 0.1306
C19 C -0.0686(5) 0.1625(2) 0.0564(3)
H13 H -0.0378 0.1443 0.1144
H14 H -0.1298 0.1170 0.0238
H15 H -0.1386 0.2131 0.0537
C20 C 0.1948(5) 0.0992(2) 0.0221(3)
H16 H 0.2963 0.1094 -0.0006
H17 H 0.1274 0.0562 -0.0115
H18 H 0.2240 0.0791 0.0795
C21 C -0.2170(5) 0.5426(3) 0.2458(3)
H19 H -0.3209 0.5708 0.2347
C22 C -0.1636(6) 0.5053(3) 0.3238(3)
H20 H -0.2302 0.5099 0.3657
C23 C 0.0469(6) 0.2111(3) -0.0734(2)
H21 H -0.0214 0.2624 -0.0775
H22 H -0.0155 0.1655 -0.1056
H23 H 0.1485 0.2225 -0.0956
C24 C 0.6475(5) 0.2879(2) 0.1987(2)
H24 H 0.7193 0.2921 0.1567
H25 H 0.6558 0.2308 0.2227
H26 H 0.6828 0.3295 0.2427
loop_
_geom_bond_atom_site_label_1
_geom_bond_atom_site_label_2
_geom_bond_site_symmetry_1
_geom_bond_site_symmetry_2
O1 H1 1_555 1_555
C1 H2 1_555 1_555
C2 C1 1_555 1_555
C3 C10 1_555 1_555
C4 O1 1_555 1_555
C5 H3 1_555 1_555
C6 C1 1_555 1_555
C7 C4 1_555 1_555
C8 H4 1_555 1_555
C9 C8 1_555 1_555
C10 C2 1_555 1_555
H5 C10 1_555 1_555
C11 H6 1_555 1_555
C12 C8 1_555 1_555
H7 C12 1_555 1_555
C13 C9 1_555 1_555
H8 C13 1_555 1_555
C14 C3 1_555 1_555
H9 C14 1_555 1_555
C15 C7 1_555 1_555
C16 C3 1_555 1_555
H10 C16 1_555 1_555
C17 C16 1_555 1_555
H11 C17 1_555 1_555
C18 C11 1_555 1_555
H12 C18 1_555 1_555
C19 C15 1_555 1_555
H13 C19 1_555 1_555
H14 C19 1_555 1_555
H15 C19 1_555 1_555
C20 C15 1_555 1_555
H16 C20 1_555 1_555
H17 C20 1_555 1_555
H18 C20 1_555 1_555
C21 C14 1_555 1_555
H19 C21 1_555 1_555
C22 C17 1_555 1_555
H20 C22 1_555 1_555
C23 C15 1_555 1_555
H21 C23 1_555 1_555
H22 C23 1_555 1_555
H23 C23 1_555 1_555
C24 C6 1_555 1_555
H24 C24 1_555 1_555
H25 C24 1_555 1_555
H26 C24 1_555 1_555
C2 C4 1_555 1_555
C5 C6 1_555 1_555
C5 C7 1_555 1_555
C9 C10 1_555 1_555
C11 C13 1_555 1_555
C12 C18 1_555 1_555
C21 C22 1_555 1_555

#END
