
#######################################################################
#
#                 Cambridge Crystallographic Data Centre
#                                CCDC 
#
#######################################################################
#
# If this CIF has been generated from an entry in the Cambridge 
# Structural Database, then it will include bibliographic, chemical, 
# crystal, experimental, refinement or atomic coordinate data resulting 
# from the CCDC's data processing and validation procedures.
#
#######################################################################

data_LETXAJ
_chemical_name_common            "9,2'-Cyclo-bicyclomycin hemihydrate"
_chemical_formula_moiety         'C12 H16 N2 O6,0.5(H2 O1)'
_chemical_name_systematic        
'1,4-Epoxypropano-4,9-dihydroxy-8-hydroxymethyl-8-methyl-13-methylene-7-oxa-2,5-diazabicyclo(4.3.0)non-5-en-3-one hemihydrate'
_chemical_properties_biological  'potential antibiotic drug activity'
_symmetry_cell_setting           monoclinic
_symmetry_space_group_name_H-M   'P 21'
_symmetry_Int_Tables_number      4
_space_group_name_Hall           'P 2yb'
loop_
_symmetry_equiv_pos_site_id
_symmetry_equiv_pos_as_xyz
1 x,y,z
2 -x,1/2+y,-z
_cell_length_a                   10.228(3)
_cell_length_b                   12.349(4)
_cell_length_c                   11.564(2)
_cell_angle_alpha                90
_cell_angle_beta                 112.00(2)
_cell_angle_gamma                90
_cell_volume                     1354.24
_exptl_crystal_colour            colorless
_cell_formula_units_Z            4
loop_
_atom_site_label
_atom_site_type_symbol
_atom_site_fract_x
_atom_site_fract_y
_atom_site_fract_z
C1 C 0.2933(3) 0.6861 0.1832(3)
O1 O 0.2292(3) 0.7894(4) 0.1715(3)
C2 C 0.3115(8) 0.8856(7) 0.1904(8)
C3 C 0.3904(8) 0.9015(8) 0.0960(7)
C4 C 0.5427(5) 0.8494(5) 0.1462(4)
C5 C 0.5569(3) 0.7261(5) 0.1666(3)
C6 C 0.5460(3) 0.6988(4) 0.2944(3)
N1 N 0.4182(3) 0.6770(4) 0.2938(3)
C7 C 0.3320(3) 0.6588(4) 0.0721(3)
N2 N 0.4478(3) 0.6727(4) 0.0601(3)
C8 C 0.1836(3) 0.5981(5) 0.1712(3)
C9 C 0.1108(3) 0.5796(5) 0.0277(3)
O2 O 0.2238(2) 0.6101(4) -0.0172(2)
C10 C 0.6385(7) 0.9035(7) 0.1313(8)
O3 O 0.6861(3) 0.6852(4) 0.1697(2)
O4 O 0.6538(2) 0.6979(4) 0.3896(2)
O5 O 0.0893(3) 0.6289(4) 0.2284(3)
C11 C 0.0781(4) 0.4612(5) -0.0035(4)
C12 C -0.0144(4) 0.6544(5) -0.0313(3)
O6 O -0.0608(3) 0.6434(4) -0.1641(2)
H1 H 0.4062(43) 0.6702(43) 0.3624(39)
H2 H 0.2282 0.5262 0.2178
H3 H 0.6243 0.9709 0.0993
H4 H 0.7144 0.8654 0.1335
H5 H 0.7579(43) 0.7013(40) 0.2378(39)
H6 H 0.0491(51) 0.5911(47) 0.2287(51)
H7 H -0.0018 0.4364 0.0269
H8 H 0.1692 0.4149 0.0413
H9 H 0.0443 0.4503 -0.1004
H10 H 0.0157 0.7348 -0.0054
H11 H -0.0962 0.6326 -0.0018
H12 H -0.1502(42) 0.6761(39) -0.2027(38)
C13 C 0.3096(3) 0.7457(4) 0.6910(3)
O7 O 0.2761(3) 0.8576(4) 0.6711(2)
C14 C 0.3838(4) 0.9340(5) 0.6722(4)
C15 C 0.4399(4) 0.9165(5) 0.5683(4)
C16 C 0.5690(4) 0.8453(5) 0.6024(3)
C17 C 0.5560(3) 0.7275(5) 0.6367(3)
C18 C 0.5656(3) 0.7184(5) 0.7744(3)
N3 N 0.4413(3) 0.7254(4) 0.7919(3)
C19 C 0.3184(3) 0.6900(4) 0.5775(3)
N4 N 0.4251(3) 0.6794(4) 0.5483(2)
C20 C 0.1776(3) 0.6920(5) 0.6996(3)
C21 C 0.0876(3) 0.6642(5) 0.5619(3)
O8 O 0.1959(2) 0.6446(4) 0.5076(2)
C22 C 0.6905(5) 0.8827(5) 0.6040(5)
O9 O 0.6695(3) 0.6640(4) 0.6349(2)
O10 O 0.6776(3) 0.7059(5) 0.8587(2)
O11 O 0.1086(3) 0.7621(4) 0.7545(3)
C23 C 0.0052(5) 0.5593(5) 0.5470(5)
C24 C -0.0032(4) 0.7585(5) 0.4892(4)
O12 O -0.0577(3) 0.7373(5) 0.3577(3)
H13 H 0.3410 1.0123 0.6629
H14 H 0.4686 0.9274 0.7583
H15 H 0.4652 0.9925 0.5418
H16 H 0.3594 0.8808 0.4923
H17 H 0.4534(45) 0.7172(42) 0.8607(40)
H18 H 0.1998 0.6230 0.7569
H19 H 0.7700 0.8433 0.6365
H20 H 0.6948 0.9518 0.5812
H21 H 0.6621(51) 0.6678(50) 0.5778(41)
H22 H 0.0517(44) 0.7184(41) 0.7740(40)
H23 H -0.0732 0.5690 0.5842
H24 H 0.0740 0.4969 0.5946
H25 H -0.0419 0.5397 0.4520
H26 H 0.0586 0.8290 0.5071
H27 H -0.0877 0.7698 0.5185
H28 H 0.0242(42) 0.7223(40) 0.3277(39)
O13 O -0.1334(4) 0.4919(5) 0.1821(3)
H29 H -0.2033 0.5320 0.1757
H30 H -0.1025 0.4587 0.2516
C25? C 0.2934(12) 0.8832(11) 0.1316(12)
C26? C 0.4382(13) 0.9091(13) 0.1963(13)
loop_
_geom_bond_atom_site_label_1
_geom_bond_atom_site_label_2
_geom_bond_site_symmetry_1
_geom_bond_site_symmetry_2
C1 O1 1_555 1_555
O1 C2 1_555 1_555
C2 C3 1_555 1_555
C3 C4 1_555 1_555
C4 C5 1_555 1_555
C5 C6 1_555 1_555
C6 N1 1_555 1_555
N1 C1 1_555 1_555
C7 C1 1_555 1_555
N2 C5 1_555 1_555
C8 C1 1_555 1_555
C9 C8 1_555 1_555
O2 C7 1_555 1_555
C10 C4 1_555 1_555
O3 C5 1_555 1_555
O4 C6 1_555 1_555
O5 C8 1_555 1_555
C11 C9 1_555 1_555
C12 C9 1_555 1_555
O6 C12 1_555 1_555
H1 N1 1_555 1_555
H2 C8 1_555 1_555
H3 C10 1_555 1_555
H4 C10 1_555 1_555
H5 O3 1_555 1_555
H6 O5 1_555 1_555
H7 C11 1_555 1_555
H8 C11 1_555 1_555
H9 C11 1_555 1_555
H10 C12 1_555 1_555
H11 C12 1_555 1_555
H12 O6 1_555 1_555
C13 O7 1_555 1_555
O7 C14 1_555 1_555
C14 C15 1_555 1_555
C15 C16 1_555 1_555
C16 C17 1_555 1_555
C17 C18 1_555 1_555
C18 N3 1_555 1_555
N3 C13 1_555 1_555
C19 C13 1_555 1_555
N4 C17 1_555 1_555
C20 C13 1_555 1_555
C21 C20 1_555 1_555
O8 C19 1_555 1_555
C22 C16 1_555 1_555
O9 C17 1_555 1_555
O10 C18 1_555 1_555
O11 C20 1_555 1_555
C23 C21 1_555 1_555
C24 C21 1_555 1_555
O12 C24 1_555 1_555
H13 C14 1_555 1_555
H14 C14 1_555 1_555
H15 C15 1_555 1_555
H16 C15 1_555 1_555
H17 N3 1_555 1_555
H18 C20 1_555 1_555
H19 C22 1_555 1_555
H20 C22 1_555 1_555
H21 O9 1_555 1_555
H22 O11 1_555 1_555
H23 C23 1_555 1_555
H24 C23 1_555 1_555
H25 C23 1_555 1_555
H26 C24 1_555 1_555
H27 C24 1_555 1_555
H28 O12 1_555 1_555
O13 H29 1_555 1_555
H30 O13 1_555 1_555
C7 N2 1_555 1_555
C9 O2 1_555 1_555
C19 N4 1_555 1_555
C21 O8 1_555 1_555

#END
