
#######################################################################
#
#                 Cambridge Crystallographic Data Centre
#                                CCDC 
#
#######################################################################
#
# If this CIF has been generated from an entry in the Cambridge 
# Structural Database, then it will include bibliographic, chemical, 
# crystal, experimental, refinement or atomic coordinate data resulting 
# from the CCDC's data processing and validation procedures.
#
#######################################################################

data_LEVGEA
_chemical_formula_moiety         'C38 H54 N2 O4 S4 Si2'
_chemical_name_systematic        
2,7-bis-(4-n-hexyl-5-trimethylsilylthiophen-2-yl)-benzo[1,2-d:4,3-d']bis(thiazole)-4,5-bis(1,3-dioxolane)
_symmetry_cell_setting           triclinic
_symmetry_space_group_name_H-M   'P -1'
_symmetry_Int_Tables_number      2
_space_group_name_Hall           '-P 1'
loop_
_symmetry_equiv_pos_site_id
_symmetry_equiv_pos_as_xyz
1 x,y,z
2 -x,-y,-z
_cell_length_a                   11.205(6)
_cell_length_b                   11.868(7)
_cell_length_c                   16.094(9)
_cell_angle_alpha                103.904(11)
_cell_angle_beta                 97.871(11)
_cell_angle_gamma                94.160(11)
_cell_volume                     2045.5
_exptl_crystal_colour            red
_exptl_crystal_description       prism
_cell_formula_units_Z            2
loop_
_atom_site_label
_atom_site_type_symbol
_atom_site_fract_x
_atom_site_fract_y
_atom_site_fract_z
S1 S 0.72072(5) 0.55814(5) 0.27129(4)
S2 S 0.40757(5) 0.56963(5) 0.08253(4)
S3 S 0.12442(5) 0.45260(5) -0.06009(4)
S4 S -0.18079(5) 0.18485(5) -0.18323(4)
Si1 Si 0.92712(6) 0.71330(6) 0.40223(4)
Si2 Si -0.40796(6) 0.12433(6) -0.32079(4)
O1 O 0.20885(19) 0.07172(16) -0.00930(12)
O2 O 0.18620(16) 0.20279(16) 0.11615(12)
O3 O 0.42828(16) 0.17405(15) -0.01521(11)
O4 O 0.42265(16) 0.17080(16) 0.12407(12)
N1 N 0.51628(18) 0.40694(18) 0.13420(13)
N2 N 0.06142(19) 0.23676(19) -0.06168(13)
C1 C 0.8153(2) 0.6884(2) 0.29940(16)
C2 C 0.7797(2) 0.7594(2) 0.24546(15)
C3 C 0.6747(2) 0.7080(2) 0.18410(15)
H1 H 0.6382 0.7448 0.1439
C4 C 0.6320(2) 0.5992(2) 0.18956(15)
C5 C 0.5285(2) 0.5197(2) 0.13875(15)
C6 C 0.4081(2) 0.3557(2) 0.08394(15)
C7 C 0.3375(2) 0.4284(2) 0.05052(15)
C8 C 0.2206(2) 0.3829(2) -0.00226(15)
C9 C 0.1729(2) 0.2699(2) -0.01122(16)
C10 C 0.2343(2) 0.1898(2) 0.03714(17)
C11 C 0.3751(2) 0.2237(2) 0.05889(16)
C12 C 0.0248(2) 0.3238(2) -0.09267(16)
C13 C -0.0868(2) 0.3141(2) -0.15290(16)
C14 C -0.1321(2) 0.3933(2) -0.19515(16)
H2 H -0.0949 0.4688 -0.1860
C15 C -0.2408(2) 0.3492(2) -0.25402(15)
C16 C -0.2803(2) 0.2350(2) -0.25471(16)
C17 C -0.3053(2) 0.4182(2) -0.31075(17)
H3 H -0.3914 0.4074 -0.3087
H4 H -0.2942 0.3854 -0.3701
C18 C -0.2650(2) 0.5487(2) -0.28741(18)
H5 H -0.1781 0.5604 -0.2860
H6 H -0.2815 0.5833 -0.2297
C19 C -0.3276(2) 0.6120(2) -0.35060(19)
H7 H -0.2899 0.6919 -0.3359
H8 H -0.3138 0.5749 -0.4086
C20 C -0.4632(3) 0.6138(3) -0.35169(18)
H9 H -0.4778 0.6490 -0.2935
H10 H -0.5019 0.5341 -0.3686
C21 C -0.5213(3) 0.6812(3) -0.4135(2)
H11 H -0.4808 0.7602 -0.3976
H12 H -0.5086 0.6447 -0.4719
C22 C -0.6560(3) 0.6867(4) -0.4132(2)
H13 H -0.6974 0.6090 -0.4321
H14 H -0.6862 0.7321 -0.4519
H15 H -0.6696 0.7223 -0.3556
C23 C -0.3450(3) 0.0167(2) -0.40467(19)
H16 H -0.4081 -0.0434 -0.4363
H17 H -0.2812 -0.0177 -0.3767
H18 H -0.3134 0.0560 -0.4439
C24 C -0.4677(2) 0.0441(2) -0.24570(18)
H19 H -0.5049 0.0966 -0.2042
H20 H -0.4022 0.0138 -0.2160
H21 H -0.5267 -0.0192 -0.2784
C25 C -0.5302(2) 0.1920(2) -0.37532(17)
H22 H -0.5974 0.1339 -0.4020
H23 H -0.4999 0.2238 -0.4189
H24 H -0.5563 0.2533 -0.3333
C26 C 0.8437(2) 0.8770(2) 0.24818(16)
H25 H 0.8208 0.8943 0.1926
H26 H 0.9304 0.8721 0.2559
C27 C 0.8168(2) 0.9783(2) 0.31964(17)
H27 H 0.8359 0.9603 0.3753
H28 H 0.7310 0.9873 0.3102
C28 C 0.8904(2) 1.0935(2) 0.32152(19)
H29 H 0.8755 1.1533 0.3707
H30 H 0.9760 1.0835 0.3304
C29 C 0.8616(2) 1.1358(2) 0.2400(2)
H31 H 0.7750 1.1396 0.2282
H32 H 0.8834 1.0794 0.1915
C30 C 0.9280(3) 1.2560(3) 0.2463(2)
H33 H 0.9046 1.3129 0.2937
H34 H 1.0146 1.2529 0.2595
C31 C 0.9012(3) 1.2961(3) 0.1638(3)
H35 H 0.9290 1.2429 0.1173
H36 H 0.9421 1.3729 0.1722
H37 H 0.8154 1.2980 0.1497
C32 C 1.0554(2) 0.8258(2) 0.40992(17)
H38 H 1.1140 0.8289 0.4601
H39 H 1.0257 0.9006 0.4148
H40 H 1.0927 0.8060 0.3588
C33 C 0.8412(2) 0.7569(3) 0.49461(18)
H41 H 0.8915 0.7560 0.5478
H42 H 0.7697 0.7029 0.4855
H43 H 0.8184 0.8341 0.4980
C34 C 0.9884(3) 0.5721(3) 0.4047(2)
H44 H 1.0269 0.5464 0.3547
H45 H 0.9233 0.5146 0.4042
H46 H 1.0466 0.5827 0.4563
C35 C 0.5446(2) 0.1495(2) 0.11040(18)
H47 H 0.5604 0.0720 0.1158
H48 H 0.6034 0.2066 0.1522
C36 C 0.5508(2) 0.1602(2) 0.01826(18)
H49 H 0.6059 0.2275 0.0189
H50 H 0.5775 0.0906 -0.0163
C37 C 0.1708(4) 0.0081(3) 0.0462(3)
H51 H 0.2266 -0.0489 0.0534
H52 H 0.0911 -0.0334 0.0217
C38 C 0.1661(3) 0.0879(3) 0.1306(2)
H53 H 0.0878 0.0763 0.1483
H54 H 0.2288 0.0764 0.1748
loop_
_geom_bond_atom_site_label_1
_geom_bond_atom_site_label_2
_geom_bond_site_symmetry_1
_geom_bond_site_symmetry_2
S1 C1 1_555 1_555
S2 C5 1_555 1_555
S3 C8 1_555 1_555
S4 C13 1_555 1_555
Si1 C1 1_555 1_555
Si2 C16 1_555 1_555
O1 C10 1_555 1_555
O2 C10 1_555 1_555
O3 C11 1_555 1_555
O4 C11 1_555 1_555
N1 C5 1_555 1_555
N2 C9 1_555 1_555
C1 C2 1_555 1_555
C2 C3 1_555 1_555
C3 H1 1_555 1_555
C4 S1 1_555 1_555
C5 C4 1_555 1_555
C6 N1 1_555 1_555
C7 S2 1_555 1_555
C8 C7 1_555 1_555
C9 C8 1_555 1_555
C10 C9 1_555 1_555
C11 C6 1_555 1_555
C12 S3 1_555 1_555
C13 C12 1_555 1_555
C14 C13 1_555 1_555
H2 C14 1_555 1_555
C15 C14 1_555 1_555
C16 S4 1_555 1_555
C17 C15 1_555 1_555
H3 C17 1_555 1_555
H4 C17 1_555 1_555
C18 C17 1_555 1_555
H5 C18 1_555 1_555
H6 C18 1_555 1_555
C19 C18 1_555 1_555
H7 C19 1_555 1_555
H8 C19 1_555 1_555
C20 C19 1_555 1_555
H9 C20 1_555 1_555
H10 C20 1_555 1_555
C21 C20 1_555 1_555
H11 C21 1_555 1_555
H12 C21 1_555 1_555
C22 C21 1_555 1_555
H13 C22 1_555 1_555
H14 C22 1_555 1_555
H15 C22 1_555 1_555
C23 Si2 1_555 1_555
H16 C23 1_555 1_555
H17 C23 1_555 1_555
H18 C23 1_555 1_555
C24 Si2 1_555 1_555
H19 C24 1_555 1_555
H20 C24 1_555 1_555
H21 C24 1_555 1_555
C25 Si2 1_555 1_555
H22 C25 1_555 1_555
H23 C25 1_555 1_555
H24 C25 1_555 1_555
C26 C2 1_555 1_555
H25 C26 1_555 1_555
H26 C26 1_555 1_555
C27 C26 1_555 1_555
H27 C27 1_555 1_555
H28 C27 1_555 1_555
C28 C27 1_555 1_555
H29 C28 1_555 1_555
H30 C28 1_555 1_555
C29 C28 1_555 1_555
H31 C29 1_555 1_555
H32 C29 1_555 1_555
C30 C29 1_555 1_555
H33 C30 1_555 1_555
H34 C30 1_555 1_555
C31 C30 1_555 1_555
H35 C31 1_555 1_555
H36 C31 1_555 1_555
H37 C31 1_555 1_555
C32 Si1 1_555 1_555
H38 C32 1_555 1_555
H39 C32 1_555 1_555
H40 C32 1_555 1_555
C33 Si1 1_555 1_555
H41 C33 1_555 1_555
H42 C33 1_555 1_555
H43 C33 1_555 1_555
C34 Si1 1_555 1_555
H44 C34 1_555 1_555
H45 C34 1_555 1_555
H46 C34 1_555 1_555
C35 O4 1_555 1_555
H47 C35 1_555 1_555
H48 C35 1_555 1_555
C36 O3 1_555 1_555
H49 C36 1_555 1_555
H50 C36 1_555 1_555
C37 O1 1_555 1_555
H51 C37 1_555 1_555
H52 C37 1_555 1_555
C38 O2 1_555 1_555
H53 C38 1_555 1_555
H54 C38 1_555 1_555
N2 C12 1_555 1_555
C3 C4 1_555 1_555
C6 C7 1_555 1_555
C10 C11 1_555 1_555
C15 C16 1_555 1_555
C35 C36 1_555 1_555
C37 C38 1_555 1_555

#END
