
#######################################################################
#
#                 Cambridge Crystallographic Data Centre
#                                CCDC 
#
#######################################################################
#
# If this CIF has been generated from an entry in the Cambridge 
# Structural Database, then it will include bibliographic, chemical, 
# crystal, experimental, refinement or atomic coordinate data resulting 
# from the CCDC's data processing and validation procedures.
#
#######################################################################

data_LEVKAA
_chemical_formula_moiety         'C21 H19 N1 O3,C1 H1 Cl3'
_chemical_name_systematic        
'18-Oxa-16-azapentacyclo[15.3.1.0^2,15^.0^5,14^.0^7,12^]henicosa-2,4,6,8,10,12,14-heptaen-20-yl acetate chloroform solvate'
_symmetry_cell_setting           monoclinic
_symmetry_space_group_name_H-M   'P 21'
_symmetry_Int_Tables_number      4
_space_group_name_Hall           'P 2yb'
loop_
_symmetry_equiv_pos_site_id
_symmetry_equiv_pos_as_xyz
1 x,y,z
2 -x,1/2+y,-z
_cell_length_a                   8.5901(8)
_cell_length_b                   13.7587(13)
_cell_length_c                   9.4392(9)
_cell_angle_alpha                90
_cell_angle_beta                 112.242(2)
_cell_angle_gamma                90
_cell_volume                     1032.6
_exptl_crystal_colour            green
_exptl_crystal_description       prismatic
_cell_formula_units_Z            2
loop_
_atom_site_label
_atom_site_type_symbol
_atom_site_fract_x
_atom_site_fract_y
_atom_site_fract_z
Cl1 Cl 1.07497(9) 0.48728(6) 0.78324(9)
Cl2 Cl 0.89716(10) 0.39538(6) 0.94998(7)
Cl3 Cl 0.73168(10) 0.43080(7) 0.62566(8)
C22 C 0.9206(3) 0.40109(19) 0.7736(2)
H19 H 0.9574 0.3373 0.7520
N1 N 0.6522(2) 1.04953(15) 0.6473(2)
O1 O 0.80849(18) 1.19248(12) 0.75355(17)
O2 O 1.14323(17) 1.19888(12) 0.73454(16)
O3 O 1.3424(2) 1.11093(16) 0.6955(2)
C1 C 1.0623(2) 1.11020(17) 0.7556(2)
H1 H 1.1485 1.0639 0.8160
C2 C 0.9548(3) 1.13869(18) 0.8442(2)
H2 H 0.9202 1.0804 0.8822
H3 H 1.0216 1.1776 0.9318
C3 C 0.7072(2) 1.14159(17) 0.6164(2)
H4 H 0.6077 1.1812 0.5617
C4 C 0.8077(3) 1.13083(19) 0.5153(2)
H5 H 0.8482 1.1937 0.4973
H6 H 0.7387 1.1027 0.4174
C5 C 0.9555(2) 1.06386(16) 0.6011(2)
H7 H 1.0246 1.0542 0.5401
C6 C 0.8895(2) 0.96801(16) 0.6288(2)
C7 C 0.9794(2) 0.88091(17) 0.6338(2)
H8 H 1.0761 0.8832 0.6118
C8 C 0.9286(3) 0.79466(19) 0.6698(2)
H9 H 0.9883 0.7384 0.6690
C9 C 0.7840(3) 0.78951(17) 0.7091(2)
C10 C 0.6896(2) 0.87636(16) 0.7043(2)
C11 C 0.7430(2) 0.96560(16) 0.6579(2)
C12 C 0.7369(3) 0.70277(18) 0.7578(2)
H10 H 0.7948 0.6460 0.7554
C13 C 0.6057(3) 0.69875(19) 0.8100(2)
C14 C 0.5134(2) 0.78486(18) 0.8083(2)
C15 C 0.5555(2) 0.87064(17) 0.7533(2)
H11 H 0.4921 0.9261 0.7491
C16 C 0.5637(3) 0.6115(2) 0.8705(3)
H12 H 0.6209 0.5542 0.8702
C17 C 0.4414(3) 0.6119(2) 0.9281(3)
H13 H 0.4176 0.5552 0.9696
C18 C 0.3505(3) 0.6965(2) 0.9261(3)
H14 H 0.2659 0.6953 0.9650
C19 C 0.3843(3) 0.7802(2) 0.8682(3)
H15 H 0.3222 0.8357 0.8675
C20 C 1.2878(2) 1.18919(19) 0.7117(2)
C21 C 1.3683(3) 1.2843(2) 0.7108(3)
H16 H 1.4879 1.2759 0.7454
H17 H 1.3430 1.3285 0.7777
H18 H 1.3263 1.3101 0.6087
H20 H 0.574(2) 1.0477(19) 0.669(3)
loop_
_geom_bond_atom_site_label_1
_geom_bond_atom_site_label_2
_geom_bond_site_symmetry_1
_geom_bond_site_symmetry_2
Cl1 C22 1_555 1_555
Cl2 C22 1_555 1_555
Cl3 C22 1_555 1_555
N1 C3 1_555 1_555
O1 C2 1_555 1_555
O2 C1 1_555 1_555
O3 C20 1_555 1_555
C1 H1 1_555 1_555
C2 C1 1_555 1_555
H2 C2 1_555 1_555
H3 C2 1_555 1_555
C3 O1 1_555 1_555
H4 C3 1_555 1_555
C4 C3 1_555 1_555
H5 C4 1_555 1_555
H6 C4 1_555 1_555
C5 C1 1_555 1_555
H7 C5 1_555 1_555
C6 C5 1_555 1_555
C7 C6 1_555 1_555
H8 C7 1_555 1_555
C8 C7 1_555 1_555
H9 C8 1_555 1_555
C9 C8 1_555 1_555
C10 C9 1_555 1_555
C11 N1 1_555 1_555
C12 C9 1_555 1_555
H10 C12 1_555 1_555
C13 C12 1_555 1_555
C14 C13 1_555 1_555
C15 C10 1_555 1_555
H11 C15 1_555 1_555
C16 C13 1_555 1_555
H12 C16 1_555 1_555
C17 C16 1_555 1_555
H13 C17 1_555 1_555
C18 C17 1_555 1_555
H14 C18 1_555 1_555
C19 C14 1_555 1_555
H15 C19 1_555 1_555
C20 O2 1_555 1_555
C21 C20 1_555 1_555
H16 C21 1_555 1_555
H17 C21 1_555 1_555
H18 C21 1_555 1_555
C22 H19 1_555 1_555
H20 N1 1_555 1_555
C4 C5 1_555 1_555
C6 C11 1_555 1_555
C10 C11 1_555 1_555
C14 C15 1_555 1_555
C18 C19 1_555 1_555

#END
