
#######################################################################
#
#                 Cambridge Crystallographic Data Centre
#                                CCDC 
#
#######################################################################
#
# If this CIF has been generated from an entry in the Cambridge 
# Structural Database, then it will include bibliographic, chemical, 
# crystal, experimental, refinement or atomic coordinate data resulting 
# from the CCDC's data processing and validation procedures.
#
#######################################################################

data_LEVXOZ01
_chemical_formula_moiety         'C12 H1 F7 O1'
_chemical_name_systematic        
1,2-Dihydro-1,1,4,5,6,7,8-heptafluorocyclobuta(a)naphthalen-2-one
_symmetry_cell_setting           monoclinic
_symmetry_space_group_name_H-M   'P 21/c'
_symmetry_Int_Tables_number      14
_space_group_name_Hall           '-P 2ybc'
loop_
_symmetry_equiv_pos_site_id
_symmetry_equiv_pos_as_xyz
1 x,y,z
2 -x,1/2+y,1/2-z
3 -x,-y,-z
4 x,1/2-y,1/2+z
_cell_length_a                   7.282(2)
_cell_length_b                   12.221(2)
_cell_length_c                   11.709(2)
_cell_angle_alpha                90
_cell_angle_beta                 106.76(3)
_cell_angle_gamma                90
_cell_volume                     997.759
_exptl_crystal_colour            colorless
_chemical_melting_point          99.5-100deg.C
_cell_formula_units_Z            4
loop_
_atom_site_label
_atom_site_type_symbol
_atom_site_fract_x
_atom_site_fract_y
_atom_site_fract_z
F1 F 0.4570(2) 0.2136(1) 0.1279(1)
F2 F 0.1868(2) 0.2847(1) -0.0493(1)
F3 F -0.1830(2) 0.2815(1) -0.1727(1)
F4 F -0.4384(2) 0.1579(1) -0.1067(1)
F5 F -0.3198(2) 0.0267(1) 0.0915(1)
F6 F -0.0687(2) -0.1502(1) 0.2647(1)
F7 F -0.1099(2) -0.0139(1) 0.3720(1)
O1 O 0.3232(3) -0.1034(2) 0.4695(2)
C1 C 0.0701(3) 0.0243(2) 0.2296(2)
C2 C 0.2613(3) 0.0232(2) 0.2927(2)
C3 C 0.4010(3) 0.0855(2) 0.2617(2)
C4 C 0.3334(3) 0.1495(2) 0.1625(2)
C5 C 0.0689(3) 0.2197(2) -0.0110(2)
C6 C -0.1215(3) 0.2196(2) -0.0747(2)
C7 C -0.2552(3) 0.1547(2) -0.0411(2)
C8 C -0.1951(3) 0.0905(2) 0.0581(2)
C9 C -0.0022(3) 0.0883(2) 0.1262(2)
C10 C 0.1363(3) 0.1535(2) 0.0911(2)
C11 C 0.0094(3) -0.0534(2) 0.3121(2)
C12 C 0.2304(4) -0.0561(2) 0.3832(2)
H1 H 0.5235(40) 0.0828(22) 0.3115(23)
loop_
_geom_bond_atom_site_label_1
_geom_bond_atom_site_label_2
_geom_bond_site_symmetry_1
_geom_bond_site_symmetry_2
F1 C4 1_555 1_555
F2 C5 1_555 1_555
F3 C6 1_555 1_555
F4 C7 1_555 1_555
F5 C8 1_555 1_555
F6 C11 1_555 1_555
F7 C11 1_555 1_555
O1 C12 1_555 1_555
C1 C2 1_555 1_555
C2 C3 1_555 1_555
C3 C4 1_555 1_555
C4 C10 1_555 1_555
C5 C6 1_555 1_555
C6 C7 1_555 1_555
C7 C8 1_555 1_555
C8 C9 1_555 1_555
C9 C1 1_555 1_555
C10 C5 1_555 1_555
C11 C1 1_555 1_555
C12 C2 1_555 1_555
H1 C3 1_555 1_555
C9 C10 1_555 1_555
C11 C12 1_555 1_555

#END
