
#######################################################################
#
#                 Cambridge Crystallographic Data Centre
#                                CCDC 
#
#######################################################################
#
# If this CIF has been generated from an entry in the Cambridge 
# Structural Database, then it will include bibliographic, chemical, 
# crystal, experimental, refinement or atomic coordinate data resulting 
# from the CCDC's data processing and validation procedures.
#
#######################################################################

data_LEVYUG
_chemical_formula_moiety         'C16 H11 Cl1 F3 N3 O2 S1'
_chemical_name_systematic        
1-Benzyl-7-chloro-5-(methylthio)-2-(trifluoroacetyl)imidazo(1,2-c)pyrimidin-3-one
_symmetry_cell_setting           monoclinic
_symmetry_space_group_name_H-M   'C 2/c'
_symmetry_Int_Tables_number      15
_space_group_name_Hall           '-C 2yn'
loop_
_symmetry_equiv_pos_site_id
_symmetry_equiv_pos_as_xyz
1 x,y,z
2 1/2+x,1/2+y,z
3 -x,y,1/2-z
4 1/2-x,1/2+y,1/2-z
5 -x,-y,-z
6 1/2-x,1/2-y,-z
7 x,-y,1/2+z
8 1/2+x,1/2-y,1/2+z
_cell_length_a                   37.809(7)
_cell_length_b                   4.988(2)
_cell_length_c                   18.233(4)
_cell_angle_alpha                90
_cell_angle_beta                 96.62(2)
_cell_angle_gamma                90
_cell_volume                     3415.66
_exptl_crystal_colour            yellow
_chemical_melting_point          221-222deg.C
_cell_formula_units_Z            8
loop_
_atom_site_label
_atom_site_type_symbol
_atom_site_fract_x
_atom_site_fract_y
_atom_site_fract_z
Cl1 Cl 0.4307(1) 0.3870(4) 0.2432(1)
S1 S 0.4900(1) -0.2777(4) 0.0720(1)
N1 N 0.4198(1) -0.2405(10) 0.0748(2)
F1 F 0.3397(1) -0.8906(12) -0.1406(3)
F2 F 0.3879(1) -0.9489(8) -0.0701(2)
F3 F 0.3827(1) -0.6239(9) -0.1455(2)
C1 C 0.4250(2) 0.1382(12) 0.1769(3)
C2 C 0.3913(2) 0.0620(13) 0.1515(3)
C3 C 0.3889(2) -0.1391(13) 0.0971(3)
C4 C 0.4529(2) -0.1426(12) 0.1051(3)
N2 N 0.4553(1) 0.0431(10) 0.1552(3)
O1 O 0.3176(1) -0.5667(16) -0.0505(3)
C5 C 0.5235(2) -0.0789(16) 0.1247(4)
C6 C 0.3240(1) -0.1939(14) 0.0696(3)
C7 C 0.3500(2) -0.5851(15) -0.0433(3)
C8 C 0.3736(2) -0.4491(12) 0.0100(3)
C9 C 0.3653(2) -0.7650(16) -0.0998(4)
O2 O 0.4343(1) -0.5653(10) -0.0091(3)
C10 C 0.4111(2) -0.4449(13) 0.0185(3)
N3 N 0.3613(1) -0.2567(11) 0.0587(3)
C11 C 0.2762(2) -0.5263(14) 0.0902(4)
C12 C 0.2613(2) -0.7096(16) 0.1357(4)
C13 C 0.2773(2) -0.7645(17) 0.2026(4)
C14 C 0.3082(2) -0.6388(15) 0.2302(4)
C15 C 0.3236(2) -0.4530(13) 0.1872(3)
C16 C 0.3080(2) -0.3974(13) 0.1164(3)
H1 H 0.3706 0.1393 0.1692
H2 H 0.5466 -0.1298 0.1125
H3 H 0.5194 0.1073 0.1133
H4 H 0.5223 -0.1076 0.1764
H5 H 0.3099 -0.1842 0.0223
H6 H 0.3232 -0.0210 0.0925
H7 H 0.2651 -0.4876 0.0414
H8 H 0.2396 -0.7986 0.1172
H9 H 0.2668 -0.8922 0.2329
H10 H 0.3193 -0.6775 0.2791
H11 H 0.3453 -0.3639 0.2058
loop_
_geom_bond_atom_site_label_1
_geom_bond_atom_site_label_2
_geom_bond_site_symmetry_1
_geom_bond_site_symmetry_2
Cl1 C1 1_555 1_555
S1 C4 1_555 1_555
N1 C3 1_555 1_555
F1 C9 1_555 1_555
F2 C9 1_555 1_555
F3 C9 1_555 1_555
C1 C2 1_555 1_555
C2 C3 1_555 1_555
C3 N3 1_555 1_555
C4 N1 1_555 1_555
N2 C1 1_555 1_555
O1 C7 1_555 1_555
C5 S1 1_555 1_555
C6 N3 1_555 1_555
C7 C8 1_555 1_555
C8 C10 1_555 1_555
C9 C7 1_555 1_555
O2 C10 1_555 1_555
C10 N1 1_555 1_555
N3 C8 1_555 1_555
C11 C12 1_555 1_555
C12 C13 1_555 1_555
C13 C14 1_555 1_555
C14 C15 1_555 1_555
C15 C16 1_555 1_555
C16 C6 1_555 1_555
H1 C2 1_555 1_555
H2 C5 1_555 1_555
H3 C5 1_555 1_555
H4 C5 1_555 1_555
H5 C6 1_555 1_555
H6 C6 1_555 1_555
H7 C11 1_555 1_555
H8 C12 1_555 1_555
H9 C13 1_555 1_555
H10 C14 1_555 1_555
H11 C15 1_555 1_555
C4 N2 1_555 1_555
C11 C16 1_555 1_555

#END
