
#######################################################################
#
#                 Cambridge Crystallographic Data Centre
#                                CCDC 
#
#######################################################################
#
# If this CIF has been generated from an entry in the Cambridge 
# Structural Database, then it will include bibliographic, chemical, 
# crystal, experimental, refinement or atomic coordinate data resulting 
# from the CCDC's data processing and validation procedures.
#
#######################################################################

data_LEWHOL
_chemical_formula_moiety         'C13 H9 Cl1 N4 O4'
_chemical_name_systematic        
N-(5-Chloro-2-nitrobenzoyl)-N'-isonicotinoylhydrazine
_symmetry_cell_setting           orthorhombic
_symmetry_space_group_name_H-M   'F d d 2'
_symmetry_Int_Tables_number      43
_space_group_name_Hall           'F 2 -2d'
loop_
_symmetry_equiv_pos_site_id
_symmetry_equiv_pos_as_xyz
1 x,y,z
2 -x,-y,z
3 1/4-x,1/4+y,1/4+z
4 3/4+x,3/4-y,1/4+z
5 x,1/2+y,1/2+z
6 -x,1/2-y,1/2+z
7 1/4-x,3/4+y,3/4+z
8 3/4+x,1/4-y,3/4+z
9 1/2+x,y,1/2+z
10 1/2-x,-y,1/2+z
11 3/4-x,1/4+y,3/4+z
12 1/4+x,3/4-y,3/4+z
13 1/2+x,1/2+y,z
14 1/2-x,1/2-y,z
15 3/4-x,3/4+y,1/4+z
16 1/4+x,1/4-y,1/4+z
_cell_length_a                   67.786(4)
_cell_length_b                   34.613(2)
_cell_length_c                   4.6486(2)
_cell_angle_alpha                90
_cell_angle_beta                 90
_cell_angle_gamma                90
_cell_volume                     10906.9
_exptl_crystal_colour            colorless
_exptl_crystal_description       needle
_chemical_melting_point          543-545K(dec)
_cell_formula_units_Z            32
_exptl_crystal_recrystallization_method ethanol
loop_
_atom_site_label
_atom_site_type_symbol
_atom_site_fract_x
_atom_site_fract_y
_atom_site_fract_z
N1 N 0.32274(6) 0.54404(12) 0.6076(9)
C1 C 0.33700(8) 0.51929(15) 0.6811(13)
C2 C 0.33787(8) 0.48147(15) 0.5828(11)
C3 C 0.32318(8) 0.46834(15) 0.4031(11)
C4 C 0.30859(8) 0.49394(15) 0.3220(11)
C5 C 0.30883(8) 0.53063(15) 0.4320(12)
C6 C 0.32230(7) 0.42828(16) 0.2821(13)
O1 O 0.31415(5) 0.42119(10) 0.0530(8)
N2 N 0.33095(6) 0.40022(11) 0.4385(9)
N3 N 0.32920(6) 0.36286(11) 0.3350(9)
C7 C 0.32892(7) 0.33276(14) 0.5187(13)
O2 O 0.33100(6) 0.33659(10) 0.7804(8)
C8 C 0.32351(7) 0.29506(14) 0.3875(11)
C9 C 0.33456(7) 0.27172(14) 0.2074(11)
N4 N 0.35514(7) 0.28219(14) 0.1378(11)
O3 O 0.36322(5) 0.30690(11) 0.2866(9)
O4 O 0.36326(6) 0.26550(12) -0.0632(11)
C10 C 0.32756(8) 0.23772(16) 0.0876(12)
C11 C 0.30871(8) 0.22605(15) 0.1591(12)
C12 C 0.29757(7) 0.24784(16) 0.3449(12)
Cl1 Cl 0.27397(2) 0.23329(4) 0.4317(4)
C13 C 0.30482(8) 0.28213(15) 0.4576(12)
H1 H 0.3471 0.5280 0.8073
H2 H 0.3484 0.4650 0.6384
H3 H 0.2985 0.4862 0.1918
H4 H 0.2984 0.5476 0.3797
H5 H 0.3375 0.4015 0.6014
H6 H 0.3307 0.3562 0.1536
H7 H 0.3355 0.2229 -0.0397
H8 H 0.3035 0.2029 0.0797
H9 H 0.2968 0.2969 0.5846
N5 N 0.36416(6) 0.40581(13) 0.8757(9)
C14 C 0.37569(8) 0.37612(15) 0.8074(12)
C15 C 0.39446(8) 0.37069(15) 0.9265(12)
C16 C 0.40144(7) 0.39704(15) 1.1202(12)
C17 C 0.38935(8) 0.42736(15) 1.1948(12)
C18 C 0.37124(8) 0.43104(16) 1.0637(12)
C19 C 0.42157(7) 0.39452(16) 1.2631(13)
O5 O 0.42663(5) 0.41836(11) 1.4393(9)
N6 N 0.43315(6) 0.36508(12) 1.1805(9)
N7 N 0.45204(6) 0.36366(11) 1.2963(10)
C20 C 0.46750(8) 0.36012(14) 1.1193(14)
O6 O 0.46603(5) 0.35841(10) 0.8564(8)
C21 C 0.48709(7) 0.35861(15) 1.2688(11)
C22 C 0.49991(8) 0.32735(16) 1.2428(11)
N8 N 0.49372(8) 0.29281(13) 1.0876(10)
O7 O 0.47619(6) 0.28373(10) 1.0942(8)
O8 O 0.50662(6) 0.27417(12) 0.9587(11)
C23 C 0.51840(8) 0.32683(18) 1.3700(12)
C24 C 0.52428(8) 0.35888(19) 1.5291(14)
C25 C 0.51170(8) 0.38943(16) 1.5572(11)
Cl2 Cl 0.51843(2) 0.42921(5) 1.7631(3)
C26 C 0.49313(7) 0.39002(15) 1.4267(11)
H10 H 0.3710 0.3578 0.6717
H11 H 0.4022 0.3490 0.8733
H12 H 0.3935 0.4456 1.3354
H13 H 0.3634 0.4529 1.1105
H14 H 0.4291 0.3472 1.0599
H15 H 0.4537 0.3648 1.4838
H16 H 0.5269 0.3051 1.3491
H17 H 0.5369 0.3595 1.6173
H18 H 0.4848 0.4119 1.4469
loop_
_geom_bond_atom_site_label_1
_geom_bond_atom_site_label_2
_geom_bond_site_symmetry_1
_geom_bond_site_symmetry_2
N1 C1 1_555 1_555
C1 C2 1_555 1_555
C2 C3 1_555 1_555
C3 C4 1_555 1_555
C4 C5 1_555 1_555
C5 N1 1_555 1_555
C6 C3 1_555 1_555
O1 C6 1_555 1_555
N2 C6 1_555 1_555
N3 N2 1_555 1_555
C7 N3 1_555 1_555
O2 C7 1_555 1_555
C8 C7 1_555 1_555
C9 C8 1_555 1_555
N4 C9 1_555 1_555
O3 N4 1_555 1_555
O4 N4 1_555 1_555
C10 C9 1_555 1_555
C11 C10 1_555 1_555
C12 C11 1_555 1_555
Cl1 C12 1_555 1_555
C13 C8 1_555 1_555
N5 C14 1_555 1_555
C14 C15 1_555 1_555
C15 C16 1_555 1_555
C16 C17 1_555 1_555
C17 C18 1_555 1_555
C18 N5 1_555 1_555
C19 C16 1_555 1_555
O5 C19 1_555 1_555
N6 C19 1_555 1_555
N7 N6 1_555 1_555
C20 N7 1_555 1_555
O6 C20 1_555 1_555
C21 C20 1_555 1_555
C22 C21 1_555 1_555
N8 C22 1_555 1_555
O7 N8 1_555 1_555
O8 N8 1_555 1_555
C23 C22 1_555 1_555
C24 C23 1_555 1_555
C25 C24 1_555 1_555
Cl2 C25 1_555 1_555
C26 C21 1_555 1_555
H1 C1 1_555 1_555
H2 C2 1_555 1_555
H3 C4 1_555 1_555
H4 C5 1_555 1_555
H5 N2 1_555 1_555
H6 N3 1_555 1_555
H7 C10 1_555 1_555
H8 C11 1_555 1_555
H9 C13 1_555 1_555
H10 C14 1_555 1_555
H11 C15 1_555 1_555
H12 C17 1_555 1_555
H13 C18 1_555 1_555
H14 N6 1_555 1_555
H15 N7 1_555 1_555
H16 C23 1_555 1_555
H17 C24 1_555 1_555
H18 C26 1_555 1_555
C12 C13 1_555 1_555
C25 C26 1_555 1_555

#END
