
#######################################################################
#
#                 Cambridge Crystallographic Data Centre
#                                CCDC 
#
#######################################################################
#
# If this CIF has been generated from an entry in the Cambridge 
# Structural Database, then it will include bibliographic, chemical, 
# crystal, experimental, refinement or atomic coordinate data resulting 
# from the CCDC's data processing and validation procedures.
#
#######################################################################

data_LEWMAC
_chemical_name_common            
'Methylazacalix(4)pyridine bis(oxalic acid) clathrate monohydrate'
_chemical_formula_moiety         'C24 H27 N8 3+,C2 O4 2-,C2 H1 O4 1-,H2 O1'
_chemical_name_systematic        
'2,4,6,8-Tetramethyl-2,4,6,8-tetra-aza-1,3,5,7-(2,6)-tetrapyridinaoctacyclophane bis(oxalic acid) clathrate monohydrate'
_symmetry_cell_setting           triclinic
_symmetry_space_group_name_H-M   'P 1'
_symmetry_Int_Tables_number      1
_space_group_name_Hall           'P 1'
loop_
_symmetry_equiv_pos_site_id
_symmetry_equiv_pos_as_xyz
1 x,y,z
_cell_length_a                   9.5691(19)
_cell_length_b                   11.747(2)
_cell_length_c                   13.787(3)
_cell_angle_alpha                69.43(3)
_cell_angle_beta                 82.24(3)
_cell_angle_gamma                75.44(3)
_cell_volume                     1402.5
_exptl_crystal_colour            'light green'
_exptl_crystal_description       block
_cell_formula_units_Z            2
loop_
_atom_site_label
_atom_site_type_symbol
_atom_site_fract_x
_atom_site_fract_y
_atom_site_fract_z
N1 N 0.4798(3) 0.2273(2) 0.0124(2)
N2 N 0.5226(3) 0.2779(2) 0.14916(19)
H1 H 0.5893 0.2110 0.1673
N3 N 0.5801(3) 0.3126(2) 0.28979(17)
N4 N 0.7634(3) 0.39801(19) 0.18437(16)
H2 H 0.7105 0.4142 0.1334
N5 N 0.9346(2) 0.48931(19) 0.06337(17)
N6 N 0.9560(3) 0.3182(2) 0.01901(18)
N7 N 0.9790(3) 0.1354(2) -0.0155(2)
N8 N 0.7341(3) 0.1740(2) -0.00147(17)
H4 H 0.7313 0.2525 -0.0287
C1 C 0.4508(3) 0.3058(3) 0.0635(3)
C2 C 0.3415(3) 0.4128(3) 0.0350(3)
H9 H 0.2911 0.4355 -0.0244
C3 C 0.3121(4) 0.4834(4) 0.1000(3)
H10 H 0.2366 0.5536 0.0857
C4 C 0.3949(4) 0.4514(3) 0.1896(3)
H11 H 0.3788 0.4998 0.2326
C5 C 0.4921(3) 0.3513(3) 0.2048(2)
C6 C 0.5164(4) 0.2710(3) 0.3935(3)
H12 H 0.5885 0.2502 0.4428
H13 H 0.4795 0.1989 0.4029
H14 H 0.4389 0.3364 0.4039
C7 C 0.7131(3) 0.3416(2) 0.2816(2)
C8 C 0.7983(3) 0.3095(2) 0.3600(2)
H15 H 0.7676 0.2673 0.4271
C9 C 0.9307(4) 0.3389(3) 0.3416(3)
H16 H 0.9895 0.3145 0.3970
C10 C 0.9770(3) 0.3977(3) 0.2523(2)
H17 H 1.0656 0.4199 0.2446
C11 C 0.8958(3) 0.4308(2) 0.1631(2)
C12 C 0.9285(5) 0.6237(3) 0.0320(3)
H18 H 0.9599 0.6538 -0.0398
H19 H 0.9906 0.6381 0.0736
H20 H 0.8310 0.6669 0.0417
C13 C 0.9592(3) 0.4369(3) -0.0105(2)
C14 C 0.9920(4) 0.5062(3) -0.1153(3)
H21 H 0.9942 0.5900 -0.1345
C15 C 1.0212(4) 0.4437(3) -0.1892(3)
H22 H 1.0405 0.4867 -0.2586
C16 C 1.0209(4) 0.3182(3) -0.1575(2)
H23 H 1.0416 0.2746 -0.2043
C17 C 0.9889(3) 0.2605(2) -0.0547(2)
C18 C 1.1162(5) 0.0483(4) -0.0200(4)
H24 H 1.1020 -0.0354 0.0078
H25 H 1.1843 0.0581 0.0201
H26 H 1.1529 0.0649 -0.0908
C19 C 0.8593(4) 0.0957(3) 0.0120(2)
C20 C 0.8539(4) -0.0362(3) 0.0563(3)
H27 H 0.9405 -0.0957 0.0669
C21 C 0.7324(5) -0.0739(3) 0.0817(3)
H28 H 0.7333 -0.1586 0.1097
C22 C 0.6059(4) 0.0105(3) 0.0671(3)
H29 H 0.5178 -0.0136 0.0839
C23 C 0.6128(3) 0.1363(3) 0.0254(2)
C24 C 0.4021(4) 0.2429(4) -0.0763(3)
H30 H 0.3144 0.3053 -0.0796
H31 H 0.3791 0.1653 -0.0693
H32 H 0.4612 0.2683 -0.1386
N9 N 1.2566(3) 0.1588(3) -0.38382(19)
N10 N 1.0092(3) 0.2149(2) -0.37782(19)
H5 H 1.0114 0.1364 -0.3513
N11 N 0.7558(3) 0.2564(2) -0.3575(2)
N12 N 0.7798(2) 0.0738(2) -0.39482(17)
H6 H 0.7929 0.1146 -0.4595
N13 N 0.8032(3) -0.1044(2) -0.4409(2)
N14 N 0.9746(3) -0.0088(2) -0.55817(18)
H7 H 1.0257 -0.0305 -0.5053
N15 N 1.1582(3) 0.0693(2) -0.66680(19)
N16 N 1.2123(3) 0.1109(2) -0.52253(18)
C25 C 1.1342(4) 0.2572(3) -0.4097(2)
C26 C 1.1340(4) 0.3731(3) -0.4471(2)
H33 H 1.2209 0.3986 -0.4679
C27 C 1.0057(4) 0.4605(3) -0.4569(3)
H34 H 1.0065 0.5449 -0.4818
C28 C 0.8755(4) 0.4233(3) -0.4299(3)
H35 H 0.7878 0.4813 -0.4397
C29 C 0.8802(4) 0.3012(3) -0.3893(2)
C30 C 0.6205(4) 0.3421(3) -0.3535(4)
H36 H 0.6355 0.4256 -0.3785
H37 H 0.5816 0.3234 -0.2831
H38 H 0.5540 0.3346 -0.3960
C31 C 0.7634(4) 0.1243(3) -0.3248(3)
C32 C 0.7344(4) 0.0658(3) -0.2252(3)
H39 H 0.7263 0.1057 -0.1765
C33 C 0.7171(4) -0.0514(3) -0.1959(3)
H40 H 0.6848 -0.0900 -0.1283
C34 C 0.7461(4) -0.1117(3) -0.2634(3)
H41 H 0.7460 -0.1960 -0.2429
C35 C 0.7754(3) -0.0482(3) -0.3611(2)
C36 C 0.8173(4) -0.2362(3) -0.4197(3)
H42 H 0.7902 -0.2746 -0.3481
H43 H 0.9158 -0.2735 -0.4339
H44 H 0.7554 -0.2480 -0.4630
C37 C 0.8435(4) -0.0333(3) -0.54453(19)
C38 C 0.7591(4) -0.0122(3) -0.6159(2)
H45 H 0.6703 -0.0349 -0.6019
C39 C 0.8123(4) 0.0514(3) -0.7235(2)
H46 H 0.7547 0.0703 -0.7787
C40 C 0.9402(4) 0.0816(3) -0.7419(3)
H47 H 0.9733 0.1220 -0.8088
C41 C 1.0278(4) 0.0482(2) -0.6514(2)
C42 C 1.2297(4) 0.1261(3) -0.7676(2)
H48 H 1.1642 0.1490 -0.8217
H49 H 1.3142 0.0674 -0.7796
H50 H 1.2572 0.1991 -0.7672
C43 C 1.2424(3) 0.0353(3) -0.5773(3)
C44 C 1.3557(3) -0.0712(3) -0.5589(3)
H51 H 1.3747 -0.1197 -0.6019
C45 C 1.4340(4) -0.1001(3) -0.4786(3)
H52 H 1.5049 -0.1734 -0.4610
C46 C 1.4123(4) -0.0259(3) -0.4232(3)
H53 H 1.4727 -0.0423 -0.3702
C47 C 1.2954(4) 0.0798(3) -0.4453(2)
C48 C 1.3422(5) 0.1388(4) -0.3019(3)
H54 H 1.3005 0.1984 -0.2672
H55 H 1.4380 0.1484 -0.3288
H56 H 1.3465 0.0561 -0.2538
C49 C 1.2026(4) 0.7784(3) 0.2349(3)
C50 C 1.0674(5) 0.7431(3) 0.3030(3)
O1 O 1.2705(4) 0.8403(3) 0.2576(2)
O2 O 1.2302(3) 0.7398(2) 0.1525(2)
O3 O 1.0581(3) 0.7382(3) 0.3922(2)
O4 O 0.9746(3) 0.7232(3) 0.2600(2)
C51 C 0.5416(5) 0.6113(3) 0.3875(3)
C52 C 0.6692(4) 0.6487(3) 0.3212(3)
O5 O 0.4652(3) 0.5621(2) 0.3673(2)
O6 O 0.5140(3) 0.6457(2) 0.4687(2)
O7 O 0.7610(3) 0.6748(3) 0.3663(2)
O8 O 0.6790(3) 0.6497(2) 0.23095(18)
C53 C 1.6166(5) -0.4685(4) -0.1755(3)
C54 C 1.6082(4) -0.4469(5) -0.0836(3)
O9 O 1.5785(4) -0.3854(3) -0.2611(2)
O10 O 1.6639(4) -0.5911(2) -0.1308(4)
O11 O 1.5402(3) -0.3233(3) -0.0857(2)
H57 H 1.5337 -0.3198 -0.0269
O12 O 1.6502(3) -0.4955(3) -0.00455(19)
C55 C 1.2261(4) -0.2090(3) -0.2215(3)
C56 C 1.1200(4) -0.1027(6) -0.2946(3)
O13 O 1.3296(3) -0.1736(3) -0.1955(3)
O14 O 1.2253(4) -0.3193(3) -0.1980(5)
O15 O 1.0722(5) -0.0352(5) -0.2251(4)
H58 H 1.0120 0.0281 -0.2524
O16 O 1.1042(3) -0.1184(3) -0.3727(2)
O17 O 0.2559(3) 0.6413(3) 0.5470(2)
O18 O 0.4852(4) 0.7496(3) 0.0732(2)
H3? H 0.9341 0.2782 0.0824
H8? H 1.1429 0.1761 -0.5365
loop_
_geom_bond_atom_site_label_1
_geom_bond_atom_site_label_2
_geom_bond_site_symmetry_1
_geom_bond_site_symmetry_2
N1 C1 1_555 1_555
N2 H1 1_555 1_555
N3 C5 1_555 1_555
N4 H2 1_555 1_555
N5 C11 1_555 1_555
N6 C13 1_555 1_555
N7 C17 1_555 1_555
N8 H4 1_555 1_555
N9 C25 1_555 1_555
N10 H5 1_555 1_555
N11 C29 1_555 1_555
N12 H6 1_555 1_555
N13 C35 1_555 1_555
N14 H7 1_555 1_555
N15 C41 1_555 1_555
N16 C43 1_555 1_555
C1 N2 1_555 1_555
C2 C1 1_555 1_555
H9 C2 1_555 1_555
C3 C2 1_555 1_555
H10 C3 1_555 1_555
C4 C3 1_555 1_555
H11 C4 1_555 1_555
C5 N2 1_555 1_555
C6 N3 1_555 1_555
H12 C6 1_555 1_555
H13 C6 1_555 1_555
H14 C6 1_555 1_555
C7 N3 1_555 1_555
C8 C7 1_555 1_555
H15 C8 1_555 1_555
C9 C8 1_555 1_555
H16 C9 1_555 1_555
C10 C9 1_555 1_555
H17 C10 1_555 1_555
C11 N4 1_555 1_555
C12 N5 1_555 1_555
H18 C12 1_555 1_555
H19 C12 1_555 1_555
H20 C12 1_555 1_555
C13 N5 1_555 1_555
C14 C13 1_555 1_555
H21 C14 1_555 1_555
C15 C14 1_555 1_555
H22 C15 1_555 1_555
C16 C15 1_555 1_555
H23 C16 1_555 1_555
C17 N6 1_555 1_555
C18 N7 1_555 1_555
H24 C18 1_555 1_555
H25 C18 1_555 1_555
H26 C18 1_555 1_555
C19 N7 1_555 1_555
C20 C19 1_555 1_555
H27 C20 1_555 1_555
C21 C20 1_555 1_555
H28 C21 1_555 1_555
C22 C21 1_555 1_555
H29 C22 1_555 1_555
C23 N1 1_555 1_555
C24 N1 1_555 1_555
H30 C24 1_555 1_555
H31 C24 1_555 1_555
H32 C24 1_555 1_555
C25 N10 1_555 1_555
C26 C25 1_555 1_555
H33 C26 1_555 1_555
C27 C26 1_555 1_555
H34 C27 1_555 1_555
C28 C27 1_555 1_555
H35 C28 1_555 1_555
C29 N10 1_555 1_555
C30 N11 1_555 1_555
H36 C30 1_555 1_555
H37 C30 1_555 1_555
H38 C30 1_555 1_555
C31 N11 1_555 1_555
C32 C31 1_555 1_555
H39 C32 1_555 1_555
C33 C32 1_555 1_555
H40 C33 1_555 1_555
C34 C33 1_555 1_555
H41 C34 1_555 1_555
C35 N12 1_555 1_555
C36 N13 1_555 1_555
H42 C36 1_555 1_555
H43 C36 1_555 1_555
H44 C36 1_555 1_555
C37 N13 1_555 1_555
C38 C37 1_555 1_555
H45 C38 1_555 1_555
C39 C38 1_555 1_555
H46 C39 1_555 1_555
C40 C39 1_555 1_555
H47 C40 1_555 1_555
C41 N14 1_555 1_555
C42 N15 1_555 1_555
H48 C42 1_555 1_555
H49 C42 1_555 1_555
H50 C42 1_555 1_555
C43 N15 1_555 1_555
C44 C43 1_555 1_555
H51 C44 1_555 1_555
C45 C44 1_555 1_555
H52 C45 1_555 1_555
C46 C45 1_555 1_555
H53 C46 1_555 1_555
C47 N9 1_555 1_555
C48 N9 1_555 1_555
H54 C48 1_555 1_555
H55 C48 1_555 1_555
H56 C48 1_555 1_555
C49 C50 1_555 1_555
C50 O3 1_555 1_555
C51 C52 1_555 1_555
C52 O7 1_555 1_555
C53 C54 1_555 1_555
C54 O11 1_555 1_555
C55 C56 1_555 1_555
C56 O15 1_555 1_555
O1 C49 1_555 1_555
O2 C49 1_555 1_555
O4 C50 1_555 1_555
O5 C51 1_555 1_555
O6 C51 1_555 1_555
O8 C52 1_555 1_555
O9 C53 1_555 1_555
O10 C53 1_555 1_555
O11 H57 1_555 1_555
O12 C54 1_555 1_555
O13 C55 1_555 1_555
O14 C55 1_555 1_555
O15 H58 1_555 1_555
O16 C56 1_555 1_555
N4 C7 1_555 1_555
N8 C19 1_555 1_555
N8 C23 1_555 1_555
N12 C31 1_555 1_555
N14 C37 1_555 1_555
N16 C47 1_555 1_555
C4 C5 1_555 1_555
C10 C11 1_555 1_555
C16 C17 1_555 1_555
C22 C23 1_555 1_555
C28 C29 1_555 1_555
C34 C35 1_555 1_555
C40 C41 1_555 1_555
C46 C47 1_555 1_555

#END
