
#######################################################################
#
#                 Cambridge Crystallographic Data Centre
#                                CCDC 
#
#######################################################################
#
# If this CIF has been generated from an entry in the Cambridge 
# Structural Database, then it will include bibliographic, chemical, 
# crystal, experimental, refinement or atomic coordinate data resulting 
# from the CCDC's data processing and validation procedures.
#
#######################################################################

data_LEWSAJ
_chemical_formula_moiety         'C14 H10 F1 N3 O3'
_chemical_name_systematic        
2-Fluoro-N'-(2-nitrobenzylidene)benzohydrazide
_symmetry_cell_setting           monoclinic
_symmetry_space_group_name_H-M   'P 21/n'
_symmetry_Int_Tables_number      14
_space_group_name_Hall           '-P 2yn'
loop_
_symmetry_equiv_pos_site_id
_symmetry_equiv_pos_as_xyz
1 x,y,z
2 1/2-x,1/2+y,1/2-z
3 -x,-y,-z
4 1/2+x,1/2-y,1/2+z
_cell_length_a                   7.0514(14)
_cell_length_b                   25.928(5)
_cell_length_c                   7.7099(15)
_cell_angle_alpha                90
_cell_angle_beta                 111.823(2)
_cell_angle_gamma                90
_cell_volume                     1308.58
_cell_formula_units_Z            4
loop_
_atom_site_label
_atom_site_type_symbol
_atom_site_fract_x
_atom_site_fract_y
_atom_site_fract_z
F1 F 0.2516(5) 0.25394(10) 0.1574(4)
H1 H 0.114(5) 0.2334(18) 0.389(4)
N1 N 0.2494(4) 0.20991(10) 0.6468(3)
N2 N 0.2082(4) 0.24332(10) 0.4974(3)
N3 N 0.1810(6) 0.04984(12) 0.5495(6)
O1 O 0.4009(4) 0.30681(9) 0.6790(3)
O2 O 0.0642(7) 0.07071(13) 0.4060(5)
O3 O 0.2699(7) 0.00986(13) 0.5489(6)
C1 C 0.2103(5) 0.07328(12) 0.7308(5)
C2 C 0.2396(7) 0.03946(14) 0.8773(6)
H2 H 0.2409 0.0041 0.8583
C3 C 0.2668(8) 0.05873(18) 1.0516(6)
H3 H 0.2826 0.0364 1.1504
C4 C 0.2705(6) 0.11103(16) 1.0782(5)
H4 H 0.2901 0.1240 1.1961
C5 C 0.2457(5) 0.14451(13) 0.9340(4)
H5 H 0.2511 0.1798 0.9563
C6 C 0.2123(5) 0.12662(11) 0.7531(4)
C7 C 0.1831(5) 0.16468(12) 0.6040(4)
H6 H 0.1164 0.1555 0.4794
C8 C 0.2922(4) 0.29034(12) 0.5250(4)
C9 C 0.2465(4) 0.32270(11) 0.3537(4)
C10 C 0.2324(5) 0.37611(13) 0.3687(5)
H7 H 0.2475 0.3906 0.4835
C11 C 0.1965(6) 0.40774(15) 0.2163(6)
H8 H 0.1859 0.4432 0.2288
C12 C 0.1762(6) 0.38727(17) 0.0454(6)
H9 H 0.1524 0.4089 -0.0566
C13 C 0.1910(6) 0.33474(18) 0.0253(5)
H10 H 0.1760 0.3205 -0.0898
C14 C 0.2290(5) 0.30371(13) 0.1811(4)
loop_
_geom_bond_atom_site_label_1
_geom_bond_atom_site_label_2
_geom_bond_site_symmetry_1
_geom_bond_site_symmetry_2
F1 C14 1_555 1_555
H1 N2 1_555 1_555
N1 N2 1_555 1_555
N2 C8 1_555 1_555
N3 O2 1_555 1_555
O1 C8 1_555 1_555
O3 N3 1_555 1_555
C1 N3 1_555 1_555
C2 C1 1_555 1_555
H2 C2 1_555 1_555
C3 C2 1_555 1_555
H3 C3 1_555 1_555
C4 C3 1_555 1_555
H4 C4 1_555 1_555
C5 C4 1_555 1_555
H5 C5 1_555 1_555
C6 C1 1_555 1_555
C7 N1 1_555 1_555
H6 C7 1_555 1_555
C8 C9 1_555 1_555
C9 C10 1_555 1_555
C10 H7 1_555 1_555
C11 C10 1_555 1_555
H8 C11 1_555 1_555
C12 C11 1_555 1_555
H9 C12 1_555 1_555
C13 C12 1_555 1_555
H10 C13 1_555 1_555
C14 C9 1_555 1_555
C5 C6 1_555 1_555
C6 C7 1_555 1_555
C13 C14 1_555 1_555

#END
