
#######################################################################
#
#                 Cambridge Crystallographic Data Centre
#                                CCDC 
#
#######################################################################
#
# If this CIF has been generated from an entry in the Cambridge 
# Structural Database, then it will include bibliographic, chemical, 
# crystal, experimental, refinement or atomic coordinate data resulting 
# from the CCDC's data processing and validation procedures.
#
#######################################################################

data_LEWXUJ
_chemical_name_common            
1-(hex-5-ynyl)-3-(3-(2-(trimethylsilyl)ethynyl)phenyl)thiourea
_chemical_formula_moiety         'C24 H36 N2 S1 Si1'
_chemical_name_systematic        
N-hex-5-yn-1-yl-N'-(3-{[tris(propan-2-yl)silyl]ethynyl}phenyl)thiourea
_symmetry_cell_setting           monoclinic
_symmetry_space_group_name_H-M   'I 2/a'
_symmetry_Int_Tables_number      15
_space_group_name_Hall           '-I 2ya'
loop_
_symmetry_equiv_pos_site_id
_symmetry_equiv_pos_as_xyz
1 x,y,z
2 1/2-x,y,-z
3 1/2+x,1/2+y,1/2+z
4 -x,1/2+y,1/2-z
5 -x,-y,-z
6 1/2+x,-y,z
7 1/2-x,1/2-y,1/2-z
8 x,1/2-y,1/2+z
_cell_length_a                   24.712(7)
_cell_length_b                   8.4842(15)
_cell_length_c                   24.907(6)
_cell_angle_alpha                90
_cell_angle_beta                 101.616(10)
_cell_angle_gamma                90
_cell_volume                     5115.09
_exptl_crystal_colour            colorless
_exptl_crystal_description       blade
_cell_formula_units_Z            8
loop_
_atom_site_label
_atom_site_type_symbol
_atom_site_fract_x
_atom_site_fract_y
_atom_site_fract_z
S1 S 0.07008(2) 0.53294(7) 0.29523(2)
Si1 Si 0.28429(3) 0.41567(9) 0.13663(3)
N1 N 0.00360(9) 0.7736(2) 0.30181(8)
H1 H -0.0183(11) 0.844(3) 0.2860(11)
N2 N 0.02165(7) 0.7376(2) 0.21821(7)
H2 H -0.0013(10) 0.807(3) 0.2102(10)
C1 C -0.10568(14) 0.5102(5) 0.53741(16)
H3 H -0.1076 0.4973 0.5740
C2 C -0.10322(12) 0.5262(4) 0.49180(14)
C3 C -0.10064(13) 0.5486(4) 0.43422(13)
H4 H -0.1330 0.6071 0.4163
H5 H -0.1017 0.4463 0.4166
C4 C -0.05006(11) 0.6344(3) 0.42629(10)
H6 H -0.0177 0.5762 0.4443
H7 H -0.0490 0.7370 0.4436
C5 C -0.04786(10) 0.6561(3) 0.36638(9)
H8 H -0.0478 0.5535 0.3492
H9 H -0.0807 0.7119 0.3481
C6 C 0.00217(11) 0.7461(3) 0.35904(10)
H10 H 0.0029 0.8467 0.3777
H11 H 0.0350 0.6879 0.3760
C7 C 0.03004(8) 0.6875(2) 0.27076(9)
C8 C 0.04142(8) 0.6808(2) 0.17248(8)
C9 C 0.09356(8) 0.6180(3) 0.17561(9)
H12 H 0.1172 0.6055 0.2095
C10 C 0.11054(9) 0.5736(3) 0.12788(10)
C11 C 0.07531(11) 0.5924(3) 0.07749(10)
H13 H 0.0864 0.5614 0.0455
C12 C 0.02388(10) 0.6574(4) 0.07508(10)
H14 H 0.0003 0.6719 0.0413
C13 C 0.00713(9) 0.7009(3) 0.12233(9)
H15 H -0.0278 0.7443 0.1203
C14 C 0.16536(10) 0.5126(3) 0.13129(10)
C15 C 0.21159(11) 0.4671(4) 0.13387(11)
C16 C 0.32415(17) 0.4769(6) 0.20446(17)
H16 H 0.3125 0.3953 0.2276
C17 C 0.3097(2) 0.6108(7) 0.2303(2)
H17 H 0.3282 0.6099 0.2681
H18 H 0.2705 0.6121 0.2280
H19 H 0.3205 0.7029 0.2127
C18 C 0.38573(15) 0.4369(6) 0.21224(18)
H20 H 0.4001 0.4787 0.1821
H21 H 0.3904 0.3245 0.2136
H22 H 0.4053 0.4824 0.2459
C19 C 0.28860(13) 0.1969(4) 0.13027(15)
H23 H 0.3278 0.1706 0.1337
C20 C 0.25899(17) 0.1405(6) 0.07392(19)
H24 H 0.2595 0.0274 0.0728
H25 H 0.2774 0.1817 0.0465
H26 H 0.2214 0.1767 0.0669
C21 C 0.2681(2) 0.1080(6) 0.1755(2)
H27 H 0.2294 0.1275 0.1725
H28 H 0.2879 0.1434 0.2106
H29 H 0.2741 -0.0029 0.1718
C22 C 0.30296(14) 0.5150(5) 0.07668(14)
H30 H 0.2761 0.4762 0.0450
C23 C 0.35955(18) 0.4701(6) 0.0647(2)
H31 H 0.3683 0.5388 0.0371
H32 H 0.3585 0.3630 0.0520
H33 H 0.3873 0.4802 0.0976
C24 C 0.2955(2) 0.6898(6) 0.0756(2)
H34 H 0.3240 0.7373 0.1026
H35 H 0.2600 0.7152 0.0834
H36 H 0.2977 0.7292 0.0399
loop_
_geom_bond_atom_site_label_1
_geom_bond_atom_site_label_2
_geom_bond_site_symmetry_1
_geom_bond_site_symmetry_2
S1 C7 1_555 1_555
Si1 C15 1_555 1_555
N1 H1 1_555 1_555
N2 H2 1_555 1_555
C1 H3 1_555 1_555
C2 C1 1_555 1_555
C3 C2 1_555 1_555
H4 C3 1_555 1_555
H5 C3 1_555 1_555
C4 C3 1_555 1_555
H6 C4 1_555 1_555
H7 C4 1_555 1_555
C5 C4 1_555 1_555
H8 C5 1_555 1_555
H9 C5 1_555 1_555
C6 N1 1_555 1_555
H10 C6 1_555 1_555
H11 C6 1_555 1_555
C7 N1 1_555 1_555
C8 N2 1_555 1_555
C9 C8 1_555 1_555
H12 C9 1_555 1_555
C10 C9 1_555 1_555
C11 C10 1_555 1_555
H13 C11 1_555 1_555
C12 C11 1_555 1_555
H14 C12 1_555 1_555
C13 C8 1_555 1_555
H15 C13 1_555 1_555
C14 C10 1_555 1_555
C15 C14 1_555 1_555
C16 Si1 1_555 1_555
H16 C16 1_555 1_555
C17 C16 1_555 1_555
H17 C17 1_555 1_555
H18 C17 1_555 1_555
H19 C17 1_555 1_555
C18 C16 1_555 1_555
H20 C18 1_555 1_555
H21 C18 1_555 1_555
H22 C18 1_555 1_555
C19 Si1 1_555 1_555
H23 C19 1_555 1_555
C20 C19 1_555 1_555
H24 C20 1_555 1_555
H25 C20 1_555 1_555
H26 C20 1_555 1_555
C21 C19 1_555 1_555
H27 C21 1_555 1_555
H28 C21 1_555 1_555
H29 C21 1_555 1_555
C22 Si1 1_555 1_555
H30 C22 1_555 1_555
C23 C22 1_555 1_555
H31 C23 1_555 1_555
H32 C23 1_555 1_555
H33 C23 1_555 1_555
C24 C22 1_555 1_555
H34 C24 1_555 1_555
H35 C24 1_555 1_555
H36 C24 1_555 1_555
N2 C7 1_555 1_555
C5 C6 1_555 1_555
C12 C13 1_555 1_555

#END
