
#######################################################################
#
#                 Cambridge Crystallographic Data Centre
#                                CCDC 
#
#######################################################################
#
# If this CIF has been generated from an entry in the Cambridge 
# Structural Database, then it will include bibliographic, chemical, 
# crystal, experimental, refinement or atomic coordinate data resulting 
# from the CCDC's data processing and validation procedures.
#
#######################################################################

data_LEWXER
_chemical_formula_moiety         'C8 H12 F1 N1 O3'
_chemical_name_systematic        'N-Acetyl-(2R,3S)-3-fluoroproline methyl ester'
_symmetry_cell_setting           orthorhombic
_symmetry_space_group_name_H-M   'P 21 21 21'
_symmetry_Int_Tables_number      19
_space_group_name_Hall           'P 2ac 2ab'
loop_
_symmetry_equiv_pos_site_id
_symmetry_equiv_pos_as_xyz
1 x,y,z
2 1/2-x,-y,1/2+z
3 -x,1/2+y,1/2-z
4 1/2+x,1/2-y,-z
_cell_length_a                   7.555(2)
_cell_length_b                   9.550(2)
_cell_length_c                   13.080(3)
_cell_angle_alpha                90
_cell_angle_beta                 90
_cell_angle_gamma                90
_cell_volume                     943.725
_exptl_crystal_colour            colorless
_exptl_crystal_description       triangular
_cell_formula_units_Z            4
_exptl_crystal_recrystallization_method 'ethyl acetate'
loop_
_atom_site_label
_atom_site_type_symbol
_atom_site_fract_x
_atom_site_fract_y
_atom_site_fract_z
C1 C 1.0085(11) 0.4220(10) 0.1249(6)
H1 H 1.1122 0.4782 0.1491
C2 C 0.8566(12) 0.5129(11) 0.0940(7)
H2 H 0.8704 0.5448 0.0225
H3 H 0.8485 0.5961 0.1390
C3 C 0.6943(10) 0.4221(10) 0.1051(6)
H4 H 0.5908 0.4780 0.1271
H5 H 0.6658 0.3741 0.0401
C4 C 0.9322(10) 0.3298(10) 0.2097(6)
H6 H 0.9872 0.2346 0.2079
C5 C 0.9610(10) 0.3983(8) 0.3146(6)
C6 C 0.6407(11) 0.2320(10) 0.2335(7)
F1 F 1.0530(6) 0.3338(6) 0.0439(3)
N1 N 0.7460(8) 0.3216(8) 0.1840(5)
O1 O 0.8633(9) 0.4732(9) 0.3561(5)
O2 O 0.6992(8) 0.1514(7) 0.2990(5)
C7 C 0.4499(11) 0.2282(13) 0.1983(8)
H7 H 0.3953 0.1401 0.2201
H8 H 0.4457 0.2351 0.1236
H9 H 0.3853 0.3071 0.2284
O3 O 1.1211(7) 0.3584(7) 0.3488(4)
C8 C 1.1801(13) 0.4219(14) 0.4437(7)
H10 H 1.1586 0.5231 0.4413
H11 H 1.3069 0.4045 0.4528
H12 H 1.1145 0.3811 0.5011
loop_
_geom_bond_atom_site_label_1
_geom_bond_atom_site_label_2
_geom_bond_site_symmetry_1
_geom_bond_site_symmetry_2
C1 H1 1_555 1_555
C2 C1 1_555 1_555
H2 C2 1_555 1_555
H3 C2 1_555 1_555
C3 C2 1_555 1_555
H4 C3 1_555 1_555
H5 C3 1_555 1_555
C4 C1 1_555 1_555
H6 C4 1_555 1_555
C5 C4 1_555 1_555
C6 N1 1_555 1_555
F1 C1 1_555 1_555
N1 C3 1_555 1_555
O1 C5 1_555 1_555
O2 C6 1_555 1_555
C7 C6 1_555 1_555
H7 C7 1_555 1_555
H8 C7 1_555 1_555
H9 C7 1_555 1_555
O3 C5 1_555 1_555
C8 O3 1_555 1_555
H10 C8 1_555 1_555
H11 C8 1_555 1_555
H12 C8 1_555 1_555
C4 N1 1_555 1_555

#END
