
#######################################################################
#
#                 Cambridge Crystallographic Data Centre
#                                CCDC 
#
#######################################################################
#
# If this CIF has been generated from an entry in the Cambridge 
# Structural Database, then it will include bibliographic, chemical, 
# crystal, experimental, refinement or atomic coordinate data resulting 
# from the CCDC's data processing and validation procedures.
#
#######################################################################

data_LEWYIX
_chemical_formula_moiety         'C7 H5 N1 O4,C6 H6 Cl1 N1 O1,H2 O1'
_chemical_name_systematic        
'4-Nitrobenzoic acid 2-amino-4-chlorophenol monohydrate'
_symmetry_cell_setting           triclinic
_symmetry_space_group_name_H-M   'P -1'
_symmetry_Int_Tables_number      2
_space_group_name_Hall           '-P 1'
loop_
_symmetry_equiv_pos_site_id
_symmetry_equiv_pos_as_xyz
1 x,y,z
2 -x,-y,-z
_cell_length_a                   6.6040(5)
_cell_length_b                   7.4679(6)
_cell_length_c                   15.1801(14)
_cell_angle_alpha                77.3260(10)
_cell_angle_beta                 82.0680(10)
_cell_angle_gamma                88.123(2)
_cell_volume                     723.42
_exptl_crystal_colour            colorless
_exptl_crystal_description       block
_cell_formula_units_Z            2
loop_
_atom_site_label
_atom_site_type_symbol
_atom_site_fract_x
_atom_site_fract_y
_atom_site_fract_z
Cl1 Cl 0.23252(12) 0.61078(10) 0.45007(4)
N1 N 0.2901(3) 0.8374(3) 0.10477(14)
H1 H 0.1689 0.7964 0.1069
H2 H 0.3566 0.8906 0.0534
O1 O 0.6617(3) 0.9759(2) 0.09567(10)
H3 H 0.7753 1.0129 0.0990
C1 C 0.5716(3) 0.8918(3) 0.18076(15)
C2 C 0.3786(3) 0.8178(3) 0.18472(15)
C3 C 0.2765(4) 0.7330(3) 0.26869(16)
H4 H 0.1465 0.6850 0.2727
C4 C 0.3671(4) 0.7197(3) 0.34610(16)
C5 C 0.5584(4) 0.7883(3) 0.34254(17)
H5 H 0.6187 0.7765 0.3954
C6 C 0.6613(4) 0.8760(3) 0.25858(16)
H6 H 0.7910 0.9240 0.2552
N2 N 0.7794(3) 0.5079(3) 0.12100(14)
O2 O 0.0220(2) 0.0904(2) 0.38207(11)
H7 H -0.0511 0.0368 0.4277
O3 O 0.2401(3) 0.0801(2) 0.48255(10)
O4 O 0.9384(3) 0.5545(3) 0.14124(13)
O5 O 0.7392(3) 0.5435(3) 0.04315(13)
C7 C 0.1956(3) 0.1242(3) 0.40346(15)
C8 C 0.3476(3) 0.2218(3) 0.32859(14)
C9 C 0.3057(3) 0.2618(3) 0.23932(15)
H8 H 0.1818 0.2266 0.2258
C10 C 0.4477(3) 0.3539(3) 0.17069(15)
H9 H 0.4217 0.3811 0.1105
C11 C 0.6289(3) 0.4047(3) 0.19327(15)
C12 C 0.6748(3) 0.3653(3) 0.28120(16)
H10 H 0.7990 0.4008 0.2943
C13 C 0.5331(3) 0.2725(3) 0.34917(15)
H11 H 0.5613 0.2436 0.4090
O6 O 0.0163(3) 0.1450(2) 0.08701(12)
H12 H 0.0815 0.2341 0.0508
H13 H 0.0948 0.0519 0.0934
loop_
_geom_bond_atom_site_label_1
_geom_bond_atom_site_label_2
_geom_bond_site_symmetry_1
_geom_bond_site_symmetry_2
Cl1 C4 1_555 1_555
N1 H1 1_555 1_555
H2 N1 1_555 1_555
O1 H3 1_555 1_555
C1 O1 1_555 1_555
C2 N1 1_555 1_555
C3 C2 1_555 1_555
H4 C3 1_555 1_555
C4 C3 1_555 1_555
C5 C4 1_555 1_555
H5 C5 1_555 1_555
C6 C1 1_555 1_555
H6 C6 1_555 1_555
N2 O4 1_555 1_555
O2 H7 1_555 1_555
O3 C7 1_555 1_555
O5 N2 1_555 1_555
C7 O2 1_555 1_555
C8 C7 1_555 1_555
C9 C8 1_555 1_555
H8 C9 1_555 1_555
C10 C9 1_555 1_555
H9 C10 1_555 1_555
C11 N2 1_555 1_555
C12 C11 1_555 1_555
H10 C12 1_555 1_555
C13 C8 1_555 1_555
H11 C13 1_555 1_555
O6 H12 1_555 1_555
H13 O6 1_555 1_555
C1 C2 1_555 1_555
C5 C6 1_555 1_555
C10 C11 1_555 1_555
C12 C13 1_555 1_555

#END
