
#######################################################################
#
#                 Cambridge Crystallographic Data Centre
#                                CCDC 
#
#######################################################################
#
# If this CIF has been generated from an entry in the Cambridge 
# Structural Database, then it will include bibliographic, chemical, 
# crystal, experimental, refinement or atomic coordinate data resulting 
# from the CCDC's data processing and validation procedures.
#
#######################################################################

data_LEXKOR
_chemical_formula_moiety         'C37 H65 B11 N4 O2 Si2,0.5(C6 H14)'
_chemical_name_systematic        
'1,2-(2-t-butoxy-1,3-di-t-butyl-2-[(carbonyl)(1,3-di-t-butyl-2-yl-4-phenyl-2,3-dihydro-1,3,2-diazasilet-1-2-yl)boranyl]-4-phenyl-2,3-dihydro-1,3,2-diazasilet-1-ium)-1,2-dicaba-closo-dodecaborane(10) n-hexane solvate'
_symmetry_cell_setting           trigonal
_symmetry_space_group_name_H-M   'P 32'
_symmetry_Int_Tables_number      145
_space_group_name_Hall           'P 32'
loop_
_symmetry_equiv_pos_site_id
_symmetry_equiv_pos_as_xyz
1 x,y,z
2 -y,x-y,2/3+z
3 -x+y,-x,1/3+z
_cell_length_a                   13.2897(6)
_cell_length_b                   13.2897(6)
_cell_length_c                   26.9295(14)
_cell_angle_alpha                90
_cell_angle_beta                 90
_cell_angle_gamma                120
_cell_volume                     4118.98
_exptl_crystal_colour            orange
_exptl_crystal_description       block
_cell_formula_units_Z            3
loop_
_atom_site_label
_atom_site_type_symbol
_atom_site_fract_x
_atom_site_fract_y
_atom_site_fract_z
Si1 Si 0.47848(10) 0.92725(11) 0.50081(5)
Si2 Si 0.55463(11) 0.72633(12) 0.46574(4)
N1 N 0.3278(3) 0.8878(4) 0.48613(14)
N2 N 0.4806(3) 1.0274(4) 0.45293(14)
N3 N 0.5468(3) 0.5986(4) 0.49507(15)
N4 N 0.6954(3) 0.7344(4) 0.45911(15)
C1 C 0.5238(4) 1.0084(4) 0.56271(18)
C2 C 0.5977(5) 0.9559(5) 0.59081(18)
C3 C 0.6084(5) 0.8637(5) 0.55831(19)
C4 C 0.2082(4) 0.7923(5) 0.4971(2)
C5 C 0.2145(7) 0.7120(9) 0.5337(5)
H1 H 0.2550 0.7548 0.5629
H2 H 0.1373 0.6529 0.5426
H3 H 0.2553 0.6766 0.5193
C6 C 0.1396(10) 0.8395(10) 0.5215(8)
H4 H 0.1774 0.8786 0.5516
H5 H 0.1340 0.8933 0.4994
H6 H 0.0630 0.7768 0.5289
C7 C 0.1475(11) 0.7336(11) 0.4515(4)
H7 H 0.1459 0.7892 0.4292
H8 H 0.1874 0.6984 0.4360
H9 H 0.0695 0.6747 0.4594
C8 C 0.3651(4) 0.9724(4) 0.45198(17)
C9 C 0.2927(4) 1.0039(4) 0.42134(17)
C10 C 0.2653(5) 1.0843(5) 0.4408(2)
H10 H 0.2906 1.1157 0.4723
C11 C 0.1990(6) 1.1162(7) 0.4118(3)
H11 H 0.1797 1.1699 0.4241
C12 C 0.1617(6) 1.0695(7) 0.3655(3)
H12 H 0.1175 1.0919 0.3468
C13 C 0.1886(6) 0.9910(6) 0.3467(2)
H13 H 0.1635 0.9603 0.3151
C14 C 0.2530(5) 0.9575(5) 0.37453(19)
H14 H 0.2704 0.9028 0.3619
C15 C 0.5655(4) 1.1143(4) 0.41734(18)
C16 C 0.6850(5) 1.1583(7) 0.4391(3)
H15 H 0.7423 1.2146 0.4171
H16 H 0.6897 1.1936 0.4707
H17 H 0.6989 1.0945 0.4433
C17 C 0.5573(8) 1.0498(8) 0.3695(3)
H18 H 0.6110 1.1033 0.3456
H19 H 0.5758 0.9900 0.3761
H20 H 0.4797 1.0155 0.3566
C18 C 0.5468(7) 1.2161(7) 0.4099(4)
H21 H 0.6032 1.2697 0.3868
H22 H 0.4701 1.1892 0.3971
H23 H 0.5553 1.2545 0.4411
C19 C 0.4553(7) 0.6312(7) 0.3698(2)
C20 C 0.4759(15) 0.7092(12) 0.3281(4)
H24 H 0.4587 0.6664 0.2976
H25 H 0.4269 0.7428 0.3312
H26 H 0.5559 0.7698 0.3281
C21 C 0.3246(9) 0.5419(10) 0.3718(4)
H27 H 0.3025 0.4946 0.3424
H28 H 0.3085 0.4935 0.4006
H29 H 0.2813 0.5818 0.3737
C22 C 0.5248(13) 0.5711(14) 0.3668(4)
H30 H 0.5059 0.5266 0.3367
H31 H 0.6061 0.6279 0.3670
H32 H 0.5069 0.5203 0.3948
C23 C 0.4621(5) 0.5018(5) 0.5266(2)
C24 C 0.4538(11) 0.3888(7) 0.5120(6)
H33 H 0.3985 0.3278 0.5329
H34 H 0.4290 0.3717 0.4780
H35 H 0.5285 0.3949 0.5156
C25 C 0.4889(10) 0.5324(11) 0.5804(3)
H36 H 0.4336 0.4691 0.6005
H37 H 0.5658 0.5468 0.5875
H38 H 0.4845 0.6008 0.5876
C26 C 0.3462(7) 0.4953(10) 0.5173(5)
H39 H 0.2870 0.4337 0.5368
H40 H 0.3517 0.5677 0.5264
H41 H 0.3267 0.4804 0.4827
C27 C 0.6610(4) 0.6438(4) 0.48966(18)
C28 C 0.7337(4) 0.6023(5) 0.5141(2)
C29 C 0.7589(5) 0.5262(5) 0.4887(3)
H42 H 0.7339 0.5034 0.4563
C30 C 0.8240(7) 0.4851(7) 0.5143(5)
H43 H 0.8407 0.4326 0.4988
C31 C 0.8623(7) 0.5208(8) 0.5609(5)
H44 H 0.9051 0.4926 0.5770
C32 C 0.8392(7) 0.5975(8) 0.5846(4)
H45 H 0.8677 0.6229 0.6164
C33 C 0.7738(6) 0.6375(6) 0.5615(2)
H46 H 0.7566 0.6886 0.5780
C34 C 0.8146(5) 0.8264(5) 0.4449(2)
C35 C 0.8866(6) 0.8865(7) 0.4901(3)
H47 H 0.9629 0.9453 0.4799
H48 H 0.8504 0.9217 0.5084
H49 H 0.8925 0.8307 0.5107
C36 C 0.8713(6) 0.7743(7) 0.4128(3)
H50 H 0.9481 0.8339 0.4037
H51 H 0.8757 0.7146 0.4311
H52 H 0.8258 0.7414 0.3834
C37 C 0.7986(7) 0.9143(7) 0.4155(4)
H53 H 0.8731 0.9764 0.4052
H54 H 0.7517 0.8773 0.3868
H55 H 0.7609 0.9449 0.4358
B1 B 0.4597(6) 0.9134(6) 0.6114(2)
H56 H 0.3854 0.8247 0.6077
B2 B 0.5731(7) 0.9471(7) 0.6537(2)
H57 H 0.5722 0.8799 0.6778
B3 B 0.7041(7) 1.0592(7) 0.6280(3)
H58 H 0.7881 1.0650 0.6356
B4 B 0.6720(6) 1.0951(6) 0.5690(3)
H59 H 0.7340 1.1238 0.5379
B5 B 0.4466(7) 1.0388(8) 0.6047(3)
H60 H 0.3623 1.0321 0.5967
B6 B 0.4788(8) 1.0034(8) 0.6631(3)
H61 H 0.4158 0.9741 0.6938
B7 B 0.6288(8) 1.0916(8) 0.6736(3)
H62 H 0.6635 1.1197 0.7113
B8 B 0.6917(8) 1.1834(7) 0.6211(3)
H63 H 0.7676 1.2712 0.6243
B9 B 0.5758(8) 1.1491(7) 0.5786(3)
H64 H 0.5755 1.2144 0.5536
B10 B 0.5510(9) 1.1474(9) 0.6427(3)
H65 H 0.5356 1.2133 0.6601
B11 B 0.5500(5) 0.8379(5) 0.5085(2)
O1 O 0.6663(4) 0.8247(4) 0.57896(16)
O2 O 0.4822(4) 0.6989(4) 0.41493(14)
C38 C 0.016(2) 0.324(3) 0.4616(13)
H66 H 0.0034 0.3864 0.4515
H67 H 0.0907 0.3396 0.4503
H68 H -0.0434 0.2526 0.4475
C39 C 0.0108(13) 0.3148(17) 0.5181(13)
H69 H 0.0702 0.3869 0.5328
H70 H -0.0645 0.2996 0.5300
C40 C 0.0307(17) 0.2164(16) 0.5323(11)
H71 H -0.0401 0.1450 0.5241
H72 H 0.0905 0.2208 0.5103
C41 C 0.064(2) 0.2012(18) 0.5838(11)
H73 H 0.0096 0.2071 0.6059
H74 H 0.1393 0.2690 0.5901
C42 C 0.073(2) 0.098(2) 0.6018(8)
H75 H 0.0212 0.0643 0.6300
H76 H 0.0434 0.0396 0.5756
C43 C 0.191(2) 0.118(3) 0.6167(12)
H77 H 0.1846 0.0465 0.6273
H78 H 0.2427 0.1485 0.5889
H79 H 0.2204 0.1734 0.6435
loop_
_geom_bond_atom_site_label_1
_geom_bond_atom_site_label_2
_geom_bond_site_symmetry_1
_geom_bond_site_symmetry_2
Si1 N1 1_555 1_555
Si2 N3 1_555 1_555
N1 C4 1_555 1_555
N2 Si1 1_555 1_555
N3 C23 1_555 1_555
N4 Si2 1_555 1_555
C1 Si1 1_555 1_555
C2 C1 1_555 1_555
C3 C2 1_555 1_555
C4 C5 1_555 1_555
C5 H1 1_555 1_555
H2 C5 1_555 1_555
H3 C5 1_555 1_555
C6 C4 1_555 1_555
H4 C6 1_555 1_555
H5 C6 1_555 1_555
H6 C6 1_555 1_555
C7 C4 1_555 1_555
H7 C7 1_555 1_555
H8 C7 1_555 1_555
H9 C7 1_555 1_555
C8 N1 1_555 1_555
C9 C8 1_555 1_555
C10 C9 1_555 1_555
H10 C10 1_555 1_555
C11 C10 1_555 1_555
H11 C11 1_555 1_555
C12 C11 1_555 1_555
H12 C12 1_555 1_555
C13 C12 1_555 1_555
H13 C13 1_555 1_555
C14 C9 1_555 1_555
H14 C14 1_555 1_555
C15 N2 1_555 1_555
C16 C15 1_555 1_555
H15 C16 1_555 1_555
H16 C16 1_555 1_555
H17 C16 1_555 1_555
C17 C15 1_555 1_555
H18 C17 1_555 1_555
H19 C17 1_555 1_555
H20 C17 1_555 1_555
C18 C15 1_555 1_555
H21 C18 1_555 1_555
H22 C18 1_555 1_555
H23 C18 1_555 1_555
C19 C20 1_555 1_555
C20 H24 1_555 1_555
H25 C20 1_555 1_555
H26 C20 1_555 1_555
C21 C19 1_555 1_555
H27 C21 1_555 1_555
H28 C21 1_555 1_555
H29 C21 1_555 1_555
C22 C19 1_555 1_555
H30 C22 1_555 1_555
H31 C22 1_555 1_555
H32 C22 1_555 1_555
C23 C24 1_555 1_555
C24 H33 1_555 1_555
H34 C24 1_555 1_555
H35 C24 1_555 1_555
C25 C23 1_555 1_555
H36 C25 1_555 1_555
H37 C25 1_555 1_555
H38 C25 1_555 1_555
C26 C23 1_555 1_555
H39 C26 1_555 1_555
H40 C26 1_555 1_555
H41 C26 1_555 1_555
C27 N3 1_555 1_555
C28 C27 1_555 1_555
C29 C28 1_555 1_555
H42 C29 1_555 1_555
C30 C29 1_555 1_555
H43 C30 1_555 1_555
C31 C30 1_555 1_555
H44 C31 1_555 1_555
C32 C31 1_555 1_555
H45 C32 1_555 1_555
C33 C28 1_555 1_555
H46 C33 1_555 1_555
C34 N4 1_555 1_555
C35 C34 1_555 1_555
H47 C35 1_555 1_555
H48 C35 1_555 1_555
H49 C35 1_555 1_555
C36 C34 1_555 1_555
H50 C36 1_555 1_555
H51 C36 1_555 1_555
H52 C36 1_555 1_555
C37 C34 1_555 1_555
H53 C37 1_555 1_555
H54 C37 1_555 1_555
H55 C37 1_555 1_555
B1 C1 1_555 1_555
H56 B1 1_555 1_555
B2 C2 1_555 1_555
H57 B2 1_555 1_555
B3 C2 1_555 1_555
H58 B3 1_555 1_555
B4 C1 1_555 1_555
H59 B4 1_555 1_555
B5 C1 1_555 1_555
H60 B5 1_555 1_555
B6 B1 1_555 1_555
H61 B6 1_555 1_555
B7 B2 1_555 1_555
H62 B7 1_555 1_555
B8 B3 1_555 1_555
H63 B8 1_555 1_555
B9 C1 1_555 1_555
H64 B9 1_555 1_555
B10 B5 1_555 1_555
H65 B10 1_555 1_555
B11 Si1 1_555 1_555
O1 C3 1_555 1_555
O2 Si2 1_555 1_555
C38 H66 1_555 1_555
H67 C38 1_555 1_555
H68 C38 1_555 1_555
C39 C38 1_555 1_555
H69 C39 1_555 1_555
H70 C39 1_555 1_555
C40 C39 1_555 1_555
H71 C40 1_555 1_555
H72 C40 1_555 1_555
C41 C40 1_555 1_555
H73 C41 1_555 1_555
H74 C41 1_555 1_555
C42 C41 1_555 1_555
H75 C42 1_555 1_555
H76 C42 1_555 1_555
C43 C42 1_555 1_555
H77 C43 1_555 1_555
H78 C43 1_555 1_555
H79 C43 1_555 1_555
Si2 B11 1_555 1_555
N2 C8 1_555 1_555
N4 C27 1_555 1_555
C2 B1 1_555 1_555
C2 B4 1_555 1_555
C3 B11 1_555 1_555
C13 C14 1_555 1_555
C19 O2 1_555 1_555
C32 C33 1_555 1_555
B1 B2 1_555 1_555
B1 B5 1_555 1_555
B2 B3 1_555 1_555
B2 B6 1_555 1_555
B3 B4 1_555 1_555
B3 B7 1_555 1_555
B4 B8 1_555 1_555
B4 B9 1_555 1_555
B5 B6 1_555 1_555
B5 B9 1_555 1_555
B6 B7 1_555 1_555
B6 B10 1_555 1_555
B7 B8 1_555 1_555
B7 B10 1_555 1_555
B8 B9 1_555 1_555
B8 B10 1_555 1_555
B9 B10 1_555 1_555

#END
