
#######################################################################
#
#                 Cambridge Crystallographic Data Centre
#                                CCDC 
#
#######################################################################
#
# If this CIF has been generated from an entry in the Cambridge 
# Structural Database, then it will include bibliographic, chemical, 
# crystal, experimental, refinement or atomic coordinate data resulting 
# from the CCDC's data processing and validation procedures.
#
#######################################################################

data_LEXQEL
_chemical_formula_moiety         'C18 H17 N1 O2'
_chemical_name_systematic        
Diphenyl-5,6,7,7a-tetrahydropyrrolo(1,2-c)oxazol-3(1H)-one
_symmetry_cell_setting           monoclinic
_symmetry_space_group_name_H-M   'P 21'
_symmetry_Int_Tables_number      4
_space_group_name_Hall           'P 2yb'
loop_
_symmetry_equiv_pos_site_id
_symmetry_equiv_pos_as_xyz
1 x,y,z
2 -x,1/2+y,-z
_cell_length_a                   9.4120(12)
_cell_length_b                   9.7918(12)
_cell_length_c                   15.996(2)
_cell_angle_alpha                90
_cell_angle_beta                 97.254(2)
_cell_angle_gamma                90
_cell_volume                     1462.4
_exptl_crystal_colour            colorless
_exptl_crystal_description       block
_cell_formula_units_Z            4
_exptl_crystal_recrystallization_method 'diethyl ether'
loop_
_atom_site_label
_atom_site_type_symbol
_atom_site_fract_x
_atom_site_fract_y
_atom_site_fract_z
O1 O 0.6851(4) 0.3867(4) 0.3830(2)
O2 O 0.5656(6) 0.5758(5) 0.3419(4)
C1 C 0.7524(5) 0.2724(5) 0.3452(3)
C2 C 0.6226(7) 0.4727(6) 0.3226(5)
N2 N 0.628(2) 0.4298(17) 0.2549(9)
C7 C 0.727(4) 0.313(6) 0.254(3)
H8 H 0.6865 0.2391 0.2171
C8 C 0.855(2) 0.3964(19) 0.2138(14)
H9 H 0.9112 0.4509 0.2566
H10 H 0.9183 0.3337 0.1895
C9 C 0.776(3) 0.485(2) 0.1479(19)
H11 H 0.7583 0.4362 0.0947
H12 H 0.8306 0.5667 0.1396
C10 C 0.637(3) 0.519(3) 0.1812(15)
H13 H 0.6365 0.6146 0.1979
H14 H 0.5565 0.5033 0.1383
C11 C 0.9058(5) 0.2631(5) 0.3884(3)
C12 C 0.9686(6) 0.3670(6) 0.4382(3)
H15 H 0.9158 0.4449 0.4467
C13 C 1.1101(7) 0.3572(8) 0.4761(4)
H16 H 1.1503 0.4282 0.5099
C14 C 1.1902(6) 0.2436(8) 0.4639(4)
H17 H 1.2847 0.2370 0.4889
C15 C 1.1296(6) 0.1411(8) 0.4149(4)
H18 H 1.1826 0.0633 0.4063
C16 C 0.9893(6) 0.1515(6) 0.3775(4)
H19 H 0.9502 0.0801 0.3437
C17 C 0.6679(5) 0.1438(5) 0.3594(3)
C18 C 0.5932(5) 0.1341(6) 0.4278(3)
H20 H 0.5912 0.2086 0.4636
C19 C 0.5209(6) 0.0155(8) 0.4445(4)
H21 H 0.4688 0.0114 0.4900
C20 C 0.5275(6) -0.0951(7) 0.3929(4)
H22 H 0.4804 -0.1753 0.4042
C21 C 0.6018(6) -0.0896(6) 0.3257(4)
H23 H 0.6063 -0.1655 0.2912
C22 C 0.6707(5) 0.0300(5) 0.3090(3)
H24 H 0.7205 0.0338 0.2624
O3 O 0.0338(3) 0.8839(4) 0.1176(2)
O4 O -0.1716(4) 0.8433(5) 0.1706(3)
N3 N 0.0453(5) 0.8547(5) 0.2563(3)
C23 C 0.1842(5) 0.9028(5) 0.1500(3)
C24 C -0.0435(6) 0.8588(6) 0.1819(4)
C25 C 0.1923(6) 0.8404(6) 0.2382(3)
H25 H 0.2563 0.8950 0.2782
C26 C 0.2233(7) 0.6896(7) 0.2530(4)
H26 H 0.3254 0.6718 0.2641
H27 H 0.1821 0.6345 0.2056
C27 C 0.1487(7) 0.6647(8) 0.3309(4)
H28 H 0.1210 0.5696 0.3341
H29 H 0.2117 0.6879 0.3817
C28 C 0.0180(8) 0.7556(8) 0.3213(4)
H30 H -0.0680 0.7032 0.3036
H31 H 0.0073 0.8013 0.3740
C29 C 0.2115(5) 1.0568(5) 0.1486(3)
C30 C 0.2874(6) 1.1276(6) 0.2135(4)
H32 H 0.3249 1.0819 0.2623
C31 C 0.3083(7) 1.2675(7) 0.2066(4)
H33 H 0.3590 1.3148 0.2512
C32 C 0.2555(7) 1.3364(7) 0.1351(5)
H34 H 0.2703 1.4299 0.1308
C33 C 0.1811(6) 1.2668(7) 0.0704(4)
H35 H 0.1438 1.3129 0.0217
C34 C 0.1604(6) 1.1276(6) 0.0766(3)
H36 H 0.1110 1.0809 0.0313
C35 C 0.2734(5) 0.8263(5) 0.0923(3)
C36 C 0.4186(5) 0.8545(6) 0.0963(3)
H37 H 0.4597 0.9209 0.1333
C37 C 0.5018(6) 0.7853(7) 0.0460(4)
H38 H 0.5989 0.8055 0.0494
C38 C 0.4448(7) 0.6873(7) -0.0090(4)
H39 H 0.5019 0.6421 -0.0435
C39 C 0.3019(7) 0.6566(6) -0.0126(4)
H40 H 0.2621 0.5892 -0.0493
C40 C 0.2167(6) 0.7252(6) 0.0380(3)
H41 H 0.1202 0.7029 0.0353
N1? N 0.657(3) 0.412(3) 0.2315(15)
C3? C 0.764(6) 0.315(9) 0.247(5)
H1? H 0.7299 0.2353 0.2136
C4? C 0.887(4) 0.350(3) 0.219(2)
H2? H 0.9347 0.2719 0.1984
H3? H 0.9511 0.3963 0.2622
C5? C 0.827(5) 0.450(4) 0.146(3)
H4? H 0.8949 0.5231 0.1409
H5? H 0.8129 0.4009 0.0927
C6? C 0.690(4) 0.507(5) 0.164(3)
H6? H 0.6181 0.5035 0.1153
H7? H 0.7011 0.6002 0.1844
loop_
_geom_bond_atom_site_label_1
_geom_bond_atom_site_label_2
_geom_bond_site_symmetry_1
_geom_bond_site_symmetry_2
O1 C1 1_555 1_555
O2 C2 1_555 1_555
C1 C7 1_555 1_555
C2 O1 1_555 1_555
N2 C2 1_555 1_555
C7 N2 1_555 1_555
H8 C7 1_555 1_555
C8 C7 1_555 1_555
H9 C8 1_555 1_555
H10 C8 1_555 1_555
C9 C8 1_555 1_555
H11 C9 1_555 1_555
H12 C9 1_555 1_555
C10 N2 1_555 1_555
H13 C10 1_555 1_555
H14 C10 1_555 1_555
C11 C1 1_555 1_555
C12 C11 1_555 1_555
H15 C12 1_555 1_555
C13 C12 1_555 1_555
H16 C13 1_555 1_555
C14 C13 1_555 1_555
H17 C14 1_555 1_555
C15 C14 1_555 1_555
H18 C15 1_555 1_555
C16 C11 1_555 1_555
H19 C16 1_555 1_555
C17 C1 1_555 1_555
C18 C17 1_555 1_555
H20 C18 1_555 1_555
C19 C18 1_555 1_555
H21 C19 1_555 1_555
C20 C19 1_555 1_555
H22 C20 1_555 1_555
C21 C20 1_555 1_555
H23 C21 1_555 1_555
C22 C17 1_555 1_555
H24 C22 1_555 1_555
O3 C23 1_555 1_555
O4 C24 1_555 1_555
N3 C24 1_555 1_555
C23 C25 1_555 1_555
C24 O3 1_555 1_555
C25 N3 1_555 1_555
H25 C25 1_555 1_555
C26 C25 1_555 1_555
H26 C26 1_555 1_555
H27 C26 1_555 1_555
C27 C26 1_555 1_555
H28 C27 1_555 1_555
H29 C27 1_555 1_555
C28 N3 1_555 1_555
H30 C28 1_555 1_555
H31 C28 1_555 1_555
C29 C23 1_555 1_555
C30 C29 1_555 1_555
H32 C30 1_555 1_555
C31 C30 1_555 1_555
H33 C31 1_555 1_555
C32 C31 1_555 1_555
H34 C32 1_555 1_555
C33 C32 1_555 1_555
H35 C33 1_555 1_555
C34 C29 1_555 1_555
H36 C34 1_555 1_555
C35 C23 1_555 1_555
C36 C35 1_555 1_555
H37 C36 1_555 1_555
C37 C36 1_555 1_555
H38 C37 1_555 1_555
C38 C37 1_555 1_555
H39 C38 1_555 1_555
C39 C38 1_555 1_555
H40 C39 1_555 1_555
C40 C35 1_555 1_555
H41 C40 1_555 1_555
C9 C10 1_555 1_555
C15 C16 1_555 1_555
C21 C22 1_555 1_555
C27 C28 1_555 1_555
C33 C34 1_555 1_555
C39 C40 1_555 1_555

#END
