
#######################################################################
#
#                 Cambridge Crystallographic Data Centre
#                                CCDC 
#
#######################################################################
#
# If this CIF has been generated from an entry in the Cambridge 
# Structural Database, then it will include bibliographic, chemical, 
# crystal, experimental, refinement or atomic coordinate data resulting 
# from the CCDC's data processing and validation procedures.
#
#######################################################################

data_LEYDEY
_chemical_formula_moiety         'C27 H58 B1 Ba1 I1 N12 O2 P2'
_chemical_name_systematic        
'Iodo-(hydrogen tris(3,5-dimethylpyrazolyl)borato)-bis(hexamethylphosphoramido)-barium'
_symmetry_cell_setting           monoclinic
_symmetry_space_group_name_H-M   'C 2/c'
_symmetry_Int_Tables_number      15
_space_group_name_Hall           '-C 2yn'
loop_
_symmetry_equiv_pos_site_id
_symmetry_equiv_pos_as_xyz
1 x,y,z
2 1/2+x,1/2+y,z
3 -x,y,1/2-z
4 1/2-x,1/2+y,1/2-z
5 -x,-y,-z
6 1/2-x,1/2-y,-z
7 x,-y,1/2+z
8 1/2+x,1/2-y,1/2+z
_cell_length_a                   44.01(1)
_cell_length_b                   11.479(9)
_cell_length_c                   17.691(6)
_cell_angle_alpha                90
_cell_angle_beta                 100.63(3)
_cell_angle_gamma                90
_cell_volume                     8783.96
_cell_formula_units_Z            8
loop_
_atom_site_label
_atom_site_type_symbol
_atom_site_fract_x
_atom_site_fract_y
_atom_site_fract_z
Ba1 Ba 0.3618(1) 0.2394(3) 0.4252(1)
I1 I 0.3059(1) 0.4466(4) 0.3841(3)
P1 P 0.3896(3) 0.2530(13) 0.6556(6)
P2 P 0.2963(3) 0.0026(13) 0.4135(8)
N1 N 0.4398(10) 0.1382(36) 0.3894(24)
N2 N 0.4175(9) 0.1085(33) 0.4243(23)
C1 C 0.4233(13) 0.0076(47) 0.4577(26)
C2 C 0.4516(15) -0.0321(44) 0.4445(32)
C3 C 0.4610(12) 0.0493(49) 0.4003(26)
C4 C 0.4045(11) -0.0547(44) 0.5030(31)
C5 C 0.4903(13) 0.0550(49) 0.3683(32)
N3 N 0.4362(10) 0.3642(32) 0.3923(22)
N4 N 0.4110(8) 0.3901(30) 0.4228(23)
C6 C 0.4183(13) 0.4966(47) 0.4556(34)
C7 C 0.4467(16) 0.5311(45) 0.4406(31)
C8 C 0.4574(10) 0.4447(66) 0.4068(32)
C9 C 0.3956(12) 0.5451(46) 0.4912(25)
C10 C 0.4872(12) 0.4480(41) 0.3792(28)
N5 N 0.4112(6) 0.2517(32) 0.2684(15)
N6 N 0.3814(7) 0.2452(34) 0.2797(20)
C11 C 0.3637(9) 0.2586(46) 0.2114(17)
C12 C 0.3825(9) 0.2626(46) 0.1572(22)
C13 C 0.4118(10) 0.2550(51) 0.1939(16)
C14 C 0.3305(9) 0.2484(50) 0.2019(18)
C15 C 0.4419(8) 0.2642(52) 0.1658(22)
B1 B 0.4381(9) 0.2523(74) 0.3445(29)
O1 O 0.3750(5) 0.2378(23) 0.5719(16)
O2 O 0.3222(6) 0.0624(23) 0.4041(17)
N7 N 0.3752(10) 0.3552(40) 0.6928(27)
N8 N 0.4255(9) 0.2781(37) 0.6697(23)
N9 N 0.3855(11) 0.1379(43) 0.6997(29)
N10 N 0.2997(10) -0.1350(39) 0.4148(25)
N11 N 0.2721(10) 0.0318(34) 0.3584(24)
N12 N 0.2866(9) 0.0194(40) 0.4887(27)
C16 C 0.3495(12) 0.4191(44) 0.6554(29)
C17 C 0.3874(13) 0.4071(53) 0.7581(36)
C18 C 0.4450(11) 0.2855(43) 0.6210(27)
C19 C 0.4479(13) 0.2005(51) 0.7360(32)
C20 C 0.4120(14) 0.0915(52) 0.7376(33)
C21 C 0.3642(16) 0.1182(60) 0.7264(40)
C22 C 0.3249(12) -0.1902(45) 0.4515(28)
C23 C 0.2749(13) -0.2045(50) 0.3618(32)
C24 C 0.2437(14) 0.0843(54) 0.3545(33)
C25 C 0.2706(14) 0.0569(58) 0.2881(37)
C26 C 0.2688(13) -0.0524(56) 0.5358(34)
C27 C 0.2875(13) 0.1077(53) 0.5377(33)
loop_
_geom_bond_atom_site_label_1
_geom_bond_atom_site_label_2
_geom_bond_site_symmetry_1
_geom_bond_site_symmetry_2
Ba1 I1 1_555 1_555
P1 O1 1_555 1_555
P2 O2 1_555 1_555
N1 N2 1_555 1_555
N2 Ba1 1_555 1_555
C1 N2 1_555 1_555
C2 C1 1_555 1_555
C3 N1 1_555 1_555
C4 C1 1_555 1_555
C5 C3 1_555 1_555
N3 N4 1_555 1_555
N4 Ba1 1_555 1_555
C6 N4 1_555 1_555
C7 C6 1_555 1_555
C8 N3 1_555 1_555
C9 C6 1_555 1_555
C10 C8 1_555 1_555
N5 N6 1_555 1_555
N6 Ba1 1_555 1_555
C11 N6 1_555 1_555
C12 C11 1_555 1_555
C13 N5 1_555 1_555
C14 C11 1_555 1_555
C15 C13 1_555 1_555
B1 N1 1_555 1_555
O1 Ba1 1_555 1_555
O2 Ba1 1_555 1_555
N7 P1 1_555 1_555
N8 P1 1_555 1_555
N9 P1 1_555 1_555
N10 P2 1_555 1_555
N11 P2 1_555 1_555
N12 P2 1_555 1_555
C16 N7 1_555 1_555
C17 N7 1_555 1_555
C18 N8 1_555 1_555
C19 N8 1_555 1_555
C20 N9 1_555 1_555
C21 N9 1_555 1_555
C22 N10 1_555 1_555
C23 N10 1_555 1_555
C24 N11 1_555 1_555
C25 N11 1_555 1_555
C26 N12 1_555 1_555
C27 N12 1_555 1_555
C2 C3 1_555 1_555
N3 B1 1_555 1_555
C7 C8 1_555 1_555
N5 B1 1_555 1_555
C12 C13 1_555 1_555

#END
