
#######################################################################
#
#                 Cambridge Crystallographic Data Centre
#                                CCDC 
#
#######################################################################
#
# If this CIF has been generated from an entry in the Cambridge 
# Structural Database, then it will include bibliographic, chemical, 
# crystal, experimental, refinement or atomic coordinate data resulting 
# from the CCDC's data processing and validation procedures.
#
#######################################################################

data_LEYHON
_chemical_formula_moiety         'C36 H20 S9'
_chemical_name_systematic        
3',5'''''-bis(2-Thienyl)-2,2':5',2'':5'',2''':3''',2'''':5'''',2''''':4''''',2''''''-septithiophene
_symmetry_cell_setting           monoclinic
_symmetry_space_group_name_H-M   'P 21/a'
_symmetry_Int_Tables_number      14
_space_group_name_Hall           '-P 2yab'
loop_
_symmetry_equiv_pos_site_id
_symmetry_equiv_pos_as_xyz
1 x,y,z
2 1/2-x,1/2+y,-z
3 -x,-y,-z
4 1/2+x,1/2-y,z
_cell_length_a                   5.5177(1)
_cell_length_b                   35.536(5)
_cell_length_c                   16.2793(2)
_cell_angle_alpha                90
_cell_angle_beta                 90.593(1)
_cell_angle_gamma                90
_cell_volume                     3191.83
_exptl_crystal_colour            'slightly yellow'
_exptl_crystal_description       'rectangular parallelepiped'
_chemical_melting_point          '407.7 K'
_cell_formula_units_Z            4
_exptl_crystal_recrystallization_method tetrahydrofuran/ethanol
loop_
_atom_site_label
_atom_site_type_symbol
_atom_site_fract_x
_atom_site_fract_y
_atom_site_fract_z
S1 S 0.5221(7) 0.18559(9) 0.65595(19)
C1 C 0.5902(19) 0.1726(3) 0.5569(5)
C2 C 0.4713(19) 0.1935(2) 0.4968(5)
C3 C 0.2839(14) 0.22422(18) 0.5308(4)
C4 C 0.331(2) 0.2187(3) 0.6243(6)
S2 S 0.9926(5) 0.13290(7) 0.61067(14)
C5 C 0.7374(18) 0.1389(2) 0.5486(5)
C6 C 0.680(2) 0.1065(3) 0.5064(5)
C7 C 0.8463(19) 0.0767(3) 0.5236(5)
C8 C 1.0268(19) 0.0867(3) 0.5815(5)
S3 S 1.2240(6) 0.01612(8) 0.59092(16)
C9 C 1.209(2) 0.0633(3) 0.6179(5)
C10 C 1.3886(18) 0.0760(3) 0.6807(5)
C11 C 1.5268(19) 0.0398(2) 0.7001(5)
C12 C 1.457(2) 0.0079(3) 0.6581(5)
S4 S 1.4055(6) -0.06018(8) 0.73749(17)
C13 C 1.537(2) -0.0309(3) 0.6683(5)
C14 C 1.731(2) -0.0488(2) 0.6263(5)
C15 C 1.754(2) -0.0878(3) 0.6577(6)
C16 C 1.597(2) -0.0968(3) 0.7161(7)
S5 S 1.7827(7) 0.08445(9) 0.80767(18)
C17 C 1.728(2) 0.0426(3) 0.7616(5)
C18 C 1.8995(19) 0.0121(3) 0.7872(5)
C19 C 2.064(2) 0.0297(3) 0.8489(6)
C20 C 2.0175(19) 0.0671(3) 0.8638(5)
S6 S 0.7592(5) 0.17350(7) 0.36344(13)
C21 C 0.5097(18) 0.1929(2) 0.4091(5)
C22 C 0.360(2) 0.2107(3) 0.3518(5)
C23 C 0.455(2) 0.2081(3) 0.2709(6)
C24 C 0.6675(19) 0.1882(3) 0.2670(5)
S7 S 0.8293(6) 0.20876(7) 0.11308(14)
C25 C 0.8094(19) 0.1781(3) 0.1943(5)
C26 C 0.9412(19) 0.1460(3) 0.1818(5)
C27 C 1.0583(19) 0.1456(3) 0.1027(6)
C28 C 1.0104(19) 0.1782(3) 0.0591(5)
S8 S 0.9266(10) 0.17110(13) -0.1035(2)
C29 C 1.084(2) 0.1879(3) -0.0262(5)
C30 C 1.3082(11) 0.21475(15) -0.0464(3)
C31 C 1.284(2) 0.2118(3) -0.1433(6)
C32 C 1.097(2) 0.1909(3) -0.1738(6)
S9 S 1.4565(6) 0.11786(9) 0.01821(19)
C33 C 1.198(2) 0.1133(3) 0.0740(5)
C34 C 1.138(2) 0.0746(3) 0.0930(5)
C35 C 1.325(2) 0.0509(3) 0.0578(6)
C36 C 1.501(2) 0.0700(3) 0.0164(7)
loop_
_geom_bond_atom_site_label_1
_geom_bond_atom_site_label_2
_geom_bond_site_symmetry_1
_geom_bond_site_symmetry_2
S1 C1 1_555 1_555
C1 C2 1_555 1_555
C2 C3 1_555 1_555
C3 C4 1_555 1_555
C4 S1 1_555 1_555
S2 C5 1_555 1_555
C5 C1 1_555 1_555
C6 C5 1_555 1_555
C7 C6 1_555 1_555
C8 S2 1_555 1_555
S3 C9 1_555 1_555
C9 C8 1_555 1_555
C10 C9 1_555 1_555
C11 C10 1_555 1_555
C12 S3 1_555 1_555
S4 C13 1_555 1_555
C13 C12 1_555 1_555
C14 C13 1_555 1_555
C15 C14 1_555 1_555
C16 S4 1_555 1_555
S5 C17 1_555 1_555
C17 C11 1_555 1_555
C18 C17 1_555 1_555
C19 C18 1_555 1_555
C20 S5 1_555 1_555
S6 C21 1_555 1_555
C21 C2 1_555 1_555
C22 C21 1_555 1_555
C23 C22 1_555 1_555
C24 S6 1_555 1_555
S7 C25 1_555 1_555
C25 C24 1_555 1_555
C26 C25 1_555 1_555
C27 C26 1_555 1_555
C28 S7 1_555 1_555
S8 C29 1_555 1_555
C29 C28 1_555 1_555
C30 C29 1_555 1_555
C31 C30 1_555 1_555
C32 S8 1_555 1_555
S9 C33 1_555 1_555
C33 C27 1_555 1_555
C34 C33 1_555 1_555
C35 C34 1_555 1_555
C36 S9 1_555 1_555
C7 C8 1_555 1_555
C11 C12 1_555 1_555
C15 C16 1_555 1_555
C19 C20 1_555 1_555
C23 C24 1_555 1_555
C27 C28 1_555 1_555
C31 C32 1_555 1_555
C35 C36 1_555 1_555

#END
