
#######################################################################
#
#                 Cambridge Crystallographic Data Centre
#                                CCDC 
#
#######################################################################
#
# If this CIF has been generated from an entry in the Cambridge 
# Structural Database, then it will include bibliographic, chemical, 
# crystal, experimental, refinement or atomic coordinate data resulting 
# from the CCDC's data processing and validation procedures.
#
#######################################################################

data_LEYXEU
_chemical_formula_moiety         'C12 H9 N1 O1 S2'
_chemical_name_systematic        4-(1-Methyl-1H-indol-5-yl)-1,3-dithiol-2-one
_symmetry_cell_setting           monoclinic
_symmetry_space_group_name_H-M   'P 21/c'
_symmetry_Int_Tables_number      14
_space_group_name_Hall           '-P 2ybc'
loop_
_symmetry_equiv_pos_site_id
_symmetry_equiv_pos_as_xyz
1 x,y,z
2 -x,1/2+y,1/2-z
3 -x,-y,-z
4 x,1/2-y,1/2+z
_cell_length_a                   6.6997(3)
_cell_length_b                   7.3685(4)
_cell_length_c                   22.4087(12)
_cell_angle_alpha                90
_cell_angle_beta                 93.852(5)
_cell_angle_gamma                90
_cell_volume                     1103.75
_exptl_crystal_colour            colorless
_exptl_crystal_description       shard
_cell_formula_units_Z            4
loop_
_atom_site_label
_atom_site_type_symbol
_atom_site_fract_x
_atom_site_fract_y
_atom_site_fract_z
O1 O 0.0418(5) 0.7436(6) -0.02615(16)
C1 C 0.2054(7) 0.7524(7) 0.0001(2)
S1 S 0.43333(17) 0.73537(16) -0.03436(5)
C2 C 0.5883(7) 0.7653(6) 0.0302(2)
H1 H 0.7296 0.7656 0.0286
C3 C 0.5043(7) 0.7881(6) 0.0821(2)
S2 S 0.24307(17) 0.7863(2) 0.07803(5)
C4 C 0.6084(6) 0.8216(6) 0.1415(2)
C5 C 0.7930(6) 0.9182(6) 0.1454(2)
H2 H 0.8440 0.9650 0.1100
C6 C 0.8992(7) 0.9453(6) 0.1994(2)
H3 H 1.0239 1.0072 0.2017
C7 C 0.8173(6) 0.8786(6) 0.2509(2)
C8 C 0.6302(6) 0.7843(6) 0.2485(2)
C9 C 0.5273(6) 0.7593(5) 0.19280(19)
H4 H 0.4014 0.6994 0.1902
C10 C 0.5966(6) 0.7380(6) 0.3085(2)
H5 H 0.4815 0.6786 0.3216
C11 C 0.7570(6) 0.7932(6) 0.3439(2)
H6 H 0.7754 0.7732 0.3858
N1 N 0.8903(5) 0.8833(5) 0.30948(17)
C12 C 1.0857(7) 0.9521(7) 0.3315(2)
H7 H 1.1903 0.8691 0.3196
H8 H 1.0912 0.9609 0.3752
H9 H 1.1070 1.0724 0.3144
loop_
_geom_bond_atom_site_label_1
_geom_bond_atom_site_label_2
_geom_bond_site_symmetry_1
_geom_bond_site_symmetry_2
O1 C1 1_555 1_555
C1 S1 1_555 1_555
S1 C2 1_555 1_555
C2 H1 1_555 1_555
C3 C2 1_555 1_555
S2 C1 1_555 1_555
C4 C3 1_555 1_555
C5 C4 1_555 1_555
H2 C5 1_555 1_555
C6 C5 1_555 1_555
H3 C6 1_555 1_555
C7 C6 1_555 1_555
C8 C7 1_555 1_555
C9 C4 1_555 1_555
H4 C9 1_555 1_555
C10 C8 1_555 1_555
H5 C10 1_555 1_555
C11 C10 1_555 1_555
H6 C11 1_555 1_555
N1 C7 1_555 1_555
C12 N1 1_555 1_555
H7 C12 1_555 1_555
H8 C12 1_555 1_555
H9 C12 1_555 1_555
C3 S2 1_555 1_555
C8 C9 1_555 1_555
C11 N1 1_555 1_555

#END
