
#######################################################################
#
#                 Cambridge Crystallographic Data Centre
#                                CCDC 
#
#######################################################################
#
# If this CIF has been generated from an entry in the Cambridge 
# Structural Database, then it will include bibliographic, chemical, 
# crystal, experimental, refinement or atomic coordinate data resulting 
# from the CCDC's data processing and validation procedures.
#
#######################################################################

data_LEYYEU
_chemical_formula_moiety         'C38 H42 O2 Si2'
_chemical_name_systematic        
'3,4-Diphenyl-1,5-bis(trimethylsilyl)-1-(p-tolyl)-cyclopenta-2,4-dienyl 4-methylbenzoate'
_symmetry_cell_setting           monoclinic
_symmetry_space_group_name_H-M   'P 21/n'
_symmetry_Int_Tables_number      14
_space_group_name_Hall           '-P 2yn'
loop_
_symmetry_equiv_pos_site_id
_symmetry_equiv_pos_as_xyz
1 x,y,z
2 1/2-x,1/2+y,1/2-z
3 -x,-y,-z
4 1/2+x,1/2-y,1/2+z
_cell_length_a                   13.602(3)
_cell_length_b                   12.762(3)
_cell_length_c                   20.368(4)
_cell_angle_alpha                90
_cell_angle_beta                 98.14(3)
_cell_angle_gamma                90
_cell_volume                     3500.03
_exptl_crystal_colour            colorless
_exptl_crystal_description       Block
_chemical_melting_point          166.3-167.8deg.C
_cell_formula_units_Z            4
loop_
_atom_site_label
_atom_site_type_symbol
_atom_site_fract_x
_atom_site_fract_y
_atom_site_fract_z
Si1 Si 0.36491(5) 0.85764(5) 0.06086(3)
Si2 Si 0.17274(6) 0.60250(6) -0.16933(3)
O1 O 0.22620(12) 0.83516(11) -0.09219(7)
O2 O 0.10042(13) 0.79184(13) -0.03716(8)
C1 C 0.23500(16) 0.64022(17) -0.08482(10)
C2 C 0.24691(16) 0.58241(16) -0.02936(11)
C3 C 0.29511(16) 0.64468(18) 0.02801(10)
C4 C 0.31166(16) 0.74412(17) 0.00936(10)
C5 C 0.28527(17) 0.74536(17) -0.06676(10)
C6 C 0.38237(18) 0.75619(18) -0.09658(10)
C7 C 0.40667(18) 0.84557(19) -0.12877(11)
H1 H 0.3614 0.9005 -0.1353
C8 C 0.49784(19) 0.8547(2) -0.15151(11)
H2 H 0.5120 0.9157 -0.1733
C9 C 0.5675(2) 0.7766(2) -0.14283(12)
C10 C 0.5422(2) 0.6867(2) -0.11131(13)
H3 H 0.5871 0.6314 -0.1052
C11 C 0.4512(2) 0.67691(19) -0.08851(12)
H4 H 0.4366 0.6154 -0.0674
C12 C 0.66940(19) 0.7875(2) -0.16473(13)
H5 H 0.7068 0.7245 -0.1542
H6 H 0.7039 0.8457 -0.1421
H7 H 0.6618 0.7994 -0.2117
C13 C 0.21823(19) 0.47040(18) -0.02291(10)
C14 C 0.1268(2) 0.4446(2) -0.00861(13)
H8 H 0.0815 0.4974 -0.0033
C15 C 0.0996(2) 0.3398(3) -0.00181(15)
H9 H 0.0366 0.3234 0.0079
C16 C 0.1645(3) 0.2631(2) -0.00928(14)
H10 H 0.1461 0.1934 -0.0054
C17 C 0.2557(3) 0.2869(2) -0.02235(16)
H11 H 0.3008 0.2337 -0.0272
C18 C 0.2827(2) 0.3908(2) -0.02859(14)
H12 H 0.3466 0.4063 -0.0369
C19 C 0.3223(2) 0.60125(17) 0.09562(11)
C20 C 0.2503(2) 0.56293(19) 0.13066(13)
H13 H 0.1844 0.5607 0.1108
C21 C 0.2756(4) 0.5279(3) 0.19494(17)
H14 H 0.2266 0.5028 0.2184
C22 C 0.3709(5) 0.5300(3) 0.2238(2)
H15 H 0.3871 0.5072 0.2674
C23 C 0.4441(3) 0.5651(3) 0.18986(19)
H16 H 0.5100 0.5649 0.2098
C24 C 0.4193(2) 0.6010(2) 0.12542(14)
H17 H 0.4689 0.6252 0.1022
C25 C 0.1367(2) 0.8504(2) -0.07307(11)
C26 C 0.09049(19) 0.94964(19) -0.10055(11)
C27 C 0.0021(2) 0.9796(2) -0.08267(11)
H18 H -0.0307 0.9353 -0.0567
C28 C -0.0397(2) 1.0752(2) -0.10255(13)
H19 H -0.0995 1.0946 -0.0889
C29 C 0.0048(2) 1.1418(2) -0.14184(13)
C30 C 0.0923(2) 1.1099(2) -0.16086(13)
H20 H 0.1236 1.1533 -0.1882
C31 C 0.1360(2) 1.0148(2) -0.14069(13)
H21 H 0.1958 0.9952 -0.1543
C32 C -0.0384(2) 1.2479(2) -0.16134(15)
H22 H 0.0031 1.2830 -0.1888
H23 H -0.0420 1.2888 -0.1222
H24 H -0.1039 1.2395 -0.1855
C33 C 0.1862(2) 0.7081(2) -0.23014(12)
H25 H 0.1540 0.6874 -0.2732
H26 H 0.2554 0.7204 -0.2319
H27 H 0.1561 0.7712 -0.2167
C34 C 0.0390(2) 0.5805(3) -0.16664(14)
H28 H 0.0070 0.5609 -0.2099
H29 H 0.0096 0.6438 -0.1529
H30 H 0.0311 0.5255 -0.1357
C35 C 0.2276(3) 0.4806(2) -0.19794(14)
H31 H 0.1946 0.4625 -0.2413
H32 H 0.2196 0.4247 -0.1676
H33 H 0.2970 0.4914 -0.1998
C36 C 0.31168(19) 0.98285(16) 0.02510(11)
H34 H 0.2409 0.9819 0.0239
H35 H 0.3274 0.9909 -0.0191
H36 H 0.3393 1.0403 0.0521
C37 C 0.50155(18) 0.8617(2) 0.06282(13)
H37 H 0.5283 0.9202 0.0892
H38 H 0.5169 0.8692 0.0185
H39 H 0.5302 0.7979 0.0818
C38 C 0.33396(19) 0.85036(18) 0.14656(11)
H40 H 0.2631 0.8481 0.1451
H41 H 0.3599 0.9109 0.1711
H42 H 0.3628 0.7883 0.1678
loop_
_geom_bond_atom_site_label_1
_geom_bond_atom_site_label_2
_geom_bond_site_symmetry_1
_geom_bond_site_symmetry_2
Si1 C4 1_555 1_555
Si2 C1 1_555 1_555
O1 C5 1_555 1_555
O2 C25 1_555 1_555
C1 C2 1_555 1_555
C2 C3 1_555 1_555
C3 C4 1_555 1_555
C4 C5 1_555 1_555
C5 C1 1_555 1_555
C6 C5 1_555 1_555
C7 C6 1_555 1_555
H1 C7 1_555 1_555
C8 C7 1_555 1_555
H2 C8 1_555 1_555
C9 C8 1_555 1_555
C10 C9 1_555 1_555
H3 C10 1_555 1_555
C11 C6 1_555 1_555
H4 C11 1_555 1_555
C12 C9 1_555 1_555
H5 C12 1_555 1_555
H6 C12 1_555 1_555
H7 C12 1_555 1_555
C13 C2 1_555 1_555
C14 C13 1_555 1_555
H8 C14 1_555 1_555
C15 C14 1_555 1_555
H9 C15 1_555 1_555
C16 C15 1_555 1_555
H10 C16 1_555 1_555
C17 C16 1_555 1_555
H11 C17 1_555 1_555
C18 C13 1_555 1_555
H12 C18 1_555 1_555
C19 C3 1_555 1_555
C20 C19 1_555 1_555
H13 C20 1_555 1_555
C21 C20 1_555 1_555
H14 C21 1_555 1_555
C22 C21 1_555 1_555
H15 C22 1_555 1_555
C23 C22 1_555 1_555
H16 C23 1_555 1_555
C24 C19 1_555 1_555
H17 C24 1_555 1_555
C25 O1 1_555 1_555
C26 C25 1_555 1_555
C27 C26 1_555 1_555
H18 C27 1_555 1_555
C28 C27 1_555 1_555
H19 C28 1_555 1_555
C29 C28 1_555 1_555
C30 C29 1_555 1_555
H20 C30 1_555 1_555
C31 C26 1_555 1_555
H21 C31 1_555 1_555
C32 C29 1_555 1_555
H22 C32 1_555 1_555
H23 C32 1_555 1_555
H24 C32 1_555 1_555
C33 Si2 1_555 1_555
H25 C33 1_555 1_555
H26 C33 1_555 1_555
H27 C33 1_555 1_555
C34 Si2 1_555 1_555
H28 C34 1_555 1_555
H29 C34 1_555 1_555
H30 C34 1_555 1_555
C35 Si2 1_555 1_555
H31 C35 1_555 1_555
H32 C35 1_555 1_555
H33 C35 1_555 1_555
C36 Si1 1_555 1_555
H34 C36 1_555 1_555
H35 C36 1_555 1_555
H36 C36 1_555 1_555
C37 Si1 1_555 1_555
H37 C37 1_555 1_555
H38 C37 1_555 1_555
H39 C37 1_555 1_555
C38 Si1 1_555 1_555
H40 C38 1_555 1_555
H41 C38 1_555 1_555
H42 C38 1_555 1_555
C10 C11 1_555 1_555
C17 C18 1_555 1_555
C23 C24 1_555 1_555
C30 C31 1_555 1_555

#END
