
#######################################################################
#
#                 Cambridge Crystallographic Data Centre
#                                CCDC 
#
#######################################################################
#
# If this CIF has been generated from an entry in the Cambridge 
# Structural Database, then it will include bibliographic, chemical, 
# crystal, experimental, refinement or atomic coordinate data resulting 
# from the CCDC's data processing and validation procedures.
#
#######################################################################

data_LEZGEE
_chemical_formula_moiety         'C31 H34 N2 O1,0.5(H2 O1)'
_chemical_name_systematic        
'2,5-bis(2-(1,3,3-trimethyl-1,3-dihydro-2H-indol-2-ylidene)ethylidene)cyclopentanone hemihydrate'
_symmetry_cell_setting           monoclinic
_symmetry_space_group_name_H-M   'P 21/n'
_symmetry_Int_Tables_number      14
_space_group_name_Hall           '-P 2yn'
loop_
_symmetry_equiv_pos_site_id
_symmetry_equiv_pos_as_xyz
1 x,y,z
2 1/2-x,1/2+y,1/2-z
3 -x,-y,-z
4 1/2+x,1/2-y,1/2+z
_cell_length_a                   11.0893(19)
_cell_length_b                   15.523(2)
_cell_length_c                   15.895(3)
_cell_angle_alpha                90
_cell_angle_beta                 105.150(17)
_cell_angle_gamma                90
_cell_volume                     2641.06
_exptl_crystal_colour            purple
_exptl_crystal_description       prism
_cell_formula_units_Z            4
loop_
_atom_site_label
_atom_site_type_symbol
_atom_site_fract_x
_atom_site_fract_y
_atom_site_fract_z
C1 C 0.24281(19) 0.20611(12) 0.21647(13)
C2 C 0.19396(18) 0.11389(12) 0.20911(13)
C3 C 0.07076(19) 0.12328(13) 0.14167(14)
C4 C -0.0175(2) 0.06340(14) 0.10435(16)
H1 H -0.0066 0.0058 0.1206
C5 C -0.1239(2) 0.08980(18) 0.04187(18)
H2 H -0.1849 0.0497 0.0164
C6 C -0.1391(2) 0.17455(19) 0.01775(17)
H3 H -0.2106 0.191 -0.0243
C7 C -0.0514(2) 0.23630(15) 0.05393(15)
H4 H -0.0622 0.2938 0.0372
C8 C 0.05297(19) 0.20892(13) 0.11601(13)
C9 C 0.1669(2) 0.34960(12) 0.15122(15)
H5 H 0.1775 0.3775 0.2066
H6 H 0.0929 0.3712 0.1109
H7 H 0.2381 0.3612 0.1293
C10 C 0.27916(19) 0.05056(12) 0.17654(14)
H8 H 0.3569 0.0445 0.2202
H9 H 0.2947 0.0724 0.1238
H10 H 0.2388 -0.0045 0.1653
C11 C 0.1741(2) 0.08263(13) 0.29647(13)
H11 H 0.2537 0.0761 0.3381
H12 H 0.1314 0.0282 0.2881
H13 H 0.1249 0.1241 0.3177
C12 C 0.35194(19) 0.23779(13) 0.26663(14)
H14 H 0.3626 0.2972 0.2662
C13 C 0.45195(19) 0.18906(13) 0.31997(13)
H15 H 0.441 0.1298 0.3222
C14 C 0.56075(19) 0.22175(13) 0.36735(13)
C15 C 0.5974(2) 0.31489(13) 0.37789(15)
H16 H 0.5363 0.3477 0.3986
H17 H 0.6033 0.339 0.3228
C16 C 0.7245(2) 0.31711(13) 0.44472(15)
H18 H 0.7841 0.3497 0.4225
H19 H 0.7175 0.3435 0.4986
C17 C 0.76487(19) 0.22485(13) 0.45970(14)
C18 C 0.6636(2) 0.16842(14) 0.41495(14)
C19 C 0.87538(19) 0.19527(13) 0.50797(13)
H20 H 0.8892 0.1362 0.5076
C20 C 0.97259(19) 0.24709(13) 0.55951(14)
H21 H 0.9575 0.3061 0.5589
C21 C 1.08494(19) 0.22033(12) 0.60951(14)
C22 C 1.14334(18) 0.13031(12) 0.61679(13)
C23 C 1.26489(18) 0.14472(12) 0.68532(13)
C24 C 1.3570(2) 0.08821(14) 0.72384(15)
H22 H 1.3525 0.0307 0.7068
C25 C 1.4579(2) 0.11804(16) 0.78900(16)
H23 H 1.5207 0.0801 0.8165
C26 C 1.4654(2) 0.20336(17) 0.81308(15)
H24 H 1.5336 0.2221 0.8568
C27 C 1.37416(19) 0.26182(14) 0.77408(14)
H25 H 1.38 0.3196 0.7901
C28 C 1.27380(18) 0.23085(12) 0.71029(14)
C29 C 1.1492(2) 0.36654(12) 0.67252(15)
H26 H 1.1358 0.3942 0.6168
H27 H 1.2214 0.3909 0.7124
H28 H 1.0774 0.3751 0.6946
C30 C 1.1665(2) 0.10411(13) 0.52894(13)
H29 H 1.0879 0.0956 0.4868
H30 H 1.2137 0.0515 0.536
H31 H 1.2124 0.1488 0.5093
C31 C 1.0667(2) 0.06020(12) 0.64777(14)
H32 H 0.9898 0.051 0.604
H33 H 1.0488 0.0783 0.701
H34 H 1.1137 0.0075 0.6576
N1 N 0.15498(15) 0.25691(9) 0.16166(11)
N2 N 1.16868(15) 0.27483(9) 0.66299(11)
O1 O 0.66473(14) 0.08853(10) 0.41760(11)
O2? O -0.0526(4) 0.4690(3) -0.0231(3)
H35? H -0.0683 0.5137 0.0105
H36? H -0.0033 0.4906 -0.0581
loop_
_geom_bond_atom_site_label_1
_geom_bond_atom_site_label_2
_geom_bond_site_symmetry_1
_geom_bond_site_symmetry_2
C1 C2 1_555 1_555
C2 C3 1_555 1_555
C3 C4 1_555 1_555
C4 H1 1_555 1_555
C5 C4 1_555 1_555
H2 C5 1_555 1_555
C6 C5 1_555 1_555
H3 C6 1_555 1_555
C7 C6 1_555 1_555
H4 C7 1_555 1_555
C8 C3 1_555 1_555
C9 H5 1_555 1_555
H6 C9 1_555 1_555
H7 C9 1_555 1_555
C10 C2 1_555 1_555
H8 C10 1_555 1_555
H9 C10 1_555 1_555
H10 C10 1_555 1_555
C11 C2 1_555 1_555
H11 C11 1_555 1_555
H12 C11 1_555 1_555
H13 C11 1_555 1_555
C12 C1 1_555 1_555
H14 C12 1_555 1_555
C13 C12 1_555 1_555
H15 C13 1_555 1_555
C14 C13 1_555 1_555
C15 C14 1_555 1_555
H16 C15 1_555 1_555
H17 C15 1_555 1_555
C16 C15 1_555 1_555
H18 C16 1_555 1_555
H19 C16 1_555 1_555
C17 C16 1_555 1_555
C18 C14 1_555 1_555
C19 C17 1_555 1_555
H20 C19 1_555 1_555
C20 C19 1_555 1_555
H21 C20 1_555 1_555
C21 C20 1_555 1_555
C22 C21 1_555 1_555
C23 C22 1_555 1_555
C24 C23 1_555 1_555
H22 C24 1_555 1_555
C25 C24 1_555 1_555
H23 C25 1_555 1_555
C26 C25 1_555 1_555
H24 C26 1_555 1_555
C27 C26 1_555 1_555
H25 C27 1_555 1_555
C28 C23 1_555 1_555
C29 H26 1_555 1_555
H27 C29 1_555 1_555
H28 C29 1_555 1_555
C30 C22 1_555 1_555
H29 C30 1_555 1_555
H30 C30 1_555 1_555
H31 C30 1_555 1_555
C31 C22 1_555 1_555
H32 C31 1_555 1_555
H33 C31 1_555 1_555
H34 C31 1_555 1_555
N1 C1 1_555 1_555
N2 C21 1_555 1_555
O1 C18 1_555 1_555
C7 C8 1_555 1_555
C8 N1 1_555 1_555
C9 N1 1_555 1_555
C17 C18 1_555 1_555
C27 C28 1_555 1_555
C28 N2 1_555 1_555
C29 N2 1_555 1_555

#END
