
#######################################################################
#
#                 Cambridge Crystallographic Data Centre
#                                CCDC 
#
#######################################################################
#
# If this CIF has been generated from an entry in the Cambridge 
# Structural Database, then it will include bibliographic, chemical, 
# crystal, experimental, refinement or atomic coordinate data resulting 
# from the CCDC's data processing and validation procedures.
#
#######################################################################

data_LEZROA
_chemical_formula_moiety         'C29 H28 N2 O10 S1'
_chemical_name_systematic        
'dimethyl (2-[(4-methylphenyl)sulfonyl]-3-{[(4-nitrobenzene-1-carbonyl)oxy]methyl}-1,2,3,4-tetrahydroisoquinolin-1-yl)propanedioate unknown solvate'
_symmetry_cell_setting           monoclinic
_symmetry_space_group_name_H-M   'P 21/c'
_symmetry_Int_Tables_number      14
_space_group_name_Hall           '-P 2ybc'
loop_
_symmetry_equiv_pos_site_id
_symmetry_equiv_pos_as_xyz
1 x,y,z
2 -x,1/2+y,1/2-z
3 -x,-y,-z
4 x,1/2-y,1/2+z
_cell_length_a                   21.4204(15)
_cell_length_b                   21.5628(12)
_cell_length_c                   14.5587(8)
_cell_angle_alpha                90
_cell_angle_beta                 97.091(6)
_cell_angle_gamma                90
_cell_volume                     6672.99
_exptl_crystal_colour            colorless
_exptl_crystal_description       block
_cell_formula_units_Z            8
loop_
_atom_site_label
_atom_site_type_symbol
_atom_site_fract_x
_atom_site_fract_y
_atom_site_fract_z
S1 S 0.44470(7) 0.30810(6) 0.18556(8)
O1 O 0.47487(19) 0.34545(16) 0.1223(2)
O2 O 0.40603(19) 0.25712(17) 0.1510(2)
O3 O 0.6734(2) 0.3784(3) 0.2841(4)
O4 O 0.7058(2) 0.3090(3) 0.3956(4)
O5 O 0.61055(19) 0.28124(17) 0.1282(2)
O6 O 0.66625(18) 0.20829(17) 0.2111(2)
O7 O 0.46089(17) 0.12824(14) 0.3563(2)
O8 O 0.4912(2) 0.04687(16) 0.2773(2)
O9 O 0.3333(2) -0.0618(2) 0.6584(3)
O10 O 0.3666(2) -0.1400(2) 0.5949(3)
C1 C 0.5554(2) 0.3189(2) 0.2916(3)
H1 H 0.5564 0.3522 0.2461
N1 N 0.3607(2) -0.0848(2) 0.6000(3)
C2 C 0.3998(3) 0.3577(3) 0.2476(5)
C3 C 0.4192(3) 0.4177(3) 0.2658(5)
H2 H 0.4567 0.4316 0.2470
C4 C 0.3833(3) 0.4569(3) 0.3117(5)
H3 H 0.3963 0.4976 0.3234
C5 C 0.3277(3) 0.4363(3) 0.3407(5)
C6 C 0.3107(3) 0.3742(3) 0.3239(5)
H4 H 0.2741 0.3594 0.3446
C7 C 0.3457(3) 0.3348(3) 0.2786(5)
H5 H 0.3337 0.2937 0.2685
C8 C 0.2856(4) 0.4810(5) 0.3844(7)
H6 H 0.3110 0.5087 0.4249
H7 H 0.2579 0.4582 0.4191
H8 H 0.2611 0.5045 0.3368
N2 N 0.50133(18) 0.27764(16) 0.2594(2)
C9 C 0.6173(2) 0.2817(2) 0.2944(3)
H9 H 0.6192 0.2483 0.3402
C10 C 0.6292(2) 0.2575(2) 0.2005(3)
C11 C 0.6871(3) 0.1823(3) 0.1289(4)
H10 H 0.6525 0.1618 0.0931
H11 H 0.7202 0.1530 0.1462
H12 H 0.7024 0.2149 0.0928
C12 C 0.6715(3) 0.3330(4) 0.3226(4)
C13 C 0.5468(2) 0.3483(2) 0.3835(3)
C14 C 0.5225(2) 0.3114(2) 0.4487(3)
C15 C 0.5112(3) 0.3382(2) 0.5330(3)
H13 H 0.4940 0.3144 0.5770
C16 C 0.5256(3) 0.4000(2) 0.5508(3)
H14 H 0.5182 0.4175 0.6068
C17 C 0.5506(2) 0.4358(2) 0.4866(3)
H15 H 0.5609 0.4770 0.4998
C18 C 0.5605(2) 0.4106(2) 0.4019(3)
H16 H 0.5763 0.4352 0.3575
C19 C 0.5108(2) 0.2443(2) 0.4270(3)
H17 H 0.4846 0.2270 0.4704
H18 H 0.5506 0.2222 0.4347
C20 C 0.4784(2) 0.2346(2) 0.3278(3)
H19 H 0.4332 0.2416 0.3278
C21 C 0.4874(2) 0.1697(2) 0.2929(3)
H20 H 0.4659 0.1649 0.2307
H21 H 0.5317 0.1610 0.2920
C22 C 0.4659(2) 0.0676(2) 0.3391(3)
C23 C 0.4359(2) 0.0292(2) 0.4072(3)
C24 C 0.4088(3) 0.0552(2) 0.4799(3)
H22 H 0.4073 0.0981 0.4860
C25 C 0.3842(3) 0.0183(2) 0.5426(4)
H23 H 0.3668 0.0357 0.5920
C26 C 0.3855(2) -0.0449(2) 0.5316(3)
C27 C 0.4112(3) -0.0727(2) 0.4597(3)
H24 H 0.4119 -0.1156 0.4534
C28 C 0.4359(2) -0.0345(2) 0.3976(3)
H25 H 0.4529 -0.0520 0.3479
C29 C 0.7555(4) 0.3600(4) 0.4198(6)
H26 H 0.7479 0.3936 0.3767
H27 H 0.7967 0.3433 0.4165
H28 H 0.7528 0.3749 0.4814
S2 S 0.94403(6) 0.80560(5) 0.18901(7)
O11 O 0.90455(18) 0.75485(16) 0.1568(2)
O12 O 0.97238(18) 0.84274(15) 0.1245(2)
O13 O 1.11078(19) 0.78009(15) 0.1283(2)
O14 O 1.16578(18) 0.70681(15) 0.2129(2)
O15 O 1.20740(19) 0.8105(2) 0.3959(3)
O16 O 1.1738(2) 0.87757(18) 0.2839(3)
O17 O 0.96574(16) 0.62486(13) 0.35846(19)
O18 O 0.98775(19) 0.54465(15) 0.2721(2)
O19 O 0.8423(2) 0.4356(2) 0.6642(3)
O20 O 0.8618(2) 0.35681(16) 0.5881(3)
N3 N 1.00159(18) 0.77560(15) 0.2612(2)
N4 N 0.86204(19) 0.41200(19) 0.5986(3)
C30 C 0.8998(2) 0.8545(2) 0.2531(3)
C31 C 0.9184(2) 0.9161(2) 0.2678(3)
H30 H 0.9538 0.9311 0.2438
C32 C 0.8843(3) 0.9542(3) 0.3176(4)
H31 H 0.8968 0.9953 0.3270
C33 C 0.8321(4) 0.9336(4) 0.3541(6)
C34 C 0.8149(4) 0.8711(4) 0.3408(6)
H32 H 0.7807 0.8557 0.3670
C35 C 0.8481(3) 0.8323(3) 0.2894(5)
H33 H 0.8356 0.7913 0.2794
C36 C 0.7910(5) 0.9778(6) 0.4004(8)
H34 H 0.8171 1.0059 0.4392
H35 H 0.7650 0.9547 0.4373
H36 H 0.7649 1.0008 0.3540
C37 C 1.0557(2) 0.81669(19) 0.2923(3)
H37 H 1.0561 0.8499 0.2464
C38 C 1.1177(2) 0.78225(19) 0.2961(3)
H38 H 1.1199 0.7488 0.3419
C39 C 1.1303(2) 0.75716(19) 0.2016(3)
C40 C 1.1862(3) 0.6814(3) 0.1297(4)
H39 H 1.1503 0.6672 0.0892
H40 H 1.2142 0.6472 0.1457
H41 H 1.2078 0.7128 0.0991
C41 C 1.1683(3) 0.8295(3) 0.3225(4)
C42 C 1.0463(2) 0.84675(19) 0.3839(3)
C43 C 1.0597(2) 0.9088(2) 0.4021(3)
H42 H 1.0758 0.9332 0.3580
C44 C 1.0489(2) 0.9344(2) 0.4858(3)
H43 H 1.0588 0.9758 0.4984
C45 C 1.0235(3) 0.8990(2) 0.5505(3)
H44 H 1.0148 0.9167 0.6057
C46 C 1.0111(2) 0.8363(2) 0.5328(3)
H45 H 0.9947 0.8120 0.5770
C47 C 1.0228(2) 0.80999(18) 0.4503(3)
C48 C 1.0123(2) 0.74215(19) 0.4282(3)
H46 H 0.9866 0.7244 0.4719
H47 H 1.0525 0.7209 0.4360
C49 C 0.9801(2) 0.73104(19) 0.3299(3)
H48 H 0.9348 0.7370 0.3303
C50 C 0.9901(2) 0.66607(18) 0.2932(3)
H49 H 0.9675 0.6608 0.2317
H50 H 1.0345 0.6583 0.2905
C51 C 0.9656(2) 0.56483(18) 0.3384(3)
C52 C 0.9372(2) 0.5261(2) 0.4062(3)
C53 C 0.9154(3) 0.5516(2) 0.4834(3)
H51 H 0.9182 0.5941 0.4934
C54 C 0.8896(3) 0.5143(2) 0.5454(3)
H52 H 0.8741 0.5313 0.5968
C55 C 0.8872(2) 0.4517(2) 0.5302(3)
C56 C 0.9086(2) 0.4247(2) 0.4549(3)
H53 H 0.9065 0.3820 0.4459
C57 C 0.9335(2) 0.4631(2) 0.3927(3)
H54 H 0.9481 0.4460 0.3407
C58 C 1.2567(3) 0.8547(4) 0.4278(5)
H55 H 1.2732 0.8725 0.3754
H56 H 1.2898 0.8337 0.4662
H57 H 1.2396 0.8869 0.4628
H29? H 0.7278 0.3361 0.4225
H58? H 1.2312 0.7840 0.3797
loop_
_geom_bond_atom_site_label_1
_geom_bond_atom_site_label_2
_geom_bond_site_symmetry_1
_geom_bond_site_symmetry_2
S1 O1 1_555 1_555
O2 S1 1_555 1_555
O3 C12 1_555 1_555
O4 C12 1_555 1_555
O5 C10 1_555 1_555
O6 C10 1_555 1_555
O7 C21 1_555 1_555
O8 C22 1_555 1_555
O9 N1 1_555 1_555
O10 N1 1_555 1_555
C1 H1 1_555 1_555
N1 C26 1_555 1_555
C2 S1 1_555 1_555
C3 C2 1_555 1_555
H2 C3 1_555 1_555
C4 C3 1_555 1_555
H3 C4 1_555 1_555
C5 C4 1_555 1_555
C6 C5 1_555 1_555
H4 C6 1_555 1_555
C7 C2 1_555 1_555
H5 C7 1_555 1_555
C8 C5 1_555 1_555
H6 C8 1_555 1_555
H7 C8 1_555 1_555
H8 C8 1_555 1_555
N2 S1 1_555 1_555
C9 C1 1_555 1_555
H9 C9 1_555 1_555
C10 C9 1_555 1_555
C11 O6 1_555 1_555
H10 C11 1_555 1_555
H11 C11 1_555 1_555
H12 C11 1_555 1_555
C12 C9 1_555 1_555
C13 C1 1_555 1_555
C14 C13 1_555 1_555
C15 C14 1_555 1_555
H13 C15 1_555 1_555
C16 C15 1_555 1_555
H14 C16 1_555 1_555
C17 C16 1_555 1_555
H15 C17 1_555 1_555
C18 C13 1_555 1_555
H16 C18 1_555 1_555
C19 C14 1_555 1_555
H17 C19 1_555 1_555
H18 C19 1_555 1_555
C20 N2 1_555 1_555
H19 C20 1_555 1_555
C21 C20 1_555 1_555
H20 C21 1_555 1_555
H21 C21 1_555 1_555
C22 O7 1_555 1_555
C23 C22 1_555 1_555
C24 C23 1_555 1_555
H22 C24 1_555 1_555
C25 C24 1_555 1_555
H23 C25 1_555 1_555
C26 C25 1_555 1_555
C27 C26 1_555 1_555
H24 C27 1_555 1_555
C28 C23 1_555 1_555
H25 C28 1_555 1_555
C29 O4 1_555 1_555
H26 C29 1_555 1_555
H27 C29 1_555 1_555
H28 C29 1_555 1_555
S2 O11 1_555 1_555
O12 S2 1_555 1_555
O13 C39 1_555 1_555
O14 C39 1_555 1_555
O15 C41 1_555 1_555
O16 C41 1_555 1_555
O17 C50 1_555 1_555
O18 C51 1_555 1_555
O19 N4 1_555 1_555
O20 N4 1_555 1_555
N3 S2 1_555 1_555
N4 C55 1_555 1_555
C30 S2 1_555 1_555
C31 C30 1_555 1_555
H30 C31 1_555 1_555
C32 C31 1_555 1_555
H31 C32 1_555 1_555
C33 C32 1_555 1_555
C34 C33 1_555 1_555
H32 C34 1_555 1_555
C35 C30 1_555 1_555
H33 C35 1_555 1_555
C36 C33 1_555 1_555
H34 C36 1_555 1_555
H35 C36 1_555 1_555
H36 C36 1_555 1_555
C37 N3 1_555 1_555
H37 C37 1_555 1_555
C38 C37 1_555 1_555
H38 C38 1_555 1_555
C39 C38 1_555 1_555
C40 O14 1_555 1_555
H39 C40 1_555 1_555
H40 C40 1_555 1_555
H41 C40 1_555 1_555
C41 C38 1_555 1_555
C42 C37 1_555 1_555
C43 C42 1_555 1_555
H42 C43 1_555 1_555
C44 C43 1_555 1_555
H43 C44 1_555 1_555
C45 C44 1_555 1_555
H44 C45 1_555 1_555
C46 C45 1_555 1_555
H45 C46 1_555 1_555
C47 C42 1_555 1_555
C48 C47 1_555 1_555
H46 C48 1_555 1_555
H47 C48 1_555 1_555
C49 N3 1_555 1_555
H48 C49 1_555 1_555
C50 C49 1_555 1_555
H49 C50 1_555 1_555
H50 C50 1_555 1_555
C51 O17 1_555 1_555
C52 C51 1_555 1_555
C53 C52 1_555 1_555
H51 C53 1_555 1_555
C54 C53 1_555 1_555
H52 C54 1_555 1_555
C55 C54 1_555 1_555
C56 C55 1_555 1_555
H53 C56 1_555 1_555
C57 C52 1_555 1_555
H54 C57 1_555 1_555
C58 O15 1_555 1_555
H55 C58 1_555 1_555
H56 C58 1_555 1_555
H57 C58 1_555 1_555
C1 N2 1_555 1_555
C6 C7 1_555 1_555
C17 C18 1_555 1_555
C19 C20 1_555 1_555
C27 C28 1_555 1_555
C34 C35 1_555 1_555
C46 C47 1_555 1_555
C48 C49 1_555 1_555
C56 C57 1_555 1_555

#END
