
#######################################################################
#
#                 Cambridge Crystallographic Data Centre
#                                CCDC 
#
#######################################################################
#
# If this CIF has been generated from an entry in the Cambridge 
# Structural Database, then it will include bibliographic, chemical, 
# crystal, experimental, refinement or atomic coordinate data resulting 
# from the CCDC's data processing and validation procedures.
#
#######################################################################

data_LIBVEY
_chemical_formula_moiety         'C8 H10 N2 O1 S1'
_chemical_name_systematic        '4-(Methylsulfanyl)benzamide oxime'
_symmetry_cell_setting           triclinic
_symmetry_space_group_name_H-M   'P -1'
_symmetry_Int_Tables_number      2
_space_group_name_Hall           '-P 1'
loop_
_symmetry_equiv_pos_site_id
_symmetry_equiv_pos_as_xyz
1 x,y,z
2 -x,-y,-z
_cell_length_a                   10.221(2)
_cell_length_b                   11.882(2)
_cell_length_c                   17.120(3)
_cell_angle_alpha                74.12(3)
_cell_angle_beta                 72.91(3)
_cell_angle_gamma                64.94(3)
_cell_volume                     1773.36
_exptl_crystal_colour            colorless
_exptl_crystal_description       Block
_cell_formula_units_Z            8
_exptl_crystal_recrystallization_method ethanol
loop_
_atom_site_label
_atom_site_type_symbol
_atom_site_fract_x
_atom_site_fract_y
_atom_site_fract_z
S1 S 0.48945(12) 0.40461(10) 0.09806(6)
O1 O 0.7601(3) -0.1447(2) 0.48180(14)
H1 H 0.7875 -0.1312 0.5176
N1 N 0.5442(3) -0.0942(2) 0.41668(16)
H2 H 0.5662 -0.1564 0.4567
H3 H 0.4709 -0.0789 0.3953
N2 N 0.7357(3) -0.0371(2) 0.41583(15)
C1 C 0.3099(5) 0.4323(4) 0.0881(3)
H4 H 0.2841 0.4980 0.0416
H5 H 0.2403 0.4574 0.1377
H6 H 0.3082 0.3565 0.0795
C2 C 0.5204(4) 0.2833(3) 0.18498(19)
C3 C 0.6644(4) 0.2142(3) 0.1938(2)
H7 H 0.7404 0.2336 0.1549
C4 C 0.6970(4) 0.1172(3) 0.2592(2)
H8 H 0.7949 0.0724 0.2641
C5 C 0.5871(3) 0.0846(3) 0.31812(17)
C6 C 0.4428(3) 0.1551(3) 0.30967(19)
H9 H 0.3669 0.1359 0.3489
C7 C 0.4088(3) 0.2534(3) 0.24426(19)
H10 H 0.3108 0.2996 0.2400
C8 C 0.6244(3) -0.0211(3) 0.38759(17)
S2 S -0.02780(11) 0.38273(8) 0.09419(5)
O2 O 0.2136(2) -0.11227(18) 0.50618(12)
H11 H 0.2230 -0.0902 0.5449
N3 N 0.0830(3) -0.1242(2) 0.40450(15)
H12 H 0.1061 -0.1845 0.4454
H13 H 0.0366 -0.1283 0.3715
N4 N 0.1889(3) -0.0086(2) 0.43827(14)
C9 C 0.0175(5) 0.3032(4) 0.0108(2)
H14 H -0.0055 0.3638 -0.0383
H15 H -0.0384 0.2503 0.0241
H16 H 0.1209 0.2522 0.0012
C10 C 0.0201(3) 0.2604(3) 0.17809(17)
C11 C 0.0610(3) 0.1345(3) 0.17562(18)
H17 H 0.0674 0.1104 0.1269
C12 C 0.0926(3) 0.0438(3) 0.24562(18)
H18 H 0.1197 -0.0406 0.2431
C13 C 0.0847(3) 0.0762(2) 0.31894(16)
C14 C 0.0431(3) 0.2032(3) 0.32159(18)
H19 H 0.0364 0.2273 0.3704
C15 C 0.0120(3) 0.2930(3) 0.25214(18)
H20 H -0.0150 0.3773 0.2547
C16 C 0.1196(3) -0.0227(2) 0.39209(17)
C17 C 0.4912(4) 1.0225(3) 0.1307(2)
H21 H 0.4979 1.0898 0.0854
H22 H 0.5451 1.0165 0.1700
H23 H 0.3896 1.0392 0.1572
S3 S 0.56700(11) 0.87846(9) 0.09270(5)
O3 O 0.4078(2) 0.37166(19) 0.49975(13)
H24 H 0.3307 0.3851 0.5347
N5 N 0.6444(3) 0.3649(3) 0.39439(18)
H25 H 0.6425 0.3032 0.4346
H26 H 0.7257 0.3614 0.3596
N6 N 0.3943(3) 0.4798(2) 0.43520(15)
C18 C 0.5470(3) 0.7645(3) 0.18147(18)
C19 C 0.6160(4) 0.6390(3) 0.1719(2)
H27 H 0.6694 0.6190 0.1200
C20 C 0.6069(4) 0.5438(3) 0.2375(2)
H28 H 0.6544 0.4605 0.2294
C21 C 0.5281(3) 0.5701(3) 0.31561(17)
C22 C 0.4587(3) 0.6951(3) 0.32520(18)
H29 H 0.4046 0.7148 0.3771
C23 C 0.4677(3) 0.7915(3) 0.25957(18)
H30 H 0.4205 0.8749 0.2678
C24 C 0.5204(3) 0.4670(3) 0.38593(18)
S4 S 0.03648(10) 0.89443(8) 0.09290(5)
O4 O -0.1098(2) 0.37745(18) 0.49272(13)
H31 H -0.1889 0.3916 0.5260
N7 N -0.1209(3) 0.4822(2) 0.42566(15)
N8 N 0.1324(3) 0.3972(2) 0.41537(15)
H32 H 0.1273 0.3368 0.4560
H33 H 0.2166 0.4021 0.3904
C25 C 0.2255(5) 0.8653(4) 0.0487(3)
H34 H 0.2340 0.9281 0.0005
H35 H 0.2724 0.7833 0.0331
H36 H 0.2725 0.8687 0.0886
C26 C 0.0383(3) 0.7734(3) 0.17945(18)
C27 C 0.1591(4) 0.6976(3) 0.2147(2)
H37 H 0.2484 0.7086 0.1923
C28 C 0.1484(3) 0.6053(3) 0.2833(2)
H38 H 0.2313 0.5551 0.3061
C29 C 0.0184(3) 0.5855(3) 0.31867(16)
C30 C -0.1029(3) 0.6627(3) 0.2829(2)
H39 H -0.1924 0.6520 0.3052
C31 C -0.0925(4) 0.7543(3) 0.2151(2)
H40 H -0.1755 0.8050 0.1925
C32 C 0.0083(3) 0.4844(2) 0.39080(16)
loop_
_geom_bond_atom_site_label_1
_geom_bond_atom_site_label_2
_geom_bond_site_symmetry_1
_geom_bond_site_symmetry_2
S1 C1 1_555 1_555
O1 H1 1_555 1_555
N1 H2 1_555 1_555
H3 N1 1_555 1_555
N2 O1 1_555 1_555
C1 H4 1_555 1_555
H5 C1 1_555 1_555
H6 C1 1_555 1_555
C2 S1 1_555 1_555
C3 C2 1_555 1_555
H7 C3 1_555 1_555
C4 C3 1_555 1_555
H8 C4 1_555 1_555
C5 C4 1_555 1_555
C6 C5 1_555 1_555
H9 C6 1_555 1_555
C7 C2 1_555 1_555
H10 C7 1_555 1_555
C8 N1 1_555 1_555
S2 C9 1_555 1_555
O2 H11 1_555 1_555
N3 H12 1_555 1_555
H13 N3 1_555 1_555
N4 O2 1_555 1_555
C9 H14 1_555 1_555
H15 C9 1_555 1_555
H16 C9 1_555 1_555
C10 S2 1_555 1_555
C11 C10 1_555 1_555
H17 C11 1_555 1_555
C12 C11 1_555 1_555
H18 C12 1_555 1_555
C13 C12 1_555 1_555
C14 C13 1_555 1_555
H19 C14 1_555 1_555
C15 C10 1_555 1_555
H20 C15 1_555 1_555
C16 N3 1_555 1_555
C17 H21 1_555 1_555
H22 C17 1_555 1_555
H23 C17 1_555 1_555
S3 C17 1_555 1_555
O3 H24 1_555 1_555
N5 H25 1_555 1_555
H26 N5 1_555 1_555
N6 O3 1_555 1_555
C18 S3 1_555 1_555
C19 C18 1_555 1_555
H27 C19 1_555 1_555
C20 C19 1_555 1_555
H28 C20 1_555 1_555
C21 C20 1_555 1_555
C22 C21 1_555 1_555
H29 C22 1_555 1_555
C23 C18 1_555 1_555
H30 C23 1_555 1_555
C24 N5 1_555 1_555
S4 C25 1_555 1_555
O4 H31 1_555 1_555
N7 O4 1_555 1_555
N8 H32 1_555 1_555
H33 N8 1_555 1_555
C25 H34 1_555 1_555
H35 C25 1_555 1_555
H36 C25 1_555 1_555
C26 S4 1_555 1_555
C27 C26 1_555 1_555
H37 C27 1_555 1_555
C28 C27 1_555 1_555
H38 C28 1_555 1_555
C29 C28 1_555 1_555
C30 C29 1_555 1_555
H39 C30 1_555 1_555
C31 C26 1_555 1_555
H40 C31 1_555 1_555
C32 N7 1_555 1_555
N2 C8 1_555 1_555
C5 C8 1_555 1_555
C6 C7 1_555 1_555
N4 C16 1_555 1_555
C13 C16 1_555 1_555
C14 C15 1_555 1_555
N6 C24 1_555 1_555
C21 C24 1_555 1_555
C22 C23 1_555 1_555
N8 C32 1_555 1_555
C29 C32 1_555 1_555
C30 C31 1_555 1_555

#END
