
#######################################################################
#
#                 Cambridge Crystallographic Data Centre
#                                CCDC 
#
#######################################################################
#
# If this CIF has been generated from an entry in the Cambridge 
# Structural Database, then it will include bibliographic, chemical, 
# crystal, experimental, refinement or atomic coordinate data resulting 
# from the CCDC's data processing and validation procedures.
#
#######################################################################

data_LIBVAU
_chemical_formula_moiety         'C11 H18 Cl2 N4'
_chemical_name_systematic        
4,6-dichloro-N-(2,4,4-trimethylpentan-2-yl)-1,3,5-triazin-2-amine
_symmetry_cell_setting           orthorhombic
_symmetry_space_group_name_H-M   'P b c a'
_symmetry_Int_Tables_number      61
_space_group_name_Hall           '-P 2ac 2ab'
loop_
_symmetry_equiv_pos_site_id
_symmetry_equiv_pos_as_xyz
1 x,y,z
2 1/2-x,-y,1/2+z
3 -x,1/2+y,1/2-z
4 1/2+x,1/2-y,-z
5 -x,-y,-z
6 1/2+x,y,1/2-z
7 x,1/2-y,1/2+z
8 1/2-x,1/2+y,z
_cell_length_a                   12.693(2)
_cell_length_b                   10.6205(19)
_cell_length_c                   21.437(4)
_cell_angle_alpha                90
_cell_angle_beta                 90
_cell_angle_gamma                90
_cell_volume                     2889.84
_exptl_crystal_colour            colorless
_exptl_crystal_description       block
_chemical_melting_point          '354-355 K'
_cell_formula_units_Z            8
_exptl_crystal_recrystallization_method 'petroleum ether'
loop_
_atom_site_label
_atom_site_type_symbol
_atom_site_fract_x
_atom_site_fract_y
_atom_site_fract_z
Cl1 Cl 0.46293(6) 0.11448(9) 0.68651(4)
Cl2 Cl 0.28953(6) 0.45467(9) 0.82554(4)
N1 N 0.36646(16) 0.2794(2) 0.75476(11)
N2 N 0.18378(17) 0.3274(2) 0.74327(11)
N3 N 0.26534(17) 0.1729(2) 0.67726(11)
N4 N 0.08697(17) 0.2213(2) 0.66963(10)
H1 H 0.0367 0.2694 0.6822
C1 C 0.3512(2) 0.1979(3) 0.70835(14)
C2 C 0.2771(2) 0.3398(3) 0.76770(13)
C3 C 0.1800(2) 0.2391(3) 0.69670(13)
C4 C 0.0590(2) 0.1284(3) 0.62028(13)
C5 C -0.0604(2) 0.1409(3) 0.61170(15)
H2 H -0.0948 0.1286 0.6511
H3 H -0.0844 0.0785 0.5826
H4 H -0.0766 0.2233 0.5960
C6 C 0.0813(3) -0.0044(3) 0.64493(17)
H5 H 0.0432 -0.0175 0.6831
H6 H 0.1554 -0.0136 0.6526
H7 H 0.0593 -0.0654 0.6146
C7 C 0.1209(2) 0.1473(3) 0.55927(13)
H8 H 0.1942 0.1312 0.5693
H9 H 0.0989 0.0801 0.5315
C8 C 0.1196(2) 0.2686(3) 0.52013(14)
C9 C 0.1815(10) 0.3730(8) 0.5511(4)
H10 H 0.1462 0.3986 0.5886
H11 H 0.1867 0.4434 0.5232
H12 H 0.2509 0.3432 0.5611
C10 C 0.0117(6) 0.3164(11) 0.4989(5)
H13 H -0.0286 0.3419 0.5347
H14 H -0.0249 0.2503 0.4774
H15 H 0.0208 0.3870 0.4715
C11 C 0.1798(6) 0.2301(7) 0.4589(3)
H16 H 0.1595 0.1465 0.4469
H17 H 0.2544 0.2324 0.4664
H18 H 0.1623 0.2880 0.4261
C12? C 0.1182(14) 0.3914(9) 0.5612(6)
H19? H 0.0704 0.3802 0.5955
H20? H 0.0956 0.4614 0.5362
H21? H 0.1877 0.4074 0.5769
C13? C 0.0182(12) 0.2711(19) 0.4816(9)
H22? H -0.0397 0.2947 0.5079
H23? H 0.0055 0.1891 0.4644
H24? H 0.0253 0.3312 0.4484
C14? C 0.2170(11) 0.286(2) 0.4796(9)
H25? H 0.2677 0.3363 0.5015
H26? H 0.1976 0.3273 0.4415
H27? H 0.2470 0.2051 0.4703
loop_
_geom_bond_atom_site_label_1
_geom_bond_atom_site_label_2
_geom_bond_site_symmetry_1
_geom_bond_site_symmetry_2
Cl1 C1 1_555 1_555
Cl2 C2 1_555 1_555
N1 C1 1_555 1_555
N2 C2 1_555 1_555
N3 C1 1_555 1_555
N4 H1 1_555 1_555
C2 N1 1_555 1_555
C3 N2 1_555 1_555
C4 N4 1_555 1_555
C5 C4 1_555 1_555
H2 C5 1_555 1_555
H3 C5 1_555 1_555
H4 C5 1_555 1_555
C6 C4 1_555 1_555
H5 C6 1_555 1_555
H6 C6 1_555 1_555
H7 C6 1_555 1_555
C7 C4 1_555 1_555
H8 C7 1_555 1_555
H9 C7 1_555 1_555
C8 C7 1_555 1_555
C9 C8 1_555 1_555
H10 C9 1_555 1_555
H11 C9 1_555 1_555
H12 C9 1_555 1_555
C10 C8 1_555 1_555
H13 C10 1_555 1_555
H14 C10 1_555 1_555
H15 C10 1_555 1_555
C11 C8 1_555 1_555
H16 C11 1_555 1_555
H17 C11 1_555 1_555
H18 C11 1_555 1_555
N3 C3 1_555 1_555
N4 C3 1_555 1_555

#END
