
#######################################################################
#
#                 Cambridge Crystallographic Data Centre
#                                CCDC 
#
#######################################################################
#
# If this CIF has been generated from an entry in the Cambridge 
# Structural Database, then it will include bibliographic, chemical, 
# crystal, experimental, refinement or atomic coordinate data resulting 
# from the CCDC's data processing and validation procedures.
#
#######################################################################

data_LIBWAX
_chemical_formula_moiety         'C26 H22 I1 N3 O2 S1'
_chemical_name_systematic        
6-iodo-4-{4-methyl-1-[(4-methylphenyl)sulfonyl]-2,5-dihydro-1H-pyrrol-3-yl}-2-phenylquinazoline
_symmetry_cell_setting           monoclinic
_symmetry_space_group_name_H-M   'C 2/c'
_symmetry_Int_Tables_number      15
_space_group_name_Hall           '-C 2yn'
loop_
_symmetry_equiv_pos_site_id
_symmetry_equiv_pos_as_xyz
1 x,y,z
2 -x,y,1/2-z
3 1/2+x,1/2+y,z
4 1/2-x,1/2+y,1/2-z
5 -x,-y,-z
6 x,-y,1/2+z
7 1/2-x,1/2-y,-z
8 1/2+x,1/2-y,1/2+z
_cell_length_a                   21.9242(14)
_cell_length_b                   10.4073(5)
_cell_length_c                   22.6908(13)
_cell_angle_alpha                90
_cell_angle_beta                 94.879(6)
_cell_angle_gamma                90
_cell_volume                     5158.64
_cell_formula_units_Z            8
loop_
_atom_site_label
_atom_site_type_symbol
_atom_site_fract_x
_atom_site_fract_y
_atom_site_fract_z
I1 I 0.10841(2) 0.66724(2) 0.25537(2)
S1 S 0.42850(3) 0.29955(7) 0.41599(3)
O1 O 0.46419(9) 0.41245(19) 0.40907(9)
O2 O 0.43284(10) 0.19357(19) 0.37671(9)
N1 N 0.24129(10) 0.5426(2) 0.52716(10)
N2 N 0.16346(11) 0.7029(2) 0.52912(11)
N3 N 0.35759(10) 0.3446(2) 0.40971(11)
C1 C 0.20543(12) 0.6273(2) 0.55520(12)
C2 C 0.15372(13) 0.6943(2) 0.46925(13)
C3 C 0.44643(12) 0.2425(2) 0.48828(12)
C4 C 0.27073(12) 0.4373(2) 0.44160(12)
C5 C 0.18713(12) 0.6079(2) 0.43600(12)
C6 C 0.21474(14) 0.6303(3) 0.62063(13)
C7 C 0.23161(12) 0.5323(2) 0.46947(12)
C8 C 0.17476(12) 0.6009(3) 0.37426(13)
H1 H 0.196959 0.545091 0.352261
C9 C 0.43913(12) 0.1134(3) 0.50132(13)
H2 H 0.423689 0.056605 0.472109
C10 C 0.25394(12) 0.3240(2) 0.41874(12)
C11 C 0.13004(14) 0.6764(3) 0.34673(13)
C12 C 0.30800(12) 0.2493(3) 0.40187(13)
H3 H 0.316068 0.175789 0.427662
H4 H 0.302140 0.219971 0.361196
C13 C 0.46942(14) 0.3260(3) 0.53228(14)
H5 H 0.474108 0.412774 0.524058
C14 C 0.10844(14) 0.7717(3) 0.43952(14)
H6 H 0.086335 0.829283 0.460729
C15 C 0.45491(13) 0.0702(3) 0.55782(14)
H7 H 0.449549 -0.016254 0.566379
C16 C 0.47845(14) 0.1511(3) 0.60217(14)
C17 C 0.33852(13) 0.4565(3) 0.44380(14)
H8 H 0.348719 0.536731 0.425259
H9 H 0.357105 0.454847 0.484140
C18 C 0.09689(14) 0.7627(3) 0.37989(14)
H10 H 0.066724 0.814053 0.360642
C19 C 0.26286(16) 0.5666(3) 0.65074(14)
H11 H 0.290457 0.521402 0.629672
C20 C 0.19181(14) 0.2659(3) 0.41182(15)
H12 H 0.163337 0.321589 0.429143
H13 H 0.192537 0.183992 0.431297
H14 H 0.179426 0.254689 0.370533
C21 C 0.48515(16) 0.2796(3) 0.58793(14)
H15 H 0.500842 0.336115 0.617150
C22 C 0.17438(18) 0.6971(3) 0.65363(15)
H16 H 0.141427 0.740744 0.634418
C23 C 0.2309(2) 0.6346(4) 0.74317(17)
H17 H 0.236330 0.635716 0.784263
C24 C 0.27070(18) 0.5688(4) 0.71148(16)
H18 H 0.303413 0.525051 0.731066
C25 C 0.4966(2) 0.1016(4) 0.66330(16)
H19 H 0.466119 0.125533 0.689228
H20 H 0.535331 0.137851 0.677551
H21 H 0.499943 0.009637 0.662220
C26 C 0.1828(2) 0.6990(4) 0.71423(18)
H22 H 0.155677 0.744351 0.735785
loop_
_geom_bond_atom_site_label_1
_geom_bond_atom_site_label_2
_geom_bond_site_symmetry_1
_geom_bond_site_symmetry_2
I1 C11 1_555 1_555
S1 O1 1_555 1_555
O2 S1 1_555 1_555
N1 C1 1_555 1_555
N2 C1 1_555 1_555
N3 S1 1_555 1_555
C1 C6 1_555 1_555
C2 N2 1_555 1_555
C3 S1 1_555 1_555
C4 C7 1_555 1_555
C5 C2 1_555 1_555
C6 C19 1_555 1_555
C7 N1 1_555 1_555
C8 C5 1_555 1_555
H1 C8 1_555 1_555
C9 C3 1_555 1_555
H2 C9 1_555 1_555
C10 C4 1_555 1_555
C11 C8 1_555 1_555
C12 N3 1_555 1_555
H3 C12 1_555 1_555
H4 C12 1_555 1_555
C13 C3 1_555 1_555
H5 C13 1_555 1_555
C14 C2 1_555 1_555
H6 C14 1_555 1_555
C15 C9 1_555 1_555
H7 C15 1_555 1_555
C16 C15 1_555 1_555
C17 N3 1_555 1_555
H8 C17 1_555 1_555
H9 C17 1_555 1_555
C18 C11 1_555 1_555
H10 C18 1_555 1_555
C19 H11 1_555 1_555
C20 C10 1_555 1_555
H12 C20 1_555 1_555
H13 C20 1_555 1_555
H14 C20 1_555 1_555
C21 C13 1_555 1_555
H15 C21 1_555 1_555
C22 C6 1_555 1_555
H16 C22 1_555 1_555
C23 H17 1_555 1_555
C24 C19 1_555 1_555
H18 C24 1_555 1_555
C25 C16 1_555 1_555
H19 C25 1_555 1_555
H20 C25 1_555 1_555
H21 C25 1_555 1_555
C26 C22 1_555 1_555
H22 C26 1_555 1_555
C4 C17 1_555 1_555
C5 C7 1_555 1_555
C10 C12 1_555 1_555
C14 C18 1_555 1_555
C16 C21 1_555 1_555
C23 C24 1_555 1_555
C23 C26 1_555 1_555

#END
