
#######################################################################
#
#                 Cambridge Crystallographic Data Centre
#                                CCDC 
#
#######################################################################
#
# If this CIF has been generated from an entry in the Cambridge 
# Structural Database, then it will include bibliographic, chemical, 
# crystal, experimental, refinement or atomic coordinate data resulting 
# from the CCDC's data processing and validation procedures.
#
#######################################################################

data_LIBWEZ
_chemical_formula_moiety         'C11 H8 F2 N2 O1'
_chemical_name_systematic        
1-(2',4'-Difluorophenyl)-2-(1H-imidazol-1-yl)ethanone
_symmetry_cell_setting           orthorhombic
_symmetry_space_group_name_H-M   'P 21 21 21'
_symmetry_Int_Tables_number      19
_space_group_name_Hall           'P 2ac 2ab'
loop_
_symmetry_equiv_pos_site_id
_symmetry_equiv_pos_as_xyz
1 x,y,z
2 1/2-x,-y,1/2+z
3 -x,1/2+y,1/2-z
4 1/2+x,1/2-y,-z
_cell_length_a                   8.0770(16)
_cell_length_b                   10.045(2)
_cell_length_c                   12.238(2)
_cell_angle_alpha                90
_cell_angle_beta                 90
_cell_angle_gamma                90
_cell_volume                     992.911
_exptl_crystal_colour            yellow
_exptl_crystal_description       needle
_chemical_melting_point          '521-522 K'
_cell_formula_units_Z            4
loop_
_atom_site_label
_atom_site_type_symbol
_atom_site_fract_x
_atom_site_fract_y
_atom_site_fract_z
F1 F 0.1078(3) 0.7475(2) 1.06630(16)
F2 F 0.4088(3) 0.3530(2) 1.04860(15)
O1 O 0.1547(3) 0.2453(2) 0.76858(16)
N1 N 0.3421(3) 0.0378(3) 0.8333(2)
N2 N 0.3896(5) -0.1026(3) 0.6977(3)
C1 C 0.2461(4) -0.0713(3) 0.8515(3)
H1 H 0.1738 -0.0848 0.9096
C2 C 0.2770(5) -0.1559(3) 0.7683(3)
H2 H 0.2282 -0.2392 0.7602
C3 C 0.4245(5) 0.0143(4) 0.7401(3)
H3 H 0.4984 0.0742 0.7088
C4 C 0.3440(4) 0.1593(3) 0.8972(3)
H4 H 0.4558 0.1947 0.8985
H5 H 0.3126 0.1388 0.9719
C5 C 0.2289(4) 0.2637(3) 0.8530(2)
C6 C 0.2036(4) 0.3910(3) 0.9136(2)
C7 C 0.0810(4) 0.4782(3) 0.8757(2)
H6 H 0.0204 0.4546 0.8140
C8 C 0.0472(4) 0.5970(3) 0.9261(2)
H7 H -0.0352 0.6532 0.8999
C9 C 0.1385(5) 0.6301(3) 1.0162(3)
C10 C 0.2596(5) 0.5502(3) 1.0580(3)
H8 H 0.3197 0.5750 1.1195
C11 C 0.2891(4) 0.4317(3) 1.0056(3)
loop_
_geom_bond_atom_site_label_1
_geom_bond_atom_site_label_2
_geom_bond_site_symmetry_1
_geom_bond_site_symmetry_2
F1 C9 1_555 1_555
F2 C11 1_555 1_555
O1 C5 1_555 1_555
N1 C1 1_555 1_555
N2 C2 1_555 1_555
C1 H1 1_555 1_555
C2 C1 1_555 1_555
H2 C2 1_555 1_555
C3 N1 1_555 1_555
H3 C3 1_555 1_555
C4 N1 1_555 1_555
H4 C4 1_555 1_555
H5 C4 1_555 1_555
C5 C4 1_555 1_555
C6 C5 1_555 1_555
C7 C6 1_555 1_555
H6 C7 1_555 1_555
C8 C7 1_555 1_555
H7 C8 1_555 1_555
C9 C8 1_555 1_555
C10 C9 1_555 1_555
H8 C10 1_555 1_555
C11 C6 1_555 1_555
N2 C3 1_555 1_555
C10 C11 1_555 1_555

#END
