
#######################################################################
#
#                 Cambridge Crystallographic Data Centre
#                                CCDC 
#
#######################################################################
#
# If this CIF has been generated from an entry in the Cambridge 
# Structural Database, then it will include bibliographic, chemical, 
# crystal, experimental, refinement or atomic coordinate data resulting 
# from the CCDC's data processing and validation procedures.
#
#######################################################################

data_LIBZAA
_chemical_formula_moiety         'C14 H19 N3'
_chemical_name_systematic        
(E)-1-((2-methyl-1-phenylprop-1-en-1-yl)diazenyl)pyrrolidine
_symmetry_cell_setting           monoclinic
_symmetry_space_group_name_H-M   'P 21/c'
_symmetry_Int_Tables_number      14
_space_group_name_Hall           '-P 2ybc'
loop_
_symmetry_equiv_pos_site_id
_symmetry_equiv_pos_as_xyz
1 x,y,z
2 -x,1/2+y,1/2-z
3 -x,-y,-z
4 x,1/2-y,1/2+z
_cell_length_a                   9.23821(16)
_cell_length_b                   5.74379(10)
_cell_length_c                   49.3688(9)
_cell_angle_alpha                90
_cell_angle_beta                 90.3344(16)
_cell_angle_gamma                90
_cell_volume                     2619.58
_exptl_crystal_colour            colorless
_exptl_crystal_description       prism
_cell_formula_units_Z            8
loop_
_atom_site_label
_atom_site_type_symbol
_atom_site_fract_x
_atom_site_fract_y
_atom_site_fract_z
N1 N 0.33686(10) 0.95729(18) 0.31571(2)
N2 N 0.40393(10) 0.86380(16) 0.29603(2)
N3 N 0.32272(11) 0.7175(2) 0.28194(2)
C1 C 0.42220(11) 1.11866(19) 0.33061(2)
C2 C 0.35606(12) 1.2432(2) 0.35009(2)
C3 C 0.57951(11) 1.14381(19) 0.32426(2)
C4 C 0.67658(12) 0.9652(2) 0.33039(2)
H1 H 0.642461 0.826962 0.338782
C5 C 0.82235(12) 0.9872(2) 0.32437(2)
H2 H 0.887240 0.864089 0.328650
C6 C 0.87384(12) 1.1871(2) 0.31219(2)
H3 H 0.973773 1.201586 0.308082
C7 C 0.77905(14) 1.3659(2) 0.30601(2)
H4 H 0.813853 1.503651 0.297621
C8 C 0.63268(13) 1.3444(2) 0.31206(2)
H5 H 0.568293 1.468205 0.307807
C9 C 0.43229(15) 1.4249(3) 0.36676(3)
H6 H 0.400288 1.579992 0.361021
H7 H 0.537061 1.411019 0.364218
H8 H 0.409254 1.402235 0.385936
C10 C 0.19894(14) 1.2134(3) 0.35679(3)
H9 H 0.159233 1.081846 0.346531
H10 H 0.146060 1.355634 0.351999
H11 H 0.188906 1.183421 0.376234
C11 C 0.38146(13) 0.5928(2) 0.25897(3)
H12 H 0.480164 0.534199 0.262881
H13 H 0.383993 0.692272 0.242601
C12 C 0.27468(17) 0.3946(2) 0.25566(3)
H14 H 0.300446 0.261759 0.267513
H15 H 0.270295 0.340535 0.236630
C13 C 0.13222(16) 0.5041(3) 0.26416(3)
H16 H 0.062185 0.383430 0.269840
H17 H 0.089284 0.595686 0.249143
C14 C 0.17303(15) 0.6614(3) 0.28788(3)
H18 H 0.112057 0.803116 0.288278
H19 H 0.164443 0.578515 0.305374
N4 N 0.26620(10) 0.33707(17) 0.45360(2)
N5 N 0.28627(11) 0.20652(19) 0.43330(2)
N6 N 0.4094(15) 0.078(2) 0.4338(3)
C15 C 0.14536(11) 0.48709(19) 0.45124(2)
C16 C 0.12116(12) 0.6355(2) 0.47196(2)
C17 C 0.05176(11) 0.48617(18) 0.42641(2)
C18 C -0.04084(12) 0.3028(2) 0.42024(2)
H20 H -0.042833 0.169631 0.431636
C19 C -0.13064(13) 0.3121(2) 0.39755(3)
H21 H -0.193460 0.185535 0.393600
C20 C -0.12906(13) 0.5037(2) 0.38079(2)
H22 H -0.190252 0.509344 0.365273
C21 C -0.03818(15) 0.6870(2) 0.38668(3)
H23 H -0.037074 0.820014 0.375246
C22 C 0.05176(13) 0.6782(2) 0.40924(2)
H24 H 0.114409 0.805340 0.413038
C23 C 0.21887(15) 0.6534(2) 0.49629(3)
H25 H 0.299107 0.542996 0.494466
H26 H 0.163903 0.616889 0.512670
H27 H 0.257366 0.812005 0.497619
C24 C -0.00498(14) 0.7995(2) 0.47237(3)
H28 H -0.069691 0.765060 0.457086
H29 H 0.030067 0.960056 0.470893
H30 H -0.057776 0.780782 0.489387
C25 C 0.4545(7) -0.0622(11) 0.41254(13)
H31 H 0.514326 0.025108 0.399421
H32 H 0.371728 -0.135240 0.402962
C26 C 0.5454(9) -0.2440(15) 0.4286(2)
H33 H 0.482972 -0.365100 0.436760
H34 H 0.618529 -0.319422 0.416963
C27 C 0.6155(4) -0.0951(7) 0.45000(10)
H35 H 0.654599 -0.192616 0.464875
H36 H 0.695477 -0.002495 0.442216
C28 C 0.4984(17) 0.060(3) 0.4601(3)
H37 H 0.536035 0.213380 0.466026
H38 H 0.442783 -0.012417 0.474951
N7? N 0.3952(15) 0.0677(18) 0.4379(3)
C29? C 0.4283(7) -0.1259(10) 0.41813(13)
H39? H 0.360353 -0.257861 0.420239
H40? H 0.424374 -0.069674 0.399187
C30? C 0.5802(9) -0.1938(16) 0.4262(2)
H41? H 0.652707 -0.088694 0.418034
H42? H 0.601962 -0.356415 0.420980
C31? C 0.5759(5) -0.1661(9) 0.45715(10)
H43? H 0.674235 -0.154319 0.465088
H44? H 0.522781 -0.295317 0.465889
C32? C 0.4901(17) 0.073(3) 0.4592(3)
H45? H 0.437843 0.084329 0.476657
H46? H 0.556835 0.207515 0.457708
loop_
_geom_bond_atom_site_label_1
_geom_bond_atom_site_label_2
_geom_bond_site_symmetry_1
_geom_bond_site_symmetry_2
N1 N2 1_555 1_555
N2 N3 1_555 1_555
N3 C11 1_555 1_555
C1 N1 1_555 1_555
C2 C1 1_555 1_555
C3 C1 1_555 1_555
C4 C3 1_555 1_555
H1 C4 1_555 1_555
C5 C4 1_555 1_555
H2 C5 1_555 1_555
C6 C5 1_555 1_555
H3 C6 1_555 1_555
C7 C6 1_555 1_555
H4 C7 1_555 1_555
C8 C3 1_555 1_555
H5 C8 1_555 1_555
C9 C2 1_555 1_555
H6 C9 1_555 1_555
H7 C9 1_555 1_555
H8 C9 1_555 1_555
C10 C2 1_555 1_555
H9 C10 1_555 1_555
H10 C10 1_555 1_555
H11 C10 1_555 1_555
C11 H12 1_555 1_555
H13 C11 1_555 1_555
C12 C11 1_555 1_555
H14 C12 1_555 1_555
H15 C12 1_555 1_555
C13 C12 1_555 1_555
H16 C13 1_555 1_555
H17 C13 1_555 1_555
C14 N3 1_555 1_555
H18 C14 1_555 1_555
H19 C14 1_555 1_555
N4 N5 1_555 1_555
N5 N6 1_555 1_555
N6 C25 1_555 1_555
C15 N4 1_555 1_555
C16 C15 1_555 1_555
C17 C15 1_555 1_555
C18 C17 1_555 1_555
H20 C18 1_555 1_555
C19 C18 1_555 1_555
H21 C19 1_555 1_555
C20 C19 1_555 1_555
H22 C20 1_555 1_555
C21 C20 1_555 1_555
H23 C21 1_555 1_555
C22 C17 1_555 1_555
H24 C22 1_555 1_555
C23 C16 1_555 1_555
H25 C23 1_555 1_555
H26 C23 1_555 1_555
H27 C23 1_555 1_555
C24 C16 1_555 1_555
H28 C24 1_555 1_555
H29 C24 1_555 1_555
H30 C24 1_555 1_555
C25 H31 1_555 1_555
H32 C25 1_555 1_555
C26 C25 1_555 1_555
H33 C26 1_555 1_555
H34 C26 1_555 1_555
C27 C26 1_555 1_555
H35 C27 1_555 1_555
H36 C27 1_555 1_555
C28 N6 1_555 1_555
H37 C28 1_555 1_555
H38 C28 1_555 1_555
C7 C8 1_555 1_555
C13 C14 1_555 1_555
C21 C22 1_555 1_555
C27 C28 1_555 1_555

#END
