
#######################################################################
#
#                 Cambridge Crystallographic Data Centre
#                                CCDC 
#
#######################################################################
#
# If this CIF has been generated from an entry in the Cambridge 
# Structural Database, then it will include bibliographic, chemical, 
# crystal, experimental, refinement or atomic coordinate data resulting 
# from the CCDC's data processing and validation procedures.
#
#######################################################################

data_LIBZUU
_chemical_formula_moiety         'C12 H17 N3'
_chemical_name_systematic        (E)-1-(phenethyldiazenyl)pyrrolidine
_symmetry_cell_setting           monoclinic
_symmetry_space_group_name_H-M   'P 21/c'
_symmetry_Int_Tables_number      14
_space_group_name_Hall           '-P 2ybc'
loop_
_symmetry_equiv_pos_site_id
_symmetry_equiv_pos_as_xyz
1 x,y,z
2 -x,1/2+y,1/2-z
3 -x,-y,-z
4 x,1/2-y,1/2+z
_cell_length_a                   6.1509(6)
_cell_length_b                   8.2207(7)
_cell_length_c                   22.5731(18)
_cell_angle_alpha                90
_cell_angle_beta                 94.238(8)
_cell_angle_gamma                90
_cell_volume                     1138.28
_exptl_crystal_colour            colorless
_exptl_crystal_description       plate
_cell_formula_units_Z            4
loop_
_atom_site_label
_atom_site_type_symbol
_atom_site_fract_x
_atom_site_fract_y
_atom_site_fract_z
N1 N 0.3839(6) 0.2331(4) 0.46659(14)
N2 N 0.1931(6) 0.2675(4) 0.48004(14)
N3 N 0.1470(6) 0.2095(5) 0.53256(15)
C1 C 0.4231(7) 0.2989(5) 0.40783(16)
H1 H 0.284354 0.340171 0.388420
H2 H 0.476686 0.210975 0.382710
C2 C 0.5888(7) 0.4353(5) 0.41284(17)
H3 H 0.527625 0.528568 0.433834
H4 H 0.721144 0.397791 0.436577
C3 C 0.6503(7) 0.4901(5) 0.35223(16)
C4 C 0.5206(8) 0.5965(5) 0.31784(18)
H5 H 0.389958 0.636690 0.332459
C5 C 0.5785(8) 0.6457(6) 0.26210(19)
H6 H 0.489113 0.720248 0.239246
C6 C 0.7660(8) 0.5857(6) 0.24018(19)
H7 H 0.806420 0.619654 0.202282
C7 C 0.8949(7) 0.4767(6) 0.27320(19)
H8 H 1.022861 0.433958 0.257919
C8 C 0.8363(7) 0.4297(5) 0.32904(18)
H9 H 0.925648 0.354714 0.351708
C9 C -0.0689(7) 0.2335(6) 0.55300(18)
H10 H -0.181353 0.176254 0.527178
H11 H -0.106261 0.350441 0.554652
C10 C -0.0450(8) 0.1589(6) 0.6147(2)
H12 H -0.002628 0.242695 0.644918
H13 H -0.183622 0.108330 0.624794
C11 C 0.1320(8) 0.0317(6) 0.6123(2)
H14 H 0.070442 -0.073301 0.597612
H15 H 0.208087 0.014892 0.651994
C12 C 0.2866(7) 0.1017(5) 0.56909(17)
H16 H 0.407629 0.162237 0.590387
H17 H 0.347866 0.014793 0.544913
loop_
_geom_bond_atom_site_label_1
_geom_bond_atom_site_label_2
_geom_bond_site_symmetry_1
_geom_bond_site_symmetry_2
N1 N2 1_555 1_555
N2 N3 1_555 1_555
N3 C9 1_555 1_555
C1 N1 1_555 1_555
H1 C1 1_555 1_555
H2 C1 1_555 1_555
C2 C1 1_555 1_555
H3 C2 1_555 1_555
H4 C2 1_555 1_555
C3 C2 1_555 1_555
C4 C3 1_555 1_555
H5 C4 1_555 1_555
C5 C4 1_555 1_555
H6 C5 1_555 1_555
C6 C5 1_555 1_555
H7 C6 1_555 1_555
C7 C6 1_555 1_555
H8 C7 1_555 1_555
C8 C3 1_555 1_555
H9 C8 1_555 1_555
C9 H10 1_555 1_555
H11 C9 1_555 1_555
C10 C9 1_555 1_555
H12 C10 1_555 1_555
H13 C10 1_555 1_555
C11 C10 1_555 1_555
H14 C11 1_555 1_555
H15 C11 1_555 1_555
C12 N3 1_555 1_555
H16 C12 1_555 1_555
H17 C12 1_555 1_555
C7 C8 1_555 1_555
C11 C12 1_555 1_555

#END
