
#######################################################################
#
#                 Cambridge Crystallographic Data Centre
#                                CCDC 
#
#######################################################################
#
# If this CIF has been generated from an entry in the Cambridge 
# Structural Database, then it will include bibliographic, chemical, 
# crystal, experimental, refinement or atomic coordinate data resulting 
# from the CCDC's data processing and validation procedures.
#
#######################################################################

data_LICLUG
_chemical_formula_moiety         'C21 H16 N2 O2'
_chemical_name_systematic        
2,2-bis(4-Aminophenyl)-1H-indene-1,3(2H)-dione
_symmetry_cell_setting           monoclinic
_symmetry_space_group_name_H-M   'C 2/c'
_symmetry_Int_Tables_number      15
_space_group_name_Hall           '-C 2yn'
loop_
_symmetry_equiv_pos_site_id
_symmetry_equiv_pos_as_xyz
1 x,y,z
2 -x,y,1/2-z
3 1/2+x,1/2+y,z
4 1/2-x,1/2+y,1/2-z
5 -x,-y,-z
6 x,-y,1/2+z
7 1/2-x,1/2-y,-z
8 1/2+x,1/2-y,1/2+z
_cell_length_a                   12.7349(9)
_cell_length_b                   17.3728(13)
_cell_length_c                   14.8084(11)
_cell_angle_alpha                90
_cell_angle_beta                 93.443(3)
_cell_angle_gamma                90
_cell_volume                     3270.31
_exptl_crystal_colour            brown
_exptl_crystal_description       rectangular
_cell_formula_units_Z            8
loop_
_atom_site_label
_atom_site_type_symbol
_atom_site_fract_x
_atom_site_fract_y
_atom_site_fract_z
C1 C 0.12453(15) 0.64639(10) 0.15662(11)
H1 H 0.1763 0.6825 0.1725
C2 C 0.02164(16) 0.66791(11) 0.13676(12)
H2 H 0.0040 0.7198 0.1389
C3 C -0.05633(15) 0.61475(12) 0.11380(12)
H3 H -0.1250 0.6315 0.1011
C4 C -0.03393(13) 0.53766(11) 0.10949(10)
H4 H -0.0863 0.5018 0.0944
C5 C 0.07004(11) 0.51507(9) 0.12851(9)
C6 C 0.14776(12) 0.56844(8) 0.15189(9)
C7 C 0.11427(11) 0.43706(9) 0.12971(9)
C8 C 0.23355(11) 0.44222(8) 0.15661(9)
C9 C 0.24980(12) 0.52974(9) 0.16871(9)
C10 C 0.25959(10) 0.40413(8) 0.24806(9)
C11 C 0.18465(11) 0.37800(9) 0.30420(10)
H5 H 0.1141 0.3791 0.2840
C12 C 0.21236(12) 0.35025(9) 0.38979(11)
H6 H 0.1603 0.3329 0.4262
C13 C 0.31677(12) 0.34790(8) 0.42209(10)
C14 C 0.39248(12) 0.37379(10) 0.36609(10)
H7 H 0.4631 0.3725 0.3860
C15 C 0.36373(11) 0.40136(10) 0.28106(10)
H8 H 0.4158 0.4187 0.2446
C16 C 0.29335(10) 0.40992(8) 0.07882(9)
C17 C 0.31563(11) 0.33256(8) 0.07321(10)
H9 H 0.3000 0.3003 0.1207
C18 C 0.36053(12) 0.30185(9) -0.00112(10)
H10 H 0.3758 0.2495 -0.0023
C19 C 0.38330(13) 0.34710(10) -0.07373(10)
C20 C 0.36282(18) 0.42497(10) -0.06811(12)
H11 H 0.3791 0.4572 -0.1154
C21 C 0.31867(15) 0.45559(10) 0.00655(11)
H12 H 0.3055 0.5082 0.0085
N1 N 0.34484(13) 0.31943(10) 0.50744(9)
H13 H 0.4100 0.3177 0.5263
H14 H 0.2971 0.3035 0.5416
N2 N 0.42897(15) 0.31578(11) -0.14809(11)
H15 H 0.4435 0.2675 -0.1493
H16 H 0.4428 0.3447 -0.1930
O1 O 0.33248(10) 0.56107(7) 0.19028(8)
O2 O 0.06657(8) 0.37819(7) 0.11247(8)
loop_
_geom_bond_atom_site_label_1
_geom_bond_atom_site_label_2
_geom_bond_site_symmetry_1
_geom_bond_site_symmetry_2
C1 H1 1_555 1_555
C2 C1 1_555 1_555
H2 C2 1_555 1_555
C3 C2 1_555 1_555
H3 C3 1_555 1_555
C4 C3 1_555 1_555
H4 C4 1_555 1_555
C5 C4 1_555 1_555
C6 C1 1_555 1_555
C7 C5 1_555 1_555
C8 C7 1_555 1_555
C9 C6 1_555 1_555
C10 C8 1_555 1_555
C11 C10 1_555 1_555
H5 C11 1_555 1_555
C12 C11 1_555 1_555
H6 C12 1_555 1_555
C13 C12 1_555 1_555
C14 C13 1_555 1_555
H7 C14 1_555 1_555
C15 C10 1_555 1_555
H8 C15 1_555 1_555
C16 C8 1_555 1_555
C17 C16 1_555 1_555
H9 C17 1_555 1_555
C18 C17 1_555 1_555
H10 C18 1_555 1_555
C19 C18 1_555 1_555
C20 C19 1_555 1_555
H11 C20 1_555 1_555
C21 C16 1_555 1_555
H12 C21 1_555 1_555
N1 C13 1_555 1_555
H13 N1 1_555 1_555
H14 N1 1_555 1_555
N2 C19 1_555 1_555
H15 N2 1_555 1_555
H16 N2 1_555 1_555
O1 C9 1_555 1_555
O2 C7 1_555 1_555
C5 C6 1_555 1_555
C8 C9 1_555 1_555
C14 C15 1_555 1_555
C20 C21 1_555 1_555

#END
