
#######################################################################
#
#                 Cambridge Crystallographic Data Centre
#                                CCDC 
#
#######################################################################
#
# If this CIF has been generated from an entry in the Cambridge 
# Structural Database, then it will include bibliographic, chemical, 
# crystal, experimental, refinement or atomic coordinate data resulting 
# from the CCDC's data processing and validation procedures.
#
#######################################################################

data_LICREW
_chemical_formula_moiety         'C20 H16 N2 O1'
_chemical_name_systematic        
5-(9-Anthrylmethylene)-2,3-dimethyl-3,5-dihydro-4H-imidazol-4-one
_symmetry_cell_setting           monoclinic
_symmetry_space_group_name_H-M   'P 21/c'
_symmetry_Int_Tables_number      14
_space_group_name_Hall           '-P 2ybc'
loop_
_symmetry_equiv_pos_site_id
_symmetry_equiv_pos_as_xyz
1 x,y,z
2 -x,1/2+y,1/2-z
3 -x,-y,-z
4 x,1/2-y,1/2+z
_cell_length_a                   14.824(3)
_cell_length_b                   7.6662(15)
_cell_length_c                   13.216(3)
_cell_angle_alpha                90
_cell_angle_beta                 99.43(3)
_cell_angle_gamma                90
_cell_volume                     1481.62
_exptl_crystal_colour            yellow
_exptl_crystal_description       block
_cell_formula_units_Z            4
loop_
_atom_site_label
_atom_site_type_symbol
_atom_site_fract_x
_atom_site_fract_y
_atom_site_fract_z
O1 O 0.06791(12) 0.1199(3) 0.43644(14)
N1 N 0.19728(14) 0.0071(3) 0.38296(15)
N2 N 0.29217(13) -0.0284(3) 0.53348(15)
C1 C 0.18987(15) 0.0003(3) 0.82771(18)
C2 C 0.09754(17) -0.0625(3) 0.8078(2)
H1 H 0.0647 -0.0603 0.7398
C3 C 0.05642(18) -0.1251(4) 0.8852(2)
H2 H -0.0052 -0.1637 0.8701
C4 C 0.10285(19) -0.1345(4) 0.9876(2)
H3 H 0.0728 -0.1788 1.0403
C5 C 0.19029(18) -0.0796(3) 1.0091(2)
H4 H 0.2220 -0.0875 1.0775
C6 C 0.23624(16) -0.0097(3) 0.93105(18)
C7 C 0.32629(17) 0.0471(3) 0.95411(18)
H5 H 0.3574 0.0379 1.0227
C8 C 0.37201(16) 0.1167(3) 0.88011(18)
C9 C 0.46296(17) 0.1830(3) 0.9066(2)
H6 H 0.4934 0.1727 0.9754
C10 C 0.50679(17) 0.2598(3) 0.8364(2)
H7 H 0.5674 0.3023 0.8555
C11 C 0.46119(17) 0.2759(3) 0.7341(2)
H8 H 0.4913 0.3320 0.6849
C12 C 0.37513(17) 0.2128(3) 0.70468(19)
H9 H 0.3466 0.2252 0.6353
C13 C 0.32659(16) 0.1283(3) 0.77591(18)
C14 C 0.23564(15) 0.0652(3) 0.74942(18)
C15 C 0.18454(16) 0.0775(3) 0.64472(18)
H10 H 0.1236 0.1189 0.6406
C16 C 0.20902(16) 0.0405(3) 0.55423(18)
C17 C 0.14556(17) 0.0639(3) 0.45496(19)
C18 C 0.16447(19) -0.0018(4) 0.27357(19)
H11 H 0.1021 0.0445 0.2588
H12 H 0.1646 -0.1235 0.2509
H13 H 0.2045 0.0674 0.2371
C19 C 0.28168(16) -0.0449(3) 0.43438(18)
C20 C 0.35249(18) -0.1101(3) 0.3770(2)
H14 H 0.4076 -0.1412 0.4253
H15 H 0.3674 -0.0189 0.3304
H16 H 0.3294 -0.2133 0.3372
loop_
_geom_bond_atom_site_label_1
_geom_bond_atom_site_label_2
_geom_bond_site_symmetry_1
_geom_bond_site_symmetry_2
O1 C17 1_555 1_555
N1 C17 1_555 1_555
N2 C16 1_555 1_555
C1 C2 1_555 1_555
C2 H1 1_555 1_555
C3 C2 1_555 1_555
H2 C3 1_555 1_555
C4 C3 1_555 1_555
H3 C4 1_555 1_555
C5 C4 1_555 1_555
H4 C5 1_555 1_555
C6 C1 1_555 1_555
C7 C6 1_555 1_555
H5 C7 1_555 1_555
C8 C7 1_555 1_555
C9 C8 1_555 1_555
H6 C9 1_555 1_555
C10 C9 1_555 1_555
H7 C10 1_555 1_555
C11 C10 1_555 1_555
H8 C11 1_555 1_555
C12 C11 1_555 1_555
H9 C12 1_555 1_555
C13 C8 1_555 1_555
C14 C1 1_555 1_555
C15 C14 1_555 1_555
H10 C15 1_555 1_555
C16 C15 1_555 1_555
C17 C16 1_555 1_555
C18 N1 1_555 1_555
H11 C18 1_555 1_555
H12 C18 1_555 1_555
H13 C18 1_555 1_555
C19 N1 1_555 1_555
C20 C19 1_555 1_555
H14 C20 1_555 1_555
H15 C20 1_555 1_555
H16 C20 1_555 1_555
N2 C19 1_555 1_555
C5 C6 1_555 1_555
C12 C13 1_555 1_555
C13 C14 1_555 1_555

#END
