
#######################################################################
#
#                 Cambridge Crystallographic Data Centre
#                                CCDC 
#
#######################################################################
#
# If this CIF has been generated from an entry in the Cambridge 
# Structural Database, then it will include bibliographic, chemical, 
# crystal, experimental, refinement or atomic coordinate data resulting 
# from the CCDC's data processing and validation procedures.
#
#######################################################################

data_LIDCEG
_chemical_formula_moiety         'C29 H22 N2 O2'
_chemical_name_systematic        
endo-7,8,9,10-Tetrahydro-11-benzyl-7,10-iminocyclohepta(de)naphthalene-8,9-N-phenyldicarboximide
_symmetry_cell_setting           monoclinic
_symmetry_space_group_name_H-M   'P 21/c'
_symmetry_Int_Tables_number      14
_space_group_name_Hall           '-P 2ybc'
loop_
_symmetry_equiv_pos_site_id
_symmetry_equiv_pos_as_xyz
1 x,y,z
2 -x,1/2+y,1/2-z
3 -x,-y,-z
4 x,1/2-y,1/2+z
_cell_length_a                   10.161(2)
_cell_length_b                   15.473(3)
_cell_length_c                   14.566(2)
_cell_angle_alpha                90
_cell_angle_beta                 108.08(2)
_cell_angle_gamma                90
_cell_volume                     2177.01
_exptl_crystal_colour            white
_cell_formula_units_Z            4
loop_
_atom_site_label
_atom_site_type_symbol
_atom_site_fract_x
_atom_site_fract_y
_atom_site_fract_z
O1 O 0.3208(2) 0.2896(2) 0.3062(2)
O2 O 0.2788(2) 0.5483(2) 0.1499(2)
N1 N 0.2894(2) 0.4091(2) 0.2073(2)
N2 N 0.6378(2) 0.4993(2) 0.4173(2)
C1 C 0.3428(3) 0.3651(2) 0.2949(2)
C2 C 0.4284(3) 0.4271(2) 0.3685(2)
C3 C 0.4108(3) 0.5143(2) 0.3172(2)
C4 C 0.3199(3) 0.4973(2) 0.2151(2)
C5 C 0.5868(3) 0.4096(2) 0.3983(2)
C6 C 0.5614(3) 0.5431(2) 0.3256(2)
C7 C 0.7902(3) 0.5097(2) 0.4432(2)
C8 C 0.8648(3) 0.4740(2) 0.5414(2)
C9 C 0.9017(4) 0.5280(3) 0.6214(3)
C10 C 0.9779(4) 0.4963(5) 0.7111(3)
C11 C 1.0160(5) 0.4106(6) 0.7217(4)
C12 C 0.9798(4) 0.3568(4) 0.6430(4)
C13 C 0.9057(4) 0.3884(3) 0.5535(3)
C14 C 0.2188(3) 0.3668(2) 0.1182(2)
C15 C 0.2868(4) 0.3022(2) 0.0866(3)
C16 C 0.2209(5) 0.2606(3) 0.0004(3)
C17 C 0.0895(5) 0.2842(3) -0.0527(3)
C18 C 0.0228(4) 0.3488(3) -0.0212(3)
C19 C 0.0868(4) 0.3907(3) 0.0648(3)
C20 C 0.6305(3) 0.3676(2) 0.3185(2)
C21 C 0.6661(3) 0.2831(2) 0.3181(3)
C22 C 0.7087(4) 0.2473(3) 0.2430(3)
C23 C 0.7147(4) 0.2984(3) 0.1683(3)
C24 C 0.6874(4) 0.4433(3) 0.0895(3)
C25 C 0.6567(4) 0.5279(3) 0.0920(3)
C26 C 0.6169(3) 0.5633(3) 0.1688(3)
C27 C 0.6054(3) 0.5110(2) 0.2417(2)
C28 C 0.6367(3) 0.4222(2) 0.2410(2)
C29 C 0.6794(3) 0.3875(2) 0.1643(2)
H1 H 0.3998(32) 0.4281(21) 0.4239(23)
H2 H 0.3676(32) 0.5570(21) 0.3448(23)
H3 H 0.6194(31) 0.3738(20) 0.4585(23)
H4 H 0.5684(32) 0.6041(22) 0.3301(22)
H5 H 0.8036(32) 0.5742(22) 0.4419(22)
H6 H 0.8227(32) 0.4800(20) 0.3956(23)
H7 H 0.8768(33) 0.5890(23) 0.6120(23)
H8 H 1.0111(33) 0.5422(20) 0.7648(25)
H9 H 1.0645(33) 0.3921(21) 0.7824(25)
H10 H 1.0149(39) 0.2929(27) 0.6491(29)
H11 H 0.8800(34) 0.3476(21) 0.4986(24)
H12 H 0.3802(34) 0.2893(21) 0.1201(23)
H13 H 0.2698(33) 0.2193(21) -0.0243(22)
H14 H 0.0399(40) 0.2575(26) -0.1101(29)
H15 H -0.0668(34) 0.3656(20) -0.0581(23)
H16 H 0.0463(33) 0.4413(23) 0.0840(23)
H17 H 0.6621(32) 0.2463(22) 0.3692(22)
H18 H 0.7415(31) 0.1837(22) 0.2488(21)
H19 H 0.7392(38) 0.2744(26) 0.1175(28)
H20 H 0.7111(32) 0.4187(21) 0.0357(23)
H21 H 0.6619(31) 0.5629(22) 0.0435(23)
H22 H 0.5890(32) 0.6212(22) 0.1673(23)
loop_
_geom_bond_atom_site_label_1
_geom_bond_atom_site_label_2
_geom_bond_site_symmetry_1
_geom_bond_site_symmetry_2
O1 C1 1_555 1_555
O2 C4 1_555 1_555
N1 C1 1_555 1_555
N2 C5 1_555 1_555
C1 C2 1_555 1_555
C2 C3 1_555 1_555
C3 C4 1_555 1_555
C4 N1 1_555 1_555
C5 C2 1_555 1_555
C6 N2 1_555 1_555
C7 N2 1_555 1_555
C8 C7 1_555 1_555
C9 C8 1_555 1_555
C10 C9 1_555 1_555
C11 C10 1_555 1_555
C12 C11 1_555 1_555
C13 C8 1_555 1_555
C14 N1 1_555 1_555
C15 C14 1_555 1_555
C16 C15 1_555 1_555
C17 C16 1_555 1_555
C18 C17 1_555 1_555
C19 C14 1_555 1_555
C20 C5 1_555 1_555
C21 C20 1_555 1_555
C22 C21 1_555 1_555
C23 C22 1_555 1_555
C24 C25 1_555 1_555
C25 C26 1_555 1_555
C26 C27 1_555 1_555
C27 C6 1_555 1_555
C28 C20 1_555 1_555
C29 C23 1_555 1_555
H1 C2 1_555 1_555
H2 C3 1_555 1_555
H3 C5 1_555 1_555
H4 C6 1_555 1_555
H5 C7 1_555 1_555
H6 C7 1_555 1_555
H7 C9 1_555 1_555
H8 C10 1_555 1_555
H9 C11 1_555 1_555
H10 C12 1_555 1_555
H11 C13 1_555 1_555
H12 C15 1_555 1_555
H13 C16 1_555 1_555
H14 C17 1_555 1_555
H15 C18 1_555 1_555
H16 C19 1_555 1_555
H17 C21 1_555 1_555
H18 C22 1_555 1_555
H19 C23 1_555 1_555
H20 C24 1_555 1_555
H21 C25 1_555 1_555
H22 C26 1_555 1_555
C3 C6 1_555 1_555
C12 C13 1_555 1_555
C18 C19 1_555 1_555
C24 C29 1_555 1_555
C27 C28 1_555 1_555
C28 C29 1_555 1_555

#END
