
#######################################################################
#
#                 Cambridge Crystallographic Data Centre
#                                CCDC 
#
#######################################################################
#
# If this CIF has been generated from an entry in the Cambridge 
# Structural Database, then it will include bibliographic, chemical, 
# crystal, experimental, refinement or atomic coordinate data resulting 
# from the CCDC's data processing and validation procedures.
#
#######################################################################

data_LIDCUX
_chemical_formula_moiety         'C28 H20 N6 S2'
_chemical_name_systematic        
1,5,1',5'-Tetraphenyl-1H,1H'-3,3'-dithio-bi-1,2,4-triazole
_symmetry_cell_setting           monoclinic
_symmetry_space_group_name_H-M   'P 21/c'
_symmetry_Int_Tables_number      14
_space_group_name_Hall           '-P 2ybc'
loop_
_symmetry_equiv_pos_site_id
_symmetry_equiv_pos_as_xyz
1 x,y,z
2 -x,1/2+y,1/2-z
3 -x,-y,-z
4 x,1/2-y,1/2+z
_cell_length_a                   11.3931(10)
_cell_length_b                   16.5787(14)
_cell_length_c                   26.470(2)
_cell_angle_alpha                90
_cell_angle_beta                 98.274(2)
_cell_angle_gamma                90
_cell_volume                     4947.69
_exptl_crystal_colour            colorless
_exptl_crystal_description       polyhedron
_chemical_melting_point          169-170deg.C
_cell_formula_units_Z            8
_exptl_crystal_recrystallization_method ethanol
loop_
_atom_site_label
_atom_site_type_symbol
_atom_site_fract_x
_atom_site_fract_y
_atom_site_fract_z
S1 S 0.62393(6) 0.25894(5) 0.22688(3)
S2 S 0.50756(6) 0.23786(4) 0.27643(3)
N1 N 0.46521(19) 0.16868(14) 0.16110(8)
N2 N 0.4513(2) 0.15831(14) 0.10913(9)
N3 N 0.5945(2) 0.24706(13) 0.12554(9)
N4 N 0.3932(2) 0.37169(14) 0.23252(9)
N5 N 0.3277(2) 0.43142(14) 0.25115(9)
N6 N 0.38836(19) 0.35451(14) 0.31765(8)
C1 C 0.5523(2) 0.22243(16) 0.16781(10)
C2 C 0.5290(2) 0.20464(15) 0.08855(10)
C3 C 0.3738(2) 0.09635(17) 0.08554(10)
C4 C 0.4218(3) 0.03165(18) 0.06254(11)
H1 H 0.5047 0.0291 0.0614
C5 C 0.3478(3) -0.0293(2) 0.04117(13)
H2 H 0.3797 -0.0734 0.0247
C6 C 0.2280(3) -0.0261(2) 0.04372(12)
H3 H 0.1779 -0.0687 0.0296
C7 C 0.1805(3) 0.0381(2) 0.06652(12)
H4 H 0.0977 0.0400 0.0679
C8 C 0.2534(2) 0.10049(19) 0.08766(11)
H5 H 0.2209 0.1452 0.1033
C9 C 0.5380(2) 0.21527(16) 0.03443(10)
C10 C 0.6475(3) 0.23508(18) 0.02046(11)
H6 H 0.7153 0.2399 0.0458
C11 C 0.6573(3) 0.24783(19) -0.03051(12)
H7 H 0.7324 0.2606 -0.0401
C12 C 0.5589(3) 0.24220(19) -0.06748(13)
H8 H 0.5661 0.2514 -0.1023
C13 C 0.4507(3) 0.2232(2) -0.05370(12)
H9 H 0.3830 0.2196 -0.0791
C14 C 0.4392(2) 0.20926(19) -0.00294(11)
H10 H 0.3641 0.1956 0.0062
C15 C 0.4259(2) 0.32827(16) 0.27455(10)
C16 C 0.3254(2) 0.42031(15) 0.30157(9)
C17 C 0.2652(2) 0.49063(17) 0.21688(11)
C18 C 0.3280(3) 0.54033(19) 0.18874(12)
H11 H 0.4118 0.5358 0.1916
C19 C 0.2684(4) 0.5966(2) 0.15651(13)
H12 H 0.3112 0.6304 0.1366
C20 C 0.1477(4) 0.6041(2) 0.15293(14)
H13 H 0.1071 0.6436 0.1310
C21 C 0.0851(4) 0.5542(3) 0.18121(14)
H14 H 0.0016 0.5600 0.1790
C22 C 0.1436(3) 0.4955(2) 0.21291(12)
H15 H 0.1006 0.4596 0.2314
C23 C 0.2696(2) 0.47148(16) 0.33616(10)
C24 C 0.2548(3) 0.55422(17) 0.32892(12)
H16 H 0.2808 0.5797 0.3004
C25 C 0.2021(3) 0.59911(19) 0.36358(12)
H17 H 0.1914 0.6555 0.3586
C26 C 0.1651(3) 0.5625(2) 0.40532(13)
H18 H 0.1288 0.5938 0.4288
C27 C 0.1804(3) 0.4806(2) 0.41317(12)
H19 H 0.1557 0.4556 0.4422
C28 C 0.2324(2) 0.43494(18) 0.37827(11)
H20 H 0.2424 0.3785 0.3833
S3 S 1.12272(6) 0.23999(4) 0.47573(3)
S4 S 1.00836(6) 0.26261(4) 0.52599(3)
N7 N 0.96053(19) 0.32828(14) 0.41039(8)
N8 N 0.94485(19) 0.33864(14) 0.35841(8)
N9 N 1.09004(19) 0.25113(12) 0.37410(8)
N10 N 0.88948(18) 0.14893(13) 0.56865(8)
N11 N 0.8299(2) 0.07948(14) 0.55337(9)
N12 N 0.90242(18) 0.12245(14) 0.48534(8)
C29 C 1.0485(2) 0.27530(16) 0.41690(10)
C30 C 1.0230(2) 0.29246(15) 0.33714(10)
C31 C 0.8657(2) 0.40064(17) 0.33534(10)
C32 C 0.9124(3) 0.46561(18) 0.31238(11)
H21 H 0.9954 0.4693 0.3118
C33 C 0.8374(3) 0.5250(2) 0.29037(13)
H22 H 0.8683 0.5690 0.2734
C34 C 0.7175(3) 0.5207(2) 0.29295(12)
H23 H 0.6664 0.5625 0.2784
C35 C 0.6711(3) 0.4565(2) 0.31629(12)
H24 H 0.5885 0.4543 0.3180
C36 C 0.7450(2) 0.39487(19) 0.33739(11)
H25 H 0.7135 0.3497 0.3529
C37 C 1.0333(2) 0.28368(15) 0.28301(10)
C38 C 1.1403(3) 0.25487(16) 0.26991(11)
H26 H 1.2042 0.2426 0.2960
C39 C 1.1536(3) 0.24416(17) 0.21924(12)
H27 H 1.2265 0.2246 0.2106
C40 C 1.0607(3) 0.26191(18) 0.18118(12)
H28 H 1.0699 0.2545 0.1464
C41 C 0.9552(3) 0.29030(19) 0.19366(11)
H29 H 0.8917 0.3025 0.1674
C42 C 0.9406(2) 0.30123(18) 0.24416(11)
H30 H 0.8673 0.3207 0.2524
C43 C 0.9300(2) 0.17114(15) 0.52577(10)
C44 C 0.8379(2) 0.06472(15) 0.50412(9)
C45 C 0.7725(2) 0.03209(16) 0.58926(10)
C46 C 0.7870(3) -0.05079(17) 0.59172(11)
H31 H 0.8364 -0.0773 0.5709
C47 C 0.7283(3) -0.09443(18) 0.62501(12)
H32 H 0.7350 -0.1515 0.6260
C48 C 0.6604(3) -0.05604(19) 0.65660(12)
H33 H 0.6212 -0.0865 0.6796
C49 C 0.6491(3) 0.02693(19) 0.65497(13)
H34 H 0.6028 0.0536 0.6770
C50 C 0.7056(2) 0.07099(17) 0.62115(11)
H35 H 0.6981 0.1281 0.6199
C51 C 0.7823(2) -0.00024(17) 0.47226(10)
C52 C 0.8454(3) -0.03895(17) 0.43870(11)
H36 H 0.9255 -0.0243 0.4372
C53 C 0.7923(3) -0.09906(18) 0.40721(12)
H37 H 0.8365 -0.1256 0.3843
C54 C 0.6765(3) -0.1210(2) 0.40856(13)
H38 H 0.6402 -0.1617 0.3864
C55 C 0.6137(3) -0.0834(2) 0.44225(14)
H39 H 0.5343 -0.0993 0.4439
C56 C 0.6652(3) -0.0222(2) 0.47403(12)
H40 H 0.6206 0.0043 0.4968
loop_
_geom_bond_atom_site_label_1
_geom_bond_atom_site_label_2
_geom_bond_site_symmetry_1
_geom_bond_site_symmetry_2
S1 S2 1_555 1_555
S2 C15 1_555 1_555
S3 S4 1_555 1_555
S4 C43 1_555 1_555
N1 N2 1_555 1_555
N2 C2 1_555 1_555
N3 C1 1_555 1_555
N4 N5 1_555 1_555
N5 C16 1_555 1_555
N6 C15 1_555 1_555
N7 N8 1_555 1_555
N8 C30 1_555 1_555
N9 C29 1_555 1_555
N10 N11 1_555 1_555
N11 C44 1_555 1_555
N12 C43 1_555 1_555
C1 S1 1_555 1_555
C2 N3 1_555 1_555
C3 N2 1_555 1_555
C4 C3 1_555 1_555
H1 C4 1_555 1_555
C5 C4 1_555 1_555
H2 C5 1_555 1_555
C6 C5 1_555 1_555
H3 C6 1_555 1_555
C7 C6 1_555 1_555
H4 C7 1_555 1_555
C8 C3 1_555 1_555
H5 C8 1_555 1_555
C9 C2 1_555 1_555
C10 C9 1_555 1_555
H6 C10 1_555 1_555
C11 C10 1_555 1_555
H7 C11 1_555 1_555
C12 C11 1_555 1_555
H8 C12 1_555 1_555
C13 C12 1_555 1_555
H9 C13 1_555 1_555
C14 C9 1_555 1_555
H10 C14 1_555 1_555
C15 N4 1_555 1_555
C16 N6 1_555 1_555
C17 N5 1_555 1_555
C18 C17 1_555 1_555
H11 C18 1_555 1_555
C19 C18 1_555 1_555
H12 C19 1_555 1_555
C20 C19 1_555 1_555
H13 C20 1_555 1_555
C21 C20 1_555 1_555
H14 C21 1_555 1_555
C22 C17 1_555 1_555
H15 C22 1_555 1_555
C23 C16 1_555 1_555
C24 C23 1_555 1_555
H16 C24 1_555 1_555
C25 C24 1_555 1_555
H17 C25 1_555 1_555
C26 C25 1_555 1_555
H18 C26 1_555 1_555
C27 C26 1_555 1_555
H19 C27 1_555 1_555
C28 C23 1_555 1_555
H20 C28 1_555 1_555
C29 S3 1_555 1_555
C30 N9 1_555 1_555
C31 N8 1_555 1_555
C32 C31 1_555 1_555
H21 C32 1_555 1_555
C33 C32 1_555 1_555
H22 C33 1_555 1_555
C34 C33 1_555 1_555
H23 C34 1_555 1_555
C35 C34 1_555 1_555
H24 C35 1_555 1_555
C36 C31 1_555 1_555
H25 C36 1_555 1_555
C37 C30 1_555 1_555
C38 C37 1_555 1_555
H26 C38 1_555 1_555
C39 C38 1_555 1_555
H27 C39 1_555 1_555
C40 C39 1_555 1_555
H28 C40 1_555 1_555
C41 C40 1_555 1_555
H29 C41 1_555 1_555
C42 C37 1_555 1_555
H30 C42 1_555 1_555
C43 N10 1_555 1_555
C44 N12 1_555 1_555
C45 N11 1_555 1_555
C46 C45 1_555 1_555
H31 C46 1_555 1_555
C47 C46 1_555 1_555
H32 C47 1_555 1_555
C48 C47 1_555 1_555
H33 C48 1_555 1_555
C49 C48 1_555 1_555
H34 C49 1_555 1_555
C50 C45 1_555 1_555
H35 C50 1_555 1_555
C51 C44 1_555 1_555
C52 C51 1_555 1_555
H36 C52 1_555 1_555
C53 C52 1_555 1_555
H37 C53 1_555 1_555
C54 C53 1_555 1_555
H38 C54 1_555 1_555
C55 C54 1_555 1_555
H39 C55 1_555 1_555
C56 C51 1_555 1_555
H40 C56 1_555 1_555
N1 C1 1_555 1_555
N7 C29 1_555 1_555
C7 C8 1_555 1_555
C13 C14 1_555 1_555
C21 C22 1_555 1_555
C27 C28 1_555 1_555
C35 C36 1_555 1_555
C41 C42 1_555 1_555
C49 C50 1_555 1_555
C55 C56 1_555 1_555

#END
