
#######################################################################
#
#                 Cambridge Crystallographic Data Centre
#                                CCDC 
#
#######################################################################
#
# If this CIF has been generated from an entry in the Cambridge 
# Structural Database, then it will include bibliographic, chemical, 
# crystal, experimental, refinement or atomic coordinate data resulting 
# from the CCDC's data processing and validation procedures.
#
#######################################################################

data_LIDGEM
_chemical_formula_moiety         'C19 H20 Br1 N3 O4 S1'
_chemical_name_systematic        
N-(4-Bromophenyl)-1-(2-((methylsulfonyl)amino)benzoyl)prolinamide
_symmetry_cell_setting           monoclinic
_symmetry_space_group_name_H-M   'P 21'
_symmetry_Int_Tables_number      4
_space_group_name_Hall           'P 2yb'
loop_
_symmetry_equiv_pos_site_id
_symmetry_equiv_pos_as_xyz
1 x,y,z
2 -x,1/2+y,-z
_cell_length_a                   11.7287(18)
_cell_length_b                   6.9721(11)
_cell_length_c                   13.389(2)
_cell_angle_alpha                90
_cell_angle_beta                 113.463(2)
_cell_angle_gamma                90
_cell_volume                     1004.34
_exptl_crystal_colour            colorless
_exptl_crystal_description       plate
_cell_formula_units_Z            2
loop_
_atom_site_label
_atom_site_type_symbol
_atom_site_fract_x
_atom_site_fract_y
_atom_site_fract_z
Br1 Br 0.38727(3) 0.36812(7) -0.53896(3)
S1 S 1.08071(7) 0.71671(16) 0.19036(8)
O1 O 0.61050(19) 0.6917(4) 0.14650(19)
O2 O 0.73340(19) 0.7425(4) -0.01512(18)
O3 O 1.1615(2) 0.7926(5) 0.2921(2)
O4 O 1.0567(2) 0.8229(5) 0.0939(2)
N1 N 0.7265(2) 0.9504(4) 0.1536(2)
N2 N 0.9458(2) 0.6782(4) 0.1949(2)
H1 H 0.8822 0.6775 0.1339
N3 N 0.5470(2) 0.8579(5) -0.13146(19)
H2 H 0.4945 0.9482 -0.1381
C1 C 0.6442(3) 1.0102(5) 0.0439(2)
H3 H 0.5593 1.0299 0.0389
C2 C 0.7011(3) 1.2004(5) 0.0276(3)
H4 H 0.6967 1.2101 -0.0461
H5 H 0.6578 1.3089 0.0416
C3 C 0.8334(4) 1.1946(7) 0.1082(4)
H6 H 0.8658 1.3232 0.1286
H7 H 0.8852 1.1275 0.0783
C4 C 0.8296(3) 1.0878(5) 0.2051(3)
H8 H 0.9073 1.0216 0.2449
H9 H 0.8121 1.1739 0.2542
C5 C 0.7074(3) 0.7833(5) 0.1929(2)
C6 C 0.8092(3) 0.7002(5) 0.2915(2)
C7 C 0.7840(3) 0.6622(5) 0.3824(3)
H10 H 0.7073 0.6967 0.3823
C8 C 0.8710(4) 0.5737(6) 0.4731(3)
H11 H 0.8537 0.5494 0.5340
C9 C 0.9838(4) 0.5222(6) 0.4718(3)
H12 H 1.0435 0.4640 0.5327
C10 C 1.0091(3) 0.5554(5) 0.3823(3)
H13 H 1.0852 0.5170 0.3827
C11 C 0.9233(3) 0.6456(5) 0.2904(2)
C12 C 0.6471(2) 0.8550(6) -0.0358(2)
C13 C 0.5157(3) 0.7352(5) -0.2220(2)
C14 C 0.5916(3) 0.5901(6) -0.2321(3)
H14 H 0.6689 0.5677 -0.1763
C15 C 0.5515(3) 0.4787(6) -0.3255(3)
H15 H 0.6017 0.3808 -0.3325
C16 C 0.4370(3) 0.5136(6) -0.4081(3)
C17 C 0.3612(3) 0.6556(6) -0.3997(3)
H16 H 0.2845 0.6786 -0.4562
C18 C 0.4004(3) 0.7642(5) -0.3061(3)
H17 H 0.3484 0.8592 -0.2991
C19 C 1.1354(4) 0.4887(8) 0.1746(4)
H18 H 1.2177 0.5001 0.1762
H19 H 1.0811 0.4348 0.1062
H20 H 1.1372 0.4066 0.2328
loop_
_geom_bond_atom_site_label_1
_geom_bond_atom_site_label_2
_geom_bond_site_symmetry_1
_geom_bond_site_symmetry_2
Br1 C16 1_555 1_555
S1 O3 1_555 1_555
O1 C5 1_555 1_555
O2 C12 1_555 1_555
O4 S1 1_555 1_555
N1 C1 1_555 1_555
N2 S1 1_555 1_555
H1 N2 1_555 1_555
N3 H2 1_555 1_555
C1 H3 1_555 1_555
C2 C1 1_555 1_555
H4 C2 1_555 1_555
H5 C2 1_555 1_555
C3 C2 1_555 1_555
H6 C3 1_555 1_555
H7 C3 1_555 1_555
C4 N1 1_555 1_555
H8 C4 1_555 1_555
H9 C4 1_555 1_555
C5 N1 1_555 1_555
C6 C5 1_555 1_555
C7 C6 1_555 1_555
H10 C7 1_555 1_555
C8 C7 1_555 1_555
H11 C8 1_555 1_555
C9 C8 1_555 1_555
H12 C9 1_555 1_555
C10 C9 1_555 1_555
H13 C10 1_555 1_555
C11 N2 1_555 1_555
C12 N3 1_555 1_555
C13 N3 1_555 1_555
C14 C13 1_555 1_555
H14 C14 1_555 1_555
C15 C14 1_555 1_555
H15 C15 1_555 1_555
C16 C15 1_555 1_555
C17 C16 1_555 1_555
H16 C17 1_555 1_555
C18 C13 1_555 1_555
H17 C18 1_555 1_555
C19 S1 1_555 1_555
H18 C19 1_555 1_555
H19 C19 1_555 1_555
H20 C19 1_555 1_555
C1 C12 1_555 1_555
C3 C4 1_555 1_555
C6 C11 1_555 1_555
C10 C11 1_555 1_555
C17 C18 1_555 1_555

#END
