
#######################################################################
#
#                 Cambridge Crystallographic Data Centre
#                                CCDC 
#
#######################################################################
#
# If this CIF has been generated from an entry in the Cambridge 
# Structural Database, then it will include bibliographic, chemical, 
# crystal, experimental, refinement or atomic coordinate data resulting 
# from the CCDC's data processing and validation procedures.
#
#######################################################################

data_LIDKOZ
_chemical_formula_moiety         'C38 H36 N2 O4 2+,2(Cl1 O4 1-)'
_chemical_name_systematic        
'r-4-(c-2,t-4-bis(3,4-dimethoxyphenyl)-t-3-(4-quinoliniumyl)cyclobutyl)quiolinium diperchlorate'
_symmetry_cell_setting           triclinic
_symmetry_space_group_name_H-M   'P -1'
_symmetry_Int_Tables_number      2
_space_group_name_Hall           '-P 1'
loop_
_symmetry_equiv_pos_site_id
_symmetry_equiv_pos_as_xyz
1 x,y,z
2 -x,-y,-z
_cell_length_a                   11.4976(5)
_cell_length_b                   12.2916(6)
_cell_length_c                   13.5348(6)
_cell_angle_alpha                93.589(2)
_cell_angle_beta                 110.545(2)
_cell_angle_gamma                92.542(2)
_cell_volume                     1783.11
_exptl_crystal_colour            yellowish
_exptl_crystal_description       plate
_cell_formula_units_Z            2
_exptl_crystal_recrystallization_method acetonitrile/benzene
loop_
_atom_site_label
_atom_site_type_symbol
_atom_site_fract_x
_atom_site_fract_y
_atom_site_fract_z
Cl1 Cl 0.15146(7) 0.10398(5) 0.21744(5)
O1 O 0.1888(2) 0.02710(17) 0.29746(17)
O2 O 0.2590(2) 0.14887(17) 0.19990(18)
O3 O 0.0923(2) 0.19152(17) 0.25488(18)
O4 O 0.0643(2) 0.05006(18) 0.12172(17)
Cl2 Cl 0.81529(8) 0.43340(6) 0.29651(6)
O5 O 0.8463(2) 0.50542(17) 0.22970(18)
O6 O 0.7378(3) 0.3435(2) 0.2314(2)
O7 O 0.7504(2) 0.49104(19) 0.35496(18)
O8 O 0.9248(4) 0.3956(3) 0.3676(3)
N1 N 0.2193(3) 0.6725(2) -0.0278(2)
N2 N -0.2260(3) 0.8339(2) 0.49046(19)
O9 O -0.56740(19) 0.82493(16) -0.04446(15)
O10 O -0.49756(19) 0.69996(16) 0.11075(15)
O11 O 0.57981(18) 0.71854(16) 0.53698(15)
O12 O 0.50226(19) 0.84387(16) 0.38130(16)
C1 C 0.1639(3) 0.7636(2) -0.0230(2)
C2 C 0.0953(3) 0.7779(2) 0.0423(2)
C3 C 0.0796(3) 0.6947(2) 0.1018(2)
C4 C 0.1361(3) 0.5949(2) 0.0928(2)
C5 C 0.1190(3) 0.5016(2) 0.1447(2)
C6 C 0.1741(3) 0.4079(2) 0.1321(2)
C7 C 0.2506(3) 0.4021(3) 0.0701(2)
C8 C 0.2677(3) 0.4898(2) 0.0181(2)
C9 C 0.2088(3) 0.5851(2) 0.0279(2)
C10 C 0.0028(3) 0.7046(2) 0.1704(2)
C11 C -0.0500(3) 0.8148(2) 0.1872(2)
C12 C -0.1871(3) 0.8221(2) 0.1315(2)
C13 C -0.2278(3) 0.8904(2) 0.0501(2)
C14 C -0.3525(3) 0.8922(2) -0.0104(2)
C15 C -0.4422(3) 0.8283(2) 0.0109(2)
C16 C -0.4028(3) 0.7597(2) 0.0947(2)
C17 C -0.2778(3) 0.7562(2) 0.1526(2)
C18 C -0.6040(3) 0.8790(3) -0.1406(3)
C19 C -0.4618(3) 0.6359(3) 0.2002(3)
C20 C -0.1750(3) 0.7407(2) 0.4838(2)
C21 C -0.0951(3) 0.7303(2) 0.4284(2)
C22 C -0.0687(2) 0.8163(2) 0.3769(2)
C23 C -0.1196(3) 0.9186(2) 0.3891(2)
C24 C -0.0904(3) 1.0148(2) 0.3478(2)
C25 C -0.1390(3) 1.1106(2) 0.3647(2)
C26 C -0.2201(3) 1.1158(3) 0.4216(2)
C27 C -0.2516(3) 1.0245(3) 0.4627(2)
C28 C -0.1998(3) 0.9264(2) 0.4477(2)
C29 C 0.0102(3) 0.8079(2) 0.3108(2)
C30 C 0.0646(3) 0.6976(2) 0.2943(2)
C31 C 0.2013(3) 0.6951(2) 0.3506(2)
C32 C 0.2454(3) 0.6270(2) 0.4312(2)
C33 C 0.3711(3) 0.6330(2) 0.4952(2)
C34 C 0.4552(3) 0.7062(2) 0.4779(2)
C35 C 0.4123(3) 0.7742(2) 0.3942(2)
C36 C 0.2878(3) 0.7690(2) 0.3328(2)
C37 C 0.6225(3) 0.6531(3) 0.6250(2)
C38 C 0.4626(3) 0.9070(3) 0.2909(3)
H1 H 0.266(3) 0.665(3) -0.066(3)
H2 H -0.279(3) 0.838(3) 0.518(3)
H3 H 0.175(3) 0.817(2) -0.070(2)
H4 H 0.057(3) 0.840(3) 0.044(2)
H5 H 0.066(3) 0.501(2) 0.187(2)
H6 H 0.154(3) 0.349(3) 0.156(3)
H7 H 0.286(3) 0.340(3) 0.065(3)
H8 H 0.323(3) 0.487(2) -0.022(2)
H9 H -0.061(3) 0.647(2) 0.144(2)
H10 H -0.008(3) 0.873(3) 0.171(2)
H11 H -0.167(3) 0.937(2) 0.035(2)
H12 H -0.371(3) 0.935(3) -0.061(3)
H13 H -0.249(2) 0.708(2) 0.208(2)
H14 H -0.583(3) 0.962(2) -0.125(2)
H15 H -0.567(3) 0.849(2) -0.194(2)
H16 H -0.688(3) 0.866(3) -0.172(3)
H17 H -0.540(3) 0.604(3) 0.202(2)
H18 H -0.409(3) 0.571(3) 0.183(2)
H19 H -0.420(3) 0.677(3) 0.257(3)
H20 H -0.196(3) 0.683(3) 0.513(3)
H21 H -0.059(3) 0.666(3) 0.427(2)
H22 H -0.039(3) 1.010(2) 0.309(2)
H23 H -0.116(2) 1.173(2) 0.3439(19)
H24 H -0.257(3) 1.179(3) 0.430(3)
H25 H -0.306(3) 1.029(3) 0.502(3)
H26 H 0.078(3) 0.864(2) 0.341(2)
H27 H 0.018(3) 0.635(2) 0.311(2)
H28 H 0.188(3) 0.579(2) 0.447(2)
H29 H 0.400(3) 0.589(3) 0.548(3)
H30 H 0.257(3) 0.814(2) 0.283(2)
H31 H 0.611(3) 0.574(3) 0.601(2)
H32 H 0.584(3) 0.668(2) 0.677(2)
H33 H 0.715(3) 0.669(3) 0.659(3)
H34 H 0.428(3) 0.858(3) 0.230(3)
H35 H 0.537(3) 0.938(3) 0.288(3)
H36 H 0.404(3) 0.963(3) 0.306(3)
loop_
_geom_bond_atom_site_label_1
_geom_bond_atom_site_label_2
_geom_bond_site_symmetry_1
_geom_bond_site_symmetry_2
Cl1 O1 1_555 1_555
O2 Cl1 1_555 1_555
O3 Cl1 1_555 1_555
O4 Cl1 1_555 1_555
Cl2 O5 1_555 1_555
O6 Cl2 1_555 1_555
O7 Cl2 1_555 1_555
O8 Cl2 1_555 1_555
N1 C1 1_555 1_555
N2 C20 1_555 1_555
O9 C15 1_555 1_555
O10 C16 1_555 1_555
O11 C34 1_555 1_555
O12 C35 1_555 1_555
C1 C2 1_555 1_555
C2 C3 1_555 1_555
C3 C4 1_555 1_555
C4 C5 1_555 1_555
C5 C6 1_555 1_555
C6 C7 1_555 1_555
C7 C8 1_555 1_555
C8 C9 1_555 1_555
C9 N1 1_555 1_555
C10 C3 1_555 1_555
C11 C10 1_555 1_555
C12 C11 1_555 1_555
C13 C12 1_555 1_555
C14 C13 1_555 1_555
C15 C14 1_555 1_555
C16 C15 1_555 1_555
C17 C12 1_555 1_555
C18 O9 1_555 1_555
C19 O10 1_555 1_555
C20 C21 1_555 1_555
C21 C22 1_555 1_555
C22 C23 1_555 1_555
C23 C24 1_555 1_555
C24 C25 1_555 1_555
C25 C26 1_555 1_555
C26 C27 1_555 1_555
C27 C28 1_555 1_555
C28 N2 1_555 1_555
C29 C11 1_555 1_555
C30 C10 1_555 1_555
C31 C30 1_555 1_555
C32 C31 1_555 1_555
C33 C32 1_555 1_555
C34 C33 1_555 1_555
C35 C34 1_555 1_555
C36 C31 1_555 1_555
C37 O11 1_555 1_555
C38 O12 1_555 1_555
H1 N1 1_555 1_555
H2 N2 1_555 1_555
H3 C1 1_555 1_555
H4 C2 1_555 1_555
H5 C5 1_555 1_555
H6 C6 1_555 1_555
H7 C7 1_555 1_555
H8 C8 1_555 1_555
H9 C10 1_555 1_555
H10 C11 1_555 1_555
H11 C13 1_555 1_555
H12 C14 1_555 1_555
H13 C17 1_555 1_555
H14 C18 1_555 1_555
H15 C18 1_555 1_555
H16 C18 1_555 1_555
H17 C19 1_555 1_555
H18 C19 1_555 1_555
H19 C19 1_555 1_555
H20 C20 1_555 1_555
H21 C21 1_555 1_555
H22 C24 1_555 1_555
H23 C25 1_555 1_555
H24 C26 1_555 1_555
H25 C27 1_555 1_555
H26 C29 1_555 1_555
H27 C30 1_555 1_555
H28 C32 1_555 1_555
H29 C33 1_555 1_555
H30 C36 1_555 1_555
H31 C37 1_555 1_555
H32 C37 1_555 1_555
H33 C37 1_555 1_555
H34 C38 1_555 1_555
H35 C38 1_555 1_555
H36 C38 1_555 1_555
C4 C9 1_555 1_555
C16 C17 1_555 1_555
C22 C29 1_555 1_555
C23 C28 1_555 1_555
C29 C30 1_555 1_555
C35 C36 1_555 1_555

#END
