
#######################################################################
#
#                 Cambridge Crystallographic Data Centre
#                                CCDC 
#
#######################################################################
#
# If this CIF has been generated from an entry in the Cambridge 
# Structural Database, then it will include bibliographic, chemical, 
# crystal, experimental, refinement or atomic coordinate data resulting 
# from the CCDC's data processing and validation procedures.
#
#######################################################################

data_LIDPAR
_chemical_formula_moiety         'C33 H27 N2 O2 1+,F6 P1 1-,C2 H3 N1'
_chemical_name_systematic        
'4-(2-(4-(Diphenylamino)phenyl)vinyl)-1-(4-(methoxycarbonyl)phenyl)pyridinium hexafluorophosphate acetonitrile solvate'
_symmetry_cell_setting           triclinic
_symmetry_space_group_name_H-M   'P -1'
_symmetry_Int_Tables_number      2
_space_group_name_Hall           '-P 1'
loop_
_symmetry_equiv_pos_site_id
_symmetry_equiv_pos_as_xyz
1 x,y,z
2 -x,-y,-z
_cell_length_a                   9.832(7)
_cell_length_b                   10.682(7)
_cell_length_c                   29.87(2)
_cell_angle_alpha                81.414(13)
_cell_angle_beta                 86.504(13)
_cell_angle_gamma                76.879(12)
_cell_volume                     3019.77
_exptl_crystal_colour            red
_exptl_crystal_description       plate
_cell_formula_units_Z            4
loop_
_atom_site_label
_atom_site_type_symbol
_atom_site_fract_x
_atom_site_fract_y
_atom_site_fract_z
O1 O 0.3053(5) 0.9716(5) -0.01030(16)
O2 O 0.1090(5) 0.9579(5) -0.04013(16)
N1 N -0.0582(6) -0.2495(6) 0.3820(2)
N2 N 0.1397(6) 0.5198(6) 0.13132(19)
C1 C -0.1975(8) -0.2529(8) 0.3993(2)
C2 C -0.2923(8) -0.1376(8) 0.4047(2)
H1 H -0.2662 -0.0565 0.3972
C3 C -0.4263(8) -0.1438(8) 0.4212(3)
H2 H -0.4913 -0.0663 0.4263
C4 C -0.4654(8) -0.2600(8) 0.4302(3)
H3 H -0.5586 -0.2630 0.4399
C5 C -0.3688(9) -0.3725(8) 0.4250(2)
H4 H -0.3946 -0.4538 0.4322
C6 C -0.2360(8) -0.3683(8) 0.4095(2)
H5 H -0.1703 -0.4466 0.4059
C7 C 0.0550(8) -0.3305(7) 0.4065(3)
C8 C 0.0489(8) -0.3533(7) 0.4527(3)
H6 H -0.0323 -0.3141 0.4687
C9 C 0.1583(8) -0.4317(7) 0.4761(3)
H7 H 0.1496 -0.4537 0.5080
C10 C 0.2794(8) -0.4787(8) 0.4541(3)
H8 H 0.3577 -0.5282 0.4707
C11 C 0.2887(8) -0.4543(7) 0.4074(3)
H9 H 0.3723 -0.4885 0.3915
C12 C 0.1754(8) -0.3801(7) 0.3844(3)
H10 H 0.1810 -0.3629 0.3523
C13 C -0.0400(8) -0.1543(7) 0.3447(3)
C14 C 0.0739(8) -0.0985(7) 0.3421(2)
H11 H 0.1441 -0.1271 0.3642
C15 C 0.0854(8) -0.0011(7) 0.3075(3)
H12 H 0.1632 0.0384 0.3063
C16 C -0.0132(8) 0.0414(7) 0.2740(3)
C17 C -0.1249(8) -0.0192(8) 0.2767(2)
H13 H -0.1940 0.0071 0.2542
C18 C -0.1365(8) -0.1162(7) 0.3112(2)
H14 H -0.2124 -0.1579 0.3120
C19 C -0.0046(8) 0.1496(7) 0.2390(2)
H15 H -0.0845 0.1852 0.2211
C20 C 0.1067(8) 0.2037(7) 0.2297(2)
H16 H 0.1873 0.1663 0.2471
C21 C 0.1150(8) 0.3142(7) 0.1955(2)
C22 C 0.2426(7) 0.3382(7) 0.1813(3)
H17 H 0.3245 0.2835 0.1946
C23 C 0.2551(8) 0.4370(7) 0.1490(2)
H18 H 0.3452 0.4489 0.1386
C24 C 0.0143(8) 0.5013(8) 0.1459(2)
H19 H -0.0663 0.5607 0.1337
C25 C -0.0027(7) 0.4005(7) 0.1777(2)
H20 H -0.0935 0.3895 0.1875
C26 C 0.1559(8) 0.6257(7) 0.0959(3)
C27 C 0.2636(7) 0.6841(7) 0.0960(2)
H21 H 0.3284 0.6585 0.1198
C28 C 0.2793(7) 0.7824(7) 0.0611(2)
H22 H 0.3554 0.8238 0.0606
C29 C 0.1827(8) 0.8190(7) 0.0271(2)
C30 C 0.0755(8) 0.7570(8) 0.0283(2)
H23 H 0.0091 0.7831 0.0051
C31 C 0.0598(7) 0.6586(7) 0.0618(2)
H24 H -0.0141 0.6148 0.0617
C32 C 0.1941(9) 0.9222(8) -0.0113(3)
C33 C 0.3203(8) 1.0723(7) -0.0474(2)
H25 H 0.2399 1.1458 -0.0470
H26 H 0.3248 1.0378 -0.0762
H27 H 0.4063 1.1014 -0.0440
O3 O 0.3989(6) 1.4041(5) -0.01575(17)
O4 O 0.1713(6) 1.4820(5) -0.02363(17)
N3 N -0.0531(8) 0.2542(7) 0.3858(2)
N4 N 0.1732(7) 1.0112(6) 0.1351(2)
C34 C -0.1937(9) 0.2371(7) 0.3931(3)
C35 C -0.2608(10) 0.2067(7) 0.3582(3)
H28 H -0.2137 0.1937 0.3300
C36 C -0.3982(9) 0.1956(8) 0.3654(3)
H29 H -0.4457 0.1756 0.3415
C37 C -0.4650(9) 0.2121(8) 0.4045(3)
H30 H -0.5593 0.2038 0.4086
C38 C -0.3974(10) 0.2415(8) 0.4394(3)
H31 H -0.4453 0.2539 0.4675
C39 C -0.2615(10) 0.2525(7) 0.4335(3)
H32 H -0.2144 0.2710 0.4577
C40 C 0.0437(9) 0.1900(9) 0.4191(3)
C41 C 0.0559(8) 0.0600(9) 0.4332(3)
H33 H -0.0006 0.0145 0.4201
C42 C 0.1490(9) -0.0063(9) 0.4661(3)
H34 H 0.1558 -0.0961 0.4763
C43 C 0.2306(8) 0.0612(9) 0.4835(3)
H35 H 0.2967 0.0162 0.5055
C44 C 0.2212(8) 0.1897(9) 0.4706(3)
H36 H 0.2783 0.2343 0.4838
C45 C 0.1265(9) 0.2556(9) 0.4376(3)
H37 H 0.1191 0.3457 0.4280
C46 C 0.0047(10) 0.3313(11) 0.3486(4)
C47 C 0.1455(9) 0.3165(10) 0.3363(4)
H38 H 0.2123 0.2460 0.3509
C48 C 0.1885(8) 0.4047(10) 0.3025(3)
H39 H 0.2847 0.3946 0.2940
C49 C 0.0907(10) 0.5078(9) 0.2810(3)
C50 C -0.0501(9) 0.5227(9) 0.2933(3)
H40 H -0.1169 0.5931 0.2787
C51 C -0.0931(8) 0.4344(11) 0.3271(4)
H41 H -0.1893 0.4446 0.3356
C52 C 0.1443(15) 0.6116(14) 0.2487(4)
H42 H 0.2416 0.6097 0.2467
C53 C 0.0600(17) 0.7016(16) 0.2242(6)
H43 H -0.0363 0.7010 0.2234
C54 C 0.1200(11) 0.8096(8) 0.1964(3)
C55 C 0.2392(9) 0.8536(8) 0.1971(3)
H44 H 0.3058 0.8135 0.2196
C56 C 0.2652(8) 0.9532(8) 0.1666(3)
H45 H 0.3495 0.9817 0.1678
C57 C 0.0522(8) 0.9716(7) 0.1336(3)
H46 H -0.0132 1.0126 0.1108
C58 C 0.0248(9) 0.8741(8) 0.1643(3)
H47 H -0.0619 0.8493 0.1637
C59 C 0.2018(8) 1.1132(7) 0.1006(2)
C60 C 0.3328(8) 1.1074(8) 0.0828(2)
H48 H 0.4069 1.0375 0.0936
C61 C 0.3592(8) 1.2044(8) 0.0486(3)
H49 H 0.4505 1.2006 0.0356
C62 C 0.2509(8) 1.3046(7) 0.0342(2)
C63 C 0.1179(8) 1.3117(7) 0.0531(3)
H50 H 0.0439 1.3818 0.0423
C64 C 0.0919(7) 1.2175(7) 0.0875(2)
H51 H 0.0020 1.2238 0.1017
C65 C 0.2677(10) 1.4067(8) -0.0055(3)
C66 C 0.4156(8) 1.5108(9) -0.0523(3)
H52 H 0.3923 1.4900 -0.0813
H53 H 0.5125 1.5207 -0.0537
H54 H 0.3529 1.5919 -0.0459
P1 P 0.6521(2) 0.1826(2) 0.14878(8)
F1 F 0.7902(4) 0.2386(4) 0.13978(14)
F2 F 0.6323(4) 0.1968(4) 0.09567(13)
F3 F 0.5132(4) 0.1281(4) 0.15865(14)
F4 F 0.6713(4) 0.1707(4) 0.20158(13)
F5 F 0.7417(4) 0.0410(4) 0.14833(15)
F6 F 0.5614(4) 0.3267(4) 0.14906(13)
P2 P 0.6280(2) 0.6984(2) 0.16551(8)
F7 F 0.5698(5) 0.8172(5) 0.19091(19)
F8 F 0.5436(5) 0.7726(5) 0.12364(15)
F9 F 0.6889(5) 0.5775(5) 0.1421(2)
F10 F 0.7115(5) 0.6279(6) 0.20841(16)
F11 F 0.4967(4) 0.6397(4) 0.18342(16)
F12 F 0.7593(4) 0.7555(4) 0.14701(15)
N5 N 0.4668(9) 0.5493(8) 0.3049(3)
C75 C 0.5238(11) 0.4771(9) 0.2832(3)
C76 C 0.5916(10) 0.3840(8) 0.2544(3)
H61 H 0.5577 0.3038 0.2625
H62 H 0.6928 0.3653 0.2583
H63 H 0.5706 0.4191 0.2228
N6 N 0.4289(8) 1.0893(8) 0.2857(3)
C77 C 0.4560(9) 0.9797(11) 0.2917(3)
C78 C 0.4897(9) 0.8346(9) 0.3010(3)
H64 H 0.5344 0.8063 0.3303
H65 H 0.5533 0.7995 0.2771
H66 H 0.4034 0.8030 0.3016
C67? C -0.0475(14) 0.3552(16) 0.3487(6)
C68? C 0.0878(11) 0.3595(15) 0.3332(6)
H55? H 0.1648 0.2973 0.3466
C69? C 0.1104(11) 0.4548(15) 0.2983(5)
H56? H 0.2029 0.4578 0.2878
C70? C -0.0023(14) 0.5458(13) 0.2788(4)
C71? C -0.1376(12) 0.5416(13) 0.2943(5)
H57? H -0.2146 0.6038 0.2810
C72? C -0.1602(10) 0.4463(16) 0.3292(6)
H58? H -0.2527 0.4433 0.3398
C73? C 0.013(2) 0.6567(19) 0.2447(7)
H59? H -0.0676 0.6990 0.2278
C74? C 0.130(2) 0.705(2) 0.2349(7)
H60? H 0.2123 0.6730 0.2518
loop_
_geom_bond_atom_site_label_1
_geom_bond_atom_site_label_2
_geom_bond_site_symmetry_1
_geom_bond_site_symmetry_2
O1 C32 1_555 1_555
O2 C32 1_555 1_555
N1 C1 1_555 1_555
N2 C23 1_555 1_555
C1 C2 1_555 1_555
C2 H1 1_555 1_555
C3 C2 1_555 1_555
H2 C3 1_555 1_555
C4 C3 1_555 1_555
H3 C4 1_555 1_555
C5 C4 1_555 1_555
H4 C5 1_555 1_555
C6 C1 1_555 1_555
H5 C6 1_555 1_555
C7 N1 1_555 1_555
C8 C7 1_555 1_555
H6 C8 1_555 1_555
C9 C8 1_555 1_555
H7 C9 1_555 1_555
C10 C9 1_555 1_555
H8 C10 1_555 1_555
C11 C10 1_555 1_555
H9 C11 1_555 1_555
C12 C7 1_555 1_555
H10 C12 1_555 1_555
C13 N1 1_555 1_555
C14 C13 1_555 1_555
H11 C14 1_555 1_555
C15 C14 1_555 1_555
H12 C15 1_555 1_555
C16 C15 1_555 1_555
C17 C16 1_555 1_555
H13 C17 1_555 1_555
C18 C13 1_555 1_555
H14 C18 1_555 1_555
C19 C16 1_555 1_555
H15 C19 1_555 1_555
C20 C19 1_555 1_555
H16 C20 1_555 1_555
C21 C20 1_555 1_555
C22 C21 1_555 1_555
H17 C22 1_555 1_555
C23 C22 1_555 1_555
H18 C23 1_555 1_555
C24 N2 1_555 1_555
H19 C24 1_555 1_555
C25 C21 1_555 1_555
H20 C25 1_555 1_555
C26 N2 1_555 1_555
C27 C26 1_555 1_555
H21 C27 1_555 1_555
C28 C27 1_555 1_555
H22 C28 1_555 1_555
C29 C28 1_555 1_555
C30 C29 1_555 1_555
H23 C30 1_555 1_555
C31 C26 1_555 1_555
H24 C31 1_555 1_555
C32 C29 1_555 1_555
C33 O1 1_555 1_555
H25 C33 1_555 1_555
H26 C33 1_555 1_555
H27 C33 1_555 1_555
O3 C65 1_555 1_555
O4 C65 1_555 1_555
N3 C34 1_555 1_555
N4 C56 1_555 1_555
C34 C35 1_555 1_555
C35 H28 1_555 1_555
C36 C35 1_555 1_555
H29 C36 1_555 1_555
C37 C36 1_555 1_555
H30 C37 1_555 1_555
C38 C37 1_555 1_555
H31 C38 1_555 1_555
C39 C34 1_555 1_555
H32 C39 1_555 1_555
C40 N3 1_555 1_555
C41 C40 1_555 1_555
H33 C41 1_555 1_555
C42 C41 1_555 1_555
H34 C42 1_555 1_555
C43 C42 1_555 1_555
H35 C43 1_555 1_555
C44 C43 1_555 1_555
H36 C44 1_555 1_555
C45 C40 1_555 1_555
H37 C45 1_555 1_555
C46 N3 1_555 1_555
C47 C46 1_555 1_555
H38 C47 1_555 1_555
C48 C47 1_555 1_555
H39 C48 1_555 1_555
C49 C48 1_555 1_555
C50 C49 1_555 1_555
H40 C50 1_555 1_555
C51 C46 1_555 1_555
H41 C51 1_555 1_555
C52 C49 1_555 1_555
H42 C52 1_555 1_555
C53 C52 1_555 1_555
H43 C53 1_555 1_555
C54 C53 1_555 1_555
C55 C54 1_555 1_555
H44 C55 1_555 1_555
C56 C55 1_555 1_555
H45 C56 1_555 1_555
C57 N4 1_555 1_555
H46 C57 1_555 1_555
C58 C54 1_555 1_555
H47 C58 1_555 1_555
C59 N4 1_555 1_555
C60 C59 1_555 1_555
H48 C60 1_555 1_555
C61 C60 1_555 1_555
H49 C61 1_555 1_555
C62 C61 1_555 1_555
C63 C62 1_555 1_555
H50 C63 1_555 1_555
C64 C59 1_555 1_555
H51 C64 1_555 1_555
C65 C62 1_555 1_555
C66 O3 1_555 1_555
H52 C66 1_555 1_555
H53 C66 1_555 1_555
H54 C66 1_555 1_555
P1 F1 1_555 1_555
F2 P1 1_555 1_555
F3 P1 1_555 1_555
F4 P1 1_555 1_555
F5 P1 1_555 1_555
F6 P1 1_555 1_555
P2 F7 1_555 1_555
F8 P2 1_555 1_555
F9 P2 1_555 1_555
F10 P2 1_555 1_555
F11 P2 1_555 1_555
F12 P2 1_555 1_555
N5 C75 1_555 1_555
C75 C76 1_555 1_555
C76 H61 1_555 1_555
H62 C76 1_555 1_555
H63 C76 1_555 1_555
N6 C77 1_555 1_555
C77 C78 1_555 1_555
C78 H64 1_555 1_555
H65 C78 1_555 1_555
H66 C78 1_555 1_555
C5 C6 1_555 1_555
C11 C12 1_555 1_555
C17 C18 1_555 1_555
C24 C25 1_555 1_555
C30 C31 1_555 1_555
C38 C39 1_555 1_555
C44 C45 1_555 1_555
C50 C51 1_555 1_555
C57 C58 1_555 1_555
C63 C64 1_555 1_555

#END
