
#######################################################################
#
#                 Cambridge Crystallographic Data Centre
#                                CCDC 
#
#######################################################################
#
# If this CIF has been generated from an entry in the Cambridge 
# Structural Database, then it will include bibliographic, chemical, 
# crystal, experimental, refinement or atomic coordinate data resulting 
# from the CCDC's data processing and validation procedures.
#
#######################################################################

data_LIDTIC
_chemical_formula_moiety         'C44 H34 Br2 O6,0.8(C1 H1 Cl3)'
_chemical_name_systematic        
'5,17-Dibromo-25,27-dimethoxy-26,28-dibenzoyloxycalix(4)arene chloroform solvate'
_symmetry_cell_setting           triclinic
_symmetry_space_group_name_H-M   'P -1'
_symmetry_Int_Tables_number      2
_space_group_name_Hall           '-P 1'
loop_
_symmetry_equiv_pos_site_id
_symmetry_equiv_pos_as_xyz
1 x,y,z
2 -x,-y,-z
_cell_length_a                   9.6944(14)
_cell_length_b                   13.199(3)
_cell_length_c                   17.445(3)
_cell_angle_alpha                101.319(14)
_cell_angle_beta                 92.886(11)
_cell_angle_gamma                93.066(13)
_cell_volume                     2181.42
_exptl_crystal_colour            colorless
_exptl_crystal_description       prism
_cell_formula_units_Z            2
_exptl_crystal_recrystallization_method chloroform/methanol
loop_
_atom_site_label
_atom_site_type_symbol
_atom_site_fract_x
_atom_site_fract_y
_atom_site_fract_z
Br1 Br 0.70666(7) 1.27465(4) 0.99477(3)
Br2 Br 0.66332(7) 1.29114(4) 0.61428(4)
O1 O 0.9661(3) 1.06951(18) 0.75784(13)
O2 O 0.7618(3) 0.83923(17) 0.57373(12)
O3 O 0.7607(3) 0.8402(2) 0.44492(14)
O4 O 0.5135(3) 0.98927(18) 0.75041(13)
O5 O 0.7979(3) 0.83059(19) 0.86001(13)
O6 O 0.8060(4) 0.8009(2) 0.98196(15)
C1 C 1.0323(4) 0.9736(3) 0.8872(2)
H1 H 1.0554 0.9250 0.9202
H2 H 1.0964 1.0340 0.9027
C2 C 1.0544(4) 0.9243(3) 0.8032(2)
C3 C 1.0215(4) 0.9732(3) 0.7412(2)
C4 C 1.0367(4) 0.9286(3) 0.6629(2)
C5 C 1.0930(4) 0.8329(3) 0.6483(2)
H3 H 1.1060 0.8012 0.5969
C6 C 1.1302(4) 0.7837(3) 0.7082(3)
H4 H 1.1690 0.7200 0.6969
C7 C 1.1101(4) 0.8286(3) 0.7850(2)
H5 H 1.1342 0.7941 0.8249
C8 C 0.9966(4) 0.9823(3) 0.5964(2)
H6 H 1.0602 1.0424 0.5993
H7 H 1.0080 0.9355 0.5471
C9 C 0.8522(4) 1.0165(3) 0.59596(19)
C10 C 0.7384(4) 0.9458(3) 0.58721(18)
C11 C 0.6057(4) 0.9748(3) 0.59277(18)
C12 C 0.5859(4) 1.0800(3) 0.60162(19)
H8 H 0.4969 1.1030 0.6043
C13 C 0.6965(5) 1.1490(3) 0.6064(2)
C14 C 0.8275(4) 1.1197(3) 0.60469(19)
H9 H 0.9011 1.1692 0.6094
C15 C 0.4856(4) 0.8943(3) 0.5886(2)
H10 H 0.3998 0.9290 0.5895
H11 H 0.4848 0.8459 0.5389
C16 C 0.4898(4) 0.8341(3) 0.6539(2)
C17 C 0.5010(4) 0.8829(3) 0.7326(2)
C18 C 0.5066(4) 0.8286(3) 0.7930(2)
C19 C 0.4978(4) 0.7217(3) 0.7734(2)
H12 H 0.5009 0.6836 0.8130
C20 C 0.4844(4) 0.6704(3) 0.6959(2)
H13 H 0.4773 0.5985 0.6833
C21 C 0.4817(4) 0.7274(3) 0.6377(2)
H14 H 0.4743 0.6927 0.5857
C22 C 0.5191(4) 0.8831(3) 0.8779(2)
H15 H 0.5267 0.8314 0.9103
H16 H 0.4347 0.9176 0.8900
C23 C 0.6412(4) 0.9624(3) 0.89999(18)
C24 C 0.7751(4) 0.9350(3) 0.88904(18)
C25 C 0.8881(4) 1.0063(3) 0.90298(18)
C26 C 0.8677(5) 1.1090(3) 0.93361(19)
H17 H 0.9415 1.1586 0.9440
C27 C 0.7357(5) 1.1350(3) 0.9480(2)
C28 C 0.6218(5) 1.0660(3) 0.93117(19)
H18 H 0.5335 1.0879 0.9404
C29 C 1.0636(5) 1.1567(3) 0.7732(3)
H19 H 1.0154 1.2191 0.7839
H20 H 1.1170 1.1568 0.7283
H21 H 1.1242 1.1530 0.8177
C30 C 0.7706(4) 0.7924(3) 0.4984(2)
C31 C 0.7878(4) 0.6813(3) 0.4875(2)
C32 C 0.7932(5) 0.6317(3) 0.5488(3)
H22 H 0.7886 0.6691 0.5996
C33 C 0.8056(7) 0.5245(4) 0.5358(3)
H23 H 0.8083 0.4910 0.5780
C34 C 0.8135(7) 0.4698(4) 0.4631(4)
H24 H 0.8191 0.3984 0.4542
C35 C 0.8134(7) 0.5200(4) 0.4031(4)
H25 H 0.8236 0.4828 0.3529
C36 C 0.7984(6) 0.6259(3) 0.4138(3)
H26 H 0.7956 0.6585 0.3711
C37 C 0.3874(5) 1.0386(3) 0.7607(3)
H27 H 0.4063 1.1123 0.7726
H28 H 0.3416 1.0173 0.8030
H29 H 0.3288 1.0195 0.7134
C38 C 0.8131(5) 0.7708(3) 0.9132(2)
C39 C 0.8425(5) 0.6633(3) 0.8763(3)
C40 C 0.8442(6) 0.6330(4) 0.7988(3)
H30 H 0.8283 0.6804 0.7669
C41 C 0.8694(8) 0.5322(5) 0.7651(4)
H31 H 0.8741 0.5120 0.7112
C42 C 0.8874(8) 0.4627(5) 0.8136(5)
H32 H 0.8981 0.3935 0.7922
C43 C 0.8895(8) 0.4943(5) 0.8920(4)
H33 H 0.9063 0.4474 0.9243
C44 C 0.8668(7) 0.5968(4) 0.9253(4)
H34 H 0.8682 0.6189 0.9794
C45 C 0.6062(5) 0.5920(3) 0.1424(3)
H35 H 0.6882 0.5637 0.1602
Cl1 Cl 0.6512(4) 0.6771(2) 0.09735(18)
Cl2 Cl 0.5068(5) 0.5035(3) 0.0995(3)
Cl3 Cl 0.5523(5) 0.6412(4) 0.2199(2)
H36? H 0.6297 0.6412 0.1105
H37? H 0.5447 0.5380 0.1118
H38? H 0.5628 0.6254 0.1881
Cl4? Cl 0.7312(4) 0.5284(4) 0.1563(3)
loop_
_geom_bond_atom_site_label_1
_geom_bond_atom_site_label_2
_geom_bond_site_symmetry_1
_geom_bond_site_symmetry_2
Br1 C27 1_555 1_555
Br2 C13 1_555 1_555
O1 C3 1_555 1_555
O2 C10 1_555 1_555
O3 C30 1_555 1_555
O4 C17 1_555 1_555
O5 C24 1_555 1_555
O6 C38 1_555 1_555
C1 H1 1_555 1_555
H2 C1 1_555 1_555
C2 C1 1_555 1_555
C3 C2 1_555 1_555
C4 C3 1_555 1_555
C5 C4 1_555 1_555
H3 C5 1_555 1_555
C6 C5 1_555 1_555
H4 C6 1_555 1_555
C7 C2 1_555 1_555
H5 C7 1_555 1_555
C8 C4 1_555 1_555
H6 C8 1_555 1_555
H7 C8 1_555 1_555
C9 C8 1_555 1_555
C10 C9 1_555 1_555
C11 C10 1_555 1_555
C12 C11 1_555 1_555
H8 C12 1_555 1_555
C13 C12 1_555 1_555
C14 C9 1_555 1_555
H9 C14 1_555 1_555
C15 C11 1_555 1_555
H10 C15 1_555 1_555
H11 C15 1_555 1_555
C16 C15 1_555 1_555
C17 C16 1_555 1_555
C18 C17 1_555 1_555
C19 C18 1_555 1_555
H12 C19 1_555 1_555
C20 C19 1_555 1_555
H13 C20 1_555 1_555
C21 C16 1_555 1_555
H14 C21 1_555 1_555
C22 C18 1_555 1_555
H15 C22 1_555 1_555
H16 C22 1_555 1_555
C23 C22 1_555 1_555
C24 C23 1_555 1_555
C25 C1 1_555 1_555
C26 C25 1_555 1_555
H17 C26 1_555 1_555
C27 C26 1_555 1_555
C28 C23 1_555 1_555
H18 C28 1_555 1_555
C29 O1 1_555 1_555
H19 C29 1_555 1_555
H20 C29 1_555 1_555
H21 C29 1_555 1_555
C30 O2 1_555 1_555
C31 C30 1_555 1_555
C32 C31 1_555 1_555
H22 C32 1_555 1_555
C33 C32 1_555 1_555
H23 C33 1_555 1_555
C34 C33 1_555 1_555
H24 C34 1_555 1_555
C35 C34 1_555 1_555
H25 C35 1_555 1_555
C36 C31 1_555 1_555
H26 C36 1_555 1_555
C37 O4 1_555 1_555
H27 C37 1_555 1_555
H28 C37 1_555 1_555
H29 C37 1_555 1_555
C38 O5 1_555 1_555
C39 C38 1_555 1_555
C40 C39 1_555 1_555
H30 C40 1_555 1_555
C41 C40 1_555 1_555
H31 C41 1_555 1_555
C42 C41 1_555 1_555
H32 C42 1_555 1_555
C43 C42 1_555 1_555
H33 C43 1_555 1_555
C44 C39 1_555 1_555
H34 C44 1_555 1_555
C45 H35 1_555 1_555
Cl1 C45 1_555 1_555
Cl2 C45 1_555 1_555
Cl3 C45 1_555 1_555
C6 C7 1_555 1_555
C13 C14 1_555 1_555
C20 C21 1_555 1_555
C24 C25 1_555 1_555
C27 C28 1_555 1_555
C35 C36 1_555 1_555
C43 C44 1_555 1_555

#END
