
#######################################################################
#
#                 Cambridge Crystallographic Data Centre
#                                CCDC 
#
#######################################################################
#
# If this CIF has been generated from an entry in the Cambridge 
# Structural Database, then it will include bibliographic, chemical, 
# crystal, experimental, refinement or atomic coordinate data resulting 
# from the CCDC's data processing and validation procedures.
#
#######################################################################

data_LIFHAM
_chemical_formula_moiety         
'C12 H24 O6,C6 H7 N2 O2 1+,0.5(C1 H4 O1),F6 P1 1-'
_chemical_name_systematic        
'4-nitroanilinium hexafluorophosphate 18-crown-6 methanol unknown solvate'
_symmetry_cell_setting           monoclinic
_symmetry_space_group_name_H-M   'P 21/c'
_symmetry_Int_Tables_number      14
_space_group_name_Hall           '-P 2ybc'
loop_
_symmetry_equiv_pos_site_id
_symmetry_equiv_pos_as_xyz
1 x,y,z
2 -x,1/2+y,1/2-z
3 -x,-y,-z
4 x,1/2-y,1/2+z
_cell_length_a                   10.9429(9)
_cell_length_b                   23.687(2)
_cell_length_c                   21.8926(16)
_cell_angle_alpha                90
_cell_angle_beta                 113.962(4)
_cell_angle_gamma                90
_cell_volume                     5185.59
_exptl_crystal_colour            colorless
_exptl_crystal_description       block
_cell_formula_units_Z            6
loop_
_atom_site_label
_atom_site_type_symbol
_atom_site_fract_x
_atom_site_fract_y
_atom_site_fract_z
O1 O 0.5377(3) -0.11794(11) 0.95483(14)
O2 O 0.2947(3) -0.12530(12) 0.96959(13)
O3 O 0.7396(3) -0.18839(12) 1.03845(14)
O4 O 0.2228(3) -0.22639(13) 1.01197(15)
O5 O 0.6686(3) -0.29331(13) 1.07172(15)
O6 O 0.4161(4) -0.30522(14) 1.07846(17)
C1 C 0.8300(4) -0.2350(2) 1.0556(3)
H1 H 0.9215 -0.2215 1.0759
H2 H 0.8186 -0.2562 1.0157
C2 C 0.6733(5) -0.1011(2) 0.9847(3)
H3 H 0.6921 -0.0837 1.0277
H4 H 0.6908 -0.0735 0.9565
C3 C 0.2044(6) -0.2667(3) 1.0551(3)
H5 H 0.1101 -0.2755 1.0405
H6 H 0.2371 -0.2520 1.1003
C4 C 0.6402(6) -0.3338(2) 1.1120(3)
H7 H 0.6557 -0.3174 1.1552
H8 H 0.6989 -0.3661 1.1194
C5 C 0.5021(6) -0.3516(2) 1.0789(3)
H9 H 0.4832 -0.3630 1.0334
H10 H 0.4859 -0.3836 1.1022
C6 C 0.7596(5) -0.1502(2) 0.9936(3)
H11 H 0.7387 -0.1685 0.9509
H12 H 0.8525 -0.1383 1.0113
C7 C 0.3101(5) -0.0905(2) 0.9193(2)
H13 H 0.2501 -0.0584 0.9095
H14 H 0.2878 -0.1120 0.8785
C8 C 0.4478(5) -0.07109(18) 0.9437(2)
H15 H 0.4575 -0.0456 0.9114
H16 H 0.4702 -0.0505 0.9852
C9 C 0.1573(4) -0.1402(2) 0.9524(2)
H17 H 0.1228 -0.1612 0.9108
H18 H 0.1040 -0.1063 0.9463
C10 C 0.1480(4) -0.1751(2) 1.0065(3)
H19 H 0.1845 -0.1545 1.0484
H20 H 0.0552 -0.1839 0.9963
C11 C 0.8026(5) -0.2715(2) 1.1027(2)
H21 H 0.8659 -0.3026 1.1162
H22 H 0.8131 -0.2501 1.1423
C12 C 0.2806(5) -0.3188(2) 1.0532(3)
H23 H 0.2654 -0.3483 1.0801
H24 H 0.2508 -0.3324 1.0077
O7 O 0.4885(3) 0.06781(13) 0.82930(14)
O8 O 0.0406(3) -0.00394(15) 0.77335(14)
O9 O 0.1251(3) -0.10786(14) 0.74886(14)
O10 O 0.3753(3) -0.12051(12) 0.73878(14)
O11 O 0.5660(3) -0.03961(13) 0.81077(16)
O12 O 0.2351(3) 0.07876(13) 0.83155(15)
C13 C 0.1545(6) -0.1510(2) 0.7094(2)
H25 H 0.1000 -0.1841 0.7059
H26 H 0.1330 -0.1369 0.6646
C14 C -0.0118(5) -0.0956(2) 0.7278(3)
H27 H -0.0605 -0.1298 0.7277
H28 H -0.0470 -0.0806 0.6827
C15 C 0.3148(6) 0.1259(2) 0.8285(3)
H29 H 0.2944 0.1350 0.7821
H30 H 0.2936 0.1586 0.8490
C16 C 0.5949(5) -0.0834(2) 0.7742(3)
H31 H 0.6892 -0.0928 0.7950
H32 H 0.5738 -0.0710 0.7288
C17 C 0.4525(6) 0.1130(2) 0.8621(3)
H33 H 0.4720 0.1024 0.9079
H34 H 0.5051 0.1462 0.8629
C18 C 0.0978(6) 0.0904(2) 0.8090(3)
H35 H 0.0624 0.1020 0.7626
H36 H 0.0842 0.1210 0.8350
C19 C 0.5138(5) -0.1332(2) 0.7736(3)
H37 H 0.5374 -0.1645 0.7520
H38 H 0.5319 -0.1443 0.8192
C20 C 0.6211(5) 0.0493(2) 0.8627(2)
H39 H 0.6335 0.0326 0.9052
H40 H 0.6817 0.0811 0.8712
C21 C -0.0295(4) -0.0538(3) 0.7735(3)
H41 H -0.1238 -0.0454 0.7594
H42 H 0.0036 -0.0691 0.8184
C22 C 0.6509(5) 0.0072(2) 0.8212(3)
H43 H 0.6380 0.0239 0.7785
H44 H 0.7434 -0.0047 0.8432
C23 C 0.0275(5) 0.0397(3) 0.8161(3)
H45 H 0.0655 0.0270 0.8622
H46 H -0.0663 0.0482 0.8036
C24 C 0.2932(6) -0.16604(19) 0.7401(2)
H47 H 0.3160 -0.1772 0.7861
H48 H 0.3094 -0.1980 0.7168
O13 O 0.3561(10) -0.3272(7) 0.7021(5)
O14 O 0.1518(14) -0.3244(8) 0.6930(7)
N1 N 0.2771(6) -0.32748(19) 0.7299(2)
N2 N 0.4571(3) -0.22619(13) 0.98482(14)
H49 H 0.5368 -0.2396 1.0118
H50 H 0.4636 -0.1894 0.9786
H51 H 0.3991 -0.2319 1.0033
C25 C 0.4608(4) -0.29353(19) 0.8333(2)
H52 H 0.5214 -0.3037 0.8154
C26 C 0.3257(5) -0.30297(16) 0.7989(2)
C27 C 0.5030(4) -0.26844(18) 0.8954(2)
H53 H 0.5934 -0.2610 0.9198
C28 C 0.2782(4) -0.26580(18) 0.8859(2)
H54 H 0.2174 -0.2567 0.9042
C29 C 0.2346(4) -0.29051(19) 0.8240(2)
H55 H 0.1444 -0.2985 0.7999
C30 C 0.4124(4) -0.25458(14) 0.92102(18)
O17 O 0.009(3) 0.1166(14) 0.4746(10)
O18 O 0.1845(14) 0.1172(7) 0.4767(6)
N3 N 0.1018(9) 0.0942(3) 0.4921(3)
N4 N 0.2817(3) -0.00636(14) 0.74739(14)
H56 H 0.3168 -0.0402 0.7470
H57 H 0.3433 0.0157 0.7769
H58 H 0.2126 -0.0100 0.7587
C31 C 0.0626(7) 0.0593(4) 0.5861(3)
H59 H -0.0251 0.0718 0.5644
C32 C 0.3196(7) 0.0284(4) 0.6523(3)
H60 H 0.4087 0.0178 0.6744
C33 C 0.1033(6) 0.0322(3) 0.6471(3)
H61 H 0.0417 0.0234 0.6650
C34 C 0.2781(8) 0.0537(4) 0.5918(4)
H62 H 0.3395 0.0615 0.5736
C35 C 0.2341(4) 0.01853(17) 0.68052(18)
C36 C 0.1505(6) 0.0674(2) 0.5583(2)
P1 P 0.0000 0.0000 1.0000
F1 F 0.1289(6) -0.0064(2) 0.9892(3)
F2 F -0.0471(6) 0.0513(3) 0.9522(3)
F3 F -0.0706(5) -0.0392(2) 0.9387(2)
F1B F -0.1289(6) 0.0064(2) 1.0108(3)
F2B F 0.0471(6) -0.0513(3) 1.0478(3)
F3B F 0.0706(5) 0.0392(2) 1.0613(2)
O21 O 0.6595(3) 0.02987(16) 0.59764(18)
H63 H 0.6109 0.0577 0.5899
C37 C 0.6011(18) -0.0129(4) 0.6210(6)
H64 H 0.6577 -0.0213 0.6667
H65 H 0.5904 -0.0462 0.5943
H66 H 0.5152 -0.0006 0.6179
O15? O 0.354(3) -0.3568(13) 0.7202(12)
O16? O 0.181(3) -0.3527(12) 0.7107(12)
O19? O -0.027(3) 0.0956(13) 0.4534(10)
O20? O 0.164(2) 0.0781(12) 0.4574(11)
loop_
_geom_bond_atom_site_label_1
_geom_bond_atom_site_label_2
_geom_bond_site_symmetry_1
_geom_bond_site_symmetry_2
O1 C2 1_555 1_555
O2 C7 1_555 1_555
O3 C1 1_555 1_555
O4 C3 1_555 1_555
O5 C4 1_555 1_555
O6 C5 1_555 1_555
C1 H1 1_555 1_555
H2 C1 1_555 1_555
C2 H3 1_555 1_555
H4 C2 1_555 1_555
C3 H5 1_555 1_555
H6 C3 1_555 1_555
C4 H7 1_555 1_555
H8 C4 1_555 1_555
C5 C4 1_555 1_555
H9 C5 1_555 1_555
H10 C5 1_555 1_555
C6 O3 1_555 1_555
H11 C6 1_555 1_555
H12 C6 1_555 1_555
C7 H13 1_555 1_555
H14 C7 1_555 1_555
C8 O1 1_555 1_555
H15 C8 1_555 1_555
H16 C8 1_555 1_555
C9 O2 1_555 1_555
H17 C9 1_555 1_555
H18 C9 1_555 1_555
C10 O4 1_555 1_555
H19 C10 1_555 1_555
H20 C10 1_555 1_555
C11 O5 1_555 1_555
H21 C11 1_555 1_555
H22 C11 1_555 1_555
C12 O6 1_555 1_555
H23 C12 1_555 1_555
H24 C12 1_555 1_555
O7 C17 1_555 1_555
O8 C21 1_555 1_555
O9 C13 1_555 1_555
O10 C19 1_555 1_555
O11 C16 1_555 1_555
O12 C15 1_555 1_555
C13 H25 1_555 1_555
H26 C13 1_555 1_555
C14 O9 1_555 1_555
H27 C14 1_555 1_555
H28 C14 1_555 1_555
C15 H29 1_555 1_555
H30 C15 1_555 1_555
C16 H31 1_555 1_555
H32 C16 1_555 1_555
C17 C15 1_555 1_555
H33 C17 1_555 1_555
H34 C17 1_555 1_555
C18 O12 1_555 1_555
H35 C18 1_555 1_555
H36 C18 1_555 1_555
C19 C16 1_555 1_555
H37 C19 1_555 1_555
H38 C19 1_555 1_555
C20 O7 1_555 1_555
H39 C20 1_555 1_555
H40 C20 1_555 1_555
C21 C14 1_555 1_555
H41 C21 1_555 1_555
H42 C21 1_555 1_555
C22 O11 1_555 1_555
H43 C22 1_555 1_555
H44 C22 1_555 1_555
C23 O8 1_555 1_555
H45 C23 1_555 1_555
H46 C23 1_555 1_555
C24 O10 1_555 1_555
H47 C24 1_555 1_555
H48 C24 1_555 1_555
O13 N1 1_555 1_555
O14 N1 1_555 1_555
N1 C26 1_555 1_555
N2 H49 1_555 1_555
H50 N2 1_555 1_555
H51 N2 1_555 1_555
C25 H52 1_555 1_555
C26 C25 1_555 1_555
C27 C25 1_555 1_555
H53 C27 1_555 1_555
C28 H54 1_555 1_555
C29 C26 1_555 1_555
H55 C29 1_555 1_555
C30 N2 1_555 1_555
O17 N3 1_555 1_555
O18 N3 1_555 1_555
N3 C36 1_555 1_555
N4 H56 1_555 1_555
H57 N4 1_555 1_555
H58 N4 1_555 1_555
C31 H59 1_555 1_555
C32 H60 1_555 1_555
C33 C31 1_555 1_555
H61 C33 1_555 1_555
C34 C32 1_555 1_555
H62 C34 1_555 1_555
C35 N4 1_555 1_555
C36 C31 1_555 1_555
P1 F1 1_555 1_555
F2 P1 1_555 1_555
F3 P1 1_555 1_555
O21 H63 1_555 1_555
C37 O21 1_555 1_555
H64 C37 1_555 1_555
H65 C37 1_555 1_555
H66 C37 1_555 1_555
F1B P1 1_555 1_555
F2B P1 1_555 1_555
F3B P1 1_555 1_555
C1 C11 1_555 1_555
C2 C6 1_555 1_555
C3 C12 1_555 1_555
C7 C8 1_555 1_555
C9 C10 1_555 1_555
C13 C24 1_555 1_555
C18 C23 1_555 1_555
C20 C22 1_555 1_555
C27 C30 1_555 1_555
C28 C29 1_555 1_555
C28 C30 1_555 1_555
C32 C35 1_555 1_555
C33 C35 1_555 1_555
C34 C36 1_555 1_555

#END
