
#######################################################################
#
#                 Cambridge Crystallographic Data Centre
#                                CCDC 
#
#######################################################################
#
# If this CIF has been generated from an entry in the Cambridge 
# Structural Database, then it will include bibliographic, chemical, 
# crystal, experimental, refinement or atomic coordinate data resulting 
# from the CCDC's data processing and validation procedures.
#
#######################################################################

data_LIFJOC
_chemical_formula_moiety         'C12 H14 O4'
_chemical_name_systematic        'dimethyl 2-phenylbutanedioate'
_symmetry_cell_setting           monoclinic
_symmetry_space_group_name_H-M   'P 21/n'
_symmetry_Int_Tables_number      14
_space_group_name_Hall           '-P 2yn'
loop_
_symmetry_equiv_pos_site_id
_symmetry_equiv_pos_as_xyz
1 x,y,z
2 1/2-x,1/2+y,1/2-z
3 -x,-y,-z
4 1/2+x,1/2-y,1/2+z
_cell_length_a                   5.8802(4)
_cell_length_b                   25.3608(19)
_cell_length_c                   8.2156(6)
_cell_angle_alpha                90
_cell_angle_beta                 109.663(2)
_cell_angle_gamma                90
_cell_volume                     1153.72
_exptl_crystal_colour            colorless
_exptl_crystal_description       block
_cell_formula_units_Z            4
loop_
_atom_site_label
_atom_site_type_symbol
_atom_site_fract_x
_atom_site_fract_y
_atom_site_fract_z
O1 O 0.1008(3) 0.11749(7) 0.7757(2)
O2 O 0.4152(3) 0.12326(10) 0.6883(2)
O3 O 0.7369(3) 0.02636(9) 1.2538(2)
O4 O 1.0670(2) 0.04360(7) 1.19219(19)
C1 C 0.4249(5) 0.15786(10) 1.2075(3)
H1 H 0.3048 0.1350 1.2144
C2 C 0.4769(5) 0.20209(11) 1.3094(3)
H2 H 0.3909 0.2090 1.3837
C3 C 0.6531(6) 0.23600(10) 1.3030(4)
H3 H 0.6883 0.2658 1.3730
C4 C 0.7778(5) 0.22598(11) 1.1929(4)
H4 H 0.8976 0.2491 1.1875
C5 C 0.7264(5) 0.18150(10) 1.0896(3)
H5 H 0.8126 0.1748 1.0155
C6 C 0.5467(4) 0.14673(8) 1.0957(3)
C7 C 0.4793(4) 0.09731(9) 0.9813(3)
H6 H 0.3778 0.0748 1.0255
C8 C 0.3331(4) 0.11328(9) 0.7974(3)
C9 C -0.0571(4) 0.13535(11) 0.6082(3)
H7 H -0.2204 0.1366 0.6079
H8 H -0.0471 0.1114 0.5205
H9 H -0.0083 0.1699 0.5853
C10 C 0.6992(4) 0.06586(10) 0.9840(3)
H10 H 0.6493 0.0371 0.9017
H11 H 0.8073 0.0884 0.9483
C11 C 0.8305(4) 0.04406(8) 1.1581(3)
C12 C 1.2125(4) 0.02122(11) 1.3553(3)
H12 H 1.3799 0.0230 1.3656
H13 H 1.1673 -0.0149 1.3610
H14 H 1.1873 0.0407 1.4480
loop_
_geom_bond_atom_site_label_1
_geom_bond_atom_site_label_2
_geom_bond_site_symmetry_1
_geom_bond_site_symmetry_2
O1 C8 1_555 1_555
O2 C8 1_555 1_555
O3 C11 1_555 1_555
O4 C11 1_555 1_555
C1 H1 1_555 1_555
C2 C1 1_555 1_555
H2 C2 1_555 1_555
C3 C2 1_555 1_555
H3 C3 1_555 1_555
C4 C3 1_555 1_555
H4 C4 1_555 1_555
C5 C4 1_555 1_555
H5 C5 1_555 1_555
C6 C1 1_555 1_555
C7 C6 1_555 1_555
H6 C7 1_555 1_555
C8 C7 1_555 1_555
C9 O1 1_555 1_555
H7 C9 1_555 1_555
H8 C9 1_555 1_555
H9 C9 1_555 1_555
C10 C7 1_555 1_555
H10 C10 1_555 1_555
H11 C10 1_555 1_555
C11 C10 1_555 1_555
C12 O4 1_555 1_555
H12 C12 1_555 1_555
H13 C12 1_555 1_555
H14 C12 1_555 1_555
C5 C6 1_555 1_555

#END
