
#######################################################################
#
#                 Cambridge Crystallographic Data Centre
#                                CCDC 
#
#######################################################################
#
# If this CIF has been generated from an entry in the Cambridge 
# Structural Database, then it will include bibliographic, chemical, 
# crystal, experimental, refinement or atomic coordinate data resulting 
# from the CCDC's data processing and validation procedures.
#
#######################################################################

data_LIGMEU
_chemical_formula_moiety         'C34 H30 N4 S2'
_chemical_name_systematic        
3,3'-bis(3-(2-(methylthio)phenyl)pyrazolylmethyl)biphenyl
_symmetry_cell_setting           orthorhombic
_symmetry_space_group_name_H-M   'P b c a'
_symmetry_Int_Tables_number      61
_space_group_name_Hall           '-P 2ac 2ab'
loop_
_symmetry_equiv_pos_site_id
_symmetry_equiv_pos_as_xyz
1 x,y,z
2 1/2-x,-y,1/2+z
3 -x,1/2+y,1/2-z
4 1/2+x,1/2-y,-z
5 -x,-y,-z
6 1/2+x,y,1/2-z
7 x,1/2-y,1/2+z
8 1/2-x,1/2+y,z
_cell_length_a                   9.4207(8)
_cell_length_b                   8.8218(8)
_cell_length_c                   33.408(3)
_cell_angle_alpha                90
_cell_angle_beta                 90
_cell_angle_gamma                90
_cell_volume                     2776.46
_cell_formula_units_Z            4
loop_
_atom_site_label
_atom_site_type_symbol
_atom_site_fract_x
_atom_site_fract_y
_atom_site_fract_z
S1 S 0.66602(5) 0.14340(6) 0.388404(15)
N1 N 0.28758(17) -0.07781(18) 0.36697(5)
N2 N 0.41842(17) -0.01851(18) 0.36159(5)
C1 C 0.1015(2) -0.0813(2) 0.45577(6)
H1 H 0.0263 -0.1337 0.4428
C2 C 0.0723(2) -0.0009(2) 0.49105(6)
C3 C 0.1858(2) 0.0771(2) 0.50847(6)
H2 H 0.1700 0.1337 0.5322
C4 C 0.3205(2) 0.0740(2) 0.49201(6)
H3 H 0.3956 0.1279 0.5046
C5 C 0.3464(2) -0.0077(2) 0.45721(6)
H4 H 0.4389 -0.0094 0.4459
C6 C 0.2365(2) -0.0870(2) 0.43909(6)
C7 C 0.2608(2) -0.1769(2) 0.40119(6)
H5 H 0.3429 -0.2454 0.4050
H6 H 0.1762 -0.2402 0.3957
C8 C 0.1911(2) -0.0181(2) 0.34157(6)
H7 H 0.0929 -0.0422 0.3404
C9 C 0.2616(2) 0.0839(2) 0.31783(6)
H8 H 0.2232 0.1436 0.2968
C10 C 0.4033(2) 0.0809(2) 0.33138(6)
C11 C 0.5222(2) 0.1740(2) 0.31629(6)
C12 C 0.5080(2) 0.2333(2) 0.27759(6)
H9 H 0.4286 0.2040 0.2619
C13 C 0.6058(2) 0.3332(2) 0.26153(6)
H10 H 0.5931 0.3730 0.2354
C14 C 0.7229(2) 0.3741(2) 0.28425(6)
H11 H 0.7903 0.4436 0.2737
C15 C 0.7424(2) 0.3146(2) 0.32211(6)
H12 H 0.8244 0.3421 0.3370
C16 C 0.6435(2) 0.2145(2) 0.33896(6)
C17 C 0.8420(2) 0.2072(2) 0.40155(7)
H13 H 0.9105 0.1682 0.3820
H14 H 0.8665 0.1697 0.4283
H15 H 0.8445 0.3182 0.4015
S1D S -0.66602(5) -0.14340(6) 0.611596(15)
N1D N -0.28758(17) 0.07781(18) 0.63303(5)
N2D N -0.41842(17) 0.01851(18) 0.63841(5)
C1D C -0.1015(2) 0.0813(2) 0.54423(6)
H1D H -0.0263 0.1337 0.5572
C2D C -0.0723(2) 0.0009(2) 0.50895(6)
C3D C -0.1858(2) -0.0771(2) 0.49153(6)
H2D H -0.1700 -0.1337 0.4678
C4D C -0.3205(2) -0.0740(2) 0.50799(6)
H3D H -0.3956 -0.1279 0.4954
C5D C -0.3464(2) 0.0077(2) 0.54279(6)
H4D H -0.4389 0.0094 0.5541
C6D C -0.2365(2) 0.0870(2) 0.56091(6)
C7D C -0.2608(2) 0.1769(2) 0.59881(6)
H5D H -0.3429 0.2454 0.5950
H6D H -0.1762 0.2402 0.6043
C8D C -0.1911(2) 0.0181(2) 0.65843(6)
H7D H -0.0929 0.0422 0.6596
C9D C -0.2616(2) -0.0839(2) 0.68217(6)
H8D H -0.2232 -0.1436 0.7032
C10D C -0.4033(2) -0.0809(2) 0.66862(6)
C11D C -0.5222(2) -0.1740(2) 0.68371(6)
C12D C -0.5080(2) -0.2333(2) 0.72241(6)
H9D H -0.4286 -0.2040 0.7381
C13D C -0.6058(2) -0.3332(2) 0.73847(6)
H10D H -0.5931 -0.3730 0.7646
C14D C -0.7229(2) -0.3741(2) 0.71575(6)
H11D H -0.7903 -0.4436 0.7263
C15D C -0.7424(2) -0.3146(2) 0.67789(6)
H12D H -0.8244 -0.3421 0.6630
C16D C -0.6435(2) -0.2145(2) 0.66104(6)
C17D C -0.8420(2) -0.2072(2) 0.59845(7)
H13D H -0.9105 -0.1682 0.6180
H14D H -0.8665 -0.1697 0.5717
H15D H -0.8445 -0.3182 0.5985
loop_
_geom_bond_atom_site_label_1
_geom_bond_atom_site_label_2
_geom_bond_site_symmetry_1
_geom_bond_site_symmetry_2
S1 C16 1_555 1_555
N1 N2 1_555 1_555
N2 C10 1_555 1_555
C1 H1 1_555 1_555
C2 C1 1_555 1_555
C3 C2 1_555 1_555
H2 C3 1_555 1_555
C4 C3 1_555 1_555
H3 C4 1_555 1_555
C5 C4 1_555 1_555
H4 C5 1_555 1_555
C6 C1 1_555 1_555
C7 N1 1_555 1_555
H5 C7 1_555 1_555
H6 C7 1_555 1_555
C8 N1 1_555 1_555
H7 C8 1_555 1_555
C9 C8 1_555 1_555
H8 C9 1_555 1_555
C10 C9 1_555 1_555
C11 C10 1_555 1_555
C12 C11 1_555 1_555
H9 C12 1_555 1_555
C13 C12 1_555 1_555
H10 C13 1_555 1_555
C14 C13 1_555 1_555
H11 C14 1_555 1_555
C15 C14 1_555 1_555
H12 C15 1_555 1_555
C16 C11 1_555 1_555
C17 S1 1_555 1_555
H13 C17 1_555 1_555
H14 C17 1_555 1_555
H15 C17 1_555 1_555
S1D C16D 1_555 1_555
N1D N2D 1_555 1_555
N2D C10D 1_555 1_555
C1D H1D 1_555 1_555
C2D C2 1_555 1_555
C3D C2D 1_555 1_555
H2D C3D 1_555 1_555
C4D C3D 1_555 1_555
H3D C4D 1_555 1_555
C5D C4D 1_555 1_555
H4D C5D 1_555 1_555
C6D C1D 1_555 1_555
C7D N1D 1_555 1_555
H5D C7D 1_555 1_555
H6D C7D 1_555 1_555
C8D N1D 1_555 1_555
H7D C8D 1_555 1_555
C9D C8D 1_555 1_555
H8D C9D 1_555 1_555
C10D C9D 1_555 1_555
C11D C10D 1_555 1_555
C12D C11D 1_555 1_555
H9D C12D 1_555 1_555
C13D C12D 1_555 1_555
H10D C13D 1_555 1_555
C14D C13D 1_555 1_555
H11D C14D 1_555 1_555
C15D C14D 1_555 1_555
H12D C15D 1_555 1_555
C16D C11D 1_555 1_555
C17D S1D 1_555 1_555
H13D C17D 1_555 1_555
H14D C17D 1_555 1_555
H15D C17D 1_555 1_555
C5 C6 1_555 1_555
C6 C7 1_555 1_555
C15 C16 1_555 1_555
C1D C2D 1_555 1_555
C5D C6D 1_555 1_555
C6D C7D 1_555 1_555
C15D C16D 1_555 1_555

#END
