
#######################################################################
#
#                 Cambridge Crystallographic Data Centre
#                                CCDC 
#
#######################################################################
#
# If this CIF has been generated from an entry in the Cambridge 
# Structural Database, then it will include bibliographic, chemical, 
# crystal, experimental, refinement or atomic coordinate data resulting 
# from the CCDC's data processing and validation procedures.
#
#######################################################################

data_LIGYAB01
_chemical_formula_moiety         'C10 H8 N2 O2 Se2'
_chemical_name_systematic        'bis(N-oxidopyridin-2-yl) diselenide'
_symmetry_cell_setting           triclinic
_symmetry_space_group_name_H-M   'P -1'
_symmetry_Int_Tables_number      2
_space_group_name_Hall           '-P 1'
loop_
_symmetry_equiv_pos_site_id
_symmetry_equiv_pos_as_xyz
1 x,y,z
2 -x,-y,-z
_cell_length_a                   7.1991(10)
_cell_length_b                   7.2002(11)
_cell_length_c                   11.1169(14)
_cell_angle_alpha                87.753(2)
_cell_angle_beta                 73.6350(10)
_cell_angle_gamma                89.555(2)
_cell_volume                     552.47
_cell_formula_units_Z            2
loop_
_atom_site_label
_atom_site_type_symbol
_atom_site_fract_x
_atom_site_fract_y
_atom_site_fract_z
Se1 Se 0.74435(6) 0.48358(5) 0.87127(4)
Se2 Se 0.65609(6) 0.64599(6) 0.70980(4)
N1 N 0.7521(5) 0.6112(4) 1.0937(3)
N2 N 0.8960(5) 0.7670(4) 0.4884(3)
O1 O 0.7617(5) 0.4306(4) 1.1099(3)
O2 O 0.7215(4) 0.7784(4) 0.4728(3)
C1 C 0.7469(6) 0.6818(5) 0.9798(4)
C2 C 0.7407(6) 0.8700(6) 0.9578(4)
H1 H 0.7401 0.9176 0.8790
C3 C 0.7352(7) 0.9895(6) 1.0540(5)
H2 H 0.7317 1.1176 1.0403
C4 C 0.7353(6) 0.9151(6) 1.1691(4)
H3 H 0.7301 0.9936 1.2344
C5 C 0.7429(6) 0.7253(6) 1.1897(4)
H4 H 0.7418 0.6760 1.2685
C6 C 0.9088(6) 0.7022(5) 0.6032(4)
C7 C 1.0885(6) 0.6933(6) 0.6267(4)
H5 H 1.0983 0.6513 0.7049
C8 C 1.2517(7) 0.7470(6) 0.5333(5)
H6 H 1.3730 0.7391 0.5473
C9 C 1.2339(7) 0.8128(6) 0.4188(4)
H7 H 1.3432 0.8516 0.3558
C10 C 1.0544(6) 0.8210(6) 0.3979(4)
H8 H 1.0430 0.8642 0.3204
loop_
_geom_bond_atom_site_label_1
_geom_bond_atom_site_label_2
_geom_bond_site_symmetry_1
_geom_bond_site_symmetry_2
Se1 Se2 1_555 1_555
Se2 C6 1_555 1_555
N1 O1 1_555 1_555
N2 O2 1_555 1_555
C1 Se1 1_555 1_555
C2 C1 1_555 1_555
H1 C2 1_555 1_555
C3 C2 1_555 1_555
H2 C3 1_555 1_555
C4 C3 1_555 1_555
H3 C4 1_555 1_555
C5 N1 1_555 1_555
H4 C5 1_555 1_555
C6 N2 1_555 1_555
C7 C6 1_555 1_555
H5 C7 1_555 1_555
C8 C7 1_555 1_555
H6 C8 1_555 1_555
C9 C8 1_555 1_555
H7 C9 1_555 1_555
C10 N2 1_555 1_555
H8 C10 1_555 1_555
N1 C1 1_555 1_555
C4 C5 1_555 1_555
C9 C10 1_555 1_555

#END
