
#######################################################################
#
#                 Cambridge Crystallographic Data Centre
#                                CCDC 
#
#######################################################################
#
# If this CIF has been generated from an entry in the Cambridge 
# Structural Database, then it will include bibliographic, chemical, 
# crystal, experimental, refinement or atomic coordinate data resulting 
# from the CCDC's data processing and validation procedures.
#
#######################################################################

data_LIJGOD01
_chemical_formula_moiety         'C13 H11 I1 N2 O2'
_chemical_name_systematic        
'2-[(3-iodo-2-methylphenyl)amino]pyridine-3-carboxylic acid'
_symmetry_cell_setting           monoclinic
_symmetry_space_group_name_H-M   'P 21/c'
_symmetry_Int_Tables_number      14
_space_group_name_Hall           '-P 2ybc'
loop_
_symmetry_equiv_pos_site_id
_symmetry_equiv_pos_as_xyz
1 x,y,z
2 -x,1/2+y,1/2-z
3 -x,-y,-z
4 x,1/2-y,1/2+z
_cell_length_a                   7.8162(16)
_cell_length_b                   14.053(3)
_cell_length_c                   12.023(2)
_cell_angle_alpha                90
_cell_angle_beta                 103.05(3)
_cell_angle_gamma                90
_cell_volume                     1286.51
_exptl_crystal_colour            colorless
_exptl_crystal_description       block
_cell_formula_units_Z            4
loop_
_atom_site_label
_atom_site_type_symbol
_atom_site_fract_x
_atom_site_fract_y
_atom_site_fract_z
N1 N 0.0161(3) 0.07138(16) 0.7075(2)
C1 C 0.0374(3) -0.01454(18) 0.7598(2)
C2 C -0.0647(4) -0.0950(2) 0.7111(2)
C3 C -0.1883(4) -0.0822(2) 0.6094(3)
H1 H -0.2583 -0.1344 0.5754
C4 C -0.2099(4) 0.0061(2) 0.5572(3)
H2 H -0.2952 0.0158 0.4881
C5 C -0.1045(4) 0.0797(2) 0.6082(3)
H3 H -0.1175 0.1398 0.5713
C6 C -0.0363(4) -0.1895(2) 0.7663(3)
O1 O -0.1344(4) -0.25751(18) 0.7086(3)
H4 H -0.1075 -0.3099 0.7415
O2 O 0.0697(3) -0.20404(14) 0.8563(2)
N2 N 0.1588(3) -0.02238(15) 0.85913(19)
H5 H 0.1678 -0.0779 0.8938
C7 C 0.2739(3) 0.05173(18) 0.9127(2)
C8 C 0.4080(3) 0.08484(19) 0.8632(2)
C9 C 0.5134(3) 0.1577(2) 0.9218(2)
C10 C 0.4936(3) 0.19232(19) 1.0261(2)
H6 H 0.5687 0.2412 1.0638
C11 C 0.3639(4) 0.1552(2) 1.0748(2)
H7 H 0.3510 0.1773 1.1472
C12 C 0.2528(4) 0.0856(2) 1.0172(3)
H8 H 0.1616 0.0609 1.0494
C13 C 0.4340(4) 0.0458(2) 0.7519(3)
H9 H 0.3848 0.0902 0.6901
H10 H 0.3744 -0.0158 0.7367
H11 H 0.5598 0.0374 0.7561
I1 I 0.70391(8) 0.22223(5) 0.84856(4)
N3? N 0.022(5) 0.069(2) 0.672(3)
C14? C 0.056(3) -0.0182(18) 0.720(2)
C15? C -0.067(3) -0.095(2) 0.692(3)
C16? C -0.223(4) -0.078(3) 0.613(4)
H12? H -0.3063 -0.1275 0.5920
C17? C -0.257(5) 0.012(3) 0.565(4)
H13? H -0.3642 0.0245 0.5120
C18? C -0.132(6) 0.082(3) 0.596(4)
H14? H -0.1558 0.1425 0.5616
C19? C -0.027(5) -0.189(2) 0.746(4)
O3? O -0.152(7) -0.253(3) 0.713(6)
H15? H -0.1108 -0.3101 0.7453
O4? O 0.109(5) -0.206(3) 0.816(3)
N4? N 0.213(3) -0.0330(16) 0.793(2)
H16? H 0.2369 -0.0913 0.8180
C20? C 0.342(3) 0.0387(14) 0.8314(16)
C21? C 0.341(3) 0.0869(12) 0.9323(14)
C22? C 0.470(3) 0.1568(17) 0.9657(15)
C23? C 0.595(4) 0.176(2) 0.904(2)
H17? H 0.6829 0.2228 0.9303
C24? C 0.592(5) 0.127(3) 0.804(2)
H18? H 0.6764 0.1412 0.7598
C25? C 0.465(4) 0.058(3) 0.768(2)
H19? H 0.4625 0.0239 0.6991
C26? C 0.207(4) 0.066(3) 1.002(3)
H20? H 0.1272 0.0163 0.9641
H21? H 0.1404 0.1241 1.0082
H22? H 0.2675 0.0447 1.0780
I2? I 0.4783(6) 0.2319(3) 1.1174(4)
I3? I 0.7608(11) 0.1836(8) 0.8797(7)
loop_
_geom_bond_atom_site_label_1
_geom_bond_atom_site_label_2
_geom_bond_site_symmetry_1
_geom_bond_site_symmetry_2
N1 C1 1_555 1_555
C1 C2 1_555 1_555
C2 C3 1_555 1_555
C3 H1 1_555 1_555
C4 C3 1_555 1_555
H2 C4 1_555 1_555
C5 N1 1_555 1_555
H3 C5 1_555 1_555
C6 C2 1_555 1_555
O1 C6 1_555 1_555
H4 O1 1_555 1_555
O2 C6 1_555 1_555
N2 C1 1_555 1_555
H5 N2 1_555 1_555
C7 N2 1_555 1_555
C8 C7 1_555 1_555
C9 C8 1_555 1_555
C10 C9 1_555 1_555
H6 C10 1_555 1_555
C11 C10 1_555 1_555
H7 C11 1_555 1_555
C12 C7 1_555 1_555
H8 C12 1_555 1_555
C13 C8 1_555 1_555
H9 C13 1_555 1_555
H10 C13 1_555 1_555
H11 C13 1_555 1_555
I1 C9 1_555 1_555
C4 C5 1_555 1_555
C11 C12 1_555 1_555

#END
