
#######################################################################
#
#                 Cambridge Crystallographic Data Centre
#                                CCDC 
#
#######################################################################
#
# If this CIF has been generated from an entry in the Cambridge 
# Structural Database, then it will include bibliographic, chemical, 
# crystal, experimental, refinement or atomic coordinate data resulting 
# from the CCDC's data processing and validation procedures.
#
#######################################################################

data_LIJZAH
_chemical_name_common            
'1,1-[2,2-Bipyridine-5,5-diylbis(carbonyloxyoctane-8,1-diyl)]dipyridinium Ditosylate'
_chemical_formula_moiety         'C38 H48 N4 O4 2+,2(C7 H7 O3 S1 1-)'
_chemical_name_systematic        
"1,1'-(2,2'-Bipyridine-5,5'-diylbis(carbonyloxyoctane-8,1-diyl))dipyridinium bis(4-methylbenzenesulfonate)"
_symmetry_cell_setting           triclinic
_symmetry_space_group_name_H-M   'P -1'
_symmetry_Int_Tables_number      2
_space_group_name_Hall           '-P 1'
loop_
_symmetry_equiv_pos_site_id
_symmetry_equiv_pos_as_xyz
1 x,y,z
2 -x,-y,-z
_cell_length_a                   7.5487(4)
_cell_length_b                   12.3687(5)
_cell_length_c                   13.3085(6)
_cell_angle_alpha                86.885(4)
_cell_angle_beta                 79.430(4)
_cell_angle_gamma                78.079(4)
_cell_volume                     1194.98
_exptl_crystal_colour            yellow
_exptl_crystal_description       prism
_cell_formula_units_Z            1
_chemical_properties_physical    heat-sensitive
_exptl_crystal_recrystallization_method water
loop_
_atom_site_label
_atom_site_type_symbol
_atom_site_fract_x
_atom_site_fract_y
_atom_site_fract_z
S1 S 0.12470(6) 0.28341(3) 0.87729(3)
O1 O 0.00938(16) 0.38347(9) 0.92437(10)
O2 O 0.24057(17) 0.22116(10) 0.94521(10)
C1 C -0.0336(2) 0.19905(13) 0.86092(14)
O3 O 0.22321(18) 0.30317(11) 0.77599(10)
C2 C -0.2419(2) 0.14633(13) 0.76517(14)
H1 H -0.2949 0.1536 0.7051
C3 C -0.0878(3) 0.12744(14) 0.93937(14)
H2 H -0.0358 0.1209 0.9998
C4 C -0.1107(2) 0.20788(13) 0.77315(14)
H3 H -0.0740 0.2559 0.7187
C5 C -0.2174(3) 0.06560(15) 0.92988(15)
H4 H -0.2520 0.0164 0.9838
C6 C -0.2977(2) 0.07429(13) 0.84302(14)
C7 C -0.4413(2) 0.00882(15) 0.83321(16)
H5 H -0.5637 0.0564 0.8480
H6 H -0.4339 -0.0537 0.8818
H7 H -0.4196 -0.0188 0.7635
O4 O 0.47280(15) 0.24149(9) 0.51124(9)
O5 O 0.41969(17) 0.34038(10) 0.36896(10)
N1 N 0.87519(19) 0.39600(11) 0.55688(11)
C8 C -0.6177(2) -0.37993(14) 0.93339(14)
H8 H -0.7211 -0.3356 0.9740
N2 N -0.30310(18) -0.41025(11) 0.85620(11)
C9 C 0.0378(2) -0.13129(13) 0.66996(13)
H9 H -0.0850 -0.0828 0.6732
H10 H 0.0686 -0.1698 0.6039
C10 C 0.3276(2) 0.18269(14) 0.50369(14)
H11 H 0.3520 0.1465 0.4366
H12 H 0.2073 0.2346 0.5108
C11 C 0.3264(2) 0.09748(13) 0.58896(14)
H13 H 0.2944 0.1354 0.6554
H14 H 0.4512 0.0511 0.5846
C12 C 0.8370(2) 0.50953(13) 0.40636(13)
H15 H 0.8722 0.5670 0.3617
C13 C 0.6498(2) 0.37506(13) 0.45703(13)
C14 C 0.0281(2) -0.21711(14) 0.75656(14)
H16 H 0.1470 -0.2704 0.7497
H17 H 0.0080 -0.1797 0.8228
C15 C -0.6340(2) -0.47722(14) 0.89170(14)
H18 H -0.7483 -0.5007 0.9043
C16 C -0.1261(2) -0.27957(13) 0.75616(13)
H19 H -0.2460 -0.2272 0.7688
H20 H -0.1118 -0.3119 0.6880
C17 C 0.5017(2) 0.31888(13) 0.43937(14)
C18 C 0.1789(2) -0.05972(14) 0.67308(14)
H21 H 0.1467 -0.0194 0.7383
H22 H 0.3016 -0.1081 0.6712
C19 C 0.6988(2) 0.45822(13) 0.38985(13)
H23 H 0.6380 0.4796 0.3333
C20 C 0.9237(2) 0.47528(12) 0.48970(13)
C21 C -0.4493(2) -0.34863(13) 0.91505(14)
H24 H -0.4365 -0.2829 0.9443
C22 C -0.3168(2) -0.50382(13) 0.81364(13)
H25 H -0.2129 -0.5454 0.7711
C23 C -0.1254(2) -0.37143(14) 0.83731(13)
H26 H -0.0234 -0.4342 0.8145
H27 H -0.1045 -0.3439 0.9017
C24 C -0.4824(2) -0.53945(14) 0.83175(14)
H28 H -0.4916 -0.6063 0.8031
C25 C 0.1890(2) 0.02349(14) 0.58440(14)
H29 H 0.0655 0.0704 0.5851
H30 H 0.2247 -0.0169 0.5192
C26 C 0.7403(2) 0.34862(13) 0.53958(14)
H31 H 0.7040 0.2934 0.5867
O4A O 1.52720(15) 0.75851(9) 0.48876(9)
O5A O 1.58031(17) 0.65962(10) 0.63104(10)
N1A N 1.12481(19) 0.60400(11) 0.44312(11)
C8A C 2.6177(2) 1.37993(14) 0.06661(14)
H8A H 2.7211 1.3356 0.0260
N2A N 2.30310(18) 1.41025(11) 0.14380(11)
C9A C 1.9622(2) 1.13129(13) 0.33004(13)
H9A H 2.0850 1.0828 0.3268
H10A H 1.9314 1.1698 0.3961
C10A C 1.6724(2) 0.81731(14) 0.49631(14)
H11A H 1.6480 0.8535 0.5634
H12A H 1.7927 0.7654 0.4892
C11A C 1.6736(2) 0.90252(13) 0.41104(14)
H13A H 1.7056 0.8646 0.3446
H14A H 1.5488 0.9489 0.4154
C12A C 1.1630(2) 0.49047(13) 0.59364(13)
H15A H 1.1278 0.4330 0.6383
C13A C 1.3502(2) 0.62494(13) 0.54297(13)
C14A C 1.9719(2) 1.21711(14) 0.24344(14)
H16A H 1.8530 1.2704 0.2503
H17A H 1.9920 1.1797 0.1772
C15A C 2.6340(2) 1.47722(14) 0.10830(14)
H18A H 2.7483 1.5007 0.0957
C16A C 2.1261(2) 1.27957(13) 0.24384(13)
H19A H 2.2460 1.2272 0.2312
H20A H 2.1118 1.3119 0.3120
C17A C 1.4983(2) 0.68112(13) 0.56063(14)
C18A C 1.8211(2) 1.05972(14) 0.32692(14)
H21A H 1.8533 1.0194 0.2617
H22A H 1.6984 1.1081 0.3288
C19A C 1.3012(2) 0.54178(13) 0.61015(13)
H23A H 1.3620 0.5204 0.6667
C20A C 1.0763(2) 0.52472(12) 0.51030(13)
C21A C 2.4493(2) 1.34863(13) 0.08495(14)
H24A H 2.4365 1.2829 0.0557
C22A C 2.3168(2) 1.50382(13) 0.18636(13)
H25A H 2.2129 1.5454 0.2289
C23A C 2.1254(2) 1.37143(14) 0.16269(13)
H26A H 2.0234 1.4342 0.1855
H27A H 2.1045 1.3439 0.0983
C24A C 2.4824(2) 1.53945(14) 0.16825(14)
H28A H 2.4916 1.6063 0.1969
C25A C 1.8110(2) 0.97651(14) 0.41560(14)
H29A H 1.9345 0.9296 0.4149
H30A H 1.7753 1.0169 0.4808
C26A C 1.2597(2) 0.65138(13) 0.46042(14)
H31A H 1.2960 0.7066 0.4133
loop_
_geom_bond_atom_site_label_1
_geom_bond_atom_site_label_2
_geom_bond_site_symmetry_1
_geom_bond_site_symmetry_2
S1 O1 1_555 1_555
O2 S1 1_555 1_555
C1 S1 1_555 1_555
O3 S1 1_555 1_555
C2 H1 1_555 1_555
C3 C1 1_555 1_555
H2 C3 1_555 1_555
C4 C1 1_555 1_555
H3 C4 1_555 1_555
C5 C3 1_555 1_555
H4 C5 1_555 1_555
C6 C2 1_555 1_555
C7 C6 1_555 1_555
H5 C7 1_555 1_555
H6 C7 1_555 1_555
H7 C7 1_555 1_555
O4 C10 1_555 1_555
O5 C17 1_555 1_555
N1 C20 1_555 1_555
C8 H8 1_555 1_555
N2 C21 1_555 1_555
C9 H9 1_555 1_555
H10 C9 1_555 1_555
C10 H11 1_555 1_555
H12 C10 1_555 1_555
C11 C10 1_555 1_555
H13 C11 1_555 1_555
H14 C11 1_555 1_555
C12 H15 1_555 1_555
C13 C17 1_555 1_555
C14 C9 1_555 1_555
H16 C14 1_555 1_555
H17 C14 1_555 1_555
C15 C8 1_555 1_555
H18 C15 1_555 1_555
C16 C14 1_555 1_555
H19 C16 1_555 1_555
H20 C16 1_555 1_555
C17 O4 1_555 1_555
C18 C9 1_555 1_555
H21 C18 1_555 1_555
H22 C18 1_555 1_555
C19 C12 1_555 1_555
H23 C19 1_555 1_555
C20 C12 1_555 1_555
C21 C8 1_555 1_555
H24 C21 1_555 1_555
C22 N2 1_555 1_555
H25 C22 1_555 1_555
C23 N2 1_555 1_555
H26 C23 1_555 1_555
H27 C23 1_555 1_555
C24 C15 1_555 1_555
H28 C24 1_555 1_555
C25 C11 1_555 1_555
H29 C25 1_555 1_555
H30 C25 1_555 1_555
C26 N1 1_555 1_555
H31 C26 1_555 1_555
O4A C10A 1_555 1_555
O5A C17A 1_555 1_555
N1A C20A 1_555 1_555
C8A H8A 1_555 1_555
N2A C21A 1_555 1_555
C9A H9A 1_555 1_555
H10A C9A 1_555 1_555
C10A H11A 1_555 1_555
H12A C10A 1_555 1_555
C11A C10A 1_555 1_555
H13A C11A 1_555 1_555
H14A C11A 1_555 1_555
C12A H15A 1_555 1_555
C13A C17A 1_555 1_555
C14A C9A 1_555 1_555
H16A C14A 1_555 1_555
H17A C14A 1_555 1_555
C15A C8A 1_555 1_555
H18A C15A 1_555 1_555
C16A C14A 1_555 1_555
H19A C16A 1_555 1_555
H20A C16A 1_555 1_555
C17A O4A 1_555 1_555
C18A C9A 1_555 1_555
H21A C18A 1_555 1_555
H22A C18A 1_555 1_555
C19A C12A 1_555 1_555
H23A C19A 1_555 1_555
C20A C20 1_555 1_555
C21A C8A 1_555 1_555
H24A C21A 1_555 1_555
C22A N2A 1_555 1_555
H25A C22A 1_555 1_555
C23A N2A 1_555 1_555
H26A C23A 1_555 1_555
H27A C23A 1_555 1_555
C24A C15A 1_555 1_555
H28A C24A 1_555 1_555
C25A C11A 1_555 1_555
H29A C25A 1_555 1_555
H30A C25A 1_555 1_555
C26A N1A 1_555 1_555
H31A C26A 1_555 1_555
C2 C4 1_555 1_555
C5 C6 1_555 1_555
C13 C19 1_555 1_555
C13 C26 1_555 1_555
C16 C23 1_555 1_555
C18 C25 1_555 1_555
C22 C24 1_555 1_555
C12A C20A 1_555 1_555
C13A C19A 1_555 1_555
C13A C26A 1_555 1_555
C16A C23A 1_555 1_555
C18A C25A 1_555 1_555
C22A C24A 1_555 1_555

#END
