
#######################################################################
#
#                 Cambridge Crystallographic Data Centre
#                                CCDC 
#
#######################################################################
#
# If this CIF has been generated from an entry in the Cambridge 
# Structural Database, then it will include bibliographic, chemical, 
# crystal, experimental, refinement or atomic coordinate data resulting 
# from the CCDC's data processing and validation procedures.
#
#######################################################################

data_LIKFUJ
_chemical_formula_moiety         'C12 H14 F1 N1 O3'
_chemical_name_systematic        
'methyl 3-(acetylamino)-2-fluoro-3-phenylpropanoate'
_symmetry_cell_setting           orthorhombic
_symmetry_space_group_name_H-M   'P 21 21 21'
_symmetry_Int_Tables_number      19
_space_group_name_Hall           'P 2ac 2ab'
loop_
_symmetry_equiv_pos_site_id
_symmetry_equiv_pos_as_xyz
1 x,y,z
2 1/2-x,-y,1/2+z
3 -x,1/2+y,1/2-z
4 1/2+x,1/2-y,-z
_cell_length_a                   8.9101(3)
_cell_length_b                   9.4553(3)
_cell_length_c                   14.4099(4)
_cell_angle_alpha                90
_cell_angle_beta                 90
_cell_angle_gamma                90
_cell_volume                     1214
_exptl_crystal_colour            colorless
_exptl_crystal_description       block
_cell_formula_units_Z            4
loop_
_atom_site_label
_atom_site_type_symbol
_atom_site_fract_x
_atom_site_fract_y
_atom_site_fract_z
C1 C 0.7277(2) 0.6592(2) 0.86927(15)
C2 C 0.7943(3) 0.7615(3) 0.92293(18)
H1 H 0.8505 0.8325 0.8950
C3 C 0.7780(4) 0.7594(4) 1.01837(19)
H2 H 0.8224 0.8296 1.0543
C4 C 0.6967(3) 0.6542(4) 1.06024(19)
H3 H 0.6865 0.6526 1.1245
C5 C 0.6311(3) 0.5522(4) 1.00762(19)
H4 H 0.5761 0.4807 1.0360
C6 C 0.6455(3) 0.5540(3) 0.91264(18)
H5 H 0.5996 0.4841 0.8773
C7 C 0.7383(2) 0.6597(2) 0.76407(15)
H6 H 0.7217 0.5624 0.7430
C8 C 0.6158(3) 0.7510(3) 0.72099(17)
H7 H 0.5206 0.7284 0.7516
C9 C 0.5965(2) 0.7289(3) 0.61758(16)
C10 C 0.4902(4) 0.5741(4) 0.5076(2)
H8 H 0.4230 0.6433 0.4821
H9 H 0.4437 0.4826 0.5054
H10 H 0.5812 0.5725 0.4720
C11 C 0.9992(2) 0.6114(2) 0.72777(13)
C12 C 1.1469(3) 0.6690(3) 0.69586(17)
H11 H 1.2251 0.6355 0.7360
H12 H 1.1441 0.7705 0.6975
H13 H 1.1662 0.6380 0.6336
F1 F 0.6472(2) 0.89196(17) 0.73654(13)
N1 N 0.88382(19) 0.70364(18) 0.72947(12)
H14 H 0.907(3) 0.7921(15) 0.7265(17)
O1 O 0.6381(2) 0.8084(2) 0.55952(14)
O2 O 0.5243(2) 0.6100(2) 0.60291(12)
O3 O 0.98240(19) 0.48749(16) 0.74874(13)
loop_
_geom_bond_atom_site_label_1
_geom_bond_atom_site_label_2
_geom_bond_site_symmetry_1
_geom_bond_site_symmetry_2
C1 C2 1_555 1_555
C2 H1 1_555 1_555
C3 C2 1_555 1_555
H2 C3 1_555 1_555
C4 C3 1_555 1_555
H3 C4 1_555 1_555
C5 C4 1_555 1_555
H4 C5 1_555 1_555
C6 C1 1_555 1_555
H5 C6 1_555 1_555
C7 C1 1_555 1_555
H6 C7 1_555 1_555
C8 C7 1_555 1_555
H7 C8 1_555 1_555
C9 C8 1_555 1_555
C10 H8 1_555 1_555
H9 C10 1_555 1_555
H10 C10 1_555 1_555
C11 C12 1_555 1_555
C12 H11 1_555 1_555
H12 C12 1_555 1_555
H13 C12 1_555 1_555
F1 C8 1_555 1_555
N1 C7 1_555 1_555
H14 N1 1_555 1_555
O1 C9 1_555 1_555
O2 C9 1_555 1_555
O3 C11 1_555 1_555
C5 C6 1_555 1_555
C10 O2 1_555 1_555
C11 N1 1_555 1_555

#END
