
#######################################################################
#
#                 Cambridge Crystallographic Data Centre
#                                CCDC 
#
#######################################################################
#
# If this CIF has been generated from an entry in the Cambridge 
# Structural Database, then it will include bibliographic, chemical, 
# crystal, experimental, refinement or atomic coordinate data resulting 
# from the CCDC's data processing and validation procedures.
#
#######################################################################

data_LILFIY
_chemical_formula_moiety         'C7 H7 N1 O2,C5 H7 N3 O1,H2 O1'
_chemical_name_systematic        
'4-aminobenzoic acid 2-amino-6-methylpyrimidin-4(3H)-one monohydrate'
_symmetry_cell_setting           monoclinic
_symmetry_space_group_name_H-M   'P 21/c'
_symmetry_Int_Tables_number      14
_space_group_name_Hall           '-P 2ybc'
loop_
_symmetry_equiv_pos_site_id
_symmetry_equiv_pos_as_xyz
1 x,y,z
2 -x,1/2+y,1/2-z
3 -x,-y,-z
4 x,1/2-y,1/2+z
_cell_length_a                   9.2771(3)
_cell_length_b                   18.0908(5)
_cell_length_c                   8.2883(4)
_cell_angle_alpha                90
_cell_angle_beta                 101.780(4)
_cell_angle_gamma                90
_cell_volume                     1361.73
_exptl_crystal_colour            colorless
_exptl_crystal_description       block
_cell_formula_units_Z            4
loop_
_atom_site_label
_atom_site_type_symbol
_atom_site_fract_x
_atom_site_fract_y
_atom_site_fract_z
O1 O 0.36564(10) 0.37639(6) 1.21974(14)
H1 H 0.383186 0.389623 1.316401
O2 O 0.16399(10) 0.44409(5) 1.21583(13)
N1 N 0.04220(16) 0.30530(8) 0.48949(18)
C1 C 0.18979(14) 0.37923(7) 0.97350(18)
C2 C 0.27244(15) 0.32856(7) 0.90197(19)
C3 C 0.22499(15) 0.30392(7) 0.74294(19)
C4 C 0.09253(15) 0.33031(7) 0.64550(19)
C5 C 0.01192(16) 0.38238(8) 0.7165(2)
C6 C 0.05903(15) 0.40559(8) 0.8765(2)
C7 C 0.23766(14) 0.40298(7) 1.14512(19)
H2 H 0.2811(15) 0.2681(8) 0.6954(19)
H3 H 0.3675(15) 0.3129(8) 0.9680(19)
H4 H -0.0806(17) 0.4023(8) 0.647(2)
H5 H 0.0016(17) 0.4402(8) 0.921(2)
H6 H -0.028(2) 0.3313(9) 0.414(2)
H7 H 0.098(2) 0.2758(11) 0.441(3)
O3 O 0.36136(11) 0.56211(6) -0.01131(14)
N2 N 0.53480(12) 0.53830(6) 0.21699(16)
N3 N 0.54492(12) 0.60009(6) 0.46757(16)
N4 N 0.72064(13) 0.51345(7) 0.44335(18)
C8 C 0.41239(14) 0.57694(8) 0.13625(19)
C9 C 0.60005(14) 0.55130(7) 0.37613(19)
C10 C 0.42237(14) 0.63924(7) 0.39375(19)
C11 C 0.35755(15) 0.63002(8) 0.2331(2)
C12 C 0.36529(18) 0.69234(10) 0.5041(2)
H8 H 0.2741(16) 0.6582(8) 0.1832(19)
H9 H 0.5732(17) 0.5033(8) 0.151(2)
H10 H 0.7649(19) 0.4822(10) 0.379(2)
H11 H 0.440(2) 0.7273(10) 0.554(2)
H12 H 0.7661(18) 0.5260(9) 0.552(2)
H13 H 0.333(2) 0.6641(11) 0.595(3)
H14 H 0.281(2) 0.7209(10) 0.443(3)
O4 O 0.12560(13) 0.58661(6) 0.74249(15)
H16 H 0.040(3) 0.5703(13) 0.769(3)
H17 H 0.196(2) 0.5863(11) 0.839(3)
H15? H 0.584826 0.606862 0.569623
loop_
_geom_bond_atom_site_label_1
_geom_bond_atom_site_label_2
_geom_bond_site_symmetry_1
_geom_bond_site_symmetry_2
O1 H1 1_555 1_555
O2 C7 1_555 1_555
N1 C4 1_555 1_555
C1 C2 1_555 1_555
C2 C3 1_555 1_555
C3 C4 1_555 1_555
C4 C5 1_555 1_555
C5 C6 1_555 1_555
C6 C1 1_555 1_555
C7 O1 1_555 1_555
H2 C3 1_555 1_555
H3 C2 1_555 1_555
H4 C5 1_555 1_555
H5 C6 1_555 1_555
H6 N1 1_555 1_555
H7 N1 1_555 1_555
O3 C8 1_555 1_555
N2 C8 1_555 1_555
N3 C9 1_555 1_555
N4 C9 1_555 1_555
C8 C11 1_555 1_555
C9 N2 1_555 1_555
C10 N3 1_555 1_555
C11 C10 1_555 1_555
C12 C10 1_555 1_555
H8 C11 1_555 1_555
H9 N2 1_555 1_555
H10 N4 1_555 1_555
H11 C12 1_555 1_555
H12 N4 1_555 1_555
H13 C12 1_555 1_555
H14 C12 1_555 1_555
O4 H16 1_555 1_555
H17 O4 1_555 1_555
C1 C7 1_555 1_555

#END
