
#######################################################################
#
#                 Cambridge Crystallographic Data Centre
#                                CCDC 
#
#######################################################################
#
# If this CIF has been generated from an entry in the Cambridge 
# Structural Database, then it will include bibliographic, chemical, 
# crystal, experimental, refinement or atomic coordinate data resulting 
# from the CCDC's data processing and validation procedures.
#
#######################################################################

data_LIMCES
_chemical_formula_moiety         'C22 H19 Cl1 N2 O4 S1'
_chemical_name_systematic        
1-(4-chlorophenyl)-2-[2-(4-methoxyphenyl)hydrazinylidene]-2-[(4-methylphenyl)sulfonyl]ethan-1-one
_symmetry_cell_setting           triclinic
_symmetry_space_group_name_H-M   'P -1'
_symmetry_Int_Tables_number      2
_space_group_name_Hall           '-P 1'
loop_
_symmetry_equiv_pos_site_id
_symmetry_equiv_pos_as_xyz
1 x,y,z
2 -x,-y,-z
_cell_length_a                   7.934(3)
_cell_length_b                   11.694(5)
_cell_length_c                   12.083(4)
_cell_angle_alpha                98.357(7)
_cell_angle_beta                 106.844(2)
_cell_angle_gamma                104.871(9)
_cell_volume                     1007.35
_exptl_crystal_colour            colorless
_exptl_crystal_description       prism
_cell_formula_units_Z            2
loop_
_atom_site_label
_atom_site_type_symbol
_atom_site_fract_x
_atom_site_fract_y
_atom_site_fract_z
Cl1 Cl -0.50078(7) -0.14924(4) -0.26037(3)
S1 S 0.12506(5) 0.31081(3) 0.43970(3)
O1 O -0.05032(16) 0.04956(10) 0.32190(10)
O2 O 0.32483(17) 0.60520(10) -0.14883(9)
O3 O -0.02277(15) 0.27231(11) 0.48502(10)
O4 O 0.20207(15) 0.43976(9) 0.44888(9)
N1 N 0.08954(16) 0.29512(11) 0.20311(10)
N2 N 0.19162(17) 0.40776(12) 0.22184(11)
C1 C 0.04983(19) 0.24184(13) 0.28458(12)
C2 C -0.0551(2) 0.10990(14) 0.24733(13)
C3 C -0.16102(19) 0.05151(13) 0.11854(13)
C4 C -0.24872(19) 0.11143(13) 0.03969(13)
H1 H -0.2369 0.1946 0.0662
C5 C -0.3531(2) 0.04998(13) -0.07727(13)
H2 H -0.4133 0.0904 -0.1313
C6 C -0.3685(2) -0.07097(14) -0.11416(13)
C7 C -0.2841(2) -0.13283(14) -0.03719(14)
H3 H -0.2967 -0.2161 -0.0640
C8 C -0.1814(2) -0.07091(14) 0.07927(14)
H4 H -0.1239 -0.1123 0.1334
C9 C 0.22089(19) 0.45372(13) 0.12392(12)
C10 C 0.1240(2) 0.38785(13) 0.00776(13)
H5 H 0.0355 0.3099 -0.0081
C11 C 0.1560(2) 0.43573(14) -0.08622(13)
H6 H 0.0898 0.3903 -0.1660
C12 C 0.2845(2) 0.54948(14) -0.06306(13)
C13 C 0.3814(2) 0.61566(14) 0.05404(13)
H7 H 0.4695 0.6938 0.0700
C14 C 0.3498(2) 0.56788(13) 0.14737(13)
H8 H 0.4162 0.6131 0.2272
C15 C 0.2404(3) 0.53613(16) -0.26945(14)
H9 H 0.2848 0.5841 -0.3213
H10 H 0.1053 0.5162 -0.2929
H11 H 0.2731 0.4608 -0.2769
C16 C 0.30847(19) 0.25925(13) 0.50903(12)
C17 C 0.4842(2) 0.31758(13) 0.50834(12)
H12 H 0.5037 0.3851 0.4730
C18 C 0.6305(2) 0.27664(14) 0.55947(13)
H13 H 0.7511 0.3169 0.5599
C19 C 0.6028(2) 0.17659(14) 0.61053(13)
C20 C 0.4249(2) 0.11994(14) 0.61049(14)
H14 H 0.4048 0.0524 0.6457
C21 C 0.2771(2) 0.16031(14) 0.56012(13)
H15 H 0.1566 0.1211 0.5606
C22 C 0.7633(2) 0.13278(17) 0.66524(16)
H16 H 0.8565 0.1544 0.6270
H17 H 0.7190 0.0441 0.6537
H18 H 0.8189 0.1713 0.7506
H19 H 0.233(3) 0.4565(17) 0.2891(18)
loop_
_geom_bond_atom_site_label_1
_geom_bond_atom_site_label_2
_geom_bond_site_symmetry_1
_geom_bond_site_symmetry_2
Cl1 C6 1_555 1_555
S1 O3 1_555 1_555
O1 C2 1_555 1_555
O2 C12 1_555 1_555
O4 S1 1_555 1_555
N1 N2 1_555 1_555
N2 C9 1_555 1_555
C1 S1 1_555 1_555
C2 C1 1_555 1_555
C3 C2 1_555 1_555
C4 C3 1_555 1_555
H1 C4 1_555 1_555
C5 C4 1_555 1_555
H2 C5 1_555 1_555
C6 C5 1_555 1_555
C7 C6 1_555 1_555
H3 C7 1_555 1_555
C8 C3 1_555 1_555
H4 C8 1_555 1_555
C9 C10 1_555 1_555
C10 H5 1_555 1_555
C11 C10 1_555 1_555
H6 C11 1_555 1_555
C12 C11 1_555 1_555
C13 C12 1_555 1_555
H7 C13 1_555 1_555
C14 C9 1_555 1_555
H8 C14 1_555 1_555
C15 O2 1_555 1_555
H9 C15 1_555 1_555
H10 C15 1_555 1_555
H11 C15 1_555 1_555
C16 S1 1_555 1_555
C17 C16 1_555 1_555
H12 C17 1_555 1_555
C18 C17 1_555 1_555
H13 C18 1_555 1_555
C19 C18 1_555 1_555
C20 C19 1_555 1_555
H14 C20 1_555 1_555
C21 C16 1_555 1_555
H15 C21 1_555 1_555
C22 C19 1_555 1_555
H16 C22 1_555 1_555
H17 C22 1_555 1_555
H18 C22 1_555 1_555
H19 N2 1_555 1_555
N1 C1 1_555 1_555
C7 C8 1_555 1_555
C13 C14 1_555 1_555
C20 C21 1_555 1_555

#END
