
#######################################################################
#
#                 Cambridge Crystallographic Data Centre
#                                CCDC 
#
#######################################################################
#
# If this CIF has been generated from an entry in the Cambridge 
# Structural Database, then it will include bibliographic, chemical, 
# crystal, experimental, refinement or atomic coordinate data resulting 
# from the CCDC's data processing and validation procedures.
#
#######################################################################

data_LIMFOF
_chemical_formula_moiety         'C12 H13 N1 O1'
_chemical_name_systematic        2'-amino-5,6-dihydro[1,1'-biphenyl]-3(4H)-one
_symmetry_cell_setting           monoclinic
_symmetry_space_group_name_H-M   'P 21'
_symmetry_Int_Tables_number      4
_space_group_name_Hall           'P 2yb'
loop_
_symmetry_equiv_pos_site_id
_symmetry_equiv_pos_as_xyz
1 x,y,z
2 -x,1/2+y,-z
_cell_length_a                   7.0538(7)
_cell_length_b                   8.4543(7)
_cell_length_c                   8.3005(10)
_cell_angle_alpha                90
_cell_angle_beta                 99.725(10)
_cell_angle_gamma                90
_cell_volume                     487.887
_exptl_crystal_colour            yellow
_exptl_crystal_description       block
_cell_formula_units_Z            2
_exptl_crystal_recrystallization_method 'ethyl acetate'
loop_
_atom_site_label
_atom_site_type_symbol
_atom_site_fract_x
_atom_site_fract_y
_atom_site_fract_z
C1 C 0.1691(3) 0.6246(3) 0.3103(3)
H1 H 0.2239 0.7254 0.2866
H2 H 0.0593 0.6043 0.2254
C2 C 0.3181(4) 0.4955(3) 0.3056(3)
H3 H 0.2583 0.3926 0.3101
H4 H 0.3683 0.5022 0.2040
C3 C 0.4817(4) 0.5132(3) 0.4492(3)
H5 H 0.5687 0.4242 0.4512
H6 H 0.5533 0.6088 0.4354
C4 C 0.4082(3) 0.5211(2) 0.6089(3)
C5 C 0.2302(3) 0.5749(3) 0.6147(3)
H7 H 0.1868 0.5736 0.7145
C6 C 0.1020(3) 0.6353(3) 0.4713(3)
O1 O -0.0516(2) 0.6985(2) 0.4841(2)
C7 C 0.5410(3) 0.4717(3) 0.7589(3)
C8 C 0.7301(4) 0.5274(3) 0.7857(3)
H8 H 0.7702 0.5934 0.7083
C9 C 0.8593(3) 0.4871(3) 0.9238(3)
H9 H 0.9838 0.5273 0.9403
C10 C 0.8010(4) 0.3861(3) 1.0376(3)
H10 H 0.8865 0.3584 1.1312
C11 C 0.6162(3) 0.3266(3) 1.0121(3)
H11 H 0.5794 0.2582 1.0890
C12 C 0.4829(3) 0.3666(3) 0.8739(3)
N1 N 0.3003(3) 0.3036(3) 0.8540(3)
H12 H 0.290(4) 0.224(3) 0.909(4)
H13 H 0.228(4) 0.300(3) 0.751(4)
loop_
_geom_bond_atom_site_label_1
_geom_bond_atom_site_label_2
_geom_bond_site_symmetry_1
_geom_bond_site_symmetry_2
C1 H1 1_555 1_555
H2 C1 1_555 1_555
C2 C1 1_555 1_555
H3 C2 1_555 1_555
H4 C2 1_555 1_555
C3 C2 1_555 1_555
H5 C3 1_555 1_555
H6 C3 1_555 1_555
C4 C3 1_555 1_555
C5 C4 1_555 1_555
H7 C5 1_555 1_555
C6 C1 1_555 1_555
O1 C6 1_555 1_555
C7 C4 1_555 1_555
C8 C7 1_555 1_555
H8 C8 1_555 1_555
C9 C8 1_555 1_555
H9 C9 1_555 1_555
C10 C9 1_555 1_555
H10 C10 1_555 1_555
C11 C10 1_555 1_555
H11 C11 1_555 1_555
C12 C7 1_555 1_555
N1 C12 1_555 1_555
H12 N1 1_555 1_555
H13 N1 1_555 1_555
C5 C6 1_555 1_555
C11 C12 1_555 1_555

#END
