
#######################################################################
#
#                 Cambridge Crystallographic Data Centre
#                                CCDC 
#
#######################################################################
#
# If this CIF has been generated from an entry in the Cambridge 
# Structural Database, then it will include bibliographic, chemical, 
# crystal, experimental, refinement or atomic coordinate data resulting 
# from the CCDC's data processing and validation procedures.
#
#######################################################################

data_LIMHAQ01
_chemical_formula_moiety         'C40 H58 S4'
_chemical_name_systematic        
3,3'''-didodecyl-2,2':5',2'':5'',2'''-quaterthiophene
_symmetry_cell_setting           triclinic
_symmetry_space_group_name_H-M   'P -1'
_symmetry_Int_Tables_number      2
_space_group_name_Hall           '-P 1'
loop_
_symmetry_equiv_pos_site_id
_symmetry_equiv_pos_as_xyz
1 x,y,z
2 -x,-y,-z
_cell_length_a                   5.5885(4)
_cell_length_b                   12.2666(7)
_cell_length_c                   14.3782(10)
_cell_angle_alpha                99.008(4)
_cell_angle_beta                 93.715(4)
_cell_angle_gamma                100.726(4)
_cell_volume                     951.996
_exptl_crystal_colour            yellow
_exptl_crystal_description       plate
_cell_formula_units_Z            1
_exptl_crystal_recrystallization_method 2-propanol
loop_
_atom_site_label
_atom_site_type_symbol
_atom_site_fract_x
_atom_site_fract_y
_atom_site_fract_z
S1 S 0.28255(16) 0.44080(7) 0.08009(7)
C1 C 0.0234(7) 0.4463(3) 0.0107(3)
S2 S 0.2819(2) 0.08502(8) 0.08047(9)
C2 C -0.1171(7) 0.3405(3) -0.0167(3)
H1 H -0.2653 0.3256 -0.0542
C3 C -0.0145(7) 0.2571(3) 0.0178(3)
H2 H -0.0890 0.1812 0.0051
C4 C 0.2037(6) 0.2962(3) 0.0716(3)
C5 C 0.3539(7) 0.2302(3) 0.1148(3)
C6 C 0.5582(7) 0.2607(3) 0.1802(3)
C7 C 0.6488(8) 0.1658(3) 0.2008(3)
H3 H 0.7848 0.1710 0.2434
C8 C 0.5169(9) 0.0660(3) 0.1522(4)
H4 H 0.5521 -0.0040 0.1578
C9 C 0.6754(7) 0.3803(3) 0.2227(3)
H5 H 0.5529 0.4150 0.2539
H6 H 0.7208 0.4203 0.1714
C10 C 0.8990(7) 0.3982(3) 0.2929(3)
H7 H 1.0260 0.3661 0.2623
H8 H 0.8571 0.3592 0.3451
C11 C 0.9962(8) 0.5224(3) 0.3309(3)
H9 H 0.8666 0.5532 0.3606
H10 H 1.0333 0.5603 0.2777
C12 C 1.2222(7) 0.5509(3) 0.4017(3)
H11 H 1.3575 0.5259 0.3715
H12 H 1.1907 0.5109 0.4542
C13 C 1.2928(8) 0.6768(3) 0.4391(3)
H13 H 1.1570 0.7003 0.4700
H14 H 1.3162 0.7158 0.3857
C14 C 1.5224(7) 0.7145(3) 0.5086(3)
H15 H 1.6602 0.6919 0.4786
H16 H 1.5000 0.6777 0.5633
C15 C 1.5780(8) 0.8421(3) 0.5407(3)
H17 H 1.5991 0.8780 0.4854
H18 H 1.4380 0.8640 0.5695
C16 C 1.8048(7) 0.8864(3) 0.6108(3)
H19 H 1.9455 0.8635 0.5834
H20 H 1.7824 0.8539 0.6678
C17 C 1.8525(8) 1.0152(4) 0.6365(3)
H21 H 1.8738 1.0468 0.5790
H22 H 1.7097 1.0372 0.6628
C18 C 2.0748(8) 1.0654(3) 0.7066(3)
H23 H 2.2183 1.0442 0.6801
H24 H 2.0544 1.0338 0.7640
C19 C 2.1177(9) 1.1927(4) 0.7315(4)
H25 H 2.1357 1.2242 0.6739
H26 H 1.9749 1.2138 0.7586
C20 C 2.3416(10) 1.2437(4) 0.8006(4)
H27 H 2.3587 1.3241 0.8134
H28 H 2.4845 1.2247 0.7738
H29 H 2.3234 1.2145 0.8585
S1A S -0.28255(16) 0.55920(7) -0.08009(7)
C1A C -0.0234(7) 0.5537(3) -0.0107(3)
S2A S -0.2819(2) 0.91498(8) -0.08047(9)
C2A C 0.1171(7) 0.6595(3) 0.0167(3)
H1A H 0.2653 0.6744 0.0542
C3A C 0.0145(7) 0.7429(3) -0.0178(3)
H2A H 0.0890 0.8188 -0.0051
C4A C -0.2037(6) 0.7038(3) -0.0716(3)
C5A C -0.3539(7) 0.7698(3) -0.1148(3)
C6A C -0.5582(7) 0.7393(3) -0.1802(3)
C7A C -0.6488(8) 0.8342(3) -0.2008(3)
H3A H -0.7848 0.8290 -0.2434
C8A C -0.5169(9) 0.9340(3) -0.1522(4)
H4A H -0.5521 1.0040 -0.1578
C9A C -0.6754(7) 0.6197(3) -0.2227(3)
H5A H -0.5529 0.5850 -0.2539
H6A H -0.7208 0.5797 -0.1714
C10A C -0.8990(7) 0.6018(3) -0.2929(3)
H7A H -1.0260 0.6339 -0.2623
H8A H -0.8571 0.6408 -0.3451
C11A C -0.9962(8) 0.4776(3) -0.3309(3)
H9A H -0.8666 0.4468 -0.3606
H10A H -1.0333 0.4397 -0.2777
C12A C -1.2222(7) 0.4491(3) -0.4017(3)
H11A H -1.3575 0.4741 -0.3715
H12A H -1.1907 0.4891 -0.4542
C13A C -1.2928(8) 0.3232(3) -0.4391(3)
H13A H -1.1570 0.2997 -0.4700
H14A H -1.3162 0.2842 -0.3857
C14A C -1.5224(7) 0.2855(3) -0.5086(3)
H15A H -1.6602 0.3081 -0.4786
H16A H -1.5000 0.3223 -0.5633
C15A C -1.5780(8) 0.1579(3) -0.5407(3)
H17A H -1.5991 0.1220 -0.4854
H18A H -1.4380 0.1360 -0.5695
C16A C -1.8048(7) 0.1136(3) -0.6108(3)
H19A H -1.9455 0.1365 -0.5834
H20A H -1.7824 0.1461 -0.6678
C17A C -1.8525(8) -0.0152(4) -0.6365(3)
H21A H -1.8738 -0.0468 -0.5790
H22A H -1.7097 -0.0372 -0.6628
C18A C -2.0748(8) -0.0654(3) -0.7066(3)
H23A H -2.2183 -0.0442 -0.6801
H24A H -2.0544 -0.0338 -0.7640
C19A C -2.1177(9) -0.1927(4) -0.7315(4)
H25A H -2.1357 -0.2242 -0.6739
H26A H -1.9749 -0.2138 -0.7586
C20A C -2.3416(10) -0.2437(4) -0.8006(4)
H27A H -2.3587 -0.3241 -0.8134
H28A H -2.4845 -0.2247 -0.7738
H29A H -2.3234 -0.2145 -0.8585
loop_
_geom_bond_atom_site_label_1
_geom_bond_atom_site_label_2
_geom_bond_site_symmetry_1
_geom_bond_site_symmetry_2
S1 C1 1_555 1_555
C1 C2 1_555 1_555
S2 C5 1_555 1_555
C2 H1 1_555 1_555
C3 C2 1_555 1_555
H2 C3 1_555 1_555
C4 S1 1_555 1_555
C5 C4 1_555 1_555
C6 C5 1_555 1_555
C7 C6 1_555 1_555
H3 C7 1_555 1_555
C8 S2 1_555 1_555
H4 C8 1_555 1_555
C9 C6 1_555 1_555
H5 C9 1_555 1_555
H6 C9 1_555 1_555
C10 C9 1_555 1_555
H7 C10 1_555 1_555
H8 C10 1_555 1_555
C11 C10 1_555 1_555
H9 C11 1_555 1_555
H10 C11 1_555 1_555
C12 C11 1_555 1_555
H11 C12 1_555 1_555
H12 C12 1_555 1_555
C13 C12 1_555 1_555
H13 C13 1_555 1_555
H14 C13 1_555 1_555
C14 C13 1_555 1_555
H15 C14 1_555 1_555
H16 C14 1_555 1_555
C15 C14 1_555 1_555
H17 C15 1_555 1_555
H18 C15 1_555 1_555
C16 C15 1_555 1_555
H19 C16 1_555 1_555
H20 C16 1_555 1_555
C17 C16 1_555 1_555
H21 C17 1_555 1_555
H22 C17 1_555 1_555
C18 C17 1_555 1_555
H23 C18 1_555 1_555
H24 C18 1_555 1_555
C19 C18 1_555 1_555
H25 C19 1_555 1_555
H26 C19 1_555 1_555
C20 C19 1_555 1_555
H27 C20 1_555 1_555
H28 C20 1_555 1_555
H29 C20 1_555 1_555
S1A C1A 1_555 1_555
C1A C1 1_555 1_555
S2A C5A 1_555 1_555
C2A C1A 1_555 1_555
H1A C2A 1_555 1_555
C3A C2A 1_555 1_555
H2A C3A 1_555 1_555
C4A S1A 1_555 1_555
C5A C4A 1_555 1_555
C6A C5A 1_555 1_555
C7A C6A 1_555 1_555
H3A C7A 1_555 1_555
C8A S2A 1_555 1_555
H4A C8A 1_555 1_555
C9A C6A 1_555 1_555
H5A C9A 1_555 1_555
H6A C9A 1_555 1_555
C10A C9A 1_555 1_555
H7A C10A 1_555 1_555
H8A C10A 1_555 1_555
C11A C10A 1_555 1_555
H9A C11A 1_555 1_555
H10A C11A 1_555 1_555
C12A C11A 1_555 1_555
H11A C12A 1_555 1_555
H12A C12A 1_555 1_555
C13A C12A 1_555 1_555
H13A C13A 1_555 1_555
H14A C13A 1_555 1_555
C14A C13A 1_555 1_555
H15A C14A 1_555 1_555
H16A C14A 1_555 1_555
C15A C14A 1_555 1_555
H17A C15A 1_555 1_555
H18A C15A 1_555 1_555
C16A C15A 1_555 1_555
H19A C16A 1_555 1_555
H20A C16A 1_555 1_555
C17A C16A 1_555 1_555
H21A C17A 1_555 1_555
H22A C17A 1_555 1_555
C18A C17A 1_555 1_555
H23A C18A 1_555 1_555
H24A C18A 1_555 1_555
C19A C18A 1_555 1_555
H25A C19A 1_555 1_555
H26A C19A 1_555 1_555
C20A C19A 1_555 1_555
H27A C20A 1_555 1_555
H28A C20A 1_555 1_555
H29A C20A 1_555 1_555
C3 C4 1_555 1_555
C7 C8 1_555 1_555
C3A C4A 1_555 1_555
C7A C8A 1_555 1_555

#END
