
#######################################################################
#
#                 Cambridge Crystallographic Data Centre
#                                CCDC 
#
#######################################################################
#
# If this CIF has been generated from an entry in the Cambridge 
# Structural Database, then it will include bibliographic, chemical, 
# crystal, experimental, refinement or atomic coordinate data resulting 
# from the CCDC's data processing and validation procedures.
#
#######################################################################

data_LIMJOG
_chemical_formula_moiety         'C56 H64 N2 O6 Si2'
_chemical_name_systematic        
1,4-bis(2S-(t-Butyl(diphenyl)silyloxymethyl)-2,3-dihydroindolyl)-2S,3S-dihydroxy-2,3-dimethylbutane-1,4-dione
_symmetry_cell_setting           monoclinic
_symmetry_space_group_name_H-M   'C 2'
_symmetry_Int_Tables_number      5
_space_group_name_Hall           'C 2y'
loop_
_symmetry_equiv_pos_site_id
_symmetry_equiv_pos_as_xyz
1 x,y,z
2 -x,y,-z
3 1/2+x,1/2+y,z
4 1/2-x,1/2+y,-z
_cell_length_a                   18.828(5)
_cell_length_b                   10.4438(16)
_cell_length_c                   13.293(4)
_cell_angle_alpha                90
_cell_angle_beta                 100.26(2)
_cell_angle_gamma                90
_cell_volume                     2572.08
_exptl_crystal_colour            colorless
_exptl_crystal_description       cubic
_cell_formula_units_Z            2
loop_
_atom_site_label
_atom_site_type_symbol
_atom_site_fract_x
_atom_site_fract_y
_atom_site_fract_z
Si1 Si 0.18449(4) 0.76618(7) 0.80055(5)
N1 N 0.12968(13) 0.6426(3) 0.46772(18)
O1 O 0.17202(11) 0.6751(2) 0.69696(15)
O2 O 0.01446(14) 0.6482(3) 0.3883(2)
O3 O 0.07871(11) 0.4584(2) 0.60553(15)
C1 C 0.15309(18) 0.7308(3) 0.3976(2)
C2 C 0.1137(3) 0.8258(5) 0.3396(3)
H1 H 0.0641 0.8415 0.3439
C3 C 0.1489(3) 0.8975(6) 0.2749(4)
H2 H 0.1230 0.9632 0.2331
C4 C 0.2201(3) 0.8755(6) 0.2701(4)
H3 H 0.2433 0.9266 0.2253
C5 C 0.2587(3) 0.7818(6) 0.3281(3)
H4 H 0.3084 0.7671 0.3237
C6 C 0.22513(19) 0.7081(4) 0.3935(3)
C7 C 0.25245(18) 0.6008(5) 0.4633(3)
H5 H 0.2995 0.6195 0.5016
H6 H 0.2546 0.5226 0.4260
C8 C 0.19559(15) 0.5918(3) 0.5343(2)
H7 H 0.1891 0.5054 0.5555
C9 C 0.21996(17) 0.6804(4) 0.6255(2)
H8 H 0.2675 0.6561 0.6590
H9 H 0.2223 0.7668 0.6015
C10 C 0.06124(15) 0.5975(3) 0.4516(2)
C11 C 0.04208(15) 0.4728(3) 0.5030(2)
C12 C 0.06666(19) 0.3605(3) 0.4435(3)
H10 H 0.0554 0.2813 0.4738
H11 H 0.1178 0.3659 0.4457
H12 H 0.0422 0.3640 0.3737
C13 C 0.14235(19) 0.6792(3) 0.9000(2)
C14 C 0.1676(3) 0.7388(5) 1.0062(3)
H13 H 0.2192 0.7319 1.0243
H14 H 0.1456 0.6942 1.0558
H15 H 0.1539 0.8274 1.0047
C15 C 0.1613(3) 0.5347(4) 0.9041(3)
H16 H 0.2127 0.5244 0.9217
H17 H 0.1443 0.4967 0.8385
H18 H 0.1386 0.4935 0.9547
C16 C 0.0598(2) 0.6904(5) 0.8723(3)
H19 H 0.0463 0.7791 0.8693
H20 H 0.0382 0.6479 0.9234
H21 H 0.0434 0.6513 0.8070
C17 C 0.13740(17) 0.9228(3) 0.7699(2)
C18 C 0.1482(2) 1.0253(4) 0.8388(3)
H22 H 0.1833 1.0167 0.9003
C19 C 0.1100(3) 1.1385(4) 0.8209(4)
H23 H 0.1174 1.2062 0.8706
C20 C 0.0623(3) 1.1533(5) 0.7334(4)
H24 H 0.0367 1.2328 0.7202
C21 C 0.0498(3) 1.0562(5) 0.6629(4)
H25 H 0.0150 1.0678 0.6014
C22 C 0.0875(2) 0.9397(4) 0.6803(3)
H26 H 0.0788 0.8723 0.6305
C23 C 0.28456(17) 0.8008(3) 0.8366(2)
C24 C 0.3342(2) 0.7113(4) 0.8845(3)
H27 H 0.3172 0.6313 0.9067
C25 C 0.4080(2) 0.7358(6) 0.9008(4)
H28 H 0.4412 0.6728 0.9340
C26 C 0.4339(2) 0.8497(7) 0.8696(4)
H29 H 0.4848 0.8663 0.8812
C27 C 0.3865(2) 0.9384(5) 0.8222(3)
H30 H 0.4043 1.0177 0.7999
C28 C 0.3133(2) 0.9154(4) 0.8061(3)
H31 H 0.2810 0.9799 0.7729
C11A C -0.04208(15) 0.4728(3) 0.4970(2)
O3A O -0.07871(11) 0.4584(2) 0.39447(15)
C10A C -0.06124(15) 0.5975(3) 0.5484(2)
N1A N -0.12968(13) 0.6426(3) 0.53228(18)
C1A C -0.15309(18) 0.7308(3) 0.6024(2)
C2A C -0.1137(3) 0.8258(5) 0.6604(3)
H1A H -0.0641 0.8415 0.6561
C3A C -0.1489(3) 0.8975(6) 0.7251(4)
H2A H -0.1230 0.9632 0.7669
C4A C -0.2201(3) 0.8755(6) 0.7299(4)
H3A H -0.2433 0.9266 0.7747
C5A C -0.2587(3) 0.7818(6) 0.6719(3)
H4A H -0.3084 0.7671 0.6763
C6A C -0.22513(19) 0.7081(4) 0.6065(3)
C7A C -0.25245(18) 0.6008(5) 0.5367(3)
H5A H -0.2995 0.6195 0.4984
H6A H -0.2546 0.5226 0.5740
C8A C -0.19559(15) 0.5918(3) 0.4657(2)
H7A H -0.1891 0.5054 0.4445
C9A C -0.21996(17) 0.6804(4) 0.3745(2)
O1A O -0.17202(11) 0.6751(2) 0.30304(15)
Si1A Si -0.18449(4) 0.76618(7) 0.19945(5)
C13A C -0.14235(19) 0.6792(3) 0.1000(2)
C14A C -0.1676(3) 0.7388(5) -0.0062(3)
H13A H -0.2192 0.7319 -0.0243
H14A H -0.1456 0.6942 -0.0558
H15A H -0.1539 0.8274 -0.0047
C15A C -0.1613(3) 0.5347(4) 0.0959(3)
H16A H -0.2127 0.5244 0.0783
H17A H -0.1443 0.4967 0.1615
H18A H -0.1386 0.4935 0.0453
C16A C -0.0598(2) 0.6904(5) 0.1277(3)
H19A H -0.0463 0.7791 0.1307
H20A H -0.0382 0.6479 0.0766
H21A H -0.0434 0.6513 0.1930
C17A C -0.13740(17) 0.9228(3) 0.2301(2)
C18A C -0.1482(2) 1.0253(4) 0.1612(3)
H22A H -0.1833 1.0167 0.0997
C19A C -0.1100(3) 1.1385(4) 0.1791(4)
H23A H -0.1174 1.2062 0.1294
C20A C -0.0623(3) 1.1533(5) 0.2666(4)
H24A H -0.0367 1.2328 0.2798
C21A C -0.0498(3) 1.0562(5) 0.3371(4)
H25A H -0.0150 1.0678 0.3986
C22A C -0.0875(2) 0.9397(4) 0.3197(3)
H26A H -0.0788 0.8723 0.3695
C23A C -0.28456(17) 0.8008(3) 0.1634(2)
C24A C -0.3342(2) 0.7113(4) 0.1155(3)
H27A H -0.3172 0.6313 0.0933
C25A C -0.4080(2) 0.7358(6) 0.0992(4)
H28A H -0.4412 0.6728 0.0660
C26A C -0.4339(2) 0.8497(7) 0.1304(4)
H29A H -0.4848 0.8663 0.1188
C27A C -0.3865(2) 0.9384(5) 0.1778(3)
H30A H -0.4043 1.0177 0.2001
C28A C -0.3133(2) 0.9154(4) 0.1939(3)
H31A H -0.2810 0.9799 0.2271
H8A H -0.2675 0.6561 0.3410
H9A H -0.2223 0.7668 0.3985
O2A O -0.01446(14) 0.6482(3) 0.6117(2)
C12A C -0.06666(19) 0.3605(3) 0.5565(3)
H10A H -0.0554 0.2813 0.5262
H11A H -0.1178 0.3659 0.5543
H12A H -0.0422 0.3640 0.6263
loop_
_geom_bond_atom_site_label_1
_geom_bond_atom_site_label_2
_geom_bond_site_symmetry_1
_geom_bond_site_symmetry_2
Si1 O1 1_555 1_555
N1 C1 1_555 1_555
O1 C9 1_555 1_555
O2 C10 1_555 1_555
O3 C11 1_555 1_555
C1 C2 1_555 1_555
C2 H1 1_555 1_555
C3 C2 1_555 1_555
H2 C3 1_555 1_555
C4 C3 1_555 1_555
H3 C4 1_555 1_555
C5 C4 1_555 1_555
H4 C5 1_555 1_555
C6 C1 1_555 1_555
C7 C6 1_555 1_555
H5 C7 1_555 1_555
H6 C7 1_555 1_555
C8 N1 1_555 1_555
H7 C8 1_555 1_555
C9 C8 1_555 1_555
H8 C9 1_555 1_555
H9 C9 1_555 1_555
C10 N1 1_555 1_555
C11 C10 1_555 1_555
C12 C11 1_555 1_555
H10 C12 1_555 1_555
H11 C12 1_555 1_555
H12 C12 1_555 1_555
C13 Si1 1_555 1_555
C14 C13 1_555 1_555
H13 C14 1_555 1_555
H14 C14 1_555 1_555
H15 C14 1_555 1_555
C15 C13 1_555 1_555
H16 C15 1_555 1_555
H17 C15 1_555 1_555
H18 C15 1_555 1_555
C16 C13 1_555 1_555
H19 C16 1_555 1_555
H20 C16 1_555 1_555
H21 C16 1_555 1_555
C17 Si1 1_555 1_555
C18 C17 1_555 1_555
H22 C18 1_555 1_555
C19 C18 1_555 1_555
H23 C19 1_555 1_555
C20 C19 1_555 1_555
H24 C20 1_555 1_555
C21 C20 1_555 1_555
H25 C21 1_555 1_555
C22 C17 1_555 1_555
H26 C22 1_555 1_555
C23 Si1 1_555 1_555
C24 C23 1_555 1_555
H27 C24 1_555 1_555
C25 C24 1_555 1_555
H28 C25 1_555 1_555
C26 C25 1_555 1_555
H29 C26 1_555 1_555
C27 C26 1_555 1_555
H30 C27 1_555 1_555
C28 C23 1_555 1_555
H31 C28 1_555 1_555
C11A C11 1_555 1_555
O3A C11A 1_555 1_555
C10A C11A 1_555 1_555
N1A C10A 1_555 1_555
C1A N1A 1_555 1_555
C2A C1A 1_555 1_555
H1A C2A 1_555 1_555
C3A C2A 1_555 1_555
H2A C3A 1_555 1_555
C4A C3A 1_555 1_555
H3A C4A 1_555 1_555
C5A C4A 1_555 1_555
H4A C5A 1_555 1_555
C6A C1A 1_555 1_555
C7A C6A 1_555 1_555
H5A C7A 1_555 1_555
H6A C7A 1_555 1_555
C8A N1A 1_555 1_555
H7A C8A 1_555 1_555
C9A C8A 1_555 1_555
O1A C9A 1_555 1_555
Si1A O1A 1_555 1_555
C13A Si1A 1_555 1_555
C14A C13A 1_555 1_555
H13A C14A 1_555 1_555
H14A C14A 1_555 1_555
H15A C14A 1_555 1_555
C15A C13A 1_555 1_555
H16A C15A 1_555 1_555
H17A C15A 1_555 1_555
H18A C15A 1_555 1_555
C16A C13A 1_555 1_555
H19A C16A 1_555 1_555
H20A C16A 1_555 1_555
H21A C16A 1_555 1_555
C17A Si1A 1_555 1_555
C18A C17A 1_555 1_555
H22A C18A 1_555 1_555
C19A C18A 1_555 1_555
H23A C19A 1_555 1_555
C20A C19A 1_555 1_555
H24A C20A 1_555 1_555
C21A C20A 1_555 1_555
H25A C21A 1_555 1_555
C22A C17A 1_555 1_555
H26A C22A 1_555 1_555
C23A Si1A 1_555 1_555
C24A C23A 1_555 1_555
H27A C24A 1_555 1_555
C25A C24A 1_555 1_555
H28A C25A 1_555 1_555
C26A C25A 1_555 1_555
H29A C26A 1_555 1_555
C27A C26A 1_555 1_555
H30A C27A 1_555 1_555
C28A C23A 1_555 1_555
H31A C28A 1_555 1_555
H8A C9A 1_555 1_555
H9A C9A 1_555 1_555
O2A C10A 1_555 1_555
C12A C11A 1_555 1_555
H10A C12A 1_555 1_555
H11A C12A 1_555 1_555
H12A C12A 1_555 1_555
C5 C6 1_555 1_555
C7 C8 1_555 1_555
C21 C22 1_555 1_555
C27 C28 1_555 1_555
C5A C6A 1_555 1_555
C7A C8A 1_555 1_555
C21A C22A 1_555 1_555
C27A C28A 1_555 1_555

#END
