
#######################################################################
#
#                 Cambridge Crystallographic Data Centre
#                                CCDC 
#
#######################################################################
#
# If this CIF has been generated from an entry in the Cambridge 
# Structural Database, then it will include bibliographic, chemical, 
# crystal, experimental, refinement or atomic coordinate data resulting 
# from the CCDC's data processing and validation procedures.
#
#######################################################################

data_LIMJIA
_chemical_formula_moiety         'C20 H30 O3'
_chemical_name_systematic        
6-n-Butyl-7,7,11-trimethyl-3,5-dioxatricyclo(9.4.0.0^2,6^)pentadeca-1(15),9-dien-4-one
_symmetry_cell_setting           monoclinic
_symmetry_space_group_name_H-M   'P 21/c'
_symmetry_Int_Tables_number      14
_space_group_name_Hall           '-P 2ybc'
loop_
_symmetry_equiv_pos_site_id
_symmetry_equiv_pos_as_xyz
1 x,y,z
2 x,1/2-y,1/2+z
3 -x,-y,-z
4 -x,1/2+y,1/2-z
_cell_length_a                   8.4850(4)
_cell_length_b                   15.6940(5)
_cell_length_c                   13.9450(7)
_cell_angle_alpha                90
_cell_angle_beta                 106.2550(18)
_cell_angle_gamma                90
_cell_volume                     1782.73
_exptl_crystal_colour            colorless
_exptl_crystal_description       cube
_cell_formula_units_Z            4
loop_
_atom_site_label
_atom_site_type_symbol
_atom_site_fract_x
_atom_site_fract_y
_atom_site_fract_z
O1 O -0.22422(9) 0.15373(5) -0.02742(6)
O2 O 0.04401(10) 0.15376(5) -0.00697(6)
O3 O -0.12862(12) 0.13949(6) -0.16060(6)
C1 C -0.15876(13) 0.16629(7) 0.08075(7)
C2 C 0.03168(13) 0.15077(7) 0.09483(7)
H1 H 0.0579 0.0913 0.1201
C3 C 0.16175(13) 0.20977(7) 0.15967(8)
C4 C 0.22085(14) 0.27535(8) 0.12031(9)
H2 H 0.1785 0.2848 0.0505
C5 C 0.35017(16) 0.33559(8) 0.17865(10)
H3 H 0.2982 0.3909 0.1855
H4 H 0.4316 0.3457 0.1411
C6 C 0.43856(16) 0.30208(9) 0.28218(10)
H5 H 0.4983 0.3492 0.3241
H6 H 0.5196 0.2583 0.2768
C7 C 0.31528(15) 0.26351(9) 0.33080(9)
H7 H 0.2349 0.3078 0.3360
H8 H 0.3737 0.2448 0.3993
C8 C 0.22284(13) 0.18714(7) 0.27199(8)
C9 C 0.06355(14) 0.17239(8) 0.29724(8)
H9 H 0.0204 0.2180 0.3269
C10 C -0.02084(14) 0.09983(8) 0.28081(8)
H10 H 0.0356 0.0469 0.2936
C11 C -0.20419(14) 0.10109(8) 0.24229(8)
H11 H -0.2481 0.1542 0.2633
H12 H -0.2515 0.0520 0.2691
C12 C -0.24994(14) 0.09617(7) 0.12646(8)
C13 C -0.19893(14) 0.25799(7) 0.10455(8)
H13 H -0.3061 0.2576 0.1198
H14 H -0.1151 0.2765 0.1658
C14 C -0.20678(14) 0.32420(7) 0.02328(8)
H15 H -0.1095 0.3181 -0.0022
H16 H -0.3061 0.3144 -0.0330
C15 C -0.21153(19) 0.41373(8) 0.06377(9)
H17 H -0.1077 0.4246 0.1163
H18 H -0.3025 0.4174 0.0952
C16 C -0.23465(19) 0.48264(8) -0.01559(10)
H19 H -0.1488 0.4774 -0.0498
H20 H -0.2275 0.5388 0.0160
H21 H -0.3426 0.4761 -0.0641
C17 C 0.33344(15) 0.10784(9) 0.28855(9)
H22 H 0.3559 0.0891 0.3581
H23 H 0.4371 0.1218 0.2741
H24 H 0.2779 0.0621 0.2440
C18 C -0.21035(16) 0.00641(8) 0.09488(10)
H25 H -0.2771 -0.0358 0.1176
H26 H -0.0937 -0.0059 0.1250
H27 H -0.2350 0.0039 0.0220
C19 C -0.43717(14) 0.10825(9) 0.08559(9)
H28 H -0.4935 0.0620 0.1099
H29 H -0.4684 0.1073 0.0124
H30 H -0.4686 0.1630 0.1085
C20 C -0.10521(14) 0.14827(7) -0.07251(8)
loop_
_geom_bond_atom_site_label_1
_geom_bond_atom_site_label_2
_geom_bond_site_symmetry_1
_geom_bond_site_symmetry_2
O1 C1 1_555 1_555
O2 C2 1_555 1_555
O3 C20 1_555 1_555
C1 C2 1_555 1_555
C2 H1 1_555 1_555
C3 C2 1_555 1_555
C4 C3 1_555 1_555
H2 C4 1_555 1_555
C5 C4 1_555 1_555
H3 C5 1_555 1_555
H4 C5 1_555 1_555
C6 C5 1_555 1_555
H5 C6 1_555 1_555
H6 C6 1_555 1_555
C7 C6 1_555 1_555
H7 C7 1_555 1_555
H8 C7 1_555 1_555
C8 C3 1_555 1_555
C9 C8 1_555 1_555
H9 C9 1_555 1_555
C10 C9 1_555 1_555
H10 C10 1_555 1_555
C11 C10 1_555 1_555
H11 C11 1_555 1_555
H12 C11 1_555 1_555
C12 C1 1_555 1_555
C13 C1 1_555 1_555
H13 C13 1_555 1_555
H14 C13 1_555 1_555
C14 C13 1_555 1_555
H15 C14 1_555 1_555
H16 C14 1_555 1_555
C15 C14 1_555 1_555
H17 C15 1_555 1_555
H18 C15 1_555 1_555
C16 C15 1_555 1_555
H19 C16 1_555 1_555
H20 C16 1_555 1_555
H21 C16 1_555 1_555
C17 C8 1_555 1_555
H22 C17 1_555 1_555
H23 C17 1_555 1_555
H24 C17 1_555 1_555
C18 C12 1_555 1_555
H25 C18 1_555 1_555
H26 C18 1_555 1_555
H27 C18 1_555 1_555
C19 C12 1_555 1_555
H28 C19 1_555 1_555
H29 C19 1_555 1_555
H30 C19 1_555 1_555
C20 O1 1_555 1_555
O2 C20 1_555 1_555
C7 C8 1_555 1_555
C11 C12 1_555 1_555

#END
