
#######################################################################
#
#                 Cambridge Crystallographic Data Centre
#                                CCDC 
#
#######################################################################
#
# If this CIF has been generated from an entry in the Cambridge 
# Structural Database, then it will include bibliographic, chemical, 
# crystal, experimental, refinement or atomic coordinate data resulting 
# from the CCDC's data processing and validation procedures.
#
#######################################################################

data_LINFIX
_chemical_formula_moiety         'C9 H3 F5 O2,C11 H13 N1 O2'
_chemical_name_systematic        
'2,3,4,5,6-Pentafluoro-trans-cinnamic acid 4-(N,N-dimethylamino)-trans-cinnamic acid'
_symmetry_cell_setting           triclinic
_symmetry_space_group_name_H-M   'P -1'
_symmetry_Int_Tables_number      2
_space_group_name_Hall           '-P 1'
loop_
_symmetry_equiv_pos_site_id
_symmetry_equiv_pos_as_xyz
1 x,y,z
2 -x,-y,-z
_cell_length_a                   7.383(1)
_cell_length_b                   11.045(2)
_cell_length_c                   11.253(2)
_cell_angle_alpha                92.68(2)
_cell_angle_beta                 90.38(2)
_cell_angle_gamma                95.93(2)
_cell_volume                     911.659
_exptl_crystal_colour            'dark yellow'
_chemical_melting_point          441-442K
_cell_formula_units_Z            2
loop_
_atom_site_label
_atom_site_type_symbol
_atom_site_fract_x
_atom_site_fract_y
_atom_site_fract_z
C1 C 0.5814(2) 0.7546(2) 0.6965(2)
C2 C 0.6220(2) 0.8505(2) 0.6220(2)
C3 C 0.5702(2) 0.8451(2) 0.5042(2)
C4 C 0.4683(2) 0.7434(2) 0.4571(2)
C5 C 0.4224(2) 0.6472(2) 0.5273(2)
C6 C 0.4811(2) 0.6521(2) 0.6437(2)
C7 C 0.6457(2) 0.7663(2) 0.8193(2)
C8 C 0.6153(2) 0.6876(2) 0.9041(2)
C9 C 0.6961(2) 0.7149(2) 1.0232(2)
O1 O 0.6740(2) 0.6266(1) 1.0945(1)
O2 O 0.7793(2) 0.8163(1) 1.0513(1)
F1 F 0.7201(2) 0.9526(1) 0.6640(1)
F2 F 0.6212(1) 0.9380(1) 0.4347(1)
F3 F 0.4163(2) 0.7377(1) 0.3426(1)
F4 F 0.3220(1) 0.5474(1) 0.4815(1)
F5 F 0.4406(1) 0.5523(1) 0.7056(1)
H1 H 0.7198(28) 0.8374(18) 0.8406(17)
H2 H 0.5447(25) 0.6062(17) 0.8903(15)
H3 H 0.7257(43) 0.6474(27) 1.1745(27)
C10 C 1.0448(2) 0.7304(2) 1.6552(2)
C11 C 1.1143(2) 0.8430(2) 1.7086(2)
C12 C 1.1720(2) 0.8542(2) 1.8253(2)
C13 C 1.1650(2) 0.7510(2) 1.8958(2)
C14 C 1.0937(2) 0.6386(2) 1.8423(2)
C15 C 1.0353(2) 0.6295(2) 1.7260(2)
C16 C 0.9834(2) 0.7157(2) 1.5324(2)
C17 C 1.0003(2) 0.7981(2) 1.4489(2)
C18 C 0.9212(2) 0.7719(2) 1.3310(2)
C19 C 1.2888(3) 0.8788(2) 2.0663(2)
C20 C 1.2032(3) 0.6558(2) 2.0835(2)
N1 N 1.2267(2) 0.7607(1) 2.0107(1)
O3 O 0.9472(2) 0.8587(1) 1.2578(1)
O4 O 0.8318(2) 0.6720(1) 1.3031(1)
H4 H 1.1138(25) 0.9156(17) 1.6639(16)
H5 H 1.2181(26) 0.9344(17) 1.8631(17)
H6 H 1.0869(26) 0.5634(18) 1.8828(17)
H7 H 0.9893(28) 0.5514(19) 1.6886(18)
H8 H 0.9242(24) 0.6429(17) 1.5145(15)
H9 H 1.0622(24) 0.8763(17) 1.4595(15)
H10 H 1.3284(29) 0.8721(19) 2.1543(20)
H11 H 1.1893(33) 0.9373(20) 2.0671(20)
H12 H 1.3938(33) 0.9123(20) 2.0257(20)
H13 H 1.2571(32) 0.6771(21) 2.1606(22)
H14 H 1.2604(29) 0.5883(20) 2.0499(19)
H15 H 1.0662(33) 0.6222(20) 2.0923(19)
H16 H 0.8770(38) 0.8422(25) 1.1919(25)
loop_
_geom_bond_atom_site_label_1
_geom_bond_atom_site_label_2
_geom_bond_site_symmetry_1
_geom_bond_site_symmetry_2
C1 C2 1_555 1_555
C2 C3 1_555 1_555
C3 C4 1_555 1_555
C4 C5 1_555 1_555
C5 C6 1_555 1_555
C6 C1 1_555 1_555
C7 C1 1_555 1_555
C8 C7 1_555 1_555
C9 C8 1_555 1_555
O1 C9 1_555 1_555
O2 C9 1_555 1_555
F1 C2 1_555 1_555
F2 C3 1_555 1_555
F3 C4 1_555 1_555
F4 C5 1_555 1_555
F5 C6 1_555 1_555
H1 C7 1_555 1_555
H2 C8 1_555 1_555
H3 O1 1_555 1_555
C10 C11 1_555 1_555
C11 C12 1_555 1_555
C12 C13 1_555 1_555
C13 C14 1_555 1_555
C14 C15 1_555 1_555
C15 C10 1_555 1_555
C16 C10 1_555 1_555
C17 C16 1_555 1_555
C18 C17 1_555 1_555
C19 N1 1_555 1_555
C20 N1 1_555 1_555
N1 C13 1_555 1_555
O3 C18 1_555 1_555
O4 C18 1_555 1_555
H4 C11 1_555 1_555
H5 C12 1_555 1_555
H6 C14 1_555 1_555
H7 C15 1_555 1_555
H8 C16 1_555 1_555
H9 C17 1_555 1_555
H10 C19 1_555 1_555
H11 C19 1_555 1_555
H12 C19 1_555 1_555
H13 C20 1_555 1_555
H14 C20 1_555 1_555
H15 C20 1_555 1_555
H16 O3 1_555 1_555

#END
