
#######################################################################
#
#                 Cambridge Crystallographic Data Centre
#                                CCDC 
#
#######################################################################
#
# If this CIF has been generated from an entry in the Cambridge 
# Structural Database, then it will include bibliographic, chemical, 
# crystal, experimental, refinement or atomic coordinate data resulting 
# from the CCDC's data processing and validation procedures.
#
#######################################################################

data_LINKUR
_chemical_name_common            
'hydroxyikarugamycin B dihydrate unknown solvate'
_chemical_formula_moiety         'C30 H42 N2 O7,2(H2 O1)'
_chemical_name_systematic        
'4,5,18-trihydroxy-3-(1-methoxyethyl)-2-methyl-2,3,3a,4,5,5a,5b,6,10,11,12,13,14,15,20a,21,21a,21b-octadecahydro-1H-14,17-methano-as-indaceno[3,2-k][1,6]diazacycloheptadecine-9,16,22-trione dihydrate unknown solvate'
_symmetry_cell_setting           hexagonal
_symmetry_space_group_name_H-M   'P 65'
_symmetry_Int_Tables_number      170
_space_group_name_Hall           'P 65'
loop_
_symmetry_equiv_pos_site_id
_symmetry_equiv_pos_as_xyz
1 x,y,z
2 -y,x-y,2/3+z
3 -x+y,-x,1/3+z
4 -x,-y,1/2+z
5 y,-x+y,1/6+z
6 x-y,x,5/6+z
_cell_length_a                   26.12796(8)
_cell_length_b                   26.12796(8)
_cell_length_c                   9.95370(4)
_cell_angle_alpha                90
_cell_angle_beta                 90
_cell_angle_gamma                120
_cell_volume                     5884.73
_exptl_crystal_colour            'yellow / white'
_exptl_crystal_description       cube
_cell_formula_units_Z            6
_chemical_properties_physical    
Heat-sensitive,Oxygen-sensitive,Light-sensitive
_exptl_crystal_recrystallization_method 'methanol / water'
_exptl_crystal_preparation       'Magnetic properties'
loop_
_atom_site_label
_atom_site_type_symbol
_atom_site_fract_x
_atom_site_fract_y
_atom_site_fract_z
O1 O 0.63903(6) 0.53087(7) 0.93255(17)
O2 O 0.37702(7) 0.29839(7) 0.25058(16)
H1 H 0.406298 0.307122 0.204588
O3 O 0.48321(7) 0.35371(7) 1.10928(17)
O4 O 0.39729(8) 0.41326(7) 0.82397(16)
O5 O 0.27473(7) 0.15941(7) 0.41447(18)
H2 H 0.243816 0.157747 0.391305
O6 O 0.36860(9) 0.16066(7) -0.14131(16)
O7 O 0.60301(7) 0.44207(7) 0.76580(17)
H3 H 0.626290 0.474119 0.799196
N1 N 0.37097(8) 0.38926(8) 1.03940(19)
H4 H 0.353498 0.361694 1.098088
N2 N 0.58602(8) 0.50584(8) 1.13206(19)
H5 H 0.603586 0.540270 1.168647
C1 C 0.60057(9) 0.49454(9) 1.0113(2)
C2 C 0.37019(10) 0.22576(9) 0.5075(2)
H6 H 0.349576 0.200672 0.584888
C3 C 0.37381(9) 0.37460(9) 0.9116(2)
C4 C 0.34186(9) 0.23487(9) 0.2623(2)
H7 H 0.306757 0.220622 0.205251
C5 C 0.51715(10) 0.35030(9) 0.8147(2)
H8 H 0.492702 0.324308 0.880577
C6 C 0.39678(9) 0.45081(9) 1.0815(2)
H9 H 0.379098 0.452328 1.165977
H10 H 0.387461 0.472115 1.015091
C7 C 0.45534(10) 0.27588(9) 0.6442(2)
H11 H 0.434845 0.253204 0.724526
C8 C 0.43067(10) 0.22407(9) 0.3092(2)
H12 H 0.454379 0.267270 0.304780
C9 C 0.56273(9) 0.40911(9) 0.8558(2)
C10 C 0.34794(9) 0.31079(9) 0.8850(2)
H13 H 0.326037 0.284912 0.953713
C11 C 0.52274(9) 0.40527(9) 1.0929(2)
C12 C 0.53752(10) 0.45409(10) 1.1954(2)
H14 H 0.550988 0.445114 1.279402
C13 C 0.48278(9) 0.46038(10) 1.2220(2)
H15 H 0.450328 0.422496 1.250740
H16 H 0.491538 0.488332 1.294630
C14 C 0.41208(10) 0.28801(9) 0.5631(2)
H17 H 0.433800 0.313731 0.487327
C15 C 0.56199(9) 0.43167(9) 0.9807(2)
C16 C 0.46356(9) 0.48129(9) 1.0985(2)
H18 H 0.479191 0.523578 1.105435
H19 H 0.480551 0.474156 1.019020
C17 C 0.38475(10) 0.31832(9) 0.6441(2)
H20 H 0.415885 0.357764 0.667760
H21 H 0.356973 0.322468 0.586965
C18 C 0.46268(11) 0.19817(10) 0.2329(2)
H22 H 0.443078 0.155628 0.244041
H23 H 0.503387 0.215490 0.262366
C19 C 0.41337(10) 0.20582(9) 0.4555(2)
H24 H 0.394813 0.162779 0.463391
C20 C 0.50861(10) 0.33171(9) 0.6876(2)
H25 H 0.536927 0.354410 0.623676
C21 C 0.35331(10) 0.28698(10) 0.7704(2)
H26 H 0.335339 0.245985 0.768899
C22 C 0.37540(10) 0.20360(9) 0.2224(2)
H27 H 0.349284 0.161716 0.243422
C23 C 0.45918(11) 0.21482(10) 0.0869(2)
H28 H 0.487080 0.257235 0.077618
C24 C 0.39510(10) 0.20589(9) 0.0741(2)
H29 H 0.397745 0.240800 0.030718
C25 C 0.35095(11) 0.15065(10) -0.0039(2)
H30 H 0.353453 0.116614 0.029026
C26 C 0.32231(10) 0.22000(9) 0.4092(2)
H31 H 0.307326 0.245701 0.439906
C27 C 0.46762(11) 0.23585(10) 0.5511(2)
H32 H 0.471359 0.206463 0.603000
H33 H 0.503730 0.259127 0.500384
C28 C 0.34779(14) 0.10804(11) -0.2179(3)
H34 H 0.368234 0.117163 -0.302372
H35 H 0.306152 0.090975 -0.233631
H36 H 0.354914 0.080433 -0.169489
C29 C 0.47807(13) 0.18284(12) -0.0137(3)
H37 H 0.517551 0.191562 0.006558
H38 H 0.476867 0.195972 -0.103125
H39 H 0.451607 0.140986 -0.007487
C30 C 0.28728(12) 0.13719(11) 0.0082(3)
H40 H 0.284615 0.170669 -0.021970
H41 H 0.274938 0.128982 0.100364
H42 H 0.262175 0.103428 -0.046028
O8 O 0.31758(8) 0.35367(8) 0.3421(2)
H43 H 0.329921 0.386898 0.380306
H44 H 0.344(2) 0.346(2) 0.313(5)
O9 O 0.26770(13) 0.05107(11) 0.3835(4)
H45 H 0.270686 0.080358 0.339577
H46 H 0.263270 0.055553 0.466416
loop_
_geom_bond_atom_site_label_1
_geom_bond_atom_site_label_2
_geom_bond_site_symmetry_1
_geom_bond_site_symmetry_2
O1 C1 1_555 1_555
O2 H1 1_555 1_555
O3 C11 1_555 1_555
O4 C3 1_555 1_555
O5 H2 1_555 1_555
O6 C25 1_555 1_555
O7 H3 1_555 1_555
N1 H4 1_555 1_555
N2 H5 1_555 1_555
C1 N2 1_555 1_555
C2 H6 1_555 1_555
C3 N1 1_555 1_555
C4 O2 1_555 1_555
H7 C4 1_555 1_555
C5 H8 1_555 1_555
C6 N1 1_555 1_555
H9 C6 1_555 1_555
H10 C6 1_555 1_555
C7 H11 1_555 1_555
C8 H12 1_555 1_555
C9 O7 1_555 1_555
C10 C3 1_555 1_555
H13 C10 1_555 1_555
C11 C12 1_555 1_555
C12 N2 1_555 1_555
H14 C12 1_555 1_555
C13 C12 1_555 1_555
H15 C13 1_555 1_555
H16 C13 1_555 1_555
C14 C2 1_555 1_555
H17 C14 1_555 1_555
C15 C1 1_555 1_555
C16 C6 1_555 1_555
H18 C16 1_555 1_555
H19 C16 1_555 1_555
C17 C14 1_555 1_555
H20 C17 1_555 1_555
H21 C17 1_555 1_555
C18 C8 1_555 1_555
H22 C18 1_555 1_555
H23 C18 1_555 1_555
C19 C2 1_555 1_555
H24 C19 1_555 1_555
C20 C5 1_555 1_555
H25 C20 1_555 1_555
C21 C10 1_555 1_555
H26 C21 1_555 1_555
C22 C4 1_555 1_555
H27 C22 1_555 1_555
C23 C18 1_555 1_555
H28 C23 1_555 1_555
C24 C22 1_555 1_555
H29 C24 1_555 1_555
C25 C24 1_555 1_555
H30 C25 1_555 1_555
C26 O5 1_555 1_555
H31 C26 1_555 1_555
C27 C7 1_555 1_555
H32 C27 1_555 1_555
H33 C27 1_555 1_555
C28 O6 1_555 1_555
H34 C28 1_555 1_555
H35 C28 1_555 1_555
H36 C28 1_555 1_555
C29 C23 1_555 1_555
H37 C29 1_555 1_555
H38 C29 1_555 1_555
H39 C29 1_555 1_555
C30 C25 1_555 1_555
H40 C30 1_555 1_555
H41 C30 1_555 1_555
H42 C30 1_555 1_555
O8 H43 1_555 1_555
H44 O8 1_555 1_555
O9 H45 1_555 1_555
H46 O9 1_555 1_555
C2 C26 1_555 1_555
C4 C26 1_555 1_555
C5 C9 1_555 1_555
C7 C14 1_555 1_555
C7 C20 1_555 1_555
C8 C19 1_555 1_555
C8 C22 1_555 1_555
C9 C15 1_555 1_555
C11 C15 1_555 1_555
C13 C16 1_555 1_555
C17 C21 1_555 1_555
C19 C27 1_555 1_555
C23 C24 1_555 1_555

#END
