
#######################################################################
#
#                 Cambridge Crystallographic Data Centre
#                                CCDC 
#
#######################################################################
#
# If this CIF has been generated from an entry in the Cambridge 
# Structural Database, then it will include bibliographic, chemical, 
# crystal, experimental, refinement or atomic coordinate data resulting 
# from the CCDC's data processing and validation procedures.
#
#######################################################################

data_LINWUD
_chemical_formula_moiety         'C22 H22 Br1 F3 N2 O5'
_chemical_name_systematic        
'5-ethyl 4-methyl 2-(4-bromophenyl)-1-(4-methoxyphenyl)-5-(trifluoromethyl)imidazolidine-4,5-dicarboxylate'
_symmetry_cell_setting           monoclinic
_symmetry_space_group_name_H-M   'C 2'
_symmetry_Int_Tables_number      5
_space_group_name_Hall           'C 2y'
loop_
_symmetry_equiv_pos_site_id
_symmetry_equiv_pos_as_xyz
1 x,y,z
2 -x,y,-z
3 1/2+x,1/2+y,z
4 1/2-x,1/2+y,-z
_cell_length_a                   28.603(7)
_cell_length_b                   8.1356(19)
_cell_length_c                   10.639(2)
_cell_angle_alpha                90
_cell_angle_beta                 107.989(3)
_cell_angle_gamma                90
_cell_volume                     2354.7
_cell_formula_units_Z            4
loop_
_atom_site_label
_atom_site_type_symbol
_atom_site_fract_x
_atom_site_fract_y
_atom_site_fract_z
Br1 Br 0.98933(2) 1.04416(8) 0.73362(10)
C1 C 0.96252(16) 0.8533(8) 0.7898(6)
C2 C 0.93887(18) 0.8715(7) 0.8815(6)
H1 H 0.9351 0.9747 0.9148
C3 C 0.92063(15) 0.7331(6) 0.9239(5)
H2 H 0.9045 0.7434 0.9871
C4 C 0.92564(11) 0.5808(5) 0.8754(3)
C5 C 0.95002(12) 0.5663(6) 0.7825(4)
H3 H 0.9543 0.4634 0.7496
C6 C 0.96819(15) 0.7059(8) 0.7379(5)
H4 H 0.9839 0.6978 0.6736
C7 C 0.90851(11) 0.4313(5) 0.9292(3)
H5 H 0.9098 0.3357 0.8743
C8 C 0.85193(12) 0.3561(5) 1.0447(3)
C9 C 0.90671(12) 0.3095(5) 1.1240(3)
H6 H 0.9112 0.1922 1.1102
C10 C 0.82350(13) 0.1976(5) 0.9996(4)
C11 C 0.82731(12) 0.4580(5) 1.1280(3)
C12 C 0.83763(18) 0.6982(8) 1.2604(5)
H7 H 0.8256 0.6328 1.3202
H8 H 0.8113 0.7695 1.2103
C13 C 0.8800(2) 0.7968(8) 1.3355(6)
H9 H 0.9053 0.7255 1.3880
H10 H 0.8700 0.8716 1.3922
H11 H 0.8924 0.8578 1.2753
C14 C 0.92229(14) 0.3406(6) 1.2708(4)
C15 C 0.9031(2) 0.2884(10) 1.4673(4)
H12 H 0.9339 0.2375 1.5136
H13 H 0.8773 0.2395 1.4948
H14 H 0.9048 0.4039 1.4867
C16 C 0.81818(11) 0.4721(4) 0.8168(3)
C17 C 0.81680(13) 0.3930(5) 0.7023(3)
H15 H 0.8432 0.3277 0.7002
C18 C 0.77671(14) 0.4085(5) 0.5890(3)
H16 H 0.7766 0.3553 0.5115
C19 C 0.73741(12) 0.5023(4) 0.5921(3)
C20 C 0.73910(12) 0.5864(5) 0.7060(3)
H17 H 0.7128 0.6524 0.7079
C21 C 0.77951(11) 0.5734(5) 0.8168(3)
H18 H 0.7807 0.6334 0.8922
C22 C 0.69017(19) 0.4296(8) 0.3726(4)
H19 H 0.7167 0.4558 0.3384
H20 H 0.6594 0.4557 0.3076
H21 H 0.6911 0.3146 0.3932
F1 F 0.82519(8) 0.0969(3) 1.0998(2)
F2 F 0.77646(7) 0.2185(3) 0.9320(2)
F3 F 0.84354(8) 0.1131(3) 0.9200(2)
N1 N 0.85832(9) 0.4527(4) 0.9365(2)
N2 N 0.93772(10) 0.4008(5) 1.0649(3)
H22 H 0.9676 0.4311 1.1026
O1 O 0.79059(10) 0.4196(4) 1.1519(3)
O2 O 0.85344(9) 0.5914(4) 1.1714(2)
O3 O 0.95720(11) 0.4197(5) 1.3284(3)
O4 O 0.89298(10) 0.2648(4) 1.3269(2)
O5 O 0.69517(9) 0.5228(4) 0.4890(2)
loop_
_geom_bond_atom_site_label_1
_geom_bond_atom_site_label_2
_geom_bond_site_symmetry_1
_geom_bond_site_symmetry_2
Br1 C1 1_555 1_555
C1 C2 1_555 1_555
C2 H1 1_555 1_555
C3 C2 1_555 1_555
H2 C3 1_555 1_555
C4 C3 1_555 1_555
C5 C4 1_555 1_555
H3 C5 1_555 1_555
C6 C1 1_555 1_555
H4 C6 1_555 1_555
C7 C4 1_555 1_555
H5 C7 1_555 1_555
C8 C9 1_555 1_555
C9 H6 1_555 1_555
C10 C8 1_555 1_555
C11 C8 1_555 1_555
C12 H7 1_555 1_555
H8 C12 1_555 1_555
C13 C12 1_555 1_555
H9 C13 1_555 1_555
H10 C13 1_555 1_555
H11 C13 1_555 1_555
C14 C9 1_555 1_555
C15 H12 1_555 1_555
H13 C15 1_555 1_555
H14 C15 1_555 1_555
C16 C17 1_555 1_555
C17 H15 1_555 1_555
C18 C17 1_555 1_555
H16 C18 1_555 1_555
C19 C18 1_555 1_555
C20 C19 1_555 1_555
H17 C20 1_555 1_555
C21 C16 1_555 1_555
H18 C21 1_555 1_555
C22 H19 1_555 1_555
H20 C22 1_555 1_555
H21 C22 1_555 1_555
F1 C10 1_555 1_555
F2 C10 1_555 1_555
F3 C10 1_555 1_555
N1 C7 1_555 1_555
N2 C7 1_555 1_555
H22 N2 1_555 1_555
O1 C11 1_555 1_555
O2 C11 1_555 1_555
O3 C14 1_555 1_555
O4 C14 1_555 1_555
O5 C19 1_555 1_555
C5 C6 1_555 1_555
C8 N1 1_555 1_555
C9 N2 1_555 1_555
C12 O2 1_555 1_555
C15 O4 1_555 1_555
C16 N1 1_555 1_555
C20 C21 1_555 1_555
C22 O5 1_555 1_555

#END
