
#######################################################################
#
#                 Cambridge Crystallographic Data Centre
#                                CCDC 
#
#######################################################################
#
# If this CIF has been generated from an entry in the Cambridge 
# Structural Database, then it will include bibliographic, chemical, 
# crystal, experimental, refinement or atomic coordinate data resulting 
# from the CCDC's data processing and validation procedures.
#
#######################################################################

data_LINXUE
_chemical_formula_moiety         'C31 H38 O4'
_chemical_name_systematic        
'(naphthalen-2-yl)methyl 13-hydroxy-15,16-epoxyk-auran-18-oate'
_symmetry_cell_setting           monoclinic
_symmetry_space_group_name_H-M   'P 21'
_symmetry_Int_Tables_number      4
_space_group_name_Hall           'P 2yb'
loop_
_symmetry_equiv_pos_site_id
_symmetry_equiv_pos_as_xyz
1 x,y,z
2 -x,1/2+y,-z
_cell_length_a                   7.5610(15)
_cell_length_b                   6.3397(13)
_cell_length_c                   27.012(5)
_cell_angle_alpha                90
_cell_angle_beta                 92.24(3)
_cell_angle_gamma                90
_cell_volume                     1293.82
_cell_formula_units_Z            2
loop_
_atom_site_label
_atom_site_type_symbol
_atom_site_fract_x
_atom_site_fract_y
_atom_site_fract_z
C1 C 0.3939(12) 0.3340(15) 0.5555(3)
H1 H 0.4438 0.4658 0.5502
C2 C 0.4029(12) 0.247(2) 0.6016(3)
H2 H 0.4574 0.3213 0.6277
C3 C 0.3310(12) 0.0482(17) 0.6100(3)
H3 H 0.3379 -0.0086 0.6418
C4 C 0.2524(12) -0.0618(15) 0.5732(3)
H4 H 0.2088 -0.1958 0.5796
C5 C 0.2341(9) 0.0206(13) 0.5248(3)
C6 C 0.3087(9) 0.2243(12) 0.5152(3)
C7 C 0.1467(11) -0.0836(13) 0.4849(3)
H5 H 0.0955 -0.2148 0.4901
C8 C 0.1359(11) 0.0034(13) 0.4393(3)
H6 H 0.0766 -0.0696 0.4139
C9 C 0.2110(9) 0.2001(12) 0.4290(3)
C10 C 0.2940(9) 0.3027(11) 0.4667(2)
H7 H 0.3446 0.4331 0.4603
C11 C 0.1940(10) 0.2971(14) 0.3789(3)
H8 H 0.0852 0.3781 0.3759
H9 H 0.2924 0.3922 0.3742
C12 C 0.0716(11) 0.1457(12) 0.3037(2)
C13 C 0.0618(9) -0.0560(12) 0.2722(3)
C14 C 0.2063(10) -0.2160(12) 0.2862(2)
H10 H 0.2126 -0.2295 0.3220
H11 H 0.1705 -0.3520 0.2727
C15 C 0.3886(10) -0.1686(13) 0.2694(2)
H12 H 0.4654 -0.2881 0.2766
H13 H 0.4361 -0.0476 0.2874
C16 C 0.3863(9) -0.1221(11) 0.2133(2)
H14 H 0.3578 -0.2512 0.1955
H15 H 0.5041 -0.0792 0.2045
C17 C 0.2536(8) 0.0503(10) 0.1963(2)
C18 C 0.0686(9) -0.0091(11) 0.2155(2)
H16 H 0.0408 -0.1447 0.1996
C19 C -0.0746(9) 0.1417(13) 0.1944(2)
H17 H -0.1874 0.1098 0.2086
H18 H -0.0435 0.2863 0.2027
C20 C -0.0889(8) 0.1156(14) 0.1386(2)
H19 H -0.1230 -0.0285 0.1309
H20 H -0.1815 0.2078 0.1253
C21 C 0.0820(8) 0.1655(10) 0.1136(2)
C22 C 0.2416(7) 0.0468(9) 0.1379(2)
H21 H 0.2217 -0.1017 0.1292
C23 C 0.4129(7) 0.1074(11) 0.1123(2)
H22 H 0.5109 0.0868 0.1360
H23 H 0.4287 0.0081 0.0855
C24 C 0.4292(8) 0.3292(11) 0.0910(2)
H24 H 0.5180 0.3292 0.0660
H25 H 0.4680 0.4252 0.1172
C25 C 0.2512(8) 0.4077(10) 0.0676(2)
C26 C 0.1851(8) 0.2414(10) 0.0311(2)
C27 C 0.0746(8) 0.0972(10) 0.0595(2)
H26 H 0.0728 -0.0535 0.0514
C28 C 0.1192(9) 0.4034(10) 0.1081(2)
H27 H 0.0124 0.4802 0.0985
H28 H 0.1694 0.4626 0.1387
C29 C -0.1191(12) -0.1523(15) 0.2845(3)
H29 H -0.1224 -0.1775 0.3195
H30 H -0.1353 -0.2832 0.2670
H31 H -0.2119 -0.0562 0.2745
C30 C 0.3213(8) 0.2632(11) 0.2173(2)
H32 H 0.3266 0.2575 0.2528
H33 H 0.2423 0.3738 0.2064
H34 H 0.4374 0.2907 0.2056
C31 C 0.2769(11) 0.1953(12) -0.0145(3)
H35 H 0.2144 0.0867 -0.0327
H36 H 0.3952 0.1486 -0.0063
H37 H 0.2813 0.3206 -0.0344
O1 O 0.1925(7) 0.1326(9) 0.34109(18)
O2 O -0.0194(9) 0.2968(10) 0.2974(2)
O3 O -0.0115(5) 0.2446(7) 0.02608(15)
O4 O 0.2811(7) 0.6094(8) 0.04635(18)
H38 H 0.2000 0.6376 0.0264
loop_
_geom_bond_atom_site_label_1
_geom_bond_atom_site_label_2
_geom_bond_site_symmetry_1
_geom_bond_site_symmetry_2
C1 H1 1_555 1_555
C2 C1 1_555 1_555
H2 C2 1_555 1_555
C3 C2 1_555 1_555
H3 C3 1_555 1_555
C4 C3 1_555 1_555
H4 C4 1_555 1_555
C5 C4 1_555 1_555
C6 C1 1_555 1_555
C7 C5 1_555 1_555
H5 C7 1_555 1_555
C8 C7 1_555 1_555
H6 C8 1_555 1_555
C9 C8 1_555 1_555
C10 C6 1_555 1_555
H7 C10 1_555 1_555
C11 C9 1_555 1_555
H8 C11 1_555 1_555
H9 C11 1_555 1_555
C12 C13 1_555 1_555
C13 C14 1_555 1_555
C14 H10 1_555 1_555
H11 C14 1_555 1_555
C15 C14 1_555 1_555
H12 C15 1_555 1_555
H13 C15 1_555 1_555
C16 C15 1_555 1_555
H14 C16 1_555 1_555
H15 C16 1_555 1_555
C17 C16 1_555 1_555
C18 C13 1_555 1_555
H16 C18 1_555 1_555
C19 C18 1_555 1_555
H17 C19 1_555 1_555
H18 C19 1_555 1_555
C20 C19 1_555 1_555
H19 C20 1_555 1_555
H20 C20 1_555 1_555
C21 C20 1_555 1_555
C22 C17 1_555 1_555
H21 C22 1_555 1_555
C23 C22 1_555 1_555
H22 C23 1_555 1_555
H23 C23 1_555 1_555
C24 C23 1_555 1_555
H24 C24 1_555 1_555
H25 C24 1_555 1_555
C25 C24 1_555 1_555
C26 C25 1_555 1_555
C27 C21 1_555 1_555
H26 C27 1_555 1_555
C28 C21 1_555 1_555
H27 C28 1_555 1_555
H28 C28 1_555 1_555
C29 C13 1_555 1_555
H29 C29 1_555 1_555
H30 C29 1_555 1_555
H31 C29 1_555 1_555
C30 C17 1_555 1_555
H32 C30 1_555 1_555
H33 C30 1_555 1_555
H34 C30 1_555 1_555
C31 C26 1_555 1_555
H35 C31 1_555 1_555
H36 C31 1_555 1_555
H37 C31 1_555 1_555
O1 C11 1_555 1_555
O2 C12 1_555 1_555
O3 C26 1_555 1_555
O4 C25 1_555 1_555
H38 O4 1_555 1_555
C5 C6 1_555 1_555
C9 C10 1_555 1_555
C12 O1 1_555 1_555
C17 C18 1_555 1_555
C21 C22 1_555 1_555
C25 C28 1_555 1_555
C26 C27 1_555 1_555
C27 O3 1_555 1_555

#END
