
#######################################################################
#
#                 Cambridge Crystallographic Data Centre
#                                CCDC 
#
#######################################################################
#
# If this CIF has been generated from an entry in the Cambridge 
# Structural Database, then it will include bibliographic, chemical, 
# crystal, experimental, refinement or atomic coordinate data resulting 
# from the CCDC's data processing and validation procedures.
#
#######################################################################

data_LINYUF
_chemical_formula_moiety         'C22 H20 Cl1 N3 O3'
_chemical_name_systematic        
1-acetyl-7-benzyl-4-(4-chlorophenyl)-9-imino-1,7-diazaspiro[4.4]nonane-6,8-dione
_symmetry_cell_setting           monoclinic
_symmetry_space_group_name_H-M   'P 21'
_symmetry_Int_Tables_number      4
_space_group_name_Hall           'P 2yb'
loop_
_symmetry_equiv_pos_site_id
_symmetry_equiv_pos_as_xyz
1 x,y,z
2 -x,1/2+y,-z
_cell_length_a                   9.4708(8)
_cell_length_b                   7.4003(6)
_cell_length_c                   14.1551(12)
_cell_angle_alpha                90
_cell_angle_beta                 95.154(3)
_cell_angle_gamma                90
_cell_volume                     988.074
_exptl_crystal_colour            colorless
_exptl_crystal_description       rectangular
_cell_formula_units_Z            2
loop_
_atom_site_label
_atom_site_type_symbol
_atom_site_fract_x
_atom_site_fract_y
_atom_site_fract_z
C1 C 0.6669(2) 0.7019(4) 1.36685(17)
O1 O 0.8845(2) 0.5082(3) 1.44333(15)
C2 C 0.8518(3) 0.7262(5) 1.1434(2)
N1 N 0.5858(2) 0.4128(3) 1.32737(16)
C3 C 0.9697(3) 0.7200(5) 1.2240(2)
N2 N 0.8995(2) 0.6432(3) 1.30326(17)
C4 C 0.9588(3) 0.5811(4) 1.3879(2)
C5 C 0.6902(3) 0.4464(4) 1.26627(19)
C6 C 0.5691(3) 0.5506(4) 1.39068(18)
C7 C 0.7206(3) 0.7636(4) 1.1958(2)
O2 O 0.7267(2) 0.3397(3) 1.20916(15)
O3 O 0.4899(2) 0.5490(3) 1.45293(14)
N3 N 0.6791(3) 0.8559(3) 1.40427(17)
C8 C 1.1156(3) 0.6132(5) 1.4100(3)
H1 H 0.401(4) 0.596(5) 0.949(3)
H2 H 0.866(4) 0.810(5) 1.092(3)
H3 H 0.631(4) 0.607(5) 1.028(2)
H4 H 0.149(3) 0.346(5) 1.110(2)
H5 H 0.385(4) 0.362(5) 1.170(3)
H6 H -0.019(4) 0.236(5) 1.207(2)
H7 H 0.288(4) 0.122(5) 1.411(2)
H8 H 1.167(4) 0.581(6) 1.357(3)
H9 H 0.245(3) 0.876(5) 1.163(2)
H10 H 1.002(4) 0.841(6) 1.243(3)
H11 H 0.839(4) 0.610(6) 1.113(3)
H12 H 0.052(4) 0.120(5) 1.354(3)
H13 H 0.619(4) 0.860(5) 1.455(3)
H14 H 1.048(4) 0.640(5) 1.209(2)
H15 H 0.473(4) 0.888(5) 1.240(3)
H16 H 1.150(4) 0.542(6) 1.466(3)
H17 H 1.139(4) 0.729(7) 1.422(3)
H18 H 0.723(4) 0.887(5) 1.224(2)
Cl1 Cl 0.13406(7) 0.70882(12) 0.99186(5)
C9 C 0.3629(3) 0.2382(4) 1.29617(18)
C10 C 0.5173(3) 0.2368(4) 1.33415(19)
H19 H 0.5243 0.1994 1.4001
H20 H 0.5674 0.1486 1.2991
C11 C 0.5754(3) 0.7450(4) 1.14224(19)
C12 C 0.5515(3) 0.6569(4) 1.0552(2)
C13 C 0.7461(3) 0.6398(4) 1.28417(19)
C14 C 0.2613(3) 0.1669(4) 1.3509(2)
C15 C 0.3240(3) 0.8143(4) 1.1352(2)
C16 C 0.4170(3) 0.6465(4) 1.0086(2)
C17 C 0.4595(3) 0.8235(4) 1.1806(2)
C18 C 0.3198(3) 0.3072(4) 1.2069(2)
C19 C 0.0769(3) 0.2352(4) 1.2283(2)
C20 C 0.1778(3) 0.3052(4) 1.1730(2)
C21 C 0.3041(3) 0.7240(4) 1.04927(19)
C22 C 0.1193(3) 0.1665(4) 1.3173(2)
loop_
_geom_bond_atom_site_label_1
_geom_bond_atom_site_label_2
_geom_bond_site_symmetry_1
_geom_bond_site_symmetry_2
C1 C6 1_555 1_555
O1 C4 1_555 1_555
C2 C3 1_555 1_555
N1 C5 1_555 1_555
C3 N2 1_555 1_555
N2 C4 1_555 1_555
C4 C8 1_555 1_555
C5 O2 1_555 1_555
C6 N1 1_555 1_555
C7 C2 1_555 1_555
O3 C6 1_555 1_555
N3 C1 1_555 1_555
C8 H8 1_555 1_555
H1 C16 1_555 1_555
H2 C2 1_555 1_555
H3 C12 1_555 1_555
H4 C20 1_555 1_555
H5 C18 1_555 1_555
H6 C19 1_555 1_555
H7 C14 1_555 1_555
H9 C15 1_555 1_555
H10 C3 1_555 1_555
H11 C2 1_555 1_555
H12 C22 1_555 1_555
H13 N3 1_555 1_555
H14 C3 1_555 1_555
H15 C17 1_555 1_555
H16 C8 1_555 1_555
H17 C8 1_555 1_555
H18 C7 1_555 1_555
Cl1 C21 1_555 1_555
C9 C10 1_555 1_555
C10 N1 1_555 1_555
H19 C10 1_555 1_555
H20 C10 1_555 1_555
C11 C7 1_555 1_555
C12 C11 1_555 1_555
C13 C1 1_555 1_555
C14 C9 1_555 1_555
C15 C17 1_555 1_555
C16 C12 1_555 1_555
C17 C11 1_555 1_555
C18 C9 1_555 1_555
C19 C20 1_555 1_555
C20 C18 1_555 1_555
C21 C15 1_555 1_555
C22 C14 1_555 1_555
N2 C13 1_555 1_555
C5 C13 1_555 1_555
C7 C13 1_555 1_555
C16 C21 1_555 1_555
C19 C22 1_555 1_555

#END
