
#######################################################################
#
#                 Cambridge Crystallographic Data Centre
#                                CCDC 
#
#######################################################################
#
# If this CIF has been generated from an entry in the Cambridge 
# Structural Database, then it will include bibliographic, chemical, 
# crystal, experimental, refinement or atomic coordinate data resulting 
# from the CCDC's data processing and validation procedures.
#
#######################################################################

data_LIPBIW01
_chemical_formula_moiety         'C29 H49 N5 O2'
_chemical_name_systematic        Methyl-bis(3-(N'-adamantylurea-N)propyl)amine
_symmetry_cell_setting           monoclinic
_symmetry_space_group_name_H-M   'C 2/c'
_symmetry_Int_Tables_number      15
_space_group_name_Hall           '-C 2yn'
loop_
_symmetry_equiv_pos_site_id
_symmetry_equiv_pos_as_xyz
1 x,y,z
2 1/2+x,1/2+y,z
3 -x,y,1/2-z
4 1/2-x,1/2+y,1/2-z
5 -x,-y,-z
6 1/2-x,1/2-y,-z
7 x,-y,1/2+z
8 1/2+x,1/2-y,1/2+z
_cell_length_a                   31.394(5)
_cell_length_b                   9.2274(10)
_cell_length_c                   24.440(5)
_cell_angle_alpha                90
_cell_angle_beta                 127.337(13)
_cell_angle_gamma                90
_cell_volume                     5629.1
_exptl_crystal_colour            colorless
_exptl_crystal_description       needle
_cell_formula_units_Z            8
loop_
_atom_site_label
_atom_site_type_symbol
_atom_site_fract_x
_atom_site_fract_y
_atom_site_fract_z
O1 O 0.29972(6) 0.13342(15) 0.12757(8)
O2 O 0.19837(6) 0.13353(15) 0.34661(8)
N1 N 0.34417(8) 0.33572(19) 0.19210(11)
N2 N 0.26351(8) 0.3555(2) 0.08461(11)
N3 N 0.16771(8) 0.33323(19) 0.36892(10)
N4 N 0.22759(8) 0.3578(2) 0.34575(10)
N5 N 0.15236(7) 0.28112(19) 0.12624(10)
C1 C 0.38781(9) 0.2630(2) 0.25558(12)
C2 C 0.42431(10) 0.3807(2) 0.30771(13)
C3 C 0.47076(10) 0.3120(3) 0.37532(13)
C4 C 0.44847(10) 0.2199(3) 0.40471(13)
C5 C 0.41253(10) 0.1004(3) 0.35349(13)
C6 C 0.36637(9) 0.1716(2) 0.28636(12)
C7 C 0.42109(9) 0.1676(2) 0.24337(12)
C8 C 0.46711(10) 0.0974(2) 0.31040(13)
C9 C 0.44444(10) 0.0051(2) 0.33927(14)
C10 C 0.50338(9) 0.2150(2) 0.36237(13)
C11 C 0.30232(10) 0.2679(2) 0.13485(13)
C12 C 0.21150(9) 0.3007(2) 0.02800(12)
C13 C 0.16935(10) 0.3212(2) 0.03999(12)
C14 C 0.18367(10) 0.2379(2) 0.10257(12)
C15 C 0.13904(9) 0.2603(2) 0.39106(11)
C16 C 0.09442(9) 0.1626(2) 0.33465(12)
C17 C 0.06394(9) 0.0940(2) 0.35876(13)
C18 C 0.03862(9) 0.2127(2) 0.37400(13)
C19 C 0.08282(9) 0.3119(2) 0.43031(12)
C20 C 0.11320(9) 0.3788(2) 0.40621(12)
C21 C 0.17727(9) 0.1733(2) 0.45700(12)
C22 C 0.14671(9) 0.1038(2) 0.48041(12)
C23 C 0.12125(10) 0.2234(2) 0.49540(12)
C24 C 0.10283(10) 0.0049(2) 0.42359(13)
C25 C 0.19787(9) 0.2673(2) 0.35372(11)
C26 C 0.25802(9) 0.3117(2) 0.32214(12)
C27 C 0.22977(9) 0.3408(2) 0.24618(12)
C28 C 0.18047(9) 0.2468(2) 0.19890(12)
C29 C 0.09952(10) 0.2143(3) 0.08435(14)
H1 H 0.43860 0.44150 0.28880
H2 H 0.40340 0.44380 0.31630
H3 H 0.49430 0.38980 0.40890
H4 H 0.42760 0.28170 0.41370
H5 H 0.47840 0.17590 0.44880
H6 H 0.39800 0.04010 0.37270
H7 H 0.34560 0.23390 0.29540
H8 H 0.34210 0.09570 0.25310
H9 H 0.39800 0.09140 0.20930
H10 H 0.43560 0.22720 0.22440
H11 H 0.48830 0.03460 0.30150
H12 H 0.42100 -0.07140 0.30580
H13 H 0.47410 -0.04250 0.38240
H14 H 0.51870 0.27400 0.34430
H15 H 0.53330 0.16980 0.40610
H16 H 0.3395(9) 0.425(2) 0.1943(11)
H17 H 0.2662(9) 0.442(2) 0.0952(12)
H18 H 0.21460 0.19630 0.02170
H19 H 0.19960 0.35160 -0.01480
H20 H 0.16620 0.42550 0.04640
H21 H 0.13410 0.28760 -0.00110
H22 H 0.17800 0.13330 0.09140
H23 H 0.22220 0.25260 0.14050
H24 H 0.11000 0.08550 0.32350
H25 H 0.06940 0.22020 0.29250
H26 H 0.03520 0.02930 0.32180
H27 H 0.01880 0.16870 0.38940
H28 H 0.01300 0.26960 0.33180
H29 H 0.06650 0.39060 0.44020
H30 H 0.14130 0.44460 0.44220
H31 H 0.08830 0.43670 0.36410
H32 H 0.19490 0.09700 0.44860
H33 H 0.20540 0.23810 0.49360
H34 H 0.17200 0.04580 0.52310
H35 H 0.10160 0.17970 0.51110
H36 H 0.14950 0.28730 0.53240
H37 H 0.11910 -0.07230 0.41350
H38 H 0.08330 -0.04170 0.43900
H39 H 0.1725(9) 0.425(2) 0.3749(11)
H40 H 0.2244(9) 0.445(2) 0.3513(11)
H41 H 0.26530 0.20660 0.33080
H42 H 0.29290 0.36270 0.34930
H43 H 0.25530 0.32390 0.23570
H44 H 0.21900 0.44400 0.23650
H45 H 0.19150 0.14370 0.20670
H46 H 0.15560 0.26000 0.21070
H47 H 0.10330 0.10860 0.08850
H48 H 0.08070 0.24220 0.03610
H49 H 0.07900 0.24700 0.10020
loop_
_geom_bond_atom_site_label_1
_geom_bond_atom_site_label_2
_geom_bond_site_symmetry_1
_geom_bond_site_symmetry_2
O1 C11 1_555 1_555
O2 C25 1_555 1_555
N1 C1 1_555 1_555
N2 C11 1_555 1_555
N3 C15 1_555 1_555
N4 C25 1_555 1_555
N5 C14 1_555 1_555
C1 C2 1_555 1_555
C2 C3 1_555 1_555
C3 C4 1_555 1_555
C4 C5 1_555 1_555
C5 C6 1_555 1_555
C6 C1 1_555 1_555
C7 C1 1_555 1_555
C8 C7 1_555 1_555
C9 C5 1_555 1_555
C10 C3 1_555 1_555
C11 N1 1_555 1_555
C12 N2 1_555 1_555
C13 C12 1_555 1_555
C14 C13 1_555 1_555
C15 C16 1_555 1_555
C16 C17 1_555 1_555
C17 C18 1_555 1_555
C18 C19 1_555 1_555
C19 C20 1_555 1_555
C20 C15 1_555 1_555
C21 C15 1_555 1_555
C22 C21 1_555 1_555
C23 C19 1_555 1_555
C24 C17 1_555 1_555
C25 N3 1_555 1_555
C26 N4 1_555 1_555
C27 C26 1_555 1_555
C28 N5 1_555 1_555
C29 N5 1_555 1_555
H1 C2 1_555 1_555
H2 C2 1_555 1_555
H3 C3 1_555 1_555
H4 C4 1_555 1_555
H5 C4 1_555 1_555
H6 C5 1_555 1_555
H7 C6 1_555 1_555
H8 C6 1_555 1_555
H9 C7 1_555 1_555
H10 C7 1_555 1_555
H11 C8 1_555 1_555
H12 C9 1_555 1_555
H13 C9 1_555 1_555
H14 C10 1_555 1_555
H15 C10 1_555 1_555
H16 N1 1_555 1_555
H17 N2 1_555 1_555
H18 C12 1_555 1_555
H19 C12 1_555 1_555
H20 C13 1_555 1_555
H21 C13 1_555 1_555
H22 C14 1_555 1_555
H23 C14 1_555 1_555
H24 C16 1_555 1_555
H25 C16 1_555 1_555
H26 C17 1_555 1_555
H27 C18 1_555 1_555
H28 C18 1_555 1_555
H29 C19 1_555 1_555
H30 C20 1_555 1_555
H31 C20 1_555 1_555
H32 C21 1_555 1_555
H33 C21 1_555 1_555
H34 C22 1_555 1_555
H35 C23 1_555 1_555
H36 C23 1_555 1_555
H37 C24 1_555 1_555
H38 C24 1_555 1_555
H39 N3 1_555 1_555
H40 N4 1_555 1_555
H41 C26 1_555 1_555
H42 C26 1_555 1_555
H43 C27 1_555 1_555
H44 C27 1_555 1_555
H45 C28 1_555 1_555
H46 C28 1_555 1_555
H47 C29 1_555 1_555
H48 C29 1_555 1_555
H49 C29 1_555 1_555
C8 C9 1_555 1_555
C8 C10 1_555 1_555
C22 C23 1_555 1_555
C22 C24 1_555 1_555
C27 C28 1_555 1_555

#END
