
#######################################################################
#
#                 Cambridge Crystallographic Data Centre
#                                CCDC 
#
#######################################################################
#
# If this CIF has been generated from an entry in the Cambridge 
# Structural Database, then it will include bibliographic, chemical, 
# crystal, experimental, refinement or atomic coordinate data resulting 
# from the CCDC's data processing and validation procedures.
#
#######################################################################

data_LIRJIH
_chemical_formula_moiety         'C36 H28 N2 O4,0.5(C7 H8)'
_chemical_name_systematic        
'2,4,5,6-tetrakis(4-methoxyphenyl)benzene-1,3-dicarbonitrile toluene solvate'
_symmetry_cell_setting           triclinic
_symmetry_space_group_name_H-M   'P -1'
_symmetry_Int_Tables_number      2
_space_group_name_Hall           '-P 1'
loop_
_symmetry_equiv_pos_site_id
_symmetry_equiv_pos_as_xyz
1 x,y,z
2 -x,-y,-z
_cell_length_a                   11.0254(4)
_cell_length_b                   11.6779(4)
_cell_length_c                   12.6428(4)
_cell_angle_alpha                87.3370(10)
_cell_angle_beta                 89.8970(10)
_cell_angle_gamma                76.0320(10)
_cell_volume                     1577.89
_exptl_crystal_colour            yellow
_exptl_crystal_description       plate
_cell_formula_units_Z            2
loop_
_atom_site_label
_atom_site_type_symbol
_atom_site_fract_x
_atom_site_fract_y
_atom_site_fract_z
O1 O -0.20176(8) 0.96023(7) 0.46252(7)
O2 O 0.64626(9) 0.15279(8) 0.19826(7)
O3 O 0.29126(9) 0.66536(8) 0.07658(7)
O4 O 0.32913(9) 0.18188(9) 1.12030(7)
N1 N 0.51173(10) 0.14213(9) 0.67991(8)
C1 C 0.09901(11) 0.55738(10) 0.75720(9)
C2 C 0.34534(10) 0.38453(9) 0.52391(8)
N2 N 0.03073(10) 0.60115(10) 0.82023(8)
C3 C 0.28314(11) 0.34380(9) 0.81882(8)
C4 C 0.57503(11) 0.20090(10) 0.28092(9)
C5 C 0.25438(10) 0.53960(9) 0.38471(8)
C6 C 0.25734(10) 0.49087(9) 0.49627(8)
C7 C 0.42995(10) 0.31912(9) 0.44307(8)
C8 C 0.18525(10) 0.50060(10) 0.67798(8)
C9 C 0.17633(10) 0.54992(9) 0.57313(8)
C10 C 0.42598(11) 0.20431(10) 0.42046(9)
C11 C 0.44131(11) 0.22939(10) 0.65726(8)
C12 C 0.35223(10) 0.33948(9) 0.62954(8)
C13 C 0.27322(10) 0.39598(10) 0.70853(8)
C14 C 0.39710(11) 0.32076(10) 0.87382(9)
C15 C 0.00032(11) 0.66688(10) 0.45735(9)
C16 C 0.06285(11) 0.75982(10) 0.60607(9)
C17 C 0.29541(11) 0.68733(10) 0.25847(9)
C18 C 0.49781(11) 0.14478(10) 0.34024(9)
C19 C 0.51080(11) 0.37287(10) 0.38456(9)
C20 C 0.07929(10) 0.66046(10) 0.54562(9)
C21 C -0.03046(11) 0.86181(10) 0.58185(9)
C22 C 0.58290(11) 0.31427(10) 0.30483(9)
C23 C 0.27257(11) 0.62039(11) 0.17553(9)
C24 C 0.22674(11) 0.47680(10) 0.30092(9)
C25 C 0.23505(12) 0.51634(11) 0.19634(9)
C26 C -0.10775(11) 0.86569(10) 0.49446(9)
C27 C 0.28697(11) 0.64641(10) 0.36232(9)
C28 C -0.09108(11) 0.76782(11) 0.43169(9)
C29 C 0.18154(11) 0.31327(11) 0.86810(9)
C30 C 0.40939(12) 0.26757(11) 0.97437(10)
C31 C -0.23488(13) 1.05567(11) 0.53237(11)
C32 C 0.19261(12) 0.25944(11) 0.96928(9)
C33 C 0.63842(14) 0.03706(12) 0.17042(12)
C34 C 0.30717(12) 0.23556(11) 1.02189(9)
C35 C 0.23002(14) 0.13931(15) 1.16873(11)
H1 H 0.2017 0.0780 1.1171
H2 H 0.1507 0.2135 1.1814
H3 H 0.2622 0.0940 1.2445
C36 C 0.2685(3) 0.60076(18) -0.01071(12)
H4 H 0.5160(12) 0.4534(12) 0.3986(10)
H5 H 0.2024(13) 0.4028(12) 0.3159(11)
H6 H 0.3189(13) 0.7613(13) 0.2405(11)
H7 H 0.1197(13) 0.7595(12) 0.6654(11)
H8 H 0.0099(13) 0.5985(12) 0.4139(11)
H9 H -0.1458(13) 0.7714(12) 0.3706(11)
H10 H 0.3059(12) 0.6934(12) 0.4204(10)
H11 H 0.6368(13) 0.3511(12) 0.2640(11)
H12 H 0.4875(14) 0.2519(12) 1.0119(11)
H13 H 0.4919(13) 0.0674(12) 0.3251(11)
H14 H -0.0385(13) 0.9296(12) 0.6250(11)
H15 H 0.3697(13) 0.1655(12) 0.4600(10)
H16 H 0.4684(14) 0.3430(12) 0.8411(11)
H17 H 0.2151(14) 0.4711(13) 0.1391(12)
H18 H 0.1213(15) 0.2395(13) 1.0021(12)
H19 H -0.3072(15) 1.1134(14) 0.4979(12)
H20 H 0.5499(16) 0.0353(13) 0.1545(12)
H21 H 0.6700(16) -0.0206(15) 0.2308(13)
H22 H -0.1636(15) 1.0934(14) 0.5420(12)
H23 H 0.1002(14) 0.3314(13) 0.8311(11)
H24 H 0.6934(15) 0.0190(14) 0.1093(13)
H25 H -0.2605(15) 1.0266(14) 0.6028(13)
H26 H 0.2851(19) 0.6449(18) -0.0726(17)
H27 H 0.326(2) 0.522(2) -0.0043(18)
H28 H 0.175(3) 0.599(3) -0.012(2)
C37? C 0.9673(8) 0.9611(7) 0.1856(6)
H29? H 0.914(5) 1.040(5) 0.218(4)
H30? H 1.044(5) 0.928(4) 0.218(4)
H31? H 0.931(5) 0.899(5) 0.201(4)
C38? C 0.9843(3) 0.9810(3) 0.0678(3)
C39? C 0.9265(14) 1.0876(13) 0.0179(10)
H32? H 0.867(4) 1.154(4) 0.061(3)
C40? C 0.9432(3) 1.1060(3) -0.0923(4)
H33? H 0.903(4) 1.184(4) -0.125(3)
C41? C 1.0210(7) 1.0194(8) -0.1481(5)
H34? H 1.028(6) 1.030(5) -0.228(4)
C42? C 1.0775(3) 0.9133(4) -0.0979(4)
H35? H 1.131(4) 0.850(4) -0.142(4)
C43? C 1.0611(13) 0.8961(13) 0.0114(9)
H36? H 1.099(4) 0.815(4) 0.043(3)
loop_
_geom_bond_atom_site_label_1
_geom_bond_atom_site_label_2
_geom_bond_site_symmetry_1
_geom_bond_site_symmetry_2
O1 C26 1_555 1_555
O2 C4 1_555 1_555
O3 C23 1_555 1_555
O4 C34 1_555 1_555
N1 C11 1_555 1_555
C1 N2 1_555 1_555
C2 C6 1_555 1_555
C3 C13 1_555 1_555
C4 C18 1_555 1_555
C5 C6 1_555 1_555
C6 C9 1_555 1_555
C7 C2 1_555 1_555
C8 C1 1_555 1_555
C9 C8 1_555 1_555
C10 C7 1_555 1_555
C11 C12 1_555 1_555
C12 C2 1_555 1_555
C13 C8 1_555 1_555
C14 C3 1_555 1_555
C15 C20 1_555 1_555
C16 C20 1_555 1_555
C17 C23 1_555 1_555
C18 C10 1_555 1_555
C19 C7 1_555 1_555
C20 C9 1_555 1_555
C21 C16 1_555 1_555
C22 C4 1_555 1_555
C23 C25 1_555 1_555
C24 C5 1_555 1_555
C25 C24 1_555 1_555
C26 C21 1_555 1_555
C27 C5 1_555 1_555
C28 C15 1_555 1_555
C29 C3 1_555 1_555
C30 C14 1_555 1_555
C31 O1 1_555 1_555
C32 C29 1_555 1_555
C33 O2 1_555 1_555
C34 C30 1_555 1_555
C35 O4 1_555 1_555
H1 C35 1_555 1_555
H2 C35 1_555 1_555
H3 C35 1_555 1_555
C36 O3 1_555 1_555
H4 C19 1_555 1_555
H5 C24 1_555 1_555
H6 C17 1_555 1_555
H7 C16 1_555 1_555
H8 C15 1_555 1_555
H9 C28 1_555 1_555
H10 C27 1_555 1_555
H11 C22 1_555 1_555
H12 C30 1_555 1_555
H13 C18 1_555 1_555
H14 C21 1_555 1_555
H15 C10 1_555 1_555
H16 C14 1_555 1_555
H17 C25 1_555 1_555
H18 C32 1_555 1_555
H19 C31 1_555 1_555
H20 C33 1_555 1_555
H21 C33 1_555 1_555
H22 C31 1_555 1_555
H23 C29 1_555 1_555
H24 C33 1_555 1_555
H25 C31 1_555 1_555
H26 C36 1_555 1_555
H27 C36 1_555 1_555
H28 C36 1_555 1_555
C12 C13 1_555 1_555
C17 C27 1_555 1_555
C19 C22 1_555 1_555
C26 C28 1_555 1_555
C32 C34 1_555 1_555

#END
