
#######################################################################
#
#                 Cambridge Crystallographic Data Centre
#                                CCDC 
#
#######################################################################
#
# If this CIF has been generated from an entry in the Cambridge 
# Structural Database, then it will include bibliographic, chemical, 
# crystal, experimental, refinement or atomic coordinate data resulting 
# from the CCDC's data processing and validation procedures.
#
#######################################################################

data_LISFIF
_chemical_formula_moiety         'C24 H21 F3 O4'
_chemical_name_systematic        
3-(3,5-dimethylphenyl)-5-hydroxy-4',6-dimethyl-3-(trifluoromethyl)-2'H,3H,5'H-spiro[1-benzofuran-2,1'-cyclohex[3]ene]-2',5'-dione
_symmetry_cell_setting           triclinic
_symmetry_space_group_name_H-M   'P -1'
_symmetry_Int_Tables_number      2
_space_group_name_Hall           '-P 1'
loop_
_symmetry_equiv_pos_site_id
_symmetry_equiv_pos_as_xyz
1 x,y,z
2 -x,-y,-z
_cell_length_a                   7.4303(4)
_cell_length_b                   9.5141(5)
_cell_length_c                   15.3468(7)
_cell_angle_alpha                97.260(4)
_cell_angle_beta                 97.351(4)
_cell_angle_gamma                110.969(5)
_cell_volume                     987.217
_exptl_crystal_colour            colorless
_exptl_crystal_description       Plate
_cell_formula_units_Z            2
loop_
_atom_site_label
_atom_site_type_symbol
_atom_site_fract_x
_atom_site_fract_y
_atom_site_fract_z
F1 F 0.65158(11) 0.56785(8) 0.39754(5)
F2 F 0.63292(11) 0.36792(9) 0.45301(5)
F3 F 0.37182(11) 0.38140(9) 0.38231(5)
O1 O 0.87486(13) 0.52755(10) 0.25159(6)
O2 O 0.17745(14) 0.52232(11) 0.07731(6)
O3 O 0.84991(14) 0.28411(11) 0.13832(6)
O4 O 0.97198(14) 0.25610(11) 0.48037(6)
C1 C 0.58969(18) 0.34230(14) 0.29099(8)
C2 C 0.53685(19) 0.43153(14) 0.22282(8)
C3 C 0.35588(19) 0.42706(14) 0.18241(9)
H1 H 0.2378 0.3589 0.1956
C4 C 0.35091(19) 0.52417(15) 0.12242(9)
C5 C 0.5249(2) 0.62729(15) 0.10321(9)
C6 C 0.7049(2) 0.63176(15) 0.14586(9)
H2 H 0.8243 0.7013 0.1347
C7 C 0.70644(19) 0.53336(15) 0.20471(9)
C8 C 0.81602(18) 0.38616(14) 0.28462(9)
C9 C 0.83932(18) 0.26468(15) 0.21473(9)
C10 C 0.8613(2) 0.13017(15) 0.24536(9)
H3 H 0.8387 0.0424 0.2017
C11 C 0.91163(19) 0.12518(15) 0.33162(9)
C12 C 0.94859(18) 0.26260(15) 0.40151(9)
C13 C 0.96315(19) 0.41031(15) 0.36983(9)
H4 H 1.0975 0.4621 0.3589
H5 H 0.9414 0.4789 0.4179
C14 C 0.56365(19) 0.41515(15) 0.38161(9)
C15 C 0.46760(18) 0.16892(14) 0.26879(9)
C16 C 0.37004(19) 0.10227(15) 0.18128(9)
H6 H 0.3774 0.1653 0.1375
C17 C 0.26162(19) -0.05504(15) 0.15636(9)
C18 C 0.25819(19) -0.14708(15) 0.22014(9)
H7 H 0.1869 -0.2545 0.2037
C19 C 0.35811(19) -0.08388(15) 0.30810(9)
C20 C 0.45930(19) 0.07377(15) 0.33202(9)
H8 H 0.5238 0.1176 0.3922
C21 C 0.5182(2) 0.73013(16) 0.03714(10)
H9 H 0.4128 0.6728 -0.0143
H10 H 0.6440 0.7669 0.0169
H11 H 0.4932 0.8177 0.0657
C22 C 0.9308(2) -0.01174(17) 0.36374(10)
H12 H 0.9061 -0.0929 0.3123
H13 H 0.8353 -0.0487 0.4023
H14 H 1.0637 0.0167 0.3976
C23 C 0.1488(2) -0.12016(16) 0.06190(9)
H15 H 0.0312 -0.0954 0.0542
H16 H 0.1101 -0.2316 0.0503
H17 H 0.2317 -0.0757 0.0198
C24 C 0.3549(2) -0.18611(16) 0.37596(10)
H18 H 0.2236 -0.2258 0.3907
H19 H 0.4509 -0.1271 0.4302
H20 H 0.3880 -0.2718 0.3510
H21 H 0.082(3) 0.457(2) 0.0933(13)
loop_
_geom_bond_atom_site_label_1
_geom_bond_atom_site_label_2
_geom_bond_site_symmetry_1
_geom_bond_site_symmetry_2
F1 C14 1_555 1_555
F2 C14 1_555 1_555
F3 C14 1_555 1_555
O1 C7 1_555 1_555
O2 C4 1_555 1_555
O3 C9 1_555 1_555
O4 C12 1_555 1_555
C1 C2 1_555 1_555
C2 C3 1_555 1_555
C3 H1 1_555 1_555
C4 C3 1_555 1_555
C5 C4 1_555 1_555
C6 C5 1_555 1_555
H2 C6 1_555 1_555
C7 C2 1_555 1_555
C8 O1 1_555 1_555
C9 C8 1_555 1_555
C10 C9 1_555 1_555
H3 C10 1_555 1_555
C11 C10 1_555 1_555
C12 C11 1_555 1_555
C13 C8 1_555 1_555
H4 C13 1_555 1_555
H5 C13 1_555 1_555
C14 C1 1_555 1_555
C15 C1 1_555 1_555
C16 C15 1_555 1_555
H6 C16 1_555 1_555
C17 C16 1_555 1_555
C18 C17 1_555 1_555
H7 C18 1_555 1_555
C19 C18 1_555 1_555
C20 C15 1_555 1_555
H8 C20 1_555 1_555
C21 C5 1_555 1_555
H9 C21 1_555 1_555
H10 C21 1_555 1_555
H11 C21 1_555 1_555
C22 C11 1_555 1_555
H12 C22 1_555 1_555
H13 C22 1_555 1_555
H14 C22 1_555 1_555
C23 C17 1_555 1_555
H15 C23 1_555 1_555
H16 C23 1_555 1_555
H17 C23 1_555 1_555
C24 C19 1_555 1_555
H18 C24 1_555 1_555
H19 C24 1_555 1_555
H20 C24 1_555 1_555
H21 O2 1_555 1_555
C1 C8 1_555 1_555
C6 C7 1_555 1_555
C12 C13 1_555 1_555
C19 C20 1_555 1_555

#END
