
#######################################################################
#
#                 Cambridge Crystallographic Data Centre
#                                CCDC 
#
#######################################################################
#
# If this CIF has been generated from an entry in the Cambridge 
# Structural Database, then it will include bibliographic, chemical, 
# crystal, experimental, refinement or atomic coordinate data resulting 
# from the CCDC's data processing and validation procedures.
#
#######################################################################

data_LISKEE
_chemical_formula_moiety         'C23 H30 O4 S2'
_chemical_name_systematic        
2,6,12,15-Tetraoxa-9,18-dithia-1,7(1,2)-dibenzenacyclononadecaphane
_symmetry_cell_setting           monoclinic
_symmetry_space_group_name_H-M   'P 21/n'
_symmetry_Int_Tables_number      14
_space_group_name_Hall           '-P 2yn'
loop_
_symmetry_equiv_pos_site_id
_symmetry_equiv_pos_as_xyz
1 x,y,z
2 1/2-x,1/2+y,1/2-z
3 -x,-y,-z
4 1/2+x,1/2-y,1/2+z
_cell_length_a                   7.2715(7)
_cell_length_b                   17.7701(18)
_cell_length_c                   17.5509(17)
_cell_angle_alpha                90
_cell_angle_beta                 93.562(2)
_cell_angle_gamma                90
_cell_volume                     2263.46
_exptl_crystal_colour            colorless
_exptl_crystal_description       block
_cell_formula_units_Z            4
_exptl_crystal_recrystallization_method methanol
loop_
_atom_site_label
_atom_site_type_symbol
_atom_site_fract_x
_atom_site_fract_y
_atom_site_fract_z
S1 S 0.38722(9) 0.15065(4) 0.65979(4)
S2 S 1.24205(8) 0.15849(4) 0.27396(4)
O1 O 1.09179(17) 0.30840(8) 0.40334(8)
O2 O 0.52686(17) 0.30331(8) 0.52493(8)
O3 O 0.6524(2) 0.10414(10) 0.52558(9)
O4 O 0.76251(19) 0.12118(9) 0.36614(9)
C1 C 0.9462(3) 0.35366(12) 0.42837(12)
H1 H 0.8867 0.3803 0.3854
H2 H 0.9946 0.3905 0.4651
C2 C 0.8097(2) 0.30383(12) 0.46435(11)
H3 H 0.8719 0.2736 0.5041
H4 H 0.7529 0.2702 0.4263
C3 C 0.6641(2) 0.35163(12) 0.49796(12)
H5 H 0.7185 0.3816 0.5397
H6 H 0.6098 0.3854 0.4594
C4 C 0.3884(2) 0.33475(12) 0.56373(11)
C5 C 0.3705(3) 0.41095(12) 0.57576(12)
H7 H 0.4541 0.4444 0.5564
C6 C 0.2271(3) 0.43753(14) 0.61693(13)
H8 H 0.2164 0.4889 0.6258
C7 C 0.1011(3) 0.38896(14) 0.64457(12)
H9 H 0.0049 0.4070 0.6720
C8 C 0.1192(3) 0.31295(13) 0.63116(12)
H10 H 0.0328 0.2800 0.6495
C9 C 0.2619(2) 0.28401(12) 0.59122(11)
C10 C 0.2795(3) 0.20095(12) 0.57895(12)
H11 H 0.3511 0.1926 0.5349
H12 H 0.1576 0.1801 0.5674
C11 C 0.6278(3) 0.16220(14) 0.64680(13)
H13 H 0.6451 0.2094 0.6205
H14 H 0.6926 0.1659 0.6967
C12 C 0.7145(3) 0.10078(16) 0.60307(15)
H15 H 0.8475 0.1061 0.6077
H16 H 0.6830 0.0523 0.6241
C13 C 0.7346(4) 0.04697(15) 0.48249(16)
H17 H 0.6932 -0.0021 0.4986
H18 H 0.8676 0.0490 0.4912
C14 C 0.6831(3) 0.05787(14) 0.40046(15)
H19 H 0.7181 0.0131 0.3732
H20 H 0.5501 0.0624 0.3940
C15 C 0.9514(3) 0.11321(14) 0.35437(14)
H21 H 0.9774 0.0617 0.3404
H22 H 1.0240 0.1249 0.4011
C16 C 1.0021(3) 0.16519(13) 0.29226(12)
H23 H 0.9743 0.2165 0.3065
H24 H 0.9282 0.1533 0.2459
C17 C 1.3564(3) 0.21288(13) 0.35090(12)
H25 H 1.2949 0.2034 0.3974
H26 H 1.4823 0.1952 0.3589
C18 C 1.3596(2) 0.29552(12) 0.33732(11)
C19 C 1.4990(3) 0.32811(13) 0.29778(12)
H27 H 1.5917 0.2975 0.2807
C20 C 1.5043(3) 0.40422(14) 0.28309(12)
H28 H 1.5981 0.4245 0.2558
C21 C 1.3690(3) 0.44974(14) 0.30921(13)
H29 H 1.3711 0.5012 0.2994
C22 C 1.2301(3) 0.41970(12) 0.34990(13)
H30 H 1.1400 0.4509 0.3681
C23 C 1.2252(3) 0.34323(12) 0.36365(11)
loop_
_geom_bond_atom_site_label_1
_geom_bond_atom_site_label_2
_geom_bond_site_symmetry_1
_geom_bond_site_symmetry_2
S1 C10 1_555 1_555
S2 C16 1_555 1_555
O1 C1 1_555 1_555
O2 C3 1_555 1_555
O3 C12 1_555 1_555
O4 C14 1_555 1_555
C1 H1 1_555 1_555
H2 C1 1_555 1_555
C2 C1 1_555 1_555
H3 C2 1_555 1_555
H4 C2 1_555 1_555
C3 C2 1_555 1_555
H5 C3 1_555 1_555
H6 C3 1_555 1_555
C4 O2 1_555 1_555
C5 C4 1_555 1_555
H7 C5 1_555 1_555
C6 C5 1_555 1_555
H8 C6 1_555 1_555
C7 C6 1_555 1_555
H9 C7 1_555 1_555
C8 C7 1_555 1_555
H10 C8 1_555 1_555
C9 C4 1_555 1_555
C10 C9 1_555 1_555
H11 C10 1_555 1_555
H12 C10 1_555 1_555
C11 S1 1_555 1_555
H13 C11 1_555 1_555
H14 C11 1_555 1_555
C12 C11 1_555 1_555
H15 C12 1_555 1_555
H16 C12 1_555 1_555
C13 O3 1_555 1_555
H17 C13 1_555 1_555
H18 C13 1_555 1_555
C14 C13 1_555 1_555
H19 C14 1_555 1_555
H20 C14 1_555 1_555
C15 O4 1_555 1_555
H21 C15 1_555 1_555
H22 C15 1_555 1_555
C16 C15 1_555 1_555
H23 C16 1_555 1_555
H24 C16 1_555 1_555
C17 S2 1_555 1_555
H25 C17 1_555 1_555
H26 C17 1_555 1_555
C18 C17 1_555 1_555
C19 C18 1_555 1_555
H27 C19 1_555 1_555
C20 C19 1_555 1_555
H28 C20 1_555 1_555
C21 C20 1_555 1_555
H29 C21 1_555 1_555
C22 C21 1_555 1_555
H30 C22 1_555 1_555
C23 O1 1_555 1_555
C8 C9 1_555 1_555
C18 C23 1_555 1_555
C22 C23 1_555 1_555

#END
