
#######################################################################
#
#                 Cambridge Crystallographic Data Centre
#                                CCDC 
#
#######################################################################
#
# If this CIF has been generated from an entry in the Cambridge 
# Structural Database, then it will include bibliographic, chemical, 
# crystal, experimental, refinement or atomic coordinate data resulting 
# from the CCDC's data processing and validation procedures.
#
#######################################################################

data_LISTUD
_chemical_formula_moiety         'C15 H18 Cl1 N1 O3,H2 O1'
_chemical_name_systematic        
'2-(1-(2-Chlorophenyl)-2-nitroethyl)-4-methylcyclohexanone monohydrate'
_symmetry_cell_setting           hexagonal
_symmetry_space_group_name_H-M   'P 65'
_symmetry_Int_Tables_number      170
_space_group_name_Hall           'P 65'
loop_
_symmetry_equiv_pos_site_id
_symmetry_equiv_pos_as_xyz
1 x,y,z
2 -y,x-y,2/3+z
3 -x+y,-x,1/3+z
4 -x,-y,1/2+z
5 y,-x+y,1/6+z
6 x-y,x,5/6+z
_cell_length_a                   17.250(2)
_cell_length_b                   17.250(2)
_cell_length_c                   9.5313(19)
_cell_angle_alpha                90
_cell_angle_beta                 90
_cell_angle_gamma                120
_cell_volume                     2456.18
_exptl_crystal_colour            colorless
_exptl_crystal_description       Prism
_cell_formula_units_Z            6
loop_
_atom_site_label
_atom_site_type_symbol
_atom_site_fract_x
_atom_site_fract_y
_atom_site_fract_z
N1 N 0.0168(3) 0.2500(3) 0.1778(3)
Cl1 Cl 0.01854(8) 0.48782(8) 0.08334(16)
O1 O -0.03075(17) 0.25024(19) -0.2446(2)
O3 O -0.0360(3) 0.2715(3) 0.2038(4)
O4 O 0.0447(3) 0.2159(2) 0.2586(4)
C1 C 0.0478(3) 0.2978(2) -0.2763(4)
C2 C 0.0827(3) 0.2997(3) -0.4198(4)
H1 H 0.0350 0.2557 -0.4784
H2 H 0.1299 0.2848 -0.4154
C3 C 0.1189(2) 0.3924(3) -0.4827(3)
H3 H 0.1463 0.3948 -0.5727
H4 H 0.0697 0.4034 -0.4987
C4 C 0.1868(3) 0.4642(2) -0.3887(3)
H5 H 0.1980 0.5216 -0.4272
C5 C 0.2768(3) 0.4664(3) -0.3891(4)
H6 H 0.2982 0.4726 -0.4837
H7 H 0.2691 0.4119 -0.3496
H8 H 0.3194 0.5163 -0.3342
C6 C 0.1498(2) 0.4573(2) -0.2403(3)
H9 H 0.1963 0.5022 -0.1812
H10 H 0.1009 0.4698 -0.2437
C7 C 0.1162(2) 0.3647(2) -0.1753(3)
H11 H 0.1666 0.3537 -0.1700
C8 C 0.0781(2) 0.3571(2) -0.0248(3)
H12 H 0.0217 0.3576 -0.0322
C9 C 0.0575(2) 0.2658(2) 0.0338(3)
H13 H 0.0164 0.2188 -0.0288
H14 H 0.1123 0.2632 0.0380
C10 C 0.1397(2) 0.4324(2) 0.0701(3)
C11 C 0.2230(2) 0.4438(2) 0.1074(3)
H15 H 0.2400 0.4048 0.0698
C12 C 0.2813(3) 0.5099(3) 0.1972(4)
H16 H 0.3358 0.5151 0.2221
C13 C 0.2553(3) 0.5684(3) 0.2487(4)
H17 H 0.2936 0.6149 0.3074
C14 C 0.1741(3) 0.5588(3) 0.2146(4)
H18 H 0.1570 0.5977 0.2526
C15 C 0.1180(2) 0.4927(3) 0.1254(3)
O2 O 0.0429(8) 0.0200(8) -0.037(6)
loop_
_geom_bond_atom_site_label_1
_geom_bond_atom_site_label_2
_geom_bond_site_symmetry_1
_geom_bond_site_symmetry_2
N1 O3 1_555 1_555
Cl1 C15 1_555 1_555
O1 C1 1_555 1_555
O4 N1 1_555 1_555
C1 C2 1_555 1_555
C2 H1 1_555 1_555
H2 C2 1_555 1_555
C3 C2 1_555 1_555
H3 C3 1_555 1_555
H4 C3 1_555 1_555
C4 C3 1_555 1_555
H5 C4 1_555 1_555
C5 C4 1_555 1_555
H6 C5 1_555 1_555
H7 C5 1_555 1_555
H8 C5 1_555 1_555
C6 C4 1_555 1_555
H9 C6 1_555 1_555
H10 C6 1_555 1_555
C7 C1 1_555 1_555
H11 C7 1_555 1_555
C8 C7 1_555 1_555
H12 C8 1_555 1_555
C9 N1 1_555 1_555
H13 C9 1_555 1_555
H14 C9 1_555 1_555
C10 C8 1_555 1_555
C11 C10 1_555 1_555
H15 C11 1_555 1_555
C12 C11 1_555 1_555
H16 C12 1_555 1_555
C13 C12 1_555 1_555
H17 C13 1_555 1_555
C14 C13 1_555 1_555
H18 C14 1_555 1_555
C15 C10 1_555 1_555
C6 C7 1_555 1_555
C8 C9 1_555 1_555
C14 C15 1_555 1_555

#END
