
#######################################################################
#
#                 Cambridge Crystallographic Data Centre
#                                CCDC 
#
#######################################################################
#
# If this CIF has been generated from an entry in the Cambridge 
# Structural Database, then it will include bibliographic, chemical, 
# crystal, experimental, refinement or atomic coordinate data resulting 
# from the CCDC's data processing and validation procedures.
#
#######################################################################

data_LITJAZ
_chemical_formula_moiety         'C30 H48 N8 O3,H2 O1'
_chemical_name_systematic        
'6,16,25-Trifurano(2,5)-1,4,8,11,14,18,23,27-octa-azabicyclo[9.9.9]nonacosaphane monohydrate'
_symmetry_cell_setting           rhombohedral
_symmetry_space_group_name_H-M   'R -3'
_symmetry_Int_Tables_number      148
_space_group_name_Hall           '-R 3'
loop_
_symmetry_equiv_pos_site_id
_symmetry_equiv_pos_as_xyz
1 x,y,z
2 -y,x-y,z
3 -x+y,-x,z
4 2/3+x,1/3+y,1/3+z
5 2/3-y,1/3+x-y,1/3+z
6 2/3-x+y,1/3-x,1/3+z
7 1/3+x,2/3+y,2/3+z
8 2/3+y,1/3-x+y,1/3-z
9 2/3+x-y,1/3+x,1/3-z
10 -x,-y,-z
11 y,-x+y,-z
12 x-y,x,-z
13 1/3-x,2/3-y,2/3-z
14 1/3+y,2/3-x+y,2/3-z
15 1/3+x-y,2/3+x,2/3-z
16 2/3-x,1/3-y,1/3-z
17 1/3-y,2/3+x-y,2/3+z
18 1/3-x+y,2/3-x,2/3+z
_cell_length_a                   14.6450(10)
_cell_length_b                   14.6450(10)
_cell_length_c                   25.530(4)
_cell_angle_alpha                90
_cell_angle_beta                 90
_cell_angle_gamma                120.00
_cell_volume                     4741.99
_exptl_crystal_colour            colorless
_exptl_crystal_description       block
_cell_formula_units_Z            6
_exptl_crystal_recrystallization_method '1:4 chloroform/hexane'
loop_
_atom_site_label
_atom_site_type_symbol
_atom_site_fract_x
_atom_site_fract_y
_atom_site_fract_z
N1 N 0.6667 0.3333 0.23660(8)
C1 C 0.55601(11) 0.27877(11) 0.25393(6)
H1 H 0.52188(11) 0.31608(11) 0.24039(6)
H2 H 0.55406(11) 0.28099(11) 0.29187(6)
C2 C 0.49446(12) 0.16438(12) 0.23607(6)
H3 H 0.51493(12) 0.15839(12) 0.20067(6)
H4 H 0.51008(12) 0.12089(12) 0.25882(6)
N2 N 0.38128(10) 0.12805(10) 0.23777(5)
H5 H 0.3660(14) 0.1629(14) 0.2137(7)
C3 C 0.31662(12) 0.01474(12) 0.22591(6)
H6 H 0.24326(12) -0.00337(12) 0.22448(6)
H7 H 0.32376(12) -0.02473(12) 0.25457(6)
C4 C 0.34312(11) -0.02004(11) 0.17605(6)
C5 C 0.39513(12) -0.07125(12) 0.16511(6)
H8 H 0.42349(12) -0.09788(12) 0.18921(6)
C6 C 0.39878(12) -0.07720(12) 0.10924(6)
H9 H 0.42986(12) -0.10865(12) 0.09021(6)
C7 C 0.34885(11) -0.02881(11) 0.08937(6)
O1 O 0.31349(8) 0.00799(8) 0.13003(4)
C8 C 0.33013(12) -0.00418(12) 0.03488(6)
H10 H 0.34779(12) -0.04401(12) 0.01064(6)
H11 H 0.25541(12) -0.02913(12) 0.03100(6)
N3 N 0.38851(10) 0.10702(10) 0.01930(5)
H12 H 0.3631(14) 0.1405(14) 0.0361(7)
C9 C 0.50161(11) 0.15668(12) 0.02929(6)
H13 H 0.52922(11) 0.11549(12) 0.01316(6)
H14 H 0.51422(11) 0.15930(12) 0.06671(6)
C10 C 0.55736(11) 0.26766(12) 0.00695(6)
H15 H 0.55712(11) 0.26317(12) -0.03097(6)
H16 H 0.51779(11) 0.30207(12) 0.01648(6)
N4 N 0.6667 0.3333 0.02483(8)
C10B C 0.71030(16) 0.44264(11) 0.00695(6)
C9B C 0.65507(16) 0.49839(11) 0.02929(6)
N3B N 0.71851(14) 0.61149(10) 0.01930(5)
C8B C 0.66569(17) 0.66987(12) 0.03488(6)
C7B C 0.62234(16) 0.65115(11) 0.08937(6)
C6B C 0.52402(17) 0.60122(12) 0.10924(6)
C5B C 0.53362(17) 0.60487(12) 0.16511(6)
C4B C 0.63684(16) 0.65688(11) 0.17605(6)
C3B C 0.69812(17) 0.68338(12) 0.22591(6)
N2B N 0.74677(14) 0.61872(10) 0.23777(5)
C2B C 0.66992(17) 0.50554(12) 0.23607(6)
C1B C 0.72276(16) 0.44399(11) 0.25393(6)
C1A C 0.72123(11) 0.27724(16) 0.25393(6)
H1A H 0.68392(11) 0.20580(16) 0.24039(6)
H2A H 0.71901(11) 0.27307(16) 0.29187(6)
C2A C 0.83562(12) 0.33008(17) 0.23607(6)
H3A H 0.84161(12) 0.35654(17) 0.20067(6)
H4A H 0.87911(12) 0.38919(17) 0.25882(6)
N2A N 0.87195(10) 0.25323(14) 0.23777(5)
H5A H 0.8371(14) 0.2031(20) 0.2137(7)
C3A C 0.98526(12) 0.30188(17) 0.22591(6)
H6A H 1.00337(12) 0.24663(17) 0.22448(6)
H7A H 1.02473(12) 0.34849(17) 0.25457(6)
C4A C 1.02004(11) 0.36316(16) 0.17605(6)
C5A C 1.07125(12) 0.46638(17) 0.16511(6)
H8A H 1.09788(12) 0.52137(17) 0.18921(6)
C6A C 1.07720(12) 0.47598(17) 0.10924(6)
H9A H 1.10865(12) 0.53851(17) 0.09021(6)
C7A C 1.02881(11) 0.37766(16) 0.08937(6)
O1A O 0.99201(8) 0.30550(11) 0.13003(4)
C8A C 1.00418(12) 0.33431(17) 0.03488(6)
H10A H 1.04401(12) 0.39180(17) 0.01064(6)
H11A H 1.02913(12) 0.28454(17) 0.03100(6)
N3A N 0.89298(10) 0.28149(14) 0.01930(5)
H12A H 0.8595(14) 0.2226(20) 0.0361(7)
C9A C 0.84332(12) 0.34493(16) 0.02929(6)
H13A H 0.88451(12) 0.41373(16) 0.01316(6)
H14A H 0.84070(12) 0.35492(16) 0.06671(6)
C10A C 0.73234(12) 0.28970(16) 0.00695(6)
H15A H 0.73683(12) 0.29395(16) -0.03097(6)
H16A H 0.69793(12) 0.21572(16) 0.01648(6)
H1B H 0.79420(16) 0.47812(11) 0.24039(6)
H2B H 0.72693(16) 0.44594(11) 0.29187(6)
H3B H 0.64346(17) 0.48507(12) 0.20067(6)
H4B H 0.61081(17) 0.48992(12) 0.25882(6)
H5B H 0.7969(20) 0.6340(14) 0.2137(7)
H6B H 0.75337(17) 0.75674(12) 0.22448(6)
H7B H 0.65151(17) 0.67624(12) 0.25457(6)
O1B O 0.69450(11) 0.68651(8) 0.13003(4)
H8B H 0.47863(17) 0.57651(12) 0.18921(6)
H9B H 0.46149(17) 0.57014(12) 0.09021(6)
H10B H 0.60820(17) 0.65221(12) 0.01064(6)
H11B H 0.71546(17) 0.74459(12) 0.03100(6)
H12B H 0.7774(20) 0.6369(14) 0.0361(7)
H13B H 0.58627(16) 0.47078(11) 0.01316(6)
H14B H 0.64508(16) 0.48578(11) 0.06671(6)
H15B H 0.70605(16) 0.44288(11) -0.03097(6)
H16B H 0.78428(16) 0.48221(11) 0.01648(6)
O2 O 0.5877(4) 0.3146(4) 0.1316(2)
loop_
_geom_bond_atom_site_label_1
_geom_bond_atom_site_label_2
_geom_bond_site_symmetry_1
_geom_bond_site_symmetry_2
N1 C1 1_555 1_555
C1 H1 1_555 1_555
H2 C1 1_555 1_555
C2 C1 1_555 1_555
H3 C2 1_555 1_555
H4 C2 1_555 1_555
N2 C2 1_555 1_555
H5 N2 1_555 1_555
C3 N2 1_555 1_555
H6 C3 1_555 1_555
H7 C3 1_555 1_555
C4 C3 1_555 1_555
C5 C4 1_555 1_555
H8 C5 1_555 1_555
C6 C5 1_555 1_555
H9 C6 1_555 1_555
C7 C6 1_555 1_555
O1 C4 1_555 1_555
C8 C7 1_555 1_555
H10 C8 1_555 1_555
H11 C8 1_555 1_555
N3 C8 1_555 1_555
H12 N3 1_555 1_555
C9 N3 1_555 1_555
H13 C9 1_555 1_555
H14 C9 1_555 1_555
C10 C9 1_555 1_555
H15 C10 1_555 1_555
H16 C10 1_555 1_555
N4 C10 1_555 1_555
C10B N4 1_555 1_555
C9B C10B 1_555 1_555
N3B C9B 1_555 1_555
C8B N3B 1_555 1_555
C7B C8B 1_555 1_555
C6B C7B 1_555 1_555
C5B C6B 1_555 1_555
C4B C5B 1_555 1_555
C3B C4B 1_555 1_555
N2B C3B 1_555 1_555
C2B N2B 1_555 1_555
C1B N1 1_555 1_555
C1A N1 1_555 1_555
H1A C1A 1_555 1_555
H2A C1A 1_555 1_555
C2A C1A 1_555 1_555
H3A C2A 1_555 1_555
H4A C2A 1_555 1_555
N2A C2A 1_555 1_555
H5A N2A 1_555 1_555
C3A N2A 1_555 1_555
H6A C3A 1_555 1_555
H7A C3A 1_555 1_555
C4A C3A 1_555 1_555
C5A C4A 1_555 1_555
H8A C5A 1_555 1_555
C6A C5A 1_555 1_555
H9A C6A 1_555 1_555
C7A C6A 1_555 1_555
O1A C4A 1_555 1_555
C8A C7A 1_555 1_555
H10A C8A 1_555 1_555
H11A C8A 1_555 1_555
N3A C8A 1_555 1_555
H12A N3A 1_555 1_555
C9A N3A 1_555 1_555
H13A C9A 1_555 1_555
H14A C9A 1_555 1_555
C10A N4 1_555 1_555
H15A C10A 1_555 1_555
H16A C10A 1_555 1_555
H1B C1B 1_555 1_555
H2B C1B 1_555 1_555
H3B C2B 1_555 1_555
H4B C2B 1_555 1_555
H5B N2B 1_555 1_555
H6B C3B 1_555 1_555
H7B C3B 1_555 1_555
O1B C7B 1_555 1_555
H8B C5B 1_555 1_555
H9B C6B 1_555 1_555
H10B C8B 1_555 1_555
H11B C8B 1_555 1_555
H12B N3B 1_555 1_555
H13B C9B 1_555 1_555
H14B C9B 1_555 1_555
H15B C10B 1_555 1_555
H16B C10B 1_555 1_555
C7 O1 1_555 1_555
C4B O1B 1_555 1_555
C2B C1B 1_555 1_555
C7A O1A 1_555 1_555
C9A C10A 1_555 1_555

#END
