
#######################################################################
#
#                 Cambridge Crystallographic Data Centre
#                                CCDC 
#
#######################################################################
#
# If this CIF has been generated from an entry in the Cambridge 
# Structural Database, then it will include bibliographic, chemical, 
# crystal, experimental, refinement or atomic coordinate data resulting 
# from the CCDC's data processing and validation procedures.
#
#######################################################################

data_LITJED
_chemical_formula_moiety         'C36 H54 N8'
_chemical_name_systematic        
6,16,25-Tribenzena(1,3)-1,4,8,11,14,18,23,27-octa-azabicyclo[9.9.9]nonacosaphane
_symmetry_cell_setting           triclinic
_symmetry_space_group_name_H-M   'P -1'
_symmetry_Int_Tables_number      2
_space_group_name_Hall           '-P 1'
loop_
_symmetry_equiv_pos_site_id
_symmetry_equiv_pos_as_xyz
1 x,y,z
2 -x,-y,-z
_cell_length_a                   9.5170(10)
_cell_length_b                   15.584(2)
_cell_length_c                   23.617(4)
_cell_angle_alpha                90.730(10)
_cell_angle_beta                 90.940(10)
_cell_angle_gamma                90.746(7)
_cell_volume                     3501.64
_exptl_crystal_colour            colorless
_exptl_crystal_description       block
_cell_formula_units_Z            4
_exptl_crystal_recrystallization_method hexane/ether
loop_
_atom_site_label
_atom_site_type_symbol
_atom_site_fract_x
_atom_site_fract_y
_atom_site_fract_z
N1 N 0.51364(19) 0.30388(12) 0.50314(8)
C1 C 0.4060(2) 0.32007(15) 0.54580(9)
H1 H 0.4509 0.3462 0.5801
H2 H 0.3618 0.2650 0.5567
C2 C 0.2942(2) 0.37938(14) 0.52315(9)
H3 H 0.2334 0.3983 0.5544
H4 H 0.3391 0.4309 0.5068
N2 N 0.2094(2) 0.33424(13) 0.47964(8)
C3 C 0.1103(3) 0.38948(16) 0.45122(10)
H5 H 0.1600 0.4420 0.4388
H6 H 0.0373 0.4070 0.4783
C4 C 0.0408(2) 0.34583(16) 0.40056(10)
C5 C 0.0098(3) 0.25828(16) 0.39968(10)
H7 H 0.0335 0.2243 0.4315
C6 C -0.0554(3) 0.22056(16) 0.35283(10)
H8 H -0.0755 0.1607 0.3526
C7 C -0.0917(2) 0.26875(16) 0.30615(10)
H9 H -0.1371 0.2420 0.2743
C8 C -0.0620(2) 0.35617(16) 0.30585(10)
C9 C 0.0044(2) 0.39326(16) 0.35339(10)
H10 H 0.0254 0.4530 0.3535
C10 C -0.1015(3) 0.41282(16) 0.25693(10)
H11 H -0.1857 0.4459 0.2671
H12 H -0.0238 0.4543 0.2507
N3 N -0.1304(2) 0.36613(14) 0.20486(8)
C11 C -0.1744(3) 0.42169(17) 0.15854(10)
H13 H -0.1167 0.4750 0.1592
H14 H -0.2740 0.4375 0.1631
C12 C -0.1566(3) 0.37469(17) 0.10272(10)
H15 H -0.2029 0.3175 0.1044
H16 H -0.2027 0.4073 0.0720
N4 N -0.0073(2) 0.36429(12) 0.09009(8)
C13 C 0.5685(3) 0.21609(15) 0.50513(10)
H17 H 0.5704 0.1963 0.5448
H18 H 0.6660 0.2159 0.4911
C14 C 0.4785(3) 0.15548(16) 0.46941(10)
H19 H 0.5099 0.0957 0.4747
H20 H 0.3793 0.1591 0.4810
N5 N 0.4910(2) 0.17894(14) 0.41015(8)
C15 C 0.3864(3) 0.14204(16) 0.37302(10)
H21 H 0.2925 0.1582 0.3867
H22 H 0.3926 0.0787 0.3745
C16 C 0.3998(2) 0.16954(14) 0.31264(10)
C17 C 0.5226(3) 0.20705(15) 0.29259(10)
H23 H 0.6014 0.2152 0.3174
C18 C 0.5308(3) 0.23252(15) 0.23681(10)
H24 H 0.6145 0.2591 0.2238
C19 C 0.4183(3) 0.21952(15) 0.19981(10)
H25 H 0.4252 0.2368 0.1615
C20 C 0.2946(3) 0.18113(15) 0.21851(10)
C21 C 0.2872(3) 0.15744(15) 0.27477(10)
H26 H 0.2026 0.1321 0.2879
C22 C 0.1713(3) 0.16300(17) 0.17916(11)
H27 H 0.1785 0.1038 0.1639
H28 H 0.0836 0.1662 0.2010
N6 N 0.1622(2) 0.22134(13) 0.13264(8)
C23 C 0.0342(2) 0.20951(15) 0.09832(10)
H29 H -0.0484 0.2062 0.1232
H30 H 0.0389 0.1552 0.0762
C24 C 0.0193(3) 0.28443(15) 0.05858(10)
H31 H 0.1065 0.2911 0.0367
H32 H -0.0593 0.2727 0.0315
C25 C 0.6247(2) 0.37037(15) 0.50389(9)
H33 H 0.7046 0.3513 0.5277
H34 H 0.5880 0.4238 0.5209
C26 C 0.6755(2) 0.38845(16) 0.44490(10)
H35 H 0.7589 0.4271 0.4470
H36 H 0.7030 0.3342 0.4261
N7 N 0.5632(2) 0.42868(13) 0.41221(8)
C27 C 0.5982(3) 0.44143(17) 0.35334(10)
H37 H 0.6279 0.3861 0.3367
H38 H 0.6786 0.4822 0.3515
C28 C 0.4772(2) 0.47554(15) 0.31860(10)
C29 C 0.3734(2) 0.52576(15) 0.34258(10)
H39 H 0.3762 0.5377 0.3821
C30 C 0.2661(3) 0.55842(15) 0.30931(11)
H40 H 0.1962 0.5930 0.3260
C31 C 0.2606(3) 0.54079(15) 0.25186(10)
H41 H 0.1865 0.5633 0.2293
C32 C 0.3623(3) 0.49047(15) 0.22665(10)
C33 C 0.4698(3) 0.45888(15) 0.26073(10)
H42 H 0.5403 0.4248 0.2439
C34 C 0.3585(3) 0.47140(18) 0.16402(10)
H43 H 0.4158 0.5150 0.1444
H44 H 0.4007 0.4146 0.1569
N8 N 0.2182(2) 0.47135(14) 0.14092(9)
C35 C 0.2071(3) 0.45200(17) 0.08053(10)
H45 H 0.2598 0.3992 0.0718
H46 H 0.2487 0.4997 0.0589
C36 C 0.0542(3) 0.43947(16) 0.06342(10)
H47 H 0.0010 0.4910 0.0745
H48 H 0.0465 0.4327 0.0217
H97 H 0.268(3) 0.3164(16) 0.4534(10)
H98 H 0.485(3) 0.2354(17) 0.4082(10)
H99 H 0.486(3) 0.3948(16) 0.4120(10)
H103 H -0.045(3) 0.3423(16) 0.1944(10)
H104 H 0.159(3) 0.2743(17) 0.1471(10)
H105 H 0.167(3) 0.4319(16) 0.1589(10)
N9 N 0.01603(19) 0.86715(12) 0.41050(7)
C37 C -0.0904(2) 0.89205(16) 0.45194(9)
H49 H -0.0443 0.9248 0.4835
H50 H -0.1339 0.8398 0.4678
C38 C -0.2037(3) 0.94648(16) 0.42499(10)
H51 H -0.2682 0.9675 0.4544
H52 H -0.1603 0.9968 0.4066
N10 N -0.2815(2) 0.89471(14) 0.38315(9)
C39 C -0.3817(3) 0.94154(17) 0.34895(11)
H53 H -0.3329 0.9902 0.3308
H54 H -0.4549 0.9653 0.3737
C40 C -0.4505(2) 0.88543(17) 0.30384(10)
C41 C -0.4735(3) 0.79813(18) 0.31291(11)
H55 H -0.4441 0.7736 0.3477
C42 C -0.5385(3) 0.74704(19) 0.27183(11)
H56 H -0.5530 0.6876 0.2784
C43 C -0.5826(3) 0.78181(18) 0.22118(11)
H57 H -0.6280 0.7462 0.1933
C44 C -0.5612(2) 0.86832(17) 0.21076(10)
C45 C -0.4954(2) 0.91907(17) 0.25245(11)
H58 H -0.4808 0.9784 0.2456
C46 C -0.6090(3) 0.90768(18) 0.15579(10)
H59 H -0.6964 0.9398 0.1623
H60 H -0.5364 0.9491 0.1434
N11 N -0.6347(2) 0.84488(15) 0.11100(9)
C47 C -0.6849(3) 0.88196(18) 0.05795(10)
H61 H -0.6308 0.9351 0.0502
H62 H -0.7851 0.8971 0.0613
C48 C -0.6680(3) 0.81855(18) 0.00989(11)
H63 H -0.7131 0.7633 0.0198
H64 H -0.7157 0.8403 -0.0245
N12 N -0.5191(2) 0.80470(13) -0.00188(8)
C49 C 0.0706(3) 0.78045(15) 0.41976(10)
H65 H 0.0746 0.7690 0.4609
H66 H 0.1672 0.7770 0.4051
C50 C -0.0213(3) 0.71329(15) 0.39040(10)
H67 H 0.0076 0.6555 0.4026
H68 H -0.1203 0.7214 0.4013
N13 N -0.0096(2) 0.71954(13) 0.32909(8)
C51 C -0.1119(3) 0.66792(16) 0.29777(10)
H69 H -0.2073 0.6851 0.3091
H70 H -0.1000 0.6070 0.3080
C52 C -0.1001(3) 0.67615(15) 0.23454(10)
C53 C 0.0231(3) 0.70370(15) 0.20941(10)
H71 H 0.1019 0.7203 0.2324
C54 C 0.0319(3) 0.70710(16) 0.15083(10)
H72 H 0.1168 0.7257 0.1340
C55 C -0.0821(3) 0.68359(16) 0.11695(11)
H73 H -0.0752 0.6861 0.0769
C56 C -0.2068(3) 0.65637(15) 0.14097(11)
C57 C -0.2143(3) 0.65351(15) 0.19982(11)
H74 H -0.2997 0.6356 0.2166
C58 C -0.3327(3) 0.62795(18) 0.10545(11)
H75 H -0.3250 0.5660 0.0965
H76 H -0.4189 0.6361 0.1277
N14 N -0.3453(2) 0.67461(14) 0.05331(9)
C59 C -0.4731(3) 0.65351(17) 0.02076(11)
H77 H -0.5552 0.6541 0.0460
H78 H -0.4659 0.5953 0.0039
C60 C -0.4922(3) 0.71892(16) -0.02564(10)
H79 H -0.4066 0.7212 -0.0488
H80 H -0.5720 0.7009 -0.0507
C61 C 0.1273(2) 0.93191(16) 0.40400(10)
H81 H 0.2071 0.9192 0.4298
H82 H 0.0912 0.9892 0.4143
C62 C 0.1774(2) 0.93255(16) 0.34343(10)
H83 H 0.2606 0.9710 0.3404
H84 H 0.2048 0.8740 0.3316
N15 N 0.0640(2) 0.96263(14) 0.30667(8)
C63 C 0.0900(3) 0.94836(16) 0.24729(10)
H85 H 0.1068 0.8865 0.2406
H86 H 0.1764 0.9802 0.2370
C64 C -0.0292(2) 0.97604(14) 0.20955(10)
C65 C -0.1268(3) 1.03622(15) 0.22726(10)
H87 H -0.1215 1.0590 0.2648
C66 C -0.2314(3) 1.06291(16) 0.19038(10)
H88 H -0.2977 1.1038 0.2028
C67 C -0.2403(3) 1.03071(15) 0.13570(10)
H89 H -0.3118 1.0502 0.1106
C68 C -0.1455(2) 0.97000(15) 0.11708(10)
C69 C -0.0417(2) 0.94304(15) 0.15450(10)
H90 H 0.0227 0.9009 0.1423
C70 C -0.1521(3) 0.93463(18) 0.05710(10)
H91 H -0.0952 0.9718 0.0325
H92 H -0.1110 0.8766 0.0564
N16 N -0.2952(2) 0.92973(14) 0.03502(8)
C71 C -0.3052(2) 0.88847(16) -0.02075(10)
H93 H -0.2551 0.8332 -0.0202
H94 H -0.2607 0.9256 -0.0492
C72 C -0.4585(2) 0.87291(16) -0.03660(10)
H95 H -0.5115 0.9265 -0.0309
H96 H -0.4667 0.8563 -0.0771
H100 H -0.219(3) 0.8703(16) 0.3605(10)
H101 H -0.018(3) 0.7718(17) 0.3207(11)
H102 H -0.012(3) 0.9310(16) 0.3152(10)
H106 H -0.552(3) 0.8211(16) 0.1037(10)
H107 H -0.349(3) 0.7295(17) 0.0623(10)
H108 H -0.345(3) 0.8985(16) 0.0584(10)
loop_
_geom_bond_atom_site_label_1
_geom_bond_atom_site_label_2
_geom_bond_site_symmetry_1
_geom_bond_site_symmetry_2
N1 C1 1_555 1_555
C1 H1 1_555 1_555
H2 C1 1_555 1_555
C2 C1 1_555 1_555
H3 C2 1_555 1_555
H4 C2 1_555 1_555
N2 C2 1_555 1_555
C3 N2 1_555 1_555
H5 C3 1_555 1_555
H6 C3 1_555 1_555
C4 C3 1_555 1_555
C5 C4 1_555 1_555
H7 C5 1_555 1_555
C6 C5 1_555 1_555
H8 C6 1_555 1_555
C7 C6 1_555 1_555
H9 C7 1_555 1_555
C8 C7 1_555 1_555
C9 C4 1_555 1_555
H10 C9 1_555 1_555
C10 C8 1_555 1_555
H11 C10 1_555 1_555
H12 C10 1_555 1_555
N3 C10 1_555 1_555
C11 N3 1_555 1_555
H13 C11 1_555 1_555
H14 C11 1_555 1_555
C12 C11 1_555 1_555
H15 C12 1_555 1_555
H16 C12 1_555 1_555
N4 C12 1_555 1_555
C13 N1 1_555 1_555
H17 C13 1_555 1_555
H18 C13 1_555 1_555
C14 C13 1_555 1_555
H19 C14 1_555 1_555
H20 C14 1_555 1_555
N5 C14 1_555 1_555
C15 N5 1_555 1_555
H21 C15 1_555 1_555
H22 C15 1_555 1_555
C16 C15 1_555 1_555
C17 C16 1_555 1_555
H23 C17 1_555 1_555
C18 C17 1_555 1_555
H24 C18 1_555 1_555
C19 C18 1_555 1_555
H25 C19 1_555 1_555
C20 C19 1_555 1_555
C21 C16 1_555 1_555
H26 C21 1_555 1_555
C22 C20 1_555 1_555
H27 C22 1_555 1_555
H28 C22 1_555 1_555
N6 C22 1_555 1_555
C23 N6 1_555 1_555
H29 C23 1_555 1_555
H30 C23 1_555 1_555
C24 N4 1_555 1_555
H31 C24 1_555 1_555
H32 C24 1_555 1_555
C25 N1 1_555 1_555
H33 C25 1_555 1_555
H34 C25 1_555 1_555
C26 C25 1_555 1_555
H35 C26 1_555 1_555
H36 C26 1_555 1_555
N7 C26 1_555 1_555
C27 N7 1_555 1_555
H37 C27 1_555 1_555
H38 C27 1_555 1_555
C28 C27 1_555 1_555
C29 C28 1_555 1_555
H39 C29 1_555 1_555
C30 C29 1_555 1_555
H40 C30 1_555 1_555
C31 C30 1_555 1_555
H41 C31 1_555 1_555
C32 C31 1_555 1_555
C33 C28 1_555 1_555
H42 C33 1_555 1_555
C34 C32 1_555 1_555
H43 C34 1_555 1_555
H44 C34 1_555 1_555
N8 C34 1_555 1_555
C35 N8 1_555 1_555
H45 C35 1_555 1_555
H46 C35 1_555 1_555
C36 N4 1_555 1_555
H47 C36 1_555 1_555
H48 C36 1_555 1_555
N9 C37 1_555 1_555
C37 H49 1_555 1_555
H50 C37 1_555 1_555
C38 C37 1_555 1_555
H51 C38 1_555 1_555
H52 C38 1_555 1_555
N10 C38 1_555 1_555
C39 N10 1_555 1_555
H53 C39 1_555 1_555
H54 C39 1_555 1_555
C40 C39 1_555 1_555
C41 C40 1_555 1_555
H55 C41 1_555 1_555
C42 C41 1_555 1_555
H56 C42 1_555 1_555
C43 C42 1_555 1_555
H57 C43 1_555 1_555
C44 C43 1_555 1_555
C45 C40 1_555 1_555
H58 C45 1_555 1_555
C46 C44 1_555 1_555
H59 C46 1_555 1_555
H60 C46 1_555 1_555
N11 C46 1_555 1_555
C47 N11 1_555 1_555
H61 C47 1_555 1_555
H62 C47 1_555 1_555
C48 C47 1_555 1_555
H63 C48 1_555 1_555
H64 C48 1_555 1_555
N12 C48 1_555 1_555
C49 N9 1_555 1_555
H65 C49 1_555 1_555
H66 C49 1_555 1_555
C50 C49 1_555 1_555
H67 C50 1_555 1_555
H68 C50 1_555 1_555
N13 C50 1_555 1_555
C51 N13 1_555 1_555
H69 C51 1_555 1_555
H70 C51 1_555 1_555
C52 C51 1_555 1_555
C53 C52 1_555 1_555
H71 C53 1_555 1_555
C54 C53 1_555 1_555
H72 C54 1_555 1_555
C55 C54 1_555 1_555
H73 C55 1_555 1_555
C56 C55 1_555 1_555
C57 C52 1_555 1_555
H74 C57 1_555 1_555
C58 C56 1_555 1_555
H75 C58 1_555 1_555
H76 C58 1_555 1_555
N14 C58 1_555 1_555
C59 N14 1_555 1_555
H77 C59 1_555 1_555
H78 C59 1_555 1_555
C60 N12 1_555 1_555
H79 C60 1_555 1_555
H80 C60 1_555 1_555
C61 N9 1_555 1_555
H81 C61 1_555 1_555
H82 C61 1_555 1_555
C62 C61 1_555 1_555
H83 C62 1_555 1_555
H84 C62 1_555 1_555
N15 C62 1_555 1_555
C63 N15 1_555 1_555
H85 C63 1_555 1_555
H86 C63 1_555 1_555
C64 C63 1_555 1_555
C65 C64 1_555 1_555
H87 C65 1_555 1_555
C66 C65 1_555 1_555
H88 C66 1_555 1_555
C67 C66 1_555 1_555
H89 C67 1_555 1_555
C68 C67 1_555 1_555
C69 C64 1_555 1_555
H90 C69 1_555 1_555
C70 C68 1_555 1_555
H91 C70 1_555 1_555
H92 C70 1_555 1_555
N16 C70 1_555 1_555
C71 N16 1_555 1_555
H93 C71 1_555 1_555
H94 C71 1_555 1_555
C72 N12 1_555 1_555
H95 C72 1_555 1_555
H96 C72 1_555 1_555
H97 N2 1_555 1_555
H98 N5 1_555 1_555
H99 N7 1_555 1_555
H100 N10 1_555 1_555
H101 N13 1_555 1_555
H102 N15 1_555 1_555
H103 N3 1_555 1_555
H104 N6 1_555 1_555
H105 N8 1_555 1_555
H106 N11 1_555 1_555
H107 N14 1_555 1_555
H108 N16 1_555 1_555
C8 C9 1_555 1_555
C20 C21 1_555 1_555
C23 C24 1_555 1_555
C32 C33 1_555 1_555
C35 C36 1_555 1_555
C44 C45 1_555 1_555
C56 C57 1_555 1_555
C59 C60 1_555 1_555
C68 C69 1_555 1_555
C71 C72 1_555 1_555

#END
