
#######################################################################
#
#                 Cambridge Crystallographic Data Centre
#                                CCDC 
#
#######################################################################
#
# If this CIF has been generated from an entry in the Cambridge 
# Structural Database, then it will include bibliographic, chemical, 
# crystal, experimental, refinement or atomic coordinate data resulting 
# from the CCDC's data processing and validation procedures.
#
#######################################################################

data_LITVEQ
_chemical_formula_moiety         'C1 H6 N3 1+,C8 H9 O3 S1 1-'
_chemical_name_systematic        'Guanidinium 2,4-dimethylbenzenesulfonate'
_symmetry_cell_setting           orthorhombic
_symmetry_space_group_name_H-M   'P m c 21'
_symmetry_Int_Tables_number      26
_space_group_name_Hall           'P 2c -2'
loop_
_symmetry_equiv_pos_site_id
_symmetry_equiv_pos_as_xyz
1 x,y,z
2 -x,-y,1/2+z
3 -x,y,z
4 x,-y,1/2+z
_cell_length_a                   7.3912(12)
_cell_length_b                   12.0564(19)
_cell_length_c                   14.037(2)
_cell_angle_alpha                90
_cell_angle_beta                 90
_cell_angle_gamma                90
_cell_volume                     1250.85
_exptl_crystal_colour            colorless
_exptl_crystal_description       needle
_cell_formula_units_Z            4
_exptl_crystal_recrystallization_method methanol
loop_
_atom_site_label
_atom_site_type_symbol
_atom_site_fract_x
_atom_site_fract_y
_atom_site_fract_z
S1 S 0.0000 0.59382(4) 0.26268(4)
O1 O 0.16301(15) 0.61526(9) 0.20665(9)
C1 C 0.0000 0.45177(17) 0.29293(15)
C2 C 0.0000 0.37053(18) 0.22152(17)
O2 O 0.0000 0.65614(14) 0.35165(13)
C3 C 0.0000 0.23032(19) 0.3475(2)
C4 C 0.0000 0.4233(2) 0.38858(18)
H1 H 0.0000 0.4797 0.4359
C5 C 0.0000 0.26061(17) 0.25149(19)
H2 H 0.0000 0.2037 0.2047
C6 C 0.0000 0.3132(2) 0.41514(19)
H3 H 0.0000 0.2942 0.4808
C7 C 0.0000 0.3963(2) 0.11666(18)
C17 C 0.0000 0.1086(2) 0.3751(3)
O1B O -0.16301(15) 0.61526(9) 0.20665(9)
S2 S 0.5000 0.09011(4) 0.14226(4)
C8 C 0.5000 0.16366(16) 0.25063(17)
O3 O 0.33658(15) 0.12199(9) 0.09018(9)
O4 O 0.5000 -0.02753(12) 0.16604(12)
C9 C 0.5000 0.1042(2) 0.3356(2)
H7 H 0.5000 0.0254 0.3342
C10 C 0.5000 0.3318(2) 0.3407(2)
H8 H 0.5000 0.4106 0.3432
C11 C 0.5000 0.28105(18) 0.25211(19)
C12 C 0.5000 0.2733(2) 0.4257(2)
C13 C 0.5000 0.3338(3) 0.5198(2)
C14 C 0.5000 0.1592(2) 0.4223(2)
H12 H 0.5000 0.1178 0.4799
C16 C 0.5000 0.3506(2) 0.1635(2)
O3B O 0.66342(15) 0.12199(9) 0.09018(9)
C15 C 0.5000 0.7227(2) 0.37516(19)
N1 N 0.3449(2) 0.75598(14) 0.41247(12)
H13 H 0.2419 0.7348 0.3868
H14 H 0.3447 0.7993 0.4629
N2 N 0.5000 0.65766(18) 0.29930(16)
H15 H 0.6031 0.6366 0.2737
H16 H 0.3969 0.6355 0.2744
N1B N 0.6551(2) 0.75598(14) 0.41247(12)
H13B H 0.7581 0.7348 0.3868
H14B H 0.6553 0.7993 0.4629
N3 N 0.0000 0.00906(15) 0.11628(15)
H23 H -0.1031 0.0447 0.1095
H24 H 0.1031 0.0448 0.1098
C18 C 0.0000 -0.09811(16) 0.13629(18)
N4 N 0.15538(18) -0.15133(10) 0.14600(12)
H25 H 0.2582 -0.1154 0.1391
H26 H 0.1559 -0.2227 0.1593
N4B N -0.15538(18) -0.15133(10) 0.14600(12)
H25B H -0.2582 -0.1154 0.1391
H26B H -0.1559 -0.2227 0.1593
H4? H -0.0246 0.3284 0.0806
H5? H 0.1185 0.4258 0.0982
H6? H -0.0938 0.4514 0.1029
H9? H 0.6242 0.3548 0.5364
H10? H 0.4506 0.2854 0.5694
H11? H 0.4253 0.4007 0.5146
H17? H 0.4598 0.4259 0.1791
H18? H 0.4176 0.3179 0.1166
H19? H 0.6226 0.3533 0.1370
H20? H -0.1227 0.0861 0.3931
H21? H 0.0819 0.0972 0.4292
H22? H 0.0409 0.0639 0.3209
loop_
_geom_bond_atom_site_label_1
_geom_bond_atom_site_label_2
_geom_bond_site_symmetry_1
_geom_bond_site_symmetry_2
S1 O1 1_555 1_555
C1 S1 1_555 1_555
C2 C1 1_555 1_555
O2 S1 1_555 1_555
C3 C5 1_555 1_555
C4 C1 1_555 1_555
H1 C4 1_555 1_555
C5 C2 1_555 1_555
H2 C5 1_555 1_555
C6 C3 1_555 1_555
H3 C6 1_555 1_555
C7 C2 1_555 1_555
S2 C8 1_555 1_555
C8 C9 1_555 1_555
O3 S2 1_555 1_555
O4 S2 1_555 1_555
C9 H7 1_555 1_555
C10 H8 1_555 1_555
C11 C8 1_555 1_555
C12 C10 1_555 1_555
C13 C12 1_555 1_555
C14 C9 1_555 1_555
H12 C14 1_555 1_555
C15 N1 1_555 1_555
N1 H13 1_555 1_555
H14 N1 1_555 1_555
N2 C15 1_555 1_555
H15 N2 1_555 1_555
H16 N2 1_555 1_555
C16 C11 1_555 1_555
C17 C3 1_555 1_555
N3 H23 1_555 1_555
H24 N3 1_555 1_555
C18 N3 1_555 1_555
N4 C18 1_555 1_555
H25 N4 1_555 1_555
H26 N4 1_555 1_555
O1B S1 1_555 1_555
O3B S2 1_555 1_555
N1B C15 1_555 1_555
H13B N1B 1_555 1_555
H14B N1B 1_555 1_555
N4B C18 1_555 1_555
H25B N4B 1_555 1_555
H26B N4B 1_555 1_555
C4 C6 1_555 1_555
C10 C11 1_555 1_555
C12 C14 1_555 1_555

#END
