
#######################################################################
#
#                 Cambridge Crystallographic Data Centre
#                                CCDC 
#
#######################################################################
#
# If this CIF has been generated from an entry in the Cambridge 
# Structural Database, then it will include bibliographic, chemical, 
# crystal, experimental, refinement or atomic coordinate data resulting 
# from the CCDC's data processing and validation procedures.
#
#######################################################################

data_LITWIV
_chemical_formula_moiety         'C1 H6 N3 1+,C8 H9 O3 S1 1-'
_chemical_name_systematic        'Guanidinium 3,4-dimethylbenzenesulfonate'
_symmetry_cell_setting           orthorhombic
_symmetry_space_group_name_H-M   'P n m a'
_symmetry_Int_Tables_number      62
_space_group_name_Hall           '-P 2ac 2n'
loop_
_symmetry_equiv_pos_site_id
_symmetry_equiv_pos_as_xyz
1 x,y,z
2 1/2-x,-y,1/2+z
3 1/2+x,1/2-y,1/2-z
4 -x,1/2+y,-z
5 -x,-y,-z
6 1/2+x,y,1/2-z
7 1/2-x,1/2+y,1/2+z
8 x,1/2-y,z
_cell_length_a                   18.695(3)
_cell_length_b                   7.3907(10)
_cell_length_c                   8.5401(12)
_cell_angle_alpha                90
_cell_angle_beta                 90
_cell_angle_gamma                90
_cell_volume                     1179.98
_exptl_crystal_colour            colorless
_exptl_crystal_description       needle
_cell_formula_units_Z            4
_exptl_crystal_recrystallization_method methanol
loop_
_atom_site_label
_atom_site_type_symbol
_atom_site_fract_x
_atom_site_fract_y
_atom_site_fract_z
S1 S 0.36598(5) 0.2500 0.89862(11)
O1 O 0.30208(13) 0.2500 0.8008(3)
C1 C 0.4410(2) 0.2500 0.7736(4)
O2 O 0.37134(9) 0.0875(2) 0.9942(2)
C2 C 0.43181(19) 0.2500 0.6137(4)
H5 H 0.3849 0.2500 0.5711
C3 C 0.4918(2) 0.2500 0.5122(4)
C4 C 0.5595(2) 0.2500 0.5794(4)
C5 C 0.5674(2) 0.2500 0.7406(5)
H6 H 0.6142 0.2500 0.7840
C6 C 0.5093(2) 0.2500 0.8401(4)
H7 H 0.5155 0.2500 0.9505
C7 C 0.4809(2) 0.2500 0.3401(5)
C8 C 0.6246(2) 0.2500 0.4757(5)
O2G O 0.37134(9) 0.4125(2) 0.9942(2)
N1 N 0.19173(16) 0.2500 0.4086(4)
H1 H 0.1735 0.1469 0.4413
H2 H 0.1729 0.3531 0.4395
N2 N 0.27574(12) 0.0953(3) 0.2665(3)
H3 H 0.2578 -0.0082 0.2988
H4 H 0.3128 0.0960 0.2028
C9 C 0.2471(2) 0.2500 0.3136(4)
N2G N 0.27574(12) 0.4047(3) 0.2665(3)
H3G H 0.2578 0.5082 0.2988
H4G H 0.3128 0.4040 0.2028
H8? H 0.5143 0.3352 0.2914
H9? H 0.4317 0.2866 0.3164
H10? H 0.4895 0.1282 0.2989
H11? H 0.6670 0.2212 0.5383
H12? H 0.6304 0.3697 0.4280
H13? H 0.6188 0.1590 0.3932
loop_
_geom_bond_atom_site_label_1
_geom_bond_atom_site_label_2
_geom_bond_site_symmetry_1
_geom_bond_site_symmetry_2
S1 O1 1_555 1_555
N1 H1 1_555 1_555
H2 N1 1_555 1_555
C1 S1 1_555 1_555
O2 S1 1_555 1_555
N2 H3 1_555 1_555
H4 N2 1_555 1_555
C2 C1 1_555 1_555
H5 C2 1_555 1_555
C3 C2 1_555 1_555
C4 C3 1_555 1_555
C5 C4 1_555 1_555
H6 C5 1_555 1_555
C6 C1 1_555 1_555
H7 C6 1_555 1_555
C7 C3 1_555 1_555
C8 C4 1_555 1_555
C9 N1 1_555 1_555
O2G S1 1_555 1_555
N2G C9 1_555 1_555
H3G N2G 1_555 1_555
H4G N2G 1_555 1_555
N2 C9 1_555 1_555
C5 C6 1_555 1_555

#END
