
#######################################################################
#
#                 Cambridge Crystallographic Data Centre
#                                CCDC 
#
#######################################################################
#
# If this CIF has been generated from an entry in the Cambridge 
# Structural Database, then it will include bibliographic, chemical, 
# crystal, experimental, refinement or atomic coordinate data resulting 
# from the CCDC's data processing and validation procedures.
#
#######################################################################

data_LIVJEH
_chemical_formula_moiety         'C66 H18 F30 N6 2+,2(C1 H3 O3 S1 1-)'
_chemical_name_systematic        
'Dihydrogen 5,10,15,20,25,30-hexakis(pentafluorophenyl)[28]hexaphyrin(1.1.1.1.1.1) bis(methanesulfonate) unknown solvate'
_symmetry_cell_setting           triclinic
_symmetry_space_group_name_H-M   'P -1'
_symmetry_Int_Tables_number      2
_space_group_name_Hall           '-P 1'
loop_
_symmetry_equiv_pos_site_id
_symmetry_equiv_pos_as_xyz
1 x,y,z
2 -x,-y,-z
_cell_length_a                   15.251(5)
_cell_length_b                   17.573(5)
_cell_length_c                   17.748(5)
_cell_angle_alpha                71.259(5)
_cell_angle_beta                 77.774(5)
_cell_angle_gamma                67.268(5)
_cell_volume                     4133.53
_exptl_crystal_colour            violet
_exptl_crystal_description       prism
_cell_formula_units_Z            2
loop_
_atom_site_label
_atom_site_type_symbol
_atom_site_fract_x
_atom_site_fract_y
_atom_site_fract_z
C1 C 0.2423(4) 0.5733(3) 0.7562(3)
C2 C 0.2833(4) 0.6220(3) 0.7759(3)
H1 H 0.2550 0.6812 0.7734
C3 C 0.3729(4) 0.5683(3) 0.7996(3)
H2 H 0.4165 0.5842 0.8170
C4 C 0.3876(4) 0.4866(3) 0.7935(3)
C5 C 0.4661(4) 0.4089(3) 0.8129(3)
C6 C 0.4884(4) 0.3445(3) 0.7752(3)
C7 C 0.4589(4) 0.3501(4) 0.7011(3)
H3 H 0.4182 0.3996 0.6676
C8 C 0.5002(4) 0.2715(3) 0.6883(4)
H4 H 0.4936 0.2565 0.6435
C9 C 0.5556(4) 0.2141(3) 0.7533(3)
C10 C 0.6116(4) 0.1290(3) 0.7642(3)
C11 C 0.5941(4) 0.0761(4) 0.7285(4)
C12 C 0.6536(5) -0.0068(4) 0.7164(4)
H5 H 0.7179 -0.0370 0.7284
C13 C 0.6008(4) -0.0335(4) 0.6847(4)
H6 H 0.6226 -0.0862 0.6709
C14 C 0.5086(4) 0.0289(3) 0.6755(3)
C15 C 0.4308(4) 0.0304(3) 0.6469(3)
C16 C 0.3503(4) 0.1057(3) 0.6248(3)
C17 C 0.3472(4) 0.1913(3) 0.5892(3)
H7 H 0.3992 0.2115 0.5787
C18 C 0.2529(4) 0.2400(4) 0.5727(3)
H8 H 0.2290 0.2998 0.5487
C19 C 0.2005(4) 0.1854(3) 0.5977(3)
C20 C 0.1006(4) 0.2021(3) 0.5918(3)
C21 C 0.0339(4) 0.2807(3) 0.5918(3)
C22 C -0.0621(4) 0.3202(4) 0.5708(3)
H9 H -0.0937 0.2950 0.5503
C23 C -0.1008(4) 0.3975(3) 0.5839(3)
H10 H -0.1641 0.4356 0.5751
C24 C -0.0313(4) 0.4135(3) 0.6132(3)
C25 C -0.0395(4) 0.4823(3) 0.6395(3)
C26 C 0.0417(4) 0.4964(3) 0.6495(3)
C27 C 0.1398(4) 0.4652(3) 0.6173(3)
H11 H 0.1637 0.4296 0.5818
C28 C 0.1921(4) 0.4944(3) 0.6454(3)
H12 H 0.2592 0.4820 0.6343
C29 C 0.1283(4) 0.5483(3) 0.6960(3)
C30 C 0.1493(4) 0.5936(3) 0.7358(3)
C31 C 0.5237(4) 0.3968(3) 0.8764(4)
C32 C 0.4822(4) 0.4065(3) 0.9515(4)
C33 C 0.5347(4) 0.3900(4) 1.0115(3)
C34 C 0.6323(4) 0.3630(4) 0.9998(4)
C35 C 0.6759(4) 0.3534(4) 0.9272(4)
C36 C 0.6214(4) 0.3703(4) 0.8665(4)
C37 C 0.6885(4) 0.0918(4) 0.8169(4)
C38 C 0.6976(5) 0.0168(4) 0.8795(4)
C39 C 0.7658(7) -0.0144(6) 0.9317(5)
C40 C 0.8274(6) 0.0290(7) 0.9226(6)
C41 C 0.8201(5) 0.0999(6) 0.8646(6)
C42 C 0.7541(4) 0.1316(5) 0.8104(5)
C43 C 0.4262(4) -0.0501(3) 0.6416(4)
C44 C 0.4298(4) -0.1214(4) 0.7071(4)
C45 C 0.4162(5) -0.1922(4) 0.7029(5)
C46 C 0.3999(5) -0.1965(5) 0.6314(6)
C47 C 0.3993(4) -0.1313(4) 0.5657(5)
C48 C 0.4093(4) -0.0569(4) 0.5706(4)
C49 C 0.0737(4) 0.1316(4) 0.5864(4)
C50 C 0.0019(4) 0.1077(4) 0.6341(4)
C51 C -0.0151(5) 0.0361(4) 0.6369(4)
C52 C 0.0405(5) -0.0146(5) 0.5883(5)
C53 C 0.1126(5) 0.0082(4) 0.5360(4)
C54 C 0.1285(4) 0.0821(4) 0.5339(4)
C55 C -0.1346(4) 0.5417(3) 0.6588(3)
C56 C -0.2016(4) 0.5135(3) 0.7150(4)
C57 C -0.2882(4) 0.5679(4) 0.7390(4)
C58 C -0.3075(4) 0.6559(4) 0.7075(4)
C59 C -0.2468(5) 0.6869(4) 0.6516(4)
C60 C -0.1612(4) 0.6299(4) 0.6278(4)
C61 C 0.0719(4) 0.6696(3) 0.7572(4)
C62 C 0.0565(4) 0.6797(4) 0.8351(4)
C63 C -0.0161(5) 0.7481(4) 0.8557(4)
C64 C -0.0782(5) 0.8073(4) 0.8003(4)
C65 C -0.0657(4) 0.7978(4) 0.7255(4)
C66 C 0.0078(4) 0.7306(3) 0.7043(4)
F1 F 0.3864(2) 0.4287(2) 0.9682(2)
F2 F 0.4905(2) 0.3987(2) 1.0846(2)
F3 F 0.6849(3) 0.3459(2) 1.0580(2)
F4 F 0.7720(2) 0.3268(2) 0.9136(2)
F5 F 0.6683(2) 0.3610(2) 0.7933(2)
F6 F 0.6384(3) -0.0255(2) 0.8913(2)
F7 F 0.7733(4) -0.0867(3) 0.9897(3)
F8 F 0.8958(3) -0.0036(4) 0.9753(3)
F9 F 0.8809(3) 0.1424(4) 0.8572(4)
F10 F 0.7514(3) 0.2018(3) 0.7530(3)
F11 F 0.4435(3) -0.1182(2) 0.7782(2)
F12 F 0.4163(3) -0.2568(2) 0.7696(3)
F13 F 0.3866(3) -0.2653(2) 0.6277(3)
F14 F 0.3852(3) -0.1348(2) 0.4949(3)
F15 F 0.4041(2) 0.0086(2) 0.5042(2)
F16 F -0.0533(2) 0.1518(2) 0.6880(3)
F17 F -0.0860(3) 0.0129(2) 0.6880(3)
F18 F 0.0287(3) -0.0872(3) 0.5896(3)
F19 F 0.1670(3) -0.0396(3) 0.4857(3)
F20 F 0.1986(2) 0.1011(2) 0.4820(2)
F21 F -0.1802(2) 0.4295(2) 0.7505(2)
F22 F -0.3485(3) 0.5371(2) 0.7947(2)
F23 F -0.3912(3) 0.7092(3) 0.7331(3)
F24 F -0.2681(3) 0.7706(2) 0.6200(2)
F25 F -0.1002(2) 0.66158(19) 0.57274(19)
F26 F 0.1119(2) 0.6220(2) 0.8914(2)
F27 F -0.0283(3) 0.7566(3) 0.9303(2)
F28 F -0.1502(3) 0.8713(2) 0.8225(3)
F29 F -0.1279(2) 0.85450(19) 0.6727(2)
F30 F 0.0189(2) 0.72669(19) 0.62818(19)
N1 N 0.3071(3) 0.4920(3) 0.7663(3)
H13 H 0.2985 0.4494 0.7567
N2 N 0.5478(3) 0.2626(3) 0.8019(3)
H14 H 0.5775 0.2436 0.8452
N3 N 0.5089(3) 0.0957(3) 0.7006(3)
H15 H 0.4608 0.1441 0.6989
N4 N 0.2613(3) 0.1039(3) 0.6274(3)
H16 H 0.2452 0.0577 0.6453
N5 N 0.0495(3) 0.3414(3) 0.6167(3)
H17 H 0.1036 0.3347 0.6325
N6 N 0.0392(3) 0.5477(3) 0.6950(3)
H18 H -0.0131 0.5763 0.7203
S1 S 0.39995(16) 0.40916(15) 0.46266(15)
C67 C 0.4454(6) 0.4614(5) 0.3722(4)
H19 H 0.5146 0.4452 0.3719
H20 H 0.4151 0.5233 0.3644
H21 H 0.4323 0.4452 0.3289
O1 O 0.3025(3) 0.4270(3) 0.4614(3)
O2 O 0.3983(7) 0.4622(6) 0.5215(5)
O3 O 0.4632(4) 0.3331(5) 0.4974(5)
S2 S 0.1296(2) 0.1870(3) 0.80800(19)
O4 O 0.0843(6) 0.1525(5) 0.7640(5)
O5 O 0.2158(5) 0.1198(6) 0.8347(5)
C68 C 0.0437(8) 0.2124(8) 0.8855(7)
H22 H -0.0130 0.2589 0.8636
H23 H 0.0691 0.2306 0.9204
H24 H 0.0265 0.1620 0.9163
O6 O 0.1448(4) 0.2726(4) 0.7572(3)
loop_
_geom_bond_atom_site_label_1
_geom_bond_atom_site_label_2
_geom_bond_site_symmetry_1
_geom_bond_site_symmetry_2
C1 C2 1_555 1_555
C2 H1 1_555 1_555
C3 C2 1_555 1_555
H2 C3 1_555 1_555
C4 C3 1_555 1_555
C5 C4 1_555 1_555
C6 C5 1_555 1_555
C7 C6 1_555 1_555
H3 C7 1_555 1_555
C8 C7 1_555 1_555
H4 C8 1_555 1_555
C9 C8 1_555 1_555
C10 C9 1_555 1_555
C11 C10 1_555 1_555
C12 C11 1_555 1_555
H5 C12 1_555 1_555
C13 C12 1_555 1_555
H6 C13 1_555 1_555
C14 C13 1_555 1_555
C15 C14 1_555 1_555
C16 C15 1_555 1_555
C17 C16 1_555 1_555
H7 C17 1_555 1_555
C18 C17 1_555 1_555
H8 C18 1_555 1_555
C19 C18 1_555 1_555
C20 C19 1_555 1_555
C21 C20 1_555 1_555
C22 C21 1_555 1_555
H9 C22 1_555 1_555
C23 C22 1_555 1_555
H10 C23 1_555 1_555
C24 C23 1_555 1_555
C25 C24 1_555 1_555
C26 C25 1_555 1_555
C27 C26 1_555 1_555
H11 C27 1_555 1_555
C28 C27 1_555 1_555
H12 C28 1_555 1_555
C29 C28 1_555 1_555
C30 C1 1_555 1_555
C31 C5 1_555 1_555
C32 C31 1_555 1_555
C33 C32 1_555 1_555
C34 C33 1_555 1_555
C35 C34 1_555 1_555
C36 C31 1_555 1_555
C37 C10 1_555 1_555
C38 C37 1_555 1_555
C39 C38 1_555 1_555
C40 C39 1_555 1_555
C41 C40 1_555 1_555
C42 C37 1_555 1_555
C43 C15 1_555 1_555
C44 C43 1_555 1_555
C45 C44 1_555 1_555
C46 C45 1_555 1_555
C47 C46 1_555 1_555
C48 C43 1_555 1_555
C49 C20 1_555 1_555
C50 C49 1_555 1_555
C51 C50 1_555 1_555
C52 C51 1_555 1_555
C53 C52 1_555 1_555
C54 C49 1_555 1_555
C55 C25 1_555 1_555
C56 C55 1_555 1_555
C57 C56 1_555 1_555
C58 C57 1_555 1_555
C59 C58 1_555 1_555
C60 C55 1_555 1_555
C61 C30 1_555 1_555
C62 C61 1_555 1_555
C63 C62 1_555 1_555
C64 C63 1_555 1_555
C65 C64 1_555 1_555
C66 C61 1_555 1_555
F1 C32 1_555 1_555
F2 C33 1_555 1_555
F3 C34 1_555 1_555
F4 C35 1_555 1_555
F5 C36 1_555 1_555
F6 C38 1_555 1_555
F7 C39 1_555 1_555
F8 C40 1_555 1_555
F9 C41 1_555 1_555
F10 C42 1_555 1_555
F11 C44 1_555 1_555
F12 C45 1_555 1_555
F13 C46 1_555 1_555
F14 C47 1_555 1_555
F15 C48 1_555 1_555
F16 C50 1_555 1_555
F17 C51 1_555 1_555
F18 C52 1_555 1_555
F19 C53 1_555 1_555
F20 C54 1_555 1_555
F21 C56 1_555 1_555
F22 C57 1_555 1_555
F23 C58 1_555 1_555
F24 C59 1_555 1_555
F25 C60 1_555 1_555
F26 C62 1_555 1_555
F27 C63 1_555 1_555
F28 C64 1_555 1_555
F29 C65 1_555 1_555
F30 C66 1_555 1_555
N1 C1 1_555 1_555
H13 N1 1_555 1_555
N2 C6 1_555 1_555
H14 N2 1_555 1_555
N3 C11 1_555 1_555
H15 N3 1_555 1_555
N4 C16 1_555 1_555
H16 N4 1_555 1_555
N5 C21 1_555 1_555
H17 N5 1_555 1_555
N6 C26 1_555 1_555
H18 N6 1_555 1_555
S1 C67 1_555 1_555
C67 H19 1_555 1_555
H20 C67 1_555 1_555
H21 C67 1_555 1_555
O1 S1 1_555 1_555
O2 S1 1_555 1_555
O3 S1 1_555 1_555
S2 O4 1_555 1_555
O5 S2 1_555 1_555
C68 S2 1_555 1_555
H22 C68 1_555 1_555
H23 C68 1_555 1_555
H24 C68 1_555 1_555
O6 S2 1_555 1_555
C4 N1 1_555 1_555
C9 N2 1_555 1_555
C14 N3 1_555 1_555
C19 N4 1_555 1_555
C24 N5 1_555 1_555
C29 C30 1_555 1_555
C29 N6 1_555 1_555
C35 C36 1_555 1_555
C41 C42 1_555 1_555
C47 C48 1_555 1_555
C53 C54 1_555 1_555
C59 C60 1_555 1_555
C65 C66 1_555 1_555

#END
