
#######################################################################
#
#                 Cambridge Crystallographic Data Centre
#                                CCDC 
#
#######################################################################
#
# If this CIF has been generated from an entry in the Cambridge 
# Structural Database, then it will include bibliographic, chemical, 
# crystal, experimental, refinement or atomic coordinate data resulting 
# from the CCDC's data processing and validation procedures.
#
#######################################################################

data_LIVYOF
_chemical_formula_moiety         'C32 H56 N2'
_chemical_name_systematic        
N-((E)-4-((E)-(Dodecylimino)methyl)benzylidene)dodecan-1-amine
_symmetry_cell_setting           triclinic
_symmetry_space_group_name_H-M   'P -1'
_symmetry_Int_Tables_number      2
_space_group_name_Hall           '-P 1'
loop_
_symmetry_equiv_pos_site_id
_symmetry_equiv_pos_as_xyz
1 x,y,z
2 -x,-y,-z
_cell_length_a                   4.7370(9)
_cell_length_b                   5.5190(11)
_cell_length_c                   30.315(6)
_cell_angle_alpha                91.18(3)
_cell_angle_beta                 93.44(3)
_cell_angle_gamma                101.75(3)
_cell_volume                     774.098
_exptl_crystal_colour            colorless
_exptl_crystal_description       block
_chemical_melting_point          '332-333 K'
_cell_formula_units_Z            1
_exptl_crystal_recrystallization_method ethanol
loop_
_atom_site_label
_atom_site_type_symbol
_atom_site_fract_x
_atom_site_fract_y
_atom_site_fract_z
N1 N 0.2538(4) -0.7333(4) 0.10048(7)
C1 C 0.7923(7) 1.2784(5) 0.45915(9)
H1 H 0.6948 1.3606 0.4799
H2 H 0.8934 1.3977 0.4400
H3 H 0.9278 1.1985 0.4749
C2 C 0.5752(6) 1.0886(5) 0.43217(9)
H4 H 0.4702 0.9734 0.4521
H5 H 0.4372 1.1718 0.4171
C3 C 0.6950(5) 0.9444(4) 0.39859(8)
H6 H 0.8330 0.8612 0.4136
H7 H 0.8002 1.0596 0.3786
C4 C 0.4773(5) 0.7540(4) 0.37145(8)
H8 H 0.3727 0.6382 0.3914
H9 H 0.3389 0.8370 0.3565
C5 C 0.6000(5) 0.6097(4) 0.33745(7)
H10 H 0.7367 0.5248 0.3524
H11 H 0.7060 0.7252 0.3176
C6 C 0.3788(5) 0.4215(4) 0.31028(7)
H12 H 0.2450 0.5068 0.2947
H13 H 0.2695 0.3084 0.3301
C7 C 0.5035(5) 0.2726(4) 0.27696(7)
H14 H 0.6154 0.3861 0.2574
H15 H 0.6351 0.1855 0.2926
C8 C 0.2832(5) 0.0869(4) 0.24921(7)
H16 H 0.1536 0.1742 0.2331
H17 H 0.1691 -0.0251 0.2687
C9 C 0.4102(5) -0.0638(4) 0.21653(7)
H18 H 0.5357 -0.1544 0.2327
H19 H 0.5289 0.0487 0.1976
C10 C 0.1910(5) -0.2461(4) 0.18760(7)
H20 H 0.0643 -0.3528 0.2064
H21 H 0.0734 -0.1553 0.1698
C11 C 0.3247(5) -0.4049(4) 0.15738(7)
H22 H 0.4605 -0.2978 0.1400
H23 H 0.4328 -0.5029 0.1753
C12 C 0.1100(5) -0.5762(5) 0.12654(8)
H24 H -0.0327 -0.6788 0.1435
H25 H 0.0105 -0.4797 0.1069
C13 C 0.2374(5) -0.7155(4) 0.05935(9)
H26 H 0.1336 -0.6041 0.0472
C14 C 0.3736(5) -0.8616(4) 0.02936(8)
C15 C 0.5322(5) -1.0284(4) 0.04476(8)
H27 H 0.5576 -1.0479 0.0750
C16 C 0.3458(5) -0.8331(4) -0.01595(9)
H28 H 0.2430 -0.7184 -0.0270
N1A N 0.7462(4) -1.2667(4) -0.10048(7)
C1A C 0.2077(7) -3.2784(5) -0.45915(9)
H1A H 0.3052 -3.3606 -0.4799
H2A H 0.1066 -3.3977 -0.4400
H3A H 0.0722 -3.1985 -0.4749
C2A C 0.4248(6) -3.0886(5) -0.43217(9)
H4A H 0.5298 -2.9734 -0.4521
H5A H 0.5628 -3.1718 -0.4171
C3A C 0.3050(5) -2.9444(4) -0.39859(8)
H6A H 0.1670 -2.8612 -0.4136
H7A H 0.1998 -3.0596 -0.3786
C4A C 0.5227(5) -2.7540(4) -0.37145(8)
H8A H 0.6273 -2.6382 -0.3914
H9A H 0.6611 -2.8370 -0.3565
C5A C 0.4000(5) -2.6097(4) -0.33745(7)
H10A H 0.2633 -2.5248 -0.3524
H11A H 0.2940 -2.7252 -0.3176
C6A C 0.6212(5) -2.4215(4) -0.31028(7)
H12A H 0.7550 -2.5068 -0.2947
H13A H 0.7305 -2.3084 -0.3301
C7A C 0.4965(5) -2.2726(4) -0.27696(7)
H14A H 0.3846 -2.3861 -0.2574
H15A H 0.3649 -2.1855 -0.2926
C8A C 0.7168(5) -2.0869(4) -0.24921(7)
H16A H 0.8464 -2.1742 -0.2331
H17A H 0.8309 -1.9749 -0.2687
C9A C 0.5898(5) -1.9362(4) -0.21653(7)
H18A H 0.4643 -1.8456 -0.2327
H19A H 0.4711 -2.0487 -0.1976
C10A C 0.8090(5) -1.7539(4) -0.18760(7)
H20A H 0.9357 -1.6472 -0.2064
H21A H 0.9266 -1.8447 -0.1698
C11A C 0.6753(5) -1.5951(4) -0.15738(7)
H22A H 0.5395 -1.7022 -0.1400
H23A H 0.5672 -1.4971 -0.1753
C12A C 0.8900(5) -1.4238(5) -0.12654(8)
H24A H 1.0327 -1.3212 -0.1435
H25A H 0.9895 -1.5203 -0.1069
C13A C 0.7626(5) -1.2845(4) -0.05935(9)
H26A H 0.8664 -1.3959 -0.0472
C14A C 0.6264(5) -1.1384(4) -0.02936(8)
C15A C 0.4678(5) -0.9716(4) -0.04476(8)
H27A H 0.4424 -0.9521 -0.0750
C16A C 0.6542(5) -1.1669(4) 0.01595(9)
H28A H 0.7570 -1.2816 0.0270
loop_
_geom_bond_atom_site_label_1
_geom_bond_atom_site_label_2
_geom_bond_site_symmetry_1
_geom_bond_site_symmetry_2
N1 C12 1_555 1_555
C1 H1 1_555 1_555
H2 C1 1_555 1_555
H3 C1 1_555 1_555
C2 C1 1_555 1_555
H4 C2 1_555 1_555
H5 C2 1_555 1_555
C3 C2 1_555 1_555
H6 C3 1_555 1_555
H7 C3 1_555 1_555
C4 C3 1_555 1_555
H8 C4 1_555 1_555
H9 C4 1_555 1_555
C5 C4 1_555 1_555
H10 C5 1_555 1_555
H11 C5 1_555 1_555
C6 C5 1_555 1_555
H12 C6 1_555 1_555
H13 C6 1_555 1_555
C7 C6 1_555 1_555
H14 C7 1_555 1_555
H15 C7 1_555 1_555
C8 C7 1_555 1_555
H16 C8 1_555 1_555
H17 C8 1_555 1_555
C9 C8 1_555 1_555
H18 C9 1_555 1_555
H19 C9 1_555 1_555
C10 C9 1_555 1_555
H20 C10 1_555 1_555
H21 C10 1_555 1_555
C11 C10 1_555 1_555
H22 C11 1_555 1_555
H23 C11 1_555 1_555
C12 C11 1_555 1_555
H24 C12 1_555 1_555
H25 C12 1_555 1_555
C13 N1 1_555 1_555
H26 C13 1_555 1_555
C14 C13 1_555 1_555
C15 C14 1_555 1_555
H27 C15 1_555 1_555
C16 C14 1_555 1_555
H28 C16 1_555 1_555
N1A C12A 1_555 1_555
C1A H1A 1_555 1_555
H2A C1A 1_555 1_555
H3A C1A 1_555 1_555
C2A C1A 1_555 1_555
H4A C2A 1_555 1_555
H5A C2A 1_555 1_555
C3A C2A 1_555 1_555
H6A C3A 1_555 1_555
H7A C3A 1_555 1_555
C4A C3A 1_555 1_555
H8A C4A 1_555 1_555
H9A C4A 1_555 1_555
C5A C4A 1_555 1_555
H10A C5A 1_555 1_555
H11A C5A 1_555 1_555
C6A C5A 1_555 1_555
H12A C6A 1_555 1_555
H13A C6A 1_555 1_555
C7A C6A 1_555 1_555
H14A C7A 1_555 1_555
H15A C7A 1_555 1_555
C8A C7A 1_555 1_555
H16A C8A 1_555 1_555
H17A C8A 1_555 1_555
C9A C8A 1_555 1_555
H18A C9A 1_555 1_555
H19A C9A 1_555 1_555
C10A C9A 1_555 1_555
H20A C10A 1_555 1_555
H21A C10A 1_555 1_555
C11A C10A 1_555 1_555
H22A C11A 1_555 1_555
H23A C11A 1_555 1_555
C12A C11A 1_555 1_555
H24A C12A 1_555 1_555
H25A C12A 1_555 1_555
C13A N1A 1_555 1_555
H26A C13A 1_555 1_555
C14A C13A 1_555 1_555
C15A C16 1_555 1_555
H27A C15A 1_555 1_555
C16A C15 1_555 1_555
H28A C16A 1_555 1_555
C14A C15A 1_555 1_555
C14A C16A 1_555 1_555

#END
