
#######################################################################
#
#                 Cambridge Crystallographic Data Centre
#                                CCDC 
#
#######################################################################
#
# If this CIF has been generated from an entry in the Cambridge 
# Structural Database, then it will include bibliographic, chemical, 
# crystal, experimental, refinement or atomic coordinate data resulting 
# from the CCDC's data processing and validation procedures.
#
#######################################################################

data_LIVYEV
_chemical_formula_moiety         'C19 H21 N1 O1 S1'
_chemical_name_systematic        
N,N-Dimethyl-3-(1-naphthyloxy)-3-(2-thienyl)propan-1-amine
_symmetry_cell_setting           monoclinic
_symmetry_space_group_name_H-M   'P 21/n'
_symmetry_Int_Tables_number      14
_space_group_name_Hall           '-P 2yn'
loop_
_symmetry_equiv_pos_site_id
_symmetry_equiv_pos_as_xyz
1 x,y,z
2 1/2-x,1/2+y,1/2-z
3 -x,-y,-z
4 1/2+x,1/2-y,1/2+z
_cell_length_a                   9.6140(19)
_cell_length_b                   18.578(4)
_cell_length_c                   9.905(2)
_cell_angle_alpha                90
_cell_angle_beta                 104.53(3)
_cell_angle_gamma                90
_cell_volume                     1712.54
_exptl_crystal_colour            brown
_exptl_crystal_description       block
_chemical_melting_point          '386-388 K'
_cell_formula_units_Z            4
_exptl_crystal_recrystallization_method ethanol/acetone
loop_
_atom_site_label
_atom_site_type_symbol
_atom_site_fract_x
_atom_site_fract_y
_atom_site_fract_z
S1 S 0.03342(12) 0.25309(6) 0.17997(10)
O1 O 0.1693(2) 0.34125(12) 0.0007(2)
N1 N -0.1370(3) 0.47356(16) -0.2560(3)
C1 C -0.2401(5) 0.4470(2) -0.3807(5)
H1 H -0.2777 0.4015 -0.3607
H2 H -0.1929 0.4412 -0.4547
H3 H -0.3173 0.4809 -0.4086
C2 C -0.0803(5) 0.5421(2) -0.2843(5)
H4 H -0.0133 0.5593 -0.2016
H5 H -0.1575 0.5760 -0.3123
H6 H -0.0322 0.5367 -0.3577
C3 C -0.0227(4) 0.4218(2) -0.2029(4)
H7 H 0.0559 0.4461 -0.1383
H8 H 0.0131 0.4041 -0.2800
C4 C -0.0708(4) 0.3584(2) -0.1295(4)
H9 H -0.1016 0.3758 -0.0493
H10 H -0.1527 0.3357 -0.1924
C5 C 0.0463(4) 0.30309(19) -0.0816(4)
H11 H 0.0711 0.2822 -0.1634
C6 C 0.0029(4) 0.24339(18) 0.0033(4)
C7 C -0.0719(4) 0.17959(18) -0.0465(4)
H12 H -0.0997 0.1649 -0.1392
C8 C -0.0976(4) 0.1414(2) 0.0708(4)
H13 H -0.1447 0.0973 0.0620
C9 C -0.0482(4) 0.1743(2) 0.1943(4)
H14 H -0.0580 0.1556 0.2785
C10 C 0.3039(4) 0.31259(19) 0.0180(3)
C11 C 0.3328(4) 0.2446(2) -0.0182(4)
H15 H 0.2584 0.2131 -0.0572
C12 C 0.4781(5) 0.2225(2) 0.0045(4)
H16 H 0.4982 0.1762 -0.0211
C13 C 0.5882(5) 0.2673(2) 0.0627(4)
H17 H 0.6825 0.2515 0.0761
C14 C 0.5612(4) 0.3372(2) 0.1027(4)
C15 C 0.6714(4) 0.3854(3) 0.1646(4)
H18 H 0.7665 0.3704 0.1814
C16 C 0.6431(5) 0.4528(3) 0.2002(5)
H19 H 0.7185 0.4836 0.2397
C17 C 0.5021(5) 0.4765(2) 0.1781(4)
H20 H 0.4837 0.5230 0.2040
C18 C 0.3900(4) 0.4320(2) 0.1186(4)
H21 H 0.2961 0.4485 0.1038
C19 C 0.4161(4) 0.36147(19) 0.0798(3)
loop_
_geom_bond_atom_site_label_1
_geom_bond_atom_site_label_2
_geom_bond_site_symmetry_1
_geom_bond_site_symmetry_2
S1 C6 1_555 1_555
O1 C5 1_555 1_555
N1 C1 1_555 1_555
C1 H1 1_555 1_555
H2 C1 1_555 1_555
H3 C1 1_555 1_555
C2 N1 1_555 1_555
H4 C2 1_555 1_555
H5 C2 1_555 1_555
H6 C2 1_555 1_555
C3 N1 1_555 1_555
H7 C3 1_555 1_555
H8 C3 1_555 1_555
C4 C3 1_555 1_555
H9 C4 1_555 1_555
H10 C4 1_555 1_555
C5 C4 1_555 1_555
H11 C5 1_555 1_555
C6 C5 1_555 1_555
C7 C6 1_555 1_555
H12 C7 1_555 1_555
C8 C7 1_555 1_555
H13 C8 1_555 1_555
C9 S1 1_555 1_555
H14 C9 1_555 1_555
C10 O1 1_555 1_555
C11 C10 1_555 1_555
H15 C11 1_555 1_555
C12 C11 1_555 1_555
H16 C12 1_555 1_555
C13 C12 1_555 1_555
H17 C13 1_555 1_555
C14 C13 1_555 1_555
C15 C14 1_555 1_555
H18 C15 1_555 1_555
C16 C15 1_555 1_555
H19 C16 1_555 1_555
C17 C16 1_555 1_555
H20 C17 1_555 1_555
C18 C17 1_555 1_555
H21 C18 1_555 1_555
C19 C10 1_555 1_555
C8 C9 1_555 1_555
C14 C19 1_555 1_555
C18 C19 1_555 1_555

#END
