
#######################################################################
#
#                 Cambridge Crystallographic Data Centre
#                                CCDC 
#
#######################################################################
#
# If this CIF has been generated from an entry in the Cambridge 
# Structural Database, then it will include bibliographic, chemical, 
# crystal, experimental, refinement or atomic coordinate data resulting 
# from the CCDC's data processing and validation procedures.
#
#######################################################################

data_LIWBID
_chemical_formula_moiety         'C21 H27 N7'
_chemical_name_systematic        tris(2-(Pyrrol-2-ylmethyleneamino)ethyl)amine
_symmetry_cell_setting           monoclinic
_symmetry_space_group_name_H-M   'P 21/n'
_symmetry_Int_Tables_number      14
_space_group_name_Hall           '-P 2yn'
loop_
_symmetry_equiv_pos_site_id
_symmetry_equiv_pos_as_xyz
1 x,y,z
2 1/2-x,1/2+y,1/2-z
3 -x,-y,-z
4 1/2+x,1/2-y,1/2+z
_cell_length_a                   11.494(2)
_cell_length_b                   9.4875(19)
_cell_length_c                   20.232(4)
_cell_angle_alpha                90
_cell_angle_beta                 105.97(3)
_cell_angle_gamma                90
_cell_volume                     2121.14
_exptl_crystal_colour            brown
_exptl_crystal_description       needle
_cell_formula_units_Z            4
_exptl_crystal_recrystallization_method ethanol/acetonitrile
loop_
_atom_site_label
_atom_site_type_symbol
_atom_site_fract_x
_atom_site_fract_y
_atom_site_fract_z
N1 N 0.32208(19) 0.2117(2) -0.04712(11)
N2 N 0.3346(2) 0.3634(2) -0.17842(11)
N3 N 0.47309(19) 0.6138(3) -0.18248(11)
H1 H 0.4361 0.6213 -0.1510
N4 N 0.1461(2) 0.1199(3) 0.03356(12)
N5 N 0.1051(2) -0.1779(3) 0.05915(12)
H2 H 0.0388 -0.1426 0.0339
N6 N 0.6284(2) 0.2840(2) 0.07191(11)
N7 N 0.8400(2) 0.4282(2) 0.15596(12)
H3 H 0.7761 0.4688 0.1611
C1 C 0.3214(3) 0.1456(3) -0.11191(15)
H4 H 0.2744 0.0595 -0.1159
H5 H 0.4039 0.1183 -0.1093
C2 C 0.2728(3) 0.2291(3) -0.17799(14)
H6 H 0.2810 0.1726 -0.2164
H7 H 0.1873 0.2469 -0.1845
C3 C 0.4025(3) 0.3753(3) -0.21867(14)
H8 H 0.4080 0.2990 -0.2465
C4 C 0.4703(3) 0.4995(3) -0.22330(15)
C5 C 0.5409(3) 0.5307(4) -0.26616(17)
H9 H 0.5556 0.4714 -0.2996
C6 C 0.5863(3) 0.6656(4) -0.25109(18)
H10 H 0.6366 0.7136 -0.2725
C7 C 0.5439(3) 0.7142(4) -0.19947(16)
H11 H 0.5604 0.8023 -0.1789
C8 C 0.2084(2) 0.2788(3) -0.04489(15)
H12 H 0.1423 0.2371 -0.0799
H13 H 0.2117 0.3782 -0.0555
C9 C 0.1833(3) 0.2634(3) 0.02435(15)
H14 H 0.2556 0.2865 0.0606
H15 H 0.1199 0.3285 0.0274
C10 C 0.2245(3) 0.0402(4) 0.07166(15)
H16 H 0.2993 0.0804 0.0929
C11 C 0.2099(3) -0.1055(3) 0.08539(15)
C12 C 0.2924(3) -0.2002(4) 0.12203(16)
H17 H 0.3723 -0.1802 0.1455
C13 C 0.2371(3) -0.3313(4) 0.11832(18)
H18 H 0.2724 -0.4144 0.1388
C14 C 0.1217(3) -0.3143(4) 0.07898(17)
H19 H 0.0634 -0.3849 0.0675
C15 C 0.4299(2) 0.2945(3) -0.01526(14)
H20 H 0.4098 0.3670 0.0135
H21 H 0.4583 0.3405 -0.0507
C16 C 0.5290(2) 0.2023(3) 0.02762(15)
H22 H 0.4952 0.1410 0.0560
H23 H 0.5606 0.1433 -0.0026
C17 C 0.7349(3) 0.2535(3) 0.07048(14)
H24 H 0.7445 0.1841 0.0399
C18 C 0.8415(2) 0.3190(3) 0.11291(13)
C19 C 0.9607(3) 0.2851(4) 0.12042(15)
H25 H 0.9887 0.2142 0.0970
C20 C 1.0321(3) 0.3751(4) 0.16917(17)
H26 H 1.1161 0.3751 0.1848
C21 C 0.9557(3) 0.4631(4) 0.18960(16)
H27 H 0.9787 0.5355 0.2215
loop_
_geom_bond_atom_site_label_1
_geom_bond_atom_site_label_2
_geom_bond_site_symmetry_1
_geom_bond_site_symmetry_2
N1 C1 1_555 1_555
N2 C2 1_555 1_555
N3 H1 1_555 1_555
N4 C9 1_555 1_555
N5 H2 1_555 1_555
N6 C16 1_555 1_555
N7 H3 1_555 1_555
C1 H4 1_555 1_555
H5 C1 1_555 1_555
C2 C1 1_555 1_555
H6 C2 1_555 1_555
H7 C2 1_555 1_555
C3 N2 1_555 1_555
H8 C3 1_555 1_555
C4 N3 1_555 1_555
C5 C4 1_555 1_555
H9 C5 1_555 1_555
C6 C5 1_555 1_555
H10 C6 1_555 1_555
C7 N3 1_555 1_555
H11 C7 1_555 1_555
C8 N1 1_555 1_555
H12 C8 1_555 1_555
H13 C8 1_555 1_555
C9 C8 1_555 1_555
H14 C9 1_555 1_555
H15 C9 1_555 1_555
C10 N4 1_555 1_555
H16 C10 1_555 1_555
C11 N5 1_555 1_555
C12 C11 1_555 1_555
H17 C12 1_555 1_555
C13 C12 1_555 1_555
H18 C13 1_555 1_555
C14 N5 1_555 1_555
H19 C14 1_555 1_555
C15 N1 1_555 1_555
H20 C15 1_555 1_555
H21 C15 1_555 1_555
C16 C15 1_555 1_555
H22 C16 1_555 1_555
H23 C16 1_555 1_555
C17 N6 1_555 1_555
H24 C17 1_555 1_555
C18 N7 1_555 1_555
C19 C18 1_555 1_555
H25 C19 1_555 1_555
C20 C19 1_555 1_555
H26 C20 1_555 1_555
C21 N7 1_555 1_555
H27 C21 1_555 1_555
C3 C4 1_555 1_555
C6 C7 1_555 1_555
C10 C11 1_555 1_555
C13 C14 1_555 1_555
C17 C18 1_555 1_555
C20 C21 1_555 1_555

#END
