
#######################################################################
#
#                 Cambridge Crystallographic Data Centre
#                                CCDC 
#
#######################################################################
#
# If this CIF has been generated from an entry in the Cambridge 
# Structural Database, then it will include bibliographic, chemical, 
# crystal, experimental, refinement or atomic coordinate data resulting 
# from the CCDC's data processing and validation procedures.
#
#######################################################################

data_LIWHOQ
_chemical_name_common            'Iloperidone pyridine-3,5-dicarboxylic acid'
_chemical_formula_moiety         'C24 H27 F1 N2 O4,C7 H5 N1 O4'
_chemical_name_systematic        
'1-(4-(3-(4-(6-fluoro-1,2-benzoxazol-3-yl)piperidin-1-yl)propoxy)-3-methoxyphenyl)ethanone pyridine-3,5-dicarboxylic acid'
_symmetry_cell_setting           triclinic
_symmetry_space_group_name_H-M   'P -1'
_symmetry_Int_Tables_number      2
_space_group_name_Hall           '-P 1'
loop_
_symmetry_equiv_pos_site_id
_symmetry_equiv_pos_as_xyz
1 x,y,z
2 -x,-y,-z
_cell_length_a                   9.4398(17)
_cell_length_b                   9.6102(16)
_cell_length_c                   16.363(3)
_cell_angle_alpha                89.363(3)
_cell_angle_beta                 78.521(3)
_cell_angle_gamma                74.130(3)
_cell_volume                     1397.81
_cell_formula_units_Z            2
loop_
_atom_site_label
_atom_site_type_symbol
_atom_site_fract_x
_atom_site_fract_y
_atom_site_fract_z
O1 O 0.03299(15) 0.22003(13) 0.37260(8)
N1 N 0.14369(17) 0.05877(15) 0.20971(10)
O2 O 0.13816(15) 0.43184(14) 0.32118(9)
O3 O 0.49594(16) 0.35514(15) -0.09615(9)
C1 C -0.0544(2) 0.35277(19) 0.40474(12)
F1 F 0.18457(19) 0.83961(13) -0.04859(10)
C2 C 0.0041(2) 0.4687(2) 0.37703(12)
C3 C 0.3790(2) 0.4655(2) -0.05766(12)
C4 C -0.0746(2) 0.6070(2) 0.40666(13)
H1 H -0.0361 0.6838 0.3883
C5 C -0.2111(2) 0.6345(2) 0.46380(13)
C6 C -0.1898(2) 0.3787(2) 0.46043(13)
H2 H -0.2291 0.3023 0.4785
C7 C 0.0996(3) -0.0338(2) 0.35781(13)
H3 H 0.0823 -0.1185 0.3863
H4 H 0.1958 -0.0248 0.3659
C8 C 0.3685(2) 0.2641(2) 0.00749(13)
C9 C 0.1443(2) 0.0155(2) 0.12152(12)
H5 H 0.0462 0.0046 0.1185
H6 H 0.2180 -0.0774 0.1057
C10 C -0.0213(2) 0.0974(2) 0.39794(13)
H7 H -0.1143 0.1039 0.3795
H8 H -0.0398 0.0926 0.4582
C11 C 0.3288(2) 0.1952(2) 0.15617(13)
H9 H 0.4266 0.2057 0.1601
H10 H 0.2550 0.2878 0.1723
C12 C 0.3310(2) 0.1535(2) 0.06615(13)
H11 H 0.4097 0.0621 0.0504
N2 N 0.4858(2) 0.22755(18) -0.05242(11)
O4 O -0.2322(2) 0.88357(17) 0.47203(13)
C13 C 0.1813(2) 0.1270(2) 0.06090(13)
H12 H 0.1022 0.2173 0.0733
H13 H 0.1854 0.0937 0.0045
C14 C -0.2676(2) 0.5197(2) 0.48950(13)
H14 H -0.3594 0.5369 0.5269
C15 C 0.1093(3) -0.0586(2) 0.26546(13)
H15 H 0.1864 -0.1483 0.2467
H16 H 0.0144 -0.0718 0.2580
C16 C 0.2925(2) 0.4160(2) 0.00777(12)
C17 C 0.3483(3) 0.6086(2) -0.07966(13)
H17 H 0.4079 0.6412 -0.1237
C18 C 0.2910(2) 0.0828(2) 0.21566(13)
H18 H 0.3695 -0.0077 0.2028
H19 H 0.2869 0.1147 0.2723
C19 C 0.2223(3) 0.6975(2) -0.03061(15)
C20 C 0.1308(3) 0.6541(2) 0.03531(15)
H20 H 0.0469 0.7210 0.0661
C21 C 0.1643(2) 0.5116(2) 0.05510(14)
H21 H 0.1034 0.4796 0.0988
C22 C -0.2883(3) 0.7865(2) 0.49524(15)
C23 C 0.1918(3) 0.5485(2) 0.28605(16)
H22 H 0.1173 0.6105 0.2596
H23 H 0.2830 0.5108 0.2454
H24 H 0.2112 0.6028 0.3294
C24 C -0.4342(3) 0.8177(3) 0.55597(19)
H25 H -0.4200 0.7675 0.6060
H26 H -0.5056 0.7858 0.5320
H27 H -0.4714 0.9200 0.5691
O5 O 0.64953(16) 0.99750(14) 0.26385(11)
H28 H 0.6875 1.0616 0.2454
C25 C 0.7017(2) 0.49291(18) 0.26427(11)
O6 O 0.92540(17) 0.31091(14) 0.21094(9)
C26 C 0.67487(19) 0.74776(18) 0.25969(12)
C27 C 0.5367(2) 0.7689(2) 0.31321(13)
H29 H 0.4821 0.8634 0.3309
C28 C 0.7585(2) 0.60642(18) 0.23556(12)
H30 H 0.8524 0.5882 0.2002
O7 O 0.7188(2) 0.24304(15) 0.26112(11)
H31 H 0.6460 0.2611 0.2385
C29 C 0.7360(2) 0.87133(19) 0.23073(13)
N3 N 0.4772(2) 0.66245(18) 0.34102(13)
C30 C 0.7894(2) 0.33503(19) 0.24279(12)
O8 O 0.85355(19) 0.85578(16) 0.18227(12)
C31 C 0.5604(2) 0.5277(2) 0.31530(14)
H32 H 0.5200 0.4519 0.3332
loop_
_geom_bond_atom_site_label_1
_geom_bond_atom_site_label_2
_geom_bond_site_symmetry_1
_geom_bond_site_symmetry_2
O1 C1 1_555 1_555
N1 C9 1_555 1_555
O2 C2 1_555 1_555
O3 C3 1_555 1_555
C1 C2 1_555 1_555
F1 C19 1_555 1_555
C2 C4 1_555 1_555
C3 C16 1_555 1_555
C4 H1 1_555 1_555
C5 C4 1_555 1_555
C6 C1 1_555 1_555
H2 C6 1_555 1_555
C7 H3 1_555 1_555
H4 C7 1_555 1_555
C8 C12 1_555 1_555
C9 H5 1_555 1_555
H6 C9 1_555 1_555
C10 O1 1_555 1_555
H7 C10 1_555 1_555
H8 C10 1_555 1_555
C11 H9 1_555 1_555
H10 C11 1_555 1_555
C12 C11 1_555 1_555
H11 C12 1_555 1_555
N2 O3 1_555 1_555
O4 C22 1_555 1_555
C13 C9 1_555 1_555
H12 C13 1_555 1_555
H13 C13 1_555 1_555
C14 C5 1_555 1_555
H14 C14 1_555 1_555
C15 N1 1_555 1_555
H15 C15 1_555 1_555
H16 C15 1_555 1_555
C16 C8 1_555 1_555
C17 C3 1_555 1_555
H17 C17 1_555 1_555
C18 N1 1_555 1_555
H18 C18 1_555 1_555
H19 C18 1_555 1_555
C19 C17 1_555 1_555
C20 C19 1_555 1_555
H20 C20 1_555 1_555
C21 C16 1_555 1_555
H21 C21 1_555 1_555
C22 C5 1_555 1_555
C23 O2 1_555 1_555
H22 C23 1_555 1_555
H23 C23 1_555 1_555
H24 C23 1_555 1_555
C24 C22 1_555 1_555
H25 C24 1_555 1_555
H26 C24 1_555 1_555
H27 C24 1_555 1_555
O5 H28 1_555 1_555
C25 C28 1_555 1_555
O6 C30 1_555 1_555
C26 C27 1_555 1_555
C27 H29 1_555 1_555
C28 C26 1_555 1_555
H30 C28 1_555 1_555
O7 H31 1_555 1_555
C29 O5 1_555 1_555
N3 C27 1_555 1_555
C30 C25 1_555 1_555
O8 C29 1_555 1_555
C31 C25 1_555 1_555
H32 C31 1_555 1_555
C6 C14 1_555 1_555
C7 C10 1_555 1_555
C7 C15 1_555 1_555
C8 N2 1_555 1_555
C11 C18 1_555 1_555
C12 C13 1_555 1_555
C20 C21 1_555 1_555
C26 C29 1_555 1_555
O7 C30 1_555 1_555
N3 C31 1_555 1_555

#END
