
#######################################################################
#
#                 Cambridge Crystallographic Data Centre
#                                CCDC 
#
#######################################################################
#
# If this CIF has been generated from an entry in the Cambridge 
# Structural Database, then it will include bibliographic, chemical, 
# crystal, experimental, refinement or atomic coordinate data resulting 
# from the CCDC's data processing and validation procedures.
#
#######################################################################

data_LIXBUQ
_chemical_formula_moiety         'C34 H40 N2 O2'
_chemical_name_systematic        
(R,R)-2,2'-((1,2-bis(6,6-Dimethylbicyclo[3.1.1]hept-2-en-2-yl)ethane-1,2-diyl)bis(nitrilomethylylidene))diphenol
_symmetry_cell_setting           hexagonal
_symmetry_space_group_name_H-M   'P 65 2 2'
_symmetry_Int_Tables_number      179
_space_group_name_Hall           "P 65 2' (0,0,1)"
loop_
_symmetry_equiv_pos_site_id
_symmetry_equiv_pos_as_xyz
1 x,y,z
2 -y,x-y,2/3+z
3 -x+y,-x,1/3+z
4 -x,-y,1/2+z
5 y,-x+y,1/6+z
6 x-y,x,5/6+z
7 y,x,2/3-z
8 x-y,-y,-z
9 -x,-x+y,1/3-z
10 -y,-x,1/6-z
11 -x+y,y,1/2-z
12 x,x-y,5/6-z
_cell_length_a                   14.1593(4)
_cell_length_b                   14.1593(4)
_cell_length_c                   25.3297(10)
_cell_angle_alpha                90
_cell_angle_beta                 90
_cell_angle_gamma                120
_cell_volume                     4397.89
_exptl_crystal_colour            colorless
_exptl_crystal_description       plate
_chemical_melting_point          184deg.C
_cell_formula_units_Z            6
loop_
_atom_site_label
_atom_site_type_symbol
_atom_site_fract_x
_atom_site_fract_y
_atom_site_fract_z
O1 O 0.66319(19) 0.8610(2) 0.07167(9)
N1 N 0.7603(2) 1.0550(2) 0.10941(10)
C1 C 0.8160(2) 1.0287(2) 0.13910(12)
H1 H 0.8685 1.0820 0.1621
C2 C 0.8016(2) 0.9194(2) 0.13884(12)
C3 C 0.7285(2) 0.8409(2) 0.10350(13)
C4 C 0.7219(3) 0.7391(3) 0.10014(15)
H2 H 0.6737 0.6862 0.0756
C5 C 0.7857(3) 0.7162(3) 0.13267(16)
H3 H 0.7825 0.6478 0.1297
C6 C 0.8547(3) 0.7915(3) 0.16982(17)
H4 H 0.8961 0.7738 0.1932
C7 C 0.8621(3) 0.8922(3) 0.17221(15)
H5 H 0.9097 0.9442 0.1973
C8 C 0.7798(3) 1.1671(2) 0.10991(12)
H6 H 0.8307 1.2087 0.1394
C9 C 0.6715(2) 1.1614(2) 0.11870(12)
C10 C 0.5777(3) 1.0968(3) 0.08160(14)
H7 H 0.5937 1.0647 0.0501
C11 C 0.5229(3) 1.1668(3) 0.07048(14)
H8 H 0.5741 1.2465 0.0697
H9 H 0.4735 1.1427 0.0395
C12 C 0.6533(3) 1.2079(3) 0.15975(14)
H10 H 0.7104 1.2506 0.1838
C13 C 0.5401(3) 1.1923(3) 0.16791(14)
H11 H 0.5108 1.1563 0.2023
H12 H 0.5444 1.2642 0.1685
C14 C 0.4645(3) 1.1232(3) 0.12404(13)
H13 H 0.3886 1.1107 0.1260
C15 C 0.4735(3) 1.0182(3) 0.11405(14)
C16 C 0.3818(3) 0.9357(3) 0.07825(16)
H14 H 0.3900 0.8715 0.0733
H15 H 0.3858 0.9694 0.0439
H16 H 0.3111 0.9136 0.0946
C17 C 0.4865(3) 0.9592(3) 0.16066(15)
H17 H 0.4894 0.8951 0.1482
H18 H 0.4244 0.9359 0.1846
H19 H 0.5542 1.0082 0.1794
H20 H 0.687(3) 0.936(4) 0.0787(15)
O1I O 1.1390(2) 1.33681(19) 0.09500(9)
N1I N 0.9450(2) 1.2397(2) 0.05726(10)
C1I C 0.9713(2) 1.1840(2) 0.02757(12)
H1I H 0.9180 1.1315 0.0046
C2I C 1.0806(2) 1.1984(2) 0.02783(12)
C3I C 1.1591(2) 1.2715(2) 0.06317(13)
C4I C 1.2609(3) 1.2781(3) 0.06653(15)
H2I H 1.3138 1.3263 0.0911
C5I C 1.2838(3) 1.2143(3) 0.03400(16)
H3I H 1.3522 1.2175 0.0370
C6I C 1.2085(3) 1.1453(3) -0.00315(17)
H4I H 1.2262 1.1039 -0.0265
C7I C 1.1078(3) 1.1379(3) -0.00554(15)
H5I H 1.0558 1.0903 -0.0306
C8I C 0.8329(2) 1.2202(3) 0.05676(12)
H6I H 0.7913 1.1693 0.0273
C9I C 0.8386(2) 1.3285(2) 0.04797(12)
C10I C 0.9032(3) 1.4223(3) 0.08507(14)
H7I H 0.9353 1.4063 0.1166
C11I C 0.8332(3) 1.4771(3) 0.09619(14)
H8I H 0.7535 1.4259 0.0970
H9I H 0.8573 1.5265 0.1272
C12I C 0.7921(3) 1.3467(3) 0.00692(14)
H10I H 0.7494 1.2896 -0.0171
C13I C 0.8077(3) 1.4599(3) -0.00124(14)
H11I H 0.8437 1.4892 -0.0356
H12I H 0.7358 1.4556 -0.0018
C14I C 0.8768(3) 1.5355(3) 0.04263(13)
H13I H 0.8893 1.6114 0.0407
C15I C 0.9818(3) 1.5265(3) 0.05262(14)
C16I C 1.0643(3) 1.6182(3) 0.08842(16)
H14I H 1.1285 1.6100 0.0934
H15I H 1.0306 1.6142 0.1228
H16I H 1.0864 1.6889 0.0721
C17I C 1.0408(3) 1.5135(3) 0.00601(15)
H17I H 1.1049 1.5106 0.0185
H18I H 1.0641 1.5756 -0.0179
H19I H 0.9918 1.4458 -0.0127
H20I H 1.064(4) 1.313(3) 0.0880(15)
loop_
_geom_bond_atom_site_label_1
_geom_bond_atom_site_label_2
_geom_bond_site_symmetry_1
_geom_bond_site_symmetry_2
O1 C3 1_555 1_555
N1 C1 1_555 1_555
C1 H1 1_555 1_555
C2 C1 1_555 1_555
C3 C2 1_555 1_555
C4 C3 1_555 1_555
H2 C4 1_555 1_555
C5 C4 1_555 1_555
H3 C5 1_555 1_555
C6 C5 1_555 1_555
H4 C6 1_555 1_555
C7 C2 1_555 1_555
H5 C7 1_555 1_555
C8 N1 1_555 1_555
H6 C8 1_555 1_555
C9 C8 1_555 1_555
C10 C9 1_555 1_555
H7 C10 1_555 1_555
C11 C10 1_555 1_555
H8 C11 1_555 1_555
H9 C11 1_555 1_555
C12 C9 1_555 1_555
H10 C12 1_555 1_555
C13 C12 1_555 1_555
H11 C13 1_555 1_555
H12 C13 1_555 1_555
C14 C11 1_555 1_555
H13 C14 1_555 1_555
C15 C10 1_555 1_555
C16 C15 1_555 1_555
H14 C16 1_555 1_555
H15 C16 1_555 1_555
H16 C16 1_555 1_555
C17 C15 1_555 1_555
H17 C17 1_555 1_555
H18 C17 1_555 1_555
H19 C17 1_555 1_555
H20 O1 1_555 1_555
O1I C3I 1_555 1_555
N1I C1I 1_555 1_555
C1I H1I 1_555 1_555
C2I C1I 1_555 1_555
C3I C2I 1_555 1_555
C4I C3I 1_555 1_555
H2I C4I 1_555 1_555
C5I C4I 1_555 1_555
H3I C5I 1_555 1_555
C6I C5I 1_555 1_555
H4I C6I 1_555 1_555
C7I C2I 1_555 1_555
H5I C7I 1_555 1_555
C8I C8 1_555 1_555
H6I C8I 1_555 1_555
C9I C8I 1_555 1_555
C10I C9I 1_555 1_555
H7I C10I 1_555 1_555
C11I C10I 1_555 1_555
H8I C11I 1_555 1_555
H9I C11I 1_555 1_555
C12I C9I 1_555 1_555
H10I C12I 1_555 1_555
C13I C12I 1_555 1_555
H11I C13I 1_555 1_555
H12I C13I 1_555 1_555
C14I C11I 1_555 1_555
H13I C14I 1_555 1_555
C15I C10I 1_555 1_555
C16I C15I 1_555 1_555
H14I C16I 1_555 1_555
H15I C16I 1_555 1_555
H16I C16I 1_555 1_555
C17I C15I 1_555 1_555
H17I C17I 1_555 1_555
H18I C17I 1_555 1_555
H19I C17I 1_555 1_555
H20I O1I 1_555 1_555
C6 C7 1_555 1_555
C13 C14 1_555 1_555
C14 C15 1_555 1_555
N1I C8I 1_555 1_555
C6I C7I 1_555 1_555
C13I C14I 1_555 1_555
C14I C15I 1_555 1_555

#END
