
#######################################################################
#
#                 Cambridge Crystallographic Data Centre
#                                CCDC 
#
#######################################################################
#
# If this CIF has been generated from an entry in the Cambridge 
# Structural Database, then it will include bibliographic, chemical, 
# crystal, experimental, refinement or atomic coordinate data resulting 
# from the CCDC's data processing and validation procedures.
#
#######################################################################

data_LIYQOB
_chemical_formula_moiety         'C64 H78 N6 O16'
_chemical_name_systematic        
"octaethyl 2,2',2'',2'''-(7,7,23,23-tetramethyl-33,34,35,36,37,38-hexaazaheptacyclo[27.3.1.1^3,6^.1^8,11^.1^13,17^.1^19,22^.1^24,27^]octatriaconta-1(33),3,5,8,10,13(36),14,16,19,21,24,26,29,31-tetradecaene-2,12,18,28-tetrayl)tetramalonate"
_symmetry_cell_setting           monoclinic
_symmetry_space_group_name_H-M   'P 21/c'
_symmetry_Int_Tables_number      14
_space_group_name_Hall           '-P 2ybc'
loop_
_symmetry_equiv_pos_site_id
_symmetry_equiv_pos_as_xyz
1 x,y,z
2 -x,1/2+y,1/2-z
3 -x,-y,-z
4 x,1/2-y,1/2+z
_cell_length_a                   10.0275(9)
_cell_length_b                   28.009(3)
_cell_length_c                   11.9161(11)
_cell_angle_alpha                90
_cell_angle_beta                 110.138(2)
_cell_angle_gamma                90
_cell_volume                     3142.16
_exptl_crystal_colour            brown
_exptl_crystal_description       monoclinic
_cell_formula_units_Z            2
_chemical_properties_physical    Photo-sensitive
loop_
_atom_site_label
_atom_site_type_symbol
_atom_site_fract_x
_atom_site_fract_y
_atom_site_fract_z
C1 C 0.6861(3) -0.15216(10) 0.2859(3)
C2 C 0.5973(3) -0.15967(12) 0.1721(3)
H1 H 0.5976 -0.1861 0.1250
C3 C 0.5049(3) -0.12052(12) 0.1380(3)
H2 H 0.4336 -0.1166 0.0641
C4 C 0.5369(3) -0.08911(10) 0.2311(3)
C5 C 0.4698(3) -0.04199(10) 0.2444(2)
C6 C 0.5659(3) -0.00011(10) 0.2439(2)
C7 C 0.5508(3) 0.03519(11) 0.1622(3)
H3 H 0.4732 0.0395 0.0925
C8 C 0.6734(3) 0.06433(11) 0.2016(3)
H4 H 0.6904 0.0911 0.1624
C9 C 0.7621(3) 0.04639(10) 0.3067(2)
C10 C 0.9100(3) 0.06042(10) 0.3819(2)
H5 H 0.9547 0.0328 0.4308
C11 C 0.9174(3) 0.10228(10) 0.4666(2)
C12 C 0.8031(3) 0.11538(12) 0.4991(3)
H6 H 0.7172 0.0992 0.4684
C13 C 0.8180(3) 0.15254(13) 0.5773(3)
H7 H 0.7421 0.1619 0.6002
C14 C 0.9469(3) 0.17606(12) 0.6218(3)
H8 H 0.9591 0.2013 0.6750
C15 C 1.0567(3) 0.16139(10) 0.5858(2)
C16 C 1.2026(3) 0.18434(10) 0.6331(3)
H9 H 1.1950 0.2121 0.6806
C17 C 0.3305(3) -0.03637(11) 0.1389(3)
H10 H 0.3503 -0.0355 0.0656
H11 H 0.2847 -0.0072 0.1476
H12 H 0.2692 -0.0629 0.1373
C18 C 0.4337(3) -0.04244(11) 0.3598(3)
H13 H 0.3779 -0.0702 0.3607
H14 H 0.3807 -0.0143 0.3631
H15 H 0.5199 -0.0431 0.4278
C19 C 0.9953(3) 0.07199(10) 0.2994(2)
H16 H 0.9624 0.1028 0.2610
C20 C 0.9733(3) 0.03457(14) 0.2011(3)
C21 C 0.9682(4) -0.04936(16) 0.1622(4)
H17 H 0.9969 -0.0400 0.0955
H18 H 1.0275 -0.0759 0.2026
C22 C 0.8227(4) -0.06430(16) 0.1182(4)
H19 H 0.7952 -0.0748 0.1837
H20 H 0.8116 -0.0901 0.0625
H21 H 0.7637 -0.0380 0.0787
C23 C 1.1539(3) 0.07488(10) 0.3613(3)
C24 C 1.3639(3) 0.10683(12) 0.3401(3)
H22 H 1.4009 0.0756 0.3314
H23 H 1.4061 0.1168 0.4228
C25 C 1.3966(4) 0.14164(16) 0.2602(4)
H24 H 1.3547 0.1312 0.1788
H25 H 1.4977 0.1440 0.2805
H26 H 1.3588 0.1723 0.2693
C26 C 1.2436(3) 0.20339(11) 0.5270(3)
H27 H 1.2272 0.1772 0.4693
C27 C 1.1529(4) 0.24405(14) 0.4627(4)
C28 C 1.0176(6) 0.31177(18) 0.4764(6)
H28 H 1.0774 0.3384 0.4718
H29 H 0.9564 0.3040 0.3959
C29 C 0.9354(8) 0.3247(2) 0.5443(6)
H30 H 0.8680 0.2999 0.5405
H31 H 0.8857 0.3538 0.5135
H32 H 0.9955 0.3294 0.6258
C30 C 1.3988(4) 0.21602(13) 0.5635(3)
C31 C 1.5869(8) 0.2767(2) 0.6456(7)
H33 H 1.6297 0.2639 0.5904
H34 H 1.5907 0.3113 0.6464
C32 C 1.6387(8) 0.2573(2) 0.7549(7)
H35 H 1.5818 0.2671 0.8012
H36 H 1.7349 0.2677 0.7937
H37 H 1.6367 0.2231 0.7482
N1 N 0.6482(2) -0.10900(9) 0.3215(2)
N2 N 0.6947(2) 0.00708(9) 0.3326(2)
N3 N 1.0427(2) 0.12515(8) 0.50883(19)
O1 O 0.9505(3) 0.04495(11) 0.0986(2)
O2 O 0.9895(2) -0.00898(9) 0.2456(2)
O3 O 1.2232(2) 0.05044(7) 0.44466(17)
O4 O 1.2096(2) 0.10518(7) 0.30510(18)
O5 O 1.1251(5) 0.25088(14) 0.3583(3)
O6 O 1.1058(3) 0.27090(10) 0.5292(3)
O7 O 1.4862(3) 0.19183(10) 0.5433(3)
O8 O 1.4297(3) 0.25578(10) 0.6244(3)
H38 H 0.727(3) -0.0095(11) 0.397(3)
H39 H 0.695(3) -0.0956(11) 0.393(3)
C1B C 1.3139(3) 0.15216(10) 0.7141(3)
C2B C 1.4027(3) 0.15967(12) 0.8279(3)
H1B H 1.4024 0.1861 0.8750
C3B C 1.4951(3) 0.12052(12) 0.8620(3)
H2B H 1.5664 0.1166 0.9359
C4B C 1.4631(3) 0.08911(10) 0.7689(3)
C5B C 1.5302(3) 0.04199(10) 0.7556(2)
C6B C 1.4341(3) 0.00011(10) 0.7561(2)
C7B C 1.4492(3) -0.03519(11) 0.8378(3)
H3B H 1.5268 -0.0395 0.9075
C8B C 1.3266(3) -0.06433(11) 0.7984(3)
H4B H 1.3096 -0.0911 0.8376
C9B C 1.2379(3) -0.04639(10) 0.6933(2)
C10B C 1.0900(3) -0.06042(10) 0.6181(2)
H5B H 1.0453 -0.0328 0.5692
C11B C 1.0826(3) -0.10228(10) 0.5334(2)
C12B C 1.1969(3) -0.11538(12) 0.5009(3)
H6B H 1.2828 -0.0992 0.5316
C13B C 1.1820(3) -0.15254(13) 0.4227(3)
H7B H 1.2579 -0.1619 0.3998
C14B C 1.0531(3) -0.17606(12) 0.3782(3)
H8B H 1.0409 -0.2013 0.3250
C15B C 0.9433(3) -0.16139(10) 0.4142(2)
C16B C 0.7974(3) -0.18434(10) 0.3669(3)
H9B H 0.8050 -0.2121 0.3194
C17B C 1.6695(3) 0.03637(11) 0.8611(3)
H10B H 1.6497 0.0355 0.9344
H11B H 1.7153 0.0072 0.8524
H12B H 1.7308 0.0629 0.8627
C18B C 1.5663(3) 0.04244(11) 0.6402(3)
H13B H 1.6221 0.0702 0.6393
H14B H 1.6193 0.0143 0.6369
H15B H 1.4801 0.0431 0.5722
C19B C 1.0047(3) -0.07199(10) 0.7006(2)
H16B H 1.0376 -0.1028 0.7390
C20B C 1.0267(3) -0.03457(14) 0.7989(3)
C21B C 1.0318(4) 0.04936(16) 0.8378(4)
H17B H 1.0031 0.0400 0.9045
H18B H 0.9725 0.0759 0.7974
C22B C 1.1773(4) 0.06430(16) 0.8818(4)
H19B H 1.2048 0.0748 0.8163
H20B H 1.1884 0.0901 0.9375
H21B H 1.2363 0.0380 0.9213
C23B C 0.8461(3) -0.07488(10) 0.6387(3)
C24B C 0.6361(3) -0.10683(12) 0.6599(3)
H22B H 0.5991 -0.0756 0.6686
H23B H 0.5939 -0.1168 0.5772
C25B C 0.6034(4) -0.14164(16) 0.7398(4)
H24B H 0.6453 -0.1312 0.8212
H25B H 0.5023 -0.1440 0.7195
H26B H 0.6412 -0.1723 0.7307
C26B C 0.7564(3) -0.20339(11) 0.4730(3)
H27B H 0.7728 -0.1772 0.5307
C27B C 0.8471(4) -0.24405(14) 0.5373(4)
C28B C 0.9824(6) -0.31177(18) 0.5236(6)
H28B H 0.9226 -0.3384 0.5282
H29B H 1.0436 -0.3040 0.6041
C29B C 1.0646(8) -0.3247(2) 0.4557(6)
H30B H 1.1320 -0.2999 0.4595
H31B H 1.1143 -0.3538 0.4865
H32B H 1.0045 -0.3294 0.3742
C30B C 0.6012(4) -0.21602(13) 0.4365(3)
C31B C 0.4131(8) -0.2767(2) 0.3544(7)
H33B H 0.3703 -0.2639 0.4096
H34B H 0.4093 -0.3113 0.3536
C32B C 0.3613(8) -0.2573(2) 0.2451(7)
H35B H 0.4182 -0.2671 0.1988
H36B H 0.2651 -0.2677 0.2063
H37B H 0.3633 -0.2231 0.2518
N1B N 1.3518(2) 0.10900(9) 0.6785(2)
N2B N 1.3053(2) -0.00708(9) 0.6674(2)
N3B N 0.9573(2) -0.12515(8) 0.49117(19)
O1B O 1.0495(3) -0.04495(11) 0.9014(2)
O2B O 1.0105(2) 0.00898(9) 0.7544(2)
O3B O 0.7768(2) -0.05044(7) 0.55534(17)
O4B O 0.7904(2) -0.10518(7) 0.69490(18)
O5B O 0.8749(5) -0.25088(14) 0.6417(3)
O6B O 0.8942(3) -0.27090(10) 0.4708(3)
O7B O 0.5138(3) -0.19183(10) 0.4567(3)
O8B O 0.5703(3) -0.25578(10) 0.3756(3)
H38B H 1.273(3) 0.0095(11) 0.603(3)
H39B H 1.305(3) 0.0956(11) 0.607(3)
loop_
_geom_bond_atom_site_label_1
_geom_bond_atom_site_label_2
_geom_bond_site_symmetry_1
_geom_bond_site_symmetry_2
C1 C2 1_555 1_555
C2 H1 1_555 1_555
C3 C2 1_555 1_555
H2 C3 1_555 1_555
C4 C3 1_555 1_555
C5 C4 1_555 1_555
C6 C5 1_555 1_555
C7 C6 1_555 1_555
H3 C7 1_555 1_555
C8 C7 1_555 1_555
H4 C8 1_555 1_555
C9 C8 1_555 1_555
C10 C9 1_555 1_555
H5 C10 1_555 1_555
C11 C10 1_555 1_555
C12 C11 1_555 1_555
H6 C12 1_555 1_555
C13 C12 1_555 1_555
H7 C13 1_555 1_555
C14 C13 1_555 1_555
H8 C14 1_555 1_555
C15 C14 1_555 1_555
C16 C15 1_555 1_555
H9 C16 1_555 1_555
C17 C5 1_555 1_555
H10 C17 1_555 1_555
H11 C17 1_555 1_555
H12 C17 1_555 1_555
C18 C5 1_555 1_555
H13 C18 1_555 1_555
H14 C18 1_555 1_555
H15 C18 1_555 1_555
C19 C10 1_555 1_555
H16 C19 1_555 1_555
C20 C19 1_555 1_555
C21 H17 1_555 1_555
H18 C21 1_555 1_555
C22 C21 1_555 1_555
H19 C22 1_555 1_555
H20 C22 1_555 1_555
H21 C22 1_555 1_555
C23 C19 1_555 1_555
C24 H22 1_555 1_555
H23 C24 1_555 1_555
C25 C24 1_555 1_555
H24 C25 1_555 1_555
H25 C25 1_555 1_555
H26 C25 1_555 1_555
C26 C16 1_555 1_555
H27 C26 1_555 1_555
C27 C26 1_555 1_555
C28 H28 1_555 1_555
H29 C28 1_555 1_555
C29 C28 1_555 1_555
H30 C29 1_555 1_555
H31 C29 1_555 1_555
H32 C29 1_555 1_555
C30 C26 1_555 1_555
C31 H33 1_555 1_555
H34 C31 1_555 1_555
C32 C31 1_555 1_555
H35 C32 1_555 1_555
H36 C32 1_555 1_555
H37 C32 1_555 1_555
N1 C1 1_555 1_555
N2 C6 1_555 1_555
N3 C11 1_555 1_555
O1 C20 1_555 1_555
O2 C20 1_555 1_555
O3 C23 1_555 1_555
O4 C23 1_555 1_555
O5 C27 1_555 1_555
O6 C27 1_555 1_555
O7 C30 1_555 1_555
O8 C30 1_555 1_555
H38 N2 1_555 1_555
H39 N1 1_555 1_555
C1B C16 1_555 1_555
C2B C1B 1_555 1_555
H1B C2B 1_555 1_555
C3B C2B 1_555 1_555
H2B C3B 1_555 1_555
C4B C3B 1_555 1_555
C5B C4B 1_555 1_555
C6B C5B 1_555 1_555
C7B C6B 1_555 1_555
H3B C7B 1_555 1_555
C8B C7B 1_555 1_555
H4B C8B 1_555 1_555
C9B C8B 1_555 1_555
C10B C9B 1_555 1_555
H5B C10B 1_555 1_555
C11B C10B 1_555 1_555
C12B C11B 1_555 1_555
H6B C12B 1_555 1_555
C13B C12B 1_555 1_555
H7B C13B 1_555 1_555
C14B C13B 1_555 1_555
H8B C14B 1_555 1_555
C15B C14B 1_555 1_555
C16B C1 1_555 1_555
H9B C16B 1_555 1_555
C17B C5B 1_555 1_555
H10B C17B 1_555 1_555
H11B C17B 1_555 1_555
H12B C17B 1_555 1_555
C18B C5B 1_555 1_555
H13B C18B 1_555 1_555
H14B C18B 1_555 1_555
H15B C18B 1_555 1_555
C19B C10B 1_555 1_555
H16B C19B 1_555 1_555
C20B C19B 1_555 1_555
C21B H17B 1_555 1_555
H18B C21B 1_555 1_555
C22B C21B 1_555 1_555
H19B C22B 1_555 1_555
H20B C22B 1_555 1_555
H21B C22B 1_555 1_555
C23B C19B 1_555 1_555
C24B H22B 1_555 1_555
H23B C24B 1_555 1_555
C25B C24B 1_555 1_555
H24B C25B 1_555 1_555
H25B C25B 1_555 1_555
H26B C25B 1_555 1_555
C26B C16B 1_555 1_555
H27B C26B 1_555 1_555
C27B C26B 1_555 1_555
C28B H28B 1_555 1_555
H29B C28B 1_555 1_555
C29B C28B 1_555 1_555
H30B C29B 1_555 1_555
H31B C29B 1_555 1_555
H32B C29B 1_555 1_555
C30B C26B 1_555 1_555
C31B H33B 1_555 1_555
H34B C31B 1_555 1_555
C32B C31B 1_555 1_555
H35B C32B 1_555 1_555
H36B C32B 1_555 1_555
H37B C32B 1_555 1_555
N1B C1B 1_555 1_555
N2B C6B 1_555 1_555
N3B C11B 1_555 1_555
O1B C20B 1_555 1_555
O2B C20B 1_555 1_555
O3B C23B 1_555 1_555
O4B C23B 1_555 1_555
O5B C27B 1_555 1_555
O6B C27B 1_555 1_555
O7B C30B 1_555 1_555
O8B C30B 1_555 1_555
H38B N2B 1_555 1_555
H39B N1B 1_555 1_555
C4 N1 1_555 1_555
C9 N2 1_555 1_555
C15 N3 1_555 1_555
C21 O2 1_555 1_555
C24 O4 1_555 1_555
C28 O6 1_555 1_555
C31 O8 1_555 1_555
C4B N1B 1_555 1_555
C9B N2B 1_555 1_555
C15B C16B 1_555 1_555
C15B N3B 1_555 1_555
C21B O2B 1_555 1_555
C24B O4B 1_555 1_555
C28B O6B 1_555 1_555
C31B O8B 1_555 1_555

#END
