
#######################################################################
#
#                 Cambridge Crystallographic Data Centre
#                                CCDC 
#
#######################################################################
#
# If this CIF has been generated from an entry in the Cambridge 
# Structural Database, then it will include bibliographic, chemical, 
# crystal, experimental, refinement or atomic coordinate data resulting 
# from the CCDC's data processing and validation procedures.
#
#######################################################################

data_LIZDEE
_chemical_formula_moiety         'C30 H28 O5'
_chemical_name_systematic        
'Diethyl (Z)-3-((4-acetylphenyl)(phenyl)methylene)-2,3-dihydroindene-1,1-dicarboxylate'
_symmetry_cell_setting           monoclinic
_symmetry_space_group_name_H-M   'P 21/c'
_symmetry_Int_Tables_number      14
_space_group_name_Hall           '-P 2ybc'
loop_
_symmetry_equiv_pos_site_id
_symmetry_equiv_pos_as_xyz
1 x,y,z
2 -x,1/2+y,1/2-z
3 -x,-y,-z
4 x,1/2-y,1/2+z
_cell_length_a                   8.5245(5)
_cell_length_b                   36.609(2)
_cell_length_c                   16.3840(9)
_cell_angle_alpha                90.00
_cell_angle_beta                 91.0620(10)
_cell_angle_gamma                90.00
_cell_volume                     5112.13
_chemical_melting_point          144-146deg.C
_cell_formula_units_Z            8
loop_
_atom_site_label
_atom_site_type_symbol
_atom_site_fract_x
_atom_site_fract_y
_atom_site_fract_z
C1 C -0.2676(8) 0.52570(18) 0.5156(4)
H1 H -0.1759 0.5402 0.5272
H2 H -0.3062 0.5156 0.5654
H3 H -0.3472 0.5408 0.4907
C2 C -0.2268(6) 0.49564(16) 0.4590(3)
C3 C -0.1405(5) 0.50331(14) 0.3831(3)
C4 C -0.0991(5) 0.47450(14) 0.3322(3)
H4 H -0.1257 0.4507 0.3466
C5 C -0.0194(5) 0.48060(13) 0.2608(3)
H5 H 0.0085 0.4609 0.2281
C6 C 0.0192(5) 0.51581(13) 0.2375(3)
C7 C -0.0205(6) 0.54462(14) 0.2881(3)
H6 H 0.0060 0.5684 0.2736
C8 C -0.0990(5) 0.53840(14) 0.3596(3)
H7 H -0.1245 0.5581 0.3928
C9 C 0.1127(5) 0.52263(13) 0.1621(3)
C10 C 0.2692(5) 0.50448(12) 0.1618(3)
C11 C 0.3215(6) 0.48465(15) 0.0960(3)
H8 H 0.2575 0.4823 0.0498
C12 C 0.4669(7) 0.46825(16) 0.0978(4)
H9 H 0.4997 0.4549 0.0528
C13 C 0.5634(6) 0.47136(16) 0.1649(4)
H10 H 0.6619 0.4604 0.1656
C14 C 0.5141(6) 0.49064(16) 0.2311(4)
H11 H 0.5796 0.4929 0.2769
C15 C 0.3675(6) 0.50679(14) 0.2306(3)
H12 H 0.3342 0.5193 0.2765
C16 C 0.0642(5) 0.54474(13) 0.1016(3)
C17 C -0.0870(5) 0.56419(14) 0.0910(3)
C18 C -0.2335(5) 0.55663(15) 0.1230(3)
H13 H -0.2463 0.5370 0.1584
C19 C -0.3594(6) 0.57853(17) 0.1019(3)
H14 H -0.4576 0.5736 0.1231
C20 C -0.3413(6) 0.60767(18) 0.0496(3)
H15 H -0.4273 0.6222 0.0361
C21 C -0.1969(6) 0.61545(15) 0.0171(3)
H16 H -0.1846 0.6352 -0.0179
C22 C -0.0712(5) 0.59328(14) 0.0375(3)
C23 C 0.0995(5) 0.59687(13) 0.0127(3)
C24 C 0.1264(7) 0.60712(14) -0.0760(3)
C25 C 0.3247(7) 0.62980(19) -0.1641(3)
H17 H 0.2574 0.6499 -0.1810
H18 H 0.3171 0.6107 -0.2050
C26 C 0.4876(8) 0.6424(2) -0.1554(4)
H19 H 0.5532 0.6223 -0.1384
H20 H 0.4937 0.6614 -0.1153
H21 H 0.5226 0.6515 -0.2069
C27 C 0.1776(6) 0.62560(16) 0.0671(3)
C28 C 0.1971(8) 0.69058(19) 0.0884(4)
H22 H 0.1210 0.7103 0.0899
H23 H 0.2248 0.6840 0.1441
C29 C 0.3364(9) 0.7028(2) 0.0463(5)
H24 H 0.3140 0.7043 -0.0112
H25 H 0.4203 0.6858 0.0560
H26 H 0.3668 0.7265 0.0664
C30 C 0.1651(5) 0.55842(14) 0.0324(3)
H27 H 0.1558 0.5425 -0.0147
H28 H 0.2746 0.5598 0.0495
O1 O -0.2656(6) 0.46478(13) 0.4748(3)
O2 O 0.2673(5) 0.61920(12) 0.1219(2)
O3 O 0.1280(4) 0.65898(11) 0.0463(2)
O4 O 0.2767(4) 0.61585(10) -0.08522(18)
O5 O 0.0312(5) 0.60654(13) -0.1301(2)
C31 C -0.4384(8) 0.1042(2) 1.1981(4)
H29 H -0.5211 0.1072 1.2366
H30 H -0.3516 0.0918 1.2240
H31 H -0.4760 0.0902 1.1524
C32 C -0.3867(7) 0.1406(2) 1.1696(3)
C33 C -0.2696(6) 0.14296(16) 1.1030(3)
C34 C -0.2276(6) 0.17676(16) 1.0736(3)
H32 H -0.2663 0.1976 1.0986
C35 C -0.1297(6) 0.18040(14) 1.0081(3)
H33 H -0.1017 0.2036 0.9902
C36 C -0.0724(5) 0.14962(13) 0.9686(3)
C37 C -0.1082(5) 0.11575(14) 1.0000(3)
H34 H -0.0662 0.0949 0.9763
C38 C -0.2061(6) 0.11222(15) 1.0665(3)
H35 H -0.2292 0.0891 1.0867
C39 C 0.0217(5) 0.15334(13) 0.8935(3)
C40 C 0.1702(5) 0.13218(13) 0.8898(3)
C41 C 0.2823(7) 0.13400(16) 0.9517(3)
H36 H 0.2639 0.1479 0.9980
C42 C -0.0218(5) 0.17520(12) 0.8310(3)
C43 C 0.0828(5) 0.18615(13) 0.7611(3)
H37 H 0.0726 0.1690 0.7162
H38 H 0.1919 0.1871 0.7789
C44 C 0.0235(5) 0.22451(13) 0.7351(3)
C45 C -0.1479(5) 0.22348(14) 0.7620(3)
C46 C -0.1700(5) 0.19543(13) 0.8175(3)
C47 C -0.3199(5) 0.18913(15) 0.8469(3)
H39 H -0.3374 0.1700 0.8829
C48 C -0.4423(6) 0.21141(17) 0.8221(3)
H40 H -0.5427 0.2070 0.8411
C49 C -0.4172(6) 0.23997(17) 0.7696(3)
H41 H -0.5005 0.2551 0.7545
C50 C -0.2699(6) 0.24660(15) 0.7390(3)
H42 H -0.2530 0.2661 0.7038
C51 C 0.1106(6) 0.25426(14) 0.7831(3)
C52 C 0.1643(7) 0.31775(16) 0.7880(4)
H43 H 0.2770 0.3150 0.7837
H44 H 0.1384 0.3196 0.8452
C53 C 0.1110(8) 0.35018(19) 0.7437(5)
H45 H 0.1367 0.3479 0.6871
H46 H 0.1618 0.3714 0.7662
H47 H -0.0006 0.3526 0.7486
C54 C 0.0455(7) 0.23130(14) 0.6452(3)
C55 C 0.2447(9) 0.2385(3) 0.5458(4)
H48 H 0.2913 0.2168 0.5226
H49 H 0.1530 0.2449 0.5128
C56 C 0.3491(14) 0.2662(3) 0.5446(5)
H50 H 0.2979 0.2886 0.5592
H51 H 0.3907 0.2685 0.4908
H52 H 0.4330 0.2613 0.5829
O6 O -0.4397(6) 0.16853(15) 1.1992(3)
O7 O -0.0544(5) 0.23404(13) 0.5941(2)
O8 O 0.1977(5) 0.23107(13) 0.6293(2)
O9 O 0.1894(4) 0.24931(10) 0.8435(2)
O10 O 0.0835(4) 0.28686(10) 0.7503(2)
C57 C 0.2010(6) 0.11023(14) 0.8234(3)
H53 H 0.1261 0.1084 0.7817
C58 C 0.3377(9) 0.09117(17) 0.8171(4)
H54 H 0.3548 0.0764 0.7720
C59 C 0.4234(8) 0.1149(2) 0.9445(5)
H55 H 0.4999 0.1164 0.9856
C60 C 0.4485(8) 0.0940(2) 0.8773(6)
H56 H 0.5429 0.0815 0.8726
loop_
_geom_bond_atom_site_label_1
_geom_bond_atom_site_label_2
_geom_bond_site_symmetry_1
_geom_bond_site_symmetry_2
C1 H1 1_555 1_555
H2 C1 1_555 1_555
H3 C1 1_555 1_555
C2 C1 1_555 1_555
C3 C2 1_555 1_555
C4 C3 1_555 1_555
H4 C4 1_555 1_555
C5 C4 1_555 1_555
H5 C5 1_555 1_555
C6 C5 1_555 1_555
C7 C6 1_555 1_555
H6 C7 1_555 1_555
C8 C3 1_555 1_555
H7 C8 1_555 1_555
C9 C6 1_555 1_555
C10 C9 1_555 1_555
C11 C10 1_555 1_555
H8 C11 1_555 1_555
C12 C11 1_555 1_555
H9 C12 1_555 1_555
C13 C12 1_555 1_555
H10 C13 1_555 1_555
C14 C13 1_555 1_555
H11 C14 1_555 1_555
C15 C10 1_555 1_555
H12 C15 1_555 1_555
C16 C9 1_555 1_555
C17 C16 1_555 1_555
C18 C17 1_555 1_555
H13 C18 1_555 1_555
C19 C18 1_555 1_555
H14 C19 1_555 1_555
C20 C19 1_555 1_555
H15 C20 1_555 1_555
C21 C20 1_555 1_555
H16 C21 1_555 1_555
C22 C17 1_555 1_555
C23 C22 1_555 1_555
C24 C23 1_555 1_555
C25 H17 1_555 1_555
H18 C25 1_555 1_555
C26 C25 1_555 1_555
H19 C26 1_555 1_555
H20 C26 1_555 1_555
H21 C26 1_555 1_555
C27 C23 1_555 1_555
C28 H22 1_555 1_555
H23 C28 1_555 1_555
C29 C28 1_555 1_555
H24 C29 1_555 1_555
H25 C29 1_555 1_555
H26 C29 1_555 1_555
C30 C16 1_555 1_555
H27 C30 1_555 1_555
H28 C30 1_555 1_555
C31 H29 1_555 1_555
H30 C31 1_555 1_555
H31 C31 1_555 1_555
C32 C31 1_555 1_555
C33 C32 1_555 1_555
C34 C33 1_555 1_555
H32 C34 1_555 1_555
C35 C34 1_555 1_555
H33 C35 1_555 1_555
C36 C35 1_555 1_555
C37 C36 1_555 1_555
H34 C37 1_555 1_555
C38 C33 1_555 1_555
H35 C38 1_555 1_555
C39 C36 1_555 1_555
C40 C39 1_555 1_555
C41 C40 1_555 1_555
H36 C41 1_555 1_555
C42 C39 1_555 1_555
C43 C42 1_555 1_555
H37 C43 1_555 1_555
H38 C43 1_555 1_555
C44 C43 1_555 1_555
C45 C44 1_555 1_555
C46 C42 1_555 1_555
C47 C46 1_555 1_555
H39 C47 1_555 1_555
C48 C47 1_555 1_555
H40 C48 1_555 1_555
C49 C48 1_555 1_555
H41 C49 1_555 1_555
C50 C45 1_555 1_555
H42 C50 1_555 1_555
C51 C44 1_555 1_555
C52 H43 1_555 1_555
H44 C52 1_555 1_555
C53 C52 1_555 1_555
H45 C53 1_555 1_555
H46 C53 1_555 1_555
H47 C53 1_555 1_555
C54 C44 1_555 1_555
C55 H48 1_555 1_555
H49 C55 1_555 1_555
C56 C55 1_555 1_555
H50 C56 1_555 1_555
H51 C56 1_555 1_555
H52 C56 1_555 1_555
O1 C2 1_555 1_555
O2 C27 1_555 1_555
O3 C27 1_555 1_555
O4 C24 1_555 1_555
O5 C24 1_555 1_555
O6 C32 1_555 1_555
O7 C54 1_555 1_555
O8 C54 1_555 1_555
O9 C51 1_555 1_555
O10 C51 1_555 1_555
C57 C40 1_555 1_555
H53 C57 1_555 1_555
C58 C57 1_555 1_555
H54 C58 1_555 1_555
C59 C41 1_555 1_555
H55 C59 1_555 1_555
C60 C58 1_555 1_555
H56 C60 1_555 1_555
C7 C8 1_555 1_555
C14 C15 1_555 1_555
C21 C22 1_555 1_555
C23 C30 1_555 1_555
C25 O4 1_555 1_555
C28 O3 1_555 1_555
C37 C38 1_555 1_555
C45 C46 1_555 1_555
C49 C50 1_555 1_555
C52 O10 1_555 1_555
C55 O8 1_555 1_555
C59 C60 1_555 1_555

#END
