
#######################################################################
#
#                 Cambridge Crystallographic Data Centre
#                                CCDC 
#
#######################################################################
#
# If this CIF has been generated from an entry in the Cambridge 
# Structural Database, then it will include bibliographic, chemical, 
# crystal, experimental, refinement or atomic coordinate data resulting 
# from the CCDC's data processing and validation procedures.
#
#######################################################################

data_LIZMIS
_chemical_formula_moiety         'C25 H21 Cl1 N2 O4'
_chemical_name_systematic        
'Diethyl 2-(2-chlorobenzylidene)-4-cyano-5-imino-3-phenylcyclopent-3-ene-1,1-dicarboxylate'
_symmetry_cell_setting           monoclinic
_symmetry_space_group_name_H-M   'P 21/c'
_symmetry_Int_Tables_number      14
_space_group_name_Hall           '-P 2ybc'
loop_
_symmetry_equiv_pos_site_id
_symmetry_equiv_pos_as_xyz
1 x,y,z
2 -x,1/2+y,1/2-z
3 -x,-y,-z
4 x,1/2-y,1/2+z
_cell_length_a                   11.5422(3)
_cell_length_b                   18.0929(4)
_cell_length_c                   11.1757(3)
_cell_angle_alpha                90
_cell_angle_beta                 99.158(2)
_cell_angle_gamma                90
_cell_volume                     2304.09
_exptl_crystal_colour            colorless
_exptl_crystal_description       block
_cell_formula_units_Z            4
loop_
_atom_site_label
_atom_site_type_symbol
_atom_site_fract_x
_atom_site_fract_y
_atom_site_fract_z
Cl1 Cl 0.42208(8) 0.10264(5) 0.04598(9)
N1 N 0.8166(2) 0.49860(16) 0.2489(3)
O1 O 0.91387(15) 0.16359(10) 0.41007(17)
O2 O 0.78082(19) 0.11991(11) 0.1689(2)
O3 O 0.73217(17) 0.16719(12) 0.45511(19)
O4 O 0.8889(2) 0.21223(12) 0.1119(2)
N2 N 0.9502(2) 0.31991(16) 0.3369(2)
C1 C 0.6472(2) 0.33406(13) 0.2217(2)
C2 C 0.8438(2) 0.30576(14) 0.2972(2)
C3 C 0.7793(2) 0.23103(13) 0.2768(2)
C4 C 0.5447(2) 0.37814(14) 0.1659(2)
C5 C 0.7557(2) 0.36221(14) 0.2581(2)
C6 C 0.8242(2) 0.18787(16) 0.1754(3)
C7 C 0.4360(2) 0.21426(15) 0.2100(3)
C8 C 0.4839(2) 0.35892(16) 0.0524(3)
H1 H 0.5042 0.3163 0.0141
C9 C 0.8018(2) 0.18374(14) 0.3920(2)
C10 C 0.6505(2) 0.25321(14) 0.2385(2)
C11 C 0.5636(2) 0.20377(15) 0.2281(3)
H2 H 0.5879 0.1547 0.2332
C12 C 0.5133(2) 0.44074(15) 0.2225(3)
H3 H 0.5531 0.4540 0.2984
C13 C 0.7884(2) 0.43853(18) 0.2522(3)
C14 C 0.3614(3) 0.16822(17) 0.1318(3)
C15 C 0.9548(3) 0.11823(18) 0.5157(3)
H4 H 0.9090 0.0731 0.5132
H5 H 0.9470 0.1448 0.5893
C16 C 0.3832(3) 0.26487(17) 0.2771(3)
H6 H 0.4302 0.2954 0.3314
C17 C 0.4208(3) 0.48443(17) 0.1650(4)
H7 H 0.3987 0.5266 0.2033
C18 C 0.3630(3) 0.46552(18) 0.0531(4)
H8 H 0.3024 0.4952 0.0149
C19 C 0.3940(2) 0.40276(18) -0.0032(3)
H9 H 0.3541 0.3899 -0.0793
C20 C 1.0795(3) 0.1008(2) 0.5127(3)
H10 H 1.1098 0.0709 0.5816
H11 H 1.1237 0.1458 0.5150
H12 H 1.0860 0.0743 0.4396
C21 C 0.2631(3) 0.2713(2) 0.2658(4)
H13 H 0.2299 0.3062 0.3111
C22 C 0.8171(4) 0.0692(2) 0.0809(4)
H14 H 0.7491 0.0546 0.0232
H15 H 0.8716 0.0941 0.0366
C23 C 0.1928(3) 0.2259(3) 0.1874(5)
H16 H 0.1117 0.2302 0.1800
C24 C 0.8708(5) 0.0062(3) 0.1377(5)
H17 H 0.8938 -0.0263 0.0778
H18 H 0.8165 -0.0188 0.1806
H19 H 0.9389 0.0206 0.1939
C25 C 0.2405(3) 0.1743(2) 0.1196(4)
H20 H 0.1923 0.1438 0.0662
H21 H 0.986(2) 0.2799(17) 0.359(3)
loop_
_geom_bond_atom_site_label_1
_geom_bond_atom_site_label_2
_geom_bond_site_symmetry_1
_geom_bond_site_symmetry_2
Cl1 C14 1_555 1_555
N1 C13 1_555 1_555
O1 C9 1_555 1_555
O2 C6 1_555 1_555
O3 C9 1_555 1_555
O4 C6 1_555 1_555
N2 C2 1_555 1_555
C1 C4 1_555 1_555
C2 C3 1_555 1_555
C3 C6 1_555 1_555
C4 C8 1_555 1_555
C5 C1 1_555 1_555
C7 C11 1_555 1_555
C8 H1 1_555 1_555
C9 C3 1_555 1_555
C10 C1 1_555 1_555
C11 C10 1_555 1_555
H2 C11 1_555 1_555
C12 C4 1_555 1_555
H3 C12 1_555 1_555
C13 C5 1_555 1_555
C14 C7 1_555 1_555
C15 O1 1_555 1_555
H4 C15 1_555 1_555
H5 C15 1_555 1_555
C16 C7 1_555 1_555
H6 C16 1_555 1_555
C17 C12 1_555 1_555
H7 C17 1_555 1_555
C18 C17 1_555 1_555
H8 C18 1_555 1_555
C19 C8 1_555 1_555
H9 C19 1_555 1_555
C20 C15 1_555 1_555
H10 C20 1_555 1_555
H11 C20 1_555 1_555
H12 C20 1_555 1_555
C21 C16 1_555 1_555
H13 C21 1_555 1_555
C22 O2 1_555 1_555
H14 C22 1_555 1_555
H15 C22 1_555 1_555
C23 C21 1_555 1_555
H16 C23 1_555 1_555
C24 C22 1_555 1_555
H17 C24 1_555 1_555
H18 C24 1_555 1_555
H19 C24 1_555 1_555
C25 C14 1_555 1_555
H20 C25 1_555 1_555
H21 N2 1_555 1_555
C2 C5 1_555 1_555
C3 C10 1_555 1_555
C18 C19 1_555 1_555
C23 C25 1_555 1_555

#END
