
#######################################################################
#
#                 Cambridge Crystallographic Data Centre
#                                CCDC 
#
#######################################################################
#
# If this CIF has been generated from an entry in the Cambridge 
# Structural Database, then it will include bibliographic, chemical, 
# crystal, experimental, refinement or atomic coordinate data resulting 
# from the CCDC's data processing and validation procedures.
#
#######################################################################

data_LIZPER
_chemical_formula_moiety         'C22 H17 F1 O6 S2'
_chemical_name_systematic        
4-(Fluoro(bis(phenylsulfonyl))methyl)chroman-2-one
_symmetry_cell_setting           monoclinic
_symmetry_space_group_name_H-M   'P 21'
_symmetry_Int_Tables_number      4
_space_group_name_Hall           'P 2yb'
loop_
_symmetry_equiv_pos_site_id
_symmetry_equiv_pos_as_xyz
1 x,y,z
2 -x,1/2+y,-z
_cell_length_a                   8.0594(2)
_cell_length_b                   9.1761(2)
_cell_length_c                   14.6134(4)
_cell_angle_alpha                90
_cell_angle_beta                 105.832(2)
_cell_angle_gamma                90
_cell_volume                     1039.72
_exptl_crystal_colour            colorless
_exptl_crystal_description       block
_cell_formula_units_Z            2
loop_
_atom_site_label
_atom_site_type_symbol
_atom_site_fract_x
_atom_site_fract_y
_atom_site_fract_z
S1 S 0.11085(7) 0.16482(6) 0.74950(4)
S2 S 0.35989(7) 0.10906(6) 0.94537(4)
F1 F 0.23522(15) 0.36075(12) 0.87745(8)
O1 O 0.4602(2) 0.2232(2) 0.61620(12)
O2 O 0.5453(3) -0.0008(2) 0.65420(15)
O3 O -0.00756(19) 0.11122(18) 0.79850(11)
O4 O 0.1832(2) 0.06965(17) 0.69326(11)
O5 O 0.53426(18) 0.14768(18) 0.99344(10)
O6 O 0.3219(2) -0.03421(17) 0.90838(12)
C1 C 0.4574(3) 0.2842(2) 0.81045(15)
H1 H 0.5354 0.3303 0.8663
C2 C 0.5593(3) 0.1577(3) 0.78456(15)
H2 H 0.6809 0.1817 0.8064
H3 H 0.5407 0.0726 0.8199
C3 C 0.5195(3) 0.1166(4) 0.6818(2)
C4 C 0.4280(3) 0.3631(3) 0.64250(19)
C5 C 0.3996(3) 0.4662(4) 0.5712(2)
H4 H 0.4053 0.4401 0.5106
C6 C 0.3628(4) 0.6079(4) 0.5900(2)
H5 H 0.3425 0.6774 0.5419
C7 C 0.3561(3) 0.6469(3) 0.6803(2)
H6 H 0.3318 0.7425 0.6932
C8 C 0.3856(3) 0.5429(3) 0.75095(19)
H7 H 0.3820 0.5699 0.8117
C9 C 0.4206(3) 0.3990(3) 0.73372(17)
C10 C 0.2958(3) 0.2396(2) 0.84178(15)
C11 C 0.0103(3) 0.3123(3) 0.68083(16)
C12 C -0.0840(3) 0.4110(3) 0.71801(18)
H8 H -0.0847 0.4041 0.7814
C13 C -0.1757(3) 0.5185(3) 0.6618(2)
H9 H -0.2378 0.5856 0.6870
C14 C -0.1762(4) 0.5273(4) 0.5679(3)
H10 H -0.2393 0.6004 0.5297
C15 C -0.0841(4) 0.4291(4) 0.5295(2)
H11 H -0.0858 0.4354 0.4658
C16 C 0.0107(3) 0.3214(3) 0.58658(18)
H12 H 0.0744 0.2554 0.5617
C17 C 0.2289(3) 0.1571(3) 1.01903(15)
C18 C 0.2898(3) 0.2607(3) 1.08834(18)
H13 H 0.3969 0.3039 1.0953
C19 C 0.1887(4) 0.2996(3) 1.14774(19)
H14 H 0.2293 0.3668 1.1963
C20 C 0.0289(4) 0.2383(3) 1.1342(2)
H15 H -0.0406 0.2674 1.1723
C21 C -0.0303(3) 0.1347(3) 1.0654(2)
H16 H -0.1387 0.0936 1.0575
C22 C 0.0709(3) 0.0915(3) 1.00782(17)
H17 H 0.0330 0.0193 0.9622
loop_
_geom_bond_atom_site_label_1
_geom_bond_atom_site_label_2
_geom_bond_site_symmetry_1
_geom_bond_site_symmetry_2
S1 O3 1_555 1_555
S2 O5 1_555 1_555
F1 C10 1_555 1_555
O1 C3 1_555 1_555
O2 C3 1_555 1_555
O4 S1 1_555 1_555
O6 S2 1_555 1_555
C1 H1 1_555 1_555
C2 C1 1_555 1_555
H2 C2 1_555 1_555
H3 C2 1_555 1_555
C3 C2 1_555 1_555
C4 O1 1_555 1_555
C5 C4 1_555 1_555
H4 C5 1_555 1_555
C6 C5 1_555 1_555
H5 C6 1_555 1_555
C7 C6 1_555 1_555
H6 C7 1_555 1_555
C8 C7 1_555 1_555
H7 C8 1_555 1_555
C9 C1 1_555 1_555
C10 S1 1_555 1_555
C11 S1 1_555 1_555
C12 C11 1_555 1_555
H8 C12 1_555 1_555
C13 C12 1_555 1_555
H9 C13 1_555 1_555
C14 C13 1_555 1_555
H10 C14 1_555 1_555
C15 C14 1_555 1_555
H11 C15 1_555 1_555
C16 C11 1_555 1_555
H12 C16 1_555 1_555
C17 S2 1_555 1_555
C18 C17 1_555 1_555
H13 C18 1_555 1_555
C19 C18 1_555 1_555
H14 C19 1_555 1_555
C20 C19 1_555 1_555
H15 C20 1_555 1_555
C21 C20 1_555 1_555
H16 C21 1_555 1_555
C22 C17 1_555 1_555
H17 C22 1_555 1_555
S2 C10 1_555 1_555
C1 C10 1_555 1_555
C4 C9 1_555 1_555
C8 C9 1_555 1_555
C15 C16 1_555 1_555
C21 C22 1_555 1_555

#END
