
#######################################################################
#
#                 Cambridge Crystallographic Data Centre
#                                CCDC 
#
#######################################################################
#
# If this CIF has been generated from an entry in the Cambridge 
# Structural Database, then it will include bibliographic, chemical, 
# crystal, experimental, refinement or atomic coordinate data resulting 
# from the CCDC's data processing and validation procedures.
#
#######################################################################

data_LIZXAT
_chemical_formula_moiety         'C24 H25 N3 O3'
_chemical_name_systematic        
(1RS,3aRS,6aSR)-4-(5-((1,3-Benzodioxol-5-yl)methyl)-2,3,3-trimethyl-6-oxoperhydropyrrolo(3,4-c)pyrrol-1-yl)benzonitrile
_chemical_properties_biological  'potential thrombin inhibitory activity'
_symmetry_cell_setting           monoclinic
_symmetry_space_group_name_H-M   'P 21/c'
_symmetry_Int_Tables_number      14
_space_group_name_Hall           '-P 2ybc'
loop_
_symmetry_equiv_pos_site_id
_symmetry_equiv_pos_as_xyz
1 x,y,z
2 x,1/2-y,1/2+z
3 -x,-y,-z
4 -x,1/2+y,1/2-z
_cell_length_a                   10.605(4)
_cell_length_b                   20.953(5)
_cell_length_c                   10.036(3)
_cell_angle_alpha                90
_cell_angle_beta                 108.93(2)
_cell_angle_gamma                90
_cell_volume                     2109.45
_exptl_crystal_colour            colorless
_exptl_crystal_description       needles
_chemical_melting_point          109-111deg.C
_cell_formula_units_Z            4
_exptl_crystal_recrystallization_method 'diethyl ether'
loop_
_atom_site_label
_atom_site_type_symbol
_atom_site_fract_x
_atom_site_fract_y
_atom_site_fract_z
N1 N 0.6823(3) 0.83265(16) 0.9601(3)
C1 C 0.6334(3) 0.83307(15) 0.8412(3)
C2 C 0.5736(3) 0.83615(12) 0.6899(3)
C3 C 0.6501(3) 0.82397(14) 0.6056(3)
H1 H 0.7421 0.8124 0.6476
C4 C 0.5961(2) 0.83082(13) 0.4600(3)
H2 H 0.6490 0.8207 0.4012
C5 C 0.4656(2) 0.84963(10) 0.3986(2)
C6 C 0.3896(2) 0.86022(11) 0.4851(2)
H3 H 0.2983 0.8731 0.4438
C7 C 0.4418(3) 0.85344(12) 0.6301(3)
H4 H 0.3868 0.8605 0.6882
C8 C 0.4106(2) 0.86157(10) 0.2413(2)
H5 H 0.4828 0.8580 0.2039
N2 N 0.35531(17) 0.92633(8) 0.21042(18)
C9 C 0.4563(3) 0.97596(12) 0.2575(3)
H6 H 0.5018 0.9715 0.3568
H7 H 0.5193 0.9720 0.2075
H8 H 0.4146 1.0171 0.2391
C10 C 0.2757(2) 0.92713(11) 0.0584(2)
C11 C 0.3603(3) 0.92204(16) -0.0402(3)
H9 H 0.4141 0.8842 -0.0186
H10 H 0.3027 0.9203 -0.1363
H11 H 0.4169 0.9589 -0.0271
C12 C 0.1910(3) 0.98714(12) 0.0222(3)
H12 H 0.1375 0.9906 0.0828
H13 H 0.2483 1.0237 0.0351
H14 H 0.1341 0.9852 -0.0741
C13 C 0.1978(2) 0.86507(10) 0.0494(2)
H15 H 0.1711 0.8487 -0.0450
C14 C 0.2940(2) 0.81895(10) 0.1516(2)
H16 H 0.3264 0.7880 0.1001
C15 C 0.2117(2) 0.78585(10) 0.2295(2)
O1 O 0.24638(16) 0.74003(7) 0.30899(17)
N3 N 0.09125(18) 0.81398(8) 0.19237(18)
C16 C 0.0767(2) 0.86857(12) 0.1010(2)
H17 H -0.0054 0.8666 0.0239
H18 H 0.0786 0.9074 0.1525
C17 C -0.0158(2) 0.79408(11) 0.2446(2)
H19 H 0.0022 0.7517 0.2820
H20 H -0.0982 0.7931 0.1677
C18 C -0.0310(2) 0.83759(10) 0.3584(2)
C19 C 0.0500(2) 0.82866(11) 0.4953(2)
H21 H 0.1141 0.7947 0.5152
C20 C 0.0421(3) 0.86695(13) 0.6054(2)
H22 H 0.0991 0.8607 0.7006
C21 C -0.0499(2) 0.91434(12) 0.5715(2)
C22 C -0.1308(2) 0.92507(12) 0.4353(3)
C23 C -0.1245(2) 0.88699(12) 0.3265(2)
H23 H -0.1823 0.8940 0.2319
O2 O -0.0798(2) 0.95766(11) 0.6603(2)
C24 C -0.1785(3) 0.99813(18) 0.5714(4)
H24 H -0.2565 0.9985 0.6017
H25 H -0.1445 1.0414 0.5767
O3 O -0.21352(19) 0.97564(11) 0.4312(2)
loop_
_geom_bond_atom_site_label_1
_geom_bond_atom_site_label_2
_geom_bond_site_symmetry_1
_geom_bond_site_symmetry_2
N1 C1 1_555 1_555
C1 C2 1_555 1_555
C2 C3 1_555 1_555
C3 H1 1_555 1_555
C4 C3 1_555 1_555
H2 C4 1_555 1_555
C5 C4 1_555 1_555
C6 C5 1_555 1_555
H3 C6 1_555 1_555
C7 C2 1_555 1_555
H4 C7 1_555 1_555
C8 C5 1_555 1_555
H5 C8 1_555 1_555
N2 C8 1_555 1_555
C9 N2 1_555 1_555
H6 C9 1_555 1_555
H7 C9 1_555 1_555
H8 C9 1_555 1_555
C10 N2 1_555 1_555
C11 C10 1_555 1_555
H9 C11 1_555 1_555
H10 C11 1_555 1_555
H11 C11 1_555 1_555
C12 C10 1_555 1_555
H12 C12 1_555 1_555
H13 C12 1_555 1_555
H14 C12 1_555 1_555
C13 C10 1_555 1_555
H15 C13 1_555 1_555
C14 C8 1_555 1_555
H16 C14 1_555 1_555
C15 C14 1_555 1_555
O1 C15 1_555 1_555
N3 C15 1_555 1_555
C16 C13 1_555 1_555
H17 C16 1_555 1_555
H18 C16 1_555 1_555
C17 N3 1_555 1_555
H19 C17 1_555 1_555
H20 C17 1_555 1_555
C18 C17 1_555 1_555
C19 C18 1_555 1_555
H21 C19 1_555 1_555
C20 C19 1_555 1_555
H22 C20 1_555 1_555
C21 C20 1_555 1_555
C22 C21 1_555 1_555
C23 C18 1_555 1_555
H23 C23 1_555 1_555
O2 C21 1_555 1_555
C24 O2 1_555 1_555
H24 C24 1_555 1_555
H25 C24 1_555 1_555
O3 C22 1_555 1_555
C6 C7 1_555 1_555
C13 C14 1_555 1_555
N3 C16 1_555 1_555
C22 C23 1_555 1_555
C24 O3 1_555 1_555

#END
