
#######################################################################
#
#                 Cambridge Crystallographic Data Centre
#                                CCDC 
#
#######################################################################
#
# If this CIF has been generated from an entry in the Cambridge 
# Structural Database, then it will include bibliographic, chemical, 
# crystal, experimental, refinement or atomic coordinate data resulting 
# from the CCDC's data processing and validation procedures.
#
#######################################################################

data_LOBBAG
_chemical_formula_moiety         'C15 H12 Br1 Cl1 O4,0.5(C4 H8 O2)'
_chemical_name_systematic        
'(1S,4R,7S,8R)-8-Acetyl-7-(4-bromophenyl)-5-chloro-4-hydroxy-2-oxabicyclo(2.2.2)oct-5-en-3-one ethyl acetate solvate'
_symmetry_cell_setting           monoclinic
_symmetry_space_group_name_H-M   'P 21'
_symmetry_Int_Tables_number      4
_space_group_name_Hall           'P 2yb'
loop_
_symmetry_equiv_pos_site_id
_symmetry_equiv_pos_as_xyz
1 x,y,z
2 -x,1/2+y,-z
_cell_length_a                   12.2732(9)
_cell_length_b                   10.6002(7)
_cell_length_c                   13.1907(9)
_cell_angle_alpha                90
_cell_angle_beta                 95.895(3)
_cell_angle_gamma                90
_cell_volume                     1707.01
_exptl_crystal_colour            colorless
_cell_formula_units_Z            4
loop_
_atom_site_label
_atom_site_type_symbol
_atom_site_fract_x
_atom_site_fract_y
_atom_site_fract_z
Br1 Br 0.29260(9) 0.48803(18) 0.66363(9)
Cl1 Cl 0.3436(4) -0.2610(3) 0.4459(3)
C1 C 0.3167(9) -0.1049(12) 0.1828(8)
C2 C 0.2531(9) -0.1236(10) 0.2784(9)
C3 C 0.1952(7) 0.0050(10) 0.2963(7)
C4 C 0.2773(9) 0.1149(9) 0.3039(8)
C5 C 0.3926(9) 0.0550(10) 0.2956(8)
C6 C 0.4161(8) -0.0406(11) 0.3741(8)
C7 C 0.3427(10) -0.1358(10) 0.3668(9)
C8 C 0.2790(9) 0.1995(10) 0.3949(8)
C9 C 0.2499(10) 0.1666(11) 0.4878(8)
C10 C 0.2542(10) 0.2511(11) 0.5681(9)
C11 C 0.2880(8) 0.3701(10) 0.5560(8)
C12 C 0.3255(10) 0.4052(12) 0.4613(9)
C13 C 0.3180(11) 0.3195(12) 0.3838(9)
C14 C 0.1054(8) 0.0272(9) 0.2093(9)
C15 C -0.0075(9) 0.0504(12) 0.2360(10)
O1 O 0.3080(6) -0.1694(7) 0.1081(6)
O2 O 0.1784(6) -0.2193(6) 0.2646(5)
O3 O 0.3846(5) -0.0063(8) 0.1936(5)
O4 O 0.1272(6) 0.0316(7) 0.1240(6)
H1 H 0.1624 0.0000 0.3583
H2 H 0.2604 0.1662 0.2453
H3 H 0.4479 0.1182 0.3006
H4 H 0.4766 -0.0364 0.4250
H5 H 0.2259 0.0827 0.4979
H6 H 0.2332 0.2246 0.6320
H7 H 0.3548 0.4869 0.4523
H8 H 0.3407 0.3436 0.3199
H9 H -0.0551 0.0624 0.1753
H10 H -0.0318 -0.0200 0.2723
H11 H -0.0080 0.1238 0.2773
H32 H 0.2155 -0.2823 0.2506
Br2 Br 0.64196(11) 0.40998(18) 0.32587(9)
Cl2 Cl 0.6712(4) 1.1774(4) 0.1168(2)
C16 C 0.6774(8) 1.0147(10) -0.1430(9)
C17 C 0.7356(8) 1.0229(9) -0.0374(8)
C18 C 0.7740(8) 0.8870(9) -0.0049(7)
C19 C 0.6728(8) 0.7984(9) -0.0216(8)
C20 C 0.5751(10) 0.8789(13) -0.0542(9)
C21 C 0.5607(9) 0.9814(14) 0.0215(8)
C22 C 0.6469(10) 1.0545(12) 0.0328(8)
C23 C 0.6611(9) 0.7063(10) 0.0665(8)
C24 C 0.7198(10) 0.5959(12) 0.0680(9)
C25 C 0.7159(9) 0.5087(12) 0.1465(9)
C26 C 0.6495(10) 0.5312(10) 0.2190(9)
C27 C 0.5888(10) 0.6386(11) 0.2199(9)
C28 C 0.5972(10) 0.7277(12) 0.1438(9)
C29 C 0.8678(9) 0.8447(9) -0.0651(9)
C30 C 0.9748(9) 0.8191(12) -0.0111(9)
O5 O 0.6998(6) 1.0729(7) -0.2184(5)
O6 O 0.8258(6) 1.1032(6) -0.0322(5)
O7 O 0.5928(6) 0.9321(7) -0.1514(5)
O8 O 0.8457(6) 0.8345(7) -0.1573(6)
H12 H 0.7994 0.8875 0.0656
H13 H 0.6841 0.7476 -0.0789
H14 H 0.5114 0.8275 -0.0616
H15 H 0.4974 0.9920 0.0565
H16 H 0.7635 0.5785 0.0142
H17 H 0.7595 0.4346 0.1486
H18 H 0.5418 0.6525 0.2717
H19 H 0.5577 0.8047 0.1454
H20 H 1.0241 0.7942 -0.0584
H21 H 0.9683 0.7531 0.0366
H22 H 1.0019 0.8929 0.0239
H31 H 0.7887 1.1663 -0.0532
C31 C 0.9736(18) 0.362(2) 0.4570(18)
C32 C 0.9397(13) 0.2367(15) 0.4822(13)
C33 C 1.0659(13) 0.489(2) 0.3436(15)
C34 C 0.9738(11) 0.5580(16) 0.2760(15)
O9 O 1.0214(11) 0.3646(12) 0.3690(9)
O10 O 0.9648(11) 0.4567(14) 0.5084(10)
H23 H 0.9070 0.2382 0.5445
H24 H 0.8881 0.2065 0.4292
H25 H 1.0017 0.1826 0.4891
H26 H 1.1284 0.4780 0.3075
H27 H 1.0858 0.5351 0.4042
H28 H 0.9996 0.6387 0.2583
H29 H 0.9542 0.5105 0.2158
H30 H 0.9115 0.5676 0.3125
loop_
_geom_bond_atom_site_label_1
_geom_bond_atom_site_label_2
_geom_bond_site_symmetry_1
_geom_bond_site_symmetry_2
Br1 C11 1_555 1_555
Br2 C26 1_555 1_555
Cl1 C7 1_555 1_555
Cl2 C22 1_555 1_555
C1 C2 1_555 1_555
C2 C3 1_555 1_555
C3 C4 1_555 1_555
C4 C5 1_555 1_555
C5 C6 1_555 1_555
C6 C7 1_555 1_555
C7 C2 1_555 1_555
C8 C4 1_555 1_555
C9 C8 1_555 1_555
C10 C9 1_555 1_555
C11 C10 1_555 1_555
C12 C11 1_555 1_555
C13 C8 1_555 1_555
C14 C3 1_555 1_555
C15 C14 1_555 1_555
C16 C17 1_555 1_555
C17 C18 1_555 1_555
C18 C19 1_555 1_555
C19 C20 1_555 1_555
C20 C21 1_555 1_555
C21 C22 1_555 1_555
C22 C17 1_555 1_555
C23 C19 1_555 1_555
C24 C23 1_555 1_555
C25 C24 1_555 1_555
C26 C25 1_555 1_555
C27 C26 1_555 1_555
C28 C23 1_555 1_555
C29 C18 1_555 1_555
C30 C29 1_555 1_555
C31 C32 1_555 1_555
C32 H23 1_555 1_555
C33 C34 1_555 1_555
C34 H28 1_555 1_555
O1 C1 1_555 1_555
O2 C2 1_555 1_555
O3 C1 1_555 1_555
O4 C14 1_555 1_555
O5 C16 1_555 1_555
O6 C17 1_555 1_555
O7 C16 1_555 1_555
O8 C29 1_555 1_555
O9 C31 1_555 1_555
O10 C31 1_555 1_555
H1 C3 1_555 1_555
H2 C4 1_555 1_555
H3 C5 1_555 1_555
H4 C6 1_555 1_555
H5 C9 1_555 1_555
H6 C10 1_555 1_555
H7 C12 1_555 1_555
H8 C13 1_555 1_555
H9 C15 1_555 1_555
H10 C15 1_555 1_555
H11 C15 1_555 1_555
H12 C18 1_555 1_555
H13 C19 1_555 1_555
H14 C20 1_555 1_555
H15 C21 1_555 1_555
H16 C24 1_555 1_555
H17 C25 1_555 1_555
H18 C27 1_555 1_555
H19 C28 1_555 1_555
H20 C30 1_555 1_555
H21 C30 1_555 1_555
H22 C30 1_555 1_555
H24 C32 1_555 1_555
H25 C32 1_555 1_555
H26 C33 1_555 1_555
H27 C33 1_555 1_555
H29 C34 1_555 1_555
H30 C34 1_555 1_555
H31 O6 1_555 1_555
H32 O2 1_555 1_555
C5 O3 1_555 1_555
C12 C13 1_555 1_555
C20 O7 1_555 1_555
C27 C28 1_555 1_555
C33 O9 1_555 1_555

#END
