
#######################################################################
#
#                 Cambridge Crystallographic Data Centre
#                                CCDC 
#
#######################################################################
#
# If this CIF has been generated from an entry in the Cambridge 
# Structural Database, then it will include bibliographic, chemical, 
# crystal, experimental, refinement or atomic coordinate data resulting 
# from the CCDC's data processing and validation procedures.
#
#######################################################################

data_LOBFUE
_chemical_formula_moiety         'H4 N1 1+,C2 H8 N1 O6 P2 1-'
_chemical_name_systematic        'Ammonium 1-ammonioethylidenediphosphonate'
_symmetry_cell_setting           monoclinic
_symmetry_space_group_name_H-M   'P 21/c'
_symmetry_Int_Tables_number      14
_space_group_name_Hall           '-P 2ybc'
loop_
_symmetry_equiv_pos_site_id
_symmetry_equiv_pos_as_xyz
1 x,y,z
2 -x,1/2+y,1/2-z
3 -x,-y,-z
4 x,1/2-y,1/2+z
_cell_length_a                   7.3372(5)
_cell_length_b                   10.6496(7)
_cell_length_c                   10.6098(7)
_cell_angle_alpha                90
_cell_angle_beta                 97.7020(10)
_cell_angle_gamma                90
_cell_volume                     821.552
_exptl_crystal_colour            colorless
_exptl_crystal_description       block
_cell_formula_units_Z            4
loop_
_atom_site_label
_atom_site_type_symbol
_atom_site_fract_x
_atom_site_fract_y
_atom_site_fract_z
C1 C 0.99498(16) 0.06113(11) 0.24275(11)
C2 C 0.9675(2) 0.12371(13) 0.36864(13)
N1 N 1.01642(15) 0.16555(10) 0.14940(10)
O1 O 0.63593(13) 0.07635(9) 0.17134(10)
O2 O 0.80243(13) -0.07431(9) 0.05064(8)
O3 O 0.75565(13) -0.12733(9) 0.27922(9)
O4 O 1.36093(12) 0.06985(9) 0.29428(9)
O5 O 1.20389(13) -0.12908(9) 0.35944(9)
O6 O 1.23152(13) -0.08985(9) 0.13093(9)
P1 P 0.78594(4) -0.02932(3) 0.18352(3)
P2 P 1.21295(4) -0.02817(3) 0.26311(3)
H1 H 0.948(3) 0.065(2) 0.434(2)
H2 H 1.073(3) 0.175(2) 0.401(2)
H3 H 0.864(3) 0.178(2) 0.357(2)
H4 H 0.554(3) 0.068(2) 0.212(2)
H5 H 1.230(3) -0.039(2) 0.072(2)
H6 H 1.106(3) 0.2151(18) 0.1768(17)
H7 H 0.920(3) 0.2206(18) 0.1386(17)
H8 H 1.037(3) 0.1350(19) 0.0716(18)
N2 N 0.44615(19) 0.29778(13) 0.02463(12)
H9 H 0.564(3) 0.305(2) 0.0506(19)
H10 H 0.428(3) 0.340(2) -0.052(2)
H11 H 0.384(3) 0.326(2) 0.086(2)
H12 H 0.427(3) 0.217(2) 0.0115(19)
loop_
_geom_bond_atom_site_label_1
_geom_bond_atom_site_label_2
_geom_bond_site_symmetry_1
_geom_bond_site_symmetry_2
C1 C2 1_555 1_555
C2 H1 1_555 1_555
N1 C1 1_555 1_555
N2 H9 1_555 1_555
O1 P1 1_555 1_555
O2 P1 1_555 1_555
O3 P1 1_555 1_555
O4 P2 1_555 1_555
O5 P2 1_555 1_555
O6 P2 1_555 1_555
P1 C1 1_555 1_555
P2 C1 1_555 1_555
H2 C2 1_555 1_555
H3 C2 1_555 1_555
H4 O1 1_555 1_555
H5 O6 1_555 1_555
H6 N1 1_555 1_555
H7 N1 1_555 1_555
H8 N1 1_555 1_555
H10 N2 1_555 1_555
H11 N2 1_555 1_555
H12 N2 1_555 1_555

#END
