
#######################################################################
#
#                 Cambridge Crystallographic Data Centre
#                                CCDC 
#
#######################################################################
#
# If this CIF has been generated from an entry in the Cambridge 
# Structural Database, then it will include bibliographic, chemical, 
# crystal, experimental, refinement or atomic coordinate data resulting 
# from the CCDC's data processing and validation procedures.
#
#######################################################################

data_LOBJER
_chemical_formula_moiety         'C13 H22 N2 O4'
_chemical_name_systematic        
(2R,3'R,4'S,5R)-2,5-Dihydro-5-isopropyl-3,6-dimethoxypyrazine-2-spirocyclopentane-3',4'-diol
_symmetry_cell_setting           tetragonal
_symmetry_space_group_name_H-M   'P 42'
_symmetry_Int_Tables_number      77
_space_group_name_Hall           'P 4c'
loop_
_symmetry_equiv_pos_site_id
_symmetry_equiv_pos_as_xyz
1 x,y,z
2 -x,-y,z
3 -y,x,1/2+z
4 y,-x,1/2+z
_cell_length_a                   12.6541(2)
_cell_length_b                   12.6541(2)
_cell_length_c                   9.2145(2)
_cell_angle_alpha                90
_cell_angle_beta                 90
_cell_angle_gamma                90
_cell_volume                     1475.48
_exptl_crystal_colour            white
_chemical_melting_point          76deg.C
_cell_formula_units_Z            4
loop_
_atom_site_label
_atom_site_type_symbol
_atom_site_fract_x
_atom_site_fract_y
_atom_site_fract_z
O1 O 0.0784(7) 0.3986(6) 0.0300(13)
O3 O 0.08688(9) 0.38131(11) 0.61134(14)
O4 O 0.38779(9) 0.55632(10) 0.59959(15)
H1 H 0.393(2) 0.565(2) 0.692(4)
O5 O 0.44288(9) 0.39544(10) 0.40820(15)
H2 H 0.497(2) 0.416(2) 0.448(3)
N1 N 0.18129(12) 0.40819(13) 0.23777(18)
N2 N -0.00229(10) 0.34931(12) 0.40251(17)
C1 C 0.09656(16) 0.38029(18) 0.1763(2)
C2 C -0.00378(13) 0.34082(16) 0.2448(2)
H3 H -0.067(2) 0.383(2) 0.202(3)
C3 C 0.08269(12) 0.37592(13) 0.46448(18)
C4 C 0.18873(12) 0.40138(13) 0.39594(19)
C5 C 0.23670(12) 0.50620(13) 0.4532(2)
H4 H 0.1866(17) 0.5547(17) 0.480(2)
H5 H 0.2805(17) 0.5340(17) 0.375(2)
C6 C 0.31311(12) 0.47412(13) 0.57317(17)
H6 H 0.2761(18) 0.4586(19) 0.657(3)
C7 C 0.36399(12) 0.37204(13) 0.51482(19)
H7 H 0.3952(15) 0.3331(15) 0.593(3)
C8 C 0.27236(13) 0.31515(14) 0.4399(2)
H8 H 0.2989(19) 0.275(2) 0.356(3)
H9 H 0.247(2) 0.267(2) 0.502(3)
C9 C -0.02761(19) 0.2258(2) 0.1982(3)
H10 H -0.038(2) 0.225(2) 0.097(3)
C10 C -0.1297(2) 0.1872(3) 0.2692(4)
H11 H -0.189(3) 0.236(3) 0.257(4)
H12 H -0.146(3) 0.122(3) 0.234(4)
H13 H -0.114(3) 0.181(3) 0.372(5)
C11 C 0.0646(3) 0.1538(2) 0.2300(6)
H14 H 0.135(4) 0.172(3) 0.192(4)
H15 H 0.0707(18) 0.1416(18) 0.323(3)
H16 H 0.069(5) 0.071(6) 0.210(7)
C12 C 0.1669(7) 0.4462(7) -0.0436(10)
H17 H 0.1484 0.4588 -0.1454
H18 H 0.2279 0.3986 -0.0386
H19 H 0.1845 0.5135 0.0032
C14 C -0.00925(15) 0.3513(2) 0.6864(2)
H23 H 0.002(3) 0.351(2) 0.787(4)
H24 H -0.064(2) 0.403(2) 0.668(3)
H25 H -0.034(2) 0.284(2) 0.655(3)
O2? O 0.0969(8) 0.3673(7) 0.0307(13)
C13? C 0.1909(7) 0.4021(8) -0.0443(11)
H20? H 0.1836 0.3874 -0.1482
H21? H 0.2524 0.3643 -0.0060
H22? H 0.2003 0.4782 -0.0295
loop_
_geom_bond_atom_site_label_1
_geom_bond_atom_site_label_2
_geom_bond_site_symmetry_1
_geom_bond_site_symmetry_2
O1 C1 1_555 1_555
O3 C3 1_555 1_555
O4 H1 1_555 1_555
O5 H2 1_555 1_555
N1 C1 1_555 1_555
N2 C2 1_555 1_555
C1 C2 1_555 1_555
C2 H3 1_555 1_555
C3 N2 1_555 1_555
C4 N1 1_555 1_555
C5 C4 1_555 1_555
H4 C5 1_555 1_555
H5 C5 1_555 1_555
C6 O4 1_555 1_555
H6 C6 1_555 1_555
C7 O5 1_555 1_555
H7 C7 1_555 1_555
C8 C4 1_555 1_555
H8 C8 1_555 1_555
H9 C8 1_555 1_555
C9 C2 1_555 1_555
H10 C9 1_555 1_555
C10 C9 1_555 1_555
H11 C10 1_555 1_555
H12 C10 1_555 1_555
H13 C10 1_555 1_555
C11 C9 1_555 1_555
H14 C11 1_555 1_555
H15 C11 1_555 1_555
H16 C11 1_555 1_555
C12 O1 1_555 1_555
H17 C12 1_555 1_555
H18 C12 1_555 1_555
H19 C12 1_555 1_555
C14 O3 1_555 1_555
H23 C14 1_555 1_555
H24 C14 1_555 1_555
H25 C14 1_555 1_555
C3 C4 1_555 1_555
C5 C6 1_555 1_555
C6 C7 1_555 1_555
C7 C8 1_555 1_555

#END
