
#######################################################################
#
#                 Cambridge Crystallographic Data Centre
#                                CCDC 
#
#######################################################################
#
# If this CIF has been generated from an entry in the Cambridge 
# Structural Database, then it will include bibliographic, chemical, 
# crystal, experimental, refinement or atomic coordinate data resulting 
# from the CCDC's data processing and validation procedures.
#
#######################################################################

data_LOBYIM
_chemical_formula_moiety         'C40 H80 Ca2 N4 O6'
_chemical_name_systematic        
bis(\m~2~-1-((2-(Dimethylamino)ethyl)(methyl)amino)-2-methylpropan-2-olato)-bis(2,2,6,6-tetramethylheptane-3,5-dionato)-di-calcium
_symmetry_cell_setting           monoclinic
_symmetry_space_group_name_H-M   'P 21/n'
_symmetry_Int_Tables_number      14
_space_group_name_Hall           '-P 2yn'
loop_
_symmetry_equiv_pos_site_id
_symmetry_equiv_pos_as_xyz
1 x,y,z
2 1/2-x,1/2+y,1/2-z
3 -x,-y,-z
4 1/2+x,1/2-y,1/2+z
_cell_length_a                   14.0570(2)
_cell_length_b                   10.63270(1)
_cell_length_c                   15.8000(2)
_cell_angle_alpha                90
_cell_angle_beta                 93.4850(1)
_cell_angle_gamma                90
_cell_volume                     2357.16
_exptl_crystal_colour            silver
_exptl_crystal_description       block
_cell_formula_units_Z            2
_chemical_properties_physical    
'Air-sensitive, Moisture-sensitive, Hygroscropic'
loop_
_atom_site_label
_atom_site_type_symbol
_atom_site_fract_x
_atom_site_fract_y
_atom_site_fract_z
Ca1 Ca 0.10125(3) 0.59087(4) 0.02046(2)
O1 O 0.22647(10) 0.49809(14) -0.04274(10)
O2 O 0.20250(11) 0.75325(14) -0.00380(10)
O3 O 0.02993(10) 0.41315(13) 0.06847(9)
N1 N 0.04277(13) 0.74680(17) 0.13378(12)
N2 N 0.17849(13) 0.53271(17) 0.16514(12)
C1 C 0.30030(15) 0.5383(2) -0.07554(14)
C2 C 0.32803(16) 0.6652(2) -0.07712(15)
H1 H 0.3845 0.6850 -0.1045
C3 C 0.27893(15) 0.7649(2) -0.04150(14)
C4 C 0.36071(17) 0.4364(2) -0.11657(17)
C5 C 0.2962(2) 0.3635(4) -0.1797(2)
H2 H 0.3333 0.2980 -0.2064
H3 H 0.2692 0.4210 -0.2233
H4 H 0.2445 0.3244 -0.1501
C6 C 0.4465(3) 0.4860(3) -0.1597(3)
H5 H 0.4809 0.4156 -0.1838
H6 H 0.4889 0.5303 -0.1181
H7 H 0.4253 0.5441 -0.2051
C7 C 0.3948(3) 0.3450(4) -0.0476(3)
H8 H 0.4335 0.2792 -0.0720
H9 H 0.3396 0.3067 -0.0226
H10 H 0.4332 0.3901 -0.0036
C8 C 0.31783(17) 0.9007(2) -0.04392(16)
C9 C 0.4007(2) 0.9175(2) -0.1012(2)
H11 H 0.4215 1.0055 -0.0997
H12 H 0.3799 0.8946 -0.1595
H13 H 0.4537 0.8633 -0.0813
C10 C 0.3504(2) 0.9344(3) 0.04748(19)
H14 H 0.3760 1.0202 0.0493
H15 H 0.4000 0.8754 0.0684
H16 H 0.2960 0.9293 0.0833
C11 C 0.2363(2) 0.9881(2) -0.0743(2)
H17 H 0.2599 1.0747 -0.0764
H18 H 0.1852 0.9832 -0.0349
H19 H 0.2117 0.9622 -0.1310
C12 C -0.05443(18) 0.7112(2) 0.14887(17)
H20 H -0.0794 0.7676 0.1913
H21 H -0.0554 0.6245 0.1697
H22 H -0.0941 0.7176 0.0958
C13 C 0.0433(2) 0.8801(2) 0.10830(18)
H23 H 0.0205 0.9321 0.1541
H24 H 0.0014 0.8916 0.0570
H25 H 0.1083 0.9053 0.0968
C14 C 0.1091(2) 0.7350(2) 0.20927(16)
H26 H 0.0804 0.7760 0.2579
H27 H 0.1687 0.7805 0.1988
C15 C 0.1331(2) 0.6020(3) 0.23247(16)
H28 H 0.1765 0.6018 0.2842
H29 H 0.0740 0.5576 0.2460
C16 C 0.28028(18) 0.5606(3) 0.16659(18)
H30 H 0.3103 0.5383 0.2222
H31 H 0.2894 0.6505 0.1561
H32 H 0.3095 0.5116 0.1225
C17 C 0.1644(2) 0.3963(2) 0.17086(18)
H33 H 0.1737 0.3720 0.2313
H34 H 0.2153 0.3548 0.1404
C18 C 0.06828(18) 0.3424(2) 0.13632(14)
C19 C -0.0060(2) 0.3368(3) 0.20611(18)
H35 H -0.0662 0.3024 0.1816
H36 H -0.0168 0.4218 0.2276
H37 H 0.0185 0.2828 0.2528
C20 C 0.0849(3) 0.2082(2) 0.1096(2)
H38 H 0.1314 0.2068 0.0658
H39 H 0.0247 0.1715 0.0869
H40 H 0.1095 0.1593 0.1588
Ca1B Ca -0.10125(3) 0.40913(4) -0.02046(2)
O1B O -0.22647(10) 0.50191(14) 0.04274(10)
O2B O -0.20250(11) 0.24675(14) 0.00380(10)
O3B O -0.02993(10) 0.58685(13) -0.06847(9)
N1B N -0.04277(13) 0.25320(17) -0.13378(12)
N2B N -0.17849(13) 0.46729(17) -0.16514(12)
C1B C -0.30030(15) 0.4617(2) 0.07554(14)
C2B C -0.32803(16) 0.3348(2) 0.07712(15)
H1B H -0.3845 0.3150 0.1045
C3B C -0.27893(15) 0.2351(2) 0.04150(14)
C4B C -0.36071(17) 0.5636(2) 0.11657(17)
C5B C -0.2962(2) 0.6365(4) 0.1797(2)
H2B H -0.3333 0.7020 0.2064
H3B H -0.2692 0.5790 0.2233
H4B H -0.2445 0.6756 0.1501
C6B C -0.4465(3) 0.5140(3) 0.1597(3)
H5B H -0.4809 0.5844 0.1838
H6B H -0.4889 0.4697 0.1181
H7B H -0.4253 0.4559 0.2051
C7B C -0.3948(3) 0.6550(4) 0.0476(3)
H8B H -0.4335 0.7208 0.0720
H9B H -0.3396 0.6933 0.0226
H10B H -0.4332 0.6099 0.0036
C8B C -0.31783(17) 0.0993(2) 0.04392(16)
C9B C -0.4007(2) 0.0825(2) 0.1012(2)
H11B H -0.4215 -0.0055 0.0997
H12B H -0.3799 0.1054 0.1595
H13B H -0.4537 0.1367 0.0813
C10B C -0.3504(2) 0.0656(3) -0.04748(19)
H14B H -0.3760 -0.0202 -0.0493
H15B H -0.4000 0.1246 -0.0684
H16B H -0.2960 0.0707 -0.0833
C11B C -0.2363(2) 0.0119(2) 0.0743(2)
H17B H -0.2599 -0.0747 0.0764
H18B H -0.1852 0.0168 0.0349
H19B H -0.2117 0.0378 0.1310
C12B C 0.05443(18) 0.2888(2) -0.14887(17)
H20B H 0.0794 0.2324 -0.1913
H21B H 0.0554 0.3755 -0.1697
H22B H 0.0941 0.2824 -0.0958
C13B C -0.0433(2) 0.1199(2) -0.10830(18)
H23B H -0.0205 0.0679 -0.1541
H24B H -0.0014 0.1084 -0.0570
H25B H -0.1083 0.0947 -0.0968
C14B C -0.1091(2) 0.2650(2) -0.20927(16)
H26B H -0.0804 0.2240 -0.2579
H27B H -0.1687 0.2195 -0.1988
C15B C -0.1331(2) 0.3980(3) -0.23247(16)
H28B H -0.1765 0.3982 -0.2842
H29B H -0.0740 0.4424 -0.2460
C16B C -0.28028(18) 0.4394(3) -0.16659(18)
H30B H -0.3103 0.4617 -0.2222
H31B H -0.2894 0.3495 -0.1561
H32B H -0.3095 0.4884 -0.1225
C17B C -0.1644(2) 0.6037(2) -0.17086(18)
H33B H -0.1737 0.6280 -0.2313
H34B H -0.2153 0.6452 -0.1404
C18B C -0.06828(18) 0.6576(2) -0.13632(14)
C19B C 0.0060(2) 0.6632(3) -0.20611(18)
H35B H 0.0662 0.6976 -0.1816
H36B H 0.0168 0.5782 -0.2276
H37B H -0.0185 0.7172 -0.2528
C20B C -0.0849(3) 0.7918(2) -0.1096(2)
H38B H -0.1314 0.7932 -0.0658
H39B H -0.0247 0.8285 -0.0869
H40B H -0.1095 0.8407 -0.1588
loop_
_geom_bond_atom_site_label_1
_geom_bond_atom_site_label_2
_geom_bond_site_symmetry_1
_geom_bond_site_symmetry_2
Ca1 O1 1_555 1_555
O1 C1 1_555 1_555
O2 Ca1 1_555 1_555
O3 Ca1 1_555 1_555
N1 Ca1 1_555 1_555
N2 Ca1 1_555 1_555
C1 C2 1_555 1_555
C2 H1 1_555 1_555
C3 O2 1_555 1_555
C4 C1 1_555 1_555
C5 C4 1_555 1_555
H2 C5 1_555 1_555
H3 C5 1_555 1_555
H4 C5 1_555 1_555
C6 C4 1_555 1_555
H5 C6 1_555 1_555
H6 C6 1_555 1_555
H7 C6 1_555 1_555
C7 C4 1_555 1_555
H8 C7 1_555 1_555
H9 C7 1_555 1_555
H10 C7 1_555 1_555
C8 C3 1_555 1_555
C9 C8 1_555 1_555
H11 C9 1_555 1_555
H12 C9 1_555 1_555
H13 C9 1_555 1_555
C10 C8 1_555 1_555
H14 C10 1_555 1_555
H15 C10 1_555 1_555
H16 C10 1_555 1_555
C11 C8 1_555 1_555
H17 C11 1_555 1_555
H18 C11 1_555 1_555
H19 C11 1_555 1_555
C12 N1 1_555 1_555
H20 C12 1_555 1_555
H21 C12 1_555 1_555
H22 C12 1_555 1_555
C13 N1 1_555 1_555
H23 C13 1_555 1_555
H24 C13 1_555 1_555
H25 C13 1_555 1_555
C14 N1 1_555 1_555
H26 C14 1_555 1_555
H27 C14 1_555 1_555
C15 N2 1_555 1_555
H28 C15 1_555 1_555
H29 C15 1_555 1_555
C16 N2 1_555 1_555
H30 C16 1_555 1_555
H31 C16 1_555 1_555
H32 C16 1_555 1_555
C17 N2 1_555 1_555
H33 C17 1_555 1_555
H34 C17 1_555 1_555
C18 O3 1_555 1_555
C19 C18 1_555 1_555
H35 C19 1_555 1_555
H36 C19 1_555 1_555
H37 C19 1_555 1_555
C20 C18 1_555 1_555
H38 C20 1_555 1_555
H39 C20 1_555 1_555
H40 C20 1_555 1_555
Ca1B O3 1_555 1_555
O1B Ca1B 1_555 1_555
O2B Ca1B 1_555 1_555
O3B Ca1 1_555 1_555
N1B Ca1B 1_555 1_555
N2B Ca1B 1_555 1_555
C1B O1B 1_555 1_555
C2B C1B 1_555 1_555
H1B C2B 1_555 1_555
C3B O2B 1_555 1_555
C4B C1B 1_555 1_555
C5B C4B 1_555 1_555
H2B C5B 1_555 1_555
H3B C5B 1_555 1_555
H4B C5B 1_555 1_555
C6B C4B 1_555 1_555
H5B C6B 1_555 1_555
H6B C6B 1_555 1_555
H7B C6B 1_555 1_555
C7B C4B 1_555 1_555
H8B C7B 1_555 1_555
H9B C7B 1_555 1_555
H10B C7B 1_555 1_555
C8B C3B 1_555 1_555
C9B C8B 1_555 1_555
H11B C9B 1_555 1_555
H12B C9B 1_555 1_555
H13B C9B 1_555 1_555
C10B C8B 1_555 1_555
H14B C10B 1_555 1_555
H15B C10B 1_555 1_555
H16B C10B 1_555 1_555
C11B C8B 1_555 1_555
H17B C11B 1_555 1_555
H18B C11B 1_555 1_555
H19B C11B 1_555 1_555
C12B N1B 1_555 1_555
H20B C12B 1_555 1_555
H21B C12B 1_555 1_555
H22B C12B 1_555 1_555
C13B N1B 1_555 1_555
H23B C13B 1_555 1_555
H24B C13B 1_555 1_555
H25B C13B 1_555 1_555
C14B N1B 1_555 1_555
H26B C14B 1_555 1_555
H27B C14B 1_555 1_555
C15B N2B 1_555 1_555
H28B C15B 1_555 1_555
H29B C15B 1_555 1_555
C16B N2B 1_555 1_555
H30B C16B 1_555 1_555
H31B C16B 1_555 1_555
H32B C16B 1_555 1_555
C17B N2B 1_555 1_555
H33B C17B 1_555 1_555
H34B C17B 1_555 1_555
C18B O3B 1_555 1_555
C19B C18B 1_555 1_555
H35B C19B 1_555 1_555
H36B C19B 1_555 1_555
H37B C19B 1_555 1_555
C20B C18B 1_555 1_555
H38B C20B 1_555 1_555
H39B C20B 1_555 1_555
H40B C20B 1_555 1_555
C2 C3 1_555 1_555
C14 C15 1_555 1_555
C17 C18 1_555 1_555
Ca1B O3B 1_555 1_555
C2B C3B 1_555 1_555
C14B C15B 1_555 1_555
C17B C18B 1_555 1_555

#END
