
#######################################################################
#
#                 Cambridge Crystallographic Data Centre
#                                CCDC 
#
#######################################################################
#
# If this CIF has been generated from an entry in the Cambridge 
# Structural Database, then it will include bibliographic, chemical, 
# crystal, experimental, refinement or atomic coordinate data resulting 
# from the CCDC's data processing and validation procedures.
#
#######################################################################

data_LOBYOS
_chemical_formula_moiety         'C40 H80 N4 O6 Sr2'
_chemical_name_systematic        
bis(\m~2~-1-((2-(Dimethylamino)ethyl)(methyl)amino)-2-methylpropan-2-olato)-bis(2,2,6,6-tetramethylheptane-3,5-dionato)-di-strontium
_symmetry_cell_setting           triclinic
_symmetry_space_group_name_H-M   'P -1'
_symmetry_Int_Tables_number      2
_space_group_name_Hall           '-P 1'
loop_
_symmetry_equiv_pos_site_id
_symmetry_equiv_pos_as_xyz
1 x,y,z
2 -x,-y,-z
_cell_length_a                   8.8834(3)
_cell_length_b                   9.9678(3)
_cell_length_c                   14.7587(5)
_cell_angle_alpha                108.616(2)
_cell_angle_beta                 93.573(2)
_cell_angle_gamma                96.545(2)
_cell_volume                     1223.63
_exptl_crystal_colour            silver
_exptl_crystal_description       block
_cell_formula_units_Z            1
_chemical_properties_physical    
'Air-sensitive, Moisture-sensitive, Hygroscropic'
loop_
_atom_site_label
_atom_site_type_symbol
_atom_site_fract_x
_atom_site_fract_y
_atom_site_fract_z
Sr1 Sr 0.97954(3) 0.55579(3) 0.63069(2)
O1 O 0.8276(3) 0.3666(2) 0.67077(16)
O2 O 0.8813(3) 0.6596(2) 0.78535(16)
O3 O 1.1218(2) 0.4059(2) 0.51147(16)
N1 N 1.1994(3) 0.7950(3) 0.6908(2)
N2 N 1.2444(3) 0.5080(3) 0.7102(2)
C1 C 0.7610(3) 0.3556(4) 0.7415(2)
C2 C 0.7433(4) 0.4710(4) 0.8234(2)
H1 H 0.6850 0.4500 0.8703
C3 C 0.8045(4) 0.6143(4) 0.8416(2)
C4 C 0.7020(4) 0.2006(4) 0.7356(3)
C5 C 0.6102(4) 0.1227(4) 0.6370(3)
H2 H 0.5726 0.0242 0.6326
H3 H 0.6759 0.1216 0.5859
H4 H 0.5237 0.1726 0.6297
C6 C 0.6038(6) 0.1892(5) 0.8144(4)
H5 H 0.5713 0.0882 0.8057
H6 H 0.5139 0.2367 0.8109
H7 H 0.6628 0.2353 0.8773
C7 C 0.8430(4) 0.1268(4) 0.7419(3)
H8 H 0.8108 0.0278 0.7384
H9 H 0.9056 0.1780 0.8029
H10 H 0.9027 0.1276 0.6883
C8 C 0.7864(4) 0.7290(4) 0.9379(2)
C9 C 0.6685(6) 0.6793(5) 0.9959(3)
H11 H 0.6632 0.7571 1.0558
H12 H 0.6983 0.5965 1.0110
H13 H 0.5685 0.6524 0.9581
C10 C 0.9426(5) 0.7694(5) 0.9965(3)
H14 H 0.9362 0.8420 1.0586
H15 H 1.0168 0.8077 0.9613
H16 H 0.9751 0.6843 1.0071
C11 C 0.7398(5) 0.8600(4) 0.9175(3)
H17 H 0.7276 0.9334 0.9782
H18 H 0.6431 0.8329 0.8761
H19 H 0.8188 0.8980 0.8851
C12 C 1.2138(7) 0.8492(8) 0.6115(5)
H20 H 1.2912 0.9343 0.6309
H21 H 1.1158 0.8746 0.5932
H22 H 1.2443 0.7756 0.5567
C13 C 1.1565(6) 0.9047(5) 0.7743(5)
H23 H 1.2356 0.9884 0.7944
H24 H 1.1456 0.8662 0.8273
H25 H 1.0594 0.9329 0.7570
C14 C 1.3436(4) 0.7559(4) 0.7172(3)
H26 H 1.4059 0.8429 0.7625
H27 H 1.3970 0.7260 0.6586
C15 C 1.3408(6) 0.6441(5) 0.7605(4)
H28 H 1.3080 0.6822 0.8256
H29 H 1.4465 0.6242 0.7686
C16 C 1.2166(6) 0.4309(6) 0.7772(4)
H30 H 1.3140 0.4155 0.8044
H31 H 1.1545 0.3383 0.7434
H32 H 1.1625 0.4867 0.8290
C17 C 1.3318(5) 0.4288(5) 0.6302(3)
H33 H 1.3954 0.3695 0.6544
H34 H 1.4013 0.4994 0.6127
C18 C 1.2301(3) 0.3308(3) 0.5384(2)
C19 C 1.3455(5) 0.2985(5) 0.4641(4)
H35 H 1.3919 0.2150 0.4666
H36 H 1.4250 0.3812 0.4784
H37 H 1.2935 0.2787 0.3997
C20 C 1.1550(5) 0.1913(4) 0.5447(4)
H38 H 1.2190 0.1167 0.5193
H39 H 1.0551 0.1645 0.5068
H40 H 1.1422 0.2018 0.6119
Sr1A Sr 1.02046(3) 0.44421(3) 0.36931(2)
O1A O 1.1724(3) 0.6334(2) 0.32923(16)
O2A O 1.1187(3) 0.3404(2) 0.21465(16)
O3A O 0.8782(2) 0.5941(2) 0.48853(16)
N1A N 0.8006(3) 0.2050(3) 0.3092(2)
N2A N 0.7556(3) 0.4920(3) 0.2898(2)
C1A C 1.2390(3) 0.6444(4) 0.2585(2)
C2A C 1.2567(4) 0.5290(4) 0.1766(2)
H1A H 1.3150 0.5500 0.1297
C3A C 1.1955(4) 0.3857(4) 0.1584(2)
C4A C 1.2980(4) 0.7994(4) 0.2644(3)
C5A C 1.3898(4) 0.8773(4) 0.3630(3)
H2A H 1.4274 0.9758 0.3674
H3A H 1.3241 0.8784 0.4141
H4A H 1.4763 0.8274 0.3703
C6A C 1.3962(6) 0.8108(5) 0.1856(4)
H5A H 1.4287 0.9118 0.1943
H6A H 1.4861 0.7633 0.1891
H7A H 1.3372 0.7647 0.1227
C7A C 1.1570(4) 0.8732(4) 0.2581(3)
H8A H 1.1892 0.9722 0.2616
H9A H 1.0944 0.8220 0.1971
H10A H 1.0973 0.8724 0.3117
C8A C 1.2136(4) 0.2710(4) 0.0621(2)
C9A C 1.3315(6) 0.3207(5) 0.0041(3)
H11A H 1.3368 0.2429 -0.0558
H12A H 1.3017 0.4035 -0.0110
H13A H 1.4315 0.3476 0.0419
C10A C 1.0574(5) 0.2306(5) 0.0035(3)
H14A H 1.0638 0.1580 -0.0586
H15A H 0.9832 0.1923 0.0387
H16A H 1.0249 0.3157 -0.0071
C11A C 1.2602(5) 0.1400(4) 0.0825(3)
H17A H 1.2724 0.0666 0.0218
H18A H 1.3569 0.1671 0.1239
H19A H 1.1812 0.1020 0.1149
C12A C 0.7862(7) 0.1508(8) 0.3885(5)
H20A H 0.7088 0.0657 0.3691
H21A H 0.8842 0.1254 0.4068
H22A H 0.7557 0.2244 0.4433
C13A C 0.8435(6) 0.0953(5) 0.2257(5)
H23A H 0.7644 0.0116 0.2056
H24A H 0.8544 0.1338 0.1727
H25A H 0.9406 0.0671 0.2430
C14A C 0.6564(4) 0.2441(4) 0.2828(3)
H26A H 0.5941 0.1571 0.2375
H27A H 0.6030 0.2740 0.3414
C15A C 0.6592(6) 0.3559(5) 0.2395(4)
H28A H 0.6920 0.3178 0.1744
H29A H 0.5535 0.3758 0.2314
C16A C 0.7834(6) 0.5691(6) 0.2228(4)
H30A H 0.6860 0.5845 0.1956
H31A H 0.8455 0.6617 0.2566
H32A H 0.8375 0.5133 0.1710
C17A C 0.6682(5) 0.5712(5) 0.3698(3)
H33A H 0.6046 0.6305 0.3456
H34A H 0.5987 0.5006 0.3873
C18A C 0.7699(3) 0.6692(3) 0.4616(2)
C19A C 0.6545(5) 0.7015(5) 0.5359(4)
H35A H 0.6081 0.7850 0.5334
H36A H 0.5750 0.6188 0.5216
H37A H 0.7065 0.7213 0.6003
C20A C 0.8450(5) 0.8087(4) 0.4553(4)
H38A H 0.7810 0.8833 0.4807
H39A H 0.9449 0.8355 0.4932
H40A H 0.8578 0.7982 0.3881
loop_
_geom_bond_atom_site_label_1
_geom_bond_atom_site_label_2
_geom_bond_site_symmetry_1
_geom_bond_site_symmetry_2
Sr1 O1 1_555 1_555
O1 C1 1_555 1_555
O2 Sr1 1_555 1_555
O3 Sr1 1_555 1_555
N1 Sr1 1_555 1_555
N2 Sr1 1_555 1_555
C1 C2 1_555 1_555
C2 H1 1_555 1_555
C3 O2 1_555 1_555
C4 C1 1_555 1_555
C5 C4 1_555 1_555
H2 C5 1_555 1_555
H3 C5 1_555 1_555
H4 C5 1_555 1_555
C6 C4 1_555 1_555
H5 C6 1_555 1_555
H6 C6 1_555 1_555
H7 C6 1_555 1_555
C7 C4 1_555 1_555
H8 C7 1_555 1_555
H9 C7 1_555 1_555
H10 C7 1_555 1_555
C8 C3 1_555 1_555
C9 C8 1_555 1_555
H11 C9 1_555 1_555
H12 C9 1_555 1_555
H13 C9 1_555 1_555
C10 C8 1_555 1_555
H14 C10 1_555 1_555
H15 C10 1_555 1_555
H16 C10 1_555 1_555
C11 C8 1_555 1_555
H17 C11 1_555 1_555
H18 C11 1_555 1_555
H19 C11 1_555 1_555
C12 N1 1_555 1_555
H20 C12 1_555 1_555
H21 C12 1_555 1_555
H22 C12 1_555 1_555
C13 N1 1_555 1_555
H23 C13 1_555 1_555
H24 C13 1_555 1_555
H25 C13 1_555 1_555
C14 N1 1_555 1_555
H26 C14 1_555 1_555
H27 C14 1_555 1_555
C15 N2 1_555 1_555
H28 C15 1_555 1_555
H29 C15 1_555 1_555
C16 N2 1_555 1_555
H30 C16 1_555 1_555
H31 C16 1_555 1_555
H32 C16 1_555 1_555
C17 N2 1_555 1_555
H33 C17 1_555 1_555
H34 C17 1_555 1_555
C18 O3 1_555 1_555
C19 C18 1_555 1_555
H35 C19 1_555 1_555
H36 C19 1_555 1_555
H37 C19 1_555 1_555
C20 C18 1_555 1_555
H38 C20 1_555 1_555
H39 C20 1_555 1_555
H40 C20 1_555 1_555
Sr1A O3 1_555 1_555
O1A Sr1A 1_555 1_555
O2A Sr1A 1_555 1_555
O3A Sr1 1_555 1_555
N1A Sr1A 1_555 1_555
N2A Sr1A 1_555 1_555
C1A O1A 1_555 1_555
C2A C1A 1_555 1_555
H1A C2A 1_555 1_555
C3A O2A 1_555 1_555
C4A C1A 1_555 1_555
C5A C4A 1_555 1_555
H2A C5A 1_555 1_555
H3A C5A 1_555 1_555
H4A C5A 1_555 1_555
C6A C4A 1_555 1_555
H5A C6A 1_555 1_555
H6A C6A 1_555 1_555
H7A C6A 1_555 1_555
C7A C4A 1_555 1_555
H8A C7A 1_555 1_555
H9A C7A 1_555 1_555
H10A C7A 1_555 1_555
C8A C3A 1_555 1_555
C9A C8A 1_555 1_555
H11A C9A 1_555 1_555
H12A C9A 1_555 1_555
H13A C9A 1_555 1_555
C10A C8A 1_555 1_555
H14A C10A 1_555 1_555
H15A C10A 1_555 1_555
H16A C10A 1_555 1_555
C11A C8A 1_555 1_555
H17A C11A 1_555 1_555
H18A C11A 1_555 1_555
H19A C11A 1_555 1_555
C12A N1A 1_555 1_555
H20A C12A 1_555 1_555
H21A C12A 1_555 1_555
H22A C12A 1_555 1_555
C13A N1A 1_555 1_555
H23A C13A 1_555 1_555
H24A C13A 1_555 1_555
H25A C13A 1_555 1_555
C14A N1A 1_555 1_555
H26A C14A 1_555 1_555
H27A C14A 1_555 1_555
C15A N2A 1_555 1_555
H28A C15A 1_555 1_555
H29A C15A 1_555 1_555
C16A N2A 1_555 1_555
H30A C16A 1_555 1_555
H31A C16A 1_555 1_555
H32A C16A 1_555 1_555
C17A N2A 1_555 1_555
H33A C17A 1_555 1_555
H34A C17A 1_555 1_555
C18A O3A 1_555 1_555
C19A C18A 1_555 1_555
H35A C19A 1_555 1_555
H36A C19A 1_555 1_555
H37A C19A 1_555 1_555
C20A C18A 1_555 1_555
H38A C20A 1_555 1_555
H39A C20A 1_555 1_555
H40A C20A 1_555 1_555
C2 C3 1_555 1_555
C14 C15 1_555 1_555
C17 C18 1_555 1_555
Sr1A O3A 1_555 1_555
C2A C3A 1_555 1_555
C14A C15A 1_555 1_555
C17A C18A 1_555 1_555

#END
