
#######################################################################
#
#                 Cambridge Crystallographic Data Centre
#                                CCDC 
#
#######################################################################
#
# If this CIF has been generated from an entry in the Cambridge 
# Structural Database, then it will include bibliographic, chemical, 
# crystal, experimental, refinement or atomic coordinate data resulting 
# from the CCDC's data processing and validation procedures.
#
#######################################################################

data_LOCBUB
_chemical_formula_moiety         'C17 H18 N4'
_chemical_name_systematic        
1-Phenyl-6,7,8,9-hexahydro-1H,5H-cyclohepta[1',2':2,3]pyrido[6,5-c]pyrazol-4-amine
_symmetry_cell_setting           monoclinic
_symmetry_space_group_name_H-M   'P 21/a'
_symmetry_Int_Tables_number      14
_space_group_name_Hall           '-P 2yab'
loop_
_symmetry_equiv_pos_site_id
_symmetry_equiv_pos_as_xyz
1 x,y,z
2 1/2-x,1/2+y,-z
3 -x,-y,-z
4 1/2+x,1/2-y,z
_cell_length_a                   13.694(13)
_cell_length_b                   6.888(6)
_cell_length_c                   16.929(16)
_cell_angle_alpha                90
_cell_angle_beta                 112.417(12)
_cell_angle_gamma                90
_cell_volume                     1476.15
_exptl_crystal_colour            colorless
_exptl_crystal_description       platelet
_chemical_melting_point          '194-195 deg.C'
_cell_formula_units_Z            4
_exptl_crystal_recrystallization_method ethanol
loop_
_atom_site_label
_atom_site_type_symbol
_atom_site_fract_x
_atom_site_fract_y
_atom_site_fract_z
N1 N 0.22730(19) -0.0378(3) 0.14018(14)
H1 H 0.200(2) -0.132(5) 0.1659(18)
H2 H 0.193(2) -0.014(4) 0.079(2)
N2 N 0.43580(13) 0.4015(3) 0.28441(11)
N3 N 0.41678(14) 0.5193(3) 0.14394(11)
N4 N 0.36440(15) 0.4614(3) 0.06031(11)
C1 C 0.29560(16) 0.0997(3) 0.18867(13)
C2 C 0.32938(16) 0.2499(3) 0.14844(13)
C3 C 0.39665(16) 0.3917(3) 0.19856(13)
C4 C 0.40417(17) 0.2540(3) 0.32129(13)
C5 C 0.33620(16) 0.1021(3) 0.27800(13)
C6 C 0.31266(19) 0.3022(4) 0.06372(14)
H3 H 0.2702 0.2325 0.0159
C7 C 0.47909(17) 0.6920(3) 0.16103(15)
C8 C 0.5063(2) 0.7724(4) 0.09700(17)
H4 H 0.4837 0.7154 0.0432
C9 C 0.5679(2) 0.9391(4) 0.1146(2)
H5 H 0.5862 0.9939 0.0719
C10 C 0.6019(2) 1.0243(4) 0.1934(2)
H6 H 0.6433 1.1358 0.2044
C11 C 0.5746(2) 0.9435(4) 0.25588(19)
H7 H 0.5973 1.0014 0.3095
C12 C 0.51354(18) 0.7772(4) 0.24042(16)
H8 H 0.4959 0.7231 0.2836
C13 C 0.4445(2) 0.2643(4) 0.41740(14)
H9 H 0.4969 0.3667 0.4370
H10 H 0.4792 0.1428 0.4409
C14 C 0.3584(2) 0.3028(4) 0.45164(17)
H11 H 0.3907 0.3594 0.5082
H12 H 0.3099 0.3981 0.4151
C15 C 0.2955(2) 0.1267(4) 0.45737(17)
H13 H 0.2447 0.1670 0.4813
H14 H 0.3434 0.0354 0.4971
C16 C 0.2365(2) 0.0212(4) 0.37395(15)
H15 H 0.1837 0.1082 0.3360
H16 H 0.1997 -0.0886 0.3855
C17 C 0.3059(2) -0.0517(4) 0.32817(15)
H17 H 0.3698 -0.1066 0.3702
H18 H 0.2688 -0.1552 0.2894
loop_
_geom_bond_atom_site_label_1
_geom_bond_atom_site_label_2
_geom_bond_site_symmetry_1
_geom_bond_site_symmetry_2
N1 H1 1_555 1_555
H2 N1 1_555 1_555
N2 C3 1_555 1_555
N3 N4 1_555 1_555
N4 C6 1_555 1_555
C1 N1 1_555 1_555
C2 C1 1_555 1_555
C3 N3 1_555 1_555
C4 N2 1_555 1_555
C5 C1 1_555 1_555
C6 C2 1_555 1_555
H3 C6 1_555 1_555
C7 N3 1_555 1_555
C8 C7 1_555 1_555
H4 C8 1_555 1_555
C9 C8 1_555 1_555
H5 C9 1_555 1_555
C10 C9 1_555 1_555
H6 C10 1_555 1_555
C11 C10 1_555 1_555
H7 C11 1_555 1_555
C12 C7 1_555 1_555
H8 C12 1_555 1_555
C13 C4 1_555 1_555
H9 C13 1_555 1_555
H10 C13 1_555 1_555
C14 C13 1_555 1_555
H11 C14 1_555 1_555
H12 C14 1_555 1_555
C15 C14 1_555 1_555
H13 C15 1_555 1_555
H14 C15 1_555 1_555
C16 C15 1_555 1_555
H15 C16 1_555 1_555
H16 C16 1_555 1_555
C17 C5 1_555 1_555
H17 C17 1_555 1_555
H18 C17 1_555 1_555
C2 C3 1_555 1_555
C4 C5 1_555 1_555
C11 C12 1_555 1_555
C16 C17 1_555 1_555

#END
