
#######################################################################
#
#                 Cambridge Crystallographic Data Centre
#                                CCDC 
#
#######################################################################
#
# If this CIF has been generated from an entry in the Cambridge 
# Structural Database, then it will include bibliographic, chemical, 
# crystal, experimental, refinement or atomic coordinate data resulting 
# from the CCDC's data processing and validation procedures.
#
#######################################################################

data_LOCQOL
_chemical_formula_moiety         'C31 H30 N2'
_chemical_name_systematic        
N,N'-dibenzyltetracyclo[7.7.1.0^2,7^.0^10,15^]heptadeca-2,4,6,10,12,14-hexaene-8,16-diamine
_symmetry_cell_setting           monoclinic
_symmetry_space_group_name_H-M   'P 21/n'
_symmetry_Int_Tables_number      14
_space_group_name_Hall           '-P 2yn'
loop_
_symmetry_equiv_pos_site_id
_symmetry_equiv_pos_as_xyz
1 x,y,z
2 1/2-x,1/2+y,1/2-z
3 -x,-y,-z
4 1/2+x,1/2-y,1/2+z
_cell_length_a                   14.4556(17)
_cell_length_b                   10.0330(7)
_cell_length_c                   17.453(3)
_cell_angle_alpha                90
_cell_angle_beta                 111.716(17)
_cell_angle_gamma                90
_cell_volume                     2351.62
_cell_formula_units_Z            4
loop_
_atom_site_label
_atom_site_type_symbol
_atom_site_fract_x
_atom_site_fract_y
_atom_site_fract_z
N1 N 0.7663(3) 0.3691(4) -0.0254(3)
H1 H 0.7540 0.2861 -0.0212
C1 C 0.7947(7) 0.4016(7) 0.5675(4)
H2 H 0.8486 0.3827 0.6156
N2 N 0.7815(4) 0.4704(4) 0.3178(3)
H3 H 0.7820 0.3860 0.3267
C2 C 0.8910(3) 0.4368(4) 0.1542(3)
C3 C 0.6633(3) 0.4309(4) 0.0586(3)
C4 C 0.8322(3) 0.3128(5) -0.1333(3)
C5 C 0.6590(3) 0.4774(4) 0.1314(3)
C6 C 0.7399(4) 0.4768(5) 0.0234(3)
H4 H 0.7083 0.5483 -0.0158
C7 C 0.7274(4) 0.5007(4) 0.4324(3)
C8 C 0.8848(3) 0.4379(5) 0.2318(3)
C9 C 0.8277(4) 0.5361(5) 0.0871(3)
H5 H 0.8700 0.5758 0.0604
C10 C 0.8128(4) 0.4162(5) -0.0787(3)
H6 H 0.8758 0.4568 -0.0454
H7 H 0.7713 0.4855 -0.1135
C11 C 0.7451(4) 0.5665(4) 0.3621(3)
H8 H 0.6835 0.6055 0.3248
H9 H 0.7935 0.6375 0.3829
C12 C 0.7847(4) 0.6502(4) 0.1253(3)
H10 H 0.8374 0.7106 0.1569
H11 H 0.7349 0.7004 0.0821
C13 C 0.9018(4) 0.3392(6) -0.1682(3)
H12 H 0.9359 0.4198 -0.1568
C14 C 0.8179(4) 0.5284(5) 0.2560(3)
H13 H 0.8593 0.6046 0.2834
C15 C 0.7378(4) 0.5843(4) 0.1817(3)
H14 H 0.7028 0.6534 0.2001
C16 C 0.5915(3) 0.3407(5) 0.0122(3)
H15 H 0.5933 0.3091 -0.0373
C17 C 0.7826(4) 0.1933(5) -0.1525(3)
H16 H 0.7346 0.1729 -0.1306
C18 C 0.8723(4) 0.1307(6) -0.2371(3)
H17 H 0.8858 0.0696 -0.2717
C19 C 0.5171(3) 0.2970(5) 0.0385(4)
H18 H 0.4698 0.2357 0.0075
C20 C 0.5838(4) 0.4363(6) 0.1554(3)
H19 H 0.5799 0.4713 0.2035
C21 C 0.6348(5) 0.4632(5) 0.4276(4)
H20 H 0.5798 0.4854 0.3810
C22 C 0.9479(4) 0.3454(5) 0.2915(3)
H21 H 0.9464 0.3427 0.3444
C23 C 0.8081(5) 0.4703(5) 0.5038(3)
H22 H 0.8718 0.4965 0.5088
C24 C 1.0149(4) 0.2651(5) 0.1972(4)
H23 H 1.0585 0.2090 0.1846
C25 C 0.9217(4) 0.2500(6) -0.2189(3)
H24 H 0.9692 0.2703 -0.2414
C26 C 0.5149(4) 0.3464(6) 0.1115(4)
H25 H 0.4660 0.3180 0.1305
C27 C 0.9565(3) 0.3501(5) 0.1399(3)
H26 H 0.9607 0.3501 0.0880
C28 C 1.0102(4) 0.2612(6) 0.2711(4)
H27 H 1.0496 0.2008 0.3099
C29 C 0.8031(5) 0.1035(6) -0.2036(3)
H28 H 0.7690 0.0229 -0.2154
C30 C 0.6987(10) 0.3609(7) 0.5583(6)
H29 H 0.6888 0.3111 0.5996
C31 C 0.6210(7) 0.3933(7) 0.4904(6)
H30 H 0.5571 0.3683 0.4855
loop_
_geom_bond_atom_site_label_1
_geom_bond_atom_site_label_2
_geom_bond_site_symmetry_1
_geom_bond_site_symmetry_2
N1 H1 1_555 1_555
C1 H2 1_555 1_555
N2 H3 1_555 1_555
C2 C8 1_555 1_555
C3 C5 1_555 1_555
C4 C10 1_555 1_555
C5 C15 1_555 1_555
C6 N1 1_555 1_555
H4 C6 1_555 1_555
C7 C11 1_555 1_555
C8 C14 1_555 1_555
C9 C2 1_555 1_555
H5 C9 1_555 1_555
C10 N1 1_555 1_555
H6 C10 1_555 1_555
H7 C10 1_555 1_555
C11 N2 1_555 1_555
H8 C11 1_555 1_555
H9 C11 1_555 1_555
C12 C9 1_555 1_555
H10 C12 1_555 1_555
H11 C12 1_555 1_555
C13 C4 1_555 1_555
H12 C13 1_555 1_555
C14 N2 1_555 1_555
H13 C14 1_555 1_555
C15 C12 1_555 1_555
H14 C15 1_555 1_555
C16 C3 1_555 1_555
H15 C16 1_555 1_555
C17 C4 1_555 1_555
H16 C17 1_555 1_555
C18 H17 1_555 1_555
C19 C16 1_555 1_555
H18 C19 1_555 1_555
C20 C5 1_555 1_555
H19 C20 1_555 1_555
C21 C7 1_555 1_555
H20 C21 1_555 1_555
C22 C8 1_555 1_555
H21 C22 1_555 1_555
C23 C1 1_555 1_555
H22 C23 1_555 1_555
C24 H23 1_555 1_555
C25 C13 1_555 1_555
H24 C25 1_555 1_555
C26 C19 1_555 1_555
H25 C26 1_555 1_555
C27 C2 1_555 1_555
H26 C27 1_555 1_555
C28 C22 1_555 1_555
H27 C28 1_555 1_555
C29 C17 1_555 1_555
H28 C29 1_555 1_555
C30 C1 1_555 1_555
H29 C30 1_555 1_555
C31 C21 1_555 1_555
H30 C31 1_555 1_555
C3 C6 1_555 1_555
C6 C9 1_555 1_555
C7 C23 1_555 1_555
C14 C15 1_555 1_555
C18 C25 1_555 1_555
C18 C29 1_555 1_555
C20 C26 1_555 1_555
C24 C27 1_555 1_555
C24 C28 1_555 1_555
C30 C31 1_555 1_555

#END
