
#######################################################################
#
#                 Cambridge Crystallographic Data Centre
#                                CCDC 
#
#######################################################################
#
# If this CIF has been generated from an entry in the Cambridge 
# Structural Database, then it will include bibliographic, chemical, 
# crystal, experimental, refinement or atomic coordinate data resulting 
# from the CCDC's data processing and validation procedures.
#
#######################################################################

data_LODHOC
_chemical_formula_moiety         'C26 H42 N10 O4 4+,2(C5 H6 O4 2-),9(H2 O1)'
_chemical_name_systematic        
'3,12,16,25-Tetraaza-6,9,19,22-tetraazonia-1,14(2,6)-dipyridinacyclohexacosaphane-2,13,15,26-tetrone bis(glutarate) nonahydrate'
_symmetry_cell_setting           triclinic
_symmetry_space_group_name_H-M   'P -1'
_symmetry_Int_Tables_number      2
_space_group_name_Hall           '-P 1'
loop_
_symmetry_equiv_pos_site_id
_symmetry_equiv_pos_as_xyz
1 x,y,z
2 -x,-y,-z
_cell_length_a                   10.2480(11)
_cell_length_b                   12.6169(15)
_cell_length_c                   19.111(2)
_cell_angle_alpha                81.575(3)
_cell_angle_beta                 84.536(3)
_cell_angle_gamma                77.962(2)
_cell_volume                     2385.25
_exptl_crystal_colour            colorless
_exptl_crystal_description       needle
_cell_formula_units_Z            2
loop_
_atom_site_label
_atom_site_type_symbol
_atom_site_fract_x
_atom_site_fract_y
_atom_site_fract_z
H1 H 0.472(4) 0.118(3) 0.8200(18)
O15 O 0.5375(3) 0.1085(3) 0.78818(15)
H63 H 0.605(6) 0.159(5) 0.793(3)
O1 O 0.7944(3) 0.8093(3) 0.44224(15)
H54 H 0.883(2) 0.799(3) 0.4245(15)
H56 H 0.800(3) 0.806(3) 0.4913(10)
O2 O 0.1248(2) 0.14288(19) 0.94074(11)
O7 O 0.3051(2) 0.1167(2) 0.86641(12)
O10 O 0.7395(2) 0.1850(2) 1.07897(13)
O12 O 0.7336(2) 0.2050(2) 0.96176(13)
C5 C 0.6811(4) 0.1866(3) 1.0237(2)
C26 C 0.2512(4) 0.1308(3) 0.92646(19)
C31 C 0.4728(3) 0.1589(3) 0.96803(17)
H42 H 0.5275 0.1005 0.9424
H43 H 0.4663 0.2289 0.9363
C33 C 0.3322(3) 0.1344(3) 0.98755(17)
H46 H 0.3411 0.0631 1.0180
H47 H 0.2813 0.1907 1.0162
C36 C 0.5399(3) 0.1658(3) 1.03447(18)
H50 H 0.4838 0.2249 1.0591
H51 H 0.5411 0.0964 1.0664
O3 O 0.2213(2) 0.4287(2) 0.08269(12)
O6 O 0.2955(2) 0.3556(2) -0.27689(12)
N3 N 0.2108(3) 0.3940(2) -0.09764(15)
N6 N 0.1070(4) 0.3396(3) -0.20731(18)
N7 N -0.0098(3) -0.1269(2) 0.17747(13)
H6 H -0.0422 -0.1506 0.1405
H7 H 0.0805 -0.1550 0.1775
N8 N 0.0038(3) 0.1483(2) 0.07442(14)
H8 H -0.0867 0.1610 0.0693
H9 H 0.0452 0.1642 0.0304
N9 N 0.0693(3) 0.3691(2) 0.02660(16)
C3 C 0.2568(4) 0.4247(3) -0.04232(18)
C6 C 0.2837(4) 0.4003(3) -0.15981(18)
C9 C 0.0300(4) 0.2243(3) 0.12184(17)
H12 H 0.1267 0.2096 0.1294
H13 H -0.0190 0.2116 0.1685
C10 C 0.2298(4) 0.3624(3) -0.22022(19)
C13 C 0.1795(4) 0.4087(3) 0.02796(19)
C14 C 0.4037(4) 0.4358(3) -0.16844(19)
H16 H 0.4550 0.4354 -0.2125
C15 C 0.3732(4) 0.4644(3) -0.04722(19)
H17 H 0.4026 0.4866 -0.0070
C16 C -0.0320(3) -0.0053(3) 0.16617(17)
H18 H -0.0044 0.0215 0.2076
H19 H -0.1281 0.0259 0.1609
C17 C -0.0133(3) 0.3412(3) 0.09018(17)
H20 H -0.1077 0.3537 0.0782
H21 H -0.0080 0.3898 0.1256
C25 C 0.0498(3) 0.0306(3) 0.09957(17)
H32 H 0.1453 0.0171 0.1097
H33 H 0.0416 -0.0132 0.0618
C27 C 0.0482(4) 0.2926(3) -0.25823(18)
H34 H 0.0838 0.3168 -0.3066
H35 H -0.0498 0.3199 -0.2556
C29 C -0.0766(4) -0.1689(3) 0.24547(16)
H38 H -0.1744 -0.1417 0.2445
H39 H -0.0450 -0.1406 0.2851
C34 C 0.4471(4) 0.4714(3) -0.1123(2)
H48 H 0.5263 0.5005 -0.1176
H52 H 0.046(3) 0.360(2) -0.0148(15)
H53 H 0.069(4) 0.342(3) -0.1705(18)
O3A O -0.2213(2) -0.4287(2) -0.08269(12)
O6A O -0.2955(2) -0.3556(2) 0.27689(12)
N3A N -0.2108(3) -0.3940(2) 0.09764(15)
N6A N -0.1070(4) -0.3396(3) 0.20731(18)
N7A N 0.0098(3) 0.1269(2) -0.17747(13)
H6A H 0.0422 0.1506 -0.1405
H7A H -0.0805 0.1550 -0.1775
N8A N -0.0038(3) -0.1483(2) -0.07442(14)
H8A H 0.0867 -0.1610 -0.0693
H9A H -0.0452 -0.1642 -0.0304
N9A N -0.0693(3) -0.3691(2) -0.02660(16)
C3A C -0.2568(4) -0.4247(3) 0.04232(18)
C6A C -0.2837(4) -0.4003(3) 0.15981(18)
C9A C -0.0300(4) -0.2243(3) -0.12184(17)
H12A H -0.1267 -0.2096 -0.1294
H13A H 0.0190 -0.2116 -0.1685
C10A C -0.2298(4) -0.3624(3) 0.22022(19)
C13A C -0.1795(4) -0.4087(3) -0.02796(19)
C14A C -0.4037(4) -0.4358(3) 0.16844(19)
H16A H -0.4550 -0.4354 0.2125
C15A C -0.3732(4) -0.4644(3) 0.04722(19)
H17A H -0.4026 -0.4866 0.0070
C16A C 0.0320(3) 0.0053(3) -0.16617(17)
H18A H 0.0044 -0.0215 -0.2076
H19A H 0.1281 -0.0259 -0.1609
C17A C 0.0133(3) -0.3412(3) -0.09018(17)
H20A H 0.1077 -0.3537 -0.0782
H21A H 0.0080 -0.3898 -0.1256
C25A C -0.0498(3) -0.0306(3) -0.09957(17)
H32A H -0.1453 -0.0171 -0.1097
H33A H -0.0416 0.0132 -0.0618
C27A C -0.0482(4) -0.2926(3) 0.25823(18)
H34A H -0.0838 -0.3168 0.3066
H35A H 0.0498 -0.3199 0.2556
C29A C 0.0766(4) 0.1689(3) -0.24547(16)
H38A H 0.1744 0.1417 -0.2445
H39A H 0.0450 0.1406 -0.2851
C34A C -0.4471(4) -0.4714(3) 0.1123(2)
H48A H -0.5263 -0.5005 0.1176
H52A H -0.046(3) -0.360(2) 0.0148(15)
H53A H -0.069(4) -0.342(3) 0.1705(18)
O4 O 0.3692(2) 0.86271(19) 0.55081(11)
O5 O -0.2410(2) 0.7965(2) 0.58297(13)
O13 O -0.2837(2) 0.8108(2) 0.69738(12)
O14 O 0.2213(2) 0.8737(2) 0.47055(13)
C7 C -0.2116(4) 0.8213(3) 0.6389(2)
C12 C 0.2496(4) 0.8771(3) 0.5325(2)
C28 C 0.1382(3) 0.8972(3) 0.58963(18)
H36 H 0.1185 0.9760 0.5948
H37 H 0.1702 0.8566 0.6351
C30 C -0.0873(3) 0.8664(3) 0.64239(17)
H40 H -0.0380 0.8244 0.6830
H41 H -0.1151 0.9430 0.6523
C32 C 0.0080(3) 0.8642(3) 0.57663(18)
H44 H -0.0353 0.9150 0.5372
H45 H 0.0284 0.7897 0.5626
N1 N 0.5485(3) 0.1157(2) 0.31950(13)
H2 H 0.4577 0.1420 0.3191
H3 H 0.5794 0.1428 0.3555
O9 O 0.7193(2) 0.4179(2) 0.58555(12)
O11 O 0.8291(2) 0.3355(2) 0.23009(12)
N2 N 0.7213(3) 0.3847(2) 0.40477(14)
N4 N 0.5206(3) -0.1551(2) 0.42544(14)
H4 H 0.4759 -0.1675 0.4690
H5 H 0.6107 -0.1712 0.4321
N5 N 0.5653(3) 0.3692(2) 0.52491(16)
C1 C 0.7533(4) 0.3500(3) 0.28367(18)
N10 N 0.6288(3) 0.3297(2) 0.29060(15)
C2 C 0.7660(4) 0.4115(3) 0.46199(18)
C4 C 0.5809(4) 0.2806(3) 0.23691(17)
H10 H 0.6218 0.3054 0.1899
H11 H 0.4828 0.3054 0.2359
C8 C 0.7993(4) 0.3895(3) 0.34490(18)
C11 C 0.5737(4) -0.0062(3) 0.33437(17)
H14 H 0.6683 -0.0350 0.3448
H15 H 0.5555 -0.0373 0.2925
C18 C 0.6790(4) 0.4001(3) 0.52891(19)
C19 C 0.4913(3) -0.2305(3) 0.37821(17)
H22 H 0.5447 -0.2224 0.3325
H23 H 0.3955 -0.2113 0.3684
C20 C 0.6140(4) 0.1566(3) 0.25047(17)
H24 H 0.5832 0.1261 0.2115
H25 H 0.7121 0.1314 0.2512
C21 C 0.4822(4) -0.0379(3) 0.39761(17)
H26 H 0.4860 0.0069 0.4355
H27 H 0.3890 -0.0223 0.3834
C22 C 0.9206(4) 0.4241(3) 0.33907(19)
H28 H 0.9729 0.4270 0.2953
C23 C 0.9630(4) 0.4538(3) 0.39770(19)
H29 H 1.0443 0.4795 0.3951
C24 C 0.4753(3) 0.3479(3) 0.58684(17)
H30 H 0.3822 0.3640 0.5723
H31 H 0.4808 0.3975 0.6216
C35 C 0.8853(4) 0.4456(3) 0.46107(19)
H49 H 0.9140 0.4632 0.5030
H55 H 0.578(3) 0.337(3) 0.3392(18)
H57 H 0.545(3) 0.355(2) 0.4802(15)
N1A N 0.4515(3) -0.1157(2) 0.68050(13)
H2A H 0.5423 -0.1420 0.6809
H3A H 0.4206 -0.1428 0.6445
O9A O 0.2807(2) -0.4179(2) 0.41445(12)
O11A O 0.1709(2) -0.3355(2) 0.76991(12)
N2A N 0.2787(3) -0.3847(2) 0.59523(14)
N4A N 0.4794(3) 0.1551(2) 0.57456(14)
H4A H 0.5241 0.1675 0.5310
H5A H 0.3893 0.1712 0.5679
N5A N 0.4347(3) -0.3692(2) 0.47509(16)
C1A C 0.2467(4) -0.3500(3) 0.71633(18)
N10A N 0.3712(3) -0.3297(2) 0.70940(15)
C2A C 0.2340(4) -0.4115(3) 0.53801(18)
C4A C 0.4191(4) -0.2806(3) 0.76309(17)
H10A H 0.3782 -0.3054 0.8101
H11A H 0.5172 -0.3054 0.7641
C8A C 0.2007(4) -0.3895(3) 0.65510(18)
C11A C 0.4263(4) 0.0062(3) 0.66563(17)
H14A H 0.3317 0.0350 0.6552
H15A H 0.4445 0.0373 0.7075
C18A C 0.3210(4) -0.4001(3) 0.47109(19)
C19A C 0.5087(3) 0.2305(3) 0.62179(17)
H22A H 0.4553 0.2224 0.6675
H23A H 0.6045 0.2113 0.6316
C20A C 0.3860(4) -0.1566(3) 0.74953(17)
H24A H 0.4168 -0.1261 0.7885
H25A H 0.2879 -0.1314 0.7488
C21A C 0.5178(4) 0.0379(3) 0.60239(17)
H26A H 0.5140 -0.0069 0.5645
H27A H 0.6110 0.0223 0.6166
C22A C 0.0794(4) -0.4241(3) 0.66093(19)
H28A H 0.0271 -0.4270 0.7047
C23A C 0.0370(4) -0.4538(3) 0.60230(19)
H29A H -0.0443 -0.4795 0.6049
C24A C 0.5247(3) -0.3479(3) 0.41316(17)
H30A H 0.6178 -0.3640 0.4277
H31A H 0.5192 -0.3975 0.3784
C35A C 0.1147(4) -0.4456(3) 0.53893(19)
H49A H 0.0860 -0.4632 0.4970
H55A H 0.422(3) -0.337(3) 0.6608(18)
H57A H 0.455(3) -0.355(2) 0.5198(15)
O8 O 0.7307(3) 0.2173(2) 0.82102(15)
H60 H 0.714(3) 0.2896(19) 0.7926(16)
H70 H 0.708(4) 0.226(4) 0.8672(12)
O16 O 0.9016(3) 0.3455(3) 0.91630(14)
H64 H 0.846(4) 0.415(2) 0.908(2)
H68 H 0.846(4) 0.293(3) 0.931(2)
O17 O 0.5925(3) 0.6478(2) 0.59369(14)
H58 H 0.655(4) 0.694(4) 0.585(3)
H69 H 0.660(9) 0.619(9) 0.560(5)
O18 O 0.2124(3) 0.4041(3) 0.23061(16)
H59 H 0.248(5) 0.333(2) 0.255(2)
H67 H 0.222(4) 0.413(3) 0.1837(10)
O19 O 0.6944(3) 0.4183(3) 0.73669(16)
H62 H 0.720(4) 0.481(2) 0.743(2)
H66 H 0.693(5) 0.424(4) 0.6853(11)
O20 O 0.9344(3) 0.2106(3) 0.60430(15)
H61 H 0.872(5) 0.277(3) 0.600(3)
H65 H 0.913(6) 0.162(4) 0.575(3)
O21 O 0.6989(5) 0.9099(4) 0.8183(2)
H71 H 0.729(12) 0.905(11) 0.768(2)
H72 H 0.622(4) 0.966(4) 0.805(3)
loop_
_geom_bond_atom_site_label_1
_geom_bond_atom_site_label_2
_geom_bond_site_symmetry_1
_geom_bond_site_symmetry_2
H1 O15 1_555 1_555
O1 H54 1_555 1_555
O2 C26 1_555 1_555
O3 C13 1_555 1_555
O4 C12 1_555 1_555
O5 C7 1_555 1_555
O6 C10 1_555 1_555
O7 C26 1_555 1_555
N1 H2 1_555 1_555
H3 N1 1_555 1_555
O8 H60 1_555 1_555
O9 C18 1_555 1_555
O10 C5 1_555 1_555
O11 C1 1_555 1_555
O12 C5 1_555 1_555
N2 C2 1_555 1_555
N3 C3 1_555 1_555
N4 H4 1_555 1_555
H5 N4 1_555 1_555
O13 C7 1_555 1_555
N5 C18 1_555 1_555
N6 C10 1_555 1_555
O14 C12 1_555 1_555
N7 H6 1_555 1_555
H7 N7 1_555 1_555
N8 H8 1_555 1_555
H9 N8 1_555 1_555
N9 C13 1_555 1_555
C1 N10 1_555 1_555
N10 C4 1_555 1_555
C2 C18 1_555 1_555
C3 C13 1_555 1_555
C4 H10 1_555 1_555
H11 C4 1_555 1_555
C5 C36 1_555 1_555
C6 N3 1_555 1_555
C7 C30 1_555 1_555
C8 N2 1_555 1_555
C9 N8 1_555 1_555
H12 C9 1_555 1_555
H13 C9 1_555 1_555
C10 C6 1_555 1_555
C11 N1 1_555 1_555
H14 C11 1_555 1_555
H15 C11 1_555 1_555
C12 C28 1_555 1_555
C14 C6 1_555 1_555
H16 C14 1_555 1_555
O15 H63 1_555 1_555
C15 C3 1_555 1_555
H17 C15 1_555 1_555
C16 N7 1_555 1_555
H18 C16 1_555 1_555
H19 C16 1_555 1_555
C17 N9 1_555 1_555
H20 C17 1_555 1_555
H21 C17 1_555 1_555
C19 N4 1_555 1_555
H22 C19 1_555 1_555
H23 C19 1_555 1_555
C20 N1 1_555 1_555
H24 C20 1_555 1_555
H25 C20 1_555 1_555
C21 N4 1_555 1_555
H26 C21 1_555 1_555
H27 C21 1_555 1_555
C22 C8 1_555 1_555
H28 C22 1_555 1_555
C23 C22 1_555 1_555
H29 C23 1_555 1_555
C24 N5 1_555 1_555
H30 C24 1_555 1_555
H31 C24 1_555 1_555
C25 N8 1_555 1_555
H32 C25 1_555 1_555
H33 C25 1_555 1_555
C26 C33 1_555 1_555
C27 N6 1_555 1_555
H34 C27 1_555 1_555
H35 C27 1_555 1_555
C28 H36 1_555 1_555
H37 C28 1_555 1_555
C29 N7 1_555 1_555
H38 C29 1_555 1_555
H39 C29 1_555 1_555
C30 H40 1_555 1_555
H41 C30 1_555 1_555
C31 H42 1_555 1_555
H43 C31 1_555 1_555
C32 C28 1_555 1_555
H44 C32 1_555 1_555
H45 C32 1_555 1_555
C33 C31 1_555 1_555
H46 C33 1_555 1_555
H47 C33 1_555 1_555
C34 C14 1_555 1_555
H48 C34 1_555 1_555
C35 C2 1_555 1_555
H49 C35 1_555 1_555
C36 C31 1_555 1_555
H50 C36 1_555 1_555
H51 C36 1_555 1_555
H52 N9 1_555 1_555
H53 N6 1_555 1_555
O16 H64 1_555 1_555
O17 H58 1_555 1_555
O18 H59 1_555 1_555
O19 H62 1_555 1_555
O20 H61 1_555 1_555
O21 H71 1_555 1_555
H55 N10 1_555 1_555
H56 O1 1_555 1_555
H57 N5 1_555 1_555
H65 O20 1_555 1_555
H66 O19 1_555 1_555
H67 O18 1_555 1_555
H68 O16 1_555 1_555
H69 O17 1_555 1_555
H70 O8 1_555 1_555
H72 O21 1_555 1_555
O3A C13A 1_555 1_555
O6A C10A 1_555 1_555
N1A H2A 1_555 1_555
H3A N1A 1_555 1_555
O9A C18A 1_555 1_555
O11A C1A 1_555 1_555
N2A C2A 1_555 1_555
N3A C3A 1_555 1_555
N4A H4A 1_555 1_555
H5A N4A 1_555 1_555
N5A C18A 1_555 1_555
N6A C10A 1_555 1_555
N7A H6A 1_555 1_555
H7A N7A 1_555 1_555
N8A H8A 1_555 1_555
H9A N8A 1_555 1_555
N9A C13A 1_555 1_555
C1A N10A 1_555 1_555
N10A C4A 1_555 1_555
C2A C18A 1_555 1_555
C3A C13A 1_555 1_555
C4A H10A 1_555 1_555
H11A C4A 1_555 1_555
C6A N3A 1_555 1_555
C8A N2A 1_555 1_555
C9A N8A 1_555 1_555
H12A C9A 1_555 1_555
H13A C9A 1_555 1_555
C10A C6A 1_555 1_555
C11A N1A 1_555 1_555
H14A C11A 1_555 1_555
H15A C11A 1_555 1_555
C14A C6A 1_555 1_555
H16A C14A 1_555 1_555
C15A C3A 1_555 1_555
H17A C15A 1_555 1_555
C16A N7A 1_555 1_555
H18A C16A 1_555 1_555
H19A C16A 1_555 1_555
C17A N9A 1_555 1_555
H20A C17A 1_555 1_555
H21A C17A 1_555 1_555
C19A C24 1_555 1_555
H22A C19A 1_555 1_555
H23A C19A 1_555 1_555
C20A N1A 1_555 1_555
H24A C20A 1_555 1_555
H25A C20A 1_555 1_555
C21A N4A 1_555 1_555
H26A C21A 1_555 1_555
H27A C21A 1_555 1_555
C22A C8A 1_555 1_555
H28A C22A 1_555 1_555
C23A C22A 1_555 1_555
H29A C23A 1_555 1_555
C24A C19 1_555 1_555
H30A C24A 1_555 1_555
H31A C24A 1_555 1_555
C25A N8A 1_555 1_555
H32A C25A 1_555 1_555
H33A C25A 1_555 1_555
C27A C29 1_555 1_555
H34A C27A 1_555 1_555
H35A C27A 1_555 1_555
C29A C27 1_555 1_555
H38A C29A 1_555 1_555
H39A C29A 1_555 1_555
C34A C14A 1_555 1_555
H48A C34A 1_555 1_555
C35A C2A 1_555 1_555
H49A C35A 1_555 1_555
H52A N9A 1_555 1_555
H53A N6A 1_555 1_555
H55A N10A 1_555 1_555
H57A N5A 1_555 1_555
C1 C8 1_555 1_555
C4 C20 1_555 1_555
C9 C17 1_555 1_555
C11 C21 1_555 1_555
C15 C34 1_555 1_555
C16 C25 1_555 1_555
C23 C35 1_555 1_555
C30 C32 1_555 1_555
N4A C19A 1_555 1_555
N5A C24A 1_555 1_555
N6A C27A 1_555 1_555
N7A C29A 1_555 1_555
C1A C8A 1_555 1_555
C4A C20A 1_555 1_555
C9A C17A 1_555 1_555
C11A C21A 1_555 1_555
C15A C34A 1_555 1_555
C16A C25A 1_555 1_555
C23A C35A 1_555 1_555

#END
