
#######################################################################
#
#                 Cambridge Crystallographic Data Centre
#                                CCDC 
#
#######################################################################
#
# If this CIF has been generated from an entry in the Cambridge 
# Structural Database, then it will include bibliographic, chemical, 
# crystal, experimental, refinement or atomic coordinate data resulting 
# from the CCDC's data processing and validation procedures.
#
#######################################################################

data_LODLUN
_chemical_formula_moiety         'C7 H11 N2 O2 1+,C2 F6 N1 O4 S2 1-'
_chemical_name_systematic        
'3-(2-Carboxyethyl)-1-methyl-1H-imidazol-3-ium bis((trifluoromethyl)sulfonyl)azanide'
_symmetry_cell_setting           monoclinic
_symmetry_space_group_name_H-M   'P 21/c'
_symmetry_Int_Tables_number      14
_space_group_name_Hall           '-P 2ybc'
loop_
_symmetry_equiv_pos_site_id
_symmetry_equiv_pos_as_xyz
1 x,y,z
2 -x,1/2+y,1/2-z
3 -x,-y,-z
4 x,1/2-y,1/2+z
_cell_length_a                   9.898(5)
_cell_length_b                   16.937(8)
_cell_length_c                   12.581(5)
_cell_angle_alpha                90
_cell_angle_beta                 127.51(3)
_cell_angle_gamma                90
_cell_volume                     1673.04
_exptl_crystal_colour            colorless
_exptl_crystal_description       Block
_cell_formula_units_Z            4
loop_
_atom_site_label
_atom_site_type_symbol
_atom_site_fract_x
_atom_site_fract_y
_atom_site_fract_z
O1 O -0.3389(2) -0.03933(11) 0.51157(19)
O2 O -0.5328(2) 0.04336(12) 0.35362(19)
H1 H -0.5723 0.0395 0.3949
N1 N -0.3082(3) -0.26330(13) 0.3779(2)
N2 N -0.2590(2) -0.14317(12) 0.35431(19)
C1 C -0.3036(5) -0.33743(18) 0.4394(3)
H2 H -0.2110 -0.3362 0.5336
H3 H -0.2876 -0.3806 0.3985
H4 H -0.4090 -0.3443 0.4265
C2 C -0.4130(4) -0.24671(19) 0.2437(3)
H5 H -0.4913 -0.2810 0.1754
C3 C -0.3824(4) -0.17260(19) 0.2285(3)
H6 H -0.4348 -0.1457 0.1478
C4 C -0.2172(3) -0.19924(15) 0.4419(2)
H7 H -0.1364 -0.1946 0.5343
C5 C -0.1870(3) -0.06353(16) 0.3854(3)
H8 H -0.1331 -0.0553 0.3427
H9 H -0.1000 -0.0588 0.4814
C6 C -0.3203(4) -0.00037(16) 0.3388(3)
H10 H -0.2687 0.0509 0.3515
H11 H -0.4100 -0.0071 0.2436
C7 C -0.3979(3) -0.00120(14) 0.4100(3)
S1 S 0.20353(8) -0.38254(4) 0.36241(6)
S2 S 0.14100(9) -0.22279(4) 0.37006(7)
F1 F -0.0586(5) -0.4038(2) 0.3563(4)
F2 F 0.0557(5) -0.50893(17) 0.3536(3)
F3 F 0.1769(5) -0.44625(18) 0.5356(3)
F4 F 0.2284(4) -0.22133(15) 0.2130(3)
F5 F 0.2115(4) -0.10775(14) 0.2767(3)
F6 F 0.4205(3) -0.18054(17) 0.4093(3)
O3 O 0.3594(3) -0.42492(14) 0.4289(2)
O4 O 0.0959(3) -0.38093(12) 0.22062(18)
O5 O 0.1784(3) -0.17069(13) 0.4735(2)
O6 O -0.0298(3) -0.22990(14) 0.2536(2)
N3 N 0.2389(3) -0.30231(13) 0.4361(2)
C8 C 0.0852(7) -0.4374(3) 0.4045(5)
C9 C 0.2550(5) -0.1809(2) 0.3123(4)
loop_
_geom_bond_atom_site_label_1
_geom_bond_atom_site_label_2
_geom_bond_site_symmetry_1
_geom_bond_site_symmetry_2
O1 C7 1_555 1_555
O2 H1 1_555 1_555
N1 C1 1_555 1_555
N2 C3 1_555 1_555
C1 H2 1_555 1_555
H3 C1 1_555 1_555
H4 C1 1_555 1_555
C2 N1 1_555 1_555
H5 C2 1_555 1_555
C3 C2 1_555 1_555
H6 C3 1_555 1_555
C4 N1 1_555 1_555
H7 C4 1_555 1_555
C5 N2 1_555 1_555
H8 C5 1_555 1_555
H9 C5 1_555 1_555
C6 C5 1_555 1_555
H10 C6 1_555 1_555
H11 C6 1_555 1_555
C7 O2 1_555 1_555
S1 O3 1_555 1_555
S2 O5 1_555 1_555
F1 C8 1_555 1_555
F2 C8 1_555 1_555
F3 C8 1_555 1_555
F4 C9 1_555 1_555
F5 C9 1_555 1_555
F6 C9 1_555 1_555
O4 S1 1_555 1_555
O6 S2 1_555 1_555
N3 S1 1_555 1_555
C8 S1 1_555 1_555
C9 S2 1_555 1_555
N2 C4 1_555 1_555
C6 C7 1_555 1_555
S2 N3 1_555 1_555

#END
