
#######################################################################
#
#                 Cambridge Crystallographic Data Centre
#                                CCDC 
#
#######################################################################
#
# If this CIF has been generated from an entry in the Cambridge 
# Structural Database, then it will include bibliographic, chemical, 
# crystal, experimental, refinement or atomic coordinate data resulting 
# from the CCDC's data processing and validation procedures.
#
#######################################################################

data_LODMAU
_chemical_formula_moiety         'C8 H13 N2 O2 1+,Br1 1-'
_chemical_name_systematic        
'3-(3-Carboxypropyl)-1-methyl-1H-imidazol-3-ium bromide'
_symmetry_cell_setting           monoclinic
_symmetry_space_group_name_H-M   'P 21/c'
_symmetry_Int_Tables_number      14
_space_group_name_Hall           '-P 2ybc'
loop_
_symmetry_equiv_pos_site_id
_symmetry_equiv_pos_as_xyz
1 x,y,z
2 -x,1/2+y,1/2-z
3 -x,-y,-z
4 x,1/2-y,1/2+z
_cell_length_a                   7.836(3)
_cell_length_b                   4.8210(18)
_cell_length_c                   28.599(11)
_cell_angle_alpha                90
_cell_angle_beta                 100.732(10)
_cell_angle_gamma                90
_cell_volume                     1061.5
_exptl_crystal_colour            colorless
_exptl_crystal_description       block
_cell_formula_units_Z            4
loop_
_atom_site_label
_atom_site_type_symbol
_atom_site_fract_x
_atom_site_fract_y
_atom_site_fract_z
O1 O 0.8499(3) 0.5725(5) 0.67699(8)
H1 H 0.8325 0.6695 0.6530
O2 O 0.6416(5) 0.8263(8) 0.69655(10)
N1 N 0.7175(3) 0.9931(5) 0.93613(8)
N2 N 0.7229(3) 0.7086(5) 0.87882(8)
C1 C 0.7738(5) 1.1904(7) 0.97516(11)
H2 H 0.7939 1.0929 1.0049
H3 H 0.6851 1.3277 0.9753
H4 H 0.8792 1.2795 0.9707
C2 C 0.8185(4) 0.8795(6) 0.90897(10)
H5 H 0.9363 0.9142 0.9108
C3 C 0.5532(4) 0.8888(8) 0.92286(12)
H6 H 0.4572 0.9332 0.9362
C4 C 0.5564(4) 0.7116(8) 0.88719(12)
H7 H 0.4631 0.6093 0.8711
C5 C 0.7830(4) 0.5510(7) 0.84098(10)
H8 H 0.7324 0.3668 0.8391
H9 H 0.9083 0.5310 0.8489
C6 C 0.7347(4) 0.6904(6) 0.79337(10)
H10 H 0.7848 0.8749 0.7952
H11 H 0.6094 0.7093 0.7853
C7 C 0.7977(4) 0.5284(7) 0.75482(10)
H12 H 0.9228 0.5086 0.7632
H13 H 0.7475 0.3439 0.7533
C8 C 0.7530(4) 0.6595(6) 0.70675(11)
Br1 Br 0.18665(4) 0.36000(6) 0.924590(10)
loop_
_geom_bond_atom_site_label_1
_geom_bond_atom_site_label_2
_geom_bond_site_symmetry_1
_geom_bond_site_symmetry_2
O1 H1 1_555 1_555
O2 C8 1_555 1_555
N1 C1 1_555 1_555
N2 C2 1_555 1_555
C1 H2 1_555 1_555
H3 C1 1_555 1_555
H4 C1 1_555 1_555
C2 N1 1_555 1_555
H5 C2 1_555 1_555
C3 N1 1_555 1_555
H6 C3 1_555 1_555
C4 N2 1_555 1_555
H7 C4 1_555 1_555
C5 N2 1_555 1_555
H8 C5 1_555 1_555
H9 C5 1_555 1_555
C6 C5 1_555 1_555
H10 C6 1_555 1_555
H11 C6 1_555 1_555
C7 C6 1_555 1_555
H12 C7 1_555 1_555
H13 C7 1_555 1_555
C8 O1 1_555 1_555
C3 C4 1_555 1_555
C7 C8 1_555 1_555

#END
