
#######################################################################
#
#                 Cambridge Crystallographic Data Centre
#                                CCDC 
#
#######################################################################
#
# If this CIF has been generated from an entry in the Cambridge 
# Structural Database, then it will include bibliographic, chemical, 
# crystal, experimental, refinement or atomic coordinate data resulting 
# from the CCDC's data processing and validation procedures.
#
#######################################################################

data_LODYEK
_chemical_formula_moiety         'C24 H26 O5 S4'
_chemical_name_systematic        
'S-t-butyl 4,4-bis(phenylsulfonyl)-3-(2-thienyl)butanethioate'
_symmetry_cell_setting           orthorhombic
_symmetry_space_group_name_H-M   'P 21 21 21'
_symmetry_Int_Tables_number      19
_space_group_name_Hall           'P 2ac 2ab'
loop_
_symmetry_equiv_pos_site_id
_symmetry_equiv_pos_as_xyz
1 x,y,z
2 1/2-x,-y,1/2+z
3 1/2+x,1/2-y,-z
4 -x,1/2+y,1/2-z
_cell_length_a                   11.1726(2)
_cell_length_b                   13.4020(3)
_cell_length_c                   17.5513(4)
_cell_angle_alpha                90
_cell_angle_beta                 90
_cell_angle_gamma                90
_cell_volume                     2628.05
_cell_formula_units_Z            4
loop_
_atom_site_label
_atom_site_type_symbol
_atom_site_fract_x
_atom_site_fract_y
_atom_site_fract_z
S1 S 0.46025(6) 0.45431(5) 0.63357(4)
S2 S 0.60071(6) 0.27627(5) 0.58325(4)
S3 S 0.87605(8) 0.65136(6) 0.53840(6)
S4 S 0.8142(3) 0.38759(18) 0.79734(13)
O1 O 0.4467(2) 0.46532(19) 0.55271(13)
O2 O 0.47577(19) 0.54241(16) 0.67869(13)
O3 O 0.48854(19) 0.22438(17) 0.58426(15)
O4 O 0.6448(2) 0.31599(19) 0.51322(11)
O5 O 0.9330(2) 0.4785(2) 0.5978(2)
C1 C 0.3378(2) 0.3876(2) 0.67100(17)
C2 C 0.3340(3) 0.3664(3) 0.74827(19)
H1 H 0.3980 0.3827 0.7798
C3 C 0.2339(4) 0.3208(3) 0.7773(2)
H2 H 0.2309 0.3047 0.8288
C4 C 0.1382(3) 0.2987(3) 0.7312(3)
H3 H 0.0707 0.2679 0.7515
C5 C 0.1426(3) 0.3221(3) 0.6553(3)
H4 H 0.0768 0.3083 0.6246
C6 C 0.2432(3) 0.3660(3) 0.6233(2)
H5 H 0.2467 0.3803 0.5715
C7 C 0.7138(2) 0.20087(18) 0.62338(15)
C8 C 0.6918(3) 0.1522(2) 0.69142(18)
H6 H 0.6170 0.1559 0.7144
C9 C 0.7828(4) 0.0982(3) 0.7246(2)
H7 H 0.7707 0.0672 0.7713
C10 C 0.8922(3) 0.0900(3) 0.6881(2)
H8 H 0.9531 0.0529 0.7105
C11 C 0.9121(3) 0.1362(3) 0.6190(2)
H9 H 0.9851 0.1285 0.5942
C12 C 0.8233(3) 0.1938(2) 0.58694(17)
H10 H 0.8368 0.2275 0.5414
C13 C 0.5905(2) 0.37649(18) 0.65334(13)
H11 H 0.5763 0.3447 0.7028
C14 C 0.7097(2) 0.43437(18) 0.66024(14)
H12 H 0.7723 0.3858 0.6477
C15 C 0.7245(3) 0.5184(2) 0.60216(17)
H13 H 0.6828 0.5009 0.5556
H14 H 0.6889 0.5790 0.6221
C16 C 0.8557(2) 0.5368(2) 0.58467(17)
C17 C 0.7353(2) 0.4661(2) 0.74123(15)
C18 C 0.7148(8) 0.5518(8) 0.7770(5)
H15 H 0.6770 0.6058 0.7540
C19 C 0.7549(11) 0.5536(10) 0.8521(6)
H16 H 0.7454 0.6052 0.8870
C20 C 0.8128(9) 0.4619(8) 0.8649(5)
H17 H 0.8483 0.4467 0.9114
C21 C 1.0325(3) 0.6523(3) 0.5044(2)
C22 C 1.0565(5) 0.5633(4) 0.4540(3)
H18 H 1.0426 0.5031 0.4823
H19 H 1.1381 0.5649 0.4369
H20 H 1.0039 0.5652 0.4107
C23 C 1.1180(5) 0.6521(6) 0.5726(4)
H21 H 1.0985 0.7067 0.6059
H22 H 1.1988 0.6593 0.5549
H23 H 1.1101 0.5903 0.5998
C24 C 1.0378(6) 0.7496(4) 0.4578(4)
H24 H 0.9797 0.7469 0.4176
H25 H 1.1163 0.7572 0.4364
H26 H 1.0206 0.8052 0.4905
S5? S 0.6639(3) 0.5655(2) 0.78796(13)
C25? C 0.8166(8) 0.4277(7) 0.7980(5)
H27? H 0.8659 0.3731 0.7886
C26? C 0.8167(12) 0.4812(9) 0.8728(7)
H28? H 0.8643 0.4661 0.9147
C27? C 0.7412(9) 0.5496(9) 0.8688(5)
H29? H 0.7281 0.5913 0.9103
loop_
_geom_bond_atom_site_label_1
_geom_bond_atom_site_label_2
_geom_bond_site_symmetry_1
_geom_bond_site_symmetry_2
S1 O1 1_555 1_555
S2 O3 1_555 1_555
S3 C16 1_555 1_555
S4 C17 1_555 1_555
O2 S1 1_555 1_555
O4 S2 1_555 1_555
O5 C16 1_555 1_555
C1 S1 1_555 1_555
C2 C1 1_555 1_555
H1 C2 1_555 1_555
C3 C2 1_555 1_555
H2 C3 1_555 1_555
C4 C3 1_555 1_555
H3 C4 1_555 1_555
C5 C4 1_555 1_555
H4 C5 1_555 1_555
C6 C1 1_555 1_555
H5 C6 1_555 1_555
C7 S2 1_555 1_555
C8 C7 1_555 1_555
H6 C8 1_555 1_555
C9 C8 1_555 1_555
H7 C9 1_555 1_555
C10 C9 1_555 1_555
H8 C10 1_555 1_555
C11 C10 1_555 1_555
H9 C11 1_555 1_555
C12 C7 1_555 1_555
H10 C12 1_555 1_555
C13 S1 1_555 1_555
H11 C13 1_555 1_555
C14 C13 1_555 1_555
H12 C14 1_555 1_555
C15 C14 1_555 1_555
H13 C15 1_555 1_555
H14 C15 1_555 1_555
C16 C15 1_555 1_555
C17 C14 1_555 1_555
C18 C17 1_555 1_555
H15 C18 1_555 1_555
C19 C18 1_555 1_555
H16 C19 1_555 1_555
C20 S4 1_555 1_555
H17 C20 1_555 1_555
C21 S3 1_555 1_555
C22 C21 1_555 1_555
H18 C22 1_555 1_555
H19 C22 1_555 1_555
H20 C22 1_555 1_555
C23 C21 1_555 1_555
H21 C23 1_555 1_555
H22 C23 1_555 1_555
H23 C23 1_555 1_555
C24 C21 1_555 1_555
H24 C24 1_555 1_555
H25 C24 1_555 1_555
H26 C24 1_555 1_555
S2 C13 1_555 1_555
C5 C6 1_555 1_555
C11 C12 1_555 1_555
C19 C20 1_555 1_555

#END
