
#######################################################################
#
#                 Cambridge Crystallographic Data Centre
#                                CCDC 
#
#######################################################################
#
# If this CIF has been generated from an entry in the Cambridge 
# Structural Database, then it will include bibliographic, chemical, 
# crystal, experimental, refinement or atomic coordinate data resulting 
# from the CCDC's data processing and validation procedures.
#
#######################################################################

data_LOFQUU
_chemical_formula_moiety         'C14 H20 N2 O1'
_chemical_name_systematic        
4-((3-amino-2,4,6-trimethylphenyl)imino)pent-2-en-2-ol
_symmetry_cell_setting           monoclinic
_symmetry_space_group_name_H-M   'P 21/c'
_symmetry_Int_Tables_number      14
_space_group_name_Hall           '-P 2ybc'
loop_
_symmetry_equiv_pos_site_id
_symmetry_equiv_pos_as_xyz
1 x,y,z
2 -x,1/2+y,1/2-z
3 -x,-y,-z
4 x,1/2-y,1/2+z
_cell_length_a                   8.3343(17)
_cell_length_b                   8.4636(17)
_cell_length_c                   18.908(4)
_cell_angle_alpha                90
_cell_angle_beta                 98.09(3)
_cell_angle_gamma                90
_cell_volume                     1320.46
_exptl_crystal_colour            white
_exptl_crystal_description       Rod
_cell_formula_units_Z            4
_exptl_crystal_recrystallization_method Methanol
loop_
_atom_site_label
_atom_site_type_symbol
_atom_site_fract_x
_atom_site_fract_y
_atom_site_fract_z
C1 C 0.7715(3) -0.1597(2) 0.43986(10)
C2 C 0.5562(3) 0.0797(2) 0.39041(10)
C3 C 0.4940(3) -0.0639(2) 0.41066(9)
C4 C 0.8263(3) -0.0149(2) 0.41866(10)
H1 H 0.9374 0.0010 0.4209
C5 C 0.6045(3) -0.1839(2) 0.43627(10)
C6 C 0.7216(3) 0.1076(2) 0.39408(10)
C7 C 0.8898(3) -0.2885(3) 0.46600(13)
H2 H 0.9982 -0.2527 0.4638
H3 H 0.8679 -0.3804 0.4364
H4 H 0.8786 -0.3147 0.5145
C8 C 0.3156(3) -0.0907(3) 0.40758(13)
H5 H 0.2586 0.0056 0.3938
H6 H 0.2924 -0.1231 0.4537
H7 H 0.2813 -0.1716 0.3732
C9 C 0.7857(3) 0.2647(3) 0.37263(16)
H8 H 0.7297 0.2952 0.3268
H9 H 0.8995 0.2557 0.3700
H10 H 0.7687 0.3433 0.4075
N1 N 0.5457(3) -0.3256(2) 0.46064(10)
H11 H 0.6122 -0.3982 0.4779
H12 H 0.4430 -0.3403 0.4584
N2 N 0.4444(2) 0.20573(19) 0.36578(9)
C10 C 0.2033(3) 0.4498(2) 0.32437(12)
C11 C 0.3708(3) 0.2210(2) 0.29845(11)
C12 C 0.2561(3) 0.3350(2) 0.27868(11)
H13 H 0.2092 0.3368 0.2311
C13 C 0.0713(3) 0.5616(3) 0.29359(15)
H14 H 0.0474 0.6331 0.3301
H15 H -0.0242 0.5026 0.2758
H16 H 0.1067 0.6204 0.2552
C14 C 0.4191(4) 0.1080(3) 0.24365(12)
H17 H 0.5320 0.1213 0.2401
H18 H 0.3560 0.1291 0.1981
H19 H 0.3999 0.0015 0.2578
O1 O 0.2614(2) 0.46375(19) 0.38879(8)
H20 H 0.2967 0.3781 0.4042
loop_
_geom_bond_atom_site_label_1
_geom_bond_atom_site_label_2
_geom_bond_site_symmetry_1
_geom_bond_site_symmetry_2
C1 C4 1_555 1_555
C2 C3 1_555 1_555
C3 C5 1_555 1_555
C4 H1 1_555 1_555
C5 C1 1_555 1_555
C6 C2 1_555 1_555
C7 C1 1_555 1_555
H2 C7 1_555 1_555
H3 C7 1_555 1_555
H4 C7 1_555 1_555
C8 C3 1_555 1_555
H5 C8 1_555 1_555
H6 C8 1_555 1_555
H7 C8 1_555 1_555
C9 C6 1_555 1_555
H8 C9 1_555 1_555
H9 C9 1_555 1_555
H10 C9 1_555 1_555
N1 C5 1_555 1_555
H11 N1 1_555 1_555
H12 N1 1_555 1_555
N2 C2 1_555 1_555
C10 C12 1_555 1_555
C11 N2 1_555 1_555
C12 C11 1_555 1_555
H13 C12 1_555 1_555
C13 C10 1_555 1_555
H14 C13 1_555 1_555
H15 C13 1_555 1_555
H16 C13 1_555 1_555
C14 C11 1_555 1_555
H17 C14 1_555 1_555
H18 C14 1_555 1_555
H19 C14 1_555 1_555
O1 C10 1_555 1_555
H20 O1 1_555 1_555
C4 C6 1_555 1_555

#END
