
#######################################################################
#
#                 Cambridge Crystallographic Data Centre
#                                CCDC 
#
#######################################################################
#
# If this CIF has been generated from an entry in the Cambridge 
# Structural Database, then it will include bibliographic, chemical, 
# crystal, experimental, refinement or atomic coordinate data resulting 
# from the CCDC's data processing and validation procedures.
#
#######################################################################

data_LOGJAU
_chemical_formula_moiety         'C112 H102 N2,4(C7 H8)'
_chemical_name_systematic        
10,11,21,22-tetra-(2,4,6-trimethylphenyl)-2,13-bis(3,5-di-t-butylphenyl)-2,14,16a,19b,21,22b-hexahydrodiphenanthro[1,10,9,8-cdefg:1,10,9,8-c'd'e'f'g']s-indaceno[2,1-a:6,5-a']dicarbazole
_symmetry_cell_setting           triclinic
_symmetry_space_group_name_H-M   'P -1'
_symmetry_Int_Tables_number      2
_space_group_name_Hall           '-P 1'
loop_
_symmetry_equiv_pos_site_id
_symmetry_equiv_pos_as_xyz
1 x,y,z
2 -x,-y,-z
_cell_length_a                   13.4994(6)
_cell_length_b                   13.5316(6)
_cell_length_c                   16.2349(8)
_cell_angle_alpha                101.925(2)
_cell_angle_beta                 96.408(2)
_cell_angle_gamma                112.357(2)
_cell_volume                     2623.54
_exptl_crystal_colour            green
_exptl_crystal_description       prism
_cell_formula_units_Z            1
_chemical_properties_physical    Air-sensitive
loop_
_atom_site_label
_atom_site_type_symbol
_atom_site_fract_x
_atom_site_fract_y
_atom_site_fract_z
N1 N 0.15375(16) 0.57132(18) 0.17474(15)
C1 C 0.46232(19) 0.3840(2) -0.00417(16)
H1 H 0.4399 0.3075 -0.0073
C2 C 0.40530(19) 0.4406(2) 0.03048(16)
C3 C 0.30529(19) 0.4090(2) 0.06545(16)
C4 C 0.23291(19) 0.3002(2) 0.06967(16)
C5 C 0.2413(2) 0.1984(2) 0.04113(18)
H2 H 0.3000 0.1962 0.0147
C6 C 0.1646(2) 0.1022(2) 0.05157(19)
H3 H 0.1721 0.0347 0.0319
C7 C 0.0759(2) 0.0996(2) 0.09007(18)
H4 H 0.0262 0.0316 0.0972
C8 C 0.06015(19) 0.1955(2) 0.11775(17)
C9 C -0.0310(2) 0.2018(2) 0.15934(17)
C10 C -0.1159(2) 0.1118(2) 0.17266(19)
H5 H -0.1207 0.0388 0.1519
C11 C -0.1940(2) 0.1290(2) 0.2166(2)
H6 H -0.2512 0.0662 0.2244
C12 C -0.1921(2) 0.2323(2) 0.24910(19)
H7 H -0.2460 0.2397 0.2798
C13 C -0.1098(2) 0.3273(2) 0.23667(18)
C14 C -0.0939(2) 0.4421(2) 0.26876(18)
C15 C -0.0106(2) 0.5304(2) 0.25245(18)
H8 H -0.0027 0.6045 0.2739
C16 C 0.0619(2) 0.5074(2) 0.20330(17)
C17 C 0.1980(2) 0.4999(2) 0.13324(17)
C18 C 0.28926(19) 0.5078(2) 0.09350(17)
C19 C 0.37432(19) 0.5988(2) 0.07227(16)
C20 C 0.44331(19) 0.5579(2) 0.03582(16)
C21 C 0.14129(19) 0.2951(2) 0.10619(16)
C22 C 0.13045(19) 0.3937(2) 0.13510(17)
C23 C 0.0474(2) 0.3989(2) 0.17645(17)
C24 C -0.0330(2) 0.3076(2) 0.19092(17)
C25 C 0.3812(2) 0.7114(2) 0.07543(18)
C26 C 0.4661(2) 0.8076(2) 0.13037(19)
C27 C 0.4705(2) 0.9110(2) 0.1243(2)
H9 H 0.5267 0.9765 0.1626
C28 C 0.3963(2) 0.9210(2) 0.0648(2)
C29 C 0.3148(2) 0.8244(3) 0.0095(2)
H10 H 0.2636 0.8301 -0.0325
C30 C 0.3056(2) 0.7206(2) 0.01348(19)
C31 C 0.5516(2) 0.8032(3) 0.1961(2)
H11 H 0.5373 0.7256 0.1923
H12 H 0.5487 0.8399 0.2539
H13 H 0.6244 0.8413 0.1846
C32 C 0.4022(3) 1.0329(3) 0.0604(3)
H14 H 0.4643 1.0911 0.1041
H15 H 0.3342 1.0383 0.0709
H16 H 0.4121 1.0423 0.0031
C33 C 0.2188(2) 0.6172(3) -0.0504(2)
H17 H 0.1736 0.6382 -0.0887
H18 H 0.1725 0.5695 -0.0193
H19 H 0.2541 0.5770 -0.0845
C34 C 0.1972(2) 0.6910(2) 0.19910(18)
C35 C 0.2858(2) 0.7494(2) 0.2683(2)
C36 C 0.3218(3) 0.8643(3) 0.2946(2)
H20 H 0.3830 0.9064 0.3411
C37 C 0.2712(3) 0.9188(3) 0.2550(2)
C38 C 0.1836(3) 0.8575(3) 0.1868(2)
H21 H 0.1494 0.8948 0.1587
C39 C 0.1436(2) 0.7422(2) 0.1577(2)
C40 C 0.3399(3) 0.6903(3) 0.3124(2)
H22 H 0.3027 0.6103 0.2848
H23 H 0.3352 0.7048 0.3732
H24 H 0.4170 0.7172 0.3080
C41 C 0.3133(4) 1.0441(3) 0.2849(3)
H25 H 0.3754 1.0735 0.3339
H26 H 0.2547 1.0641 0.3024
H27 H 0.3371 1.0759 0.2377
C42 C 0.0457(3) 0.6785(3) 0.0841(2)
H28 H 0.0285 0.5991 0.0718
H29 H 0.0623 0.7039 0.0328
H30 H -0.0174 0.6913 0.0997
C43 C -0.1692(2) 0.4680(2) 0.32186(18)
C44 C -0.1268(2) 0.5384(2) 0.40500(19)
H31 H -0.0504 0.5679 0.4280
C45 C -0.1944(2) 0.5664(2) 0.45496(18)
C46 C -0.3061(2) 0.5216(2) 0.41927(18)
H32 H -0.3531 0.5402 0.4527
C47 C -0.3519(2) 0.4503(2) 0.33621(18)
C48 C -0.2821(2) 0.4240(2) 0.28901(18)
H33 H -0.3115 0.3748 0.2327
C49 C -0.1512(2) 0.6416(3) 0.54777(19)
C50 C -0.0261(2) 0.6942(3) 0.5724(2)
H34 H 0.0006 0.6356 0.5665
H35 H -0.0021 0.7401 0.6322
H36 H 0.0034 0.7406 0.5343
C51 C -0.1897(3) 0.7359(3) 0.5575(2)
H37 H -0.1620 0.7836 0.6166
H38 H -0.2700 0.7043 0.5444
H39 H -0.1618 0.7798 0.5175
C52 C -0.1955(3) 0.5718(3) 0.6095(2)
H40 H -0.1706 0.5119 0.6032
H41 H -0.2758 0.5398 0.5959
H42 H -0.1685 0.6190 0.6689
C53 C -0.4756(2) 0.4058(2) 0.3008(2)
C54 C -0.5038(3) 0.5005(3) 0.2853(3)
H43 H -0.4633 0.5325 0.2439
H44 H -0.4835 0.5579 0.3398
H45 H -0.5826 0.4719 0.2624
C55 C -0.5397(2) 0.3546(3) 0.3650(2)
H46 H -0.5212 0.2940 0.3748
H47 H -0.6184 0.3255 0.3414
H48 H -0.5203 0.4115 0.4195
C56 C -0.5125(2) 0.3152(3) 0.2159(2)
H49 H -0.4735 0.3454 0.1731
H50 H -0.5915 0.2890 0.1950
H51 H -0.4962 0.2532 0.2250
N1A N 0.84625(16) 0.42868(18) -0.17474(15)
C1A C 0.53768(19) 0.6160(2) 0.00417(16)
H1A H 0.5601 0.6925 0.0073
C2A C 0.59470(19) 0.5594(2) -0.03048(16)
C3A C 0.69471(19) 0.5910(2) -0.06545(16)
C4A C 0.76709(19) 0.6998(2) -0.06967(16)
C5A C 0.7587(2) 0.8016(2) -0.04113(18)
H2A H 0.7000 0.8038 -0.0147
C6A C 0.8354(2) 0.8978(2) -0.05157(19)
H3A H 0.8279 0.9653 -0.0319
C7A C 0.9241(2) 0.9004(2) -0.09007(18)
H4A H 0.9738 0.9684 -0.0972
C8A C 0.93985(19) 0.8045(2) -0.11775(17)
C9A C 1.0310(2) 0.7982(2) -0.15934(17)
C10A C 1.1159(2) 0.8882(2) -0.17266(19)
H5A H 1.1207 0.9612 -0.1519
C11A C 1.1940(2) 0.8710(2) -0.2166(2)
H6A H 1.2512 0.9338 -0.2244
C12A C 1.1921(2) 0.7677(2) -0.24910(19)
H7A H 1.2460 0.7603 -0.2798
C13A C 1.1098(2) 0.6727(2) -0.23667(18)
C14A C 1.0939(2) 0.5579(2) -0.26876(18)
C15A C 1.0106(2) 0.4696(2) -0.25245(18)
H8A H 1.0027 0.3955 -0.2739
C16A C 0.9381(2) 0.4926(2) -0.20330(17)
C17A C 0.8020(2) 0.5001(2) -0.13324(17)
C18A C 0.71074(19) 0.4922(2) -0.09350(17)
C19A C 0.62568(19) 0.4012(2) -0.07227(16)
C20A C 0.55669(19) 0.4421(2) -0.03582(16)
C21A C 0.85871(19) 0.7049(2) -0.10619(16)
C22A C 0.86955(19) 0.6063(2) -0.13510(17)
C23A C 0.9526(2) 0.6011(2) -0.17645(17)
C24A C 1.0330(2) 0.6924(2) -0.19092(17)
C25A C 0.6188(2) 0.2886(2) -0.07543(18)
C26A C 0.5339(2) 0.1924(2) -0.13037(19)
C27A C 0.5295(2) 0.0890(2) -0.1243(2)
H9A H 0.4733 0.0235 -0.1626
C28A C 0.6037(2) 0.0790(2) -0.0648(2)
C29A C 0.6852(2) 0.1756(3) -0.0095(2)
H10A H 0.7364 0.1699 0.0325
C30A C 0.6944(2) 0.2794(2) -0.01348(19)
C31A C 0.4484(2) 0.1968(3) -0.1961(2)
H11A H 0.4627 0.2744 -0.1923
H12A H 0.4513 0.1601 -0.2539
H13A H 0.3756 0.1587 -0.1846
C32A C 0.5978(3) -0.0329(3) -0.0604(3)
H14A H 0.5357 -0.0911 -0.1041
H15A H 0.6658 -0.0383 -0.0709
H16A H 0.5879 -0.0423 -0.0031
C33A C 0.7812(2) 0.3828(3) 0.0504(2)
H17A H 0.8264 0.3618 0.0887
H18A H 0.8275 0.4305 0.0193
H19A H 0.7459 0.4230 0.0845
C34A C 0.8028(2) 0.3090(2) -0.19910(18)
C35A C 0.7142(2) 0.2506(2) -0.2683(2)
C36A C 0.6782(3) 0.1357(3) -0.2946(2)
H20A H 0.6170 0.0936 -0.3411
C37A C 0.7288(3) 0.0812(3) -0.2550(2)
C38A C 0.8164(3) 0.1425(3) -0.1868(2)
H21A H 0.8506 0.1052 -0.1587
C39A C 0.8564(2) 0.2578(2) -0.1577(2)
C40A C 0.6601(3) 0.3097(3) -0.3124(2)
H22A H 0.6973 0.3897 -0.2848
H23A H 0.6648 0.2952 -0.3732
H24A H 0.5830 0.2828 -0.3080
C41A C 0.6867(4) -0.0441(3) -0.2849(3)
H25A H 0.6246 -0.0735 -0.3339
H26A H 0.7453 -0.0641 -0.3024
H27A H 0.6629 -0.0759 -0.2377
C42A C 0.9543(3) 0.3215(3) -0.0841(2)
H28A H 0.9715 0.4009 -0.0718
H29A H 0.9377 0.2961 -0.0328
H30A H 1.0174 0.3087 -0.0997
C43A C 1.1692(2) 0.5320(2) -0.32186(18)
C44A C 1.1268(2) 0.4616(2) -0.40500(19)
H31A H 1.0504 0.4321 -0.4280
C45A C 1.1944(2) 0.4336(2) -0.45496(18)
C46A C 1.3061(2) 0.4784(2) -0.41927(18)
H32A H 1.3531 0.4598 -0.4527
C47A C 1.3519(2) 0.5497(2) -0.33621(18)
C48A C 1.2821(2) 0.5760(2) -0.28901(18)
H33A H 1.3115 0.6252 -0.2327
C49A C 1.1512(2) 0.3584(3) -0.54777(19)
C50A C 1.0261(2) 0.3058(3) -0.5724(2)
H34A H 0.9994 0.3644 -0.5665
H35A H 1.0021 0.2599 -0.6322
H36A H 0.9966 0.2594 -0.5343
C51A C 1.1897(3) 0.2641(3) -0.5575(2)
H37A H 1.1620 0.2164 -0.6166
H38A H 1.2700 0.2957 -0.5444
H39A H 1.1618 0.2202 -0.5175
C52A C 1.1955(3) 0.4282(3) -0.6095(2)
H40A H 1.1706 0.4881 -0.6032
H41A H 1.2758 0.4602 -0.5959
H42A H 1.1685 0.3810 -0.6689
C53A C 1.4756(2) 0.5942(2) -0.3008(2)
C54A C 1.5038(3) 0.4995(3) -0.2853(3)
H43A H 1.4633 0.4675 -0.2439
H44A H 1.4835 0.4421 -0.3398
H45A H 1.5826 0.5281 -0.2624
C55A C 1.5397(2) 0.6454(3) -0.3650(2)
H46A H 1.5212 0.7060 -0.3748
H47A H 1.6184 0.6745 -0.3414
H48A H 1.5203 0.5885 -0.4195
C56A C 1.5125(2) 0.6848(3) -0.2159(2)
H49A H 1.4735 0.6546 -0.1731
H50A H 1.5915 0.7110 -0.1950
H51A H 1.4962 0.7468 -0.2250
C57 C 0.3426(7) -0.0549(7) 0.5585(5)
C58 C 0.4093(5) 0.0354(9) 0.5330(4)
H52 H 0.4697 0.0331 0.5091
C59 C 0.3875(6) 0.1292(7) 0.5424(5)
H53 H 0.4331 0.1909 0.5250
C60 C 0.2991(8) 0.1325(6) 0.5774(5)
H54 H 0.2842 0.1966 0.5839
C61 C 0.2324(5) 0.0422(8) 0.6029(4)
H55 H 0.1719 0.0445 0.6268
C62 C 0.2541(6) -0.0516(6) 0.5934(4)
H56 H 0.2086 -0.1133 0.6109
C63 C 0.350(2) -0.1619(16) 0.5481(10)
H57 H 0.2939 -0.2173 0.4991
H58 H 0.3397 -0.1861 0.6006
H59 H 0.4229 -0.1537 0.5377
C71 C 0.1371(4) 0.2306(3) 0.7574(3)
C72 C 0.1015(5) 0.2359(3) 0.6754(3)
H68 H 0.1359 0.3018 0.6584
C73 C 0.0155(6) 0.1446(4) 0.6181(3)
H69 H -0.0089 0.1482 0.5620
C74 C -0.0349(5) 0.0481(4) 0.6428(3)
H70 H -0.0937 -0.0143 0.6036
C75 C 0.0007(5) 0.0428(4) 0.7248(4)
H71 H -0.0337 -0.0232 0.7417
C76 C 0.0867(5) 0.1341(4) 0.7821(3)
H72 H 0.1111 0.1304 0.8382
C77 C 0.2220(6) 0.3341(8) 0.8199(5)
H73 H 0.2531 0.3904 0.7894
H74 H 0.2802 0.3177 0.8472
H75 H 0.1881 0.3622 0.8641
C64? C 0.2206(5) -0.1388(6) 0.4853(5)
C65? C 0.2176(4) -0.2437(5) 0.4802(3)
H60? H 0.1636 -0.3065 0.4377
C66? C 0.2935(5) -0.2568(4) 0.5371(4)
H61? H 0.2915 -0.3286 0.5336
C67? C 0.3725(5) -0.1650(6) 0.5992(4)
H62? H 0.4244 -0.1739 0.6381
C68? C 0.3755(5) -0.0600(5) 0.6043(5)
H63? H 0.4295 0.0028 0.6468
C69? C 0.2996(6) -0.0469(5) 0.5474(6)
H64? H 0.3016 0.0248 0.5509
C70? C 0.1430(13) -0.1233(16) 0.4320(10)
H65? H 0.1412 -0.1558 0.3717
H66? H 0.1623 -0.0437 0.4417
H67? H 0.0707 -0.1595 0.4449
C78? C 0.0813(9) 0.1128(7) 0.7211(7)
C79? C 0.0997(8) 0.1693(8) 0.8071(7)
H76? H 0.0567 0.1346 0.8440
C80? C 0.1809(8) 0.2767(8) 0.8391(5)
H77? H 0.1934 0.3154 0.8978
C81? C 0.2437(7) 0.3276(7) 0.7851(7)
H78? H 0.2992 0.4010 0.8070
C82? C 0.2254(10) 0.2711(10) 0.6991(7)
H79? H 0.2683 0.3058 0.6622
C83? C 0.1442(11) 0.1637(10) 0.6671(5)
H80? H 0.1316 0.1250 0.6084
C84? C 0.0204(19) 0.0133(16) 0.6946(12)
H81? H -0.0514 0.0007 0.7087
H82? H 0.0522 -0.0290 0.7221
H83? H 0.0119 -0.0110 0.6321
loop_
_geom_bond_atom_site_label_1
_geom_bond_atom_site_label_2
_geom_bond_site_symmetry_1
_geom_bond_site_symmetry_2
N1 C16 1_555 1_555
C1 H1 1_555 1_555
C2 C1 1_555 1_555
C3 C2 1_555 1_555
C4 C3 1_555 1_555
C5 C4 1_555 1_555
H2 C5 1_555 1_555
C6 C5 1_555 1_555
H3 C6 1_555 1_555
C7 C6 1_555 1_555
H4 C7 1_555 1_555
C8 C7 1_555 1_555
C9 C8 1_555 1_555
C10 C9 1_555 1_555
H5 C10 1_555 1_555
C11 C10 1_555 1_555
H6 C11 1_555 1_555
C12 C11 1_555 1_555
H7 C12 1_555 1_555
C13 C12 1_555 1_555
C14 C13 1_555 1_555
C15 C14 1_555 1_555
H8 C15 1_555 1_555
C16 C15 1_555 1_555
C17 N1 1_555 1_555
C18 C3 1_555 1_555
C19 C18 1_555 1_555
C20 C2 1_555 1_555
C21 C4 1_555 1_555
C22 C17 1_555 1_555
C23 C16 1_555 1_555
C24 C9 1_555 1_555
C25 C19 1_555 1_555
C26 C25 1_555 1_555
C27 C26 1_555 1_555
H9 C27 1_555 1_555
C28 C27 1_555 1_555
C29 C28 1_555 1_555
H10 C29 1_555 1_555
C30 C25 1_555 1_555
C31 C26 1_555 1_555
H11 C31 1_555 1_555
H12 C31 1_555 1_555
H13 C31 1_555 1_555
C32 C28 1_555 1_555
H14 C32 1_555 1_555
H15 C32 1_555 1_555
H16 C32 1_555 1_555
C33 C30 1_555 1_555
H17 C33 1_555 1_555
H18 C33 1_555 1_555
H19 C33 1_555 1_555
C34 N1 1_555 1_555
C35 C34 1_555 1_555
C36 C35 1_555 1_555
H20 C36 1_555 1_555
C37 C36 1_555 1_555
C38 C37 1_555 1_555
H21 C38 1_555 1_555
C39 C34 1_555 1_555
C40 C35 1_555 1_555
H22 C40 1_555 1_555
H23 C40 1_555 1_555
H24 C40 1_555 1_555
C41 C37 1_555 1_555
H25 C41 1_555 1_555
H26 C41 1_555 1_555
H27 C41 1_555 1_555
C42 C39 1_555 1_555
H28 C42 1_555 1_555
H29 C42 1_555 1_555
H30 C42 1_555 1_555
C43 C14 1_555 1_555
C44 C43 1_555 1_555
H31 C44 1_555 1_555
C45 C44 1_555 1_555
C46 C45 1_555 1_555
H32 C46 1_555 1_555
C47 C46 1_555 1_555
C48 C43 1_555 1_555
H33 C48 1_555 1_555
C49 C45 1_555 1_555
C50 C49 1_555 1_555
H34 C50 1_555 1_555
H35 C50 1_555 1_555
H36 C50 1_555 1_555
C51 C49 1_555 1_555
H37 C51 1_555 1_555
H38 C51 1_555 1_555
H39 C51 1_555 1_555
C52 C49 1_555 1_555
H40 C52 1_555 1_555
H41 C52 1_555 1_555
H42 C52 1_555 1_555
C53 C47 1_555 1_555
C54 C53 1_555 1_555
H43 C54 1_555 1_555
H44 C54 1_555 1_555
H45 C54 1_555 1_555
C55 C53 1_555 1_555
H46 C55 1_555 1_555
H47 C55 1_555 1_555
H48 C55 1_555 1_555
C56 C53 1_555 1_555
H49 C56 1_555 1_555
H50 C56 1_555 1_555
H51 C56 1_555 1_555
C57 C58 1_555 1_555
C58 H52 1_555 1_555
C59 C58 1_555 1_555
H53 C59 1_555 1_555
C60 C59 1_555 1_555
H54 C60 1_555 1_555
C61 C60 1_555 1_555
H55 C61 1_555 1_555
C62 C57 1_555 1_555
H56 C62 1_555 1_555
C63 C57 1_555 1_555
H57 C63 1_555 1_555
H58 C63 1_555 1_555
H59 C63 1_555 1_555
C71 C72 1_555 1_555
C72 H68 1_555 1_555
C73 C72 1_555 1_555
H69 C73 1_555 1_555
C74 C73 1_555 1_555
H70 C74 1_555 1_555
C75 C74 1_555 1_555
H71 C75 1_555 1_555
C76 C71 1_555 1_555
H72 C76 1_555 1_555
C77 C71 1_555 1_555
H73 C77 1_555 1_555
H74 C77 1_555 1_555
H75 C77 1_555 1_555
N1A C16A 1_555 1_555
C1A C20 1_555 1_555
H1A C1A 1_555 1_555
C2A C1A 1_555 1_555
C3A C2A 1_555 1_555
C4A C3A 1_555 1_555
C5A C4A 1_555 1_555
H2A C5A 1_555 1_555
C6A C5A 1_555 1_555
H3A C6A 1_555 1_555
C7A C6A 1_555 1_555
H4A C7A 1_555 1_555
C8A C7A 1_555 1_555
C9A C8A 1_555 1_555
C10A C9A 1_555 1_555
H5A C10A 1_555 1_555
C11A C10A 1_555 1_555
H6A C11A 1_555 1_555
C12A C11A 1_555 1_555
H7A C12A 1_555 1_555
C13A C12A 1_555 1_555
C14A C13A 1_555 1_555
C15A C14A 1_555 1_555
H8A C15A 1_555 1_555
C16A C15A 1_555 1_555
C17A N1A 1_555 1_555
C18A C3A 1_555 1_555
C19A C18A 1_555 1_555
C20A C1 1_555 1_555
C21A C4A 1_555 1_555
C22A C17A 1_555 1_555
C23A C16A 1_555 1_555
C24A C9A 1_555 1_555
C25A C19A 1_555 1_555
C26A C25A 1_555 1_555
C27A C26A 1_555 1_555
H9A C27A 1_555 1_555
C28A C27A 1_555 1_555
C29A C28A 1_555 1_555
H10A C29A 1_555 1_555
C30A C25A 1_555 1_555
C31A C26A 1_555 1_555
H11A C31A 1_555 1_555
H12A C31A 1_555 1_555
H13A C31A 1_555 1_555
C32A C28A 1_555 1_555
H14A C32A 1_555 1_555
H15A C32A 1_555 1_555
H16A C32A 1_555 1_555
C33A C30A 1_555 1_555
H17A C33A 1_555 1_555
H18A C33A 1_555 1_555
H19A C33A 1_555 1_555
C34A N1A 1_555 1_555
C35A C34A 1_555 1_555
C36A C35A 1_555 1_555
H20A C36A 1_555 1_555
C37A C36A 1_555 1_555
C38A C37A 1_555 1_555
H21A C38A 1_555 1_555
C39A C34A 1_555 1_555
C40A C35A 1_555 1_555
H22A C40A 1_555 1_555
H23A C40A 1_555 1_555
H24A C40A 1_555 1_555
C41A C37A 1_555 1_555
H25A C41A 1_555 1_555
H26A C41A 1_555 1_555
H27A C41A 1_555 1_555
C42A C39A 1_555 1_555
H28A C42A 1_555 1_555
H29A C42A 1_555 1_555
H30A C42A 1_555 1_555
C43A C14A 1_555 1_555
C44A C43A 1_555 1_555
H31A C44A 1_555 1_555
C45A C44A 1_555 1_555
C46A C45A 1_555 1_555
H32A C46A 1_555 1_555
C47A C46A 1_555 1_555
C48A C43A 1_555 1_555
H33A C48A 1_555 1_555
C49A C45A 1_555 1_555
C50A C49A 1_555 1_555
H34A C50A 1_555 1_555
H35A C50A 1_555 1_555
H36A C50A 1_555 1_555
C51A C49A 1_555 1_555
H37A C51A 1_555 1_555
H38A C51A 1_555 1_555
H39A C51A 1_555 1_555
C52A C49A 1_555 1_555
H40A C52A 1_555 1_555
H41A C52A 1_555 1_555
H42A C52A 1_555 1_555
C53A C47A 1_555 1_555
C54A C53A 1_555 1_555
H43A C54A 1_555 1_555
H44A C54A 1_555 1_555
H45A C54A 1_555 1_555
C55A C53A 1_555 1_555
H46A C55A 1_555 1_555
H47A C55A 1_555 1_555
H48A C55A 1_555 1_555
C56A C53A 1_555 1_555
H49A C56A 1_555 1_555
H50A C56A 1_555 1_555
H51A C56A 1_555 1_555
C8 C21 1_555 1_555
C13 C24 1_555 1_555
C17 C18 1_555 1_555
C19 C20 1_555 1_555
C21 C22 1_555 1_555
C22 C23 1_555 1_555
C23 C24 1_555 1_555
C29 C30 1_555 1_555
C38 C39 1_555 1_555
C47 C48 1_555 1_555
C61 C62 1_555 1_555
C75 C76 1_555 1_555
C2A C20A 1_555 1_555
C8A C21A 1_555 1_555
C13A C24A 1_555 1_555
C17A C18A 1_555 1_555
C19A C20A 1_555 1_555
C21A C22A 1_555 1_555
C22A C23A 1_555 1_555
C23A C24A 1_555 1_555
C29A C30A 1_555 1_555
C38A C39A 1_555 1_555
C47A C48A 1_555 1_555

#END
