
#######################################################################
#
#                 Cambridge Crystallographic Data Centre
#                                CCDC 
#
#######################################################################
#
# If this CIF has been generated from an entry in the Cambridge 
# Structural Database, then it will include bibliographic, chemical, 
# crystal, experimental, refinement or atomic coordinate data resulting 
# from the CCDC's data processing and validation procedures.
#
#######################################################################

data_LOGKID
_chemical_formula_moiety         'C31 H21 N5 O2,C2 H6 O1,H2 O1'
_chemical_name_systematic        
'Methyl 4-methyl-2,5-di(1,10-phenanthrolin-2-yl)-1H-pyrrole-3-carboxylate ethanol solvate monohydrate'
_symmetry_cell_setting           triclinic
_symmetry_space_group_name_H-M   'P -1'
_symmetry_Int_Tables_number      2
_space_group_name_Hall           '-P 1'
loop_
_symmetry_equiv_pos_site_id
_symmetry_equiv_pos_as_xyz
1 x,y,z
2 -x,-y,-z
_cell_length_a                   9.1050(18)
_cell_length_b                   9.896(2)
_cell_length_c                   15.588(3)
_cell_angle_alpha                81.54(3)
_cell_angle_beta                 74.24(3)
_cell_angle_gamma                82.38(3)
_cell_volume                     1330.67
_exptl_crystal_colour            yellow
_exptl_crystal_description       'Thin plates'
_cell_formula_units_Z            2
loop_
_atom_site_label
_atom_site_type_symbol
_atom_site_fract_x
_atom_site_fract_y
_atom_site_fract_z
C1 C 0.1725(7) 0.0323(6) 0.3565(4)
H1 H 0.1514 -0.0528 0.3937
H2 H 0.2793 0.0443 0.3450
H3 H 0.1473 0.0310 0.3007
C2 C 0.0786(8) 0.1478(7) 0.4032(4)
H4 H 0.0899 0.2345 0.3650
H5 H 0.1056 0.1550 0.4583
O1 O -0.0819(5) 0.1060(10) 0.4221(5)
H6 H -0.1014 0.0992 0.3746
O3 O 1.5143(2) 0.3344(2) 0.03329(15)
O4 O 1.5524(2) 0.4327(2) 0.14670(14)
N1 N 1.0530(3) 0.3956(3) 0.21048(17)
H13 H 0.9641 0.3653 0.2265
N2 N 0.8212(3) 0.5631(3) 0.30615(17)
N3 N 0.5382(3) 0.4660(3) 0.35764(18)
N4 N 0.7321(3) 0.0818(3) 0.19568(19)
N5 N 1.0244(3) 0.1597(3) 0.15123(17)
C5 C 1.1787(3) 0.3309(3) 0.1598(2)
C6 C 1.2999(3) 0.4146(3) 0.1508(2)
C7 C 1.2398(3) 0.5307(3) 0.1957(2)
C8 C 1.0836(4) 0.5170(3) 0.2339(2)
C9 C 0.9620(4) 0.6030(3) 0.2872(2)
C10 C 0.9878(4) 0.7241(3) 0.3191(2)
H14 H 1.0870 0.7478 0.3094
C11 C 0.8672(4) 0.8033(3) 0.3632(2)
H15 H 0.8835 0.8847 0.3808
C12 C 0.7181(4) 0.7654(3) 0.3829(2)
C13 C 0.5864(4) 0.8431(4) 0.4311(2)
H16 H 0.5982 0.9264 0.4481
C14 C 0.4460(4) 0.8000(4) 0.4528(2)
H17 H 0.3623 0.8541 0.4834
C15 C 0.4247(4) 0.6719(4) 0.4292(2)
C16 C 0.2817(4) 0.6192(4) 0.4536(2)
H18 H 0.1959 0.6693 0.4857
C17 C 0.2678(4) 0.4954(4) 0.4304(2)
H19 H 0.1732 0.4600 0.4457
C18 C 0.4010(4) 0.4221(4) 0.3827(2)
H20 H 0.3912 0.3368 0.3678
C19 C 0.5523(4) 0.5905(3) 0.3798(2)
C20 C 0.7015(4) 0.6390(3) 0.3549(2)
C21 C 0.5914(4) 0.0433(4) 0.2169(3)
H21 H 0.5107 0.1023 0.2456
C22 C 0.5584(4) -0.0822(4) 0.1983(3)
H22 H 0.4582 -0.1059 0.2147
C23 C 0.6761(4) -0.1688(3) 0.1556(2)
H23 H 0.6565 -0.2525 0.1427
C24 C 0.8268(4) -0.1314(3) 0.1310(2)
C25 C 0.9564(4) -0.2178(3) 0.0856(2)
H24 H 0.9412 -0.3015 0.0706
C26 C 1.0977(4) -0.1789(3) 0.0649(2)
H25 H 1.1795 -0.2364 0.0356
C27 C 1.1268(4) -0.0520(3) 0.0865(2)
C28 C 1.2745(4) -0.0063(3) 0.0667(2)
H26 H 1.3590 -0.0613 0.0377
C29 C 1.2956(4) 0.1145(3) 0.0888(2)
H27 H 1.3937 0.1422 0.0760
C30 C 1.1674(3) 0.1989(3) 0.1316(2)
C31 C 1.0045(4) 0.0383(3) 0.1301(2)
C32 C 0.8493(4) -0.0041(3) 0.1535(2)
C33 C 1.3277(4) 0.6511(3) 0.1936(2)
H28 H 1.2635 0.7351 0.1873
H29 H 1.4169 0.6505 0.1437
H30 H 1.3586 0.6440 0.2484
C34 C 1.4633(4) 0.3868(3) 0.1023(2)
C35 C 1.7145(4) 0.4273(3) 0.1036(2)
H31 H 1.7576 0.3334 0.1040
H32 H 1.7639 0.4754 0.1354
H33 H 1.7298 0.4697 0.0428
O5 O 0.7842(3) 0.2650(3) 0.30404(19)
H34 H 0.773(6) 0.222(5) 0.261(4)
H35 H 0.727(7) 0.323(6) 0.312(4)
C3? C 0.1679(15) 0.1715(15) 0.3914(9)
H7? H 0.1482 0.2545 0.3542
H8? H 0.2742 0.1380 0.3724
H9? H 0.1438 0.1897 0.4527
C4? C 0.0725(12) 0.0679(13) 0.3834(8)
H10? H 0.0958 -0.0200 0.4161
H11? H 0.0831 0.0563 0.3213
O2? O -0.0862(11) 0.135(2) 0.4269(14)
H12? H -0.1011 0.2099 0.3992
loop_
_geom_bond_atom_site_label_1
_geom_bond_atom_site_label_2
_geom_bond_site_symmetry_1
_geom_bond_site_symmetry_2
C1 H1 1_555 1_555
H2 C1 1_555 1_555
H3 C1 1_555 1_555
C2 C1 1_555 1_555
H4 C2 1_555 1_555
H5 C2 1_555 1_555
O1 C2 1_555 1_555
H6 O1 1_555 1_555
O3 C34 1_555 1_555
O4 C34 1_555 1_555
N1 H13 1_555 1_555
N2 C9 1_555 1_555
N3 C18 1_555 1_555
N4 C21 1_555 1_555
N5 C30 1_555 1_555
C5 N1 1_555 1_555
C6 C5 1_555 1_555
C7 C6 1_555 1_555
C8 N1 1_555 1_555
C9 C8 1_555 1_555
C10 C9 1_555 1_555
H14 C10 1_555 1_555
C11 C10 1_555 1_555
H15 C11 1_555 1_555
C12 C11 1_555 1_555
C13 C12 1_555 1_555
H16 C13 1_555 1_555
C14 C13 1_555 1_555
H17 C14 1_555 1_555
C15 C14 1_555 1_555
C16 C15 1_555 1_555
H18 C16 1_555 1_555
C17 C16 1_555 1_555
H19 C17 1_555 1_555
C18 C17 1_555 1_555
H20 C18 1_555 1_555
C19 N3 1_555 1_555
C20 N2 1_555 1_555
C21 H21 1_555 1_555
C22 C21 1_555 1_555
H22 C22 1_555 1_555
C23 C22 1_555 1_555
H23 C23 1_555 1_555
C24 C23 1_555 1_555
C25 C24 1_555 1_555
H24 C25 1_555 1_555
C26 C25 1_555 1_555
H25 C26 1_555 1_555
C27 C26 1_555 1_555
C28 C27 1_555 1_555
H26 C28 1_555 1_555
C29 C28 1_555 1_555
H27 C29 1_555 1_555
C30 C5 1_555 1_555
C31 N5 1_555 1_555
C32 N4 1_555 1_555
C33 C7 1_555 1_555
H28 C33 1_555 1_555
H29 C33 1_555 1_555
H30 C33 1_555 1_555
C34 C6 1_555 1_555
C35 O4 1_555 1_555
H31 C35 1_555 1_555
H32 C35 1_555 1_555
H33 C35 1_555 1_555
O5 H34 1_555 1_555
H35 O5 1_555 1_555
C7 C8 1_555 1_555
C12 C20 1_555 1_555
C15 C19 1_555 1_555
C19 C20 1_555 1_555
C24 C32 1_555 1_555
C27 C31 1_555 1_555
C29 C30 1_555 1_555
C31 C32 1_555 1_555

#END
