
#######################################################################
#
#                 Cambridge Crystallographic Data Centre
#                                CCDC 
#
#######################################################################
#
# If this CIF has been generated from an entry in the Cambridge 
# Structural Database, then it will include bibliographic, chemical, 
# crystal, experimental, refinement or atomic coordinate data resulting 
# from the CCDC's data processing and validation procedures.
#
#######################################################################

data_LOGWUB
_chemical_formula_moiety         'C32 H23 N5'
_chemical_name_systematic        
6-Phenyl-4-(4-(2-(4-(1H-1,2,4-triazol-1-yl)phenyl)vinyl)phenyl)-2,2'-bipyridine
_symmetry_cell_setting           monoclinic
_symmetry_space_group_name_H-M   'P 21/c'
_symmetry_Int_Tables_number      14
_space_group_name_Hall           '-P 2ybc'
loop_
_symmetry_equiv_pos_site_id
_symmetry_equiv_pos_as_xyz
1 x,y,z
2 -x,1/2+y,1/2-z
3 -x,-y,-z
4 x,1/2-y,1/2+z
_cell_length_a                   9.574(5)
_cell_length_b                   48.010(5)
_cell_length_c                   11.378(5)
_cell_angle_alpha                90
_cell_angle_beta                 113.324(5)
_cell_angle_gamma                90
_cell_volume                     4802.49
_exptl_crystal_colour            white
_exptl_crystal_description       needle
_cell_formula_units_Z            8
loop_
_atom_site_label
_atom_site_type_symbol
_atom_site_fract_x
_atom_site_fract_y
_atom_site_fract_z
N1 N -0.1698(5) 0.18511(8) 0.5944(4)
N2 N 0.6803(5) -0.05451(9) 1.4284(4)
C1 C -0.0912(6) 0.16544(10) 0.5608(5)
C2 C -0.0013(6) 0.14467(10) 0.7707(4)
C3 C -0.0061(6) 0.14517(10) 0.6465(4)
H1 H 0.0475 0.1320 0.6212
C4 C -0.1637(6) 0.18452(9) 0.7147(4)
C5 C 0.6057(5) -0.03194(9) 1.3484(4)
C6 C 0.2382(6) 0.07975(10) 1.0332(5)
C7 C -0.0814(6) 0.16492(10) 0.8033(5)
H2 H -0.0799 0.1653 0.8855
C8 C 0.4681(6) 0.01384(11) 1.1927(5)
C9 C 0.0838(6) 0.12263(10) 0.8614(4)
C10 C -0.0984(6) 0.16753(11) 0.4280(5)
C11 C 0.3087(6) 0.05586(12) 1.1176(5)
H3 H 0.2785 0.0533 1.1851
C12 C -0.2524(6) 0.20673(10) 0.7442(5)
N3 N -0.2348(6) 0.20952(11) 0.8673(5)
C13 C 0.5831(6) -0.00082(11) 1.1791(5)
H4 H 0.6151 0.0045 1.1152
C14 C 0.4042(7) 0.03839(13) 1.1113(5)
H5 H 0.4388 0.0414 1.0466
C15 C 0.6534(6) -0.02306(11) 1.2552(5)
H6 H 0.7330 -0.0321 1.2439
C16 C -0.3494(6) 0.22390(11) 0.6514(5)
H7 H -0.3588 0.2220 0.5672
C17 C -0.0072(7) 0.15176(12) 0.3893(5)
H8 H 0.0578 0.1387 0.4445
C18 C 0.2069(6) 0.10938(10) 0.8535(5)
H9 H 0.2388 0.1147 0.7895
C19 C 0.2852(6) 0.08842(11) 0.9368(5)
H10 H 0.3689 0.0801 0.9291
C20 C 0.4854(6) -0.01863(11) 1.3624(5)
H11 H 0.4499 -0.0247 1.4232
N4 N 0.6412(7) -0.06460(12) 1.5223(6)
C21 C -0.4324(7) 0.24374(12) 0.6815(6)
H12 H -0.4989 0.2552 0.6181
C22 C 0.0422(6) 0.11427(11) 0.9597(5)
H13 H -0.0385 0.1232 0.9699
C23 C 0.1174(6) 0.09306(11) 1.0430(5)
H14 H 0.0850 0.0878 1.1068
C24 C 0.7950(8) -0.06941(12) 1.4263(6)
H15 H 0.8427 -0.0665 1.3703
C25 C 0.4187(6) 0.00384(12) 1.2845(5)
H16 H 0.3373 0.0127 1.2939
C26 C -0.4167(8) 0.24655(12) 0.8060(7)
H17 H -0.4721 0.2598 0.8291
C27 C -0.1911(8) 0.18681(13) 0.3451(6)
H18 H -0.2517 0.1982 0.3718
C28 C -0.1044(9) 0.17431(15) 0.1859(6)
H19 H -0.1043 0.1767 0.1048
C29 C -0.3186(8) 0.22957(14) 0.8930(6)
H20 H -0.3069 0.2317 0.9776
C30 C -0.1965(9) 0.18977(15) 0.2233(6)
H21 H -0.2635 0.2024 0.1669
N5 N 0.8330(9) -0.08906(13) 1.5151(7)
C31 C -0.0113(9) 0.15516(16) 0.2679(6)
H22 H 0.0508 0.1442 0.2414
C32 C 0.7379(11) -0.08505(14) 1.5729(8)
H23 H 0.7397 -0.0956 1.6419
C33 C 0.5030(5) 0.14337(10) 0.7462(4)
N6 N 0.3375(5) 0.18400(8) 0.5676(4)
C34 C 0.5860(5) 0.12172(9) 0.8409(4)
C35 C 0.3395(5) 0.18385(9) 0.6862(5)
C36 C 0.7371(5) 0.07911(10) 1.0174(4)
N7 N 1.1742(5) -0.05285(9) 1.4356(4)
C37 C 0.9488(5) 0.01187(10) 1.1809(5)
C38 C 0.9605(6) -0.01481(11) 1.1379(5)
H24 H 0.9178 -0.0184 1.0504
C39 C 0.6393(6) 0.12601(11) 0.9706(5)
H25 H 0.6246 0.1433 1.0009
C40 C 1.0988(5) -0.03091(10) 1.3490(5)
C41 C 0.4211(6) 0.16410(10) 0.7768(5)
H26 H 0.4210 0.1647 0.8585
C42 C 1.0331(6) -0.03602(11) 1.2204(5)
H27 H 1.0374 -0.0537 1.1891
C43 C 0.8634(6) 0.03349(11) 1.0883(5)
H28 H 0.8361 0.0291 1.0025
C44 C 0.4183(6) 0.16435(10) 0.5366(5)
C45 C 0.5003(6) 0.14423(10) 0.6240(4)
H29 H 0.5548 0.1310 0.5998
C46 C 0.7136(6) 0.10553(11) 1.0568(5)
H30 H 0.7492 0.1094 1.1439
C47 C 0.6811(6) 0.07466(10) 0.8866(5)
H31 H 0.6932 0.0572 0.8563
C48 C 0.8212(6) 0.05803(11) 1.1111(5)
H32 H 0.8476 0.0626 1.1967
C49 C 0.4097(6) 0.16562(11) 0.4038(5)
C50 C 0.6081(6) 0.09527(11) 0.8000(5)
H33 H 0.5729 0.0915 0.7128
N8 N 0.2621(6) 0.20877(10) 0.8378(5)
C51 C 0.2511(6) 0.20595(10) 0.7138(5)
C52 C 1.0933(6) -0.00471(11) 1.3949(5)
H34 H 1.1391 -0.0012 1.4823
C53 C 1.0194(6) 0.01657(11) 1.3108(5)
H35 H 1.0174 0.0343 1.3427
C54 C 0.1530(7) 0.22331(11) 0.6193(6)
H36 H 0.1410 0.2210 0.5347
C55 C 0.4686(8) 0.14428(13) 0.3579(5)
H37 H 0.5191 0.1296 0.4108
C56 C 0.0738(7) 0.24396(12) 0.6501(7)
H38 H 0.0114 0.2559 0.5870
N9 N 1.2473(7) -0.04996(12) 1.5611(6)
C57 C 0.3388(8) 0.18692(13) 0.3243(5)
H39 H 0.2995 0.2015 0.3554
C58 C 0.0869(7) 0.24682(12) 0.7726(6)
H40 H 0.0331 0.2606 0.7947
C59 C 0.1801(8) 0.22916(14) 0.8619(6)
H41 H 0.1882 0.2312 0.9457
N10 N 1.2652(7) -0.09303(12) 1.5126(6)
C60 C 0.3235(9) 0.18745(17) 0.1977(6)
H42 H 0.2765 0.2025 0.1457
C61 C 1.1846(8) -0.07905(12) 1.4085(6)
H43 H 1.1410 -0.0867 1.3268
C62 C 0.3762(9) 0.16626(18) 0.1503(6)
H44 H 0.3621 0.1660 0.0646
C63 C 0.4517(10) 0.14500(18) 0.2315(7)
H45 H 0.4927 0.1306 0.2004
C64 C 1.2991(8) -0.07468(13) 1.6100(7)
H46 H 1.3502 -0.0787 1.6965
loop_
_geom_bond_atom_site_label_1
_geom_bond_atom_site_label_2
_geom_bond_site_symmetry_1
_geom_bond_site_symmetry_2
N1 C1 1_555 1_555
N2 C5 1_555 1_555
C1 C3 1_555 1_555
C2 C3 1_555 1_555
C3 H1 1_555 1_555
C4 N1 1_555 1_555
C5 C15 1_555 1_555
C6 C11 1_555 1_555
C7 C2 1_555 1_555
H2 C7 1_555 1_555
C8 C13 1_555 1_555
C9 C2 1_555 1_555
C10 C1 1_555 1_555
C11 H3 1_555 1_555
C12 C4 1_555 1_555
N3 C12 1_555 1_555
C13 H4 1_555 1_555
C14 C8 1_555 1_555
H5 C14 1_555 1_555
C15 C13 1_555 1_555
H6 C15 1_555 1_555
C16 C12 1_555 1_555
H7 C16 1_555 1_555
C17 C10 1_555 1_555
H8 C17 1_555 1_555
C18 C9 1_555 1_555
H9 C18 1_555 1_555
C19 C6 1_555 1_555
H10 C19 1_555 1_555
C20 C5 1_555 1_555
H11 C20 1_555 1_555
N4 N2 1_555 1_555
C21 C16 1_555 1_555
H12 C21 1_555 1_555
C22 C9 1_555 1_555
H13 C22 1_555 1_555
C23 C6 1_555 1_555
H14 C23 1_555 1_555
C24 N2 1_555 1_555
H15 C24 1_555 1_555
C25 C8 1_555 1_555
H16 C25 1_555 1_555
C26 C21 1_555 1_555
H17 C26 1_555 1_555
C27 C10 1_555 1_555
H18 C27 1_555 1_555
C28 H19 1_555 1_555
C29 N3 1_555 1_555
H20 C29 1_555 1_555
C30 C27 1_555 1_555
H21 C30 1_555 1_555
N5 C24 1_555 1_555
C31 C17 1_555 1_555
H22 C31 1_555 1_555
C32 N4 1_555 1_555
H23 C32 1_555 1_555
C33 C34 1_555 1_555
N6 C35 1_555 1_555
C34 C39 1_555 1_555
C35 C41 1_555 1_555
C36 C46 1_555 1_555
N7 C40 1_555 1_555
C37 C38 1_555 1_555
C38 H24 1_555 1_555
C39 H25 1_555 1_555
C40 C42 1_555 1_555
C41 C33 1_555 1_555
H26 C41 1_555 1_555
C42 C38 1_555 1_555
H27 C42 1_555 1_555
C43 C37 1_555 1_555
H28 C43 1_555 1_555
C44 N6 1_555 1_555
C45 C33 1_555 1_555
H29 C45 1_555 1_555
C46 C39 1_555 1_555
H30 C46 1_555 1_555
C47 C36 1_555 1_555
H31 C47 1_555 1_555
C48 C36 1_555 1_555
H32 C48 1_555 1_555
C49 C44 1_555 1_555
C50 C34 1_555 1_555
H33 C50 1_555 1_555
N8 C51 1_555 1_555
C51 C35 1_555 1_555
C52 C40 1_555 1_555
H34 C52 1_555 1_555
C53 C37 1_555 1_555
H35 C53 1_555 1_555
C54 C51 1_555 1_555
H36 C54 1_555 1_555
C55 C49 1_555 1_555
H37 C55 1_555 1_555
C56 C54 1_555 1_555
H38 C56 1_555 1_555
N9 N7 1_555 1_555
C57 C49 1_555 1_555
H39 C57 1_555 1_555
C58 C56 1_555 1_555
H40 C58 1_555 1_555
C59 N8 1_555 1_555
H41 C59 1_555 1_555
N10 C61 1_555 1_555
C60 C57 1_555 1_555
H42 C60 1_555 1_555
C61 N7 1_555 1_555
H43 C61 1_555 1_555
C62 C60 1_555 1_555
H44 C62 1_555 1_555
C63 C55 1_555 1_555
H45 C63 1_555 1_555
C64 N9 1_555 1_555
H46 C64 1_555 1_555
C4 C7 1_555 1_555
C11 C14 1_555 1_555
C18 C19 1_555 1_555
C20 C25 1_555 1_555
C22 C23 1_555 1_555
C26 C29 1_555 1_555
C28 C30 1_555 1_555
C28 C31 1_555 1_555
N5 C32 1_555 1_555
C43 C48 1_555 1_555
C44 C45 1_555 1_555
C47 C50 1_555 1_555
C52 C53 1_555 1_555
C58 C59 1_555 1_555
N10 C64 1_555 1_555
C62 C63 1_555 1_555

#END
