
#######################################################################
#
#                 Cambridge Crystallographic Data Centre
#                                CCDC 
#
#######################################################################
#
# If this CIF has been generated from an entry in the Cambridge 
# Structural Database, then it will include bibliographic, chemical, 
# crystal, experimental, refinement or atomic coordinate data resulting 
# from the CCDC's data processing and validation procedures.
#
#######################################################################

data_LOGWEL
_chemical_formula_moiety         'C38 H26 N2'
_chemical_name_systematic        
4-(4-(2-(9-Anthryl)vinyl)phenyl)-6-phenyl-2,2'-bipyridine
_symmetry_cell_setting           monoclinic
_symmetry_space_group_name_H-M   'P 21/c'
_symmetry_Int_Tables_number      14
_space_group_name_Hall           '-P 2ybc'
loop_
_symmetry_equiv_pos_site_id
_symmetry_equiv_pos_as_xyz
1 x,y,z
2 -x,1/2+y,1/2-z
3 -x,-y,-z
4 x,1/2-y,1/2+z
_cell_length_a                   17.023(5)
_cell_length_b                   19.277(5)
_cell_length_c                   8.166(5)
_cell_angle_alpha                90
_cell_angle_beta                 90.696(5)
_cell_angle_gamma                90
_cell_volume                     2679.49
_exptl_crystal_colour            yellow
_exptl_crystal_description       plate
_cell_formula_units_Z            4
loop_
_atom_site_label
_atom_site_type_symbol
_atom_site_fract_x
_atom_site_fract_y
_atom_site_fract_z
N1 N 0.92151(12) 0.59945(10) -0.0907(3)
C1 C 0.52020(15) 0.17670(12) 0.2107(3)
C2 C 0.67968(15) 0.31722(12) 0.1547(3)
C3 C 0.77556(14) 0.42990(12) 0.0598(3)
C4 C 0.65218(15) 0.36816(12) 0.0475(3)
H1 H 0.6010 0.3654 0.0069
C5 C 0.69941(14) 0.42260(12) 0.0005(3)
H2 H 0.6796 0.4553 -0.0730
C6 C 0.51499(16) 0.04962(13) 0.2369(3)
C7 C 0.55111(15) 0.11107(12) 0.1704(3)
C8 C 0.82634(14) 0.48852(12) 0.0067(3)
C9 C 0.93247(14) 0.56897(13) 0.0556(3)
C10 C 0.45119(15) 0.18183(13) 0.3046(3)
N2 N 0.80226(15) 0.58243(13) -0.4579(3)
C11 C 0.99609(15) 0.59776(14) 0.1620(4)
C12 C 0.81590(15) 0.52003(12) -0.1440(3)
H3 H 0.7766 0.5045 -0.2152
C13 C 0.85410(16) 0.61009(13) -0.3506(3)
C14 C 0.63381(16) 0.25625(12) 0.2004(3)
H4 H 0.6597 0.2240 0.2662
C15 C 0.88590(14) 0.51395(12) 0.1070(3)
H5 H 0.8948 0.4941 0.2094
C16 C 0.41545(16) 0.12050(13) 0.3668(3)
C17 C 0.86401(15) 0.57501(13) -0.1897(3)
C18 C 0.80222(16) 0.38001(14) 0.1686(4)
H6 H 0.8528 0.3836 0.2122
C19 C 0.44918(17) 0.05679(14) 0.3327(3)
H7 H 0.4265 0.0171 0.3763
C20 C 0.56101(15) 0.24119(13) 0.1607(3)
H8 H 0.5331 0.2730 0.0971
C21 C 0.75552(16) 0.32515(13) 0.2140(4)
H9 H 0.7756 0.2924 0.2869
C22 C 0.54783(18) -0.01648(14) 0.1986(4)
H10 H 0.5253 -0.0562 0.2424
C23 C 0.61648(17) 0.10111(15) 0.0650(3)
H11 H 0.6405 0.1398 0.0193
C24 C 0.41550(18) 0.24674(14) 0.3453(4)
H12 H 0.4381 0.2877 0.3085
C25 C 1.01953(18) 0.56609(16) 0.3016(4)
H13 H 0.9952 0.5251 0.3327
C26 C 0.64468(18) 0.03738(16) 0.0293(4)
H14 H 0.6865 0.0328 -0.0421
C27 C 0.89570(19) 0.66947(15) -0.3893(4)
H15 H 0.9326 0.6877 -0.3162
C28 C 0.34712(17) 0.12713(16) 0.4649(4)
H16 H 0.3242 0.0872 0.5070
C29 C 0.8816(2) 0.70111(17) -0.5382(4)
H17 H 0.9083 0.7416 -0.5644
C30 C 0.31490(18) 0.18867(18) 0.4986(4)
H18 H 0.2701 0.1913 0.5624
C31 C 0.34948(19) 0.24987(16) 0.4362(4)
H19 H 0.3267 0.2927 0.4579
C32 C 0.79112(19) 0.61441(17) -0.6025(4)
H20 H 0.7555 0.5951 -0.6767
C33 C 0.61040(19) -0.02286(16) 0.1007(4)
H21 H 0.6313 -0.0665 0.0797
C34 C 0.8293(2) 0.67391(16) -0.6468(4)
H22 H 0.8197 0.6949 -0.7476
C35 C 1.0333(2) 0.65800(18) 0.1186(5)
H23 H 1.0196 0.6800 0.0210
C36 C 1.0786(2) 0.5929(2) 0.3993(4)
H24 H 1.0939 0.5698 0.4944
C37 C 1.0904(3) 0.6860(2) 0.2175(6)
H25 H 1.1131 0.7282 0.1892
C38 C 1.1145(2) 0.6530(2) 0.3571(6)
H26 H 1.1547 0.6713 0.4220
loop_
_geom_bond_atom_site_label_1
_geom_bond_atom_site_label_2
_geom_bond_site_symmetry_1
_geom_bond_site_symmetry_2
N1 C9 1_555 1_555
C1 C7 1_555 1_555
C2 C4 1_555 1_555
C3 C5 1_555 1_555
C4 H1 1_555 1_555
C5 C4 1_555 1_555
H2 C5 1_555 1_555
C6 C7 1_555 1_555
C7 C23 1_555 1_555
C8 C3 1_555 1_555
C9 C11 1_555 1_555
C10 C1 1_555 1_555
N2 C13 1_555 1_555
C11 C25 1_555 1_555
C12 C8 1_555 1_555
H3 C12 1_555 1_555
C13 C17 1_555 1_555
C14 C2 1_555 1_555
H4 C14 1_555 1_555
C15 C8 1_555 1_555
H5 C15 1_555 1_555
C16 C10 1_555 1_555
C17 N1 1_555 1_555
C18 C3 1_555 1_555
H6 C18 1_555 1_555
C19 C6 1_555 1_555
H7 C19 1_555 1_555
C20 C1 1_555 1_555
H8 C20 1_555 1_555
C21 C2 1_555 1_555
H9 C21 1_555 1_555
C22 C6 1_555 1_555
H10 C22 1_555 1_555
C23 H11 1_555 1_555
C24 C10 1_555 1_555
H12 C24 1_555 1_555
C25 H13 1_555 1_555
C26 C23 1_555 1_555
H14 C26 1_555 1_555
C27 C13 1_555 1_555
H15 C27 1_555 1_555
C28 C16 1_555 1_555
H16 C28 1_555 1_555
C29 C27 1_555 1_555
H17 C29 1_555 1_555
C30 C28 1_555 1_555
H18 C30 1_555 1_555
C31 C24 1_555 1_555
H19 C31 1_555 1_555
C32 N2 1_555 1_555
H20 C32 1_555 1_555
C33 C22 1_555 1_555
H21 C33 1_555 1_555
C34 C29 1_555 1_555
H22 C34 1_555 1_555
C35 C11 1_555 1_555
H23 C35 1_555 1_555
C36 C25 1_555 1_555
H24 C36 1_555 1_555
C37 C35 1_555 1_555
H25 C37 1_555 1_555
C38 C36 1_555 1_555
H26 C38 1_555 1_555
C9 C15 1_555 1_555
C12 C17 1_555 1_555
C14 C20 1_555 1_555
C16 C19 1_555 1_555
C18 C21 1_555 1_555
C26 C33 1_555 1_555
C30 C31 1_555 1_555
C32 C34 1_555 1_555
C37 C38 1_555 1_555

#END
