
#######################################################################
#
#                 Cambridge Crystallographic Data Centre
#                                CCDC 
#
#######################################################################
#
# If this CIF has been generated from an entry in the Cambridge 
# Structural Database, then it will include bibliographic, chemical, 
# crystal, experimental, refinement or atomic coordinate data resulting 
# from the CCDC's data processing and validation procedures.
#
#######################################################################

data_LOHBIV
_chemical_formula_moiety         'C67 H62 N2 S1'
_chemical_name_systematic        
"5,5,10,10,15,15-hexaethyl-N,N,N',N'-tetraphenyl-12-(2-thienyl)-10,15-dihydro-5H-diindeno[1,2-a:1',2'-c]fluorene-2,7-diamine unknown solvate"
_symmetry_cell_setting           monoclinic
_symmetry_space_group_name_H-M   'P 21/c'
_symmetry_Int_Tables_number      14
_space_group_name_Hall           '-P 2ybc'
loop_
_symmetry_equiv_pos_site_id
_symmetry_equiv_pos_as_xyz
1 x,y,z
2 -x,1/2+y,1/2-z
3 -x,-y,-z
4 x,1/2-y,1/2+z
_cell_length_a                   10.0396(11)
_cell_length_b                   19.2589(16)
_cell_length_c                   30.407(2)
_cell_angle_alpha                90
_cell_angle_beta                 99.1940(10)
_cell_angle_gamma                90
_cell_volume                     5803.71
_cell_formula_units_Z            4
loop_
_atom_site_label
_atom_site_type_symbol
_atom_site_fract_x
_atom_site_fract_y
_atom_site_fract_z
S1 S 1.0691(16) 0.2986(8) 0.3113(4)
N1 N 0.5007(4) 0.7106(2) 0.03363(13)
N2 N 0.0586(4) 0.7340(3) 0.38113(15)
C1 C 0.5882(4) 0.5467(2) 0.28288(15)
C2 C 0.6218(4) 0.5543(2) 0.23926(14)
C3 C 0.5508(4) 0.6029(2) 0.21041(14)
C4 C 0.4522(4) 0.64510(19) 0.22505(14)
C5 C 0.4170(4) 0.63769(19) 0.26776(15)
C6 C 0.4867(4) 0.5866(2) 0.29706(14)
C7 C 0.6819(4) 0.4918(2) 0.30667(15)
C8 C 0.6951(4) 0.4616(2) 0.34912(14)
H1 H 0.6370 0.4745 0.3687
C9 C 0.7944(5) 0.4128(2) 0.36186(14)
H2 H 0.8026 0.3933 0.3901
C10 C 0.8814(4) 0.3924(2) 0.33371(17)
C11 C 0.8699(4) 0.4219(2) 0.29096(15)
H3 H 0.9280 0.4086 0.2715
C12 C 0.7705(4) 0.4712(2) 0.27825(14)
C13 C 0.7405(4) 0.5068(2) 0.23308(13)
C14 C 0.7015(4) 0.44888(19) 0.19761(13)
H4 H 0.6900 0.4698 0.1682
H5 H 0.7756 0.4161 0.1995
C15 C 0.5724(4) 0.4089(2) 0.20249(14)
H6 H 0.5832 0.3870 0.2312
H7 H 0.5555 0.3742 0.1796
H8 H 0.4976 0.4406 0.1997
C16 C 0.8656(4) 0.5471(2) 0.22422(14)
H9 H 0.9389 0.5143 0.2240
H10 H 0.8459 0.5674 0.1947
C17 C 0.9138(4) 0.6046(2) 0.25749(14)
H11 H 0.8428 0.6380 0.2577
H12 H 0.9911 0.6271 0.2490
H13 H 0.9378 0.5850 0.2867
C18 C 0.9822(5) 0.3373(2) 0.3478(2)
C19 C 1.040(3) 0.3126(17) 0.3904(9)
H14 H 1.0269 0.3352 0.4165
C20 C 1.1178(6) 0.2512(3) 0.3911(2)
H15 H 1.1431 0.2214 0.4150
C21 C 1.1476(6) 0.2449(3) 0.3495(2)
H16 H 1.2091 0.2121 0.3426
C22 C 0.5571(4) 0.6218(2) 0.16339(14)
C23 C 0.6294(4) 0.59786(19) 0.13083(15)
H17 H 0.6913 0.5620 0.1376
C24 C 0.6103(4) 0.6268(2) 0.08834(14)
H18 H 0.6597 0.6099 0.0673
C25 C 0.5185(5) 0.6805(2) 0.07679(16)
C26 C 0.4474(5) 0.7039(2) 0.10944(15)
H19 H 0.3854 0.7397 0.1026
C27 C 0.4658(4) 0.6757(2) 0.15170(15)
C28 C 0.3898(4) 0.6958(2) 0.18889(14)
C29 C 0.2381(4) 0.6838(2) 0.17367(13)
H20 H 0.1901 0.6993 0.1971
H21 H 0.2087 0.7125 0.1477
C30 C 0.1981(4) 0.6090(2) 0.16216(15)
H22 H 0.2467 0.5924 0.1395
H23 H 0.1029 0.6067 0.1514
H24 H 0.2194 0.5806 0.1883
C31 C 0.4217(5) 0.7722(2) 0.20143(13)
H25 H 0.3864 0.8010 0.1761
H26 H 0.3741 0.7846 0.2257
C32 C 0.5693(5) 0.7889(2) 0.21529(17)
H27 H 0.6068 0.7592 0.2395
H28 H 0.5788 0.8365 0.2247
H29 H 0.6163 0.7818 0.1905
C33 C 0.5037(6) 0.6693(3) -0.00379(18)
C34 C 0.5622(7) 0.6924(3) -0.0375(2)
H30 H 0.5984 0.7370 -0.0358
C35 C 0.5712(7) 0.6522(4) -0.0750(2)
H31 H 0.6119 0.6695 -0.0981
C36 C 0.5181(8) 0.5861(4) -0.0771(2)
H32 H 0.5262 0.5574 -0.1011
C37 C 0.4541(7) 0.5631(3) -0.0438(2)
H33 H 0.4148 0.5192 -0.0456
C38 C 0.4475(6) 0.6048(3) -0.00727(17)
H34 H 0.4036 0.5885 0.0154
C39 C 0.4637(6) 0.7824(3) 0.02855(16)
C40 C 0.3469(6) 0.8018(3) 0.00100(16)
H35 H 0.2929 0.7682 -0.0150
C41 C 0.3096(6) 0.8713(4) -0.00297(18)
H36 H 0.2295 0.8841 -0.0209
C42 C 0.3901(8) 0.9202(3) 0.0194(2)
H37 H 0.3654 0.9668 0.0169
C43 C 0.5079(6) 0.9012(3) 0.04567(18)
H38 H 0.5643 0.9351 0.0604
C44 C 0.5440(5) 0.8322(3) 0.05062(15)
H39 H 0.6234 0.8197 0.0691
C45 C 0.3193(4) 0.6718(2) 0.29159(14)
C46 C 0.2284(4) 0.7264(2) 0.28067(14)
H40 H 0.2242 0.7494 0.2536
C47 C 0.1445(4) 0.7460(2) 0.31043(17)
H41 H 0.0843 0.7824 0.3027
C48 C 0.1465(5) 0.7135(2) 0.35163(17)
C49 C 0.2419(4) 0.6612(2) 0.36282(14)
H42 H 0.2496 0.6397 0.3905
C50 C 0.3250(4) 0.6412(2) 0.33313(15)
C51 C 0.4306(4) 0.5850(2) 0.34137(15)
C52 C 0.5371(4) 0.6062(2) 0.38244(14)
H43 H 0.4918 0.6115 0.4081
H44 H 0.6024 0.5691 0.3889
C53 C 0.6102(5) 0.6721(2) 0.37588(16)
H45 H 0.6529 0.6681 0.3499
H46 H 0.6775 0.6806 0.4015
H47 H 0.5473 0.7100 0.3720
C54 C 0.3598(5) 0.5139(2) 0.34802(15)
H48 H 0.4285 0.4781 0.3529
H49 H 0.3195 0.5170 0.3749
C55 C 0.2513(5) 0.4908(2) 0.31007(16)
H50 H 0.1813 0.5253 0.3052
H51 H 0.2137 0.4474 0.3177
H52 H 0.2903 0.4852 0.2835
C56 C 0.0037(5) 0.6879(3) 0.41014(19)
C57 C -0.0150(5) 0.6177(3) 0.40087(17)
H53 H 0.0061 0.5996 0.3745
C58 C -0.0652(6) 0.5741(3) 0.4311(2)
H54 H -0.0743 0.5269 0.4248
C59 C -0.1005(6) 0.5984(4) 0.4688(2)
H55 H -0.1336 0.5688 0.4887
C60 C -0.0866(6) 0.6673(4) 0.47715(18)
H56 H -0.1134 0.6849 0.5028
C61 C -0.0342(5) 0.7125(3) 0.4491(2)
H57 H -0.0243 0.7593 0.4563
C62 C 0.028(6) 0.806(4) 0.3832(18)
C63 C -0.103(3) 0.8284(12) 0.3683(8)
H58 H -0.1714 0.7960 0.3598
C64 C -0.133(3) 0.8991(13) 0.3662(10)
H59 H -0.2184 0.9147 0.3536
C65 C -0.034(3) 0.9449(13) 0.3832(9)
H60 H -0.0560 0.9915 0.3856
C66 C 0.0988(18) 0.9248(9) 0.3969(5)
H61 H 0.1656 0.9576 0.4059
C67 C 0.1301(19) 0.8534(15) 0.3970(6)
H62 H 0.2181 0.8383 0.4063
C68? C 1.077(8) 0.301(4) 0.3259(19)
H63? H 1.0924 0.3141 0.2976
S2? S 1.0008(16) 0.3060(10) 0.3999(5)
C69? C -0.017(9) 0.797(6) 0.369(2)
C70? C 0.046(4) 0.860(2) 0.3806(10)
H64? H 0.1295 0.8611 0.3989
C71? C -0.017(6) 0.922(2) 0.3647(15)
H65? H 0.0261 0.9639 0.3721
C72? C -0.143(4) 0.9220(15) 0.3385(13)
H66? H -0.1812 0.9635 0.3269
C73? C -0.213(2) 0.8594(14) 0.3294(8)
H67? H -0.3026 0.8585 0.3152
C74? C -0.144(3) 0.7988(15) 0.3426(10)
H68? H -0.1847 0.7567 0.3334
loop_
_geom_bond_atom_site_label_1
_geom_bond_atom_site_label_2
_geom_bond_site_symmetry_1
_geom_bond_site_symmetry_2
S1 C18 1_555 1_555
N1 C25 1_555 1_555
N2 C48 1_555 1_555
C1 C2 1_555 1_555
C2 C3 1_555 1_555
C3 C4 1_555 1_555
C4 C5 1_555 1_555
C5 C6 1_555 1_555
C6 C1 1_555 1_555
C7 C1 1_555 1_555
C8 C7 1_555 1_555
H1 C8 1_555 1_555
C9 C8 1_555 1_555
H2 C9 1_555 1_555
C10 C9 1_555 1_555
C11 C10 1_555 1_555
H3 C11 1_555 1_555
C12 C7 1_555 1_555
C13 C2 1_555 1_555
C14 C13 1_555 1_555
H4 C14 1_555 1_555
H5 C14 1_555 1_555
C15 C14 1_555 1_555
H6 C15 1_555 1_555
H7 C15 1_555 1_555
H8 C15 1_555 1_555
C16 C13 1_555 1_555
H9 C16 1_555 1_555
H10 C16 1_555 1_555
C17 C16 1_555 1_555
H11 C17 1_555 1_555
H12 C17 1_555 1_555
H13 C17 1_555 1_555
C18 C10 1_555 1_555
C19 C18 1_555 1_555
H14 C19 1_555 1_555
C20 C19 1_555 1_555
H15 C20 1_555 1_555
C21 S1 1_555 1_555
H16 C21 1_555 1_555
C22 C3 1_555 1_555
C23 C22 1_555 1_555
H17 C23 1_555 1_555
C24 C23 1_555 1_555
H18 C24 1_555 1_555
C25 C24 1_555 1_555
C26 C25 1_555 1_555
H19 C26 1_555 1_555
C27 C22 1_555 1_555
C28 C4 1_555 1_555
C29 C28 1_555 1_555
H20 C29 1_555 1_555
H21 C29 1_555 1_555
C30 C29 1_555 1_555
H22 C30 1_555 1_555
H23 C30 1_555 1_555
H24 C30 1_555 1_555
C31 C28 1_555 1_555
H25 C31 1_555 1_555
H26 C31 1_555 1_555
C32 C31 1_555 1_555
H27 C32 1_555 1_555
H28 C32 1_555 1_555
H29 C32 1_555 1_555
C33 N1 1_555 1_555
C34 C33 1_555 1_555
H30 C34 1_555 1_555
C35 C34 1_555 1_555
H31 C35 1_555 1_555
C36 C35 1_555 1_555
H32 C36 1_555 1_555
C37 C36 1_555 1_555
H33 C37 1_555 1_555
C38 C33 1_555 1_555
H34 C38 1_555 1_555
C39 N1 1_555 1_555
C40 C39 1_555 1_555
H35 C40 1_555 1_555
C41 C40 1_555 1_555
H36 C41 1_555 1_555
C42 C41 1_555 1_555
H37 C42 1_555 1_555
C43 C42 1_555 1_555
H38 C43 1_555 1_555
C44 C39 1_555 1_555
H39 C44 1_555 1_555
C45 C5 1_555 1_555
C46 C45 1_555 1_555
H40 C46 1_555 1_555
C47 C46 1_555 1_555
H41 C47 1_555 1_555
C48 C47 1_555 1_555
C49 C48 1_555 1_555
H42 C49 1_555 1_555
C50 C45 1_555 1_555
C51 C6 1_555 1_555
C52 C51 1_555 1_555
H43 C52 1_555 1_555
H44 C52 1_555 1_555
C53 C52 1_555 1_555
H45 C53 1_555 1_555
H46 C53 1_555 1_555
H47 C53 1_555 1_555
C54 C51 1_555 1_555
H48 C54 1_555 1_555
H49 C54 1_555 1_555
C55 C54 1_555 1_555
H50 C55 1_555 1_555
H51 C55 1_555 1_555
H52 C55 1_555 1_555
C56 N2 1_555 1_555
C57 C56 1_555 1_555
H53 C57 1_555 1_555
C58 C57 1_555 1_555
H54 C58 1_555 1_555
C59 C58 1_555 1_555
H55 C59 1_555 1_555
C60 C59 1_555 1_555
H56 C60 1_555 1_555
C61 C56 1_555 1_555
H57 C61 1_555 1_555
C62 N2 1_555 1_555
C63 C62 1_555 1_555
H58 C63 1_555 1_555
C64 C63 1_555 1_555
H59 C64 1_555 1_555
C65 C64 1_555 1_555
H60 C65 1_555 1_555
C66 C65 1_555 1_555
H61 C66 1_555 1_555
C67 C62 1_555 1_555
H62 C67 1_555 1_555
C11 C12 1_555 1_555
C12 C13 1_555 1_555
C20 C21 1_555 1_555
C26 C27 1_555 1_555
C27 C28 1_555 1_555
C37 C38 1_555 1_555
C43 C44 1_555 1_555
C49 C50 1_555 1_555
C50 C51 1_555 1_555
C60 C61 1_555 1_555
C66 C67 1_555 1_555

#END
