
#######################################################################
#
#                 Cambridge Crystallographic Data Centre
#                                CCDC 
#
#######################################################################
#
# If this CIF has been generated from an entry in the Cambridge 
# Structural Database, then it will include bibliographic, chemical, 
# crystal, experimental, refinement or atomic coordinate data resulting 
# from the CCDC's data processing and validation procedures.
#
#######################################################################

data_LOHPOO
_chemical_name_common            
"2-(5-Methoxy-1H-indol-3-yl)-2-oxo-N-(8-oxo-9-(3,4,5-trimethoxyphenyl)-5,5a,6,8,8a,9-hexahydrofuro[3',4':6,7]naphtho[2,3-d][1,3]dioxol-5-yl)acetamide methanol solvate"
_chemical_formula_moiety         'C33 H30 N2 O10,C1 H4 O1'
_chemical_name_systematic        
'4-Desoxy-4\b-((5-methoxy-1H-indol-3-yl)oxalylamino)podophyllotoxin methanol solvate'
_chemical_properties_biological  
'antitumour agent. Shows cytotoxicity against MDR cancer cell lines'
_symmetry_cell_setting           monoclinic
_symmetry_space_group_name_H-M   'P 21'
_symmetry_Int_Tables_number      4
_space_group_name_Hall           'P 2yb'
loop_
_symmetry_equiv_pos_site_id
_symmetry_equiv_pos_as_xyz
1 x,y,z
2 -x,1/2+y,-z
_cell_length_a                   12.228(2)
_cell_length_b                   9.8360(16)
_cell_length_c                   26.667(5)
_cell_angle_alpha                90
_cell_angle_beta                 95.58(3)
_cell_angle_gamma                90
_cell_volume                     3192.16
_exptl_crystal_colour            yellow
_exptl_crystal_description       plate
_cell_formula_units_Z            4
_exptl_crystal_recrystallization_method methanol
loop_
_atom_site_label
_atom_site_type_symbol
_atom_site_fract_x
_atom_site_fract_y
_atom_site_fract_z
O1 O 0.9709(2) 0.2102(3) 0.43373(9)
O2 O 0.83051(16) 0.5566(2) 0.29071(8)
O3 O 0.56989(19) 0.5637(3) 0.22380(9)
O4 O 0.7776(2) 1.1791(3) 0.23313(9)
O5 O 0.89806(19) 1.2324(3) 0.17487(9)
O6 O 0.74319(19) 0.4426(2) 0.07044(9)
O7 O 0.8771(2) 0.5210(2) 0.02670(9)
O8 O 0.51000(18) 1.0135(3) -0.01957(8)
O9 O 0.59367(17) 0.9543(2) -0.10683(8)
O10 O 0.79144(17) 0.8430(3) -0.10779(8)
N1 N 0.5534(2) 0.3107(3) 0.34849(10)
H1 H 0.490(3) 0.275(4) 0.3584(14)
N2 N 0.7327(2) 0.6542(3) 0.20608(9)
H2 H 0.812(3) 0.671(4) 0.2177(13)
C1 C 1.0619(3) 0.2694(4) 0.41211(13)
H5 H 1.0601 0.2424 0.3767
H6 H 1.1306 0.2379 0.4304
H7 H 1.0576 0.3687 0.4144
C2 C 0.8683(3) 0.2420(3) 0.41280(12)
C3 C 0.7839(3) 0.1797(3) 0.43615(12)
H8 H 0.8015 0.1254 0.4653
C4 C 0.6750(3) 0.1962(3) 0.41739(12)
H9 H 0.6173 0.1532 0.4329
C5 C 0.6535(3) 0.2779(3) 0.37513(11)
C6 C 0.5696(3) 0.3946(3) 0.31033(11)
H10 H 0.5134 0.4301 0.2869
C7 C 0.6824(2) 0.4218(3) 0.31032(11)
C8 C 0.7367(2) 0.3440(3) 0.35189(10)
C9 C 0.8474(2) 0.3262(3) 0.37056(11)
H11 H 0.9052 0.3693 0.3552
C10 C 0.7340(2) 0.5197(3) 0.28133(10)
C11 C 0.6682(2) 0.5823(3) 0.23466(11)
C12 C 0.6859(2) 0.7245(3) 0.16045(11)
H12 H 0.6060 0.7400 0.1634
C13 C 0.6968(2) 0.6420(3) 0.11236(11)
H13 H 0.6432 0.6794 0.0851
C14 C 0.6835(3) 0.4872(4) 0.11279(13)
H14 H 0.7163 0.4479 0.1450
H15 H 0.6051 0.4610 0.1075
C15 C 0.8175(3) 0.5382(3) 0.05986(12)
C16 C 0.8111(2) 0.6562(3) 0.09543(10)
H16 H 0.8642 0.6368 0.1255
C17 C 0.8347(2) 0.8009(3) 0.07850(10)
H17 H 0.9144 0.8065 0.0732
C18 C 0.8143(2) 0.8956(3) 0.12187(11)
C19 C 0.8700(2) 1.0211(3) 0.12473(11)
H18 H 0.9181 1.0461 0.1004
C20 C 0.8522(2) 1.1066(3) 0.16423(12)
C21 C 0.8708(3) 1.2608(4) 0.22494(13)
H19 H 0.9334 1.2381 0.2499
H20 H 0.8531 1.3584 0.2284
C22 C 0.7809(3) 1.0735(3) 0.19899(12)
C23 C 0.7237(2) 0.9546(4) 0.19687(11)
H21 H 0.6733 0.9344 0.2208
C24 C 0.7416(2) 0.8628(3) 0.15812(10)
C25 C 0.7684(2) 0.8429(3) 0.02942(10)
C26 C 0.6673(2) 0.9084(3) 0.02973(11)
H22 H 0.6383 0.9271 0.0608
C27 C 0.6086(2) 0.9465(3) -0.01582(11)
C28 C 0.6521(2) 0.9191(3) -0.06129(11)
C29 C 0.7545(2) 0.8577(3) -0.06123(11)
C30 C 0.8123(2) 0.8184(3) -0.01594(11)
H23 H 0.8816 0.7748 -0.0160
C31 C 0.4672(3) 1.0519(5) 0.02636(14)
H24 H 0.4544 0.9702 0.0460
H25 H 0.3978 1.1008 0.0187
H26 H 0.5202 1.1109 0.0459
C32 C 0.6137(3) 1.0929(4) -0.12153(14)
H27 H 0.5877 1.1554 -0.0967
H28 H 0.5744 1.1109 -0.1547
H29 H 0.6927 1.1063 -0.1232
C33 C 0.9057(3) 0.8143(5) -0.10879(13)
H30 H 0.9491 0.8824 -0.0888
H31 H 0.9245 0.8170 -0.1437
H32 H 0.9218 0.7237 -0.0946
O11 O 1.10961(19) 0.6741(2) 0.06729(8)
O12 O 0.96392(17) 0.7624(2) 0.23470(8)
O13 O 1.0023(2) 1.0455(3) 0.31461(8)
O14 O 0.45644(19) 0.9379(3) 0.28103(9)
O15 O 0.39852(17) 0.7404(3) 0.31787(9)
O16 O 1.05011(18) 0.7382(3) 0.45386(8)
O17 O 0.97883(19) 0.5355(2) 0.47195(8)
O18 O 0.59318(19) 0.8892(2) 0.55775(8)
O19 O 0.61900(16) 0.6673(2) 0.61567(7)
O20 O 0.7020(2) 0.4377(2) 0.58168(8)
N3 N 1.2084(2) 1.0934(3) 0.19960(10)
H3 H 1.252(3) 1.166(4) 0.2089(14)
N4 N 0.8928(2) 0.8590(3) 0.31837(9)
H4 H 0.865(3) 0.788(4) 0.3026(13)
C34 C 1.1325(3) 0.6781(4) 0.01564(12)
H33 H 1.1113 0.7670 0.0012
H34 H 1.0906 0.6066 -0.0032
H35 H 1.2112 0.6634 0.0136
C35 C 1.1422(2) 0.7832(3) 0.09760(11)
C36 C 1.2157(2) 0.8833(3) 0.08386(12)
H36 H 1.2449 0.8779 0.0522
C37 C 1.2456(3) 0.9898(3) 0.11633(12)
H37 H 1.2959 1.0575 0.1076
C38 C 1.1995(2) 0.9946(3) 0.16239(11)
C39 C 1.1422(2) 1.0624(3) 0.23537(11)
H38 H 1.1337 1.1159 0.2644
C40 C 1.0877(2) 0.9400(3) 0.22359(11)
C41 C 1.1253(2) 0.8955(3) 0.17615(11)
C42 C 1.0986(2) 0.7857(3) 0.14365(11)
H39 H 1.0517 0.7148 0.1530
C43 C 1.0061(2) 0.8723(3) 0.24936(10)
C44 C 0.9674(2) 0.9361(3) 0.29783(10)
C45 C 0.8387(2) 0.9029(3) 0.36257(10)
H40 H 0.8402 1.0044 0.3644
C46 C 0.8942(2) 0.8449(3) 0.41195(11)
H41 H 0.8586 0.8860 0.4406
C47 C 1.0178(3) 0.8571(4) 0.42313(12)
H42 H 1.0542 0.8567 0.3916
H43 H 1.0375 0.9420 0.4418
C48 C 0.9684(3) 0.6421(3) 0.45032(11)
C49 C 0.8766(2) 0.6920(3) 0.41273(11)
H44 H 0.8944 0.6581 0.3791
C50 C 0.7568(2) 0.6525(3) 0.41697(10)
H45 H 0.7486 0.5558 0.4057
C51 C 0.6837(2) 0.7376(3) 0.37934(10)
C52 C 0.5740(2) 0.6926(3) 0.36810(11)
H46 H 0.5484 0.6129 0.3834
C53 C 0.5061(2) 0.7661(3) 0.33488(12)
C54 C 0.3728(4) 0.8367(6) 0.2790(2)
H47 H 0.3010 0.8796 0.2832
H48 H 0.3673 0.7906 0.2458
C55 C 0.5417(3) 0.8846(4) 0.31276(12)
C56 C 0.6461(2) 0.9325(3) 0.32251(11)
H49 H 0.6691 1.0140 0.3076
C57 C 0.7191(2) 0.8550(3) 0.35611(10)
C58 C 0.7206(2) 0.6588(3) 0.47014(11)
C59 C 0.6749(2) 0.7768(3) 0.48856(11)
H50 H 0.6664 0.8554 0.4679
C60 C 0.6418(2) 0.7796(3) 0.53700(11)
C61 C 0.6544(2) 0.6648(3) 0.56788(11)
C62 C 0.6964(2) 0.5457(3) 0.54896(11)
C63 C 0.7300(2) 0.5425(3) 0.50054(11)
H51 H 0.7595 0.4612 0.4881
C64 C 0.5741(3) 1.0045(3) 0.52584(13)
H52 H 0.6446 1.0426 0.5182
H53 H 0.5331 1.0732 0.5429
H54 H 0.5315 0.9770 0.4945
C65 C 0.7057(3) 0.6693(6) 0.65580(12)
H55 H 0.7580 0.5963 0.6508
H56 H 0.6748 0.6559 0.6880
H57 H 0.7435 0.7572 0.6561
C66 C 0.6889(3) 0.3055(3) 0.55972(13)
H58 H 0.6229 0.3040 0.5358
H59 H 0.6816 0.2382 0.5863
H60 H 0.7534 0.2837 0.5421
O21 O 0.3925(2) 0.2634(4) 0.18772(15)
H61 H 0.3869 0.3251 0.1659
C67 C 0.4991(4) 0.2072(5) 0.19056(18)
H62 H 0.5536 0.2796 0.1974
H63 H 0.5103 0.1631 0.1585
H64 H 0.5075 0.1399 0.2178
O22 O 0.1884(6) 0.3747(4) 0.24506(19)
H65 H 0.1301 0.3932 0.2579
C68 C 0.2343(10) 0.4948(7) 0.2278(3)
H66 H 0.1854 0.5715 0.2328
H67 H 0.2437 0.4859 0.1919
H68 H 0.3060 0.5108 0.2467
O23? O 0.0596(3) 0.4971(5) 0.3106(2)
H69? H 0.0792 0.4853 0.2816
C69? C 0.1315(5) 0.5923(8) 0.3374(3)
H70? H 0.1370 0.6743 0.3169
H71? H 0.2045 0.5516 0.3444
H72? H 0.1024 0.6164 0.3691
loop_
_geom_bond_atom_site_label_1
_geom_bond_atom_site_label_2
_geom_bond_site_symmetry_1
_geom_bond_site_symmetry_2
O1 C1 1_555 1_555
O2 C10 1_555 1_555
O3 C11 1_555 1_555
O4 C21 1_555 1_555
O5 C20 1_555 1_555
O6 C14 1_555 1_555
O7 C15 1_555 1_555
O8 C27 1_555 1_555
O9 C28 1_555 1_555
O10 C29 1_555 1_555
O11 C34 1_555 1_555
O12 C43 1_555 1_555
O13 C44 1_555 1_555
O14 C54 1_555 1_555
O15 C53 1_555 1_555
O16 C47 1_555 1_555
O17 C48 1_555 1_555
O18 C60 1_555 1_555
O19 C61 1_555 1_555
O20 C62 1_555 1_555
N1 H1 1_555 1_555
N2 H2 1_555 1_555
N3 H3 1_555 1_555
N4 H4 1_555 1_555
C1 H5 1_555 1_555
H6 C1 1_555 1_555
H7 C1 1_555 1_555
C2 O1 1_555 1_555
C3 C2 1_555 1_555
H8 C3 1_555 1_555
C4 C3 1_555 1_555
H9 C4 1_555 1_555
C5 N1 1_555 1_555
C6 N1 1_555 1_555
H10 C6 1_555 1_555
C7 C6 1_555 1_555
C8 C5 1_555 1_555
C9 C2 1_555 1_555
H11 C9 1_555 1_555
C10 C7 1_555 1_555
C11 N2 1_555 1_555
C12 N2 1_555 1_555
H12 C12 1_555 1_555
C13 C12 1_555 1_555
H13 C13 1_555 1_555
C14 C13 1_555 1_555
H14 C14 1_555 1_555
H15 C14 1_555 1_555
C15 O6 1_555 1_555
C16 C13 1_555 1_555
H16 C16 1_555 1_555
C17 C16 1_555 1_555
H17 C17 1_555 1_555
C18 C17 1_555 1_555
C19 C18 1_555 1_555
H18 C19 1_555 1_555
C20 C19 1_555 1_555
C21 O5 1_555 1_555
H19 C21 1_555 1_555
H20 C21 1_555 1_555
C22 O4 1_555 1_555
C23 C22 1_555 1_555
H21 C23 1_555 1_555
C24 C12 1_555 1_555
C25 C17 1_555 1_555
C26 C25 1_555 1_555
H22 C26 1_555 1_555
C27 C26 1_555 1_555
C28 C27 1_555 1_555
C29 C28 1_555 1_555
C30 C25 1_555 1_555
H23 C30 1_555 1_555
C31 O8 1_555 1_555
H24 C31 1_555 1_555
H25 C31 1_555 1_555
H26 C31 1_555 1_555
C32 O9 1_555 1_555
H27 C32 1_555 1_555
H28 C32 1_555 1_555
H29 C32 1_555 1_555
C33 O10 1_555 1_555
H30 C33 1_555 1_555
H31 C33 1_555 1_555
H32 C33 1_555 1_555
C34 H33 1_555 1_555
H34 C34 1_555 1_555
H35 C34 1_555 1_555
C35 O11 1_555 1_555
C36 C35 1_555 1_555
H36 C36 1_555 1_555
C37 C36 1_555 1_555
H37 C37 1_555 1_555
C38 N3 1_555 1_555
C39 N3 1_555 1_555
H38 C39 1_555 1_555
C40 C39 1_555 1_555
C41 C38 1_555 1_555
C42 C35 1_555 1_555
H39 C42 1_555 1_555
C43 C40 1_555 1_555
C44 N4 1_555 1_555
C45 N4 1_555 1_555
H40 C45 1_555 1_555
C46 C45 1_555 1_555
H41 C46 1_555 1_555
C47 C46 1_555 1_555
H42 C47 1_555 1_555
H43 C47 1_555 1_555
C48 O16 1_555 1_555
C49 C46 1_555 1_555
H44 C49 1_555 1_555
C50 C49 1_555 1_555
H45 C50 1_555 1_555
C51 C50 1_555 1_555
C52 C51 1_555 1_555
H46 C52 1_555 1_555
C53 C52 1_555 1_555
C54 O15 1_555 1_555
H47 C54 1_555 1_555
H48 C54 1_555 1_555
C55 O14 1_555 1_555
C56 C55 1_555 1_555
H49 C56 1_555 1_555
C57 C45 1_555 1_555
C58 C50 1_555 1_555
C59 C58 1_555 1_555
H50 C59 1_555 1_555
C60 C59 1_555 1_555
C61 C60 1_555 1_555
C62 C61 1_555 1_555
C63 C58 1_555 1_555
H51 C63 1_555 1_555
C64 O18 1_555 1_555
H52 C64 1_555 1_555
H53 C64 1_555 1_555
H54 C64 1_555 1_555
C65 O19 1_555 1_555
H55 C65 1_555 1_555
H56 C65 1_555 1_555
H57 C65 1_555 1_555
C66 O20 1_555 1_555
H58 C66 1_555 1_555
H59 C66 1_555 1_555
H60 C66 1_555 1_555
O21 H61 1_555 1_555
C67 O21 1_555 1_555
H62 C67 1_555 1_555
H63 C67 1_555 1_555
H64 C67 1_555 1_555
O22 H65 1_555 1_555
C68 O22 1_555 1_555
H66 C68 1_555 1_555
H67 C68 1_555 1_555
H68 C68 1_555 1_555
C4 C5 1_555 1_555
C7 C8 1_555 1_555
C8 C9 1_555 1_555
C10 C11 1_555 1_555
C15 C16 1_555 1_555
C18 C24 1_555 1_555
C20 C22 1_555 1_555
C23 C24 1_555 1_555
C29 C30 1_555 1_555
C37 C38 1_555 1_555
C40 C41 1_555 1_555
C41 C42 1_555 1_555
C43 C44 1_555 1_555
C48 C49 1_555 1_555
C51 C57 1_555 1_555
C53 C55 1_555 1_555
C56 C57 1_555 1_555
C62 C63 1_555 1_555

#END
