
#######################################################################
#
#                 Cambridge Crystallographic Data Centre
#                                CCDC 
#
#######################################################################
#
# If this CIF has been generated from an entry in the Cambridge 
# Structural Database, then it will include bibliographic, chemical, 
# crystal, experimental, refinement or atomic coordinate data resulting 
# from the CCDC's data processing and validation procedures.
#
#######################################################################

data_LOHVOU
_chemical_name_common            'PDB Chemical Component code: KJU'
_chemical_formula_moiety         'C8 H6 Cl1 N1 O2'
_chemical_name_systematic        6-Chloro-2H-1,4-benzoxazin-3(4H)-one
_symmetry_cell_setting           orthorhombic
_symmetry_space_group_name_H-M   'P 21 21 21'
_symmetry_Int_Tables_number      19
_space_group_name_Hall           'P 2ac 2ab'
loop_
_symmetry_equiv_pos_site_id
_symmetry_equiv_pos_as_xyz
1 x,y,z
2 1/2-x,-y,1/2+z
3 -x,1/2+y,1/2-z
4 1/2+x,1/2-y,-z
_cell_length_a                   4.5359(6)
_cell_length_b                   7.7000(10)
_cell_length_c                   21.281(3)
_cell_angle_alpha                90
_cell_angle_beta                 90
_cell_angle_gamma                90
_cell_volume                     743.269
_exptl_crystal_colour            colorless
_exptl_crystal_description       plate
_cell_formula_units_Z            4
_exptl_crystal_recrystallization_method dichloromethane
loop_
_atom_site_label
_atom_site_type_symbol
_atom_site_fract_x
_atom_site_fract_y
_atom_site_fract_z
Cl1 Cl 0.59509(18) 0.16633(10) 0.92672(4)
O1 O 1.5486(5) 0.7552(2) 0.74891(10)
O2 O 1.1177(4) 0.8424(2) 0.88354(9)
N1 N 1.2830(5) 0.5732(3) 0.80882(10)
H1 H 1.3651 0.4842 0.7918
C1 C 1.3640(6) 0.7302(3) 0.79030(14)
C2 C 1.2111(7) 0.8777(3) 0.82142(15)
H2 H 1.3430 0.9768 0.8222
H3 H 1.0404 0.9094 0.7965
C3 C 0.9870(6) 0.6859(3) 0.89160(13)
C4 C 1.0683(6) 0.5467(3) 0.85521(12)
C5 C 0.9496(6) 0.3866(3) 0.86535(13)
H4 H 1.0043 0.2924 0.8406
C6 C 0.7466(6) 0.3675(3) 0.91299(13)
C7 C 0.6661(6) 0.5045(4) 0.94990(13)
H5 H 0.5317 0.4889 0.9824
C8 C 0.7839(6) 0.6642(4) 0.93876(13)
H6 H 0.7267 0.7586 0.9631
loop_
_geom_bond_atom_site_label_1
_geom_bond_atom_site_label_2
_geom_bond_site_symmetry_1
_geom_bond_site_symmetry_2
Cl1 C6 1_555 1_555
O1 C1 1_555 1_555
O2 C2 1_555 1_555
N1 H1 1_555 1_555
C1 N1 1_555 1_555
C2 C1 1_555 1_555
H2 C2 1_555 1_555
H3 C2 1_555 1_555
C3 O2 1_555 1_555
C4 N1 1_555 1_555
C5 C4 1_555 1_555
H4 C5 1_555 1_555
C6 C5 1_555 1_555
C7 C6 1_555 1_555
H5 C7 1_555 1_555
C8 C3 1_555 1_555
H6 C8 1_555 1_555
C3 C4 1_555 1_555
C7 C8 1_555 1_555

#END
