
#######################################################################
#
#                 Cambridge Crystallographic Data Centre
#                                CCDC 
#
#######################################################################
#
# If this CIF has been generated from an entry in the Cambridge 
# Structural Database, then it will include bibliographic, chemical, 
# crystal, experimental, refinement or atomic coordinate data resulting 
# from the CCDC's data processing and validation procedures.
#
#######################################################################

data_LOHWIQ
_chemical_formula_moiety         'C22 H16 N2 O1'
_chemical_name_systematic        
3-(2-(1,3-benzoxazol-2-yl)vinyl)-9-methyl-9H-carbazole
_symmetry_cell_setting           triclinic
_symmetry_space_group_name_H-M   'P -1'
_symmetry_Int_Tables_number      2
_space_group_name_Hall           '-P 1'
loop_
_symmetry_equiv_pos_site_id
_symmetry_equiv_pos_as_xyz
1 x,y,z
2 -x,-y,-z
_cell_length_a                   6.0815(10)
_cell_length_b                   12.774(4)
_cell_length_c                   21.916(5)
_cell_angle_alpha                75.04(3)
_cell_angle_beta                 82.36(3)
_cell_angle_gamma                87.09(3)
_cell_volume                     1630
_exptl_crystal_colour            colorless
_exptl_crystal_description       rod
_cell_formula_units_Z            4
_exptl_crystal_recrystallization_method 'Vapour Deposition'
loop_
_atom_site_label
_atom_site_type_symbol
_atom_site_fract_x
_atom_site_fract_y
_atom_site_fract_z
O1 O 0.2984(8) 0.8633(4) 0.1594(2)
N1 N 0.3133(11) 1.0321(6) 0.0923(3)
N2 N 1.5377(11) 0.6282(6) 0.0356(4)
C1 C 0.1150(13) 1.0223(7) 0.1357(4)
C2 C -0.0546(15) 1.0930(8) 0.1415(4)
H1 H -0.0505 1.1636 0.1160
C3 C -0.2379(15) 1.0563(8) 0.1875(4)
H2 H -0.3609 1.1015 0.1912
C4 C -0.2339(15) 0.9517(9) 0.2274(4)
H3 H -0.3524 0.9307 0.2591
C5 C -0.0645(13) 0.8786(7) 0.2223(4)
H4 H -0.0665 0.8080 0.2477
C6 C 0.1095(12) 0.9184(7) 0.1761(3)
C7 C 0.4109(13) 0.9384(7) 0.1087(4)
C8 C 0.6221(13) 0.9045(8) 0.0820(4)
H5 H 0.6940 0.9507 0.0457
C9 C 0.7213(13) 0.8098(7) 0.1067(4)
H6 H 0.6443 0.7650 0.1427
C10 C 0.9344(12) 0.7693(7) 0.0838(3)
C11 C 1.0679(13) 0.8236(7) 0.0284(4)
H7 H 1.0176 0.8895 0.0045
C12 C 1.2708(13) 0.7827(8) 0.0082(4)
H8 H 1.3568 0.8201 -0.0286
C13 C 1.3427(12) 0.6846(7) 0.0441(4)
C14 C 1.2119(13) 0.6280(7) 0.1003(4)
C15 C 1.0122(13) 0.6701(7) 0.1186(4)
H9 H 0.9256 0.6321 0.1551
C16 C 1.3366(14) 0.5300(7) 0.1254(4)
C17 C 1.2972(18) 0.4421(8) 0.1783(5)
H10 H 1.1673 0.4382 0.2064
C18 C 1.457(2) 0.3613(9) 0.1875(6)
H11 H 1.4325 0.3008 0.2217
C19 C 1.650(2) 0.3678(10) 0.1482(7)
H12 H 1.7541 0.3118 0.1568
C20 C 1.6978(16) 0.4523(9) 0.0967(6)
H13 H 1.8325 0.4550 0.0707
C21 C 1.5381(14) 0.5355(8) 0.0837(4)
C22 C 1.7109(14) 0.6606(9) -0.0195(5)
H14 H 1.7141 0.7382 -0.0338
H15 H 1.6784 0.6312 -0.0534
H16 H 1.8528 0.6334 -0.0071
O2 O -0.0567(9) 0.4973(5) 0.3348(3)
N3 N -0.1135(11) 0.6045(6) 0.4023(3)
N4 N 1.0651(11) 0.1633(6) 0.4761(3)
C23 C -0.2711(13) 0.6306(7) 0.3592(4)
C24 C -0.4433(14) 0.7056(7) 0.3535(4)
H17 H -0.4700 0.7512 0.3807
C25 C -0.5732(15) 0.7107(8) 0.3065(4)
H18 H -0.6880 0.7619 0.3013
C26 C -0.5395(15) 0.6419(8) 0.2662(4)
H19 H -0.6331 0.6470 0.2352
C27 C -0.3691(13) 0.5662(8) 0.2717(4)
H20 H -0.3444 0.5195 0.2451
C28 C -0.2391(13) 0.5631(7) 0.3179(4)
C29 C 0.0049(13) 0.5269(7) 0.3857(4)
C30 C 0.1887(13) 0.4701(7) 0.4150(4)
H21 H 0.2206 0.4846 0.4523
C31 C 0.3147(13) 0.3990(7) 0.3923(4)
H22 H 0.2737 0.3836 0.3562
C32 C 0.5090(12) 0.3414(7) 0.4161(4)
C33 C 0.5783(13) 0.3483(7) 0.4738(4)
H23 H 0.4961 0.3921 0.4967
C34 C 0.7613(13) 0.2934(7) 0.4982(4)
H24 H 0.8051 0.3005 0.5359
C35 C 0.8775(13) 0.2266(6) 0.4632(3)
C36 C 0.8163(13) 0.2186(6) 0.4055(4)
C37 C 0.6296(12) 0.2745(7) 0.3833(4)
H25 H 0.5851 0.2668 0.3457
C38 C 0.9783(14) 0.1473(7) 0.3822(4)
C39 C 1.0132(18) 0.1105(9) 0.3265(5)
H26 H 0.9168 0.1309 0.2957
C40 C 1.1940(18) 0.0434(10) 0.3185(5)
H27 H 1.2220 0.0190 0.2817
C41 C 1.334(2) 0.0121(10) 0.3655(6)
H28 H 1.4522 -0.0349 0.3596
C42 C 1.3068(16) 0.0470(8) 0.4200(5)
H29 H 1.4034 0.0251 0.4506
C43 C 1.1287(13) 0.1166(7) 0.4275(4)
C44 C 1.1720(16) 0.1474(8) 0.5338(4)
H30 H 1.3267 0.1310 0.5247
H31 H 1.1035 0.0885 0.5662
H32 H 1.1559 0.2124 0.5484
loop_
_geom_bond_atom_site_label_1
_geom_bond_atom_site_label_2
_geom_bond_site_symmetry_1
_geom_bond_site_symmetry_2
O1 C6 1_555 1_555
N1 C1 1_555 1_555
N2 C13 1_555 1_555
C1 C2 1_555 1_555
C2 H1 1_555 1_555
C3 C2 1_555 1_555
H2 C3 1_555 1_555
C4 C3 1_555 1_555
H3 C4 1_555 1_555
C5 C4 1_555 1_555
H4 C5 1_555 1_555
C6 C1 1_555 1_555
C7 O1 1_555 1_555
C8 C7 1_555 1_555
H5 C8 1_555 1_555
C9 C8 1_555 1_555
H6 C9 1_555 1_555
C10 C9 1_555 1_555
C11 C10 1_555 1_555
H7 C11 1_555 1_555
C12 C11 1_555 1_555
H8 C12 1_555 1_555
C13 C12 1_555 1_555
C14 C13 1_555 1_555
C15 C10 1_555 1_555
H9 C15 1_555 1_555
C16 C14 1_555 1_555
C17 C16 1_555 1_555
H10 C17 1_555 1_555
C18 C17 1_555 1_555
H11 C18 1_555 1_555
C19 C18 1_555 1_555
H12 C19 1_555 1_555
C20 C19 1_555 1_555
H13 C20 1_555 1_555
C21 N2 1_555 1_555
C22 N2 1_555 1_555
H14 C22 1_555 1_555
H15 C22 1_555 1_555
H16 C22 1_555 1_555
O2 C28 1_555 1_555
N3 C23 1_555 1_555
N4 C35 1_555 1_555
C23 C24 1_555 1_555
C24 H17 1_555 1_555
C25 C24 1_555 1_555
H18 C25 1_555 1_555
C26 C25 1_555 1_555
H19 C26 1_555 1_555
C27 C26 1_555 1_555
H20 C27 1_555 1_555
C28 C23 1_555 1_555
C29 O2 1_555 1_555
C30 C29 1_555 1_555
H21 C30 1_555 1_555
C31 C30 1_555 1_555
H22 C31 1_555 1_555
C32 C31 1_555 1_555
C33 C32 1_555 1_555
H23 C33 1_555 1_555
C34 C33 1_555 1_555
H24 C34 1_555 1_555
C35 C34 1_555 1_555
C36 C35 1_555 1_555
C37 C32 1_555 1_555
H25 C37 1_555 1_555
C38 C36 1_555 1_555
C39 C38 1_555 1_555
H26 C39 1_555 1_555
C40 C39 1_555 1_555
H27 C40 1_555 1_555
C41 C40 1_555 1_555
H28 C41 1_555 1_555
C42 C41 1_555 1_555
H29 C42 1_555 1_555
C43 N4 1_555 1_555
C44 N4 1_555 1_555
H30 C44 1_555 1_555
H31 C44 1_555 1_555
H32 C44 1_555 1_555
N1 C7 1_555 1_555
C5 C6 1_555 1_555
C14 C15 1_555 1_555
C16 C21 1_555 1_555
C20 C21 1_555 1_555
N3 C29 1_555 1_555
C27 C28 1_555 1_555
C36 C37 1_555 1_555
C38 C43 1_555 1_555
C42 C43 1_555 1_555

#END
