
#######################################################################
#
#                 Cambridge Crystallographic Data Centre
#                                CCDC 
#
#######################################################################
#
# If this CIF has been generated from an entry in the Cambridge 
# Structural Database, then it will include bibliographic, chemical, 
# crystal, experimental, refinement or atomic coordinate data resulting 
# from the CCDC's data processing and validation procedures.
#
#######################################################################

data_LOJJAW
_chemical_formula_moiety         'C7 H8 N3 1+,C10 H6 F3 O2 1-'
_chemical_name_systematic        
'2-Amino-1H-benzoimidazol-3-ium 4,4,4-trifluoro-1,3-dioxo-1-phenylbutan-2-ide'
_symmetry_cell_setting           orthorhombic
_symmetry_space_group_name_H-M   'P b c a'
_symmetry_Int_Tables_number      61
_space_group_name_Hall           '-P 2ac 2ab'
loop_
_symmetry_equiv_pos_site_id
_symmetry_equiv_pos_as_xyz
1 x,y,z
2 1/2-x,-y,1/2+z
3 -x,1/2+y,1/2-z
4 1/2+x,1/2-y,-z
5 -x,-y,-z
6 1/2+x,y,1/2-z
7 x,1/2-y,1/2+z
8 1/2-x,1/2+y,z
_cell_length_a                   16.755(3)
_cell_length_b                   10.552(2)
_cell_length_c                   18.497(4)
_cell_angle_alpha                90
_cell_angle_beta                 90
_cell_angle_gamma                90
_cell_volume                     3270.25
_exptl_crystal_colour            yellow
_exptl_crystal_description       block
_cell_formula_units_Z            8
loop_
_atom_site_label
_atom_site_type_symbol
_atom_site_fract_x
_atom_site_fract_y
_atom_site_fract_z
F1 F 0.74257(7) 0.54639(12) 0.05657(5)
F2 F 0.77552(6) 0.66729(9) 0.14532(6)
F3 F 0.71669(6) 0.49082(11) 0.16580(6)
O1 O 1.01117(6) 0.37243(10) 0.11875(6)
O2 O 0.88568(6) 0.49842(10) 0.19269(6)
C1 C 0.77211(10) 0.54628(16) 0.12397(9)
C2 C 0.85307(9) 0.48052(14) 0.13136(8)
C3 C 0.88043(9) 0.40780(15) 0.07420(8)
H1 H 0.8467 0.3955 0.0349
C4 C 0.95774(9) 0.35055(14) 0.07232(8)
C5 C 0.97828(9) 0.26266(14) 0.01141(8)
C6 C 1.05759(10) 0.25313(16) -0.01066(9)
H2 H 1.0962 0.3030 0.0116
C7 C 1.07968(10) 0.17084(17) -0.06508(10)
H3 H 1.1327 0.1665 -0.0797
C8 C 1.02270(11) 0.09443(16) -0.09797(9)
H4 H 1.0376 0.0379 -0.1341
C9 C 0.94389(10) 0.10278(15) -0.07679(9)
H5 H 0.9057 0.0518 -0.0989
C10 C 0.92111(10) 0.18696(15) -0.02263(8)
H6 H 0.8678 0.1928 -0.0091
N1 N 1.03832(8) 0.19158(15) 0.23172(8)
N2 N 0.90662(8) 0.26462(13) 0.25377(7)
N3 N 0.94668(8) 0.09546(13) 0.31266(7)
C11 C 0.96806(9) 0.18451(15) 0.26443(8)
C12 C 0.84329(9) 0.22790(15) 0.29854(8)
C13 C 0.76879(9) 0.28105(17) 0.31021(8)
H7 H 0.7518 0.3527 0.2853
C14 C 0.72078(10) 0.22158(17) 0.36124(9)
H8 H 0.6705 0.2548 0.3710
C15 C 0.74579(10) 0.11347(17) 0.39833(9)
H9 H 0.7118 0.0763 0.4319
C16 C 0.82038(10) 0.06027(15) 0.38614(8)
H10 H 0.8371 -0.0120 0.4106
C17 C 0.86862(9) 0.11999(14) 0.33575(8)
H11 H 1.0783(9) 0.1439(16) 0.2457(10)
H12 H 1.0438(10) 0.2461(14) 0.1961(8)
H13 H 0.9093(12) 0.3377(13) 0.2283(10)
H14 H 0.9769(11) 0.0317(15) 0.3290(11)
loop_
_geom_bond_atom_site_label_1
_geom_bond_atom_site_label_2
_geom_bond_site_symmetry_1
_geom_bond_site_symmetry_2
F1 C1 1_555 1_555
F2 C1 1_555 1_555
F3 C1 1_555 1_555
O1 C4 1_555 1_555
O2 C2 1_555 1_555
C1 C2 1_555 1_555
C2 C3 1_555 1_555
C3 H1 1_555 1_555
C4 C3 1_555 1_555
C5 C4 1_555 1_555
C6 C5 1_555 1_555
H2 C6 1_555 1_555
C7 C6 1_555 1_555
H3 C7 1_555 1_555
C8 C7 1_555 1_555
H4 C8 1_555 1_555
C9 C8 1_555 1_555
H5 C9 1_555 1_555
C10 C5 1_555 1_555
H6 C10 1_555 1_555
N1 C11 1_555 1_555
N2 C11 1_555 1_555
N3 C11 1_555 1_555
C12 N2 1_555 1_555
C13 C12 1_555 1_555
H7 C13 1_555 1_555
C14 C13 1_555 1_555
H8 C14 1_555 1_555
C15 C14 1_555 1_555
H9 C15 1_555 1_555
C16 C15 1_555 1_555
H10 C16 1_555 1_555
C17 N3 1_555 1_555
H11 N1 1_555 1_555
H12 N1 1_555 1_555
H13 N2 1_555 1_555
H14 N3 1_555 1_555
C9 C10 1_555 1_555
C12 C17 1_555 1_555
C16 C17 1_555 1_555

#END
