
#######################################################################
#
#                 Cambridge Crystallographic Data Centre
#                                CCDC 
#
#######################################################################
#
# If this CIF has been generated from an entry in the Cambridge 
# Structural Database, then it will include bibliographic, chemical, 
# crystal, experimental, refinement or atomic coordinate data resulting 
# from the CCDC's data processing and validation procedures.
#
#######################################################################

data_LOKHOK
_chemical_formula_moiety         'C12 H24 O6,C7 H10 N1 O1 1+,Cl1 O4 1-'
_chemical_name_systematic        
'2-Methoxyanilinium perchlorate 1,4,7,10,13,16-hexaoxacyclo-octadecane'
_symmetry_cell_setting           triclinic
_symmetry_space_group_name_H-M   'P -1'
_symmetry_Int_Tables_number      2
_space_group_name_Hall           '-P 1'
loop_
_symmetry_equiv_pos_site_id
_symmetry_equiv_pos_as_xyz
1 x,y,z
2 -x,-y,-z
_cell_length_a                   9.816(2)
_cell_length_b                   10.719(2)
_cell_length_c                   13.066(3)
_cell_angle_alpha                112.13(3)
_cell_angle_beta                 105.87(3)
_cell_angle_gamma                90.16(3)
_cell_volume                     1216.29
_exptl_crystal_colour            colorless
_exptl_crystal_description       Block
_cell_formula_units_Z            2
loop_
_atom_site_label
_atom_site_type_symbol
_atom_site_fract_x
_atom_site_fract_y
_atom_site_fract_z
O1 O 0.0737(5) 0.6779(6) 0.3289(5)
C1 C 0.0050(18) 0.7808(17) 0.3027(14)
H1 H 0.0528 0.8690 0.3591
H2 H -0.0932 0.7743 0.3037
O2 O 0.1714(5) 0.8129(5) 0.2094(4)
C2 C 0.0103(14) 0.7629(14) 0.1843(16)
H3 H -0.0528 0.8182 0.1537
H4 H -0.0144 0.6687 0.1308
O3 O 0.4381(5) 0.8018(5) 0.1650(4)
C3 C 0.1919(11) 0.8326(14) 0.1147(9)
H5 H 0.1268 0.8934 0.0947
H6 H 0.1718 0.7467 0.0485
O4 O 0.6417(9) 0.8333(6) 0.3865(7)
C4 C 0.3425(12) 0.8918(13) 0.1436(11)
H7 H 0.3542 0.9117 0.0797
H8 H 0.3631 0.9761 0.2114
O5 O 0.5356(5) 0.7710(5) 0.5440(4)
C5 C 0.5880(9) 0.8539(8) 0.2052(7)
H9 H 0.6019 0.9170 0.1707
H10 H 0.6430 0.7794 0.1797
O6 O 0.2877(7) 0.5937(7) 0.4764(5)
C6 C 0.6454(14) 0.9283(19) 0.3414(13)
H11 H 0.7423 0.9710 0.3646
H12 H 0.5860 0.9978 0.3691
C7 C 0.7019(10) 0.8911(9) 0.5036(8)
H13 H 0.6505 0.9643 0.5391
H14 H 0.8008 0.9266 0.5232
C8 C 0.6898(15) 0.7687(18) 0.5453(13)
H15 H 0.7064 0.6833 0.4913
H16 H 0.7538 0.7884 0.6221
C9 C 0.5119(11) 0.6977(10) 0.6071(7)
H17 H 0.5602 0.7477 0.6887
H18 H 0.5496 0.6114 0.5822
C10 C 0.3561(11) 0.6748(12) 0.5884(9)
H19 H 0.3396 0.6327 0.6387
H20 H 0.3178 0.7612 0.6084
C11 C 0.1435(11) 0.5662(12) 0.4574(8)
H21 H 0.1286 0.5694 0.5287
H22 H 0.1120 0.4744 0.4001
C12 C 0.0536(16) 0.658(2) 0.4180(19)
H23 H -0.0455 0.6225 0.3975
H24 H 0.0696 0.7453 0.4823
C25 C 0.6883(6) 0.4915(6) 0.1388(6)
H49 H 0.7636 0.5643 0.1674
H50 H 0.6509 0.4613 0.0563
H51 H 0.7249 0.4177 0.1582
C26 C 0.4632(4) 0.4501(3) 0.1629(3)
C27 C 0.3537(3) 0.5013(3) 0.2080(2)
C28 C 0.2343(4) 0.4184(4) 0.1857(3)
H52 H 0.1606 0.4537 0.2157
C29 C 0.2222(6) 0.2817(4) 0.1178(4)
H53 H 0.1414 0.2248 0.1035
C30 C 0.3296(6) 0.2305(4) 0.0730(3)
H54 H 0.3206 0.1387 0.0264
C31 C 0.4505(4) 0.3124(4) 0.0955(3)
H55 H 0.5240 0.2760 0.0657
N1 N 0.3695(3) 0.6458(3) 0.2825(2)
H56 H 0.2919 0.6648 0.3054
H57 H 0.3807 0.6953 0.2433
H58 H 0.4456 0.6648 0.3440
O13 O 0.5764(3) 0.5388(3) 0.1902(3)
Cl1 Cl 0.89115(11) 0.15227(9) 0.21267(8)
O14 O 0.9263(5) 0.1058(5) 0.3040(3)
O15 O 0.7413(4) 0.1334(5) 0.1672(4)
O16 O 0.9482(5) 0.0737(4) 0.1241(4)
O17 O 0.9407(6) 0.2875(4) 0.2537(5)
O7? O 0.0607(7) 0.6971(7) 0.2244(6)
C13? C 0.033(2) 0.7963(18) 0.1723(17)
H25? H -0.0670 0.8084 0.1494
H26? H 0.0910 0.8831 0.2193
O8? O 0.2394(8) 0.7543(7) 0.1080(6)
C14? C 0.0830(13) 0.7139(14) 0.0762(11)
H27? H 0.0334 0.7284 0.0071
H28? H 0.0647 0.6186 0.0608
C15? C 0.2652(19) 0.8930(14) 0.1277(14)
H29? H 0.2268 0.9501 0.1882
H30? H 0.2222 0.9081 0.0577
O9? O 0.4839(7) 0.9162(6) 0.2760(7)
C16? C 0.4278(17) 0.9230(14) 0.1647(12)
H31? H 0.4661 0.8570 0.1086
H32? H 0.4546 1.0125 0.1693
O10? O 0.6474(15) 0.7951(15) 0.4183(12)
O11? O 0.5018(11) 0.6537(9) 0.5025(8)
C17? C 0.6378(18) 0.930(3) 0.3031(18)
H33? H 0.6734 1.0134 0.3006
H34? H 0.6698 0.8538 0.2505
O12? O 0.2168(8) 0.6997(7) 0.4441(6)
C18? C 0.6840(15) 0.9346(17) 0.4243(16)
H35? H 0.7859 0.9618 0.4584
H36? H 0.6352 0.9997 0.4719
C19? C 0.6852(17) 0.8235(13) 0.5433(12)
H37? H 0.7866 0.8526 0.5799
H38? H 0.6329 0.8942 0.5811
C20? C 0.6473(18) 0.6999(19) 0.5508(17)
H39? H 0.7003 0.6308 0.5118
H40? H 0.6754 0.7125 0.6316
C21? C 0.4267(19) 0.688(2) 0.5866(16)
H41? H 0.4386 0.7854 0.6299
H42? H 0.4605 0.6444 0.6402
C22? C 0.273(2) 0.637(2) 0.5183(15)
H43? H 0.2655 0.5404 0.4738
H44? H 0.2174 0.6510 0.5716
C23? C 0.0649(19) 0.702(2) 0.423(2)
H45? H 0.0428 0.7637 0.4913
H46? H 0.0167 0.6123 0.3997
C24? C 0.023(3) 0.752(3) 0.326(2)
H47? H -0.0799 0.7461 0.3029
H48? H 0.0587 0.8474 0.3600
loop_
_geom_bond_atom_site_label_1
_geom_bond_atom_site_label_2
_geom_bond_site_symmetry_1
_geom_bond_site_symmetry_2
O1 C1 1_555 1_555
C1 H1 1_555 1_555
H2 C1 1_555 1_555
O2 C2 1_555 1_555
C2 C1 1_555 1_555
H3 C2 1_555 1_555
H4 C2 1_555 1_555
O3 C4 1_555 1_555
C3 O2 1_555 1_555
H5 C3 1_555 1_555
H6 C3 1_555 1_555
O4 C6 1_555 1_555
C4 C3 1_555 1_555
H7 C4 1_555 1_555
H8 C4 1_555 1_555
O5 C8 1_555 1_555
C5 O3 1_555 1_555
H9 C5 1_555 1_555
H10 C5 1_555 1_555
O6 C10 1_555 1_555
C6 C5 1_555 1_555
H11 C6 1_555 1_555
H12 C6 1_555 1_555
C7 O4 1_555 1_555
H13 C7 1_555 1_555
H14 C7 1_555 1_555
C8 C7 1_555 1_555
H15 C8 1_555 1_555
H16 C8 1_555 1_555
C9 O5 1_555 1_555
H17 C9 1_555 1_555
H18 C9 1_555 1_555
C10 C9 1_555 1_555
H19 C10 1_555 1_555
H20 C10 1_555 1_555
C11 O6 1_555 1_555
H21 C11 1_555 1_555
H22 C11 1_555 1_555
C12 O1 1_555 1_555
H23 C12 1_555 1_555
H24 C12 1_555 1_555
C25 H49 1_555 1_555
H50 C25 1_555 1_555
H51 C25 1_555 1_555
C26 C27 1_555 1_555
C27 C28 1_555 1_555
C28 H52 1_555 1_555
C29 C28 1_555 1_555
H53 C29 1_555 1_555
C30 C29 1_555 1_555
H54 C30 1_555 1_555
C31 C26 1_555 1_555
H55 C31 1_555 1_555
N1 C27 1_555 1_555
H56 N1 1_555 1_555
H57 N1 1_555 1_555
H58 N1 1_555 1_555
O13 C25 1_555 1_555
Cl1 O14 1_555 1_555
O15 Cl1 1_555 1_555
O16 Cl1 1_555 1_555
O17 Cl1 1_555 1_555
C11 C12 1_555 1_555
C26 O13 1_555 1_555
C30 C31 1_555 1_555

#END
