
#######################################################################
#
#                 Cambridge Crystallographic Data Centre
#                                CCDC 
#
#######################################################################
#
# If this CIF has been generated from an entry in the Cambridge 
# Structural Database, then it will include bibliographic, chemical, 
# crystal, experimental, refinement or atomic coordinate data resulting 
# from the CCDC's data processing and validation procedures.
#
#######################################################################

data_LOKLIG
_chemical_formula_moiety         'C10 H8 F5 N1 O1'
_chemical_name_systematic        
5,5,6,7,8-Pentafluoro-6-methoxy-5,6,7,8-tetrahydroquinoline
_symmetry_cell_setting           orthorhombic
_symmetry_space_group_name_H-M   'P b c a'
_symmetry_Int_Tables_number      61
_space_group_name_Hall           '-P 2ac 2ab'
loop_
_symmetry_equiv_pos_site_id
_symmetry_equiv_pos_as_xyz
1 x,y,z
2 1/2-x,-y,1/2+z
3 1/2+x,1/2-y,-z
4 -x,1/2+y,1/2-z
5 -x,-y,-z
6 1/2+x,y,1/2-z
7 1/2-x,1/2+y,z
8 x,1/2-y,1/2+z
_cell_length_a                   10.9145(9)
_cell_length_b                   23.392(1)
_cell_length_c                   8.149(1)
_cell_angle_alpha                90
_cell_angle_beta                 90
_cell_angle_gamma                90
_cell_volume                     2080.54
_exptl_crystal_colour            colorless
_exptl_crystal_description       plates
_chemical_melting_point          '84-85 deg.C'
_cell_formula_units_Z            8
_exptl_crystal_recrystallization_method cyclohexane/dichloromethane
loop_
_atom_site_label
_atom_site_type_symbol
_atom_site_fract_x
_atom_site_fract_y
_atom_site_fract_z
F1 F 0.7135(1) 0.11357(8) 1.0284(2)
F2 F 0.6057(2) 0.18325(8) 1.1279(2)
F3 F 0.5192(1) 0.21139(7) 0.8382(2)
F4 F 0.5942(2) 0.15109(8) 0.5557(2)
F5 F 0.4530(2) 0.05439(7) 0.6236(2)
O1 O 0.7221(2) 0.19614(7) 0.8012(2)
N1 N 0.3353(2) 0.0486(1) 0.9188(3)
C1 C 0.3071(3) 0.0321(1) 1.0708(4)
C2 C 0.3714(3) 0.0488(1) 1.2087(4)
C3 C 0.4689(3) 0.0848(1) 1.1905(3)
C4 C 0.6060(2) 0.1424(1) 1.0086(3)
C5 C 0.6129(2) 0.1716(1) 0.8392(3)
C6 C 0.5858(2) 0.1266(1) 0.7096(3)
C7 C 0.4598(2) 0.1016(1) 0.7277(3)
C8 C 0.4320(2) 0.0833(1) 0.9011(3)
C9 C 0.5001(2) 0.1034(1) 1.0332(3)
C10 C 0.7670(4) 0.2425(2) 0.9022(6)
loop_
_geom_bond_atom_site_label_1
_geom_bond_atom_site_label_2
_geom_bond_site_symmetry_1
_geom_bond_site_symmetry_2
F1 C4 1_555 1_555
F2 C4 1_555 1_555
F3 C5 1_555 1_555
F4 C6 1_555 1_555
F5 C7 1_555 1_555
O1 C5 1_555 1_555
N1 C1 1_555 1_555
C1 C2 1_555 1_555
C2 C3 1_555 1_555
C3 C9 1_555 1_555
C4 C5 1_555 1_555
C5 C6 1_555 1_555
C6 C7 1_555 1_555
C7 C8 1_555 1_555
C8 N1 1_555 1_555
C9 C4 1_555 1_555
C10 O1 1_555 1_555
C8 C9 1_555 1_555

#END
