
#######################################################################
#
#                 Cambridge Crystallographic Data Centre
#                                CCDC 
#
#######################################################################
#
# If this CIF has been generated from an entry in the Cambridge 
# Structural Database, then it will include bibliographic, chemical, 
# crystal, experimental, refinement or atomic coordinate data resulting 
# from the CCDC's data processing and validation procedures.
#
#######################################################################

data_LOKWUE
_chemical_name_common            
'5-(3-(2-Bromoethoxy)phenyl)-5,10,10,15,15,20,20-heptamethylporphyrinogen methanol solvate'
_chemical_formula_moiety         'C35 H41 Br1 N4 O1,C1 H4 O1'
_chemical_name_systematic        
'5-(3-(2-Bromoethoxy)phenyl)-5,10,10,15,15,20,20-heptamethyl-5,10,15,20,22,24-hexahydroporphyrin methanol solvate'
_symmetry_cell_setting           monoclinic
_symmetry_space_group_name_H-M   'P 21'
_symmetry_Int_Tables_number      4
_space_group_name_Hall           'P 2yb'
loop_
_symmetry_equiv_pos_site_id
_symmetry_equiv_pos_as_xyz
1 x,y,z
2 -x,1/2+y,-z
_cell_length_a                   10.0796(4)
_cell_length_b                   17.2126(8)
_cell_length_c                   10.2317(5)
_cell_angle_alpha                90
_cell_angle_beta                 111.474(1)
_cell_angle_gamma                90
_cell_volume                     1651.94
_exptl_crystal_colour            yellow
_exptl_crystal_description       plate
_cell_formula_units_Z            2
_exptl_crystal_recrystallization_method methanol
loop_
_atom_site_label
_atom_site_type_symbol
_atom_site_fract_x
_atom_site_fract_y
_atom_site_fract_z
Br1 Br -0.00771(2) 0.224275(15) 0.27726(2)
O1 O 0.21019(15) 0.16132(9) 0.56831(18)
N1 N 0.8234(2) 0.33431(10) 0.7031(2)
N2 N 0.61965(17) 0.21844(13) 0.45576(17)
N3 N 0.6636(2) 0.32750(11) 0.1916(2)
N4 N 0.8553(2) 0.45802(11) 0.4514(2)
C1 C 0.9442(2) 0.37813(12) 0.7685(2)
C2 C 1.0328(2) 0.33436(14) 0.8766(2)
H1 H 1.1246 0.3493 0.9398
C3 C 0.9637(2) 0.26266(13) 0.8781(3)
H2 H 1.0008 0.2213 0.9428
C4 C 0.8343(2) 0.26373(12) 0.7698(2)
C5 C 0.7183(2) 0.20235(11) 0.7201(2)
C6 C 0.6973(2) 0.17581(12) 0.5726(2)
C7 C 0.7404(2) 0.10972(12) 0.5244(3)
H3 H 0.7965 0.0692 0.5810
C8 C 0.6868(2) 0.11234(13) 0.3759(3)
H4 H 0.7009 0.0740 0.3154
C9 C 0.6108(2) 0.18019(12) 0.3349(2)
C10 C 0.5174(2) 0.20882(14) 0.1909(2)
C11 C 0.5346(2) 0.29578(14) 0.1784(2)
C12 C 0.4398(3) 0.35609(15) 0.1520(3)
H5 H 0.3416 0.3521 0.1385
C13 C 0.5146(3) 0.42642(14) 0.1483(3)
H6 H 0.4751 0.4772 0.1314
C14 C 0.6538(2) 0.40692(13) 0.1735(2)
C15 C 0.7834(3) 0.45543(13) 0.1880(2)
C16 C 0.8927(2) 0.44884(12) 0.3358(2)
C17 C 1.0369(2) 0.43808(13) 0.3856(3)
H7 H 1.0935 0.4296 0.3304
C18 C 1.0874(2) 0.44172(13) 0.5345(2)
H8 H 1.1839 0.4364 0.5961
C19 C 0.9734(2) 0.45426(12) 0.5740(2)
C20 C 0.9622(2) 0.45887(12) 0.7179(2)
C21 C 0.7649(2) 0.13169(12) 0.8201(3)
H9 H 0.6944 0.0900 0.7857
H10 H 0.7719 0.1471 0.9146
H11 H 0.8580 0.1132 0.8232
C22 C 0.3595(3) 0.19115(17) 0.1674(3)
H12 H 0.3484 0.1354 0.1804
H13 H 0.2988 0.2062 0.0718
H14 H 0.3316 0.2206 0.2352
C23 C 0.5586(3) 0.16594(15) 0.0795(3)
H15 H 0.6586 0.1768 0.0946
H16 H 0.4978 0.1838 -0.0143
H17 H 0.5457 0.1099 0.0871
C24 C 0.8503(3) 0.42825(15) 0.0831(3)
H18 H 0.9337 0.4605 0.0931
H19 H 0.7802 0.4331 -0.0128
H20 H 0.8798 0.3738 0.1018
C25 C 0.7391(3) 0.54081(14) 0.1552(3)
H21 H 0.7009 0.5605 0.2242
H22 H 0.6659 0.5447 0.0608
H23 H 0.8224 0.5717 0.1599
C26 C 1.1022(3) 0.49473(14) 0.8219(3)
H24 H 1.0989 0.4957 0.9165
H25 H 1.1126 0.5478 0.7925
H26 H 1.1835 0.4633 0.8226
C27 C 0.8371(3) 0.51164(13) 0.7134(3)
H27 H 0.7472 0.4887 0.6512
H28 H 0.8490 0.5630 0.6779
H29 H 0.8355 0.5168 0.8082
C28 C 0.57351(19) 0.23080(14) 0.7224(2)
C29 C 0.4519(2) 0.18898(12) 0.6460(2)
H30 H 0.4595 0.1460 0.5909
C30 C 0.3192(2) 0.20907(12) 0.6488(2)
C31 C 0.3060(2) 0.27185(13) 0.7279(3)
H31 H 0.2156 0.2863 0.7294
C32 C 0.4283(3) 0.31338(14) 0.8051(3)
H32 H 0.4209 0.3560 0.8610
C33 C 0.5611(2) 0.29360(13) 0.8022(2)
H33 H 0.6431 0.3230 0.8546
C34 C 0.0685(2) 0.17419(14) 0.5634(3)
H34 H 0.0722 0.1858 0.6595
H35 H 0.0127 0.1258 0.5319
C35 C -0.0073(2) 0.23935(13) 0.4676(2)
H36 H 0.0403 0.2891 0.5058
H37 H -0.1068 0.2423 0.4635
H41 H 0.780(3) 0.4626(15) 0.450(3)
H42 H 0.743(3) 0.3035(15) 0.212(3)
H43 H 0.755(3) 0.3489(15) 0.638(3)
H44 H 0.583(3) 0.2606(15) 0.458(3)
O2 O 0.56422(18) 0.39275(10) 0.4722(2)
C36 C 0.4444(3) 0.4231(2) 0.4960(4)
H38 H 0.4737 0.4415 0.5931
H39 H 0.3721 0.3824 0.4796
H40 H 0.4043 0.4665 0.4316
H45 H 0.550(3) 0.3944(17) 0.399(3)
loop_
_geom_bond_atom_site_label_1
_geom_bond_atom_site_label_2
_geom_bond_site_symmetry_1
_geom_bond_site_symmetry_2
Br1 C35 1_555 1_555
O1 C30 1_555 1_555
N1 C1 1_555 1_555
N2 C6 1_555 1_555
N3 C11 1_555 1_555
N4 C16 1_555 1_555
C1 C2 1_555 1_555
C2 H1 1_555 1_555
C3 C2 1_555 1_555
H2 C3 1_555 1_555
C4 N1 1_555 1_555
C5 C4 1_555 1_555
C6 C5 1_555 1_555
C7 C6 1_555 1_555
H3 C7 1_555 1_555
C8 C7 1_555 1_555
H4 C8 1_555 1_555
C9 N2 1_555 1_555
C10 C9 1_555 1_555
C11 C10 1_555 1_555
C12 C11 1_555 1_555
H5 C12 1_555 1_555
C13 C12 1_555 1_555
H6 C13 1_555 1_555
C14 N3 1_555 1_555
C15 C14 1_555 1_555
C16 C15 1_555 1_555
C17 C16 1_555 1_555
H7 C17 1_555 1_555
C18 C17 1_555 1_555
H8 C18 1_555 1_555
C19 N4 1_555 1_555
C20 C1 1_555 1_555
C21 C5 1_555 1_555
H9 C21 1_555 1_555
H10 C21 1_555 1_555
H11 C21 1_555 1_555
C22 C10 1_555 1_555
H12 C22 1_555 1_555
H13 C22 1_555 1_555
H14 C22 1_555 1_555
C23 C10 1_555 1_555
H15 C23 1_555 1_555
H16 C23 1_555 1_555
H17 C23 1_555 1_555
C24 C15 1_555 1_555
H18 C24 1_555 1_555
H19 C24 1_555 1_555
H20 C24 1_555 1_555
C25 C15 1_555 1_555
H21 C25 1_555 1_555
H22 C25 1_555 1_555
H23 C25 1_555 1_555
C26 C20 1_555 1_555
H24 C26 1_555 1_555
H25 C26 1_555 1_555
H26 C26 1_555 1_555
C27 C20 1_555 1_555
H27 C27 1_555 1_555
H28 C27 1_555 1_555
H29 C27 1_555 1_555
C28 C5 1_555 1_555
C29 C28 1_555 1_555
H30 C29 1_555 1_555
C30 C29 1_555 1_555
C31 C30 1_555 1_555
H31 C31 1_555 1_555
C32 C31 1_555 1_555
H32 C32 1_555 1_555
C33 C28 1_555 1_555
H33 C33 1_555 1_555
C34 O1 1_555 1_555
H34 C34 1_555 1_555
H35 C34 1_555 1_555
C35 C34 1_555 1_555
H36 C35 1_555 1_555
H37 C35 1_555 1_555
O2 C36 1_555 1_555
C36 H38 1_555 1_555
H39 C36 1_555 1_555
H40 C36 1_555 1_555
H41 N4 1_555 1_555
H42 N3 1_555 1_555
H43 N1 1_555 1_555
H44 N2 1_555 1_555
H45 O2 1_555 1_555
C3 C4 1_555 1_555
C8 C9 1_555 1_555
C13 C14 1_555 1_555
C18 C19 1_555 1_555
C19 C20 1_555 1_555
C32 C33 1_555 1_555

#END
