
#######################################################################
#
#                 Cambridge Crystallographic Data Centre
#                                CCDC 
#
#######################################################################
#
# If this CIF has been generated from an entry in the Cambridge 
# Structural Database, then it will include bibliographic, chemical, 
# crystal, experimental, refinement or atomic coordinate data resulting 
# from the CCDC's data processing and validation procedures.
#
#######################################################################

data_LOLGOI
_chemical_formula_moiety         'C28 H28 O2 S4'
_chemical_name_systematic        
2,6-Dibutoxy-9,10-bis(1,3-dithiol-2-ylidene)-9,10-dihydroanthracene
_symmetry_cell_setting           monoclinic
_symmetry_space_group_name_H-M   'P 21/c'
_symmetry_Int_Tables_number      14
_space_group_name_Hall           '-P 2ybc'
loop_
_symmetry_equiv_pos_site_id
_symmetry_equiv_pos_as_xyz
1 x,y,z
2 x,1/2-y,1/2+z
3 -x,-y,-z
4 -x,1/2+y,1/2-z
_cell_length_a                   11.5057(12)
_cell_length_b                   17.0266(13)
_cell_length_c                   13.2544(11)
_cell_angle_alpha                90
_cell_angle_beta                 103.283(7)
_cell_angle_gamma                90
_cell_volume                     2527.11
_exptl_crystal_colour            brown
_exptl_crystal_description       pyramid
_chemical_melting_point          '129-133 deg.C'
_cell_formula_units_Z            4
_exptl_crystal_recrystallization_method acetonitrile
loop_
_atom_site_label
_atom_site_type_symbol
_atom_site_fract_x
_atom_site_fract_y
_atom_site_fract_z
S1 S 0.52032(5) 0.50685(4) 0.14853(5)
S2 S 0.45547(5) 0.56743(3) 0.33561(5)
S3 S -0.04132(5) 0.38884(3) -0.03372(4)
S4 S -0.11422(5) 0.44299(3) 0.15194(5)
O1 O 0.47067(15) 0.25828(10) -0.02304(15)
O2 O 0.03777(15) 0.39804(10) 0.50452(13)
C1 C 0.4171(2) 0.34333(13) 0.10803(19)
H1 H 0.490(2) 0.3547(13) 0.1345(18)
C2 C 0.3899(2) 0.29077(13) 0.02544(19)
C3 C 0.2726(2) 0.26642(13) -0.01253(19)
H2 H 0.257(2) 0.2288(16) -0.067(2)
C4 C 0.1836(2) 0.29487(13) 0.03204(19)
H3 H 0.103(2) 0.2761(14) 0.006(2)
C5 C 0.20725(19) 0.35041(12) 0.11252(17)
C6 C 0.32658(19) 0.37497(13) 0.15087(17)
C7 C 0.35089(18) 0.43339(13) 0.23547(17)
C8 C 0.43263(18) 0.49214(13) 0.24091(17)
C9 C 0.5763(2) 0.59873(16) 0.1944(2)
H4 H 0.623(3) 0.623(2) 0.159(3)
C10 C 0.5469(2) 0.62602(15) 0.2781(2)
H5 H 0.578(3) 0.673(2) 0.314(3)
C11 C 0.5927(2) 0.28239(16) 0.0103(2)
H6 H 0.628(3) 0.2631(17) 0.085(2)
H7 H 0.600(3) 0.346(2) 0.006(3)
C12 C 0.6604(2) 0.24642(16) -0.0639(2)
H8 H 0.748(3) 0.2599(17) -0.037(2)
H9 H 0.628(3) 0.271(2) -0.137(3)
C13 C 0.6514(2) 0.15679(16) -0.0712(2)
H10 H 0.683(3) 0.1317(18) 0.003(2)
H11 H 0.564(3) 0.145(2) -0.098(3)
C14 C 0.7224(3) 0.12325(17) -0.1440(2)
H12 H 0.712(3) 0.068(2) -0.155(3)
H13 H 0.803(3) 0.1349(19) -0.118(2)
H14 H 0.695(3) 0.1476(19) -0.214(3)
C15 C 0.07854(19) 0.39189(13) 0.34006(18)
H15 H 0.000(2) 0.3684(15) 0.3164(19)
C16 C 0.1184(2) 0.41003(13) 0.44504(18)
C17 C 0.2351(2) 0.43570(13) 0.48278(19)
H16 H 0.261(2) 0.4444(14) 0.551(2)
C18 C 0.3100(2) 0.44260(13) 0.41487(18)
H17 H 0.387(2) 0.4554(15) 0.444(2)
C19 C 0.27197(19) 0.42657(12) 0.30919(17)
C20 C 0.15248(19) 0.40095(12) 0.27080(17)
C21 C 0.11315(18) 0.38347(12) 0.15955(17)
C22 C 0.00129(19) 0.40093(12) 0.10248(17)
C23 C -0.1745(2) 0.44075(15) -0.0521(2)
H18 H -0.218(3) 0.4467(19) -0.121(3)
C24 C -0.2075(2) 0.46582(15) 0.0315(2)
H19 H -0.277(3) 0.491(2) 0.034(3)
C25 C 0.0752(2) 0.41518(16) 0.6138(2)
H20 H 0.099(3) 0.476(2) 0.624(3)
H21 H 0.152(2) 0.3849(16) 0.645(2)
C26 C -0.0255(2) 0.39246(15) 0.6639(2)
H22 H -0.100(3) 0.4210(19) 0.631(2)
H23 H 0.003(3) 0.410(2) 0.742(3)
C27 C -0.0514(3) 0.30495(15) 0.6578(2)
H24 H -0.080(3) 0.2886(19) 0.583(3)
H25 H 0.029(3) 0.279(2) 0.693(3)
C28 C -0.1460(3) 0.28232(18) 0.7152(2)
H26 H -0.116(3) 0.2913(19) 0.795(3)
H27 H -0.173(3) 0.226(2) 0.700(3)
H28 H -0.218(3) 0.311(2) 0.690(3)
loop_
_geom_bond_atom_site_label_1
_geom_bond_atom_site_label_2
_geom_bond_site_symmetry_1
_geom_bond_site_symmetry_2
S1 C8 1_555 1_555
S2 C8 1_555 1_555
S3 C22 1_555 1_555
S4 C22 1_555 1_555
O1 C2 1_555 1_555
O2 C16 1_555 1_555
C1 H1 1_555 1_555
C2 C1 1_555 1_555
C3 C2 1_555 1_555
H2 C3 1_555 1_555
C4 C3 1_555 1_555
H3 C4 1_555 1_555
C5 C4 1_555 1_555
C6 C1 1_555 1_555
C7 C6 1_555 1_555
C8 C7 1_555 1_555
C9 S1 1_555 1_555
H4 C9 1_555 1_555
C10 S2 1_555 1_555
H5 C10 1_555 1_555
C11 O1 1_555 1_555
H6 C11 1_555 1_555
H7 C11 1_555 1_555
C12 C11 1_555 1_555
H8 C12 1_555 1_555
H9 C12 1_555 1_555
C13 C12 1_555 1_555
H10 C13 1_555 1_555
H11 C13 1_555 1_555
C14 C13 1_555 1_555
H12 C14 1_555 1_555
H13 C14 1_555 1_555
H14 C14 1_555 1_555
C15 H15 1_555 1_555
C16 C15 1_555 1_555
C17 C16 1_555 1_555
H16 C17 1_555 1_555
C18 C17 1_555 1_555
H17 C18 1_555 1_555
C19 C7 1_555 1_555
C20 C15 1_555 1_555
C21 C5 1_555 1_555
C22 C21 1_555 1_555
C23 S3 1_555 1_555
H18 C23 1_555 1_555
C24 S4 1_555 1_555
H19 C24 1_555 1_555
C25 O2 1_555 1_555
H20 C25 1_555 1_555
H21 C25 1_555 1_555
C26 C25 1_555 1_555
H22 C26 1_555 1_555
H23 C26 1_555 1_555
C27 C26 1_555 1_555
H24 C27 1_555 1_555
H25 C27 1_555 1_555
C28 C27 1_555 1_555
H26 C28 1_555 1_555
H27 C28 1_555 1_555
H28 C28 1_555 1_555
C5 C6 1_555 1_555
C9 C10 1_555 1_555
C18 C19 1_555 1_555
C19 C20 1_555 1_555
C20 C21 1_555 1_555
C23 C24 1_555 1_555

#END
