
#######################################################################
#
#                 Cambridge Crystallographic Data Centre
#                                CCDC 
#
#######################################################################
#
# If this CIF has been generated from an entry in the Cambridge 
# Structural Database, then it will include bibliographic, chemical, 
# crystal, experimental, refinement or atomic coordinate data resulting 
# from the CCDC's data processing and validation procedures.
#
#######################################################################

data_LOLYUI
_chemical_formula_moiety         'C15 H20 N5 O2 1+,C2 F3 O2 1-,H2 O1'
_chemical_name_systematic        
'3-((1,8-dimethyl-2-oxo-1,2,3,5-tetrahydro[1,2,4]triazino[3,4-c][1,4]benzoxazin-9-yl)amino)azetidinium trifluoroacetate monohydrate'
_symmetry_cell_setting           monoclinic
_symmetry_space_group_name_H-M   'P 21'
_symmetry_Int_Tables_number      4
_space_group_name_Hall           'P 2yb'
loop_
_symmetry_equiv_pos_site_id
_symmetry_equiv_pos_as_xyz
1 x,y,z
2 -x,1/2+y,-z
_cell_length_a                   8.6786(7)
_cell_length_b                   19.9409(17)
_cell_length_c                   11.9320(10)
_cell_angle_alpha                90
_cell_angle_beta                 109.0710(10)
_cell_angle_gamma                90
_cell_volume                     1951.61
_exptl_crystal_colour            colorless
_exptl_crystal_description       block
_cell_formula_units_Z            4
loop_
_atom_site_label
_atom_site_type_symbol
_atom_site_fract_x
_atom_site_fract_y
_atom_site_fract_z
O1 O 0.83602(16) 0.54702(6) 0.74676(11)
O2 O 0.76360(17) 0.24473(7) 0.65349(11)
N1 N 0.83967(18) 0.46990(7) 0.61025(13)
H1 H 0.8206 0.5013 0.5580
N2 N 0.85251(19) 0.40469(8) 0.57114(13)
N3 N 0.86275(18) 0.36799(7) 0.76209(12)
N4 N 0.8668(2) 0.26653(7) 1.13652(13)
H2 H 0.8578 0.2311 1.1751
N5 N 0.78958(18) 0.38721(7) 1.30265(13)
H3 H 0.8405 0.4250 1.3365
H4 H 0.6978 0.3807 1.3208
C1 C 0.8540(2) 0.48815(9) 0.72032(14)
C2 C 0.8592(2) 0.35802(9) 0.64738(15)
C3 C 0.8642(3) 0.28648(10) 0.60984(17)
H5 H 0.8277 0.2841 0.5239
H6 H 0.9756 0.2703 0.6393
C4 C 0.7998(2) 0.25071(9) 0.77519(15)
C5 C 0.7772(2) 0.19552(9) 0.83836(16)
H7 H 0.7467 0.1548 0.7994
C6 C 0.7993(2) 0.19962(9) 0.95856(16)
C7 C 0.8463(2) 0.26157(9) 1.01613(15)
C8 C 0.8717(2) 0.31691(9) 0.95254(15)
H8 H 0.9049 0.3575 0.9914
C9 C 0.8477(2) 0.31200(9) 0.83109(15)
C10 C 0.9022(2) 0.43456(9) 0.81607(14)
H9 H 0.8391 0.4416 0.8699
C11 C 0.7735(2) 0.13923(9) 1.02735(16)
H10 H 0.6814 0.1470 1.0534
H11 H 0.8691 0.1321 1.0950
H12 H 0.7537 0.1003 0.9773
C12 C 0.9024(2) 0.32944(8) 1.19739(14)
H13 H 1.0042 0.3488 1.1933
C13 C 0.7640(2) 0.38271(9) 1.17089(15)
H14 H 0.7886 0.4240 1.1371
H15 H 0.6576 0.3656 1.1244
C14 C 0.8999(2) 0.32667(9) 1.32584(15)
H16 H 0.8498 0.2864 1.3436
H17 H 1.0056 0.3343 1.3850
C15 C 1.0833(2) 0.44289(10) 0.88672(17)
H18 H 1.1168 0.4079 0.9449
H19 H 1.1006 0.4857 0.9257
H20 H 1.1461 0.4403 0.8339
O3 O 0.0532(2) 0.04163(8) 0.89503(12)
O4 O 0.3765(5) 0.32267(14) 1.0146(2)
N6 N 0.1690(2) 0.11112(8) 1.04702(13)
H21 H 0.1318 0.0862 1.0912
N7 N 0.25911(19) 0.16699(8) 1.10065(13)
N8 N 0.26515(17) 0.19778(7) 0.91093(12)
N9 N 0.3055(2) 0.28587(8) 0.53904(13)
H22 H 0.3122 0.3210 0.4990
N10 N 0.35477(18) 0.16354(7) 0.36306(12)
H23 H 0.2987 0.1259 0.3339
H24 H 0.4397 0.1685 0.3362
C16 C 0.1344(2) 0.09223(9) 0.93456(16)
C17 C 0.3002(2) 0.20679(9) 1.03014(15)
C18 C 0.4215(6) 0.26305(15) 1.0857(2)
H25 H 0.4212 0.2721 1.1655
H26 H 0.5307 0.2493 1.0903
C19 C 0.3782(2) 0.30758(9) 0.89933(15)
C20 C 0.4240(2) 0.35803(10) 0.83656(16)
H27 H 0.4689 0.3973 0.8756
C21 C 0.4045(2) 0.35135(8) 0.71798(15)
C22 C 0.3343(2) 0.29181(8) 0.66018(15)
C23 C 0.2927(2) 0.24013(9) 0.72422(15)
H28 H 0.2511 0.2001 0.6863
C24 C 0.3130(2) 0.24801(8) 0.84405(15)
C25 C 0.2103(2) 0.13194(8) 0.85818(15)
H29 H 0.1284 0.1385 0.7799
C26 C 0.4537(2) 0.40630(9) 0.65036(16)
H30 H 0.5094 0.4409 0.7043
H31 H 0.3582 0.4247 0.5927
H32 H 0.5248 0.3884 0.6108
C27 C 0.2647(2) 0.22289(9) 0.47906(15)
H33 H 0.1675 0.2033 0.4906
C28 C 0.2486(2) 0.22542(9) 0.34676(15)
H34 H 0.1380 0.2187 0.2939
H35 H 0.2966 0.2651 0.3247
C29 C 0.4007(2) 0.16986(9) 0.49610(15)
H36 H 0.5098 0.1873 0.5340
H37 H 0.3832 0.1292 0.5349
C30 C 0.3499(2) 0.09012(9) 0.84386(18)
H38 H 0.4095 0.1163 0.8043
H39 H 0.3066 0.0509 0.7977
H40 H 0.4215 0.0769 0.9206
F1 F 0.3205(2) 0.52296(8) 0.2849(2)
F2 F 0.57204(15) 0.49819(6) 0.35146(11)
F3 F 0.4315(2) 0.46939(9) 0.17636(12)
O6 O 0.25821(16) 0.40230(7) 0.35367(12)
O7 O 0.49476(16) 0.36383(7) 0.34149(12)
C32 C 0.3878(2) 0.40677(9) 0.33224(15)
C33 C 0.4252(2) 0.47555(10) 0.28692(19)
F4 F 0.80370(15) 0.03038(6) 0.33839(14)
F5 F 0.5722(2) 0.06367(8) 0.22680(15)
F6 F 0.6260(2) 0.06406(7) 0.41338(16)
O8 O 0.64114(16) 0.19184(7) 0.31562(14)
O9 O 0.89783(18) 0.15729(7) 0.35467(16)
C34 C 0.7504(2) 0.14943(9) 0.33376(16)
C35 C 0.6891(2) 0.07592(10) 0.32725(18)
O10 O 0.11484(16) 0.07743(7) 0.53485(12)
H43 H 0.051(4) 0.0537(15) 0.573(2)
H44 H 0.045(3) 0.1004(13) 0.483(2)
O11 O 0.01053(16) 0.49359(7) 0.33148(12)
H45 H 0.102(3) 0.4688(13) 0.346(2)
H46 H -0.005(3) 0.5074(13) 0.267(2)
O5? O 0.4480(14) 0.3038(5) 1.0249(5)
C31? C 0.3321(16) 0.2765(4) 1.0712(6)
H41? H 0.2321 0.3024 1.0443
H42? H 0.3732 0.2779 1.1572
loop_
_geom_bond_atom_site_label_1
_geom_bond_atom_site_label_2
_geom_bond_site_symmetry_1
_geom_bond_site_symmetry_2
O1 C1 1_555 1_555
O2 C3 1_555 1_555
N1 H1 1_555 1_555
N2 N1 1_555 1_555
N3 C2 1_555 1_555
N4 H2 1_555 1_555
N5 H3 1_555 1_555
H4 N5 1_555 1_555
C1 N1 1_555 1_555
C2 N2 1_555 1_555
C3 C2 1_555 1_555
H5 C3 1_555 1_555
H6 C3 1_555 1_555
C4 O2 1_555 1_555
C5 C4 1_555 1_555
H7 C5 1_555 1_555
C6 C5 1_555 1_555
C7 N4 1_555 1_555
C8 C7 1_555 1_555
H8 C8 1_555 1_555
C9 N3 1_555 1_555
C10 N3 1_555 1_555
H9 C10 1_555 1_555
C11 C6 1_555 1_555
H10 C11 1_555 1_555
H11 C11 1_555 1_555
H12 C11 1_555 1_555
C12 N4 1_555 1_555
H13 C12 1_555 1_555
C13 N5 1_555 1_555
H14 C13 1_555 1_555
H15 C13 1_555 1_555
C14 N5 1_555 1_555
H16 C14 1_555 1_555
H17 C14 1_555 1_555
C15 C10 1_555 1_555
H18 C15 1_555 1_555
H19 C15 1_555 1_555
H20 C15 1_555 1_555
O3 C16 1_555 1_555
O4 C18 1_555 1_555
N6 H21 1_555 1_555
N7 N6 1_555 1_555
N8 C17 1_555 1_555
N9 H22 1_555 1_555
N10 H23 1_555 1_555
H24 N10 1_555 1_555
C16 N6 1_555 1_555
C17 N7 1_555 1_555
C18 C17 1_555 1_555
H25 C18 1_555 1_555
H26 C18 1_555 1_555
C19 O4 1_555 1_555
C20 C19 1_555 1_555
H27 C20 1_555 1_555
C21 C20 1_555 1_555
C22 N9 1_555 1_555
C23 C22 1_555 1_555
H28 C23 1_555 1_555
C24 N8 1_555 1_555
C25 N8 1_555 1_555
H29 C25 1_555 1_555
C26 C21 1_555 1_555
H30 C26 1_555 1_555
H31 C26 1_555 1_555
H32 C26 1_555 1_555
C27 N9 1_555 1_555
H33 C27 1_555 1_555
C28 N10 1_555 1_555
H34 C28 1_555 1_555
H35 C28 1_555 1_555
C29 N10 1_555 1_555
H36 C29 1_555 1_555
H37 C29 1_555 1_555
C30 C25 1_555 1_555
H38 C30 1_555 1_555
H39 C30 1_555 1_555
H40 C30 1_555 1_555
F1 C33 1_555 1_555
F2 C33 1_555 1_555
F3 C33 1_555 1_555
O6 C32 1_555 1_555
O7 C32 1_555 1_555
C32 C33 1_555 1_555
F4 C35 1_555 1_555
F5 C35 1_555 1_555
F6 C35 1_555 1_555
O8 C34 1_555 1_555
O9 C34 1_555 1_555
C34 C35 1_555 1_555
O10 H43 1_555 1_555
H44 O10 1_555 1_555
O11 H45 1_555 1_555
H46 O11 1_555 1_555
C1 C10 1_555 1_555
C4 C9 1_555 1_555
C6 C7 1_555 1_555
C8 C9 1_555 1_555
C12 C13 1_555 1_555
C12 C14 1_555 1_555
C16 C25 1_555 1_555
C19 C24 1_555 1_555
C21 C22 1_555 1_555
C23 C24 1_555 1_555
C27 C28 1_555 1_555
C27 C29 1_555 1_555

#END
