
#######################################################################
#
#                 Cambridge Crystallographic Data Centre
#                                CCDC 
#
#######################################################################
#
# If this CIF has been generated from an entry in the Cambridge 
# Structural Database, then it will include bibliographic, chemical, 
# crystal, experimental, refinement or atomic coordinate data resulting 
# from the CCDC's data processing and validation procedures.
#
#######################################################################

data_LOMHOK
_chemical_formula_moiety         'C10 H8 O2'
_chemical_name_systematic        
trans-1,4-Diethynyl-1,4-dihydroxy-2,5-cyclohexadiene
_symmetry_cell_setting           orthorhombic
_symmetry_space_group_name_H-M   'P b c a'
_symmetry_Int_Tables_number      61
_space_group_name_Hall           '-P 2ac 2ab'
loop_
_symmetry_equiv_pos_site_id
_symmetry_equiv_pos_as_xyz
1 x,y,z
2 1/2-x,-y,1/2+z
3 -x,1/2+y,1/2-z
4 1/2+x,1/2-y,-z
5 -x,-y,-z
6 1/2+x,y,1/2-z
7 x,1/2-y,1/2+z
8 1/2-x,1/2+y,z
_cell_length_a                   8.8316(2)
_cell_length_b                   5.90030(10)
_cell_length_c                   15.6123(4)
_cell_angle_alpha                90
_cell_angle_beta                 90
_cell_angle_gamma                90
_cell_volume                     813.543
_exptl_crystal_colour            colorless
_exptl_crystal_description       block
_chemical_melting_point          452-453K
_cell_formula_units_Z            4
loop_
_atom_site_label
_atom_site_type_symbol
_atom_site_fract_x
_atom_site_fract_y
_atom_site_fract_z
C1 C 0.38988(15) 0.3628(2) 0.68883(8)
H1 H 0.329(2) 0.445(3) 0.7261(12)
C2 C 0.46345(12) 0.25097(19) 0.64093(7)
C3 C 0.55305(12) 0.10419(18) 0.58250(7)
O1 O 0.70092(9) 0.06232(15) 0.62009(5)
H2 H 0.747(2) 0.194(3) 0.6248(10)
C4 C 0.47605(13) -0.12408(18) 0.57682(7)
H3 H 0.4615(17) -0.199(2) 0.6319(9)
C5 C 0.57112(13) 0.21613(18) 0.49603(7)
H4 H 0.6239(17) 0.359(3) 0.4961(9)
C5D C 0.42888(13) -0.21613(18) 0.50397(7)
C3D C 0.44695(12) -0.10419(18) 0.41750(7)
C2D C 0.53655(12) -0.25097(19) 0.35907(7)
C1D C 0.61012(15) -0.3628(2) 0.31117(8)
H1D H 0.671(2) -0.445(3) 0.2739(12)
O1D O 0.29908(9) -0.06232(15) 0.37991(5)
H2D H 0.253(2) -0.194(3) 0.3752(10)
C4D C 0.52395(13) 0.12408(18) 0.42318(7)
H3D H 0.5385(17) 0.199(2) 0.3681(9)
H4D H 0.3761(17) -0.359(3) 0.5039(9)
loop_
_geom_bond_atom_site_label_1
_geom_bond_atom_site_label_2
_geom_bond_site_symmetry_1
_geom_bond_site_symmetry_2
C1 H1 1_555 1_555
C2 C1 1_555 1_555
C3 C2 1_555 1_555
O1 C3 1_555 1_555
H2 O1 1_555 1_555
C4 C3 1_555 1_555
H3 C4 1_555 1_555
C5 C3 1_555 1_555
H4 C5 1_555 1_555
C5D C4 1_555 1_555
C3D C5D 1_555 1_555
C2D C3D 1_555 1_555
C1D C2D 1_555 1_555
H1D C1D 1_555 1_555
O1D C3D 1_555 1_555
H2D O1D 1_555 1_555
C4D C5 1_555 1_555
H3D C4D 1_555 1_555
H4D C5D 1_555 1_555
C3D C4D 1_555 1_555

#END
