
#######################################################################
#
#                 Cambridge Crystallographic Data Centre
#                                CCDC 
#
#######################################################################
#
# If this CIF has been generated from an entry in the Cambridge 
# Structural Database, then it will include bibliographic, chemical, 
# crystal, experimental, refinement or atomic coordinate data resulting 
# from the CCDC's data processing and validation procedures.
#
#######################################################################

data_LONCUM
_chemical_formula_moiety         'C19 H27 N1 O2'
_chemical_name_systematic        1-Aza-(14)paracyclophane-2,14-dione
_symmetry_cell_setting           monoclinic
_symmetry_space_group_name_H-M   'P 21'
_symmetry_Int_Tables_number      4
_space_group_name_Hall           'P 2yb'
loop_
_symmetry_equiv_pos_site_id
_symmetry_equiv_pos_as_xyz
1 x,y,z
2 -x,1/2+y,-z
_cell_length_a                   5.110(5)
_cell_length_b                   19.458(3)
_cell_length_c                   8.496(4)
_cell_angle_alpha                90
_cell_angle_beta                 103.49(6)
_cell_angle_gamma                90
_cell_volume                     821.454
_exptl_crystal_colour            colorless
_exptl_crystal_description       needle
_chemical_melting_point          430.8-431.4K
_cell_formula_units_Z            2
_exptl_crystal_recrystallization_method 'diethyl ether/hexane'
loop_
_atom_site_label
_atom_site_type_symbol
_atom_site_fract_x
_atom_site_fract_y
_atom_site_fract_z
O1 O 0.9472(9) 0.27279 0.6882(6)
O2 O 0.913(1) 0.5495(4) 0.2015(6)
N1 N 1.369(1) 0.2949(4) 0.6543(8)
C1 C 1.190(2) 0.2644(5) 0.7346(9)
C2 C 1.319(2) 0.2275(4) 0.8874(9)
C3 C 1.275(1) 0.2660(5) 1.0356(9)
C4 C 1.392(2) 0.3391(5) 1.0570(9)
C5 C 1.214(1) 0.3951(5) 0.9590(9)
C6 C 1.344(2) 0.4654(5) 0.9683(9)
C7 C 1.170(2) 0.5176(5) 0.8600(8)
C8 C 1.279(2) 0.5903(5) 0.8769(9)
C9 C 1.110(2) 0.6431(5) 0.7642(9)
C10 C 1.073(1) 0.6274(5) 0.5841(8)
C11 C 1.344(1) 0.6258(5) 0.5303(9)
C12 C 1.306(2) 0.6047(5) 0.350(1)
C13 C 1.126(1) 0.5429(5) 0.3008(8)
C14 C 1.205(2) 0.4755(5) 0.3784(9)
C15 C 1.019(1) 0.4223(5) 0.3521(9)
C16 C 1.063(1) 0.3614(5) 0.4373(9)
C17 C 1.312(2) 0.3522(5) 0.5499(9)
C18 C 1.508(1) 0.4028(5) 0.5671(9)
C19 C 1.457(1) 0.4632(5) 0.484(1)
H1 H 1.543 0.275 0.671
H2 H 0.855 0.428 0.272
H3 H 0.930 0.326 0.420
H4 H 1.679 0.396 0.638
H5 H 1.594 0.497 0.497
H6 H 1.507 0.224 0.894
H7 H 1.243 0.183 0.884
H8 H 1.086 0.269 1.027
H9 H 1.356 0.240 1.129
H10 H 1.421 0.351 1.168
H11 H 1.558 0.339 1.026
H12 H 1.169 0.381 0.849
H13 H 1.055 0.399 0.998
H14 H 1.377 0.481 1.077
H15 H 1.509 0.461 0.937
H16 H 1.150 0.504 0.751
H17 H 0.998 0.518 0.886
H18 H 1.453 0.590 0.855
H19 H 1.292 0.605 0.985
H20 H 1.195 0.687 0.785
H21 H 0.937 0.645 0.787
H22 H 0.961 0.662 0.523
H23 H 0.988 0.584 0.562
H24 H 1.460 0.594 0.595
H25 H 1.422 0.670 0.545
H26 H 1.478 0.595 0.332
H27 H 1.229 0.643 0.285
loop_
_geom_bond_atom_site_label_1
_geom_bond_atom_site_label_2
_geom_bond_site_symmetry_1
_geom_bond_site_symmetry_2
O1 C1 1_555 1_555
O2 C13 1_555 1_555
N1 C1 1_555 1_555
C1 C2 1_555 1_555
C2 C3 1_555 1_555
C3 C4 1_555 1_555
C4 C5 1_555 1_555
C5 C6 1_555 1_555
C6 C7 1_555 1_555
C7 C8 1_555 1_555
C8 C9 1_555 1_555
C9 C10 1_555 1_555
C10 C11 1_555 1_555
C11 C12 1_555 1_555
C12 C13 1_555 1_555
C13 C14 1_555 1_555
C14 C15 1_555 1_555
C15 C16 1_555 1_555
C16 C17 1_555 1_555
C17 N1 1_555 1_555
C18 C17 1_555 1_555
C19 C14 1_555 1_555
H1 N1 1_555 1_555
H2 C15 1_555 1_555
H3 C16 1_555 1_555
H4 C18 1_555 1_555
H5 C19 1_555 1_555
H6 C2 1_555 1_555
H7 C2 1_555 1_555
H8 C3 1_555 1_555
H9 C3 1_555 1_555
H10 C4 1_555 1_555
H11 C4 1_555 1_555
H12 C5 1_555 1_555
H13 C5 1_555 1_555
H14 C6 1_555 1_555
H15 C6 1_555 1_555
H16 C7 1_555 1_555
H17 C7 1_555 1_555
H18 C8 1_555 1_555
H19 C8 1_555 1_555
H20 C9 1_555 1_555
H21 C9 1_555 1_555
H22 C10 1_555 1_555
H23 C10 1_555 1_555
H24 C11 1_555 1_555
H25 C11 1_555 1_555
H26 C12 1_555 1_555
H27 C12 1_555 1_555
C18 C19 1_555 1_555

#END
