
#######################################################################
#
#                 Cambridge Crystallographic Data Centre
#                                CCDC 
#
#######################################################################
#
# If this CIF has been generated from an entry in the Cambridge 
# Structural Database, then it will include bibliographic, chemical, 
# crystal, experimental, refinement or atomic coordinate data resulting 
# from the CCDC's data processing and validation procedures.
#
#######################################################################

data_LONFAV
_chemical_formula_moiety         'C72 H76 O4 Si2,C1 H2 Cl2'
_chemical_name_systematic        
"(Z)-1,6-bis((R)-2,2'-Dimethoxy-1,1'-binaphthalen-3-yl)-3,4-bis((tri-isopropylsilyl)ethynyl)hex-3-en-1,5-diyne dichloromethane solvate"
_symmetry_cell_setting           monoclinic
_symmetry_space_group_name_H-M   'P 21'
_symmetry_Int_Tables_number      4
_space_group_name_Hall           'P 2yb'
loop_
_symmetry_equiv_pos_site_id
_symmetry_equiv_pos_as_xyz
1 x,y,z
2 -x,1/2+y,-z
_cell_length_a                   8.018(2)
_cell_length_b                   21.576(2)
_cell_length_c                   19.055(2)
_cell_angle_alpha                90
_cell_angle_beta                 101.700(10)
_cell_angle_gamma                90
_cell_volume                     3227.95
_exptl_crystal_colour            yellow
_chemical_melting_point          203deg.C
_cell_formula_units_Z            2
_exptl_crystal_recrystallization_method dichloromethane/acetonitrile
loop_
_atom_site_label
_atom_site_type_symbol
_atom_site_fract_x
_atom_site_fract_y
_atom_site_fract_z
Si1 Si 0.2639(3) 0.73098(10) 0.63413(11)
Si2 Si -0.0324(2) 0.44263(10) 0.62312(8)
C1 C 0.2120(7) 0.6159(3) 0.8216(3)
C2 C 0.2680(7) 0.6489(3) 0.8869(3)
C3 C 0.3237(7) 0.6801(3) 0.9384(3)
C4 C 0.3868(6) 0.7220(3) 0.9962(2)
C5 C 0.3362(6) 0.7828(3) 0.9900(3)
H1 H 0.2572 0.7965 0.9480
C6 C 0.3984(7) 0.8256(3) 1.0451(3)
C7 C 0.5176(6) 0.8053(3) 1.1067(3)
C8 C 0.5700(6) 0.7421(3) 1.1126(3)
C9 C 0.5044(6) 0.7019(3) 1.0584(3)
O1 O 0.5472(5) 0.63996(18) 1.0638(2)
C10 C 0.6896(10) 0.6238(4) 1.0336(6)
H2 H 0.7119 0.5802 1.0387
H3 H 0.6660 0.6346 0.9837
H4 H 0.7874 0.6465 1.0580
C11 C 0.3435(8) 0.8879(3) 1.0407(3)
H5 H 0.2588 0.9012 1.0004
C12 C 0.4069(9) 0.9290(3) 1.0939(4)
H6 H 0.3697 0.9713 1.0896
C13 C 0.5255(9) 0.9102(3) 1.1540(3)
H7 H 0.5698 0.9396 1.1909
C14 C 0.5804(7) 0.8495(3) 1.1606(3)
H8 H 0.6629 0.8371 1.2021
C15 C 0.6972(6) 0.7220(3) 1.1770(3)
C16 C 0.6492(7) 0.6936(3) 1.2361(3)
C17 C 0.7706(8) 0.6815(3) 1.2996(3)
C18 C 0.9444(8) 0.6953(3) 1.3007(3)
H9 H 1.0292 0.6863 1.3427
C19 C 0.9902(7) 0.7213(3) 1.2432(3)
H10 H 1.1082 0.7298 1.2443
C20 C 0.8684(7) 0.7349(3) 1.1814(3)
O2 O 0.9064(5) 0.7629(2) 1.1219(2)
C21 C 1.0785(8) 0.7816(4) 1.1236(4)
H11 H 1.0856 0.8006 1.0788
H12 H 1.1155 0.8105 1.1619
H13 H 1.1502 0.7455 1.1309
C22 C 0.4762(7) 0.6761(3) 1.2345(3)
H14 H 0.3906 0.6829 1.1921
C23 C 0.4334(10) 0.6493(4) 1.2943(4)
H15 H 0.3172 0.6375 1.2924
C24 C 0.5527(10) 0.6398(4) 1.3569(4)
H16 H 0.5198 0.6214 1.3979
C25 C 0.7189(10) 0.6558(3) 1.3602(3)
H17 H 0.8015 0.6500 1.4038
C26 C 0.2125(8) 0.6507(3) 0.7571(3)
C27 C 0.2211(9) 0.6824(3) 0.7066(3)
C28 C 0.4456(18) 0.7837(7) 0.6799(8)
H18 H 0.5407 0.7558 0.6869
C29 C 0.451(2) 0.8032(8) 0.7456(8)
H19 H 0.5515 0.8280 0.7590
H20 H 0.3521 0.8283 0.7459
H21 H 0.4540 0.7697 0.7791
C30 C 0.493(2) 0.8288(8) 0.6218(11)
H22 H 0.5860 0.8518 0.6494
H23 H 0.5280 0.8102 0.5813
H24 H 0.3988 0.8562 0.6052
C31 C 0.0705(12) 0.7769(4) 0.5889(4)
H25 H 0.1050 0.7993 0.5507
C32 C 0.0187(14) 0.8252(5) 0.6386(6)
H26 H -0.0789 0.8468 0.6123
H27 H -0.0104 0.8054 0.6796
H28 H 0.1096 0.8542 0.6541
C33 C -0.0765(15) 0.7374(7) 0.5549(7)
H29 H -0.1696 0.7637 0.5334
H30 H -0.0438 0.7119 0.5186
H31 H -0.1110 0.7115 0.5903
C34 C 0.311(3) 0.6774(6) 0.5652(7)
H32 H 0.4319 0.6785 0.5832
C35 C 0.346(3) 0.6221(7) 0.5715(9)
H33 H 0.4031 0.6057 0.5358
H34 H 0.3867 0.6013 0.6163
H35 H 0.2257 0.6156 0.5567
C36 C 0.341(3) 0.7045(8) 0.4986(7)
H36 H 0.3886 0.6739 0.4717
H37 H 0.2231 0.7106 0.4774
H38 H 0.4015 0.7429 0.4982
C37 C 0.1648(7) 0.5547(3) 0.8195(3)
C38 C 0.1569(7) 0.5223(3) 0.8839(3)
C39 C 0.1411(7) 0.4930(3) 0.9355(3)
C40 C 0.1254(6) 0.4549(2) 0.9954(2)
C41 C 0.1652(7) 0.3930(3) 0.9966(3)
H39 H 0.2097 0.3758 0.9577
C42 C 0.1446(7) 0.3542(3) 1.0536(3)
C43 C 0.0796(6) 0.3802(3) 1.1118(3)
C44 C 0.0448(6) 0.4452(3) 1.1120(2)
C45 C 0.0664(6) 0.4808(2) 1.0550(3)
O3 O 0.0189(4) 0.54208(17) 1.0512(2)
C46 C 0.1503(9) 0.5844(3) 1.0783(5)
H40 H 0.1050 0.6257 1.0736
H41 H 0.1994 0.5763 1.1277
H42 H 0.2364 0.5804 1.0501
C47 C 0.1792(9) 0.2893(3) 1.0540(3)
H43 H 0.2285 0.2716 1.0167
C48 C 0.1488(10) 0.2528(3) 1.1080(4)
H44 H 0.1723 0.2092 1.1075
C49 C 0.0844(10) 0.2780(3) 1.1641(3)
H45 H 0.0593 0.2511 1.2008
C50 C 0.0504(8) 0.3399(3) 1.1667(3)
H46 H 0.0068 0.3562 1.2062
C51 C -0.0212(6) 0.4727(3) 1.1737(3)
C52 C 0.0868(7) 0.4846(3) 1.2402(3)
C53 C 0.0196(8) 0.5084(3) 1.2985(3)
C54 C -0.1580(8) 0.5206(3) 1.2861(4)
H47 H -0.2063 0.5364 1.3246
C55 C -0.2599(8) 0.5099(3) 1.2220(3)
H48 H -0.3790 0.5195 1.2152
C56 C -0.1949(7) 0.4851(3) 1.1649(3)
O4 O -0.2900(4) 0.4719(2) 1.0993(2)
C57 C -0.4704(7) 0.4782(5) 1.0902(4)
H49 H -0.5231 0.4676 1.0419
H50 H -0.5125 0.4513 1.1228
H51 H -0.4969 0.5204 1.0996
C58 C 0.2656(7) 0.4720(3) 1.2537(3)
H52 H 0.3160 0.4561 1.2157
C59 C 0.3644(8) 0.4825(4) 1.3195(3)
H53 H 0.4837 0.4729 1.3275
C60 C 0.2967(9) 0.5069(4) 1.3760(3)
H54 H 0.3695 0.5150 1.4216
C61 C 0.1271(9) 0.5193(4) 1.3653(3)
H55 H 0.0804 0.5355 1.4041
C62 C 0.1145(7) 0.5217(3) 0.7534(3)
C63 C 0.0686(8) 0.4918(3) 0.7002(3)
C64 C -0.1664(16) 0.3871(6) 0.6614(6)
C65 C -0.2374(18) 0.4013(6) 0.7154(6)
H56 H -0.2991 0.3658 0.7269
H57 H -0.1539 0.4132 0.7567
H58 H -0.3151 0.4350 0.7012
C66 C -0.2484(12) 0.3381(5) 0.6084(5)
H59 H -0.3156 0.3108 0.6312
H60 H -0.3198 0.3574 0.5677
H61 H -0.1605 0.3148 0.5928
C67 C 0.1324(9) 0.4004(4) 0.5861(3)
H62 H 0.0737 0.3767 0.5460
C68 C 0.2362(11) 0.3555(4) 0.6397(5)
H63 H 0.3192 0.3353 0.6177
H64 H 0.2929 0.3772 0.6818
H65 H 0.1605 0.3251 0.6527
C69 C 0.2541(11) 0.4430(5) 0.5580(4)
H66 H 0.3366 0.4189 0.5397
H67 H 0.1908 0.4682 0.5203
H68 H 0.3115 0.4691 0.5961
C70 C -0.1536(17) 0.4958(6) 0.5546(6)
C71 C -0.2288(11) 0.4669(5) 0.4842(4)
H69 H -0.2879 0.4978 0.4522
H70 H -0.1387 0.4495 0.4641
H71 H -0.3069 0.4348 0.4909
C72 C -0.173(2) 0.5523(7) 0.5618(6)
H72 H -0.2386 0.5692 0.5182
H73 H -0.2339 0.5580 0.5999
H74 H -0.0653 0.5732 0.5737
C73 C 0.667(4) 0.586(2) 0.8019(17)
Cl1 Cl 0.7560(10) 0.6330(5) 0.7390(5)
Cl3 Cl 0.566(2) 0.5461(9) 0.7343(12)
Cl2? Cl 0.734(2) 0.5790(6) 0.8525(8)
loop_
_geom_bond_atom_site_label_1
_geom_bond_atom_site_label_2
_geom_bond_site_symmetry_1
_geom_bond_site_symmetry_2
Si1 C27 1_555 1_555
Si2 C63 1_555 1_555
C1 C2 1_555 1_555
C2 C3 1_555 1_555
C3 C4 1_555 1_555
C4 C5 1_555 1_555
C5 H1 1_555 1_555
C6 C5 1_555 1_555
C7 C6 1_555 1_555
C8 C7 1_555 1_555
C9 C4 1_555 1_555
O1 C9 1_555 1_555
C10 O1 1_555 1_555
H2 C10 1_555 1_555
H3 C10 1_555 1_555
H4 C10 1_555 1_555
C11 C6 1_555 1_555
H5 C11 1_555 1_555
C12 C11 1_555 1_555
H6 C12 1_555 1_555
C13 C12 1_555 1_555
H7 C13 1_555 1_555
C14 C7 1_555 1_555
H8 C14 1_555 1_555
C15 C8 1_555 1_555
C16 C15 1_555 1_555
C17 C16 1_555 1_555
C18 C17 1_555 1_555
H9 C18 1_555 1_555
C19 C18 1_555 1_555
H10 C19 1_555 1_555
C20 C15 1_555 1_555
O2 C20 1_555 1_555
C21 O2 1_555 1_555
H11 C21 1_555 1_555
H12 C21 1_555 1_555
H13 C21 1_555 1_555
C22 C16 1_555 1_555
H14 C22 1_555 1_555
C23 C22 1_555 1_555
H15 C23 1_555 1_555
C24 C23 1_555 1_555
H16 C24 1_555 1_555
C25 C17 1_555 1_555
H17 C25 1_555 1_555
C26 C1 1_555 1_555
C27 C26 1_555 1_555
C28 Si1 1_555 1_555
H18 C28 1_555 1_555
C29 C28 1_555 1_555
H19 C29 1_555 1_555
H20 C29 1_555 1_555
H21 C29 1_555 1_555
C30 C28 1_555 1_555
H22 C30 1_555 1_555
H23 C30 1_555 1_555
H24 C30 1_555 1_555
C31 Si1 1_555 1_555
H25 C31 1_555 1_555
C32 C31 1_555 1_555
H26 C32 1_555 1_555
H27 C32 1_555 1_555
H28 C32 1_555 1_555
C33 C31 1_555 1_555
H29 C33 1_555 1_555
H30 C33 1_555 1_555
H31 C33 1_555 1_555
C34 Si1 1_555 1_555
H32 C34 1_555 1_555
C35 C34 1_555 1_555
H33 C35 1_555 1_555
H34 C35 1_555 1_555
H35 C35 1_555 1_555
C36 C34 1_555 1_555
H36 C36 1_555 1_555
H37 C36 1_555 1_555
H38 C36 1_555 1_555
C37 C1 1_555 1_555
C38 C37 1_555 1_555
C39 C38 1_555 1_555
C40 C39 1_555 1_555
C41 C40 1_555 1_555
H39 C41 1_555 1_555
C42 C41 1_555 1_555
C43 C42 1_555 1_555
C44 C43 1_555 1_555
C45 C40 1_555 1_555
O3 C45 1_555 1_555
C46 O3 1_555 1_555
H40 C46 1_555 1_555
H41 C46 1_555 1_555
H42 C46 1_555 1_555
C47 C42 1_555 1_555
H43 C47 1_555 1_555
C48 C47 1_555 1_555
H44 C48 1_555 1_555
C49 C48 1_555 1_555
H45 C49 1_555 1_555
C50 C43 1_555 1_555
H46 C50 1_555 1_555
C51 C44 1_555 1_555
C52 C51 1_555 1_555
C53 C52 1_555 1_555
C54 C53 1_555 1_555
H47 C54 1_555 1_555
C55 C54 1_555 1_555
H48 C55 1_555 1_555
C56 C51 1_555 1_555
O4 C56 1_555 1_555
C57 O4 1_555 1_555
H49 C57 1_555 1_555
H50 C57 1_555 1_555
H51 C57 1_555 1_555
C58 C52 1_555 1_555
H52 C58 1_555 1_555
C59 C58 1_555 1_555
H53 C59 1_555 1_555
C60 C59 1_555 1_555
H54 C60 1_555 1_555
C61 C53 1_555 1_555
H55 C61 1_555 1_555
C62 C37 1_555 1_555
C63 C62 1_555 1_555
C64 Si2 1_555 1_555
C65 C64 1_555 1_555
H56 C65 1_555 1_555
H57 C65 1_555 1_555
H58 C65 1_555 1_555
C66 C64 1_555 1_555
H59 C66 1_555 1_555
H60 C66 1_555 1_555
H61 C66 1_555 1_555
C67 Si2 1_555 1_555
H62 C67 1_555 1_555
C68 C67 1_555 1_555
H63 C68 1_555 1_555
H64 C68 1_555 1_555
H65 C68 1_555 1_555
C69 C67 1_555 1_555
H66 C69 1_555 1_555
H67 C69 1_555 1_555
H68 C69 1_555 1_555
C70 Si2 1_555 1_555
C71 C70 1_555 1_555
H69 C71 1_555 1_555
H70 C71 1_555 1_555
H71 C71 1_555 1_555
C72 C70 1_555 1_555
H72 C72 1_555 1_555
H73 C72 1_555 1_555
H74 C72 1_555 1_555
C73 Cl1 1_555 1_555
Cl3 C73 1_555 1_555
C8 C9 1_555 1_555
C13 C14 1_555 1_555
C19 C20 1_555 1_555
C24 C25 1_555 1_555
C44 C45 1_555 1_555
C49 C50 1_555 1_555
C55 C56 1_555 1_555
C60 C61 1_555 1_555

#END
