
#######################################################################
#
#                 Cambridge Crystallographic Data Centre
#                                CCDC 
#
#######################################################################
#
# If this CIF has been generated from an entry in the Cambridge 
# Structural Database, then it will include bibliographic, chemical, 
# crystal, experimental, refinement or atomic coordinate data resulting 
# from the CCDC's data processing and validation procedures.
#
#######################################################################

data_LONSOX
_chemical_name_common            N-antipyrine-3-methanyl-2-thienyldiminato
_chemical_formula_moiety         'C17 H18 N3 O1 S1'
_chemical_name_systematic        
1,5-Dimethyl-4-(((3-methyl-2-thienyl)methylene)amino)-2-phenyl-2,5-dihydro-1H-pyrazol-3-ol
_symmetry_cell_setting           orthorhombic
_symmetry_space_group_name_H-M   'P 21 21 21'
_symmetry_Int_Tables_number      19
_space_group_name_Hall           'P 2ac 2ab'
loop_
_symmetry_equiv_pos_site_id
_symmetry_equiv_pos_as_xyz
1 x,y,z
2 1/2+x,1/2-y,-z
3 -x,1/2+y,1/2-z
4 1/2-x,-y,1/2+z
_cell_length_a                   6.8917(14)
_cell_length_b                   13.422(3)
_cell_length_c                   17.279(4)
_cell_angle_alpha                90
_cell_angle_beta                 90
_cell_angle_gamma                90
_cell_volume                     1598.31
_exptl_crystal_colour            colorless
_exptl_crystal_description       block
_cell_formula_units_Z            4
loop_
_atom_site_label
_atom_site_type_symbol
_atom_site_fract_x
_atom_site_fract_y
_atom_site_fract_z
S1 S 0.04396(9) 0.97035(5) 0.80867(4)
O1 O 0.2491(2) 0.56439(13) 0.87139(9)
N1 N -0.0196(3) 0.50943(13) 0.94014(11)
N2 N -0.1923(2) 0.55354(14) 0.96793(10)
N3 N -0.0042(2) 0.75867(14) 0.85871(10)
C1 C 0.0838(3) 0.57929(16) 0.89607(12)
C2 C -0.0416(3) 0.66564(15) 0.89159(11)
C3 C -0.2057(3) 0.64533(16) 0.93317(11)
C4 C -0.3821(3) 0.70751(17) 0.94242(14)
H1 H -0.4144 0.7130 0.9975
H2 H -0.4904 0.6766 0.9147
H3 H -0.3578 0.7741 0.9212
C5 C -0.3583(3) 0.48649(17) 0.97802(13)
H4 H -0.3242 0.4339 1.0149
H5 H -0.3922 0.4565 0.9281
H6 H -0.4694 0.5243 0.9978
C6 C 0.0753(3) 0.43858(15) 0.98861(12)
C7 C 0.1880(3) 0.36529(17) 0.95329(14)
H7 H 0.1956 0.3617 0.8985
C8 C 0.2889(3) 0.29775(17) 0.99874(15)
H8 H 0.3670 0.2482 0.9749
C9 C 0.2765(3) 0.30216(18) 1.07849(15)
H9 H 0.3455 0.2555 1.1094
C10 C 0.1629(3) 0.37494(18) 1.11352(14)
H10 H 0.1534 0.3772 1.1683
C11 C 0.0633(3) 0.44437(16) 1.06913(13)
H11 H -0.0118 0.4950 1.0932
C12 C 0.1555(3) 0.77361(17) 0.82127(12)
H12 H 0.2426 0.7200 0.8123
C13 C 0.2012(3) 0.87223(17) 0.79309(12)
C14 C 0.3697(4) 0.9029(2) 0.75635(13)
C15 C 0.3661(4) 1.0068(2) 0.74049(14)
H13 H 0.4684 1.0411 0.7150
C16 C 0.2005(4) 1.0522(2) 0.76562(14)
H14 H 0.1751 1.1213 0.7599
C17 C 0.5385(4) 0.8369(2) 0.73602(15)
H15 H 0.6601 0.8722 0.7465
H16 H 0.5321 0.8194 0.6810
H17 H 0.5332 0.7761 0.7673
H18 H 0.326(4) 0.5174(19) 0.866(2)
loop_
_geom_bond_atom_site_label_1
_geom_bond_atom_site_label_2
_geom_bond_site_symmetry_1
_geom_bond_site_symmetry_2
S1 C13 1_555 1_555
O1 C1 1_555 1_555
N1 N2 1_555 1_555
N2 C3 1_555 1_555
N3 C2 1_555 1_555
C1 N1 1_555 1_555
C2 C1 1_555 1_555
C3 C2 1_555 1_555
C4 C3 1_555 1_555
H1 C4 1_555 1_555
H2 C4 1_555 1_555
H3 C4 1_555 1_555
C5 N2 1_555 1_555
H4 C5 1_555 1_555
H5 C5 1_555 1_555
H6 C5 1_555 1_555
C6 N1 1_555 1_555
C7 C6 1_555 1_555
H7 C7 1_555 1_555
C8 C7 1_555 1_555
H8 C8 1_555 1_555
C9 C8 1_555 1_555
H9 C9 1_555 1_555
C10 C9 1_555 1_555
H10 C10 1_555 1_555
C11 C6 1_555 1_555
H11 C11 1_555 1_555
C12 N3 1_555 1_555
H12 C12 1_555 1_555
C13 C12 1_555 1_555
C14 C13 1_555 1_555
C15 C14 1_555 1_555
H13 C15 1_555 1_555
C16 S1 1_555 1_555
H14 C16 1_555 1_555
C17 C14 1_555 1_555
H15 C17 1_555 1_555
H16 C17 1_555 1_555
H17 C17 1_555 1_555
H18 O1 1_555 1_555
C10 C11 1_555 1_555
C15 C16 1_555 1_555

#END
