
#######################################################################
#
#                 Cambridge Crystallographic Data Centre
#                                CCDC 
#
#######################################################################
#
# If this CIF has been generated from an entry in the Cambridge 
# Structural Database, then it will include bibliographic, chemical, 
# crystal, experimental, refinement or atomic coordinate data resulting 
# from the CCDC's data processing and validation procedures.
#
#######################################################################

data_LONXUH
_chemical_formula_moiety         'C25 H50 O4 Si2'
_chemical_name_systematic        
5-(t-Butyldimethylsilyloxy)-1-ethenyl-4-(triethylsilyloxy)-2-hydroxymethyl-6-methyl-3,4-(propan-2-ylidene)-cyclohexan-1-ol
_symmetry_cell_setting           monoclinic
_symmetry_space_group_name_H-M   'P 21/a'
_symmetry_Int_Tables_number      14
_space_group_name_Hall           '-P 2yab'
loop_
_symmetry_equiv_pos_site_id
_symmetry_equiv_pos_as_xyz
1 x,y,z
2 1/2+x,1/2-y,z
3 -x,-y,-z
4 1/2-x,1/2+y,-z
_cell_length_a                   24.26(1)
_cell_length_b                   9.882(7)
_cell_length_c                   12.554(7)
_cell_angle_alpha                90
_cell_angle_beta                 101.54(4)
_cell_angle_gamma                90
_cell_volume                     2948.82
_exptl_crystal_colour            colorless
_exptl_crystal_description       cube
_cell_formula_units_Z            4
loop_
_atom_site_label
_atom_site_type_symbol
_atom_site_fract_x
_atom_site_fract_y
_atom_site_fract_z
Si1 Si 0.53500(4) 0.1611(1) 0.22640(7)
Si2 Si 0.67880(4) 0.4665(1) 0.14720(7)
O1 O 0.71110(7) 0.4593(2) 0.4788(2)
O2 O 0.55990(8) 0.2565(2) 0.3323(1)
O3 O 0.61960(8) 0.4451(2) 0.1881(1)
O4 O 0.71700(9) 0.7310(3) 0.4630(2)
C1 C 0.6094(1) 0.3415(3) 0.3586(2)
C2 C 0.6137(1) 0.6024(3) 0.3438(2)
C3 C 0.6030(1) 0.4673(3) 0.2884(2)
C4 C 0.6209(1) 0.3604(4) 0.4809(2)
C5 C 0.5535(1) 0.5662(3) 0.2844(2)
C6 C 0.6595(1) 0.4823(3) 0.5164(2)
C7 C 0.6659(1) 0.7387(4) 0.4993(3)
C8 C 0.6300(1) 0.6114(3) 0.4652(2)
C9 C 0.5330(2) 0.6344(4) 0.1757(3)
C10 C 0.5071(1) 0.5395(5) 0.3463(3)
C11 C 0.6706(2) 0.4921(4) 0.6391(2)
C12 C 0.6410(2) 0.2273(5) 0.5353(4)
C13 C 0.4815(1) 0.0536(4) 0.2759(3)
C14 C 0.7199(2) 0.4852(6) 0.7050(3)
C15 C 0.5097(2) -0.0495(5) 0.3586(3)
C16 C 0.4428(2) 0.1428(5) 0.3310(4)
C17 C 0.5014(2) 0.2644(6) 0.1061(3)
C18 C 0.4438(2) -0.0184(5) 0.1783(4)
C19 C 0.5932(2) 0.0576(6) 0.1903(5)
C20 C 0.6609(3) 0.440(1) 0.0008(5)
C21 C 0.7314(2) 0.3431(9) 0.2175(5)
C22 C 0.7107(2) 0.6407(7) 0.1723(5)
C23 C 0.6775(4) 0.7580(7) 0.1087(8)
C24 C 0.7873(2) 0.355(1) 0.1752(7)
C25 C 0.6420(4) 0.313(1) -0.0411(7)
H1 H 0.6379(9) 0.295(2) 0.332(2)
H2 H 0.6652(8) 0.757(2) 0.571(2)
H3 H 0.6004(9) 0.627(2) 0.495(2)
H4 H 0.638(2) 0.514(5) 0.688(3)
H5 H 0.642(2) 0.223(5) 0.599(4)
H6 H 0.639(1) 0.658(3) 0.298(2)
H7 H 0.666(1) 0.207(3) 0.522(2)
H8 H 0.590(1) 0.383(3) 0.506(2)
H9 H 0.645(1) 0.801(3) 0.484(2)
H10 H 0.721(2) 0.489(5) 0.790(4)
H11 H 0.409(2) -0.072(4) 0.186(3)
H12 H 0.463(2) 0.200(5) 0.393(4)
H13 H 0.434(1) 0.198(3) 0.268(2)
H14 H 0.417(2) 0.069(5) 0.365(4)
H15 H 0.760(1) 0.501(4) 0.666(3)
H16 H 0.429(1) 0.035(4) 0.111(3)
H17 H 0.463(2) -0.081(5) 0.124(4)
H18 H 0.81450 0.29120 0.21200
H19 H 0.80250 0.44460 0.18600
H20 H 0.77920 0.33500 0.09880
H21 H 0.63250 0.29990 -0.11840
H22 H 0.60860 0.29480 -0.01350
H23 H 0.67010 0.24680 -0.01270
H24 H 0.57870 0.00180 0.12850
H25 H 0.60820 0.00120 0.25150
H26 H 0.62270 0.11400 0.17430
H27 H 0.48690 0.20850 0.04430
H28 H 0.52850 0.32630 0.08740
H29 H 0.47100 0.31500 0.12520
H30 H 0.48210 -0.10390 0.38390
H31 H 0.53290 -0.00490 0.41940
H32 H 0.53290 -0.10660 0.32400
H33 H 0.46980 0.51620 0.30900
H34 H 0.50370 0.62080 0.38630
H35 H 0.51960 0.46740 0.39660
H36 H 0.49570 0.61100 0.13840
H37 H 0.55860 0.61100 0.12950
H38 H 0.53420 0.73050 0.18720
H39 H 0.69430 0.45970 -0.02620
H40 H 0.63220 0.50430 -0.02880
H41 H 0.71660 0.25320 0.20420
H42 H 0.73870 0.36030 0.29430
H43 H 0.74700 0.63980 0.15270
H44 H 0.71540 0.65920 0.24870
H45 H 0.69380 0.84650 0.12180
H46 H 0.64070 0.76020 0.12620
H47 H 0.67380 0.73810 0.03280
loop_
_geom_bond_atom_site_label_1
_geom_bond_atom_site_label_2
_geom_bond_site_symmetry_1
_geom_bond_site_symmetry_2
Si1 O2 1_555 1_555
Si2 O3 1_555 1_555
O1 C6 1_555 1_555
O2 C1 1_555 1_555
O3 C3 1_555 1_555
O4 C7 1_555 1_555
C1 C3 1_555 1_555
C2 C3 1_555 1_555
C3 C5 1_555 1_555
C4 C1 1_555 1_555
C5 C2 1_555 1_555
C6 C4 1_555 1_555
C7 C8 1_555 1_555
C8 C2 1_555 1_555
C9 C5 1_555 1_555
C10 C5 1_555 1_555
C11 C6 1_555 1_555
C12 C4 1_555 1_555
C13 Si1 1_555 1_555
C14 C11 1_555 1_555
C15 C13 1_555 1_555
C16 C13 1_555 1_555
C17 Si1 1_555 1_555
C18 C13 1_555 1_555
C19 Si1 1_555 1_555
C20 Si2 1_555 1_555
C21 Si2 1_555 1_555
C22 Si2 1_555 1_555
C23 C22 1_555 1_555
C24 C21 1_555 1_555
C25 C20 1_555 1_555
H1 C1 1_555 1_555
H2 C7 1_555 1_555
H3 C8 1_555 1_555
H4 C11 1_555 1_555
H5 C12 1_555 1_555
H6 C2 1_555 1_555
H7 C12 1_555 1_555
H8 C4 1_555 1_555
H9 C7 1_555 1_555
H10 C14 1_555 1_555
H11 C18 1_555 1_555
H12 C16 1_555 1_555
H13 C16 1_555 1_555
H14 C16 1_555 1_555
H15 C14 1_555 1_555
H16 C18 1_555 1_555
H17 C18 1_555 1_555
H18 C24 1_555 1_555
H19 C24 1_555 1_555
H20 C24 1_555 1_555
H21 C25 1_555 1_555
H22 C25 1_555 1_555
H23 C25 1_555 1_555
H24 C19 1_555 1_555
H25 C19 1_555 1_555
H26 C19 1_555 1_555
H27 C17 1_555 1_555
H28 C17 1_555 1_555
H29 C17 1_555 1_555
H30 C15 1_555 1_555
H31 C15 1_555 1_555
H32 C15 1_555 1_555
H33 C10 1_555 1_555
H34 C10 1_555 1_555
H35 C10 1_555 1_555
H36 C9 1_555 1_555
H37 C9 1_555 1_555
H38 C9 1_555 1_555
H39 C20 1_555 1_555
H40 C20 1_555 1_555
H41 C21 1_555 1_555
H42 C21 1_555 1_555
H43 C22 1_555 1_555
H44 C22 1_555 1_555
H45 C23 1_555 1_555
H46 C23 1_555 1_555
H47 C23 1_555 1_555
C6 C8 1_555 1_555

#END
