
#######################################################################
#
#                 Cambridge Crystallographic Data Centre
#                                CCDC 
#
#######################################################################
#
# If this CIF has been generated from an entry in the Cambridge 
# Structural Database, then it will include bibliographic, chemical, 
# crystal, experimental, refinement or atomic coordinate data resulting 
# from the CCDC's data processing and validation procedures.
#
#######################################################################

data_LOPLOT
_chemical_formula_moiety         'C26 H24 N1 O5'
_chemical_name_systematic        
'diethyl 1-(4-methylbenzoyl)-1H-10\l^5^-pyrrolo[1,2-a]quinoline-2,3-dicarboxylate'
_symmetry_cell_setting           triclinic
_symmetry_space_group_name_H-M   'P -1'
_symmetry_Int_Tables_number      2
_space_group_name_Hall           '-P 1'
loop_
_symmetry_equiv_pos_site_id
_symmetry_equiv_pos_as_xyz
1 x,y,z
2 -x,-y,-z
_cell_length_a                   8.9306(12)
_cell_length_b                   11.1714(16)
_cell_length_c                   12.7290(17)
_cell_angle_alpha                103.260(4)
_cell_angle_beta                 109.636(4)
_cell_angle_gamma                102.798(4)
_cell_volume                     1100.71
_cell_formula_units_Z            2
loop_
_atom_site_label
_atom_site_type_symbol
_atom_site_fract_x
_atom_site_fract_y
_atom_site_fract_z
N1 N 0.8961(2) 0.81127(17) 0.85577(15)
O1 O 0.7334(2) 0.65149(17) 0.96690(14)
O2 O 0.3788(2) 0.66567(18) 0.56440(14)
O3 O 0.3667(2) 0.7291(2) 0.74001(16)
O4 O 0.5131(2) 0.97071(19) 0.64341(18)
C1 C 0.8954(3) 0.9179(2) 0.81753(19)
O5 O 0.7804(2) 1.09335(17) 0.70274(16)
C2 C 0.7307(3) 0.8985(2) 0.74292(19)
C3 C 1.0472(3) 1.0235(2) 0.8635(2)
H1 H 1.0482 1.0970 0.8409
C4 C 1.0465(3) 0.7943(2) 0.92224(19)
C5 C 1.1941(3) 0.9012(2) 0.9688(2)
C6 C 0.6724(3) 0.6293(2) 0.8603(2)
C7 C 0.5351(3) 0.5073(2) 0.77992(19)
C8 C 0.4455(3) 0.7194(2) 0.6689(2)
C9 C 0.7314(3) 0.7263(2) 0.80947(19)
H2 H 0.7416 0.6647 0.7458
C10 C 1.1892(3) 1.0171(2) 0.9396(2)
H3 H 1.2862 1.0892 0.9741
C11 C 0.6308(3) 0.7784(2) 0.73717(19)
C12 C 0.5146(3) 0.4504(2) 0.6654(2)
H4 H 0.5805 0.4939 0.6339
C13 C 1.0538(3) 0.6761(3) 0.9376(2)
H5 H 0.9569 0.6039 0.9031
C14 C 0.3138(3) 0.3227(3) 0.7550(3)
H6 H 0.2444 0.2806 0.7851
C15 C 0.2972(3) 0.2634(2) 0.6423(3)
C16 C 0.4308(3) 0.4425(3) 0.8236(2)
H7 H 0.4405 0.4807 0.8996
C17 C 0.6616(3) 0.9884(2) 0.6903(2)
C18 C 0.3972(3) 0.3298(2) 0.5977(2)
H8 H 0.3849 0.2924 0.5207
C19 C 1.3441(3) 0.8884(3) 1.0392(2)
H9 H 1.4421 0.9598 1.0747
C20 C 1.3492(4) 0.7739(3) 1.0565(3)
H10 H 1.4500 0.7674 1.1040
C21 C 0.7218(4) 1.1919(3) 0.6604(3)
H11 H 0.6421 1.2129 0.6917
H12 H 0.6663 1.1602 0.5748
C22 C 1.2047(4) 0.6666(3) 1.0038(3)
H13 H 1.2101 0.5874 1.0134
C23 C 0.8692(4) 1.3081(3) 0.7008(3)
H14 H 0.9275 1.3351 0.7852
H15 H 0.8331 1.3770 0.6789
H16 H 0.9432 1.2880 0.6646
C24 C 0.1767(4) 0.1276(3) 0.5701(3)
H17 H 0.1260 0.1217 0.4887
H18 H 0.0908 0.1084 0.5989
H19 H 0.2366 0.0663 0.5767
C25 C 0.1793(5) 0.6467(6) 0.6823(4)
H20 H 0.1572 0.5694 0.6184
H21 H 0.1427 0.6210 0.7399
C26 C 0.1006(7) 0.7300(6) 0.6403(4)
H22 H 0.1326 0.8089 0.7041
H23 H -0.0191 0.6892 0.6075
H24 H 0.1338 0.7497 0.5803
loop_
_geom_bond_atom_site_label_1
_geom_bond_atom_site_label_2
_geom_bond_site_symmetry_1
_geom_bond_site_symmetry_2
N1 C1 1_555 1_555
O1 C6 1_555 1_555
O2 C8 1_555 1_555
O3 C8 1_555 1_555
O4 C17 1_555 1_555
C1 C2 1_555 1_555
O5 C17 1_555 1_555
C2 C11 1_555 1_555
C3 C1 1_555 1_555
H1 C3 1_555 1_555
C4 N1 1_555 1_555
C5 C4 1_555 1_555
C6 C7 1_555 1_555
C7 C12 1_555 1_555
C8 C11 1_555 1_555
C9 N1 1_555 1_555
H2 C9 1_555 1_555
C10 C3 1_555 1_555
H3 C10 1_555 1_555
C11 C9 1_555 1_555
C12 H4 1_555 1_555
C13 C4 1_555 1_555
H5 C13 1_555 1_555
C14 H6 1_555 1_555
C15 C14 1_555 1_555
C16 C7 1_555 1_555
H7 C16 1_555 1_555
C17 C2 1_555 1_555
C18 C12 1_555 1_555
H8 C18 1_555 1_555
C19 C5 1_555 1_555
H9 C19 1_555 1_555
C20 C19 1_555 1_555
H10 C20 1_555 1_555
C21 O5 1_555 1_555
H11 C21 1_555 1_555
H12 C21 1_555 1_555
C22 C13 1_555 1_555
H13 C22 1_555 1_555
C23 C21 1_555 1_555
H14 C23 1_555 1_555
H15 C23 1_555 1_555
H16 C23 1_555 1_555
C24 C15 1_555 1_555
H17 C24 1_555 1_555
H18 C24 1_555 1_555
H19 C24 1_555 1_555
C25 O3 1_555 1_555
H20 C25 1_555 1_555
H21 C25 1_555 1_555
C26 C25 1_555 1_555
H22 C26 1_555 1_555
H23 C26 1_555 1_555
H24 C26 1_555 1_555
C5 C10 1_555 1_555
C6 C9 1_555 1_555
C14 C16 1_555 1_555
C15 C18 1_555 1_555
C20 C22 1_555 1_555

#END
