
#######################################################################
#
#                 Cambridge Crystallographic Data Centre
#                                CCDC 
#
#######################################################################
#
# If this CIF has been generated from an entry in the Cambridge 
# Structural Database, then it will include bibliographic, chemical, 
# crystal, experimental, refinement or atomic coordinate data resulting 
# from the CCDC's data processing and validation procedures.
#
#######################################################################

data_LOPWIY
_chemical_formula_moiety         'C20 H14 Br1 N3 O1'
_chemical_name_systematic        
2-(2-(1-(4-Bromophenyl)-1H-pyrazol-4-yl)vinyl)quinolin-8-ol
_symmetry_cell_setting           monoclinic
_symmetry_space_group_name_H-M   'P 21/c'
_symmetry_Int_Tables_number      14
_space_group_name_Hall           '-P 2ybc'
loop_
_symmetry_equiv_pos_site_id
_symmetry_equiv_pos_as_xyz
1 x,y,z
2 -x,1/2+y,1/2-z
3 -x,-y,-z
4 x,1/2-y,1/2+z
_cell_length_a                   13.6399(9)
_cell_length_b                   14.2176(9)
_cell_length_c                   17.7837(12)
_cell_angle_alpha                90
_cell_angle_beta                 99.916(2)
_cell_angle_gamma                90
_cell_volume                     3397.21
_exptl_crystal_colour            colorless
_exptl_crystal_description       block
_cell_formula_units_Z            8
loop_
_atom_site_label
_atom_site_type_symbol
_atom_site_fract_x
_atom_site_fract_y
_atom_site_fract_z
Br1 Br 0.30973(4) 0.10861(4) 1.43981(3)
O1 O 0.4453(2) 0.0488(2) 0.60965(17)
H1 H 0.4237 0.0441 0.6497
N1 N 0.5119(2) 0.1131(2) 0.75151(18)
N2 N 0.3120(2) 0.0389(3) 1.05887(19)
N3 N 0.3751(2) 0.0884(2) 1.1120(2)
C1 C 0.5655(3) 0.1370(3) 0.6958(2)
C2 C 0.5272(3) 0.1029(3) 0.6208(2)
C3 C 0.5764(3) 0.1236(3) 0.5630(3)
H2 H 0.5519 0.1025 0.5139
C4 C 0.6644(4) 0.1770(3) 0.5772(3)
H3 H 0.6973 0.1904 0.5368
C5 C 0.7026(3) 0.2092(3) 0.6470(3)
H4 H 0.7606 0.2449 0.6545
C6 C 0.6538(3) 0.1886(3) 0.7095(2)
C7 C 0.6884(3) 0.2140(3) 0.7862(3)
H5 H 0.7479 0.2469 0.7992
C8 C 0.6346(4) 0.1902(3) 0.8410(2)
H6 H 0.6574 0.2068 0.8915
C9 C 0.5437(3) 0.1401(3) 0.8211(2)
C10 C 0.4802(3) 0.1127(3) 0.8779(2)
H7 H 0.4256 0.0746 0.8607
C11 C 0.4945(4) 0.1373(3) 0.9492(3)
H8 H 0.5485 0.1762 0.9666
C12 C 0.4317(3) 0.1084(3) 1.0048(3)
C13 C 0.3470(3) 0.0515(3) 0.9943(3)
H9 H 0.3184 0.0254 0.9477
C14 C 0.4483(3) 0.1314(3) 1.0813(2)
H10 H 0.4994 0.1687 1.1068
C15 C 0.3615(3) 0.0911(3) 1.1886(2)
C16 C 0.4284(3) 0.1376(3) 1.2433(3)
H11 H 0.4839 0.1665 1.2295
C17 C 0.4137(3) 0.1417(3) 1.3186(3)
H12 H 0.4586 0.1732 1.3553
C18 C 0.3321(3) 0.0986(3) 1.3374(2)
C19 C 0.2671(3) 0.0498(3) 1.2843(2)
H13 H 0.2131 0.0191 1.2989
C20 C 0.2807(3) 0.0456(3) 1.2100(2)
H14 H 0.2362 0.0125 1.1741
Br2 Br 1.21756(4) 0.19753(4) -0.39893(3)
O2 O 0.6833(2) 0.0414(3) 0.2869(2)
H15 H 0.6895 0.0573 0.2436
N4 N 0.8479(2) 0.0823(2) 0.2282(2)
N5 N 0.9182(3) 0.1142(3) -0.1345(2)
N6 N 1.0175(3) 0.1332(2) -0.1237(2)
C21 C 0.8555(3) 0.0819(3) 0.3052(3)
C22 C 0.7695(3) 0.0612(3) 0.3366(3)
C23 C 0.7722(4) 0.0612(3) 0.4137(3)
H16 H 0.7140 0.0465 0.4317
C24 C 0.8598(3) 0.0827(3) 0.4688(3)
H17 H 0.8603 0.0844 0.5212
C25 C 0.9434(4) 0.1005(3) 0.4360(3)
H18 H 1.0030 0.1125 0.4688
C26 C 0.9450(3) 0.1018(3) 0.3573(3)
C27 C 1.0288(3) 0.1205(3) 0.3225(3)
H19 H 1.0898 0.1335 0.3529
C28 C 1.0214(3) 0.1196(3) 0.2453(3)
H20 H 1.0777 0.1310 0.2237
C29 C 0.9282(3) 0.1012(3) 0.1967(3)
C30 C 0.9185(3) 0.1038(3) 0.1153(3)
H21 H 0.8550 0.0928 0.0879
C31 C 0.9892(3) 0.1200(3) 0.0743(3)
H22 H 1.0523 0.1313 0.1021
C32 C 0.9815(3) 0.1225(3) -0.0070(3)
C33 C 0.8977(4) 0.1079(4) -0.0649(3)
H23 H 0.8344 0.0951 -0.0548
C34 C 1.0546(3) 0.1379(3) -0.0487(3)
H24 H 1.1208 0.1500 -0.0282
C35 C 1.0640(3) 0.1455(3) -0.1879(3)
C36 C 1.0105(3) 0.1367(3) -0.2601(3)
H25 H 0.9433 0.1212 -0.2668
C37 C 1.0562(4) 0.1509(3) -0.3236(3)
H26 H 1.0198 0.1449 -0.3727
C38 C 1.1559(4) 0.1738(3) -0.3129(3)
C39 C 1.2097(3) 0.1813(3) -0.2410(3)
H27 H 1.2771 0.1962 -0.2344
C40 C 1.1648(3) 0.1671(3) -0.1776(3)
H28 H 1.2017 0.1720 -0.1287
loop_
_geom_bond_atom_site_label_1
_geom_bond_atom_site_label_2
_geom_bond_site_symmetry_1
_geom_bond_site_symmetry_2
Br1 C18 1_555 1_555
O1 H1 1_555 1_555
N1 C1 1_555 1_555
N2 N3 1_555 1_555
N3 C14 1_555 1_555
C1 C2 1_555 1_555
C2 O1 1_555 1_555
C3 C2 1_555 1_555
H2 C3 1_555 1_555
C4 C3 1_555 1_555
H3 C4 1_555 1_555
C5 C4 1_555 1_555
H4 C5 1_555 1_555
C6 C1 1_555 1_555
C7 C6 1_555 1_555
H5 C7 1_555 1_555
C8 C7 1_555 1_555
H6 C8 1_555 1_555
C9 N1 1_555 1_555
C10 C9 1_555 1_555
H7 C10 1_555 1_555
C11 C10 1_555 1_555
H8 C11 1_555 1_555
C12 C11 1_555 1_555
C13 N2 1_555 1_555
H9 C13 1_555 1_555
C14 C12 1_555 1_555
H10 C14 1_555 1_555
C15 N3 1_555 1_555
C16 C15 1_555 1_555
H11 C16 1_555 1_555
C17 C16 1_555 1_555
H12 C17 1_555 1_555
C18 C17 1_555 1_555
C19 C18 1_555 1_555
H13 C19 1_555 1_555
C20 C15 1_555 1_555
H14 C20 1_555 1_555
Br2 C38 1_555 1_555
O2 H15 1_555 1_555
N4 C21 1_555 1_555
N5 N6 1_555 1_555
N6 C34 1_555 1_555
C21 C22 1_555 1_555
C22 O2 1_555 1_555
C23 C22 1_555 1_555
H16 C23 1_555 1_555
C24 C23 1_555 1_555
H17 C24 1_555 1_555
C25 C24 1_555 1_555
H18 C25 1_555 1_555
C26 C21 1_555 1_555
C27 C26 1_555 1_555
H19 C27 1_555 1_555
C28 C27 1_555 1_555
H20 C28 1_555 1_555
C29 N4 1_555 1_555
C30 C29 1_555 1_555
H21 C30 1_555 1_555
C31 C30 1_555 1_555
H22 C31 1_555 1_555
C32 C31 1_555 1_555
C33 N5 1_555 1_555
H23 C33 1_555 1_555
C34 C32 1_555 1_555
H24 C34 1_555 1_555
C35 N6 1_555 1_555
C36 C35 1_555 1_555
H25 C36 1_555 1_555
C37 C36 1_555 1_555
H26 C37 1_555 1_555
C38 C37 1_555 1_555
C39 C38 1_555 1_555
H27 C39 1_555 1_555
C40 C35 1_555 1_555
H28 C40 1_555 1_555
C5 C6 1_555 1_555
C8 C9 1_555 1_555
C12 C13 1_555 1_555
C19 C20 1_555 1_555
C25 C26 1_555 1_555
C28 C29 1_555 1_555
C32 C33 1_555 1_555
C39 C40 1_555 1_555

#END
