
#######################################################################
#
#                 Cambridge Crystallographic Data Centre
#                                CCDC 
#
#######################################################################
#
# If this CIF has been generated from an entry in the Cambridge 
# Structural Database, then it will include bibliographic, chemical, 
# crystal, experimental, refinement or atomic coordinate data resulting 
# from the CCDC's data processing and validation procedures.
#
#######################################################################

data_LOPWET
_chemical_name_common            
2,2'-(2,2'-Biphenyldiyldiimino)bis(4,6-di-t-butylphenol)
_chemical_formula_moiety         'C40 H52 N2 O2'
_chemical_name_systematic        
N,N'-bis(2-Hydroxy-3,5-di-t-butylphenyl)-2,2'-diaminobiphenyl
_symmetry_cell_setting           monoclinic
_symmetry_space_group_name_H-M   'C 2/c'
_symmetry_Int_Tables_number      15
_space_group_name_Hall           '-C 2yn'
loop_
_symmetry_equiv_pos_site_id
_symmetry_equiv_pos_as_xyz
1 x,y,z
2 -x,y,1/2-z
3 1/2+x,1/2+y,z
4 1/2-x,1/2+y,1/2-z
5 -x,-y,-z
6 x,-y,1/2+z
7 1/2-x,1/2-y,-z
8 1/2+x,1/2-y,1/2+z
_cell_length_a                   31.858(2)
_cell_length_b                   9.8004(5)
_cell_length_c                   11.4541(6)
_cell_angle_alpha                90
_cell_angle_beta                 101.833(3)
_cell_angle_gamma                90
_cell_volume                     3500.22
_exptl_crystal_colour            colorless
_exptl_crystal_description       parallelepiped
_chemical_melting_point          '198-199 deg.C'
_cell_formula_units_Z            4
_exptl_crystal_recrystallization_method dichloromethane/acetonitrile
loop_
_atom_site_label
_atom_site_type_symbol
_atom_site_fract_x
_atom_site_fract_y
_atom_site_fract_z
O1 O 0.44192(5) 0.18486(16) 0.10902(14)
H1 H 0.4629(7) 0.119(2) 0.143(2)
C1 C 0.40595(6) 0.1547(2) 0.15309(18)
C2 C 0.37244(6) 0.2502(2) 0.14098(18)
C3 C 0.33757(6) 0.2136(2) 0.19034(18)
H2 H 0.3143 0.2759 0.1824
C4 C 0.33455(6) 0.0912(2) 0.25075(18)
C5 C 0.36871(7) 0.0010(2) 0.26204(18)
H3 H 0.3678 -0.0831 0.3027
C6 C 0.40422(6) 0.0329(2) 0.21426(18)
N1 N 0.44192(6) -0.05044(18) 0.23727(16)
H4 H 0.4512(7) -0.076(2) 0.3174(11)
C7 C 0.45175(6) -0.1426(2) 0.15298(18)
C8 C 0.42794(7) -0.1483(2) 0.03679(19)
H5 H 0.4034 -0.0921 0.0138
C9 C 0.44005(7) -0.2361(2) -0.04565(19)
H6 H 0.4235 -0.2401 -0.1246
C10 C 0.47596(7) -0.3178(2) -0.01384(19)
H7 H 0.4845 -0.3761 -0.0710
C11 C 0.49934(7) -0.3136(2) 0.10224(19)
H8 H 0.5239 -0.3703 0.1243
C12 C 0.48768(6) -0.2280(2) 0.18729(18)
C13 C 0.37587(7) 0.3915(2) 0.08514(19)
C14 C 0.33589(7) 0.4787(2) 0.0851(2)
H9 H 0.3105 0.4308 0.0414
H10 H 0.3388 0.5664 0.0465
H11 H 0.3329 0.4945 0.1675
C15 C 0.38112(8) 0.3780(2) -0.0447(2)
H12 H 0.3554 0.3354 -0.0925
H13 H 0.4062 0.3213 -0.0476
H14 H 0.3851 0.4687 -0.0768
C16 C 0.41435(7) 0.4682(2) 0.1590(2)
H15 H 0.4163 0.5591 0.1248
H16 H 0.4407 0.4173 0.1578
H17 H 0.4106 0.4772 0.2414
C17 C 0.29439(7) 0.0618(2) 0.3012(2)
C18 C 0.28850(8) 0.1728(2) 0.3903(2)
H18 H 0.3133 0.1729 0.4572
H19 H 0.2623 0.1546 0.4202
H20 H 0.2861 0.2619 0.3508
C19 C 0.25537(7) 0.0583(2) 0.1975(2)
H21 H 0.2522 0.1471 0.1574
H22 H 0.2295 0.0381 0.2283
H23 H 0.2595 -0.0126 0.1406
C20 C 0.29714(8) -0.0763(2) 0.3655(2)
H24 H 0.3007 -0.1493 0.3097
H25 H 0.2708 -0.0918 0.3950
H26 H 0.3217 -0.0762 0.4327
O1A O 0.55808(5) 0.18486(16) 0.39098(14)
H1A H 0.5371(7) 0.119(2) 0.357(2)
C1A C 0.59405(6) 0.1547(2) 0.34691(18)
C2A C 0.62756(6) 0.2502(2) 0.35902(18)
C3A C 0.66243(6) 0.2136(2) 0.30966(18)
H2A H 0.6857 0.2759 0.3176
C4A C 0.66545(6) 0.0912(2) 0.24925(18)
C5A C 0.63129(7) 0.0010(2) 0.23796(18)
H3A H 0.6322 -0.0831 0.1973
C6A C 0.59578(6) 0.0329(2) 0.28574(18)
N1A N 0.55808(6) -0.05044(18) 0.26273(16)
H4A H 0.5488(7) -0.076(2) 0.1826(11)
C7A C 0.54825(6) -0.1426(2) 0.34702(18)
C8A C 0.57206(7) -0.1483(2) 0.46321(19)
H5A H 0.5966 -0.0921 0.4862
C9A C 0.55995(7) -0.2361(2) 0.54565(19)
H6A H 0.5765 -0.2401 0.6246
C10A C 0.52404(7) -0.3178(2) 0.51384(19)
H7A H 0.5155 -0.3761 0.5710
C11A C 0.50066(7) -0.3136(2) 0.39776(19)
H8A H 0.4761 -0.3703 0.3757
C12A C 0.51232(6) -0.2280(2) 0.31271(18)
C13A C 0.62413(7) 0.3915(2) 0.41486(19)
C14A C 0.66411(7) 0.4787(2) 0.4149(2)
H9A H 0.6895 0.4308 0.4586
H10A H 0.6612 0.5664 0.4535
H11A H 0.6671 0.4945 0.3325
C15A C 0.61888(8) 0.3780(2) 0.5447(2)
H12A H 0.6446 0.3354 0.5925
H13A H 0.5938 0.3213 0.5476
H14A H 0.6149 0.4687 0.5768
C16A C 0.58565(7) 0.4682(2) 0.3410(2)
H15A H 0.5837 0.5591 0.3752
H16A H 0.5593 0.4173 0.3422
H17A H 0.5894 0.4772 0.2586
C17A C 0.70561(7) 0.0618(2) 0.1988(2)
C18A C 0.71150(8) 0.1728(2) 0.1097(2)
H18A H 0.6867 0.1729 0.0428
H19A H 0.7377 0.1546 0.0798
H20A H 0.7139 0.2619 0.1492
C19A C 0.74463(7) 0.0583(2) 0.3025(2)
H21A H 0.7478 0.1471 0.3426
H22A H 0.7705 0.0381 0.2717
H23A H 0.7405 -0.0126 0.3594
C20A C 0.70286(8) -0.0763(2) 0.1345(2)
H24A H 0.6993 -0.1493 0.1903
H25A H 0.7292 -0.0918 0.1050
H26A H 0.6783 -0.0762 0.0673
loop_
_geom_bond_atom_site_label_1
_geom_bond_atom_site_label_2
_geom_bond_site_symmetry_1
_geom_bond_site_symmetry_2
O1 H1 1_555 1_555
C1 O1 1_555 1_555
C2 C1 1_555 1_555
C3 C2 1_555 1_555
H2 C3 1_555 1_555
C4 C3 1_555 1_555
C5 C4 1_555 1_555
H3 C5 1_555 1_555
C6 C1 1_555 1_555
N1 C6 1_555 1_555
H4 N1 1_555 1_555
C7 N1 1_555 1_555
C8 C7 1_555 1_555
H5 C8 1_555 1_555
C9 C8 1_555 1_555
H6 C9 1_555 1_555
C10 C9 1_555 1_555
H7 C10 1_555 1_555
C11 C10 1_555 1_555
H8 C11 1_555 1_555
C12 C7 1_555 1_555
C13 C2 1_555 1_555
C14 C13 1_555 1_555
H9 C14 1_555 1_555
H10 C14 1_555 1_555
H11 C14 1_555 1_555
C15 C13 1_555 1_555
H12 C15 1_555 1_555
H13 C15 1_555 1_555
H14 C15 1_555 1_555
C16 C13 1_555 1_555
H15 C16 1_555 1_555
H16 C16 1_555 1_555
H17 C16 1_555 1_555
C17 C4 1_555 1_555
C18 C17 1_555 1_555
H18 C18 1_555 1_555
H19 C18 1_555 1_555
H20 C18 1_555 1_555
C19 C17 1_555 1_555
H21 C19 1_555 1_555
H22 C19 1_555 1_555
H23 C19 1_555 1_555
C20 C17 1_555 1_555
H24 C20 1_555 1_555
H25 C20 1_555 1_555
H26 C20 1_555 1_555
O1A H1A 1_555 1_555
C1A O1A 1_555 1_555
C2A C1A 1_555 1_555
C3A C2A 1_555 1_555
H2A C3A 1_555 1_555
C4A C3A 1_555 1_555
C5A C4A 1_555 1_555
H3A C5A 1_555 1_555
C6A C1A 1_555 1_555
N1A C6A 1_555 1_555
H4A N1A 1_555 1_555
C7A N1A 1_555 1_555
C8A C7A 1_555 1_555
H5A C8A 1_555 1_555
C9A C8A 1_555 1_555
H6A C9A 1_555 1_555
C10A C9A 1_555 1_555
H7A C10A 1_555 1_555
C11A C10A 1_555 1_555
H8A C11A 1_555 1_555
C12A C12 1_555 1_555
C13A C2A 1_555 1_555
C14A C13A 1_555 1_555
H9A C14A 1_555 1_555
H10A C14A 1_555 1_555
H11A C14A 1_555 1_555
C15A C13A 1_555 1_555
H12A C15A 1_555 1_555
H13A C15A 1_555 1_555
H14A C15A 1_555 1_555
C16A C13A 1_555 1_555
H15A C16A 1_555 1_555
H16A C16A 1_555 1_555
H17A C16A 1_555 1_555
C17A C4A 1_555 1_555
C18A C17A 1_555 1_555
H18A C18A 1_555 1_555
H19A C18A 1_555 1_555
H20A C18A 1_555 1_555
C19A C17A 1_555 1_555
H21A C19A 1_555 1_555
H22A C19A 1_555 1_555
H23A C19A 1_555 1_555
C20A C17A 1_555 1_555
H24A C20A 1_555 1_555
H25A C20A 1_555 1_555
H26A C20A 1_555 1_555
C5 C6 1_555 1_555
C11 C12 1_555 1_555
C5A C6A 1_555 1_555
C7A C12A 1_555 1_555
C11A C12A 1_555 1_555

#END
