
#######################################################################
#
#                 Cambridge Crystallographic Data Centre
#                                CCDC 
#
#######################################################################
#
# If this CIF has been generated from an entry in the Cambridge 
# Structural Database, then it will include bibliographic, chemical, 
# crystal, experimental, refinement or atomic coordinate data resulting 
# from the CCDC's data processing and validation procedures.
#
#######################################################################

data_LOPYOG
_chemical_formula_moiety         'C52 H42 N4 O6'
_chemical_name_systematic        
11,14-Di-t-butyl-7,8,9,16,17,18-hexamethoxy-1,3,4,6-tetraazahexabenzo[bc,ef,hi,kl,no,qr]coronene
_symmetry_cell_setting           monoclinic
_symmetry_space_group_name_H-M   'P 21/c'
_symmetry_Int_Tables_number      14
_space_group_name_Hall           '-P 2ybc'
loop_
_symmetry_equiv_pos_site_id
_symmetry_equiv_pos_as_xyz
1 x,y,z
2 -x,1/2+y,1/2-z
3 -x,-y,-z
4 x,1/2-y,1/2+z
_cell_length_a                   7.8968(11)
_cell_length_b                   31.810(4)
_cell_length_c                   16.8438(18)
_cell_angle_alpha                90
_cell_angle_beta                 105.408(5)
_cell_angle_gamma                90
_cell_volume                     4079.04
_exptl_crystal_colour            orange
_exptl_crystal_description       plate
_cell_formula_units_Z            4
_exptl_crystal_recrystallization_method chloroform/methanol
loop_
_atom_site_label
_atom_site_type_symbol
_atom_site_fract_x
_atom_site_fract_y
_atom_site_fract_z
O1 O 0.5626 -0.1452 0.7768
O2 O 0.3456 -0.1116 0.6404
O3 O 0.2971 -0.0294 0.6249
O4 O 1.1918 0.0699 1.3203
O5 O 1.1361 0.1512 1.3076
O6 O 0.9382 0.1873 1.1676
N1 N 1.1665 -0.0045 1.2463
N2 N 1.1116 -0.0734 1.1875
N3 N 0.9231 -0.1261 1.0684
N4 N 0.7167 -0.1370 0.9377
C1 C 1.0423 0.0118 1.1832
C2 C 0.9494 -0.0134 1.1181
C3 C 0.9894 -0.0566 1.1250
C4 C 0.8921 -0.0848 1.0598
C5 C 0.7720 -0.0673 0.9904
C6 C 0.6890 -0.0957 0.9276
C7 C 0.7359 -0.0235 0.9836
C8 C 0.8245 0.0036 1.0484
C9 C 0.7936 0.0474 1.0441
C10 C 0.8849 0.0745 1.1105
C11 C 1.0035 0.0568 1.1817
C12 C 1.0828 0.0838 1.2481
C13 C 0.6142 -0.0074 0.9135
C14 C 0.5342 -0.0352 0.8456
C15 C 0.5753 -0.0790 0.8509
C16 C 0.5119 -0.1044 0.7807
C17 C 0.4436 -0.1757 0.7938
H1 H 0.3319 -0.1732 0.7538
H2 H 0.4291 -0.1709 0.8479
H3 H 0.4900 -0.2034 0.7911
C18 C 0.4592 -0.1179 0.5886
H4 H 0.5684 -0.1295 0.6202
H5 H 0.4807 -0.0915 0.5655
H6 H 0.4051 -0.1369 0.5450
C19 C 0.4139 -0.0074 0.5877
H7 H 0.5310 -0.0180 0.6092
H8 H 0.4114 0.0220 0.5998
H9 H 0.3777 -0.0115 0.5292
C20 C 0.3771 -0.0443 0.7030
C21 C 0.4117 -0.0866 0.7087
C22 C 0.4248 -0.0178 0.7724
C23 C 0.3748 0.0269 0.7711
C24 C 0.2448 0.0435 0.7059
H10 H 0.1809 0.0253 0.6657
C25 C 0.2078 0.0857 0.6989
C26 C 0.2931 0.1122 0.7626
H11 H 0.2686 0.1409 0.7588
C27 C 0.4155 0.0965 0.8326
C28 C 0.4574 0.0534 0.8374
C29 C 0.5822 0.0365 0.9087
C30 C -0.0299 0.0704 0.5662
H12 H 0.0431 0.0508 0.5470
H13 H -0.1103 0.0834 0.5198
H14 H -0.0948 0.0557 0.5984
C31 C 0.0854 0.1041 0.6193
C32 C 0.2044 0.1232 0.5719
H15 H 0.1351 0.1327 0.5191
H16 H 0.2870 0.1025 0.5643
H17 H 0.2667 0.1466 0.6021
C33 C -0.0393 0.1372 0.6383
H18 H -0.1272 0.1442 0.5887
H19 H 0.0261 0.1620 0.6601
H20 H -0.0950 0.1262 0.6781
C34 C 0.5093 0.1248 0.8988
C35 C 0.6364 0.1083 0.9673
C36 C 0.6707 0.0639 0.9733
C37 C 0.7303 0.1360 1.0296
C38 C 0.8570 0.1191 1.1029
C39 C 1.0533 0.1263 1.2414
C40 C 0.9526 0.1444 1.1693
C41 C 0.6959 0.1794 1.0192
H21 H 0.7605 0.1979 1.0585
C42 C 0.5688 0.1957 0.9523
C43 C 0.4753 0.1677 0.8946
H22 H 0.3858 0.1779 0.8513
C44 C 0.4185 0.2567 0.8655
H23 H 0.4083 0.2868 0.8639
H24 H 0.3052 0.2445 0.8609
H25 H 0.4623 0.2474 0.8205
C45 C 0.5450 0.2433 0.9466
C46 C 0.7226 0.2648 0.9515
H26 H 0.8011 0.2602 1.0051
H27 H 0.7046 0.2945 0.9423
H28 H 0.7727 0.2532 0.9103
C47 C 0.4744 0.2586 1.0170
H29 H 0.3570 0.2482 1.0097
H30 H 0.4734 0.2887 1.0177
H31 H 0.5481 0.2484 1.0683
C48 C 1.1019 0.0541 1.3766
H32 H 1.0384 0.0291 1.3543
H33 H 1.0211 0.0749 1.3857
H34 H 1.1853 0.0475 1.4279
C49 C 1.0220 0.1721 1.3483
H35 H 0.9437 0.1519 1.3621
H36 H 0.9550 0.1931 1.3125
H37 H 1.0908 0.1852 1.3977
C50 C 0.8292 -0.1493 1.0070
H38 H 0.8446 -0.1782 1.0135
C51 C 1.1950 -0.0459 1.2430
H39 H 1.2853 -0.0567 1.2854
C52 C 1.0948 0.2099 1.1687
H40 H 1.1435 0.1994 1.1260
H41 H 1.1785 0.2063 1.2212
H42 H 1.0679 0.2392 1.1595
loop_
_geom_bond_atom_site_label_1
_geom_bond_atom_site_label_2
_geom_bond_site_symmetry_1
_geom_bond_site_symmetry_2
O1 C16 1_555 1_555
O2 C18 1_555 1_555
O3 C19 1_555 1_555
O4 C12 1_555 1_555
O5 C39 1_555 1_555
O6 C40 1_555 1_555
N1 C1 1_555 1_555
N2 C3 1_555 1_555
N3 C4 1_555 1_555
N4 C6 1_555 1_555
C1 C2 1_555 1_555
C2 C3 1_555 1_555
C3 C4 1_555 1_555
C4 C5 1_555 1_555
C5 C6 1_555 1_555
C6 C15 1_555 1_555
C7 C5 1_555 1_555
C8 C2 1_555 1_555
C9 C8 1_555 1_555
C10 C9 1_555 1_555
C11 C1 1_555 1_555
C12 C11 1_555 1_555
C13 C7 1_555 1_555
C14 C13 1_555 1_555
C15 C14 1_555 1_555
C16 C15 1_555 1_555
C17 O1 1_555 1_555
H1 C17 1_555 1_555
H2 C17 1_555 1_555
H3 C17 1_555 1_555
C18 H4 1_555 1_555
H5 C18 1_555 1_555
H6 C18 1_555 1_555
C19 H7 1_555 1_555
H8 C19 1_555 1_555
H9 C19 1_555 1_555
C20 O3 1_555 1_555
C21 O2 1_555 1_555
C22 C14 1_555 1_555
C23 C22 1_555 1_555
C24 C23 1_555 1_555
H10 C24 1_555 1_555
C25 C24 1_555 1_555
C26 C25 1_555 1_555
H11 C26 1_555 1_555
C27 C26 1_555 1_555
C28 C23 1_555 1_555
C29 C13 1_555 1_555
C30 H12 1_555 1_555
H13 C30 1_555 1_555
H14 C30 1_555 1_555
C31 C25 1_555 1_555
C32 C31 1_555 1_555
H15 C32 1_555 1_555
H16 C32 1_555 1_555
H17 C32 1_555 1_555
C33 C31 1_555 1_555
H18 C33 1_555 1_555
H19 C33 1_555 1_555
H20 C33 1_555 1_555
C34 C27 1_555 1_555
C35 C34 1_555 1_555
C36 C9 1_555 1_555
C37 C35 1_555 1_555
C38 C10 1_555 1_555
C39 C12 1_555 1_555
C40 C38 1_555 1_555
C41 C37 1_555 1_555
H21 C41 1_555 1_555
C42 C41 1_555 1_555
C43 C34 1_555 1_555
H22 C43 1_555 1_555
C44 H23 1_555 1_555
H24 C44 1_555 1_555
H25 C44 1_555 1_555
C45 C42 1_555 1_555
C46 C45 1_555 1_555
H26 C46 1_555 1_555
H27 C46 1_555 1_555
H28 C46 1_555 1_555
C47 C45 1_555 1_555
H29 C47 1_555 1_555
H30 C47 1_555 1_555
H31 C47 1_555 1_555
C48 O4 1_555 1_555
H32 C48 1_555 1_555
H33 C48 1_555 1_555
H34 C48 1_555 1_555
C49 O5 1_555 1_555
H35 C49 1_555 1_555
H36 C49 1_555 1_555
H37 C49 1_555 1_555
C50 N3 1_555 1_555
H38 C50 1_555 1_555
C51 N1 1_555 1_555
H39 C51 1_555 1_555
C52 O6 1_555 1_555
H40 C52 1_555 1_555
H41 C52 1_555 1_555
H42 C52 1_555 1_555
N2 C51 1_555 1_555
N4 C50 1_555 1_555
C7 C8 1_555 1_555
C10 C11 1_555 1_555
C16 C21 1_555 1_555
C20 C21 1_555 1_555
C20 C22 1_555 1_555
C27 C28 1_555 1_555
C28 C29 1_555 1_555
C29 C36 1_555 1_555
C30 C31 1_555 1_555
C35 C36 1_555 1_555
C37 C38 1_555 1_555
C39 C40 1_555 1_555
C42 C43 1_555 1_555
C44 C45 1_555 1_555

#END
