
#######################################################################
#
#                 Cambridge Crystallographic Data Centre
#                                CCDC 
#
#######################################################################
#
# If this CIF has been generated from an entry in the Cambridge 
# Structural Database, then it will include bibliographic, chemical, 
# crystal, experimental, refinement or atomic coordinate data resulting 
# from the CCDC's data processing and validation procedures.
#
#######################################################################

data_LOQNAI
_chemical_formula_moiety         'C20 H18 Cl1 F3 N3 O2 S1 1+,Cl1 1-'
_chemical_name_systematic        
'6-(4-chlorophenyl)-5-(methoxycarbonyl)-4-methyl-2-((3-((trifluoromethyl)sulfanyl)phenyl)amino)-3,6-dihydropyrimidin-1-ium chloride'
_symmetry_cell_setting           triclinic
_symmetry_space_group_name_H-M   'P -1'
_symmetry_Int_Tables_number      2
_space_group_name_Hall           '-P 1'
loop_
_symmetry_equiv_pos_site_id
_symmetry_equiv_pos_as_xyz
1 x,y,z
2 -x,-y,-z
_cell_length_a                   7.7005(6)
_cell_length_b                   11.2405(10)
_cell_length_c                   13.7322(12)
_cell_angle_alpha                111.249(2)
_cell_angle_beta                 90.907(2)
_cell_angle_gamma                99.769(2)
_cell_volume                     1087.88
_exptl_crystal_colour            colorless
_exptl_crystal_description       block
_cell_formula_units_Z            2
loop_
_atom_site_label
_atom_site_type_symbol
_atom_site_fract_x
_atom_site_fract_y
_atom_site_fract_z
Cl1 Cl 0.71093(9) -0.10790(6) 0.58094(5)
S1 S 0.90866(9) 0.70416(6) 0.28724(5)
F1 F 1.1525(2) 0.68503(18) 0.16265(15)
F2 F 1.1856(2) 0.59124(18) 0.27123(16)
F3 F 0.9900(2) 0.50025(16) 0.14173(13)
O1 O 0.6913(2) -0.22798(15) 0.04957(13)
O2 O 0.4222(2) -0.29213(18) -0.03447(15)
N1 N 0.6339(2) 0.13983(18) 0.21102(15)
N2 N 0.3328(2) 0.08126(18) 0.17491(15)
N3 N 0.4562(2) 0.29616(18) 0.26597(15)
C1 C 0.7349(4) -0.3513(2) -0.0135(2)
H1 H 0.6505 -0.4204 -0.0064
H2 H 0.8512 -0.3556 0.0097
H3 H 0.7322 -0.3598 -0.0856
C2 C 0.5269(3) -0.2111(2) 0.03164(17)
C3 C 0.4997(3) -0.0830(2) 0.10345(16)
C4 C 0.3444(3) -0.0428(2) 0.10522(16)
C5 C 0.1744(3) -0.1141(2) 0.04042(18)
H4 H 0.1858 -0.2015 -0.0008
H5 H 0.1474 -0.0708 -0.0051
H6 H 0.0810 -0.1156 0.0857
C6 C 0.6500(3) 0.0032(2) 0.18417(16)
H7 H 0.7613 -0.0087 0.1515
C7 C 0.6600(3) -0.0275(2) 0.28398(17)
C8 C 0.5486(3) -0.1308(2) 0.29594(18)
H8 H 0.4633 -0.1838 0.2422
C9 C 0.5626(3) -0.1563(2) 0.38743(19)
H9 H 0.4878 -0.2261 0.3950
C10 C 0.6887(3) -0.0767(2) 0.46638(17)
C11 C 0.8002(3) 0.0274(2) 0.45679(18)
H10 H 0.8836 0.0814 0.5114
C12 C 0.7868(3) 0.0508(2) 0.36512(17)
H11 H 0.8636 0.1198 0.3576
C13 C 0.4782(3) 0.1746(2) 0.21888(16)
C14 C 0.5967(3) 0.4010(2) 0.32548(17)
C15 C 0.6749(3) 0.4871(2) 0.28188(17)
H12 H 0.6390 0.4774 0.2140
C16 C 0.8089(3) 0.5893(2) 0.34136(19)
C17 C 0.8616(3) 0.6043(2) 0.44282(19)
H13 H 0.9502 0.6733 0.4822
C18 C 0.7822(3) 0.5164(2) 0.48560(18)
H14 H 0.8180 0.5261 0.5535
C19 C 0.6492(3) 0.4140(2) 0.42696(18)
H15 H 0.5956 0.3545 0.4551
C20 C 1.0644(3) 0.6148(3) 0.2136(2)
H16 H 0.727(3) 0.195(2) 0.2307(18)
H17 H 0.237(4) 0.109(2) 0.180(2)
H18 H 0.355(3) 0.309(2) 0.2650(19)
Cl2 Cl 0.95862(7) -0.25306(6) -0.23737(5)
loop_
_geom_bond_atom_site_label_1
_geom_bond_atom_site_label_2
_geom_bond_site_symmetry_1
_geom_bond_site_symmetry_2
Cl1 C10 1_555 1_555
S1 C16 1_555 1_555
F1 C20 1_555 1_555
F2 C20 1_555 1_555
F3 C20 1_555 1_555
O1 C1 1_555 1_555
O2 C2 1_555 1_555
N1 C6 1_555 1_555
N2 C4 1_555 1_555
N3 C13 1_555 1_555
C1 H1 1_555 1_555
H2 C1 1_555 1_555
H3 C1 1_555 1_555
C2 O1 1_555 1_555
C3 C2 1_555 1_555
C4 C3 1_555 1_555
C5 C4 1_555 1_555
H4 C5 1_555 1_555
H5 C5 1_555 1_555
H6 C5 1_555 1_555
C6 C3 1_555 1_555
H7 C6 1_555 1_555
C7 C6 1_555 1_555
C8 C7 1_555 1_555
H8 C8 1_555 1_555
C9 C8 1_555 1_555
H9 C9 1_555 1_555
C10 C9 1_555 1_555
C11 C10 1_555 1_555
H10 C11 1_555 1_555
C12 C7 1_555 1_555
H11 C12 1_555 1_555
C13 N1 1_555 1_555
C14 N3 1_555 1_555
C15 C14 1_555 1_555
H12 C15 1_555 1_555
C16 C15 1_555 1_555
C17 C16 1_555 1_555
H13 C17 1_555 1_555
C18 C17 1_555 1_555
H14 C18 1_555 1_555
C19 C14 1_555 1_555
H15 C19 1_555 1_555
C20 S1 1_555 1_555
H16 N1 1_555 1_555
H17 N2 1_555 1_555
H18 N3 1_555 1_555
N2 C13 1_555 1_555
C11 C12 1_555 1_555
C18 C19 1_555 1_555

#END
