
#######################################################################
#
#                 Cambridge Crystallographic Data Centre
#                                CCDC 
#
#######################################################################
#
# If this CIF has been generated from an entry in the Cambridge 
# Structural Database, then it will include bibliographic, chemical, 
# crystal, experimental, refinement or atomic coordinate data resulting 
# from the CCDC's data processing and validation procedures.
#
#######################################################################

data_LOQRIU
_chemical_formula_moiety         'C27 H32 O6'
_chemical_name_systematic        
4,4'-(pentane-1,5-diylbis(oxy-4,1-phenylene))bistetrahydro-2H-pyran-2-one
_symmetry_cell_setting           monoclinic
_symmetry_space_group_name_H-M   'C 2'
_symmetry_Int_Tables_number      5
_space_group_name_Hall           'C 2y'
loop_
_symmetry_equiv_pos_site_id
_symmetry_equiv_pos_as_xyz
1 x,y,z
2 -x,y,-z
3 1/2+x,1/2+y,z
4 1/2-x,1/2+y,-z
_cell_length_a                   14.5216(6)
_cell_length_b                   5.3032(2)
_cell_length_c                   15.7984(7)
_cell_angle_alpha                90
_cell_angle_beta                 112.511(2)
_cell_angle_gamma                90
_cell_volume                     1123.95
_exptl_crystal_colour            'light colorless'
_exptl_crystal_description       needle
_cell_formula_units_Z            2
loop_
_atom_site_label
_atom_site_type_symbol
_atom_site_fract_x
_atom_site_fract_y
_atom_site_fract_z
C1 C 0.34316(17) 1.5214(5) 0.47468(17)
C2 C 0.17541(17) 1.5599(5) 0.35861(16)
H1 H 0.1339 1.7061 0.3273
H2 H 0.1332 1.4454 0.3779
C3 C 0.2080(2) 1.4252(6) 0.29259(19)
H3 H 0.2437 1.5435 0.2674
H4 H 0.1489 1.3608 0.2411
C4 C 0.2756(2) 1.2084(6) 0.33906(19)
H5 H 0.2366 1.0922 0.3626
C5 C 0.36386(18) 1.3058(5) 0.42240(16)
H6 H 0.3906 1.1634 0.4654
H7 H 0.4169 1.3593 0.4014
C6 C 0.31266(17) 1.0519(5) 0.27636(17)
C7 C 0.26066(18) 1.0396(5) 0.18071(17)
H8 H 0.2052 1.1482 0.1527
C8 C 0.28729(18) 0.8755(5) 0.12628(16)
H9 H 0.2501 0.8712 0.0620
C9 C 0.36920(17) 0.7155(5) 0.16585(16)
C10 C 0.42457(17) 0.7303(5) 0.25961(17)
H10 H 0.4816 0.6264 0.2872
C11 C 0.39591(17) 0.8987(5) 0.31294(16)
H11 H 0.4350 0.9086 0.3767
C12 C 0.46980(19) 0.3797(5) 0.14757(17)
H12 H 0.4559 0.2686 0.1916
H13 H 0.5325 0.4723 0.1808
C13 C 0.47984(19) 0.2240(5) 0.07120(17)
H14 H 0.4177 0.1268 0.0406
H15 H 0.5350 0.1020 0.0979
C14 C 0.5000 0.3835(7) 0.0000
H16 H 0.5583 0.4934 0.0313
O1 O 0.40443(14) 1.5880(4) 0.54742(13)
O2 O 0.25749(13) 1.6491(3) 0.43979(12)
O3 O 0.38944(13) 0.5537(4) 0.10738(11)
H16A H 0.4417 0.4934 -0.0313
C1A C 0.65684(17) 1.5214(5) -0.47468(17)
C2A C 0.82459(17) 1.5599(5) -0.35861(16)
H1A H 0.8661 1.7061 -0.3273
H2A H 0.8668 1.4454 -0.3779
C3A C 0.7920(2) 1.4252(6) -0.29259(19)
H3A H 0.7563 1.5435 -0.2674
H4A H 0.8511 1.3608 -0.2411
C4A C 0.7244(2) 1.2084(6) -0.33906(19)
H5A H 0.7634 1.0922 -0.3626
C5A C 0.63614(18) 1.3058(5) -0.42240(16)
H6A H 0.6094 1.1634 -0.4654
H7A H 0.5831 1.3593 -0.4014
C6A C 0.68734(17) 1.0519(5) -0.27636(17)
C7A C 0.73934(18) 1.0396(5) -0.18071(17)
H8A H 0.7948 1.1482 -0.1527
C8A C 0.71271(18) 0.8755(5) -0.12628(16)
H9A H 0.7499 0.8712 -0.0620
C9A C 0.63080(17) 0.7155(5) -0.16585(16)
C10A C 0.57543(17) 0.7303(5) -0.25961(17)
H10A H 0.5184 0.6264 -0.2872
C11A C 0.60409(17) 0.8987(5) -0.31294(16)
H11A H 0.5650 0.9086 -0.3767
C12A C 0.53020(19) 0.3797(5) -0.14757(17)
H12A H 0.5441 0.2686 -0.1916
H13A H 0.4675 0.4723 -0.1808
C13A C 0.52016(19) 0.2240(5) -0.07120(17)
H14A H 0.5823 0.1268 -0.0406
H15A H 0.4650 0.1020 -0.0979
O1A O 0.59557(14) 1.5880(4) -0.54742(13)
O2A O 0.74251(13) 1.6491(3) -0.43979(12)
O3A O 0.61056(13) 0.5537(4) -0.10738(11)
H17? H 0.5583 0.4934 0.0313
loop_
_geom_bond_atom_site_label_1
_geom_bond_atom_site_label_2
_geom_bond_site_symmetry_1
_geom_bond_site_symmetry_2
C1 C5 1_555 1_555
C2 H1 1_555 1_555
H2 C2 1_555 1_555
C3 C2 1_555 1_555
H3 C3 1_555 1_555
H4 C3 1_555 1_555
C4 C3 1_555 1_555
H5 C4 1_555 1_555
C5 C4 1_555 1_555
H6 C5 1_555 1_555
H7 C5 1_555 1_555
C6 C4 1_555 1_555
C7 C6 1_555 1_555
H8 C7 1_555 1_555
C8 C7 1_555 1_555
H9 C8 1_555 1_555
C9 C8 1_555 1_555
C10 C9 1_555 1_555
H10 C10 1_555 1_555
C11 C6 1_555 1_555
H11 C11 1_555 1_555
C12 H12 1_555 1_555
H13 C12 1_555 1_555
C13 C12 1_555 1_555
H14 C13 1_555 1_555
H15 C13 1_555 1_555
C14 C13 1_555 1_555
H16 C14 1_555 1_555
O1 C1 1_555 1_555
O2 C1 1_555 1_555
O3 C9 1_555 1_555
H16A C14 1_555 1_555
C1A C5A 1_555 1_555
C2A H1A 1_555 1_555
H2A C2A 1_555 1_555
C3A C2A 1_555 1_555
H3A C3A 1_555 1_555
H4A C3A 1_555 1_555
C4A C3A 1_555 1_555
H5A C4A 1_555 1_555
C5A C4A 1_555 1_555
H6A C5A 1_555 1_555
H7A C5A 1_555 1_555
C6A C4A 1_555 1_555
C7A C6A 1_555 1_555
H8A C7A 1_555 1_555
C8A C7A 1_555 1_555
H9A C8A 1_555 1_555
C9A C8A 1_555 1_555
C10A C9A 1_555 1_555
H10A C10A 1_555 1_555
C11A C6A 1_555 1_555
H11A C11A 1_555 1_555
C12A H12A 1_555 1_555
H13A C12A 1_555 1_555
C13A C14 1_555 1_555
H14A C13A 1_555 1_555
H15A C13A 1_555 1_555
O1A C1A 1_555 1_555
O2A C1A 1_555 1_555
O3A C9A 1_555 1_555
C2 O2 1_555 1_555
C10 C11 1_555 1_555
C12 O3 1_555 1_555
C2A O2A 1_555 1_555
C10A C11A 1_555 1_555
C12A C13A 1_555 1_555
C12A O3A 1_555 1_555

#END
