
#######################################################################
#
#                 Cambridge Crystallographic Data Centre
#                                CCDC 
#
#######################################################################
#
# If this CIF has been generated from an entry in the Cambridge 
# Structural Database, then it will include bibliographic, chemical, 
# crystal, experimental, refinement or atomic coordinate data resulting 
# from the CCDC's data processing and validation procedures.
#
#######################################################################

data_LORYEY
_chemical_formula_moiety         'C27 H26 N2 2+,2(I1 1-)'
_chemical_name_systematic        
'6,7,13-trimethyl-4,5,8,9-tetrahydroisoquinolino[1,2-a]pyrido[1,2-k][2,9]phenanthrolinediium bis(iodide)'
_symmetry_cell_setting           monoclinic
_symmetry_space_group_name_H-M   'P 21/n'
_symmetry_Int_Tables_number      14
_space_group_name_Hall           '-P 2yn'
loop_
_symmetry_equiv_pos_site_id
_symmetry_equiv_pos_as_xyz
1 x,y,z
2 1/2-x,1/2+y,1/2-z
3 -x,-y,-z
4 1/2+x,1/2-y,1/2+z
_cell_length_a                   7.8813(2)
_cell_length_b                   16.2049(4)
_cell_length_c                   19.5829(5)
_cell_angle_alpha                90
_cell_angle_beta                 99.0670(10)
_cell_angle_gamma                90
_cell_volume                     2469.79
_exptl_crystal_colour            yellow
_exptl_crystal_description       bar
_cell_formula_units_Z            4
loop_
_atom_site_label
_atom_site_type_symbol
_atom_site_fract_x
_atom_site_fract_y
_atom_site_fract_z
C1 C 0.5433(3) 0.28885(13) 0.62438(11)
H1 H 0.5150 0.2988 0.5761
C2 C 0.4999(3) 0.34708(14) 0.67074(12)
C3 C 0.5292(3) 0.32663(15) 0.74096(12)
H2 H 0.5029 0.3651 0.7744
C4 C 0.5960(3) 0.25102(16) 0.76134(12)
H3 H 0.6071 0.2357 0.8087
C5 C 0.7202(3) 0.11687(14) 0.73932(12)
H4 H 0.6879 0.1029 0.7848
H5 H 0.8471 0.1195 0.7447
C6 C 0.6538(3) 0.05089(14) 0.68698(13)
H6 H 0.7099 -0.0024 0.7013
H7 H 0.5285 0.0441 0.6856
C7 C 0.6896(3) 0.07340(13) 0.61568(12)
C8 C 0.7174(3) 0.01483(13) 0.56595(13)
C9 C 0.7522(3) 0.04029(14) 0.50085(13)
C10 C 0.7638(3) 0.12489(13) 0.48690(12)
C11 C 0.7875(3) 0.16056(15) 0.41782(12)
H8 H 0.7494 0.1201 0.3807
H9 H 0.9105 0.1728 0.4176
C12 C 0.6828(3) 0.23907(15) 0.40488(11)
H10 H 0.6971 0.2628 0.3595
H11 H 0.5595 0.2267 0.4041
C13 C 0.7485(3) 0.38148(14) 0.44562(12)
H12 H 0.7154 0.3999 0.3994
C14 C 0.8014(3) 0.43677(14) 0.49626(12)
H13 H 0.7921 0.4942 0.4866
C15 C 0.8699(3) 0.40975(13) 0.56315(11)
C16 C 0.9386(3) 0.46408(14) 0.61707(12)
H14 H 0.9318 0.5220 0.6098
C17 C 1.0143(3) 0.43382(14) 0.67941(13)
H15 H 1.0565 0.4709 0.7157
C18 C 1.0308(3) 0.34787(14) 0.69053(12)
H16 H 1.0902 0.3277 0.7333
C19 C 0.9621(3) 0.29335(13) 0.64035(11)
H17 H 0.9734 0.2356 0.6483
C20 C 0.8743(3) 0.32312(12) 0.57664(11)
C21 C 0.7881(3) 0.27002(13) 0.52510(11)
C22 C 0.7459(3) 0.18319(12) 0.53816(11)
C23 C 0.6942(3) 0.15762(13) 0.60041(11)
C24 C 0.6272(3) 0.21640(13) 0.64736(11)
C25 C 0.4280(4) 0.42851(15) 0.64433(14)
H18 H 0.5154 0.4591 0.6242
H19 H 0.3943 0.4603 0.6826
H20 H 0.3273 0.4194 0.6089
C26 C 0.7026(4) -0.07632(15) 0.58119(16)
H21 H 0.6400 -0.1042 0.5404
H22 H 0.6404 -0.0835 0.6204
H23 H 0.8178 -0.1002 0.5926
C27 C 0.7814(3) -0.02295(15) 0.44743(14)
H24 H 0.8585 -0.0661 0.4693
H25 H 0.8334 0.0038 0.4109
H26 H 0.6713 -0.0476 0.4273
N1 N 0.6460(2) 0.19808(11) 0.71581(10)
N2 N 0.7424(2) 0.29902(11) 0.46071(9)
I1 I 0.712357(19) 0.382953(9) 0.238363(8)
I2 I 0.23466(2) 0.312502(9) 0.452857(8)
loop_
_geom_bond_atom_site_label_1
_geom_bond_atom_site_label_2
_geom_bond_site_symmetry_1
_geom_bond_site_symmetry_2
C1 H1 1_555 1_555
C2 C1 1_555 1_555
C3 C2 1_555 1_555
H2 C3 1_555 1_555
C4 C3 1_555 1_555
H3 C4 1_555 1_555
C5 H4 1_555 1_555
H5 C5 1_555 1_555
C6 C5 1_555 1_555
H6 C6 1_555 1_555
H7 C6 1_555 1_555
C7 C6 1_555 1_555
C8 C7 1_555 1_555
C9 C8 1_555 1_555
C10 C9 1_555 1_555
C11 C10 1_555 1_555
H8 C11 1_555 1_555
H9 C11 1_555 1_555
C12 C11 1_555 1_555
H10 C12 1_555 1_555
H11 C12 1_555 1_555
C13 H12 1_555 1_555
C14 C13 1_555 1_555
H13 C14 1_555 1_555
C15 C14 1_555 1_555
C16 C15 1_555 1_555
H14 C16 1_555 1_555
C17 C16 1_555 1_555
H15 C17 1_555 1_555
C18 C17 1_555 1_555
H16 C18 1_555 1_555
C19 C18 1_555 1_555
H17 C19 1_555 1_555
C20 C15 1_555 1_555
C21 C20 1_555 1_555
C22 C10 1_555 1_555
C23 C7 1_555 1_555
C24 C1 1_555 1_555
C25 C2 1_555 1_555
H18 C25 1_555 1_555
H19 C25 1_555 1_555
H20 C25 1_555 1_555
C26 C8 1_555 1_555
H21 C26 1_555 1_555
H22 C26 1_555 1_555
H23 C26 1_555 1_555
C27 C9 1_555 1_555
H24 C27 1_555 1_555
H25 C27 1_555 1_555
H26 C27 1_555 1_555
N1 C4 1_555 1_555
N2 C12 1_555 1_555
C5 N1 1_555 1_555
C13 N2 1_555 1_555
C19 C20 1_555 1_555
C21 C22 1_555 1_555
C21 N2 1_555 1_555
C22 C23 1_555 1_555
C23 C24 1_555 1_555
C24 N1 1_555 1_555

#END
