
#######################################################################
#
#                 Cambridge Crystallographic Data Centre
#                                CCDC 
#
#######################################################################
#
# If this CIF has been generated from an entry in the Cambridge 
# Structural Database, then it will include bibliographic, chemical, 
# crystal, experimental, refinement or atomic coordinate data resulting 
# from the CCDC's data processing and validation procedures.
#
#######################################################################

data_LOSBAY
_chemical_formula_moiety         'C39 H34 N2 O1 2+,2(I1 1-)'
_chemical_name_systematic        
'13-(2-(6-Methoxy-2-naphthyl)vinyl)-6,7-dimethyl-4,5,8,9-tetrahydroisoquinolino[1,2-a]pyrido[1,2-k][2,9]phenanthrolinedi-ium bis(iodide)'
_symmetry_cell_setting           triclinic
_symmetry_space_group_name_H-M   'P -1'
_symmetry_Int_Tables_number      2
_space_group_name_Hall           '-P 1'
loop_
_symmetry_equiv_pos_site_id
_symmetry_equiv_pos_as_xyz
1 x,y,z
2 -x,-y,-z
_cell_length_a                   13.5867(4)
_cell_length_b                   14.1603(4)
_cell_length_c                   19.3953(6)
_cell_angle_alpha                87.9609(10)
_cell_angle_beta                 76.1122(10)
_cell_angle_gamma                86.1412(11)
_cell_volume                     3613.48
_exptl_crystal_colour            red
_exptl_crystal_description       plate
_cell_formula_units_Z            4
loop_
_atom_site_label
_atom_site_type_symbol
_atom_site_fract_x
_atom_site_fract_y
_atom_site_fract_z
C1 C 0.4896(3) 0.3953(3) 0.7697(2)
H1 H 0.4913 0.3850 0.7213
C2 C 0.4293(3) 0.3397(3) 0.8223(2)
C3 C 0.4226(3) 0.3625(3) 0.8926(2)
H2 H 0.3832 0.3263 0.9301
C4 C 0.4723(3) 0.4365(3) 0.9078(2)
H3 H 0.4633 0.4537 0.9560
N1 N 0.5341(2) 0.4861(2) 0.85615(18)
C5 C 0.5881(3) 0.5637(3) 0.8757(2)
H4 H 0.6581 0.5407 0.8768
H5 H 0.5530 0.5859 0.9237
C6 C 0.5914(3) 0.6444(3) 0.8228(2)
H6 H 0.6335 0.6936 0.8338
H7 H 0.5219 0.6731 0.8266
C7 C 0.6353(3) 0.6110(3) 0.7478(2)
C8 C 0.6901(3) 0.6706(3) 0.6941(2)
C9 C 0.7235(3) 0.6382(3) 0.6252(2)
C10 C 0.7117(3) 0.5439(3) 0.6108(2)
C11 C 0.7412(3) 0.5033(3) 0.5371(2)
H8 H 0.8087 0.4690 0.5294
H9 H 0.7451 0.5551 0.5010
C12 C 0.6624(3) 0.4361(3) 0.5295(2)
H10 H 0.5947 0.4702 0.5370
H11 H 0.6800 0.4096 0.4812
N2 N 0.6605(2) 0.3588(2) 0.58357(18)
C13 C 0.6511(3) 0.2679(3) 0.5642(2)
H12 H 0.6427 0.2567 0.5180
C14 C 0.6537(3) 0.1948(3) 0.6101(2)
H13 H 0.6408 0.1332 0.5979
C15 C 0.6755(3) 0.2095(3) 0.6764(2)
C16 C 0.6844(3) 0.1356(3) 0.7253(3)
H14 H 0.6730 0.0728 0.7148
C17 C 0.7090(3) 0.1529(3) 0.7876(3)
H15 H 0.7128 0.1024 0.8206
C18 C 0.7289(3) 0.2446(3) 0.8037(2)
H16 H 0.7487 0.2554 0.8464
C19 C 0.7197(3) 0.3182(3) 0.7580(2)
H17 H 0.7335 0.3800 0.7690
C20 C 0.6901(3) 0.3037(3) 0.6944(2)
C21 C 0.6717(3) 0.3797(3) 0.6486(2)
C22 C 0.6666(3) 0.4817(3) 0.6648(2)
C23 C 0.6196(3) 0.5189(3) 0.7332(2)
C24 C 0.5468(3) 0.4647(3) 0.7861(2)
C25 C 0.7092(3) 0.7697(3) 0.7108(2)
H18 H 0.7767 0.7858 0.6835
H19 H 0.7059 0.7736 0.7617
H20 H 0.6575 0.8141 0.6982
C26 C 0.7739(3) 0.7042(3) 0.5660(2)
H21 H 0.7427 0.7684 0.5747
H22 H 0.7651 0.6826 0.5205
H23 H 0.8465 0.7042 0.5645
C27 C 0.3793(3) 0.2629(3) 0.8007(2)
H24 H 0.3779 0.2604 0.7520
C28 C 0.3347(3) 0.1951(3) 0.8449(2)
H25 H 0.3349 0.1985 0.8937
C29 C 0.2858(3) 0.1157(3) 0.8230(2)
C30 C 0.2620(3) 0.0403(3) 0.8703(2)
H26 H 0.2730 0.0427 0.9167
C31 C 0.2208(3) -0.0410(3) 0.8490(2)
C32 C 0.2022(3) -0.1218(3) 0.8943(3)
H27 H 0.2138 -0.1216 0.9407
C33 C 0.1679(3) -0.1995(3) 0.8711(3)
H28 H 0.1557 -0.2535 0.9017
C34 C 0.1496(3) -0.2022(3) 0.8025(3)
C35 C 0.1654(3) -0.1255(3) 0.7581(3)
H29 H 0.1521 -0.1269 0.7122
C36 C 0.2024(3) -0.0423(3) 0.7808(2)
C37 C 0.2230(3) 0.0370(3) 0.7344(2)
H30 H 0.2087 0.0371 0.6888
C38 C 0.2638(3) 0.1137(3) 0.7555(2)
H31 H 0.2775 0.1667 0.7240
C39 C 0.1263(4) -0.2982(3) 0.7111(3)
H32 H 0.0720 -0.2584 0.6974
H33 H 0.1182 -0.3647 0.7025
H34 H 0.1923 -0.2795 0.6829
O1 O 0.1210(2) -0.2867(2) 0.78474(19)
C40 C 0.8493(3) 0.6244(3) 0.1963(2)
H35 H 0.8344 0.6395 0.2452
C41 C 0.8011(3) 0.5500(3) 0.1754(2)
C42 C 0.8205(3) 0.5335(3) 0.1028(2)
H36 H 0.7906 0.4829 0.0862
C43 C 0.8825(3) 0.5900(3) 0.0558(2)
H37 H 0.8922 0.5805 0.0063
N3 N 0.9304(2) 0.6592(2) 0.07788(18)
C44 C 0.9979(3) 0.7192(3) 0.0246(2)
H38 H 0.9835 0.7132 -0.0227
H39 H 1.0698 0.6983 0.0212
C45 C 0.9791(3) 0.8207(3) 0.0473(2)
H40 H 0.9083 0.8425 0.0473
H41 H 1.0251 0.8608 0.0129
C46 C 0.9965(3) 0.8314(3) 0.1203(2)
C47 C 1.0319(3) 0.9122(3) 0.1426(2)
C48 C 1.0419(3) 0.9190(3) 0.2118(2)
C49 C 1.0193(3) 0.8406(3) 0.2590(2)
C50 C 1.0167(3) 0.8454(3) 0.3375(2)
H42 H 1.0839 0.8244 0.3459
H43 H 0.9997 0.9111 0.3539
C51 C 0.9369(3) 0.7811(3) 0.3772(2)
H44 H 0.9320 0.7833 0.4289
H45 H 0.8698 0.8017 0.3685
N4 N 0.9672(2) 0.6836(2) 0.35153(17)
C52 C 0.9640(3) 0.6107(3) 0.4005(2)
H46 H 0.9392 0.6231 0.4496
C53 C 0.9959(3) 0.5218(3) 0.3795(2)
H47 H 0.9897 0.4711 0.4134
C54 C 1.0386(3) 0.5043(3) 0.3067(2)
C55 C 1.0787(3) 0.4129(3) 0.2827(2)
H48 H 1.0758 0.3614 0.3158
C56 C 1.1211(3) 0.3987(3) 0.2131(2)
H49 H 1.1450 0.3367 0.1974
C57 C 1.1302(3) 0.4742(3) 0.1636(2)
H50 H 1.1617 0.4629 0.1151
C58 C 1.0941(3) 0.5641(3) 0.1845(2)
H51 H 1.1031 0.6150 0.1509
C59 C 1.0433(3) 0.5812(3) 0.2565(2)
C60 C 0.9992(3) 0.6712(3) 0.2812(2)
C61 C 0.9937(3) 0.7564(3) 0.2349(2)
C62 C 0.9733(3) 0.7540(3) 0.1680(2)
C63 C 0.9184(3) 0.6772(3) 0.1480(2)
C64 C 1.0562(4) 0.9963(3) 0.0911(3)
H52 H 1.1300 0.9975 0.0730
H53 H 1.0301 1.0552 0.1160
H54 H 1.0242 0.9903 0.0514
C65 C 1.0761(3) 1.0075(3) 0.2377(3)
H55 H 1.0180 1.0534 0.2515
H56 H 1.1281 1.0350 0.1997
H57 H 1.1046 0.9917 0.2789
C66 C 0.7334(3) 0.4953(3) 0.2300(2)
H58 H 0.7184 0.5170 0.2774
C67 C 0.6908(3) 0.4162(3) 0.2176(2)
H59 H 0.7031 0.3970 0.1697
C68 C 0.6278(3) 0.3580(3) 0.2716(2)
C69 C 0.5867(3) 0.3896(3) 0.3427(2)
H60 H 0.5967 0.4519 0.3551
C70 C 0.5329(3) 0.3298(3) 0.3928(2)
H61 H 0.5048 0.3519 0.4395
C71 C 0.5181(3) 0.2361(3) 0.3767(2)
C72 C 0.4645(3) 0.1737(3) 0.4291(2)
H62 H 0.4370 0.1947 0.4762
C73 C 0.4527(3) 0.0836(3) 0.4115(2)
C74 C 0.4932(3) 0.0508(3) 0.3417(2)
H63 H 0.4847 -0.0124 0.3304
C75 C 0.5442(3) 0.1099(3) 0.2910(2)
H64 H 0.5718 0.0873 0.2444
C76 C 0.5569(3) 0.2044(3) 0.3063(2)
C77 C 0.6109(3) 0.2675(3) 0.2552(2)
H65 H 0.6363 0.2468 0.2078
C78 C 0.3569(3) 0.0467(3) 0.5287(2)
H66 H 0.4093 0.0700 0.5497
H67 H 0.3262 -0.0071 0.5571
H68 H 0.3044 0.0974 0.5278
O2 O 0.4018(2) 0.01713(19) 0.45794(16)
I1 I 0.64581(2) 0.66431(2) 0.395405(15)
I2 I 0.30085(2) 0.63296(2) 0.005851(16)
I3 I 0.23661(2) 0.23487(2) 0.057909(16)
I4 I 0.91861(2) 0.26732(2) 0.473430(18)
loop_
_geom_bond_atom_site_label_1
_geom_bond_atom_site_label_2
_geom_bond_site_symmetry_1
_geom_bond_site_symmetry_2
C1 H1 1_555 1_555
C2 C1 1_555 1_555
C3 C2 1_555 1_555
H2 C3 1_555 1_555
C4 C3 1_555 1_555
H3 C4 1_555 1_555
N1 C4 1_555 1_555
C5 N1 1_555 1_555
H4 C5 1_555 1_555
H5 C5 1_555 1_555
C6 C5 1_555 1_555
H6 C6 1_555 1_555
H7 C6 1_555 1_555
C7 C6 1_555 1_555
C8 C7 1_555 1_555
C9 C8 1_555 1_555
C10 C9 1_555 1_555
C11 C10 1_555 1_555
H8 C11 1_555 1_555
H9 C11 1_555 1_555
C12 C11 1_555 1_555
H10 C12 1_555 1_555
H11 C12 1_555 1_555
N2 C12 1_555 1_555
C13 N2 1_555 1_555
H12 C13 1_555 1_555
C14 C13 1_555 1_555
H13 C14 1_555 1_555
C15 C14 1_555 1_555
C16 C15 1_555 1_555
H14 C16 1_555 1_555
C17 C16 1_555 1_555
H15 C17 1_555 1_555
C18 C17 1_555 1_555
H16 C18 1_555 1_555
C19 C18 1_555 1_555
H17 C19 1_555 1_555
C20 C15 1_555 1_555
C21 N2 1_555 1_555
C22 C10 1_555 1_555
C23 C7 1_555 1_555
C24 C1 1_555 1_555
C25 C8 1_555 1_555
H18 C25 1_555 1_555
H19 C25 1_555 1_555
H20 C25 1_555 1_555
C26 C9 1_555 1_555
H21 C26 1_555 1_555
H22 C26 1_555 1_555
H23 C26 1_555 1_555
C27 C2 1_555 1_555
H24 C27 1_555 1_555
C28 C27 1_555 1_555
H25 C28 1_555 1_555
C29 C28 1_555 1_555
C30 C29 1_555 1_555
H26 C30 1_555 1_555
C31 C30 1_555 1_555
C32 C31 1_555 1_555
H27 C32 1_555 1_555
C33 C32 1_555 1_555
H28 C33 1_555 1_555
C34 C33 1_555 1_555
C35 C34 1_555 1_555
H29 C35 1_555 1_555
C36 C31 1_555 1_555
C37 C36 1_555 1_555
H30 C37 1_555 1_555
C38 C29 1_555 1_555
H31 C38 1_555 1_555
C39 H32 1_555 1_555
H33 C39 1_555 1_555
H34 C39 1_555 1_555
O1 C34 1_555 1_555
C40 H35 1_555 1_555
C41 C40 1_555 1_555
C42 C41 1_555 1_555
H36 C42 1_555 1_555
C43 C42 1_555 1_555
H37 C43 1_555 1_555
N3 C43 1_555 1_555
C44 N3 1_555 1_555
H38 C44 1_555 1_555
H39 C44 1_555 1_555
C45 C44 1_555 1_555
H40 C45 1_555 1_555
H41 C45 1_555 1_555
C46 C45 1_555 1_555
C47 C46 1_555 1_555
C48 C47 1_555 1_555
C49 C48 1_555 1_555
C50 C49 1_555 1_555
H42 C50 1_555 1_555
H43 C50 1_555 1_555
C51 C50 1_555 1_555
H44 C51 1_555 1_555
H45 C51 1_555 1_555
N4 C51 1_555 1_555
C52 N4 1_555 1_555
H46 C52 1_555 1_555
C53 C52 1_555 1_555
H47 C53 1_555 1_555
C54 C53 1_555 1_555
C55 C54 1_555 1_555
H48 C55 1_555 1_555
C56 C55 1_555 1_555
H49 C56 1_555 1_555
C57 C56 1_555 1_555
H50 C57 1_555 1_555
C58 C57 1_555 1_555
H51 C58 1_555 1_555
C59 C54 1_555 1_555
C60 N4 1_555 1_555
C61 C49 1_555 1_555
C62 C46 1_555 1_555
C63 C40 1_555 1_555
C64 C47 1_555 1_555
H52 C64 1_555 1_555
H53 C64 1_555 1_555
H54 C64 1_555 1_555
C65 C48 1_555 1_555
H55 C65 1_555 1_555
H56 C65 1_555 1_555
H57 C65 1_555 1_555
C66 C41 1_555 1_555
H58 C66 1_555 1_555
C67 C66 1_555 1_555
H59 C67 1_555 1_555
C68 C67 1_555 1_555
C69 C68 1_555 1_555
H60 C69 1_555 1_555
C70 C69 1_555 1_555
H61 C70 1_555 1_555
C71 C70 1_555 1_555
C72 C71 1_555 1_555
H62 C72 1_555 1_555
C73 C72 1_555 1_555
C74 C73 1_555 1_555
H63 C74 1_555 1_555
C75 C74 1_555 1_555
H64 C75 1_555 1_555
C76 C71 1_555 1_555
C77 C68 1_555 1_555
H65 C77 1_555 1_555
C78 H66 1_555 1_555
H67 C78 1_555 1_555
H68 C78 1_555 1_555
O2 C73 1_555 1_555
N1 C24 1_555 1_555
C19 C20 1_555 1_555
C20 C21 1_555 1_555
C21 C22 1_555 1_555
C22 C23 1_555 1_555
C23 C24 1_555 1_555
C35 C36 1_555 1_555
C37 C38 1_555 1_555
C39 O1 1_555 1_555
N3 C63 1_555 1_555
C58 C59 1_555 1_555
C59 C60 1_555 1_555
C60 C61 1_555 1_555
C61 C62 1_555 1_555
C62 C63 1_555 1_555
C75 C76 1_555 1_555
C76 C77 1_555 1_555
C78 O2 1_555 1_555

#END
