
#######################################################################
#
#                 Cambridge Crystallographic Data Centre
#                                CCDC 
#
#######################################################################
#
# If this CIF has been generated from an entry in the Cambridge 
# Structural Database, then it will include bibliographic, chemical, 
# crystal, experimental, refinement or atomic coordinate data resulting 
# from the CCDC's data processing and validation procedures.
#
#######################################################################

data_LOSBIG
_chemical_formula_moiety         'C42 H44 N4 2+,2(Cl1 O4 1-)'
_chemical_name_systematic        
"2,17-bis(2-(4-(Dimethylamino)phenyl)vinyl)-6,7,8,11,12,13-hexahydropyrido[2,1-a]pyrido[1',2':1,2]azepino[4,3-i][2]benzazepinedi-ium diperchlorate"
_symmetry_cell_setting           tetragonal
_symmetry_space_group_name_H-M   'P 42 21 2'
_symmetry_Int_Tables_number      94
_space_group_name_Hall           'P 4n 2n'
loop_
_symmetry_equiv_pos_site_id
_symmetry_equiv_pos_as_xyz
1 x,y,z
2 1/2-y,1/2+x,1/2+z
3 -x,-y,z
4 1/2+y,1/2-x,1/2+z
5 1/2+x,1/2-y,1/2-z
6 y,x,-z
7 1/2-x,1/2+y,1/2-z
8 -y,-x,-z
_cell_length_a                   13.3242(4)
_cell_length_b                   13.3242(4)
_cell_length_c                   24.3016(9)
_cell_angle_alpha                90
_cell_angle_beta                 90
_cell_angle_gamma                90
_cell_volume                     4314.37
_exptl_crystal_colour            'dark red'
_exptl_crystal_description       plate
_cell_formula_units_Z            4
loop_
_atom_site_label
_atom_site_type_symbol
_atom_site_fract_x
_atom_site_fract_y
_atom_site_fract_z
C1 C 0.1039(5) 0.5786(5) -0.0662(2)
H1 H 0.0549 0.6291 -0.0726
C2 C 0.1653(4) 0.5857(4) -0.0192(3)
C3 C 0.2367(5) 0.5127(6) -0.0141(3)
H2 H 0.2833 0.5167 0.0154
C4 C 0.2432(6) 0.4344(5) -0.0499(3)
H3 H 0.2922 0.3837 -0.0443
N1 N 0.1804(4) 0.4283(4) -0.0934(2)
C5 C 0.1897(5) 0.3418(5) -0.1318(3)
H4 H 0.1218 0.3197 -0.1430
H5 H 0.2224 0.2852 -0.1125
C6 C 0.2493(5) 0.3675(6) -0.1821(3)
H6 H 0.2387 0.3154 -0.2106
H7 H 0.3216 0.3688 -0.1729
C7 C 0.2170(6) 0.4710(7) -0.2049(3)
H8 H 0.2488 0.5243 -0.1825
H9 H 0.2422 0.4779 -0.2430
C8 C 0.1060(5) 0.4868(6) -0.2049(3)
C9 C 0.0502(6) 0.4918(7) -0.2542(3)
H10 H 0.0840 0.4835 -0.2883
C10 C 0.0518(4) 0.4927(5) -0.1553(2)
C11 C 0.1127(4) 0.5003(5) -0.1035(2)
C12 C 0.1514(5) 0.6701(5) 0.0169(2)
H11 H 0.1020 0.7186 0.0075
C13 C 0.2052(5) 0.6844(5) 0.0638(3)
H12 H 0.2524 0.6341 0.0736
C14 C 0.1961(5) 0.7701(5) 0.1002(3)
C15 C 0.2510(5) 0.7730(5) 0.1498(2)
H13 H 0.2924 0.7176 0.1593
C16 C 0.2461(5) 0.8529(5) 0.1846(2)
H14 H 0.2842 0.8521 0.2177
C17 C 0.1868(5) 0.9354(5) 0.1726(3)
C18 C 0.1357(5) 0.9359(6) 0.1234(3)
H15 H 0.0976 0.9934 0.1136
C19 C 0.1383(5) 0.8546(5) 0.0880(3)
H16 H 0.1003 0.8564 0.0549
C20 C 0.2248(7) 1.0150(7) 0.2628(3)
H17 H 0.1874 0.9655 0.2845
H18 H 0.2194 1.0810 0.2804
H19 H 0.2956 0.9951 0.2609
C21 C 0.1134(6) 1.1005(6) 0.1974(4)
H20 H 0.1216 1.1246 0.1596
H21 H 0.1264 1.1557 0.2231
H22 H 0.0447 1.0759 0.2026
N2 N 0.1835(5) 1.0199(5) 0.2077(2)
C1B C -0.1039(5) 0.4214(5) -0.0662(2)
H1B H -0.0549 0.3709 -0.0726
C2B C -0.1653(4) 0.4143(4) -0.0192(3)
C3B C -0.2367(5) 0.4873(6) -0.0141(3)
H2B H -0.2833 0.4833 0.0154
C4B C -0.2432(6) 0.5656(5) -0.0499(3)
H3B H -0.2922 0.6163 -0.0443
N1B N -0.1804(4) 0.5717(4) -0.0934(2)
C5B C -0.1897(5) 0.6582(5) -0.1318(3)
H4B H -0.1218 0.6803 -0.1430
H5B H -0.2224 0.7148 -0.1125
C6B C -0.2493(5) 0.6325(6) -0.1821(3)
H6B H -0.2387 0.6846 -0.2106
H7B H -0.3216 0.6312 -0.1729
C7B C -0.2170(6) 0.5290(7) -0.2049(3)
H8B H -0.2488 0.4757 -0.1825
H9B H -0.2422 0.5221 -0.2430
C8B C -0.1060(5) 0.5132(6) -0.2049(3)
C9B C -0.0502(6) 0.5082(7) -0.2542(3)
H10B H -0.0840 0.5165 -0.2883
C10B C -0.0518(4) 0.5073(5) -0.1553(2)
C11B C -0.1127(4) 0.4997(5) -0.1035(2)
C12B C -0.1514(5) 0.3299(5) 0.0169(2)
H11B H -0.1020 0.2814 0.0075
C13B C -0.2052(5) 0.3156(5) 0.0638(3)
H12B H -0.2524 0.3659 0.0736
C14B C -0.1961(5) 0.2299(5) 0.1002(3)
C15B C -0.2510(5) 0.2270(5) 0.1498(2)
H13B H -0.2924 0.2824 0.1593
C16B C -0.2461(5) 0.1471(5) 0.1846(2)
H14B H -0.2842 0.1479 0.2177
C17B C -0.1868(5) 0.0646(5) 0.1726(3)
C18B C -0.1357(5) 0.0641(6) 0.1234(3)
H15B H -0.0976 0.0066 0.1136
C19B C -0.1383(5) 0.1454(5) 0.0880(3)
H16B H -0.1003 0.1436 0.0549
C20B C -0.2248(7) -0.0150(7) 0.2628(3)
H17B H -0.1874 0.0345 0.2845
H18B H -0.2194 -0.0810 0.2804
H19B H -0.2956 0.0049 0.2609
C21B C -0.1134(6) -0.1005(6) 0.1974(4)
H20B H -0.1216 -0.1246 0.1596
H21B H -0.1264 -0.1557 0.2231
H22B H -0.0447 -0.0759 0.2026
N2B N -0.1835(5) -0.0199(5) 0.2077(2)
Cl1 Cl 0.0000 0.0000 0.38876(13)
O1 O 0.0185(12) 0.0783(12) 0.3541(6)
O2 O -0.0978(5) 0.0332(10) 0.4044(5)
O1B O -0.0185(12) -0.0783(12) 0.3541(6)
O2B O 0.0978(5) -0.0332(10) 0.4044(5)
Cl2 Cl 0.15519(18) 0.15519(18) 0.0000
O3 O 0.2257(14) 0.2257(14) 0.0000
O4 O 0.1135(12) 0.1699(13) 0.0534(3)
O5 O 0.0793(17) 0.0793(17) 0.0000
O4E O 0.1699(13) 0.1135(12) -0.0534(3)
O6? O 0.189(4) 0.2559(13) 0.0035(16)
O7? O 0.0717(10) 0.1236(16) 0.0318(8)
Cl3? Cl 0.1389(6) 0.4005(7) 0.1185(3)
O8? O 0.1363(6) 0.3335(7) 0.1651(3)
O9? O 0.0629(6) 0.3702(7) 0.0798(3)
O10? O 0.1189(6) 0.5006(7) 0.1365(3)
O11? O 0.2357(6) 0.3954(7) 0.0935(3)
O12? O 0.2367(8) 0.0970(9) 0.0212(6)
O13? O 0.0537(16) -0.0146(19) 0.4325(9)
O14? O 0.0492(12) 0.0940(6) 0.3817(7)
loop_
_geom_bond_atom_site_label_1
_geom_bond_atom_site_label_2
_geom_bond_site_symmetry_1
_geom_bond_site_symmetry_2
C1 H1 1_555 1_555
C2 C1 1_555 1_555
C3 C2 1_555 1_555
H2 C3 1_555 1_555
C4 C3 1_555 1_555
H3 C4 1_555 1_555
N1 C4 1_555 1_555
C5 N1 1_555 1_555
H4 C5 1_555 1_555
H5 C5 1_555 1_555
C6 C5 1_555 1_555
H6 C6 1_555 1_555
H7 C6 1_555 1_555
C7 C6 1_555 1_555
H8 C7 1_555 1_555
H9 C7 1_555 1_555
C8 C7 1_555 1_555
C9 C8 1_555 1_555
H10 C9 1_555 1_555
C10 C8 1_555 1_555
C11 C1 1_555 1_555
C12 C2 1_555 1_555
H11 C12 1_555 1_555
C13 C12 1_555 1_555
H12 C13 1_555 1_555
C14 C13 1_555 1_555
C15 C14 1_555 1_555
H13 C15 1_555 1_555
C16 C15 1_555 1_555
H14 C16 1_555 1_555
C17 C16 1_555 1_555
C18 C17 1_555 1_555
H15 C18 1_555 1_555
C19 C14 1_555 1_555
H16 C19 1_555 1_555
C20 H17 1_555 1_555
H18 C20 1_555 1_555
H19 C20 1_555 1_555
C21 H20 1_555 1_555
H21 C21 1_555 1_555
H22 C21 1_555 1_555
N2 C17 1_555 1_555
Cl1 O1 1_555 1_555
O2 Cl1 1_555 1_555
Cl2 O3 1_555 1_555
O4 Cl2 1_555 1_555
O5 Cl2 1_555 1_555
C1B H1B 1_555 1_555
C2B C1B 1_555 1_555
C3B C2B 1_555 1_555
H2B C3B 1_555 1_555
C4B C3B 1_555 1_555
H3B C4B 1_555 1_555
N1B C4B 1_555 1_555
C5B N1B 1_555 1_555
H4B C5B 1_555 1_555
H5B C5B 1_555 1_555
C6B C5B 1_555 1_555
H6B C6B 1_555 1_555
H7B C6B 1_555 1_555
C7B C6B 1_555 1_555
H8B C7B 1_555 1_555
H9B C7B 1_555 1_555
C8B C7B 1_555 1_555
C9B C9 1_555 1_555
H10B C9B 1_555 1_555
C10B C10 1_555 1_555
C11B C1B 1_555 1_555
C12B C2B 1_555 1_555
H11B C12B 1_555 1_555
C13B C12B 1_555 1_555
H12B C13B 1_555 1_555
C14B C13B 1_555 1_555
C15B C14B 1_555 1_555
H13B C15B 1_555 1_555
C16B C15B 1_555 1_555
H14B C16B 1_555 1_555
C17B C16B 1_555 1_555
C18B C17B 1_555 1_555
H15B C18B 1_555 1_555
C19B C14B 1_555 1_555
H16B C19B 1_555 1_555
C20B H17B 1_555 1_555
H18B C20B 1_555 1_555
H19B C20B 1_555 1_555
C21B H20B 1_555 1_555
H21B C21B 1_555 1_555
H22B C21B 1_555 1_555
N2B C17B 1_555 1_555
O1B Cl1 1_555 1_555
O2B Cl1 1_555 1_555
O4E Cl2 1_555 1_555
N1 C11 1_555 1_555
C10 C11 1_555 1_555
C18 C19 1_555 1_555
C20 N2 1_555 1_555
C21 N2 1_555 1_555
N1B C11B 1_555 1_555
C8B C9B 1_555 1_555
C8B C10B 1_555 1_555
C10B C11B 1_555 1_555
C18B C19B 1_555 1_555
C20B N2B 1_555 1_555
C21B N2B 1_555 1_555

#END
