
#######################################################################
#
#                 Cambridge Crystallographic Data Centre
#                                CCDC 
#
#######################################################################
#
# If this CIF has been generated from an entry in the Cambridge 
# Structural Database, then it will include bibliographic, chemical, 
# crystal, experimental, refinement or atomic coordinate data resulting 
# from the CCDC's data processing and validation procedures.
#
#######################################################################

data_LOSNIQ
_chemical_formula_moiety         'C15 H22 N1 O4'
_chemical_name_systematic        
N-tris(Hydroxymethyl)methyl-4-t-butylbenzenecarboxamide
_symmetry_cell_setting           triclinic
_symmetry_space_group_name_H-M   'P -1'
_symmetry_Int_Tables_number      2
_space_group_name_Hall           '-P 1'
loop_
_symmetry_equiv_pos_site_id
_symmetry_equiv_pos_as_xyz
1 x,y,z
2 -x,-y,-z
_cell_length_a                   6.2515(9)
_cell_length_b                   8.6633(12)
_cell_length_c                   14.045(2)
_cell_angle_alpha                93.459(3)
_cell_angle_beta                 91.186(3)
_cell_angle_gamma                102.490(3)
_cell_volume                     740.858
_exptl_crystal_colour            colorless
_exptl_crystal_description       plate
_chemical_melting_point          '139-142 deg.C'
_cell_formula_units_Z            2
loop_
_atom_site_label
_atom_site_type_symbol
_atom_site_fract_x
_atom_site_fract_y
_atom_site_fract_z
O1 O 0.0579(2) 0.94469(16) 0.27149(9)
C1 C 0.2365(3) 0.8138(2) 0.38172(12)
C2 C 0.1766(3) 0.8494(2) 0.28297(12)
C3 C 0.3223(3) 0.7407(2) 0.57045(12)
C4 C 0.4248(3) 0.7629(2) 0.40470(13)
H1 H 0.5263 0.7518 0.3567
C5 C 0.4665(3) 0.7275(3) 0.49818(13)
H2 H 0.5974 0.6935 0.5126
C6 C 0.0954(3) 0.8336(2) 0.45405(13)
H3 H -0.0317 0.8728 0.4401
C7 C 0.1367(3) 0.7972(2) 0.54584(13)
H4 H 0.0361 0.8109 0.5938
C8 C 0.3542(3) 0.6897(2) 0.67117(13)
C9 C 0.5908(3) 0.6744(3) 0.69172(14)
H5 H 0.6916 0.7759 0.6831
H6 H 0.6262 0.5923 0.6476
H7 H 0.6055 0.6454 0.7575
O2 O -0.0751(2) 0.68621(14) -0.01751(8)
H8 H -0.0790 0.7780 -0.0326
O3 O 0.0848(2) 1.03148(15) 0.09607(9)
H9 H 0.0578 1.0283 0.1544
C10 C -0.0223(3) 0.6898(2) 0.08227(12)
H10 H -0.0409 0.5799 0.1018
H11 H -0.1254 0.7409 0.1186
C11 C 0.2953(4) 0.8074(3) 0.74627(14)
H12 H 0.3801 0.9142 0.7367
H13 H 0.3296 0.7777 0.8101
H14 H 0.1384 0.8059 0.7402
C12 C 0.3802(3) 0.6986(2) 0.05746(13)
H15 H 0.3337 0.6718 -0.0104
H16 H 0.5248 0.7733 0.0597
C13 C 0.2015(3) 0.5269(2) 0.67922(15)
H17 H 0.2232 0.4890 0.7423
H18 H 0.2348 0.4517 0.6298
H19 H 0.0488 0.5360 0.6707
C14 C 0.2129(3) 0.78025(19) 0.10713(11)
C15 C 0.2544(3) 0.9503(2) 0.07574(13)
H20 H 0.3922 1.0114 0.1075
H21 H 0.2762 0.9476 0.0061
O4 O 0.4011(2) 0.55887(15) 0.10075(9)
H22 H 0.3044 0.4821 0.0775
N1 N 0.2579(2) 0.77220(17) 0.21056(10)
loop_
_geom_bond_atom_site_label_1
_geom_bond_atom_site_label_2
_geom_bond_site_symmetry_1
_geom_bond_site_symmetry_2
O1 C2 1_555 1_555
C1 C2 1_555 1_555
C2 N1 1_555 1_555
C3 C5 1_555 1_555
C4 C1 1_555 1_555
H1 C4 1_555 1_555
C5 C4 1_555 1_555
H2 C5 1_555 1_555
C6 C1 1_555 1_555
H3 C6 1_555 1_555
C7 C3 1_555 1_555
H4 C7 1_555 1_555
C8 C3 1_555 1_555
C9 C8 1_555 1_555
H5 C9 1_555 1_555
H6 C9 1_555 1_555
H7 C9 1_555 1_555
O2 H8 1_555 1_555
O3 H9 1_555 1_555
C10 O2 1_555 1_555
H10 C10 1_555 1_555
H11 C10 1_555 1_555
C11 C8 1_555 1_555
H12 C11 1_555 1_555
H13 C11 1_555 1_555
H14 C11 1_555 1_555
C12 H15 1_555 1_555
H16 C12 1_555 1_555
C13 C8 1_555 1_555
H17 C13 1_555 1_555
H18 C13 1_555 1_555
H19 C13 1_555 1_555
C14 C10 1_555 1_555
C15 O3 1_555 1_555
H20 C15 1_555 1_555
H21 C15 1_555 1_555
O4 C12 1_555 1_555
H22 O4 1_555 1_555
N1 C14 1_555 1_555
C6 C7 1_555 1_555
C12 C14 1_555 1_555
C14 C15 1_555 1_555

#END
