
#######################################################################
#
#                 Cambridge Crystallographic Data Centre
#                                CCDC 
#
#######################################################################
#
# If this CIF has been generated from an entry in the Cambridge 
# Structural Database, then it will include bibliographic, chemical, 
# crystal, experimental, refinement or atomic coordinate data resulting 
# from the CCDC's data processing and validation procedures.
#
#######################################################################

data_LOWSIB
_chemical_formula_moiety         'C18 H18 N2 O2'
_chemical_name_systematic        
1-amino-9b-benzyl-3a,4,5,9b-tetrahydronaphtho[1,2-d][1,3]oxazol-2(1H)-one
_symmetry_cell_setting           monoclinic
_symmetry_space_group_name_H-M   'P 21/c'
_symmetry_Int_Tables_number      14
_space_group_name_Hall           '-P 2ybc'
loop_
_symmetry_equiv_pos_site_id
_symmetry_equiv_pos_as_xyz
1 x,y,z
2 -x,1/2+y,1/2-z
3 -x,-y,-z
4 x,1/2-y,1/2+z
_cell_length_a                   15.240(4)
_cell_length_b                   10.542(3)
_cell_length_c                   9.780(3)
_cell_angle_alpha                90
_cell_angle_beta                 106.221(4)
_cell_angle_gamma                90
_cell_volume                     1508.71
_exptl_crystal_colour            colorless
_exptl_crystal_description       block
_cell_formula_units_Z            4
loop_
_atom_site_label
_atom_site_type_symbol
_atom_site_fract_x
_atom_site_fract_y
_atom_site_fract_z
C1 C 0.25620(11) 0.38129(15) 0.08243(19)
C2 C 0.16231(10) 0.49669(15) 0.22688(17)
C3 C 0.24677(10) 0.55352(16) 0.33316(17)
C4 C 0.18459(12) 0.37113(15) 0.1620(2)
H1 H 0.2056 0.3085 0.2396
H2 H 0.1276 0.3379 0.0960
C5 C 0.27375(12) 0.67912(17) 0.32187(19)
C6 C 0.29935(12) 0.47754(19) 0.44281(19)
H3 H 0.2806 0.3929 0.4529
C7 C 0.23233(13) 0.40248(17) -0.0626(2)
H4 H 0.1696 0.4116 -0.1130
C8 C 0.11099(11) 0.59093(17) 0.11115(19)
H5 H 0.0812 0.5427 0.0223
C9 C 0.34884(13) 0.3668(2) 0.1527(2)
H6 H 0.3674 0.3513 0.2523
C10 C 0.29807(15) 0.41086(18) -0.1366(2)
H7 H 0.2801 0.4260 -0.2363
C11 C 0.16756(14) 0.69604(18) 0.0754(2)
H8 H 0.1272 0.7555 0.0079
H9 H 0.2117 0.6599 0.0284
C12 C 0.40538(15) 0.6470(3) 0.5243(3)
H10 H 0.4599 0.6789 0.5879
C13 C 0.38938(15) 0.3971(2) -0.0646(2)
H11 H 0.4347 0.4031 -0.1142
C14 C 0.37856(14) 0.5241(2) 0.5372(2)
H12 H 0.4141 0.4712 0.6105
C15 C 0.41404(15) 0.3748(2) 0.0790(3)
H13 H 0.4768 0.3647 0.1288
C16 C 0.35302(14) 0.7239(2) 0.4189(2)
H14 H 0.3713 0.8093 0.4122
N1 N 0.08807(9) 0.47402(14) 0.29437(15)
C17 C 0.02678(11) 0.56921(19) 0.27078(19)
O1 O 0.03999(9) 0.64583(13) 0.16743(14)
O2 O -0.03275(9) 0.58834(17) 0.32868(16)
N2 N 0.09844(11) 0.38901(15) 0.40825(18)
H15 H 0.0643 0.3970 0.4669
H16 H 0.1391 0.3277 0.4210
C18 C 0.21891(14) 0.76747(17) 0.2076(2)
H17 H 0.1748 0.8153 0.2454
H18 H 0.2606 0.8294 0.1823
loop_
_geom_bond_atom_site_label_1
_geom_bond_atom_site_label_2
_geom_bond_site_symmetry_1
_geom_bond_site_symmetry_2
C1 C4 1_555 1_555
C2 C3 1_555 1_555
C3 C5 1_555 1_555
C4 C2 1_555 1_555
H1 C4 1_555 1_555
H2 C4 1_555 1_555
C5 C16 1_555 1_555
C6 C3 1_555 1_555
H3 C6 1_555 1_555
C7 C1 1_555 1_555
H4 C7 1_555 1_555
C8 C2 1_555 1_555
H5 C8 1_555 1_555
C9 C1 1_555 1_555
H6 C9 1_555 1_555
C10 C7 1_555 1_555
H7 C10 1_555 1_555
C11 C8 1_555 1_555
H8 C11 1_555 1_555
H9 C11 1_555 1_555
C12 H10 1_555 1_555
C13 C10 1_555 1_555
H11 C13 1_555 1_555
C14 C6 1_555 1_555
H12 C14 1_555 1_555
C15 C9 1_555 1_555
H13 C15 1_555 1_555
C16 C12 1_555 1_555
H14 C16 1_555 1_555
N1 C2 1_555 1_555
C17 N1 1_555 1_555
O1 C8 1_555 1_555
O2 C17 1_555 1_555
N2 N1 1_555 1_555
H15 N2 1_555 1_555
H16 N2 1_555 1_555
C18 C5 1_555 1_555
H17 C18 1_555 1_555
H18 C18 1_555 1_555
C11 C18 1_555 1_555
C12 C14 1_555 1_555
C13 C15 1_555 1_555
C17 O1 1_555 1_555

#END
