
#######################################################################
#
#                 Cambridge Crystallographic Data Centre
#                                CCDC 
#
#######################################################################
#
# If this CIF has been generated from an entry in the Cambridge 
# Structural Database, then it will include bibliographic, chemical, 
# crystal, experimental, refinement or atomic coordinate data resulting 
# from the CCDC's data processing and validation procedures.
#
#######################################################################

data_LOWTEY
_chemical_formula_moiety         'C34 H30 N2 O5'
_chemical_name_systematic        
'dibenzyl 1-(1-(4-methylbenzyl)-2-oxo-1,2-dihydronaphthalen-1-yl)hydrazine-1,2-dicarboxylate'
_symmetry_cell_setting           triclinic
_symmetry_space_group_name_H-M   'P -1'
_symmetry_Int_Tables_number      2
_space_group_name_Hall           '-P 1'
loop_
_symmetry_equiv_pos_site_id
_symmetry_equiv_pos_as_xyz
1 x,y,z
2 -x,-y,-z
_cell_length_a                   10.5656(17)
_cell_length_b                   12.0006(19)
_cell_length_c                   12.596(2)
_cell_angle_alpha                108.660(3)
_cell_angle_beta                 95.910(3)
_cell_angle_gamma                104.797(2)
_cell_volume                     1432.92
_exptl_crystal_colour            colorless
_exptl_crystal_description       block
_cell_formula_units_Z            2
loop_
_atom_site_label
_atom_site_type_symbol
_atom_site_fract_x
_atom_site_fract_y
_atom_site_fract_z
N1 N 0.16441(18) 0.67737(16) 0.19190(17)
N2 N 0.14644(19) 0.55918(17) 0.19331(17)
H1 H 0.1125 0.4949 0.1321
O1 O 0.11426(19) 0.60478(18) -0.04094(17)
O2 O 0.05039(17) 0.81066(17) 0.17921(18)
O3 O -0.02693(16) 0.66482(16) 0.25394(17)
O4 O 0.25969(17) 0.62964(17) 0.37819(16)
O5 O 0.12721(17) 0.43242(16) 0.28803(16)
C1 C 0.1994(2) 0.7041(2) 0.0117(2)
C2 C 0.2448(3) 0.7956(3) -0.0401(3)
H2 H 0.2207 0.7745 -0.1187
C3 C 0.3209(3) 0.9100(3) 0.0251(3)
H3 H 0.3500 0.9658 -0.0108
C4 C 0.3608(2) 0.9521(2) 0.1480(2)
C5 C 0.4276(3) 1.0764(3) 0.2129(3)
H4 H 0.4503 1.1324 0.1760
C6 C 0.4604(3) 1.1171(3) 0.3298(3)
H5 H 0.5066 1.1997 0.3717
C7 C 0.4248(3) 1.0354(3) 0.3850(3)
H6 H 0.4441 1.0634 0.4645
C8 C 0.3599(3) 0.9109(2) 0.3224(2)
H7 H 0.3378 0.8557 0.3602
C9 C 0.3281(2) 0.8688(2) 0.2046(2)
C10 C 0.2651(2) 0.7317(2) 0.1351(2)
C11 C 0.3762(2) 0.6657(2) 0.1308(2)
H8 H 0.4071 0.6702 0.2077
H9 H 0.3351 0.5791 0.0841
C12 C 0.4968(2) 0.7144(2) 0.0854(2)
C13 C 0.5134(3) 0.6485(2) -0.0221(2)
H10 H 0.4468 0.5763 -0.0682
C14 C 0.6274(3) 0.6885(3) -0.0621(3)
H11 H 0.6356 0.6421 -0.1345
C15 C 0.7288(3) 0.7946(3) 0.0022(2)
C16 C 0.7121(2) 0.8609(3) 0.1089(3)
H12 H 0.7782 0.9339 0.1539
C17 C 0.5997(2) 0.8216(2) 0.1505(2)
H13 H 0.5926 0.8678 0.2234
C18 C 0.8541(3) 0.8385(3) -0.0406(3)
H14 H 0.8746 0.7684 -0.0893
H15 H 0.9271 0.8854 0.0233
H16 H 0.8398 0.8895 -0.0830
C19 C 0.0589(2) 0.7247(2) 0.2059(2)
C20 C -0.1400(3) 0.7075(3) 0.2735(3)
H17 H -0.1797 0.7164 0.2049
H18 H -0.1118 0.7877 0.3347
C21 C -0.2402(2) 0.6182(2) 0.3049(2)
C22 C -0.3445(3) 0.6541(3) 0.3492(3)
H19 H -0.3482 0.7337 0.3610
C23 C -0.4424(3) 0.5731(3) 0.3759(3)
H20 H -0.5126 0.5976 0.4045
C24 C -0.4367(3) 0.4569(3) 0.3603(3)
H21 H -0.5026 0.4025 0.3789
C25 C -0.3344(3) 0.4201(3) 0.3176(3)
H22 H -0.3308 0.3407 0.3072
C26 C -0.2359(3) 0.5007(2) 0.2897(2)
H23 H -0.1665 0.4751 0.2605
C27 C 0.1846(2) 0.5490(2) 0.2955(2)
C28 C 0.1734(3) 0.4035(3) 0.3851(4)
H24 H 0.1832 0.4719 0.4554
H25 H 0.2599 0.3905 0.3806
C29 C 0.0749(3) 0.2892(3) 0.3859(2)
C30 C -0.0424(4) 0.2920(3) 0.4196(4)
H26 H -0.0644 0.3652 0.4379
C31 C -0.1294(4) 0.1900(4) 0.4274(4)
H27 H -0.2097 0.1943 0.4500
C32 C -0.0995(5) 0.0859(4) 0.4028(4)
H28 H -0.1586 0.0174 0.4094
C33 C 0.0155(5) 0.0767(3) 0.3683(4)
H29 H 0.0352 0.0025 0.3506
C34 C 0.1040(4) 0.1796(3) 0.3594(3)
H30 H 0.1833 0.1741 0.3355
loop_
_geom_bond_atom_site_label_1
_geom_bond_atom_site_label_2
_geom_bond_site_symmetry_1
_geom_bond_site_symmetry_2
N1 N2 1_555 1_555
N2 H1 1_555 1_555
O1 C1 1_555 1_555
O2 C19 1_555 1_555
O3 C19 1_555 1_555
O4 C27 1_555 1_555
O5 C27 1_555 1_555
C1 C2 1_555 1_555
C2 H2 1_555 1_555
C3 C2 1_555 1_555
H3 C3 1_555 1_555
C4 C3 1_555 1_555
C5 C4 1_555 1_555
H4 C5 1_555 1_555
C6 C5 1_555 1_555
H5 C6 1_555 1_555
C7 C6 1_555 1_555
H6 C7 1_555 1_555
C8 C7 1_555 1_555
H7 C8 1_555 1_555
C9 C4 1_555 1_555
C10 N1 1_555 1_555
C11 C10 1_555 1_555
H8 C11 1_555 1_555
H9 C11 1_555 1_555
C12 C11 1_555 1_555
C13 C12 1_555 1_555
H10 C13 1_555 1_555
C14 C13 1_555 1_555
H11 C14 1_555 1_555
C15 C14 1_555 1_555
C16 C15 1_555 1_555
H12 C16 1_555 1_555
C17 C12 1_555 1_555
H13 C17 1_555 1_555
C18 C15 1_555 1_555
H14 C18 1_555 1_555
H15 C18 1_555 1_555
H16 C18 1_555 1_555
C19 N1 1_555 1_555
C20 O3 1_555 1_555
H17 C20 1_555 1_555
H18 C20 1_555 1_555
C21 C20 1_555 1_555
C22 C21 1_555 1_555
H19 C22 1_555 1_555
C23 C22 1_555 1_555
H20 C23 1_555 1_555
C24 C23 1_555 1_555
H21 C24 1_555 1_555
C25 C24 1_555 1_555
H22 C25 1_555 1_555
C26 C21 1_555 1_555
H23 C26 1_555 1_555
C27 N2 1_555 1_555
C28 O5 1_555 1_555
H24 C28 1_555 1_555
H25 C28 1_555 1_555
C29 C28 1_555 1_555
C30 C29 1_555 1_555
H26 C30 1_555 1_555
C31 C30 1_555 1_555
H27 C31 1_555 1_555
C32 C31 1_555 1_555
H28 C32 1_555 1_555
C33 C32 1_555 1_555
H29 C33 1_555 1_555
C34 C29 1_555 1_555
H30 C34 1_555 1_555
C1 C10 1_555 1_555
C8 C9 1_555 1_555
C9 C10 1_555 1_555
C16 C17 1_555 1_555
C25 C26 1_555 1_555
C33 C34 1_555 1_555

#END
