
#######################################################################
#
#                 Cambridge Crystallographic Data Centre
#                                CCDC 
#
#######################################################################
#
# If this CIF has been generated from an entry in the Cambridge 
# Structural Database, then it will include bibliographic, chemical, 
# crystal, experimental, refinement or atomic coordinate data resulting 
# from the CCDC's data processing and validation procedures.
#
#######################################################################

data_LOWVOK
_chemical_formula_moiety         
'C13 H8 O2 S7 Se2 1+,C13 H8 O2 S7 Se2,Cl1 O4 1-'
_chemical_name_systematic        
'bis(5-(5,6-dihydro[1,4]diselenino[2,3-d][1,3]dithiol-2-ylidene)-2-(5,6-dihydro[1,3]dithiolo[4,5-b][1,4]dioxin-2-ylidene)-1,3-dithiolane-4-thione cation radical) perchlorate'
_symmetry_cell_setting           orthorhombic
_symmetry_space_group_name_H-M   'P b c a'
_symmetry_Int_Tables_number      61
_space_group_name_Hall           '-P 2ac 2ab'
loop_
_symmetry_equiv_pos_site_id
_symmetry_equiv_pos_as_xyz
1 x,y,z
2 1/2-x,-y,1/2+z
3 1/2+x,1/2-y,-z
4 -x,1/2+y,1/2-z
5 -x,-y,-z
6 1/2+x,y,1/2-z
7 1/2-x,1/2+y,z
8 x,1/2-y,1/2+z
_cell_length_a                   38.913(8)
_cell_length_b                   14.626(3)
_cell_length_c                   14.399(3)
_cell_angle_alpha                90
_cell_angle_beta                 90
_cell_angle_gamma                90
_cell_volume                     8195.07
_exptl_crystal_colour            black
_exptl_crystal_description       platelet
_chemical_melting_point          '193 deg.C'
_cell_formula_units_Z            8
loop_
_atom_site_label
_atom_site_type_symbol
_atom_site_fract_x
_atom_site_fract_y
_atom_site_fract_z
Se1 Se 0.64897(5) 0.41759(12) 0.33230(12)
Se2 Se 0.66276(4) 0.17629(12) 0.30051(12)
S1 S 0.49729(9) 0.3283(2) 0.4160(2)
S2 S 0.46434(9) 0.1490(2) 0.4362(2)
S3 S 0.42383(11) 0.4268(2) 0.4333(3)
S4 S 0.39076(10) 0.2454(2) 0.4533(2)
S5 S 0.57501(9) 0.3548(2) 0.3812(2)
S6 S 0.58837(8) 0.1605(2) 0.3651(2)
S7 S 0.52776(10) 0.0458(2) 0.4041(3)
O1 O 0.3624(3) 0.5046(9) 0.4271(8)
O2 O 0.3289(2) 0.3266(8) 0.4496(8)
C1 C 0.4592(3) 0.2641(7) 0.4310(7)
C2 C 0.4281(3) 0.3103(7) 0.4413(7)
C3 C 0.3796(3) 0.4233(11) 0.4389(9)
C4 C 0.3639(3) 0.3388(13) 0.4477(10)
C5 C 0.5239(3) 0.2345(8) 0.4016(8)
C6 C 0.5078(3) 0.1451(8) 0.4133(7)
C7 C 0.5584(3) 0.2458(8) 0.3837(8)
C8 C 0.6167(3) 0.3308(9) 0.3474(8)
C9 C 0.6209(3) 0.2377(11) 0.3435(9)
C10 C 0.3246(3) 0.4915(14) 0.4147(12)
C11 C 0.3128(4) 0.4141(15) 0.4779(14)
C12 C 0.6844(4) 0.3452(13) 0.3912(10)
C13 C 0.6973(4) 0.2677(14) 0.3372(14)
H1 H 0.3129 0.5468 0.4287
H2 H 0.3199 0.4743 0.3523
H3 H 0.2884 0.4090 0.4767
H4 H 0.3201 0.4283 0.5392
H5 H 0.7032 0.3847 0.4036
H6 H 0.6755 0.3225 0.4481
H7 H 0.7141 0.2371 0.3734
H8 H 0.7076 0.2907 0.2822
Se3 Se 0.35655(5) 0.41939(12) 0.18346(13)
Se4 Se 0.34068(4) 0.17550(12) 0.22525(13)
S8 S 0.51029(9) 0.3269(2) 0.1630(2)
S9 S 0.54318(9) 0.1490(2) 0.1416(2)
S10 S 0.58226(10) 0.4262(2) 0.1229(2)
S11 S 0.61408(9) 0.2469(2) 0.0932(2)
S12 S 0.43237(9) 0.3542(2) 0.1812(2)
S13 S 0.41822(9) 0.1611(2) 0.2038(2)
S14 S 0.48012(11) 0.0449(2) 0.1798(3)
O3 O 0.6399(3) 0.5076(8) 0.0890(7)
O4 O 0.6730(2) 0.3270(9) 0.0647(7)
C14 C 0.5472(3) 0.2639(8) 0.1398(8)
C15 C 0.5780(3) 0.3091(8) 0.1194(8)
C16 C 0.6250(3) 0.4199(13) 0.0942(9)
C17 C 0.6401(3) 0.3428(10) 0.0828(9)
C18 C 0.4830(3) 0.2326(7) 0.1778(8)
C19 C 0.4988(3) 0.1452(8) 0.1676(9)
C20 C 0.4484(3) 0.2466(7) 0.1874(7)
C21 C 0.3896(3) 0.3243(9) 0.1950(9)
C22 C 0.3832(3) 0.2353(10) 0.2058(8)
C23 C 0.6763(10) 0.4915(19) 0.070(2)
C24 C 0.6894(5) 0.4220(17) 0.0537(19)
C25 C 0.3202(4) 0.3439(13) 0.1356(14)
C26 C 0.3091(4) 0.2672(11) 0.198(2)
H9 H 0.6804 0.5252 0.0145
H10 H 0.6886 0.5184 0.1197
H11 H 0.7082 0.4206 0.0957
H12 H 0.6978 0.4241 -0.0082
H13 H 0.3009 0.3817 0.1231
H14 H 0.3279 0.3166 0.0794
H15 H 0.2894 0.2389 0.1715
H16 H 0.3030 0.2948 0.2553
Cl1 Cl 0.24939(11) 0.0299(3) 0.2241(4)
O5 O 0.2460(6) -0.0541(12) 0.2669(15)
O6 O 0.2828(3) 0.0398(9) 0.2118(13)
O7 O 0.2368(5) 0.0968(14) 0.2815(18)
O8 O 0.2320(7) 0.0296(16) 0.1446(19)
loop_
_geom_bond_atom_site_label_1
_geom_bond_atom_site_label_2
_geom_bond_site_symmetry_1
_geom_bond_site_symmetry_2
Se1 C8 1_555 1_555
Se2 C9 1_555 1_555
S1 C1 1_555 1_555
S2 C1 1_555 1_555
S3 C2 1_555 1_555
S4 C2 1_555 1_555
S5 C7 1_555 1_555
S6 C7 1_555 1_555
S7 C6 1_555 1_555
O1 C3 1_555 1_555
O2 C4 1_555 1_555
C1 C2 1_555 1_555
C3 S3 1_555 1_555
C4 S4 1_555 1_555
C5 S1 1_555 1_555
C6 S2 1_555 1_555
C7 C5 1_555 1_555
C8 S5 1_555 1_555
C9 S6 1_555 1_555
C10 O1 1_555 1_555
C11 O2 1_555 1_555
C12 Se1 1_555 1_555
C13 Se2 1_555 1_555
H1 C10 1_555 1_555
H2 C10 1_555 1_555
H3 C11 1_555 1_555
H4 C11 1_555 1_555
H5 C12 1_555 1_555
H6 C12 1_555 1_555
H7 C13 1_555 1_555
H8 C13 1_555 1_555
Se3 C21 1_555 1_555
Se4 C22 1_555 1_555
S8 C14 1_555 1_555
S9 C14 1_555 1_555
S10 C15 1_555 1_555
S11 C15 1_555 1_555
S12 C20 1_555 1_555
S13 C20 1_555 1_555
S14 C19 1_555 1_555
O3 C16 1_555 1_555
O4 C17 1_555 1_555
C14 C15 1_555 1_555
C16 S10 1_555 1_555
C17 S11 1_555 1_555
C18 S8 1_555 1_555
C19 S9 1_555 1_555
C20 C18 1_555 1_555
C21 S12 1_555 1_555
C22 S13 1_555 1_555
C23 O3 1_555 1_555
C24 O4 1_555 1_555
C25 Se3 1_555 1_555
C26 Se4 1_555 1_555
H9 C23 1_555 1_555
H10 C23 1_555 1_555
H11 C24 1_555 1_555
H12 C24 1_555 1_555
H13 C25 1_555 1_555
H14 C25 1_555 1_555
H15 C26 1_555 1_555
H16 C26 1_555 1_555
Cl1 O5 1_555 1_555
O6 Cl1 1_555 1_555
O7 Cl1 1_555 1_555
O8 Cl1 1_555 1_555
C3 C4 1_555 1_555
C5 C6 1_555 1_555
C8 C9 1_555 1_555
C10 C11 1_555 1_555
C12 C13 1_555 1_555
C16 C17 1_555 1_555
C18 C19 1_555 1_555
C21 C22 1_555 1_555
C23 C24 1_555 1_555
C25 C26 1_555 1_555

#END
