
#######################################################################
#
#                 Cambridge Crystallographic Data Centre
#                                CCDC 
#
#######################################################################
#
# If this CIF has been generated from an entry in the Cambridge 
# Structural Database, then it will include bibliographic, chemical, 
# crystal, experimental, refinement or atomic coordinate data resulting 
# from the CCDC's data processing and validation procedures.
#
#######################################################################

data_LUCQUW
_chemical_formula_moiety         'C22 H20 Cl2 N2 O1'
_chemical_name_systematic        
1-(7-(2-Chlorobenzylidene)-3-(2-chlorophenyl)-3,3a,4,5,6,7-hexahydro-2H-indazol-2-yl)ethanone
_symmetry_cell_setting           monoclinic
_symmetry_space_group_name_H-M   'P 21/n'
_symmetry_Int_Tables_number      14
_space_group_name_Hall           '-P 2yn'
loop_
_symmetry_equiv_pos_site_id
_symmetry_equiv_pos_as_xyz
1 x,y,z
2 1/2-x,1/2+y,1/2-z
3 -x,-y,-z
4 1/2+x,1/2-y,1/2+z
_cell_length_a                   9.424(2)
_cell_length_b                   17.666(4)
_cell_length_c                   11.634(3)
_cell_angle_alpha                90
_cell_angle_beta                 95.181(4)
_cell_angle_gamma                90
_cell_volume                     1928.97
_exptl_crystal_colour            yellow
_chemical_melting_point          '189.8-191.5 deg.C'
_cell_formula_units_Z            4
_exptl_crystal_recrystallization_method ethanol
loop_
_atom_site_label
_atom_site_type_symbol
_atom_site_fract_x
_atom_site_fract_y
_atom_site_fract_z
Cl1 Cl 1.43650(8) 0.23278(5) 0.82898(6)
Cl2 Cl 0.46995(9) -0.00560(6) 0.81182(10)
O1 O 0.83126(19) -0.07510(11) 0.62908(16)
N1 N 1.0375(2) 0.04821(12) 0.81000(17)
N2 N 0.9196(2) 0.01875(11) 0.74283(17)
C1 C 1.4339(3) 0.23037(14) 0.9781(2)
C2 C 1.5373(3) 0.27104(15) 1.0435(2)
H1 H 1.6026 0.3002 1.0076
C3 C 1.5431(3) 0.26817(17) 1.1617(3)
H2 H 1.6121 0.2956 1.2062
C4 C 1.4468(3) 0.22474(17) 1.2139(2)
H3 H 1.4525 0.2217 1.2940
C5 C 1.3413(3) 0.18542(15) 1.1483(2)
H4 H 1.2763 0.1568 1.1854
C6 C 1.3299(3) 0.18761(13) 1.0275(2)
C7 C 1.2196(3) 0.14751(14) 0.9540(2)
H5 H 1.2483 0.1287 0.8851
C8 C 1.0832(3) 0.13414(13) 0.97205(19)
C9 C 1.0120(3) 0.15742(17) 1.0778(2)
H6 H 1.0556 0.2040 1.1076
H7 H 1.0306 0.1188 1.1365
C10 C 0.8515(3) 0.16954(18) 1.0583(2)
H8 H 0.8131 0.1741 1.1326
H9 H 0.8332 0.2168 1.0170
C11 C 0.7744(3) 0.10597(17) 0.9907(2)
H10 H 0.7913 0.0582 1.0307
H11 H 0.6727 0.1156 0.9824
C12 C 0.8315(3) 0.10274(14) 0.8730(2)
H12 H 0.8091 0.1510 0.8340
C13 C 0.9906(2) 0.09352(14) 0.8843(2)
C14 C 0.7831(2) 0.03876(14) 0.7890(2)
H13 H 0.7482 -0.0042 0.8316
C15 C 0.6708(2) 0.06328(14) 0.6956(2)
C16 C 0.7079(3) 0.10746(16) 0.6037(2)
H14 H 0.8028 0.1212 0.6006
C17 C 0.6082(3) 0.13158(18) 0.5171(3)
H15 H 0.6363 0.1609 0.4568
C18 C 0.4683(4) 0.11234(18) 0.5202(3)
H16 H 0.4013 0.1276 0.4612
C19 C 0.4273(3) 0.07070(18) 0.6100(3)
H17 H 0.3317 0.0583 0.6127
C20 C 0.5280(3) 0.04638(16) 0.6982(3)
C21 C 0.9352(3) -0.03938(14) 0.6686(2)
C22 C 1.0828(3) -0.05403(17) 0.6354(2)
H18 H 1.0823 -0.0984 0.5878
H19 H 1.1461 -0.0617 0.7038
H20 H 1.1144 -0.0114 0.5934
loop_
_geom_bond_atom_site_label_1
_geom_bond_atom_site_label_2
_geom_bond_site_symmetry_1
_geom_bond_site_symmetry_2
Cl1 C1 1_555 1_555
Cl2 C20 1_555 1_555
O1 C21 1_555 1_555
N1 N2 1_555 1_555
N2 C14 1_555 1_555
C1 C2 1_555 1_555
C2 H1 1_555 1_555
C3 C2 1_555 1_555
H2 C3 1_555 1_555
C4 C3 1_555 1_555
H3 C4 1_555 1_555
C5 C4 1_555 1_555
H4 C5 1_555 1_555
C6 C1 1_555 1_555
C7 C6 1_555 1_555
H5 C7 1_555 1_555
C8 C7 1_555 1_555
C9 C8 1_555 1_555
H6 C9 1_555 1_555
H7 C9 1_555 1_555
C10 C9 1_555 1_555
H8 C10 1_555 1_555
H9 C10 1_555 1_555
C11 C10 1_555 1_555
H10 C11 1_555 1_555
H11 C11 1_555 1_555
C12 C11 1_555 1_555
H12 C12 1_555 1_555
C13 N1 1_555 1_555
C14 C12 1_555 1_555
H13 C14 1_555 1_555
C15 C14 1_555 1_555
C16 C15 1_555 1_555
H14 C16 1_555 1_555
C17 C16 1_555 1_555
H15 C17 1_555 1_555
C18 C17 1_555 1_555
H16 C18 1_555 1_555
C19 C18 1_555 1_555
H17 C19 1_555 1_555
C20 C15 1_555 1_555
C21 N2 1_555 1_555
C22 C21 1_555 1_555
H18 C22 1_555 1_555
H19 C22 1_555 1_555
H20 C22 1_555 1_555
C5 C6 1_555 1_555
C8 C13 1_555 1_555
C12 C13 1_555 1_555
C19 C20 1_555 1_555

#END
