
#######################################################################
#
#                 Cambridge Crystallographic Data Centre
#                                CCDC 
#
#######################################################################
#
# If this CIF has been generated from an entry in the Cambridge 
# Structural Database, then it will include bibliographic, chemical, 
# crystal, experimental, refinement or atomic coordinate data resulting 
# from the CCDC's data processing and validation procedures.
#
#######################################################################

data_LUDHEX
_chemical_formula_moiety         'C5 H12 N1 O2 S1 1+,N1 O3 1-'
_chemical_name_systematic        'L-Methioninium nitrate'
_symmetry_cell_setting           monoclinic
_symmetry_space_group_name_H-M   'P 21'
_symmetry_Int_Tables_number      4
_space_group_name_Hall           'P 2yb'
loop_
_symmetry_equiv_pos_site_id
_symmetry_equiv_pos_as_xyz
1 x,y,z
2 -x,1/2+y,-z
_cell_length_a                   10.682(2)
_cell_length_b                   5.577(2)
_cell_length_c                   16.829(6)
_cell_angle_alpha                90
_cell_angle_beta                 100.92(2)
_cell_angle_gamma                90
_cell_volume                     984.409
_exptl_crystal_colour            colorless
_exptl_crystal_description       plate
_cell_formula_units_Z            4
_exptl_crystal_recrystallization_method water
loop_
_atom_site_label
_atom_site_type_symbol
_atom_site_fract_x
_atom_site_fract_y
_atom_site_fract_z
O1 O 0.5810(3) 1.2559(6) 0.53643(15)
O2 O 0.6904(3) 0.9524(7) 0.60230(15)
H1 H 0.6670 1.0097 0.6419
C1 C 0.6449(3) 1.0795(8) 0.5387(2)
C2 C 0.6870(3) 0.9731(7) 0.46482(19)
H2 H 0.6902 0.7981 0.4701
N1 N 0.5911(3) 1.0382(7) 0.39152(15)
H3 H 0.6150 0.9778 0.3477
H4 H 0.5857 1.1971 0.3872
H5 H 0.5154 0.9784 0.3959
C3 C 0.8199(3) 1.0654(9) 0.4587(2)
H6 H 0.8135 1.2329 0.4429
H7 H 0.8746 1.0554 0.5116
C4 C 0.8805(4) 0.9273(11) 0.3986(2)
H8 H 0.8269 0.9413 0.3454
H9 H 0.8843 0.7591 0.4134
S1 S 1.03928(10) 1.0289(3) 0.39295(7)
C5 C 1.0035(5) 1.2657(14) 0.3219(3)
H10 H 1.0814 1.3383 0.3133
H11 H 0.9523 1.3837 0.3423
H12 H 0.9576 1.2033 0.2716
O3 O 0.4231(3) 1.0436(6) -0.03275(15)
O4 O 0.3167(3) 0.7424(7) -0.10198(14)
H13 H 0.3436 0.8012 -0.1401
C6 C 0.3596(3) 0.8652(7) -0.0363(2)
C7 C 0.3123(3) 0.7623(8) 0.03592(18)
H14 H 0.3027 0.5882 0.0295
N2 N 0.4065(2) 0.8155(6) 0.11038(15)
H15 H 0.3791 0.7557 0.1531
H16 H 0.4159 0.9736 0.1160
H17 H 0.4811 0.7493 0.1068
C8 C 0.1827(3) 0.8742(8) 0.0397(2)
H18 H 0.1942 1.0446 0.0503
H19 H 0.1270 0.8559 -0.0126
C9 C 0.1185(3) 0.7650(10) 0.1038(2)
H20 H 0.1712 0.7882 0.1569
H21 H 0.1069 0.5942 0.0945
S2 S -0.03419(9) 0.9082(3) 0.09937(7)
C10 C -0.0943(4) 0.7376(14) 0.1735(3)
H22 H -0.1773 0.7957 0.1778
H23 H -0.0377 0.7532 0.2248
H24 H -0.1001 0.5719 0.1577
N3 N 0.6375(3) 0.5370(7) 0.28285(16)
O5 O 0.6309(3) 0.7303(6) 0.24700(18)
O6 O 0.6528(3) 0.3424(6) 0.24891(18)
O7 O 0.6275(3) 0.5308(6) 0.35584(14)
N4 N 0.3600(3) 0.3182(7) 0.21876(17)
O8 O 0.3602(4) 0.1367(7) 0.2596(2)
O9 O 0.3723(3) 0.3060(6) 0.14652(14)
O10 O 0.3505(3) 0.5230(6) 0.24819(15)
loop_
_geom_bond_atom_site_label_1
_geom_bond_atom_site_label_2
_geom_bond_site_symmetry_1
_geom_bond_site_symmetry_2
O1 C1 1_555 1_555
O2 H1 1_555 1_555
C1 O2 1_555 1_555
C2 C1 1_555 1_555
H2 C2 1_555 1_555
N1 C2 1_555 1_555
H3 N1 1_555 1_555
H4 N1 1_555 1_555
H5 N1 1_555 1_555
C3 C2 1_555 1_555
H6 C3 1_555 1_555
H7 C3 1_555 1_555
C4 C3 1_555 1_555
H8 C4 1_555 1_555
H9 C4 1_555 1_555
S1 C4 1_555 1_555
C5 S1 1_555 1_555
H10 C5 1_555 1_555
H11 C5 1_555 1_555
H12 C5 1_555 1_555
O3 C6 1_555 1_555
O4 H13 1_555 1_555
C6 O4 1_555 1_555
C7 C6 1_555 1_555
H14 C7 1_555 1_555
N2 C7 1_555 1_555
H15 N2 1_555 1_555
H16 N2 1_555 1_555
H17 N2 1_555 1_555
C8 C7 1_555 1_555
H18 C8 1_555 1_555
H19 C8 1_555 1_555
C9 C8 1_555 1_555
H20 C9 1_555 1_555
H21 C9 1_555 1_555
S2 C9 1_555 1_555
C10 S2 1_555 1_555
H22 C10 1_555 1_555
H23 C10 1_555 1_555
H24 C10 1_555 1_555
N3 O5 1_555 1_555
O6 N3 1_555 1_555
O7 N3 1_555 1_555
N4 O8 1_555 1_555
O9 N4 1_555 1_555
O10 N4 1_555 1_555

#END
