
#######################################################################
#
#                 Cambridge Crystallographic Data Centre
#                                CCDC 
#
#######################################################################
#
# If this CIF has been generated from an entry in the Cambridge 
# Structural Database, then it will include bibliographic, chemical, 
# crystal, experimental, refinement or atomic coordinate data resulting 
# from the CCDC's data processing and validation procedures.
#
#######################################################################

data_LUDJAW
_chemical_formula_moiety         'C48 H40 Cl2 N2 O4,C1 H4 O1'
_chemical_name_systematic        
"5,6-Dichloro-2,9-bis(2,6-diisopropylphenyl)isoquino[4',5',6':6,5,10]anthra[2,1,9-def]isoquinoline-1,3,8,10(2H,9H)-tetrone methanol"
_symmetry_cell_setting           monoclinic
_symmetry_space_group_name_H-M   'P 21/n'
_symmetry_Int_Tables_number      14
_space_group_name_Hall           '-P 2yn'
loop_
_symmetry_equiv_pos_site_id
_symmetry_equiv_pos_as_xyz
1 x,y,z
2 1/2-x,1/2+y,1/2-z
3 -x,-y,-z
4 1/2+x,1/2-y,1/2+z
_cell_length_a                   8.5797(17)
_cell_length_b                   33.294(7)
_cell_length_c                   15.726(3)
_cell_angle_alpha                90
_cell_angle_beta                 103.60(3)
_cell_angle_gamma                90
_cell_volume                     4366.22
_exptl_crystal_colour            orange
_exptl_crystal_description       plate
_cell_formula_units_Z            4
loop_
_atom_site_label
_atom_site_type_symbol
_atom_site_fract_x
_atom_site_fract_y
_atom_site_fract_z
Cl1 Cl 0.29540(11) 0.12664(2) 0.83163(5)
Cl2 Cl 0.52343(10) 0.05798(2) 0.91063(5)
O1 O 0.5601(3) 0.21085(6) 0.62027(15)
O2 O 0.6246(3) 0.12923(6) 0.39858(15)
O3 O -0.0825(3) -0.10986(6) 0.66992(14)
O4 O 0.1654(3) -0.06563(6) 0.94258(14)
N1 N 0.5863(3) 0.17062(7) 0.50739(15)
N2 N 0.0429(3) -0.08811(7) 0.80645(15)
C1 C -0.2327(19) -0.0430(6) 0.9230(11)
H2 H -0.2932 -0.0184 0.9033
H3 H -0.1179 -0.0367 0.9403
H4 H -0.2675 -0.0542 0.9731
C2 C 1.023(3) 0.2030(5) 0.6398(12)
H5 H 1.0804 0.1841 0.6838
H6 H 0.9470 0.2186 0.6644
H7 H 1.0998 0.2213 0.6227
C3 C 0.3389(5) 0.19901(13) 0.2974(3)
H8 H 0.4048 0.1746 0.3045
H9 H 0.3609 0.2152 0.2496
H10 H 0.2252 0.1916 0.2839
C4 C 0.3368(5) -0.18035(14) 0.9102(3)
H11 H 0.3580 -0.1600 0.9564
H12 H 0.4352 -0.1856 0.8906
H13 H 0.3007 -0.2052 0.9330
C5 C -0.4386(5) -0.07922(14) 0.8017(3)
H14 H -0.4462 -0.0959 0.7496
H15 H -0.4871 -0.0529 0.7844
H16 H -0.4954 -0.0924 0.8414
C6 C 0.1803(6) -0.19426(14) 0.7564(3)
H17 H 0.0985 -0.1834 0.7076
H18 H 0.1442 -0.2202 0.7741
H19 H 0.2810 -0.1979 0.7382
C7 C 0.2819(5) 0.26229(13) 0.3705(3)
H20 H 0.3145 0.2787 0.4233
H21 H 0.1675 0.2559 0.3604
H22 H 0.3014 0.2772 0.3202
C8 C -0.2631(4) -0.07371(11) 0.8481(3)
H23 H -0.2071 -0.0549 0.8155
C9 C 1.0633(5) 0.16178(13) 0.5215(3)
H24 H 1.1183 0.1406 0.5605
H25 H 1.1404 0.1828 0.5160
H26 H 1.0164 0.1504 0.4637
C10 C 0.3792(4) 0.22331(11) 0.3821(2)
H27 H 0.3456 0.2071 0.4283
C11 C -0.2377(4) -0.14458(11) 0.9085(2)
H28 H -0.3346 -0.1404 0.9265
C12 C 0.2067(4) -0.16523(9) 0.8333(2)
H29 H 0.2441 -0.1391 0.8136
C13 C 0.9312(4) 0.17983(10) 0.5592(2)
H30 H 0.8598 0.1566 0.5640
C14 C -0.0203(4) -0.18780(10) 0.8984(2)
H31 H 0.0295 -0.2134 0.9080
C15 C -0.1743(4) -0.11339(10) 0.8679(2)
C16 C 0.8250(4) 0.20827(9) 0.49467(19)
C17 C 0.5589(4) 0.22978(9) 0.41137(19)
C18 C 0.6328(4) 0.26120(9) 0.3774(2)
H32 H 0.5693 0.2795 0.3374
C19 C 0.0515(4) -0.15739(8) 0.86001(19)
C20 C 0.3631(4) 0.03611(9) 0.4849(2)
H33 H 0.3266 0.0132 0.4496
C21 C 0.5716(4) 0.13364(8) 0.46309(19)
C22 C 0.8922(4) 0.24017(9) 0.4590(2)
H34 H 1.0050 0.2441 0.4749
C23 C 0.6589(4) 0.20388(8) 0.46983(18)
C24 C 0.4444(4) 0.06641(9) 0.4520(2)
H35 H 0.4697 0.0631 0.3968
C25 C 0.4816(3) 0.14282(8) 0.62692(19)
C26 C -0.1626(4) -0.18124(11) 0.9228(2)
H36 H -0.2090 -0.2022 0.9496
C27 C 0.3341(3) 0.03859(8) 0.56798(18)
C28 C 0.3284(3) 0.04001(8) 0.74978(18)
C29 C 0.3670(3) 0.07669(8) 0.70777(18)
C30 C 0.4885(3) 0.10122(8) 0.49896(19)
C31 C 0.0806(4) -0.05278(8) 0.58766(19)
H37 H 0.0189 -0.0724 0.5507
C32 C 0.7976(4) 0.26606(9) 0.4010(2)
H38 H 0.8459 0.2876 0.3769
C33 C -0.0291(3) -0.12066(8) 0.84591(18)
C34 C 0.1389(3) -0.06105(8) 0.86326(19)
C35 C 0.4358(4) 0.14790(8) 0.70408(19)
H39 H 0.4448 0.1736 0.7312
C36 C 0.3757(4) 0.11530(8) 0.74321(18)
C37 C 0.3073(3) -0.00078(9) 0.87615(18)
H40 H 0.3338 -0.0045 0.9378
C38 C 0.5443(4) 0.17772(8) 0.58715(19)
C39 C 0.1610(4) -0.02297(8) 0.5516(2)
H41 H 0.1589 -0.0237 0.4910
C40 C 0.0904(3) -0.05374(8) 0.67651(19)
C41 C 0.1789(3) -0.02405(8) 0.73151(18)
C42 C 0.3713(4) 0.03187(9) 0.83919(19)
C43 C 0.4542(3) 0.10567(8) 0.58209(18)
C44 C 0.2063(3) -0.02721(8) 0.82312(18)
C45 C 0.0090(3) -0.08601(8) 0.71416(19)
C46 C 0.3878(3) 0.07333(8) 0.62012(18)
C47 C 0.2478(3) 0.00852(8) 0.69451(18)
C48 C 0.2439(3) 0.00769(8) 0.60346(18)
O5 O 0.0825(5) -0.08768(15) 1.1013(3)
H1 H 0.1002 -0.0865 1.0510
C49 C 0.1291(7) -0.12754(17) 1.1164(3)
H42 H 0.2342 -0.1315 1.1033
H43 H 0.0501 -0.1450 1.0787
H44 H 0.1358 -0.1342 1.1778
C50? C -0.272(3) -0.0564(9) 0.9380(8)
C51? C 0.979(3) 0.1969(7) 0.6511(7)
H45? H -0.3268 -0.0304 0.9297
H46? H -0.1634 -0.0530 0.9745
H47? H -0.3320 -0.0750 0.9669
H48? H 1.0439 0.1773 0.6903
H49? H 0.8819 0.2030 0.6717
H50? H 1.0407 0.2216 0.6507
loop_
_geom_bond_atom_site_label_1
_geom_bond_atom_site_label_2
_geom_bond_site_symmetry_1
_geom_bond_site_symmetry_2
Cl1 C36 1_555 1_555
Cl2 C42 1_555 1_555
O1 C38 1_555 1_555
O2 C21 1_555 1_555
O3 C45 1_555 1_555
O4 C34 1_555 1_555
O5 H1 1_555 1_555
N1 C21 1_555 1_555
N2 C33 1_555 1_555
C1 H2 1_555 1_555
H3 C1 1_555 1_555
H4 C1 1_555 1_555
C2 H5 1_555 1_555
H6 C2 1_555 1_555
H7 C2 1_555 1_555
C3 H8 1_555 1_555
H9 C3 1_555 1_555
H10 C3 1_555 1_555
C4 H11 1_555 1_555
H12 C4 1_555 1_555
H13 C4 1_555 1_555
C5 H14 1_555 1_555
H15 C5 1_555 1_555
H16 C5 1_555 1_555
C6 H17 1_555 1_555
H18 C6 1_555 1_555
H19 C6 1_555 1_555
C7 H20 1_555 1_555
H21 C7 1_555 1_555
H22 C7 1_555 1_555
C8 C1 1_555 1_555
H23 C8 1_555 1_555
C9 H24 1_555 1_555
H25 C9 1_555 1_555
H26 C9 1_555 1_555
C10 C3 1_555 1_555
H27 C10 1_555 1_555
C11 H28 1_555 1_555
C12 C4 1_555 1_555
H29 C12 1_555 1_555
C13 C2 1_555 1_555
H30 C13 1_555 1_555
C14 H31 1_555 1_555
C15 C8 1_555 1_555
C16 C13 1_555 1_555
C17 C10 1_555 1_555
C18 C17 1_555 1_555
H32 C18 1_555 1_555
C19 C12 1_555 1_555
C20 H33 1_555 1_555
C21 C30 1_555 1_555
C22 C16 1_555 1_555
H34 C22 1_555 1_555
C23 N1 1_555 1_555
C24 C20 1_555 1_555
H35 C24 1_555 1_555
C25 C35 1_555 1_555
C26 C11 1_555 1_555
H36 C26 1_555 1_555
C27 C20 1_555 1_555
C28 C29 1_555 1_555
C29 C36 1_555 1_555
C30 C24 1_555 1_555
C31 H37 1_555 1_555
C32 C18 1_555 1_555
H38 C32 1_555 1_555
C33 C15 1_555 1_555
C34 N2 1_555 1_555
C35 H39 1_555 1_555
C36 C35 1_555 1_555
C37 H40 1_555 1_555
C38 N1 1_555 1_555
C39 C31 1_555 1_555
H41 C39 1_555 1_555
C40 C31 1_555 1_555
C41 C40 1_555 1_555
C42 C28 1_555 1_555
C43 C25 1_555 1_555
C44 C34 1_555 1_555
C45 N2 1_555 1_555
C46 C27 1_555 1_555
C47 C28 1_555 1_555
C48 C27 1_555 1_555
C49 O5 1_555 1_555
H42 C49 1_555 1_555
H43 C49 1_555 1_555
H44 C49 1_555 1_555
C5 C8 1_555 1_555
C6 C12 1_555 1_555
C7 C10 1_555 1_555
C9 C13 1_555 1_555
C11 C15 1_555 1_555
C14 C19 1_555 1_555
C14 C26 1_555 1_555
C16 C23 1_555 1_555
C17 C23 1_555 1_555
C19 C33 1_555 1_555
C22 C32 1_555 1_555
C25 C38 1_555 1_555
C29 C46 1_555 1_555
C30 C43 1_555 1_555
C37 C42 1_555 1_555
C37 C44 1_555 1_555
C39 C48 1_555 1_555
C40 C45 1_555 1_555
C41 C44 1_555 1_555
C41 C47 1_555 1_555
C43 C46 1_555 1_555
C47 C48 1_555 1_555

#END
