
#######################################################################
#
#                 Cambridge Crystallographic Data Centre
#                                CCDC 
#
#######################################################################
#
# If this CIF has been generated from an entry in the Cambridge 
# Structural Database, then it will include bibliographic, chemical, 
# crystal, experimental, refinement or atomic coordinate data resulting 
# from the CCDC's data processing and validation procedures.
#
#######################################################################

data_LUDKEC
_chemical_formula_moiety         'C10 H16 N4 O3'
_chemical_name_systematic        
'isobutyl 3-(4-amino-2-oxo-1,3,5-triazin-1(2H)-yl)propanoate'
_symmetry_cell_setting           triclinic
_symmetry_space_group_name_H-M   'P -1'
_symmetry_Int_Tables_number      2
_space_group_name_Hall           '-P 1'
loop_
_symmetry_equiv_pos_site_id
_symmetry_equiv_pos_as_xyz
1 x,y,z
2 -x,-y,-z
_cell_length_a                   5.7929(8)
_cell_length_b                   7.3484(10)
_cell_length_c                   14.222(2)
_cell_angle_alpha                98.649(3)
_cell_angle_beta                 91.512(3)
_cell_angle_gamma                102.139(3)
_cell_volume                     584.088
_exptl_crystal_colour            colorless
_exptl_crystal_description       Block
_cell_formula_units_Z            2
loop_
_atom_site_label
_atom_site_type_symbol
_atom_site_fract_x
_atom_site_fract_y
_atom_site_fract_z
O1 O 1.21982(18) 1.00088(14) 0.41875(7)
O2 O 0.5559(2) 0.94412(17) 0.16235(8)
O3 O 0.79464(19) 0.77986(16) 0.08348(7)
N1 N 0.9127(2) 1.11451(16) 0.36406(8)
N2 N 1.2696(2) 1.31878(16) 0.43051(8)
N3 N 0.9539(2) 1.43941(17) 0.36428(8)
N4 N 1.3008(2) 1.63458(16) 0.43317(9)
H1 H 1.4393 1.6543 0.4611
H2 H 1.2444 1.7281 0.4206
C1 C 1.1439(2) 1.14039(19) 0.40611(9)
C2 C 1.1743(2) 1.45986(19) 0.40945(9)
C3 C 0.8338(2) 1.2671(2) 0.34660(10)
H3 H 0.6807 1.2468 0.3197
C4 C 0.7647(3) 0.9224(2) 0.34254(10)
H4 H 0.5997 0.9298 0.3377
H5 H 0.7859 0.8547 0.3945
C5 C 0.8253(3) 0.8135(2) 0.25018(10)
H6 H 0.9954 0.8434 0.2455
H7 H 0.7775 0.6796 0.2522
C6 C 0.7085(3) 0.85617(19) 0.16264(10)
C7 C 0.6907(3) 0.7996(2) -0.00794(10)
H8 H 0.7591 0.9222 -0.0243
H9 H 0.5213 0.7881 -0.0047
C8 C 0.7421(2) 0.6449(2) -0.08201(10)
H10 H 0.6719 0.5233 -0.0632
C9 C 0.6260(3) 0.6535(2) -0.17815(10)
H11 H 0.4593 0.6439 -0.1724
H12 H 0.6513 0.5510 -0.2243
H13 H 0.6943 0.7710 -0.1983
C10 C 1.0070(3) 0.6575(2) -0.08899(11)
H14 H 1.0767 0.7700 -0.1134
H15 H 1.0326 0.5494 -0.1310
H16 H 1.0785 0.6609 -0.0269
loop_
_geom_bond_atom_site_label_1
_geom_bond_atom_site_label_2
_geom_bond_site_symmetry_1
_geom_bond_site_symmetry_2
O1 C1 1_555 1_555
O2 C6 1_555 1_555
O3 C6 1_555 1_555
N1 C1 1_555 1_555
N2 C1 1_555 1_555
N3 C2 1_555 1_555
N4 H1 1_555 1_555
H2 N4 1_555 1_555
C2 N2 1_555 1_555
C3 N1 1_555 1_555
H3 C3 1_555 1_555
C4 N1 1_555 1_555
H4 C4 1_555 1_555
H5 C4 1_555 1_555
C5 C4 1_555 1_555
H6 C5 1_555 1_555
H7 C5 1_555 1_555
C6 C5 1_555 1_555
C7 O3 1_555 1_555
H8 C7 1_555 1_555
H9 C7 1_555 1_555
C8 C7 1_555 1_555
H10 C8 1_555 1_555
C9 C8 1_555 1_555
H11 C9 1_555 1_555
H12 C9 1_555 1_555
H13 C9 1_555 1_555
C10 C8 1_555 1_555
H14 C10 1_555 1_555
H15 C10 1_555 1_555
H16 C10 1_555 1_555
N3 C3 1_555 1_555
N4 C2 1_555 1_555

#END
