
#######################################################################
#
#                 Cambridge Crystallographic Data Centre
#                                CCDC 
#
#######################################################################
#
# If this CIF has been generated from an entry in the Cambridge 
# Structural Database, then it will include bibliographic, chemical, 
# crystal, experimental, refinement or atomic coordinate data resulting 
# from the CCDC's data processing and validation procedures.
#
#######################################################################

data_LUDKAW
_chemical_formula_moiety         '2(C1 H6 N3 1+),C10 H4 O8 2-'
_chemical_name_systematic        'bis(Guanidinium) pyromellitate'
_symmetry_cell_setting           monoclinic
_symmetry_space_group_name_H-M   'P 21/n'
_symmetry_Int_Tables_number      14
_space_group_name_Hall           '-P 2yn'
loop_
_symmetry_equiv_pos_site_id
_symmetry_equiv_pos_as_xyz
1 x,y,z
2 1/2+x,1/2-y,1/2+z
3 -x,-y,-z
4 1/2-x,1/2+y,1/2-z
_cell_length_a                   3.7949(2)
_cell_length_b                   20.1494(9)
_cell_length_c                   10.39030(10)
_cell_angle_alpha                90
_cell_angle_beta                 100.501(3)
_cell_angle_gamma                90
_cell_volume                     781.187
_exptl_crystal_colour            colorless
_exptl_crystal_description       column
_cell_formula_units_Z            2
loop_
_atom_site_label
_atom_site_type_symbol
_atom_site_fract_x
_atom_site_fract_y
_atom_site_fract_z
O1 O -0.5083(7) 0.31950(9) -0.1084(2)
O2 O -0.1462(7) 0.33475(9) 0.0773(2)
O3 O -1.0721(6) 0.48194(9) -0.31938(19)
O4 O -0.9025(7) 0.38081(10) -0.2694(2)
C1 C -0.3648(8) 0.35664(12) -0.0135(2)
C2 C -0.4587(7) 0.43044(12) -0.0153(2)
C3 C -0.2947(7) 0.46460(12) 0.0956(2)
C4 C -0.6750(7) 0.46732(11) -0.1159(2)
C5 C -0.8966(7) 0.44294(13) -0.2438(2)
H1 H -0.138(7) 0.4393(13) 0.165(3)
H8 H -0.699(10) 0.3491(18) -0.192(4)
C4B C -0.3250(7) 0.53268(11) 0.1159(2)
C2B C -0.5413(7) 0.56956(12) 0.0153(2)
C1B C -0.6352(8) 0.64336(12) 0.0135(2)
O1B O -0.4917(7) 0.68050(9) 0.1084(2)
H8B H -0.301(10) 0.6509(18) 0.192(4)
O2B O -0.8538(7) 0.66525(9) -0.0773(2)
C3B C -0.7053(7) 0.53540(12) -0.0956(2)
H1B H -0.862(7) 0.5607(13) -0.165(3)
C5B C -0.1034(7) 0.55706(13) 0.2438(2)
O3B O 0.0721(6) 0.51806(9) 0.31938(19)
O4B O -0.0975(7) 0.61919(10) 0.2694(2)
C6 C 0.5571(8) 0.65754(13) 0.5549(2)
N1 N 0.4783(8) 0.59360(12) 0.5571(3)
N2 N 0.4135(8) 0.69461(13) 0.4543(2)
N3 N 0.7720(8) 0.68548(13) 0.6546(3)
H2 H 0.255(9) 0.6772(15) 0.389(3)
H3 H 0.473(9) 0.7340(19) 0.455(3)
H4 H 0.329(8) 0.5770(15) 0.487(3)
H5 H 0.867(9) 0.6630(17) 0.723(4)
H6 H 0.850(9) 0.7266(18) 0.643(3)
H7 H 0.619(10) 0.5681(18) 0.617(4)
loop_
_geom_bond_atom_site_label_1
_geom_bond_atom_site_label_2
_geom_bond_site_symmetry_1
_geom_bond_site_symmetry_2
O1 C1 1_555 1_555
O2 C1 1_555 1_555
O3 C5 1_555 1_555
O4 C5 1_555 1_555
C1 C2 1_555 1_555
C2 C3 1_555 1_555
C3 H1 1_555 1_555
C4 C2 1_555 1_555
C5 C4 1_555 1_555
C6 N1 1_555 1_555
N1 H4 1_555 1_555
N2 C6 1_555 1_555
N3 C6 1_555 1_555
H2 N2 1_555 1_555
H3 N2 1_555 1_555
H5 N3 1_555 1_555
H6 N3 1_555 1_555
H7 N1 1_555 1_555
H8 O1 1_555 1_555
C4B C3 1_555 1_555
C2B C4B 1_555 1_555
C1B C2B 1_555 1_555
O1B C1B 1_555 1_555
H8B O1B 1_555 1_555
O2B C1B 1_555 1_555
C3B C4 1_555 1_555
H1B C3B 1_555 1_555
C5B C4B 1_555 1_555
O3B C5B 1_555 1_555
O4B C5B 1_555 1_555
C2B C3B 1_555 1_555

#END
