
#######################################################################
#
#                 Cambridge Crystallographic Data Centre
#                                CCDC 
#
#######################################################################
#
# If this CIF has been generated from an entry in the Cambridge 
# Structural Database, then it will include bibliographic, chemical, 
# crystal, experimental, refinement or atomic coordinate data resulting 
# from the CCDC's data processing and validation procedures.
#
#######################################################################

data_LUDSAG
_chemical_formula_moiety         'C14 H13 N3 O5 S1,H2 O1'
_chemical_name_systematic        
"N'-(2-hydroxy-5-nitrobenzylidene)-4-methylbenzenesulfonohydrazide monohydrate"
_symmetry_cell_setting           triclinic
_symmetry_space_group_name_H-M   'P -1'
_symmetry_Int_Tables_number      2
_space_group_name_Hall           '-P 1'
loop_
_symmetry_equiv_pos_site_id
_symmetry_equiv_pos_as_xyz
1 x,y,z
2 -x,-y,-z
_cell_length_a                   6.2417(9)
_cell_length_b                   9.8872(15)
_cell_length_c                   14.035(2)
_cell_angle_alpha                76.204(2)
_cell_angle_beta                 85.349(2)
_cell_angle_gamma                80.807(2)
_cell_volume                     829.514
_exptl_crystal_colour            red
_exptl_crystal_description       block
_cell_formula_units_Z            2
loop_
_atom_site_label
_atom_site_type_symbol
_atom_site_fract_x
_atom_site_fract_y
_atom_site_fract_z
C1 C 0.1207(3) 0.9414(2) 0.35231(15)
C2 C -0.0825(4) 0.9914(2) 0.30947(16)
C3 C -0.1916(4) 1.1224(2) 0.31710(18)
H1 H -0.3256 1.1547 0.2890
C4 C -0.1054(4) 1.2048(2) 0.36523(17)
H2 H -0.1804 1.2921 0.3706
C5 C 0.0951(3) 1.1563(2) 0.40582(15)
C6 C 0.2077(3) 1.0264(2) 0.40011(15)
H3 H 0.3419 0.9958 0.4283
C7 C 0.2418(3) 0.8035(2) 0.34966(15)
H4 H 0.3706 0.7731 0.3824
C8 C 0.3856(3) 0.6168(2) 0.11445(16)
C9 C 0.2639(4) 0.7359(3) 0.06035(19)
H5 H 0.1177 0.7593 0.0770
C10 C 0.3630(5) 0.8191(3) -0.0186(2)
H6 H 0.2818 0.8991 -0.0550
C11 C 0.5791(5) 0.7866(3) -0.04477(19)
C12 C 0.6943(4) 0.6658(3) 0.0095(2)
H7 H 0.8396 0.6413 -0.0081
C13 C 0.6013(4) 0.5803(3) 0.08913(18)
H8 H 0.6824 0.4997 0.1249
C14 C 0.6861(6) 0.8787(4) -0.1306(2)
H9 H 0.8295 0.8863 -0.1143
H10 H 0.6017 0.9706 -0.1456
H11 H 0.6955 0.8379 -0.1867
N1 N 0.1737(3) 0.72380(17) 0.30307(13)
N2 N 0.2924(3) 0.59000(17) 0.31090(13)
H12 H 0.4462 0.5870 0.3210
N3 N 0.1892(3) 1.24075(19) 0.45892(13)
O1 O 0.3730(3) 1.20147(18) 0.48745(14)
O2 O 0.0787(3) 1.34892(17) 0.47352(13)
O3 O -0.1764(3) 0.91588(17) 0.26114(15)
H13 H -0.0973 0.8413 0.2608
O4 O 0.0421(2) 0.52625(17) 0.20686(12)
O5 O 0.3990(3) 0.38140(15) 0.24680(12)
S1 S 0.26897(9) 0.51571(6) 0.22011(4)
O6 O 0.7171(3) 0.5745(2) 0.36139(15)
H14 H 0.7651 0.5793 0.4186
H15 H 0.8546 0.5583 0.3174
loop_
_geom_bond_atom_site_label_1
_geom_bond_atom_site_label_2
_geom_bond_site_symmetry_1
_geom_bond_site_symmetry_2
C1 C2 1_555 1_555
C2 C3 1_555 1_555
C3 H1 1_555 1_555
C4 C3 1_555 1_555
H2 C4 1_555 1_555
C5 C4 1_555 1_555
C6 C1 1_555 1_555
H3 C6 1_555 1_555
C7 C1 1_555 1_555
H4 C7 1_555 1_555
C8 C9 1_555 1_555
C9 H5 1_555 1_555
C10 C9 1_555 1_555
H6 C10 1_555 1_555
C11 C10 1_555 1_555
C12 C11 1_555 1_555
H7 C12 1_555 1_555
C13 C8 1_555 1_555
H8 C13 1_555 1_555
C14 C11 1_555 1_555
H9 C14 1_555 1_555
H10 C14 1_555 1_555
H11 C14 1_555 1_555
N1 C7 1_555 1_555
N2 N1 1_555 1_555
H12 N2 1_555 1_555
N3 C5 1_555 1_555
O1 N3 1_555 1_555
O2 N3 1_555 1_555
O3 C2 1_555 1_555
H13 O3 1_555 1_555
O4 S1 1_555 1_555
O5 S1 1_555 1_555
S1 C8 1_555 1_555
O6 H14 1_555 1_555
H15 O6 1_555 1_555
C5 C6 1_555 1_555
C12 C13 1_555 1_555
N2 S1 1_555 1_555

#END
