
#######################################################################
#
#                 Cambridge Crystallographic Data Centre
#                                CCDC 
#
#######################################################################
#
# If this CIF has been generated from an entry in the Cambridge 
# Structural Database, then it will include bibliographic, chemical, 
# crystal, experimental, refinement or atomic coordinate data resulting 
# from the CCDC's data processing and validation procedures.
#
#######################################################################

data_LUFLOO
_chemical_formula_moiety         'C11 H13 F3 O5'
_chemical_name_systematic        
'Methyl 6-hydroxy-4-methoxy-3-methyl-2-oxo-6-(trifluoromethyl)cyclohex-3-ene-1-carboxylate'
_symmetry_cell_setting           monoclinic
_symmetry_space_group_name_H-M   'C 2/c'
_symmetry_Int_Tables_number      15
_space_group_name_Hall           '-C 2yn'
loop_
_symmetry_equiv_pos_site_id
_symmetry_equiv_pos_as_xyz
1 x,y,z
2 -x,y,1/2-z
3 1/2+x,1/2+y,z
4 1/2-x,1/2+y,1/2-z
5 -x,-y,-z
6 x,-y,1/2+z
7 1/2-x,1/2-y,-z
8 1/2+x,1/2-y,1/2+z
_cell_length_a                   16.8907(13)
_cell_length_b                   9.8633(6)
_cell_length_c                   14.5585(11)
_cell_angle_alpha                90
_cell_angle_beta                 98.844(6)
_cell_angle_gamma                90
_cell_volume                     2396.58
_exptl_crystal_colour            colorless
_exptl_crystal_description       prism
_chemical_melting_point          123-126deg.C
_cell_formula_units_Z            8
loop_
_atom_site_label
_atom_site_type_symbol
_atom_site_fract_x
_atom_site_fract_y
_atom_site_fract_z
C1 C 0.30078(7) 0.88580(11) 0.12848(8)
H1 H 0.3285 0.8225 0.0902
C2 C 0.21461(8) 0.83482(12) 0.12730(8)
C3 C 0.15305(7) 0.87721(12) 0.05325(8)
C4 C 0.17281(7) 0.95896(11) -0.01441(8)
C5 C 0.25340(7) 1.02363(12) -0.01276(8)
H2 H 0.2462 1.1171 -0.0374
H3 H 0.2842 0.9719 -0.0537
C6 C 0.30062(7) 1.02786(11) 0.08538(8)
C7 C 0.38603(8) 1.07424(14) 0.07940(10)
C8 C 0.34212(7) 0.87704(12) 0.22836(9)
C9 C 0.42882(9) 0.74710(16) 0.33532(10)
H4 H 0.4529 0.8311 0.3626
H5 H 0.4705 0.6778 0.3361
H6 H 0.3881 0.7154 0.3716
C10 C 0.06981(8) 0.82419(15) 0.05287(10)
H7 H 0.0342 0.8992 0.0635
H8 H 0.0703 0.7566 0.1023
H9 H 0.0505 0.7821 -0.0074
C11 C 0.13465(9) 1.04618(15) -0.16959(9)
H10 H 0.1582 1.1359 -0.1549
H11 H 0.0859 1.0556 -0.2153
H12 H 0.1732 0.9887 -0.1953
F1 F 0.38689(5) 1.19428(8) 0.03734(6)
F2 F 0.42997(5) 1.08788(10) 0.16332(6)
F3 F 0.42449(5) 0.98757(10) 0.03167(7)
O1 O 0.32975(6) 0.95392(9) 0.28863(6)
O2 O 0.39190(6) 0.77216(9) 0.24042(6)
O3 O 0.20204(6) 0.75470(10) 0.18764(7)
O4 O 0.11489(6) 0.98512(10) -0.08631(6)
O5 O 0.26460(5) 1.12681(8) 0.13507(6)
H13 H 0.2830(11) 1.1230(19) 0.1929(14)
loop_
_geom_bond_atom_site_label_1
_geom_bond_atom_site_label_2
_geom_bond_site_symmetry_1
_geom_bond_site_symmetry_2
C1 H1 1_555 1_555
C2 C1 1_555 1_555
C3 C2 1_555 1_555
C4 C3 1_555 1_555
C5 C4 1_555 1_555
H2 C5 1_555 1_555
H3 C5 1_555 1_555
C6 C1 1_555 1_555
C7 C6 1_555 1_555
C8 C1 1_555 1_555
C9 H4 1_555 1_555
H5 C9 1_555 1_555
H6 C9 1_555 1_555
C10 C3 1_555 1_555
H7 C10 1_555 1_555
H8 C10 1_555 1_555
H9 C10 1_555 1_555
C11 H10 1_555 1_555
H11 C11 1_555 1_555
H12 C11 1_555 1_555
F1 C7 1_555 1_555
F2 C7 1_555 1_555
F3 C7 1_555 1_555
O1 C8 1_555 1_555
O2 C8 1_555 1_555
O3 C2 1_555 1_555
O4 C4 1_555 1_555
O5 C6 1_555 1_555
H13 O5 1_555 1_555
C5 C6 1_555 1_555
C9 O2 1_555 1_555
C11 O4 1_555 1_555

#END
