
#######################################################################
#
#                 Cambridge Crystallographic Data Centre
#                                CCDC 
#
#######################################################################
#
# If this CIF has been generated from an entry in the Cambridge 
# Structural Database, then it will include bibliographic, chemical, 
# crystal, experimental, refinement or atomic coordinate data resulting 
# from the CCDC's data processing and validation procedures.
#
#######################################################################

data_LUGDOG
_chemical_formula_moiety         'C75 H44,6(C4 H8 O1)'
_chemical_name_systematic        
"9,9:9',9':9'',9''-tris(2,2'-Biphenyl)-2,2':7',2''-terfluorene tetrahydrofuran solvate"
_symmetry_cell_setting           monoclinic
_symmetry_space_group_name_H-M   'C c'
_symmetry_Int_Tables_number      9
_space_group_name_Hall           'C -2yc'
loop_
_symmetry_equiv_pos_site_id
_symmetry_equiv_pos_as_xyz
1 x,y,z
2 x,-y,1/2+z
3 1/2+x,1/2+y,z
4 1/2+x,1/2-y,1/2+z
_cell_length_a                   14.6762(1)
_cell_length_b                   17.7960(2)
_cell_length_c                   28.7932(3)
_cell_angle_alpha                90
_cell_angle_beta                 100.3600(5)
_cell_angle_gamma                90
_cell_volume                     7397.54
_exptl_crystal_colour            colorless
_exptl_crystal_description       plate
_cell_formula_units_Z            4
_exptl_crystal_preparation       'photo- and electro-luminescent'
loop_
_atom_site_label
_atom_site_type_symbol
_atom_site_fract_x
_atom_site_fract_y
_atom_site_fract_z
C1 C 0.4702(3) 0.08192(17) 0.37778(15)
C2 C 0.4038(2) 0.1351(2) 0.34648(13)
C3 C 0.3256(2) 0.1166(2) 0.31419(13)
H1 H 0.3103 0.0655 0.3072
C4 C 0.2688(2) 0.1747(2) 0.29180(14)
C5 C 0.2929(3) 0.2497(2) 0.30300(15)
H2 H 0.2535 0.2889 0.2888
C6 C 0.3737(3) 0.2678(2) 0.33479(15)
H3 H 0.3909 0.3187 0.3414
C7 C 0.4280(2) 0.2095(2) 0.35636(14)
C8 C 0.5145(3) 0.2112(2) 0.39192(14)
C9 C 0.5701(3) 0.2704(2) 0.41089(14)
H4 H 0.5541 0.3207 0.4017
C10 C 0.6494(3) 0.2552(2) 0.44358(14)
H5 H 0.6886 0.2957 0.4561
C11 C 0.6735(3) 0.1822(2) 0.45863(13)
C12 C 0.6162(2) 0.1234(2) 0.43946(13)
H6 H 0.6308 0.0733 0.4496
C13 C 0.5381(2) 0.1374(2) 0.40573(13)
C14 C 0.4197(2) 0.0307(2) 0.40674(14)
C15 C 0.3634(3) 0.0503(2) 0.43872(15)
H7 H 0.3529 0.1016 0.4451
C16 C 0.3228(4) -0.0059(3) 0.46112(17)
H8 H 0.2842 0.0069 0.4831
C17 C 0.3381(3) -0.0811(3) 0.45172(17)
H9 H 0.3106 -0.1191 0.4678
C18 C 0.3921(3) -0.1011(2) 0.41957(18)
H10 H 0.4008 -0.1525 0.4127
C19 C 0.4341(3) -0.0453(2) 0.39715(15)
C20 C 0.4973(3) -0.0486(2) 0.36264(14)
C21 C 0.5346(3) -0.1096(2) 0.34199(18)
H11 H 0.5193 -0.1595 0.3495
C22 C 0.5925(4) -0.0972(3) 0.3113(2)
H12 H 0.6169 -0.1386 0.2967
C23 C 0.6171(3) -0.0232(3) 0.30055(18)
H13 H 0.6600 -0.0154 0.2799
C24 C 0.5792(3) 0.0384(3) 0.31997(16)
H14 H 0.5939 0.0883 0.3122
C25 C 0.5187(3) 0.0243(2) 0.35123(14)
C26 C -0.0776(3) 0.2027(2) 0.22248(14)
C27 C 0.0231(2) 0.17477(19) 0.22530(14)
C28 C 0.0993(3) 0.1906(2) 0.25996(14)
H15 H 0.0936 0.2224 0.2858
C29 C 0.1846(2) 0.1588(2) 0.25613(13)
C30 C 0.1895(3) 0.1112(2) 0.21787(14)
H16 H 0.2471 0.0884 0.2157
C31 C 0.1146(3) 0.0962(2) 0.18366(14)
H17 H 0.1198 0.0641 0.1579
C32 C 0.0304(3) 0.12933(19) 0.18753(13)
C33 C -0.0612(3) 0.1237(2) 0.15615(15)
C34 C -0.0884(3) 0.0862(2) 0.11354(15)
H18 H -0.0452 0.0586 0.0994
C35 C -0.1814(3) 0.0905(2) 0.09236(16)
H19 H -0.2017 0.0659 0.0631
C36 C -0.2448(3) 0.1301(3) 0.11306(18)
H20 H -0.3080 0.1315 0.0981
C37 C -0.2166(3) 0.1678(2) 0.15563(17)
H21 H -0.2600 0.1953 0.1697
C38 C -0.1238(3) 0.1645(2) 0.17707(15)
C39 C -0.1216(3) 0.1815(2) 0.26475(15)
C40 C -0.1310(3) 0.1122(3) 0.28378(18)
H22 H -0.1066 0.0688 0.2712
C41 C -0.1771(4) 0.1064(3) 0.3221(2)
H23 H -0.1863 0.0583 0.3348
C42 C -0.2094(4) 0.1696(4) 0.34173(18)
H24 H -0.2387 0.1647 0.3684
C43 C -0.1994(3) 0.2400(3) 0.32287(18)
H25 H -0.2222 0.2833 0.3364
C44 C -0.1553(3) 0.2470(2) 0.28379(15)
C45 C -0.1347(3) 0.3119(2) 0.25641(15)
C46 C -0.1537(3) 0.3885(2) 0.26137(18)
H26 H -0.1869 0.4055 0.2848
C47 C -0.1225(3) 0.4380(3) 0.23096(19)
H27 H -0.1328 0.4903 0.2345
C48 C -0.0762(3) 0.4143(2) 0.19503(19)
H28 H -0.0571 0.4498 0.1741
C49 C -0.0583(3) 0.3380(2) 0.19023(16)
H29 H -0.0262 0.3210 0.1664
C50 C -0.0880(2) 0.2880(2) 0.22076(14)
C51 C 1.0149(2) 0.2209(2) 0.53511(13)
C52 C 0.9166(2) 0.18995(19) 0.52938(13)
C53 C 0.8415(3) 0.2034(2) 0.49375(14)
H30 H 0.8476 0.2361 0.4684
C54 C 0.7560(3) 0.1683(2) 0.49527(14)
C55 C 0.7487(3) 0.1203(2) 0.53289(14)
H31 H 0.6912 0.0964 0.5339
C56 C 0.8250(3) 0.1068(2) 0.56942(14)
H32 H 0.8193 0.0741 0.5948
C57 C 0.9088(2) 0.1421(2) 0.56747(13)
C58 C 0.9979(3) 0.1371(2) 0.59945(13)
C59 C 1.0262(3) 0.0991(2) 0.64143(15)
H33 H 0.9833 0.0696 0.6545
C60 C 1.1176(3) 0.1042(2) 0.66436(16)
H34 H 1.1375 0.0776 0.6930
C61 C 1.1797(3) 0.1483(2) 0.64529(16)
H35 H 1.2421 0.1519 0.6612
C62 C 1.1523(3) 0.1872(2) 0.60348(15)
H36 H 1.1957 0.2166 0.5906
C63 C 1.0618(3) 0.1827(2) 0.58078(14)
C64 C 1.0199(3) 0.30640(19) 0.53857(14)
C65 C 0.9889(3) 0.3537(2) 0.57015(15)
H37 H 0.9576 0.3340 0.5936
C66 C 1.0040(3) 0.4309(2) 0.56743(16)
H38 H 0.9825 0.4638 0.5891
C67 C 1.0494(3) 0.4597(2) 0.53384(17)
H39 H 1.0586 0.5124 0.5323
C68 C 1.0820(3) 0.4127(2) 0.50202(17)
H40 H 1.1138 0.4330 0.4789
C69 C 1.0678(3) 0.3363(2) 0.50431(14)
C70 C 1.0936(3) 0.2738(2) 0.47608(14)
C71 C 1.1409(3) 0.2732(3) 0.43801(17)
H41 H 1.1605 0.3187 0.4257
C72 C 1.1583(4) 0.2047(3) 0.41882(19)
H42 H 1.1911 0.2034 0.3933
C73 C 1.1293(4) 0.1384(3) 0.43575(18)
H43 H 1.1424 0.0922 0.4217
C74 C 1.0807(3) 0.1378(2) 0.47341(16)
H44 H 1.0597 0.0920 0.4848
C75 C 1.0640(2) 0.2063(2) 0.49353(14)
O1 O 0.4913(4) 0.1439(2) 0.57679(17)
C76 C 0.3946(5) 0.1357(4) 0.5626(2)
H45 H 0.3648 0.1266 0.5903
H46 H 0.3805 0.0927 0.5406
C77 C 0.3598(4) 0.2080(4) 0.5384(3)
H47 H 0.3079 0.1983 0.5120
H48 H 0.3386 0.2431 0.5609
C78 C 0.4394(4) 0.2383(3) 0.5211(3)
H49 H 0.4373 0.2939 0.5195
H50 H 0.4438 0.2179 0.4896
C79 C 0.5181(6) 0.2111(5) 0.5584(4)
H51 H 0.5741 0.2030 0.5444
H52 H 0.5326 0.2490 0.5838
O2 O 0.1782(4) 0.0045(4) 0.0636(2)
C80 C 0.2580(4) 0.0535(3) 0.0874(2)
H53 H 0.3153 0.0428 0.0750
H54 H 0.2701 0.0461 0.1221
C81 C 0.2227(5) 0.1331(4) 0.0744(3)
H55 H 0.2181 0.1631 0.1029
H56 H 0.2632 0.1597 0.0557
C82 C 0.1297(5) 0.1177(5) 0.0457(4)
H57 H 0.0817 0.1191 0.0658
H58 H 0.1142 0.1557 0.0204
C83 C 0.1343(4) 0.0464(4) 0.0263(2)
H59 H 0.0716 0.0265 0.0141
H60 H 0.1703 0.0472 0.0004
O3 O 0.4342(5) 0.1243(3) 0.17870(18)
C84 C 0.4053(5) 0.1995(4) 0.1885(3)
H61 H 0.3459 0.1986 0.2003
H62 H 0.3984 0.2316 0.1601
C85 C 0.4835(5) 0.2267(4) 0.2263(3)
H63 H 0.4879 0.2822 0.2258
H64 H 0.4736 0.2108 0.2580
C86 C 0.5673(6) 0.1927(4) 0.2153(3)
H65 H 0.6166 0.1887 0.2436
H66 H 0.5911 0.2208 0.1903
C87 C 0.5295(9) 0.1147(4) 0.1978(3)
H67 H 0.5631 0.0954 0.1734
H68 H 0.5374 0.0785 0.2244
O4 O -0.3222(3) 0.3952(3) 0.33525(18)
C88 C -0.3448(4) 0.4646(3) 0.35334(18)
H69 H -0.2898 0.4979 0.3589
H70 H -0.3664 0.4573 0.3837
C89 C -0.4181(5) 0.4980(4) 0.3185(3)
H71 H -0.4633 0.5243 0.3344
H72 H -0.3917 0.5346 0.2987
C90 C -0.4626(5) 0.4369(4) 0.2898(3)
H73 H -0.4730 0.4502 0.2559
H74 H -0.5228 0.4241 0.2988
C91 C -0.3967(4) 0.3738(4) 0.3000(2)
H75 H -0.4283 0.3296 0.3108
H76 H -0.3735 0.3596 0.2710
O5 O 0.3980(4) 0.4338(3) 0.39321(15)
C92 C 0.3191(6) 0.4106(6) 0.4101(3)
H77 H 0.2643 0.4157 0.3846
H78 H 0.3255 0.3569 0.4190
C93 C 0.3055(5) 0.4521(6) 0.4484(4)
H79 H 0.2863 0.4194 0.4728
H80 H 0.2572 0.4908 0.4390
C94 C 0.3981(5) 0.4881(5) 0.4668(4)
H81 H 0.3908 0.5419 0.4741
H82 H 0.4304 0.4622 0.4955
C95 C 0.4481(5) 0.4792(4) 0.4280(2)
H83 H 0.4584 0.5290 0.4145
H84 H 0.5094 0.4562 0.4397
O6 O 0.7553(6) 0.0298(4) 0.6935(3)
C96 C 0.6712(5) 0.0682(4) 0.6652(3)
H85 H 0.6152 0.0581 0.6789
H86 H 0.6600 0.0511 0.6319
C97 C 0.6968(5) 0.1509(4) 0.6688(3)
H89 H 0.6860 0.1751 0.6374
H90 H 0.6610 0.1780 0.6897
C98 C 0.7991(6) 0.1490(5) 0.6901(4)
H93 H 0.8330 0.1832 0.6720
H94 H 0.8080 0.1674 0.7230
C99 C 0.8373(8) 0.0736(6) 0.6895(6)
H95 H 0.8595 0.0630 0.6597
H96 H 0.8882 0.0649 0.7166
H87? H 0.6152 0.0581 0.6789
H88? H 0.6600 0.0511 0.6319
H91? H 0.7351 0.1662 0.6455
H92? H 0.6419 0.1840 0.6664
C100? C 0.7423(14) 0.1478(11) 0.7099(7)
H97? H 0.6979 0.1484 0.7321
H98? H 0.7800 0.1941 0.7157
C101? C 0.7966(9) 0.0912(7) 0.7205(5)
H99? H 0.8040 0.0798 0.7546
H100? H 0.8584 0.1021 0.7129
loop_
_geom_bond_atom_site_label_1
_geom_bond_atom_site_label_2
_geom_bond_site_symmetry_1
_geom_bond_site_symmetry_2
C1 C2 1_555 1_555
C2 C3 1_555 1_555
C3 H1 1_555 1_555
C4 C3 1_555 1_555
C5 C4 1_555 1_555
H2 C5 1_555 1_555
C6 C5 1_555 1_555
H3 C6 1_555 1_555
C7 C2 1_555 1_555
C8 C7 1_555 1_555
C9 C8 1_555 1_555
H4 C9 1_555 1_555
C10 C9 1_555 1_555
H5 C10 1_555 1_555
C11 C10 1_555 1_555
C12 C11 1_555 1_555
H6 C12 1_555 1_555
C13 C1 1_555 1_555
C14 C1 1_555 1_555
C15 C14 1_555 1_555
H7 C15 1_555 1_555
C16 C15 1_555 1_555
H8 C16 1_555 1_555
C17 C16 1_555 1_555
H9 C17 1_555 1_555
C18 C17 1_555 1_555
H10 C18 1_555 1_555
C19 C14 1_555 1_555
C20 C19 1_555 1_555
C21 C20 1_555 1_555
H11 C21 1_555 1_555
C22 C21 1_555 1_555
H12 C22 1_555 1_555
C23 C22 1_555 1_555
H13 C23 1_555 1_555
C24 C23 1_555 1_555
H14 C24 1_555 1_555
C25 C1 1_555 1_555
C26 C27 1_555 1_555
C27 C28 1_555 1_555
C28 H15 1_555 1_555
C29 C4 1_555 1_555
C30 C29 1_555 1_555
H16 C30 1_555 1_555
C31 C30 1_555 1_555
H17 C31 1_555 1_555
C32 C27 1_555 1_555
C33 C32 1_555 1_555
C34 C33 1_555 1_555
H18 C34 1_555 1_555
C35 C34 1_555 1_555
H19 C35 1_555 1_555
C36 C35 1_555 1_555
H20 C36 1_555 1_555
C37 C36 1_555 1_555
H21 C37 1_555 1_555
C38 C26 1_555 1_555
C39 C26 1_555 1_555
C40 C39 1_555 1_555
H22 C40 1_555 1_555
C41 C40 1_555 1_555
H23 C41 1_555 1_555
C42 C41 1_555 1_555
H24 C42 1_555 1_555
C43 C42 1_555 1_555
H25 C43 1_555 1_555
C44 C39 1_555 1_555
C45 C44 1_555 1_555
C46 C45 1_555 1_555
H26 C46 1_555 1_555
C47 C46 1_555 1_555
H27 C47 1_555 1_555
C48 C47 1_555 1_555
H28 C48 1_555 1_555
C49 C48 1_555 1_555
H29 C49 1_555 1_555
C50 C26 1_555 1_555
C51 C52 1_555 1_555
C52 C53 1_555 1_555
C53 H30 1_555 1_555
C54 C11 1_555 1_555
C55 C54 1_555 1_555
H31 C55 1_555 1_555
C56 C55 1_555 1_555
H32 C56 1_555 1_555
C57 C52 1_555 1_555
C58 C57 1_555 1_555
C59 C58 1_555 1_555
H33 C59 1_555 1_555
C60 C59 1_555 1_555
H34 C60 1_555 1_555
C61 C60 1_555 1_555
H35 C61 1_555 1_555
C62 C61 1_555 1_555
H36 C62 1_555 1_555
C63 C51 1_555 1_555
C64 C51 1_555 1_555
C65 C64 1_555 1_555
H37 C65 1_555 1_555
C66 C65 1_555 1_555
H38 C66 1_555 1_555
C67 C66 1_555 1_555
H39 C67 1_555 1_555
C68 C67 1_555 1_555
H40 C68 1_555 1_555
C69 C64 1_555 1_555
C70 C69 1_555 1_555
C71 C70 1_555 1_555
H41 C71 1_555 1_555
C72 C71 1_555 1_555
H42 C72 1_555 1_555
C73 C72 1_555 1_555
H43 C73 1_555 1_555
C74 C73 1_555 1_555
H44 C74 1_555 1_555
C75 C51 1_555 1_555
O1 C76 1_555 1_555
O2 C80 1_555 1_555
O3 C84 1_555 1_555
O4 C88 1_555 1_555
O5 C92 1_555 1_555
O6 C96 1_555 1_555
C76 H45 1_555 1_555
H46 C76 1_555 1_555
C77 C76 1_555 1_555
H47 C77 1_555 1_555
H48 C77 1_555 1_555
C78 C77 1_555 1_555
H49 C78 1_555 1_555
H50 C78 1_555 1_555
C79 O1 1_555 1_555
H51 C79 1_555 1_555
H52 C79 1_555 1_555
C80 H53 1_555 1_555
H54 C80 1_555 1_555
C81 C80 1_555 1_555
H55 C81 1_555 1_555
H56 C81 1_555 1_555
C82 C81 1_555 1_555
H57 C82 1_555 1_555
H58 C82 1_555 1_555
C83 O2 1_555 1_555
H59 C83 1_555 1_555
H60 C83 1_555 1_555
C84 H61 1_555 1_555
H62 C84 1_555 1_555
C85 C84 1_555 1_555
H63 C85 1_555 1_555
H64 C85 1_555 1_555
C86 C85 1_555 1_555
H65 C86 1_555 1_555
H66 C86 1_555 1_555
C87 O3 1_555 1_555
H67 C87 1_555 1_555
H68 C87 1_555 1_555
C88 H69 1_555 1_555
H70 C88 1_555 1_555
C89 C88 1_555 1_555
H71 C89 1_555 1_555
H72 C89 1_555 1_555
C90 C89 1_555 1_555
H73 C90 1_555 1_555
H74 C90 1_555 1_555
C91 O4 1_555 1_555
H75 C91 1_555 1_555
H76 C91 1_555 1_555
C92 H77 1_555 1_555
H78 C92 1_555 1_555
C93 C92 1_555 1_555
H79 C93 1_555 1_555
H80 C93 1_555 1_555
C94 C93 1_555 1_555
H81 C94 1_555 1_555
H82 C94 1_555 1_555
C95 O5 1_555 1_555
H83 C95 1_555 1_555
H84 C95 1_555 1_555
C96 H85 1_555 1_555
H86 C96 1_555 1_555
C97 C96 1_555 1_555
H89 C97 1_555 1_555
H90 C97 1_555 1_555
C98 C97 1_555 1_555
H93 C98 1_555 1_555
H94 C98 1_555 1_555
C99 O6 1_555 1_555
H95 C99 1_555 1_555
H96 C99 1_555 1_555
C6 C7 1_555 1_555
C8 C13 1_555 1_555
C12 C13 1_555 1_555
C18 C19 1_555 1_555
C20 C25 1_555 1_555
C24 C25 1_555 1_555
C28 C29 1_555 1_555
C31 C32 1_555 1_555
C33 C38 1_555 1_555
C37 C38 1_555 1_555
C43 C44 1_555 1_555
C45 C50 1_555 1_555
C49 C50 1_555 1_555
C53 C54 1_555 1_555
C56 C57 1_555 1_555
C58 C63 1_555 1_555
C62 C63 1_555 1_555
C68 C69 1_555 1_555
C70 C75 1_555 1_555
C74 C75 1_555 1_555
C78 C79 1_555 1_555
C82 C83 1_555 1_555
C86 C87 1_555 1_555
C90 C91 1_555 1_555
C94 C95 1_555 1_555
C98 C99 1_555 1_555

#END
