
#######################################################################
#
#                 Cambridge Crystallographic Data Centre
#                                CCDC 
#
#######################################################################
#
# If this CIF has been generated from an entry in the Cambridge 
# Structural Database, then it will include bibliographic, chemical, 
# crystal, experimental, refinement or atomic coordinate data resulting 
# from the CCDC's data processing and validation procedures.
#
#######################################################################

data_LUGKUT
_chemical_formula_moiety         'C60,C2 H4'
_chemical_name_systematic        'C60Fullerene ethene'
_symmetry_cell_setting           cubic
_symmetry_space_group_name_H-M   'P a -3'
_symmetry_Int_Tables_number      205
_space_group_name_Hall           '-P 2ac 2ab 3'
loop_
_symmetry_equiv_pos_site_id
_symmetry_equiv_pos_as_xyz
1 x,y,z
2 z,x,y
3 y,z,x
4 1/2+x,y,1/2-z
5 x,1/2-y,1/2+z
6 1/2-x,1/2+y,z
7 1/2-z,1/2+x,y
8 1/2+z,x,1/2-y
9 z,1/2-x,1/2+y
10 y,1/2-z,1/2+x
11 1/2-y,1/2+z,x
12 1/2+y,z,1/2-x
13 -x,-y,-z
14 -z,-x,-y
15 -y,-z,-x
16 1/2-x,-y,1/2+z
17 -x,1/2+y,1/2-z
18 1/2+x,1/2-y,-z
19 1/2+z,1/2-x,-y
20 1/2-z,-x,1/2+y
21 -z,1/2+x,1/2-y
22 -y,1/2+z,1/2-x
23 1/2+y,1/2-z,-x
24 1/2-y,-z,1/2+x
_cell_length_a                   14.181(2)
_cell_length_b                   14.181(2)
_cell_length_c                   14.181(2)
_cell_angle_alpha                90
_cell_angle_beta                 90
_cell_angle_gamma                90
_cell_volume                     2851.81
_exptl_crystal_colour            black
_exptl_crystal_description       'triangular tablet'
_cell_formula_units_Z            4
loop_
_atom_site_label
_atom_site_type_symbol
_atom_site_fract_x
_atom_site_fract_y
_atom_site_fract_z
C11 C 0.010(5) -0.030(3) 0.035(3)
C11A C 0.035(3) 0.010(5) -0.030(3)
C11B C -0.030(3) 0.035(3) 0.010(5)
C11L C -0.010(5) 0.030(3) -0.035(3)
C11M C -0.035(3) -0.010(5) 0.030(3)
C11N C 0.030(3) -0.035(3) -0.010(5)
C1 C 0.1094(5) 0.0371(5) 0.2775(5)
C2 C 0.1332(5) -0.0614(5) 0.2961(5)
C3 C 0.2055(5) -0.0627(5) 0.3696(5)
C4 C 0.2246(5) 0.0331(6) 0.3967(5)
C5 C 0.1664(6) 0.0948(5) 0.3377(5)
C6 C 0.1278(5) 0.1776(5) 0.3772(5)
C7 C 0.0317(5) 0.2028(5) 0.3573(5)
C8 C 0.1479(5) 0.2010(5) 0.4753(5)
C9 C 0.0147(5) 0.0613(6) 0.2579(5)
C10 C 0.2441(5) 0.0573(5) 0.4895(5)
C2S C 0.2039(5) -0.1332(5) 0.4386(5)
C1S C 0.2225(5) -0.1094(5) 0.5371(5)
C5S C 0.1623(5) -0.1664(6) 0.5948(5)
C4S C 0.1033(5) -0.2246(5) 0.5331(6)
C3S C 0.1304(5) -0.2055(5) 0.4373(5)
C2U C 0.0614(5) -0.2039(5) 0.3668(5)
C1U C -0.0371(5) -0.2225(5) 0.3906(5)
C5U C -0.0948(5) -0.1623(5) 0.3336(6)
C4U C -0.0331(6) -0.1033(5) 0.2754(5)
C3U C 0.0627(5) -0.1304(5) 0.2945(5)
C10U C -0.0573(5) -0.0105(5) 0.2559(5)
C7G C -0.1427(5) 0.0317(5) 0.2972(5)
C6G C -0.1228(5) 0.1278(5) 0.3224(5)
C5G C -0.1623(5) 0.1664(6) 0.4052(5)
C1G C -0.2225(5) 0.1094(5) 0.4629(5)
C2G C -0.2039(5) 0.1332(5) 0.5614(5)
C3G C -0.1304(5) 0.2055(5) 0.5627(5)
C2I C -0.0614(5) 0.2039(5) 0.6332(5)
C1I C 0.0371(5) 0.2225(5) 0.6094(5)
C5I C 0.0948(5) 0.1623(5) 0.6664(6)
C4I C 0.0331(6) 0.1033(5) 0.7246(5)
C3I C -0.0627(5) 0.1304(5) 0.7055(5)
C2L C -0.1332(5) 0.0614(5) 0.7039(5)
C1L C -0.1094(5) -0.0371(5) 0.7225(5)
C5L C -0.1664(6) -0.0948(5) 0.6623(5)
C4L C -0.2246(5) -0.0331(6) 0.6033(5)
C3L C -0.2055(5) 0.0627(5) 0.6304(5)
C10L C -0.2441(5) -0.0573(5) 0.5105(5)
C7U C -0.2028(5) -0.1427(5) 0.4683(5)
C6U C -0.1776(5) -0.1228(5) 0.3722(5)
C8U C -0.2010(5) -0.0247(5) 0.3521(5)
C9G C -0.2421(5) 0.0147(5) 0.4387(6)
C8L C -0.1479(5) -0.2010(5) 0.5247(5)
C6L C -0.1278(5) -0.1776(5) 0.6228(5)
C7L C -0.0317(5) -0.2028(5) 0.6427(5)
C8S C 0.0247(5) -0.1479(5) 0.7010(5)
C6S C 0.1228(5) -0.1278(5) 0.6776(5)
C7S C 0.1427(5) -0.0317(5) 0.7028(5)
C8I C 0.2010(5) 0.0247(5) 0.6479(5)
C6I C 0.1776(5) 0.1228(5) 0.6278(5)
C7I C 0.2028(5) 0.1427(5) 0.5317(5)
C8G C -0.0247(5) 0.1479(5) 0.2990(5)
C10G C -0.0105(5) 0.2441(5) 0.4427(5)
C4G C -0.1033(5) 0.2246(5) 0.4669(6)
C9I C 0.0613(6) 0.2421(5) 0.5147(5)
C9S C 0.2421(5) -0.0147(5) 0.5613(6)
C10I C 0.0573(5) 0.0105(5) 0.7441(5)
C9L C -0.0147(5) -0.0613(6) 0.7421(5)
C10S C 0.0105(5) -0.2441(5) 0.5573(5)
C9U C -0.0613(6) -0.2421(5) 0.4853(5)
loop_
_geom_bond_atom_site_label_1
_geom_bond_atom_site_label_2
_geom_bond_site_symmetry_1
_geom_bond_site_symmetry_2
C1 C2 1_555 1_555
C2 C3 1_555 1_555
C3 C4 1_555 1_555
C4 C5 1_555 1_555
C5 C1 1_555 1_555
C6 C5 1_555 1_555
C7 C6 1_555 1_555
C8 C6 1_555 1_555
C9 C1 1_555 1_555
C10 C4 1_555 1_555
C11 C11A 1_555 1_555
C2S C3 1_555 1_555
C1S C2S 1_555 1_555
C5S C1S 1_555 1_555
C4S C5S 1_555 1_555
C3S C2S 1_555 1_555
C2U C3S 1_555 1_555
C1U C2U 1_555 1_555
C5U C1U 1_555 1_555
C4U C5U 1_555 1_555
C3U C2 1_555 1_555
C10U C9 1_555 1_555
C7G C10U 1_555 1_555
C6G C7G 1_555 1_555
C5G C6G 1_555 1_555
C1G C5G 1_555 1_555
C2G C1G 1_555 1_555
C3G C2G 1_555 1_555
C2I C3G 1_555 1_555
C1I C2I 1_555 1_555
C5I C1I 1_555 1_555
C4I C5I 1_555 1_555
C3I C2I 1_555 1_555
C2L C3I 1_555 1_555
C1L C2L 1_555 1_555
C5L C1L 1_555 1_555
C4L C5L 1_555 1_555
C3L C2G 1_555 1_555
C10L C4L 1_555 1_555
C7U C10L 1_555 1_555
C6U C5U 1_555 1_555
C8U C7G 1_555 1_555
C9G C1G 1_555 1_555
C8L C7U 1_555 1_555
C6L C5L 1_555 1_555
C7L C6L 1_555 1_555
C8S C7L 1_555 1_555
C6S C5S 1_555 1_555
C7S C6S 1_555 1_555
C8I C7S 1_555 1_555
C6I C5I 1_555 1_555
C7I C8 1_555 1_555
C8G C7 1_555 1_555
C10G C7 1_555 1_555
C4G C5G 1_555 1_555
C9I C8 1_555 1_555
C9S C10 1_555 1_555
C10I C4I 1_555 1_555
C9L C1L 1_555 1_555
C10S C4S 1_555 1_555
C9U C1U 1_555 1_555
C11A C11B 1_555 1_555
C11B C11 1_555 1_555
C11L C11 1_555 1_555
C11M C11 1_555 1_555
C11N C11 1_555 1_555
C9 C8G 1_555 1_555
C10 C7I 1_555 1_555
C1S C9S 1_555 1_555
C4S C3S 1_555 1_555
C2U C3U 1_555 1_555
C4U C3U 1_555 1_555
C4U C10U 1_555 1_555
C6G C8G 1_555 1_555
C3G C4G 1_555 1_555
C1I C9I 1_555 1_555
C4I C3I 1_555 1_555
C2L C3L 1_555 1_555
C4L C3L 1_555 1_555
C10L C9G 1_555 1_555
C7U C6U 1_555 1_555
C6U C8U 1_555 1_555
C8U C9G 1_555 1_555
C8L C6L 1_555 1_555
C8L C9U 1_555 1_555
C7L C10S 1_555 1_555
C8S C6S 1_555 1_555
C8S C9L 1_555 1_555
C7S C10I 1_555 1_555
C8I C6I 1_555 1_555
C8I C9S 1_555 1_555
C6I C7I 1_555 1_555
C10G C4G 1_555 1_555
C10G C9I 1_555 1_555
C10I C9L 1_555 1_555
C10S C9U 1_555 1_555
C11A C11L 1_555 1_555
C11A C11M 1_555 1_555
C11A C11N 1_555 1_555
C11B C11M 1_555 1_555
C11B C11N 1_555 1_555
C11B C11L 1_555 1_555
C11L C11M 1_555 1_555
C11L C11N 1_555 1_555
C11M C11N 1_555 1_555

#END
