
#######################################################################
#
#                 Cambridge Crystallographic Data Centre
#                                CCDC 
#
#######################################################################
#
# If this CIF has been generated from an entry in the Cambridge 
# Structural Database, then it will include bibliographic, chemical, 
# crystal, experimental, refinement or atomic coordinate data resulting 
# from the CCDC's data processing and validation procedures.
#
#######################################################################

data_LUGMEG
_chemical_formula_moiety         'C29 H41 B1 N2 O1 S2,C1 H4 O1'
_chemical_name_systematic        
'[1,3-bis(2,6-diisopropylphenyl)imidazol-2-ylidene](methylthiocarbonylthio)borane methanol solvate'
_symmetry_cell_setting           orthorhombic
_symmetry_space_group_name_H-M   'P n m a'
_symmetry_Int_Tables_number      62
_space_group_name_Hall           '-P 2ac 2n'
loop_
_symmetry_equiv_pos_site_id
_symmetry_equiv_pos_as_xyz
1 x,y,z
2 1/2-x,-y,1/2+z
3 -x,1/2+y,-z
4 1/2+x,1/2-y,1/2-z
5 -x,-y,-z
6 1/2+x,y,1/2-z
7 x,1/2-y,z
8 1/2-x,1/2+y,1/2+z
_cell_length_a                   9.660(3)
_cell_length_b                   17.181(5)
_cell_length_c                   18.960(6)
_cell_angle_alpha                90
_cell_angle_beta                 90
_cell_angle_gamma                90
_cell_volume                     3146.76
_exptl_crystal_colour            colorless
_exptl_crystal_description       block
_cell_formula_units_Z            4
loop_
_atom_site_label
_atom_site_type_symbol
_atom_site_fract_x
_atom_site_fract_y
_atom_site_fract_z
O1 O 0.7513(3) 0.2500 0.56093(17)
N1 N 1.2941(3) 0.31193(14) 0.50180(12)
B1 B 1.0469(6) 0.2500 0.5067(3)
H1 H 1.002(3) 0.3084(17) 0.4844(17)
S1 S 1.00608(15) 0.2500 0.60603(7)
C1 C 1.2517(4) 0.4404(2) 0.5534(2)
S2 S 0.77058(16) 0.2500 0.69794(7)
C2 C 1.2172(5) 0.5171(2) 0.5428(3)
H2 H 1.2183 0.5515 0.5814
C3 C 1.1812(5) 0.5448(3) 0.4776(3)
H3 H 1.1575 0.5975 0.4719
C4 C 1.1797(5) 0.4962(2) 0.4213(2)
H4 H 1.1542 0.5160 0.3769
C5 C 1.2146(4) 0.4183(2) 0.4271(2)
C6 C 1.2511(3) 0.39245(18) 0.49480(18)
C7 C 1.2949(5) 0.4122(3) 0.6256(2)
H5 H 1.3058 0.3549 0.6238
C8 C 1.4329(7) 0.4478(4) 0.6469(4)
H6 H 1.5026 0.4345 0.6121
H7 H 1.4237 0.5039 0.6495
H8 H 1.4604 0.4277 0.6926
C9 C 1.1814(6) 0.4321(3) 0.6810(2)
H9 H 1.0942 0.4090 0.6667
H10 H 1.2083 0.4115 0.7266
H11 H 1.1710 0.4881 0.6842
C10 C 1.2145(4) 0.3653(2) 0.36403(19)
H12 H 1.2124 0.3111 0.3818
C11 C 1.3448(5) 0.3745(3) 0.3211(2)
H13 H 1.3418 0.3395 0.2810
H14 H 1.3520 0.4277 0.3045
H15 H 1.4245 0.3621 0.3501
C12 C 1.0883(5) 0.3763(3) 0.3176(3)
H16 H 1.0051 0.3697 0.3456
H17 H 1.0896 0.4281 0.2974
H18 H 1.0895 0.3380 0.2800
C13 C 1.4303(4) 0.2890(2) 0.49908(17)
H19 H 1.501(4) 0.320(2) 0.496(2)
C14 C 1.2085(5) 0.2500 0.5031(2)
C15 C 0.8288(5) 0.2500 0.6100(2)
C16 C 0.5892(6) 0.2500 0.6872(3)
H20 H 0.5450 0.2500 0.7331
H21 H 0.5614 0.2961 0.6613
N1F N 1.2941(3) 0.18807(14) 0.50180(12)
H1F H 1.002(3) 0.1916(17) 0.4844(17)
C1F C 1.2517(4) 0.0596(2) 0.5534(2)
C2F C 1.2172(5) -0.0171(2) 0.5428(3)
H2F H 1.2183 -0.0515 0.5814
C3F C 1.1812(5) -0.0448(3) 0.4776(3)
H3F H 1.1575 -0.0975 0.4719
C4F C 1.1797(5) 0.0038(2) 0.4213(2)
H4F H 1.1542 -0.0160 0.3769
C5F C 1.2146(4) 0.0817(2) 0.4271(2)
C6F C 1.2511(3) 0.10755(18) 0.49480(18)
C7F C 1.2949(5) 0.0878(3) 0.6256(2)
H5F H 1.3058 0.1451 0.6238
C8F C 1.4329(7) 0.0522(4) 0.6469(4)
H6F H 1.5026 0.0655 0.6121
H7F H 1.4237 -0.0039 0.6495
H8F H 1.4604 0.0723 0.6926
C9F C 1.1814(6) 0.0679(3) 0.6810(2)
H9F H 1.0942 0.0910 0.6667
H10F H 1.2083 0.0885 0.7266
H11F H 1.1710 0.0119 0.6842
C10F C 1.2145(4) 0.1347(2) 0.36403(19)
H12F H 1.2124 0.1889 0.3818
C11F C 1.3448(5) 0.1255(3) 0.3211(2)
H13F H 1.3418 0.1605 0.2810
H14F H 1.3520 0.0723 0.3045
H15F H 1.4245 0.1379 0.3501
C12F C 1.0883(5) 0.1237(3) 0.3176(3)
H16F H 1.0051 0.1303 0.3456
H17F H 1.0896 0.0719 0.2974
H18F H 1.0895 0.1620 0.2800
C13F C 1.4303(4) 0.2110(2) 0.49908(17)
H19F H 1.501(4) 0.180(2) 0.496(2)
H21F H 0.5614 0.2039 0.6613
O2? O 0.7233(6) 0.2022(3) 0.4136(3)
C17? C 0.7381(8) 0.2500 0.3649(4)
loop_
_geom_bond_atom_site_label_1
_geom_bond_atom_site_label_2
_geom_bond_site_symmetry_1
_geom_bond_site_symmetry_2
O1 C15 1_555 1_555
N1 C6 1_555 1_555
B1 H1 1_555 1_555
S1 B1 1_555 1_555
C1 C2 1_555 1_555
S2 C15 1_555 1_555
C2 H2 1_555 1_555
C3 C2 1_555 1_555
H3 C3 1_555 1_555
C4 C3 1_555 1_555
H4 C4 1_555 1_555
C5 C4 1_555 1_555
C6 C1 1_555 1_555
C7 C1 1_555 1_555
H5 C7 1_555 1_555
C8 C7 1_555 1_555
H6 C8 1_555 1_555
H7 C8 1_555 1_555
H8 C8 1_555 1_555
C9 C7 1_555 1_555
H9 C9 1_555 1_555
H10 C9 1_555 1_555
H11 C9 1_555 1_555
C10 C5 1_555 1_555
H12 C10 1_555 1_555
C11 C10 1_555 1_555
H13 C11 1_555 1_555
H14 C11 1_555 1_555
H15 C11 1_555 1_555
C12 C10 1_555 1_555
H16 C12 1_555 1_555
H17 C12 1_555 1_555
H18 C12 1_555 1_555
C13 N1 1_555 1_555
H19 C13 1_555 1_555
C14 N1 1_555 1_555
C15 S1 1_555 1_555
C16 S2 1_555 1_555
H20 C16 1_555 1_555
H21 C16 1_555 1_555
N1F C14 1_555 1_555
H1F B1 1_555 1_555
C1F C2F 1_555 1_555
C2F H2F 1_555 1_555
C3F C2F 1_555 1_555
H3F C3F 1_555 1_555
C4F C3F 1_555 1_555
H4F C4F 1_555 1_555
C5F C4F 1_555 1_555
C6F N1F 1_555 1_555
C7F C1F 1_555 1_555
H5F C7F 1_555 1_555
C8F C7F 1_555 1_555
H6F C8F 1_555 1_555
H7F C8F 1_555 1_555
H8F C8F 1_555 1_555
C9F C7F 1_555 1_555
H9F C9F 1_555 1_555
H10F C9F 1_555 1_555
H11F C9F 1_555 1_555
C10F C5F 1_555 1_555
H12F C10F 1_555 1_555
C11F C10F 1_555 1_555
H13F C11F 1_555 1_555
H14F C11F 1_555 1_555
H15F C11F 1_555 1_555
C12F C10F 1_555 1_555
H16F C12F 1_555 1_555
H17F C12F 1_555 1_555
H18F C12F 1_555 1_555
C13F C13 1_555 1_555
H19F C13F 1_555 1_555
H21F C16 1_555 1_555
B1 C14 1_555 1_555
C5 C6 1_555 1_555
N1F C13F 1_555 1_555
C1F C6F 1_555 1_555
C5F C6F 1_555 1_555

#END
