
#######################################################################
#
#                 Cambridge Crystallographic Data Centre
#                                CCDC 
#
#######################################################################
#
# If this CIF has been generated from an entry in the Cambridge 
# Structural Database, then it will include bibliographic, chemical, 
# crystal, experimental, refinement or atomic coordinate data resulting 
# from the CCDC's data processing and validation procedures.
#
#######################################################################

data_LUGZET
_chemical_formula_moiety         'C10 H11 F1 N6 O1'
_chemical_name_systematic        
1-((4-Fluorophenyl)amino)-5-methyl-1H-1,2,3-triazole-4-carbohydrazide
_symmetry_cell_setting           triclinic
_symmetry_space_group_name_H-M   'P -1'
_symmetry_Int_Tables_number      2
_space_group_name_Hall           '-P 1'
loop_
_symmetry_equiv_pos_site_id
_symmetry_equiv_pos_as_xyz
1 x,y,z
2 -x,-y,-z
_cell_length_a                   7.0894(2)
_cell_length_b                   7.7404(2)
_cell_length_c                   11.5844(3)
_cell_angle_alpha                89.524(2)
_cell_angle_beta                 83.233(1)
_cell_angle_gamma                71.784(1)
_cell_volume                     599.353
_exptl_crystal_colour            colorless
_exptl_crystal_description       block
_cell_formula_units_Z            2
loop_
_atom_site_label
_atom_site_type_symbol
_atom_site_fract_x
_atom_site_fract_y
_atom_site_fract_z
F1 F 0.68329(19) 0.50432(19) 0.70676(10)
O1 O 0.94977(16) -0.36027(14) 0.13000(10)
N1 N 0.8536(2) 0.34176(17) 0.23501(11)
H1 H 0.8030 0.4271 0.1865
N2 N 0.96799(19) 0.16728(17) 0.19662(11)
N3 N 1.1717(2) 0.11827(18) 0.17872(13)
N4 N 1.23426(19) -0.05132(18) 0.14184(12)
N5 N 1.27139(19) -0.39877(16) 0.05455(11)
H2 H 1.3607 -0.3439 0.0326
N6 N 1.32262(19) -0.58876(17) 0.03279(12)
H3 H 1.2390 -0.6030 -0.0139
H4 H 1.3012 -0.6405 0.0988
C1 C 1.0722(2) -0.11070(19) 0.13847(12)
C2 C 0.8985(2) 0.0293(2) 0.17300(12)
C3 C 0.6823(2) 0.0478(2) 0.18371(15)
H5 H 0.6487 -0.0204 0.2504
H6 H 0.6522 -0.0004 0.1126
H7 H 0.6033 0.1766 0.1953
C4 C 0.8227(2) 0.3748(2) 0.35735(13)
C5 C 0.8347(3) 0.2373(2) 0.43672(15)
H8 H 0.8748 0.1139 0.4102
C6 C 0.7878(3) 0.2809(3) 0.55550(15)
H9 H 0.7944 0.1884 0.6107
C7 C 0.7317(3) 0.4608(3) 0.59087(15)
C8 C 0.7211(3) 0.5989(2) 0.51447(16)
H10 H 0.6833 0.7217 0.5419
C9 C 0.7667(2) 0.5559(2) 0.39638(15)
H11 H 0.7597 0.6496 0.3421
C10 C 1.0931(2) -0.30040(19) 0.10693(12)
loop_
_geom_bond_atom_site_label_1
_geom_bond_atom_site_label_2
_geom_bond_site_symmetry_1
_geom_bond_site_symmetry_2
F1 C7 1_555 1_555
O1 C10 1_555 1_555
N1 H1 1_555 1_555
N2 N1 1_555 1_555
N3 N2 1_555 1_555
N4 N3 1_555 1_555
N5 H2 1_555 1_555
N6 N5 1_555 1_555
H3 N6 1_555 1_555
H4 N6 1_555 1_555
C1 N4 1_555 1_555
C2 N2 1_555 1_555
C3 C2 1_555 1_555
H5 C3 1_555 1_555
H6 C3 1_555 1_555
H7 C3 1_555 1_555
C4 N1 1_555 1_555
C5 C4 1_555 1_555
H8 C5 1_555 1_555
C6 C5 1_555 1_555
H9 C6 1_555 1_555
C7 C6 1_555 1_555
C8 C7 1_555 1_555
H10 C8 1_555 1_555
C9 C4 1_555 1_555
H11 C9 1_555 1_555
C10 N5 1_555 1_555
C1 C2 1_555 1_555
C1 C10 1_555 1_555
C8 C9 1_555 1_555

#END
