
#######################################################################
#
#                 Cambridge Crystallographic Data Centre
#                                CCDC 
#
#######################################################################
#
# If this CIF has been generated from an entry in the Cambridge 
# Structural Database, then it will include bibliographic, chemical, 
# crystal, experimental, refinement or atomic coordinate data resulting 
# from the CCDC's data processing and validation procedures.
#
#######################################################################

data_LUHCEY01
_chemical_formula_moiety         'C18 H16 Br2 N2 O2'
_chemical_name_systematic        
1-(3-bromobenzene-1-carbonyl)-N-(3-bromophenyl)prolinamide
_symmetry_cell_setting           orthorhombic
_symmetry_space_group_name_H-M   'P 21 21 21'
_symmetry_Int_Tables_number      19
_space_group_name_Hall           'P 2ac 2ab'
loop_
_symmetry_equiv_pos_site_id
_symmetry_equiv_pos_as_xyz
1 x,y,z
2 1/2-x,-y,1/2+z
3 -x,1/2+y,1/2-z
4 1/2+x,1/2-y,-z
_cell_length_a                   6.9849(2)
_cell_length_b                   13.9288(4)
_cell_length_c                   18.0990(6)
_cell_angle_alpha                90
_cell_angle_beta                 90
_cell_angle_gamma                90
_cell_volume                     1760.87
_exptl_crystal_description       block
_cell_formula_units_Z            4
loop_
_atom_site_label
_atom_site_type_symbol
_atom_site_fract_x
_atom_site_fract_y
_atom_site_fract_z
Br1 Br 0.22045(9) 0.88326(6) 0.25863(3)
Br2 Br 0.67353(11) 0.25689(4) -0.18208(4)
O1 O 0.7019(5) 0.6246(2) -0.03870(19)
C1 C 0.8256(7) 0.7204(3) 0.0993(3)
C2 C 0.7238(7) 0.4571(3) -0.0154(3)
O2 O 0.6974(6) 0.6739(2) 0.1277(2)
C3 C 0.7899(8) 0.5595(3) -0.0073(2)
C4 C 0.6534(8) 0.3201(3) -0.0897(3)
C5 C 1.1663(8) 0.6598(3) 0.1078(3)
H1 H 1.2587 0.7110 0.1011
H2 H 1.1278 0.6580 0.1593
C6 C 0.5577(8) 0.8544(4) 0.1784(3)
H3 H 0.5093 0.7927 0.1723
C7 C 0.6466(8) 0.4105(3) 0.0460(3)
H4 H 0.6480 0.4402 0.0920
C8 C 0.7324(7) 0.8819(3) 0.1464(3)
C9 C 0.4612(8) 0.9223(4) 0.2189(3)
C10 C 0.7291(8) 0.4117(3) -0.0835(3)
H5 H 0.7826 0.4421 -0.1244
N1 N 0.8447(6) 0.8186(3) 0.1045(2)
H6 H 0.9357 0.8440 0.0791
C11 C 0.7963(9) 0.9753(3) 0.1550(3)
H7 H 0.9100 0.9941 0.1325
C12 C 1.0740(7) 0.5037(3) 0.0666(3)
H8 H 1.1024 0.4540 0.0307
H9 H 1.0222 0.4744 0.1109
N2 N 0.9405(6) 0.5763(3) 0.0358(2)
C13 C 0.5676(8) 0.3195(4) 0.0380(3)
H10 H 0.5130 0.2890 0.0785
C14 C 0.6930(9) 1.0412(4) 0.1966(3)
H11 H 0.7387 1.1035 0.2020
C15 C 1.2502(8) 0.5634(4) 0.0839(3)
H12 H 1.3306 0.5706 0.0405
H13 H 1.3247 0.5346 0.1233
C16 C 0.5696(8) 0.2737(3) -0.0302(3)
H14 H 0.5157 0.2131 -0.0358
C17 C 0.9923(7) 0.6741(3) 0.0573(3)
H15 H 1.0267 0.7125 0.0139
C18 C 0.5235(9) 1.0151(4) 0.2299(3)
H16 H 0.4541 1.0582 0.2585
loop_
_geom_bond_atom_site_label_1
_geom_bond_atom_site_label_2
_geom_bond_site_symmetry_1
_geom_bond_site_symmetry_2
Br1 C9 1_555 1_555
Br2 C4 1_555 1_555
O1 C3 1_555 1_555
C1 O2 1_555 1_555
C2 C3 1_555 1_555
C3 N2 1_555 1_555
C4 C10 1_555 1_555
C5 H1 1_555 1_555
H2 C5 1_555 1_555
C6 H3 1_555 1_555
C7 C2 1_555 1_555
H4 C7 1_555 1_555
C8 C6 1_555 1_555
C9 C6 1_555 1_555
C10 C2 1_555 1_555
H5 C10 1_555 1_555
N1 C1 1_555 1_555
H6 N1 1_555 1_555
C11 C8 1_555 1_555
H7 C11 1_555 1_555
C12 H8 1_555 1_555
H9 C12 1_555 1_555
N2 C12 1_555 1_555
C13 C7 1_555 1_555
H10 C13 1_555 1_555
C14 C11 1_555 1_555
H11 C14 1_555 1_555
C15 C5 1_555 1_555
H12 C15 1_555 1_555
H13 C15 1_555 1_555
C16 C4 1_555 1_555
H14 C16 1_555 1_555
C17 C1 1_555 1_555
H15 C17 1_555 1_555
C18 C9 1_555 1_555
H16 C18 1_555 1_555
C5 C17 1_555 1_555
C8 N1 1_555 1_555
C12 C15 1_555 1_555
N2 C17 1_555 1_555
C13 C16 1_555 1_555
C14 C18 1_555 1_555

#END
