
#######################################################################
#
#                 Cambridge Crystallographic Data Centre
#                                CCDC 
#
#######################################################################
#
# If this CIF has been generated from an entry in the Cambridge 
# Structural Database, then it will include bibliographic, chemical, 
# crystal, experimental, refinement or atomic coordinate data resulting 
# from the CCDC's data processing and validation procedures.
#
#######################################################################

data_LUHHAZ
_chemical_formula_moiety         'C33 H44 Br1 O5 P1'
_chemical_name_systematic        
3-((5-bromo-2-((2,2-dimethylpropanoyl)oxy)phenyl)(tributylphosphonio)methyl)-2-oxo-2H-chromen-4-olate
_symmetry_cell_setting           monoclinic
_symmetry_space_group_name_H-M   'P 21/n'
_symmetry_Int_Tables_number      14
_space_group_name_Hall           '-P 2yn'
loop_
_symmetry_equiv_pos_site_id
_symmetry_equiv_pos_as_xyz
1 x,y,z
2 1/2-x,1/2+y,1/2-z
3 -x,-y,-z
4 1/2+x,1/2-y,1/2+z
_cell_length_a                   9.751(4)
_cell_length_b                   26.441(11)
_cell_length_c                   13.527(5)
_cell_angle_alpha                90
_cell_angle_beta                 109.091(8)
_cell_angle_gamma                90
_cell_volume                     3295.8
_exptl_crystal_colour            colorless
_exptl_crystal_description       prism
_cell_formula_units_Z            4
loop_
_atom_site_label
_atom_site_type_symbol
_atom_site_fract_x
_atom_site_fract_y
_atom_site_fract_z
C1 C 0.5860(10) 0.1386(3) 0.1883(7)
C2 C 0.5439(11) 0.1876(3) 0.1523(7)
H1 H 0.5401 0.1975 0.0839
C3 C 0.5084(10) 0.2208(3) 0.2171(6)
H2 H 0.4804 0.2544 0.1945
C4 C 0.5132(9) 0.2055(3) 0.3152(6)
C5 C 0.5528(8) 0.1564(3) 0.3520(6)
C6 C 0.5908(8) 0.1233(3) 0.2857(6)
H3 H 0.6202 0.0898 0.3083
C7 C 0.5598(11) 0.2778(3) 0.4281(6)
C8 C 0.4967(10) 0.3090(3) 0.4976(7)
C9 C 0.3926(14) 0.3472(4) 0.4287(9)
H4 H 0.3499 0.3677 0.4714
H5 H 0.3154 0.3293 0.3749
H6 H 0.4453 0.3692 0.3951
C10 C 0.6200(13) 0.3368(5) 0.5759(9)
H7 H 0.5822 0.3572 0.6217
H8 H 0.6674 0.3590 0.5388
H9 H 0.6906 0.3123 0.6180
C11 C 0.4170(14) 0.2772(4) 0.5533(9)
H10 H 0.3785 0.2990 0.5966
H11 H 0.4838 0.2524 0.5978
H12 H 0.3368 0.2595 0.5017
C12 C 0.5550(8) 0.1409(3) 0.4601(6)
H13 H 0.5363 0.1735 0.4913
C13 C 0.7001(9) 0.1240(3) 0.5358(6)
C14 C 0.7700(10) 0.1616(3) 0.6152(6)
C15 C 0.9675(10) 0.1033(3) 0.6828(7)
C16 C 1.1030(11) 0.0958(4) 0.7643(8)
H14 H 1.1456 0.1213 0.8145
C17 C 1.1697(11) 0.0483(4) 0.7657(8)
H15 H 1.2599 0.0410 0.8179
C18 C 1.1048(11) 0.0130(4) 0.6921(8)
H16 H 1.1515 -0.0187 0.6939
C19 C 0.9728(12) 0.0216(4) 0.6146(8)
H17 H 0.9306 -0.0038 0.5640
C20 C 0.9051(10) 0.0664(3) 0.6118(7)
C21 C 0.7589(9) 0.0772(3) 0.5312(6)
C22 C 0.4220(9) 0.0851(3) 0.5896(6)
H18 H 0.3434 0.0618 0.5915
H19 H 0.5154 0.0669 0.6189
C23 C 0.4219(11) 0.1319(3) 0.6587(6)
H20 H 0.4701 0.1602 0.6354
H21 H 0.3200 0.1420 0.6472
C24 C 0.4947(11) 0.1242(4) 0.7720(7)
H22 H 0.5980 0.1155 0.7852
H23 H 0.4485 0.0956 0.7965
C25 C 0.4842(13) 0.1723(4) 0.8326(8)
H24 H 0.5325 0.1667 0.9075
H25 H 0.3819 0.1806 0.8198
H26 H 0.5315 0.2004 0.8090
C26 C 0.3644(9) 0.0461(3) 0.3767(6)
H27 H 0.4594 0.0302 0.3850
H28 H 0.3085 0.0222 0.4050
C27 C 0.2835(10) 0.0524(3) 0.2591(6)
H29 H 0.1820 0.0626 0.2486
H30 H 0.3300 0.0797 0.2312
C28 C 0.2837(13) 0.0042(4) 0.1993(7)
H31 H 0.2350 -0.0226 0.2267
H32 H 0.3854 -0.0064 0.2125
C29 C 0.2095(16) 0.0086(5) 0.0830(9)
H33 H 0.2128 -0.0241 0.0499
H34 H 0.2593 0.0341 0.0545
H35 H 0.1082 0.0187 0.0689
C30 C 0.2423(8) 0.1431(3) 0.4102(6)
H36 H 0.2632 0.1745 0.4524
H37 H 0.2288 0.1525 0.3368
C31 C 0.0996(9) 0.1205(3) 0.4155(8)
H38 H 0.0748 0.0903 0.3696
H39 H 0.1142 0.1092 0.4880
C32 C -0.0272(10) 0.1575(4) 0.3824(8)
H40 H -0.0370 0.1708 0.3120
H41 H -0.1177 0.1391 0.3773
C33 C -0.0107(12) 0.2012(4) 0.4564(10)
H42 H -0.0945 0.2238 0.4302
H43 H 0.0783 0.2199 0.4615
H44 H -0.0051 0.1885 0.5257
O1 O 0.7226(8) 0.2027(2) 0.6254(5)
O2 O 0.6987(6) 0.0428(2) 0.4651(5)
O3 O 0.9047(7) 0.1496(2) 0.6850(5)
O4 O 0.4679(6) 0.23836(19) 0.3810(4)
O5 O 0.6702(7) 0.2856(2) 0.4106(5)
P1 P 0.3966(2) 0.10214(7) 0.45572(15)
Br1 Br 0.63683(16) 0.09146(4) 0.09908(9)
loop_
_geom_bond_atom_site_label_1
_geom_bond_atom_site_label_2
_geom_bond_site_symmetry_1
_geom_bond_site_symmetry_2
C1 C2 1_555 1_555
C2 H1 1_555 1_555
C3 C2 1_555 1_555
H2 C3 1_555 1_555
C4 C3 1_555 1_555
C5 C4 1_555 1_555
C6 C1 1_555 1_555
H3 C6 1_555 1_555
C7 C8 1_555 1_555
C8 C9 1_555 1_555
C9 H4 1_555 1_555
H5 C9 1_555 1_555
H6 C9 1_555 1_555
C10 C8 1_555 1_555
H7 C10 1_555 1_555
H8 C10 1_555 1_555
H9 C10 1_555 1_555
C11 C8 1_555 1_555
H10 C11 1_555 1_555
H11 C11 1_555 1_555
H12 C11 1_555 1_555
C12 C5 1_555 1_555
H13 C12 1_555 1_555
C13 C12 1_555 1_555
C14 C13 1_555 1_555
C15 C16 1_555 1_555
C16 H14 1_555 1_555
C17 C16 1_555 1_555
H15 C17 1_555 1_555
C18 C17 1_555 1_555
H16 C18 1_555 1_555
C19 C18 1_555 1_555
H17 C19 1_555 1_555
C20 C15 1_555 1_555
C21 C13 1_555 1_555
C22 H18 1_555 1_555
H19 C22 1_555 1_555
C23 C22 1_555 1_555
H20 C23 1_555 1_555
H21 C23 1_555 1_555
C24 C23 1_555 1_555
H22 C24 1_555 1_555
H23 C24 1_555 1_555
C25 C24 1_555 1_555
H24 C25 1_555 1_555
H25 C25 1_555 1_555
H26 C25 1_555 1_555
C26 H27 1_555 1_555
H28 C26 1_555 1_555
C27 C26 1_555 1_555
H29 C27 1_555 1_555
H30 C27 1_555 1_555
C28 C27 1_555 1_555
H31 C28 1_555 1_555
H32 C28 1_555 1_555
C29 C28 1_555 1_555
H33 C29 1_555 1_555
H34 C29 1_555 1_555
H35 C29 1_555 1_555
C30 H36 1_555 1_555
H37 C30 1_555 1_555
C31 C30 1_555 1_555
H38 C31 1_555 1_555
H39 C31 1_555 1_555
C32 C31 1_555 1_555
H40 C32 1_555 1_555
H41 C32 1_555 1_555
C33 C32 1_555 1_555
H42 C33 1_555 1_555
H43 C33 1_555 1_555
H44 C33 1_555 1_555
O1 C14 1_555 1_555
O2 C21 1_555 1_555
O3 C14 1_555 1_555
O4 C4 1_555 1_555
O5 C7 1_555 1_555
P1 C12 1_555 1_555
Br1 C1 1_555 1_555
C5 C6 1_555 1_555
C7 O4 1_555 1_555
C15 O3 1_555 1_555
C19 C20 1_555 1_555
C20 C21 1_555 1_555
C22 P1 1_555 1_555
C26 P1 1_555 1_555
C30 P1 1_555 1_555

#END
