
#######################################################################
#
#                 Cambridge Crystallographic Data Centre
#                                CCDC 
#
#######################################################################
#
# If this CIF has been generated from an entry in the Cambridge 
# Structural Database, then it will include bibliographic, chemical, 
# crystal, experimental, refinement or atomic coordinate data resulting 
# from the CCDC's data processing and validation procedures.
#
#######################################################################

data_LUHMUX
_chemical_formula_moiety         'C40 H30 B2 N2 O2,2(C4 H8 O1)'
_chemical_name_systematic        
"6,6,14,14-Tetraphenyl-6,14-dihydro-5\l^5^,13\l^5^,6\l^5^,14\l^5^-pyrido[1,2-c]pyrido[1',2':3,4][1,3,2]oxazaborinino[6,5-g][1,3,2]benzoxazaborinine tetrahydrofuran solvate"
_symmetry_cell_setting           triclinic
_symmetry_space_group_name_H-M   'P -1'
_symmetry_Int_Tables_number      2
_space_group_name_Hall           '-P 1'
loop_
_symmetry_equiv_pos_site_id
_symmetry_equiv_pos_as_xyz
1 x,y,z
2 -x,-y,-z
_cell_length_a                   8.2475(16)
_cell_length_b                   10.362(2)
_cell_length_c                   13.198(3)
_cell_angle_alpha                81.85(3)
_cell_angle_beta                 80.81(3)
_cell_angle_gamma                82.81(3)
_cell_volume                     1096.1
_exptl_crystal_colour            yellow
_exptl_crystal_description       block
_cell_formula_units_Z            1
loop_
_atom_site_label
_atom_site_type_symbol
_atom_site_fract_x
_atom_site_fract_y
_atom_site_fract_z
B1 B 0.1222(12) 0.9431(10) 0.7279(6)
C1 C -0.1281(11) 0.8468(10) 0.6818(6)
H1 H -0.0607 0.8269 0.6214
C2 C -0.2932(13) 0.8254(11) 0.6957(8)
H2 H -0.3391 0.7984 0.6432
C3 C -0.3865(12) 0.8450(12) 0.7884(7)
H3 H -0.4965 0.8281 0.8004
C4 C -0.3205(11) 0.8891(11) 0.8636(7)
H4 H -0.3847 0.8994 0.9271
C5 C -0.1576(11) 0.9190(9) 0.8460(6)
C6 C -0.0768(11) 0.9644(8) 0.9217(5)
C7 C -0.1702(10) 1.0090(10) 1.0116(6)
H5 H -0.2848 1.0147 1.0195
C8 C 0.0945(10) 0.9559(9) 0.9120(6)
C9 C 0.0999(11) 1.0956(10) 0.6911(7)
C10 C 0.0029(13) 1.1505(12) 0.6160(8)
H6 H -0.0551 1.0950 0.5893
C11 C -0.0134(16) 1.2817(13) 0.5782(9)
H7 H -0.0796 1.3128 0.5273
C12 C 0.0714(19) 1.3669(14) 0.6178(10)
H8 H 0.0613 1.4563 0.5954
C13 C 0.1725(18) 1.3130(14) 0.6926(9)
H9 H 0.2314 1.3683 0.7188
C14 C 0.1876(14) 1.1825(11) 0.7282(8)
H10 H 0.2565 1.1508 0.7775
C15 C 0.2361(11) 0.8557(10) 0.6479(6)
C16 C 0.3102(12) 0.9080(11) 0.5542(6)
H11 H 0.2896 0.9976 0.5346
C17 C 0.4163(13) 0.8328(14) 0.4858(7)
H12 H 0.4632 0.8713 0.4216
C18 C 0.4490(15) 0.7028(16) 0.5155(10)
H13 H 0.5205 0.6519 0.4713
C19 C 0.3797(15) 0.6459(12) 0.6077(9)
H14 H 0.4025 0.5564 0.6268
C20 C 0.2742(13) 0.7220(11) 0.6738(8)
H15 H 0.2274 0.6822 0.7375
N1 N -0.0628(8) 0.8955(7) 0.7536(5)
O1 O 0.1880(7) 0.9116(6) 0.8284(4)
B1A B -0.1222(12) 1.0569(10) 1.2721(6)
C1A C 0.1281(11) 1.1532(10) 1.3182(6)
H1A H 0.0607 1.1731 1.3786
C2A C 0.2932(13) 1.1746(11) 1.3043(8)
H2A H 0.3391 1.2016 1.3568
C3A C 0.3865(12) 1.1550(12) 1.2116(7)
H3A H 0.4965 1.1719 1.1996
C4A C 0.3205(11) 1.1109(11) 1.1364(7)
H4A H 0.3847 1.1006 1.0729
C5A C 0.1576(11) 1.0810(9) 1.1540(6)
C6A C 0.0768(11) 1.0356(8) 1.0783(5)
C7A C 0.1702(10) 0.9910(10) 0.9884(6)
H5A H 0.2848 0.9853 0.9805
C8A C -0.0945(10) 1.0441(9) 1.0880(6)
C9A C -0.0999(11) 0.9044(10) 1.3089(7)
C10A C -0.0029(13) 0.8495(12) 1.3840(8)
H6A H 0.0551 0.9050 1.4107
C11A C 0.0134(16) 0.7183(13) 1.4218(9)
H7A H 0.0796 0.6872 1.4727
C12A C -0.0714(19) 0.6331(14) 1.3822(10)
H8A H -0.0613 0.5437 1.4046
C13A C -0.1725(18) 0.6870(14) 1.3074(9)
H9A H -0.2314 0.6317 1.2812
C14A C -0.1876(14) 0.8175(11) 1.2718(8)
H10A H -0.2565 0.8492 1.2225
C15A C -0.2361(11) 1.1443(10) 1.3521(6)
C16A C -0.3102(12) 1.0920(11) 1.4458(6)
H11A H -0.2896 1.0024 1.4654
C17A C -0.4163(13) 1.1672(14) 1.5142(7)
H12A H -0.4632 1.1287 1.5784
C18A C -0.4490(15) 1.2972(16) 1.4845(10)
H13A H -0.5205 1.3481 1.5287
C19A C -0.3797(15) 1.3541(12) 1.3923(9)
H14A H -0.4025 1.4436 1.3732
C20A C -0.2742(13) 1.2780(11) 1.3262(8)
H15A H -0.2274 1.3178 1.2625
N1A N 0.0628(8) 1.1045(7) 1.2464(5)
O1A O -0.1880(7) 1.0884(6) 1.1716(4)
C21 C 0.546(5) 0.330(3) 0.9434(19)
H16 H 0.6370 0.3176 0.9831
H17 H 0.4437 0.3476 0.9896
C22 C 0.568(4) 0.442(2) 0.8573(18)
H18 H 0.4632 0.4927 0.8484
H19 H 0.6434 0.4994 0.8719
C23 C 0.638(3) 0.378(3) 0.7639(15)
H20 H 0.5729 0.4074 0.7081
H21 H 0.7513 0.3956 0.7403
C24 C 0.627(3) 0.240(3) 0.8009(15)
H22 H 0.5742 0.2013 0.7534
H23 H 0.7373 0.1953 0.8015
O2 O 0.5406(18) 0.2200(15) 0.8966(12)
loop_
_geom_bond_atom_site_label_1
_geom_bond_atom_site_label_2
_geom_bond_site_symmetry_1
_geom_bond_site_symmetry_2
B1 C9 1_555 1_555
C1 H1 1_555 1_555
C2 C1 1_555 1_555
H2 C2 1_555 1_555
C3 C2 1_555 1_555
H3 C3 1_555 1_555
C4 C3 1_555 1_555
H4 C4 1_555 1_555
C5 C4 1_555 1_555
C6 C5 1_555 1_555
C7 C6 1_555 1_555
H5 C7 1_555 1_555
C8 C6 1_555 1_555
C9 C10 1_555 1_555
C10 H6 1_555 1_555
C11 C10 1_555 1_555
H7 C11 1_555 1_555
C12 C11 1_555 1_555
H8 C12 1_555 1_555
C13 C12 1_555 1_555
H9 C13 1_555 1_555
C14 C9 1_555 1_555
H10 C14 1_555 1_555
C15 B1 1_555 1_555
C16 C15 1_555 1_555
H11 C16 1_555 1_555
C17 C16 1_555 1_555
H12 C17 1_555 1_555
C18 C17 1_555 1_555
H13 C18 1_555 1_555
C19 C18 1_555 1_555
H14 C19 1_555 1_555
C20 C15 1_555 1_555
H15 C20 1_555 1_555
C21 H16 1_555 1_555
H17 C21 1_555 1_555
C22 C21 1_555 1_555
H18 C22 1_555 1_555
H19 C22 1_555 1_555
C23 C22 1_555 1_555
H20 C23 1_555 1_555
H21 C23 1_555 1_555
C24 C23 1_555 1_555
H22 C24 1_555 1_555
H23 C24 1_555 1_555
N1 B1 1_555 1_555
O1 B1 1_555 1_555
O2 C21 1_555 1_555
B1A C9A 1_555 1_555
C1A H1A 1_555 1_555
C2A C1A 1_555 1_555
H2A C2A 1_555 1_555
C3A C2A 1_555 1_555
H3A C3A 1_555 1_555
C4A C3A 1_555 1_555
H4A C4A 1_555 1_555
C5A C4A 1_555 1_555
C6A C5A 1_555 1_555
C7A C8 1_555 1_555
H5A C7A 1_555 1_555
C8A C7 1_555 1_555
C9A C10A 1_555 1_555
C10A H6A 1_555 1_555
C11A C10A 1_555 1_555
H7A C11A 1_555 1_555
C12A C11A 1_555 1_555
H8A C12A 1_555 1_555
C13A C12A 1_555 1_555
H9A C13A 1_555 1_555
C14A C9A 1_555 1_555
H10A C14A 1_555 1_555
C15A B1A 1_555 1_555
C16A C15A 1_555 1_555
H11A C16A 1_555 1_555
C17A C16A 1_555 1_555
H12A C17A 1_555 1_555
C18A C17A 1_555 1_555
H13A C18A 1_555 1_555
C19A C18A 1_555 1_555
H14A C19A 1_555 1_555
C20A C15A 1_555 1_555
H15A C20A 1_555 1_555
N1A B1A 1_555 1_555
O1A B1A 1_555 1_555
C1 N1 1_555 1_555
C5 N1 1_555 1_555
C8 O1 1_555 1_555
C13 C14 1_555 1_555
C19 C20 1_555 1_555
C24 O2 1_555 1_555
C1A N1A 1_555 1_555
C5A N1A 1_555 1_555
C6A C7A 1_555 1_555
C6A C8A 1_555 1_555
C8A O1A 1_555 1_555
C13A C14A 1_555 1_555
C19A C20A 1_555 1_555

#END
