
#######################################################################
#
#                 Cambridge Crystallographic Data Centre
#                                CCDC 
#
#######################################################################
#
# If this CIF has been generated from an entry in the Cambridge 
# Structural Database, then it will include bibliographic, chemical, 
# crystal, experimental, refinement or atomic coordinate data resulting 
# from the CCDC's data processing and validation procedures.
#
#######################################################################

data_LUJYOE
_chemical_formula_moiety         'C23 H22 Br1 N1 O1'
_chemical_name_systematic        
7,7-Dimethyl-2-(4-bromophenyl)-4-phenyl-5-oxo-1,4,5,6,7,8-hexahydroquinoline
_symmetry_cell_setting           monoclinic
_symmetry_space_group_name_H-M   'C 2/c'
_symmetry_Int_Tables_number      15
_space_group_name_Hall           '-C 2yn'
loop_
_symmetry_equiv_pos_site_id
_symmetry_equiv_pos_as_xyz
1 x,y,z
2 -x,y,1/2-z
3 1/2+x,1/2+y,z
4 1/2-x,1/2+y,1/2-z
5 -x,-y,-z
6 x,-y,1/2+z
7 1/2-x,1/2-y,-z
8 1/2+x,1/2-y,1/2+z
_cell_length_a                   19.687(4)
_cell_length_b                   13.571(2)
_cell_length_c                   17.311(3)
_cell_angle_alpha                90
_cell_angle_beta                 118.74(1)
_cell_angle_gamma                90
_cell_volume                     4055.27
_cell_formula_units_Z            8
loop_
_atom_site_label
_atom_site_type_symbol
_atom_site_fract_x
_atom_site_fract_y
_atom_site_fract_z
O1 O 0.2120(2) 0.5355(3) 0.6960(2)
N1 N 0.2194(2) 0.2209(3) 0.8099(3)
C1 C 0.1330(4) 0.0213(4) 0.9890(4)
C2 C 0.2056(4) 0.0477(4) 1.0076(3)
C3 C 0.2164(3) 0.1195(4) 0.9590(3)
C4 C 0.1531(3) 0.1661(3) 0.8900(3)
C5 C 0.0798(3) 0.1388(5) 0.8735(4)
C6 C 0.0696(4) 0.0659(5) 0.9226(5)
C7 C 0.1633(3) 0.2423(4) 0.8354(3)
C8 C 0.1282(3) 0.3282(4) 0.8155(3)
C9 C 0.1376(3) 0.4051(3) 0.7576(3)
C10 C 0.2085(3) 0.3785(4) 0.7483(3)
C11 C 0.2422(3) 0.2889(4) 0.7708(4)
C12 C 0.3094(4) 0.2596(5) 0.7587(6)
C13 C 0.3303(4) 0.3261(5) 0.7076(5)
C14 C 0.3984(5) 0.3016(6) 0.6985(7)
C15 C 0.2638(6) 0.3028(7) 0.6097(7)
C16 C 0.3100(4) 0.4291(5) 0.7080(6)
C17 C 0.2397(3) 0.4526(4) 0.7157(4)
C18 C 0.0654(3) 0.4143(4) 0.6713(4)
C19 C 0.0198(4) 0.4955(6) 0.6527(5)
C20 C -0.0479(7) 0.5034(12) 0.5758(10)
C21 C -0.0694(7) 0.4297(13) 0.5168(8)
C22 C -0.0268(6) 0.3462(9) 0.5319(6)
C23 C 0.0420(4) 0.3389(6) 0.6110(4)
Br1 Br 0.1192(1) -0.0821(1) 1.0539(1)
loop_
_geom_bond_atom_site_label_1
_geom_bond_atom_site_label_2
_geom_bond_site_symmetry_1
_geom_bond_site_symmetry_2
O1 C17 1_555 1_555
N1 C7 1_555 1_555
C1 C2 1_555 1_555
C2 C3 1_555 1_555
C3 C4 1_555 1_555
C4 C5 1_555 1_555
C5 C6 1_555 1_555
C6 C1 1_555 1_555
C7 C4 1_555 1_555
C8 C7 1_555 1_555
C9 C8 1_555 1_555
C10 C9 1_555 1_555
C11 N1 1_555 1_555
C12 C11 1_555 1_555
C13 C12 1_555 1_555
C14 C13 1_555 1_555
C15 C13 1_555 1_555
C16 C13 1_555 1_555
C17 C10 1_555 1_555
C18 C9 1_555 1_555
C19 C18 1_555 1_555
C20 C19 1_555 1_555
C21 C20 1_555 1_555
C22 C21 1_555 1_555
C23 C18 1_555 1_555
Br1 C1 1_555 1_555
C10 C11 1_555 1_555
C16 C17 1_555 1_555
C22 C23 1_555 1_555

#END
