
#######################################################################
#
#                 Cambridge Crystallographic Data Centre
#                                CCDC 
#
#######################################################################
#
# If this CIF has been generated from an entry in the Cambridge 
# Structural Database, then it will include bibliographic, chemical, 
# crystal, experimental, refinement or atomic coordinate data resulting 
# from the CCDC's data processing and validation procedures.
#
#######################################################################

data_LUKDIE
_chemical_formula_moiety         'C26 H25 N1 O2 S1'
_chemical_name_systematic        
4-Phenyl-2-(p-methoxyphenyl)-1,5-benzothiazepine-\a,\a-dimethyl-\b-lactam
_symmetry_cell_setting           triclinic
_symmetry_space_group_name_H-M   'P -1'
_symmetry_Int_Tables_number      2
_space_group_name_Hall           '-P 1'
loop_
_symmetry_equiv_pos_site_id
_symmetry_equiv_pos_as_xyz
1 x,y,z
2 -x,-y,-z
_cell_length_a                   9.299(3)
_cell_length_b                   10.134(3)
_cell_length_c                   12.455(4)
_cell_angle_alpha                98.457(5)
_cell_angle_beta                 106.143(5)
_cell_angle_gamma                103.843(5)
_cell_volume                     1065.59
_chemical_melting_point          187-189deg.C
_cell_formula_units_Z            2
loop_
_atom_site_label
_atom_site_type_symbol
_atom_site_fract_x
_atom_site_fract_y
_atom_site_fract_z
S1 S 0.4313(1) 0.8058(1) 0.5617(1)
N1 N 0.7710(2) 0.9516(1) 0.7504(1)
O1 O 0.9458(2) 1.1474(2) 0.8944(1)
O2 O 0.2991(2) 0.5570(1) 0.0227(1)
C1 C 0.9047(2) 1.0621(2) 0.8048(2)
C2 C 0.9761(2) 1.0336(2) 0.7100(2)
C3 C 0.8351(2) 0.8905(2) 0.6628(1)
C4 C 0.9637(2) 1.1405(2) 0.6353(2)
C5 C 1.1429(2) 1.0237(2) 0.7478(2)
C6 C 0.7297(2) 0.8651(2) 0.5392(1)
C7 C 0.5756(2) 0.7479(2) 0.5070(1)
C8 C 0.4946(2) 0.8210(2) 0.7121(1)
C9 C 0.3764(2) 0.7676(2) 0.7569(2)
C10 C 0.4035(2) 0.7875(2) 0.8733(2)
C11 C 0.5520(2) 0.8593(2) 0.9489(2)
C12 C 0.6723(2) 0.9098(2) 0.9070(2)
C13 C 0.6455(2) 0.8929(2) 0.7895(1)
C14 C 0.8835(2) 0.7627(2) 0.6922(2)
C15 C 0.8853(2) 0.6563(2) 0.6083(2)
C16 C 0.9262(3) 0.5396(2) 0.6374(2)
C17 C 0.9690(3) 0.5280(2) 0.7501(2)
C18 C 0.9734(2) 0.6345(2) 0.8345(2)
C19 C 0.9301(2) 0.7494(2) 0.8060(2)
C20 C 0.5008(2) 0.6961(2) 0.3783(1)
C21 C 0.4920(2) 0.5625(2) 0.3257(2)
C22 C 0.4268(2) 0.5118(2) 0.2076(2)
C23 C 0.3682(2) 0.5961(2) 0.1397(2)
C24 C 0.3777(2) 0.7310(2) 0.1906(2)
C25 C 0.4434(2) 0.7804(2) 0.3077(2)
C26 C 0.2848(3) 0.4190(2) -0.0341(2)
loop_
_geom_bond_atom_site_label_1
_geom_bond_atom_site_label_2
_geom_bond_site_symmetry_1
_geom_bond_site_symmetry_2
S1 C7 1_555 1_555
N1 C1 1_555 1_555
O1 C1 1_555 1_555
O2 C23 1_555 1_555
C1 C2 1_555 1_555
C2 C3 1_555 1_555
C3 N1 1_555 1_555
C4 C2 1_555 1_555
C5 C2 1_555 1_555
C6 C3 1_555 1_555
C7 C6 1_555 1_555
C8 S1 1_555 1_555
C9 C8 1_555 1_555
C10 C9 1_555 1_555
C11 C10 1_555 1_555
C12 C11 1_555 1_555
C13 N1 1_555 1_555
C14 C3 1_555 1_555
C15 C14 1_555 1_555
C16 C15 1_555 1_555
C17 C16 1_555 1_555
C18 C17 1_555 1_555
C19 C14 1_555 1_555
C20 C7 1_555 1_555
C21 C20 1_555 1_555
C22 C21 1_555 1_555
C23 C22 1_555 1_555
C24 C23 1_555 1_555
C25 C20 1_555 1_555
C26 O2 1_555 1_555
C8 C13 1_555 1_555
C12 C13 1_555 1_555
C18 C19 1_555 1_555
C24 C25 1_555 1_555

#END
