
#######################################################################
#
#                 Cambridge Crystallographic Data Centre
#                                CCDC 
#
#######################################################################
#
# If this CIF has been generated from an entry in the Cambridge 
# Structural Database, then it will include bibliographic, chemical, 
# crystal, experimental, refinement or atomic coordinate data resulting 
# from the CCDC's data processing and validation procedures.
#
#######################################################################

data_LULHAC
_chemical_formula_moiety         'C29 H30 B1 N1'
_chemical_name_systematic        5-(Dimesitylboryl)-2-phenylpyridine
_symmetry_cell_setting           monoclinic
_symmetry_space_group_name_H-M   'P 21/n'
_symmetry_Int_Tables_number      14
_space_group_name_Hall           '-P 2yn'
loop_
_symmetry_equiv_pos_site_id
_symmetry_equiv_pos_as_xyz
1 x,y,z
2 1/2-x,1/2+y,1/2-z
3 -x,-y,-z
4 1/2+x,1/2-y,1/2+z
_cell_length_a                   11.1315(8)
_cell_length_b                   11.2884(8)
_cell_length_c                   19.7740(14)
_cell_angle_alpha                90
_cell_angle_beta                 104.9990(10)
_cell_angle_gamma                90
_cell_volume                     2400.08
_exptl_crystal_description       block
_cell_formula_units_Z            4
loop_
_atom_site_label
_atom_site_type_symbol
_atom_site_fract_x
_atom_site_fract_y
_atom_site_fract_z
B1 B 0.34876(15) 0.37958(14) 0.09792(8)
N1 N 0.68397(12) 0.28706(11) 0.19037(8)
C1 C 0.25848(12) 0.48211(12) 0.10705(7)
C2 C 0.24244(12) 0.50942(13) 0.17388(8)
C3 C 0.15282(14) 0.59116(15) 0.18033(9)
H1 H 0.1413 0.6058 0.2245
C4 C 0.08032(15) 0.65138(16) 0.12371(10)
C5 C 0.10043(15) 0.62841(15) 0.05907(10)
H2 H 0.0546 0.6703 0.0205
C6 C 0.18629(13) 0.54543(14) 0.04922(8)
C7 C 0.20315(17) 0.52688(18) -0.02341(9)
H3 H 0.1349 0.5624 -0.0572
H4 H 0.2056 0.4435 -0.0326
H5 H 0.2796 0.5629 -0.0266
C8 C -0.0182(2) 0.7381(2) 0.13210(14)
H6 H -0.0453 0.7179 0.1730
H7 H -0.0877 0.7347 0.0915
H8 H 0.0157 0.8168 0.1371
C9 C 0.31834(16) 0.45093(17) 0.23985(8)
H9 H 0.2768 0.4600 0.2764
H10 H 0.3989 0.4874 0.2538
H11 H 0.3276 0.3682 0.2312
C10 C 0.30206(12) 0.26326(13) 0.05445(7)
C11 C 0.20780(12) 0.19150(13) 0.06941(8)
C12 C 0.17739(14) 0.08343(15) 0.03522(9)
H12 H 0.1170 0.0363 0.0467
C13 C 0.23352(16) 0.04400(16) -0.01483(10)
C14 C 0.32256(16) 0.11591(17) -0.03102(10)
H13 H 0.3601 0.0914 -0.0655
C15 C 0.35804(14) 0.22299(15) 0.00209(8)
C16 C 0.1997(2) -0.0746(2) -0.05101(16)
H14 H 0.1507 -0.1195 -0.0267
H15 H 0.2743 -0.1175 -0.0507
H16 H 0.1528 -0.0617 -0.0985
C17 C 0.4539(2) 0.2951(2) -0.02157(12)
H17 H 0.4485 0.2782 -0.0698
H18 H 0.5355 0.2752 0.0065
H19 H 0.4387 0.3779 -0.0164
C18 C 0.14084(15) 0.22525(16) 0.12371(9)
H20 H 0.0793 0.1664 0.1251
H21 H 0.1011 0.3007 0.1119
H22 H 0.1995 0.2302 0.1688
C19 C 0.56542(14) 0.28907(13) 0.15319(10)
H23 H 0.5297 0.2167 0.1366
C20 C 0.49027(12) 0.38860(12) 0.13686(8)
C21 C 0.54882(12) 0.49523(12) 0.16096(8)
H24 H 0.5043 0.5657 0.1520
C22 C 0.67225(13) 0.49725(12) 0.19809(8)
H25 H 0.7116 0.5689 0.2129
C23 C 0.73700(12) 0.39135(12) 0.21316(8)
C24 C 0.86785(12) 0.38604(12) 0.25649(8)
C25 C 0.91674(13) 0.47470(14) 0.30409(9)
H26 H 0.8690 0.5411 0.3072
C26 C 1.03613(15) 0.46519(16) 0.34696(9)
H27 H 1.0677 0.5248 0.3791
C27 C 1.10829(14) 0.36863(15) 0.34238(9)
H28 H 1.1881 0.3621 0.3717
C28 C 1.06204(14) 0.28200(15) 0.29438(10)
H29 H 1.1115 0.2173 0.2904
C29 C 0.94232(14) 0.28973(14) 0.25164(10)
H30 H 0.9117 0.2299 0.2195
loop_
_geom_bond_atom_site_label_1
_geom_bond_atom_site_label_2
_geom_bond_site_symmetry_1
_geom_bond_site_symmetry_2
B1 C1 1_555 1_555
N1 C19 1_555 1_555
C1 C2 1_555 1_555
C2 C3 1_555 1_555
C3 H1 1_555 1_555
C4 C3 1_555 1_555
C5 C4 1_555 1_555
H2 C5 1_555 1_555
C6 C1 1_555 1_555
C7 C6 1_555 1_555
H3 C7 1_555 1_555
H4 C7 1_555 1_555
H5 C7 1_555 1_555
C8 C4 1_555 1_555
H6 C8 1_555 1_555
H7 C8 1_555 1_555
H8 C8 1_555 1_555
C9 C2 1_555 1_555
H9 C9 1_555 1_555
H10 C9 1_555 1_555
H11 C9 1_555 1_555
C10 B1 1_555 1_555
C11 C10 1_555 1_555
C12 C11 1_555 1_555
H12 C12 1_555 1_555
C13 C12 1_555 1_555
C14 C13 1_555 1_555
H13 C14 1_555 1_555
C15 C10 1_555 1_555
C16 C13 1_555 1_555
H14 C16 1_555 1_555
H15 C16 1_555 1_555
H16 C16 1_555 1_555
C17 C15 1_555 1_555
H17 C17 1_555 1_555
H18 C17 1_555 1_555
H19 C17 1_555 1_555
C18 C11 1_555 1_555
H20 C18 1_555 1_555
H21 C18 1_555 1_555
H22 C18 1_555 1_555
C19 H23 1_555 1_555
C20 B1 1_555 1_555
C21 C20 1_555 1_555
H24 C21 1_555 1_555
C22 C21 1_555 1_555
H25 C22 1_555 1_555
C23 N1 1_555 1_555
C24 C23 1_555 1_555
C25 C24 1_555 1_555
H26 C25 1_555 1_555
C26 C25 1_555 1_555
H27 C26 1_555 1_555
C27 C26 1_555 1_555
H28 C27 1_555 1_555
C28 C27 1_555 1_555
H29 C28 1_555 1_555
C29 C24 1_555 1_555
H30 C29 1_555 1_555
C5 C6 1_555 1_555
C14 C15 1_555 1_555
C19 C20 1_555 1_555
C22 C23 1_555 1_555
C28 C29 1_555 1_555

#END
