
#######################################################################
#
#                 Cambridge Crystallographic Data Centre
#                                CCDC 
#
#######################################################################
#
# If this CIF has been generated from an entry in the Cambridge 
# Structural Database, then it will include bibliographic, chemical, 
# crystal, experimental, refinement or atomic coordinate data resulting 
# from the CCDC's data processing and validation procedures.
#
#######################################################################

data_LULRUH
_chemical_formula_moiety         'C23 H26 N2 O4 S2'
_chemical_name_systematic        
'6-methyl-2,5-bis((4-methylphenyl)sulfonyl)-1,2,3,5,6,8a-hexahydropyrrolo[3,4-c]azepine unknown solvate'
_symmetry_cell_setting           orthorhombic
_symmetry_space_group_name_H-M   'P 21 21 21'
_symmetry_Int_Tables_number      19
_space_group_name_Hall           'P 2ac 2ab'
loop_
_symmetry_equiv_pos_site_id
_symmetry_equiv_pos_as_xyz
1 x,y,z
2 1/2-x,-y,1/2+z
3 -x,1/2+y,1/2-z
4 1/2+x,1/2-y,-z
_cell_length_a                   8.4926(4)
_cell_length_b                   15.1772(8)
_cell_length_c                   21.5393(11)
_cell_angle_alpha                90
_cell_angle_beta                 90
_cell_angle_gamma                90
_cell_volume                     2776.28
_exptl_crystal_colour            colorless
_exptl_crystal_description       block
_cell_formula_units_Z            4
loop_
_atom_site_label
_atom_site_type_symbol
_atom_site_fract_x
_atom_site_fract_y
_atom_site_fract_z
S1 S 0.43946(11) -0.30293(6) 1.57205(4)
S2 S 0.25249(13) 0.17003(6) 1.57130(5)
N1 N 0.4237(3) -0.19652(18) 1.56092(12)
N2 N 0.3958(3) 0.1095(2) 1.59948(15)
O1 O 0.4781(3) -0.34087(17) 1.51303(12)
O2 O 0.3021(3) -0.33080(18) 1.60398(14)
O3 O 0.3038(4) 0.25939(18) 1.57575(15)
O4 O 0.1110(4) 0.1429(2) 1.60139(13)
C1 C 0.8616(5) -0.3335(3) 1.69972(16)
C2 C 0.8823(5) -0.3291(3) 1.63676(16)
H1 H 0.9833 -0.3310 1.6201
C3 C 0.7511(4) -0.3217(2) 1.59729(15)
H2 H 0.7655 -0.3182 1.5546
C4 C 0.6027(4) -0.3195(2) 1.62165(14)
C5 C 0.5801(4) -0.3228(3) 1.68541(15)
H3 H 0.4795 -0.3195 1.7023
C6 C 0.7086(5) -0.3310(3) 1.72253(16)
H4 H 0.6935 -0.3351 1.7652
C7 C 1.0040(6) -0.3403(3) 1.7415(2)
H5 H 0.9705 -0.3431 1.7840
H6 H 1.0699 -0.2896 1.7356
H7 H 1.0621 -0.3927 1.7313
C8 C 0.2366(5) 0.1424(2) 1.49196(18)
C9 C 0.3302(5) 0.1832(3) 1.4491(2)
H8 H 0.4019 0.2256 1.4621
C10 C 0.3208(7) 0.1634(4) 1.3893(2)
H9 H 0.3873 0.1913 1.3612
C11 C 0.2119(8) 0.1011(4) 1.3679(2)
C12 C 0.1211(6) 0.0600(3) 1.4109(2)
H10 H 0.0510 0.0165 1.3981
C13 C 0.1303(5) 0.0813(3) 1.4732(2)
H11 H 0.0644 0.0541 1.5019
C14 C 0.2008(10) 0.0814(5) 1.2985(3)
H12 H 0.1209 0.0377 1.2914
H13 H 0.3003 0.0596 1.2839
H14 H 0.1742 0.1343 1.2764
C15 C 0.5588(5) 0.1367(3) 1.59307(18)
H15 H 0.5580 0.1985 1.5797
C16 C 0.6514(5) 0.0857(3) 1.54527(18)
H16 H 0.7420 0.1141 1.5315
C17 C 0.6272(5) 0.0099(3) 1.52015(18)
H17 H 0.7038 -0.0078 1.4919
C18 C 0.4933(4) -0.0554(2) 1.52929(14)
H18 H 0.4188 -0.0478 1.4950
C19 C 0.5507(4) -0.1509(2) 1.52847(15)
H19 H 0.5626 -0.1725 1.4863
H20 H 0.6501 -0.1572 1.5503
C20 C 0.3716(5) -0.1422(3) 1.61242(17)
H21 H 0.4317 -0.1546 1.6497
H22 H 0.2606 -0.1512 1.6210
C21 C 0.4027(4) -0.0487(2) 1.58917(15)
C22 C 0.3555(4) 0.0209(3) 1.61849(16)
H23 H 0.2926 0.0136 1.6535
C23 C 0.6448(6) 0.1332(3) 1.6561(2)
H24 H 0.5857 0.1658 1.6864
H25 H 0.7477 0.1587 1.6518
H26 H 0.6545 0.0731 1.6692
loop_
_geom_bond_atom_site_label_1
_geom_bond_atom_site_label_2
_geom_bond_site_symmetry_1
_geom_bond_site_symmetry_2
S1 N1 1_555 1_555
S2 N2 1_555 1_555
N1 C19 1_555 1_555
N2 C15 1_555 1_555
O1 S1 1_555 1_555
O2 S1 1_555 1_555
O3 S2 1_555 1_555
O4 S2 1_555 1_555
C1 C2 1_555 1_555
C2 H1 1_555 1_555
C3 C2 1_555 1_555
H2 C3 1_555 1_555
C4 S1 1_555 1_555
C5 C4 1_555 1_555
H3 C5 1_555 1_555
C6 C1 1_555 1_555
H4 C6 1_555 1_555
C7 C1 1_555 1_555
H5 C7 1_555 1_555
H6 C7 1_555 1_555
H7 C7 1_555 1_555
C8 S2 1_555 1_555
C9 C8 1_555 1_555
H8 C9 1_555 1_555
C10 C9 1_555 1_555
H9 C10 1_555 1_555
C11 C10 1_555 1_555
C12 C11 1_555 1_555
H10 C12 1_555 1_555
C13 C8 1_555 1_555
H11 C13 1_555 1_555
C14 C11 1_555 1_555
H12 C14 1_555 1_555
H13 C14 1_555 1_555
H14 C14 1_555 1_555
C15 H15 1_555 1_555
C16 C15 1_555 1_555
H16 C16 1_555 1_555
C17 C16 1_555 1_555
H17 C17 1_555 1_555
C18 C17 1_555 1_555
H18 C18 1_555 1_555
C19 C18 1_555 1_555
H19 C19 1_555 1_555
H20 C19 1_555 1_555
C20 N1 1_555 1_555
H21 C20 1_555 1_555
H22 C20 1_555 1_555
C21 C18 1_555 1_555
C22 N2 1_555 1_555
H23 C22 1_555 1_555
C23 C15 1_555 1_555
H24 C23 1_555 1_555
H25 C23 1_555 1_555
H26 C23 1_555 1_555
C3 C4 1_555 1_555
C5 C6 1_555 1_555
C12 C13 1_555 1_555
C20 C21 1_555 1_555
C21 C22 1_555 1_555

#END
