
#######################################################################
#
#                 Cambridge Crystallographic Data Centre
#                                CCDC 
#
#######################################################################
#
# If this CIF has been generated from an entry in the Cambridge 
# Structural Database, then it will include bibliographic, chemical, 
# crystal, experimental, refinement or atomic coordinate data resulting 
# from the CCDC's data processing and validation procedures.
#
#######################################################################

data_LULSUH
_chemical_compound_source        'Ligusticum chuanxiong rhizomes'
_chemical_name_common            'Ligusticoside A'
_chemical_formula_moiety         'C18 H28 O8'
_chemical_name_systematic        
8-Pentyl-8-((3,4,5-trihydroxy-6-(hydroxymethyl)tetrahydro-2H-pyran-2-yl)oxy)-6-oxabicyclo[3.2.1]oct-2-en-7-one
_symmetry_cell_setting           monoclinic
_symmetry_space_group_name_H-M   'P 21'
_symmetry_Int_Tables_number      4
_space_group_name_Hall           'P 2yb'
loop_
_symmetry_equiv_pos_site_id
_symmetry_equiv_pos_as_xyz
1 x,y,z
2 -x,1/2+y,-z
_cell_length_a                   6.5066(14)
_cell_length_b                   34.978(7)
_cell_length_c                   8.2676(17)
_cell_angle_alpha                90
_cell_angle_beta                 90.00
_cell_angle_gamma                90
_cell_volume                     1881.61
_exptl_crystal_colour            colorless
_exptl_crystal_description       irregular
_cell_formula_units_Z            4
loop_
_atom_site_label
_atom_site_type_symbol
_atom_site_fract_x
_atom_site_fract_y
_atom_site_fract_z
O1 O 0.0013(8) 0.14256(16) 0.5234(6)
O2 O 0.3317(7) 0.15124(16) 0.4568(6)
O3 O 0.4510(7) 0.12964(14) 0.7719(5)
O4 O 0.7448(7) 0.13118(13) 0.9235(5)
O5 O 1.1606(8) 0.09623(16) 0.9822(7)
H1 H 1.0937 0.0764 0.9874
O6 O 1.0671(7) 0.21005(17) 1.0498(6)
H2 H 1.0867 0.2189 1.1404
O7 O 0.6487(9) 0.24008(16) 1.0780(6)
H3 H 0.5714 0.2549 1.0308
O8 O 0.3879(7) 0.20797(15) 0.8315(6)
H4 H 0.2897 0.2131 0.8897
C1 C 0.1763(12) 0.1311(3) 0.5229(8)
C2 C 0.5187(11) 0.1301(3) 0.4779(8)
H5 H 0.6360 0.1472 0.4940
C3 C 0.4820(11) 0.1050(2) 0.6278(8)
C4 C 0.2598(10) 0.0937(2) 0.5846(8)
H6 H 0.1826 0.0836 0.6771
C5 C 0.2568(13) 0.0674(3) 0.4398(10)
H7 H 0.1624 0.0475 0.4327
C6 C 0.3930(13) 0.0734(3) 0.3229(10)
H8 H 0.3909 0.0576 0.2326
C7 C 0.5500(12) 0.1048(3) 0.3303(8)
H9 H 0.5404 0.1203 0.2333
H10 H 0.6865 0.0937 0.3339
C8 C 0.6371(11) 0.0744(2) 0.6608(10)
H11 H 0.7693 0.0865 0.6785
H12 H 0.6494 0.0586 0.5648
C9 C 0.5926(15) 0.0486(3) 0.8032(12)
H13 H 0.4730 0.0330 0.7791
H14 H 0.5608 0.0641 0.8970
C10 C 0.777(2) 0.0220(4) 0.8436(16)
H15 H 0.7857 0.0020 0.7625
H16 H 0.9033 0.0367 0.8390
C11 C 0.759(3) 0.0046(5) 1.002(3)
H17 H 0.6704 0.0208 1.0664
H18 H 0.6883 -0.0196 0.9882
C12 C 0.926(4) -0.0019(8) 1.086(3)
H19 H 1.0372 -0.0080 1.0138
H20 H 0.9029 -0.0230 1.1578
H21 H 0.9604 0.0204 1.1476
C13 C 0.6137(9) 0.1527(2) 0.8200(8)
H22 H 0.6898 0.1622 0.7257
C14 C 0.5315(10) 0.1858(2) 0.9195(8)
H23 H 0.4642 0.1757 1.0164
C15 C 0.7101(11) 0.2105(2) 0.9705(8)
H24 H 0.7658 0.2226 0.8731
C16 C 0.8819(10) 0.1886(2) 1.0495(9)
H25 H 0.8432 0.1829 1.1615
C17 C 0.9310(10) 0.1513(2) 0.9631(8)
H26 H 1.0069 0.1569 0.8635
C18 C 1.0558(11) 0.1257(2) 1.0669(8)
H27 H 1.1563 0.1411 1.1245
H28 H 0.9663 0.1141 1.1469
O9 O 1.4964(8) 0.31461(16) 0.0228(6)
O10 O 1.1692(7) 0.30579(15) -0.0405(6)
O11 O 1.0484(6) 0.32771(14) 0.2705(5)
O12 O 0.7549(7) 0.32569(13) 0.4246(6)
O13 O 0.3422(8) 0.36097(15) 0.4821(6)
H29 H 0.2601 0.3518 0.4175
O14 O 0.4323(7) 0.24714(17) 0.5516(6)
H30 H 0.4471 0.2276 0.6052
O15 O 0.8523(8) 0.21711(17) 0.5780(6)
H31 H 0.9345 0.2028 0.5333
O16 O 1.1142(7) 0.24902(15) 0.3307(5)
H32 H 1.2161 0.2450 0.3866
C19 C 0.8846(10) 0.3041(2) 0.3191(8)
H33 H 0.8077 0.2946 0.2255
C20 C 0.9679(10) 0.2710(2) 0.4214(8)
H34 H 1.0338 0.2812 0.5189
C21 C 0.7899(10) 0.2459(2) 0.4688(8)
H35 H 0.7347 0.2337 0.3713
C22 C 0.6175(10) 0.2681(2) 0.5518(8)
H36 H 0.6573 0.2739 0.6635
C23 C 0.5697(10) 0.3053(2) 0.4634(8)
H37 H 0.4952 0.2994 0.3634
C24 C 0.4403(12) 0.3313(2) 0.5672(9)
H38 H 0.3363 0.3160 0.6211
H39 H 0.5270 0.3424 0.6501
C25 C 1.3210(11) 0.3264(2) 0.0231(9)
C26 C 0.9816(11) 0.3270(2) -0.0214(8)
H40 H 0.8635 0.3100 -0.0066
C27 C 1.0204(10) 0.3515(2) 0.1299(8)
C28 C 1.2386(10) 0.3640(2) 0.0855(9)
H41 H 1.3165 0.3743 0.1772
C29 C 1.2399(12) 0.3895(2) -0.0594(10)
H42 H 1.3336 0.4095 -0.0669
C30 C 1.1069(14) 0.3833(3) -0.1761(11)
H43 H 1.1106 0.3990 -0.2669
C31 C 0.9536(12) 0.3529(3) -0.1694(9)
H44 H 0.9633 0.3375 -0.2668
H45 H 0.8175 0.3642 -0.1663
C32 C 0.8605(11) 0.3824(2) 0.1594(9)
H46 H 0.7284 0.3703 0.1779
H47 H 0.8486 0.3979 0.0628
C33 C 0.9101(15) 0.4088(3) 0.3049(12)
H48 H 0.9470 0.3934 0.3980
H49 H 1.0262 0.4250 0.2785
C34 C 0.7245(19) 0.4334(4) 0.3457(16)
H50 H 0.7104 0.4531 0.2638
H51 H 0.6020 0.4177 0.3420
C35 C 0.737(3) 0.4518(7) 0.505(3)
H52 H 0.8191 0.4352 0.5736
H53 H 0.8144 0.4752 0.4915
C36 C 0.575(4) 0.4602(8) 0.585(3)
H54 H 0.4648 0.4653 0.5107
H55 H 0.6005 0.4825 0.6495
H56 H 0.5384 0.4392 0.6534
loop_
_geom_bond_atom_site_label_1
_geom_bond_atom_site_label_2
_geom_bond_site_symmetry_1
_geom_bond_site_symmetry_2
O1 C1 1_555 1_555
O2 C1 1_555 1_555
O3 C3 1_555 1_555
O4 C13 1_555 1_555
O5 H1 1_555 1_555
O6 H2 1_555 1_555
O7 H3 1_555 1_555
O8 H4 1_555 1_555
C1 C4 1_555 1_555
C2 O2 1_555 1_555
H5 C2 1_555 1_555
C3 C2 1_555 1_555
C4 C3 1_555 1_555
H6 C4 1_555 1_555
C5 C4 1_555 1_555
H7 C5 1_555 1_555
C6 C5 1_555 1_555
H8 C6 1_555 1_555
C7 C2 1_555 1_555
H9 C7 1_555 1_555
H10 C7 1_555 1_555
C8 C3 1_555 1_555
H11 C8 1_555 1_555
H12 C8 1_555 1_555
C9 C8 1_555 1_555
H13 C9 1_555 1_555
H14 C9 1_555 1_555
C10 C9 1_555 1_555
H15 C10 1_555 1_555
H16 C10 1_555 1_555
C11 C10 1_555 1_555
H17 C11 1_555 1_555
H18 C11 1_555 1_555
C12 C11 1_555 1_555
H19 C12 1_555 1_555
H20 C12 1_555 1_555
H21 C12 1_555 1_555
C13 O3 1_555 1_555
H22 C13 1_555 1_555
C14 O8 1_555 1_555
H23 C14 1_555 1_555
C15 O7 1_555 1_555
H24 C15 1_555 1_555
C16 O6 1_555 1_555
H25 C16 1_555 1_555
C17 O4 1_555 1_555
H26 C17 1_555 1_555
C18 O5 1_555 1_555
H27 C18 1_555 1_555
H28 C18 1_555 1_555
O9 C25 1_555 1_555
O10 C25 1_555 1_555
O11 C19 1_555 1_555
O12 C19 1_555 1_555
O13 H29 1_555 1_555
O14 H30 1_555 1_555
O15 H31 1_555 1_555
O16 H32 1_555 1_555
C19 H33 1_555 1_555
C20 O16 1_555 1_555
H34 C20 1_555 1_555
C21 O15 1_555 1_555
H35 C21 1_555 1_555
C22 O14 1_555 1_555
H36 C22 1_555 1_555
C23 O12 1_555 1_555
H37 C23 1_555 1_555
C24 O13 1_555 1_555
H38 C24 1_555 1_555
H39 C24 1_555 1_555
C25 C28 1_555 1_555
C26 O10 1_555 1_555
H40 C26 1_555 1_555
C27 O11 1_555 1_555
C28 C27 1_555 1_555
H41 C28 1_555 1_555
C29 C28 1_555 1_555
H42 C29 1_555 1_555
C30 C29 1_555 1_555
H43 C30 1_555 1_555
C31 C26 1_555 1_555
H44 C31 1_555 1_555
H45 C31 1_555 1_555
C32 C27 1_555 1_555
H46 C32 1_555 1_555
H47 C32 1_555 1_555
C33 C32 1_555 1_555
H48 C33 1_555 1_555
H49 C33 1_555 1_555
C34 C33 1_555 1_555
H50 C34 1_555 1_555
H51 C34 1_555 1_555
C35 C34 1_555 1_555
H52 C35 1_555 1_555
H53 C35 1_555 1_555
C36 C35 1_555 1_555
H54 C36 1_555 1_555
H55 C36 1_555 1_555
H56 C36 1_555 1_555
C6 C7 1_555 1_555
C13 C14 1_555 1_555
C14 C15 1_555 1_555
C15 C16 1_555 1_555
C16 C17 1_555 1_555
C17 C18 1_555 1_555
C19 C20 1_555 1_555
C20 C21 1_555 1_555
C21 C22 1_555 1_555
C22 C23 1_555 1_555
C23 C24 1_555 1_555
C26 C27 1_555 1_555
C30 C31 1_555 1_555

#END
