
#######################################################################
#
#                 Cambridge Crystallographic Data Centre
#                                CCDC 
#
#######################################################################
#
# If this CIF has been generated from an entry in the Cambridge 
# Structural Database, then it will include bibliographic, chemical, 
# crystal, experimental, refinement or atomic coordinate data resulting 
# from the CCDC's data processing and validation procedures.
#
#######################################################################

data_LUMKAH
_chemical_formula_moiety         'C7 H3 N2 O7 1-,C1 H7 N4 1+'
_chemical_name_systematic        
'amino(hydrazino)methaniminium 2-carboxy-4,6-dinitrophenolate'
_symmetry_cell_setting           triclinic
_symmetry_space_group_name_H-M   'P -1'
_symmetry_Int_Tables_number      2
_space_group_name_Hall           '-P 1'
loop_
_symmetry_equiv_pos_site_id
_symmetry_equiv_pos_as_xyz
1 x,y,z
2 -x,-y,-z
_cell_length_a                   6.961(4)
_cell_length_b                   6.966(4)
_cell_length_c                   12.729(6)
_cell_angle_alpha                89.200(9)
_cell_angle_beta                 84.314(10)
_cell_angle_gamma                79.272(10)
_cell_volume                     603.455
_exptl_crystal_colour            yellow
_exptl_crystal_description       strip
_cell_formula_units_Z            2
loop_
_atom_site_label
_atom_site_type_symbol
_atom_site_fract_x
_atom_site_fract_y
_atom_site_fract_z
O1 O 0.4679(9) -0.3872(9) 0.3309(4)
O2 O 0.1986(9) 0.4370(9) 0.5323(4)
O3 O 0.4827(10) -0.3260(9) 0.1610(4)
O4 O 0.2049(10) 0.3378(9) 0.0496(4)
C1 C 0.3361(13) -0.0672(13) 0.2789(7)
O5 O 0.0617(10) 0.5603(9) 0.1637(4)
C2 C 0.2052(13) 0.2591(14) 0.2207(7)
N1 N 0.1820(11) 0.2673(12) 0.5197(5)
N2 N 0.1568(12) 0.3962(12) 0.1383(6)
O6 O 0.1341(11) 0.1641(10) 0.5929(4)
H1 H 0.4665 -0.3690 0.3960
O7 O 0.3457(9) -0.1346(9) 0.4644(4)
C3 C 0.4395(14) -0.2738(15) 0.2476(7)
C4 C 0.1750(13) 0.3229(13) 0.3261(6)
H2 H 0.1284 0.4544 0.3415
C5 C 0.2130(12) 0.1942(13) 0.4063(6)
C6 C 0.2916(12) 0.0668(13) 0.1990(7)
H3 H 0.3206 0.0259 0.1290
C7 C 0.2993(13) -0.0128(14) 0.3882(7)
N3 N 0.2853(10) 0.7808(11) 0.6966(5)
H4 H 0.2542 0.8595 0.6458
H5 H 0.3367 0.6605 0.6833
N4 N 0.2962(10) 0.7148(10) 0.8700(5)
H6 H 0.3396 0.5941 0.8536
N5 N 0.1757(10) 1.0272(10) 0.8193(5)
H7 H 0.1504 1.0652 0.8840
H8 H 0.1497 1.1090 0.7692
N6 N 0.2695(11) 0.7763(11) 0.9731(5)
H9 H 0.2259 0.8976 0.9881
H10 H 0.2964 0.6936 1.0228
C8 C 0.2532(14) 0.8460(15) 0.7973(7)
loop_
_geom_bond_atom_site_label_1
_geom_bond_atom_site_label_2
_geom_bond_site_symmetry_1
_geom_bond_site_symmetry_2
O1 H1 1_555 1_555
O2 N1 1_555 1_555
O3 C3 1_555 1_555
O4 N2 1_555 1_555
C1 C3 1_555 1_555
O5 N2 1_555 1_555
C2 N2 1_555 1_555
N1 O6 1_555 1_555
O7 C7 1_555 1_555
C3 O1 1_555 1_555
C4 C2 1_555 1_555
H2 C4 1_555 1_555
C5 N1 1_555 1_555
C6 C1 1_555 1_555
H3 C6 1_555 1_555
C7 C1 1_555 1_555
N3 H4 1_555 1_555
H5 N3 1_555 1_555
N4 H6 1_555 1_555
N5 H7 1_555 1_555
H8 N5 1_555 1_555
N6 N4 1_555 1_555
H9 N6 1_555 1_555
H10 N6 1_555 1_555
C8 N3 1_555 1_555
C2 C6 1_555 1_555
C4 C5 1_555 1_555
C5 C7 1_555 1_555
N4 C8 1_555 1_555
N5 C8 1_555 1_555

#END
