
#######################################################################
#
#                 Cambridge Crystallographic Data Centre
#                                CCDC 
#
#######################################################################
#
# If this CIF has been generated from an entry in the Cambridge 
# Structural Database, then it will include bibliographic, chemical, 
# crystal, experimental, refinement or atomic coordinate data resulting 
# from the CCDC's data processing and validation procedures.
#
#######################################################################

data_LUNBED
_chemical_formula_moiety         'C11 H12 N2 O7 S1'
_chemical_name_systematic        
'5-methyl-3-((4-nitrophenyl)sulfonyl)-1,3-oxazolidine-4-carboxylic acid'
_symmetry_cell_setting           tetragonal
_symmetry_space_group_name_H-M   'P 41'
_symmetry_Int_Tables_number      76
_space_group_name_Hall           'P 4w'
loop_
_symmetry_equiv_pos_site_id
_symmetry_equiv_pos_as_xyz
1 x,y,z
2 -y,x,1/4+z
3 -x,-y,1/2+z
4 y,-x,3/4+z
_cell_length_a                   15.41418(14)
_cell_length_b                   15.41418(14)
_cell_length_c                   5.95145(10)
_cell_angle_alpha                90
_cell_angle_beta                 90
_cell_angle_gamma                90
_cell_volume                     1414.05
_exptl_crystal_colour            colorless
_exptl_crystal_description       needle
_cell_formula_units_Z            4
loop_
_atom_site_label
_atom_site_type_symbol
_atom_site_fract_x
_atom_site_fract_y
_atom_site_fract_z
C1 C 0.4685(2) 0.7268(2) -0.2009(8)
C2 C 0.4755(2) 0.8017(3) -0.3266(7)
H1 H 0.4473 0.8071 -0.4640
C3 C 0.5258(2) 0.8685(2) -0.2426(6)
H2 H 0.5323 0.9198 -0.3233
C4 C 0.56636(18) 0.8581(2) -0.0364(6)
C5 C 0.5573(2) 0.7827(2) 0.0895(7)
H3 H 0.5839 0.7776 0.2292
C6 C 0.5082(2) 0.7154(2) 0.0043(8)
H4 H 0.5021 0.6638 0.0834
C7 C 0.7479(2) 0.9294(2) -0.2629(6)
H5 H 0.6984 0.9529 -0.3430
H6 H 0.7985 0.9646 -0.2960
C8 C 0.8169(2) 0.8094(2) -0.1475(7)
H7 H 0.8766 0.8288 -0.1731
C9 C 0.78079(18) 0.85353(19) 0.0700(6)
H8 H 0.7423 0.8137 0.1508
C10 C 0.85344(19) 0.8836(2) 0.2214(6)
C11 C 0.8143(4) 0.7112(3) -0.1477(11)
H9 H 0.7553 0.6920 -0.1346
H10 H 0.8474 0.6895 -0.0231
H11 H 0.8386 0.6898 -0.2856
N1 N 0.4132(2) 0.6565(3) -0.2925(10)
N2 N 0.73125(16) 0.92696(17) -0.0203(5)
O1 O 0.3800(3) 0.6658(3) -0.4720(10)
O2 O 0.4051(3) 0.5914(2) -0.1796(10)
O3 O 0.60401(16) 1.02145(15) -0.0448(5)
O4 O 0.63337(15) 0.93822(18) 0.3035(5)
O5 O 0.76240(16) 0.84201(16) -0.3232(5)
O6 O 0.86886(15) 0.95843(14) 0.2686(5)
O7 O 0.89906(14) 0.81681(14) 0.2922(5)
H12 H 0.9427 0.8342 0.3567
S1 S 0.63161(4) 0.94401(5) 0.06471(13)
loop_
_geom_bond_atom_site_label_1
_geom_bond_atom_site_label_2
_geom_bond_site_symmetry_1
_geom_bond_site_symmetry_2
C1 C2 1_555 1_555
C2 H1 1_555 1_555
C3 C2 1_555 1_555
H2 C3 1_555 1_555
C4 C3 1_555 1_555
C5 C4 1_555 1_555
H3 C5 1_555 1_555
C6 C1 1_555 1_555
H4 C6 1_555 1_555
C7 H5 1_555 1_555
H6 C7 1_555 1_555
C8 H7 1_555 1_555
C9 C8 1_555 1_555
H8 C9 1_555 1_555
C10 C9 1_555 1_555
C11 C8 1_555 1_555
H9 C11 1_555 1_555
H10 C11 1_555 1_555
H11 C11 1_555 1_555
N1 C1 1_555 1_555
N2 C7 1_555 1_555
O1 N1 1_555 1_555
O2 N1 1_555 1_555
O3 S1 1_555 1_555
O4 S1 1_555 1_555
O5 C7 1_555 1_555
O6 C10 1_555 1_555
O7 C10 1_555 1_555
H12 O7 1_555 1_555
S1 C4 1_555 1_555
C5 C6 1_555 1_555
C8 O5 1_555 1_555
C9 N2 1_555 1_555
N2 S1 1_555 1_555

#END
