
#######################################################################
#
#                 Cambridge Crystallographic Data Centre
#                                CCDC 
#
#######################################################################
#
# If this CIF has been generated from an entry in the Cambridge 
# Structural Database, then it will include bibliographic, chemical, 
# crystal, experimental, refinement or atomic coordinate data resulting 
# from the CCDC's data processing and validation procedures.
#
#######################################################################

data_LUPBUV
_chemical_compound_source        'Stachybotrys bisbyi (PYH05-7)'
_chemical_name_common            12-hydroxydehydrobotrydienol
_chemical_formula_moiety         'C15 H22 O3'
_chemical_name_systematic        
(1,3,5-trimethyl-2,3-dihydro-1H-indene-1,3,4-triyl)trimethanol
_symmetry_cell_setting           orthorhombic
_symmetry_space_group_name_H-M   'P 21 21 21'
_symmetry_Int_Tables_number      19
_space_group_name_Hall           'P 2ac 2ab'
loop_
_symmetry_equiv_pos_site_id
_symmetry_equiv_pos_as_xyz
1 x,y,z
2 1/2-x,-y,1/2+z
3 1/2+x,1/2-y,-z
4 -x,1/2+y,1/2-z
_cell_length_a                   9.13361(13)
_cell_length_b                   10.68806(14)
_cell_length_c                   13.75024(19)
_cell_angle_alpha                90
_cell_angle_beta                 90
_cell_angle_gamma                90
_cell_volume                     1342.31
_exptl_crystal_colour            colorless
_cell_formula_units_Z            4
loop_
_atom_site_label
_atom_site_type_symbol
_atom_site_fract_x
_atom_site_fract_y
_atom_site_fract_z
O1 O 0.14132(11) 0.40367(9) 0.42292(8)
H1 H 0.0720 0.3704 0.3952
O2 O -0.21263(13) 0.28903(9) 0.49298(8)
H2 H -0.2549 0.2365 0.5262
O3 O 0.04958(11) 0.73959(11) 0.16156(8)
H3 H 0.1099 0.7512 0.1183
C1 C -0.24654(16) 0.49917(12) 0.43336(10)
C2 C 0.09043(16) 0.46609(13) 0.50833(10)
H4 H 0.1733 0.4827 0.5505
H5 H 0.0241 0.4110 0.5430
C3 C -0.11120(14) 0.65372(11) 0.33997(9)
C4 C 0.03058(15) 0.72809(12) 0.33858(10)
C5 C -0.12225(14) 0.57480(11) 0.42064(9)
C6 C -0.35976(16) 0.50451(13) 0.36419(10)
C7 C -0.34733(15) 0.58752(14) 0.28622(10)
H6 H -0.4234 0.5929 0.2415
C8 C -0.26358(16) 0.41176(12) 0.51899(10)
H7 H -0.2076 0.4431 0.5738
H8 H -0.3657 0.4077 0.5381
C9 C 0.12292(16) 0.70238(14) 0.24835(10)
H9 H 0.2148 0.7473 0.2535
H10 H 0.1450 0.6137 0.2450
C10 C 0.11389(15) 0.67744(13) 0.42811(10)
H11 H 0.1455 0.7465 0.4688
H12 H 0.2000 0.6317 0.4071
C11 C -0.22499(15) 0.66194(13) 0.27378(10)
H13 H -0.2192 0.7169 0.2215
C12 C -0.02759(17) 0.65165(14) 0.58475(11)
H14 H -0.0979 0.6009 0.6185
H15 H -0.0684 0.7331 0.5731
H16 H 0.0592 0.6596 0.6237
C13 C 0.01150(14) 0.58965(12) 0.48692(10)
C14 C -0.49581(18) 0.42526(17) 0.37257(13)
H17 H -0.4687 0.3386 0.3766
H18 H -0.5564 0.4381 0.3164
H19 H -0.5489 0.4486 0.4300
C15 C -0.00204(19) 0.86908(13) 0.34628(12)
H20 H -0.0636 0.8941 0.2931
H21 H 0.0881 0.9151 0.3439
H22 H -0.0510 0.8859 0.4066
loop_
_geom_bond_atom_site_label_1
_geom_bond_atom_site_label_2
_geom_bond_site_symmetry_1
_geom_bond_site_symmetry_2
O1 H1 1_555 1_555
O2 H2 1_555 1_555
O3 H3 1_555 1_555
C1 C5 1_555 1_555
C2 O1 1_555 1_555
H4 C2 1_555 1_555
H5 C2 1_555 1_555
C3 C4 1_555 1_555
C4 C9 1_555 1_555
C5 C3 1_555 1_555
C6 C1 1_555 1_555
C7 C6 1_555 1_555
H6 C7 1_555 1_555
C8 O2 1_555 1_555
H7 C8 1_555 1_555
H8 C8 1_555 1_555
C9 O3 1_555 1_555
H9 C9 1_555 1_555
H10 C9 1_555 1_555
C10 C4 1_555 1_555
H11 C10 1_555 1_555
H12 C10 1_555 1_555
C11 C3 1_555 1_555
H13 C11 1_555 1_555
C12 H14 1_555 1_555
H15 C12 1_555 1_555
H16 C12 1_555 1_555
C13 C2 1_555 1_555
C14 C6 1_555 1_555
H17 C14 1_555 1_555
H18 C14 1_555 1_555
H19 C14 1_555 1_555
C15 C4 1_555 1_555
H20 C15 1_555 1_555
H21 C15 1_555 1_555
H22 C15 1_555 1_555
C1 C8 1_555 1_555
C5 C13 1_555 1_555
C7 C11 1_555 1_555
C10 C13 1_555 1_555
C12 C13 1_555 1_555

#END
