
#######################################################################
#
#                 Cambridge Crystallographic Data Centre
#                                CCDC 
#
#######################################################################
#
# If this CIF has been generated from an entry in the Cambridge 
# Structural Database, then it will include bibliographic, chemical, 
# crystal, experimental, refinement or atomic coordinate data resulting 
# from the CCDC's data processing and validation procedures.
#
#######################################################################

data_LUPCAB
_chemical_formula_moiety         'C16 H18 F2 O2'
_chemical_name_systematic        
3-(Benzyloxy)-2,2-difluoro-5-methylcyclooct-4-en-1-one
_symmetry_cell_setting           monoclinic
_symmetry_space_group_name_H-M   'P 21/n'
_symmetry_Int_Tables_number      14
_space_group_name_Hall           '-P 2yn'
loop_
_symmetry_equiv_pos_site_id
_symmetry_equiv_pos_as_xyz
1 x,y,z
2 1/2-x,1/2+y,1/2-z
3 -x,-y,-z
4 1/2+x,1/2-y,1/2+z
_cell_length_a                   12.837(4)
_cell_length_b                   7.615(3)
_cell_length_c                   15.535(5)
_cell_angle_alpha                90
_cell_angle_beta                 112.153(6)
_cell_angle_gamma                90
_cell_volume                     1406.5
_exptl_crystal_colour            colorless
_exptl_crystal_description       block
_cell_formula_units_Z            4
loop_
_atom_site_label
_atom_site_type_symbol
_atom_site_fract_x
_atom_site_fract_y
_atom_site_fract_z
F1 F 0.44303(11) 0.5522(2) 0.06919(10)
F2 F 0.41158(12) 0.39006(19) 0.17193(9)
O1 O 0.39449(15) 0.6848(2) 0.24813(11)
O2 O 0.25786(13) 0.2981(2) 0.00406(10)
C1 C 0.36180(19) 0.6903(3) 0.16460(16)
C2 C 0.36750(19) 0.5223(3) 0.11090(16)
C3 C 0.25303(18) 0.4677(3) 0.03990(15)
H1 H 0.2281 0.5545 -0.0122
C4 C 0.17091(18) 0.4671(3) 0.08750(14)
H2 H 0.1631 0.3613 0.1169
C5 C 0.10811(18) 0.6032(3) 0.09179(14)
C6 C 0.1061(2) 0.7768(3) 0.04496(17)
H3 H 0.0321 0.8331 0.0316
H4 H 0.1138 0.7554 -0.0152
C7 C 0.1994(2) 0.9044(3) 0.10280(18)
H5 H 0.1813 1.0234 0.0755
H6 H 0.2000 0.9099 0.1667
C8 C 0.3171(2) 0.8531(3) 0.10801(17)
H7 H 0.3146 0.8339 0.0442
H8 H 0.3695 0.9516 0.1356
C9 C 0.0356(2) 0.5935(3) 0.14763(17)
H9 H 0.0402 0.4754 0.1739
H10 H -0.0426 0.6189 0.1075
H11 H 0.0615 0.6798 0.1981
C10 C 0.2811(2) 0.2988(3) -0.07985(16)
H12 H 0.3540 0.3573 -0.0684
H13 H 0.2215 0.3639 -0.1295
C11 C 0.28507(19) 0.1127(3) -0.10899(14)
C12 C 0.1884(2) 0.0106(3) -0.14269(16)
H14 H 0.1185 0.0584 -0.1464
C13 C 0.1935(2) -0.1601(4) -0.17092(16)
H15 H 0.1271 -0.2292 -0.1940
C14 C 0.2940(3) -0.2304(3) -0.16580(17)
H16 H 0.2972 -0.3480 -0.1851
C15 C 0.3901(3) -0.1301(4) -0.13263(19)
H17 H 0.4599 -0.1780 -0.1292
C16 C 0.3849(2) 0.0398(3) -0.10449(16)
H18 H 0.4517 0.1081 -0.0815
loop_
_geom_bond_atom_site_label_1
_geom_bond_atom_site_label_2
_geom_bond_site_symmetry_1
_geom_bond_site_symmetry_2
F1 C2 1_555 1_555
F2 C2 1_555 1_555
O1 C1 1_555 1_555
O2 C3 1_555 1_555
C1 C2 1_555 1_555
C2 C3 1_555 1_555
C3 H1 1_555 1_555
C4 C3 1_555 1_555
H2 C4 1_555 1_555
C5 C4 1_555 1_555
C6 C5 1_555 1_555
H3 C6 1_555 1_555
H4 C6 1_555 1_555
C7 C6 1_555 1_555
H5 C7 1_555 1_555
H6 C7 1_555 1_555
C8 C1 1_555 1_555
H7 C8 1_555 1_555
H8 C8 1_555 1_555
C9 C5 1_555 1_555
H9 C9 1_555 1_555
H10 C9 1_555 1_555
H11 C9 1_555 1_555
C10 O2 1_555 1_555
H12 C10 1_555 1_555
H13 C10 1_555 1_555
C11 C10 1_555 1_555
C12 C11 1_555 1_555
H14 C12 1_555 1_555
C13 C12 1_555 1_555
H15 C13 1_555 1_555
C14 C13 1_555 1_555
H16 C14 1_555 1_555
C15 C14 1_555 1_555
H17 C15 1_555 1_555
C16 C11 1_555 1_555
H18 C16 1_555 1_555
C7 C8 1_555 1_555
C15 C16 1_555 1_555

#END
