
#######################################################################
#
#                 Cambridge Crystallographic Data Centre
#                                CCDC 
#
#######################################################################
#
# If this CIF has been generated from an entry in the Cambridge 
# Structural Database, then it will include bibliographic, chemical, 
# crystal, experimental, refinement or atomic coordinate data resulting 
# from the CCDC's data processing and validation procedures.
#
#######################################################################

data_LUPFAF
_chemical_formula_moiety         'C78 H90 S6'
_chemical_name_systematic        
2,2',2'',2''',2'''',2'''''-(Benzene-1,2,3,4,5,6-hexaylhexaethyne-2,1-diyl)hexakis(5-hexylthiophene)
_symmetry_cell_setting           triclinic
_symmetry_space_group_name_H-M   'P -1'
_symmetry_Int_Tables_number      2
_space_group_name_Hall           '-P 1'
loop_
_symmetry_equiv_pos_site_id
_symmetry_equiv_pos_as_xyz
1 x,y,z
2 -x,-y,-z
_cell_length_a                   13.7131(2)
_cell_length_b                   22.77790(10)
_cell_length_c                   24.7958(7)
_cell_angle_alpha                76.755(8)
_cell_angle_beta                 84.142(9)
_cell_angle_gamma                67.537(7)
_cell_volume                     6966.16
_cell_formula_units_Z            4
loop_
_atom_site_label
_atom_site_type_symbol
_atom_site_fract_x
_atom_site_fract_y
_atom_site_fract_z
S1 S 0.79720(8) 0.15539(5) 0.60947(4)
S2 S 1.61476(7) -0.11710(5) 0.90356(4)
S3 S 0.92511(7) 0.10788(5) 0.97585(4)
S4 S 1.20449(8) 0.01280(5) 0.49764(4)
S5 S 1.41339(8) -0.04806(5) 0.99951(4)
S6 S 1.62682(8) -0.13097(5) 0.62201(4)
C1 C 1.4079(3) -0.04872(17) 0.79445(14)
C2 C 1.3021(3) -0.01446(16) 0.77610(13)
C3 C 1.0374(3) 0.07499(17) 0.83453(14)
C4 C 1.1180(3) 0.04750(17) 0.79612(13)
C5 C 1.0930(3) 0.05639(16) 0.74024(14)
C6 C 1.2773(3) -0.00665(17) 0.72036(13)
C7 C 1.2468(3) 0.00246(18) 0.87073(14)
C8 C 1.2219(3) 0.01199(17) 0.81406(13)
C9 C 1.1721(3) 0.02826(17) 0.70260(14)
C10 C 1.1466(3) 0.03500(17) 0.64660(14)
C11 C 0.9881(3) 0.09343(17) 0.72148(14)
C12 C 1.6934(3) -0.1305(2) 0.80769(16)
H1 H 1.7012 -0.1294 0.7698
C13 C 1.2648(3) -0.01417(18) 1.06947(14)
H2 H 1.2275 -0.0067 1.1023
C14 C 1.2865(3) -0.01387(18) 0.97537(14)
C15 C 1.4958(3) -0.07519(18) 0.81112(14)
C16 C 1.5985(3) -0.10688(18) 0.83323(15)
C17 C 0.7972(3) 0.15107(18) 0.99379(15)
C18 C 1.1053(3) 0.04619(18) 0.54301(14)
C19 C 1.7599(3) -0.16085(19) 1.00145(15)
H3 H 1.7247 -0.1142 0.9970
H4 H 1.7062 -0.1798 1.0090
C20 C 1.3711(3) -0.04086(18) 1.06668(14)
C21 C 1.4976(3) -0.08019(18) 0.60776(15)
C22 C 1.1267(3) 0.03964(18) 0.59963(14)
C23 C 1.7646(3) -0.17219(18) 0.53459(14)
H5 H 1.7849 -0.2166 0.5554
H6 H 1.8138 -0.1546 0.5434
C24 C 0.6638(3) 0.19905(18) 0.60667(16)
C25 C 0.7882(3) 0.1578(2) 0.89933(16)
H7 H 0.7556 0.1707 0.8652
C26 C 1.2641(3) -0.00515(18) 0.91898(15)
C27 C 1.2151(3) 0.00150(18) 1.01808(14)
H8 H 1.1424 0.0201 1.0136
C28 C 1.1205(3) 0.0377(2) 0.28662(14)
H9 H 1.1751 0.0555 0.2755
H10 H 1.1528 -0.0089 0.2898
C29 C 0.8025(3) 0.15662(18) 0.67786(15)
C30 C 0.9002(3) 0.12355(18) 0.70488(15)
C31 C 1.0110(3) 0.0774(2) 0.51570(15)
H11 H 0.9474 0.0981 0.5328
C32 C 0.7343(3) 0.17372(19) 0.94945(15)
H12 H 0.6622 0.1976 0.9513
C33 C 0.7723(3) 0.15741(18) 1.05303(15)
H13 H 0.8139 0.1796 1.0628
H14 H 0.7952 0.1141 1.0762
C34 C 1.4240(3) -0.05594(18) 0.64916(15)
C35 C 1.4015(3) -0.05676(19) 1.16891(14)
H15 H 1.3528 -0.0794 1.1774
H16 H 1.3617 -0.0112 1.1688
C36 C 1.0761(3) 0.0520(2) 0.34324(14)
H17 H 1.0385 0.0984 0.3396
H18 H 1.0259 0.0309 0.3560
C37 C 1.0374(3) 0.0658(2) 0.24192(14)
H19 H 1.0125 0.1128 0.2349
H20 H 0.9779 0.0531 0.2553
C38 C 1.7492(3) -0.15322(18) 0.89766(15)
C39 C 0.8926(3) 0.12152(19) 0.90699(15)
C40 C 1.4503(3) -0.0637(2) 1.11188(15)
H21 H 1.4963 -0.0392 1.1029
H22 H 1.4936 -0.1090 1.1129
C41 C 1.1619(3) 0.0285(2) 0.38619(14)
H23 H 1.1999 -0.0178 0.3893
H24 H 1.2117 0.0499 0.3734
C42 C 0.9713(3) 0.09616(18) 0.86727(15)
C43 C 0.5240(3) 0.2262(2) 1.20984(15)
H25 H 0.5675 0.2477 1.2186
H26 H 0.5529 0.1811 1.2289
C44 C 1.7751(3) -0.17299(19) 0.47306(16)
H27 H 1.7543 -0.1287 0.4521
H28 H 1.7268 -0.1912 0.4642
C45 C 1.4815(4) -0.0676(3) 0.55285(19)
H29 H 1.4166 -0.0414 0.5367
C46 C 1.3577(3) -0.03380(18) 0.68190(14)
C47 C 1.8337(3) -0.1864(2) 1.05057(16)
H30 H 1.8693 -0.2331 1.0549
H31 H 1.8870 -0.1672 1.0431
C48 C 1.1202(3) 0.04141(18) 0.44282(14)
C49 C 0.6567(3) 0.1935(2) 1.06717(15)
H32 H 0.6327 0.2373 1.0450
H33 H 0.6139 0.1716 1.0584
C50 C 1.8863(3) -0.21190(19) 0.45525(16)
H34 H 1.9337 -0.1921 0.4623
H35 H 1.9085 -0.2555 0.4779
C51 C 0.6772(3) 0.1844(2) 0.50731(16)
H36 H 0.7416 0.1934 0.5034
H37 H 0.6969 0.1378 0.5197
C52 C 0.6433(3) 0.1962(2) 1.12789(15)
H38 H 0.6860 0.2186 1.1358
H39 H 0.6710 0.1521 1.1494
C53 C 0.5311(3) 0.22915(19) 1.14781(15)
H40 H 0.4869 0.2084 1.1386
H41 H 0.5043 0.2742 1.1285
C54 C 1.4843(3) -0.0839(2) 1.21367(15)
H42 H 1.5396 -0.0668 1.2017
H43 H 1.5159 -0.1307 1.2178
C55 C 1.8181(3) -0.1765(2) 0.94767(16)
H44 H 1.8713 -0.1572 0.9403
H45 H 1.8544 -0.2231 0.9528
C56 C 2.0079(3) -0.2585(2) 0.37915(16)
H46 H 2.0278 -0.3009 0.4038
H47 H 2.0567 -0.2389 0.3846
C57 C 2.0184(3) -0.2674(2) 0.31950(18)
H48 H 1.9669 -0.2840 0.3130
H49 H 2.0879 -0.2975 0.3132
H50 H 2.0070 -0.2263 0.2947
C58 C 1.0782(3) 0.0434(2) 0.18782(15)
H51 H 1.1413 0.0528 0.1759
H52 H 1.0976 -0.0033 0.1941
C59 C 0.6270(3) 0.2135(2) 0.65590(16)
H53 H 0.5563 0.2374 0.6624
C60 C 0.6084(3) 0.2173(2) 0.55236(16)
H54 H 0.5848 0.2640 0.5394
H55 H 0.5464 0.2058 0.5586
C61 C 1.6575(3) -0.13401(19) 0.55303(15)
C62 C 1.5723(3) -0.0980(3) 0.52196(17)
H56 H 1.5728 -0.0933 0.4837
C63 C 1.4416(4) -0.0681(2) 1.26988(15)
H57 H 1.4125 -0.0213 1.2662
H58 H 1.3846 -0.0838 1.2814
C64 C 1.8461(4) -0.1992(2) 1.15517(17)
H59 H 1.8770 -0.2461 1.1601
H60 H 1.9032 -0.1830 1.1488
C65 C 1.0210(3) 0.0746(2) 0.45903(15)
H61 H 0.9644 0.0939 0.4350
C66 C 1.5245(4) -0.0976(2) 1.31446(17)
H62 H 1.5825 -0.0829 1.3025
H63 H 1.5521 -0.1445 1.3189
C67 C 0.6281(3) 0.2043(2) 0.45066(17)
H64 H 0.6032 0.2511 0.4388
H65 H 0.5678 0.1914 0.4531
C68 C 0.7074(3) 0.1729(2) 0.40786(17)
H66 H 0.7701 0.1826 0.4089
H67 H 0.7277 0.1262 0.4192
C69 C 1.7784(3) -0.1567(2) 0.84380(16)
H68 H 1.8482 -0.1748 0.8322
C70 C 0.6714(4) 0.1929(2) 0.34881(17)
H69 H 0.6481 0.2397 0.3374
H70 H 0.6115 0.1808 0.3468
C71 C 1.8971(3) -0.21654(19) 0.39458(16)
H71 H 1.8476 -0.2345 0.3868
H72 H 1.8789 -0.1733 0.3717
C72 C 0.4124(3) 0.2574(2) 1.23206(18)
H73 H 0.3843 0.3027 1.2151
H74 H 0.4142 0.2525 1.2715
H75 H 0.3684 0.2366 1.2236
C73 C 0.9978(4) 0.0759(2) 0.14217(16)
H76 H 0.9354 0.0665 0.1536
H77 H 1.0268 0.0598 0.1092
H78 H 0.9802 0.1220 0.1348
C74 C 1.7756(3) -0.1713(2) 1.10444(16)
H79 H 1.7198 -0.1885 1.1106
H80 H 1.7428 -0.1246 1.1005
C75 C 0.7043(3) 0.1896(2) 0.69738(16)
H81 H 0.6901 0.1956 0.7336
C76 C 1.7860(4) -0.1814(2) 1.20771(19)
H82 H 1.7577 -0.1350 1.2036
H83 H 1.8330 -0.2006 1.2385
H84 H 1.7294 -0.1972 1.2142
C77 C 1.4820(5) -0.0799(3) 1.37059(18)
H85 H 1.4594 -0.0338 1.3671
H86 H 1.5368 -0.1016 1.3975
H87 H 1.4234 -0.0932 1.3822
C78 C 0.7577(4) 0.1618(3) 0.30886(19)
H88 H 0.8149 0.1764 0.3085
H89 H 0.7296 0.1741 0.2723
H90 H 0.7829 0.1154 0.3207
S7 S -0.66755(7) 0.63058(5) 1.14099(4)
S8 S 0.15057(7) 0.37232(5) 1.43659(4)
S9 S -0.26555(8) 0.49971(5) 1.55137(4)
S10 S -0.46074(8) 0.56955(5) 1.04467(4)
S11 S 0.03223(8) 0.41199(5) 1.07409(4)
S12 S -0.68660(9) 0.64922(5) 1.42069(4)
C79 C -0.1478(3) 0.46294(16) 1.30700(14)
C80 C -0.4606(3) 0.56689(17) 1.24991(14)
C81 C -0.3334(3) 0.52416(16) 1.32517(14)
C82 C -0.5486(2) 0.58832(14) 1.49454(11)
H91 H -0.4843 0.5649 1.5121
C83 C -0.2980(3) 0.51274(17) 1.17565(14)
C84 C -0.3560(3) 0.53219(17) 1.26890(14)
C85 C -0.2296(3) 0.49009(16) 1.34405(13)
C86 C -0.1705(3) 0.46983(17) 1.25092(13)
C87 C -0.0895(3) 0.44171(18) 1.21376(14)
C88 C -0.1873(3) 0.47892(18) 1.44793(15)
C89 C 0.2435(3) 0.3352(2) 1.34881(16)
H92 H 0.2570 0.3280 1.3129
C90 C -0.3144(3) 0.51881(18) 1.12779(15)
C91 C -0.0416(3) 0.42864(17) 1.32578(14)
C92 C -0.2054(3) 0.48334(17) 1.40050(14)
C93 C -0.4190(3) 0.55750(18) 0.97847(14)
C94 C -0.5483(3) 0.59653(18) 1.23253(15)
C95 C -0.2660(3) 0.50487(19) 1.02963(15)
H93 H -0.1945 0.4808 1.0352
C96 C -0.6487(3) 0.63150(19) 1.20833(15)
C97 C -0.3352(3) 0.52680(18) 1.07094(14)
C98 C 0.2836(3) 0.32828(18) 1.43970(15)
C99 C -0.4159(3) 0.55144(18) 1.36268(14)
C100 C 0.1578(3) 0.34567(18) 1.15149(16)
H94 H 0.1881 0.3284 1.1863
C101 C -0.3146(3) 0.52257(19) 0.97756(16)
H95 H -0.2778 0.5111 0.9456
C102 C -0.1664(3) 0.47243(18) 1.50401(15)
C103 C 0.2980(3) 0.31674(19) 0.98627(16)
H96 H 0.3418 0.3378 0.9954
H97 H 0.3199 0.2731 1.0087
C104 C -0.0796(3) 0.4463(2) 1.80225(14)
H98 H -0.0251 0.4635 1.7881
H99 H -0.0487 0.3996 1.8057
C105 C -0.7171(3) 0.6511(2) 1.4893(2)
C106 C -0.0708(3) 0.4445(2) 1.53003(15)
H100 H -0.0069 0.4268 1.5119
C107 C -0.4848(3) 0.57451(18) 1.39424(15)
C108 C -0.8356(3) 0.69427(19) 1.56903(15)
H101 H -0.8125 0.6511 1.5924
H102 H -0.7885 0.7150 1.5748
C109 C -0.2754(3) 0.50509(17) 1.23201(13)
C110 C 0.3407(3) 0.3119(2) 1.49262(16)
H103 H 0.3925 0.3323 1.4868
H104 H 0.3784 0.2653 1.5021
C111 C -0.0213(3) 0.41789(19) 1.18238(15)
C112 C 0.0452(3) 0.40110(18) 1.34226(15)
C113 C -0.2178(3) 0.4842(2) 1.66239(14)
H105 H -0.2683 0.4635 1.6752
H106 H -0.2541 0.5305 1.6605
C114 C -0.8813(3) 0.70590(19) 0.98989(16)
H107 H -0.9370 0.6887 0.9989
H108 H -0.9141 0.7529 0.9835
C115 C -0.1295(3) 0.45817(19) 1.70416(14)
H109 H -0.0968 0.4114 1.7082
H110 H -0.0762 0.4763 1.6900
C116 C 0.2683(3) 0.33359(19) 1.54168(15)
H111 H 0.2333 0.3805 1.5326
H112 H 0.2141 0.3152 1.5459
C117 C -0.7961(3) 0.68317(18) 1.14117(15)
C118 C 0.1556(3) 0.3605(2) 1.05778(16)
C119 C -0.8082(3) 0.6819(2) 1.03952(15)
H113 H -0.7783 0.6348 1.0473
H114 H -0.7505 0.6973 1.0299
C120 C 0.0565(3) 0.3901(2) 1.14386(16)
C121 C 0.4295(4) 0.2776(2) 0.84496(18)
H115 H 0.3820 0.2583 0.8371
H116 H 0.4048 0.3224 0.8247
C122 C -0.5604(3) 0.59889(19) 1.43505(16)
C123 C -0.4966(3) 0.58417(19) 0.93287(15)
H117 H -0.5297 0.6309 0.9293
H118 H -0.5514 0.5663 0.9428
C124 C 0.2875(4) 0.3240(2) 1.69924(16)
H119 H 0.3432 0.3408 1.6980
H120 H 0.3182 0.2772 1.7113
C125 C -0.4489(3) 0.5697(2) 0.87694(15)
H121 H -0.3950 0.5882 0.8664
H122 H -0.4154 0.5231 0.8803
C126 C -0.1791(3) 0.47310(18) 1.60499(14)
C127 C 0.3218(3) 0.31507(19) 1.59685(16)
H123 H 0.3770 0.3326 1.5932
H124 H 0.3543 0.2682 1.6074
C128 C -0.1676(3) 0.4741(2) 1.76066(15)
H125 H -0.1986 0.5209 1.7568
H126 H -0.2223 0.4569 1.7745
C129 C -0.4875(4) 0.5837(2) 0.77496(15)
H127 H -0.4331 0.6017 0.7636
H128 H -0.4552 0.5371 0.7774
C130 C 0.1445(3) 0.36985(18) 1.36846(15)
C131 C -0.0795(4) 0.4455(2) 1.58671(16)
H129 H -0.0214 0.4286 1.6097
C132 C -0.6363(4) 0.6145(3) 1.5212(2)
H130 H -0.6410 0.6078 1.5596
C133 C 0.4218(3) 0.2775(2) 0.90646(17)
H131 H 0.4453 0.2330 0.9271
H132 H 0.4687 0.2970 0.9148
C134 C -0.9468(4) 0.7331(2) 1.58601(19)
H133 H -0.9681 0.7765 1.5630
H134 H -0.9935 0.7132 1.5782
C135 C 0.2438(3) 0.3406(2) 1.64181(16)
H135 H 0.2123 0.3875 1.6306
H136 H 0.1878 0.3241 1.6439
C136 C -0.8960(4) 0.7145(2) 0.88667(17)
H137 H -0.9231 0.7615 0.8804
H138 H -0.9557 0.7008 0.8941
C137 C -0.8283(4) 0.6887(2) 1.50810(19)
H139 H -0.8746 0.6673 1.5027
H140 H -0.8532 0.7319 1.4850
C138 C -0.7395(3) 0.6716(2) 1.22950(16)
H141 H -0.7457 0.6790 1.2653
C139 C -1.0688(4) 0.7692(3) 1.6660(2)
H142 H -1.0966 0.8136 1.6452
H143 H -1.1111 0.7473 1.6566
C140 C 0.2114(3) 0.3284(2) 1.10398(18)
H144 H 0.2795 0.2975 1.1039
C141 C -0.1144(4) 0.4610(2) 1.85942(15)
H145 H -0.1440 0.5077 1.8563
H146 H -0.1697 0.4445 1.8734
C142 C 0.3204(3) 0.3126(2) 1.38911(17)
H147 H 0.3909 0.2888 1.3824
C143 C -0.8260(3) 0.6867(2) 0.93692(17)
H148 H -0.7669 0.7010 0.9295
H149 H -0.7979 0.6397 0.9425
C144 C -0.5723(4) 0.6126(2) 0.73152(17)
H150 H -0.6045 0.6591 0.7292
H151 H -0.6267 0.5947 0.7431
C145 C 0.3123(3) 0.3136(2) 0.92521(17)
H152 H 0.2662 0.2936 0.9168
H153 H 0.2889 0.3577 0.9036
C146 C -0.8223(3) 0.7003(2) 1.19143(17)
H154 H -0.8889 0.7285 1.1998
C147 C -0.5309(4) 0.5970(2) 0.83184(16)
H155 H -0.5643 0.6436 0.8288
H156 H -0.5850 0.5788 0.8429
C148 C 0.1826(3) 0.3545(2) 0.99898(16)
H157 H 0.1625 0.3979 0.9761
H158 H 0.1400 0.3337 0.9880
C149 C 0.2030(4) 0.3521(2) 1.74100(18)
H159 H 0.1723 0.3985 1.7292
H160 H 0.2342 0.3414 1.7766
H161 H 0.1492 0.3343 1.7435
C150 C -0.9622(4) 0.7390(2) 1.64437(17)
H162 H -0.9318 0.6956 1.6668
H163 H -0.9210 0.7632 1.6505
C151 C -0.0253(4) 0.4316(2) 1.90065(18)
H164 H 0.0038 0.3853 1.9044
H165 H -0.0520 0.4421 1.9360
H166 H 0.0287 0.4488 1.8877
C152 C -1.0890(5) 0.7717(3) 1.7233(2)
H167 H -1.0604 0.7286 1.7454
H168 H -1.1638 0.7898 1.7298
H169 H -1.0564 0.7983 1.7330
C153 C -0.5306(5) 0.5997(3) 0.67405(18)
H170 H -0.4776 0.6180 0.6620
H171 H -0.5875 0.6193 0.6483
H172 H -0.5004 0.5537 0.6758
C154 C 0.5370(4) 0.2426(2) 0.8233(2)
H173 H 0.5854 0.2606 0.8314
H174 H 0.5345 0.2473 0.7839
H175 H 0.5602 0.1974 0.8407
C155 C -0.8383(4) 0.6933(3) 0.83409(19)
H176 H -0.7794 0.7070 0.8263
H177 H -0.8859 0.7127 0.8035
H178 H -0.8135 0.6469 0.8395
C156 C -0.8641(3) 0.70454(19) 1.09164(15)
H179 H -0.8950 0.7516 1.0833
H180 H -0.9214 0.6888 1.1010
loop_
_geom_bond_atom_site_label_1
_geom_bond_atom_site_label_2
_geom_bond_site_symmetry_1
_geom_bond_site_symmetry_2
S1 C24 1_555 1_555
S2 C16 1_555 1_555
S3 C17 1_555 1_555
S4 C18 1_555 1_555
S5 C14 1_555 1_555
S6 C21 1_555 1_555
C1 C2 1_555 1_555
C2 C6 1_555 1_555
C3 C4 1_555 1_555
C4 C5 1_555 1_555
C5 C9 1_555 1_555
C6 C9 1_555 1_555
C7 C8 1_555 1_555
C8 C2 1_555 1_555
C9 C10 1_555 1_555
C10 C22 1_555 1_555
C11 C5 1_555 1_555
C12 H1 1_555 1_555
C13 H2 1_555 1_555
C14 C26 1_555 1_555
C15 C1 1_555 1_555
C16 C12 1_555 1_555
C17 C32 1_555 1_555
C18 C22 1_555 1_555
C19 H3 1_555 1_555
H4 C19 1_555 1_555
C20 S5 1_555 1_555
C21 C34 1_555 1_555
C23 H5 1_555 1_555
H6 C23 1_555 1_555
C24 C59 1_555 1_555
C25 H7 1_555 1_555
C26 C7 1_555 1_555
C27 C13 1_555 1_555
H8 C27 1_555 1_555
C28 H9 1_555 1_555
H10 C28 1_555 1_555
C29 S1 1_555 1_555
C30 C11 1_555 1_555
C31 C18 1_555 1_555
H11 C31 1_555 1_555
C32 C25 1_555 1_555
H12 C32 1_555 1_555
C33 C17 1_555 1_555
H13 C33 1_555 1_555
H14 C33 1_555 1_555
C34 C46 1_555 1_555
C35 H15 1_555 1_555
H16 C35 1_555 1_555
C36 C28 1_555 1_555
H17 C36 1_555 1_555
H18 C36 1_555 1_555
C37 C28 1_555 1_555
H19 C37 1_555 1_555
H20 C37 1_555 1_555
C38 S2 1_555 1_555
C39 S3 1_555 1_555
C40 C20 1_555 1_555
H21 C40 1_555 1_555
H22 C40 1_555 1_555
C41 C36 1_555 1_555
H23 C41 1_555 1_555
H24 C41 1_555 1_555
C42 C3 1_555 1_555
C43 H25 1_555 1_555
H26 C43 1_555 1_555
C44 C23 1_555 1_555
H27 C44 1_555 1_555
H28 C44 1_555 1_555
C45 C21 1_555 1_555
H29 C45 1_555 1_555
C46 C6 1_555 1_555
C47 C19 1_555 1_555
H30 C47 1_555 1_555
H31 C47 1_555 1_555
C48 S4 1_555 1_555
C49 C33 1_555 1_555
H32 C49 1_555 1_555
H33 C49 1_555 1_555
C50 C44 1_555 1_555
H34 C50 1_555 1_555
H35 C50 1_555 1_555
C51 H36 1_555 1_555
H37 C51 1_555 1_555
C52 C49 1_555 1_555
H38 C52 1_555 1_555
H39 C52 1_555 1_555
C53 C43 1_555 1_555
H40 C53 1_555 1_555
H41 C53 1_555 1_555
C54 C35 1_555 1_555
H42 C54 1_555 1_555
H43 C54 1_555 1_555
C55 C19 1_555 1_555
H44 C55 1_555 1_555
H45 C55 1_555 1_555
C56 H46 1_555 1_555
H47 C56 1_555 1_555
C57 C56 1_555 1_555
H48 C57 1_555 1_555
H49 C57 1_555 1_555
H50 C57 1_555 1_555
C58 C37 1_555 1_555
H51 C58 1_555 1_555
H52 C58 1_555 1_555
C59 H53 1_555 1_555
C60 C24 1_555 1_555
H54 C60 1_555 1_555
H55 C60 1_555 1_555
C61 S6 1_555 1_555
C62 C45 1_555 1_555
H56 C62 1_555 1_555
C63 C54 1_555 1_555
H57 C63 1_555 1_555
H58 C63 1_555 1_555
C64 H59 1_555 1_555
H60 C64 1_555 1_555
C65 C31 1_555 1_555
H61 C65 1_555 1_555
C66 C63 1_555 1_555
H62 C66 1_555 1_555
H63 C66 1_555 1_555
C67 C51 1_555 1_555
H64 C67 1_555 1_555
H65 C67 1_555 1_555
C68 C67 1_555 1_555
H66 C68 1_555 1_555
H67 C68 1_555 1_555
C69 C12 1_555 1_555
H68 C69 1_555 1_555
C70 C68 1_555 1_555
H69 C70 1_555 1_555
H70 C70 1_555 1_555
C71 C50 1_555 1_555
H71 C71 1_555 1_555
H72 C71 1_555 1_555
C72 C43 1_555 1_555
H73 C72 1_555 1_555
H74 C72 1_555 1_555
H75 C72 1_555 1_555
C73 C58 1_555 1_555
H76 C73 1_555 1_555
H77 C73 1_555 1_555
H78 C73 1_555 1_555
C74 C47 1_555 1_555
H79 C74 1_555 1_555
H80 C74 1_555 1_555
C75 C29 1_555 1_555
H81 C75 1_555 1_555
C76 C64 1_555 1_555
H82 C76 1_555 1_555
H83 C76 1_555 1_555
H84 C76 1_555 1_555
C77 C66 1_555 1_555
H85 C77 1_555 1_555
H86 C77 1_555 1_555
H87 C77 1_555 1_555
C78 C70 1_555 1_555
H88 C78 1_555 1_555
H89 C78 1_555 1_555
H90 C78 1_555 1_555
S7 C96 1_555 1_555
S8 C98 1_555 1_555
S9 C102 1_555 1_555
S10 C93 1_555 1_555
S11 C118 1_555 1_555
S12 C105 1_555 1_555
C79 C85 1_555 1_555
C80 C84 1_555 1_555
C81 C84 1_555 1_555
C82 H91 1_555 1_555
C83 C90 1_555 1_555
C84 C109 1_555 1_555
C85 C81 1_555 1_555
C86 C79 1_555 1_555
C87 C86 1_555 1_555
C88 C92 1_555 1_555
C89 H92 1_555 1_555
C90 C97 1_555 1_555
C91 C79 1_555 1_555
C92 C85 1_555 1_555
C93 C101 1_555 1_555
C94 C80 1_555 1_555
C95 H93 1_555 1_555
C96 C94 1_555 1_555
C97 S10 1_555 1_555
C98 C110 1_555 1_555
C99 C81 1_555 1_555
C100 H94 1_555 1_555
C101 C95 1_555 1_555
H95 C101 1_555 1_555
C102 C88 1_555 1_555
C103 H96 1_555 1_555
H97 C103 1_555 1_555
C104 H98 1_555 1_555
H99 C104 1_555 1_555
C105 C132 1_555 1_555
C106 C102 1_555 1_555
H100 C106 1_555 1_555
C107 C99 1_555 1_555
C108 H101 1_555 1_555
H102 C108 1_555 1_555
C109 C83 1_555 1_555
C110 H103 1_555 1_555
H104 C110 1_555 1_555
C111 C87 1_555 1_555
C112 C91 1_555 1_555
C113 H105 1_555 1_555
H106 C113 1_555 1_555
C114 H107 1_555 1_555
H108 C114 1_555 1_555
C115 C113 1_555 1_555
H109 C115 1_555 1_555
H110 C115 1_555 1_555
C116 C110 1_555 1_555
H111 C116 1_555 1_555
H112 C116 1_555 1_555
C117 S7 1_555 1_555
C118 C140 1_555 1_555
C119 C114 1_555 1_555
H113 C119 1_555 1_555
H114 C119 1_555 1_555
C120 S11 1_555 1_555
C121 H115 1_555 1_555
H116 C121 1_555 1_555
C122 S12 1_555 1_555
C123 C93 1_555 1_555
H117 C123 1_555 1_555
H118 C123 1_555 1_555
C124 H119 1_555 1_555
H120 C124 1_555 1_555
C125 C123 1_555 1_555
H121 C125 1_555 1_555
H122 C125 1_555 1_555
C126 S9 1_555 1_555
C127 C116 1_555 1_555
H123 C127 1_555 1_555
H124 C127 1_555 1_555
C128 C104 1_555 1_555
H125 C128 1_555 1_555
H126 C128 1_555 1_555
C129 H127 1_555 1_555
H128 C129 1_555 1_555
C130 S8 1_555 1_555
C131 C106 1_555 1_555
H129 C131 1_555 1_555
C132 C82 1_555 1_555
H130 C132 1_555 1_555
C133 C121 1_555 1_555
H131 C133 1_555 1_555
H132 C133 1_555 1_555
C134 C108 1_555 1_555
H133 C134 1_555 1_555
H134 C134 1_555 1_555
C135 C124 1_555 1_555
H135 C135 1_555 1_555
H136 C135 1_555 1_555
C136 H137 1_555 1_555
H138 C136 1_555 1_555
C137 C105 1_555 1_555
H139 C137 1_555 1_555
H140 C137 1_555 1_555
C138 C96 1_555 1_555
H141 C138 1_555 1_555
C139 H142 1_555 1_555
H143 C139 1_555 1_555
C140 C100 1_555 1_555
H144 C140 1_555 1_555
C141 C104 1_555 1_555
H145 C141 1_555 1_555
H146 C141 1_555 1_555
C142 C89 1_555 1_555
H147 C142 1_555 1_555
C143 C114 1_555 1_555
H148 C143 1_555 1_555
H149 C143 1_555 1_555
C144 C129 1_555 1_555
H150 C144 1_555 1_555
H151 C144 1_555 1_555
C145 C103 1_555 1_555
H152 C145 1_555 1_555
H153 C145 1_555 1_555
C146 C117 1_555 1_555
H154 C146 1_555 1_555
C147 C125 1_555 1_555
H155 C147 1_555 1_555
H156 C147 1_555 1_555
C148 C103 1_555 1_555
H157 C148 1_555 1_555
H158 C148 1_555 1_555
C149 C124 1_555 1_555
H159 C149 1_555 1_555
H160 C149 1_555 1_555
H161 C149 1_555 1_555
C150 C134 1_555 1_555
H162 C150 1_555 1_555
H163 C150 1_555 1_555
C151 C141 1_555 1_555
H164 C151 1_555 1_555
H165 C151 1_555 1_555
H166 C151 1_555 1_555
C152 C139 1_555 1_555
H167 C152 1_555 1_555
H168 C152 1_555 1_555
H169 C152 1_555 1_555
C153 C144 1_555 1_555
H170 C153 1_555 1_555
H171 C153 1_555 1_555
H172 C153 1_555 1_555
C154 C121 1_555 1_555
H173 C154 1_555 1_555
H174 C154 1_555 1_555
H175 C154 1_555 1_555
C155 C136 1_555 1_555
H176 C155 1_555 1_555
H177 C155 1_555 1_555
H178 C155 1_555 1_555
C156 C117 1_555 1_555
H179 C156 1_555 1_555
H180 C156 1_555 1_555
C4 C8 1_555 1_555
C13 C20 1_555 1_555
C14 C27 1_555 1_555
C15 C16 1_555 1_555
C23 C61 1_555 1_555
C25 C39 1_555 1_555
C29 C30 1_555 1_555
C35 C40 1_555 1_555
C38 C55 1_555 1_555
C38 C69 1_555 1_555
C39 C42 1_555 1_555
C41 C48 1_555 1_555
C48 C65 1_555 1_555
C51 C60 1_555 1_555
C52 C53 1_555 1_555
C56 C71 1_555 1_555
C59 C75 1_555 1_555
C61 C62 1_555 1_555
C64 C74 1_555 1_555
C82 C122 1_555 1_555
C86 C109 1_555 1_555
C89 C130 1_555 1_555
C95 C97 1_555 1_555
C98 C142 1_555 1_555
C100 C120 1_555 1_555
C107 C122 1_555 1_555
C108 C137 1_555 1_555
C111 C120 1_555 1_555
C112 C130 1_555 1_555
C113 C126 1_555 1_555
C115 C128 1_555 1_555
C118 C148 1_555 1_555
C119 C156 1_555 1_555
C126 C131 1_555 1_555
C127 C135 1_555 1_555
C129 C147 1_555 1_555
C133 C145 1_555 1_555
C136 C143 1_555 1_555
C138 C146 1_555 1_555
C139 C150 1_555 1_555

#END
