
#######################################################################
#
#                 Cambridge Crystallographic Data Centre
#                                CCDC 
#
#######################################################################
#
# If this CIF has been generated from an entry in the Cambridge 
# Structural Database, then it will include bibliographic, chemical, 
# crystal, experimental, refinement or atomic coordinate data resulting 
# from the CCDC's data processing and validation procedures.
#
#######################################################################

data_LUQDOS
_chemical_name_common            1,1',9,9'-bicarbazole
_chemical_formula_moiety         'C24 H14 N2'
_chemical_name_systematic        
indolo[1',2',3':1,8]cinnolino[4,3,2-jk]carbazole
_symmetry_cell_setting           monoclinic
_symmetry_space_group_name_H-M   'P 21/c'
_symmetry_Int_Tables_number      14
_space_group_name_Hall           '-P 2ybc'
loop_
_symmetry_equiv_pos_site_id
_symmetry_equiv_pos_as_xyz
1 x,y,z
2 -x,1/2+y,1/2-z
3 -x,-y,-z
4 x,1/2-y,1/2+z
_cell_length_a                   5.1392(15)
_cell_length_b                   16.210(5)
_cell_length_c                   18.768(6)
_cell_angle_alpha                90
_cell_angle_beta                 98.100(4)
_cell_angle_gamma                90
_cell_volume                     1547.9
_exptl_crystal_colour            yellow
_exptl_crystal_description       needle
_cell_formula_units_Z            4
_exptl_crystal_recrystallization_method dichloromethane/hexane
_exptl_crystal_preparation       Luminescent
loop_
_atom_site_label
_atom_site_type_symbol
_atom_site_fract_x
_atom_site_fract_y
_atom_site_fract_z
N1 N 0.2281(2) 0.10708(6) 0.31752(6)
C1 C -0.2451(3) 0.15460(8) 0.15538(8)
H1 H -0.2921 0.1417 0.1059
C2 C 0.0210(2) 0.13656(8) 0.26783(7)
C3 C -0.0321(3) 0.11455(8) 0.19497(7)
C4 C 0.1519(3) 0.05579(8) 0.16918(7)
C5 C 0.0452(3) 0.21468(8) 0.36970(7)
C6 C 0.2632(3) 0.15944(8) 0.37730(7)
C7 C 0.5817(2) -0.00509(7) 0.33060(7)
C8 C 0.4400(3) 0.22637(9) 0.48640(8)
H2 H 0.5760 0.2323 0.5259
C9 C 0.6636(3) -0.01817(8) 0.40377(7)
H3 H 0.5831 0.0100 0.4393
N2 N 0.3932(2) 0.04734(6) 0.29358(6)
C10 C 0.4669(3) 0.16711(8) 0.43459(7)
H4 H 0.6185 0.1330 0.4380
C11 C 0.6862(3) -0.05283(8) 0.27745(7)
C12 C 0.3526(3) 0.02618(7) 0.22104(7)
C13 C -0.1069(3) 0.20010(8) 0.29990(7)
C14 C 0.5356(3) -0.06153(8) 0.13741(7)
H5 H 0.6612 -0.1007 0.1262
C15 C 0.1548(3) 0.02590(8) 0.09950(7)
H6 H 0.0246 0.0441 0.0618
C16 C 0.8672(3) -0.07389(9) 0.42296(8)
H7 H 0.9287 -0.0829 0.4725
C17 C 0.0249(3) 0.27291(9) 0.42379(8)
H8 H -0.1221 0.3090 0.4202
C18 C -0.3921(3) 0.21401(9) 0.18757(8)
H9 H -0.5412 0.2383 0.1597
C19 C 0.5370(3) -0.03366(8) 0.20832(7)
C20 C -0.3252(3) 0.23781(8) 0.25848(8)
H10 H -0.4243 0.2788 0.2789
C21 C 0.2196(3) 0.27759(8) 0.48243(8)
H11 H 0.2037 0.3156 0.5201
C22 C 0.3464(3) -0.03053(9) 0.08402(8)
H12 H 0.3466 -0.0480 0.0357
C23 C 0.9837(3) -0.11700(9) 0.37119(8)
H13 H 1.1275 -0.1529 0.3859
C24 C 0.8914(3) -0.10791(8) 0.29862(8)
H14 H 0.9668 -0.1388 0.2637
loop_
_geom_bond_atom_site_label_1
_geom_bond_atom_site_label_2
_geom_bond_site_symmetry_1
_geom_bond_site_symmetry_2
N1 C2 1_555 1_555
C1 H1 1_555 1_555
C2 C3 1_555 1_555
C3 C1 1_555 1_555
C4 C3 1_555 1_555
C5 C6 1_555 1_555
C6 N1 1_555 1_555
C7 C9 1_555 1_555
C8 H2 1_555 1_555
C9 H3 1_555 1_555
N2 N1 1_555 1_555
C10 C6 1_555 1_555
H4 C10 1_555 1_555
C11 C7 1_555 1_555
C12 C4 1_555 1_555
C13 C2 1_555 1_555
C14 H5 1_555 1_555
C15 C4 1_555 1_555
H6 C15 1_555 1_555
C16 C9 1_555 1_555
H7 C16 1_555 1_555
C17 C5 1_555 1_555
H8 C17 1_555 1_555
C18 C1 1_555 1_555
H9 C18 1_555 1_555
C19 C11 1_555 1_555
C20 C13 1_555 1_555
H10 C20 1_555 1_555
C21 C8 1_555 1_555
H11 C21 1_555 1_555
C22 C14 1_555 1_555
H12 C22 1_555 1_555
C23 C16 1_555 1_555
H13 C23 1_555 1_555
C24 C11 1_555 1_555
H14 C24 1_555 1_555
C5 C13 1_555 1_555
C7 N2 1_555 1_555
C8 C10 1_555 1_555
N2 C12 1_555 1_555
C12 C19 1_555 1_555
C14 C19 1_555 1_555
C15 C22 1_555 1_555
C17 C21 1_555 1_555
C18 C20 1_555 1_555
C23 C24 1_555 1_555

#END
