
#######################################################################
#
#                 Cambridge Crystallographic Data Centre
#                                CCDC 
#
#######################################################################
#
# If this CIF has been generated from an entry in the Cambridge 
# Structural Database, then it will include bibliographic, chemical, 
# crystal, experimental, refinement or atomic coordinate data resulting 
# from the CCDC's data processing and validation procedures.
#
#######################################################################

data_LUQDUY
_chemical_formula_moiety         'C14 H14 N6 O3'
_chemical_name_systematic        
2,4-dimethoxy-6-(4-(4-methoxyphenyl)-1H-1,2,3-triazol-1-yl)-1,3,5-triazine
_symmetry_cell_setting           monoclinic
_symmetry_space_group_name_H-M   'P 21/c'
_symmetry_Int_Tables_number      14
_space_group_name_Hall           '-P 2ybc'
loop_
_symmetry_equiv_pos_site_id
_symmetry_equiv_pos_as_xyz
1 x,y,z
2 -x,1/2+y,1/2-z
3 -x,-y,-z
4 x,1/2-y,1/2+z
_cell_length_a                   7.2296(2)
_cell_length_b                   17.1986(5)
_cell_length_c                   11.7374(3)
_cell_angle_alpha                90
_cell_angle_beta                 101.889(3)
_cell_angle_gamma                90
_cell_volume                     1428.11
_cell_formula_units_Z            4
loop_
_atom_site_label
_atom_site_type_symbol
_atom_site_fract_x
_atom_site_fract_y
_atom_site_fract_z
O1 O 1.42082(17) 0.07057(7) 0.91937(10)
O2 O 0.75942(17) 0.50008(7) 0.25475(10)
O3 O 0.55748(15) 0.32100(6) -0.02175(9)
N1 N 0.82528(17) 0.37214(7) 0.30035(10)
N2 N 0.65755(18) 0.41427(8) 0.11502(11)
N3 N 0.88804(17) 0.24229(7) 0.33334(10)
N4 N 0.71619(17) 0.27936(7) 0.15113(10)
N5 N 0.9769(2) 0.12857(8) 0.39227(11)
N6 N 0.8861(2) 0.16647(8) 0.30187(11)
C1 C 0.8633(3) 0.51977(11) 0.36872(16)
H1 H 0.8772 0.5752 0.3751
H2 H 0.9859 0.4959 0.3814
H3 H 0.7963 0.5014 0.4260
C2 C 1.5137(3) 0.12251(11) 1.00764(14)
H4 H 1.6119 0.1498 0.9803
H5 H 1.5679 0.0935 1.0763
H6 H 1.4239 0.1592 1.0258
C3 C 1.2488(2) 0.04825(9) 0.73174(13)
H7 H 1.2547 -0.0046 0.7487
C4 C 0.7486(2) 0.42617(9) 0.22414(13)
C5 C 1.3336(2) 0.10128(9) 0.81515(12)
C6 C 0.4773(3) 0.38376(10) -0.09869(14)
H8 H 0.4213 0.3630 -0.1738
H9 H 0.5752 0.4199 -0.1065
H10 H 0.3824 0.4100 -0.0667
C7 C 1.3256(2) 0.17987(9) 0.78923(13)
H11 H 1.3833 0.2159 0.8443
C8 C 0.80329(19) 0.30120(9) 0.25551(12)
C9 C 1.2310(2) 0.20418(9) 0.68052(13)
H12 H 1.2258 0.2570 0.6634
C10 C 0.9822(2) 0.25152(9) 0.44461(12)
H13 H 1.0036 0.2977 0.4865
C11 C 1.14373(19) 0.15222(9) 0.59638(12)
C12 C 0.6454(2) 0.34042(9) 0.08508(12)
C13 C 1.0389(2) 0.17900(9) 0.48218(12)
C14 C 1.1557(2) 0.07363(9) 0.62392(14)
H14 H 1.0998 0.0375 0.5685
loop_
_geom_bond_atom_site_label_1
_geom_bond_atom_site_label_2
_geom_bond_site_symmetry_1
_geom_bond_site_symmetry_2
O1 C2 1_555 1_555
O2 C1 1_555 1_555
O3 C6 1_555 1_555
N1 C4 1_555 1_555
N2 C4 1_555 1_555
N3 N6 1_555 1_555
N4 C8 1_555 1_555
N5 N6 1_555 1_555
C1 H1 1_555 1_555
H2 C1 1_555 1_555
H3 C1 1_555 1_555
C2 H4 1_555 1_555
H5 C2 1_555 1_555
H6 C2 1_555 1_555
C3 H7 1_555 1_555
C4 O2 1_555 1_555
C5 O1 1_555 1_555
C6 H8 1_555 1_555
H9 C6 1_555 1_555
H10 C6 1_555 1_555
C7 C5 1_555 1_555
H11 C7 1_555 1_555
C8 N1 1_555 1_555
C9 C7 1_555 1_555
H12 C9 1_555 1_555
C10 N3 1_555 1_555
H13 C10 1_555 1_555
C11 C9 1_555 1_555
C12 O3 1_555 1_555
C13 N5 1_555 1_555
C14 C3 1_555 1_555
H14 C14 1_555 1_555
N2 C12 1_555 1_555
N3 C8 1_555 1_555
N4 C12 1_555 1_555
C3 C5 1_555 1_555
C10 C13 1_555 1_555
C11 C13 1_555 1_555
C11 C14 1_555 1_555

#END
