
#######################################################################
#
#                 Cambridge Crystallographic Data Centre
#                                CCDC 
#
#######################################################################
#
# If this CIF has been generated from an entry in the Cambridge 
# Structural Database, then it will include bibliographic, chemical, 
# crystal, experimental, refinement or atomic coordinate data resulting 
# from the CCDC's data processing and validation procedures.
#
#######################################################################

data_LUQQIY
_chemical_formula_moiety         'C24 H50 Ca1 O12,2(H2 O1)'
_chemical_name_systematic        
'Tetra-aqua-(bis(2,3-di-t-butylsuccinato))-calcium dihydrate'
_symmetry_cell_setting           monoclinic
_symmetry_space_group_name_H-M   'P 21/n'
_symmetry_Int_Tables_number      14
_space_group_name_Hall           '-P 2yn'
loop_
_symmetry_equiv_pos_site_id
_symmetry_equiv_pos_as_xyz
1 x,y,z
2 1/2-x,1/2+y,1/2-z
3 -x,-y,-z
4 1/2+x,1/2-y,1/2+z
_cell_length_a                   6.4772(6)
_cell_length_b                   14.4843(13)
_cell_length_c                   17.5838(15)
_cell_angle_alpha                90
_cell_angle_beta                 92.390(2)
_cell_angle_gamma                90
_cell_volume                     1648.24
_exptl_crystal_colour            colorless
_exptl_crystal_description       block
_cell_formula_units_Z            2
loop_
_atom_site_label
_atom_site_type_symbol
_atom_site_fract_x
_atom_site_fract_y
_atom_site_fract_z
C1 C 0.7560(3) 0.32776(16) 0.60364(12)
C2 C 0.8959(3) 0.25125(15) 0.63560(12)
H1 H 1.0384 0.2775 0.6337
C3 C 0.8718(3) 0.22757(15) 0.72120(12)
H2 H 0.9851 0.1824 0.7335
C4 C 0.6748(3) 0.17639(15) 0.73921(12)
C5 C 0.8979(3) 0.16538(16) 0.58013(13)
C6 C 1.0501(4) 0.09292(17) 0.61251(15)
H3 H 1.0717 0.0453 0.5740
H4 H 0.9936 0.0645 0.6577
H5 H 1.1822 0.1227 0.6264
C7 C 0.6865(4) 0.11943(17) 0.56567(14)
H6 H 0.5871 0.1654 0.5458
H7 H 0.6386 0.0940 0.6135
H8 H 0.6988 0.0696 0.5285
C8 C 0.9752(4) 0.19899(18) 0.50354(15)
H9 H 0.9879 0.1463 0.4691
H10 H 1.1103 0.2286 0.5116
H11 H 0.8766 0.2436 0.4810
C9 C 0.9120(3) 0.30965(16) 0.77966(13)
C10 C 0.9607(5) 0.2670(2) 0.85814(16)
H12 H 0.9892 0.3162 0.8953
H13 H 1.0820 0.2269 0.8556
H14 H 0.8421 0.2306 0.8737
C11 C 1.0991(4) 0.3663(2) 0.75702(18)
H15 H 1.0670 0.3976 0.7086
H16 H 1.2177 0.3252 0.7515
H17 H 1.1323 0.4123 0.7965
C12 C 0.7304(4) 0.37496(19) 0.78804(16)
H18 H 0.7661 0.4214 0.8269
H19 H 0.6096 0.3399 0.8033
H20 H 0.6985 0.4057 0.7393
Ca1 Ca 1.0000 0.5000 0.5000
O1 O 0.8313(2) 0.39039(11) 0.56608(9)
O2 O 0.5612(2) 0.32618(11) 0.61632(9)
O3 O 0.6804(2) 0.10824(11) 0.78085(9)
O4 O 0.4967(2) 0.20693(11) 0.71229(9)
O5 O 1.3095(2) 0.41327(12) 0.49892(10)
O6 O 1.1049(3) 0.57004(13) 0.61368(10)
H21 H 1.380(5) 0.425(2) 0.4635(19)
H22 H 1.380(5) 0.386(2) 0.534(2)
H23 H 1.216(5) 0.565(2) 0.6287(18)
H24 H 1.034(5) 0.584(2) 0.6523(18)
H27 H 0.525(4) 0.263(2) 0.6753(16)
C1B C 1.2440(3) 0.67224(16) 0.39636(12)
C2B C 1.1041(3) 0.74875(15) 0.36440(12)
H1B H 0.9616 0.7225 0.3663
C3B C 1.1282(3) 0.77243(15) 0.27880(12)
H2B H 1.0149 0.8176 0.2665
C4B C 1.3252(3) 0.82361(15) 0.26079(12)
C5B C 1.1021(3) 0.83462(16) 0.41987(13)
C6B C 0.9499(4) 0.90708(17) 0.38749(15)
H3B H 0.9283 0.9547 0.4260
H4B H 1.0064 0.9355 0.3423
H5B H 0.8178 0.8773 0.3736
C7B C 1.3135(4) 0.88057(17) 0.43433(14)
H6B H 1.4129 0.8346 0.4542
H7B H 1.3614 0.9060 0.3865
H8B H 1.3012 0.9304 0.4715
C8B C 1.0248(4) 0.80101(18) 0.49646(15)
H9B H 1.0121 0.8537 0.5309
H10B H 0.8897 0.7714 0.4884
H11B H 1.1234 0.7564 0.5190
C9B C 1.0880(3) 0.69035(16) 0.22034(13)
C10B C 1.0393(5) 0.7330(2) 0.14186(16)
H12B H 1.0108 0.6838 0.1047
H13B H 0.9180 0.7731 0.1444
H14B H 1.1579 0.7694 0.1263
C11B C 0.9009(4) 0.6337(2) 0.24298(18)
H15B H 0.9330 0.6024 0.2914
H16B H 0.7823 0.6748 0.2485
H17B H 0.8677 0.5877 0.2035
C12B C 1.2696(4) 0.62504(19) 0.21196(16)
H18B H 1.2339 0.5786 0.1731
H19B H 1.3904 0.6601 0.1967
H20B H 1.3015 0.5943 0.2607
O1B O 1.1687(2) 0.60961(11) 0.43392(9)
O2B O 1.4388(2) 0.67382(11) 0.38368(9)
O3B O 1.3196(2) 0.89176(11) 0.21915(9)
O4B O 1.5033(2) 0.79307(11) 0.28771(9)
O5B O 0.6905(2) 0.58673(12) 0.50108(10)
O6B O 0.8951(3) 0.42996(13) 0.38632(10)
H21B H 0.620(5) 0.575(2) 0.5365(19)
H22B H 0.620(5) 0.614(2) 0.466(2)
H23B H 0.784(5) 0.435(2) 0.3713(18)
H24B H 0.966(5) 0.416(2) 0.3477(18)
H27B H 1.475(4) 0.737(2) 0.3247(16)
O7 O 0.5077(3) 0.53032(13) 0.63567(10)
H25 H 0.591(6) 0.548(3) 0.664(2)
H26 H 0.534(5) 0.467(2) 0.6309(18)
loop_
_geom_bond_atom_site_label_1
_geom_bond_atom_site_label_2
_geom_bond_site_symmetry_1
_geom_bond_site_symmetry_2
C1 C2 1_555 1_555
C2 H1 1_555 1_555
C3 C2 1_555 1_555
H2 C3 1_555 1_555
C4 C3 1_555 1_555
C5 C2 1_555 1_555
C6 C5 1_555 1_555
H3 C6 1_555 1_555
H4 C6 1_555 1_555
H5 C6 1_555 1_555
C7 C5 1_555 1_555
H6 C7 1_555 1_555
H7 C7 1_555 1_555
H8 C7 1_555 1_555
C8 C5 1_555 1_555
H9 C8 1_555 1_555
H10 C8 1_555 1_555
H11 C8 1_555 1_555
C9 C3 1_555 1_555
C10 C9 1_555 1_555
H12 C10 1_555 1_555
H13 C10 1_555 1_555
H14 C10 1_555 1_555
C11 C9 1_555 1_555
H15 C11 1_555 1_555
H16 C11 1_555 1_555
H17 C11 1_555 1_555
C12 C9 1_555 1_555
H18 C12 1_555 1_555
H19 C12 1_555 1_555
H20 C12 1_555 1_555
Ca1 O1 1_555 1_555
O1 C1 1_555 1_555
O2 C1 1_555 1_555
O3 C4 1_555 1_555
O4 C4 1_555 1_555
O5 Ca1 1_555 1_555
O6 Ca1 1_555 1_555
O7 H25 1_555 1_555
H21 O5 1_555 1_555
H22 O5 1_555 1_555
H23 O6 1_555 1_555
H24 O6 1_555 1_555
H26 O7 1_555 1_555
H27 O4 1_555 1_555
C1B C2B 1_555 1_555
C2B H1B 1_555 1_555
C3B C2B 1_555 1_555
H2B C3B 1_555 1_555
C4B C3B 1_555 1_555
C5B C2B 1_555 1_555
C6B C5B 1_555 1_555
H3B C6B 1_555 1_555
H4B C6B 1_555 1_555
H5B C6B 1_555 1_555
C7B C5B 1_555 1_555
H6B C7B 1_555 1_555
H7B C7B 1_555 1_555
H8B C7B 1_555 1_555
C8B C5B 1_555 1_555
H9B C8B 1_555 1_555
H10B C8B 1_555 1_555
H11B C8B 1_555 1_555
C9B C3B 1_555 1_555
C10B C9B 1_555 1_555
H12B C10B 1_555 1_555
H13B C10B 1_555 1_555
H14B C10B 1_555 1_555
C11B C9B 1_555 1_555
H15B C11B 1_555 1_555
H16B C11B 1_555 1_555
H17B C11B 1_555 1_555
C12B C9B 1_555 1_555
H18B C12B 1_555 1_555
H19B C12B 1_555 1_555
H20B C12B 1_555 1_555
O1B Ca1 1_555 1_555
O2B C1B 1_555 1_555
O3B C4B 1_555 1_555
O4B C4B 1_555 1_555
O5B Ca1 1_555 1_555
O6B Ca1 1_555 1_555
H21B O5B 1_555 1_555
H22B O5B 1_555 1_555
H23B O6B 1_555 1_555
H24B O6B 1_555 1_555
H27B O4B 1_555 1_555
C1B O1B 1_555 1_555

#END
