
#######################################################################
#
#                 Cambridge Crystallographic Data Centre
#                                CCDC 
#
#######################################################################
#
# If this CIF has been generated from an entry in the Cambridge 
# Structural Database, then it will include bibliographic, chemical, 
# crystal, experimental, refinement or atomic coordinate data resulting 
# from the CCDC's data processing and validation procedures.
#
#######################################################################

data_LUQVEZ01
_chemical_formula_moiety         'C30 H22'
_chemical_name_systematic        
octacyclo[14.14.0.0^2,7^.0^8,24^.0^9,23^.0^10,15^.0^17,22^.0^25,30^]triaconta-2,4,6,10,12,14,17,19,21,25,27,29-dodecaene
_symmetry_cell_setting           orthorhombic
_symmetry_space_group_name_H-M   'P n m a'
_symmetry_Int_Tables_number      62
_space_group_name_Hall           '-P 2ac 2n'
loop_
_symmetry_equiv_pos_site_id
_symmetry_equiv_pos_as_xyz
1 x,y,z
2 1/2+x,1/2-y,1/2-z
3 -x,1/2+y,-z
4 1/2-x,-y,1/2+z
5 -x,-y,-z
6 1/2-x,1/2+y,1/2+z
7 x,1/2-y,z
8 1/2+x,y,1/2-z
_cell_length_a                   8.4960(5)
_cell_length_b                   19.7509(12)
_cell_length_c                   12.0282(7)
_cell_angle_alpha                90
_cell_angle_beta                 90
_cell_angle_gamma                90
_cell_volume                     2018.38
_exptl_crystal_colour            colorless
_cell_formula_units_Z            4
loop_
_atom_site_label
_atom_site_type_symbol
_atom_site_fract_x
_atom_site_fract_y
_atom_site_fract_z
C1 C 0.6365(3) 0.92310(13) -0.0597(2)
H1 H 0.7113 0.9537 -0.0338
C2 C 0.6193(3) 0.86088(12) -0.0093(2)
H2 H 0.6863 0.8493 0.0488
C3 C 0.5053(3) 0.81520(11) -0.04258(17)
C4 C 0.4903(4) 0.7500 0.0237(3)
H3 H 0.5831 0.7500 0.0720
C5 C 0.3452(4) 0.7500 0.1081(3)
H4 H 0.3941 0.7500 0.1819
C6 C 0.2443(3) 0.68594(11) 0.10645(19)
C7 C 0.1407(3) 0.66976(12) 0.02126(19)
C8 C 0.0553(3) 0.61046(13) 0.0290(2)
H5 H -0.0140 0.5992 -0.0279
C9 C 0.0698(3) 0.56714(13) 0.1192(3)
H6 H 0.0106 0.5276 0.1225
C10 C 0.1720(3) 0.58321(13) 0.2032(2)
H7 H 0.1836 0.5546 0.2640
C11 C 0.2579(3) 0.64272(13) 0.1964(2)
H8 H 0.3264 0.6539 0.2538
C12 C 0.1260(3) 0.78961(12) -0.08358(19)
H9 H 0.0326 0.8052 -0.1239
C13 C 0.2704(3) 0.78975(12) -0.16655(19)
H10 H 0.2338 0.8055 -0.2393
C14 C 0.4087(3) 0.83153(12) -0.13261(19)
C15 C 0.4308(3) 0.89428(12) -0.1854(2)
H11 H 0.3688 0.9054 -0.2464
C16 C 0.5422(3) 0.93961(13) -0.1485(2)
H12 H 0.5537 0.9813 -0.1836
C1F C 0.6365(3) 0.57690(13) -0.0597(2)
H1F H 0.7113 0.5463 -0.0338
C2F C 0.6193(3) 0.63912(12) -0.0093(2)
H2F H 0.6863 0.6507 0.0488
C3F C 0.5053(3) 0.68480(11) -0.04258(17)
C6F C 0.2443(3) 0.81406(11) 0.10645(19)
C7F C 0.1407(3) 0.83024(12) 0.02126(19)
C8F C 0.0553(3) 0.88954(13) 0.0290(2)
H5F H -0.0140 0.9008 -0.0279
C9F C 0.0698(3) 0.93286(13) 0.1192(3)
H6F H 0.0106 0.9724 0.1225
C10F C 0.1720(3) 0.91679(13) 0.2032(2)
H7F H 0.1836 0.9454 0.2640
C11F C 0.2579(3) 0.85728(13) 0.1964(2)
H8F H 0.3264 0.8461 0.2538
C12F C 0.1260(3) 0.71039(12) -0.08358(19)
H9F H 0.0326 0.6948 -0.1239
C13F C 0.2704(3) 0.71025(12) -0.16655(19)
H10F H 0.2338 0.6945 -0.2393
C14F C 0.4087(3) 0.66847(12) -0.13261(19)
C15F C 0.4308(3) 0.60572(12) -0.1854(2)
H11F H 0.3688 0.5946 -0.2464
C16F C 0.5422(3) 0.56039(13) -0.1485(2)
H12F H 0.5537 0.5187 -0.1836
loop_
_geom_bond_atom_site_label_1
_geom_bond_atom_site_label_2
_geom_bond_site_symmetry_1
_geom_bond_site_symmetry_2
C1 H1 1_555 1_555
C2 C1 1_555 1_555
H2 C2 1_555 1_555
C3 C2 1_555 1_555
C4 C3 1_555 1_555
H3 C4 1_555 1_555
C5 C4 1_555 1_555
H4 C5 1_555 1_555
C6 C5 1_555 1_555
C7 C6 1_555 1_555
C8 C7 1_555 1_555
H5 C8 1_555 1_555
C9 C8 1_555 1_555
H6 C9 1_555 1_555
C10 C9 1_555 1_555
H7 C10 1_555 1_555
C11 C6 1_555 1_555
H8 C11 1_555 1_555
C12 H9 1_555 1_555
C13 C12 1_555 1_555
H10 C13 1_555 1_555
C14 C3 1_555 1_555
C15 C14 1_555 1_555
H11 C15 1_555 1_555
C16 C1 1_555 1_555
H12 C16 1_555 1_555
C1F H1F 1_555 1_555
C2F C1F 1_555 1_555
H2F C2F 1_555 1_555
C3F C4 1_555 1_555
C6F C5 1_555 1_555
C7F C12 1_555 1_555
C8F C7F 1_555 1_555
H5F C8F 1_555 1_555
C9F C8F 1_555 1_555
H6F C9F 1_555 1_555
C10F C9F 1_555 1_555
H7F C10F 1_555 1_555
C11F C6F 1_555 1_555
H8F C11F 1_555 1_555
C12F C7 1_555 1_555
H9F C12F 1_555 1_555
C13F C13 1_555 1_555
H10F C13F 1_555 1_555
C14F C3F 1_555 1_555
C15F C14F 1_555 1_555
H11F C15F 1_555 1_555
C16F C1F 1_555 1_555
H12F C16F 1_555 1_555
C10 C11 1_555 1_555
C12 C12F 1_555 1_555
C13 C14 1_555 1_555
C15 C16 1_555 1_555
C2F C3F 1_555 1_555
C6F C7F 1_555 1_555
C10F C11F 1_555 1_555
C12F C13F 1_555 1_555
C13F C14F 1_555 1_555
C15F C16F 1_555 1_555

#END
