
#######################################################################
#
#                 Cambridge Crystallographic Data Centre
#                                CCDC 
#
#######################################################################
#
# If this CIF has been generated from an entry in the Cambridge 
# Structural Database, then it will include bibliographic, chemical, 
# crystal, experimental, refinement or atomic coordinate data resulting 
# from the CCDC's data processing and validation procedures.
#
#######################################################################

data_LUSLOA
_chemical_formula_moiety         'C13 H16 O2'
_chemical_name_systematic        2-Hydroxy-1-benzoylcyclohexane
_symmetry_cell_setting           monoclinic
_symmetry_space_group_name_H-M   'P 21/c'
_symmetry_Int_Tables_number      14
_space_group_name_Hall           '-P 2ybc'
loop_
_symmetry_equiv_pos_site_id
_symmetry_equiv_pos_as_xyz
1 x,y,z
2 -x,1/2+y,1/2-z
3 -x,-y,-z
4 x,1/2-y,1/2+z
_cell_length_a                   9.9320(4)
_cell_length_b                   9.2240(4)
_cell_length_c                   12.1770(5)
_cell_angle_alpha                90
_cell_angle_beta                 92.967(3)
_cell_angle_gamma                90
_cell_volume                     1114.07
_cell_formula_units_Z            4
loop_
_atom_site_label
_atom_site_type_symbol
_atom_site_fract_x
_atom_site_fract_y
_atom_site_fract_z
O1 O -0.0662(1) -0.0026(1) 0.6708(1)
O2 O 0.1997(1) 0.0643(1) 0.5376(1)
C1 C -0.0390(1) 0.1407(1) 0.7101(1)
C2 C 0.0586(1) 0.2216(1) 0.6363(1)
C3 C -0.0117(1) 0.2620(1) 0.5255(1)
C4 C -0.1373(1) 0.3527(2) 0.5420(1)
C5 C -0.2356(1) 0.2708(2) 0.6113(1)
C6 C -0.1674(1) 0.2293(2) 0.7219(1)
C7 C 0.1840(1) 0.1322(1) 0.6225(1)
C8 C 0.2920(1) 0.1257(1) 0.7132(1)
C9 C 0.2870(1) 0.2071(1) 0.8092(1)
C10 C 0.3912(1) 0.1984(2) 0.8899(1)
C11 C 0.5001(1) 0.1087(2) 0.8747(1)
C12 C 0.5060(1) 0.0275(2) 0.7798(1)
C13 C 0.4027(1) 0.0356(2) 0.6993(1)
H1 H -0.1051(18) -0.0003(19) 0.6017(16)
H2 H 0.0066(11) 0.1269(13) 0.7850(10)
H3 H 0.0836(11) 0.3112(15) 0.6758(10)
H4 H -0.0359(12) 0.1722(16) 0.4846(10)
H5 H 0.0544(14) 0.3183(16) 0.4810(12)
H6 H -0.1121(13) 0.4476(17) 0.5786(11)
H7 H -0.1817(14) 0.3810(17) 0.4700(13)
H8 H -0.2676(12) 0.1832(16) 0.5719(11)
H9 H -0.3172(14) 0.3305(16) 0.6236(11)
H10 H -0.1422(12) 0.3185(16) 0.7635(11)
H11 H -0.2275(13) 0.1688(15) 0.7656(11)
H12 H 0.2107(13) 0.2717(14) 0.8200(10)
H13 H 0.3876(13) 0.2578(15) 0.9571(12)
H14 H 0.5732(15) 0.1040(16) 0.9323(12)
H15 H 0.5859(17) -0.0368(19) 0.7695(13)
H16 H 0.4041(13) -0.0216(15) 0.6328(13)
loop_
_geom_bond_atom_site_label_1
_geom_bond_atom_site_label_2
_geom_bond_site_symmetry_1
_geom_bond_site_symmetry_2
O1 C1 1_555 1_555
O2 C7 1_555 1_555
C1 C2 1_555 1_555
C2 C3 1_555 1_555
C3 C4 1_555 1_555
C4 C5 1_555 1_555
C5 C6 1_555 1_555
C6 C1 1_555 1_555
C7 C2 1_555 1_555
C8 C7 1_555 1_555
C9 C8 1_555 1_555
C10 C9 1_555 1_555
C11 C10 1_555 1_555
C12 C11 1_555 1_555
C13 C8 1_555 1_555
H1 O1 1_555 1_555
H2 C1 1_555 1_555
H3 C2 1_555 1_555
H4 C3 1_555 1_555
H5 C3 1_555 1_555
H6 C4 1_555 1_555
H7 C4 1_555 1_555
H8 C5 1_555 1_555
H9 C5 1_555 1_555
H10 C6 1_555 1_555
H11 C6 1_555 1_555
H12 C9 1_555 1_555
H13 C10 1_555 1_555
H14 C11 1_555 1_555
H15 C12 1_555 1_555
H16 C13 1_555 1_555
C12 C13 1_555 1_555

#END
