
#######################################################################
#
#                 Cambridge Crystallographic Data Centre
#                                CCDC 
#
#######################################################################
#
# If this CIF has been generated from an entry in the Cambridge 
# Structural Database, then it will include bibliographic, chemical, 
# crystal, experimental, refinement or atomic coordinate data resulting 
# from the CCDC's data processing and validation procedures.
#
#######################################################################

data_LUSLAM
_chemical_formula_moiety         'C15 H12 N4'
_chemical_name_systematic        ((7-Azaindol-1-yl)-(7-azaindol-7-yl))methane
_symmetry_cell_setting           triclinic
_symmetry_space_group_name_H-M   'P -1'
_symmetry_Int_Tables_number      2
_space_group_name_Hall           '-P 1'
loop_
_symmetry_equiv_pos_site_id
_symmetry_equiv_pos_as_xyz
1 x,y,z
2 -x,-y,-z
_cell_length_a                   6.997(4)
_cell_length_b                   9.153(4)
_cell_length_c                   10.238(5)
_cell_angle_alpha                87.625(9)
_cell_angle_beta                 85.644(8)
_cell_angle_gamma                72.297(8)
_cell_volume                     622.708
_exptl_crystal_colour            yellow
_chemical_melting_point          144-145deg.C
_cell_formula_units_Z            2
_exptl_crystal_recrystallization_method dichloromethane/hexanes
loop_
_atom_site_label
_atom_site_type_symbol
_atom_site_fract_x
_atom_site_fract_y
_atom_site_fract_z
N1 N 0.1315(3) 0.3046(2) 0.6067(2)
N2 N 0.1812(3) 0.1792(2) 0.3990(2)
N3 N 0.2997(3) 0.3754(2) 0.2812(2)
N4 N 0.3940(3) 0.2336(2) 0.0809(2)
C1 C 0.1499(5) 0.2428(3) 0.7323(3)
C2 C 0.2084(5) 0.0830(3) 0.7388(3)
C3 C 0.2306(4) 0.0362(3) 0.6062(3)
C4 C 0.2838(4) -0.1008(3) 0.5380(4)
C5 C 0.2845(4) -0.0958(3) 0.4027(3)
C6 C 0.2325(4) 0.0424(3) 0.3345(3)
C7 C 0.1795(3) 0.1804(2) 0.5321(2)
C8 C 0.3796(4) 0.4702(2) 0.3497(3)
C9 C 0.5507(5) 0.4810(3) 0.2854(3)
C10 C 0.5867(4) 0.3899(3) 0.1693(2)
C11 C 0.7290(5) 0.3514(3) 0.0637(3)
C12 C 0.7017(5) 0.2541(3) -0.0306(3)
C13 C 0.5363(5) 0.1993(3) -0.0182(3)
C14 C 0.4253(4) 0.3253(2) 0.1708(2)
C15 C 0.1255(4) 0.3269(3) 0.3230(3)
H1 H 0.1230(50) 0.3070(30) 0.8090(30)
H2 H 0.2220(50) 0.0290(30) 0.8210(30)
H3 H 0.3160(50) -0.1950(40) 0.5920(30)
H4 H 0.3210(50) -0.1860(40) 0.3500(30)
H5 H 0.2300(40) 0.0530(30) 0.2410(30)
H6 H 0.3060(40) 0.5130(30) 0.4360(30)
H7 H 0.6370(40) 0.5460(30) 0.3110(20)
H8 H 0.8440(40) 0.3970(30) 0.0520(20)
H9 H 0.8060(40) 0.2280(30) -0.1110(30)
H10 H 0.5040(40) 0.1340(30) -0.0870(30)
H11 H 0.0650(30) 0.3120(20) 0.2390(20)
H12 H 0.0370(40) 0.4030(30) 0.3800(20)
loop_
_geom_bond_atom_site_label_1
_geom_bond_atom_site_label_2
_geom_bond_site_symmetry_1
_geom_bond_site_symmetry_2
N1 C1 1_555 1_555
N2 C6 1_555 1_555
N3 C8 1_555 1_555
N4 C13 1_555 1_555
C1 C2 1_555 1_555
C2 C3 1_555 1_555
C3 C4 1_555 1_555
C4 C5 1_555 1_555
C5 C6 1_555 1_555
C6 H5 1_555 1_555
C7 N1 1_555 1_555
C8 C9 1_555 1_555
C9 C10 1_555 1_555
C10 C11 1_555 1_555
C11 C12 1_555 1_555
C12 C13 1_555 1_555
C13 H10 1_555 1_555
C14 N3 1_555 1_555
C15 N2 1_555 1_555
H1 C1 1_555 1_555
H2 C2 1_555 1_555
H3 C4 1_555 1_555
H4 C5 1_555 1_555
H6 C8 1_555 1_555
H7 C9 1_555 1_555
H8 C11 1_555 1_555
H9 C12 1_555 1_555
H11 C15 1_555 1_555
H12 C15 1_555 1_555
N2 C7 1_555 1_555
N3 C15 1_555 1_555
N4 C14 1_555 1_555
C3 C7 1_555 1_555
C10 C14 1_555 1_555

#END
