
#######################################################################
#
#                 Cambridge Crystallographic Data Centre
#                                CCDC 
#
#######################################################################
#
# If this CIF has been generated from an entry in the Cambridge 
# Structural Database, then it will include bibliographic, chemical, 
# crystal, experimental, refinement or atomic coordinate data resulting 
# from the CCDC's data processing and validation procedures.
#
#######################################################################

data_LUTLOD01
_chemical_formula_moiety         'C23 H18 N2 O3 S1'
_chemical_name_systematic        
N-(5-((4-methylphenyl)sulfonyl)quinolin-8-yl)benzamide
_symmetry_cell_setting           triclinic
_symmetry_space_group_name_H-M   'P -1'
_symmetry_Int_Tables_number      2
_space_group_name_Hall           '-P 1'
loop_
_symmetry_equiv_pos_site_id
_symmetry_equiv_pos_as_xyz
1 x,y,z
2 -x,-y,-z
_cell_length_a                   9.5468(5)
_cell_length_b                   10.4076(6)
_cell_length_c                   11.3179(7)
_cell_angle_alpha                103.653(5)
_cell_angle_beta                 93.612(5)
_cell_angle_gamma                114.414(6)
_cell_volume                     978.532
_cell_formula_units_Z            2
loop_
_atom_site_label
_atom_site_type_symbol
_atom_site_fract_x
_atom_site_fract_y
_atom_site_fract_z
C1 C -0.2726(4) 0.4989(3) 1.1109(4)
H1 H -0.3322 0.4673 1.0324
C2 C -0.2913(5) 0.5981(4) 1.2084(5)
H2 H -0.3643 0.6329 1.1939
C3 C -0.2062(6) 0.6448(4) 1.3230(5)
H3 H -0.2214 0.7103 1.3864
C4 C -0.0977(5) 0.5954(4) 1.3455(3)
H4 H -0.0385 0.6284 1.4243
C5 C -0.0755(4) 0.4979(3) 1.2529(3)
H5 H -0.0019 0.4646 1.2695
C6 C -0.1618(3) 0.4486(3) 1.1348(3)
C7 C -0.1483(3) 0.3393(3) 1.0294(2)
C8 C 0.0176(2) 0.2138(2) 0.96998(19)
C9 C -0.0587(3) 0.1275(3) 0.8525(2)
H6 H -0.1487 0.1297 0.8185
C10 C -0.0007(3) 0.0365(3) 0.7843(2)
H7 H -0.0531 -0.0210 0.7044
C11 C 0.1303(3) 0.0284(2) 0.8301(2)
C12 C 0.2129(2) 0.1138(2) 0.9531(2)
C13 C 0.1544(2) 0.2067(2) 1.02162(19)
C14 C 0.3469(3) 0.1136(3) 1.0145(2)
H8 H 0.3895 0.0532 0.9746
C15 C 0.4127(3) 0.2016(3) 1.1315(2)
H9 H 0.5006 0.2019 1.1722
C16 C 0.3482(3) 0.2911(3) 1.1904(2)
H10 H 0.3960 0.3516 1.2703
C17 C 0.3263(3) 0.0358(3) 0.6549(2)
C18 C 0.4727(3) 0.1360(3) 0.7209(2)
H11 H 0.5028 0.1381 0.8014
C19 C 0.5738(3) 0.2329(3) 0.6667(2)
H12 H 0.6724 0.3011 0.7117
C20 C 0.5326(3) 0.2313(3) 0.5469(2)
C21 C 0.3870(4) 0.1263(4) 0.4815(2)
H13 H 0.3588 0.1208 0.3997
C22 C 0.2826(3) 0.0297(3) 0.5341(2)
H14 H 0.1842 -0.0388 0.4892
C23 C 0.6442(4) 0.3413(4) 0.4903(3)
H15 H 0.6362 0.2945 0.4046
H16 H 0.7492 0.3772 0.5328
H17 H 0.6181 0.4222 0.4976
N1 N -0.0241(2) 0.3110(2) 1.04763(18)
H18 H 0.045(3) 0.361(3) 1.112(2)
N2 N 0.2229(2) 0.2951(2) 1.13895(17)
O1 O -0.2421(3) 0.2810(3) 0.9339(2)
O2 O 0.0605(2) -0.1890(2) 0.63327(18)
O3 O 0.2788(2) -0.1367(2) 0.79596(18)
S1 S 0.19354(7) -0.08436(6) 0.72637(6)
loop_
_geom_bond_atom_site_label_1
_geom_bond_atom_site_label_2
_geom_bond_site_symmetry_1
_geom_bond_site_symmetry_2
C1 H1 1_555 1_555
C2 C1 1_555 1_555
H2 C2 1_555 1_555
C3 C2 1_555 1_555
H3 C3 1_555 1_555
C4 C3 1_555 1_555
H4 C4 1_555 1_555
C5 C4 1_555 1_555
H5 C5 1_555 1_555
C6 C1 1_555 1_555
C7 C6 1_555 1_555
C8 C9 1_555 1_555
C9 H6 1_555 1_555
C10 C9 1_555 1_555
H7 C10 1_555 1_555
C11 C10 1_555 1_555
C12 C11 1_555 1_555
C13 C8 1_555 1_555
C14 C12 1_555 1_555
H8 C14 1_555 1_555
C15 C14 1_555 1_555
H9 C15 1_555 1_555
C16 C15 1_555 1_555
H10 C16 1_555 1_555
C17 C18 1_555 1_555
C18 H11 1_555 1_555
C19 C18 1_555 1_555
H12 C19 1_555 1_555
C20 C19 1_555 1_555
C21 C20 1_555 1_555
H13 C21 1_555 1_555
C22 C17 1_555 1_555
H14 C22 1_555 1_555
C23 C20 1_555 1_555
H15 C23 1_555 1_555
H16 C23 1_555 1_555
H17 C23 1_555 1_555
N1 C7 1_555 1_555
H18 N1 1_555 1_555
N2 C13 1_555 1_555
O1 C7 1_555 1_555
O2 S1 1_555 1_555
O3 S1 1_555 1_555
S1 C11 1_555 1_555
C5 C6 1_555 1_555
C8 N1 1_555 1_555
C12 C13 1_555 1_555
C16 N2 1_555 1_555
C17 S1 1_555 1_555
C21 C22 1_555 1_555

#END
