
#######################################################################
#
#                 Cambridge Crystallographic Data Centre
#                                CCDC 
#
#######################################################################
#
# If this CIF has been generated from an entry in the Cambridge 
# Structural Database, then it will include bibliographic, chemical, 
# crystal, experimental, refinement or atomic coordinate data resulting 
# from the CCDC's data processing and validation procedures.
#
#######################################################################

data_LUTMAQ
_chemical_formula_moiety         'C19 H13 B1 O2,0.5(C7 H8)'
_chemical_name_systematic        
"1H-spiro[2,1-benzoxaborole-3,9'-fluoren]-1-ol toluene solvate"
_symmetry_cell_setting           triclinic
_symmetry_space_group_name_H-M   'P -1'
_symmetry_Int_Tables_number      2
_space_group_name_Hall           '-P 1'
loop_
_symmetry_equiv_pos_site_id
_symmetry_equiv_pos_as_xyz
1 x,y,z
2 -x,-y,-z
_cell_length_a                   8.5900(6)
_cell_length_b                   9.4711(7)
_cell_length_c                   12.6798(10)
_cell_angle_alpha                107.793(3)
_cell_angle_beta                 92.053(3)
_cell_angle_gamma                114.166(3)
_cell_volume                     880.653
_cell_formula_units_Z            2
loop_
_atom_site_label
_atom_site_type_symbol
_atom_site_fract_x
_atom_site_fract_y
_atom_site_fract_z
C20 C 0.0942(5) 0.6580(6) 0.5756(3)
C21 C 0.1908(10) 0.8152(9) 0.6464(6)
H14 H 0.1587 0.8901 0.6222
H15 H 0.3141 0.8452 0.6451
H16 H 0.1697 0.8242 0.7231
C22 C -0.0208(5) 0.6291(6) 0.4834(3)
H17 H -0.0343 0.7183 0.4720
C23 C 0.1139(5) 0.5272(6) 0.5904(3)
H18 H 0.1938 0.5470 0.6532
C20A C -0.0942(5) 0.3420(6) 0.4244(3)
C21A C -0.1908(10) 0.1848(9) 0.3536(6)
H14A H -0.1587 0.1099 0.3778
H15A H -0.3141 0.1548 0.3549
H16A H -0.1697 0.1758 0.2769
C22A C 0.0208(5) 0.3709(6) 0.5166(3)
H17A H 0.0343 0.2817 0.5280
C23A C -0.1139(5) 0.4728(6) 0.4096(3)
H18A H -0.1938 0.4530 0.3468
C1 C 0.3330(3) 0.2637(3) 0.1922(2)
C2 C 0.3186(3) 0.2151(3) 0.2962(2)
C3 C 0.4351(4) 0.3024(4) 0.3989(2)
H1 H 0.5337 0.4041 0.4105
C4 C 0.4013(4) 0.2348(4) 0.4834(2)
H2 H 0.4789 0.2904 0.5539
C5 C 0.2566(4) 0.0878(4) 0.4666(3)
H3 H 0.2367 0.0436 0.5254
C6 C 0.1408(4) 0.0047(4) 0.3656(2)
H4 H 0.0405 -0.0951 0.3554
C7 C 0.1722(3) 0.0684(3) 0.2784(2)
B1 B 0.0793(4) 0.0149(4) 0.1571(3)
C8 C 0.5898(3) 0.4375(3) 0.1407(2)
C9 C 0.4989(3) 0.2810(3) 0.1468(2)
C10 C 0.5650(4) 0.1658(4) 0.1175(2)
H5 H 0.5041 0.0594 0.1225
C11 C 0.7226(4) 0.2101(4) 0.0806(2)
H6 H 0.7696 0.1327 0.0596
C12 C 0.8117(4) 0.3646(4) 0.0740(2)
H7 H 0.9191 0.3921 0.0482
C13 C 0.7468(4) 0.4808(4) 0.1046(2)
H8 H 0.8091 0.5877 0.1007
C14 C 0.4890(3) 0.5316(3) 0.1791(2)
C15 C 0.3396(3) 0.4317(3) 0.2083(2)
C16 C 0.2203(4) 0.4886(4) 0.2476(2)
H9 H 0.1181 0.4199 0.2671
C17 C 0.2545(4) 0.6498(4) 0.2576(3)
H10 H 0.1742 0.6914 0.2839
C18 C 0.4041(4) 0.7500(4) 0.2296(3)
H11 H 0.4251 0.8595 0.2372
C19 C 0.5238(4) 0.6930(4) 0.1905(2)
H12 H 0.6268 0.7623 0.1720
O1 O 0.1778(2) 0.1308(2) 0.11032(14)
O2 O -0.0699(2) -0.1176(2) 0.09973(16)
H13 H -0.104(4) -0.122(4) 0.0359(17)
H19? H 0.1590 0.7670 0.6283
loop_
_geom_bond_atom_site_label_1
_geom_bond_atom_site_label_2
_geom_bond_site_symmetry_1
_geom_bond_site_symmetry_2
C1 C2 1_555 1_555
C2 C3 1_555 1_555
C3 H1 1_555 1_555
C4 C3 1_555 1_555
H2 C4 1_555 1_555
C5 C4 1_555 1_555
H3 C5 1_555 1_555
C6 C5 1_555 1_555
H4 C6 1_555 1_555
C7 C2 1_555 1_555
B1 C7 1_555 1_555
C8 C9 1_555 1_555
C9 C1 1_555 1_555
C10 C9 1_555 1_555
H5 C10 1_555 1_555
C11 C10 1_555 1_555
H6 C11 1_555 1_555
C12 C11 1_555 1_555
H7 C12 1_555 1_555
C13 C8 1_555 1_555
H8 C13 1_555 1_555
C14 C8 1_555 1_555
C15 C1 1_555 1_555
C16 C15 1_555 1_555
H9 C16 1_555 1_555
C17 C16 1_555 1_555
H10 C17 1_555 1_555
C18 C17 1_555 1_555
H11 C18 1_555 1_555
C19 C14 1_555 1_555
H12 C19 1_555 1_555
O1 C1 1_555 1_555
O2 B1 1_555 1_555
H13 O2 1_555 1_555
C20 C21 1_555 1_555
C21 H14 1_555 1_555
H15 C21 1_555 1_555
H16 C21 1_555 1_555
C22 C20 1_555 1_555
H17 C22 1_555 1_555
C23 C20 1_555 1_555
H18 C23 1_555 1_555
C20A C21A 1_555 1_555
C21A H14A 1_555 1_555
H15A C21A 1_555 1_555
H16A C21A 1_555 1_555
C22A C23 1_555 1_555
H17A C22A 1_555 1_555
C23A C22 1_555 1_555
H18A C23A 1_555 1_555
C6 C7 1_555 1_555
B1 O1 1_555 1_555
C12 C13 1_555 1_555
C14 C15 1_555 1_555
C18 C19 1_555 1_555
C20A C22A 1_555 1_555
C20A C23A 1_555 1_555

#END
