
#######################################################################
#
#                 Cambridge Crystallographic Data Centre
#                                CCDC 
#
#######################################################################
#
# If this CIF has been generated from an entry in the Cambridge 
# Structural Database, then it will include bibliographic, chemical, 
# crystal, experimental, refinement or atomic coordinate data resulting 
# from the CCDC's data processing and validation procedures.
#
#######################################################################

data_LUVWUW
_chemical_formula_moiety         'C20 H22 B10 F6'
_chemical_name_systematic        
4,5-bis(2-(3-(trifluoromethyl)phenyl)vinyl)-1,2-dicarba-closo-dodecaborane
_symmetry_cell_setting           triclinic
_symmetry_space_group_name_H-M   'P -1'
_symmetry_Int_Tables_number      2
_space_group_name_Hall           '-P 1'
loop_
_symmetry_equiv_pos_site_id
_symmetry_equiv_pos_as_xyz
1 x,y,z
2 -x,-y,-z
_cell_length_a                   6.5989(10)
_cell_length_b                   12.467(2)
_cell_length_c                   15.257(3)
_cell_angle_alpha                96.710(5)
_cell_angle_beta                 98.226(4)
_cell_angle_gamma                96.074(5)
_cell_volume                     1224.12
_exptl_crystal_colour            colorless
_exptl_crystal_description       block
_cell_formula_units_Z            2
loop_
_atom_site_label
_atom_site_type_symbol
_atom_site_fract_x
_atom_site_fract_y
_atom_site_fract_z
C1 C 0.2237(11) 0.5954(6) 0.7409(6)
H1 H 0.3860 0.6198 0.7353
C2 C 0.1516(12) 0.4778(6) 0.7691(6)
H2 H 0.2649 0.4209 0.7833
C3 C 0.1926(13) 0.8122(7) 0.8097(6)
H3 H 0.1089 0.8669 0.8020
C4 C 0.3867(14) 0.8421(7) 0.8423(6)
H4 H 0.4679 0.7860 0.8483
C5 C 0.4944(13) 0.9532(7) 0.8711(5)
C6 C 0.7046(13) 0.9666(8) 0.9015(6)
H5 H 0.7742 0.9056 0.9038
C7 C 0.8134(14) 1.0695(8) 0.9288(7)
H6 H 0.9543 1.0775 0.9498
C8 C 0.7091(15) 1.1605(8) 0.9243(6)
H7 H 0.7814 1.2296 0.9421
C9 C 0.5032(13) 1.1497(7) 0.8945(5)
C10 C 0.3955(13) 1.0456(6) 0.8671(5)
H8 H 0.2548 1.0382 0.8459
C11 C 0.3936(16) 1.2440(8) 0.8916(7)
C12 C 0.1108(13) 0.7061(7) 0.5953(6)
H9 H 0.0253 0.7564 0.5765
C13 C 0.2782(14) 0.7014(8) 0.5603(6)
H10 H 0.3635 0.6517 0.5807
C14 C 0.3515(13) 0.7651(7) 0.4920(5)
C15 C 0.5307(15) 0.7430(9) 0.4593(7)
H11 H 0.6054 0.6901 0.4814
C16 C 0.5971(17) 0.7980(11) 0.3952(8)
H12 H 0.7138 0.7798 0.3721
C17 C 0.4956(18) 0.8811(10) 0.3631(8)
H13 H 0.5455 0.9199 0.3205
C18 C 0.3179(15) 0.9045(8) 0.3961(6)
C19 C 0.2495(15) 0.8481(7) 0.4603(6)
H14 H 0.1322 0.8657 0.4831
C20 C 0.202(2) 0.9879(9) 0.3602(7)
B1 B 0.1642(16) 0.5903(9) 0.8473(8)
H15 H 0.2739 0.6097 0.9101
B2 B 0.0892(14) 0.6919(8) 0.7824(7)
B3 B 0.0393(13) 0.6357(7) 0.6655(7)
B4 B 0.0855(16) 0.4961(8) 0.6583(7)
H16 H 0.1448 0.4553 0.6010
B5 B -0.0386(16) 0.4831(9) 0.8311(8)
H17 H -0.0608 0.4325 0.8842
B6 B -0.0933(17) 0.6205(9) 0.8379(9)
H18 H -0.1561 0.6601 0.8946
B7 B -0.1664(13) 0.6478(8) 0.7255(8)
H19 H -0.2757 0.7063 0.7100
B8 B -0.1678(16) 0.5288(8) 0.6524(9)
H20 H -0.2788 0.5091 0.5900
B9 B -0.0879(16) 0.4257(8) 0.7166(8)
H21 H -0.1426 0.3387 0.6963
B10 B -0.2418(16) 0.5199(10) 0.7578(10)
H22 H -0.4031 0.4939 0.7639
F1 F 0.2433(17) 1.2358(7) 0.8246(7)
F2 F 0.4991(14) 1.3339(6) 0.8923(10)
F3 F 0.287(2) 1.2590(9) 0.9565(8)
F4 F 0.098(2) 1.0344(8) 0.4144(7)
F5 F 0.3102(18) 1.0652(8) 0.3320(8)
F6 F 0.0653(17) 0.9476(8) 0.2906(7)
loop_
_geom_bond_atom_site_label_1
_geom_bond_atom_site_label_2
_geom_bond_site_symmetry_1
_geom_bond_site_symmetry_2
C1 H1 1_555 1_555
C2 C1 1_555 1_555
H2 C2 1_555 1_555
C3 H3 1_555 1_555
C4 C3 1_555 1_555
H4 C4 1_555 1_555
C5 C4 1_555 1_555
C6 C5 1_555 1_555
H5 C6 1_555 1_555
C7 C6 1_555 1_555
H6 C7 1_555 1_555
C8 C7 1_555 1_555
H7 C8 1_555 1_555
C9 C8 1_555 1_555
C10 C5 1_555 1_555
H8 C10 1_555 1_555
C11 C9 1_555 1_555
C12 H9 1_555 1_555
C13 C12 1_555 1_555
H10 C13 1_555 1_555
C14 C13 1_555 1_555
C15 C14 1_555 1_555
H11 C15 1_555 1_555
C16 C15 1_555 1_555
H12 C16 1_555 1_555
C17 C16 1_555 1_555
H13 C17 1_555 1_555
C18 C17 1_555 1_555
C19 C14 1_555 1_555
H14 C19 1_555 1_555
C20 C18 1_555 1_555
B1 C1 1_555 1_555
H15 B1 1_555 1_555
B2 C1 1_555 1_555
B3 C1 1_555 1_555
B4 C1 1_555 1_555
H16 B4 1_555 1_555
B5 C2 1_555 1_555
H17 B5 1_555 1_555
B6 B1 1_555 1_555
H18 B6 1_555 1_555
B7 B2 1_555 1_555
H19 B7 1_555 1_555
B8 B3 1_555 1_555
H20 B8 1_555 1_555
B9 C2 1_555 1_555
H21 B9 1_555 1_555
B10 B5 1_555 1_555
H22 B10 1_555 1_555
F1 C11 1_555 1_555
F2 C11 1_555 1_555
F3 C11 1_555 1_555
F4 C20 1_555 1_555
F5 C20 1_555 1_555
F6 C20 1_555 1_555
C2 B1 1_555 1_555
C2 B4 1_555 1_555
C3 B2 1_555 1_555
C9 C10 1_555 1_555
C12 B3 1_555 1_555
C18 C19 1_555 1_555
B1 B2 1_555 1_555
B1 B5 1_555 1_555
B2 B3 1_555 1_555
B2 B6 1_555 1_555
B3 B4 1_555 1_555
B3 B7 1_555 1_555
B4 B8 1_555 1_555
B4 B9 1_555 1_555
B5 B6 1_555 1_555
B5 B9 1_555 1_555
B6 B7 1_555 1_555
B6 B10 1_555 1_555
B7 B8 1_555 1_555
B7 B10 1_555 1_555
B8 B9 1_555 1_555
B8 B10 1_555 1_555
B9 B10 1_555 1_555

#END
