
#######################################################################
#
#                 Cambridge Crystallographic Data Centre
#                                CCDC 
#
#######################################################################
#
# If this CIF has been generated from an entry in the Cambridge 
# Structural Database, then it will include bibliographic, chemical, 
# crystal, experimental, refinement or atomic coordinate data resulting 
# from the CCDC's data processing and validation procedures.
#
#######################################################################

data_LUVYUX01
_chemical_formula_moiety         'C20 H21 B1 F2 O3'
_chemical_name_systematic        
(3-(4-t-Butylphenyl)-2-(4-mehoxyphenyl)propene-1,3-dioato)(difluoro)boron
_symmetry_cell_setting           monoclinic
_symmetry_space_group_name_H-M   'P 21/c'
_symmetry_Int_Tables_number      14
_space_group_name_Hall           '-P 2ybc'
loop_
_symmetry_equiv_pos_site_id
_symmetry_equiv_pos_as_xyz
1 x,y,z
2 -x,1/2+y,1/2-z
3 -x,-y,-z
4 x,1/2-y,1/2+z
_cell_length_a                   24.448(3)
_cell_length_b                   7.0594(8)
_cell_length_c                   10.290(1)
_cell_angle_alpha                90
_cell_angle_beta                 94.303(4)
_cell_angle_gamma                90
_cell_volume                     1770.93
_exptl_crystal_colour            yellow
_exptl_crystal_description       needle
_cell_formula_units_Z            4
loop_
_atom_site_label
_atom_site_type_symbol
_atom_site_fract_x
_atom_site_fract_y
_atom_site_fract_z
F1 F 0.24907(10) 0.2236(4) 0.2893(3)
F2 F 0.18035(10) 0.1968(3) 0.4211(3)
O1 O 0.17639(12) 0.4385(4) 0.2698(3)
O2 O 0.24374(12) 0.4393(4) 0.4581(3)
O3 O 0.04152(13) 0.9528(4) -0.1328(3)
C1 C 0.17887(16) 0.6217(6) 0.2667(4)
C2 C 0.21392(17) 0.7222(6) 0.3559(4)
C3 C 0.24566(16) 0.6229(6) 0.4510(4)
C4 C 0.28351(16) 0.7169(6) 0.5490(4)
C5 C 0.29503(19) 0.9076(7) 0.5438(5)
C6 C 0.33395(19) 0.9906(6) 0.6319(5)
C7 C 0.36256(17) 0.8785(6) 0.7286(4)
C8 C 0.34947(18) 0.6892(6) 0.7341(5)
C9 C 0.31069(17) 0.6085(7) 0.6472(4)
C10 C 0.40836(18) 0.9716(6) 0.8164(5)
C11 C 0.4555(2) 1.0233(9) 0.7315(6)
C12 C 0.3874(2) 1.1469(8) 0.8829(6)
C13 C 0.4311(2) 0.8366(8) 0.9238(5)
C14 C 0.14303(16) 0.7145(5) 0.1654(4)
C15 C 0.11251(19) 0.6033(6) 0.0724(5)
C16 C 0.07906(19) 0.6882(7) -0.0244(5)
C17 C 0.07545(17) 0.8823(6) -0.0322(4)
C18 C 0.10518(19) 0.9947(6) 0.0583(5)
C19 C 0.1389(2) 0.9088(6) 0.1562(5)
C20 C 0.0409(2) 1.1544(8) -0.1512(6)
B1 B 0.2124(2) 0.3224(7) 0.3607(5)
H1 H 0.2151(17) 0.872(7) 0.359(5)
H2 H 0.277(2) 0.988(8) 0.494(7)
H3 H 0.3395(16) 1.131(7) 0.617(5)
H4 H 0.3690(17) 0.599(6) 0.787(5)
H5 H 0.3034(15) 0.469(6) 0.664(4)
H6 H 0.445(2) 1.106(9) 0.681(7)
H7 H 0.4886(17) 1.065(5) 0.770(4)
H8 H 0.470(2) 0.883(9) 0.683(6)
H9 H 0.4197(18) 1.199(6) 0.934(5)
H10 H 0.3534(19) 1.129(7) 0.931(5)
H11 H 0.3754(18) 1.253(7) 0.838(5)
H12 H 0.4607(19) 0.903(7) 0.983(5)
H13 H 0.4519(18) 0.720(7) 0.894(5)
H14 H 0.4019(19) 0.789(7) 0.982(5)
H15 H 0.1133(19) 0.465(7) 0.081(5)
H16 H 0.056(2) 0.593(9) -0.081(7)
H17 H 0.1073(15) 1.134(6) 0.054(4)
H18 H 0.159(2) 0.980(8) 0.200(7)
H19 H 0.010(2) 1.165(7) -0.209(6)
H20 H 0.026(2) 1.231(9) -0.069(7)
H21 H 0.0781(17) 1.198(5) -0.165(4)
loop_
_geom_bond_atom_site_label_1
_geom_bond_atom_site_label_2
_geom_bond_site_symmetry_1
_geom_bond_site_symmetry_2
F1 B1 1_555 1_555
F2 B1 1_555 1_555
O1 C1 1_555 1_555
O2 C3 1_555 1_555
O3 C17 1_555 1_555
C1 C2 1_555 1_555
C2 C3 1_555 1_555
C3 C4 1_555 1_555
C4 C5 1_555 1_555
C5 C6 1_555 1_555
C6 C7 1_555 1_555
C7 C8 1_555 1_555
C8 C9 1_555 1_555
C9 C4 1_555 1_555
C10 C7 1_555 1_555
C11 C10 1_555 1_555
C12 C10 1_555 1_555
C13 C10 1_555 1_555
C14 C1 1_555 1_555
C15 C14 1_555 1_555
C16 C15 1_555 1_555
C17 C16 1_555 1_555
C18 C17 1_555 1_555
C19 C14 1_555 1_555
C20 O3 1_555 1_555
B1 O1 1_555 1_555
H1 C2 1_555 1_555
H2 C5 1_555 1_555
H3 C6 1_555 1_555
H4 C8 1_555 1_555
H5 C9 1_555 1_555
H6 C11 1_555 1_555
H7 C11 1_555 1_555
H8 C11 1_555 1_555
H9 C12 1_555 1_555
H10 C12 1_555 1_555
H11 C12 1_555 1_555
H12 C13 1_555 1_555
H13 C13 1_555 1_555
H14 C13 1_555 1_555
H15 C15 1_555 1_555
H16 C16 1_555 1_555
H17 C18 1_555 1_555
H18 C19 1_555 1_555
H19 C20 1_555 1_555
H20 C20 1_555 1_555
H21 C20 1_555 1_555
O2 B1 1_555 1_555
C18 C19 1_555 1_555

#END
