
#######################################################################
#
#                 Cambridge Crystallographic Data Centre
#                                CCDC 
#
#######################################################################
#
# If this CIF has been generated from an entry in the Cambridge 
# Structural Database, then it will include bibliographic, chemical, 
# crystal, experimental, refinement or atomic coordinate data resulting 
# from the CCDC's data processing and validation procedures.
#
#######################################################################

data_LUVZOT
_chemical_formula_moiety         'C11 H19 N1 O4'
_chemical_name_systematic        
'ethyl 2-(t-butylcarbamoyl)-3-hydroxybut-2-enoate'
_symmetry_cell_setting           orthorhombic
_symmetry_space_group_name_H-M   'P n m a'
_symmetry_Int_Tables_number      62
_space_group_name_Hall           '-P 2ac 2n'
loop_
_symmetry_equiv_pos_site_id
_symmetry_equiv_pos_as_xyz
1 x,y,z
2 1/2-x,-y,1/2+z
3 -x,1/2+y,-z
4 1/2+x,1/2-y,1/2-z
5 -x,-y,-z
6 1/2+x,y,1/2-z
7 x,1/2-y,z
8 1/2-x,1/2+y,1/2+z
_cell_length_a                   18.5249(7)
_cell_length_b                   7.0610(3)
_cell_length_c                   10.0987(4)
_cell_angle_alpha                90
_cell_angle_beta                 90
_cell_angle_gamma                90
_cell_volume                     1320.95
_cell_formula_units_Z            4
loop_
_atom_site_label
_atom_site_type_symbol
_atom_site_fract_x
_atom_site_fract_y
_atom_site_fract_z
O1 O 0.3664(5) 0.2500 0.3533(8)
C1 C 0.4030(5) 0.2500 0.6313(7)
C2 C 0.4586(4) 0.2500 0.5216(7)
O2 O 0.4829(4) 0.2500 0.2934(7)
O3 O 0.4274(5) 0.2500 0.7503(9)
N1 N 0.3338(4) 0.2500 0.6030(7)
O4 O 0.5502(6) 0.2500 0.6810(9)
C3 C 0.5289(5) 0.2500 0.5563(8)
C4 C 0.5953(6) 0.2500 0.4649(10)
C5 C 0.4308(5) 0.2500 0.3878(8)
C6 C 0.2753(6) 0.2500 0.7011(9)
C7 C 0.4574(9) 0.2500 0.1576(14)
C8 C 0.2721(9) 0.075(2) 0.7787(13)
C9 C 0.2059(17) 0.2500 0.624(2)
C10 C 0.5231(13) 0.2500 0.072(2)
C8F C 0.2721(9) 0.425(2) 0.7787(13)
C11? C 0.294(4) 0.073(14) 0.829(10)
loop_
_geom_bond_atom_site_label_1
_geom_bond_atom_site_label_2
_geom_bond_site_symmetry_1
_geom_bond_site_symmetry_2
O1 C5 1_555 1_555
C1 C2 1_555 1_555
C2 C3 1_555 1_555
O2 C5 1_555 1_555
O3 C1 1_555 1_555
N1 C1 1_555 1_555
O4 C3 1_555 1_555
C3 C4 1_555 1_555
C5 C2 1_555 1_555
C6 N1 1_555 1_555
C7 O2 1_555 1_555
C8 C6 1_555 1_555
C9 C6 1_555 1_555
C10 C7 1_555 1_555
C8F C6 1_555 1_555

#END
