
#######################################################################
#
#                 Cambridge Crystallographic Data Centre
#                                CCDC 
#
#######################################################################
#
# If this CIF has been generated from an entry in the Cambridge 
# Structural Database, then it will include bibliographic, chemical, 
# crystal, experimental, refinement or atomic coordinate data resulting 
# from the CCDC's data processing and validation procedures.
#
#######################################################################

data_LUVZIN
_chemical_formula_moiety         'C24 H25 N1 O1 S1 Si1'
_chemical_name_systematic        
(E)-1-(2-(3-phenyl-2-(thiophen-2-yl)allyl)pyridin-3-yl)-3-(trimethylsilyl)prop-2-yn-1-ol
_symmetry_cell_setting           monoclinic
_symmetry_space_group_name_H-M   'P 21/c'
_symmetry_Int_Tables_number      14
_space_group_name_Hall           '-P 2ybc'
loop_
_symmetry_equiv_pos_site_id
_symmetry_equiv_pos_as_xyz
1 x,y,z
2 -x,1/2+y,1/2-z
3 -x,-y,-z
4 x,1/2-y,1/2+z
_cell_length_a                   17.1959(11)
_cell_length_b                   14.1969(6)
_cell_length_c                   20.0182(14)
_cell_angle_alpha                90
_cell_angle_beta                 114.510(8)
_cell_angle_gamma                90
_cell_volume                     4446.64
_exptl_crystal_colour            colorless
_exptl_crystal_description       needle
_chemical_melting_point          '421-422 K'
_cell_formula_units_Z            8
_exptl_crystal_recrystallization_method 
'Re-crystallisation from solvent: diethyl ether/pentane'
loop_
_atom_site_label
_atom_site_type_symbol
_atom_site_fract_x
_atom_site_fract_y
_atom_site_fract_z
N1 N 0.7383(2) 0.0168(2) 0.45520(17)
C1 C 0.7699(2) 0.0962(3) 0.4920(2)
C2 C 0.7790(2) 0.1786(3) 0.4573(2)
C3 C 0.7562(2) 0.1756(3) 0.3829(2)
H1 H 0.7614 0.2304 0.3578
C4 C 0.7256(3) 0.0925(3) 0.3443(2)
H2 H 0.7112 0.0889 0.2931
C5 C 0.7166(3) 0.0149(3) 0.3824(2)
H3 H 0.6942 -0.0417 0.3562
C6 C 0.7952(2) 0.0954(3) 0.5738(2)
H4 H 0.7499 0.1273 0.5838
H5 H 0.8483 0.1326 0.5980
C7 C 0.8097(2) -0.0020(3) 0.6084(2)
C8 C 0.8878(3) -0.0489(3) 0.6135(2)
S1 S 0.91970(7) -0.15738(7) 0.65514(6)
C9 C 1.0120(3) -0.1558(3) 0.6419(3)
H6 H 1.0538 -0.2043 0.6575
C10 C 1.0180(3) -0.0776(3) 0.6068(3)
H7 H 1.0648 -0.0650 0.5946
C11 C 0.9482(2) -0.0159(3) 0.5896(2)
H8 H 0.9428 0.0420 0.5643
C12 C 0.7606(3) -0.0358(3) 0.6398(2)
H9 H 0.7761 -0.0950 0.6639
C13 C 0.6837(2) 0.0113(3) 0.6402(2)
C14 C 0.6778(3) 0.0293(3) 0.7060(2)
H10 H 0.7226 0.0100 0.7509
C15 C 0.6070(3) 0.0752(3) 0.7068(2)
H11 H 0.6043 0.0883 0.7523
C16 C 0.5404(3) 0.1022(3) 0.6420(2)
H12 H 0.4916 0.1329 0.6426
C17 C 0.5458(3) 0.0837(3) 0.5761(2)
H13 H 0.5006 0.1024 0.5313
C18 C 0.6161(3) 0.0384(3) 0.5748(2)
H14 H 0.6186 0.0256 0.5292
C19 C 0.8130(2) 0.2680(3) 0.5018(2)
H15 H 0.7846 0.2764 0.5360
O1 O 0.79319(18) 0.34603(19) 0.45410(15)
H16 H 0.7885 0.3944 0.4763
C20 C 0.9067(2) 0.2605(2) 0.5456(2)
C21 C 0.9819(2) 0.2511(3) 0.5793(2)
Si1 Si 1.09977(6) 0.24034(7) 0.62715(6)
C22 C 1.1279(3) 0.1583(4) 0.7061(3)
H17 H 1.1025 0.1809 0.7389
H18 H 1.1902 0.1554 0.7331
H19 H 1.1058 0.0953 0.6880
C23 C 1.1449(3) 0.3583(3) 0.6597(3)
H20 H 1.2061 0.3526 0.6912
H21 H 1.1157 0.3865 0.6878
H22 H 1.1368 0.3984 0.6175
C24 C 1.1388(3) 0.1957(3) 0.5597(3)
H23 H 1.1177 0.2364 0.5162
H24 H 1.1180 0.1313 0.5453
H25 H 1.2015 0.1957 0.5818
N2 N 0.7325(2) 0.5236(2) 0.46707(17)
C25 C 0.7307(2) 0.6011(3) 0.5035(2)
C26 C 0.6867(2) 0.6828(3) 0.4673(2)
C27 C 0.6406(2) 0.6794(3) 0.3922(2)
H26 H 0.6091 0.7328 0.3665
C28 C 0.6407(3) 0.5977(3) 0.3546(2)
H27 H 0.6085 0.5936 0.3030
C29 C 0.6883(3) 0.5226(3) 0.3935(2)
H28 H 0.6903 0.4675 0.3674
C30 C 0.7806(2) 0.6011(3) 0.5861(2)
H29 H 0.7471 0.6356 0.6082
H30 H 0.8345 0.6364 0.5981
C31 C 0.8026(3) 0.5047(3) 0.6214(2)
C32 C 0.7314(3) 0.4518(3) 0.6257(2)
S2 S 0.74377(9) 0.33800(8) 0.65898(7)
C33 C 0.6385(4) 0.3313(4) 0.6455(3)
H31 H 0.6131 0.2778 0.6570
C34 C 0.5971(4) 0.4110(4) 0.6169(3)
H32 H 0.5382 0.4203 0.6054
C35 C 0.6487(3) 0.4796(3) 0.6056(2)
H33 H 0.6281 0.5400 0.5857
C36 C 0.8824(3) 0.4739(3) 0.6513(2)
H34 H 0.8928 0.4154 0.6766
C37 C 0.9571(3) 0.5236(3) 0.6485(2)
C38 C 1.0246(3) 0.5516(3) 0.7127(2)
H35 H 1.0227 0.5394 0.7587
C39 C 1.0949(3) 0.5971(3) 0.7105(2)
H36 H 1.1408 0.6165 0.7547
C40 C 1.0976(3) 0.6141(3) 0.6437(3)
H37 H 1.1460 0.6445 0.6420
C41 C 1.0309(3) 0.5874(3) 0.5799(2)
H38 H 1.0331 0.6000 0.5341
C42 C 0.9614(3) 0.5430(3) 0.5814(2)
H39 H 0.9154 0.5251 0.5368
C43 C 0.6898(2) 0.7734(2) 0.5088(2)
H40 H 0.7503 0.7868 0.5434
O2 O 0.65864(17) 0.84855(18) 0.45854(15)
H41 H 0.6937 0.8934 0.4720
C44 C 0.6374(2) 0.7625(3) 0.5514(2)
C45 C 0.5925(3) 0.7513(3) 0.5827(2)
Si2 Si 0.52040(7) 0.73356(8) 0.62876(6)
C46 C 0.5818(4) 0.6699(4) 0.7166(3)
H42 H 0.6042 0.6109 0.7063
H43 H 0.5441 0.6561 0.7410
H44 H 0.6294 0.7094 0.7488
C47 C 0.4838(3) 0.8506(3) 0.6450(3)
H45 H 0.5334 0.8916 0.6698
H46 H 0.4525 0.8434 0.6759
H47 H 0.4462 0.8788 0.5979
C48 C 0.4281(4) 0.6636(5) 0.5675(3)
H48 H 0.4038 0.6923 0.5186
H49 H 0.3847 0.6621 0.5873
H50 H 0.4467 0.5992 0.5641
loop_
_geom_bond_atom_site_label_1
_geom_bond_atom_site_label_2
_geom_bond_site_symmetry_1
_geom_bond_site_symmetry_2
N1 C1 1_555 1_555
C1 C2 1_555 1_555
C2 C3 1_555 1_555
C3 H1 1_555 1_555
C4 C3 1_555 1_555
H2 C4 1_555 1_555
C5 N1 1_555 1_555
H3 C5 1_555 1_555
C6 C1 1_555 1_555
H4 C6 1_555 1_555
H5 C6 1_555 1_555
C7 C6 1_555 1_555
C8 C7 1_555 1_555
S1 C8 1_555 1_555
C9 S1 1_555 1_555
H6 C9 1_555 1_555
C10 C9 1_555 1_555
H7 C10 1_555 1_555
C11 C8 1_555 1_555
H8 C11 1_555 1_555
C12 C7 1_555 1_555
H9 C12 1_555 1_555
C13 C12 1_555 1_555
C14 C13 1_555 1_555
H10 C14 1_555 1_555
C15 C14 1_555 1_555
H11 C15 1_555 1_555
C16 C15 1_555 1_555
H12 C16 1_555 1_555
C17 C16 1_555 1_555
H13 C17 1_555 1_555
C18 C13 1_555 1_555
H14 C18 1_555 1_555
C19 C2 1_555 1_555
H15 C19 1_555 1_555
O1 C19 1_555 1_555
H16 O1 1_555 1_555
C20 C19 1_555 1_555
C21 C20 1_555 1_555
Si1 C21 1_555 1_555
C22 Si1 1_555 1_555
H17 C22 1_555 1_555
H18 C22 1_555 1_555
H19 C22 1_555 1_555
C23 Si1 1_555 1_555
H20 C23 1_555 1_555
H21 C23 1_555 1_555
H22 C23 1_555 1_555
C24 Si1 1_555 1_555
H23 C24 1_555 1_555
H24 C24 1_555 1_555
H25 C24 1_555 1_555
N2 C25 1_555 1_555
C25 C26 1_555 1_555
C26 C27 1_555 1_555
C27 H26 1_555 1_555
C28 C27 1_555 1_555
H27 C28 1_555 1_555
C29 N2 1_555 1_555
H28 C29 1_555 1_555
C30 C25 1_555 1_555
H29 C30 1_555 1_555
H30 C30 1_555 1_555
C31 C30 1_555 1_555
C32 C31 1_555 1_555
S2 C32 1_555 1_555
C33 S2 1_555 1_555
H31 C33 1_555 1_555
C34 C33 1_555 1_555
H32 C34 1_555 1_555
C35 C32 1_555 1_555
H33 C35 1_555 1_555
C36 C31 1_555 1_555
H34 C36 1_555 1_555
C37 C36 1_555 1_555
C38 C37 1_555 1_555
H35 C38 1_555 1_555
C39 C38 1_555 1_555
H36 C39 1_555 1_555
C40 C39 1_555 1_555
H37 C40 1_555 1_555
C41 C40 1_555 1_555
H38 C41 1_555 1_555
C42 C37 1_555 1_555
H39 C42 1_555 1_555
C43 C26 1_555 1_555
H40 C43 1_555 1_555
O2 C43 1_555 1_555
H41 O2 1_555 1_555
C44 C43 1_555 1_555
C45 C44 1_555 1_555
Si2 C45 1_555 1_555
C46 Si2 1_555 1_555
H42 C46 1_555 1_555
H43 C46 1_555 1_555
H44 C46 1_555 1_555
C47 Si2 1_555 1_555
H45 C47 1_555 1_555
H46 C47 1_555 1_555
H47 C47 1_555 1_555
C48 Si2 1_555 1_555
H48 C48 1_555 1_555
H49 C48 1_555 1_555
H50 C48 1_555 1_555
C4 C5 1_555 1_555
C10 C11 1_555 1_555
C17 C18 1_555 1_555
C28 C29 1_555 1_555
C34 C35 1_555 1_555
C41 C42 1_555 1_555

#END
