
#######################################################################
#
#                 Cambridge Crystallographic Data Centre
#                                CCDC 
#
#######################################################################
#
# If this CIF has been generated from an entry in the Cambridge 
# Structural Database, then it will include bibliographic, chemical, 
# crystal, experimental, refinement or atomic coordinate data resulting 
# from the CCDC's data processing and validation procedures.
#
#######################################################################

data_LUWGUH
_chemical_formula_moiety         'C26 H32 N2 O4 S2'
_chemical_name_systematic        
2,6-bis(2-(Cyclohexylsulfanyl)ethyl)pyrrolo[3,4-f]isoindole-1,3,5,7(2H,6H)-tetrone
_symmetry_cell_setting           monoclinic
_symmetry_space_group_name_H-M   'P 21/c'
_symmetry_Int_Tables_number      14
_space_group_name_Hall           '-P 2ybc'
loop_
_symmetry_equiv_pos_site_id
_symmetry_equiv_pos_as_xyz
1 x,y,z
2 -x,1/2+y,1/2-z
3 -x,-y,-z
4 x,1/2-y,1/2+z
_cell_length_a                   16.1825(6)
_cell_length_b                   5.4983(2)
_cell_length_c                   14.0206(5)
_cell_angle_alpha                90
_cell_angle_beta                 98.007(2)
_cell_angle_gamma                90
_cell_volume                     1235.34
_exptl_crystal_colour            colorless
_exptl_crystal_description       plate
_cell_formula_units_Z            2
loop_
_atom_site_label
_atom_site_type_symbol
_atom_site_fract_x
_atom_site_fract_y
_atom_site_fract_z
S1 S 0.26855(4) 0.27723(13) 0.90382(5)
O1 O 0.46840(12) 0.0047(3) 0.68110(14)
O2 O 0.30154(11) 0.6651(3) 0.60057(14)
N1 N 0.36983(12) 0.3103(4) 0.65298(15)
C1 C 0.14501(17) 0.5715(5) 0.8007(2)
H1 H 0.1119 0.4218 0.7850
H2 H 0.1809 0.5968 0.7499
C2 C 0.08597(18) 0.7896(6) 0.8030(2)
H3 H 0.1192 0.9413 0.8094
H4 H 0.0479 0.7973 0.7413
C3 C 0.03471(18) 0.7735(6) 0.8853(2)
H5 H 0.0020 0.9250 0.8878
H6 H -0.0051 0.6364 0.8735
C4 C 0.08903(18) 0.7365(6) 0.9809(2)
H7 H 0.0532 0.7143 1.0320
H8 H 0.1237 0.8833 0.9968
C5 C 0.14593(17) 0.5146(5) 0.9788(2)
H9 H 0.1824 0.4994 1.0413
H10 H 0.1116 0.3654 0.9685
C6 C 0.19945(15) 0.5411(5) 0.89784(19)
H11 H 0.2346 0.6903 0.9106
C7 C 0.33640(15) 0.3521(5) 0.81607(19)
H12 H 0.3359 0.5306 0.8068
H13 H 0.3941 0.3042 0.8421
C8 C 0.31278(15) 0.2308(5) 0.71864(18)
H14 H 0.3158 0.0519 0.7261
H15 H 0.2548 0.2748 0.6920
C9 C 0.44334(15) 0.1896(5) 0.64016(19)
C10 C 0.48111(15) 0.3351(5) 0.56667(18)
C11 C 0.43006(15) 0.5359(5) 0.54207(18)
C12 C 0.35852(15) 0.5238(5) 0.59921(18)
C13 C 0.44702(15) 0.7070(5) 0.47497(18)
H16 H 0.4120 0.8437 0.4585
S1B S 0.73145(4) 0.72277(13) 0.09618(5)
O1B O 0.53160(12) 0.9953(3) 0.31890(14)
O2B O 0.69846(11) 0.3349(3) 0.39943(14)
N1B N 0.63017(12) 0.6897(4) 0.34702(15)
C1B C 0.85499(17) 0.4285(5) 0.1993(2)
H1B H 0.8881 0.5782 0.2150
H2B H 0.8191 0.4032 0.2501
C2B C 0.91403(18) 0.2104(6) 0.1970(2)
H3B H 0.8808 0.0587 0.1906
H4B H 0.9521 0.2027 0.2587
C3B C 0.96529(18) 0.2265(6) 0.1147(2)
H5B H 0.9980 0.0750 0.1122
H6B H 1.0051 0.3636 0.1265
C4B C 0.91097(18) 0.2635(6) 0.0191(2)
H7B H 0.9468 0.2857 -0.0320
H8B H 0.8763 0.1167 0.0032
C5B C 0.85407(17) 0.4854(5) 0.0212(2)
H9B H 0.8176 0.5006 -0.0413
H10B H 0.8884 0.6346 0.0315
C6B C 0.80055(15) 0.4589(5) 0.10216(19)
H11B H 0.7654 0.3097 0.0894
C7B C 0.66360(15) 0.6479(5) 0.18393(19)
H12B H 0.6641 0.4694 0.1932
H13B H 0.6059 0.6958 0.1579
C8B C 0.68722(15) 0.7692(5) 0.28136(18)
H14B H 0.6842 0.9481 0.2739
H15B H 0.7452 0.7252 0.3080
C9B C 0.55666(15) 0.8104(5) 0.35984(19)
C10B C 0.51889(15) 0.6649(5) 0.43333(18)
C11B C 0.56994(15) 0.4641(5) 0.45793(18)
C12B C 0.64148(15) 0.4762(5) 0.40079(18)
C13B C 0.55298(15) 0.2930(5) 0.52503(18)
H16B H 0.5880 0.1563 0.5415
loop_
_geom_bond_atom_site_label_1
_geom_bond_atom_site_label_2
_geom_bond_site_symmetry_1
_geom_bond_site_symmetry_2
S1 C6 1_555 1_555
O1 C9 1_555 1_555
O2 C12 1_555 1_555
N1 C8 1_555 1_555
C1 H1 1_555 1_555
H2 C1 1_555 1_555
C2 C1 1_555 1_555
H3 C2 1_555 1_555
H4 C2 1_555 1_555
C3 C2 1_555 1_555
H5 C3 1_555 1_555
H6 C3 1_555 1_555
C4 C3 1_555 1_555
H7 C4 1_555 1_555
H8 C4 1_555 1_555
C5 C4 1_555 1_555
H9 C5 1_555 1_555
H10 C5 1_555 1_555
C6 C1 1_555 1_555
H11 C6 1_555 1_555
C7 S1 1_555 1_555
H12 C7 1_555 1_555
H13 C7 1_555 1_555
C8 C7 1_555 1_555
H14 C8 1_555 1_555
H15 C8 1_555 1_555
C9 N1 1_555 1_555
C10 C9 1_555 1_555
C11 C10 1_555 1_555
C12 N1 1_555 1_555
C13 C11 1_555 1_555
H16 C13 1_555 1_555
S1B C6B 1_555 1_555
O1B C9B 1_555 1_555
O2B C12B 1_555 1_555
N1B C8B 1_555 1_555
C1B H1B 1_555 1_555
H2B C1B 1_555 1_555
C2B C1B 1_555 1_555
H3B C2B 1_555 1_555
H4B C2B 1_555 1_555
C3B C2B 1_555 1_555
H5B C3B 1_555 1_555
H6B C3B 1_555 1_555
C4B C3B 1_555 1_555
H7B C4B 1_555 1_555
H8B C4B 1_555 1_555
C5B C4B 1_555 1_555
H9B C5B 1_555 1_555
H10B C5B 1_555 1_555
C6B C1B 1_555 1_555
H11B C6B 1_555 1_555
C7B S1B 1_555 1_555
H12B C7B 1_555 1_555
H13B C7B 1_555 1_555
C8B C7B 1_555 1_555
H14B C8B 1_555 1_555
H15B C8B 1_555 1_555
C9B N1B 1_555 1_555
C10B C13 1_555 1_555
C11B C10B 1_555 1_555
C12B N1B 1_555 1_555
C13B C10 1_555 1_555
H16B C13B 1_555 1_555
C5 C6 1_555 1_555
C11 C12 1_555 1_555
C5B C6B 1_555 1_555
C9B C10B 1_555 1_555
C11B C12B 1_555 1_555
C11B C13B 1_555 1_555

#END
