
#######################################################################
#
#                 Cambridge Crystallographic Data Centre
#                                CCDC 
#
#######################################################################
#
# If this CIF has been generated from an entry in the Cambridge 
# Structural Database, then it will include bibliographic, chemical, 
# crystal, experimental, refinement or atomic coordinate data resulting 
# from the CCDC's data processing and validation procedures.
#
#######################################################################

data_LUWNIB
_chemical_formula_moiety         'C19 H24 O4'
_chemical_name_systematic        
2-(4-Acetyl-4-hydroxyoctahydro-2H-chromen-3-yl)-1-phenylethanone
_symmetry_cell_setting           triclinic
_symmetry_space_group_name_H-M   'P -1'
_symmetry_Int_Tables_number      2
_space_group_name_Hall           '-P 1'
loop_
_symmetry_equiv_pos_site_id
_symmetry_equiv_pos_as_xyz
1 x,y,z
2 -x,-y,-z
_cell_length_a                   8.2627(4)
_cell_length_b                   9.2103(4)
_cell_length_c                   11.3983(4)
_cell_angle_alpha                91.863(2)
_cell_angle_beta                 101.511(2)
_cell_angle_gamma                100.929(2)
_cell_volume                     832.336
_cell_formula_units_Z            2
loop_
_atom_site_label
_atom_site_type_symbol
_atom_site_fract_x
_atom_site_fract_y
_atom_site_fract_z
C1 C 0.3126(3) 0.8548(2) -0.11529(17)
H1 H 0.3527 0.7676 -0.1212
C2 C 0.2908(3) 0.9384(2) -0.21302(18)
H2 H 0.3183 0.9085 -0.2840
C3 C 0.2291(3) 1.0651(2) -0.20613(19)
H3 H 0.2132 1.1206 -0.2727
C4 C 0.1908(3) 1.1104(2) -0.1014(2)
H4 H 0.1489 1.1968 -0.0968
C5 C 0.2142(2) 1.0283(2) -0.00265(17)
H5 H 0.1886 1.0600 0.0685
C6 C 0.2755(2) 0.89909(18) -0.00856(15)
C7 C 0.3011(2) 0.8146(2) 0.10107(16)
C8 C 0.3654(2) 0.67315(19) 0.09359(15)
H6 H 0.4738 0.6959 0.0706
H7 H 0.2886 0.6068 0.0301
C9 C 0.3862(2) 0.59086(19) 0.20849(14)
H8 H 0.4134 0.6635 0.2778
C10 C 0.5319(2) 0.5104(2) 0.21301(18)
H9 H 0.5068 0.4402 0.1434
H10 H 0.6329 0.5819 0.2089
C11 C 0.4219(3) 0.3210(2) 0.32465(15)
H11 H 0.3982 0.2505 0.2542
C12 C 0.4673(3) 0.2407(2) 0.43678(17)
H12 H 0.4979 0.3111 0.5066
H13 H 0.5640 0.1969 0.4323
C13 C 0.3207(4) 0.1203(3) 0.4505(2)
H14 H 0.3505 0.0741 0.5249
H15 H 0.2974 0.0447 0.3848
C14 C 0.1641(4) 0.1837(3) 0.4511(2)
H16 H 0.1834 0.2514 0.5217
H17 H 0.0704 0.1039 0.4550
C15 C 0.1194(3) 0.2656(2) 0.3388(2)
H18 H 0.0895 0.1959 0.2686
H19 H 0.0226 0.3093 0.3431
C16 C 0.2672(2) 0.38651(19) 0.32685(14)
H20 H 0.2934 0.4554 0.3985
C17 C 0.2268(2) 0.47630(18) 0.21680(13)
C18 C 0.0802(2) 0.5535(2) 0.22368(16)
C19 C 0.0765(3) 0.6384(3) 0.33679(18)
H21 H 0.0177 0.7177 0.3175
H22 H 0.1898 0.6785 0.3790
H23 H 0.0198 0.5734 0.3865
O1 O 0.2716(2) 0.86008(16) 0.19367(13)
O2 O 0.56359(17) 0.43358(16) 0.31871(12)
O3 O 0.18187(17) 0.37591(13) 0.11344(10)
H24 H 0.1052 0.3996 0.0653
O4 O -0.03208(17) 0.54453(18) 0.13569(12)
loop_
_geom_bond_atom_site_label_1
_geom_bond_atom_site_label_2
_geom_bond_site_symmetry_1
_geom_bond_site_symmetry_2
C1 H1 1_555 1_555
C2 C1 1_555 1_555
H2 C2 1_555 1_555
C3 C2 1_555 1_555
H3 C3 1_555 1_555
C4 C3 1_555 1_555
H4 C4 1_555 1_555
C5 C4 1_555 1_555
H5 C5 1_555 1_555
C6 C1 1_555 1_555
C7 C6 1_555 1_555
C8 C7 1_555 1_555
H6 C8 1_555 1_555
H7 C8 1_555 1_555
C9 C8 1_555 1_555
H8 C9 1_555 1_555
C10 C9 1_555 1_555
H9 C10 1_555 1_555
H10 C10 1_555 1_555
C11 H11 1_555 1_555
C12 C11 1_555 1_555
H12 C12 1_555 1_555
H13 C12 1_555 1_555
C13 C12 1_555 1_555
H14 C13 1_555 1_555
H15 C13 1_555 1_555
C14 C13 1_555 1_555
H16 C14 1_555 1_555
H17 C14 1_555 1_555
C15 C14 1_555 1_555
H18 C15 1_555 1_555
H19 C15 1_555 1_555
C16 C11 1_555 1_555
H20 C16 1_555 1_555
C17 C9 1_555 1_555
C18 C17 1_555 1_555
C19 C18 1_555 1_555
H21 C19 1_555 1_555
H22 C19 1_555 1_555
H23 C19 1_555 1_555
O1 C7 1_555 1_555
O2 C10 1_555 1_555
O3 C17 1_555 1_555
H24 O3 1_555 1_555
O4 C18 1_555 1_555
C5 C6 1_555 1_555
C11 O2 1_555 1_555
C15 C16 1_555 1_555
C16 C17 1_555 1_555

#END
