
#######################################################################
#
#                 Cambridge Crystallographic Data Centre
#                                CCDC 
#
#######################################################################
#
# If this CIF has been generated from an entry in the Cambridge 
# Structural Database, then it will include bibliographic, chemical, 
# crystal, experimental, refinement or atomic coordinate data resulting 
# from the CCDC's data processing and validation procedures.
#
#######################################################################

data_LUWVIK
_chemical_formula_moiety         'C18 H26 N1 O2 1+,Cl1 1-'
_chemical_name_systematic        
'2-(2-t-Butoxy-2-oxoethyl)-1-(1-phenylethyl)-2,5-dihydro-1H-pyrrolium chloride'
_symmetry_cell_setting           triclinic
_symmetry_space_group_name_H-M   'P 1'
_symmetry_Int_Tables_number      1
_space_group_name_Hall           'P 1'
loop_
_symmetry_equiv_pos_site_id
_symmetry_equiv_pos_as_xyz
1 x,y,z
_cell_length_a                   6.847(2)
_cell_length_b                   9.004(4)
_cell_length_c                   14.839(7)
_cell_angle_alpha                96.562(19)
_cell_angle_beta                 99.070(14)
_cell_angle_gamma                90.433(19)
_cell_volume                     897.168
_exptl_crystal_colour            colorless
_exptl_crystal_description       block
_cell_formula_units_Z            2
loop_
_atom_site_label
_atom_site_type_symbol
_atom_site_fract_x
_atom_site_fract_y
_atom_site_fract_z
O1 O 0.7090(8) 0.2267(6) -0.0346(4)
C1 C 0.8756(14) 0.2624(10) 0.0259(6)
O2 O 1.0390(9) 0.2795(8) 0.0050(4)
C2 C 0.8311(12) 0.2745(9) 0.1231(6)
C3 C 1.0002(13) 0.3644(9) 0.1873(5)
N1 N 0.9750(10) 0.3757(7) 0.2897(4)
C4 C 1.0801(12) 0.2594(9) 0.3401(5)
C5 C 0.9864(11) 0.1053(9) 0.3085(5)
C6 C 1.0913(12) 0.2964(9) 0.4450(5)
C7 C 0.9192(13) 0.3118(10) 0.4835(6)
C8 C 0.9318(16) 0.3407(11) 0.5784(7)
C9 C 1.1158(14) 0.3515(11) 0.6346(6)
C10 C 1.2831(15) 0.3377(12) 0.5955(6)
C11 C 1.2720(14) 0.3118(11) 0.5019(7)
C12 C 1.0410(11) 0.5332(8) 0.3311(5)
C13 C 1.0190(11) 0.6174(9) 0.2487(6)
C14 C 1.0014(12) 0.5269(10) 0.1715(5)
C15 C 0.7118(13) 0.2016(11) -0.1345(6)
C16 C 0.8424(16) 0.0732(12) -0.1563(6)
C17 C 0.7753(16) 0.3423(12) -0.1667(7)
C18 C 0.4983(15) 0.1643(13) -0.1734(6)
H1 H 0.7075 0.3256 0.1267
H2 H 0.8213 0.1748 0.1411
H3 H 1.1302 0.3211 0.1800
H4 H 1.2163 0.2573 0.3265
H5 H 1.0557 0.0344 0.3445
H6 H 0.9979 0.0782 0.2450
H7 H 0.8483 0.1059 0.3159
H8 H 0.7974 0.3016 0.4458
H9 H 0.8157 0.3535 0.6041
H10 H 1.1243 0.3700 0.6983
H11 H 1.4063 0.3438 0.6329
H12 H 1.3877 0.3054 0.4756
H13 H 1.1770 0.5348 0.3632
H14 H 0.9517 0.5711 0.3727
H15 H 1.0177 0.7217 0.2516
H16 H 0.9931 0.5591 0.1137
H17 H 0.8213 0.0472 -0.2215
H18 H 0.9780 0.1055 -0.1355
H19 H 0.8109 -0.0110 -0.1264
H20 H 0.7727 0.3266 -0.2323
H21 H 0.6853 0.4195 -0.1522
H22 H 0.9070 0.3712 -0.1362
H23 H 0.4859 0.1470 -0.2392
H24 H 0.4191 0.2471 -0.1561
H25 H 0.4562 0.0764 -0.1501
H26 H 0.8454 0.3666 0.2928
Cl1 Cl 0.5345(3) 0.4096(3) 0.29835(16)
Cl2 Cl 0.8747(3) 0.8656(3) 0.06834(17)
O3 O 0.7003(8) 0.8236(7) 0.3991(4)
C19 C 0.5334(12) 0.8183(9) 0.3410(5)
O4 O 0.3700(8) 0.8293(7) 0.3615(4)
C20 C 0.5742(11) 0.7956(9) 0.2425(5)
C21 C 0.4067(12) 0.8612(9) 0.1800(5)
N2 N 0.4335(9) 0.8385(7) 0.0782(4)
C22 C 0.3691(13) 0.9798(10) 0.0398(6)
C23 C 0.3843(10) 1.0940(9) 0.1217(6)
C24 C 0.4032(12) 1.0269(9) 0.1961(6)
C25 C 0.3269(13) 0.6987(9) 0.0232(6)
C26 C 0.4252(12) 0.5585(9) 0.0536(6)
C27 C 0.3212(11) 0.7043(9) -0.0797(5)
C28 C 0.4946(11) 0.7094(9) -0.1180(5)
C29 C 0.4779(14) 0.7140(11) -0.2130(6)
C30 C 0.2949(15) 0.7128(12) -0.2689(6)
C31 C 0.1293(15) 0.7089(11) -0.2290(6)
C32 C 0.1387(12) 0.7069(10) -0.1343(6)
C33 C 0.7030(13) 0.8384(11) 0.5014(5)
C34 C 0.5977(16) 0.9765(11) 0.5327(7)
C35 C 0.6058(18) 0.6992(11) 0.5238(6)
C36 C 0.9224(15) 0.8520(15) 0.5381(7)
H27 H 0.5790 0.6894 0.2240
H28 H 0.6982 0.8445 0.2370
H29 H 0.2772 0.8176 0.1860
H30 H 0.4549 1.0074 -0.0026
H31 H 0.2327 0.9683 0.0091
H32 H 0.3811 1.1975 0.1199
H33 H 0.4161 1.0788 0.2547
H34 H 0.1882 0.6986 0.0346
H35 H 0.3664 0.4724 0.0140
H36 H 0.5649 0.5638 0.0507
H37 H 0.4058 0.5492 0.1155
H38 H 0.6176 0.7083 -0.0811
H39 H 0.5932 0.7182 -0.2392
H40 H 0.2858 0.7134 -0.3326
H41 H 0.0067 0.7099 -0.2663
H42 H 0.0230 0.7052 -0.1083
H43 H 0.6249 0.9947 0.5987
H44 H 0.4567 0.9634 0.5131
H45 H 0.6477 1.0600 0.5073
H46 H 0.6257 0.6986 0.5892
H47 H 0.4676 0.6969 0.5005
H48 H 0.6660 0.6132 0.4963
H49 H 0.9405 0.8652 0.6042
H50 H 0.9869 0.7636 0.5170
H51 H 0.9766 0.9374 0.5163
H52 H 0.5648 0.8309 0.0758
loop_
_geom_bond_atom_site_label_1
_geom_bond_atom_site_label_2
_geom_bond_site_symmetry_1
_geom_bond_site_symmetry_2
O1 C1 1_555 1_555
C1 O2 1_555 1_555
C2 C1 1_555 1_555
C3 C2 1_555 1_555
N1 C3 1_555 1_555
C4 N1 1_555 1_555
C5 C4 1_555 1_555
C6 C4 1_555 1_555
C7 C6 1_555 1_555
C8 C7 1_555 1_555
C9 C8 1_555 1_555
C10 C9 1_555 1_555
C11 C6 1_555 1_555
C12 N1 1_555 1_555
C13 C12 1_555 1_555
C14 C3 1_555 1_555
C15 O1 1_555 1_555
C16 C15 1_555 1_555
C17 C15 1_555 1_555
C18 C15 1_555 1_555
H1 C2 1_555 1_555
H2 C2 1_555 1_555
H3 C3 1_555 1_555
H4 C4 1_555 1_555
H5 C5 1_555 1_555
H6 C5 1_555 1_555
H7 C5 1_555 1_555
H8 C7 1_555 1_555
H9 C8 1_555 1_555
H10 C9 1_555 1_555
H11 C10 1_555 1_555
H12 C11 1_555 1_555
H13 C12 1_555 1_555
H14 C12 1_555 1_555
H15 C13 1_555 1_555
H16 C14 1_555 1_555
H17 C16 1_555 1_555
H18 C16 1_555 1_555
H19 C16 1_555 1_555
H20 C17 1_555 1_555
H21 C17 1_555 1_555
H22 C17 1_555 1_555
H23 C18 1_555 1_555
H24 C18 1_555 1_555
H25 C18 1_555 1_555
H26 N1 1_555 1_555
O3 C19 1_555 1_555
C19 O4 1_555 1_555
C20 C19 1_555 1_555
C21 C20 1_555 1_555
N2 C21 1_555 1_555
C22 N2 1_555 1_555
C23 C22 1_555 1_555
C24 C21 1_555 1_555
C25 N2 1_555 1_555
C26 C25 1_555 1_555
C27 C25 1_555 1_555
C28 C27 1_555 1_555
C29 C28 1_555 1_555
C30 C29 1_555 1_555
C31 C30 1_555 1_555
C32 C27 1_555 1_555
C33 O3 1_555 1_555
C34 C33 1_555 1_555
C35 C33 1_555 1_555
C36 C33 1_555 1_555
H27 C20 1_555 1_555
H28 C20 1_555 1_555
H29 C21 1_555 1_555
H30 C22 1_555 1_555
H31 C22 1_555 1_555
H32 C23 1_555 1_555
H33 C24 1_555 1_555
H34 C25 1_555 1_555
H35 C26 1_555 1_555
H36 C26 1_555 1_555
H37 C26 1_555 1_555
H38 C28 1_555 1_555
H39 C29 1_555 1_555
H40 C30 1_555 1_555
H41 C31 1_555 1_555
H42 C32 1_555 1_555
H43 C34 1_555 1_555
H44 C34 1_555 1_555
H45 C34 1_555 1_555
H46 C35 1_555 1_555
H47 C35 1_555 1_555
H48 C35 1_555 1_555
H49 C36 1_555 1_555
H50 C36 1_555 1_555
H51 C36 1_555 1_555
H52 N2 1_555 1_555
C10 C11 1_555 1_555
C13 C14 1_555 1_555
C23 C24 1_555 1_555
C31 C32 1_555 1_555

#END
