
#######################################################################
#
#                 Cambridge Crystallographic Data Centre
#                                CCDC 
#
#######################################################################
#
# If this CIF has been generated from an entry in the Cambridge 
# Structural Database, then it will include bibliographic, chemical, 
# crystal, experimental, refinement or atomic coordinate data resulting 
# from the CCDC's data processing and validation procedures.
#
#######################################################################

data_LUXGOC
_chemical_compound_source        
'acetylated derivative of extract from whole plants of Salvia substolonifera E.Peter'
_chemical_formula_moiety         'C22 H28 O8'
_chemical_name_systematic        
'2a-Acetoxy-1a,5,7a-trimethyl-4-oxo-1a,2,2a,4,6,6a,7a,8,9,9a-decahydrobisoxireno[4,5:8,9]cyclodeca[1,2-b]furan-6-yl 2-methylbut-2-enoate'
_chemical_properties_biological  'HUVEC proliferation inhibitory activity'
_symmetry_cell_setting           orthorhombic
_symmetry_space_group_name_H-M   'P 21 21 21'
_symmetry_Int_Tables_number      19
_space_group_name_Hall           'P 2ac 2ab'
loop_
_symmetry_equiv_pos_site_id
_symmetry_equiv_pos_as_xyz
1 x,y,z
2 1/2-x,-y,1/2+z
3 -x,1/2+y,1/2-z
4 1/2+x,1/2-y,-z
_cell_length_a                   8.60540(10)
_cell_length_b                   8.79770(10)
_cell_length_c                   28.6755(3)
_cell_angle_alpha                90
_cell_angle_beta                 90
_cell_angle_gamma                90
_cell_volume                     2170.96
_exptl_crystal_colour            colorless
_exptl_crystal_description       prismatic
_chemical_melting_point          '125-127 deg.C'
_cell_formula_units_Z            4
_chemical_properties_physical    Oxygen-sensitive
loop_
_atom_site_label
_atom_site_type_symbol
_atom_site_fract_x
_atom_site_fract_y
_atom_site_fract_z
O1 O 0.5164(2) 0.4197(2) 0.75516(6)
O2 O 0.1377(2) 0.0370(2) 0.84819(6)
O3 O 0.79175(19) 0.22825(19) 0.87047(5)
O4 O 0.8128(2) 0.3323(2) 0.94133(6)
O5 O 0.3495(2) -0.04437(18) 0.91346(5)
O6 O 0.2799(2) -0.26273(19) 0.87841(6)
O7 O 0.7552(2) -0.00147(19) 0.83168(6)
O8 O 0.8158(3) -0.0776(3) 0.90507(7)
C1 C 0.3886(3) 0.3341(3) 0.77485(8)
H1 H 0.3756 0.2316 0.7603
C2 C 0.2369(3) 0.4078(3) 0.78742(9)
H2 H 0.1916 0.4586 0.7598
H3 H 0.2531 0.4851 0.8120
C3 C 0.1269(3) 0.2824(3) 0.80505(9)
H4 H 0.0270 0.3293 0.8143
H5 H 0.1055 0.2109 0.7792
C4 C 0.1911(3) 0.1937(3) 0.84613(8)
C5 C 0.2968(3) 0.0654(3) 0.83676(8)
H6 H 0.3222 0.0509 0.8030
C6 C 0.4202(3) 0.0023(3) 0.87038(7)
H7 H 0.4669 -0.0899 0.8556
C7 C 0.5509(3) 0.1100(3) 0.88187(8)
C8 C 0.6814(3) 0.1366(3) 0.84630(7)
C9 C 0.6455(3) 0.2156(3) 0.79992(8)
H8 H 0.7451 0.2504 0.7863
H9 H 0.6017 0.1387 0.7784
C10 C 0.5355(3) 0.3501(3) 0.80088(8)
C11 C 0.5874(3) 0.1817(3) 0.92115(7)
C12 C 0.7393(3) 0.2556(3) 0.91478(8)
C13 C 0.5120(3) 0.1971(3) 0.96806(8)
H10 H 0.4528 0.2923 0.9693
H11 H 0.5921 0.1980 0.9923
H12 H 0.4416 0.1111 0.9732
C14 C 0.5538(3) 0.4689(3) 0.83870(9)
H13 H 0.6627 0.5012 0.8403
H14 H 0.5226 0.4256 0.8688
H15 H 0.4880 0.5567 0.8315
C15 C 0.1901(3) 0.2753(3) 0.89192(8)
H16 H 0.0844 0.3099 0.8989
H17 H 0.2599 0.3632 0.8903
H18 H 0.2255 0.2063 0.9166
C16 C 0.2734(3) -0.1799(3) 0.91172(8)
C17 C 0.1879(3) -0.2137(3) 0.95520(9)
C18 C 0.1739(4) -0.1142(3) 0.98917(9)
H19 H 0.2195 -0.0171 0.9843
C19 C 0.0930(5) -0.1392(4) 1.03485(10)
H20 H 0.0016 -0.0731 1.0367
H21 H 0.1642 -0.1152 1.0605
H22 H 0.0604 -0.2456 1.0372
C20 C 0.1159(6) -0.3695(4) 0.95690(13)
H23 H 0.1791 -0.4359 0.9767
H24 H 0.1110 -0.4117 0.9253
H25 H 0.0106 -0.3622 0.9698
C21 C 0.8204(3) -0.0979(3) 0.86399(10)
C22 C 0.8937(4) -0.2301(3) 0.83980(12)
H26 H 0.9908 -0.1975 0.8250
H27 H 0.8225 -0.2692 0.8160
H28 H 0.9158 -0.3103 0.8626
loop_
_geom_bond_atom_site_label_1
_geom_bond_atom_site_label_2
_geom_bond_site_symmetry_1
_geom_bond_site_symmetry_2
O1 C1 1_555 1_555
O2 C4 1_555 1_555
O3 C8 1_555 1_555
O4 C12 1_555 1_555
O5 C6 1_555 1_555
O6 C16 1_555 1_555
O7 C8 1_555 1_555
O8 C21 1_555 1_555
C1 H1 1_555 1_555
C2 C1 1_555 1_555
H2 C2 1_555 1_555
H3 C2 1_555 1_555
C3 C2 1_555 1_555
H4 C3 1_555 1_555
H5 C3 1_555 1_555
C4 C3 1_555 1_555
C5 O2 1_555 1_555
H6 C5 1_555 1_555
C6 C5 1_555 1_555
H7 C6 1_555 1_555
C7 C6 1_555 1_555
C8 C7 1_555 1_555
C9 C8 1_555 1_555
H8 C9 1_555 1_555
H9 C9 1_555 1_555
C10 O1 1_555 1_555
C11 C7 1_555 1_555
C12 O3 1_555 1_555
C13 C11 1_555 1_555
H10 C13 1_555 1_555
H11 C13 1_555 1_555
H12 C13 1_555 1_555
C14 C10 1_555 1_555
H13 C14 1_555 1_555
H14 C14 1_555 1_555
H15 C14 1_555 1_555
C15 C4 1_555 1_555
H16 C15 1_555 1_555
H17 C15 1_555 1_555
H18 C15 1_555 1_555
C16 O5 1_555 1_555
C17 C16 1_555 1_555
C18 C17 1_555 1_555
H19 C18 1_555 1_555
C19 C18 1_555 1_555
H20 C19 1_555 1_555
H21 C19 1_555 1_555
H22 C19 1_555 1_555
C20 C17 1_555 1_555
H23 C20 1_555 1_555
H24 C20 1_555 1_555
H25 C20 1_555 1_555
C21 O7 1_555 1_555
C22 C21 1_555 1_555
H26 C22 1_555 1_555
H27 C22 1_555 1_555
H28 C22 1_555 1_555
C1 C10 1_555 1_555
C4 C5 1_555 1_555
C9 C10 1_555 1_555
C11 C12 1_555 1_555

#END
