
#######################################################################
#
#                 Cambridge Crystallographic Data Centre
#                                CCDC 
#
#######################################################################
#
# If this CIF has been generated from an entry in the Cambridge 
# Structural Database, then it will include bibliographic, chemical, 
# crystal, experimental, refinement or atomic coordinate data resulting 
# from the CCDC's data processing and validation procedures.
#
#######################################################################

data_LUXHAO
_chemical_formula_moiety         'C38 H66 N1 P3'
_chemical_name_systematic        
'P,P-Dicyclohexyl-N-(dicyclohexylphosphino)-N-((dicyclohexylphosphino)ethynyl)phosphinous amide'
_symmetry_cell_setting           monoclinic
_symmetry_space_group_name_H-M   'P 21/c'
_symmetry_Int_Tables_number      14
_space_group_name_Hall           '-P 2ybc'
loop_
_symmetry_equiv_pos_site_id
_symmetry_equiv_pos_as_xyz
1 x,y,z
2 -x,1/2+y,1/2-z
3 -x,-y,-z
4 x,1/2-y,1/2+z
_cell_length_a                   18.0863(5)
_cell_length_b                   9.8117(3)
_cell_length_c                   21.5144(7)
_cell_angle_alpha                90
_cell_angle_beta                 95.016(2)
_cell_angle_gamma                90
_cell_volume                     3803.27
_exptl_crystal_colour            colorless
_exptl_crystal_description       block
_cell_formula_units_Z            4
loop_
_atom_site_label
_atom_site_type_symbol
_atom_site_fract_x
_atom_site_fract_y
_atom_site_fract_z
P1 P 0.08444(2) 0.96649(4) 0.262321(18)
P2 P 0.16140(2) 1.20600(4) 0.21251(2)
P3 P 0.35456(2) 0.77091(4) 0.23102(2)
N1 N 0.16340(7) 1.03120(14) 0.23012(6)
C1 C 0.22504(8) 0.95442(16) 0.22695(7)
C2 C 0.27964(9) 0.88548(17) 0.22483(8)
C3 C 0.12749(9) 0.85870(17) 0.32622(7)
H1 H 0.1584 0.7877 0.3085
C4 C 0.17650(10) 0.94682(18) 0.37187(8)
H2 H 0.2168 0.9866 0.3502
H3 H 0.1469 1.0217 0.3869
C5 C 0.20924(11) 0.8635(2) 0.42715(8)
H4 H 0.2389 0.9230 0.4561
H5 H 0.2422 0.7934 0.4125
C6 C 0.14876(13) 0.7958(2) 0.46118(9)
H6 H 0.1188 0.8659 0.4796
H7 H 0.1715 0.7389 0.4951
C7 C 0.09892(12) 0.7080(2) 0.41669(8)
H8 H 0.0584 0.6707 0.4389
H9 H 0.1277 0.6314 0.4023
C8 C 0.06642(10) 0.7900(2) 0.36045(8)
H10 H 0.0329 0.8599 0.3744
H11 H 0.0374 0.7293 0.3315
C9 C 0.04617(9) 0.83951(17) 0.20433(7)
H12 H 0.0140 0.7783 0.2268
C10 C 0.10017(10) 0.74789(19) 0.17366(8)
H13 H 0.1294 0.6956 0.2059
H14 H 0.1345 0.8043 0.1519
C11 C 0.05972(12) 0.6496(2) 0.12713(9)
H15 H 0.0963 0.5976 0.1059
H16 H 0.0307 0.5849 0.1498
C12 C 0.00870(12) 0.7240(3) 0.07918(10)
H17 H 0.0383 0.7806 0.0532
H18 H -0.0186 0.6575 0.0520
C13 C -0.04559(12) 0.8128(3) 0.10987(11)
H19 H -0.0785 0.7554 0.1326
H20 H -0.0763 0.8631 0.0778
C14 C -0.00507(10) 0.9134(2) 0.15496(9)
H21 H -0.0415 0.9672 0.1756
H22 H 0.0243 0.9761 0.1316
C15 C 0.22643(10) 1.27671(18) 0.27634(9)
H23 H 0.2102 1.2360 0.3150
C16 C 0.30881(10) 1.24192(19) 0.27768(8)
H24 H 0.3296 1.2841 0.2418
H25 H 0.3147 1.1430 0.2744
C17 C 0.35120(13) 1.2923(2) 0.33781(10)
H26 H 0.3339 1.2429 0.3734
H27 H 0.4042 1.2731 0.3364
C18 C 0.34046(14) 1.4436(2) 0.34696(11)
H28 H 0.3649 1.4709 0.3875
H29 H 0.3638 1.4937 0.3145
C19 C 0.25911(15) 1.4809(2) 0.34426(12)
H30 H 0.2543 1.5801 0.3469
H31 H 0.2374 1.4410 0.3803
C20 C 0.21617(12) 1.4308(2) 0.28443(11)
H32 H 0.2337 1.4788 0.2486
H33 H 0.1633 1.4513 0.2859
C21 C 0.21332(9) 1.20577(18) 0.14205(8)
H34 H 0.2626 1.1636 0.1526
C22 C 0.22434(13) 1.3519(2) 0.11979(10)
H35 H 0.1762 1.3983 0.1153
H36 H 0.2564 1.4009 0.1514
C23 C 0.25878(15) 1.3569(3) 0.05817(10)
H37 H 0.3095 1.3209 0.0640
H38 H 0.2616 1.4519 0.0446
C24 C 0.21451(15) 1.2750(3) 0.00779(10)
H39 H 0.1652 1.3156 -0.0010
H40 H 0.2398 1.2769 -0.0307
C25 C 0.20678(13) 1.1287(2) 0.02927(9)
H41 H 0.2559 1.0861 0.0346
H42 H 0.1765 1.0775 -0.0027
C26 C 0.17098(12) 1.1221(2) 0.09051(9)
H43 H 0.1689 1.0268 0.1040
H44 H 0.1199 1.1560 0.0839
C27 C 0.42284(9) 0.86194(18) 0.28592(8)
H45 H 0.4344 0.9513 0.2678
C28 C 0.49438(10) 0.7778(2) 0.29556(10)
H46 H 0.4825 0.6863 0.3100
H47 H 0.5161 0.7685 0.2556
C29 C 0.55111(11) 0.8436(3) 0.34299(10)
H48 H 0.5944 0.7836 0.3499
H49 H 0.5678 0.9300 0.3262
C30 C 0.51916(12) 0.8699(2) 0.40476(9)
H50 H 0.5087 0.7828 0.4245
H51 H 0.5557 0.9191 0.4327
C31 C 0.44864(12) 0.9526(2) 0.39530(9)
H52 H 0.4603 1.0436 0.3801
H53 H 0.4274 0.9634 0.4354
C32 C 0.39181(10) 0.8849(2) 0.34886(8)
H54 H 0.3475 0.9425 0.3430
H55 H 0.3771 0.7971 0.3657
C33 C 0.39381(9) 0.79320(18) 0.15458(8)
H56 H 0.4431 0.7487 0.1585
C34 C 0.40627(16) 0.9377(2) 0.13380(11)
H57 H 0.4404 0.9835 0.1650
H58 H 0.3590 0.9871 0.1312
C35 C 0.43827(18) 0.9433(3) 0.07043(11)
H59 H 0.4416 1.0386 0.0573
H60 H 0.4886 0.9054 0.0744
C36 C 0.39111(15) 0.8645(3) 0.02112(10)
H61 H 0.3426 0.9087 0.0133
H62 H 0.4152 0.8646 -0.0180
C37 C 0.38083(15) 0.7207(3) 0.04205(10)
H63 H 0.4290 0.6743 0.0461
H64 H 0.3485 0.6722 0.0105
C38 C 0.34681(13) 0.7154(2) 0.10431(10)
H65 H 0.2969 0.7549 0.0994
H66 H 0.3423 0.6202 0.1172
loop_
_geom_bond_atom_site_label_1
_geom_bond_atom_site_label_2
_geom_bond_site_symmetry_1
_geom_bond_site_symmetry_2
P1 N1 1_555 1_555
P2 N1 1_555 1_555
P3 C2 1_555 1_555
N1 C1 1_555 1_555
C1 C2 1_555 1_555
C3 P1 1_555 1_555
H1 C3 1_555 1_555
C4 C3 1_555 1_555
H2 C4 1_555 1_555
H3 C4 1_555 1_555
C5 C4 1_555 1_555
H4 C5 1_555 1_555
H5 C5 1_555 1_555
C6 C5 1_555 1_555
H6 C6 1_555 1_555
H7 C6 1_555 1_555
C7 C6 1_555 1_555
H8 C7 1_555 1_555
H9 C7 1_555 1_555
C8 C3 1_555 1_555
H10 C8 1_555 1_555
H11 C8 1_555 1_555
C9 P1 1_555 1_555
H12 C9 1_555 1_555
C10 C9 1_555 1_555
H13 C10 1_555 1_555
H14 C10 1_555 1_555
C11 C10 1_555 1_555
H15 C11 1_555 1_555
H16 C11 1_555 1_555
C12 C11 1_555 1_555
H17 C12 1_555 1_555
H18 C12 1_555 1_555
C13 C12 1_555 1_555
H19 C13 1_555 1_555
H20 C13 1_555 1_555
C14 C9 1_555 1_555
H21 C14 1_555 1_555
H22 C14 1_555 1_555
C15 P2 1_555 1_555
H23 C15 1_555 1_555
C16 C15 1_555 1_555
H24 C16 1_555 1_555
H25 C16 1_555 1_555
C17 C16 1_555 1_555
H26 C17 1_555 1_555
H27 C17 1_555 1_555
C18 C17 1_555 1_555
H28 C18 1_555 1_555
H29 C18 1_555 1_555
C19 C18 1_555 1_555
H30 C19 1_555 1_555
H31 C19 1_555 1_555
C20 C15 1_555 1_555
H32 C20 1_555 1_555
H33 C20 1_555 1_555
C21 P2 1_555 1_555
H34 C21 1_555 1_555
C22 C21 1_555 1_555
H35 C22 1_555 1_555
H36 C22 1_555 1_555
C23 C22 1_555 1_555
H37 C23 1_555 1_555
H38 C23 1_555 1_555
C24 C23 1_555 1_555
H39 C24 1_555 1_555
H40 C24 1_555 1_555
C25 C24 1_555 1_555
H41 C25 1_555 1_555
H42 C25 1_555 1_555
C26 C21 1_555 1_555
H43 C26 1_555 1_555
H44 C26 1_555 1_555
C27 P3 1_555 1_555
H45 C27 1_555 1_555
C28 C27 1_555 1_555
H46 C28 1_555 1_555
H47 C28 1_555 1_555
C29 C28 1_555 1_555
H48 C29 1_555 1_555
H49 C29 1_555 1_555
C30 C29 1_555 1_555
H50 C30 1_555 1_555
H51 C30 1_555 1_555
C31 C30 1_555 1_555
H52 C31 1_555 1_555
H53 C31 1_555 1_555
C32 C27 1_555 1_555
H54 C32 1_555 1_555
H55 C32 1_555 1_555
C33 P3 1_555 1_555
H56 C33 1_555 1_555
C34 C33 1_555 1_555
H57 C34 1_555 1_555
H58 C34 1_555 1_555
C35 C34 1_555 1_555
H59 C35 1_555 1_555
H60 C35 1_555 1_555
C36 C35 1_555 1_555
H61 C36 1_555 1_555
H62 C36 1_555 1_555
C37 C36 1_555 1_555
H63 C37 1_555 1_555
H64 C37 1_555 1_555
C38 C33 1_555 1_555
H65 C38 1_555 1_555
H66 C38 1_555 1_555
C7 C8 1_555 1_555
C13 C14 1_555 1_555
C19 C20 1_555 1_555
C25 C26 1_555 1_555
C31 C32 1_555 1_555
C37 C38 1_555 1_555

#END
