
#######################################################################
#
#                 Cambridge Crystallographic Data Centre
#                                CCDC 
#
#######################################################################
#
# If this CIF has been generated from an entry in the Cambridge 
# Structural Database, then it will include bibliographic, chemical, 
# crystal, experimental, refinement or atomic coordinate data resulting 
# from the CCDC's data processing and validation procedures.
#
#######################################################################

data_LUXJOE
_chemical_formula_moiety         'C8 H20 B1 N1'
_chemical_name_systematic        1-t-butyl-1,2-azaboracyclohexane
_symmetry_cell_setting           monoclinic
_symmetry_space_group_name_H-M   'P 21/n'
_symmetry_Int_Tables_number      14
_space_group_name_Hall           '-P 2yn'
loop_
_symmetry_equiv_pos_site_id
_symmetry_equiv_pos_as_xyz
1 x,y,z
2 1/2-x,1/2+y,1/2-z
3 -x,-y,-z
4 1/2+x,1/2-y,1/2+z
_cell_length_a                   6.265(2)
_cell_length_b                   9.606(3)
_cell_length_c                   15.868(5)
_cell_angle_alpha                90
_cell_angle_beta                 93.660(6)
_cell_angle_gamma                90
_cell_volume                     953.014
_exptl_crystal_colour            colorless
_exptl_crystal_description       plate
_cell_formula_units_Z            4
loop_
_atom_site_label
_atom_site_type_symbol
_atom_site_fract_x
_atom_site_fract_y
_atom_site_fract_z
N1 N 0.07649(17) 0.16686(12) 0.25740(7)
B1 B 0.2556(3) 0.27367(19) 0.22188(10)
C1 C -0.1161(2) 0.16548(18) 0.19615(10)
C2 C -0.0606(3) 0.11746(19) 0.10926(10)
C3 C 0.1004(3) 0.21189(19) 0.07012(10)
C4 C 0.3034(2) 0.22169(18) 0.12813(10)
C5 C 0.0205(2) 0.18322(15) 0.34971(9)
C6 C -0.0655(4) 0.32846(19) 0.36353(14)
C7 C -0.1463(3) 0.07560(19) 0.37125(11)
C8 C 0.2236(3) 0.1563(2) 0.40520(10)
H1 H 0.131(2) 0.0803(18) 0.2552(9)
H2 H 0.403(2) 0.2732(16) 0.2676(9)
H3 H 0.171(2) 0.3812(17) 0.2206(9)
H4 H -0.171(3) 0.2622(19) 0.1933(10)
H5 H -0.224(2) 0.1059(17) 0.2190(9)
H6 H -0.200(3) 0.1140(17) 0.0745(10)
H7 H -0.005(2) 0.0219(18) 0.1141(10)
H8 H 0.034(3) 0.3085(19) 0.0630(11)
H9 H 0.128(3) 0.1764(17) 0.0126(11)
H10 H 0.410(3) 0.2867(19) 0.1036(11)
H11 H 0.374(3) 0.124(2) 0.1317(10)
H12 H -0.093(3) 0.3395(19) 0.4250(12)
H13 H -0.201(4) 0.346(2) 0.3279(15)
H14 H 0.039(4) 0.398(3) 0.3506(14)
H15 H -0.158(3) 0.0771(19) 0.4327(12)
H16 H -0.291(3) 0.0960(19) 0.3436(11)
H17 H -0.105(3) -0.017(2) 0.3536(11)
H18 H 0.330(3) 0.230(2) 0.3971(11)
H19 H 0.189(3) 0.1595(17) 0.4652(11)
H20 H 0.286(3) 0.061(2) 0.3924(12)
loop_
_geom_bond_atom_site_label_1
_geom_bond_atom_site_label_2
_geom_bond_site_symmetry_1
_geom_bond_site_symmetry_2
N1 B1 1_555 1_555
B1 C4 1_555 1_555
C1 N1 1_555 1_555
C2 C1 1_555 1_555
C3 C2 1_555 1_555
C4 C3 1_555 1_555
C5 N1 1_555 1_555
C6 C5 1_555 1_555
C7 C5 1_555 1_555
C8 C5 1_555 1_555
H1 N1 1_555 1_555
H2 B1 1_555 1_555
H3 B1 1_555 1_555
H4 C1 1_555 1_555
H5 C1 1_555 1_555
H6 C2 1_555 1_555
H7 C2 1_555 1_555
H8 C3 1_555 1_555
H9 C3 1_555 1_555
H10 C4 1_555 1_555
H11 C4 1_555 1_555
H12 C6 1_555 1_555
H13 C6 1_555 1_555
H14 C6 1_555 1_555
H15 C7 1_555 1_555
H16 C7 1_555 1_555
H17 C7 1_555 1_555
H18 C8 1_555 1_555
H19 C8 1_555 1_555
H20 C8 1_555 1_555

#END
