
#######################################################################
#
#                 Cambridge Crystallographic Data Centre
#                                CCDC 
#
#######################################################################
#
# If this CIF has been generated from an entry in the Cambridge 
# Structural Database, then it will include bibliographic, chemical, 
# crystal, experimental, refinement or atomic coordinate data resulting 
# from the CCDC's data processing and validation procedures.
#
#######################################################################

data_LUYKOF02
_chemical_formula_moiety         'C24 H14 S4'
_chemical_name_systematic        1,1'-bithianthrene
_symmetry_cell_setting           triclinic
_symmetry_space_group_name_H-M   'P -1'
_symmetry_Int_Tables_number      2
_space_group_name_Hall           '-P 1'
loop_
_symmetry_equiv_pos_site_id
_symmetry_equiv_pos_as_xyz
1 x,y,z
2 -x,-y,-z
_cell_length_a                   10.151(2)
_cell_length_b                   10.193(2)
_cell_length_c                   21.148(4)
_cell_angle_alpha                97.15(3)
_cell_angle_beta                 97.60(3)
_cell_angle_gamma                111.09(3)
_cell_volume                     1988.33
_exptl_crystal_colour            colorless
_exptl_crystal_description       block
_cell_formula_units_Z            4
_exptl_crystal_recrystallization_method dichlomethane/methanol
_exptl_crystal_preparation       Luminescent
loop_
_atom_site_label
_atom_site_type_symbol
_atom_site_fract_x
_atom_site_fract_y
_atom_site_fract_z
C1 C 0.5798(5) 0.2894(5) 0.7293(3)
C2 C 0.5876(6) 0.2517(7) 0.7900(3)
H1 H 0.5527 0.1557 0.7936
C3 C 0.6461(7) 0.3546(8) 0.8444(3)
H2 H 0.6496 0.3284 0.8849
C4 C 0.7010(7) 0.4990(7) 0.8401(3)
H3 H 0.7409 0.5690 0.8775
C5 C 0.6952(6) 0.5367(6) 0.7798(3)
H4 H 0.7340 0.6327 0.7765
C6 C 0.6323(5) 0.4333(5) 0.7243(2)
C7 C 0.6569(5) 0.3650(5) 0.5983(2)
C8 C 0.6086(5) 0.2193(5) 0.6037(2)
C9 C 0.6396(6) 0.1234(6) 0.5620(3)
H5 H 0.6095 0.0279 0.5664
C10 C 0.7144(7) 0.1688(7) 0.5144(3)
H6 H 0.7327 0.1033 0.4858
C11 C 0.7635(6) 0.3124(6) 0.5086(3)
H7 H 0.8157 0.3425 0.4765
C12 C 0.7347(5) 0.4115(5) 0.5506(2)
C13 C 0.7799(5) 0.5639(6) 0.5418(2)
C14 C 0.7013(6) 0.6010(6) 0.4932(2)
H8 H 0.6223 0.5302 0.4652
C15 C 0.7395(6) 0.7426(7) 0.4859(3)
H9 H 0.6848 0.7666 0.4540
C16 C 0.8587(6) 0.8479(6) 0.5261(2)
H10 H 0.8831 0.9430 0.5217
C17 C 0.9425(5) 0.8120(5) 0.5732(2)
C18 C 0.9043(5) 0.6715(5) 0.5815(2)
C19 C 1.0630(5) 0.7663(5) 0.7050(2)
C20 C 1.1085(5) 0.9072(5) 0.6957(2)
C21 C 1.1616(6) 1.0189(6) 0.7488(3)
H11 H 1.1901 1.1132 0.7429
C22 C 1.1717(7) 0.9879(8) 0.8111(3)
H12 H 1.2101 1.0623 0.8469
C23 C 1.1261(6) 0.8499(7) 0.8204(3)
H13 H 1.1329 0.8307 0.8623
C24 C 1.0699(6) 0.7385(7) 0.7678(3)
H14 H 1.0364 0.6444 0.7743
S1 S 0.49613(15) 0.15381(14) 0.65914(8)
S2 S 0.61279(14) 0.48782(13) 0.64859(6)
S3 S 1.00954(14) 0.62157(14) 0.63930(7)
S4 S 1.10442(15) 0.94946(15) 0.61726(7)
C25 C 0.3109(5) 0.0912(5) 0.2282(2)
C26 C 0.2673(7) 0.1032(6) 0.2875(3)
H15 H 0.1700 0.0675 0.2893
C27 C 0.3691(8) 0.1685(7) 0.3438(3)
H16 H 0.3399 0.1767 0.3834
C28 C 0.5115(7) 0.2207(6) 0.3416(3)
H17 H 0.5788 0.2624 0.3800
C29 C 0.5580(6) 0.2129(5) 0.2832(2)
H18 H 0.6554 0.2526 0.2818
C30 C 0.4561(5) 0.1441(5) 0.2262(2)
C31 C 0.3959(5) 0.1573(5) 0.0970(2)
C32 C 0.2498(5) 0.1077(5) 0.0996(2)
C33 C 0.1560(6) 0.1333(6) 0.0543(3)
H19 H 0.0593 0.1050 0.0571
C34 C 0.2061(8) 0.2013(7) 0.0044(3)
H20 H 0.1415 0.2149 -0.0271
C35 C 0.3498(7) 0.2493(6) 0.0006(3)
H21 H 0.3815 0.2946 -0.0332
C36 C 0.4478(5) 0.2296(5) 0.0479(2)
C37 C 0.6044(6) 0.2782(5) 0.0441(2)
C38 C 0.6540(7) 0.1987(6) 0.0024(2)
H22 H 0.5887 0.1150 -0.0246
C39 C 0.7975(8) 0.2410(6) 0.0002(3)
H23 H 0.8283 0.1845 -0.0274
C40 C 0.8960(6) 0.3654(6) 0.0382(3)
H24 H 0.9933 0.3926 0.0372
C41 C 0.8482(6) 0.4511(5) 0.0786(2)
C42 C 0.7035(5) 0.4073(5) 0.0823(2)
C43 C 0.7798(5) 0.5813(5) 0.2022(2)
C44 C 0.9260(5) 0.6306(5) 0.1963(2)
C45 C 1.0317(6) 0.6915(6) 0.2515(3)
H25 H 1.1281 0.7244 0.2481
C46 C 0.9938(7) 0.7034(6) 0.3115(3)
H26 H 1.0656 0.7473 0.3483
C47 C 0.8523(7) 0.6516(6) 0.3182(3)
H27 H 0.8291 0.6584 0.3592
C48 C 0.7432(6) 0.5886(5) 0.2630(2)
H28 H 0.6472 0.5521 0.2671
S5 S 0.17940(14) 0.00321(15) 0.15700(8)
S6 S 0.51911(13) 0.12199(14) 0.15284(6)
S7 S 0.64059(13) 0.51390(14) 0.13299(6)
S8 S 0.97487(14) 0.62093(14) 0.11990(7)
loop_
_geom_bond_atom_site_label_1
_geom_bond_atom_site_label_2
_geom_bond_site_symmetry_1
_geom_bond_site_symmetry_2
C1 C2 1_555 1_555
C2 H1 1_555 1_555
C3 C2 1_555 1_555
H2 C3 1_555 1_555
C4 C3 1_555 1_555
H3 C4 1_555 1_555
C5 C4 1_555 1_555
H4 C5 1_555 1_555
C6 C1 1_555 1_555
C7 C8 1_555 1_555
C8 C9 1_555 1_555
C9 H5 1_555 1_555
C10 C9 1_555 1_555
H6 C10 1_555 1_555
C11 C10 1_555 1_555
H7 C11 1_555 1_555
C12 C7 1_555 1_555
C13 C12 1_555 1_555
C14 C13 1_555 1_555
H8 C14 1_555 1_555
C15 C14 1_555 1_555
H9 C15 1_555 1_555
C16 C15 1_555 1_555
H10 C16 1_555 1_555
C17 C16 1_555 1_555
C18 C13 1_555 1_555
C19 C20 1_555 1_555
C20 C21 1_555 1_555
C21 H11 1_555 1_555
C22 C21 1_555 1_555
H12 C22 1_555 1_555
C23 C22 1_555 1_555
H13 C23 1_555 1_555
C24 C19 1_555 1_555
H14 C24 1_555 1_555
S1 C1 1_555 1_555
S2 C6 1_555 1_555
S3 C18 1_555 1_555
S4 C17 1_555 1_555
C25 C26 1_555 1_555
C26 H15 1_555 1_555
C27 C26 1_555 1_555
H16 C27 1_555 1_555
C28 C27 1_555 1_555
H17 C28 1_555 1_555
C29 C28 1_555 1_555
H18 C29 1_555 1_555
C30 C25 1_555 1_555
C31 C32 1_555 1_555
C32 C33 1_555 1_555
C33 H19 1_555 1_555
C34 C33 1_555 1_555
H20 C34 1_555 1_555
C35 C34 1_555 1_555
H21 C35 1_555 1_555
C36 C31 1_555 1_555
C37 C36 1_555 1_555
C38 C37 1_555 1_555
H22 C38 1_555 1_555
C39 C38 1_555 1_555
H23 C39 1_555 1_555
C40 C39 1_555 1_555
H24 C40 1_555 1_555
C41 C40 1_555 1_555
C42 C37 1_555 1_555
C43 C44 1_555 1_555
C44 C45 1_555 1_555
C45 H25 1_555 1_555
C46 C45 1_555 1_555
H26 C46 1_555 1_555
C47 C46 1_555 1_555
H27 C47 1_555 1_555
C48 C43 1_555 1_555
H28 C48 1_555 1_555
S5 C25 1_555 1_555
S6 C30 1_555 1_555
S7 C42 1_555 1_555
S8 C41 1_555 1_555
C5 C6 1_555 1_555
C7 S2 1_555 1_555
C8 S1 1_555 1_555
C11 C12 1_555 1_555
C17 C18 1_555 1_555
C19 S3 1_555 1_555
C20 S4 1_555 1_555
C23 C24 1_555 1_555
C29 C30 1_555 1_555
C31 S6 1_555 1_555
C32 S5 1_555 1_555
C35 C36 1_555 1_555
C41 C42 1_555 1_555
C43 S7 1_555 1_555
C44 S8 1_555 1_555
C47 C48 1_555 1_555

#END
