
#######################################################################
#
#                 Cambridge Crystallographic Data Centre
#                                CCDC 
#
#######################################################################
#
# If this CIF has been generated from an entry in the Cambridge 
# Structural Database, then it will include bibliographic, chemical, 
# crystal, experimental, refinement or atomic coordinate data resulting 
# from the CCDC's data processing and validation procedures.
#
#######################################################################

data_LUYPAY
_chemical_formula_moiety         'C19 H18 O4'
_chemical_name_systematic        "3,3'-(9H-fluorene-9,9-diyl)dipropanoic acid"
_symmetry_cell_setting           orthorhombic
_symmetry_space_group_name_H-M   'P b c n'
_symmetry_Int_Tables_number      60
_space_group_name_Hall           '-P 2n 2ab'
loop_
_symmetry_equiv_pos_site_id
_symmetry_equiv_pos_as_xyz
1 x,y,z
2 1/2-x,1/2-y,1/2+z
3 -x,y,1/2-z
4 1/2+x,1/2-y,-z
5 -x,-y,-z
6 1/2+x,1/2+y,1/2-z
7 x,-y,1/2+z
8 1/2-x,1/2+y,z
_cell_length_a                   9.8448(8)
_cell_length_b                   21.9422(18)
_cell_length_c                   22.4274(18)
_cell_angle_alpha                90
_cell_angle_beta                 90
_cell_angle_gamma                90
_cell_volume                     4844.69
_exptl_crystal_colour            colorless
_exptl_crystal_description       block
_cell_formula_units_Z            12
loop_
_atom_site_label
_atom_site_type_symbol
_atom_site_fract_x
_atom_site_fract_y
_atom_site_fract_z
C1 C 0.89011(13) 0.36166(6) 0.17988(6)
H1 H 0.8798 0.4028 0.1924
C2 C 0.84629(14) 0.31388(6) 0.21594(6)
H2 H 0.8042 0.3226 0.2531
C3 C 0.86314(14) 0.25369(6) 0.19844(6)
H3 H 0.8341 0.2218 0.2241
C4 C 0.92176(13) 0.23961(5) 0.14404(6)
H4 H 0.9339 0.1984 0.1322
C5 C 1.04991(14) 0.23832(6) 0.00860(6)
H5 H 1.0335 0.1974 0.0205
C6 C 1.10436(16) 0.25136(6) -0.04692(7)
H6 H 1.1253 0.2189 -0.0734
C7 C 1.12870(16) 0.31075(7) -0.06438(7)
H7 H 1.1671 0.3186 -0.1025
C8 C 1.09764(13) 0.35936(6) -0.02678(6)
H8 H 1.1144 0.4002 -0.0389
C9 C 0.99991(11) 0.39138(5) 0.07731(5)
C10 C 0.94896(11) 0.34803(5) 0.12542(5)
C11 C 0.96270(11) 0.28731(5) 0.10697(5)
C12 C 1.01972(11) 0.28668(5) 0.04664(6)
C13 C 1.04190(11) 0.34696(5) 0.02854(6)
C14 C 0.88721(11) 0.43575(5) 0.05680(6)
H9 H 0.8691 0.4653 0.0892
H10 H 0.9202 0.4589 0.0218
C15 C 0.75551(12) 0.40406(5) 0.04045(6)
H11 H 0.7731 0.3750 0.0076
H12 H 0.7232 0.3804 0.0752
C16 C 0.64629(12) 0.44750(5) 0.02165(6)
C17 C 1.12086(11) 0.43086(5) 0.09800(6)
H13 H 1.1455 0.4593 0.0655
H14 H 1.0918 0.4556 0.1326
C18 C 1.24621(12) 0.39441(5) 0.11542(6)
H15 H 1.2226 0.3661 0.1482
H16 H 1.2764 0.3697 0.0809
C19 C 1.36044(12) 0.43496(6) 0.13512(7)
O1 O 0.65503(9) 0.50247(4) 0.02724(5)
O2 O 0.53850(10) 0.41993(4) -0.00055(5)
H17 H 0.4790 0.4460 -0.0089
O3 O 1.35684(10) 0.49032(4) 0.13068(6)
O4 O 1.46563(10) 0.40503(4) 0.15647(6)
H18 H 1.5255 0.4299 0.1673
C20 C 1.0000 0.58577(7) 0.2500
C21 C 0.93493(12) 0.62977(5) 0.29416(6)
C22 C 0.85293(13) 0.61635(6) 0.34239(6)
H19 H 0.8360 0.5753 0.3535
C23 C 0.79543(15) 0.66440(7) 0.37452(7)
H20 H 0.7370 0.6559 0.4072
C24 C 0.82267(16) 0.72427(7) 0.35930(7)
H21 H 0.7844 0.7564 0.3823
C25 C 0.90488(14) 0.73807(6) 0.31108(7)
H22 H 0.9240 0.7793 0.3011
C26 C 0.95917(12) 0.69049(5) 0.27740(6)
C27 C 0.89146(12) 0.54436(5) 0.22169(6)
H23 H 0.9351 0.5191 0.1906
H24 H 0.8559 0.5165 0.2527
C28 C 0.77325(13) 0.57829(6) 0.19399(7)
H25 H 0.7410 0.6097 0.2224
H26 H 0.8052 0.5994 0.1576
C29 C 0.65711(13) 0.53767(6) 0.17798(6)
O5 O 0.55169(10) 0.56783(4) 0.15704(6)
H27 H 0.4885 0.5433 0.1495
O6 O 0.66033(9) 0.48258(4) 0.18370(5)
C21B C 1.06507(12) 0.62977(5) 0.20584(6)
C22B C 1.14707(13) 0.61635(6) 0.15761(6)
H19B H 1.1640 0.5753 0.1465
C23B C 1.20457(15) 0.66440(7) 0.12548(7)
H20B H 1.2630 0.6559 0.0928
C24B C 1.17733(16) 0.72427(7) 0.14070(7)
H21B H 1.2156 0.7564 0.1177
C25B C 1.09512(14) 0.73807(6) 0.18892(7)
H22B H 1.0760 0.7793 0.1989
C26B C 1.04083(12) 0.69049(5) 0.22260(6)
C27B C 1.10854(12) 0.54436(5) 0.27831(6)
H23B H 1.0649 0.5191 0.3094
H24B H 1.1441 0.5165 0.2473
C28B C 1.22675(13) 0.57829(6) 0.30601(7)
H25B H 1.2590 0.6097 0.2776
H26B H 1.1948 0.5994 0.3424
C29B C 1.34289(13) 0.53767(6) 0.32202(6)
O5B O 1.44831(10) 0.56783(4) 0.34296(6)
H27B H 1.5115 0.5433 0.3505
O6B O 1.33967(9) 0.48258(4) 0.31630(5)
loop_
_geom_bond_atom_site_label_1
_geom_bond_atom_site_label_2
_geom_bond_site_symmetry_1
_geom_bond_site_symmetry_2
C1 H1 1_555 1_555
C2 C1 1_555 1_555
H2 C2 1_555 1_555
C3 C2 1_555 1_555
H3 C3 1_555 1_555
C4 C3 1_555 1_555
H4 C4 1_555 1_555
C5 H5 1_555 1_555
C6 C5 1_555 1_555
H6 C6 1_555 1_555
C7 C6 1_555 1_555
H7 C7 1_555 1_555
C8 C7 1_555 1_555
H8 C8 1_555 1_555
C9 C10 1_555 1_555
C10 C1 1_555 1_555
C11 C4 1_555 1_555
C12 C5 1_555 1_555
C13 C8 1_555 1_555
C14 C9 1_555 1_555
H9 C14 1_555 1_555
H10 C14 1_555 1_555
C15 C14 1_555 1_555
H11 C15 1_555 1_555
H12 C15 1_555 1_555
C16 C15 1_555 1_555
C17 C9 1_555 1_555
H13 C17 1_555 1_555
H14 C17 1_555 1_555
C18 C17 1_555 1_555
H15 C18 1_555 1_555
H16 C18 1_555 1_555
C19 C18 1_555 1_555
O1 C16 1_555 1_555
O2 C16 1_555 1_555
H17 O2 1_555 1_555
O3 C19 1_555 1_555
O4 C19 1_555 1_555
H18 O4 1_555 1_555
C20 C21 1_555 1_555
C21 C22 1_555 1_555
C22 H19 1_555 1_555
C23 C22 1_555 1_555
H20 C23 1_555 1_555
C24 C23 1_555 1_555
H21 C24 1_555 1_555
C25 C24 1_555 1_555
H22 C25 1_555 1_555
C26 C21 1_555 1_555
C27 C20 1_555 1_555
H23 C27 1_555 1_555
H24 C27 1_555 1_555
C28 C27 1_555 1_555
H25 C28 1_555 1_555
H26 C28 1_555 1_555
C29 C28 1_555 1_555
O5 C29 1_555 1_555
H27 O5 1_555 1_555
O6 C29 1_555 1_555
C21B C20 1_555 1_555
C22B C21B 1_555 1_555
H19B C22B 1_555 1_555
C23B C22B 1_555 1_555
H20B C23B 1_555 1_555
C24B C23B 1_555 1_555
H21B C24B 1_555 1_555
C25B C24B 1_555 1_555
H22B C25B 1_555 1_555
C26B C26 1_555 1_555
C27B C20 1_555 1_555
H23B C27B 1_555 1_555
H24B C27B 1_555 1_555
C28B C27B 1_555 1_555
H25B C28B 1_555 1_555
H26B C28B 1_555 1_555
C29B C28B 1_555 1_555
O5B C29B 1_555 1_555
H27B O5B 1_555 1_555
O6B C29B 1_555 1_555
C9 C13 1_555 1_555
C10 C11 1_555 1_555
C11 C12 1_555 1_555
C12 C13 1_555 1_555
C25 C26 1_555 1_555
C21B C26B 1_555 1_555
C25B C26B 1_555 1_555

#END
