
#######################################################################
#
#                 Cambridge Crystallographic Data Centre
#                                CCDC 
#
#######################################################################
#
# If this CIF has been generated from an entry in the Cambridge 
# Structural Database, then it will include bibliographic, chemical, 
# crystal, experimental, refinement or atomic coordinate data resulting 
# from the CCDC's data processing and validation procedures.
#
#######################################################################

data_LUYZOV
_chemical_formula_moiety         'C33 H29 N1 O8'
_chemical_name_systematic        
'Dimethyl 3-(methoxy(phenyl)methyl)-4-(4-nitrobenzylidene)-2-phenyl-4,7-dihydro-1-benzofuran-6,6(5H)-dicarboxylate'
_symmetry_cell_setting           triclinic
_symmetry_space_group_name_H-M   'P -1'
_symmetry_Int_Tables_number      2
_space_group_name_Hall           '-P 1'
loop_
_symmetry_equiv_pos_site_id
_symmetry_equiv_pos_as_xyz
1 x,y,z
2 -x,-y,-z
_cell_length_a                   10.1741(4)
_cell_length_b                   10.9686(4)
_cell_length_c                   14.9749(6)
_cell_angle_alpha                80.8370(10)
_cell_angle_beta                 73.1060(10)
_cell_angle_gamma                63.5430(10)
_cell_volume                     1430.68
_exptl_crystal_colour            yellow
_exptl_crystal_description       block
_cell_formula_units_Z            2
loop_
_atom_site_label
_atom_site_type_symbol
_atom_site_fract_x
_atom_site_fract_y
_atom_site_fract_z
O1 O 0.74596(17) 0.54453(16) 0.27974(12)
O2 O 0.25626(18) 0.76716(17) 0.43240(11)
O3 O 0.6188(3) 0.2340(3) 0.30980(19)
O4 O 0.4098(2) 0.31536(19) 0.26343(12)
O5 O 0.8085(3) 0.1842(3) 0.0697(2)
O6 O 0.5819(2) 0.25788(19) 0.05179(13)
O7 O -0.1931(3) 0.6411(2) 0.03403(18)
O8 O -0.3079(2) 0.8495(2) 0.07064(16)
N1 N -0.2026(3) 0.7376(3) 0.06970(15)
C1 C 0.3689(3) 0.9680(3) 0.23370(18)
H1 H 0.4722 0.9146 0.2129
C2 C 0.2972(4) 1.0804(3) 0.1800(2)
H2 H 0.3527 1.1021 0.1237
C3 C 0.1462(4) 1.1591(3) 0.2094(3)
H3 H 0.0981 1.2343 0.1733
C4 C 0.0659(4) 1.1276(3) 0.2916(3)
H4 H -0.0375 1.1814 0.3116
C5 C 0.1357(3) 1.0164(3) 0.3461(2)
H5 H 0.0791 0.9967 0.4026
C6 C 0.2888(3) 0.9343(2) 0.31740(16)
C7 C 0.0258(3) 0.8098(2) 0.18839(18)
H6 H 0.0261 0.8845 0.2102
C8 C -0.0871(3) 0.8303(3) 0.14693(18)
H7 H -0.1623 0.9171 0.1407
C9 C -0.0853(3) 0.7189(2) 0.11515(16)
C10 C 0.0220(3) 0.5895(3) 0.12579(17)
H8 H 0.0198 0.5153 0.1046
C11 C 0.1331(3) 0.5712(2) 0.16842(17)
H9 H 0.2052 0.4836 0.1770
C12 C 0.1393(2) 0.6812(2) 0.19880(16)
C13 C 0.8587(3) 0.6256(3) 0.39698(18)
H10 H 0.8971 0.5325 0.3890
C14 C 0.9352(3) 0.6746(4) 0.4332(2)
H11 H 1.0249 0.6146 0.4492
C15 C 0.8801(4) 0.8102(4) 0.4457(2)
H12 H 0.9317 0.8425 0.4707
C16 C 0.7484(4) 0.8997(3) 0.4214(2)
H13 H 0.7108 0.9924 0.4302
C17 C 0.6720(3) 0.8516(3) 0.38403(19)
H14 H 0.5840 0.9127 0.3665
C18 C 0.7248(3) 0.7136(3) 0.37230(16)
C19 C 0.4051(3) 0.5959(2) 0.21882(16)
C20 C 0.4858(3) 0.4981(2) 0.13963(16)
H15 H 0.5305 0.5412 0.0856
H16 H 0.4125 0.4782 0.1227
C21 C 0.6111(3) 0.3635(2) 0.16524(16)
C22 C 0.7353(3) 0.3940(2) 0.18081(19)
H17 H 0.8019 0.3165 0.2118
H18 H 0.7953 0.4124 0.1215
C23 C 0.6602(3) 0.5146(2) 0.23960(17)
C24 C 0.5133(2) 0.6052(2) 0.26214(16)
C25 C 0.5045(2) 0.6997(2) 0.32365(16)
C26 C 0.6485(3) 0.6607(2) 0.32984(17)
C27 C 0.3672(3) 0.8128(2) 0.37744(17)
H19 H 0.4004 0.8453 0.4203
C28 C 0.3069(4) 0.6660(4) 0.5016(2)
H20 H 0.2273 0.6392 0.5349
H21 H 0.3339 0.7020 0.5444
H22 H 0.3937 0.5883 0.4724
C29 C 0.2559(3) 0.6723(2) 0.24196(17)
H23 H 0.2209 0.7277 0.2925
C30 C 0.5489(3) 0.2968(3) 0.25447(18)
C31 C 0.3366(4) 0.2642(4) 0.3480(2)
H24 H 0.2356 0.2841 0.3457
H25 H 0.3321 0.3069 0.4006
H26 H 0.3930 0.1674 0.3540
C32 C 0.6791(3) 0.2598(3) 0.08980(19)
C33 C 0.6324(4) 0.1584(3) -0.01728(19)
H27 H 0.5479 0.1688 -0.0389
H28 H 0.6756 0.0685 0.0100
H29 H 0.7075 0.1717 -0.0689
loop_
_geom_bond_atom_site_label_1
_geom_bond_atom_site_label_2
_geom_bond_site_symmetry_1
_geom_bond_site_symmetry_2
O1 C23 1_555 1_555
O2 C27 1_555 1_555
O3 C30 1_555 1_555
O4 C30 1_555 1_555
O5 C32 1_555 1_555
O6 C32 1_555 1_555
O7 N1 1_555 1_555
O8 N1 1_555 1_555
N1 C9 1_555 1_555
C1 H1 1_555 1_555
C2 C1 1_555 1_555
H2 C2 1_555 1_555
C3 C2 1_555 1_555
H3 C3 1_555 1_555
C4 C3 1_555 1_555
H4 C4 1_555 1_555
C5 C4 1_555 1_555
H5 C5 1_555 1_555
C6 C1 1_555 1_555
C7 H6 1_555 1_555
C8 C7 1_555 1_555
H7 C8 1_555 1_555
C9 C8 1_555 1_555
C10 C9 1_555 1_555
H8 C10 1_555 1_555
C11 C10 1_555 1_555
H9 C11 1_555 1_555
C12 C7 1_555 1_555
C13 H10 1_555 1_555
C14 C13 1_555 1_555
H11 C14 1_555 1_555
C15 C14 1_555 1_555
H12 C15 1_555 1_555
C16 C15 1_555 1_555
H13 C16 1_555 1_555
C17 C16 1_555 1_555
H14 C17 1_555 1_555
C18 C13 1_555 1_555
C19 C20 1_555 1_555
C20 H15 1_555 1_555
H16 C20 1_555 1_555
C21 C20 1_555 1_555
C22 C21 1_555 1_555
H17 C22 1_555 1_555
H18 C22 1_555 1_555
C23 C22 1_555 1_555
C24 C19 1_555 1_555
C25 C24 1_555 1_555
C26 O1 1_555 1_555
C27 C6 1_555 1_555
H19 C27 1_555 1_555
C28 O2 1_555 1_555
H20 C28 1_555 1_555
H21 C28 1_555 1_555
H22 C28 1_555 1_555
C29 C12 1_555 1_555
H23 C29 1_555 1_555
C30 C21 1_555 1_555
C31 O4 1_555 1_555
H24 C31 1_555 1_555
H25 C31 1_555 1_555
H26 C31 1_555 1_555
C32 C21 1_555 1_555
C33 O6 1_555 1_555
H27 C33 1_555 1_555
H28 C33 1_555 1_555
H29 C33 1_555 1_555
C5 C6 1_555 1_555
C11 C12 1_555 1_555
C17 C18 1_555 1_555
C18 C26 1_555 1_555
C19 C29 1_555 1_555
C23 C24 1_555 1_555
C25 C26 1_555 1_555
C25 C27 1_555 1_555

#END
