
#######################################################################
#
#                 Cambridge Crystallographic Data Centre
#                                CCDC 
#
#######################################################################
#
# If this CIF has been generated from an entry in the Cambridge 
# Structural Database, then it will include bibliographic, chemical, 
# crystal, experimental, refinement or atomic coordinate data resulting 
# from the CCDC's data processing and validation procedures.
#
#######################################################################

data_LUZHEU
_chemical_formula_moiety         'C20 H17 N1 O3 S2'
_chemical_name_systematic        
4-((4-Methylphenyl)sulfonyl)-3-(2-thienylmethylene)-3,4-dihydro-2H-1,4-benzoxazine
_symmetry_cell_setting           orthorhombic
_symmetry_space_group_name_H-M   'P 21 21 21'
_symmetry_Int_Tables_number      19
_space_group_name_Hall           'P 2ac 2ab'
loop_
_symmetry_equiv_pos_site_id
_symmetry_equiv_pos_as_xyz
1 x,y,z
2 1/2-x,-y,1/2+z
3 -x,1/2+y,1/2-z
4 1/2+x,1/2-y,-z
_cell_length_a                   6.2186(7)
_cell_length_b                   14.4311(19)
_cell_length_c                   20.025(2)
_cell_angle_alpha                90
_cell_angle_beta                 90
_cell_angle_gamma                90
_cell_volume                     1797.07
_exptl_crystal_colour            yellow
_exptl_crystal_description       plate
_cell_formula_units_Z            4
_exptl_crystal_recrystallization_method '60-80 petroleum ether'
loop_
_atom_site_label
_atom_site_type_symbol
_atom_site_fract_x
_atom_site_fract_y
_atom_site_fract_z
S1 S 0.22952(18) 0.07570(7) 0.80584(6)
S2 S 0.0229(3) -0.01973(13) 0.53222(8)
O1 O 0.3214(5) 0.1138(2) 0.74732(15)
O2 O 0.3594(5) 0.0566(2) 0.86250(16)
O3 O -0.2915(5) -0.1123(2) 0.78659(17)
N1 N 0.1202(6) -0.0263(2) 0.78259(16)
C1 C 0.0378(8) -0.0073(3) 0.6668(2)
H1 H 0.1860 -0.0099 0.6609
C2 C -0.0334(7) -0.0193(3) 0.7292(2)
C3 C -0.3324(8) 0.2524(3) 0.8697(3)
C4 C -0.0905(8) 0.1993(3) 0.7843(3)
C5 C 0.0172(7) 0.1467(3) 0.8307(2)
C6 C -0.2661(8) 0.2510(3) 0.8039(2)
H2 H -0.3411 0.2854 0.7723
C7 C -0.3029(8) 0.0525(2) 0.5996(2)
H3 H -0.3955 0.0731 0.6329
C8 C -0.2189(9) 0.2007(3) 0.9148(2)
H4 H -0.2606 0.2015 0.9594
C9 C -0.0473(8) 0.1481(3) 0.8966(2)
H5 H 0.0262 0.1133 0.9284
C10 C -0.0895(8) 0.0095(3) 0.6071(2)
C11 C -0.5240(10) 0.3078(4) 0.8908(3)
H6 H -0.5472 0.2999 0.9378
H7 H -0.6485 0.2869 0.8667
H8 H -0.4992 0.3721 0.8813
C12 C -0.3341(12) 0.0552(4) 0.5279(4)
H9 H -0.4576 0.0809 0.5094
C13 C 0.0686(7) -0.0966(3) 0.8307(2)
C14 C -0.1299(8) -0.1374(3) 0.8295(2)
C15 C 0.2241(9) -0.1323(3) 0.8732(2)
H10 H 0.3609 -0.1063 0.8741
C16 C -0.1738(11) -0.2128(3) 0.8704(3)
C17 C -0.2574(8) -0.0274(3) 0.7513(2)
H11 H -0.2927 0.0244 0.7801
H12 H -0.3518 -0.0251 0.7127
C18 C -0.1810(15) 0.0197(5) 0.4894(4)
C19 C 0.1766(11) -0.2058(4) 0.9140(2)
H13 H 0.2809 -0.2286 0.9429
C20 C -0.0228(12) -0.2461(4) 0.9125(3)
H14 H -0.067(7) -0.298(3) 0.937(2)
H15 H -0.063(7) 0.199(3) 0.741(2)
H16 H -0.300(8) -0.241(3) 0.870(2)
H17 H -0.184(8) 0.022(3) 0.441(3)
loop_
_geom_bond_atom_site_label_1
_geom_bond_atom_site_label_2
_geom_bond_site_symmetry_1
_geom_bond_site_symmetry_2
S1 O1 1_555 1_555
S2 C10 1_555 1_555
O2 S1 1_555 1_555
O3 C14 1_555 1_555
N1 S1 1_555 1_555
C1 H1 1_555 1_555
C2 N1 1_555 1_555
C3 C6 1_555 1_555
C4 C5 1_555 1_555
C5 S1 1_555 1_555
C6 C4 1_555 1_555
H2 C6 1_555 1_555
C7 H3 1_555 1_555
C8 C3 1_555 1_555
H4 C8 1_555 1_555
C9 C5 1_555 1_555
H5 C9 1_555 1_555
C10 C1 1_555 1_555
C11 C3 1_555 1_555
H6 C11 1_555 1_555
H7 C11 1_555 1_555
H8 C11 1_555 1_555
C12 C7 1_555 1_555
H9 C12 1_555 1_555
C13 N1 1_555 1_555
C14 C13 1_555 1_555
C15 C13 1_555 1_555
H10 C15 1_555 1_555
C16 C14 1_555 1_555
C17 O3 1_555 1_555
H11 C17 1_555 1_555
H12 C17 1_555 1_555
C18 S2 1_555 1_555
C19 C15 1_555 1_555
H13 C19 1_555 1_555
C20 C16 1_555 1_555
H14 C20 1_555 1_555
H15 C4 1_555 1_555
H16 C16 1_555 1_555
H17 C18 1_555 1_555
C1 C2 1_555 1_555
C2 C17 1_555 1_555
C7 C10 1_555 1_555
C8 C9 1_555 1_555
C12 C18 1_555 1_555
C19 C20 1_555 1_555

#END
