
#######################################################################
#
#                 Cambridge Crystallographic Data Centre
#                                CCDC 
#
#######################################################################
#
# If this CIF has been generated from an entry in the Cambridge 
# Structural Database, then it will include bibliographic, chemical, 
# crystal, experimental, refinement or atomic coordinate data resulting 
# from the CCDC's data processing and validation procedures.
#
#######################################################################

data_LUZVUZ
_chemical_formula_moiety         'C26 H22 F3 N3 O1,0.5(C1 H2 Cl2)'
_chemical_name_systematic        
'2,2,2-Trifluoro-1-(1-phenyl-1H-imidazol-2-yl)-1-(2-phenyl-1,2,3,4-tetrahydroisoquinolin-1-yl)ethanol dichloromethane solvate'
_symmetry_cell_setting           orthorhombic
_symmetry_space_group_name_H-M   'P 21 21 21'
_symmetry_Int_Tables_number      19
_space_group_name_Hall           'P 2ac 2ab'
loop_
_symmetry_equiv_pos_site_id
_symmetry_equiv_pos_as_xyz
1 x,y,z
2 1/2-x,-y,1/2+z
3 -x,1/2+y,1/2-z
4 1/2+x,1/2-y,-z
_cell_length_a                   9.4488(4)
_cell_length_b                   15.6639(6)
_cell_length_c                   31.2528(12)
_cell_angle_alpha                90
_cell_angle_beta                 90
_cell_angle_gamma                90
_cell_volume                     4625.57
_exptl_crystal_colour            colorless
_exptl_crystal_description       block
_cell_formula_units_Z            8
loop_
_atom_site_label
_atom_site_type_symbol
_atom_site_fract_x
_atom_site_fract_y
_atom_site_fract_z
O1 O 0.29798(17) 0.52645(10) 0.28972(5)
H1 H 0.237(4) 0.523(2) 0.3110(11)
C1 C 0.2438(2) 0.48846(14) 0.25279(7)
C2 C 0.3655(2) 0.47636(14) 0.21912(7)
H2 H 0.3197 0.4591 0.1916
N1 N 0.4549(2) 0.40477(12) 0.23276(6)
C3 C 0.5511(2) 0.42889(15) 0.26835(7)
H3 H 0.6056 0.3782 0.2777
H4 H 0.4946 0.4494 0.2930
C4 C 0.6526(3) 0.49863(16) 0.25415(8)
H5 H 0.6983 0.5236 0.2798
H6 H 0.7279 0.4727 0.2363
C5 C 0.5827(3) 0.56906(15) 0.22907(7)
C6 C 0.6557(3) 0.64497(16) 0.22119(8)
H7 H 0.7442 0.6543 0.2348
C7 C 0.6023(3) 0.70685(16) 0.19407(9)
H8 H 0.6526 0.7587 0.1898
C8 C 0.4756(3) 0.69290(16) 0.17322(8)
H9 H 0.4405 0.7339 0.1535
C9 C 0.3999(3) 0.61871(15) 0.18123(8)
H10 H 0.3128 0.6093 0.1668
C10 C 0.4498(2) 0.55768(14) 0.21013(7)
C11 C 0.5278(2) 0.36053(14) 0.19935(7)
C12 C 0.5965(3) 0.28387(15) 0.20950(8)
H11 H 0.5950 0.2636 0.2381
C13 C 0.6661(3) 0.23745(15) 0.17847(8)
H12 H 0.7126 0.1858 0.1860
C14 C 0.6688(3) 0.26557(15) 0.13632(8)
H13 H 0.7175 0.2338 0.1150
C15 C 0.5998(3) 0.34021(15) 0.12586(7)
H14 H 0.5999 0.3592 0.0970
C16 C 0.5301(3) 0.38816(15) 0.15682(7)
H15 H 0.4839 0.4398 0.1491
C17 C 0.1699(2) 0.40422(14) 0.26371(7)
N2 N 0.1449(2) 0.38360(12) 0.30377(6)
C18 C 0.0592(3) 0.31307(15) 0.30259(8)
H16 H 0.0237 0.2841 0.3270
C19 C 0.0325(3) 0.29078(15) 0.26159(8)
H17 H -0.0238 0.2442 0.2521
N3 N 0.1033(2) 0.34914(12) 0.23632(6)
C20 C 0.1122(3) 0.33695(15) 0.19053(7)
C21 C 0.2199(3) 0.28672(15) 0.17443(8)
H18 H 0.2893 0.2631 0.1930
C22 C 0.2251(3) 0.27120(17) 0.13047(8)
H19 H 0.2990 0.2373 0.1188
C23 C 0.1222(3) 0.30528(17) 0.10390(8)
H20 H 0.1269 0.2956 0.0739
C24 C 0.0128(3) 0.35327(17) 0.12065(8)
H21 H -0.0582 0.3756 0.1023
C25 C 0.0064(3) 0.36902(16) 0.16436(8)
H22 H -0.0694 0.4013 0.1761
C26 C 0.1278(3) 0.55049(15) 0.23671(8)
F1 F 0.08421(16) 0.53395(9) 0.19658(5)
F2 F 0.16994(15) 0.63179(8) 0.23720(5)
F3 F 0.01269(15) 0.54694(9) 0.26181(5)
O2 O 0.34896(18) 0.40591(10) 0.36633(5)
C27 C 0.3064(2) 0.42762(14) 0.40783(7)
H23 H 0.278(3) 0.407(2) 0.3496(10)
C28 C 0.4395(2) 0.45809(14) 0.43404(7)
H24 H 0.4170 0.4509 0.4651
N4 N 0.4617(2) 0.54946(12) 0.42627(6)
C29 C 0.5185(3) 0.56471(15) 0.38278(7)
H25 H 0.5258 0.6269 0.3776
H26 H 0.4529 0.5404 0.3613
C30 C 0.6638(3) 0.52384(15) 0.37789(7)
H27 H 0.6893 0.5226 0.3472
H28 H 0.7346 0.5596 0.3929
C31 C 0.6707(2) 0.43374(15) 0.39556(7)
C32 C 0.7852(3) 0.38153(17) 0.38534(8)
H29 H 0.8540 0.4010 0.3654
C33 C 0.8000(3) 0.30155(17) 0.40386(9)
H30 H 0.8763 0.2656 0.3956
C34 C 0.7042(3) 0.27410(16) 0.43419(8)
H31 H 0.7167 0.2204 0.4479
C35 C 0.5899(3) 0.32515(15) 0.44459(8)
H32 H 0.5243 0.3065 0.4657
C36 C 0.5696(2) 0.40400(15) 0.42436(7)
C37 C 0.5385(2) 0.59420(15) 0.45848(7)
C38 C 0.5378(3) 0.68369(16) 0.45667(8)
H33 H 0.4865 0.7117 0.4346
C39 C 0.6107(3) 0.73171(17) 0.48662(8)
H34 H 0.6096 0.7922 0.4848
C40 C 0.6850(3) 0.69244(18) 0.51910(8)
H35 H 0.7355 0.7255 0.5395
C41 C 0.6849(3) 0.60443(18) 0.52162(8)
H36 H 0.7353 0.5770 0.5441
C42 C 0.6121(3) 0.55516(16) 0.49169(8)
H37 H 0.6126 0.4947 0.4940
C43 C 0.1945(2) 0.49830(14) 0.40528(7)
N5 N 0.1682(2) 0.53802(12) 0.36903(6)
C44 C 0.0655(2) 0.59822(15) 0.37817(7)
H38 H 0.0258 0.6368 0.3580
C45 C 0.0301(3) 0.59394(15) 0.41998(8)
H39 H -0.0381 0.6280 0.4344
N6 N 0.1126(2) 0.53033(12) 0.43761(6)
C46 C 0.0973(3) 0.50276(15) 0.48143(7)
C47 C -0.0183(3) 0.45276(16) 0.49229(8)
H40 H -0.0850 0.4364 0.4711
C48 C -0.0354(3) 0.42692(17) 0.53425(8)
H41 H -0.1137 0.3922 0.5420
C49 C 0.0620(3) 0.45185(17) 0.56505(8)
H42 H 0.0506 0.4336 0.5938
C50 C 0.1757(3) 0.50317(18) 0.55411(8)
H43 H 0.2410 0.5209 0.5755
C51 C 0.1945(3) 0.52880(16) 0.51195(8)
H44 H 0.2727 0.5636 0.5042
C52 C 0.2432(2) 0.34464(15) 0.42706(7)
F4 F 0.24000(16) 0.34302(9) 0.47002(4)
F5 F 0.10960(15) 0.33329(9) 0.41347(5)
F6 F 0.31470(15) 0.27504(8) 0.41499(5)
C53 C 0.6183(3) 0.38279(18) 0.62191(10)
H45 H 0.6730 0.3302 0.6160
H46 H 0.5646 0.3738 0.6487
Cl1 Cl 0.73591(7) 0.46813(4) 0.62896(2)
Cl2 Cl 0.5041(14) 0.3995(5) 0.5817(5)
H47? H 0.5386 0.3886 0.6423
H48? H 0.6676 0.3285 0.6282
Cl3? Cl 0.5477(7) 0.3797(5) 0.5660(3)
loop_
_geom_bond_atom_site_label_1
_geom_bond_atom_site_label_2
_geom_bond_site_symmetry_1
_geom_bond_site_symmetry_2
O1 H1 1_555 1_555
C1 O1 1_555 1_555
C2 C1 1_555 1_555
H2 C2 1_555 1_555
N1 C2 1_555 1_555
C3 N1 1_555 1_555
H3 C3 1_555 1_555
H4 C3 1_555 1_555
C4 C3 1_555 1_555
H5 C4 1_555 1_555
H6 C4 1_555 1_555
C5 C4 1_555 1_555
C6 C5 1_555 1_555
H7 C6 1_555 1_555
C7 C6 1_555 1_555
H8 C7 1_555 1_555
C8 C7 1_555 1_555
H9 C8 1_555 1_555
C9 C8 1_555 1_555
H10 C9 1_555 1_555
C10 C2 1_555 1_555
C11 N1 1_555 1_555
C12 C11 1_555 1_555
H11 C12 1_555 1_555
C13 C12 1_555 1_555
H12 C13 1_555 1_555
C14 C13 1_555 1_555
H13 C14 1_555 1_555
C15 C14 1_555 1_555
H14 C15 1_555 1_555
C16 C11 1_555 1_555
H15 C16 1_555 1_555
C17 C1 1_555 1_555
N2 C17 1_555 1_555
C18 N2 1_555 1_555
H16 C18 1_555 1_555
C19 C18 1_555 1_555
H17 C19 1_555 1_555
N3 C17 1_555 1_555
C20 N3 1_555 1_555
C21 C20 1_555 1_555
H18 C21 1_555 1_555
C22 C21 1_555 1_555
H19 C22 1_555 1_555
C23 C22 1_555 1_555
H20 C23 1_555 1_555
C24 C23 1_555 1_555
H21 C24 1_555 1_555
C25 C20 1_555 1_555
H22 C25 1_555 1_555
C26 C1 1_555 1_555
F1 C26 1_555 1_555
F2 C26 1_555 1_555
F3 C26 1_555 1_555
O2 C27 1_555 1_555
C27 C28 1_555 1_555
H23 O2 1_555 1_555
C28 H24 1_555 1_555
N4 C28 1_555 1_555
C29 N4 1_555 1_555
H25 C29 1_555 1_555
H26 C29 1_555 1_555
C30 C29 1_555 1_555
H27 C30 1_555 1_555
H28 C30 1_555 1_555
C31 C30 1_555 1_555
C32 C31 1_555 1_555
H29 C32 1_555 1_555
C33 C32 1_555 1_555
H30 C33 1_555 1_555
C34 C33 1_555 1_555
H31 C34 1_555 1_555
C35 C34 1_555 1_555
H32 C35 1_555 1_555
C36 C28 1_555 1_555
C37 N4 1_555 1_555
C38 C37 1_555 1_555
H33 C38 1_555 1_555
C39 C38 1_555 1_555
H34 C39 1_555 1_555
C40 C39 1_555 1_555
H35 C40 1_555 1_555
C41 C40 1_555 1_555
H36 C41 1_555 1_555
C42 C37 1_555 1_555
H37 C42 1_555 1_555
C43 C27 1_555 1_555
N5 C43 1_555 1_555
C44 N5 1_555 1_555
H38 C44 1_555 1_555
C45 C44 1_555 1_555
H39 C45 1_555 1_555
N6 C43 1_555 1_555
C46 N6 1_555 1_555
C47 C46 1_555 1_555
H40 C47 1_555 1_555
C48 C47 1_555 1_555
H41 C48 1_555 1_555
C49 C48 1_555 1_555
H42 C49 1_555 1_555
C50 C49 1_555 1_555
H43 C50 1_555 1_555
C51 C46 1_555 1_555
H44 C51 1_555 1_555
C52 C27 1_555 1_555
F4 C52 1_555 1_555
F5 C52 1_555 1_555
F6 C52 1_555 1_555
C53 H45 1_555 1_555
H46 C53 1_555 1_555
Cl1 C53 1_555 1_555
Cl2 C53 1_555 1_555
C5 C10 1_555 1_555
C9 C10 1_555 1_555
C15 C16 1_555 1_555
C19 N3 1_555 1_555
C24 C25 1_555 1_555
C31 C36 1_555 1_555
C35 C36 1_555 1_555
C41 C42 1_555 1_555
C45 N6 1_555 1_555
C50 C51 1_555 1_555

#END
