
#######################################################################
#
#                 Cambridge Crystallographic Data Centre
#                                CCDC 
#
#######################################################################
#
# If this CIF has been generated from an entry in the Cambridge 
# Structural Database, then it will include bibliographic, chemical, 
# crystal, experimental, refinement or atomic coordinate data resulting 
# from the CCDC's data processing and validation procedures.
#
#######################################################################

data_LUZXOU01
_chemical_formula_moiety         'C4 H4 N10 O4,2(H2 O1)'
_chemical_name_systematic        
"N,N'-dinitro-1,1',4,4'-tetrahydro-5H,5'H-3,3'-bi-1,2,4-triazole-5,5'-diimine dihydrate"
_symmetry_cell_setting           monoclinic
_symmetry_space_group_name_H-M   'P 21/n'
_symmetry_Int_Tables_number      14
_space_group_name_Hall           '-P 2yn'
loop_
_symmetry_equiv_pos_site_id
_symmetry_equiv_pos_as_xyz
1 x,y,z
2 1/2-x,1/2+y,1/2-z
3 -x,-y,-z
4 1/2+x,1/2-y,1/2+z
_cell_length_a                   5.223(6)
_cell_length_b                   17.83(2)
_cell_length_c                   6.308(7)
_cell_angle_alpha                90
_cell_angle_beta                 112.48(2)
_cell_angle_gamma                90
_cell_volume                     542.802
_exptl_crystal_colour            yellow
_cell_formula_units_Z            2
_exptl_crystal_recrystallization_method 'Re-crystallisation from solvent: water'
loop_
_atom_site_label
_atom_site_type_symbol
_atom_site_fract_x
_atom_site_fract_y
_atom_site_fract_z
N1 N 0.3537(3) 0.03576(9) 0.7073(3)
H1 H 0.2745 -0.0011 0.7460
N2 N 0.5124(4) 0.14361(10) 0.6786(3)
H2 H 0.5519 0.1906 0.6979
N3 N 0.5887(4) 0.09801(10) 0.5399(3)
N4 N 0.2513(4) 0.12561(10) 0.9294(3)
N5 N 0.2852(4) 0.19650(10) 1.0001(3)
O1 O 0.4088(4) 0.24356(9) 0.9327(3)
O2 O 0.1822(4) 0.21194(10) 1.1432(3)
C1 C 0.4869(4) 0.03315(11) 0.5598(3)
C2 C 0.3695(4) 0.10685(12) 0.7808(3)
N1B N 0.6463(3) -0.03576(9) 0.2927(3)
H1B H 0.7255 0.0011 0.2540
N2B N 0.4876(4) -0.14361(10) 0.3214(3)
H2B H 0.4481 -0.1906 0.3021
N3B N 0.4113(4) -0.09801(10) 0.4601(3)
N4B N 0.7487(4) -0.12561(10) 0.0706(3)
N5B N 0.7148(4) -0.19650(10) -0.0001(3)
O1B O 0.5912(4) -0.24356(9) 0.0673(3)
O2B O 0.8178(4) -0.21194(10) -0.1432(3)
C1B C 0.5131(4) -0.03315(11) 0.4402(3)
C2B C 0.6305(4) -0.10685(12) 0.2192(3)
O3 O 0.1009(4) -0.08740(13) 0.7770(5)
H3 H 0.012(13) -0.102(4) 0.856(10)
H4 H 0.12(2) -0.125(4) 0.702(17)
loop_
_geom_bond_atom_site_label_1
_geom_bond_atom_site_label_2
_geom_bond_site_symmetry_1
_geom_bond_site_symmetry_2
N1 H1 1_555 1_555
N2 H2 1_555 1_555
N3 N2 1_555 1_555
N4 N5 1_555 1_555
N5 O1 1_555 1_555
O2 N5 1_555 1_555
C1 N1 1_555 1_555
C2 N1 1_555 1_555
O3 H3 1_555 1_555
H4 O3 1_555 1_555
N1B H1B 1_555 1_555
N2B H2B 1_555 1_555
N3B N2B 1_555 1_555
N4B N5B 1_555 1_555
N5B O1B 1_555 1_555
O2B N5B 1_555 1_555
C1B C1 1_555 1_555
C2B N1B 1_555 1_555
N2 C2 1_555 1_555
N3 C1 1_555 1_555
N4 C2 1_555 1_555
N1B C1B 1_555 1_555
N2B C2B 1_555 1_555
N3B C1B 1_555 1_555
N4B C2B 1_555 1_555

#END
