
#######################################################################
#
#                 Cambridge Crystallographic Data Centre
#                                CCDC 
#
#######################################################################
#
# If this CIF has been generated from an entry in the Cambridge 
# Structural Database, then it will include bibliographic, chemical, 
# crystal, experimental, refinement or atomic coordinate data resulting 
# from the CCDC's data processing and validation procedures.
#
#######################################################################

data_MABPEM
_chemical_formula_moiety         'C15 H10 Cl3 F3 N2'
_chemical_name_systematic        
1-(1-(4-Chlorophenyl)ethylidene)-2-(2,6-dichloro-4-(trifluoromethyl)phenyl)hydrazine
_symmetry_cell_setting           monoclinic
_symmetry_space_group_name_H-M   'C 2/c'
_symmetry_Int_Tables_number      15
_space_group_name_Hall           '-C 2yn'
loop_
_symmetry_equiv_pos_site_id
_symmetry_equiv_pos_as_xyz
1 x,y,z
2 -x,y,1/2-z
3 1/2+x,1/2+y,z
4 1/2-x,1/2+y,1/2-z
5 -x,-y,-z
6 x,-y,1/2+z
7 1/2-x,1/2-y,-z
8 1/2+x,1/2-y,1/2+z
_cell_length_a                   16.8770(7)
_cell_length_b                   8.0054(8)
_cell_length_c                   24.119(2)
_cell_angle_alpha                90
_cell_angle_beta                 99.654(2)
_cell_angle_gamma                90
_cell_volume                     3212.5
_exptl_crystal_colour            colorless
_exptl_crystal_description       block
_chemical_melting_point          '118-120 deg.C'
_cell_formula_units_Z            8
loop_
_atom_site_label
_atom_site_type_symbol
_atom_site_fract_x
_atom_site_fract_y
_atom_site_fract_z
Cl1 Cl 0.15798(17) 0.0574(4) 0.08646(14)
Cl2 Cl 0.46364(17) 0.2337(4) 0.06136(14)
Cl3 Cl -0.0426(2) -0.4063(5) -0.17503(13)
F1 F 0.3555(12) 0.2449(14) 0.2805(4)
F2 F 0.2865(9) 0.444(2) 0.2513(5)
F3 F 0.4035(11) 0.463(2) 0.2539(5)
N1 N 0.3099(5) 0.0784(10) 0.0225(4)
H1 H 0.3519 0.0860 0.0069
N2 N 0.2462(5) -0.0037(9) -0.0052(3)
C1 C 0.3472(10) 0.3531(19) 0.2416(6)
C2 C 0.3370(7) 0.2906(12) 0.1841(5)
C3 C 0.2640(7) 0.2140(12) 0.1608(5)
H2 H 0.2224 0.2101 0.1817
C4 C 0.2524(6) 0.1447(12) 0.1079(4)
C5 C 0.3125(5) 0.1433(11) 0.0746(4)
C6 C 0.3844(7) 0.2207(11) 0.0991(5)
C7 C 0.3984(7) 0.2912(13) 0.1523(5)
H3 H 0.4480 0.3382 0.1664
C8 C 0.2544(5) -0.0728(9) -0.0514(4)
C9 C 0.3298(7) -0.0758(16) -0.0760(5)
H4 H 0.3733 -0.0561 -0.0445
H5 H 0.3388 -0.1830 -0.0920
H6 H 0.3307 0.0097 -0.1032
C10 C 0.1803(6) -0.1616(11) -0.0830(4)
C11 C 0.1110(7) -0.1677(12) -0.0600(4)
H7 H 0.1107 -0.1206 -0.0248
C12 C 0.0423(8) -0.2417(16) -0.0879(6)
H8 H -0.0042 -0.2457 -0.0721
C13 C 0.0444(7) -0.3100(14) -0.1402(5)
C14 C 0.1119(8) -0.3070(14) -0.1640(4)
H9 H 0.1124 -0.3544 -0.1991
C15 C 0.1790(8) -0.2324(14) -0.1348(5)
H10 H 0.2256 -0.2298 -0.1507
loop_
_geom_bond_atom_site_label_1
_geom_bond_atom_site_label_2
_geom_bond_site_symmetry_1
_geom_bond_site_symmetry_2
Cl1 C4 1_555 1_555
Cl2 C6 1_555 1_555
Cl3 C13 1_555 1_555
F1 C1 1_555 1_555
F2 C1 1_555 1_555
F3 C1 1_555 1_555
N1 H1 1_555 1_555
N2 N1 1_555 1_555
C1 C2 1_555 1_555
C2 C3 1_555 1_555
C3 H2 1_555 1_555
C4 C3 1_555 1_555
C5 N1 1_555 1_555
C6 C5 1_555 1_555
C7 C2 1_555 1_555
H3 C7 1_555 1_555
C8 N2 1_555 1_555
C9 C8 1_555 1_555
H4 C9 1_555 1_555
H5 C9 1_555 1_555
H6 C9 1_555 1_555
C10 C8 1_555 1_555
C11 C10 1_555 1_555
H7 C11 1_555 1_555
C12 C11 1_555 1_555
H8 C12 1_555 1_555
C13 C12 1_555 1_555
C14 C13 1_555 1_555
H9 C14 1_555 1_555
C15 C10 1_555 1_555
H10 C15 1_555 1_555
C4 C5 1_555 1_555
C6 C7 1_555 1_555
C14 C15 1_555 1_555

#END
