
#######################################################################
#
#                 Cambridge Crystallographic Data Centre
#                                CCDC 
#
#######################################################################
#
# If this CIF has been generated from an entry in the Cambridge 
# Structural Database, then it will include bibliographic, chemical, 
# crystal, experimental, refinement or atomic coordinate data resulting 
# from the CCDC's data processing and validation procedures.
#
#######################################################################

data_MABWAP
_chemical_name_common            4'-Selenothymidine
_chemical_formula_moiety         'C10 H14 N2 O4 Se1'
_chemical_name_systematic        
1-(4-Hydroxy-5-(hydroxymethyl)tetrahydroselenophen-2-yl)-5-methylpyrimidine-2,4(1H,3H)-dione
_symmetry_cell_setting           monoclinic
_symmetry_space_group_name_H-M   'P 21'
_symmetry_Int_Tables_number      4
_space_group_name_Hall           'P 2yb'
loop_
_symmetry_equiv_pos_site_id
_symmetry_equiv_pos_as_xyz
1 x,y,z
2 -x,1/2+y,-z
_cell_length_a                   9.2745(7)
_cell_length_b                   5.2059(3)
_cell_length_c                   12.1233(7)
_cell_angle_alpha                90
_cell_angle_beta                 92.047(2)
_cell_angle_gamma                90
_cell_volume                     584.965
_exptl_crystal_colour            colorless
_exptl_crystal_description       block
_cell_formula_units_Z            2
loop_
_atom_site_label
_atom_site_type_symbol
_atom_site_fract_x
_atom_site_fract_y
_atom_site_fract_z
Se1 Se 0.77352(3) 0.04688(7) 0.67759(2)
C1 C 0.8516(3) 0.1765(6) 0.8216(2)
C2 C 0.5775(3) 0.1338(5) 0.7205(2)
H1 H 0.5158 -0.0175 0.7097
O1 O 0.5929(2) -0.0314(4) 0.91068(17)
O2 O 1.3333(2) 0.7869(4) 0.82735(18)
N1 N 0.9864(2) 0.3237(4) 0.81288(19)
N2 N 1.2039(3) 0.4574(5) 0.8944(2)
C3 C 0.5902(3) 0.1951(6) 0.8448(2)
O3 O 0.5068(3) 0.2880(4) 0.54113(16)
H2 H 0.5046 0.4198 0.5041
O4 O 1.0731(2) 0.1452(4) 0.97470(16)
C4 C 0.7296(3) 0.3366(5) 0.8676(2)
H3 H 0.7454 0.3611 0.9464
H4 H 0.7261 0.5040 0.8324
C5 C 0.5134(4) 0.3527(6) 0.6550(3)
H5 H 0.877(3) 0.007(6) 0.870(2)
H6 H 0.925(3) 0.497(5) 0.6702(19)
H7 H 1.267(3) 0.444(5) 0.947(2)
H8 H 0.414(4) 0.381(7) 0.678(3)
H9 H 0.507(4) 0.306(6) 0.873(3)
H10 H 0.514(4) -0.099(7) 0.891(3)
H11 H 0.571(3) 0.491(6) 0.667(2)
C6 C 1.0862(3) 0.2973(5) 0.9001(2)
C7 C 1.2268(3) 0.6463(6) 0.8174(2)
C8 C 1.1204(3) 0.6590(5) 0.7279(2)
C9 C 1.0057(3) 0.5033(6) 0.7312(2)
C10 C 1.1453(4) 0.8428(7) 0.6352(3)
H12 H 1.0631 0.8418 0.5848
H13 H 1.2296 0.7914 0.5971
H14 H 1.1593 1.0127 0.6645
loop_
_geom_bond_atom_site_label_1
_geom_bond_atom_site_label_2
_geom_bond_site_symmetry_1
_geom_bond_site_symmetry_2
Se1 C1 1_555 1_555
C1 N1 1_555 1_555
C2 Se1 1_555 1_555
H1 C2 1_555 1_555
O1 C3 1_555 1_555
O2 C7 1_555 1_555
N1 C6 1_555 1_555
N2 H7 1_555 1_555
C3 C2 1_555 1_555
O3 H2 1_555 1_555
O4 C6 1_555 1_555
C4 C1 1_555 1_555
H3 C4 1_555 1_555
H4 C4 1_555 1_555
C5 C2 1_555 1_555
H5 C1 1_555 1_555
H6 C9 1_555 1_555
H8 C5 1_555 1_555
H9 C3 1_555 1_555
H10 O1 1_555 1_555
H11 C5 1_555 1_555
C6 N2 1_555 1_555
C7 N2 1_555 1_555
C8 C7 1_555 1_555
C9 N1 1_555 1_555
C10 C8 1_555 1_555
H12 C10 1_555 1_555
H13 C10 1_555 1_555
H14 C10 1_555 1_555
C3 C4 1_555 1_555
O3 C5 1_555 1_555
C8 C9 1_555 1_555

#END
