
#######################################################################
#
#                 Cambridge Crystallographic Data Centre
#                                CCDC 
#
#######################################################################
#
# If this CIF has been generated from an entry in the Cambridge 
# Structural Database, then it will include bibliographic, chemical, 
# crystal, experimental, refinement or atomic coordinate data resulting 
# from the CCDC's data processing and validation procedures.
#
#######################################################################

data_MADMOV
_chemical_name_common            'Guignardone A'
_chemical_formula_moiety         'C17 H22 O4'
_chemical_name_systematic        
12-Hydroxy-4-methyl-7-(prop-1-en-2-yl)-3,14-dioxatetracyclo[10.2.1.0^2,10^.0^4,8^]pentadec-2(10)-en-11-one
_chemical_properties_biological  antibacterial
_symmetry_cell_setting           monoclinic
_symmetry_space_group_name_H-M   'C 2'
_symmetry_Int_Tables_number      5
_space_group_name_Hall           'C 2y'
loop_
_symmetry_equiv_pos_site_id
_symmetry_equiv_pos_as_xyz
1 x,y,z
2 -x,y,-z
3 1/2+x,1/2+y,z
4 1/2-x,1/2+y,-z
_cell_length_a                   19.592(4)
_cell_length_b                   5.6820(11)
_cell_length_c                   14.568(3)
_cell_angle_alpha                90
_cell_angle_beta                 107.89(3)
_cell_angle_gamma                90
_cell_volume                     1543.32
_cell_formula_units_Z            4
loop_
_atom_site_label
_atom_site_type_symbol
_atom_site_fract_x
_atom_site_fract_y
_atom_site_fract_z
O1 O 0.96742(11) 0.5879(6) 0.8621(2)
O2 O 1.14696(15) 0.3635(9) 0.7251(3)
O3 O 1.24690(16) 0.5666(9) 0.8640(3)
H1 H 1.235(3) 0.451(15) 0.825(5)
O4 O 1.10264(15) 0.9320(7) 0.8834(3)
C1 C 0.8224(3) 0.4688(19) 0.4910(4)
H2 H 0.8178 0.4925 0.4241
H3 H 0.7766 0.4914 0.5009
H4 H 0.8389 0.3116 0.5095
C2 C 0.9051(3) 0.8024(19) 0.5126(5)
H5 H 0.8948 0.8157 0.4461
H6 H 0.9375 0.9053 0.5533
C3 C 0.8737(2) 0.6370(15) 0.5494(4)
C4 C 0.8898(2) 0.6320(11) 0.6576(3)
H7 H 0.9248 0.7560 0.6855
C5 C 0.9207(2) 0.3956(11) 0.7043(3)
H8 H 0.8886 0.2695 0.6706
C6 C 0.91356(18) 0.4188(10) 0.8059(3)
C7 C 0.84166(18) 0.5415(12) 0.7890(4)
H9 H 0.8045 0.4273 0.7873
H10 H 0.8443 0.6532 0.8403
C8 C 0.8251(2) 0.6680(12) 0.6927(3)
H11 H 0.7824 0.6027 0.6468
H12 H 0.8173 0.8344 0.7005
C9 C 0.9245(3) 0.1958(12) 0.8646(4)
H13 H 0.9189 0.2285 0.9265
H14 H 0.9719 0.1361 0.8730
H15 H 0.8897 0.0807 0.8316
C10 C 0.9958(2) 0.3352(12) 0.7049(4)
H16 H 1.0037 0.1678 0.7162
H17 H 1.0008 0.3709 0.6422
C11 C 1.05032(19) 0.4663(9) 0.7795(3)
C12 C 1.03282(18) 0.5807(9) 0.8522(3)
C13 C 1.1233(2) 0.4733(9) 0.7823(3)
C14 C 1.1751(2) 0.6159(10) 0.8593(4)
C15 C 1.15779(18) 0.5930(12) 0.9550(3)
H18 H 1.1537 0.4300 0.9724
H19 H 1.1927 0.6733 1.0075
C16 C 1.0880(2) 0.7139(11) 0.9257(4)
H20 H 1.0720 0.7461 0.9819
C17 C 1.1578(3) 0.8857(12) 0.8406(4)
H21 H 1.1999 0.9806 0.8705
H22 H 1.1412 0.9192 0.7720
loop_
_geom_bond_atom_site_label_1
_geom_bond_atom_site_label_2
_geom_bond_site_symmetry_1
_geom_bond_site_symmetry_2
O1 C6 1_555 1_555
O2 C13 1_555 1_555
O3 H1 1_555 1_555
O4 C16 1_555 1_555
C1 H2 1_555 1_555
H3 C1 1_555 1_555
H4 C1 1_555 1_555
C2 H5 1_555 1_555
H6 C2 1_555 1_555
C3 C1 1_555 1_555
C4 C3 1_555 1_555
H7 C4 1_555 1_555
C5 C4 1_555 1_555
H8 C5 1_555 1_555
C6 C5 1_555 1_555
C7 C6 1_555 1_555
H9 C7 1_555 1_555
H10 C7 1_555 1_555
C8 C4 1_555 1_555
H11 C8 1_555 1_555
H12 C8 1_555 1_555
C9 C6 1_555 1_555
H13 C9 1_555 1_555
H14 C9 1_555 1_555
H15 C9 1_555 1_555
C10 C5 1_555 1_555
H16 C10 1_555 1_555
H17 C10 1_555 1_555
C11 C10 1_555 1_555
C12 O1 1_555 1_555
C13 C11 1_555 1_555
C14 O3 1_555 1_555
C15 C14 1_555 1_555
H18 C15 1_555 1_555
H19 C15 1_555 1_555
C16 C12 1_555 1_555
H20 C16 1_555 1_555
C17 O4 1_555 1_555
H21 C17 1_555 1_555
H22 C17 1_555 1_555
C2 C3 1_555 1_555
C7 C8 1_555 1_555
C11 C12 1_555 1_555
C13 C14 1_555 1_555
C14 C17 1_555 1_555
C15 C16 1_555 1_555

#END
