
#######################################################################
#
#                 Cambridge Crystallographic Data Centre
#                                CCDC 
#
#######################################################################
#
# If this CIF has been generated from an entry in the Cambridge 
# Structural Database, then it will include bibliographic, chemical, 
# crystal, experimental, refinement or atomic coordinate data resulting 
# from the CCDC's data processing and validation procedures.
#
#######################################################################

data_MADNAI
_chemical_name_common            'Guignardone C'
_chemical_formula_moiety         'C17 H22 O4'
_chemical_name_systematic        
1-Hydroxy-4-methyl-7-(prop-1-en-2-yl)-3,13-dioxatetracyclo[10.2.1.0^2,10^.0^4,8^]pentadec-2(10)-en-11-one
_chemical_properties_biological  antibacterial
_symmetry_cell_setting           orthorhombic
_symmetry_space_group_name_H-M   'P 21 21 21'
_symmetry_Int_Tables_number      19
_space_group_name_Hall           'P 2ac 2ab'
loop_
_symmetry_equiv_pos_site_id
_symmetry_equiv_pos_as_xyz
1 x,y,z
2 1/2-x,-y,1/2+z
3 -x,1/2+y,1/2-z
4 1/2+x,1/2-y,-z
_cell_length_a                   7.4425(18)
_cell_length_b                   11.781(3)
_cell_length_c                   17.888(2)
_cell_angle_alpha                90
_cell_angle_beta                 90
_cell_angle_gamma                90
_cell_volume                     1568.42
_cell_formula_units_Z            4
loop_
_atom_site_label
_atom_site_type_symbol
_atom_site_fract_x
_atom_site_fract_y
_atom_site_fract_z
C1 C 0.6032(3) 0.7799(3) 0.12431(14)
C2 C 0.4605(4) 0.7006(2) 0.14219(14)
C3 C 0.2902(3) 0.7316(2) 0.12750(13)
C4 C 0.2418(3) 0.8463(2) 0.09585(14)
C5 C 0.3857(3) 0.8778(2) 0.03930(14)
H1 H 0.4069 0.8174 0.0035
H2 H 0.3568 0.9475 0.0130
C6 C 0.5418(4) 0.8931(3) 0.09189(15)
H3 H 0.6413 0.9336 0.0679
C7 C 0.2803(4) 0.9381(2) 0.15512(17)
H4 H 0.2162 1.0075 0.1433
H5 H 0.2428 0.9123 0.2042
C8 C 0.5048(3) 0.5870(2) 0.17633(17)
H6 H 0.5420 0.5975 0.2278
H7 H 0.6039 0.5527 0.1493
C9 C 0.3438(3) 0.5088(2) 0.17373(14)
H8 H 0.3618 0.4488 0.2109
C10 C 0.1660(4) 0.5679(2) 0.19088(15)
C11 C 0.1421(5) 0.6078(3) 0.27080(17)
H9 H 0.2355 0.6607 0.2831
H10 H 0.1483 0.5438 0.3039
H11 H 0.0272 0.6441 0.2759
C12 C 0.0251(4) 0.4839(3) 0.16263(17)
H12 H -0.0153 0.4354 0.2031
H13 H -0.0778 0.5242 0.1426
C13 C 0.1125(4) 0.4142(3) 0.10263(18)
H14 H 0.0522 0.4261 0.0552
H15 H 0.1059 0.3342 0.1151
C14 C 0.3070(4) 0.4517(2) 0.09740(16)
H16 H 0.3149 0.5104 0.0587
C15 C 0.4374(5) 0.3598(3) 0.07788(18)
C16 C 0.5359(4) 0.3682(3) 0.01551(19)
H17 H 0.5232 0.4310 -0.0155
H18 H 0.6172 0.3112 0.0032
C17 C 0.4476(5) 0.2600(3) 0.12956(18)
H19 H 0.5125 0.1996 0.1057
H20 H 0.3283 0.2347 0.1414
H21 H 0.5084 0.2818 0.1747
O1 O 0.1449(2) 0.66782(15) 0.14187(11)
O2 O 0.0687(2) 0.85236(16) 0.06551(11)
H22 H -0.0168 0.8289 0.1026
O3 O 0.4687(3) 0.95696(16) 0.15363(11)
O4 O 0.7615(2) 0.75885(17) 0.13596(11)
loop_
_geom_bond_atom_site_label_1
_geom_bond_atom_site_label_2
_geom_bond_site_symmetry_1
_geom_bond_site_symmetry_2
C1 C2 1_555 1_555
C2 C3 1_555 1_555
C3 C4 1_555 1_555
C4 C5 1_555 1_555
C5 H1 1_555 1_555
H2 C5 1_555 1_555
C6 C1 1_555 1_555
H3 C6 1_555 1_555
C7 C4 1_555 1_555
H4 C7 1_555 1_555
H5 C7 1_555 1_555
C8 C2 1_555 1_555
H6 C8 1_555 1_555
H7 C8 1_555 1_555
C9 C8 1_555 1_555
H8 C9 1_555 1_555
C10 C9 1_555 1_555
C11 C10 1_555 1_555
H9 C11 1_555 1_555
H10 C11 1_555 1_555
H11 C11 1_555 1_555
C12 C10 1_555 1_555
H12 C12 1_555 1_555
H13 C12 1_555 1_555
C13 C12 1_555 1_555
H14 C13 1_555 1_555
H15 C13 1_555 1_555
C14 C9 1_555 1_555
H16 C14 1_555 1_555
C15 C14 1_555 1_555
C16 C15 1_555 1_555
H17 C16 1_555 1_555
H18 C16 1_555 1_555
C17 C15 1_555 1_555
H19 C17 1_555 1_555
H20 C17 1_555 1_555
H21 C17 1_555 1_555
O1 C3 1_555 1_555
O2 C4 1_555 1_555
H22 O2 1_555 1_555
O3 C6 1_555 1_555
O4 C1 1_555 1_555
C5 C6 1_555 1_555
C7 O3 1_555 1_555
C10 O1 1_555 1_555
C13 C14 1_555 1_555

#END
