
#######################################################################
#
#                 Cambridge Crystallographic Data Centre
#                                CCDC 
#
#######################################################################
#
# If this CIF has been generated from an entry in the Cambridge 
# Structural Database, then it will include bibliographic, chemical, 
# crystal, experimental, refinement or atomic coordinate data resulting 
# from the CCDC's data processing and validation procedures.
#
#######################################################################

data_MADQOA
_chemical_formula_moiety         'C35 H52 N2 O7 Si2'
_chemical_name_systematic        
'(3-(bis(Triethylsilyl)methyl)-6-(hydroxy(phenyl)methyl)-6-methylcyclohex-2-en-1-yl)methyl 3,5-dinitrobenzoate'
_symmetry_cell_setting           monoclinic
_symmetry_space_group_name_H-M   'P 21/n'
_symmetry_Int_Tables_number      14
_space_group_name_Hall           '-P 2yn'
loop_
_symmetry_equiv_pos_site_id
_symmetry_equiv_pos_as_xyz
1 x,y,z
2 1/2-x,1/2+y,1/2-z
3 -x,-y,-z
4 1/2+x,1/2-y,1/2+z
_cell_length_a                   16.5236(9)
_cell_length_b                   14.1625(6)
_cell_length_c                   17.3391(11)
_cell_angle_alpha                90
_cell_angle_beta                 113.660(7)
_cell_angle_gamma                90
_cell_volume                     3716.55
_exptl_crystal_colour            colorless
_exptl_crystal_description       monoclinic
_chemical_melting_point          '149.1-150.3 deg.C'
_cell_formula_units_Z            4
loop_
_atom_site_label
_atom_site_type_symbol
_atom_site_fract_x
_atom_site_fract_y
_atom_site_fract_z
Si1 Si 0.20352(7) 0.10286(8) 0.12583(8)
Si2 Si 0.41227(7) 0.09076(9) 0.24583(8)
O1 O 0.57524(18) -0.06985(17) 0.04852(17)
O2 O 0.93111(16) 0.19304(19) 0.3178(2)
O3 O 0.53563(12) 0.26471(13) 0.08061(12)
O4 O 0.64924(13) 0.35094(13) 0.16792(13)
O5 O 0.35131(15) 0.47134(13) -0.08816(13)
H1 H 0.3520 0.5208 -0.1125
O6 O 0.69288(17) -0.13979(16) 0.13110(16)
O7 O 0.94867(14) 0.04751(17) 0.29270(16)
N1 N 0.90375(17) 0.1179(2) 0.28381(18)
N2 N 0.64890(19) -0.06947(18) 0.10479(17)
C1 C 0.32028(16) 0.40098(18) 0.02283(16)
C2 C 0.1661(9) 0.0688(11) -0.0322(7)
H2 H 0.1213 0.0715 -0.0884
H3 H 0.1758 0.0042 -0.0138
H4 H 0.2200 0.0951 -0.0312
C3 C 0.1571(8) 0.1773(10) 0.2064(7)
H5 H 0.1834 0.1492 0.2620
H6 H 0.1780 0.2419 0.2112
C4 C 0.0689(11) 0.1790(14) 0.1824(14)
H7 H 0.0417 0.2080 0.1279
H8 H 0.0547 0.2146 0.2224
H9 H 0.0473 0.1156 0.1796
C5 C 0.1370(5) 0.1235(6) 0.0249(5)
H10 H 0.0769 0.1060 0.0152
H11 H 0.1376 0.1904 0.0130
C6 C 0.3236(2) 0.4169(2) 0.11141(18)
H12 H 0.3834 0.4336 0.1490
H13 H 0.2855 0.4696 0.1100
C7 C 0.2949(2) 0.3309(2) 0.1460(2)
H14 H 0.3143 0.3382 0.2064
H15 H 0.2308 0.3282 0.1218
C8 C 0.32959(19) 0.2392(2) 0.12893(19)
C9 C 0.36867(18) 0.2353(2) 0.07562(18)
H16 H 0.3892 0.1766 0.0675
C10 C 0.38311(17) 0.31744(17) 0.02651(17)
H17 H 0.3684 0.2960 -0.0313
C11 C 0.22667(18) 0.3727(2) -0.03816(19)
H18 H 0.2234 0.3720 -0.0947
H19 H 0.1849 0.4174 -0.0342
H20 H 0.2132 0.3109 -0.0238
C12 C 0.34910(18) 0.49226(18) -0.00811(18)
H21 H 0.4098 0.5062 0.0312
C13 C 0.29397(19) 0.5795(2) -0.01318(19)
C14 C 0.2141(2) 0.5963(2) -0.0798(2)
H22 H 0.1921 0.5525 -0.1233
C15 C 0.1665(3) 0.6772(3) -0.0827(3)
H23 H 0.1127 0.6873 -0.1278
C16 C 0.1975(3) 0.7417(3) -0.0204(4)
H24 H 0.1649 0.7961 -0.0228
C17 C 0.2765(3) 0.7277(3) 0.0462(3)
H25 H 0.2975 0.7721 0.0893
C18 C 0.3254(2) 0.6467(2) 0.0493(2)
H26 H 0.3798 0.6379 0.0940
C19 C 0.47955(17) 0.34862(18) 0.06324(19)
H27 H 0.4908 0.3892 0.0236
H28 H 0.4925 0.3839 0.1148
C20 C 0.61857(18) 0.27665(19) 0.13540(18)
C21 C 0.67088(17) 0.18740(18) 0.15346(17)
C22 C 0.75886(18) 0.1926(2) 0.20948(17)
H29 H 0.7835 0.2499 0.2338
C23 C 0.80891(18) 0.1115(2) 0.22833(17)
C24 C 0.77451(19) 0.0249(2) 0.19550(17)
H30 H 0.8088 -0.0296 0.2099
C25 C 0.68741(18) 0.02249(19) 0.14054(17)
C26 C 0.63506(19) 0.10174(19) 0.11774(17)
H31 H 0.5767 0.0978 0.0790
C27 C 0.3154(2) 0.1503(3) 0.1721(3)
H32 H 0.3052 0.1855 0.2159
C28 C 0.1914(3) -0.0116(4) 0.1686(3)
H33 H 0.2357 -0.0536 0.1642
H34 H 0.2056 -0.0031 0.2282
C29 C 0.1052(5) -0.0602(6) 0.1313(4)
H35 H 0.0800 -0.0508 0.0714
H36 H 0.0662 -0.0350 0.1548
H37 H 0.1134 -0.1265 0.1433
C30 C 0.5174(2) 0.1540(3) 0.2672(2)
H38 H 0.5653 0.1149 0.3046
H39 H 0.5246 0.1589 0.2145
C31 C 0.5285(3) 0.2511(4) 0.3050(3)
H40 H 0.4892 0.2942 0.2645
H41 H 0.5884 0.2717 0.3208
H42 H 0.5151 0.2495 0.3540
C32 C 0.4180(5) -0.0175(5) 0.1638(5)
H43 H 0.3634 -0.0534 0.1439
H44 H 0.4238 0.0106 0.1153
C33 C 0.4864(5) -0.0759(5) 0.2026(4)
H45 H 0.4873 -0.1241 0.1641
H46 H 0.5405 -0.0407 0.2215
H47 H 0.4802 -0.1046 0.2501
C34 C 0.4040(6) 0.0287(6) 0.3315(5)
H48 H 0.3561 -0.0165 0.3089
H49 H 0.4581 -0.0068 0.3597
C35 C 0.3896(11) 0.0828(13) 0.3911(11)
H50 H 0.3309 0.1085 0.3671
H51 H 0.4318 0.1334 0.4089
H52 H 0.3961 0.0442 0.4387
C36? C 0.2041(7) 0.0603(11) 0.0134(6)
H53? H 0.2220 0.1135 -0.0113
H54? H 0.2489 0.0118 0.0247
C37? C 0.1169(7) 0.0216(8) -0.0526(6)
H55? H 0.1236 0.0092 -0.1041
H56? H 0.0708 0.0673 -0.0626
H57? H 0.1017 -0.0358 -0.0321
C38? C 0.1080(4) 0.1855(6) 0.0918(5)
H58? H 0.1177 0.2353 0.0581
H59? H 0.0551 0.1516 0.0566
C39? C 0.0938(10) 0.2284(10) 0.1629(12)
H60? H 0.0504 0.2776 0.1422
H61? H 0.1483 0.2546 0.2022
H62? H 0.0734 0.1811 0.1904
C40? C 0.4383(9) -0.0245(9) 0.2642(9)
H63? H 0.3848 -0.0591 0.2560
H64? H 0.4783 -0.0316 0.3228
H65? H 0.4986 -0.1411 0.2179
H66? H 0.4468 -0.0713 0.1444
H67? H 0.5405 -0.0438 0.2114
C41? C 0.3920(12) 0.1342(14) 0.3563(9)
H68? H 0.3890 0.2025 0.3574
H69? H 0.3359 0.1095 0.3529
C42? C 0.4639(11) 0.1005(18) 0.4357(8)
H70? H 0.4712 0.0336 0.4323
H71? H 0.4488 0.1143 0.4825
H72? H 0.5181 0.1319 0.4433
loop_
_geom_bond_atom_site_label_1
_geom_bond_atom_site_label_2
_geom_bond_site_symmetry_1
_geom_bond_site_symmetry_2
Si1 C3 1_555 1_555
Si2 C27 1_555 1_555
O1 N2 1_555 1_555
O2 N1 1_555 1_555
O3 C19 1_555 1_555
O4 C20 1_555 1_555
O5 H1 1_555 1_555
O6 N2 1_555 1_555
O7 N1 1_555 1_555
N1 C23 1_555 1_555
N2 C25 1_555 1_555
C1 C6 1_555 1_555
C2 H2 1_555 1_555
H3 C2 1_555 1_555
H4 C2 1_555 1_555
C3 H5 1_555 1_555
H6 C3 1_555 1_555
C4 C3 1_555 1_555
H7 C4 1_555 1_555
H8 C4 1_555 1_555
H9 C4 1_555 1_555
C5 Si1 1_555 1_555
H10 C5 1_555 1_555
H11 C5 1_555 1_555
C6 H12 1_555 1_555
H13 C6 1_555 1_555
C7 C6 1_555 1_555
H14 C7 1_555 1_555
H15 C7 1_555 1_555
C8 C7 1_555 1_555
C9 C8 1_555 1_555
H16 C9 1_555 1_555
C10 C1 1_555 1_555
H17 C10 1_555 1_555
C11 C1 1_555 1_555
H18 C11 1_555 1_555
H19 C11 1_555 1_555
H20 C11 1_555 1_555
C12 O5 1_555 1_555
H21 C12 1_555 1_555
C13 C12 1_555 1_555
C14 C13 1_555 1_555
H22 C14 1_555 1_555
C15 C14 1_555 1_555
H23 C15 1_555 1_555
C16 C15 1_555 1_555
H24 C16 1_555 1_555
C17 C16 1_555 1_555
H25 C17 1_555 1_555
C18 C13 1_555 1_555
H26 C18 1_555 1_555
C19 C10 1_555 1_555
H27 C19 1_555 1_555
H28 C19 1_555 1_555
C20 O3 1_555 1_555
C21 C20 1_555 1_555
C22 C21 1_555 1_555
H29 C22 1_555 1_555
C23 C22 1_555 1_555
C24 C23 1_555 1_555
H30 C24 1_555 1_555
C25 C24 1_555 1_555
C26 C21 1_555 1_555
H31 C26 1_555 1_555
C27 Si1 1_555 1_555
H32 C27 1_555 1_555
C28 Si1 1_555 1_555
H33 C28 1_555 1_555
H34 C28 1_555 1_555
C29 C28 1_555 1_555
H35 C29 1_555 1_555
H36 C29 1_555 1_555
H37 C29 1_555 1_555
C30 Si2 1_555 1_555
H38 C30 1_555 1_555
H39 C30 1_555 1_555
C31 C30 1_555 1_555
H40 C31 1_555 1_555
H41 C31 1_555 1_555
H42 C31 1_555 1_555
C32 Si2 1_555 1_555
H43 C32 1_555 1_555
H44 C32 1_555 1_555
C33 C32 1_555 1_555
H45 C33 1_555 1_555
H46 C33 1_555 1_555
H47 C33 1_555 1_555
C34 Si2 1_555 1_555
H48 C34 1_555 1_555
H49 C34 1_555 1_555
C35 C34 1_555 1_555
H50 C35 1_555 1_555
H51 C35 1_555 1_555
H52 C35 1_555 1_555
C1 C12 1_555 1_555
C2 C5 1_555 1_555
C8 C27 1_555 1_555
C9 C10 1_555 1_555
C17 C18 1_555 1_555
C25 C26 1_555 1_555

#END
