
#######################################################################
#
#                 Cambridge Crystallographic Data Centre
#                                CCDC 
#
#######################################################################
#
# If this CIF has been generated from an entry in the Cambridge 
# Structural Database, then it will include bibliographic, chemical, 
# crystal, experimental, refinement or atomic coordinate data resulting 
# from the CCDC's data processing and validation procedures.
#
#######################################################################

data_MAFKEM
_chemical_formula_moiety         'C18 H14 O2'
_chemical_name_systematic        
5-methyl-18-oxapentacyclo[9.6.1.0^2,10^.0^3,8^.0^12,17^]octadeca-3,5,7,12,14,16-hexaen-9-one
_symmetry_cell_setting           monoclinic
_symmetry_space_group_name_H-M   'P 21/n'
_symmetry_Int_Tables_number      14
_space_group_name_Hall           '-P 2yn'
loop_
_symmetry_equiv_pos_site_id
_symmetry_equiv_pos_as_xyz
1 x,y,z
2 1/2-x,1/2+y,1/2-z
3 -x,-y,-z
4 1/2+x,1/2-y,1/2+z
_cell_length_a                   10.8528(8)
_cell_length_b                   5.7818(4)
_cell_length_c                   21.4217(16)
_cell_angle_alpha                90
_cell_angle_beta                 101.352(4)
_cell_angle_gamma                90
_cell_volume                     1317.89
_exptl_crystal_colour            colorless
_exptl_crystal_description       Tabular
_cell_formula_units_Z            4
loop_
_atom_site_label
_atom_site_type_symbol
_atom_site_fract_x
_atom_site_fract_y
_atom_site_fract_z
C1 C 0.47553(15) 0.2733(3) 0.59989(8)
C2 C 0.44360(14) 0.4195(3) 0.65400(7)
H1 H 0.3573 0.4788 0.6445
C3 C 0.47333(14) 0.2855(3) 0.71731(8)
H2 H 0.4402 0.1274 0.7154
C4 C 0.43867(15) 0.4346(3) 0.76907(7)
C5 C 0.34340(16) 0.4287(3) 0.80289(8)
H3 H 0.2823 0.3139 0.7957
C6 C 0.34150(19) 0.6005(4) 0.84825(9)
H4 H 0.2798 0.5975 0.8728
C7 C 0.4294(2) 0.7742(3) 0.85720(9)
H5 H 0.4249 0.8892 0.8870
C8 C 0.5252(2) 0.7817(3) 0.82255(9)
H6 H 0.5844 0.9000 0.8286
C9 C 0.52926(16) 0.6077(3) 0.77901(8)
C10 C 0.61475(15) 0.5529(3) 0.73333(8)
H7 H 0.6997 0.6172 0.7451
C11 C 0.54344(15) 0.6157(3) 0.66514(7)
H8 H 0.5054 0.7699 0.6631
C12 C 0.61952(15) 0.5788(3) 0.61430(8)
C13 C 0.71722(17) 0.7127(3) 0.60146(8)
H9 H 0.7416 0.8454 0.6252
C14 C 0.77885(17) 0.6487(3) 0.55308(8)
C15 C 0.74091(18) 0.4469(3) 0.51832(9)
H10 H 0.7826 0.4028 0.4862
C16 C 0.64355(17) 0.3118(3) 0.53036(8)
H11 H 0.6193 0.1784 0.5069
C17 C 0.58253(15) 0.3812(3) 0.57876(7)
C18 C 0.8835(2) 0.7951(4) 0.53777(11)
H12 H 0.8490 0.9123 0.5076
H13 H 0.9401 0.6995 0.5199
H14 H 0.9282 0.8668 0.5760
O1 O 0.42149(13) 0.0951(2) 0.58074(6)
O2 O 0.60857(10) 0.3023(2) 0.73164(6)
loop_
_geom_bond_atom_site_label_1
_geom_bond_atom_site_label_2
_geom_bond_site_symmetry_1
_geom_bond_site_symmetry_2
C1 C2 1_555 1_555
C2 H1 1_555 1_555
C3 C2 1_555 1_555
H2 C3 1_555 1_555
C4 C3 1_555 1_555
C5 C4 1_555 1_555
H3 C5 1_555 1_555
C6 C5 1_555 1_555
H4 C6 1_555 1_555
C7 C6 1_555 1_555
H5 C7 1_555 1_555
C8 C7 1_555 1_555
H6 C8 1_555 1_555
C9 C4 1_555 1_555
C10 C9 1_555 1_555
H7 C10 1_555 1_555
C11 C2 1_555 1_555
H8 C11 1_555 1_555
C12 C11 1_555 1_555
C13 C12 1_555 1_555
H9 C13 1_555 1_555
C14 C13 1_555 1_555
C15 C14 1_555 1_555
H10 C15 1_555 1_555
C16 C15 1_555 1_555
H11 C16 1_555 1_555
C17 C1 1_555 1_555
C18 C14 1_555 1_555
H12 C18 1_555 1_555
H13 C18 1_555 1_555
H14 C18 1_555 1_555
O1 C1 1_555 1_555
O2 C3 1_555 1_555
C8 C9 1_555 1_555
C10 C11 1_555 1_555
C10 O2 1_555 1_555
C12 C17 1_555 1_555
C16 C17 1_555 1_555

#END
