
#######################################################################
#
#                 Cambridge Crystallographic Data Centre
#                                CCDC 
#
#######################################################################
#
# If this CIF has been generated from an entry in the Cambridge 
# Structural Database, then it will include bibliographic, chemical, 
# crystal, experimental, refinement or atomic coordinate data resulting 
# from the CCDC's data processing and validation procedures.
#
#######################################################################

data_MAFPIT
_chemical_formula_moiety         'C18 H18 N2 2+,2(C6 H7 O2 1-)'
_chemical_name_systematic        "4,4'-Butadiynedibenzylammonium disorbate"
_symmetry_cell_setting           triclinic
_symmetry_space_group_name_H-M   'P -1'
_symmetry_Int_Tables_number      2
_space_group_name_Hall           '-P 1'
loop_
_symmetry_equiv_pos_site_id
_symmetry_equiv_pos_as_xyz
1 x,y,z
2 -x,-y,-z
_cell_length_a                   4.883(3)
_cell_length_b                   5.781(3)
_cell_length_c                   22.520(14)
_cell_angle_alpha                89.000(14)
_cell_angle_beta                 89.011(18)
_cell_angle_gamma                84.398(16)
_cell_volume                     632.499
_exptl_crystal_colour            yellow
_exptl_crystal_description       plate
_cell_formula_units_Z            1
_exptl_crystal_recrystallization_method methanol
loop_
_atom_site_label
_atom_site_type_symbol
_atom_site_fract_x
_atom_site_fract_y
_atom_site_fract_z
O1 O 0.1562(2) 0.12313(18) 0.21702(5)
O2 O 0.4385(2) -0.20208(19) 0.21441(5)
C1 C 0.2213(3) -0.0847(2) 0.19998(6)
C2 C 0.0217(3) -0.1836(3) 0.16027(6)
C3 C 0.0648(3) -0.3890(3) 0.13399(6)
C4 C -0.1332(3) -0.4836(3) 0.09577(7)
C5 C -0.0909(4) -0.6885(3) 0.06956(7)
C6 C -0.2898(4) -0.7916(3) 0.03024(8)
H1 H -0.1512 -0.0939 0.1534
H2 H 0.2375 -0.4803 0.1403
H3 H -0.3067 -0.3929 0.0897
H4 H 0.0836 -0.7767 0.0760
H5 H -0.4519 -0.6909 0.0271
H6 H -0.2066 -0.8153 -0.0083
H7 H -0.3293 -0.9380 0.0464
N1 N -0.3799(2) -0.6650(2) 0.24253(5)
C7 C -0.3857(3) -0.6902(2) 0.30813(6)
C8 C -0.1787(3) -0.5603(2) 0.33982(6)
C9 C -0.0925(3) -0.3516(2) 0.31818(6)
C10 C 0.0829(3) -0.2296(2) 0.35121(6)
C11 C 0.1716(3) -0.3134(2) 0.40701(6)
C12 C 0.0950(3) -0.5281(3) 0.42726(6)
C13 C -0.0799(3) -0.6487(2) 0.39408(6)
C14 C 0.3282(3) -0.1794(3) 0.44468(6)
C15 C 0.4376(3) -0.0655(3) 0.47994(6)
H8 H -0.5143 -0.7516 0.2255
H9 H -0.4192 -0.5048 0.2316
H10 H -0.2029 -0.7193 0.2274
H11 H -0.1564 -0.2911 0.2805
H12 H 0.1437 -0.0874 0.3356
H13 H 0.1638 -0.5918 0.4643
H14 H -0.1336 -0.7949 0.4087
H15 H -0.5663 -0.6359 0.3224
H16 H -0.3520 -0.8517 0.3183
C15A C 0.5624(3) 0.0655(3) 0.52006(6)
C14A C 0.6718(3) 0.1794(3) 0.55532(6)
C11A C 0.8284(3) 0.3134(2) 0.59299(6)
C10A C 0.9171(3) 0.2296(2) 0.64879(6)
C9A C 1.0925(3) 0.3516(2) 0.68182(6)
C8A C 1.1787(3) 0.5603(2) 0.66018(6)
C7A C 1.3857(3) 0.6902(2) 0.69187(6)
N1A N 1.3799(2) 0.6650(2) 0.75747(5)
H8A H 1.5143 0.7516 0.7745
H9A H 1.4192 0.5048 0.7684
H10A H 1.2029 0.7193 0.7726
H15A H 1.5663 0.6359 0.6776
H16A H 1.3520 0.8517 0.6817
C13A C 1.0799(3) 0.6487(2) 0.60592(6)
C12A C 0.9050(3) 0.5281(3) 0.57274(6)
H13A H 0.8362 0.5918 0.5357
H14A H 1.1336 0.7949 0.5913
H11A H 1.1564 0.2911 0.7195
H12A H 0.8563 0.0874 0.6644
loop_
_geom_bond_atom_site_label_1
_geom_bond_atom_site_label_2
_geom_bond_site_symmetry_1
_geom_bond_site_symmetry_2
O1 C1 1_555 1_555
O2 C1 1_555 1_555
N1 C7 1_555 1_555
C1 C2 1_555 1_555
C2 C3 1_555 1_555
C3 C4 1_555 1_555
C4 C5 1_555 1_555
C5 C6 1_555 1_555
C6 H5 1_555 1_555
C7 C8 1_555 1_555
C8 C9 1_555 1_555
C9 C10 1_555 1_555
C10 C11 1_555 1_555
C11 C12 1_555 1_555
C12 C13 1_555 1_555
C13 C8 1_555 1_555
C14 C11 1_555 1_555
C15 C14 1_555 1_555
H1 C2 1_555 1_555
H2 C3 1_555 1_555
H3 C4 1_555 1_555
H4 C5 1_555 1_555
H6 C6 1_555 1_555
H7 C6 1_555 1_555
H8 N1 1_555 1_555
H9 N1 1_555 1_555
H10 N1 1_555 1_555
H11 C9 1_555 1_555
H12 C10 1_555 1_555
H13 C12 1_555 1_555
H14 C13 1_555 1_555
H15 C7 1_555 1_555
H16 C7 1_555 1_555
C15A C15 1_555 1_555
C14A C15A 1_555 1_555
C11A C14A 1_555 1_555
C10A C11A 1_555 1_555
C9A C10A 1_555 1_555
C8A C9A 1_555 1_555
C7A C8A 1_555 1_555
N1A C7A 1_555 1_555
H8A N1A 1_555 1_555
H9A N1A 1_555 1_555
H10A N1A 1_555 1_555
H15A C7A 1_555 1_555
H16A C7A 1_555 1_555
C13A C8A 1_555 1_555
C12A C11A 1_555 1_555
H13A C12A 1_555 1_555
H14A C13A 1_555 1_555
H11A C9A 1_555 1_555
H12A C10A 1_555 1_555
C13A C12A 1_555 1_555

#END
