
#######################################################################
#
#                 Cambridge Crystallographic Data Centre
#                                CCDC 
#
#######################################################################
#
# If this CIF has been generated from an entry in the Cambridge 
# Structural Database, then it will include bibliographic, chemical, 
# crystal, experimental, refinement or atomic coordinate data resulting 
# from the CCDC's data processing and validation procedures.
#
#######################################################################

data_MAFQIW
_chemical_formula_moiety         'C12 H14 N1 O1 P1 S2'
_chemical_name_systematic        
"N,N-diethyl-4H-thieno[2',3':4,5]phospholo[3,2-b]thiophen-4-amine 4-oxide"
_symmetry_cell_setting           monoclinic
_symmetry_space_group_name_H-M   'P 21/c'
_symmetry_Int_Tables_number      14
_space_group_name_Hall           '-P 2ybc'
loop_
_symmetry_equiv_pos_site_id
_symmetry_equiv_pos_as_xyz
1 x,y,z
2 -x,1/2+y,1/2-z
3 -x,-y,-z
4 x,1/2-y,1/2+z
_cell_length_a                   7.9210(2)
_cell_length_b                   15.2530(4)
_cell_length_c                   11.8580(4)
_cell_angle_alpha                90
_cell_angle_beta                 105.3040(16)
_cell_angle_gamma                90
_cell_volume                     1381.87
_exptl_crystal_colour            yellow
_exptl_crystal_description       prismatic
_cell_formula_units_Z            4
_chemical_properties_physical    Photo-sensitive
_exptl_crystal_preparation       Luminescent
loop_
_atom_site_label
_atom_site_type_symbol
_atom_site_fract_x
_atom_site_fract_y
_atom_site_fract_z
P1 P 0.76348(5) 0.06695(3) 0.22152(3)
S1 S 0.63743(7) 0.27315(3) 0.42034(4)
S2 S 0.25510(6) 0.14623(3) 0.22247(4)
O1 O 0.83844(16) 0.07773(8) 0.12064(10)
N1 N 0.83544(19) -0.02196(9) 0.29691(12)
C1 C 0.8621(3) 0.27175(12) 0.45318(17)
H1 H 0.9350 0.3114 0.5062
C2 C 0.9242(2) 0.20776(12) 0.39516(15)
H2 H 1.0450 0.1975 0.4026
C3 C 0.7864(2) 0.15794(11) 0.32197(14)
C4 C 0.6241(2) 0.18670(11) 0.32673(15)
C5 C 0.2276(2) 0.06159(13) 0.12289(17)
H3 H 0.1166 0.0405 0.0796
C6 C 0.3827(2) 0.02847(11) 0.11332(15)
H4 H 0.3927 -0.0187 0.0631
C7 C 0.5275(2) 0.07277(11) 0.18730(14)
C8 C 0.4781(2) 0.13841(11) 0.25108(15)
C9 C 0.7818(3) -0.04160(12) 0.40372(16)
H5 H 0.7401 0.0132 0.4321
H6 H 0.8856 -0.0618 0.4647
C10 C 0.6390(3) -0.11054(17) 0.3886(2)
H7 H 0.5384 -0.0933 0.3247
H8 H 0.6026 -0.1156 0.4612
H9 H 0.6839 -0.1672 0.3703
C11 C 0.9279(3) -0.09098(12) 0.25002(16)
H10 H 0.9244 -0.0767 0.1680
H11 H 0.8661 -0.1474 0.2500
C12 C 1.1165(3) -0.10132(14) 0.31968(18)
H12 H 1.1793 -0.0462 0.3181
H13 H 1.1717 -0.1481 0.2853
H14 H 1.1208 -0.1164 0.4007
loop_
_geom_bond_atom_site_label_1
_geom_bond_atom_site_label_2
_geom_bond_site_symmetry_1
_geom_bond_site_symmetry_2
P1 O1 1_555 1_555
S1 C1 1_555 1_555
S2 C5 1_555 1_555
N1 P1 1_555 1_555
C1 H1 1_555 1_555
C2 C1 1_555 1_555
H2 C2 1_555 1_555
C3 P1 1_555 1_555
C4 S1 1_555 1_555
C5 H3 1_555 1_555
C6 C5 1_555 1_555
H4 C6 1_555 1_555
C7 P1 1_555 1_555
C8 S2 1_555 1_555
C9 N1 1_555 1_555
H5 C9 1_555 1_555
H6 C9 1_555 1_555
C10 C9 1_555 1_555
H7 C10 1_555 1_555
H8 C10 1_555 1_555
H9 C10 1_555 1_555
C11 N1 1_555 1_555
H10 C11 1_555 1_555
H11 C11 1_555 1_555
C12 C11 1_555 1_555
H12 C12 1_555 1_555
H13 C12 1_555 1_555
H14 C12 1_555 1_555
C2 C3 1_555 1_555
C3 C4 1_555 1_555
C4 C8 1_555 1_555
C6 C7 1_555 1_555
C7 C8 1_555 1_555

#END
