
#######################################################################
#
#                 Cambridge Crystallographic Data Centre
#                                CCDC 
#
#######################################################################
#
# If this CIF has been generated from an entry in the Cambridge 
# Structural Database, then it will include bibliographic, chemical, 
# crystal, experimental, refinement or atomic coordinate data resulting 
# from the CCDC's data processing and validation procedures.
#
#######################################################################

data_MAFQUI
_chemical_formula_moiety         'C33 H52 N1 O1 P1 S2 Si2'
_chemical_name_systematic        
"N-benzyl-2,6-bis(triisopropylsilyl)-4H-thieno[2',3':4,5]phospholo[3,2-b]thiophen-4-amine 4-oxide"
_symmetry_cell_setting           monoclinic
_symmetry_space_group_name_H-M   'P 21/c'
_symmetry_Int_Tables_number      14
_space_group_name_Hall           '-P 2ybc'
loop_
_symmetry_equiv_pos_site_id
_symmetry_equiv_pos_as_xyz
1 x,y,z
2 -x,1/2+y,1/2-z
3 -x,-y,-z
4 x,1/2-y,1/2+z
_cell_length_a                   14.8200(2)
_cell_length_b                   13.8030(2)
_cell_length_c                   37.1530(4)
_cell_angle_alpha                90
_cell_angle_beta                 110.0980(10)
_cell_angle_gamma                90
_cell_volume                     7137.24
_exptl_crystal_colour            yellow
_exptl_crystal_description       block
_cell_formula_units_Z            8
_exptl_crystal_preparation       Luminescent
loop_
_atom_site_label
_atom_site_type_symbol
_atom_site_fract_x
_atom_site_fract_y
_atom_site_fract_z
S1 S 0.05915(4) 0.05777(5) 0.07223(2)
S2 S 0.30720(4) -0.06310(5) 0.10032(2)
P1 P 0.21056(4) 0.01950(5) 0.18975(2)
Si1 Si -0.11672(5) 0.19298(5) 0.06890(2)
Si2 Si 0.52287(5) -0.14071(5) 0.14363(2)
O1 O 0.18714(13) -0.05226(14) 0.21482(5)
N1 N 0.25333(17) 0.11884(17) 0.21266(6)
C1 C -0.2713(3) 0.2793(3) 0.08510(11)
H1 H -0.2385 0.3420 0.0882
H2 H -0.3138 0.2785 0.1003
H3 H -0.3093 0.2691 0.0580
C2 C -0.1966(2) 0.1982(2) 0.09889(8)
H4 H -0.1541 0.2170 0.1253
C3 C -0.2432(3) 0.1033(3) 0.10320(13)
H5 H -0.2900 0.0842 0.0784
H6 H -0.2760 0.1112 0.1219
H7 H -0.1938 0.0530 0.1121
C4 C -0.2522(3) 0.2120(3) -0.00662(9)
H8 H -0.3075 0.2106 0.0021
H9 H -0.2720 0.1899 -0.0333
H10 H -0.2274 0.2784 -0.0049
C5 C -0.1735(2) 0.1453(2) 0.01861(8)
H11 H -0.1215 0.1459 0.0072
C6 C -0.2093(3) 0.0408(2) 0.01533(10)
H12 H -0.1583 -0.0010 0.0318
H13 H -0.2271 0.0192 -0.0113
H14 H -0.2656 0.0371 0.0234
C7 C -0.0115(3) 0.3569(3) 0.10744(10)
H15 H -0.0536 0.3585 0.1228
H16 H 0.0118 0.4225 0.1055
H17 H 0.0432 0.3141 0.1197
C8 C -0.0679(2) 0.3190(2) 0.06727(8)
H18 H -0.1241 0.3630 0.0559
C9 C -0.0063(3) 0.3237(3) 0.04150(12)
H19 H 0.0484 0.2794 0.0513
H20 H 0.0173 0.3899 0.0414
H21 H -0.0452 0.3047 0.0153
C10 C -0.01191(17) 0.11420(19) 0.09498(7)
C11 C 0.02991(17) 0.10381(19) 0.13395(7)
H22 H 0.0024 0.1290 0.1516
C12 C 0.11751(17) 0.05234(18) 0.14538(7)
C13 C 0.14298(17) 0.02318(18) 0.11486(7)
C14 C 0.23753(17) -0.02262(18) 0.12545(7)
C15 C 0.28558(18) -0.02771(18) 0.16429(7)
C16 C 0.37924(18) -0.06469(19) 0.17317(7)
H23 H 0.4216 -0.0734 0.1988
C17 C 0.40438(18) -0.08714(19) 0.14179(7)
C18 C 0.6225(2) 0.0001(2) 0.19950(9)
H24 H 0.6574 0.0249 0.1833
H25 H 0.6598 0.0129 0.2265
H26 H 0.5600 0.0325 0.1927
C19 C 0.60734(19) -0.1090(2) 0.19334(8)
H27 H 0.5751 -0.1311 0.2115
C20 C 0.7042(2) -0.1611(3) 0.20527(9)
H28 H 0.6936 -0.2309 0.2011
H29 H 0.7396 -0.1488 0.2325
H30 H 0.7416 -0.1370 0.1899
C21 C 0.4959(2) -0.0668(2) 0.06657(9)
H31 H 0.4649 -0.1277 0.0553
H32 H 0.5287 -0.0387 0.0502
H33 H 0.4472 -0.0214 0.0687
C22 C 0.5691(2) -0.0867(2) 0.10632(8)
H34 H 0.5977 -0.0225 0.1167
C23 C 0.6513(2) -0.1479(3) 0.10215(10)
H35 H 0.7026 -0.1536 0.1271
H36 H 0.6767 -0.1166 0.0839
H37 H 0.6273 -0.2126 0.0927
C24 C 0.4691(2) -0.3188(2) 0.16803(10)
H38 H 0.5128 -0.3023 0.1938
H39 H 0.4652 -0.3894 0.1651
H40 H 0.4051 -0.2926 0.1643
C25 C 0.50698(19) -0.2755(2) 0.13817(8)
H41 H 0.5720 -0.3040 0.1428
C26 C 0.4429(2) -0.3066(2) 0.09788(9)
H42 H 0.3780 -0.2805 0.0924
H43 H 0.4400 -0.3775 0.0965
H44 H 0.4697 -0.2816 0.0790
C27 C 0.25673(19) 0.2126(2) 0.19548(8)
H45 H 0.2135 0.2575 0.2026
H46 H 0.2314 0.2054 0.1673
C28 C 0.3552(2) 0.2581(2) 0.20689(8)
C29 C 0.4383(2) 0.2043(3) 0.22001(10)
H47 H 0.4347 0.1361 0.2227
C30 C 0.5278(3) 0.2491(4) 0.22944(12)
H48 H 0.5847 0.2112 0.2387
C31 C 0.5343(3) 0.3467(4) 0.22550(11)
H49 H 0.5954 0.3767 0.2316
C32 C 0.4523(3) 0.4014(3) 0.21276(10)
H50 H 0.4568 0.4696 0.2104
C33 C 0.3622(3) 0.3575(2) 0.20318(9)
H51 H 0.3056 0.3959 0.1941
H52 H 0.271(2) 0.118(2) 0.2340(9)
S3 S -0.44055(4) 0.47317(5) 0.06454(2)
S4 S -0.19225(5) 0.59358(5) 0.09293(2)
P2 P -0.28986(5) 0.51144(5) 0.18230(2)
Si3 Si -0.62297(5) 0.34434(5) 0.06183(2)
Si4 Si 0.01858(5) 0.68350(5) 0.13751(2)
O2 O -0.31322(13) 0.58394(14) 0.20704(5)
N2 N -0.24781(16) 0.41291(17) 0.20609(6)
C34 C -0.6150(3) 0.2886(3) 0.01747(11)
H53 H -0.6115 0.3455 0.0013
C35 C -0.7106(5) 0.2377(5) -0.0064(2)
H54 H -0.7196 0.1797 0.0073
H55 H -0.7079 0.2190 -0.0314
H56 H -0.7644 0.2822 -0.0099
C36 C -0.5487(3) 0.1859(3) 0.11371(13)
H57 H -0.5502 0.1422 0.0927
H58 H -0.5551 0.1481 0.1350
H59 H -0.4876 0.2212 0.1224
C37 C -0.6317(2) 0.2582(3) 0.09964(10)
H60 H -0.6270 0.2994 0.1223
C38 C -0.7293(3) 0.2076(3) 0.08882(13)
H61 H -0.7806 0.2561 0.0808
H62 H -0.7333 0.1720 0.1110
H63 H -0.7364 0.1624 0.0677
C39 C -0.7469(3) 0.4699(3) 0.08380(17)
H64 H -0.7539 0.4182 0.1007
H65 H -0.8050 0.5099 0.0756
H66 H -0.6913 0.5102 0.0976
C40 C -0.7320(2) 0.4253(3) 0.04865(12)
H67 H -0.7891 0.3833 0.0360
C41 C -0.7306(4) 0.5029(3) 0.01977(15)
H68 H -0.6794 0.5495 0.0319
H69 H -0.7927 0.5364 0.0108
H70 H -0.7190 0.4726 -0.0021
C42 C -0.51169(17) 0.41655(18) 0.08702(7)
C43 C -0.47013(17) 0.42722(19) 0.12611(7)
H71 H -0.4981 0.4024 0.1437
C44 C -0.38222(17) 0.47838(19) 0.13773(7)
C45 C -0.35662(17) 0.50684(18) 0.10707(7)
C46 C -0.26178(17) 0.55174(18) 0.11789(7)
C47 C -0.21441(17) 0.55730(19) 0.15675(7)
C48 C -0.12138(18) 0.59700(19) 0.16591(7)
H72 H -0.0796 0.6069 0.1915
C49 C -0.09642(18) 0.62017(19) 0.13448(7)
C50 C 0.1242(2) 0.5366(2) 0.18925(10)
H73 H 0.0624 0.5032 0.1831
H74 H 0.1649 0.5206 0.2155
H75 H 0.1561 0.5157 0.1714
C51 C 0.10743(19) 0.6462(2) 0.18570(8)
H76 H 0.0779 0.6644 0.2053
C52 C 0.2038(2) 0.6996(3) 0.19681(11)
H77 H 0.2378 0.6802 0.1795
H78 H 0.2429 0.6831 0.2232
H79 H 0.1924 0.7697 0.1948
C53 C -0.0363(2) 0.8494(2) 0.17018(10)
H80 H -0.0950 0.8150 0.1692
H81 H -0.0485 0.9193 0.1685
H82 H 0.0151 0.8345 0.1944
C54 C -0.00616(19) 0.8171(2) 0.13659(8)
H83 H 0.0550 0.8515 0.1390
C55 C -0.0816(2) 0.8486(2) 0.09854(9)
H84 H -0.0591 0.8323 0.0774
H85 H -0.0916 0.9187 0.0989
H86 H -0.1422 0.8150 0.0950
C56 C 0.1338(2) 0.7235(3) 0.09205(11)
H87 H 0.0980 0.7827 0.0815
H88 H 0.1640 0.6984 0.0743
H89 H 0.1835 0.7380 0.1168
C57 C 0.0645(2) 0.6471(2) 0.09777(8)
H90 H 0.1039 0.5874 0.1070
C58 C -0.0102(2) 0.6205(2) 0.05903(9)
H91 H -0.0499 0.5668 0.0624
H92 H 0.0224 0.6009 0.0413
H93 H -0.0512 0.6767 0.0486
C59 C -0.2397(2) 0.3186(2) 0.19014(9)
H94 H -0.2580 0.3250 0.1620
H95 H -0.2863 0.2740 0.1952
C60 C -0.1411(2) 0.2738(2) 0.20571(8)
C61 C -0.1318(3) 0.1747(3) 0.20975(9)
H96 H -0.1874 0.1350 0.2037
C62 C -0.0404(4) 0.1326(3) 0.22280(11)
H97 H -0.0341 0.0642 0.2252
C63 C 0.0399(3) 0.1897(4) 0.23215(11)
H98 H 0.1020 0.1612 0.2414
C64 C 0.0300(3) 0.2873(4) 0.22814(12)
H99 H 0.0856 0.3270 0.2344
C65 C -0.0595(2) 0.3296(3) 0.21516(10)
H100 H -0.0649 0.3980 0.2127
C66 C -0.5305(4) 0.2330(6) 0.0202(2)
H101 H -0.4729 0.2700 0.0346
H102 H -0.5299 0.2195 -0.0056
H103 H -0.5314 0.1718 0.0334
H104 H -0.230(2) 0.419(2) 0.2295(9)
H105? H -0.6640 0.3328 -0.0002
C67? C -0.5485(13) 0.2991(16) -0.0023(5)
H106? H -0.5681 0.3535 -0.0203
H107? H -0.5474 0.2395 -0.0165
H108? H -0.4842 0.3115 0.0162
C68? C -0.677(2) 0.1964(18) 0.0041(8)
H109? H -0.6957 0.1715 0.0252
H110? H -0.6392 0.1470 -0.0035
H111? H -0.7343 0.2122 -0.0178
loop_
_geom_bond_atom_site_label_1
_geom_bond_atom_site_label_2
_geom_bond_site_symmetry_1
_geom_bond_site_symmetry_2
S1 C10 1_555 1_555
S2 C14 1_555 1_555
P1 O1 1_555 1_555
Si1 C2 1_555 1_555
Si2 C17 1_555 1_555
N1 P1 1_555 1_555
C1 H1 1_555 1_555
H2 C1 1_555 1_555
H3 C1 1_555 1_555
C2 C1 1_555 1_555
H4 C2 1_555 1_555
C3 C2 1_555 1_555
H5 C3 1_555 1_555
H6 C3 1_555 1_555
H7 C3 1_555 1_555
C4 H8 1_555 1_555
H9 C4 1_555 1_555
H10 C4 1_555 1_555
C5 Si1 1_555 1_555
H11 C5 1_555 1_555
C6 C5 1_555 1_555
H12 C6 1_555 1_555
H13 C6 1_555 1_555
H14 C6 1_555 1_555
C7 H15 1_555 1_555
H16 C7 1_555 1_555
H17 C7 1_555 1_555
C8 Si1 1_555 1_555
H18 C8 1_555 1_555
C9 C8 1_555 1_555
H19 C9 1_555 1_555
H20 C9 1_555 1_555
H21 C9 1_555 1_555
C10 Si1 1_555 1_555
C11 C10 1_555 1_555
H22 C11 1_555 1_555
C12 P1 1_555 1_555
C13 S1 1_555 1_555
C14 C13 1_555 1_555
C15 P1 1_555 1_555
C16 C15 1_555 1_555
H23 C16 1_555 1_555
C17 S2 1_555 1_555
C18 H24 1_555 1_555
H25 C18 1_555 1_555
H26 C18 1_555 1_555
C19 Si2 1_555 1_555
H27 C19 1_555 1_555
C20 C19 1_555 1_555
H28 C20 1_555 1_555
H29 C20 1_555 1_555
H30 C20 1_555 1_555
C21 H31 1_555 1_555
H32 C21 1_555 1_555
H33 C21 1_555 1_555
C22 Si2 1_555 1_555
H34 C22 1_555 1_555
C23 C22 1_555 1_555
H35 C23 1_555 1_555
H36 C23 1_555 1_555
H37 C23 1_555 1_555
C24 H38 1_555 1_555
H39 C24 1_555 1_555
H40 C24 1_555 1_555
C25 Si2 1_555 1_555
H41 C25 1_555 1_555
C26 C25 1_555 1_555
H42 C26 1_555 1_555
H43 C26 1_555 1_555
H44 C26 1_555 1_555
C27 N1 1_555 1_555
H45 C27 1_555 1_555
H46 C27 1_555 1_555
C28 C27 1_555 1_555
C29 C28 1_555 1_555
H47 C29 1_555 1_555
C30 C29 1_555 1_555
H48 C30 1_555 1_555
C31 C30 1_555 1_555
H49 C31 1_555 1_555
C32 C31 1_555 1_555
H50 C32 1_555 1_555
C33 C28 1_555 1_555
H51 C33 1_555 1_555
H52 N1 1_555 1_555
S3 C42 1_555 1_555
S4 C46 1_555 1_555
P2 O2 1_555 1_555
Si3 C34 1_555 1_555
Si4 C49 1_555 1_555
N2 P2 1_555 1_555
C34 H53 1_555 1_555
C35 C34 1_555 1_555
H54 C35 1_555 1_555
H55 C35 1_555 1_555
H56 C35 1_555 1_555
C36 H57 1_555 1_555
H58 C36 1_555 1_555
H59 C36 1_555 1_555
C37 Si3 1_555 1_555
H60 C37 1_555 1_555
C38 C37 1_555 1_555
H61 C38 1_555 1_555
H62 C38 1_555 1_555
H63 C38 1_555 1_555
C39 H64 1_555 1_555
H65 C39 1_555 1_555
H66 C39 1_555 1_555
C40 Si3 1_555 1_555
H67 C40 1_555 1_555
C41 C40 1_555 1_555
H68 C41 1_555 1_555
H69 C41 1_555 1_555
H70 C41 1_555 1_555
C42 Si3 1_555 1_555
C43 C42 1_555 1_555
H71 C43 1_555 1_555
C44 P2 1_555 1_555
C45 S3 1_555 1_555
C46 C45 1_555 1_555
C47 P2 1_555 1_555
C48 C47 1_555 1_555
H72 C48 1_555 1_555
C49 S4 1_555 1_555
C50 H73 1_555 1_555
H74 C50 1_555 1_555
H75 C50 1_555 1_555
C51 Si4 1_555 1_555
H76 C51 1_555 1_555
C52 C51 1_555 1_555
H77 C52 1_555 1_555
H78 C52 1_555 1_555
H79 C52 1_555 1_555
C53 H80 1_555 1_555
H81 C53 1_555 1_555
H82 C53 1_555 1_555
C54 Si4 1_555 1_555
H83 C54 1_555 1_555
C55 C54 1_555 1_555
H84 C55 1_555 1_555
H85 C55 1_555 1_555
H86 C55 1_555 1_555
C56 H87 1_555 1_555
H88 C56 1_555 1_555
H89 C56 1_555 1_555
C57 Si4 1_555 1_555
H90 C57 1_555 1_555
C58 C57 1_555 1_555
H91 C58 1_555 1_555
H92 C58 1_555 1_555
H93 C58 1_555 1_555
C59 N2 1_555 1_555
H94 C59 1_555 1_555
H95 C59 1_555 1_555
C60 C59 1_555 1_555
C61 C60 1_555 1_555
H96 C61 1_555 1_555
C62 C61 1_555 1_555
H97 C62 1_555 1_555
C63 C62 1_555 1_555
H98 C63 1_555 1_555
C64 C63 1_555 1_555
H99 C64 1_555 1_555
C65 C60 1_555 1_555
H100 C65 1_555 1_555
C66 C34 1_555 1_555
H101 C66 1_555 1_555
H102 C66 1_555 1_555
H103 C66 1_555 1_555
H104 N2 1_555 1_555
C4 C5 1_555 1_555
C7 C8 1_555 1_555
C11 C12 1_555 1_555
C12 C13 1_555 1_555
C14 C15 1_555 1_555
C16 C17 1_555 1_555
C18 C19 1_555 1_555
C21 C22 1_555 1_555
C24 C25 1_555 1_555
C32 C33 1_555 1_555
C36 C37 1_555 1_555
C39 C40 1_555 1_555
C43 C44 1_555 1_555
C44 C45 1_555 1_555
C46 C47 1_555 1_555
C48 C49 1_555 1_555
C50 C51 1_555 1_555
C53 C54 1_555 1_555
C56 C57 1_555 1_555
C64 C65 1_555 1_555

#END
