
#######################################################################
#
#                 Cambridge Crystallographic Data Centre
#                                CCDC 
#
#######################################################################
#
# If this CIF has been generated from an entry in the Cambridge 
# Structural Database, then it will include bibliographic, chemical, 
# crystal, experimental, refinement or atomic coordinate data resulting 
# from the CCDC's data processing and validation procedures.
#
#######################################################################

data_MAGKIR
_chemical_formula_moiety         'C21 H26 N6 O2'
_chemical_name_systematic        
't-Butyl 2-(1-(1-benzyl-1H-tetrazol-5-yl)-2-phenylethyl)hydrazinecarboxylate'
_symmetry_cell_setting           triclinic
_symmetry_space_group_name_H-M   'P -1'
_symmetry_Int_Tables_number      2
_space_group_name_Hall           '-P 1'
loop_
_symmetry_equiv_pos_site_id
_symmetry_equiv_pos_as_xyz
1 x,y,z
2 -x,-y,-z
_cell_length_a                   6.5491(5)
_cell_length_b                   11.9449(9)
_cell_length_c                   13.4350(8)
_cell_angle_alpha                93.523(6)
_cell_angle_beta                 92.580(6)
_cell_angle_gamma                93.224(6)
_cell_volume                     1046.11
_exptl_crystal_colour            white
_exptl_crystal_description       block
_cell_formula_units_Z            2
loop_
_atom_site_label
_atom_site_type_symbol
_atom_site_fract_x
_atom_site_fract_y
_atom_site_fract_z
O1 O 0.2356(3) 0.40948(16) 0.78739(15)
O2 O 0.5549(3) 0.35516(15) 0.75373(16)
N1 N 0.8218(3) 0.69632(16) 0.51111(16)
N2 N 0.4149(3) 0.50233(18) 0.68186(17)
N3 N 1.0656(3) 0.60663(18) 0.57717(16)
N4 N 0.9810(3) 0.70550(17) 0.45140(17)
N5 N 0.5804(3) 0.52300(18) 0.62040(16)
N6 N 1.1264(3) 0.65125(17) 0.49171(16)
C1 C 0.4133(4) 0.4154(2) 0.74230(18)
C2 C 0.4570(4) 0.8874(2) 0.6087(2)
H1 H 0.3391 0.837 0.601
C3 C 0.6348(4) 0.7556(2) 0.4928(2)
H2 H 0.5138 0.7054 0.5044
H3 H 0.6257 0.7752 0.4223
C4 C 0.6328(4) 0.8614(2) 0.5604(2)
C5 C 0.8758(4) 0.6356(2) 0.58767(18)
C6 C 0.8002(5) 1.0345(2) 0.6324(2)
H4 H 0.9179 1.0851 0.6396
C7 C 0.1983(4) 0.3308(2) 0.86561(19)
C8 C 0.8053(4) 0.9355(2) 0.5742(2)
H5 H 0.9279 0.9176 0.5433
C9 C 0.6239(5) 1.0607(2) 0.6805(2)
H6 H 0.6206 1.1283 0.7213
C10 C 0.4520(5) 0.9861(3) 0.6679(3)
H7 H 0.3305 1.0032 0.7003
C11 C -0.0148(5) 0.3548(3) 0.8966(3)
H8 H -0.0176 0.434 0.9202
H9 H -0.0527 0.3071 0.9503
H10 H -0.1122 0.3391 0.8392
C12 C 0.9397(6) 0.7113(2) 0.8090(2)
C13 C 1.1491(8) 0.7038(4) 0.8393(3)
H11 H 1.2143 0.6353 0.8289
C14 C 1.2579(6) 0.8000(5) 0.8849(3)
H12 H 1.3977 0.7957 0.9058
C15 C 1.1715(7) 0.8941(4) 0.8990(3)
H13 H 1.2489 0.9573 0.9303
C16 C 0.9796(7) 0.9040(3) 0.8711(3)
H14 H 0.9213 0.9744 0.8827
C17 C 0.8614(5) 0.8167(3) 0.8260(2)
H15 H 0.7235 0.8275 0.8057
C18 C 0.3495(6) 0.3621(5) 0.9522(3)
H16 H 0.4883 0.3488 0.9317
H17 H 0.3173 0.3162 1.008
H18 H 0.3412 0.4417 0.9731
C19 C 0.7247(7) 0.6193(5) 0.6664(3)
H19 H 0.6461 0.6884 0.6743
C20 C 0.8382(5) 0.6014(3) 0.7672(3)
H20 H 0.7397 0.5727 0.8147
H21 H 0.9424 0.5454 0.7572
C21 C 0.227(3) 0.2106(7) 0.8330(15)
H22 H 0.1482 0.1908 0.7701
H23 H 0.1797 0.1618 0.8843
H24 H 0.3727 0.2008 0.8232
H25 H 0.294(6) 0.529(3) 0.657(3)
H26 H 0.634(6) 0.460(4) 0.606(3)
C22? C 0.7579(12) 0.5718(9) 0.6691(6)
H27? H 0.8431 0.5129 0.6966
C23? C 0.7051(11) 0.6553(6) 0.7511(5)
H28? H 0.6207 0.6178 0.8001
H29? H 0.6273 0.7158 0.7232
C24? C 0.147(6) 0.2212(19) 0.8035(19)
H30? H 0.0333 0.2311 0.7555
H31? H 0.1076 0.162 0.8474
H32? H 0.2672 0.1998 0.7674
loop_
_geom_bond_atom_site_label_1
_geom_bond_atom_site_label_2
_geom_bond_site_symmetry_1
_geom_bond_site_symmetry_2
O1 C1 1_555 1_555
O2 C1 1_555 1_555
N1 N4 1_555 1_555
N2 N5 1_555 1_555
N3 N6 1_555 1_555
N4 N6 1_555 1_555
N5 C19 1_555 1_555
C1 N2 1_555 1_555
C2 H1 1_555 1_555
C3 N1 1_555 1_555
H2 C3 1_555 1_555
H3 C3 1_555 1_555
C4 C2 1_555 1_555
C5 N1 1_555 1_555
C6 H4 1_555 1_555
C7 O1 1_555 1_555
C8 C4 1_555 1_555
H5 C8 1_555 1_555
C9 C6 1_555 1_555
H6 C9 1_555 1_555
C10 C2 1_555 1_555
H7 C10 1_555 1_555
C11 C7 1_555 1_555
H8 C11 1_555 1_555
H9 C11 1_555 1_555
H10 C11 1_555 1_555
C12 C13 1_555 1_555
C13 H11 1_555 1_555
C14 C13 1_555 1_555
H12 C14 1_555 1_555
C15 C14 1_555 1_555
H13 C15 1_555 1_555
C16 C15 1_555 1_555
H14 C16 1_555 1_555
C17 C12 1_555 1_555
H15 C17 1_555 1_555
C18 C7 1_555 1_555
H16 C18 1_555 1_555
H17 C18 1_555 1_555
H18 C18 1_555 1_555
C19 C5 1_555 1_555
H19 C19 1_555 1_555
C20 C12 1_555 1_555
H20 C20 1_555 1_555
H21 C20 1_555 1_555
C21 C7 1_555 1_555
H22 C21 1_555 1_555
H23 C21 1_555 1_555
H24 C21 1_555 1_555
H25 N2 1_555 1_555
H26 N5 1_555 1_555
N3 C5 1_555 1_555
C3 C4 1_555 1_555
C6 C8 1_555 1_555
C9 C10 1_555 1_555
C16 C17 1_555 1_555
C19 C20 1_555 1_555

#END
