
#######################################################################
#
#                 Cambridge Crystallographic Data Centre
#                                CCDC 
#
#######################################################################
#
# If this CIF has been generated from an entry in the Cambridge 
# Structural Database, then it will include bibliographic, chemical, 
# crystal, experimental, refinement or atomic coordinate data resulting 
# from the CCDC's data processing and validation procedures.
#
#######################################################################

data_MAGKOX
_chemical_formula_moiety         'C16 H30 N6 O4'
_chemical_name_systematic        
't-Butyl 2-(2-(1-(1-methoxy-4-methyl-1-oxopentan-2-yl)-1H-tetrazol-5-yl)propan-2-yl)hydrazinecarboxylate'
_symmetry_cell_setting           monoclinic
_symmetry_space_group_name_H-M   'P 21/c'
_symmetry_Int_Tables_number      14
_space_group_name_Hall           '-P 2ybc'
loop_
_symmetry_equiv_pos_site_id
_symmetry_equiv_pos_as_xyz
1 x,y,z
2 -x,1/2+y,1/2-z
3 -x,-y,-z
4 x,1/2-y,1/2+z
_cell_length_a                   22.7519(4)
_cell_length_b                   7.53190(10)
_cell_length_c                   12.0873(2)
_cell_angle_alpha                90
_cell_angle_beta                 102.078(2)
_cell_angle_gamma                90
_cell_volume                     2025.49
_exptl_crystal_colour            white
_exptl_crystal_description       prism
_cell_formula_units_Z            4
loop_
_atom_site_label
_atom_site_type_symbol
_atom_site_fract_x
_atom_site_fract_y
_atom_site_fract_z
O1 O 0.87625(4) 0.21603(11) 0.36924(7)
O2 O 0.88989(4) -0.07846(11) 0.33464(7)
O3 O 0.65691(4) 0.01390(11) 0.21923(7)
O4 O 0.68681(4) 0.16090(11) 0.38383(7)
N1 N 0.68091(4) -0.14822(12) 0.50283(7)
N2 N 0.77862(4) -0.14187(12) 0.38390(8)
N3 N 0.74664(4) -0.15913(13) 0.66014(8)
N4 N 0.69241(5) -0.10414(13) 0.67926(8)
N5 N 0.65288(4) -0.09546(13) 0.58562(8)
N6 N 0.80892(4) 0.02228(13) 0.39987(8)
C1 C 0.73876(5) -0.18543(14) 0.55017(9)
C2 C 0.86177(5) 0.04265(15) 0.36441(9)
C3 C 0.66784(5) 0.02926(15) 0.33152(9)
C4 C 0.84811(5) -0.23945(17) 0.56478(10)
H1 H 0.8783 -0.2807 0.5234
H2 H 0.8494 -0.3143 0.6316
H3 H 0.8567 -0.1161 0.5886
C5 C 0.58138(5) -0.14869(15) 0.36978(10)
H4 H 0.5687 -0.0483 0.4122
H5 H 0.5627 -0.1316 0.2888
C6 C 0.78576(5) -0.25062(15) 0.48804(9)
C7 C 0.64984(5) -0.14128(14) 0.38336(9)
H6 H 0.663 -0.2448 0.3428
C8 C 0.55692(5) -0.32101(16) 0.41028(10)
H7 H 0.5744 -0.3359 0.4928
C9 C 0.92695(5) 0.27968(16) 0.32096(10)
C10 C 0.91430(7) 0.23948(18) 0.19501(11)
H8 H 0.9156 0.1108 0.1836
H9 H 0.9447 0.2972 0.1607
H10 H 0.8744 0.2845 0.1595
C11 C 0.98564(6) 0.19937(19) 0.38378(12)
H11 H 0.9906 0.2228 0.4649
H12 H 1.0192 0.2525 0.3562
H13 H 0.9851 0.0709 0.3708
C12 C 0.77176(5) -0.44430(15) 0.45151(10)
H14 H 0.7323 -0.4503 0.4001
H15 H 0.7714 -0.5175 0.5184
H16 H 0.8026 -0.4885 0.4128
C13 C 0.67072(6) 0.16957(18) 0.15901(11)
H17 H 0.6476 0.2711 0.1776
H18 H 0.6601 0.1473 0.0774
H19 H 0.7138 0.1956 0.1813
C14 C 0.48880(6) -0.3055(2) 0.39408(13)
H20 H 0.4788 -0.2033 0.4369
H21 H 0.4727 -0.4139 0.4214
H22 H 0.4711 -0.2892 0.3136
C15 C 0.57364(6) -0.48284(18) 0.34752(12)
H23 H 0.5593 -0.4662 0.2659
H24 H 0.5549 -0.589 0.3719
H25 H 0.6174 -0.4973 0.3644
C16 C 0.92581(6) 0.47855(17) 0.34231(12)
H26 H 0.8867 0.5268 0.305
H27 H 0.9576 0.5363 0.3118
H28 H 0.9324 0.5006 0.4239
H29 H 0.7911(6) -0.203(2) 0.3311(13)
H30 H 0.7872(7) 0.114(2) 0.3987(12)
loop_
_geom_bond_atom_site_label_1
_geom_bond_atom_site_label_2
_geom_bond_site_symmetry_1
_geom_bond_site_symmetry_2
O1 C2 1_555 1_555
O2 C2 1_555 1_555
O3 C3 1_555 1_555
O4 C3 1_555 1_555
N1 N5 1_555 1_555
N2 N6 1_555 1_555
N3 N4 1_555 1_555
N4 N5 1_555 1_555
N6 C2 1_555 1_555
C1 N1 1_555 1_555
C3 C7 1_555 1_555
C4 H1 1_555 1_555
H2 C4 1_555 1_555
H3 C4 1_555 1_555
C5 H4 1_555 1_555
H5 C5 1_555 1_555
C6 N2 1_555 1_555
C7 N1 1_555 1_555
H6 C7 1_555 1_555
C8 C5 1_555 1_555
H7 C8 1_555 1_555
C9 O1 1_555 1_555
C10 C9 1_555 1_555
H8 C10 1_555 1_555
H9 C10 1_555 1_555
H10 C10 1_555 1_555
C11 C9 1_555 1_555
H11 C11 1_555 1_555
H12 C11 1_555 1_555
H13 C11 1_555 1_555
C12 C6 1_555 1_555
H14 C12 1_555 1_555
H15 C12 1_555 1_555
H16 C12 1_555 1_555
C13 O3 1_555 1_555
H17 C13 1_555 1_555
H18 C13 1_555 1_555
H19 C13 1_555 1_555
C14 C8 1_555 1_555
H20 C14 1_555 1_555
H21 C14 1_555 1_555
H22 C14 1_555 1_555
C15 C8 1_555 1_555
H23 C15 1_555 1_555
H24 C15 1_555 1_555
H25 C15 1_555 1_555
C16 C9 1_555 1_555
H26 C16 1_555 1_555
H27 C16 1_555 1_555
H28 C16 1_555 1_555
H29 N2 1_555 1_555
H30 N6 1_555 1_555
N3 C1 1_555 1_555
C1 C6 1_555 1_555
C4 C6 1_555 1_555
C5 C7 1_555 1_555

#END
