
#######################################################################
#
#                 Cambridge Crystallographic Data Centre
#                                CCDC 
#
#######################################################################
#
# If this CIF has been generated from an entry in the Cambridge 
# Structural Database, then it will include bibliographic, chemical, 
# crystal, experimental, refinement or atomic coordinate data resulting 
# from the CCDC's data processing and validation procedures.
#
#######################################################################

data_MAGPES
_chemical_formula_moiety         'C16 H12 F4 N4 O1'
_chemical_name_systematic        
5-(4-fluorophenyl)-N,N-dimethyl-7-(trifluoromethyl)pyrazolo[1,5-a]pyrimidine-3-carboxamide
_symmetry_cell_setting           triclinic
_symmetry_space_group_name_H-M   'P -1'
_symmetry_Int_Tables_number      2
_space_group_name_Hall           '-P 1'
loop_
_symmetry_equiv_pos_site_id
_symmetry_equiv_pos_as_xyz
1 x,y,z
2 -x,-y,-z
_cell_length_a                   8.1533(16)
_cell_length_b                   9.775(2)
_cell_length_c                   10.112(2)
_cell_angle_alpha                95.02(3)
_cell_angle_beta                 91.66(3)
_cell_angle_gamma                93.43(3)
_cell_volume                     800.908
_exptl_crystal_colour            yellow
_exptl_crystal_description       prism
_cell_formula_units_Z            2
loop_
_atom_site_label
_atom_site_type_symbol
_atom_site_fract_x
_atom_site_fract_y
_atom_site_fract_z
F1 F 0.4706(3) -0.0178(3) 0.8625(2)
F2 F 0.2727(3) 0.1107(3) 0.9106(2)
F3 F 0.2227(4) -0.1076(3) 0.8674(2)
F4 F -0.1297(3) -0.4615(3) 0.0899(3)
O1 O 0.6576(3) 0.3691(3) 0.3607(3)
N1 N 0.4094(4) 0.3316(3) 0.2518(3)
N2 N 0.4575(4) 0.2326(3) 0.7051(3)
N3 N 0.3638(3) 0.1271(3) 0.6352(3)
N4 N 0.2762(3) 0.0421(3) 0.4099(3)
C1 C 0.4755(5) 0.3858(4) 0.1307(4)
H1 H 0.5929 0.3821 0.1325
H2 H 0.4474 0.4795 0.1273
H3 H 0.4291 0.3312 0.0536
C2 C 0.2310(4) 0.3021(4) 0.2493(4)
H4 H 0.1944 0.3011 0.3386
H5 H 0.2039 0.2140 0.2016
H6 H 0.1778 0.3719 0.2060
C3 C 0.5111(5) 0.3241(4) 0.3588(4)
C4 C 0.4517(4) 0.2617(4) 0.4795(4)
C5 C 0.5081(4) 0.3087(4) 0.6088(4)
H7 H 0.5767 0.3881 0.6265
C6 C 0.3569(4) 0.1406(4) 0.4961(4)
C7 C 0.2873(4) 0.0142(4) 0.6847(4)
C8 C 0.3121(6) 0.0010(6) 0.8327(5)
C9 C 0.2051(4) -0.0810(4) 0.6004(4)
H8 H 0.1505 -0.1566 0.6328
C10 C 0.2011(4) -0.0665(4) 0.4589(4)
C11 C 0.1141(4) -0.1731(4) 0.3629(4)
C12 C 0.0155(4) -0.2807(4) 0.4056(4)
H9 H 0.0046 -0.2883 0.4960
C13 C -0.0676(5) -0.3778(4) 0.3128(5)
H10 H -0.1358 -0.4483 0.3412
C14 C -0.0471(5) -0.3674(5) 0.1816(5)
C15 C 0.0539(5) -0.2662(5) 0.1341(4)
H11 H 0.0688 -0.2635 0.0435
C16 C 0.1338(4) -0.1673(4) 0.2270(4)
H12 H 0.2009 -0.0968 0.1973
loop_
_geom_bond_atom_site_label_1
_geom_bond_atom_site_label_2
_geom_bond_site_symmetry_1
_geom_bond_site_symmetry_2
F1 C8 1_555 1_555
F2 C8 1_555 1_555
F3 C8 1_555 1_555
F4 C14 1_555 1_555
O1 C3 1_555 1_555
N1 C1 1_555 1_555
N2 N3 1_555 1_555
N3 C6 1_555 1_555
N4 C6 1_555 1_555
C1 H1 1_555 1_555
H2 C1 1_555 1_555
H3 C1 1_555 1_555
C2 N1 1_555 1_555
H4 C2 1_555 1_555
H5 C2 1_555 1_555
H6 C2 1_555 1_555
C3 N1 1_555 1_555
C4 C3 1_555 1_555
C5 N2 1_555 1_555
H7 C5 1_555 1_555
C6 C4 1_555 1_555
C7 N3 1_555 1_555
C8 C7 1_555 1_555
C9 C7 1_555 1_555
H8 C9 1_555 1_555
C10 N4 1_555 1_555
C11 C10 1_555 1_555
C12 C11 1_555 1_555
H9 C12 1_555 1_555
C13 C12 1_555 1_555
H10 C13 1_555 1_555
C14 C13 1_555 1_555
C15 C14 1_555 1_555
H11 C15 1_555 1_555
C16 C11 1_555 1_555
H12 C16 1_555 1_555
C4 C5 1_555 1_555
C9 C10 1_555 1_555
C15 C16 1_555 1_555

#END
