
#######################################################################
#
#                 Cambridge Crystallographic Data Centre
#                                CCDC 
#
#######################################################################
#
# If this CIF has been generated from an entry in the Cambridge 
# Structural Database, then it will include bibliographic, chemical, 
# crystal, experimental, refinement or atomic coordinate data resulting 
# from the CCDC's data processing and validation procedures.
#
#######################################################################

data_MAGWOJ
_chemical_formula_moiety         'C27 H26 N2 O6 S1'
_chemical_name_systematic        
'Methyl 6-methyl-1-((4-methylphenyl)sulfonyl)-3-nitro-2-phenyl-4-vinyl-1,2,3,4-tetrahydroquinoline-3-carboxylate'
_symmetry_cell_setting           orthorhombic
_symmetry_space_group_name_H-M   'P 21 21 21'
_symmetry_Int_Tables_number      19
_space_group_name_Hall           'P 2ac 2ab'
loop_
_symmetry_equiv_pos_site_id
_symmetry_equiv_pos_as_xyz
1 x,y,z
2 1/2+x,1/2-y,-z
3 -x,1/2+y,1/2-z
4 1/2-x,-y,1/2+z
_cell_length_a                   9.0728(10)
_cell_length_b                   9.5230(10)
_cell_length_c                   30.221(3)
_cell_angle_alpha                90
_cell_angle_beta                 90
_cell_angle_gamma                90
_cell_volume                     2611.1
_exptl_crystal_description       block
_cell_formula_units_Z            4
loop_
_atom_site_label
_atom_site_type_symbol
_atom_site_fract_x
_atom_site_fract_y
_atom_site_fract_z
C1 C 0.1849(5) 1.2082(5) 1.04768(11)
H1 H 0.2305 1.2959 1.0553
H2 H 0.1996 1.1421 1.0713
H3 H 0.0812 1.2225 1.0432
C2 C 0.2532(3) 1.1516(3) 1.00555(9)
C3 C 0.2396(3) 1.2215(3) 0.96551(9)
H4 H 0.1878 1.3058 0.9644
C4 C 0.3008(3) 1.1691(2) 0.92756(8)
H5 H 0.2915 1.2177 0.9010
C5 C 0.3773(2) 1.0422(2) 0.92897(7)
C6 C 0.3923(3) 0.9704(3) 0.96850(7)
H6 H 0.4439 0.8860 0.9695
C7 C 0.3304(3) 1.0247(4) 1.00640(8)
H7 H 0.3402 0.9763 1.0330
C8 C 0.1810(2) 0.99486(17) 0.84465(5)
C9 C 0.1964(2) 1.0925(2) 0.81139(6)
H8 H 0.2811 1.0945 0.7941
C10 C 0.0833(3) 1.1880(2) 0.80404(7)
H9 H 0.0943 1.2557 0.7821
C11 C -0.0439(3) 1.1845(2) 0.82835(7)
C12 C -0.0600(2) 1.0826(2) 0.86112(6)
H10 H -0.1472 1.0778 0.8772
C13 C 0.0527(2) 0.98836(18) 0.87002(5)
C14 C -0.1661(3) 1.2889(3) 0.82035(9)
H11 H -0.2591 1.2465 0.8274
H12 H -0.1657 1.3168 0.7898
H13 H -0.1512 1.3699 0.8387
C15 C 0.0457(2) 0.87349(18) 0.90461(5)
H14 H 0.1231 0.8933 0.9263
C16 C 0.09326(17) 0.73921(17) 0.87898(5)
C17 C 0.26091(18) 0.75238(17) 0.86870(5)
H15 H 0.3112 0.7381 0.8970
C18 C -0.0977(2) 0.8655(2) 0.92952(7)
H16 H -0.1830 0.8424 0.9141
C19 C -0.1070(4) 0.8894(4) 0.97153(8)
H17 H -0.0229 0.9126 0.9876
H18 H -0.1977 0.8833 0.9857
C20 C -0.0074(2) 0.7175(2) 0.83836(6)
C21 C -0.2527(2) 0.6870(3) 0.81526(9)
H19 H -0.2652 0.7786 0.8025
H20 H -0.3451 0.6551 0.8270
H21 H -0.2196 0.6228 0.7929
C22 C 0.32509(19) 0.64382(18) 0.83754(6)
C23 C 0.3737(2) 0.5171(2) 0.85466(8)
H22 H 0.3664 0.5004 0.8849
C24 C 0.4328(3) 0.4154(2) 0.82750(11)
H23 H 0.4652 0.3308 0.8394
C25 C 0.4438(3) 0.4394(3) 0.78276(11)
H24 H 0.4810 0.3699 0.7643
C26 C 0.4000(3) 0.5656(3) 0.76540(8)
H25 H 0.4104 0.5828 0.7353
C27 C 0.3400(2) 0.6679(2) 0.79282(7)
H26 H 0.3097 0.7532 0.7809
N1 N 0.29893(15) 0.89801(14) 0.85474(5)
N2 N 0.08286(17) 0.60935(17) 0.90854(5)
O1 O 0.49711(17) 1.07735(16) 0.85206(6)
O2 O 0.53884(15) 0.85319(15) 0.89096(5)
O3 O 0.1285(2) 0.62111(18) 0.94620(5)
O4 O 0.0381(2) 0.50172(16) 0.89279(6)
O5 O 0.03275(17) 0.7339(2) 0.80132(4)
O6 O -0.14433(15) 0.69370(19) 0.85055(5)
S1 S 0.44472(5) 0.96753(5) 0.879896(17)
loop_
_geom_bond_atom_site_label_1
_geom_bond_atom_site_label_2
_geom_bond_site_symmetry_1
_geom_bond_site_symmetry_2
C1 H1 1_555 1_555
H2 C1 1_555 1_555
H3 C1 1_555 1_555
C2 C1 1_555 1_555
C3 C2 1_555 1_555
H4 C3 1_555 1_555
C4 C3 1_555 1_555
H5 C4 1_555 1_555
C5 C4 1_555 1_555
C6 C5 1_555 1_555
H6 C6 1_555 1_555
C7 C2 1_555 1_555
H7 C7 1_555 1_555
C8 C9 1_555 1_555
C9 H8 1_555 1_555
C10 C9 1_555 1_555
H9 C10 1_555 1_555
C11 C10 1_555 1_555
C12 C11 1_555 1_555
H10 C12 1_555 1_555
C13 C8 1_555 1_555
C14 C11 1_555 1_555
H11 C14 1_555 1_555
H12 C14 1_555 1_555
H13 C14 1_555 1_555
C15 C13 1_555 1_555
H14 C15 1_555 1_555
C16 C15 1_555 1_555
C17 C16 1_555 1_555
H15 C17 1_555 1_555
C18 C15 1_555 1_555
H16 C18 1_555 1_555
C19 C18 1_555 1_555
H17 C19 1_555 1_555
H18 C19 1_555 1_555
C20 C16 1_555 1_555
C21 H19 1_555 1_555
H20 C21 1_555 1_555
H21 C21 1_555 1_555
C22 C17 1_555 1_555
C23 C22 1_555 1_555
H22 C23 1_555 1_555
C24 C23 1_555 1_555
H23 C24 1_555 1_555
C25 C24 1_555 1_555
H24 C25 1_555 1_555
C26 C25 1_555 1_555
H25 C26 1_555 1_555
C27 C22 1_555 1_555
H26 C27 1_555 1_555
N1 C8 1_555 1_555
N2 C16 1_555 1_555
O1 S1 1_555 1_555
O2 S1 1_555 1_555
O3 N2 1_555 1_555
O4 N2 1_555 1_555
O5 C20 1_555 1_555
O6 C20 1_555 1_555
S1 C5 1_555 1_555
C6 C7 1_555 1_555
C12 C13 1_555 1_555
C17 N1 1_555 1_555
C21 O6 1_555 1_555
C26 C27 1_555 1_555
N1 S1 1_555 1_555

#END
