
#######################################################################
#
#                 Cambridge Crystallographic Data Centre
#                                CCDC 
#
#######################################################################
#
# If this CIF has been generated from an entry in the Cambridge 
# Structural Database, then it will include bibliographic, chemical, 
# crystal, experimental, refinement or atomic coordinate data resulting 
# from the CCDC's data processing and validation procedures.
#
#######################################################################

data_MAKPOG
_chemical_formula_moiety         'C57 H54 B1 N2 P1,1.5(C4 H8 O1)'
_chemical_name_systematic        
'(1,3-dimethyl-1H-imidazol-3-ium-2-yl)(4-(8-(4-(diphenylphosphino)phenyl)-1-naphthyl)phenyl)dimesitylborate tetrahydrofuran solvate'
_symmetry_cell_setting           monoclinic
_symmetry_space_group_name_H-M   'P 21/c'
_symmetry_Int_Tables_number      14
_space_group_name_Hall           '-P 2ybc'
loop_
_symmetry_equiv_pos_site_id
_symmetry_equiv_pos_as_xyz
1 x,y,z
2 -x,1/2+y,1/2-z
3 -x,-y,-z
4 x,1/2-y,1/2+z
_cell_length_a                   25.8016(8)
_cell_length_b                   25.2029(7)
_cell_length_c                   15.7714(4)
_cell_angle_alpha                90
_cell_angle_beta                 90.4720(7)
_cell_angle_gamma                90
_cell_volume                     10255.4
_cell_formula_units_Z            8
loop_
_atom_site_label
_atom_site_type_symbol
_atom_site_fract_x
_atom_site_fract_y
_atom_site_fract_z
P1 P 0.25394(3) 0.91222(3) 0.50859(5)
B1 B 0.37532(12) 0.69415(12) 0.53413(19)
N1 N 0.34355(8) 0.77388(9) 0.42691(13)
N2 N 0.42275(9) 0.74951(10) 0.41319(14)
C1 C 0.37887(10) 0.73808(11) 0.45662(16)
C2 C 0.41477(12) 0.79117(12) 0.35798(18)
H1 H 0.4396 0.8061 0.3208
C3 C 0.36542(11) 0.80659(12) 0.36672(17)
H2 H 0.3486 0.8347 0.3372
C4 C 0.28901(10) 0.77911(11) 0.45057(17)
H3 H 0.2866 0.7850 0.5118
H4 H 0.2703 0.7466 0.4353
H5 H 0.2736 0.8093 0.4204
C5 C 0.47181(11) 0.72095(14) 0.41769(19)
H6 H 0.4654 0.6840 0.4335
H7 H 0.4944 0.7376 0.4603
H8 H 0.4887 0.7221 0.3623
C6 C 0.32171(10) 0.70197(10) 0.59085(16)
C7 C 0.32014(10) 0.72411(11) 0.67207(16)
H9 H 0.3505 0.7409 0.6938
C8 C 0.27620(10) 0.72272(10) 0.72250(16)
H10 H 0.2772 0.7387 0.7770
C9 C 0.23078(10) 0.69831(10) 0.69468(16)
C10 C 0.23066(10) 0.67761(10) 0.61279(16)
H11 H 0.1999 0.6619 0.5907
C11 C 0.27470(10) 0.67960(10) 0.56309(16)
H12 H 0.2730 0.6651 0.5075
C12 C 0.42891(10) 0.70907(12) 0.59185(17)
C13 C 0.47144(11) 0.67456(13) 0.60990(19)
C14 C 0.51395(12) 0.69203(16) 0.6583(2)
H13 H 0.5411 0.6676 0.6700
C15 C 0.51841(11) 0.74284(16) 0.68976(19)
C16 C 0.47831(11) 0.77731(14) 0.67043(18)
H14 H 0.4801 0.8127 0.6908
C17 C 0.43525(10) 0.76203(12) 0.62207(16)
C18 C 0.39942(11) 0.80764(12) 0.59893(18)
H15 H 0.4016 0.8351 0.6429
H16 H 0.3637 0.7946 0.5946
H17 H 0.4099 0.8227 0.5444
C19 C 0.56584(13) 0.7614(2) 0.7383(2)
H18 H 0.5578 0.7944 0.7684
H19 H 0.5942 0.7678 0.6986
H20 H 0.5763 0.7341 0.7793
C20 C 0.47716(13) 0.61904(14) 0.5758(3)
H21 H 0.5140 0.6099 0.5729
H22 H 0.4617 0.6170 0.5190
H23 H 0.4595 0.5941 0.6135
C21 C 0.36890(10) 0.63196(11) 0.49872(18)
C22 C 0.36183(11) 0.59097(12) 0.5601(2)
C23 C 0.35359(13) 0.53866(13) 0.5369(3)
H24 H 0.3500 0.5127 0.5801
C24 C 0.35038(14) 0.52287(13) 0.4527(3)
C25 C 0.35516(12) 0.56207(13) 0.3922(2)
H25 H 0.3525 0.5525 0.3340
C26 C 0.36379(11) 0.61565(11) 0.41296(19)
C27 C 0.36667(12) 0.65203(13) 0.33685(18)
H26 H 0.3565 0.6324 0.2857
H27 H 0.4022 0.6651 0.3308
H28 H 0.3431 0.6821 0.3448
C28 C 0.36205(13) 0.60100(13) 0.6550(2)
H29 H 0.3759 0.5698 0.6845
H30 H 0.3266 0.6078 0.6739
H31 H 0.3838 0.6319 0.6678
C29 C 0.3421(2) 0.46516(15) 0.4286(3)
H32 H 0.3175 0.4489 0.4678
H33 H 0.3752 0.4462 0.4319
H34 H 0.3283 0.4631 0.3707
C30 C 0.18725(10) 0.68761(11) 0.75397(16)
C31 C 0.17082(11) 0.63567(11) 0.75806(18)
H35 H 0.1833 0.6112 0.7172
C32 C 0.13649(11) 0.61744(12) 0.82004(19)
H36 H 0.1248 0.5817 0.8193
C33 C 0.12013(11) 0.65146(12) 0.88130(18)
H37 H 0.0989 0.6387 0.9258
C34 C 0.13438(10) 0.70558(12) 0.87938(16)
C35 C 0.11700(11) 0.73988(13) 0.94433(17)
H38 H 0.0964 0.7260 0.9888
C36 C 0.12927(11) 0.79234(14) 0.94411(18)
H39 H 0.1189 0.8146 0.9895
C37 C 0.15750(11) 0.81333(12) 0.87597(17)
H40 H 0.1648 0.8503 0.8751
C38 C 0.17500(10) 0.78193(11) 0.81002(16)
C39 C 0.16633(10) 0.72561(11) 0.81292(16)
C40 C 0.19744(10) 0.81109(10) 0.73682(16)
C41 C 0.17863(10) 0.80357(11) 0.65431(16)
H41 H 0.1531 0.7772 0.6436
C42 C 0.19680(10) 0.83415(10) 0.58815(17)
H42 H 0.1836 0.8283 0.5325
C43 C 0.23414(11) 0.87346(10) 0.60159(18)
C44 C 0.25361(11) 0.88024(11) 0.68320(18)
H43 H 0.2796 0.9062 0.6937
C45 C 0.23543(11) 0.84944(11) 0.74967(18)
H44 H 0.2492 0.8547 0.8051
C46 C 0.20058(12) 0.95971(11) 0.49800(18)
C47 C 0.15950(12) 0.96428(12) 0.55380(19)
H45 H 0.1589 0.9431 0.6036
C48 C 0.11914(13) 0.99967(13) 0.5375(2)
H46 H 0.0915 1.0029 0.5766
C49 C 0.11927(14) 1.03001(13) 0.4647(2)
H47 H 0.0914 1.0536 0.4531
C50 C 0.15974(16) 1.02601(13) 0.4089(2)
H48 H 0.1602 1.0475 0.3594
C51 C 0.19958(14) 0.99097(12) 0.4247(2)
H49 H 0.2269 0.9880 0.3851
C52 C 0.30637(13) 0.95182(12) 0.5542(2)
C53 C 0.29886(15) 0.99334(13) 0.6107(3)
H50 H 0.2647 1.0054 0.6213
C54 C 0.34024(19) 1.01750(15) 0.6519(3)
H51 H 0.3345 1.0456 0.6909
C55 C 0.3893(2) 1.0004(2) 0.6354(5)
H52 H 0.4181 1.0159 0.6641
C56 C 0.3972(2) 0.9601(3) 0.5767(5)
H53 H 0.4314 0.9490 0.5639
C57 C 0.35631(16) 0.93649(18) 0.5375(3)
H54 H 0.3623 0.9089 0.4977
P2 P 0.91936(3) 0.94026(3) 0.79504(4)
B2 B 0.79656(11) 0.72048(11) 0.77714(17)
N3 N 0.75477(8) 0.77769(9) 0.65287(13)
N4 N 0.83533(8) 0.79698(8) 0.66986(13)
C58 C 0.79723(10) 0.76408(10) 0.69920(15)
C59 C 0.76599(11) 0.81788(11) 0.59609(17)
H55 H 0.7426 0.8339 0.5569
C60 C 0.81585(11) 0.82969(11) 0.60711(16)
H56 H 0.8347 0.8560 0.5771
C61 C 0.70369(10) 0.75283(13) 0.65613(18)
H57 H 0.7077 0.7147 0.6664
H58 H 0.6855 0.7584 0.6021
H59 H 0.6836 0.7687 0.7021
C62 C 0.88902(10) 0.80064(11) 0.69836(17)
H60 H 0.8901 0.8057 0.7600
H61 H 0.9058 0.8308 0.6706
H62 H 0.9073 0.7679 0.6837
C63 C 0.84989(10) 0.72297(10) 0.83619(15)
C64 C 0.85124(9) 0.74160(10) 0.91960(15)
H63 H 0.8216 0.7594 0.9407
C65 C 0.89343(9) 0.73550(10) 0.97284(15)
H64 H 0.8920 0.7492 1.0289
C66 C 0.93817(9) 0.70956(10) 0.94604(15)
C67 C 0.93886(10) 0.69203(10) 0.86194(15)
H65 H 0.9692 0.6756 0.8405
C68 C 0.89611(10) 0.69833(10) 0.80954(15)
H66 H 0.8979 0.6855 0.7530
C69 C 0.79728(9) 0.65726(10) 0.74177(15)
C70 C 0.80020(10) 0.61587(10) 0.80299(16)
C71 C 0.80217(11) 0.56287(11) 0.77912(17)
H67 H 0.8050 0.5367 0.8222
C72 C 0.80019(12) 0.54659(11) 0.69556(17)
C73 C 0.79961(11) 0.58608(11) 0.63522(17)
H68 H 0.7994 0.5763 0.5770
C74 C 0.79930(10) 0.63996(10) 0.65610(15)
C75 C 0.80306(11) 0.67650(11) 0.58024(16)
H69 H 0.8143 0.6562 0.5307
H70 H 0.8283 0.7046 0.5923
H71 H 0.7691 0.6924 0.5686
C76 C 0.79941(16) 0.48834(12) 0.6721(2)
H72 H 0.8124 0.4839 0.6143
H73 H 0.7638 0.4749 0.6750
H74 H 0.8215 0.4684 0.7117
C77 C 0.80206(11) 0.62535(11) 0.89782(16)
H75 H 0.7867 0.5949 0.9272
H76 H 0.7825 0.6575 0.9114
H77 H 0.8382 0.6297 0.9163
C78 C 0.74470(10) 0.74069(10) 0.83326(15)
C79 C 0.74357(10) 0.79417(11) 0.86317(15)
C80 C 0.70321(10) 0.81342(11) 0.91282(16)
H78 H 0.7046 0.8491 0.9321
C81 C 0.66122(11) 0.78227(12) 0.93493(17)
C82 C 0.66047(11) 0.73104(12) 0.90383(17)
H79 H 0.6320 0.7089 0.9175
C83 C 0.69985(10) 0.71024(11) 0.85302(16)
C84 C 0.68798(11) 0.65562(12) 0.81937(19)
H80 H 0.6503 0.6507 0.8158
H81 H 0.7029 0.6289 0.8576
H82 H 0.7030 0.6516 0.7628
C85 C 0.78349(10) 0.83573(10) 0.84068(16)
H83 H 0.7828 0.8643 0.8828
H84 H 0.7756 0.8503 0.7844
H85 H 0.8180 0.8195 0.8403
C86 C 0.61725(12) 0.80373(14) 0.9880(2)
H86 H 0.6003 0.7744 1.0176
H87 H 0.5920 0.8217 0.9511
H88 H 0.6310 0.8290 1.0296
C87 C 0.97935(9) 0.69496(10) 1.00782(15)
C88 C 0.99259(10) 0.64197(11) 1.01057(17)
H89 H 0.9793 0.6191 0.9677
C89 C 1.02483(11) 0.62026(12) 1.07404(19)
H90 H 1.0340 0.5838 1.0727
C90 C 1.04268(11) 0.65203(12) 1.13700(18)
H91 H 1.0632 0.6372 1.1813
C91 C 1.03132(10) 0.70682(11) 1.13802(16)
C92 C 1.05012(10) 0.73846(12) 1.20572(17)
H92 H 1.0689 0.7223 1.2509
C93 C 1.04172(11) 0.79165(12) 1.20712(17)
H93 H 1.0539 0.8124 1.2535
C94 C 1.01488(10) 0.81568(11) 1.13933(16)
H94 H 1.0099 0.8530 1.1404
C95 C 0.99555(9) 0.78723(10) 1.07141(15)
C96 C 1.00145(9) 0.73040(10) 1.07035(15)
C97 C 0.97290(10) 0.82026(10) 1.00200(16)
C98 C 0.99076(10) 0.81795(10) 0.91883(16)
H95 H 1.0152 0.7915 0.9035
C99 C 0.97343(10) 0.85350(10) 0.85852(16)
H96 H 0.9859 0.8509 0.8022
C100 C 0.93764(10) 0.89358(10) 0.87864(16)
C101 C 0.91843(11) 0.89449(10) 0.96104(17)
H97 H 0.8929 0.9200 0.9759
C102 C 0.93598(10) 0.85883(10) 1.02127(16)
H98 H 0.9226 0.8606 1.0771
C103 C 0.87381(12) 0.98362(11) 0.85021(18)
C104 C 0.88796(14) 1.02343(12) 0.9068(2)
H99 H 0.9236 1.0310 0.9167
C105 C 0.84981(17) 1.05242(13) 0.9491(2)
H100 H 0.8597 1.0796 0.9877
C106 C 0.79807(16) 1.04178(15) 0.9353(3)
H101 H 0.7725 1.0613 0.9650
C107 C 0.78346(15) 1.00325(15) 0.8790(3)
H102 H 0.7477 0.9962 0.8691
C108 C 0.82090(13) 0.97455(13) 0.8362(2)
H103 H 0.8104 0.9482 0.7966
C109 C 0.97704(11) 0.98244(11) 0.79031(17)
C110 C 1.01643(12) 0.98367(12) 0.85117(19)
H104 H 1.0147 0.9607 0.8988
C111 C 1.05839(14) 1.01811(13) 0.8431(2)
H105 H 1.0851 1.0184 0.8850
C112 C 1.06112(14) 1.05203(13) 0.7738(2)
H106 H 1.0895 1.0757 0.7682
C113 C 1.02246(14) 1.05103(12) 0.7138(2)
H107 H 1.0241 1.0745 0.6668
C114 C 0.98113(13) 1.01636(11) 0.72060(19)
H108 H 0.9552 1.0156 0.6774
C115 C 0.5445(3) 0.8530(3) 0.4911(4)
H109 H 0.5823 0.8531 0.5022
H110 H 0.5284 0.8271 0.5299
C116 C 0.5229(3) 0.9073(4) 0.5080(5)
H111 H 0.5508 0.9330 0.5213
H112 H 0.4979 0.9066 0.5553
C117 C 0.4961(3) 0.9205(3) 0.4239(5)
H113 H 0.4584 0.9133 0.4268
H114 H 0.5013 0.9582 0.4087
C118 C 0.5214(3) 0.8847(3) 0.3611(5)
H115 H 0.4973 0.8766 0.3136
H116 H 0.5528 0.9018 0.3378
O1 O 0.53487(17) 0.8374(2) 0.4057(3)
C119 C 0.6571(3) 0.8918(2) 0.7123(4)
H117 H 0.6854 0.8696 0.7359
H118 H 0.6242 0.8807 0.7390
C120 C 0.6676(3) 0.9497(3) 0.7324(5)
H119 H 0.6458 0.9624 0.7796
H120 H 0.7046 0.9557 0.7469
C121 C 0.6530(3) 0.9763(3) 0.6502(6)
H121 H 0.6158 0.9857 0.6486
H122 H 0.6739 1.0087 0.6408
C122 C 0.6655(3) 0.9342(3) 0.5866(5)
H123 H 0.6448 0.9398 0.5342
H124 H 0.7027 0.9357 0.5720
O2 O 0.65357(16) 0.88409(16) 0.6220(3)
C123 C 0.5046(5) 0.9149(5) 0.7788(8)
H125 H 0.4681 0.9064 0.7923
H126 H 0.5178 0.8857 0.7428
C124 C 0.5315(4) 0.9149(3) 0.8503(7)
H127 H 0.5693 0.9139 0.8408
H128 H 0.5212 0.8858 0.8888
C125 C 0.5049(3) 0.9619(5) 0.7303(5)
H129 H 0.4756 0.9640 0.6896
H130 H 0.5382 0.9677 0.7007
C126 C 0.4987(4) 0.9958(3) 0.8010(5)
H131 H 0.4622 1.0079 0.8025
H132 H 0.5207 1.0276 0.7930
O3 O 0.5117(3) 0.9722(2) 0.8822(4)
loop_
_geom_bond_atom_site_label_1
_geom_bond_atom_site_label_2
_geom_bond_site_symmetry_1
_geom_bond_site_symmetry_2
P1 C43 1_555 1_555
B1 C1 1_555 1_555
N1 C1 1_555 1_555
N2 C1 1_555 1_555
C2 N2 1_555 1_555
H1 C2 1_555 1_555
C3 N1 1_555 1_555
H2 C3 1_555 1_555
C4 N1 1_555 1_555
H3 C4 1_555 1_555
H4 C4 1_555 1_555
H5 C4 1_555 1_555
C5 N2 1_555 1_555
H6 C5 1_555 1_555
H7 C5 1_555 1_555
H8 C5 1_555 1_555
C6 B1 1_555 1_555
C7 C6 1_555 1_555
H9 C7 1_555 1_555
C8 C7 1_555 1_555
H10 C8 1_555 1_555
C9 C8 1_555 1_555
C10 C9 1_555 1_555
H11 C10 1_555 1_555
C11 C6 1_555 1_555
H12 C11 1_555 1_555
C12 B1 1_555 1_555
C13 C12 1_555 1_555
C14 C13 1_555 1_555
H13 C14 1_555 1_555
C15 C14 1_555 1_555
C16 C15 1_555 1_555
H14 C16 1_555 1_555
C17 C12 1_555 1_555
C18 C17 1_555 1_555
H15 C18 1_555 1_555
H16 C18 1_555 1_555
H17 C18 1_555 1_555
C19 C15 1_555 1_555
H18 C19 1_555 1_555
H19 C19 1_555 1_555
H20 C19 1_555 1_555
C20 C13 1_555 1_555
H21 C20 1_555 1_555
H22 C20 1_555 1_555
H23 C20 1_555 1_555
C21 B1 1_555 1_555
C22 C21 1_555 1_555
C23 C22 1_555 1_555
H24 C23 1_555 1_555
C24 C23 1_555 1_555
C25 C24 1_555 1_555
H25 C25 1_555 1_555
C26 C21 1_555 1_555
C27 C26 1_555 1_555
H26 C27 1_555 1_555
H27 C27 1_555 1_555
H28 C27 1_555 1_555
C28 C22 1_555 1_555
H29 C28 1_555 1_555
H30 C28 1_555 1_555
H31 C28 1_555 1_555
C29 C24 1_555 1_555
H32 C29 1_555 1_555
H33 C29 1_555 1_555
H34 C29 1_555 1_555
C30 C9 1_555 1_555
C31 C30 1_555 1_555
H35 C31 1_555 1_555
C32 C31 1_555 1_555
H36 C32 1_555 1_555
C33 C32 1_555 1_555
H37 C33 1_555 1_555
C34 C33 1_555 1_555
C35 C34 1_555 1_555
H38 C35 1_555 1_555
C36 C35 1_555 1_555
H39 C36 1_555 1_555
C37 C36 1_555 1_555
H40 C37 1_555 1_555
C38 C37 1_555 1_555
C39 C30 1_555 1_555
C40 C38 1_555 1_555
C41 C40 1_555 1_555
H41 C41 1_555 1_555
C42 C41 1_555 1_555
H42 C42 1_555 1_555
C43 C42 1_555 1_555
C44 C43 1_555 1_555
H43 C44 1_555 1_555
C45 C40 1_555 1_555
H44 C45 1_555 1_555
C46 P1 1_555 1_555
C47 C46 1_555 1_555
H45 C47 1_555 1_555
C48 C47 1_555 1_555
H46 C48 1_555 1_555
C49 C48 1_555 1_555
H47 C49 1_555 1_555
C50 C49 1_555 1_555
H48 C50 1_555 1_555
C51 C46 1_555 1_555
H49 C51 1_555 1_555
C52 P1 1_555 1_555
C53 C52 1_555 1_555
H50 C53 1_555 1_555
C54 C53 1_555 1_555
H51 C54 1_555 1_555
C55 C54 1_555 1_555
H52 C55 1_555 1_555
C56 C55 1_555 1_555
H53 C56 1_555 1_555
C57 C52 1_555 1_555
H54 C57 1_555 1_555
P2 C100 1_555 1_555
B2 C58 1_555 1_555
N3 C58 1_555 1_555
N4 C58 1_555 1_555
C59 N3 1_555 1_555
H55 C59 1_555 1_555
C60 N4 1_555 1_555
H56 C60 1_555 1_555
C61 N3 1_555 1_555
H57 C61 1_555 1_555
H58 C61 1_555 1_555
H59 C61 1_555 1_555
C62 N4 1_555 1_555
H60 C62 1_555 1_555
H61 C62 1_555 1_555
H62 C62 1_555 1_555
C63 B2 1_555 1_555
C64 C63 1_555 1_555
H63 C64 1_555 1_555
C65 C64 1_555 1_555
H64 C65 1_555 1_555
C66 C65 1_555 1_555
C67 C66 1_555 1_555
H65 C67 1_555 1_555
C68 C63 1_555 1_555
H66 C68 1_555 1_555
C69 B2 1_555 1_555
C70 C69 1_555 1_555
C71 C70 1_555 1_555
H67 C71 1_555 1_555
C72 C71 1_555 1_555
C73 C72 1_555 1_555
H68 C73 1_555 1_555
C74 C69 1_555 1_555
C75 C74 1_555 1_555
H69 C75 1_555 1_555
H70 C75 1_555 1_555
H71 C75 1_555 1_555
C76 C72 1_555 1_555
H72 C76 1_555 1_555
H73 C76 1_555 1_555
H74 C76 1_555 1_555
C77 C70 1_555 1_555
H75 C77 1_555 1_555
H76 C77 1_555 1_555
H77 C77 1_555 1_555
C78 B2 1_555 1_555
C79 C78 1_555 1_555
C80 C79 1_555 1_555
H78 C80 1_555 1_555
C81 C80 1_555 1_555
C82 C81 1_555 1_555
H79 C82 1_555 1_555
C83 C78 1_555 1_555
C84 C83 1_555 1_555
H80 C84 1_555 1_555
H81 C84 1_555 1_555
H82 C84 1_555 1_555
C85 C79 1_555 1_555
H83 C85 1_555 1_555
H84 C85 1_555 1_555
H85 C85 1_555 1_555
C86 C81 1_555 1_555
H86 C86 1_555 1_555
H87 C86 1_555 1_555
H88 C86 1_555 1_555
C87 C66 1_555 1_555
C88 C87 1_555 1_555
H89 C88 1_555 1_555
C89 C88 1_555 1_555
H90 C89 1_555 1_555
C90 C89 1_555 1_555
H91 C90 1_555 1_555
C91 C90 1_555 1_555
C92 C91 1_555 1_555
H92 C92 1_555 1_555
C93 C92 1_555 1_555
H93 C93 1_555 1_555
C94 C93 1_555 1_555
H94 C94 1_555 1_555
C95 C94 1_555 1_555
C96 C87 1_555 1_555
C97 C95 1_555 1_555
C98 C97 1_555 1_555
H95 C98 1_555 1_555
C99 C98 1_555 1_555
H96 C99 1_555 1_555
C100 C99 1_555 1_555
C101 C100 1_555 1_555
H97 C101 1_555 1_555
C102 C97 1_555 1_555
H98 C102 1_555 1_555
C103 P2 1_555 1_555
C104 C103 1_555 1_555
H99 C104 1_555 1_555
C105 C104 1_555 1_555
H100 C105 1_555 1_555
C106 C105 1_555 1_555
H101 C106 1_555 1_555
C107 C106 1_555 1_555
H102 C107 1_555 1_555
C108 C103 1_555 1_555
H103 C108 1_555 1_555
C109 P2 1_555 1_555
C110 C109 1_555 1_555
H104 C110 1_555 1_555
C111 C110 1_555 1_555
H105 C111 1_555 1_555
C112 C111 1_555 1_555
H106 C112 1_555 1_555
C113 C112 1_555 1_555
H107 C113 1_555 1_555
C114 C109 1_555 1_555
H108 C114 1_555 1_555
C115 H109 1_555 1_555
H110 C115 1_555 1_555
C116 C115 1_555 1_555
H111 C116 1_555 1_555
H112 C116 1_555 1_555
C117 C116 1_555 1_555
H113 C117 1_555 1_555
H114 C117 1_555 1_555
C118 C117 1_555 1_555
H115 C118 1_555 1_555
H116 C118 1_555 1_555
O1 C115 1_555 1_555
C119 H117 1_555 1_555
H118 C119 1_555 1_555
C120 C119 1_555 1_555
H119 C120 1_555 1_555
H120 C120 1_555 1_555
C121 C120 1_555 1_555
H121 C121 1_555 1_555
H122 C121 1_555 1_555
C122 C121 1_555 1_555
H123 C122 1_555 1_555
H124 C122 1_555 1_555
O2 C119 1_555 1_555
C123 H125 1_555 1_555
H126 C123 1_555 1_555
C124 C123 1_555 1_555
H127 C124 1_555 1_555
H128 C124 1_555 1_555
C125 C123 1_555 1_555
H129 C125 1_555 1_555
H130 C125 1_555 1_555
C126 C125 1_555 1_555
H131 C126 1_555 1_555
H132 C126 1_555 1_555
O3 C124 1_555 1_555
C2 C3 1_555 1_555
C10 C11 1_555 1_555
C16 C17 1_555 1_555
C25 C26 1_555 1_555
C34 C39 1_555 1_555
C38 C39 1_555 1_555
C44 C45 1_555 1_555
C50 C51 1_555 1_555
C56 C57 1_555 1_555
C59 C60 1_555 1_555
C67 C68 1_555 1_555
C73 C74 1_555 1_555
C82 C83 1_555 1_555
C91 C96 1_555 1_555
C95 C96 1_555 1_555
C101 C102 1_555 1_555
C107 C108 1_555 1_555
C113 C114 1_555 1_555
C118 O1 1_555 1_555
C122 O2 1_555 1_555
C126 O3 1_555 1_555

#END
