
#######################################################################
#
#                 Cambridge Crystallographic Data Centre
#                                CCDC 
#
#######################################################################
#
# If this CIF has been generated from an entry in the Cambridge 
# Structural Database, then it will include bibliographic, chemical, 
# crystal, experimental, refinement or atomic coordinate data resulting 
# from the CCDC's data processing and validation procedures.
#
#######################################################################

data_MAKVUS
_chemical_formula_moiety         'C18 H15 Cl1 N2 O2'
_chemical_name_systematic        
2-(2-chlorophenyl)-6-methyl-1,11b-dihydropyrazolo[1,5-d][1,4]benzoxazepin-5(6H)-one
_chemical_properties_biological  'hMAO-B inhibitor activity'
_symmetry_cell_setting           triclinic
_symmetry_space_group_name_H-M   'P -1'
_symmetry_Int_Tables_number      2
_space_group_name_Hall           '-P 1'
loop_
_symmetry_equiv_pos_site_id
_symmetry_equiv_pos_as_xyz
1 x,y,z
2 -x,-y,-z
_cell_length_a                   5.1296(2)
_cell_length_b                   9.5222(5)
_cell_length_c                   16.1436(8)
_cell_angle_alpha                79.376(4)
_cell_angle_beta                 87.744(4)
_cell_angle_gamma                88.468(4)
_cell_volume                     774.265
_exptl_crystal_colour            colorless
_exptl_crystal_description       plate
_cell_formula_units_Z            2
loop_
_atom_site_label
_atom_site_type_symbol
_atom_site_fract_x
_atom_site_fract_y
_atom_site_fract_z
Cl1 Cl 0.23497(7) 0.09032(4) 0.94532(2)
O1 O 0.4290(3) 0.16215(15) 1.38892(7)
O2 O 0.7602(2) 0.41633(13) 1.26808(7)
N1 N 0.6134(2) 0.30563(13) 1.13324(7)
N2 N 0.4905(2) 0.27465(14) 1.21252(7)
C1 C 0.4741(3) 0.21939(15) 0.92691(9)
C2 C 0.5740(3) 0.25380(18) 0.84428(10)
H1 H 0.5092 0.2100 0.8026
C3 C 0.7682(3) 0.35235(18) 0.82430(10)
H2 H 0.8349 0.3749 0.7692
C4 C 0.8645(3) 0.41782(16) 0.88571(10)
H3 H 0.9973 0.4836 0.8725
C5 C 0.7617(3) 0.38469(16) 0.96705(9)
H4 H 0.8242 0.4315 1.0077
C6 C 0.5669(3) 0.28328(14) 0.99075(9)
C7 C 0.4784(3) 0.25443(14) 1.08074(8)
C8 C 0.2464(3) 0.17189(16) 1.12105(9)
H5 H 0.2739 0.0700 1.1235
H6 H 0.0892 0.2026 1.0908
C9 C 0.2309(3) 0.20896(16) 1.20975(9)
H7 H 0.0949 0.2828 1.2113
C10 C 0.1734(3) 0.08414(17) 1.28052(9)
C11 C 0.0036(3) -0.0198(2) 1.26588(11)
H8 H -0.0716 -0.0086 1.2135
C12 C -0.0574(4) -0.1381(2) 1.32561(12)
H9 H -0.1729 -0.2049 1.3138
C13 C 0.0551(5) -0.1568(2) 1.40345(13)
H10 H 0.0207 -0.2381 1.4436
C14 C 0.2174(4) -0.0550(2) 1.42117(12)
H11 H 0.2921 -0.0674 1.4737
C15 C 0.2714(3) 0.0660(2) 1.36172(10)
C16 C 0.3946(4) 0.3110(2) 1.35386(10)
H12 H 0.2115 0.3321 1.3403
C17 C 0.5678(3) 0.34273(16) 1.27381(9)
C18 C 0.4755(5) 0.3964(3) 1.41853(13)
H13 H 0.3692 0.3712 1.4691
H14 H 0.4533 0.4965 1.3965
H15 H 0.6554 0.3756 1.4310
loop_
_geom_bond_atom_site_label_1
_geom_bond_atom_site_label_2
_geom_bond_site_symmetry_1
_geom_bond_site_symmetry_2
Cl1 C1 1_555 1_555
O1 C15 1_555 1_555
O2 C17 1_555 1_555
N1 N2 1_555 1_555
N2 C9 1_555 1_555
C1 C2 1_555 1_555
C2 H1 1_555 1_555
C3 C2 1_555 1_555
H2 C3 1_555 1_555
C4 C3 1_555 1_555
H3 C4 1_555 1_555
C5 C4 1_555 1_555
H4 C5 1_555 1_555
C6 C1 1_555 1_555
C7 N1 1_555 1_555
C8 C7 1_555 1_555
H5 C8 1_555 1_555
H6 C8 1_555 1_555
C9 C8 1_555 1_555
H7 C9 1_555 1_555
C10 C9 1_555 1_555
C11 C10 1_555 1_555
H8 C11 1_555 1_555
C12 C11 1_555 1_555
H9 C12 1_555 1_555
C13 C12 1_555 1_555
H10 C13 1_555 1_555
C14 C13 1_555 1_555
H11 C14 1_555 1_555
C15 C10 1_555 1_555
C16 O1 1_555 1_555
H12 C16 1_555 1_555
C17 N2 1_555 1_555
C18 C16 1_555 1_555
H13 C18 1_555 1_555
H14 C18 1_555 1_555
H15 C18 1_555 1_555
C5 C6 1_555 1_555
C6 C7 1_555 1_555
C14 C15 1_555 1_555
C16 C17 1_555 1_555

#END
