
#######################################################################
#
#                 Cambridge Crystallographic Data Centre
#                                CCDC 
#
#######################################################################
#
# If this CIF has been generated from an entry in the Cambridge 
# Structural Database, then it will include bibliographic, chemical, 
# crystal, experimental, refinement or atomic coordinate data resulting 
# from the CCDC's data processing and validation procedures.
#
#######################################################################

data_MALFOW
_chemical_formula_moiety         'C17 H21 N5 2+,2(Br1 1-)'
_chemical_name_systematic        
'1(2,6)-pyridina-3,8(1,3)-diimidazolacyclononaphane-3^3^,8^1^-diium dibromide'
_symmetry_cell_setting           monoclinic
_symmetry_space_group_name_H-M   'P 21/c'
_symmetry_Int_Tables_number      14
_space_group_name_Hall           '-P 2ybc'
loop_
_symmetry_equiv_pos_site_id
_symmetry_equiv_pos_as_xyz
1 x,y,z
2 -x,1/2+y,1/2-z
3 -x,-y,-z
4 x,1/2-y,1/2+z
_cell_length_a                   9.6025(4)
_cell_length_b                   12.1913(5)
_cell_length_c                   15.8026(6)
_cell_angle_alpha                90
_cell_angle_beta                 96.543(3)
_cell_angle_gamma                90
_cell_volume                     1837.91
_exptl_crystal_colour            colorless
_exptl_crystal_description       block
_cell_formula_units_Z            4
loop_
_atom_site_label
_atom_site_type_symbol
_atom_site_fract_x
_atom_site_fract_y
_atom_site_fract_z
Br1 Br 0.56242(3) 0.68927(3) 0.03784(2)
Br2 Br 0.96531(4) 0.68745(3) 0.30267(2)
C1 C 0.6106(3) 0.1697(2) 0.80435(18)
H1 H 0.5851 0.2127 0.8503
C2 C 0.6304(3) 0.1081(3) 0.67536(18)
H2 H 0.6203 0.1017 0.6151
C3 C 0.7022(3) 0.0393(3) 0.73123(18)
H3 H 0.7526 -0.0243 0.7180
C4 C 0.7475(3) 0.0301(3) 0.89306(18)
H4 H 0.8057 -0.0340 0.8815
H5 H 0.6702 0.0038 0.9243
C5 C 0.8362(3) 0.1116(3) 0.94800(18)
H6 H 0.7785 0.1766 0.9579
H7 H 0.8668 0.0777 1.0040
C6 C 0.9643(3) 0.1480(3) 0.90746(19)
H8 H 0.9345 0.1722 0.8484
H9 H 1.0281 0.0846 0.9048
C7 C 1.0438(3) 0.2410(2) 0.95570(19)
H10 H 1.0744 0.2177 1.0149
H11 H 1.1283 0.2594 0.9280
C8 C 0.9089(3) 0.3986(2) 0.88837(18)
H12 H 0.9356 0.3885 0.8328
C9 C 0.8895(3) 0.3768(3) 1.02430(18)
H13 H 0.9011 0.3484 1.0807
C10 C 0.8075(3) 0.4628(2) 0.99572(18)
H14 H 0.7511 0.5062 1.0283
C11 C 0.7534(3) 0.5607(2) 0.85591(18)
H15 H 0.8203 0.6215 0.8511
H16 H 0.6724 0.5902 0.8822
C12 C 0.7032(3) 0.5176(2) 0.76773(17)
C13 C 0.7256(3) 0.5782(2) 0.69619(18)
H17 H 0.7748 0.6459 0.7015
C14 C 0.6743(3) 0.5375(2) 0.61671(18)
H18 H 0.6886 0.5767 0.5664
C15 C 0.6019(3) 0.4391(2) 0.61168(18)
H19 H 0.5676 0.4084 0.5581
C16 C 0.5808(3) 0.3863(2) 0.68736(18)
C17 C 0.4921(3) 0.2845(3) 0.6868(2)
H20 H 0.4135 0.2975 0.7209
H21 H 0.4520 0.2682 0.6276
N1 N 0.5744(3) 0.18949(19) 0.72178(15)
N2 N 0.6880(3) 0.07967(19) 0.81131(15)
N3 N 0.9525(2) 0.3386(2) 0.95631(15)
N4 N 0.8217(2) 0.47496(19) 0.91089(15)
N5 N 0.6315(2) 0.4232(2) 0.76398(15)
loop_
_geom_bond_atom_site_label_1
_geom_bond_atom_site_label_2
_geom_bond_site_symmetry_1
_geom_bond_site_symmetry_2
C1 H1 1_555 1_555
C2 H2 1_555 1_555
C3 C2 1_555 1_555
H3 C3 1_555 1_555
C4 H4 1_555 1_555
H5 C4 1_555 1_555
C5 C4 1_555 1_555
H6 C5 1_555 1_555
H7 C5 1_555 1_555
C6 C5 1_555 1_555
H8 C6 1_555 1_555
H9 C6 1_555 1_555
C7 C6 1_555 1_555
H10 C7 1_555 1_555
H11 C7 1_555 1_555
C8 H12 1_555 1_555
C9 H13 1_555 1_555
C10 C9 1_555 1_555
H14 C10 1_555 1_555
C11 H15 1_555 1_555
H16 C11 1_555 1_555
C12 C11 1_555 1_555
C13 C12 1_555 1_555
H17 C13 1_555 1_555
C14 C13 1_555 1_555
H18 C14 1_555 1_555
C15 C14 1_555 1_555
H19 C15 1_555 1_555
C16 C15 1_555 1_555
C17 C16 1_555 1_555
H20 C17 1_555 1_555
H21 C17 1_555 1_555
N1 C1 1_555 1_555
N2 C1 1_555 1_555
N3 C7 1_555 1_555
N4 C8 1_555 1_555
N5 C12 1_555 1_555
C2 N1 1_555 1_555
C3 N2 1_555 1_555
C4 N2 1_555 1_555
C8 N3 1_555 1_555
C9 N3 1_555 1_555
C10 N4 1_555 1_555
C11 N4 1_555 1_555
C16 N5 1_555 1_555
C17 N1 1_555 1_555

#END
