
#######################################################################
#
#                 Cambridge Crystallographic Data Centre
#                                CCDC 
#
#######################################################################
#
# If this CIF has been generated from an entry in the Cambridge 
# Structural Database, then it will include bibliographic, chemical, 
# crystal, experimental, refinement or atomic coordinate data resulting 
# from the CCDC's data processing and validation procedures.
#
#######################################################################

data_MAMPIC
_chemical_formula_moiety         'C23 H23 N1 O2 S1'
_chemical_name_systematic        
2-(cyclohex-1-en-1-yl)-1-((4-methylphenyl)sulfonyl)-4-phenyl-1H-pyrrole
_symmetry_cell_setting           monoclinic
_symmetry_space_group_name_H-M   'P 21/c'
_symmetry_Int_Tables_number      14
_space_group_name_Hall           '-P 2ybc'
loop_
_symmetry_equiv_pos_site_id
_symmetry_equiv_pos_as_xyz
1 x,y,z
2 -x,1/2+y,1/2-z
3 -x,-y,-z
4 x,1/2-y,1/2+z
_cell_length_a                   11.7341(10)
_cell_length_b                   11.2858(10)
_cell_length_c                   15.4547(13)
_cell_angle_alpha                90
_cell_angle_beta                 106.6640(10)
_cell_angle_gamma                90
_cell_volume                     1960.69
_cell_formula_units_Z            4
loop_
_atom_site_label
_atom_site_type_symbol
_atom_site_fract_x
_atom_site_fract_y
_atom_site_fract_z
S1 S 0.54002(9) 0.81704(10) 0.24666(7)
O1 O 0.4553(3) 0.7293(3) 0.2003(2)
N1 N 0.6587(3) 0.7393(3) 0.3066(2)
O2 O 0.5087(3) 0.8976(3) 0.3069(2)
C1 C 0.8065(4) 0.6107(4) 0.3149(3)
C2 C 0.5905(4) 0.8968(4) 0.1674(3)
C3 C 0.6543(4) 1.0810(4) 0.1175(3)
C4 C 0.8146(4) 0.3927(4) 0.2791(3)
C5 C 0.6391(4) 0.9037(4) 0.0276(3)
C6 C 0.5997(4) 0.8390(4) 0.0908(3)
C7 C 0.6162(4) 1.0173(4) 0.1818(3)
C8 C 0.8724(4) 0.5016(4) 0.3059(3)
C9 C 0.7685(4) 0.9027(4) 0.4155(3)
C10 C 0.7632(4) 0.7895(4) 0.3656(3)
C11 C 0.8780(4) 0.2908(4) 0.2743(3)
C12 C 0.6880(4) 0.6320(4) 0.2743(3)
C13 C 0.6675(4) 1.0229(4) 0.0402(3)
C14 C 1.0026(4) 0.2952(5) 0.2948(3)
C15 C 0.9972(5) 0.5055(5) 0.3250(3)
C16 C 0.8504(4) 0.7093(4) 0.3712(3)
C17 C 0.8363(4) 0.9902(5) 0.4010(3)
C18 C 0.8266(5) 1.0934(5) 0.5441(4)
C19 C 0.7143(5) 1.0890(5) -0.0272(4)
C20 C 1.0606(5) 0.4025(5) 0.3191(4)
C21 C 0.7060(4) 0.9075(5) 0.4889(3)
C22 C 0.8606(5) 1.1028(5) 0.4563(4)
C23 C 0.7019(5) 1.0360(5) 0.5239(4)
loop_
_geom_bond_atom_site_label_1
_geom_bond_atom_site_label_2
_geom_bond_site_symmetry_1
_geom_bond_site_symmetry_2
S1 O1 1_555 1_555
N1 S1 1_555 1_555
O2 S1 1_555 1_555
C1 C8 1_555 1_555
C2 S1 1_555 1_555
C3 C7 1_555 1_555
C4 C8 1_555 1_555
C5 C6 1_555 1_555
C6 C2 1_555 1_555
C7 C2 1_555 1_555
C8 C15 1_555 1_555
C9 C10 1_555 1_555
C10 N1 1_555 1_555
C11 C4 1_555 1_555
C12 N1 1_555 1_555
C13 C3 1_555 1_555
C14 C11 1_555 1_555
C15 C20 1_555 1_555
C16 C1 1_555 1_555
C17 C9 1_555 1_555
C18 C22 1_555 1_555
C19 C13 1_555 1_555
C20 C14 1_555 1_555
C21 C9 1_555 1_555
C22 C17 1_555 1_555
C23 C18 1_555 1_555
C1 C12 1_555 1_555
C5 C13 1_555 1_555
C10 C16 1_555 1_555
C21 C23 1_555 1_555

#END
