
#######################################################################
#
#                 Cambridge Crystallographic Data Centre
#                                CCDC 
#
#######################################################################
#
# If this CIF has been generated from an entry in the Cambridge 
# Structural Database, then it will include bibliographic, chemical, 
# crystal, experimental, refinement or atomic coordinate data resulting 
# from the CCDC's data processing and validation procedures.
#
#######################################################################

data_MAMRUQ
_chemical_formula_moiety         'C22 H25 B1 F2 N2 O3'
_chemical_name_systematic        
(2-[acetyl(benzyl)amino]-N-t-butyl-3-(hydroxy)-3-phenylprop-2-enamide)-difluoro-boron
_symmetry_cell_setting           monoclinic
_symmetry_space_group_name_H-M   'P 21/n'
_symmetry_Int_Tables_number      14
_space_group_name_Hall           '-P 2yn'
loop_
_symmetry_equiv_pos_site_id
_symmetry_equiv_pos_as_xyz
1 x,y,z
2 1/2-x,1/2+y,1/2-z
3 -x,-y,-z
4 1/2+x,1/2-y,1/2+z
_cell_length_a                   12.6562(4)
_cell_length_b                   12.0396(3)
_cell_length_c                   13.7192(4)
_cell_angle_alpha                90
_cell_angle_beta                 95.020(3)
_cell_angle_gamma                90
_cell_volume                     2082.45
_exptl_crystal_colour            colorless
_exptl_crystal_description       block
_cell_formula_units_Z            4
loop_
_atom_site_label
_atom_site_type_symbol
_atom_site_fract_x
_atom_site_fract_y
_atom_site_fract_z
F1 F 0.31923(8) 0.71901(8) 0.51751(8)
F2 F 0.21804(8) 0.64854(8) 0.63140(8)
O1 O 0.38746(9) 0.71463(9) 0.68036(9)
O2 O 0.36141(9) 0.54574(9) 0.58450(9)
O3 O 0.47178(10) 0.38385(10) 0.97007(9)
N1 N 0.47631(11) 0.71106(12) 0.83002(11)
N2 N 0.48560(11) 0.47908(11) 0.82938(11)
C1 C 0.43205(13) 0.65748(14) 0.75355(13)
C2 C 0.43478(13) 0.53753(14) 0.74753(13)
C3 C 0.40218(12) 0.48700(14) 0.66108(13)
C4 C 0.48287(14) 0.83429(14) 0.84293(13)
C5 C 0.55357(15) 0.85397(15) 0.93743(15)
H1 H 0.5216 0.8189 0.9922
H2 H 0.5608 0.9340 0.9494
H3 H 0.6237 0.8216 0.9313
C6 C 0.53318(15) 0.88773(15) 0.75747(15)
H4 H 0.5988 0.8484 0.7463
H5 H 0.5493 0.9657 0.7727
H6 H 0.4838 0.8834 0.6985
C7 C 0.37153(15) 0.87921(15) 0.85264(15)
H7 H 0.3263 0.8633 0.7926
H8 H 0.3750 0.9597 0.8632
H9 H 0.3418 0.8435 0.9083
C8 C 0.41330(13) 0.36703(14) 0.63892(13)
C9 C 0.39638(13) 0.28301(14) 0.70651(14)
H10 H 0.3795 0.3018 0.7706
C10 C 0.40424(14) 0.17259(15) 0.67975(14)
H11 H 0.3923 0.1159 0.7257
C11 C 0.42923(15) 0.14417(15) 0.58709(15)
H12 H 0.4349 0.0682 0.5696
C12 C 0.44602(15) 0.22671(15) 0.51949(15)
H13 H 0.4633 0.2073 0.4557
C13 C 0.43748(14) 0.33731(15) 0.54528(14)
H14 H 0.4482 0.3936 0.4986
C14 C 0.43003(14) 0.44355(14) 0.90488(14)
C15 C 0.31654(14) 0.48104(16) 0.90440(15)
H15 H 0.2791 0.4333 0.9479
H16 H 0.2820 0.4762 0.8377
H17 H 0.3146 0.5581 0.9273
C16 C 0.59473(13) 0.43604(14) 0.82300(14)
H18 H 0.5904 0.3640 0.7881
H19 H 0.6276 0.4222 0.8901
C17 C 0.66563(13) 0.51303(14) 0.77138(14)
C18 C 0.72022(14) 0.59903(15) 0.82232(14)
H20 H 0.7102 0.6113 0.8893
C19 C 0.78877(15) 0.66647(15) 0.77589(15)
H21 H 0.8259 0.7244 0.8112
C20 C 0.80340(15) 0.64980(15) 0.67808(15)
H22 H 0.8505 0.6962 0.6464
C21 C 0.74905(14) 0.56501(15) 0.62641(15)
H23 H 0.7584 0.5538 0.5592
C22 C 0.68107(14) 0.49684(15) 0.67339(14)
H24 H 0.6447 0.4384 0.6381
B1 B 0.31875(15) 0.65745(16) 0.60106(15)
H25 H 0.5021(15) 0.6679(16) 0.8776(15)
loop_
_geom_bond_atom_site_label_1
_geom_bond_atom_site_label_2
_geom_bond_site_symmetry_1
_geom_bond_site_symmetry_2
F1 B1 1_555 1_555
F2 B1 1_555 1_555
O1 C1 1_555 1_555
O2 C3 1_555 1_555
O3 C14 1_555 1_555
N1 C1 1_555 1_555
N2 C2 1_555 1_555
C1 C2 1_555 1_555
C2 C3 1_555 1_555
C3 C8 1_555 1_555
C4 N1 1_555 1_555
C5 C4 1_555 1_555
H1 C5 1_555 1_555
H2 C5 1_555 1_555
H3 C5 1_555 1_555
C6 C4 1_555 1_555
H4 C6 1_555 1_555
H5 C6 1_555 1_555
H6 C6 1_555 1_555
C7 C4 1_555 1_555
H7 C7 1_555 1_555
H8 C7 1_555 1_555
H9 C7 1_555 1_555
C8 C9 1_555 1_555
C9 H10 1_555 1_555
C10 C9 1_555 1_555
H11 C10 1_555 1_555
C11 C10 1_555 1_555
H12 C11 1_555 1_555
C12 C11 1_555 1_555
H13 C12 1_555 1_555
C13 C8 1_555 1_555
H14 C13 1_555 1_555
C14 N2 1_555 1_555
C15 C14 1_555 1_555
H15 C15 1_555 1_555
H16 C15 1_555 1_555
H17 C15 1_555 1_555
C16 N2 1_555 1_555
H18 C16 1_555 1_555
H19 C16 1_555 1_555
C17 C16 1_555 1_555
C18 C17 1_555 1_555
H20 C18 1_555 1_555
C19 C18 1_555 1_555
H21 C19 1_555 1_555
C20 C19 1_555 1_555
H22 C20 1_555 1_555
C21 C20 1_555 1_555
H23 C21 1_555 1_555
C22 C17 1_555 1_555
H24 C22 1_555 1_555
B1 O1 1_555 1_555
H25 N1 1_555 1_555
O2 B1 1_555 1_555
C12 C13 1_555 1_555
C21 C22 1_555 1_555

#END
