
#######################################################################
#
#                 Cambridge Crystallographic Data Centre
#                                CCDC 
#
#######################################################################
#
# If this CIF has been generated from an entry in the Cambridge 
# Structural Database, then it will include bibliographic, chemical, 
# crystal, experimental, refinement or atomic coordinate data resulting 
# from the CCDC's data processing and validation procedures.
#
#######################################################################

data_MANVEF
_chemical_formula_moiety         'C14 H8 O4,C10 H5 Br1 O2'
_chemical_name_systematic        
'1,8-dihydroxyanthracene-9,10-dione 2-bromonaphthalene-1,4-dione'
_symmetry_cell_setting           monoclinic
_symmetry_space_group_name_H-M   'P 21/c'
_symmetry_Int_Tables_number      14
_space_group_name_Hall           '-P 2ybc'
loop_
_symmetry_equiv_pos_site_id
_symmetry_equiv_pos_as_xyz
1 x,y,z
2 -x,1/2+y,1/2-z
3 -x,-y,-z
4 x,1/2-y,1/2+z
_cell_length_a                   17.55090(12)
_cell_length_b                   4.85939(3)
_cell_length_c                   22.83423(16)
_cell_angle_alpha                90
_cell_angle_beta                 106.7429(7)
_cell_angle_gamma                90
_cell_volume                     1864.9
_exptl_crystal_colour            orange
_exptl_crystal_description       plate
_cell_formula_units_Z            4
loop_
_atom_site_label
_atom_site_type_symbol
_atom_site_fract_x
_atom_site_fract_y
_atom_site_fract_z
Br1 Br 0.03352(2) 0.06602(3) 0.19884(2)
O1 O -0.00432(7) 0.4511(2) 0.08868(6)
O2 O 0.30880(7) 0.4406(2) 0.20139(5)
C1 C 0.06668(9) 0.4618(3) 0.11528(7)
C2 C 0.10318(9) 0.2887(3) 0.17016(7)
C3 C 0.18140(9) 0.2861(3) 0.19828(7)
H1 H 0.2015 0.1702 0.2328
C4 C 0.23713(9) 0.4592(3) 0.17689(7)
C5 C 0.20374(8) 0.6514(3) 0.12522(6)
C6 C 0.25340(9) 0.8282(3) 0.10564(7)
H2 H 0.3089 0.8299 0.1259
C7 C 0.22192(10) 1.0033(4) 0.05623(7)
H3 H 0.2558 1.1259 0.0431
C8 C 0.14060(11) 0.9984(4) 0.02611(8)
H4 H 0.1192 1.1172 -0.0077
C9 C 0.09098(9) 0.8207(3) 0.04535(7)
H5 H 0.0357 0.8171 0.0244
C10 C 0.12158(9) 0.6468(3) 0.09523(7)
O3 O 0.36741(7) -0.0561(2) 0.48553(5)
H6 H 0.4113(8) 0.004(5) 0.4841(10)
O4 O 0.58338(6) 0.5207(3) 0.42739(5)
H7 H 0.5660(13) 0.396(4) 0.4450(9)
O5 O 0.47299(6) 0.2395(2) 0.45660(5)
O6 O 0.24399(6) 0.7932(2) 0.29021(5)
C11 C 0.31370(9) 0.0927(3) 0.44373(7)
C12 C 0.23328(10) 0.0292(3) 0.43377(7)
H8 H 0.2184 -0.1123 0.4570
C13 C 0.17525(9) 0.1711(4) 0.39025(7)
H9 H 0.1208 0.1253 0.3837
C14 C 0.19585(9) 0.3800(4) 0.35607(7)
H10 H 0.1556 0.4771 0.3265
C15 C 0.40221(10) 0.9337(3) 0.30130(7)
H11 H 0.3619 1.0299 0.2716
C16 C 0.48208(11) 0.9953(4) 0.30923(7)
H12 H 0.4960 1.1350 0.2851
C17 C 0.54127(9) 0.8551(3) 0.35188(7)
H13 H 0.5955 0.8990 0.3568
C18 C 0.52207(9) 0.6495(3) 0.38783(7)
C19 C 0.41987(9) 0.3695(3) 0.41798(6)
C20 C 0.29639(9) 0.6680(3) 0.32790(6)
C21 C 0.38191(9) 0.7318(3) 0.33688(7)
C22 C 0.44137(9) 0.5846(3) 0.38098(7)
C23 C 0.33587(8) 0.3038(3) 0.40931(6)
C24 C 0.27558(9) 0.4463(3) 0.36537(7)
loop_
_geom_bond_atom_site_label_1
_geom_bond_atom_site_label_2
_geom_bond_site_symmetry_1
_geom_bond_site_symmetry_2
Br1 C2 1_555 1_555
O1 C1 1_555 1_555
O2 C4 1_555 1_555
C1 C2 1_555 1_555
C2 C3 1_555 1_555
C3 H1 1_555 1_555
C4 C3 1_555 1_555
C5 C4 1_555 1_555
C6 C5 1_555 1_555
H2 C6 1_555 1_555
C7 C6 1_555 1_555
H3 C7 1_555 1_555
C8 C7 1_555 1_555
H4 C8 1_555 1_555
C9 C8 1_555 1_555
H5 C9 1_555 1_555
C10 C1 1_555 1_555
O3 H6 1_555 1_555
O4 H7 1_555 1_555
O5 C19 1_555 1_555
O6 C20 1_555 1_555
C11 O3 1_555 1_555
C12 C11 1_555 1_555
H8 C12 1_555 1_555
C13 C12 1_555 1_555
H9 C13 1_555 1_555
C14 C13 1_555 1_555
H10 C14 1_555 1_555
C15 H11 1_555 1_555
C16 C15 1_555 1_555
H12 C16 1_555 1_555
C17 C16 1_555 1_555
H13 C17 1_555 1_555
C18 O4 1_555 1_555
C19 C22 1_555 1_555
C20 C21 1_555 1_555
C21 C15 1_555 1_555
C22 C18 1_555 1_555
C23 C11 1_555 1_555
C24 C14 1_555 1_555
C5 C10 1_555 1_555
C9 C10 1_555 1_555
C17 C18 1_555 1_555
C19 C23 1_555 1_555
C20 C24 1_555 1_555
C21 C22 1_555 1_555
C23 C24 1_555 1_555

#END
