
#######################################################################
#
#                 Cambridge Crystallographic Data Centre
#                                CCDC 
#
#######################################################################
#
# If this CIF has been generated from an entry in the Cambridge 
# Structural Database, then it will include bibliographic, chemical, 
# crystal, experimental, refinement or atomic coordinate data resulting 
# from the CCDC's data processing and validation procedures.
#
#######################################################################

data_MAPHOD
_chemical_formula_moiety         'C46 H37 B2 F20 O2 P1 S1'
_chemical_name_systematic        
2,2,8,8-tetrakis(pentafluorophenyl)-5-(2,4,6-tri-t-butylphenyl)-2H,6H-10-[1,2,3,6]oxathiaphosphaborinino[2,3-b][1,2,3,6]oxathiaphosphaborinine
_symmetry_cell_setting           triclinic
_symmetry_space_group_name_H-M   'P -1'
_symmetry_Int_Tables_number      2
_space_group_name_Hall           '-P 1'
loop_
_symmetry_equiv_pos_site_id
_symmetry_equiv_pos_as_xyz
1 x,y,z
2 -x,-y,-z
_cell_length_a                   12.6318(6)
_cell_length_b                   14.5000(7)
_cell_length_c                   14.8889(8)
_cell_angle_alpha                62.069(2)
_cell_angle_beta                 76.457(2)
_cell_angle_gamma                70.196(2)
_cell_volume                     2257.54
_exptl_crystal_colour            colorless
_exptl_crystal_description       needle
_cell_formula_units_Z            2
loop_
_atom_site_label
_atom_site_type_symbol
_atom_site_fract_x
_atom_site_fract_y
_atom_site_fract_z
P1 P 0.68820(6) 0.44929(6) 0.75294(6)
S1 S 0.77310(6) 0.55941(6) 0.61166(5)
B1 B 0.5621(3) 0.6696(3) 0.5509(3)
B2 B 0.8540(3) 0.6058(3) 0.7429(3)
O1 O 0.66824(16) 0.65654(15) 0.60036(15)
O2 O 0.86177(15) 0.57811(15) 0.64905(15)
C1 C 0.5618(2) 0.4704(2) 0.6975(2)
H1 H 0.5577 0.3993 0.7071
H2 H 0.4943 0.4991 0.7358
C2 C 0.5571(2) 0.5484(2) 0.5827(2)
H3 H 0.4864 0.5533 0.5608
H4 H 0.6209 0.5161 0.544
C3 C 0.6667(2) 0.5326(2) 0.8200(2)
H5 H 0.6237 0.6074 0.7792
H6 H 0.6222 0.5035 0.8863
C4 C 0.7815(2) 0.5339(2) 0.8383(2)
H7 H 0.829 0.4582 0.8659
H8 H 0.7675 0.5595 0.8922
C5 C 0.7752(2) 0.3174(2) 0.8300(2)
C6 C 0.8843(2) 0.2782(2) 0.7858(2)
C7 C 0.9728(2) 0.2273(2) 0.8481(2)
H9 H 1.0467 0.2055 0.8187
C8 C 0.9596(2) 0.2063(2) 0.9503(2)
C9 C 0.8492(2) 0.2252(2) 0.9942(2)
H10 H 0.8372 0.1998 1.0663
C10 C 0.7550(2) 0.2792(2) 0.9385(2)
C11 C 0.9103(2) 0.2750(2) 0.6803(2)
C12 C 0.9632(3) 0.1548(2) 0.7001(2)
H11 H 0.9119 0.1117 0.748
H12 H 1.0355 0.1283 0.7292
H13 H 0.9758 0.1482 0.6356
C13 C 0.9953(2) 0.3398(2) 0.6099(2)
H14 H 1.0152 0.3296 0.5469
H15 H 1.0635 0.3142 0.6447
H16 H 0.9612 0.4169 0.5934
C14 C 0.8046(2) 0.3106(2) 0.6264(2)
H17 H 0.771 0.3886 0.6048
H18 H 0.7498 0.2713 0.6735
H19 H 0.8252 0.2947 0.5665
C15 C 1.0624(2) 0.1576(2) 1.0118(2)
C16 C 1.0302(3) 0.1468(2) 1.1213(2)
H20 H 0.9874 0.2176 1.1202
H21 H 1.0989 0.1201 1.1558
H22 H 0.9836 0.0956 1.1581
C17 C 1.1245(3) 0.0443(2) 1.0168(2)
H23 H 1.0743 -0.0035 1.0526
H24 H 1.1919 0.0148 1.0536
H25 H 1.1469 0.0492 0.9474
C18 C 1.1418(3) 0.2330(2) 0.9573(2)
H26 H 1.1652 0.2388 0.8877
H27 H 1.2087 0.203 0.9949
H28 H 1.1019 0.305 0.9547
C19 C 0.6390(2) 0.2780(2) 1.0036(2)
C20 C 0.6417(3) 0.1571(2) 1.0679(2)
H29 H 0.5702 0.1512 1.1106
H30 H 0.7043 0.1211 1.1114
H31 H 0.6525 0.1225 1.0223
C21 C 0.6224(2) 0.3305(2) 1.0765(2)
H32 H 0.6183 0.4077 1.0367
H33 H 0.6862 0.2952 1.1185
H34 H 0.5521 0.3222 1.1206
C22 C 0.5360(2) 0.3281(2) 0.9429(2)
H35 H 0.4694 0.3102 0.9895
H36 H 0.5493 0.2992 0.8923
H37 H 0.523 0.4069 0.9081
C23 C 0.5802(2) 0.7387(2) 0.4273(2)
C24 C 0.5039(2) 0.7512(2) 0.3660(2)
F1 F 0.41612(14) 0.70547(14) 0.41101(13)
C25 C 0.5081(3) 0.8092(2) 0.2621(2)
F2 F 0.42971(16) 0.81892(14) 0.20828(13)
C26 C 0.5939(3) 0.8595(2) 0.2123(2)
F3 F 0.59905(16) 0.91812(14) 0.11032(13)
C27 C 0.6717(2) 0.8496(2) 0.2689(2)
F4 F 0.75455(14) 0.90086(14) 0.22199(13)
C28 C 0.6638(2) 0.7914(2) 0.3732(2)
F5 F 0.74397(13) 0.78870(13) 0.42159(13)
C29 C 0.4584(2) 0.7443(2) 0.5975(2)
C30 C 0.3501(3) 0.7301(2) 0.6305(2)
F6 F 0.32397(14) 0.64811(14) 0.62845(14)
C31 C 0.2626(3) 0.7974(2) 0.6649(2)
F7 F 0.15980(15) 0.77931(15) 0.69515(15)
C32 C 0.2813(3) 0.8829(2) 0.6700(2)
F8 F 0.19859(15) 0.94735(15) 0.70613(15)
C33 C 0.3869(3) 0.9006(2) 0.6390(2)
F9 F 0.40778(15) 0.98290(14) 0.64436(15)
C34 C 0.4712(2) 0.8335(2) 0.6022(2)
F10 F 0.57134(14) 0.85864(13) 0.56869(14)
C35 C 0.8073(2) 0.7378(2) 0.7000(2)
C36 C 0.7175(2) 0.7943(2) 0.7449(2)
F11 F 0.65191(15) 0.74130(14) 0.82709(14)
C37 C 0.6880(3) 0.9051(3) 0.7118(3)
F12 F 0.60033(16) 0.95377(15) 0.76017(16)
C38 C 0.7477(3) 0.9658(2) 0.6282(3)
F13 F 0.71988(17) 1.07415(14) 0.59456(16)
C39 C 0.8364(3) 0.9151(2) 0.5796(2)
F14 F 0.89585(17) 0.97392(15) 0.49741(14)
C40 C 0.8644(2) 0.8048(2) 0.6161(2)
F15 F 0.95512(14) 0.75871(14) 0.56731(13)
C41 C 0.9846(2) 0.5684(2) 0.7695(2)
C42 C 1.0824(3) 0.5207(2) 0.7243(2)
F16 F 1.07962(14) 0.49923(15) 0.64559(14)
C43 C 1.1889(2) 0.4892(2) 0.7556(2)
F17 F 1.27973(14) 0.44035(15) 0.71012(16)
C44 C 1.2022(3) 0.5096(2) 0.8332(3)
F18 F 1.30524(15) 0.48280(16) 0.86284(15)
C45 C 1.1086(3) 0.5589(2) 0.8791(2)
F19 F 1.12058(15) 0.58205(15) 0.95340(14)
C46 C 1.0037(2) 0.5865(2) 0.8471(2)
F20 F 0.91519(14) 0.63399(14) 0.89656(13)
loop_
_geom_bond_atom_site_label_1
_geom_bond_atom_site_label_2
_geom_bond_site_symmetry_1
_geom_bond_site_symmetry_2
P1 S1 1_555 1_555
S1 O1 1_555 1_555
B1 O1 1_555 1_555
B2 O2 1_555 1_555
O2 S1 1_555 1_555
C1 P1 1_555 1_555
H1 C1 1_555 1_555
H2 C1 1_555 1_555
C2 B1 1_555 1_555
H3 C2 1_555 1_555
H4 C2 1_555 1_555
C3 P1 1_555 1_555
H5 C3 1_555 1_555
H6 C3 1_555 1_555
C4 B2 1_555 1_555
H7 C4 1_555 1_555
H8 C4 1_555 1_555
C5 P1 1_555 1_555
C6 C5 1_555 1_555
C7 C6 1_555 1_555
H9 C7 1_555 1_555
C8 C7 1_555 1_555
C9 C8 1_555 1_555
H10 C9 1_555 1_555
C10 C5 1_555 1_555
C11 C6 1_555 1_555
C12 C11 1_555 1_555
H11 C12 1_555 1_555
H12 C12 1_555 1_555
H13 C12 1_555 1_555
C13 C11 1_555 1_555
H14 C13 1_555 1_555
H15 C13 1_555 1_555
H16 C13 1_555 1_555
C14 C11 1_555 1_555
H17 C14 1_555 1_555
H18 C14 1_555 1_555
H19 C14 1_555 1_555
C15 C8 1_555 1_555
C16 C15 1_555 1_555
H20 C16 1_555 1_555
H21 C16 1_555 1_555
H22 C16 1_555 1_555
C17 C15 1_555 1_555
H23 C17 1_555 1_555
H24 C17 1_555 1_555
H25 C17 1_555 1_555
C18 C15 1_555 1_555
H26 C18 1_555 1_555
H27 C18 1_555 1_555
H28 C18 1_555 1_555
C19 C10 1_555 1_555
C20 C19 1_555 1_555
H29 C20 1_555 1_555
H30 C20 1_555 1_555
H31 C20 1_555 1_555
C21 C19 1_555 1_555
H32 C21 1_555 1_555
H33 C21 1_555 1_555
H34 C21 1_555 1_555
C22 C19 1_555 1_555
H35 C22 1_555 1_555
H36 C22 1_555 1_555
H37 C22 1_555 1_555
C23 B1 1_555 1_555
C24 C23 1_555 1_555
F1 C24 1_555 1_555
C25 C24 1_555 1_555
F2 C25 1_555 1_555
C26 C25 1_555 1_555
F3 C26 1_555 1_555
C27 C26 1_555 1_555
F4 C27 1_555 1_555
C28 C23 1_555 1_555
F5 C28 1_555 1_555
C29 B1 1_555 1_555
C30 C29 1_555 1_555
F6 C30 1_555 1_555
C31 C30 1_555 1_555
F7 C31 1_555 1_555
C32 C31 1_555 1_555
F8 C32 1_555 1_555
C33 C32 1_555 1_555
F9 C33 1_555 1_555
C34 C29 1_555 1_555
F10 C34 1_555 1_555
C35 B2 1_555 1_555
C36 C35 1_555 1_555
F11 C36 1_555 1_555
C37 C36 1_555 1_555
F12 C37 1_555 1_555
C38 C37 1_555 1_555
F13 C38 1_555 1_555
C39 C38 1_555 1_555
F14 C39 1_555 1_555
C40 C35 1_555 1_555
F15 C40 1_555 1_555
C41 B2 1_555 1_555
C42 C41 1_555 1_555
F16 C42 1_555 1_555
C43 C42 1_555 1_555
F17 C43 1_555 1_555
C44 C43 1_555 1_555
F18 C44 1_555 1_555
C45 C44 1_555 1_555
F19 C45 1_555 1_555
C46 C41 1_555 1_555
F20 C46 1_555 1_555
C1 C2 1_555 1_555
C3 C4 1_555 1_555
C9 C10 1_555 1_555
C27 C28 1_555 1_555
C33 C34 1_555 1_555
C39 C40 1_555 1_555
C45 C46 1_555 1_555

#END
