
#######################################################################
#
#                 Cambridge Crystallographic Data Centre
#                                CCDC 
#
#######################################################################
#
# If this CIF has been generated from an entry in the Cambridge 
# Structural Database, then it will include bibliographic, chemical, 
# crystal, experimental, refinement or atomic coordinate data resulting 
# from the CCDC's data processing and validation procedures.
#
#######################################################################

data_MAPHUJ
_chemical_formula_moiety         'C40 H38 B2 F15 P1'
_chemical_name_systematic        
1-[bis(pentafluorophenyl)boranyl]-4-(pentafluorophenyl)-1-(2,4,6-tri-t-butylphenyl)-1,4-phosphaborinane
_symmetry_cell_setting           monoclinic
_symmetry_space_group_name_H-M   'P 21/m'
_symmetry_Int_Tables_number      11
_space_group_name_Hall           '-P 2yb'
loop_
_symmetry_equiv_pos_site_id
_symmetry_equiv_pos_as_xyz
1 x,y,z
2 -x,1/2+y,-z
3 -x,-y,-z
4 x,1/2-y,z
_cell_length_a                   13.6249(7)
_cell_length_b                   17.6508(8)
_cell_length_c                   15.8725(8)
_cell_angle_alpha                90
_cell_angle_beta                 91.388(2)
_cell_angle_gamma                90
_cell_volume                     3816.06
_exptl_crystal_colour            colorless
_exptl_crystal_description       prism
_cell_formula_units_Z            4
loop_
_atom_site_label
_atom_site_type_symbol
_atom_site_fract_x
_atom_site_fract_y
_atom_site_fract_z
P1 P 0.74776(5) 0.250 0.35296(5)
B1 B 0.8897(2) 0.250 0.3929(2)
B2 B 0.5517(3) 0.250 0.2385(2)
H1 H 0.881(2) 0.250 0.4603(19)
C1 C 0.71517(15) 0.32633(13) 0.27896(13)
H2 H 0.7313 0.3755 0.3059
H3 H 0.7563 0.3214 0.2287
C2 C 0.60605(15) 0.32755(13) 0.24986(14)
H4 H 0.6016 0.3548 0.1954
H5 H 0.5695 0.3579 0.2911
C3 C 0.6490(2) 0.250 0.43208(18)
C4 C 0.60036(15) 0.18099(12) 0.45235(13)
C5 C 0.49943(15) 0.18338(12) 0.46620(13)
H6 H 0.4659 0.137 0.4749
C6 C 0.4460(2) 0.250 0.46780(19)
C7 C 0.65103(16) 0.10502(12) 0.47632(14)
C8 C 0.76318(16) 0.10791(13) 0.47650(15)
H7 H 0.7855 0.1113 0.4184
H8 H 0.7898 0.0619 0.5029
H9 H 0.7861 0.1524 0.5083
C9 C 0.62551(18) 0.09031(14) 0.56921(15)
H10 H 0.6477 0.1332 0.6039
H11 H 0.6583 0.044 0.5889
H12 H 0.5543 0.0844 0.5737
C10 C 0.61382(17) 0.03813(13) 0.42276(16)
H13 H 0.542 0.0365 0.4235
H14 H 0.6406 -0.0092 0.4459
H15 H 0.6352 0.0444 0.3647
C11 C 0.3355(2) 0.250 0.4858(2)
C12 C 0.3263(4) 0.250 0.5803(3)
H16 H 0.257(4) 0.250 0.595(3)
H17 H 0.360(3) 0.210(2) 0.605(2)
C13 C 0.28468(19) 0.18036(18) 0.4492(2)
H18 H 0.3108 0.1349 0.4771
H19 H 0.2965 0.1774 0.3887
H20 H 0.2139 0.1839 0.4584
C14 C 0.95143(15) 0.32585(13) 0.37026(14)
C15 C 0.99999(16) 0.36478(13) 0.43543(15)
C16 C 1.05819(18) 0.42721(14) 0.42442(16)
C17 C 1.07311(17) 0.45447(14) 0.34480(18)
C18 C 1.02831(16) 0.41836(14) 0.27738(16)
C19 C 0.96931(15) 0.35626(14) 0.29137(14)
C20 C 0.4363(2) 0.250 0.22110(19)
C21 C 0.37993(16) 0.31618(13) 0.21513(14)
C22 C 0.27874(16) 0.31728(14) 0.20687(14)
C23 C 0.2280(2) 0.250 0.2033(2)
F1 F 0.99203(10) 0.34186(8) 0.51598(8)
F2 F 1.10156(12) 0.46146(9) 0.49105(10)
F3 F 1.13022(12) 0.51498(9) 0.33241(12)
F4 F 1.04201(10) 0.44361(9) 0.19854(9)
F5 F 0.92790(9) 0.32401(9) 0.22151(8)
F6 F 0.42280(9) 0.38460(8) 0.21818(9)
F7 F 0.23010(10) 0.38310(8) 0.20337(10)
F8 F 0.12962(13) 0.250 0.19601(12)
C1C C 0.71517(15) 0.17367(13) 0.27896(13)
H2C H 0.7313 0.1245 0.3059
H3C H 0.7563 0.1786 0.2287
C2C C 0.60605(15) 0.17245(13) 0.24986(14)
H4C H 0.6016 0.1452 0.1954
H5C H 0.5695 0.1421 0.2911
C4C C 0.60036(15) 0.31901(12) 0.45235(13)
C5C C 0.49943(15) 0.31662(12) 0.46620(13)
H6C H 0.4659 0.363 0.4749
C7C C 0.65103(16) 0.39498(12) 0.47632(14)
C8C C 0.76318(16) 0.39209(13) 0.47650(15)
H7C H 0.7855 0.3887 0.4184
H8C H 0.7898 0.4381 0.5029
H9C H 0.7861 0.3476 0.5083
C9C C 0.62551(18) 0.40969(14) 0.56921(15)
H10C H 0.6477 0.3668 0.6039
H11C H 0.6583 0.456 0.5889
H12C H 0.5543 0.4156 0.5737
C10C C 0.61382(17) 0.46187(13) 0.42276(16)
H13C H 0.542 0.4635 0.4235
H14C H 0.6406 0.5092 0.4459
H15C H 0.6352 0.4556 0.3647
H17C H 0.360(3) 0.290(2) 0.605(2)
C13C C 0.28468(19) 0.31964(18) 0.4492(2)
H18C H 0.3108 0.3651 0.4771
H19C H 0.2965 0.3226 0.3887
H20C H 0.2139 0.3161 0.4584
C14C C 0.95143(15) 0.17415(13) 0.37026(14)
C15C C 0.99999(16) 0.13522(13) 0.43543(15)
C16C C 1.05819(18) 0.07279(14) 0.42442(16)
C17C C 1.07311(17) 0.04553(14) 0.34480(18)
C18C C 1.02831(16) 0.08164(14) 0.27738(16)
C19C C 0.96931(15) 0.14374(14) 0.29137(14)
C21C C 0.37993(16) 0.18382(13) 0.21513(14)
C22C C 0.27874(16) 0.18272(14) 0.20687(14)
F1C F 0.99203(10) 0.15814(8) 0.51598(8)
F2C F 1.10156(12) 0.03854(9) 0.49105(10)
F3C F 1.13022(12) -0.01498(9) 0.33241(12)
F4C F 1.04201(10) 0.05639(9) 0.19854(9)
F5C F 0.92790(9) 0.17599(9) 0.22151(8)
F6C F 0.42280(9) 0.11540(8) 0.21818(9)
F7C F 0.23010(10) 0.11690(8) 0.20337(10)
P2 P 0.70485(5) 0.750 0.09996(5)
B3 B 0.5625(2) 0.750 0.1335(2)
B4 B 0.9016(3) 0.750 -0.0067(2)
H21 H 0.577(2) 0.750 0.203(2)
C24 C 0.73771(15) 0.67388(12) 0.02749(13)
H22 H 0.7213 0.6247 0.0537
H23 H 0.6969 0.6789 -0.0247
C25 C 0.84684(15) 0.67248(12) 0.00330(14)
H24 H 0.8515 0.6447 -0.0506
H25 H 0.8832 0.6425 0.0466
C26 C 0.8035(2) 0.750 0.18264(18)
C27 C 0.85285(15) 0.81922(12) 0.20426(13)
C28 C 0.95416(15) 0.81660(12) 0.22016(13)
H26 H 0.9879 0.863 0.23
C29 C 1.0081(2) 0.750 0.22239(18)
C30 C 0.80365(16) 0.89690(12) 0.22356(14)
C31 C 0.69143(16) 0.89441(13) 0.22365(15)
H27 H 0.6663 0.942 0.2465
H28 H 0.67 0.8521 0.2587
H29 H 0.666 0.8876 0.1659
C32 C 0.83746(17) 0.96166(13) 0.16637(16)
H30 H 0.8079 0.9553 0.1099
H31 H 0.9092 0.9606 0.1628
H32 H 0.8168 1.0103 0.1899
C33 C 0.83631(17) 0.91674(14) 0.31559(15)
H33 H 0.8037 0.9635 0.333
H34 H 0.9076 0.924 0.3184
H35 H 0.8182 0.8753 0.3532
C34 C 1.1198(2) 0.750 0.23758(19)
C35 C 1.16687(19) 0.81945(17) 0.1990(2)
H36 H 1.1427 0.8652 0.2268
H37 H 1.1499 0.8216 0.1387
H38 H 1.2383 0.8164 0.2067
C36 C 1.1410(3) 0.750 0.3311(3)
H39 H 1.215(4) 0.750 0.346(3)
H40 H 1.111(3) 0.7884(19) 0.357(2)
C37 C 0.50034(14) 0.67362(12) 0.10863(13)
C38 C 0.45103(15) 0.63496(12) 0.17157(13)
C39 C 0.39290(16) 0.57210(13) 0.15794(14)
C40 C 0.38061(16) 0.54403(12) 0.07755(15)
C41 C 0.42701(15) 0.57994(13) 0.01244(14)
C42 C 0.48393(14) 0.64288(12) 0.02894(13)
C43 C 1.0161(2) 0.750 -0.02446(19)
C44 C 1.07172(16) 0.81609(14) -0.03235(15)
C45 C 1.17130(17) 0.81703(15) -0.04606(15)
C46 C 1.2218(2) 0.750 -0.0528(2)
F9 F 0.45866(9) 0.65889(7) 0.25245(8)
F10 F 0.34695(10) 0.53895(8) 0.22205(8)
F11 F 0.32447(10) 0.48297(8) 0.06228(9)
F12 F 0.41560(9) 0.55287(7) -0.06673(8)
F13 F 0.52518(9) 0.67530(7) -0.03933(7)
F14 F 1.02976(10) 0.88448(8) -0.02647(11)
F15 F 1.21954(10) 0.88275(9) -0.05353(11)
F16 F 1.31823(13) 0.750 -0.06627(13)
C24C C 0.73771(15) 0.82612(12) 0.02749(13)
H22C H 0.7213 0.8753 0.0537
H23C H 0.6969 0.8211 -0.0247
C25C C 0.84684(15) 0.82752(12) 0.00330(14)
H24C H 0.8515 0.8553 -0.0506
H25C H 0.8832 0.8575 0.0466
C27C C 0.85285(15) 0.68078(12) 0.20426(13)
C28C C 0.95416(15) 0.68340(12) 0.22016(13)
H26C H 0.9879 0.637 0.23
C30C C 0.80365(16) 0.60310(12) 0.22356(14)
C31C C 0.69143(16) 0.60559(13) 0.22365(15)
H27C H 0.6663 0.558 0.2465
H28C H 0.67 0.6479 0.2587
H29C H 0.666 0.6124 0.1659
C32C C 0.83746(17) 0.53834(13) 0.16637(16)
H30C H 0.8079 0.5447 0.1099
H31C H 0.9092 0.5394 0.1628
H32C H 0.8168 0.4897 0.1899
C33C C 0.83631(17) 0.58326(14) 0.31559(15)
H33C H 0.8037 0.5365 0.333
H34C H 0.9076 0.576 0.3184
H35C H 0.8182 0.6247 0.3532
C35C C 1.16687(19) 0.68055(17) 0.1990(2)
H36C H 1.1427 0.6348 0.2268
H37C H 1.1499 0.6784 0.1387
H38C H 1.2383 0.6836 0.2067
H40C H 1.111(3) 0.7116(19) 0.357(2)
C37C C 0.50034(14) 0.82638(12) 0.10863(13)
C38C C 0.45103(15) 0.86504(12) 0.17157(13)
C39C C 0.39290(16) 0.92790(13) 0.15794(14)
C40C C 0.38061(16) 0.95597(12) 0.07755(15)
C41C C 0.42701(15) 0.92006(13) 0.01244(14)
C42C C 0.48393(14) 0.85712(12) 0.02894(13)
C44C C 1.07172(16) 0.68391(14) -0.03235(15)
C45C C 1.17130(17) 0.68297(15) -0.04606(15)
F9C F 0.45866(9) 0.84111(7) 0.25245(8)
F10C F 0.34695(10) 0.96105(8) 0.22205(8)
F11C F 0.32447(10) 1.01703(8) 0.06228(9)
F12C F 0.41560(9) 0.94713(7) -0.06673(8)
F13C F 0.52518(9) 0.82470(7) -0.03933(7)
F14C F 1.02976(10) 0.61552(8) -0.02647(11)
F15C F 1.21954(10) 0.61725(9) -0.05353(11)
loop_
_geom_bond_atom_site_label_1
_geom_bond_atom_site_label_2
_geom_bond_site_symmetry_1
_geom_bond_site_symmetry_2
P1 B1 1_555 1_555
B1 H1 1_555 1_555
B2 C2 1_555 1_555
C1 P1 1_555 1_555
H2 C1 1_555 1_555
H3 C1 1_555 1_555
C2 C1 1_555 1_555
H4 C2 1_555 1_555
H5 C2 1_555 1_555
C3 P1 1_555 1_555
C4 C3 1_555 1_555
C5 C4 1_555 1_555
H6 C5 1_555 1_555
C6 C5 1_555 1_555
C7 C4 1_555 1_555
C8 C7 1_555 1_555
H7 C8 1_555 1_555
H8 C8 1_555 1_555
H9 C8 1_555 1_555
C9 C7 1_555 1_555
H10 C9 1_555 1_555
H11 C9 1_555 1_555
H12 C9 1_555 1_555
C10 C7 1_555 1_555
H13 C10 1_555 1_555
H14 C10 1_555 1_555
H15 C10 1_555 1_555
C11 C6 1_555 1_555
C12 C11 1_555 1_555
H16 C12 1_555 1_555
H17 C12 1_555 1_555
C13 C11 1_555 1_555
H18 C13 1_555 1_555
H19 C13 1_555 1_555
H20 C13 1_555 1_555
C14 B1 1_555 1_555
C15 C14 1_555 1_555
C16 C15 1_555 1_555
C17 C16 1_555 1_555
C18 C17 1_555 1_555
C19 C14 1_555 1_555
C20 B2 1_555 1_555
C21 C20 1_555 1_555
C22 C21 1_555 1_555
C23 C22 1_555 1_555
F1 C15 1_555 1_555
F2 C16 1_555 1_555
F3 C17 1_555 1_555
F4 C18 1_555 1_555
F5 C19 1_555 1_555
F6 C21 1_555 1_555
F7 C22 1_555 1_555
F8 C23 1_555 1_555
P2 B3 1_555 1_555
B3 H21 1_555 1_555
B4 C25 1_555 1_555
C24 P2 1_555 1_555
H22 C24 1_555 1_555
H23 C24 1_555 1_555
C25 C24 1_555 1_555
H24 C25 1_555 1_555
H25 C25 1_555 1_555
C26 P2 1_555 1_555
C27 C26 1_555 1_555
C28 C27 1_555 1_555
H26 C28 1_555 1_555
C29 C28 1_555 1_555
C30 C27 1_555 1_555
C31 C30 1_555 1_555
H27 C31 1_555 1_555
H28 C31 1_555 1_555
H29 C31 1_555 1_555
C32 C30 1_555 1_555
H30 C32 1_555 1_555
H31 C32 1_555 1_555
H32 C32 1_555 1_555
C33 C30 1_555 1_555
H33 C33 1_555 1_555
H34 C33 1_555 1_555
H35 C33 1_555 1_555
C34 C29 1_555 1_555
C35 C34 1_555 1_555
H36 C35 1_555 1_555
H37 C35 1_555 1_555
H38 C35 1_555 1_555
C36 C34 1_555 1_555
H39 C36 1_555 1_555
H40 C36 1_555 1_555
C37 B3 1_555 1_555
C38 C37 1_555 1_555
C39 C38 1_555 1_555
C40 C39 1_555 1_555
C41 C40 1_555 1_555
C42 C37 1_555 1_555
C43 B4 1_555 1_555
C44 C43 1_555 1_555
C45 C44 1_555 1_555
C46 C45 1_555 1_555
F9 C38 1_555 1_555
F10 C39 1_555 1_555
F11 C40 1_555 1_555
F12 C41 1_555 1_555
F13 C42 1_555 1_555
F14 C44 1_555 1_555
F15 C45 1_555 1_555
F16 C46 1_555 1_555
C1C P1 1_555 1_555
H2C C1C 1_555 1_555
H3C C1C 1_555 1_555
C2C B2 1_555 1_555
H4C C2C 1_555 1_555
H5C C2C 1_555 1_555
C4C C3 1_555 1_555
C5C C6 1_555 1_555
H6C C5C 1_555 1_555
C7C C4C 1_555 1_555
C8C C7C 1_555 1_555
H7C C8C 1_555 1_555
H8C C8C 1_555 1_555
H9C C8C 1_555 1_555
C9C C7C 1_555 1_555
H10C C9C 1_555 1_555
H11C C9C 1_555 1_555
H12C C9C 1_555 1_555
C10C C7C 1_555 1_555
H13C C10C 1_555 1_555
H14C C10C 1_555 1_555
H15C C10C 1_555 1_555
H17C C12 1_555 1_555
C13C C11 1_555 1_555
H18C C13C 1_555 1_555
H19C C13C 1_555 1_555
H20C C13C 1_555 1_555
C14C B1 1_555 1_555
C15C C14C 1_555 1_555
C16C C15C 1_555 1_555
C17C C16C 1_555 1_555
C18C C17C 1_555 1_555
C19C C14C 1_555 1_555
C21C C20 1_555 1_555
C22C C23 1_555 1_555
F1C C15C 1_555 1_555
F2C C16C 1_555 1_555
F3C C17C 1_555 1_555
F4C C18C 1_555 1_555
F5C C19C 1_555 1_555
F6C C21C 1_555 1_555
F7C C22C 1_555 1_555
C24C P2 1_555 1_555
H22C C24C 1_555 1_555
H23C C24C 1_555 1_555
C25C B4 1_555 1_555
H24C C25C 1_555 1_555
H25C C25C 1_555 1_555
C27C C26 1_555 1_555
C28C C29 1_555 1_555
H26C C28C 1_555 1_555
C30C C27C 1_555 1_555
C31C C30C 1_555 1_555
H27C C31C 1_555 1_555
H28C C31C 1_555 1_555
H29C C31C 1_555 1_555
C32C C30C 1_555 1_555
H30C C32C 1_555 1_555
H31C C32C 1_555 1_555
H32C C32C 1_555 1_555
C33C C30C 1_555 1_555
H33C C33C 1_555 1_555
H34C C33C 1_555 1_555
H35C C33C 1_555 1_555
C35C C34 1_555 1_555
H36C C35C 1_555 1_555
H37C C35C 1_555 1_555
H38C C35C 1_555 1_555
H40C C36 1_555 1_555
C37C B3 1_555 1_555
C38C C37C 1_555 1_555
C39C C38C 1_555 1_555
C40C C39C 1_555 1_555
C41C C40C 1_555 1_555
C42C C37C 1_555 1_555
C44C C43 1_555 1_555
C45C C46 1_555 1_555
F9C C38C 1_555 1_555
F10C C39C 1_555 1_555
F11C C40C 1_555 1_555
F12C C41C 1_555 1_555
F13C C42C 1_555 1_555
F14C C44C 1_555 1_555
F15C C45C 1_555 1_555
C18 C19 1_555 1_555
C41 C42 1_555 1_555
C1C C2C 1_555 1_555
C4C C5C 1_555 1_555
C18C C19C 1_555 1_555
C21C C22C 1_555 1_555
C24C C25C 1_555 1_555
C27C C28C 1_555 1_555
C41C C42C 1_555 1_555
C44C C45C 1_555 1_555

#END
