
#######################################################################
#
#                 Cambridge Crystallographic Data Centre
#                                CCDC 
#
#######################################################################
#
# If this CIF has been generated from an entry in the Cambridge 
# Structural Database, then it will include bibliographic, chemical, 
# crystal, experimental, refinement or atomic coordinate data resulting 
# from the CCDC's data processing and validation procedures.
#
#######################################################################

data_MAPKIY
_chemical_formula_moiety         'C23 H26 Cl1 N5 O2'
_chemical_name_systematic        
4-((3-(2-Chlorophenyl)-1,2,4-oxadiazol-5-yl)methyl)-1-((N-(2,6-dimethylphenyl)carbamoyl)methyl)piperazine
_symmetry_cell_setting           monoclinic
_symmetry_space_group_name_H-M   'P 21/a'
_symmetry_Int_Tables_number      14
_space_group_name_Hall           '-P 2yab'
loop_
_symmetry_equiv_pos_site_id
_symmetry_equiv_pos_as_xyz
1 x,y,z
2 1/2-x,1/2+y,-z
3 -x,-y,-z
4 1/2+x,1/2-y,z
_cell_length_a                   12.2960(10)
_cell_length_b                   10.587(2)
_cell_length_c                   17.164(2)
_cell_angle_alpha                90
_cell_angle_beta                 99.77(3)
_cell_angle_gamma                90
_cell_volume                     2201.97
_exptl_crystal_colour            colorless
_exptl_crystal_description       block
_cell_formula_units_Z            4
_exptl_crystal_recrystallization_method ethanol
loop_
_atom_site_label
_atom_site_type_symbol
_atom_site_fract_x
_atom_site_fract_y
_atom_site_fract_z
Cl1 Cl 0.70877(8) 0.22764(10) 1.15809(5)
O1 O 0.4167(2) 0.2981(3) 0.99003(15)
O2 O 0.2535(2) -0.1210(2) 0.48511(14)
N1 N 0.5131(3) 0.3232(4) 1.04493(17)
N2 N 0.5439(2) 0.3472(3) 0.92129(16)
N3 N 0.3696(2) 0.1896(3) 0.80020(15)
N4 N 0.3633(2) 0.0813(3) 0.64604(15)
N5 N 0.2348(2) 0.0903(2) 0.49867(14)
H1 H 0.2621 0.1559 0.5244
C1 C 0.9115(3) 0.4799(4) 1.0904(2)
H2 H 0.9810 0.5122 1.1103
C2 C 0.8651(3) 0.3897(4) 1.1322(2)
H3 H 0.9042 0.3587 1.1795
C3 C 0.7597(3) 0.3448(3) 1.10373(18)
C4 C 0.6990(3) 0.3899(3) 1.03310(18)
C5 C 0.7497(3) 0.4767(3) 0.9908(2)
H4 H 0.7125 0.5052 0.9422
C6 C 0.8546(3) 0.5222(4) 1.0191(2)
H5 H 0.8867 0.5813 0.9899
C7 C 0.5849(3) 0.3516(3) 1.00099(18)
C8 C 0.4427(3) 0.3149(3) 0.9191(2)
C9 C 0.3508(3) 0.2962(4) 0.8509(2)
H6 H 0.2826 0.2821 0.8709
H7 H 0.3419 0.3727 0.8193
C10 C 0.2646(3) 0.1553(4) 0.7496(2)
H8 H 0.2355 0.2278 0.7182
H9 H 0.2112 0.1306 0.7823
C11 C 0.2826(3) 0.0478(4) 0.6957(2)
H10 H 0.3083 -0.0258 0.7272
H11 H 0.2132 0.0262 0.6625
C12 C 0.4677(3) 0.1107(4) 0.69733(19)
H12 H 0.5229 0.1323 0.6654
H13 H 0.4935 0.0374 0.7290
C13 C 0.4519(3) 0.2200(4) 0.7507(2)
H14 H 0.5216 0.2399 0.7841
H15 H 0.4281 0.2938 0.7188
C14 C 0.3749(3) -0.0180(3) 0.59039(19)
H16 H 0.3786 -0.0986 0.6176
H17 H 0.4440 -0.0063 0.5712
C15 C 0.2808(3) -0.0222(3) 0.51981(18)
C16 C 0.1426(2) 0.1083(3) 0.43565(19)
C17 C 0.0442(3) 0.1530(3) 0.4556(2)
C18 C -0.0437(3) 0.1719(3) 0.3946(3)
H18 H -0.1101 0.2026 0.4061
C19 C -0.0344(3) 0.1463(4) 0.3179(3)
H19 H -0.0950 0.1577 0.2780
C20 C 0.0645(3) 0.1035(4) 0.2991(2)
H20 H 0.0702 0.0882 0.2466
C21 C 0.1555(3) 0.0833(3) 0.35841(19)
C22 C 0.0331(3) 0.1813(4) 0.5389(2)
H21 H -0.0401 0.2117 0.5405
H22 H 0.0859 0.2446 0.5598
H23 H 0.0462 0.1058 0.5701
C23 C 0.2630(3) 0.0395(4) 0.3375(2)
H24 H 0.3165 0.0303 0.3849
H25 H 0.2889 0.1005 0.3035
H26 H 0.2525 -0.0403 0.3108
loop_
_geom_bond_atom_site_label_1
_geom_bond_atom_site_label_2
_geom_bond_site_symmetry_1
_geom_bond_site_symmetry_2
Cl1 C3 1_555 1_555
O1 N1 1_555 1_555
O2 C15 1_555 1_555
N1 C7 1_555 1_555
N2 C7 1_555 1_555
N3 C9 1_555 1_555
N4 C11 1_555 1_555
N5 H1 1_555 1_555
C1 H2 1_555 1_555
C2 C1 1_555 1_555
H3 C2 1_555 1_555
C3 C2 1_555 1_555
C4 C3 1_555 1_555
C5 C4 1_555 1_555
H4 C5 1_555 1_555
C6 C1 1_555 1_555
H5 C6 1_555 1_555
C7 C4 1_555 1_555
C8 O1 1_555 1_555
C9 C8 1_555 1_555
H6 C9 1_555 1_555
H7 C9 1_555 1_555
C10 N3 1_555 1_555
H8 C10 1_555 1_555
H9 C10 1_555 1_555
C11 C10 1_555 1_555
H10 C11 1_555 1_555
H11 C11 1_555 1_555
C12 N4 1_555 1_555
H12 C12 1_555 1_555
H13 C12 1_555 1_555
C13 N3 1_555 1_555
H14 C13 1_555 1_555
H15 C13 1_555 1_555
C14 N4 1_555 1_555
H16 C14 1_555 1_555
H17 C14 1_555 1_555
C15 N5 1_555 1_555
C16 N5 1_555 1_555
C17 C16 1_555 1_555
C18 C17 1_555 1_555
H18 C18 1_555 1_555
C19 C18 1_555 1_555
H19 C19 1_555 1_555
C20 C19 1_555 1_555
H20 C20 1_555 1_555
C21 C16 1_555 1_555
C22 C17 1_555 1_555
H21 C22 1_555 1_555
H22 C22 1_555 1_555
H23 C22 1_555 1_555
C23 C21 1_555 1_555
H24 C23 1_555 1_555
H25 C23 1_555 1_555
H26 C23 1_555 1_555
N2 C8 1_555 1_555
C5 C6 1_555 1_555
C12 C13 1_555 1_555
C14 C15 1_555 1_555
C20 C21 1_555 1_555

#END
