
#######################################################################
#
#                 Cambridge Crystallographic Data Centre
#                                CCDC 
#
#######################################################################
#
# If this CIF has been generated from an entry in the Cambridge 
# Structural Database, then it will include bibliographic, chemical, 
# crystal, experimental, refinement or atomic coordinate data resulting 
# from the CCDC's data processing and validation procedures.
#
#######################################################################

data_MAPLIB
_chemical_formula_moiety         'C23 H22 N2 O2 S1'
_chemical_name_systematic        
2-mesityl-1-((4-methylphenyl)sulfonyl)-1H-benzimidazole
_symmetry_cell_setting           monoclinic
_symmetry_space_group_name_H-M   'P 21/n'
_symmetry_Int_Tables_number      14
_space_group_name_Hall           '-P 2yn'
loop_
_symmetry_equiv_pos_site_id
_symmetry_equiv_pos_as_xyz
1 x,y,z
2 1/2-x,1/2+y,1/2-z
3 -x,-y,-z
4 1/2+x,1/2-y,1/2+z
_cell_length_a                   11.8124(5)
_cell_length_b                   14.2482(6)
_cell_length_c                   12.3794(6)
_cell_angle_alpha                90
_cell_angle_beta                 102.181(2)
_cell_angle_gamma                90
_cell_volume                     2036.61
_exptl_crystal_colour            colorless
_exptl_crystal_description       block
_cell_formula_units_Z            4
loop_
_atom_site_label
_atom_site_type_symbol
_atom_site_fract_x
_atom_site_fract_y
_atom_site_fract_z
S1 S 0.38508(4) 0.18565(3) 0.90794(4)
O1 O 0.42228(13) 0.10027(11) 0.86747(12)
O2 O 0.26930(12) 0.21736(12) 0.87019(12)
N1 N 0.46878(13) 0.27127(11) 0.87270(13)
N2 N 0.62678(15) 0.34945(13) 0.84988(17)
C1 C 0.41749(15) 0.18450(13) 1.05256(15)
C2 C 0.65883(15) 0.18163(14) 0.89082(15)
C3 C 0.58753(16) 0.26801(14) 0.86999(15)
C4 C 0.49166(17) 0.11656(15) 1.10733(17)
H1 H 0.5260 0.0729 1.0684
C5 C 0.43584(17) 0.36633(14) 0.85568(16)
C6 C 0.79452(17) 0.01916(15) 0.9314(2)
C7 C 0.51330(18) 0.11539(17) 1.22141(18)
H2 H 0.5635 0.0705 1.2595
C8 C 0.72413(18) 0.03616(15) 0.82747(19)
H3 H 0.7231 -0.0073 0.7712
C9 C 0.73185(16) 0.16837(15) 0.99384(16)
C10 C 0.79743(17) 0.08726(17) 1.01229(18)
H4 H 0.8453 0.0780 1.0814
C11 C 0.53454(18) 0.41194(16) 0.84012(18)
C12 C 0.65617(17) 0.11556(16) 0.80589(16)
C13 C 0.7419(2) 0.24031(19) 1.08442(19)
H5 H 0.7750 0.2117 1.1541
H6 H 0.6665 0.2644 1.0863
H7 H 0.7908 0.2908 1.0706
C14 C 0.36580(19) 0.24922(16) 1.10948(18)
H8 H 0.3164 0.2947 1.0717
C15 C 0.4624(2) 0.17909(18) 1.28014(18)
C16 C 0.3885(2) 0.24542(19) 1.22353(19)
H9 H 0.3533 0.2884 1.2625
C17 C 0.33155(19) 0.41308(17) 0.8490(2)
H10 H 0.2654 0.3821 0.8594
C18 C 0.8655(2) -0.06851(17) 0.9527(3)
H11 H 0.9404 -0.0575 0.9366
H12 H 0.8274 -0.1181 0.9064
H13 H 0.8744 -0.0862 1.0289
C19 C 0.5307(2) 0.50745(18) 0.8164(3)
H14 H 0.5963 0.5389 0.8053
C20 C 0.3309(2) 0.50742(18) 0.8262(2)
H15 H 0.2626 0.5411 0.8217
C21 C 0.4287(2) 0.55398(18) 0.8098(2)
H16 H 0.4247 0.6179 0.7941
C22 C 0.5830(2) 0.1319(2) 0.69223(18)
H17 H 0.6091 0.0917 0.6402
H18 H 0.5898 0.1962 0.6715
H19 H 0.5036 0.1181 0.6925
C23 C 0.4862(3) 0.1748(3) 1.4048(2)
H20 H 0.4646 0.2333 1.4332
H21 H 0.5672 0.1636 1.4329
H22 H 0.4419 0.1248 1.4275
loop_
_geom_bond_atom_site_label_1
_geom_bond_atom_site_label_2
_geom_bond_site_symmetry_1
_geom_bond_site_symmetry_2
S1 O1 1_555 1_555
O2 S1 1_555 1_555
N1 S1 1_555 1_555
N2 C3 1_555 1_555
C1 S1 1_555 1_555
C2 C3 1_555 1_555
C3 N1 1_555 1_555
C4 C1 1_555 1_555
H1 C4 1_555 1_555
C5 N1 1_555 1_555
C6 C8 1_555 1_555
C7 C4 1_555 1_555
H2 C7 1_555 1_555
C8 H3 1_555 1_555
C9 C2 1_555 1_555
C10 C6 1_555 1_555
H4 C10 1_555 1_555
C11 N2 1_555 1_555
C12 C2 1_555 1_555
C13 C9 1_555 1_555
H5 C13 1_555 1_555
H6 C13 1_555 1_555
H7 C13 1_555 1_555
C14 C1 1_555 1_555
H8 C14 1_555 1_555
C15 C7 1_555 1_555
C16 C14 1_555 1_555
H9 C16 1_555 1_555
C17 C5 1_555 1_555
H10 C17 1_555 1_555
C18 C6 1_555 1_555
H11 C18 1_555 1_555
H12 C18 1_555 1_555
H13 C18 1_555 1_555
C19 C11 1_555 1_555
H14 C19 1_555 1_555
C20 C17 1_555 1_555
H15 C20 1_555 1_555
C21 C19 1_555 1_555
H16 C21 1_555 1_555
C22 C12 1_555 1_555
H17 C22 1_555 1_555
H18 C22 1_555 1_555
H19 C22 1_555 1_555
C23 C15 1_555 1_555
H20 C23 1_555 1_555
H21 C23 1_555 1_555
H22 C23 1_555 1_555
C5 C11 1_555 1_555
C8 C12 1_555 1_555
C9 C10 1_555 1_555
C15 C16 1_555 1_555
C20 C21 1_555 1_555

#END
