
#######################################################################
#
#                 Cambridge Crystallographic Data Centre
#                                CCDC 
#
#######################################################################
#
# If this CIF has been generated from an entry in the Cambridge 
# Structural Database, then it will include bibliographic, chemical, 
# crystal, experimental, refinement or atomic coordinate data resulting 
# from the CCDC's data processing and validation procedures.
#
#######################################################################

data_MAPROM
_chemical_formula_moiety         'C27 H25 Br1 N2 O2 S1'
_chemical_name_systematic        
5-Bromo-3-((4-methylene-1-((4-methylphenyl)sulfonyl)pyrrolidin-3-yl)(phenyl)methyl)-1H-indole
_symmetry_cell_setting           triclinic
_symmetry_space_group_name_H-M   'P -1'
_symmetry_Int_Tables_number      2
_space_group_name_Hall           '-P 1'
loop_
_symmetry_equiv_pos_site_id
_symmetry_equiv_pos_as_xyz
1 x,y,z
2 -x,-y,-z
_cell_length_a                   9.3548(13)
_cell_length_b                   12.6226(17)
_cell_length_c                   20.103(3)
_cell_angle_alpha                80.248(3)
_cell_angle_beta                 89.184(3)
_cell_angle_gamma                89.857(3)
_cell_volume                     2339.26
_exptl_crystal_colour            colorless
_exptl_crystal_description       block
_cell_formula_units_Z            4
loop_
_atom_site_label
_atom_site_type_symbol
_atom_site_fract_x
_atom_site_fract_y
_atom_site_fract_z
Br1 Br 0.14210(9) 0.51638(7) 0.43755(4)
S1 S 0.91369(18) 0.45975(13) 0.22965(9)
O1 O 1.0166(5) 0.5268(4) 0.2550(3)
O2 O 0.9584(6) 0.3647(4) 0.2040(3)
N1 N 0.8335(6) 0.5338(5) 0.1693(3)
N2 N 0.5179(7) 0.8590(5) 0.2833(3)
H1 H 0.5434 0.9235 0.2897
C1 C 0.4154(7) 0.6943(5) 0.2970(3)
C2 C 0.3302(7) 0.6102(6) 0.3306(4)
H3 H 0.3177 0.5457 0.3128
C3 C 0.2655(7) 0.6247(6) 0.3901(4)
C4 C 0.2821(8) 0.7166(6) 0.4189(4)
H4 H 0.2368 0.7212 0.4609
C5 C 0.3637(8) 0.8007(6) 0.3867(4)
H5 H 0.3737 0.8649 0.4050
C6 C 0.4326(8) 0.7884(5) 0.3254(4)
C7 C 0.5565(7) 0.8110(6) 0.2295(4)
H6 H 0.6154 0.8437 0.1929
C8 C 0.4993(7) 0.7093(5) 0.2352(3)
C9 C 0.5107(7) 0.6322(5) 0.1862(3)
H7 H 0.5258 0.5585 0.2126
C10 C 0.6418(7) 0.6596(6) 0.1372(4)
H8 H 0.6330 0.7345 0.1117
C11 C 0.7847(7) 0.6459(6) 0.1742(4)
H9 H 0.8552 0.6996 0.1523
H10 H 0.7719 0.6545 0.2219
C12 C 0.7390(8) 0.4848(6) 0.1237(4)
H11 H 0.6746 0.4302 0.1496
H12 H 0.7955 0.4513 0.0908
C13 C 0.6559(7) 0.5818(6) 0.0890(4)
C14 C 0.6114(9) 0.5968(7) 0.0255(4)
H13 H 0.5657 0.6621 0.0068
H14 H 0.6254 0.5422 -0.0012
C15 C 0.3750(7) 0.6296(6) 0.1446(3)
C16 C 0.3207(8) 0.7229(6) 0.1078(4)
H15 H 0.3653 0.7895 0.1105
C17 C 0.2028(8) 0.7218(7) 0.0672(4)
H16 H 0.1678 0.7869 0.0419
C18 C 0.1363(8) 0.6253(6) 0.0637(4)
H17 H 0.0567 0.6229 0.0351
C19 C 0.1875(8) 0.5319(6) 0.1025(4)
H18 H 0.1387 0.4660 0.1024
C20 C 0.3087(8) 0.5327(6) 0.1416(4)
H19 H 0.3456 0.4675 0.1660
C21 C 0.7880(7) 0.4203(5) 0.2948(3)
C22 C 0.7517(9) 0.4894(7) 0.3393(4)
H20 H 0.7977 0.5572 0.3351
C23 C 0.6504(9) 0.4611(7) 0.3892(4)
H21 H 0.6268 0.5088 0.4195
C24 C 0.5826(8) 0.3614(7) 0.3948(4)
C25 C 0.6179(9) 0.2929(7) 0.3512(4)
H22 H 0.5721 0.2249 0.3558
C26 C 0.7202(8) 0.3212(6) 0.3003(4)
H23 H 0.7432 0.2737 0.2698
C27 C 0.4666(9) 0.3287(9) 0.4488(5)
H24 H 0.3723 0.3376 0.4280
H25 H 0.4732 0.3742 0.4836
H26 H 0.4801 0.2533 0.4694
Br2 Br -0.36206(9) 0.00342(7) 0.43676(4)
S2 S 0.41315(18) 0.17946(13) 0.23183(9)
O3 O 0.4593(5) 0.2873(4) 0.2071(3)
O4 O 0.5153(5) 0.0979(4) 0.2556(3)
N3 N 0.3305(6) 0.1418(5) 0.1709(3)
N4 N 0.0262(7) -0.2485(5) 0.2803(3)
H2 H 0.0555 -0.3157 0.2867
C28 C -0.0635(7) -0.2019(6) 0.3227(4)
C29 C -0.1268(8) -0.2490(6) 0.3848(4)
H27 H -0.1098 -0.3221 0.4035
C30 C -0.2133(8) -0.1859(6) 0.4170(4)
H28 H -0.2596 -0.2156 0.4583
C31 C -0.2344(8) -0.0763(6) 0.3890(4)
C32 C -0.1715(7) -0.0282(5) 0.3285(4)
H29 H -0.1870 0.0455 0.3106
C33 C -0.0839(7) -0.0935(5) 0.2948(3)
C34 C -0.0021(8) -0.0740(5) 0.2332(4)
C35 C 0.0608(8) -0.1700(6) 0.2267(4)
H30 H 0.1205 -0.1807 0.1898
C36 C 0.0065(7) 0.0309(6) 0.1848(3)
H31 H 0.0180 0.0894 0.2122
C37 C 0.1384(8) 0.0353(6) 0.1367(4)
H32 H 0.1324 -0.0232 0.1090
C38 C 0.2797(8) 0.0272(6) 0.1748(5)
H33 H 0.2649 -0.0074 0.2224
H34 H 0.3505 -0.0153 0.1534
C39 C 0.2330(8) 0.2164(6) 0.1281(4)
H35 H 0.2876 0.2708 0.0965
H36 H 0.1684 0.2536 0.1561
C40 C 0.1512(8) 0.1441(6) 0.0909(4)
C41 C 0.1103(8) 0.1664(7) 0.0277(4)
H37 H 0.1328 0.2342 0.0013
H38 H 0.0584 0.1147 0.0085
C42 C -0.1311(7) 0.0546(6) 0.1440(4)
C43 C -0.1877(9) -0.0231(6) 0.1096(4)
H39 H -0.1424 -0.0911 0.1120
C44 C -0.3108(10) -0.0002(7) 0.0717(4)
H40 H -0.3489 -0.0529 0.0484
C45 C -0.3775(9) 0.0967(7) 0.0676(4)
H41 H -0.4617 0.1113 0.0418
C46 C -0.3224(9) 0.1728(7) 0.1009(4)
H42 H -0.3689 0.2404 0.0980
C47 C -0.1997(8) 0.1528(7) 0.1387(4)
H43 H -0.1624 0.2070 0.1611
C48 C 0.2872(8) 0.1837(6) 0.2983(4)
C49 C 0.2172(8) 0.2764(6) 0.3025(4)
H44 H 0.2388 0.3400 0.2714
C50 C 0.1129(9) 0.2781(7) 0.3527(4)
H45 H 0.0655 0.3435 0.3563
C51 C 0.0780(8) 0.1863(8) 0.3969(4)
C52 C 0.1494(9) 0.0918(7) 0.3899(4)
H46 H 0.1253 0.0269 0.4193
C53 C 0.2541(9) 0.0904(7) 0.3415(4)
H47 H 0.3031 0.0256 0.3379
C54 C -0.0377(10) 0.1884(10) 0.4503(5)
H48 H -0.0235 0.2507 0.4726
H49 H -0.0329 0.1223 0.4838
H50 H -0.1316 0.1934 0.4289
loop_
_geom_bond_atom_site_label_1
_geom_bond_atom_site_label_2
_geom_bond_site_symmetry_1
_geom_bond_site_symmetry_2
Br1 C3 1_555 1_555
Br2 C31 1_555 1_555
S1 O1 1_555 1_555
S2 O3 1_555 1_555
O2 S1 1_555 1_555
O4 S2 1_555 1_555
N1 S1 1_555 1_555
N2 H1 1_555 1_555
N3 S2 1_555 1_555
N4 H2 1_555 1_555
C1 C2 1_555 1_555
C2 H3 1_555 1_555
C3 C2 1_555 1_555
C4 C3 1_555 1_555
H4 C4 1_555 1_555
C5 C4 1_555 1_555
H5 C5 1_555 1_555
C6 N2 1_555 1_555
C7 N2 1_555 1_555
H6 C7 1_555 1_555
C8 C1 1_555 1_555
C9 C8 1_555 1_555
H7 C9 1_555 1_555
C10 C9 1_555 1_555
H8 C10 1_555 1_555
C11 N1 1_555 1_555
H9 C11 1_555 1_555
H10 C11 1_555 1_555
C12 N1 1_555 1_555
H11 C12 1_555 1_555
H12 C12 1_555 1_555
C13 C10 1_555 1_555
C14 C13 1_555 1_555
H13 C14 1_555 1_555
H14 C14 1_555 1_555
C15 C9 1_555 1_555
C16 C15 1_555 1_555
H15 C16 1_555 1_555
C17 C16 1_555 1_555
H16 C17 1_555 1_555
C18 C17 1_555 1_555
H17 C18 1_555 1_555
C19 C18 1_555 1_555
H18 C19 1_555 1_555
C20 C15 1_555 1_555
H19 C20 1_555 1_555
C21 S1 1_555 1_555
C22 C21 1_555 1_555
H20 C22 1_555 1_555
C23 C22 1_555 1_555
H21 C23 1_555 1_555
C24 C23 1_555 1_555
C25 C24 1_555 1_555
H22 C25 1_555 1_555
C26 C21 1_555 1_555
H23 C26 1_555 1_555
C27 C24 1_555 1_555
H24 C27 1_555 1_555
H25 C27 1_555 1_555
H26 C27 1_555 1_555
C28 N4 1_555 1_555
C29 C28 1_555 1_555
H27 C29 1_555 1_555
C30 C29 1_555 1_555
H28 C30 1_555 1_555
C31 C30 1_555 1_555
C32 C31 1_555 1_555
H29 C32 1_555 1_555
C33 C28 1_555 1_555
C34 C33 1_555 1_555
C35 N4 1_555 1_555
H30 C35 1_555 1_555
C36 C34 1_555 1_555
H31 C36 1_555 1_555
C37 C36 1_555 1_555
H32 C37 1_555 1_555
C38 N3 1_555 1_555
H33 C38 1_555 1_555
H34 C38 1_555 1_555
C39 N3 1_555 1_555
H35 C39 1_555 1_555
H36 C39 1_555 1_555
C40 C37 1_555 1_555
C41 C40 1_555 1_555
H37 C41 1_555 1_555
H38 C41 1_555 1_555
C42 C36 1_555 1_555
C43 C42 1_555 1_555
H39 C43 1_555 1_555
C44 C43 1_555 1_555
H40 C44 1_555 1_555
C45 C44 1_555 1_555
H41 C45 1_555 1_555
C46 C45 1_555 1_555
H42 C46 1_555 1_555
C47 C42 1_555 1_555
H43 C47 1_555 1_555
C48 S2 1_555 1_555
C49 C48 1_555 1_555
H44 C49 1_555 1_555
C50 C49 1_555 1_555
H45 C50 1_555 1_555
C51 C50 1_555 1_555
C52 C51 1_555 1_555
H46 C52 1_555 1_555
C53 C48 1_555 1_555
H47 C53 1_555 1_555
C54 C51 1_555 1_555
H48 C54 1_555 1_555
H49 C54 1_555 1_555
H50 C54 1_555 1_555
C1 C6 1_555 1_555
C5 C6 1_555 1_555
C7 C8 1_555 1_555
C10 C11 1_555 1_555
C12 C13 1_555 1_555
C19 C20 1_555 1_555
C25 C26 1_555 1_555
C32 C33 1_555 1_555
C34 C35 1_555 1_555
C37 C38 1_555 1_555
C39 C40 1_555 1_555
C46 C47 1_555 1_555
C52 C53 1_555 1_555

#END
