
#######################################################################
#
#                 Cambridge Crystallographic Data Centre
#                                CCDC 
#
#######################################################################
#
# If this CIF has been generated from an entry in the Cambridge 
# Structural Database, then it will include bibliographic, chemical, 
# crystal, experimental, refinement or atomic coordinate data resulting 
# from the CCDC's data processing and validation procedures.
#
#######################################################################

data_MAPSIG
_chemical_formula_moiety         'C10 H9 N1 O2 S4'
_chemical_name_systematic        
9-Nitro-5,8-dihydro-1H,4H-2,3,6,7-tetrathia-anthracene
_symmetry_cell_setting           orthorhombic
_symmetry_space_group_name_H-M   'P b c a'
_symmetry_Int_Tables_number      61
_space_group_name_Hall           '-P 2ac 2ab'
loop_
_symmetry_equiv_pos_site_id
_symmetry_equiv_pos_as_xyz
1 x,y,z
2 1/2-x,-y,1/2+z
3 -x,1/2+y,1/2-z
4 1/2+x,1/2-y,-z
5 -x,-y,-z
6 1/2+x,y,1/2-z
7 x,1/2-y,1/2+z
8 1/2-x,1/2+y,z
_cell_length_a                   14.9439(10)
_cell_length_b                   8.1770(6)
_cell_length_c                   19.8869(13)
_cell_angle_alpha                90
_cell_angle_beta                 90
_cell_angle_gamma                90
_cell_volume                     2430.11
_exptl_crystal_colour            colorless
_exptl_crystal_description       prism
_chemical_melting_point          136-137deg.C
_cell_formula_units_Z            8
_exptl_crystal_recrystallization_method chloroform
loop_
_atom_site_label
_atom_site_type_symbol
_atom_site_fract_x
_atom_site_fract_y
_atom_site_fract_z
S1 S 0.05717(5) -0.13076(11) 0.80374(3)
S2 S 0.14543(4) -0.31520(10) 0.82067(3)
S3 S 0.28210(4) -0.05906(8) 0.44042(3)
S4 S 0.38016(4) 0.06776(8) 0.48900(3)
N1 N 0.04386(12) -0.0651(3) 0.58174(9)
O1 O 0.01992(11) 0.0751(2) 0.57078(9)
O2 O -0.00259(11) -0.1860(2) 0.57263(9)
C1 C 0.13458(13) -0.0897(3) 0.61047(11)
C2 C 0.13606(14) -0.1409(3) 0.67730(11)
C3 C 0.22110(14) -0.1690(3) 0.70469(11)
C4 C 0.29546(14) -0.1375(3) 0.66507(11)
H1 H 0.3516 -0.1551 0.6839
C5 C 0.29204(13) -0.0811(3) 0.59898(11)
C6 C 0.20771(14) -0.0589(3) 0.56898(11)
C7 C 0.04764(15) -0.1587(4) 0.71422(12)
H2 H 0.0235 -0.2667 0.7054
H3 H 0.0056 -0.0791 0.6966
C8 C 0.23899(16) -0.2286(3) 0.77609(11)
H4 H 0.2616 -0.1371 0.8021
H5 H 0.2861 -0.3102 0.7742
C9 C 0.19179(14) -0.0069(3) 0.49667(11)
H6 H 0.1828 0.1106 0.4955
H7 H 0.1373 -0.0581 0.4806
C10 C 0.38165(15) -0.0527(3) 0.56474(12)
H8 H 0.4075 -0.1585 0.5542
H9 H 0.4212 0.0003 0.5967
loop_
_geom_bond_atom_site_label_1
_geom_bond_atom_site_label_2
_geom_bond_site_symmetry_1
_geom_bond_site_symmetry_2
S1 S2 1_555 1_555
S2 C8 1_555 1_555
S3 S4 1_555 1_555
S4 C10 1_555 1_555
N1 O1 1_555 1_555
O2 N1 1_555 1_555
C1 N1 1_555 1_555
C2 C1 1_555 1_555
C3 C2 1_555 1_555
C4 C3 1_555 1_555
H1 C4 1_555 1_555
C5 C4 1_555 1_555
C6 C1 1_555 1_555
C7 S1 1_555 1_555
H2 C7 1_555 1_555
H3 C7 1_555 1_555
C8 C3 1_555 1_555
H4 C8 1_555 1_555
H5 C8 1_555 1_555
C9 S3 1_555 1_555
H6 C9 1_555 1_555
H7 C9 1_555 1_555
C10 C5 1_555 1_555
H8 C10 1_555 1_555
H9 C10 1_555 1_555
C2 C7 1_555 1_555
C5 C6 1_555 1_555
C6 C9 1_555 1_555

#END
