
#######################################################################
#
#                 Cambridge Crystallographic Data Centre
#                                CCDC 
#
#######################################################################
#
# If this CIF has been generated from an entry in the Cambridge 
# Structural Database, then it will include bibliographic, chemical, 
# crystal, experimental, refinement or atomic coordinate data resulting 
# from the CCDC's data processing and validation procedures.
#
#######################################################################

data_MAQBAI
_chemical_name_common            'Melaminium 3,5-dinitrobenzoate'
_chemical_formula_moiety         'C3 H7 N6 1+,C7 H3 N2 O6 1-'
_chemical_name_systematic        
'2,4,6-Triamino-1,3,5-triazin-1-ium 3,5-dinitrobenzoate'
_symmetry_cell_setting           triclinic
_symmetry_space_group_name_H-M   'P -1'
_symmetry_Int_Tables_number      2
_space_group_name_Hall           '-P 1'
loop_
_symmetry_equiv_pos_site_id
_symmetry_equiv_pos_as_xyz
1 x,y,z
2 -x,-y,-z
_cell_length_a                   8.2068(8)
_cell_length_b                   12.7017(14)
_cell_length_c                   13.3725(14)
_cell_angle_alpha                94.106(2)
_cell_angle_beta                 99.216(2)
_cell_angle_gamma                94.645(2)
_cell_volume                     1366.36
_exptl_crystal_colour            colorless
_exptl_crystal_description       plate
_cell_formula_units_Z            4
loop_
_atom_site_label
_atom_site_type_symbol
_atom_site_fract_x
_atom_site_fract_y
_atom_site_fract_z
O1 O 0.6656(3) 0.4325(2) 0.33862(18)
O2 O 0.8471(3) 0.3388(2) 0.42571(18)
O3 O 0.9833(4) 0.0072(2) 0.2561(3)
O4 O 0.9004(5) -0.0270(3) 0.0961(3)
O5 O 0.4601(5) 0.1596(3) -0.0714(2)
O6 O 0.3494(4) 0.2715(2) 0.0152(2)
N1 N 0.9045(4) 0.0260(3) 0.1755(3)
N2 N 0.4561(4) 0.2126(3) 0.0058(2)
C1 C 0.5882(4) 0.2060(3) 0.0927(2)
C2 C 0.6057(4) 0.2805(3) 0.1757(3)
H15 H 0.5360 0.3347 0.1757
C3 C 0.7283(4) 0.2733(2) 0.2586(2)
C4 C 0.8275(4) 0.1906(3) 0.2587(3)
H16 H 0.9081 0.1838 0.3147
C5 C 0.8051(4) 0.1178(3) 0.1743(3)
C6 C 0.6872(4) 0.1242(3) 0.0890(3)
H17 H 0.6758 0.0757 0.0322
C7 C 0.7484(4) 0.3551(3) 0.3483(2)
O7 O 0.7771(4) 0.8163(2) 0.3116(2)
O8 O 0.8834(4) 0.8616(2) 0.4651(3)
O9 O 0.7385(3) 1.1884(2) 0.63819(17)
O10 O 0.5261(3) 1.2663(2) 0.55944(18)
O11 O 0.2711(3) 1.1379(2) 0.2143(2)
O12 O 0.3151(4) 0.9852(3) 0.1530(2)
N3 N 0.6292(4) 1.1986(3) 0.5636(3)
N4 N 0.3428(4) 1.0583(2) 0.2188(2)
C8 C 0.6888(4) 0.9629(3) 0.3891(3)
C9 C 0.7139(4) 1.0376(3) 0.4717(3)
H18 H 0.7975 1.0329 0.5266
C10 C 0.6127(4) 1.1192(2) 0.4712(2)
C11 C 0.4900(4) 1.1266(2) 0.3878(2)
H19 H 0.4228 1.1822 0.3863
C12 C 0.4702(4) 1.0500(3) 0.3077(2)
C13 C 0.5667(4) 0.9667(3) 0.3057(3)
H20 H 0.5507 0.9155 0.2509
C14 C 0.7909(4) 0.8738(2) 0.3884(3)
N5 N 0.3882(3) 0.5571(2) 0.10130(19)
N6 N 0.1406(3) 0.6326(2) 0.03039(19)
N7 N 0.2771(3) 0.6891(2) 0.1950(2)
H1 H 0.285(5) 0.732(3) 0.2483(19)
N8 N 0.4997(4) 0.6072(2) 0.2680(2)
H2 H 0.5721 0.5621 0.2657
H3 H 0.4995 0.6461 0.3233
N9 N 0.2574(4) 0.5094(2) -0.0604(2)
H4 H 0.3326 0.4671 -0.0664
H5 H 0.1791 0.5136 -0.1107
N10 N 0.0420(4) 0.7604(3) 0.1298(2)
H6 H -0.0400 0.7654 0.0820
H7 H 0.0518 0.7993 0.1862
C15 C 0.3891(4) 0.6166(3) 0.1869(2)
C16 C 0.2621(4) 0.5678(3) 0.0258(2)
C17 C 0.1533(4) 0.6930(3) 0.1164(2)
N11 N 0.7816(4) 0.6229(2) 0.6774(2)
N12 N 0.9778(3) 0.5132(2) 0.7608(2)
N13 N 0.8578(4) 0.4728(2) 0.5904(2)
H8 H 0.858(4) 0.433(2) 0.5367(16)
N14 N 0.6781(4) 0.5786(3) 0.5093(2)
H9 H 0.6212 0.6326 0.5080
H10 H 0.6732 0.5367 0.4552
N15 N 1.0445(4) 0.3689(2) 0.6668(2)
H11 H 1.1115 0.3532 0.7187
H12 H 1.0324 0.3301 0.6103
N16 N 0.8944(3) 0.6576(2) 0.8438(2)
H13 H 0.8373 0.7113 0.8458
H14 H 0.9586 0.6434 0.8975
C18 C 0.9605(4) 0.4524(3) 0.6739(2)
C19 C 0.8834(4) 0.5966(3) 0.7580(2)
C20 C 0.7720(4) 0.5601(3) 0.5937(3)
loop_
_geom_bond_atom_site_label_1
_geom_bond_atom_site_label_2
_geom_bond_site_symmetry_1
_geom_bond_site_symmetry_2
O1 C7 1_555 1_555
O2 C7 1_555 1_555
O3 N1 1_555 1_555
O4 N1 1_555 1_555
O5 N2 1_555 1_555
O6 N2 1_555 1_555
O7 C14 1_555 1_555
O8 C14 1_555 1_555
O9 N3 1_555 1_555
O10 N3 1_555 1_555
O11 N4 1_555 1_555
O12 N4 1_555 1_555
N1 C5 1_555 1_555
N2 C1 1_555 1_555
N3 C10 1_555 1_555
N4 C12 1_555 1_555
N5 C15 1_555 1_555
N6 C16 1_555 1_555
N7 H1 1_555 1_555
N8 H2 1_555 1_555
H3 N8 1_555 1_555
N9 H4 1_555 1_555
H5 N9 1_555 1_555
N10 H6 1_555 1_555
H7 N10 1_555 1_555
N11 C19 1_555 1_555
N12 C18 1_555 1_555
N13 H8 1_555 1_555
N14 H9 1_555 1_555
H10 N14 1_555 1_555
N15 H11 1_555 1_555
H12 N15 1_555 1_555
N16 H13 1_555 1_555
H14 N16 1_555 1_555
C1 C2 1_555 1_555
C2 H15 1_555 1_555
C3 C2 1_555 1_555
C4 C3 1_555 1_555
H16 C4 1_555 1_555
C5 C4 1_555 1_555
C6 C1 1_555 1_555
H17 C6 1_555 1_555
C7 C3 1_555 1_555
C8 C9 1_555 1_555
C9 H18 1_555 1_555
C10 C9 1_555 1_555
C11 C10 1_555 1_555
H19 C11 1_555 1_555
C12 C11 1_555 1_555
C13 C8 1_555 1_555
H20 C13 1_555 1_555
C14 C8 1_555 1_555
C15 N7 1_555 1_555
C16 N5 1_555 1_555
C17 N6 1_555 1_555
C18 N13 1_555 1_555
C19 N12 1_555 1_555
C20 N11 1_555 1_555
N7 C17 1_555 1_555
N8 C15 1_555 1_555
N9 C16 1_555 1_555
N10 C17 1_555 1_555
N13 C20 1_555 1_555
N14 C20 1_555 1_555
N15 C18 1_555 1_555
N16 C19 1_555 1_555
C5 C6 1_555 1_555
C12 C13 1_555 1_555

#END
