
#######################################################################
#
#                 Cambridge Crystallographic Data Centre
#                                CCDC 
#
#######################################################################
#
# If this CIF has been generated from an entry in the Cambridge 
# Structural Database, then it will include bibliographic, chemical, 
# crystal, experimental, refinement or atomic coordinate data resulting 
# from the CCDC's data processing and validation procedures.
#
#######################################################################

data_MAQCOX
_chemical_formula_moiety         'C23 H25 N3 O5'
_chemical_name_systematic        
'Propyl 4-((4,6-dimethoxypyrimidin-2-yl)(2-hydroxybenzyl)amino)benzoate'
_symmetry_cell_setting           monoclinic
_symmetry_space_group_name_H-M   'P 21/c'
_symmetry_Int_Tables_number      14
_space_group_name_Hall           '-P 2ybc'
loop_
_symmetry_equiv_pos_site_id
_symmetry_equiv_pos_as_xyz
1 x,y,z
2 -x,1/2+y,1/2-z
3 -x,-y,-z
4 x,1/2-y,1/2+z
_cell_length_a                   19.2736(17)
_cell_length_b                   13.7880(13)
_cell_length_c                   7.8380(7)
_cell_angle_alpha                90
_cell_angle_beta                 98.989(2)
_cell_angle_gamma                90
_cell_volume                     2057.32
_exptl_crystal_colour            colorless
_cell_formula_units_Z            4
loop_
_atom_site_label
_atom_site_type_symbol
_atom_site_fract_x
_atom_site_fract_y
_atom_site_fract_z
O1 O 0.32040(6) 0.20436(8) 0.4757(2)
O2 O 0.07412(6) 0.20255(8) 0.44041(19)
O3 O 0.00709(7) 0.62130(9) 0.47407(17)
O4 O 0.46386(7) 0.67789(11) 0.1498(3)
O5 O 0.40405(7) 0.80601(9) 0.2151(2)
N1 N 0.25650(6) 0.34457(10) 0.43177(18)
N2 N 0.13254(7) 0.33868(10) 0.41816(19)
N3 N 0.18824(6) 0.48327(9) 0.37368(18)
C1 C 0.25799(8) 0.24956(12) 0.4523(2)
C2 C 0.19938(9) 0.19206(12) 0.4525(2)
C3 C 0.13734(8) 0.24275(12) 0.4374(2)
C4 C 0.19262(8) 0.38478(11) 0.4094(2)
C5 C 0.12325(8) 0.53395(12) 0.3952(2)
C6 C 0.12240(8) 0.57182(10) 0.5752(2)
C7 C 0.17851(9) 0.56552(12) 0.7074(2)
C8 C 0.17579(11) 0.60605(13) 0.8677(3)
C9 C 0.11563(11) 0.65321(14) 0.8964(3)
C10 C 0.05851(10) 0.65936(13) 0.7676(2)
C11 C 0.06159(8) 0.61808(11) 0.6078(2)
C12 C 0.24454(7) 0.53900(11) 0.3283(2)
C13 C 0.24722(9) 0.63811(12) 0.3617(2)
C14 C 0.29987(9) 0.69515(12) 0.3153(2)
C15 C 0.35252(8) 0.65479(12) 0.2366(2)
C16 C 0.34906(9) 0.55634(12) 0.1994(2)
C17 C 0.29584(8) 0.49915(12) 0.2412(2)
C18 C 0.38166(10) 0.26145(18) 0.4637(4)
C19 C 0.06909(12) 0.09950(13) 0.4443(3)
C20 C 0.41264(9) 0.71216(13) 0.1954(2)
C21 C 0.45944(13) 0.87049(17) 0.1827(5)
C22 C 0.4297(2) 0.9711(3) 0.1475(5)
C23 C 0.3885(2) 1.0077(2) 0.2688(5)
H1 H 0.2039(9) 0.1231(14) 0.462(3)
H2 H 0.0836(8) 0.4895(12) 0.357(2)
H3 H 0.1174(7) 0.5872(12) 0.311(2)
H4 H 0.2190(9) 0.5321(12) 0.680(2)
H5 H 0.2168(10) 0.6011(13) 0.959(3)
H6 H 0.1128(10) 0.6826(14) 1.009(3)
H7 H 0.0182(9) 0.6917(13) 0.789(2)
H8 H 0.2145(9) 0.6693(13) 0.426(2)
H9 H 0.2999(9) 0.7649(14) 0.341(2)
H10 H 0.3866(9) 0.5251(12) 0.138(2)
H11 H 0.2946(8) 0.4293(13) 0.210(2)
H12 H 0.3895(13) 0.311(2) 0.549(4)
H13 H 0.3778(12) 0.2992(19) 0.360(4)
H14 H 0.4181(12) 0.2131(17) 0.468(3)
H15 H 0.0872(10) 0.0737(14) 0.348(3)
H16 H 0.0943(12) 0.0709(18) 0.540(4)
H17 H 0.0206(11) 0.0822(15) 0.452(3)
H18 H 0.4951(16) 0.861(2) 0.268(4)
H19 H 0.4764(17) 0.853(2) 0.099(4)
H20 H 0.3744(17) 1.0721(15) 0.263(5)
H21 H 0.3545(11) 0.9631(17) 0.294(3)
H22 H -0.0319(15) 0.6344(19) 0.519(4)
C24? C 0.4516(3) 0.9603(4) 0.2765(8)
loop_
_geom_bond_atom_site_label_1
_geom_bond_atom_site_label_2
_geom_bond_site_symmetry_1
_geom_bond_site_symmetry_2
O1 C1 1_555 1_555
O2 C3 1_555 1_555
O3 C11 1_555 1_555
O4 C20 1_555 1_555
O5 C20 1_555 1_555
N1 C1 1_555 1_555
N2 C3 1_555 1_555
N3 C4 1_555 1_555
C1 C2 1_555 1_555
C2 C3 1_555 1_555
C4 N1 1_555 1_555
C5 N3 1_555 1_555
C6 C5 1_555 1_555
C7 C6 1_555 1_555
C8 C7 1_555 1_555
C9 C8 1_555 1_555
C10 C9 1_555 1_555
C11 C6 1_555 1_555
C12 N3 1_555 1_555
C13 C12 1_555 1_555
C14 C13 1_555 1_555
C15 C14 1_555 1_555
C16 C15 1_555 1_555
C17 C12 1_555 1_555
C18 O1 1_555 1_555
C19 O2 1_555 1_555
C20 C15 1_555 1_555
C21 O5 1_555 1_555
C22 C21 1_555 1_555
C23 C22 1_555 1_555
H1 C2 1_555 1_555
H2 C5 1_555 1_555
H3 C5 1_555 1_555
H4 C7 1_555 1_555
H5 C8 1_555 1_555
H6 C9 1_555 1_555
H7 C10 1_555 1_555
H8 C13 1_555 1_555
H9 C14 1_555 1_555
H10 C16 1_555 1_555
H11 C17 1_555 1_555
H12 C18 1_555 1_555
H13 C18 1_555 1_555
H14 C18 1_555 1_555
H15 C19 1_555 1_555
H16 C19 1_555 1_555
H17 C19 1_555 1_555
H18 C21 1_555 1_555
H19 C21 1_555 1_555
H20 C23 1_555 1_555
H21 C23 1_555 1_555
H22 O3 1_555 1_555
N2 C4 1_555 1_555
C10 C11 1_555 1_555
C16 C17 1_555 1_555

#END
