
#######################################################################
#
#                 Cambridge Crystallographic Data Centre
#                                CCDC 
#
#######################################################################
#
# If this CIF has been generated from an entry in the Cambridge 
# Structural Database, then it will include bibliographic, chemical, 
# crystal, experimental, refinement or atomic coordinate data resulting 
# from the CCDC's data processing and validation procedures.
#
#######################################################################

data_MAQWIM26
_chemical_formula_moiety         'C10 H6 D6 N2 O2'
_chemical_name_systematic        
4-hydroxy-N'-(hexadeuteropropan-2-ylidene)benzohydrazide
_symmetry_cell_setting           orthorhombic
_symmetry_space_group_name_H-M   'P n a 21'
_symmetry_Int_Tables_number      33
_space_group_name_Hall           'P 2c -2n'
loop_
_symmetry_equiv_pos_site_id
_symmetry_equiv_pos_as_xyz
1 x,y,z
2 -x,-y,1/2+z
3 1/2-x,1/2+y,1/2+z
4 1/2+x,1/2-y,z
_cell_length_a                   9.1643(5)
_cell_length_b                   7.2011(3)
_cell_length_c                   15.5857(6)
_cell_angle_alpha                90
_cell_angle_beta                 90
_cell_angle_gamma                90
_cell_volume                     1028.55
_exptl_crystal_colour            colorless
_exptl_crystal_description       Prismatic
_cell_formula_units_Z            4
loop_
_atom_site_label
_atom_site_type_symbol
_atom_site_fract_x
_atom_site_fract_y
_atom_site_fract_z
O1 O 0.25323(17) 0.6453(3) 0.27111(12)
H1 H 0.3104 0.6890 0.3062
O2 O 0.67775(16) 0.4144(2) -0.03292(11)
N1 N 0.49381(18) 0.2122(2) -0.05291(12)
H2 H 0.4130 0.1658 -0.0348
N2 N 0.56481(19) 0.1386(3) -0.12438(13)
C1 C 0.3280(2) 0.5850(3) 0.20172(14)
C2 C 0.2503(2) 0.5139(4) 0.13326(17)
H3 H 0.1488 0.5147 0.1347
C3 C 0.3211(2) 0.4421(4) 0.06323(15)
H4 H 0.2671 0.3936 0.0179
C4 C 0.4732(2) 0.4410(3) 0.05919(13)
C5 C 0.5497(2) 0.5214(3) 0.12599(16)
H5 H 0.6510 0.5277 0.1230
C6 C 0.4795(2) 0.5921(3) 0.19664(15)
H6 H 0.5332 0.6447 0.2411
C7 C 0.5562(2) 0.3590(3) -0.01305(14)
C8 C 0.5426(2) -0.0318(3) -0.14115(16)
C9 C 0.6134(4) -0.1056(5) -0.2206(2)
D1 D 0.5396 -0.1470 -0.2599
D2 D 0.6757 -0.2079 -0.2059
D3 D 0.6702 -0.0092 -0.2470
C10 C 0.4554(4) -0.1630(4) -0.0884(2)
D4 D 0.4762 -0.1430 -0.0288
D5 D 0.4801 -0.2882 -0.1037
D6 D 0.3534 -0.1424 -0.0988
loop_
_geom_bond_atom_site_label_1
_geom_bond_atom_site_label_2
_geom_bond_site_symmetry_1
_geom_bond_site_symmetry_2
O1 H1 1_555 1_555
O2 C7 1_555 1_555
N1 H2 1_555 1_555
N2 N1 1_555 1_555
C1 O1 1_555 1_555
C2 C1 1_555 1_555
H3 C2 1_555 1_555
C3 C2 1_555 1_555
H4 C3 1_555 1_555
C4 C3 1_555 1_555
C5 C4 1_555 1_555
H5 C5 1_555 1_555
C6 C1 1_555 1_555
H6 C6 1_555 1_555
C7 N1 1_555 1_555
C8 N2 1_555 1_555
C9 C8 1_555 1_555
D1 C9 1_555 1_555
D2 C9 1_555 1_555
D3 C9 1_555 1_555
C10 C8 1_555 1_555
D4 C10 1_555 1_555
D5 C10 1_555 1_555
D6 C10 1_555 1_555
C4 C7 1_555 1_555
C5 C6 1_555 1_555

#END
