
#######################################################################
#
#                 Cambridge Crystallographic Data Centre
#                                CCDC 
#
#######################################################################
#
# If this CIF has been generated from an entry in the Cambridge 
# Structural Database, then it will include bibliographic, chemical, 
# crystal, experimental, refinement or atomic coordinate data resulting 
# from the CCDC's data processing and validation procedures.
#
#######################################################################

data_MARJEX
_chemical_name_common            
'7-ethyl-10-hydroxycamptothecin methanol solvate'
_chemical_formula_moiety         'C22 H20 N2 O5,C1 H4 O1'
_chemical_name_systematic        
"4,11-diethyl-4,9-dihydroxy-1H-pyrano[3',4':6,7]indolizino[1,2-b]quinoline-3,14(4H,12H)-dione methanol solvate"
_chemical_properties_biological  'SN38 is an anticancer drug'
_symmetry_cell_setting           orthorhombic
_symmetry_space_group_name_H-M   'P 21 21 21'
_symmetry_Int_Tables_number      19
_space_group_name_Hall           'P 2ac 2ab'
loop_
_symmetry_equiv_pos_site_id
_symmetry_equiv_pos_as_xyz
1 x,y,z
2 1/2-x,-y,1/2+z
3 1/2+x,1/2-y,-z
4 -x,1/2+y,1/2-z
_cell_length_a                   7.306(5)
_cell_length_b                   8.476(5)
_cell_length_c                   31.937(5)
_cell_angle_alpha                90
_cell_angle_beta                 90
_cell_angle_gamma                90
_cell_volume                     1977.72
_exptl_crystal_colour            colorless
_exptl_crystal_description       Plate
_cell_formula_units_Z            4
loop_
_atom_site_label
_atom_site_type_symbol
_atom_site_fract_x
_atom_site_fract_y
_atom_site_fract_z
O1 O -0.1161(2) -0.0560(2) 0.78286(5)
O2 O -0.2036(3) -0.3001(2) 0.79405(6)
O3 O 0.0863(3) 0.3302(2) 1.16086(5)
H1 H 0.1082 0.2617 1.1783
O4 O 0.0236(4) 0.3712(2) 0.84130(6)
O5 O -0.0307(3) -0.3189(2) 0.86980(5)
H2 H -0.0209 -0.4059 0.8588
N1 N 0.0536(3) 0.2393(2) 0.90333(6)
N2 N 0.0700(4) 0.0596(3) 1.00311(7)
C1 C 0.0312(3) -0.0454(3) 0.86454(7)
C2 C 0.0731(4) 0.1326(3) 1.04141(7)
C3 C 0.0684(3) 0.1532(3) 0.97091(7)
C4 C 0.0587(3) 0.1047(3) 0.92684(7)
C5 C 0.0330(3) 0.2440(3) 0.86025(7)
C6 C 0.0219(3) 0.0897(3) 0.84131(7)
C7 C 0.0485(4) -0.0398(3) 0.90875(7)
H3 H 0.0528 -0.1316 0.9247
C8 C 0.0259(4) -0.2016(3) 0.84139(7)
C9 C 0.0810(3) 0.2648(3) 1.12217(7)
C10 C 0.0737(4) 0.2977(3) 1.04677(7)
C11 C -0.0075(3) 0.0806(3) 0.79508(7)
H4 H -0.0690 0.1758 0.7858
H5 H 0.1104 0.0758 0.7812
C12 C 0.2135(4) -0.2422(3) 0.82151(8)
H6 H 0.2090 -0.3490 0.8107
H7 H 0.2352 -0.1718 0.7981
C13 C 0.0693(5) 0.3186(3) 0.97242(8)
C14 C -0.1091(4) -0.1903(3) 0.80476(7)
C15 C 0.0712(8) 0.3927(3) 1.01024(9)
C16 C 0.3719(4) -0.2291(3) 0.85180(9)
H8 H 0.3903 -0.1204 0.8591
H9 H 0.4808 -0.2699 0.8389
H10 H 0.3451 -0.2887 0.8766
C17 C 0.0771(5) 0.3602(3) 1.08791(8)
H11 H 0.0767 0.4690 1.0916
C18 C 0.0831(8) 0.1021(4) 1.11676(9)
H12 H 0.0875 0.0363 1.1400
C19 C 0.0652(7) 0.3841(3) 0.92871(9)
H13 H -0.0406 0.4513 0.9244
H14 H 0.1756 0.4432 0.9225
C20 C 0.0789(10) 0.0382(4) 1.07756(10)
H15 H 0.0798 -0.0710 1.0747
C21 C 0.1474(6) 0.5701(6) 1.01165(15)
H16 H 0.2053 0.5001 1.0317
H17 H 0.1928 0.5478 0.9837
C22 C 0.1594(7) 0.6627(7) 1.01798(19)
H18 H 0.0524 0.7203 1.0096
H19 H 0.2648 0.7053 1.0040
H20 H 0.1752 0.6716 1.0477
O6 O 0.6698(3) 0.3871(2) 0.78032(6)
H26 H 0.7378 0.4611 0.7860
C25 C 0.5057(4) 0.4463(3) 0.76128(9)
H27 H 0.4352 0.5027 0.7818
H28 H 0.4349 0.3597 0.7506
H29 H 0.5372 0.5160 0.7387
C23? C -0.0124(6) 0.5645(6) 1.01344(15)
H21? H -0.0680 0.5353 0.9870
H22? H -0.0557 0.4957 1.0356
C24? C -0.0266(7) 0.6632(6) 1.01928(19)
H23? H 0.0792 0.7211 1.0102
H24? H -0.0416 0.6756 1.0490
H25? H -0.1331 0.7027 1.0051
loop_
_geom_bond_atom_site_label_1
_geom_bond_atom_site_label_2
_geom_bond_site_symmetry_1
_geom_bond_site_symmetry_2
O1 C11 1_555 1_555
O2 C14 1_555 1_555
O3 H1 1_555 1_555
O4 C5 1_555 1_555
O5 H2 1_555 1_555
N1 C4 1_555 1_555
N2 C2 1_555 1_555
C1 C6 1_555 1_555
C2 C10 1_555 1_555
C3 N2 1_555 1_555
C4 C3 1_555 1_555
C5 N1 1_555 1_555
C6 C5 1_555 1_555
C7 C1 1_555 1_555
H3 C7 1_555 1_555
C8 O5 1_555 1_555
C9 O3 1_555 1_555
C10 C15 1_555 1_555
C11 C6 1_555 1_555
H4 C11 1_555 1_555
H5 C11 1_555 1_555
C12 C8 1_555 1_555
H6 C12 1_555 1_555
H7 C12 1_555 1_555
C13 C3 1_555 1_555
C14 O1 1_555 1_555
C15 C13 1_555 1_555
C16 C12 1_555 1_555
H8 C16 1_555 1_555
H9 C16 1_555 1_555
H10 C16 1_555 1_555
C17 C9 1_555 1_555
H11 C17 1_555 1_555
C18 C9 1_555 1_555
H12 C18 1_555 1_555
C19 N1 1_555 1_555
H13 C19 1_555 1_555
H14 C19 1_555 1_555
C20 C2 1_555 1_555
H15 C20 1_555 1_555
C21 C15 1_555 1_555
H16 C21 1_555 1_555
H17 C21 1_555 1_555
C22 C21 1_555 1_555
H18 C22 1_555 1_555
H19 C22 1_555 1_555
H20 C22 1_555 1_555
O6 H26 1_555 1_555
C25 O6 1_555 1_555
H27 C25 1_555 1_555
H28 C25 1_555 1_555
H29 C25 1_555 1_555
C1 C8 1_555 1_555
C4 C7 1_555 1_555
C8 C14 1_555 1_555
C10 C17 1_555 1_555
C13 C19 1_555 1_555
C18 C20 1_555 1_555

#END
