
#######################################################################
#
#                 Cambridge Crystallographic Data Centre
#                                CCDC 
#
#######################################################################
#
# If this CIF has been generated from an entry in the Cambridge 
# Structural Database, then it will include bibliographic, chemical, 
# crystal, experimental, refinement or atomic coordinate data resulting 
# from the CCDC's data processing and validation procedures.
#
#######################################################################

data_MARNIF
_chemical_name_common            
't-butyl (2-(6-allyl-1,1-dioxido-5,9-dioxo-2,3,4,5,6,9-hexahydro-[1,4]thiazino[2,3-f]indol-8-yl)ethyl)carbamate'
_chemical_formula_moiety         'C20 H25 N3 O6 S1'
_chemical_name_systematic        
't-butyl {2-[1,1,5,9-tetraoxo-6-(prop-2-en-1-yl)-2,3,4,5,6,9-hexahydro-1H-[1,4]thiazino[2,3-f]indol-8-yl]ethyl}carbamate'
_symmetry_cell_setting           triclinic
_symmetry_space_group_name_H-M   'P -1'
_symmetry_Int_Tables_number      2
_space_group_name_Hall           '-P 1'
loop_
_symmetry_equiv_pos_site_id
_symmetry_equiv_pos_as_xyz
1 x,y,z
2 -x,-y,-z
_cell_length_a                   10.2992(5)
_cell_length_b                   10.7203(5)
_cell_length_c                   10.8705(7)
_cell_angle_alpha                117.194(6)
_cell_angle_beta                 102.032(5)
_cell_angle_gamma                93.579(4)
_cell_volume                     1026.8
_exptl_crystal_colour            'pale pink'
_exptl_crystal_description       block
_cell_formula_units_Z            2
_exptl_crystal_recrystallization_method water/N,N-dimethylformamide
loop_
_atom_site_label
_atom_site_type_symbol
_atom_site_fract_x
_atom_site_fract_y
_atom_site_fract_z
S1 S 0.17031(4) 0.09830(5) 0.21174(5)
O1 O 0.21287(12) -0.06439(13) 0.58466(14)
O2 O 0.45057(13) 0.25592(14) 0.39847(14)
O3 O 0.18424(14) 0.23644(14) 0.22050(15)
O4 O 0.20121(13) -0.01584(14) 0.09066(13)
O5 O 1.04298(14) 0.34932(14) 0.71449(18)
O6 O 1.10311(13) 0.57857(12) 0.76345(15)
N1 N 0.08197(15) -0.07305(16) 0.34622(17)
N2 N 0.48790(13) 0.11452(15) 0.74214(15)
N3 N 0.91579(15) 0.51856(17) 0.80427(19)
C1 C 0.00304(17) 0.0461(2) 0.2100(2)
H1 H -0.0202 0.1203 0.2928
H2 H -0.0601 0.0338 0.1225
C2 C -0.00820(18) -0.0914(2) 0.2154(2)
H3 H -0.1013 -0.1222 0.2113
H4 H 0.0148 -0.1655 0.1322
C3 C 0.20007(16) 0.01480(17) 0.41232(17)
C4 C 0.27004(16) 0.01110(17) 0.54808(18)
C5 C 0.40010(16) 0.10031(17) 0.62126(17)
C6 C 0.60016(16) 0.20830(18) 0.77425(18)
H5 H 0.6755 0.2366 0.8530
C7 C 0.58852(16) 0.25683(17) 0.67468(18)
C8 C 0.46056(15) 0.18636(17) 0.57621(17)
C9 C 0.39447(16) 0.18924(17) 0.44454(18)
C10 C 0.25873(16) 0.10295(17) 0.36966(17)
C11 C 0.46501(17) 0.04517(19) 0.82636(19)
H6 H 0.5524 0.0368 0.8758
H7 H 0.4137 -0.0515 0.7609
C12 C 0.39089(18) 0.1222(2) 0.9345(2)
H8 H 0.3633 0.0751 0.9819
C13 C 0.3602(2) 0.2478(2) 0.9704(2)
H9 H 0.3854 0.2996 0.9262
H10 H 0.3128 0.2869 1.0405
C14 C 0.69197(17) 0.36106(19) 0.6734(2)
H11 H 0.6493 0.4379 0.6671
H12 H 0.7252 0.3125 0.5881
C15 C 0.81048(17) 0.42487(19) 0.8067(2)
H13 H 0.7775 0.4783 0.8913
H14 H 0.8487 0.3473 0.8163
C16 C 1.02269(18) 0.47116(18) 0.7558(2)
C17 C 1.22547(18) 0.55617(18) 0.7118(2)
C18 C 1.3213(2) 0.5005(2) 0.7925(3)
H15 H 1.3334 0.5591 0.8948
H16 H 1.4078 0.5039 0.7710
H17 H 1.2841 0.4028 0.7635
C19 C 1.1879(2) 0.4585(3) 0.5521(2)
H18 H 1.1473 0.3644 0.5309
H19 H 1.2683 0.4522 0.5179
H20 H 1.1240 0.4960 0.5048
C20 C 1.2845(2) 0.7057(2) 0.7483(3)
H21 H 1.2226 0.7386 0.6940
H22 H 1.3701 0.7053 0.7242
H23 H 1.2987 0.7690 0.8502
H24 H 0.064(2) -0.126(2) 0.379(2)
H25 H 0.903(2) 0.599(2) 0.812(2)
loop_
_geom_bond_atom_site_label_1
_geom_bond_atom_site_label_2
_geom_bond_site_symmetry_1
_geom_bond_site_symmetry_2
S1 O3 1_555 1_555
O1 C4 1_555 1_555
O2 C9 1_555 1_555
O4 S1 1_555 1_555
O5 C16 1_555 1_555
O6 C16 1_555 1_555
N1 C2 1_555 1_555
N2 C5 1_555 1_555
N3 C15 1_555 1_555
C1 S1 1_555 1_555
H1 C1 1_555 1_555
H2 C1 1_555 1_555
C2 C1 1_555 1_555
H3 C2 1_555 1_555
H4 C2 1_555 1_555
C3 N1 1_555 1_555
C4 C3 1_555 1_555
C5 C4 1_555 1_555
C6 N2 1_555 1_555
H5 C6 1_555 1_555
C7 C6 1_555 1_555
C8 C5 1_555 1_555
C9 C8 1_555 1_555
C10 S1 1_555 1_555
C11 N2 1_555 1_555
H6 C11 1_555 1_555
H7 C11 1_555 1_555
C12 C11 1_555 1_555
H8 C12 1_555 1_555
C13 C12 1_555 1_555
H9 C13 1_555 1_555
H10 C13 1_555 1_555
C14 C7 1_555 1_555
H11 C14 1_555 1_555
H12 C14 1_555 1_555
C15 C14 1_555 1_555
H13 C15 1_555 1_555
H14 C15 1_555 1_555
C16 N3 1_555 1_555
C17 O6 1_555 1_555
C18 C17 1_555 1_555
H15 C18 1_555 1_555
H16 C18 1_555 1_555
H17 C18 1_555 1_555
C19 C17 1_555 1_555
H18 C19 1_555 1_555
H19 C19 1_555 1_555
H20 C19 1_555 1_555
C20 C17 1_555 1_555
H21 C20 1_555 1_555
H22 C20 1_555 1_555
H23 C20 1_555 1_555
H24 N1 1_555 1_555
H25 N3 1_555 1_555
C3 C10 1_555 1_555
C7 C8 1_555 1_555
C9 C10 1_555 1_555

#END
