
#######################################################################
#
#                 Cambridge Crystallographic Data Centre
#                                CCDC 
#
#######################################################################
#
# If this CIF has been generated from an entry in the Cambridge 
# Structural Database, then it will include bibliographic, chemical, 
# crystal, experimental, refinement or atomic coordinate data resulting 
# from the CCDC's data processing and validation procedures.
#
#######################################################################

data_MARPUS
_chemical_formula_moiety         'C16 H19 N5 O1'
_chemical_name_systematic        
2-Amino-3-((4-(diethylamino)-2-methoxybenzylidene)amino)but-2-enedinitrile
_symmetry_cell_setting           monoclinic
_symmetry_space_group_name_H-M   'P 21/n'
_symmetry_Int_Tables_number      14
_space_group_name_Hall           '-P 2yn'
loop_
_symmetry_equiv_pos_site_id
_symmetry_equiv_pos_as_xyz
1 x,y,z
2 1/2-x,1/2+y,1/2-z
3 -x,-y,-z
4 1/2+x,1/2-y,1/2+z
_cell_length_a                   10.9025(2)
_cell_length_b                   12.9499(2)
_cell_length_c                   11.8235(2)
_cell_angle_alpha                90
_cell_angle_beta                 106.6478(7)
_cell_angle_gamma                90
_cell_volume                     1599.34
_exptl_crystal_colour            red
_exptl_crystal_description       block
_cell_formula_units_Z            4
loop_
_atom_site_label
_atom_site_type_symbol
_atom_site_fract_x
_atom_site_fract_y
_atom_site_fract_z
O1 O 0.86356(15) 0.44780(13) 1.11970(15)
N1 N 0.1991(2) 0.14277(17) 0.7897(2)
N2 N 0.27784(19) 0.38654(16) 0.72434(18)
N3 N 0.5376(2) 0.17572(19) 1.0343(2)
N4 N 0.51700(17) 0.40849(15) 0.88307(17)
N5 N 0.91354(19) 0.78646(16) 0.96840(19)
C1 C 0.2561(2) 0.2175(2) 0.7954(2)
C2 C 0.3289(2) 0.31106(18) 0.8015(2)
C3 C 0.4461(2) 0.31923(17) 0.8833(2)
C4 C 0.4931(2) 0.2371(2) 0.9661(2)
C5 C 0.6251(2) 0.42294(18) 0.9621(2)
C6 C 0.7007(2) 0.51409(18) 0.9615(2)
C7 C 0.6566(2) 0.5941(2) 0.8818(2)
C8 C 0.7250(2) 0.6827(2) 0.8819(2)
C9 C 0.8453(2) 0.69723(19) 0.9661(2)
C10 C 0.8915(2) 0.61722(18) 1.0455(2)
C11 C 0.8218(2) 0.52788(18) 1.0441(2)
C12 C 0.9831(2) 0.4574(2) 1.2081(2)
C13 C 0.8732(3) 0.8663(2) 0.8784(2)
C14 C 0.7810(3) 0.9423(2) 0.9045(3)
C15 C 1.0256(2) 0.8106(2) 1.0666(2)
C16 C 1.1501(2) 0.7732(2) 1.0486(2)
H1 H 0.3232 0.4494 0.7257
H2 H 0.1966 0.3770 0.6683
H3 H 0.6550 0.3724 1.0218
H4 H 0.5759 0.5864 0.8244
H5 H 0.6920 0.7350 0.8249
H6 H 0.9726 0.6243 1.1024
H7 H 1.0491 0.4316 1.1780
H8 H 0.9808 0.4185 1.2756
H9 H 0.9994 0.5279 1.2295
H10 H 0.9471 0.9029 0.8735
H11 H 0.8335 0.8344 0.8047
H12 H 0.6959 0.9186 0.8707
H13 H 0.7910 1.0082 0.8729
H14 H 0.7976 0.9476 0.9877
H15 H 1.0305 0.8833 1.0780
H16 H 1.0155 0.7781 1.1354
H17 H 1.1671 0.7046 1.0772
H18 H 1.2188 0.8169 1.0887
H19 H 1.1413 0.7745 0.9664
loop_
_geom_bond_atom_site_label_1
_geom_bond_atom_site_label_2
_geom_bond_site_symmetry_1
_geom_bond_site_symmetry_2
O1 C11 1_555 1_555
N1 C1 1_555 1_555
N2 C2 1_555 1_555
N3 C4 1_555 1_555
N4 C3 1_555 1_555
N5 C9 1_555 1_555
C1 C2 1_555 1_555
C2 C3 1_555 1_555
C3 C4 1_555 1_555
C5 N4 1_555 1_555
C6 C5 1_555 1_555
C7 C6 1_555 1_555
C8 C7 1_555 1_555
C9 C8 1_555 1_555
C10 C9 1_555 1_555
C11 C6 1_555 1_555
C12 O1 1_555 1_555
C13 N5 1_555 1_555
C14 C13 1_555 1_555
C15 N5 1_555 1_555
C16 C15 1_555 1_555
H1 N2 1_555 1_555
H2 N2 1_555 1_555
H3 C5 1_555 1_555
H4 C7 1_555 1_555
H5 C8 1_555 1_555
H6 C10 1_555 1_555
H7 C12 1_555 1_555
H8 C12 1_555 1_555
H9 C12 1_555 1_555
H10 C13 1_555 1_555
H11 C13 1_555 1_555
H12 C14 1_555 1_555
H13 C14 1_555 1_555
H14 C14 1_555 1_555
H15 C15 1_555 1_555
H16 C15 1_555 1_555
H17 C16 1_555 1_555
H18 C16 1_555 1_555
H19 C16 1_555 1_555
C10 C11 1_555 1_555

#END
