
#######################################################################
#
#                 Cambridge Crystallographic Data Centre
#                                CCDC 
#
#######################################################################
#
# If this CIF has been generated from an entry in the Cambridge 
# Structural Database, then it will include bibliographic, chemical, 
# crystal, experimental, refinement or atomic coordinate data resulting 
# from the CCDC's data processing and validation procedures.
#
#######################################################################

data_MARVIM
_chemical_formula_moiety         'C10 H10 N2 2+,2(C5 H3 N2 O4 1-),4(H2 O1)'
_chemical_name_systematic        
"4,4'-bipyridinium bis(3-carboxy-1H-pyrazole-5-carboxylate) tetrahydrate"
_symmetry_cell_setting           triclinic
_symmetry_space_group_name_H-M   'P -1'
_symmetry_Int_Tables_number      2
_space_group_name_Hall           '-P 1'
loop_
_symmetry_equiv_pos_site_id
_symmetry_equiv_pos_as_xyz
1 x,y,z
2 -x,-y,-z
_cell_length_a                   7.1346(6)
_cell_length_b                   8.5912(8)
_cell_length_c                   11.0113(9)
_cell_angle_alpha                88.068(7)
_cell_angle_beta                 71.416(8)
_cell_angle_gamma                68.866(8)
_cell_volume                     594.191
_exptl_crystal_colour            colorless
_exptl_crystal_description       block
_cell_formula_units_Z            1
loop_
_atom_site_label
_atom_site_type_symbol
_atom_site_fract_x
_atom_site_fract_y
_atom_site_fract_z
C1 C 0.5929(2) 0.25542(17) 0.30079(14)
C2 C 0.6175(2) 0.18018(17) 0.41122(14)
H1 H 0.5393 0.2230 0.4962
C3 C 0.7822(2) 0.02910(17) 0.36780(14)
C4 C 0.4421(2) 0.42062(18) 0.28685(15)
C5 C 0.8893(2) -0.11111(17) 0.43475(15)
N1 N 0.8463(2) 0.02039(14) 0.23803(12)
H2 H 0.9481 -0.0638 0.1891
N2 N 0.73415(19) 0.15711(15) 0.19420(12)
O1 O 0.30665(17) 0.49988(13) 0.39789(10)
H3 H 0.2031 0.6066 0.3857
O2 O 0.44479(17) 0.47515(13) 0.18328(11)
O3 O 0.82225(16) -0.09716(13) 0.55458(10)
O4 O 1.03891(19) -0.23227(13) 0.36327(11)
C6 C 0.9389(3) 0.4402(2) 0.28340(16)
H4 H 0.8599 0.4893 0.3669
C7 C 0.9024(3) 0.52697(19) 0.18088(15)
H5 H 0.7992 0.6344 0.1951
C8 C 1.0193(2) 0.45465(18) 0.05650(14)
C9 C 1.1726(3) 0.2948(2) 0.04069(16)
H6 H 1.2547 0.2424 -0.0415
C10 C 1.2030(3) 0.2142(2) 0.14641(17)
H7 H 1.3068 0.1074 0.1355
N3 N 1.0855(2) 0.28734(16) 0.26413(13)
H8 H 1.1051 0.2342 0.3294
C6A C 1.0611(3) 0.5598(2) -0.28340(16)
H4A H 1.1401 0.5107 -0.3669
C7A C 1.0976(3) 0.47303(19) -0.18088(15)
H5A H 1.2008 0.3656 -0.1951
C8A C 0.9807(2) 0.54535(18) -0.05650(14)
C9A C 0.8274(3) 0.7052(2) -0.04069(16)
H6A H 0.7453 0.7576 0.0415
C10A C 0.7970(3) 0.7858(2) -0.14641(17)
H7A H 0.6932 0.8926 -0.1355
N3A N 0.9145(2) 0.71266(16) -0.26413(13)
H8A H 0.8949 0.7658 -0.3294
O5 O 1.2139(2) -0.22191(15) 0.07133(12)
H9 H 1.2568 -0.2138 -0.0228
H10 H 1.2681 -0.3099 0.0901
O6 O 0.4619(2) 0.85226(16) 0.24748(13)
H11 H 0.3750 0.9261 0.3147
H12 H 0.3790 0.8170 0.2230
loop_
_geom_bond_atom_site_label_1
_geom_bond_atom_site_label_2
_geom_bond_site_symmetry_1
_geom_bond_site_symmetry_2
C1 C2 1_555 1_555
C2 H1 1_555 1_555
C3 C2 1_555 1_555
C4 C1 1_555 1_555
C5 C3 1_555 1_555
N1 C3 1_555 1_555
H2 N1 1_555 1_555
N2 C1 1_555 1_555
O1 C4 1_555 1_555
H3 O1 1_555 1_555
O2 C4 1_555 1_555
O3 C5 1_555 1_555
O4 C5 1_555 1_555
C6 H4 1_555 1_555
C7 C6 1_555 1_555
H5 C7 1_555 1_555
C8 C7 1_555 1_555
C9 C8 1_555 1_555
H6 C9 1_555 1_555
C10 C9 1_555 1_555
H7 C10 1_555 1_555
N3 C6 1_555 1_555
H8 N3 1_555 1_555
O5 H9 1_555 1_555
H10 O5 1_555 1_555
O6 H11 1_555 1_555
H12 O6 1_555 1_555
C6A H4A 1_555 1_555
C7A C6A 1_555 1_555
H5A C7A 1_555 1_555
C8A C8 1_555 1_555
C9A C8A 1_555 1_555
H6A C9A 1_555 1_555
C10A C9A 1_555 1_555
H7A C10A 1_555 1_555
N3A C6A 1_555 1_555
H8A N3A 1_555 1_555
N1 N2 1_555 1_555
C10 N3 1_555 1_555
C7A C8A 1_555 1_555
C10A N3A 1_555 1_555

#END
