
#######################################################################
#
#                 Cambridge Crystallographic Data Centre
#                                CCDC 
#
#######################################################################
#
# If this CIF has been generated from an entry in the Cambridge 
# Structural Database, then it will include bibliographic, chemical, 
# crystal, experimental, refinement or atomic coordinate data resulting 
# from the CCDC's data processing and validation procedures.
#
#######################################################################

data_MAVKUQ
_chemical_formula_moiety         'C18 H7 Cl4 F3 N4 O1'
_chemical_name_systematic        
5-(2,4-Dichlorobenzamido)-1-(2,6-dichloro-4-(trifluoromethyl)phenyl)-1H-pyrazole-3-carbonitrile
_symmetry_cell_setting           monoclinic
_symmetry_space_group_name_H-M   'P 21/n'
_symmetry_Int_Tables_number      14
_space_group_name_Hall           '-P 2yn'
loop_
_symmetry_equiv_pos_site_id
_symmetry_equiv_pos_as_xyz
1 x,y,z
2 1/2-x,1/2+y,1/2-z
3 -x,-y,-z
4 1/2+x,1/2-y,1/2+z
_cell_length_a                   7.7760(11)
_cell_length_b                   16.4530(16)
_cell_length_c                   16.6220(16)
_cell_angle_alpha                90
_cell_angle_beta                 99.31(3)
_cell_angle_gamma                90
_cell_volume                     2098.58
_exptl_crystal_colour            colorless
_exptl_crystal_description       block
_chemical_melting_point          '505-506 K'
_cell_formula_units_Z            4
_exptl_crystal_recrystallization_method acetone
loop_
_atom_site_label
_atom_site_type_symbol
_atom_site_fract_x
_atom_site_fract_y
_atom_site_fract_z
Cl1 Cl 0.85543(18) 0.91195(11) 0.22140(10)
Cl2 Cl 0.3192(2) 0.72751(11) 0.27660(11)
Cl3 Cl 0.9410(4) 0.73550(16) 0.05278(14)
Cl4 Cl 0.7241(3) 0.49917(13) -0.15813(9)
O1 O 0.9513(6) 0.5777(3) 0.2392(2)
F1 F 0.0914(11) 0.9348(5) 0.0479(6)
F2 F 0.1704(16) 1.0236(5) 0.1032(6)
F3 F 0.2869(10) 0.9906(9) 0.0181(6)
N1 N 0.6910(5) 0.7792(2) 0.3001(2)
N2 N 0.7298(6) 0.8052(3) 0.3781(2)
N3 N 0.9928(7) 0.7688(3) 0.5611(3)
N4 N 0.7663(6) 0.6815(3) 0.2071(2)
H1 H 0.6938 0.7041 0.1691
C1 C 0.2354(10) 0.9653(5) 0.0729(5)
C2 C 0.3539(7) 0.9168(3) 0.1324(3)
C3 C 0.2871(6) 0.8542(3) 0.1729(3)
H2 H 0.1683 0.8429 0.1631
C4 C 0.3983(6) 0.8088(3) 0.2280(3)
C5 C 0.5741(6) 0.8257(3) 0.2430(2)
C6 C 0.6372(6) 0.8890(3) 0.2017(3)
C7 C 0.5268(7) 0.9348(3) 0.1460(3)
H3 H 0.5700 0.9772 0.1182
C8 C 0.8497(6) 0.7522(3) 0.4112(3)
C9 C 0.8913(7) 0.6949(3) 0.3565(3)
H4 H 0.9725 0.6531 0.3661
C10 C 0.7853(6) 0.7139(3) 0.2845(3)
C11 C 0.9263(7) 0.7620(3) 0.4954(3)
C12 C 0.8574(7) 0.6152(3) 0.1881(3)
C13 C 0.8246(7) 0.5903(3) 0.1004(3)
C14 C 0.8574(8) 0.6381(4) 0.0366(3)
C15 C 0.8280(9) 0.6100(4) -0.0433(3)
H5 H 0.8531 0.6426 -0.0856
C16 C 0.7623(7) 0.5346(4) -0.0585(3)
C17 C 0.7324(10) 0.4848(4) 0.0033(4)
H6 H 0.6906 0.4323 -0.0076
C18 C 0.7651(10) 0.5136(3) 0.0823(3)
H7 H 0.7458 0.4794 0.1245
loop_
_geom_bond_atom_site_label_1
_geom_bond_atom_site_label_2
_geom_bond_site_symmetry_1
_geom_bond_site_symmetry_2
Cl1 C6 1_555 1_555
Cl2 C4 1_555 1_555
Cl3 C14 1_555 1_555
Cl4 C16 1_555 1_555
O1 C12 1_555 1_555
F1 C1 1_555 1_555
F2 C1 1_555 1_555
F3 C1 1_555 1_555
N1 N2 1_555 1_555
N2 C8 1_555 1_555
N3 C11 1_555 1_555
N4 H1 1_555 1_555
C1 C2 1_555 1_555
C2 C3 1_555 1_555
C3 H2 1_555 1_555
C4 C3 1_555 1_555
C5 N1 1_555 1_555
C6 C5 1_555 1_555
C7 C2 1_555 1_555
H3 C7 1_555 1_555
C8 C9 1_555 1_555
C9 H4 1_555 1_555
C10 N1 1_555 1_555
C11 C8 1_555 1_555
C12 N4 1_555 1_555
C13 C12 1_555 1_555
C14 C13 1_555 1_555
C15 C14 1_555 1_555
H5 C15 1_555 1_555
C16 C15 1_555 1_555
C17 C16 1_555 1_555
H6 C17 1_555 1_555
C18 C13 1_555 1_555
H7 C18 1_555 1_555
N4 C10 1_555 1_555
C4 C5 1_555 1_555
C6 C7 1_555 1_555
C9 C10 1_555 1_555
C17 C18 1_555 1_555

#END
