
#######################################################################
#
#                 Cambridge Crystallographic Data Centre
#                                CCDC 
#
#######################################################################
#
# If this CIF has been generated from an entry in the Cambridge 
# Structural Database, then it will include bibliographic, chemical, 
# crystal, experimental, refinement or atomic coordinate data resulting 
# from the CCDC's data processing and validation procedures.
#
#######################################################################

data_MAVZER
_chemical_formula_moiety         'C15 H15 Cl1 O5'
_chemical_name_systematic        
'methyl 5-chloro-3-oxo-2-(4-oxopentan-2-yl)-2,3-dihydro-1-benzofuran-2-carboxylate'
_symmetry_cell_setting           hexagonal
_symmetry_space_group_name_H-M   'P 65'
_symmetry_Int_Tables_number      170
_space_group_name_Hall           'P 65'
loop_
_symmetry_equiv_pos_site_id
_symmetry_equiv_pos_as_xyz
1 x,y,z
2 -y,x-y,2/3+z
3 -x+y,-x,1/3+z
4 -x,-y,1/2+z
5 y,-x+y,1/6+z
6 x-y,x,5/6+z
_cell_length_a                   15.8422(17)
_cell_length_b                   15.8422(17)
_cell_length_c                   11.1926(12)
_cell_angle_alpha                90
_cell_angle_beta                 90
_cell_angle_gamma                120
_cell_volume                     2432.72
_exptl_crystal_colour            colorless
_exptl_crystal_description       block
_chemical_melting_point          '135 deg.C'
_cell_formula_units_Z            6
_chemical_properties_physical    ', Heat-sensitive'
_exptl_crystal_recrystallization_method dichloromethane
_exptl_crystal_preparation       ', Luminescent'
loop_
_atom_site_label
_atom_site_type_symbol
_atom_site_fract_x
_atom_site_fract_y
_atom_site_fract_z
Cl1 Cl 0.84041(11) 0.4184(3) 1.0294(5)
O1 O 0.4142(8) 0.2234(8) 0.9910(10)
O2 O 0.5051(10) 0.4798(9) 0.9691(12)
C1 C 0.4990(9) 0.3987(8) 0.9829(11)
C2 C 0.5666(6) 0.3571(7) 1.0101(8)
C3 C 0.6666(8) 0.4097(9) 1.0132(8)
H1 H 0.701113 0.478390 1.002870
C4 C 0.7138(4) 0.3596(9) 1.0316(13)
C5 C 0.6639(8) 0.2569(8) 1.0422(8)
H2 H 0.700245 0.224271 1.050130
C6 C 0.5623(8) 0.2026(8) 1.0413(9)
C7 C 0.5166(4) 0.2608(9) 1.0182(11)
H3 H 0.165364 0.188486 1.054367
H4 H 0.232848 0.143761 1.018790
H5 H 0.332625 0.245533 1.200267
C8 C 0.2777(13) 0.3245(14) 1.3769(15)
H6 H 0.220028 0.319393 1.416133
H7 H 0.335384 0.386205 1.399330
H8 H 0.286339 0.270048 1.401958
H9 H 0.318618 0.395340 0.634929
O3 O 0.3763(11) 0.2255(9) 0.7616(11)
O4 O 0.3641(10) 0.3626(9) 0.7841(8)
O5 O 0.2033(9) 0.3393(9) 1.1910(10)
C9 C 0.3998(9) 0.3032(9) 0.9599(10)
C10 C 0.3108(9) 0.2951(9) 1.0316(10)
H10 H 0.299266 0.349050 1.006202
C11 C 0.2193(8) 0.1968(10) 1.0035(12)
H11 H 0.201556 0.195458 0.919358
C12 C 0.3344(11) 0.3054(11) 1.1713(12)
H12 H 0.400927 0.360889 1.184698
C13 C 0.2641(11) 0.3212(11) 1.2403(13)
C14 C 0.3780(12) 0.2935(9) 0.8224(11)
C15 C 0.3288(15) 0.3434(14) 0.6608(15)
H13 H 0.375798 0.340140 0.609789
H14 H 0.268338 0.282750 0.657109
O6? O 0.4199(9) 0.1947(9) 1.0561(12)
O7? O 0.3678(11) 0.1466(10) 1.2871(12)
O8? O 0.3536(11) 0.0016(10) 1.2664(11)
O9? O 0.1978(14) -0.1316(12) 0.8631(18)
C16? C 0.3985(14) 0.0976(13) 1.0960(15)
C17? C 0.3179(12) 0.0195(13) 1.0218(15)
H15? H 0.309039 -0.044263 1.050368
C18? C 0.2213(14) 0.019(2) 1.050(2)
H16? H 0.165802 -0.043006 1.023298
H17? H 0.220946 0.072955 1.008371
H18? H 0.216474 0.025877 1.136376
C19? C 0.3357(14) 0.0237(14) 0.8981(16)
H19? H 0.402512 0.035048 0.886321
H20? H 0.334187 0.080970 0.865453
C20? C 0.2640(14) -0.0679(15) 0.8226(16)
C21? C 0.2749(16) -0.0558(16) 0.6900(15)
H21? H 0.230175 -0.117801 0.651103
H22? H 0.342124 -0.035963 0.667614
H23? H 0.259663 -0.005781 0.664499
C22? C 0.3736(12) 0.0904(12) 1.2285(13)
C23? C 0.3420(15) -0.0224(15) 1.3936(14)
H24? H 0.329679 -0.088979 1.404525
H25? H 0.286913 -0.017525 1.425227
H26? H 0.401629 0.023282 1.436250
H27? H 0.531850 0.391249 1.001904
H28? H 0.526454 0.134239 1.054531
O10? O 0.5103(8) 0.0321(9) 1.0802(9)
C24? C 0.4932(15) 0.0988(15) 1.0819(17)
loop_
_geom_bond_atom_site_label_1
_geom_bond_atom_site_label_2
_geom_bond_site_symmetry_1
_geom_bond_site_symmetry_2
Cl1 C4 1_555 1_555
O1 C7 1_555 1_555
O2 C1 1_555 1_555
C1 C2 1_555 1_555
C2 C3 1_555 1_555
C3 H1 1_555 1_555
C4 C3 1_555 1_555
C5 C4 1_555 1_555
H2 C5 1_555 1_555
C6 C5 1_555 1_555
C7 C2 1_555 1_555
H3 C11 1_555 1_555
H4 C11 1_555 1_555
H5 C12 1_555 1_555
C8 H6 1_555 1_555
H7 C8 1_555 1_555
H8 C8 1_555 1_555
H9 C15 1_555 1_555
O3 C14 1_555 1_555
O4 C14 1_555 1_555
O5 C13 1_555 1_555
C9 O1 1_555 1_555
C10 C9 1_555 1_555
H10 C10 1_555 1_555
C11 C10 1_555 1_555
H11 C11 1_555 1_555
C12 C10 1_555 1_555
H12 C12 1_555 1_555
C13 C8 1_555 1_555
C14 C9 1_555 1_555
C15 O4 1_555 1_555
H13 C15 1_555 1_555
H14 C15 1_555 1_555
C1 C9 1_555 1_555
C6 C7 1_555 1_555
C12 C13 1_555 1_555

#END
