
#######################################################################
#
#                 Cambridge Crystallographic Data Centre
#                                CCDC 
#
#######################################################################
#
# If this CIF has been generated from an entry in the Cambridge 
# Structural Database, then it will include bibliographic, chemical, 
# crystal, experimental, refinement or atomic coordinate data resulting 
# from the CCDC's data processing and validation procedures.
#
#######################################################################

data_MAWHUP
_chemical_formula_moiety         'C22 H22 N2 O3'
_chemical_name_systematic        
't-Butyl 5-methyl-6-oxo-6,7-dihydroindolo[3,2-d][1]benzazepine-12(5H)-carboxylate'
_symmetry_cell_setting           monoclinic
_symmetry_space_group_name_H-M   'P 21/n'
_symmetry_Int_Tables_number      14
_space_group_name_Hall           '-P 2yn'
loop_
_symmetry_equiv_pos_site_id
_symmetry_equiv_pos_as_xyz
1 x,y,z
2 1/2-x,1/2+y,1/2-z
3 -x,-y,-z
4 1/2+x,1/2-y,1/2+z
_cell_length_a                   11.171(4)
_cell_length_b                   11.202(4)
_cell_length_c                   14.889(5)
_cell_angle_alpha                90
_cell_angle_beta                 92.732(3)
_cell_angle_gamma                90
_cell_volume                     1861.06
_exptl_crystal_colour            colorless
_exptl_crystal_description       block
_cell_formula_units_Z            4
loop_
_atom_site_label
_atom_site_type_symbol
_atom_site_fract_x
_atom_site_fract_y
_atom_site_fract_z
C1 C 0.62135(19) 0.99801(18) 0.09095(14)
C2 C 0.5321(2) 1.0535(2) 0.13744(16)
H1 H 0.4962 1.0161 0.1850
C3 C 0.4993(2) 1.1666(2) 0.10982(18)
H2 H 0.4403 1.2067 0.1400
C4 C 0.5515(2) 1.2228(2) 0.03839(17)
H3 H 0.5268 1.2993 0.0218
C5 C 0.6388(2) 1.1673(2) -0.00817(16)
H4 H 0.6733 1.2051 -0.0562
C6 C 0.6747(2) 1.05260(18) 0.01826(14)
C7 C 0.7641(2) 0.97253(18) -0.01184(14)
C8 C 0.8426(2) 0.9849(2) -0.09011(15)
H5 H 0.9263 0.9791 -0.0701
H6 H 0.8296 1.0617 -0.1190
C9 C 0.8101(2) 0.8851(2) -0.15508(15)
C10 C 0.9027(2) 0.74607(19) -0.04321(15)
C11 C 1.0042(2) 0.6753(2) -0.04496(18)
H7 H 1.0312 0.6496 -0.0998
C12 C 1.0653(2) 0.6424(2) 0.0334(2)
H8 H 1.1337 0.5954 0.0312
C13 C 1.0255(2) 0.6791(2) 0.11565(18)
H9 H 1.0665 0.6562 0.1687
C14 C 0.9257(2) 0.7492(2) 0.11812(16)
H10 H 0.8997 0.7738 0.1736
C15 C 0.8613(2) 0.78515(18) 0.03962(14)
C16 C 0.7661(2) 0.87431(18) 0.04055(13)
C17 C 0.8024(2) 0.6710(2) -0.18422(17)
H11 H 0.7377 0.6950 -0.2250
H12 H 0.7766 0.6064 -0.1475
H13 H 0.8691 0.6455 -0.2178
C18 C 0.6241(2) 0.79516(19) 0.15447(15)
C19 C 0.6312(2) 0.58008(19) 0.18215(16)
C20 C 0.7203(3) 0.4894(2) 0.1510(2)
H14 H 0.7159 0.4859 0.0865
H15 H 0.7018 0.4124 0.1750
H16 H 0.7997 0.5124 0.1716
C21 C 0.6419(3) 0.5979(2) 0.28278(17)
H17 H 0.7188 0.6318 0.2992
H18 H 0.6339 0.5224 0.3123
H19 H 0.5799 0.6509 0.3007
C22 C 0.5046(2) 0.5486(2) 0.14997(18)
H20 H 0.4511 0.6113 0.1661
H21 H 0.4812 0.4753 0.1776
H22 H 0.5011 0.5393 0.0858
N1 N 0.67718(16) 0.88569(15) 0.10530(11)
N2 N 0.83902(18) 0.77259(17) -0.12653(12)
O1 O 0.66784(14) 0.68963(12) 0.13378(10)
O2 O 0.54876(16) 0.81529(14) 0.20705(11)
O3 O 0.75615(16) 0.90340(16) -0.22732(11)
loop_
_geom_bond_atom_site_label_1
_geom_bond_atom_site_label_2
_geom_bond_site_symmetry_1
_geom_bond_site_symmetry_2
C1 C2 1_555 1_555
C2 H1 1_555 1_555
C3 C2 1_555 1_555
H2 C3 1_555 1_555
C4 C3 1_555 1_555
H3 C4 1_555 1_555
C5 C4 1_555 1_555
H4 C5 1_555 1_555
C6 C1 1_555 1_555
C7 C6 1_555 1_555
C8 C7 1_555 1_555
H5 C8 1_555 1_555
H6 C8 1_555 1_555
C9 C8 1_555 1_555
C10 C11 1_555 1_555
C11 H7 1_555 1_555
C12 C11 1_555 1_555
H8 C12 1_555 1_555
C13 C12 1_555 1_555
H9 C13 1_555 1_555
C14 C13 1_555 1_555
H10 C14 1_555 1_555
C15 C10 1_555 1_555
C16 C7 1_555 1_555
C17 H11 1_555 1_555
H12 C17 1_555 1_555
H13 C17 1_555 1_555
C18 N1 1_555 1_555
C19 C20 1_555 1_555
C20 H14 1_555 1_555
H15 C20 1_555 1_555
H16 C20 1_555 1_555
C21 C19 1_555 1_555
H17 C21 1_555 1_555
H18 C21 1_555 1_555
H19 C21 1_555 1_555
C22 C19 1_555 1_555
H20 C22 1_555 1_555
H21 C22 1_555 1_555
H22 C22 1_555 1_555
N1 C1 1_555 1_555
N2 C9 1_555 1_555
O1 C18 1_555 1_555
O2 C18 1_555 1_555
O3 C9 1_555 1_555
C5 C6 1_555 1_555
C10 N2 1_555 1_555
C14 C15 1_555 1_555
C15 C16 1_555 1_555
C16 N1 1_555 1_555
C17 N2 1_555 1_555
C19 O1 1_555 1_555

#END
