
#######################################################################
#
#                 Cambridge Crystallographic Data Centre
#                                CCDC 
#
#######################################################################
#
# If this CIF has been generated from an entry in the Cambridge 
# Structural Database, then it will include bibliographic, chemical, 
# crystal, experimental, refinement or atomic coordinate data resulting 
# from the CCDC's data processing and validation procedures.
#
#######################################################################

data_MAWQAF
_chemical_formula_moiety         'C6 H14 N1 1+,C2 Cl1 F2 O2 1-'
_chemical_name_systematic        'cyclohexanaminium chloro(difluoro)acetate'
_symmetry_cell_setting           orthorhombic
_symmetry_space_group_name_H-M   'P c m n'
_symmetry_Int_Tables_number      62
_space_group_name_Hall           '-P 2n 2ac'
loop_
_symmetry_equiv_pos_site_id
_symmetry_equiv_pos_as_xyz
1 x,y,z
2 1/2-x,1/2-y,1/2+z
3 1/2+x,-y,1/2-z
4 -x,1/2+y,-z
5 -x,-y,-z
6 1/2+x,1/2+y,1/2-z
7 1/2-x,y,1/2+z
8 x,1/2-y,z
_cell_length_a                   10.9125(2)
_cell_length_b                   17.1842(3)
_cell_length_c                   17.7381(2)
_cell_angle_alpha                90
_cell_angle_beta                 90
_cell_angle_gamma                90
_cell_volume                     3326.29
_exptl_crystal_description       block
_cell_formula_units_Z            12
loop_
_atom_site_label
_atom_site_type_symbol
_atom_site_fract_x
_atom_site_fract_y
_atom_site_fract_z
O1 O 0.38451(17) 0.11770(12) 0.16834(9)
O2 O 0.38390(17) 0.03698(13) 0.07049(9)
C1 C 0.3383(2) 0.08550(15) 0.11409(13)
Cl1 Cl 0.1124(2) 0.03147(16) 0.0815(2)
F1 F 0.1744(6) 0.1476(4) 0.0230(3)
F2 F 0.1572(5) 0.1706(3) 0.1290(3)
C2 C 0.2063(6) 0.1095(6) 0.0886(5)
Cl3 Cl 0.48802(12) 0.2500 0.01245(6)
F5 F 0.59222(18) 0.18732(15) -0.09489(13)
O3 O 0.36522(18) 0.18587(11) -0.14897(10)
C4 C 0.5230(3) 0.2500 -0.0826(2)
C5 C 0.4065(3) 0.2500 -0.13211(17)
F5G F 0.59222(18) 0.31268(15) -0.09489(13)
O3G O 0.36522(18) 0.31413(11) -0.14897(10)
N1 N 0.1090(2) 0.03696(15) 0.41159(12)
H1 H 0.107(3) 0.085(2) 0.393(2)
H2 H 0.118(3) 0.0420(19) 0.463(2)
H3 H 0.037(3) 0.015(2) 0.4066(19)
C6 C 0.2118(2) -0.00822(15) 0.37805(13)
H4 H 0.2903 0.0189 0.3903
C7 C 0.1988(3) -0.01153(15) 0.29373(14)
H5 H 0.1991 0.0419 0.2728
H6 H 0.1199 -0.0364 0.2803
C8 C 0.3050(3) -0.05828(17) 0.26021(17)
H7 H 0.2938 -0.0625 0.2050
H8 H 0.3828 -0.0304 0.2696
C9 C 0.3126(4) -0.13846(18) 0.2937(2)
H9 H 0.2390 -0.1687 0.2792
H10 H 0.3855 -0.1656 0.2734
C10 C 0.3211(4) -0.1347(2) 0.3779(2)
H11 H 0.3997 -0.1101 0.3923
H12 H 0.3204 -0.1882 0.3986
C11 C 0.2158(3) -0.08870(18) 0.41204(15)
H13 H 0.1374 -0.1159 0.4022
H14 H 0.2269 -0.0848 0.4673
N2 N 0.3442(3) 0.2500 0.25491(15)
H15 H 0.342(3) 0.2013(18) 0.2239(18)
H16 H 0.279(4) 0.2500 0.283(3)
C12 C 0.4591(3) 0.2500 0.29956(16)
H17 H 0.5298 0.2500 0.2637
C13 C 0.4673(3) 0.17742(17) 0.34736(14)
H18 H 0.4676 0.1310 0.3143
H19 H 0.3944 0.1742 0.3805
C14 C 0.5827(3) 0.1777(2) 0.39547(17)
H20 H 0.5822 0.1317 0.4290
H21 H 0.6554 0.1738 0.3623
C15 C 0.5925(4) 0.2500 0.4424(2)
H22 H 0.6720 0.2500 0.4692
H23 H 0.5265 0.2500 0.4807
H15G H 0.342(3) 0.2987(18) 0.2239(18)
C13G C 0.4673(3) 0.32258(17) 0.34736(14)
H18G H 0.4676 0.3690 0.3143
H19G H 0.3944 0.3258 0.3805
C14G C 0.5827(3) 0.3223(2) 0.39547(17)
H20G H 0.5822 0.3683 0.4290
H21G H 0.6554 0.3262 0.3623
Cl2? Cl 0.1951(7) 0.1330(4) 0.0175(3)
F3? F 0.1333(7) 0.0410(4) 0.1167(5)
F4? F 0.1569(5) 0.1446(3) 0.1627(3)
C3? C 0.2036(7) 0.1035(7) 0.1060(7)
loop_
_geom_bond_atom_site_label_1
_geom_bond_atom_site_label_2
_geom_bond_site_symmetry_1
_geom_bond_site_symmetry_2
O1 C1 1_555 1_555
O2 C1 1_555 1_555
C1 C2 1_555 1_555
Cl1 C2 1_555 1_555
F1 C2 1_555 1_555
F2 C2 1_555 1_555
Cl3 C4 1_555 1_555
F5 C4 1_555 1_555
O3 C5 1_555 1_555
C4 C5 1_555 1_555
C5 O3G 1_555 1_555
N1 H1 1_555 1_555
H2 N1 1_555 1_555
H3 N1 1_555 1_555
C6 N1 1_555 1_555
H4 C6 1_555 1_555
C7 C6 1_555 1_555
H5 C7 1_555 1_555
H6 C7 1_555 1_555
C8 C7 1_555 1_555
H7 C8 1_555 1_555
H8 C8 1_555 1_555
C9 C8 1_555 1_555
H9 C9 1_555 1_555
H10 C9 1_555 1_555
C10 C9 1_555 1_555
H11 C10 1_555 1_555
H12 C10 1_555 1_555
C11 C6 1_555 1_555
H13 C11 1_555 1_555
H14 C11 1_555 1_555
N2 H15 1_555 1_555
H16 N2 1_555 1_555
C12 N2 1_555 1_555
H17 C12 1_555 1_555
C13 C12 1_555 1_555
H18 C13 1_555 1_555
H19 C13 1_555 1_555
C14 C13 1_555 1_555
H20 C14 1_555 1_555
H21 C14 1_555 1_555
C15 C14 1_555 1_555
H22 C15 1_555 1_555
H23 C15 1_555 1_555
F5G C4 1_555 1_555
H15G N2 1_555 1_555
C13G C12 1_555 1_555
H18G C13G 1_555 1_555
H19G C13G 1_555 1_555
C14G C15 1_555 1_555
H20G C14G 1_555 1_555
H21G C14G 1_555 1_555
C10 C11 1_555 1_555
C13G C14G 1_555 1_555

#END
