
#######################################################################
#
#                 Cambridge Crystallographic Data Centre
#                                CCDC 
#
#######################################################################
#
# If this CIF has been generated from an entry in the Cambridge 
# Structural Database, then it will include bibliographic, chemical, 
# crystal, experimental, refinement or atomic coordinate data resulting 
# from the CCDC's data processing and validation procedures.
#
#######################################################################

data_MAWSEL
_chemical_formula_moiety         'C22 H24 N2 O7 S1,0.5(C4 H8 O2)'
_chemical_name_systematic        
'(S)-2-[1-(3-Ethoxy-4-methoxyphenyl)-2-(methylsulfonyl)ethyl]-4-acetamidoisoindoline-1,3-dione ethyl acetate solvate'
_chemical_properties_biological  'inhibitor of phosphodieasterase-4 (PDE4)'
_symmetry_cell_setting           tetragonal
_symmetry_space_group_name_H-M   'P 41 21 2'
_symmetry_Int_Tables_number      92
_space_group_name_Hall           'P 4abw 2nw'
loop_
_symmetry_equiv_pos_site_id
_symmetry_equiv_pos_as_xyz
1 x,y,z
2 1/2-y,1/2+x,1/4+z
3 -x,-y,1/2+z
4 1/2+y,1/2-x,3/4+z
5 1/2+x,1/2-y,3/4-z
6 y,x,-z
7 1/2-x,1/2+y,1/4-z
8 -y,-x,1/2-z
_cell_length_a                   13.0307(18)
_cell_length_b                   13.0307(18)
_cell_length_c                   29.754(6)
_cell_angle_alpha                90
_cell_angle_beta                 90
_cell_angle_gamma                90
_cell_volume                     5052.2
_exptl_crystal_colour            colorless
_exptl_crystal_description       block
_cell_formula_units_Z            8
loop_
_atom_site_label
_atom_site_type_symbol
_atom_site_fract_x
_atom_site_fract_y
_atom_site_fract_z
S1 S 0.84057(12) 0.60020(12) 0.53731(5)
O1 O 0.9254(3) 0.5579(3) 0.56191(16)
O2 O 0.7935(3) 0.6922(3) 0.55414(14)
O3 O 0.4666(3) 0.2486(3) 0.48318(14)
O4 O 0.4491(3) 0.1140(3) 0.54722(15)
O5 O 0.5361(3) 0.6031(3) 0.55366(13)
O6 O 0.7587(3) 0.5242(3) 0.66688(13)
O7 O 0.6748(4) 0.8016(3) 0.78838(15)
N1 N 0.6583(3) 0.5423(3) 0.60341(14)
N2 N 0.7012(4) 0.6828(4) 0.73425(15)
H1 H 0.7386 0.6305 0.7276
C1 C 0.7060(4) 0.4613(4) 0.57588(18)
H2 H 0.7658 0.4360 0.5925
C2 C 0.7453(4) 0.5045(4) 0.53158(18)
H3 H 0.6878 0.5331 0.5151
H4 H 0.7732 0.4486 0.5138
C3 C 0.8786(6) 0.6213(6) 0.4821(2)
H5 H 0.9283 0.6756 0.4813
H6 H 0.8200 0.6402 0.4644
H7 H 0.9084 0.5597 0.4702
C4 C 0.6348(4) 0.3698(4) 0.56847(18)
C5 C 0.6225(4) 0.3000(4) 0.6021(2)
H8 H 0.6556 0.3103 0.6294
C6 C 0.5610(5) 0.2130(4) 0.5963(2)
H9 H 0.5545 0.1655 0.6194
C7 C 0.5103(5) 0.1976(4) 0.5565(2)
C8 C 0.5205(4) 0.2690(4) 0.5218(2)
C9 C 0.5818(4) 0.3541(4) 0.5282(2)
H10 H 0.5879 0.4021 0.5052
C10 C 0.4688(5) 0.3237(5) 0.4481(2)
H11 H 0.5383 0.3317 0.4371
H12 H 0.4457 0.3894 0.4596
C11 C 0.4004(7) 0.2898(6) 0.4110(3)
H13 H 0.4035 0.3387 0.3868
H14 H 0.3311 0.2850 0.4218
H15 H 0.4224 0.2239 0.4003
C12 C 0.4314(7) 0.0455(5) 0.5843(3)
H16 H 0.3892 -0.0107 0.5746
H17 H 0.3972 0.0818 0.6080
H18 H 0.4958 0.0196 0.5951
C13 C 0.5795(4) 0.6082(4) 0.5895(2)
C14 C 0.5633(4) 0.6827(4) 0.62655(19)
C15 C 0.4952(5) 0.7644(4) 0.6297(2)
H19 H 0.4500 0.7810 0.6066
C16 C 0.4988(5) 0.8195(5) 0.6693(2)
H20 H 0.4544 0.8748 0.6726
C17 C 0.5642(4) 0.7971(4) 0.7039(2)
H21 H 0.5631 0.8369 0.7298
C18 C 0.6331(4) 0.7144(4) 0.70054(19)
C19 C 0.6307(4) 0.6579(4) 0.66090(18)
C20 C 0.6915(4) 0.5690(4) 0.64645(18)
C21 C 0.7160(5) 0.7227(5) 0.7755(2)
C22 C 0.7870(6) 0.6629(6) 0.8051(2)
H22 H 0.8015 0.7018 0.8318
H23 H 0.8498 0.6494 0.7893
H24 H 0.7552 0.5991 0.8133
O8? O 0.5512(8) 0.4488(8) 0.2500
C23? C 0.433(4) 0.593(5) 0.245(3)
H25? H 0.4890 0.6292 0.2320
H26? H 0.3981 0.6368 0.2663
H27? H 0.3855 0.5721 0.2222
O9? O 0.464(3) 0.462(3) 0.3131(11)
C24? C 0.473(3) 0.497(3) 0.2700(13)
C25? C 0.596(2) 0.371(2) 0.2723(10)
H28? H 0.5479 0.3145 0.2769
H29? H 0.6225 0.3929 0.3011
C26? C 0.683(5) 0.340(5) 0.239(2)
H30? H 0.7057 0.2717 0.2459
H31? H 0.7398 0.3868 0.2429
H32? H 0.6584 0.3434 0.2090
loop_
_geom_bond_atom_site_label_1
_geom_bond_atom_site_label_2
_geom_bond_site_symmetry_1
_geom_bond_site_symmetry_2
S1 O1 1_555 1_555
O2 S1 1_555 1_555
O3 C8 1_555 1_555
O4 C7 1_555 1_555
O5 C13 1_555 1_555
O6 C20 1_555 1_555
O7 C21 1_555 1_555
N1 C1 1_555 1_555
N2 H1 1_555 1_555
C1 H2 1_555 1_555
C2 S1 1_555 1_555
H3 C2 1_555 1_555
H4 C2 1_555 1_555
C3 S1 1_555 1_555
H5 C3 1_555 1_555
H6 C3 1_555 1_555
H7 C3 1_555 1_555
C4 C1 1_555 1_555
C5 C4 1_555 1_555
H8 C5 1_555 1_555
C6 C5 1_555 1_555
H9 C6 1_555 1_555
C7 C6 1_555 1_555
C8 C7 1_555 1_555
C9 C4 1_555 1_555
H10 C9 1_555 1_555
C10 O3 1_555 1_555
H11 C10 1_555 1_555
H12 C10 1_555 1_555
C11 C10 1_555 1_555
H13 C11 1_555 1_555
H14 C11 1_555 1_555
H15 C11 1_555 1_555
C12 O4 1_555 1_555
H16 C12 1_555 1_555
H17 C12 1_555 1_555
H18 C12 1_555 1_555
C13 N1 1_555 1_555
C14 C13 1_555 1_555
C15 C14 1_555 1_555
H19 C15 1_555 1_555
C16 C15 1_555 1_555
H20 C16 1_555 1_555
C17 C16 1_555 1_555
H21 C17 1_555 1_555
C18 N2 1_555 1_555
C19 C14 1_555 1_555
C20 N1 1_555 1_555
C21 N2 1_555 1_555
C22 C21 1_555 1_555
H22 C22 1_555 1_555
H23 C22 1_555 1_555
H24 C22 1_555 1_555
C1 C2 1_555 1_555
C8 C9 1_555 1_555
C17 C18 1_555 1_555
C18 C19 1_555 1_555
C19 C20 1_555 1_555

#END
