
#######################################################################
#
#                 Cambridge Crystallographic Data Centre
#                                CCDC 
#
#######################################################################
#
# If this CIF has been generated from an entry in the Cambridge 
# Structural Database, then it will include bibliographic, chemical, 
# crystal, experimental, refinement or atomic coordinate data resulting 
# from the CCDC's data processing and validation procedures.
#
#######################################################################

data_MAWYIT
_chemical_compound_source        
'leaves and seeds of Daphniphyllum calycinum Benth (Daphniphyllaceae)'
_chemical_formula_moiety         'C23 H29 N1 O3'
_chemical_name_systematic        'Caldaphnidine A'
_symmetry_cell_setting           tetragonal
_symmetry_space_group_name_H-M   'P 43 21 2'
_symmetry_Int_Tables_number      96
_space_group_name_Hall           'P 4nw 2abw'
loop_
_symmetry_equiv_pos_site_id
_symmetry_equiv_pos_as_xyz
1 x,y,z
2 -x,-y,1/2+z
3 1/2-y,1/2+x,3/4+z
4 1/2+y,1/2-x,1/4+z
5 1/2-x,1/2+y,3/4-z
6 1/2+x,1/2-y,1/4-z
7 y,x,-z
8 -y,-x,1/2-z
_cell_length_a                   9.2616(7)
_cell_length_b                   9.2616(7)
_cell_length_c                   44.915(5)
_cell_angle_alpha                90
_cell_angle_beta                 90
_cell_angle_gamma                90
_cell_volume                     3852.68
_exptl_crystal_colour            colorless
_chemical_melting_point          '193-194 deg.C'
_cell_formula_units_Z            8
loop_
_atom_site_label
_atom_site_type_symbol
_atom_site_fract_x
_atom_site_fract_y
_atom_site_fract_z
O1 O -0.29284(18) 0.8382(2) 0.88864(4)
O2 O -0.08518(18) 0.52099(18) 1.00670(3)
O3 O 0.15291(18) 0.47737(17) 1.00486(3)
N1 N 0.07312(18) 1.10945(18) 0.92943(4)
C1 C 0.0001(2) 0.9999(2) 0.94813(5)
C2 C -0.1559(2) 1.0537(2) 0.95201(5)
C3 C -0.2535(3) 1.0061(3) 0.92624(7)
C4 C -0.2049(3) 0.8895(3) 0.90542(5)
C5 C -0.0468(2) 0.8404(2) 0.90486(4)
C6 C 0.0361(2) 0.9495(3) 0.88467(5)
C7 C 0.0316(3) 1.1018(3) 0.89784(5)
C8 C 0.0152(2) 0.8459(2) 0.93656(4)
C9 C 0.1696(2) 0.7938(2) 0.93764(4)
C10 C 0.2933(2) 0.8182(2) 0.92305(4)
C11 C 0.3127(3) 0.9186(3) 0.89740(5)
C12 C 0.1893(3) 0.9074(3) 0.87445(5)
C13 C -0.0605(3) 0.7389(3) 0.95921(6)
C14 C 0.0589(2) 0.6498(2) 0.97253(4)
C15 C 0.1862(2) 0.6826(2) 0.96003(4)
C16 C 0.3426(3) 0.6378(3) 0.96087(5)
C17 C 0.4123(3) 0.7252(3) 0.93576(5)
C18 C -0.1327(3) 1.2196(2) 0.95587(5)
C19 C 0.0200(3) 1.2464(3) 0.94208(7)
C20 C -0.2495(3) 1.3191(4) 0.94356(9)
C21 C -0.0395(4) 0.6874(3) 0.89122(7)
C22 C 0.0307(3) 0.5447(2) 0.99596(5)
C23 C 0.1358(5) 0.3733(4) 1.02873(8)
H1 H 0.0454(17) 1.0064(15) 0.9691(3)
H2 H -0.1992(18) 1.0178(19) 0.9719(4)
H3 H -0.340(3) 0.994(3) 0.9322(5)
H4 H -0.284(4) 1.094(3) 0.9120(6)
H5 H -0.0200(17) 0.9478(17) 0.8656(3)
H6 H 0.102(2) 1.168(3) 0.8857(4)
H7 H -0.062(2) 1.140(2) 0.8952(3)
H8 H 0.404(2) 0.898(2) 0.8871(4)
H9 H 0.322(2) 1.020(2) 0.9043(4)
H10 H 0.215(2) 0.973(2) 0.8577(4)
H11 H 0.191(2) 0.809(2) 0.8657(4)
H12 H -0.113(2) 0.795(2) 0.9754(4)
H13 H -0.137(2) 0.681(2) 0.9489(4)
H14 H 0.353(2) 0.531(2) 0.9585(4)
H15 H 0.394(2) 0.664(2) 0.9805(4)
H16 H 0.458(2) 0.670(2) 0.9185(4)
H17 H 0.496(2) 0.783(2) 0.9438(4)
H18 H -0.1187(18) 1.2410(18) 0.9781(4)
H19 H 0.022(2) 1.321(2) 0.9260(4)
H20 H 0.080(2) 1.278(2) 0.9586(4)
H21 H -0.340(3) 1.298(3) 0.9531(5)
H22 H -0.244(3) 1.315(3) 0.9180(7)
H23 H -0.234(3) 1.419(3) 0.9501(5)
H24 H -0.067(2) 0.699(2) 0.8700(5)
H25 H -0.104(3) 0.626(3) 0.9004(5)
H26 H 0.053(3) 0.643(3) 0.8954(4)
H27 H 0.072(3) 0.294(3) 1.0218(5)
H28 H 0.232(4) 0.331(4) 1.0315(7)
H29 H 0.109(3) 0.436(3) 1.0477(6)
loop_
_geom_bond_atom_site_label_1
_geom_bond_atom_site_label_2
_geom_bond_site_symmetry_1
_geom_bond_site_symmetry_2
O1 C4 1_555 1_555
O2 C22 1_555 1_555
O3 C22 1_555 1_555
N1 C1 1_555 1_555
C1 C2 1_555 1_555
C2 C3 1_555 1_555
C3 C4 1_555 1_555
C4 C5 1_555 1_555
C5 C6 1_555 1_555
C6 C7 1_555 1_555
C7 N1 1_555 1_555
C8 C1 1_555 1_555
C9 C8 1_555 1_555
C10 C9 1_555 1_555
C11 C10 1_555 1_555
C12 C6 1_555 1_555
C13 C8 1_555 1_555
C14 C13 1_555 1_555
C15 C9 1_555 1_555
C16 C15 1_555 1_555
C17 C10 1_555 1_555
C18 C2 1_555 1_555
C19 N1 1_555 1_555
C20 C18 1_555 1_555
C21 C5 1_555 1_555
C22 C14 1_555 1_555
C23 O3 1_555 1_555
H1 C1 1_555 1_555
H2 C2 1_555 1_555
H3 C3 1_555 1_555
H4 C3 1_555 1_555
H5 C6 1_555 1_555
H6 C7 1_555 1_555
H7 C7 1_555 1_555
H8 C11 1_555 1_555
H9 C11 1_555 1_555
H10 C12 1_555 1_555
H11 C12 1_555 1_555
H12 C13 1_555 1_555
H13 C13 1_555 1_555
H14 C16 1_555 1_555
H15 C16 1_555 1_555
H16 C17 1_555 1_555
H17 C17 1_555 1_555
H18 C18 1_555 1_555
H19 C19 1_555 1_555
H20 C19 1_555 1_555
H21 C20 1_555 1_555
H22 C20 1_555 1_555
H23 C20 1_555 1_555
H24 C21 1_555 1_555
H25 C21 1_555 1_555
H26 C21 1_555 1_555
H27 C23 1_555 1_555
H28 C23 1_555 1_555
H29 C23 1_555 1_555
C5 C8 1_555 1_555
C11 C12 1_555 1_555
C14 C15 1_555 1_555
C16 C17 1_555 1_555
C18 C19 1_555 1_555

#END
