
#######################################################################
#
#                 Cambridge Crystallographic Data Centre
#                                CCDC 
#
#######################################################################
#
# If this CIF has been generated from an entry in the Cambridge 
# Structural Database, then it will include bibliographic, chemical, 
# crystal, experimental, refinement or atomic coordinate data resulting 
# from the CCDC's data processing and validation procedures.
#
#######################################################################

data_MAXKAA
_chemical_formula_moiety         'C28 H32 Br2 N4 O6'
_chemical_name_systematic        
"di-t-butyl (5,5'-dibromo-1,1'-dimethyl-2,2'-dioxo-1,1',2,2'-tetrahydro-3H,3'H-3,3'-biindole-3,3'-diyl)biscarbamate unknown solvate"
_symmetry_cell_setting           triclinic
_symmetry_space_group_name_H-M   'P -1'
_symmetry_Int_Tables_number      2
_space_group_name_Hall           '-P 1'
loop_
_symmetry_equiv_pos_site_id
_symmetry_equiv_pos_as_xyz
1 x,y,z
2 -x,-y,-z
_cell_length_a                   11.800(2)
_cell_length_b                   12.630(3)
_cell_length_c                   13.630(3)
_cell_angle_alpha                68.074(6)
_cell_angle_beta                 70.491(6)
_cell_angle_gamma                81.465(6)
_cell_volume                     1775.56
_exptl_crystal_colour            colorless
_exptl_crystal_description       bar
_cell_formula_units_Z            2
loop_
_atom_site_label
_atom_site_type_symbol
_atom_site_fract_x
_atom_site_fract_y
_atom_site_fract_z
Br1 Br 0.27385(4) 0.91283(3) 0.21373(3)
Br2 Br 0.42974(6) 0.96153(4) 0.79788(5)
O1 O -0.0816(2) 0.73273(18) 0.6549(2)
N1 N 0.0798(2) 0.6167(2) 0.6751(2)
H1 H 0.1081 0.5477 0.6897
O2 O 0.3132(2) 0.53955(18) 0.5625(2)
N2 N 0.0943(2) 0.8819(2) 0.6906(2)
O3 O -0.0739(2) 0.54922(17) 0.6630(2)
O4 O 0.4349(2) 0.4817(2) 0.7537(2)
C1 C 0.3549(3) 0.7384(2) 0.6741(3)
C2 C 0.1393(3) 0.9060(2) 0.5768(3)
N3 N 0.4386(2) 0.6828(2) 0.5229(2)
O5 O 0.0499(2) 0.7212(2) 0.8479(2)
O6 O 0.2886(2) 0.40155(18) 0.91638(18)
C3 C 0.3331(3) 0.4785(2) 0.8151(3)
C4 C 0.1725(3) 0.8057(2) 0.5546(3)
C5 C 0.2115(3) 0.8064(2) 0.4473(3)
H2 H 0.2318 0.7388 0.4323
C6 C 0.2198(3) 0.9107(2) 0.3624(3)
N4 N 0.2457(2) 0.5551(2) 0.7892(2)
H3 H 0.1738 0.5472 0.8344
C7 C -0.0310(3) 0.6405(2) 0.6628(3)
C8 C 0.1512(3) 0.7066(2) 0.6639(3)
C9 C 0.1890(3) 1.0117(3) 0.3835(3)
H4 H 0.1964 1.0810 0.3248
C10 C 0.3438(3) 0.6125(3) 0.5856(3)
C11 C 0.4489(3) 0.7551(3) 0.5756(3)
C12 C 0.2727(3) 0.6509(2) 0.6856(3)
C13 C 0.0895(3) 0.7680(3) 0.7479(3)
C14 C 0.3480(3) 0.7964(3) 0.7434(3)
H5 H 0.2870 0.7842 0.8104
C15 C 0.1472(3) 1.0100(2) 0.4916(3)
H6 H 0.1249 1.0774 0.5067
C16 C 0.4381(4) 0.8752(3) 0.7077(4)
C17 C -0.1891(3) 0.5544(3) 0.6409(3)
C18 C 0.3635(4) 0.3091(4) 0.9685(4)
C19 C 0.5365(3) 0.8323(3) 0.5420(4)
H7 H 0.5985 0.8434 0.4758
C20 C 0.5296(4) 0.8927(3) 0.6092(4)
H8 H 0.5875 0.9461 0.5880
C21 C 0.0558(4) 0.9665(3) 0.7451(4)
H9 H 0.1246 1.0057 0.7357
H10 H 0.0170 0.9291 0.8228
H11 H 0.0005 1.0205 0.7127
C22 C 0.5153(4) 0.6844(3) 0.4140(3)
H12 H 0.4857 0.6324 0.3924
H13 H 0.5958 0.6618 0.4167
H14 H 0.5149 0.7602 0.3610
C23 C -0.1770(5) 0.6329(4) 0.5244(4)
H15 H -0.1630 0.7088 0.5171
H16 H -0.2496 0.6330 0.5073
H17 H -0.1106 0.6072 0.4740
C24 C 0.2774(4) 0.2481(4) 1.0785(3)
H18 H 0.2413 0.3009 1.1164
H19 H 0.3195 0.1883 1.1221
H20 H 0.2158 0.2157 1.0676
C25 C 0.4131(4) 0.2344(4) 0.9000(3)
H21 H 0.3495 0.2149 0.8810
H22 H 0.4480 0.1659 0.9415
H23 H 0.4737 0.2743 0.8333
C26 C -0.2021(4) 0.4327(4) 0.6533(5)
H24 H -0.1396 0.4133 0.5958
H25 H -0.2791 0.4247 0.6475
H26 H -0.1961 0.3825 0.7245
C27 C 0.4609(4) 0.3597(4) 0.9846(4)
H27 H 0.5218 0.3897 0.9147
H28 H 0.4960 0.3017 1.0361
H29 H 0.4270 0.4201 1.0132
C28 C -0.2910(4) 0.5899(4) 0.7241(5)
H30 H -0.2910 0.5416 0.7977
H31 H -0.3658 0.5830 0.7136
H32 H -0.2817 0.6677 0.7144
loop_
_geom_bond_atom_site_label_1
_geom_bond_atom_site_label_2
_geom_bond_site_symmetry_1
_geom_bond_site_symmetry_2
Br1 C6 1_555 1_555
Br2 C16 1_555 1_555
O1 C7 1_555 1_555
N1 H1 1_555 1_555
O2 C10 1_555 1_555
N2 C2 1_555 1_555
O3 C7 1_555 1_555
O4 C3 1_555 1_555
C1 C11 1_555 1_555
C2 C4 1_555 1_555
N3 C10 1_555 1_555
O5 C13 1_555 1_555
O6 C3 1_555 1_555
C3 N4 1_555 1_555
C4 C5 1_555 1_555
C5 H2 1_555 1_555
C6 C5 1_555 1_555
N4 H3 1_555 1_555
C7 N1 1_555 1_555
C8 N1 1_555 1_555
C9 C6 1_555 1_555
H4 C9 1_555 1_555
C10 C12 1_555 1_555
C11 N3 1_555 1_555
C12 C1 1_555 1_555
C13 N2 1_555 1_555
C14 C1 1_555 1_555
H5 C14 1_555 1_555
C15 C2 1_555 1_555
H6 C15 1_555 1_555
C16 C14 1_555 1_555
C17 O3 1_555 1_555
C18 O6 1_555 1_555
C19 C11 1_555 1_555
H7 C19 1_555 1_555
C20 C16 1_555 1_555
H8 C20 1_555 1_555
C21 N2 1_555 1_555
H9 C21 1_555 1_555
H10 C21 1_555 1_555
H11 C21 1_555 1_555
C22 N3 1_555 1_555
H12 C22 1_555 1_555
H13 C22 1_555 1_555
H14 C22 1_555 1_555
C23 C17 1_555 1_555
H15 C23 1_555 1_555
H16 C23 1_555 1_555
H17 C23 1_555 1_555
C24 C18 1_555 1_555
H18 C24 1_555 1_555
H19 C24 1_555 1_555
H20 C24 1_555 1_555
C25 C18 1_555 1_555
H21 C25 1_555 1_555
H22 C25 1_555 1_555
H23 C25 1_555 1_555
C26 C17 1_555 1_555
H24 C26 1_555 1_555
H25 C26 1_555 1_555
H26 C26 1_555 1_555
C27 C18 1_555 1_555
H27 C27 1_555 1_555
H28 C27 1_555 1_555
H29 C27 1_555 1_555
C28 C17 1_555 1_555
H30 C28 1_555 1_555
H31 C28 1_555 1_555
H32 C28 1_555 1_555
C4 C8 1_555 1_555
N4 C12 1_555 1_555
C8 C12 1_555 1_555
C8 C13 1_555 1_555
C9 C15 1_555 1_555
C19 C20 1_555 1_555

#END
