
#######################################################################
#
#                 Cambridge Crystallographic Data Centre
#                                CCDC 
#
#######################################################################
#
# If this CIF has been generated from an entry in the Cambridge 
# Structural Database, then it will include bibliographic, chemical, 
# crystal, experimental, refinement or atomic coordinate data resulting 
# from the CCDC's data processing and validation procedures.
#
#######################################################################

data_MAXREJ
_chemical_formula_moiety         'C18 H30 N1 P1 Se1'
_chemical_name_systematic        
'(R~P~,S)-N-(1-Cyclohexylethyl)-P-t-butyl-P-phenylphosphinoselenoic amide'
_symmetry_cell_setting           orthorhombic
_symmetry_space_group_name_H-M   'P 21 21 21'
_symmetry_Int_Tables_number      19
_space_group_name_Hall           'P 2ac 2ab'
loop_
_symmetry_equiv_pos_site_id
_symmetry_equiv_pos_as_xyz
1 x,y,z
2 1/2-x,-y,1/2+z
3 1/2+x,1/2-y,-z
4 -x,1/2+y,1/2-z
_cell_length_a                   9.3381(7)
_cell_length_b                   11.7960(9)
_cell_length_c                   17.557(1)
_cell_angle_alpha                90
_cell_angle_beta                 90
_cell_angle_gamma                90
_cell_volume                     1933.94
_exptl_crystal_colour            colorless
_exptl_crystal_description       Block
_chemical_melting_point          '106-108 deg.C (dec.)'
_cell_formula_units_Z            4
_exptl_crystal_recrystallization_method hexane
loop_
_atom_site_label
_atom_site_type_symbol
_atom_site_fract_x
_atom_site_fract_y
_atom_site_fract_z
Se1 Se -0.18906(4) -0.10244(2) -0.75760(2)
P1 P -0.15436(8) 0.07209(6) -0.77755(4)
N1 N -0.0366(3) 0.1282(2) -0.7179(1)
C1 C -0.3185(3) 0.1581(2) -0.7643(2)
C2 C -0.3755(4) 0.1392(3) -0.6834(2)
C3 C -0.2854(3) 0.2842(2) -0.7760(2)
C4 C -0.4314(4) 0.1205(3) -0.8228(2)
C5 C -0.1020(3) 0.0992(3) -0.8760(2)
C6 C -0.1586(4) 0.0339(3) -0.9351(2)
C7 C -0.1323(4) 0.0629(4) -1.0101(2)
C8 C -0.0435(5) 0.1514(4) -1.0271(2)
C9 C 0.0175(5) 0.2139(4) -0.9697(2)
C10 C -0.0124(4) 0.1891(3) -0.8945(2)
C11 C 0.0863(3) 0.0661(2) -0.6857(2)
C12 C 0.2170(3) 0.0769(3) -0.7380(2)
C13 C 0.1182(4) 0.1113(3) -0.6048(2)
C14 C 0.2454(5) 0.0490(4) -0.5695(2)
C15 C 0.2792(5) 0.0927(4) -0.4878(3)
C16 C 0.1522(5) 0.0816(4) -0.4391(2)
C17 C 0.0262(5) 0.1475(4) -0.4732(3)
C18 C -0.0074(4) 0.1070(4) -0.5532(2)
H1 H -0.4014 0.0625 -0.6769
H2 H -0.4565 0.1865 -0.6751
H3 H -0.3026 0.1588 -0.6475
H4 H -0.2598 0.2974 -0.8274
H5 H -0.3675 0.3279 -0.7633
H6 H -0.2081 0.3056 -0.7436
H7 H -0.3888 0.1155 -0.8720
H8 H -0.4670 0.0471 -0.8090
H9 H -0.5080 0.1726 -0.8238
H10 H -0.2180 -0.0314 -0.9235
H11 H -0.1753 0.0204 -1.0507
H12 H -0.0280 0.1726 -1.0791
H13 H 0.0834 0.2747 -0.9814
H14 H 0.0266 0.2351 -0.8548
H15 H -0.0493 0.2055 -0.7033
H16 H 0.0613 -0.0116 -0.6819
H17 H 0.1892 0.0626 -0.7892
H18 H 0.2557 0.1512 -0.7343
H19 H 0.2879 0.0232 -0.7232
H20 H 0.1453 0.1881 -0.6096
H21 H 0.2183 -0.0317 -0.5663
H22 H 0.3247 0.0543 -0.6018
H23 H 0.3580 0.0534 -0.4661
H24 H 0.3030 0.1722 -0.4901
H25 H 0.1245 0.0004 -0.4369
H26 H 0.1701 0.1037 -0.3878
H27 H -0.0584 0.1435 -0.4415
H28 H 0.0516 0.2273 -0.4764
H29 H -0.0393 0.0273 -0.5486
H30 H -0.0859 0.1477 -0.5741
loop_
_geom_bond_atom_site_label_1
_geom_bond_atom_site_label_2
_geom_bond_site_symmetry_1
_geom_bond_site_symmetry_2
Se1 P1 1_555 1_555
P1 N1 1_555 1_555
N1 C11 1_555 1_555
C1 P1 1_555 1_555
C2 C1 1_555 1_555
C3 C1 1_555 1_555
C4 C1 1_555 1_555
C5 P1 1_555 1_555
C6 C5 1_555 1_555
C7 C6 1_555 1_555
C8 C7 1_555 1_555
C9 C8 1_555 1_555
C10 C5 1_555 1_555
C11 C12 1_555 1_555
C12 H17 1_555 1_555
C13 C11 1_555 1_555
C14 C13 1_555 1_555
C15 C14 1_555 1_555
C16 C15 1_555 1_555
C17 C16 1_555 1_555
C18 C13 1_555 1_555
H1 C2 1_555 1_555
H2 C2 1_555 1_555
H3 C2 1_555 1_555
H4 C3 1_555 1_555
H5 C3 1_555 1_555
H6 C3 1_555 1_555
H7 C4 1_555 1_555
H8 C4 1_555 1_555
H9 C4 1_555 1_555
H10 C6 1_555 1_555
H11 C7 1_555 1_555
H12 C8 1_555 1_555
H13 C9 1_555 1_555
H14 C10 1_555 1_555
H15 N1 1_555 1_555
H16 C11 1_555 1_555
H18 C12 1_555 1_555
H19 C12 1_555 1_555
H20 C13 1_555 1_555
H21 C14 1_555 1_555
H22 C14 1_555 1_555
H23 C15 1_555 1_555
H24 C15 1_555 1_555
H25 C16 1_555 1_555
H26 C16 1_555 1_555
H27 C17 1_555 1_555
H28 C17 1_555 1_555
H29 C18 1_555 1_555
H30 C18 1_555 1_555
C9 C10 1_555 1_555
C17 C18 1_555 1_555

#END
