
#######################################################################
#
#                 Cambridge Crystallographic Data Centre
#                                CCDC 
#
#######################################################################
#
# If this CIF has been generated from an entry in the Cambridge 
# Structural Database, then it will include bibliographic, chemical, 
# crystal, experimental, refinement or atomic coordinate data resulting 
# from the CCDC's data processing and validation procedures.
#
#######################################################################

data_MAYDOI
_chemical_formula_moiety         'C35 H27 F3 N2 O4 S1'
_chemical_name_systematic        
N-{1-(4-methoxybenzene-1-carbonyl)-4-[4-(trifluoromethyl)phenyl]-3,4-dihydro-2H-pyrido[2,1-a]isoquinolin-2-ylidene}-4-methylbenzene-1-sulfonamide
_symmetry_cell_setting           monoclinic
_symmetry_space_group_name_H-M   'P 21/c'
_symmetry_Int_Tables_number      14
_space_group_name_Hall           '-P 2ybc'
loop_
_symmetry_equiv_pos_site_id
_symmetry_equiv_pos_as_xyz
1 x,y,z
2 -x,1/2+y,1/2-z
3 -x,-y,-z
4 x,1/2-y,1/2+z
_cell_length_a                   22.6172(15)
_cell_length_b                   15.1962(10)
_cell_length_c                   17.3994(11)
_cell_angle_alpha                90
_cell_angle_beta                 96.103(3)
_cell_angle_gamma                90
_cell_volume                     5946.2
_exptl_crystal_colour            'light yellow'
_exptl_crystal_description       block
_cell_formula_units_Z            8
loop_
_atom_site_label
_atom_site_type_symbol
_atom_site_fract_x
_atom_site_fract_y
_atom_site_fract_z
S1 S 0.43906(3) 0.65644(5) 0.70392(4)
O1 O 0.60184(8) 0.71657(14) 0.50858(11)
O2 O 0.45752(9) 0.67635(15) 0.78413(12)
O3 O 0.42684(9) 0.56496(13) 0.68604(12)
O4 O 0.36316(10) 0.54004(15) 0.35772(13)
N1 N 0.58182(10) 0.92024(16) 0.64816(14)
N2 N 0.48418(10) 0.68751(15) 0.64424(14)
C1 C 0.50831(12) 0.76765(18) 0.64443(16)
C2 C 0.53712(12) 0.79451(18) 0.58122(16)
C3 C 0.50115(12) 0.67806(18) 0.47824(15)
C4 C 0.55010(12) 0.72853(18) 0.52077(16)
C5 C 0.57461(12) 0.92548(19) 0.51036(17)
C6 C 0.61919(12) 0.81472(19) 0.75209(16)
C7 C 0.56450(12) 0.87920(18) 0.58004(16)
C8 C 0.37257(12) 0.71533(19) 0.67765(17)
C9 C 0.44268(13) 0.70968(19) 0.46983(16)
H1 H 0.4337 0.7641 0.4928
C10 C 0.60954(12) 1.0033(2) 0.51498(18)
C11 C 0.46861(13) 0.54893(19) 0.40360(17)
H2 H 0.4773 0.4940 0.3813
C12 C 0.39836(13) 0.6627(2) 0.42868(17)
H3 H 0.3590 0.6853 0.4222
C13 C 0.51324(13) 0.59774(19) 0.44404(16)
H4 H 0.5529 0.5762 0.4487
C14 C 0.70571(13) 0.6989(2) 0.81731(18)
C15 C 0.50910(12) 0.83346(19) 0.70970(17)
H5 H 0.5010 0.8031 0.7578
H6 H 0.4777 0.8782 0.6972
C16 C 0.56956(13) 0.87783(19) 0.72138(16)
H7 H 0.5673 0.9254 0.7607
C17 C 0.61298(13) 0.9986(2) 0.65289(18)
H8 H 0.6236 1.0246 0.7021
C18 C 0.41085(13) 0.5817(2) 0.39613(17)
C19 C 0.62856(13) 1.0386(2) 0.58935(19)
H9 H 0.6522 1.0903 0.5939
C20 C 0.54902(13) 0.8981(2) 0.43627(17)
H10 H 0.5226 0.8493 0.4319
C21 C 0.35438(13) 0.7808(2) 0.72528(18)
H11 H 0.3771 0.7941 0.7729
C22 C 0.62272(13) 1.0454(2) 0.44659(18)
H12 H 0.6470 1.0965 0.4497
C23 C 0.70696(13) 0.7279(2) 0.74215(18)
H13 H 0.7375 0.7081 0.7128
C24 C 0.66393(13) 0.7857(2) 0.70923(18)
H14 H 0.6651 0.8054 0.6576
C25 C 0.61871(14) 0.7857(2) 0.82740(18)
H15 H 0.5884 0.8057 0.8570
C26 C 0.56191(13) 0.9410(2) 0.37089(18)
H16 H 0.5443 0.9217 0.3218
C27 C 0.33936(13) 0.6956(2) 0.60783(18)
H17 H 0.3519 0.6506 0.5753
C28 C 0.60074(13) 1.0131(2) 0.37572(18)
H18 H 0.6118 1.0396 0.3299
C29 C 0.75075(13) 0.6340(2) 0.85165(19)
C30 C 0.26887(13) 0.8095(2) 0.6329(2)
C31 C 0.28779(14) 0.7425(2) 0.58648(19)
H19 H 0.2647 0.7287 0.5391
C32 C 0.66154(14) 0.7283(2) 0.86045(18)
H20 H 0.6607 0.7091 0.9123
C33 C 0.30208(14) 0.8269(2) 0.7022(2)
H21 H 0.2891 0.8712 0.7351
F1 F 0.80195(13) 0.6601(2) 0.8588(4)
C34 C 0.37027(18) 0.4503(2) 0.3367(2)
H22 H 0.4009 0.4459 0.3011
H23 H 0.3325 0.4277 0.3114
H24 H 0.3823 0.4155 0.3832
C35 C 0.21441(15) 0.8627(3) 0.6059(3)
H25 H 0.2260 0.9138 0.5765
H26 H 0.1954 0.8829 0.6508
H27 H 0.1865 0.8262 0.5729
F2 F 0.7408(2) 0.6006(4) 0.9133(3)
F3 F 0.7549(3) 0.5663(3) 0.8110(3)
S2 S 0.90961(3) 0.61477(5) 0.67000(4)
O5 O 1.06954(9) 0.67082(14) 0.48894(12)
F4 F 1.26935(9) 0.72305(15) 0.88547(14)
O6 O 0.93215(10) 0.53110(15) 0.69913(12)
N3 N 1.04479(10) 0.89281(15) 0.61679(13)
O7 O 0.83395(10) 0.52391(15) 0.30593(14)
O8 O 0.89003(11) 0.67542(17) 0.72544(13)
F5 F 1.26442(11) 0.62713(18) 0.79873(15)
N4 N 0.95694(11) 0.65269(15) 0.61608(13)
F6 F 1.21720(11) 0.6088(2) 0.8961(2)
C36 C 1.00518(12) 0.76249(18) 0.55148(15)
C37 C 0.97580(12) 0.73540(18) 0.61454(15)
C38 C 1.04907(12) 0.88830(18) 0.48027(16)
C39 C 1.03256(12) 0.84619(18) 0.54968(16)
C40 C 1.08284(12) 0.96703(19) 0.48597(17)
C41 C 0.97585(13) 0.56431(19) 0.41643(16)
H28 H 1.0130 0.5352 0.4267
C42 C 0.96798(13) 0.64777(19) 0.44808(16)
C43 C 1.09582(12) 1.00728(19) 0.55969(17)
H29 H 1.1191 1.0594 0.5648
C44 C 1.07508(12) 0.97144(18) 0.62173(16)
H30 H 1.0814 1.0008 0.6701
C45 C 0.97186(12) 0.80253(19) 0.67795(16)
H31 H 0.9645 0.7722 0.7264
H32 H 0.9382 0.8430 0.6634
C46 C 1.08186(12) 0.80283(19) 0.73024(16)
C47 C 1.02940(12) 0.85485(18) 0.69093(16)
H33 H 1.0221 0.9052 0.7257
C48 C 0.87607(14) 0.5676(2) 0.35377(17)
C49 C 1.03038(13) 0.8557(2) 0.40550(16)
H34 H 1.0059 0.8048 0.4001
C50 C 1.11234(13) 0.7394(2) 0.69193(17)
H35 H 1.1000 0.7263 0.6393
C51 C 0.91300(13) 0.6887(2) 0.43272(17)
H36 H 0.9066 0.7442 0.4555
C52 C 1.10091(13) 1.0054(2) 0.41876(17)
H37 H 1.1255 1.0562 0.4230
C53 C 1.01788(12) 0.69171(18) 0.49466(15)
C54 C 1.09957(13) 0.8204(2) 0.80771(17)
H38 H 1.0786 0.8627 0.8344
C55 C 0.86753(14) 0.6501(2) 0.38496(18)
H39 H 0.8307 0.6798 0.3736
C56 C 0.93026(14) 0.5239(2) 0.37046(17)
H40 H 0.9357 0.4667 0.3503
C57 C 1.04684(13) 0.8961(2) 0.34064(17)
H41 H 1.0332 0.8735 0.2910
C58 C 1.16050(13) 0.6954(2) 0.73010(18)
H42 H 1.1811 0.6520 0.7040
C59 C 0.84758(13) 0.5927(2) 0.60196(17)
C60 C 1.17835(13) 0.7153(2) 0.80693(18)
C61 C 0.80266(14) 0.6541(2) 0.5897(2)
H43 H 0.8062 0.7092 0.6157
C62 C 1.14780(14) 0.7765(2) 0.84622(18)
H44 H 1.1597 0.7885 0.8992
C63 C 1.08364(14) 0.9704(2) 0.34709(18)
H45 H 1.0966 0.9966 0.3022
C64 C 0.84412(14) 0.5138(2) 0.56127(19)
H46 H 0.8757 0.4724 0.5680
C65 C 1.23083(15) 0.6688(2) 0.8475(2)
C66 C 0.74684(14) 0.5562(2) 0.5012(2)
C67 C 0.79391(15) 0.4963(2) 0.5107(2)
H47 H 0.7915 0.4428 0.4822
C68 C 0.75253(14) 0.6358(2) 0.5397(2)
H48 H 0.7217 0.6783 0.5318
C69 C 0.78265(16) 0.5743(3) 0.2762(2)
H49 H 0.7572 0.5384 0.2394
H50 H 0.7955 0.6270 0.2500
H51 H 0.7603 0.5919 0.3190
C70 C 0.69046(16) 0.5335(3) 0.4510(3)
H52 H 0.7002 0.5000 0.4059
H53 H 0.6697 0.5877 0.4338
H54 H 0.6648 0.4979 0.4808
loop_
_geom_bond_atom_site_label_1
_geom_bond_atom_site_label_2
_geom_bond_site_symmetry_1
_geom_bond_site_symmetry_2
S1 O2 1_555 1_555
O1 C4 1_555 1_555
O3 S1 1_555 1_555
O4 C18 1_555 1_555
N1 C7 1_555 1_555
N2 S1 1_555 1_555
C1 N2 1_555 1_555
C2 C1 1_555 1_555
C3 C4 1_555 1_555
C4 C2 1_555 1_555
C5 C7 1_555 1_555
C6 C16 1_555 1_555
C7 C2 1_555 1_555
C8 S1 1_555 1_555
C9 C3 1_555 1_555
H1 C9 1_555 1_555
C10 C5 1_555 1_555
C11 H2 1_555 1_555
C12 C9 1_555 1_555
H3 C12 1_555 1_555
C13 C3 1_555 1_555
H4 C13 1_555 1_555
C14 C23 1_555 1_555
C15 C1 1_555 1_555
H5 C15 1_555 1_555
H6 C15 1_555 1_555
C16 N1 1_555 1_555
H7 C16 1_555 1_555
C17 N1 1_555 1_555
H8 C17 1_555 1_555
C18 C11 1_555 1_555
C19 C10 1_555 1_555
H9 C19 1_555 1_555
C20 C5 1_555 1_555
H10 C20 1_555 1_555
C21 C8 1_555 1_555
H11 C21 1_555 1_555
C22 C10 1_555 1_555
H12 C22 1_555 1_555
C23 H13 1_555 1_555
C24 C6 1_555 1_555
H14 C24 1_555 1_555
C25 C6 1_555 1_555
H15 C25 1_555 1_555
C26 C20 1_555 1_555
H16 C26 1_555 1_555
C27 C8 1_555 1_555
H17 C27 1_555 1_555
C28 C22 1_555 1_555
H18 C28 1_555 1_555
C29 C14 1_555 1_555
C30 C31 1_555 1_555
C31 C27 1_555 1_555
H19 C31 1_555 1_555
C32 C14 1_555 1_555
H20 C32 1_555 1_555
C33 C21 1_555 1_555
H21 C33 1_555 1_555
F1 C29 1_555 1_555
C34 O4 1_555 1_555
H22 C34 1_555 1_555
H23 C34 1_555 1_555
H24 C34 1_555 1_555
C35 C30 1_555 1_555
H25 C35 1_555 1_555
H26 C35 1_555 1_555
H27 C35 1_555 1_555
F2 C29 1_555 1_555
F3 C29 1_555 1_555
S2 O6 1_555 1_555
O5 C53 1_555 1_555
F4 C65 1_555 1_555
N3 C39 1_555 1_555
O7 C48 1_555 1_555
O8 S2 1_555 1_555
F5 C65 1_555 1_555
N4 S2 1_555 1_555
F6 C65 1_555 1_555
C36 C37 1_555 1_555
C37 N4 1_555 1_555
C38 C39 1_555 1_555
C39 C36 1_555 1_555
C40 C38 1_555 1_555
C41 H28 1_555 1_555
C42 C41 1_555 1_555
C43 C40 1_555 1_555
H29 C43 1_555 1_555
C44 N3 1_555 1_555
H30 C44 1_555 1_555
C45 C37 1_555 1_555
H31 C45 1_555 1_555
H32 C45 1_555 1_555
C46 C47 1_555 1_555
C47 N3 1_555 1_555
H33 C47 1_555 1_555
C48 C55 1_555 1_555
C49 C38 1_555 1_555
H34 C49 1_555 1_555
C50 C46 1_555 1_555
H35 C50 1_555 1_555
C51 C42 1_555 1_555
H36 C51 1_555 1_555
C52 C40 1_555 1_555
H37 C52 1_555 1_555
C53 C36 1_555 1_555
C54 C46 1_555 1_555
H38 C54 1_555 1_555
C55 C51 1_555 1_555
H39 C55 1_555 1_555
C56 C41 1_555 1_555
H40 C56 1_555 1_555
C57 C49 1_555 1_555
H41 C57 1_555 1_555
C58 C50 1_555 1_555
H42 C58 1_555 1_555
C59 S2 1_555 1_555
C60 C58 1_555 1_555
C61 C59 1_555 1_555
H43 C61 1_555 1_555
C62 C54 1_555 1_555
H44 C62 1_555 1_555
C63 C52 1_555 1_555
H45 C63 1_555 1_555
C64 C59 1_555 1_555
H46 C64 1_555 1_555
C65 C60 1_555 1_555
C66 C67 1_555 1_555
C67 C64 1_555 1_555
H47 C67 1_555 1_555
C68 C61 1_555 1_555
H48 C68 1_555 1_555
C69 O7 1_555 1_555
H49 C69 1_555 1_555
H50 C69 1_555 1_555
H51 C69 1_555 1_555
C70 C66 1_555 1_555
H52 C70 1_555 1_555
H53 C70 1_555 1_555
H54 C70 1_555 1_555
C11 C13 1_555 1_555
C12 C18 1_555 1_555
C15 C16 1_555 1_555
C17 C19 1_555 1_555
C23 C24 1_555 1_555
C25 C32 1_555 1_555
C26 C28 1_555 1_555
C30 C33 1_555 1_555
C42 C53 1_555 1_555
C43 C44 1_555 1_555
C45 C47 1_555 1_555
C48 C56 1_555 1_555
C57 C63 1_555 1_555
C60 C62 1_555 1_555
C66 C68 1_555 1_555

#END
