
#######################################################################
#
#                 Cambridge Crystallographic Data Centre
#                                CCDC 
#
#######################################################################
#
# If this CIF has been generated from an entry in the Cambridge 
# Structural Database, then it will include bibliographic, chemical, 
# crystal, experimental, refinement or atomic coordinate data resulting 
# from the CCDC's data processing and validation procedures.
#
#######################################################################

data_MAYDEY
_chemical_formula_moiety         'C13 H12 O4,0.33(C1 H1 Cl3)'
_chemical_name_systematic        
'3a-hydroxy-1-methyl-3a,4,5,9b-tetrahydro-1,5-epoxynaphtho[1,2-c]furan-3(1H)-one chloroform solvate'
_symmetry_cell_setting           cubic
_symmetry_space_group_name_H-M   'P a -3'
_symmetry_Int_Tables_number      205
_space_group_name_Hall           '-P 2ac 2ab 3'
loop_
_symmetry_equiv_pos_site_id
_symmetry_equiv_pos_as_xyz
1 x,y,z
2 1/2-x,-y,1/2+z
3 1/2+x,1/2-y,-z
4 -x,1/2+y,1/2-z
5 z,x,y
6 1/2-z,-x,1/2+y
7 1/2+z,1/2-x,-y
8 -z,1/2+x,1/2-y
9 y,z,x
10 1/2+y,1/2-z,-x
11 -y,1/2+z,1/2-x
12 1/2-y,-z,1/2+x
13 -x,-y,-z
14 1/2+x,y,1/2-z
15 1/2-x,1/2+y,z
16 x,1/2-y,1/2+z
17 -z,-x,-y
18 1/2+z,x,1/2-y
19 1/2-z,1/2+x,y
20 z,1/2-x,1/2+y
21 -y,-z,-x
22 1/2-y,1/2+z,x
23 y,1/2-z,1/2+x
24 1/2+y,z,1/2-x
_cell_length_a                   19.5580(7)
_cell_length_b                   19.5580(7)
_cell_length_c                   19.5580(7)
_cell_angle_alpha                90
_cell_angle_beta                 90
_cell_angle_gamma                90
_cell_volume                     7481.24
_exptl_crystal_colour            'light colorless'
_exptl_crystal_description       block
_cell_formula_units_Z            24
loop_
_atom_site_label
_atom_site_type_symbol
_atom_site_fract_x
_atom_site_fract_y
_atom_site_fract_z
O1 O 0.54075(12) 0.19170(11) 0.42641(12)
O2 O 0.49167(15) 0.38380(12) 0.50137(13)
H1 H 0.4888 0.3866 0.5431
O3 O 0.63383(15) 0.35043(14) 0.52209(19)
O4 O 0.60255(12) 0.24142(12) 0.51560(13)
C1 C 0.42544(19) 0.22834(18) 0.40991(19)
C2 C 0.3696(2) 0.2101(2) 0.3702(2)
H2 H 0.3751 0.2027 0.3235
C3 C 0.3061(2) 0.2029(2) 0.3997(3)
H3 H 0.2685 0.1915 0.3729
C4 C 0.2986(2) 0.2125(2) 0.4688(3)
H4 H 0.2558 0.2070 0.4888
C5 C 0.35434(18) 0.23040(17) 0.5096(2)
H5 H 0.3488 0.2370 0.5564
C6 C 0.41769(17) 0.23824(17) 0.47967(18)
C7 C 0.48287(16) 0.25677(17) 0.51441(17)
H6 H 0.4766 0.2615 0.5639
C8 C 0.53879(17) 0.20429(18) 0.49726(19)
C9 C 0.49762(19) 0.23863(18) 0.38750(19)
H7 H 0.5022 0.2303 0.3383
C10 C 0.5183(2) 0.31224(18) 0.40513(19)
H8 H 0.4860 0.3442 0.3852
H9 H 0.5633 0.3221 0.3868
C11 C 0.51886(19) 0.31994(18) 0.4835(2)
C12 C 0.5910(2) 0.3088(2) 0.5089(2)
C13 C 0.53973(19) 0.13778(18) 0.53511(18)
H10 H 0.4972 0.1143 0.5280
H11 H 0.5459 0.1463 0.5831
H12 H 0.5767 0.1101 0.5186
Cl1 Cl 0.20491(7) 0.25983(7) 0.14058(7)
C14 C 0.1851(2) 0.1851(2) 0.1851(2)
H13 H 0.1561 0.1561 0.1561
Cl1D Cl 0.14058(7) 0.20491(7) 0.25983(7)
Cl1H Cl 0.25983(7) 0.14058(7) 0.20491(7)
loop_
_geom_bond_atom_site_label_1
_geom_bond_atom_site_label_2
_geom_bond_site_symmetry_1
_geom_bond_site_symmetry_2
O1 C8 1_555 1_555
O2 H1 1_555 1_555
O3 C12 1_555 1_555
O4 C8 1_555 1_555
C1 C2 1_555 1_555
C2 H2 1_555 1_555
C3 C2 1_555 1_555
H3 C3 1_555 1_555
C4 C3 1_555 1_555
H4 C4 1_555 1_555
C5 C4 1_555 1_555
H5 C5 1_555 1_555
C6 C1 1_555 1_555
C7 C6 1_555 1_555
H6 C7 1_555 1_555
C8 C7 1_555 1_555
C9 O1 1_555 1_555
H7 C9 1_555 1_555
C10 C9 1_555 1_555
H8 C10 1_555 1_555
H9 C10 1_555 1_555
C11 O2 1_555 1_555
C12 O4 1_555 1_555
C13 C8 1_555 1_555
H10 C13 1_555 1_555
H11 C13 1_555 1_555
H12 C13 1_555 1_555
Cl1 C14 1_555 1_555
C14 H13 1_555 1_555
Cl1D C14 1_555 1_555
Cl1H C14 1_555 1_555
C1 C9 1_555 1_555
C5 C6 1_555 1_555
C7 C11 1_555 1_555
C10 C11 1_555 1_555
C11 C12 1_555 1_555

#END
