
#######################################################################
#
#                 Cambridge Crystallographic Data Centre
#                                CCDC 
#
#######################################################################
#
# If this CIF has been generated from an entry in the Cambridge 
# Structural Database, then it will include bibliographic, chemical, 
# crystal, experimental, refinement or atomic coordinate data resulting 
# from the CCDC's data processing and validation procedures.
#
#######################################################################

data_MAYDUO
_chemical_formula_moiety         'C27 H21 N1 O2'
_chemical_name_systematic        
4-(benzenecarbonyl)-8-methyl-1-phenyl-1,2-dihydro-3H-pyrido[1,2-a]quinolin-3-one
_symmetry_cell_setting           orthorhombic
_symmetry_space_group_name_H-M   'P b c a'
_symmetry_Int_Tables_number      61
_space_group_name_Hall           '-P 2ac 2ab'
loop_
_symmetry_equiv_pos_site_id
_symmetry_equiv_pos_as_xyz
1 x,y,z
2 1/2-x,-y,1/2+z
3 -x,1/2+y,1/2-z
4 1/2+x,1/2-y,-z
5 -x,-y,-z
6 1/2+x,y,1/2-z
7 x,1/2-y,1/2+z
8 1/2-x,1/2+y,z
_cell_length_a                   11.0245(3)
_cell_length_b                   17.7340(5)
_cell_length_c                   20.7399(5)
_cell_angle_alpha                90
_cell_angle_beta                 90
_cell_angle_gamma                90
_cell_volume                     4054.83
_exptl_crystal_colour            'light yellow'
_exptl_crystal_description       block
_cell_formula_units_Z            8
loop_
_atom_site_label
_atom_site_type_symbol
_atom_site_fract_x
_atom_site_fract_y
_atom_site_fract_z
N1 N 0.64019(12) 0.44933(8) 0.67812(6)
O1 O 0.91474(12) 0.60188(8) 0.70836(7)
O2 O 1.02775(13) 0.40863(10) 0.65050(10)
C1 C 0.54390(15) 0.39810(9) 0.67463(7)
C2 C 0.61169(15) 0.52994(9) 0.68925(8)
H1 H 0.5368 0.5322 0.7146
C3 C 0.58953(14) 0.57254(9) 0.62681(8)
C4 C 0.85154(16) 0.48409(10) 0.66704(8)
C5 C 0.42290(16) 0.42122(10) 0.67803(8)
H2 H 0.4043 0.4722 0.6821
C6 C 0.75864(16) 0.42926(10) 0.66797(7)
C7 C 0.56875(17) 0.32096(10) 0.66603(8)
C8 C 0.83415(16) 0.55471(10) 0.69910(8)
C9 C 1.02920(17) 0.52544(11) 0.59709(9)
C10 C 0.71134(16) 0.56537(11) 0.72909(8)
H3 H 0.6953 0.6189 0.7338
H4 H 0.7112 0.5431 0.7718
C11 C 0.61528(19) 0.54404(11) 0.56687(9)
H5 H 0.6444 0.4950 0.5630
C12 C 0.47232(19) 0.26898(11) 0.66411(9)
H6 H 0.4894 0.2179 0.6595
C13 C 0.33155(17) 0.36885(11) 0.67542(9)
H7 H 0.2516 0.3853 0.6782
C14 C 0.35380(19) 0.29180(11) 0.66882(9)
C15 C 0.97300(17) 0.46724(12) 0.64051(9)
C16 C 0.78163(17) 0.35055(11) 0.65742(9)
H8 H 0.8608 0.3346 0.6502
C17 C 0.54412(18) 0.64522(11) 0.63145(10)
H9 H 0.5246 0.6650 0.6717
C18 C 1.15432(19) 0.52605(13) 0.58890(10)
H10 H 1.2021 0.4915 0.6111
C19 C 0.69175(19) 0.29931(11) 0.65771(10)
H11 H 0.7106 0.2486 0.6523
C20 C 0.9595(2) 0.57531(12) 0.56218(10)
H12 H 0.8756 0.5751 0.5669
C21 C 0.5983(2) 0.58749(14) 0.51192(10)
H13 H 0.6167 0.5676 0.4716
C22 C 0.5277(2) 0.68853(12) 0.57669(12)
H14 H 0.4982 0.7375 0.5803
C23 C 0.5547(2) 0.65954(13) 0.51696(11)
H15 H 0.5434 0.6887 0.4802
C24 C 1.2080(2) 0.57749(14) 0.54819(11)
H16 H 1.2920 0.5786 0.5440
C25 C 1.0136(3) 0.62578(14) 0.52010(11)
H17 H 0.9661 0.6588 0.4961
C26 C 1.1382(3) 0.62696(15) 0.51390(12)
H18 H 1.1748 0.6615 0.4863
C27 C 0.2489(2) 0.23756(14) 0.66556(13)
H19 H 0.2788 0.1878 0.6567
H20 H 0.1945 0.2528 0.6318
H21 H 0.2067 0.2376 0.7060
loop_
_geom_bond_atom_site_label_1
_geom_bond_atom_site_label_2
_geom_bond_site_symmetry_1
_geom_bond_site_symmetry_2
N1 C1 1_555 1_555
O1 C8 1_555 1_555
O2 C15 1_555 1_555
C1 C5 1_555 1_555
C2 N1 1_555 1_555
H1 C2 1_555 1_555
C3 C2 1_555 1_555
C4 C6 1_555 1_555
C5 H2 1_555 1_555
C6 N1 1_555 1_555
C7 C1 1_555 1_555
C8 C4 1_555 1_555
C9 C15 1_555 1_555
C10 C2 1_555 1_555
H3 C10 1_555 1_555
H4 C10 1_555 1_555
C11 C3 1_555 1_555
H5 C11 1_555 1_555
C12 C7 1_555 1_555
H6 C12 1_555 1_555
C13 C5 1_555 1_555
H7 C13 1_555 1_555
C14 C12 1_555 1_555
C15 C4 1_555 1_555
C16 C6 1_555 1_555
H8 C16 1_555 1_555
C17 C3 1_555 1_555
H9 C17 1_555 1_555
C18 C9 1_555 1_555
H10 C18 1_555 1_555
C19 C7 1_555 1_555
H11 C19 1_555 1_555
C20 C9 1_555 1_555
H12 C20 1_555 1_555
C21 C11 1_555 1_555
H13 C21 1_555 1_555
C22 C17 1_555 1_555
H14 C22 1_555 1_555
C23 C21 1_555 1_555
H15 C23 1_555 1_555
C24 C18 1_555 1_555
H16 C24 1_555 1_555
C25 C20 1_555 1_555
H17 C25 1_555 1_555
C26 C24 1_555 1_555
H18 C26 1_555 1_555
C27 C14 1_555 1_555
H19 C27 1_555 1_555
H20 C27 1_555 1_555
H21 C27 1_555 1_555
C8 C10 1_555 1_555
C13 C14 1_555 1_555
C16 C19 1_555 1_555
C22 C23 1_555 1_555
C25 C26 1_555 1_555

#END
