
#######################################################################
#
#                 Cambridge Crystallographic Data Centre
#                                CCDC 
#
#######################################################################
#
# If this CIF has been generated from an entry in the Cambridge 
# Structural Database, then it will include bibliographic, chemical, 
# crystal, experimental, refinement or atomic coordinate data resulting 
# from the CCDC's data processing and validation procedures.
#
#######################################################################

data_MAYFIE
_chemical_formula_moiety         'C56 H58 N2 O4 Si2,2(C7 H8)'
_chemical_name_systematic        
'2,8-bis[2,6-bis(propan-2-yl)phenyl]-5,5,11,11-tetraethyl-5,11-dihydro-2,8-diaza-5,11-disiladibenzo[cd,lm]dicyclopenta[ghi,pqr]perylene-1,3,7,9(2H,8H)-tetrone toluene solvate'
_symmetry_cell_setting           triclinic
_symmetry_space_group_name_H-M   'P -1'
_symmetry_Int_Tables_number      2
_space_group_name_Hall           '-P 1'
loop_
_symmetry_equiv_pos_site_id
_symmetry_equiv_pos_as_xyz
1 x,y,z
2 -x,-y,-z
_cell_length_a                   12.123(2)
_cell_length_b                   15.118(3)
_cell_length_c                   18.055(4)
_cell_angle_alpha                67.88(3)
_cell_angle_beta                 82.56(3)
_cell_angle_gamma                70.67(3)
_cell_volume                     2892.63
_exptl_crystal_colour            red
_exptl_crystal_description       block
_cell_formula_units_Z            2
loop_
_atom_site_label
_atom_site_type_symbol
_atom_site_fract_x
_atom_site_fract_y
_atom_site_fract_z
Si1 Si 0.74708(6) 0.36436(6) 0.38701(4)
Si2 Si 0.23453(6) 0.64868(6) 0.10246(4)
O1 O 0.37961(18) 0.18401(16) 0.54051(13)
O2 O 0.06816(16) 0.36037(15) 0.37280(12)
O3 O 0.60666(18) 0.81937(16) -0.05579(13)
O4 O 0.91542(16) 0.64892(15) 0.11495(12)
N1 N 0.22483(18) 0.27373(16) 0.45586(13)
N2 N 0.76010(19) 0.73271(16) 0.03006(13)
C1 C 0.3410(2) 0.2519(2) 0.47901(17)
C2 C 0.4087(2) 0.31566(19) 0.42392(15)
C3 C 0.5231(2) 0.3009(2) 0.44273(16)
H1 H 0.5556 0.2515 0.4905
C4 C 0.5909(2) 0.3601(2) 0.39005(16)
C5 C 0.5378(2) 0.4323(2) 0.31937(15)
C6 C 0.6080(2) 0.4909(2) 0.26379(16)
C7 C 0.7224(2) 0.4700(2) 0.28538(16)
C8 C 0.7896(2) 0.5276(2) 0.23053(16)
H2 H 0.8664 0.5157 0.2431
C9 C 0.7433(2) 0.6016(2) 0.15819(16)
C10 C 0.8144(2) 0.66067(19) 0.10165(16)
C11 C 0.6439(2) 0.75465(19) 0.00733(16)
C12 C 0.5739(2) 0.69446(19) 0.06470(15)
C13 C 0.4593(2) 0.7108(2) 0.04624(16)
H3 H 0.4275 0.7596 -0.0019
C14 C 0.3900(2) 0.6541(2) 0.09983(16)
C15 C 0.4418(2) 0.58259(19) 0.17118(15)
C16 C 0.3726(2) 0.52331(19) 0.22669(15)
C17 C 0.2586(2) 0.54277(19) 0.20429(15)
C18 C 0.1920(2) 0.48478(19) 0.25855(15)
H4 H 0.1150 0.4967 0.2462
C19 C 0.2396(2) 0.40971(19) 0.33058(15)
C20 C 0.1688(2) 0.34851(19) 0.38582(16)
C21 C 0.3557(2) 0.39096(19) 0.35231(15)
C22 C 0.4217(2) 0.44963(19) 0.29987(15)
C23 C 0.5585(2) 0.5647(2) 0.19118(16)
C24 C 0.6258(2) 0.62156(19) 0.13719(15)
C25 C 0.1563(2) 0.2126(2) 0.51024(16)
C26 C 0.0942(2) 0.2419(2) 0.57255(16)
C27 C 0.0265(3) 0.1836(2) 0.62188(18)
H5 H -0.0166 0.2015 0.6634
C28 C 0.0226(3) 0.0988(2) 0.60986(19)
H6 H -0.0239 0.0613 0.6428
C29 C 0.0866(3) 0.0706(2) 0.54997(18)
H7 H 0.0838 0.0133 0.5433
C30 C 0.1561(2) 0.1257(2) 0.49869(17)
C31 C 0.1048(3) 0.3298(2) 0.59035(18)
H8 H 0.1451 0.3673 0.5451
C32 C -0.0127(3) 0.4019(3) 0.6009(2)
H9 H -0.0592 0.4262 0.5540
H10 H -0.0006 0.4574 0.6088
H11 H -0.0524 0.3676 0.6466
C33 C 0.1793(4) 0.2904(3) 0.6644(3)
H12 H 0.1414 0.2534 0.7097
H13 H 0.1890 0.3458 0.6738
H14 H 0.2545 0.2472 0.6563
C34 C 0.2309(3) 0.0891(2) 0.4353(2)
H15 H 0.2709 0.1384 0.4040
C35 C 0.3231(4) -0.0112(4) 0.4732(3)
H16 H 0.3684 -0.0057 0.5102
H17 H 0.3735 -0.0296 0.4323
H18 H 0.2856 -0.0616 0.5011
C36 C 0.1592(4) 0.0784(5) 0.3791(3)
H19 H 0.1231 0.0273 0.4081
H20 H 0.2088 0.0599 0.3379
H21 H 0.0998 0.1410 0.3553
C37 C 0.8296(2) 0.79274(19) -0.02553(17)
C38 C 0.8281(3) 0.8804(2) -0.01638(19)
C39 C 0.9004(3) 0.9336(2) -0.0679(2)
H22 H 0.9031 0.9917 -0.0628
C40 C 0.9668(3) 0.9016(2) -0.1257(2)
H23 H 1.0148 0.9376 -0.1587
C41 C 0.9629(3) 0.8161(2) -0.13508(19)
H24 H 1.0073 0.7960 -0.1753
C42 C 0.8937(2) 0.7596(2) -0.08539(17)
C43 C 0.7491(3) 0.9216(2) 0.0431(2)
H25 H 0.7060 0.8743 0.0735
C44 C 0.8166(4) 0.9331(5) 0.1013(3)
H26 H 0.8639 0.8682 0.1342
H27 H 0.7632 0.9652 0.1344
H28 H 0.8660 0.9734 0.0724
C45 C 0.6604(4) 1.0224(4) -0.0005(3)
H29 H 0.7000 1.0720 -0.0252
H30 H 0.6035 1.0424 0.0370
H31 H 0.6220 1.0163 -0.0408
C46 C 0.8836(3) 0.6699(2) -0.10026(19)
H32 H 0.8470 0.6318 -0.0528
C47 C 1.0003(3) 0.5993(3) -0.1131(3)
H33 H 1.0352 0.6328 -0.1619
H34 H 0.9887 0.5410 -0.1163
H35 H 1.0511 0.5793 -0.0691
C48 C 0.8041(4) 0.7049(3) -0.1707(3)
H36 H 0.7302 0.7491 -0.1620
H37 H 0.7924 0.6479 -0.1762
H38 H 0.8395 0.7399 -0.2187
C49 C 0.8557(2) 0.2462(2) 0.38287(19)
H39 H 0.9319 0.2564 0.3704
H40 H 0.8605 0.1942 0.4353
C50 C 0.8275(3) 0.2097(3) 0.3214(2)
H41 H 0.8168 0.2624 0.2699
H42 H 0.7571 0.1912 0.3370
H43 H 0.8908 0.1525 0.3187
C51 C 0.7826(3) 0.4028(3) 0.46521(18)
H44 H 0.7946 0.3461 0.5153
H45 H 0.8560 0.4179 0.4509
C52 C 0.6917(3) 0.4928(3) 0.4789(2)
H46 H 0.6819 0.5505 0.4306
H47 H 0.7172 0.5056 0.5209
H48 H 0.6185 0.4789 0.4938
C53 C 0.2034(3) 0.6128(2) 0.02122(18)
H49 H 0.1283 0.6004 0.0321
H50 H 0.1964 0.6693 -0.0287
C54 C 0.2946(3) 0.5204(3) 0.0100(2)
H51 H 0.2717 0.5083 -0.0334
H52 H 0.3000 0.4631 0.0581
H53 H 0.3692 0.5320 -0.0019
C55 C 0.1230(3) 0.7651(2) 0.10679(18)
H54 H 0.1248 0.8196 0.0568
H55 H 0.0463 0.7562 0.1119
C56 C 0.1402(4) 0.7942(3) 0.1757(2)
H56 H 0.2134 0.8081 0.1690
H57 H 0.1405 0.7400 0.2254
H58 H 0.0776 0.8529 0.1762
C57 C 0.4207(5) 0.7837(4) 0.7943(3)
C58 C 0.3137(4) 0.8464(3) 0.8059(2)
H59 H 0.2683 0.8230 0.8500
C59 C 0.2734(5) 0.9420(4) 0.7539(3)
H60 H 0.1987 0.9810 0.7619
C60 C 0.3364(5) 0.9832(4) 0.6912(3)
H61 H 0.3084 1.0502 0.6583
C61 C 0.4415(6) 0.9237(6) 0.6778(4)
H62 H 0.4844 0.9493 0.6329
C62 C 0.4886(4) 0.8230(5) 0.7302(3)
H63 H 0.5632 0.7843 0.7219
C63 C 0.4621(7) 0.6805(4) 0.8462(3)
H64 H 0.4670 0.6773 0.8999
H65 H 0.5381 0.6492 0.8287
H66 H 0.4090 0.6462 0.8448
C64 C 0.5286(8) 0.0477(6) 0.8061(5)
H67 H 0.5024 -0.0061 0.8379
C65 C 0.4494(8) 0.1406(7) 0.7785(5)
H68 H 0.3702 0.1505 0.7901
C66 C 0.4901(8) 0.2185(8) 0.7334(5)
H69 H 0.4372 0.2829 0.7189
C67 C 0.6007(6) 0.2091(4) 0.7084(3)
C68 C 0.6862(7) 0.1095(6) 0.7380(5)
H70 H 0.7643 0.1006 0.7229
C69 C 0.6517(11) 0.0292(10) 0.7880(9)
H71 H 0.7053 -0.0344 0.8092
C70 C 0.6337(10) 0.2989(8) 0.6586(7)
H72 H 0.5855 0.3341 0.6118
H73 H 0.7142 0.2793 0.6429
H74 H 0.6229 0.3418 0.6885
C71? C 0.6092(11) 0.1027(10) 0.7459(7)
C72? C 0.6166(18) 0.0093(15) 0.7864(11)
H75? H 0.6705 -0.0326 0.7602
H76? H 0.5410 0.0006 0.7894
H77? H 0.6437 -0.0092 0.8394
C73? C 0.6920(11) 0.1453(9) 0.6997(8)
H78? H 0.7645 0.1019 0.6934
C74? C 0.6757(12) 0.2458(10) 0.6628(10)
H79? H 0.7382 0.2685 0.6377
C75? C 0.5640(12) 0.3151(11) 0.6626(11)
H80? H 0.5483 0.3839 0.6359
C76? C 0.4810(14) 0.2730(11) 0.7047(10)
H81? H 0.4046 0.3150 0.7028
C77? C 0.5025(14) 0.1724(11) 0.7502(12)
H82? H 0.4445 0.1511 0.7843
loop_
_geom_bond_atom_site_label_1
_geom_bond_atom_site_label_2
_geom_bond_site_symmetry_1
_geom_bond_site_symmetry_2
Si1 C4 1_555 1_555
Si2 C14 1_555 1_555
O1 C1 1_555 1_555
O2 C20 1_555 1_555
O3 C11 1_555 1_555
O4 C10 1_555 1_555
N1 C1 1_555 1_555
N2 C10 1_555 1_555
C1 C2 1_555 1_555
C2 C3 1_555 1_555
C3 H1 1_555 1_555
C4 C3 1_555 1_555
C5 C4 1_555 1_555
C6 C5 1_555 1_555
C7 Si1 1_555 1_555
C8 C7 1_555 1_555
H2 C8 1_555 1_555
C9 C8 1_555 1_555
C10 C9 1_555 1_555
C11 N2 1_555 1_555
C12 C11 1_555 1_555
C13 C12 1_555 1_555
H3 C13 1_555 1_555
C14 C13 1_555 1_555
C15 C14 1_555 1_555
C16 C15 1_555 1_555
C17 Si2 1_555 1_555
C18 C17 1_555 1_555
H4 C18 1_555 1_555
C19 C18 1_555 1_555
C20 N1 1_555 1_555
C21 C2 1_555 1_555
C22 C5 1_555 1_555
C23 C6 1_555 1_555
C24 C9 1_555 1_555
C25 N1 1_555 1_555
C26 C25 1_555 1_555
C27 C26 1_555 1_555
H5 C27 1_555 1_555
C28 C27 1_555 1_555
H6 C28 1_555 1_555
C29 C28 1_555 1_555
H7 C29 1_555 1_555
C30 C25 1_555 1_555
C31 C26 1_555 1_555
H8 C31 1_555 1_555
C32 C31 1_555 1_555
H9 C32 1_555 1_555
H10 C32 1_555 1_555
H11 C32 1_555 1_555
C33 C31 1_555 1_555
H12 C33 1_555 1_555
H13 C33 1_555 1_555
H14 C33 1_555 1_555
C34 C30 1_555 1_555
H15 C34 1_555 1_555
C35 C34 1_555 1_555
H16 C35 1_555 1_555
H17 C35 1_555 1_555
H18 C35 1_555 1_555
C36 C34 1_555 1_555
H19 C36 1_555 1_555
H20 C36 1_555 1_555
H21 C36 1_555 1_555
C37 N2 1_555 1_555
C38 C37 1_555 1_555
C39 C38 1_555 1_555
H22 C39 1_555 1_555
C40 C39 1_555 1_555
H23 C40 1_555 1_555
C41 C40 1_555 1_555
H24 C41 1_555 1_555
C42 C37 1_555 1_555
C43 C38 1_555 1_555
H25 C43 1_555 1_555
C44 C43 1_555 1_555
H26 C44 1_555 1_555
H27 C44 1_555 1_555
H28 C44 1_555 1_555
C45 C43 1_555 1_555
H29 C45 1_555 1_555
H30 C45 1_555 1_555
H31 C45 1_555 1_555
C46 C42 1_555 1_555
H32 C46 1_555 1_555
C47 C46 1_555 1_555
H33 C47 1_555 1_555
H34 C47 1_555 1_555
H35 C47 1_555 1_555
C48 C46 1_555 1_555
H36 C48 1_555 1_555
H37 C48 1_555 1_555
H38 C48 1_555 1_555
C49 Si1 1_555 1_555
H39 C49 1_555 1_555
H40 C49 1_555 1_555
C50 C49 1_555 1_555
H41 C50 1_555 1_555
H42 C50 1_555 1_555
H43 C50 1_555 1_555
C51 Si1 1_555 1_555
H44 C51 1_555 1_555
H45 C51 1_555 1_555
C52 C51 1_555 1_555
H46 C52 1_555 1_555
H47 C52 1_555 1_555
H48 C52 1_555 1_555
C53 Si2 1_555 1_555
H49 C53 1_555 1_555
H50 C53 1_555 1_555
C54 C53 1_555 1_555
H51 C54 1_555 1_555
H52 C54 1_555 1_555
H53 C54 1_555 1_555
C55 Si2 1_555 1_555
H54 C55 1_555 1_555
H55 C55 1_555 1_555
C56 C55 1_555 1_555
H56 C56 1_555 1_555
H57 C56 1_555 1_555
H58 C56 1_555 1_555
C57 C58 1_555 1_555
C58 H59 1_555 1_555
C59 C58 1_555 1_555
H60 C59 1_555 1_555
C60 C59 1_555 1_555
H61 C60 1_555 1_555
C61 C60 1_555 1_555
H62 C61 1_555 1_555
C62 C57 1_555 1_555
H63 C62 1_555 1_555
C63 C57 1_555 1_555
H64 C63 1_555 1_555
H65 C63 1_555 1_555
H66 C63 1_555 1_555
C64 H67 1_555 1_555
C65 C64 1_555 1_555
H68 C65 1_555 1_555
C66 C65 1_555 1_555
H69 C66 1_555 1_555
C67 C66 1_555 1_555
C68 C67 1_555 1_555
H70 C68 1_555 1_555
C69 C64 1_555 1_555
H71 C69 1_555 1_555
C70 C67 1_555 1_555
H72 C70 1_555 1_555
H73 C70 1_555 1_555
H74 C70 1_555 1_555
C6 C7 1_555 1_555
C12 C24 1_555 1_555
C15 C23 1_555 1_555
C16 C17 1_555 1_555
C16 C22 1_555 1_555
C19 C20 1_555 1_555
C19 C21 1_555 1_555
C21 C22 1_555 1_555
C23 C24 1_555 1_555
C29 C30 1_555 1_555
C41 C42 1_555 1_555
C61 C62 1_555 1_555
C68 C69 1_555 1_555

#END
