
#######################################################################
#
#                 Cambridge Crystallographic Data Centre
#                                CCDC 
#
#######################################################################
#
# If this CIF has been generated from an entry in the Cambridge 
# Structural Database, then it will include bibliographic, chemical, 
# crystal, experimental, refinement or atomic coordinate data resulting 
# from the CCDC's data processing and validation procedures.
#
#######################################################################

data_MAYTIR
_chemical_formula_moiety         'C14 H12 O2'
_chemical_name_systematic        4-(2,3-Dihydro-1-benzofuran-5-yl)phenol
_symmetry_cell_setting           monoclinic
_symmetry_space_group_name_H-M   'P 21/c'
_symmetry_Int_Tables_number      14
_space_group_name_Hall           '-P 2ybc'
loop_
_symmetry_equiv_pos_site_id
_symmetry_equiv_pos_as_xyz
1 x,y,z
2 -x,1/2+y,1/2-z
3 -x,-y,-z
4 x,1/2-y,1/2+z
_cell_length_a                   8.4518(13)
_cell_length_b                   6.1787(9)
_cell_length_c                   21.735(3)
_cell_angle_alpha                90
_cell_angle_beta                 110.525(6)
_cell_angle_gamma                90
_cell_volume                     1062.97
_exptl_crystal_colour            colorless
_exptl_crystal_description       lamellar
_cell_formula_units_Z            4
loop_
_atom_site_label
_atom_site_type_symbol
_atom_site_fract_x
_atom_site_fract_y
_atom_site_fract_z
O1 O 0.21065(16) 0.0621(2) 0.02223(6)
O2 O 1.18593(16) 0.1025(2) 0.43376(6)
H1 H 1.1851 0.2095 0.4558
C1 C 0.3435(2) 0.0870(3) 0.08098(8)
C2 C 0.3583(3) 0.2541(3) 0.12424(9)
H2 H 0.2769 0.3624 0.1156
C3 C 0.4987(3) 0.2552(3) 0.18107(9)
H3 H 0.5113 0.3679 0.2108
C4 C 0.6226(2) 0.0947(3) 0.19589(8)
C5 C 0.7708(2) 0.0999(3) 0.25844(8)
C6 C 0.8973(3) -0.0557(4) 0.27329(9)
H4 H 0.8895 -0.1658 0.2432
C7 C 1.0341(3) -0.0524(4) 0.33122(9)
H5 H 1.1170 -0.1584 0.3394
C8 C 1.0483(2) 0.1070(3) 0.37681(8)
C9 C 0.7905(2) 0.2601(4) 0.30524(9)
H6 H 0.7091 0.3681 0.2972
C10 C 0.9273(2) 0.2645(4) 0.36344(9)
H7 H 0.9370 0.3750 0.3936
C11 C 0.2336(3) -0.1462(4) -0.00468(10)
H8 H 0.2260 -0.1293 -0.0500
H9 H 0.1463 -0.2462 -0.0035
C12 C 0.4059(3) -0.2328(4) 0.03627(10)
H10 H 0.3983 -0.3791 0.0512
H11 H 0.4826 -0.2309 0.0119
C13 C 0.4609(2) -0.0755(3) 0.09301(8)
C14 C 0.6003(2) -0.0727(3) 0.15025(8)
H12 H 0.6799 -0.1830 0.1585
loop_
_geom_bond_atom_site_label_1
_geom_bond_atom_site_label_2
_geom_bond_site_symmetry_1
_geom_bond_site_symmetry_2
O1 C1 1_555 1_555
O2 H1 1_555 1_555
C1 C2 1_555 1_555
C2 H2 1_555 1_555
C3 C2 1_555 1_555
H3 C3 1_555 1_555
C4 C3 1_555 1_555
C5 C4 1_555 1_555
C6 C5 1_555 1_555
H4 C6 1_555 1_555
C7 C6 1_555 1_555
H5 C7 1_555 1_555
C8 O2 1_555 1_555
C9 C5 1_555 1_555
H6 C9 1_555 1_555
C10 C8 1_555 1_555
H7 C10 1_555 1_555
C11 O1 1_555 1_555
H8 C11 1_555 1_555
H9 C11 1_555 1_555
C12 C11 1_555 1_555
H10 C12 1_555 1_555
H11 C12 1_555 1_555
C13 C1 1_555 1_555
C14 C4 1_555 1_555
H12 C14 1_555 1_555
C7 C8 1_555 1_555
C9 C10 1_555 1_555
C12 C13 1_555 1_555
C13 C14 1_555 1_555

#END
