
#######################################################################
#
#                 Cambridge Crystallographic Data Centre
#                                CCDC 
#
#######################################################################
#
# If this CIF has been generated from an entry in the Cambridge 
# Structural Database, then it will include bibliographic, chemical, 
# crystal, experimental, refinement or atomic coordinate data resulting 
# from the CCDC's data processing and validation procedures.
#
#######################################################################

data_MAYVEO
_chemical_formula_moiety         'C16 H17 F2 N3 O2 S1'
_chemical_name_systematic        
7,8-Difluoro-9-phenylsulfonyl-1,5-dimethyl-1,2,3,4,5-pentahydropyrido(2,3-b)diazepine
_symmetry_cell_setting           monoclinic
_symmetry_space_group_name_H-M   'P 21/c'
_symmetry_Int_Tables_number      14
_space_group_name_Hall           '-P 2ybc'
loop_
_symmetry_equiv_pos_site_id
_symmetry_equiv_pos_as_xyz
1 x,y,z
2 -x,1/2+y,1/2-z
3 -x,-y,-z
4 x,1/2-y,1/2+z
_cell_length_a                   13.1516(8)
_cell_length_b                   9.8626(6)
_cell_length_c                   13.2963(8)
_cell_angle_alpha                90
_cell_angle_beta                 114.265(2)
_cell_angle_gamma                90
_cell_volume                     1572.28
_exptl_crystal_colour            'light yellow'
_exptl_crystal_description       prism
_chemical_melting_point          '133.0-135.0 deg.C'
_cell_formula_units_Z            4
loop_
_atom_site_label
_atom_site_type_symbol
_atom_site_fract_x
_atom_site_fract_y
_atom_site_fract_z
S1 S 0.79197(2) 0.64958(3) 0.50326(2)
F1 F 0.36681(6) 0.61367(9) 0.32403(7)
F2 F 0.55155(7) 0.76310(8) 0.40189(7)
O1 O 0.76469(8) 0.78418(9) 0.52549(8)
O2 O 0.85050(8) 0.63546(10) 0.43339(8)
N1 N 0.76877(9) 0.35594(11) 0.46181(9)
N2 N 0.54735(9) 0.20717(11) 0.38884(9)
N3 N 0.46313(8) 0.41797(12) 0.36191(8)
C1 C 0.80252(11) 0.24394(14) 0.54101(14)
C2 C 0.73972(12) 0.11204(15) 0.49877(16)
C3 C 0.61879(11) 0.11990(14) 0.48103(12)
C4 C 0.46603(10) 0.54994(13) 0.36373(10)
C5 C 0.56132(10) 0.62731(13) 0.40495(10)
C6 C 0.66238(10) 0.55810(12) 0.44423(9)
C7 C 0.66362(9) 0.41620(12) 0.43703(9)
C8 C 0.55897(10) 0.34709(12) 0.39799(10)
C9 C 0.86810(10) 0.57212(13) 0.63216(10)
C10 C 0.83298(10) 0.59508(14) 0.71610(11)
C11 C 0.89429(11) 0.53900(16) 0.81927(11)
C12 C 0.98869(11) 0.46231(16) 0.83734(11)
C13 C 1.02373(11) 0.44195(15) 0.75321(12)
C14 C 0.96289(10) 0.49674(13) 0.64914(11)
C15 C 0.79275(13) 0.33582(17) 0.36442(14)
C16 C 0.43203(11) 0.15740(15) 0.33823(11)
H1 H 0.7938(15) 0.2723(18) 0.6100(15)
H2 H 0.8816(16) 0.2294(18) 0.5610(15)
H3 H 0.7734(18) 0.046(2) 0.5512(18)
H4 H 0.7452(15) 0.080(2) 0.4329(16)
H5 H 0.5844(14) 0.0294(18) 0.4621(14)
H6 H 0.6109(15) 0.1495(19) 0.5473(15)
H7 H 0.7670(15) 0.6519(18) 0.7019(14)
H8 H 0.8718(15) 0.5554(19) 0.8760(16)
H9 H 1.0303(15) 0.4237(19) 0.9083(15)
H10 H 1.0890(16) 0.387(2) 0.7667(16)
H11 H 0.9845(14) 0.4848(17) 0.5892(14)
H12 H 0.7835(15) 0.419(2) 0.3243(15)
H13 H 0.748(2) 0.267(2) 0.3145(19)
H14 H 0.868(2) 0.303(2) 0.3869(19)
H15 H 0.3918(14) 0.2088(18) 0.2714(15)
H16 H 0.3921(14) 0.1656(17) 0.3868(14)
H17 H 0.4355(14) 0.0626(18) 0.3204(14)
loop_
_geom_bond_atom_site_label_1
_geom_bond_atom_site_label_2
_geom_bond_site_symmetry_1
_geom_bond_site_symmetry_2
S1 O1 1_555 1_555
F1 C4 1_555 1_555
F2 C5 1_555 1_555
O2 S1 1_555 1_555
N1 C1 1_555 1_555
N2 C3 1_555 1_555
N3 C4 1_555 1_555
C1 C2 1_555 1_555
C2 C3 1_555 1_555
C3 H5 1_555 1_555
C4 C5 1_555 1_555
C5 C6 1_555 1_555
C6 S1 1_555 1_555
C7 N1 1_555 1_555
C8 N2 1_555 1_555
C9 S1 1_555 1_555
C10 C9 1_555 1_555
C11 C10 1_555 1_555
C12 C11 1_555 1_555
C13 C12 1_555 1_555
C14 C9 1_555 1_555
C15 N1 1_555 1_555
C16 N2 1_555 1_555
H1 C1 1_555 1_555
H2 C1 1_555 1_555
H3 C2 1_555 1_555
H4 C2 1_555 1_555
H6 C3 1_555 1_555
H7 C10 1_555 1_555
H8 C11 1_555 1_555
H9 C12 1_555 1_555
H10 C13 1_555 1_555
H11 C14 1_555 1_555
H12 C15 1_555 1_555
H13 C15 1_555 1_555
H14 C15 1_555 1_555
H15 C16 1_555 1_555
H16 C16 1_555 1_555
H17 C16 1_555 1_555
N3 C8 1_555 1_555
C6 C7 1_555 1_555
C7 C8 1_555 1_555
C13 C14 1_555 1_555

#END
