
#######################################################################
#
#                 Cambridge Crystallographic Data Centre
#                                CCDC 
#
#######################################################################
#
# If this CIF has been generated from an entry in the Cambridge 
# Structural Database, then it will include bibliographic, chemical, 
# crystal, experimental, refinement or atomic coordinate data resulting 
# from the CCDC's data processing and validation procedures.
#
#######################################################################

data_MAZBEW
_chemical_formula_moiety         'C26 H24 F3 N1 O3'
_chemical_name_systematic        
3-(1-(2',4'-Difluorobiphenyl-4-yl)ethyl)-6-(4-fluorophenyl)-6-(2-hydroxyethyl)-1,3-oxazinan-2-one
_chemical_properties_biological  
'excellent potency against 11beta-HSD1 in human adipocytes'
_symmetry_cell_setting           orthorhombic
_symmetry_space_group_name_H-M   'P 21 21 21'
_symmetry_Int_Tables_number      19
_space_group_name_Hall           'P 2ac 2ab'
loop_
_symmetry_equiv_pos_site_id
_symmetry_equiv_pos_as_xyz
1 x,y,z
2 1/2+x,1/2-y,-z
3 -x,1/2+y,1/2-z
4 1/2-x,-y,1/2+z
_cell_length_a                   6.7638(18)
_cell_length_b                   8.050(2)
_cell_length_c                   40.505(10)
_cell_angle_alpha                90
_cell_angle_beta                 90
_cell_angle_gamma                90
_cell_volume                     2205.44
_cell_formula_units_Z            4
loop_
_atom_site_label
_atom_site_type_symbol
_atom_site_fract_x
_atom_site_fract_y
_atom_site_fract_z
C1 C 1.0536(3) 0.3497(2) 0.57316(4)
C2 C 0.8331(3) 0.3532(2) 0.56585(5)
H1 H 0.8115 0.3412 0.5423
H2 H 0.7684 0.2613 0.5770
C3 C 0.7466(3) 0.5151(2) 0.57759(5)
H3 H 0.6169 0.5305 0.5679
H4 H 0.7312 0.5120 0.6014
C4 C 1.0579(3) 0.6390(2) 0.55593(4)
C5 C 0.7874(3) 0.8221(2) 0.56859(5)
H5 H 0.8974 0.9010 0.5673
C6 C 0.6829(3) 0.8538(2) 0.60143(4)
C7 C 0.7906(3) 0.8362(3) 0.63074(5)
H6 H 0.9213 0.8006 0.6298
C8 C 0.7055(3) 0.8709(3) 0.66104(5)
H7 H 0.7795 0.8579 0.6802
C9 C 0.5106(3) 0.9250(2) 0.66313(4)
C10 C 0.4032(3) 0.9401(3) 0.63382(5)
H8 H 0.2723 0.9753 0.6346
C11 C 0.4883(3) 0.9037(3) 0.60359(5)
H9 H 0.4131 0.9129 0.5845
C12 C 0.4166(3) 0.9611(3) 0.69562(5)
C13 C 0.5066(3) 1.0576(3) 0.71923(5)
C14 C 0.4229(4) 1.0963(3) 0.74939(5)
H10 H 0.4874 1.1639 0.7646
C15 C 0.2409(3) 1.0305(3) 0.75580(5)
C16 C 0.1417(3) 0.9319(3) 0.73382(5)
H11 H 0.0176 0.8891 0.7388
C17 C 0.2314(3) 0.8978(3) 0.70389(5)
H12 H 0.1660 0.8304 0.6888
C18 C 1.1028(3) 0.3690(2) 0.60966(4)
C19 C 1.0013(3) 0.2778(3) 0.63341(5)
H13 H 0.8992 0.2077 0.6269
C20 C 1.0497(3) 0.2895(3) 0.66663(5)
H14 H 0.9801 0.2292 0.6824
C21 C 1.2023(3) 0.3918(3) 0.67565(5)
C22 C 1.3063(3) 0.4836(3) 0.65321(5)
H15 H 1.4092 0.5522 0.6600
C23 C 1.2551(3) 0.4722(3) 0.62002(5)
H16 H 1.3240 0.5348 0.6045
C24 C 1.1580(3) 0.1982(2) 0.55894(4)
H17 H 1.2994 0.2143 0.5612
H18 H 1.1225 0.1022 0.5722
C25 C 1.1129(3) 0.1592(3) 0.52299(5)
H19 H 0.9791 0.1169 0.5212
H20 H 1.1208 0.2607 0.5101
C26 C 0.6602(3) 0.8490(3) 0.53781(5)
H21 H 0.5485 0.7756 0.5384
H22 H 0.7374 0.8264 0.5184
H23 H 0.6149 0.9620 0.5372
N1 N 0.8741(2) 0.65482(18) 0.56849(4)
O1 O 1.14221(18) 0.48727(15) 0.55493(3)
O2 O 1.1560(2) 0.75520(16) 0.54543(3)
O3 O 1.2462(2) 0.04058(17) 0.50976(3)
H24 H 1.2199 -0.0516 0.5172
F1 F 1.2497(2) 0.40428(19) 0.70821(3)
F2 F 0.6832(2) 1.1261(2) 0.71262(3)
F3 F 0.1555(2) 1.06662(19) 0.78538(3)
loop_
_geom_bond_atom_site_label_1
_geom_bond_atom_site_label_2
_geom_bond_site_symmetry_1
_geom_bond_site_symmetry_2
C1 C2 1_555 1_555
C2 H1 1_555 1_555
H2 C2 1_555 1_555
C3 C2 1_555 1_555
H3 C3 1_555 1_555
H4 C3 1_555 1_555
C4 N1 1_555 1_555
C5 H5 1_555 1_555
C6 C5 1_555 1_555
C7 C6 1_555 1_555
H6 C7 1_555 1_555
C8 C7 1_555 1_555
H7 C8 1_555 1_555
C9 C8 1_555 1_555
C10 C9 1_555 1_555
H8 C10 1_555 1_555
C11 C6 1_555 1_555
H9 C11 1_555 1_555
C12 C9 1_555 1_555
C13 C12 1_555 1_555
C14 C13 1_555 1_555
H10 C14 1_555 1_555
C15 C14 1_555 1_555
C16 C15 1_555 1_555
H11 C16 1_555 1_555
C17 C12 1_555 1_555
H12 C17 1_555 1_555
C18 C1 1_555 1_555
C19 C18 1_555 1_555
H13 C19 1_555 1_555
C20 C19 1_555 1_555
H14 C20 1_555 1_555
C21 C20 1_555 1_555
C22 C21 1_555 1_555
H15 C22 1_555 1_555
C23 C18 1_555 1_555
H16 C23 1_555 1_555
C24 C1 1_555 1_555
H17 C24 1_555 1_555
H18 C24 1_555 1_555
C25 C24 1_555 1_555
H19 C25 1_555 1_555
H20 C25 1_555 1_555
C26 C5 1_555 1_555
H21 C26 1_555 1_555
H22 C26 1_555 1_555
H23 C26 1_555 1_555
N1 C3 1_555 1_555
O1 C1 1_555 1_555
O2 C4 1_555 1_555
O3 C25 1_555 1_555
H24 O3 1_555 1_555
F1 C21 1_555 1_555
F2 C13 1_555 1_555
F3 C15 1_555 1_555
C4 O1 1_555 1_555
C5 N1 1_555 1_555
C10 C11 1_555 1_555
C16 C17 1_555 1_555
C22 C23 1_555 1_555

#END
