
#######################################################################
#
#                 Cambridge Crystallographic Data Centre
#                                CCDC 
#
#######################################################################
#
# If this CIF has been generated from an entry in the Cambridge 
# Structural Database, then it will include bibliographic, chemical, 
# crystal, experimental, refinement or atomic coordinate data resulting 
# from the CCDC's data processing and validation procedures.
#
#######################################################################

data_MAZCEX
_chemical_compound_source        'Aphanamixis grandifolia Blume'
_chemical_name_common            'Aphanamgrandin A'
_chemical_formula_moiety         'C30 H46 O4'
_chemical_name_systematic        
1,6,10,14-Tetramethyl-9-(6-methyl-4-oxoheptan-2-yl)-17,20-dioxapentacyclo[14.2.2.0^2,14^.0^5,13^.0^6,10^]icos-4-en-18-one
_symmetry_cell_setting           monoclinic
_symmetry_space_group_name_H-M   'P 21'
_symmetry_Int_Tables_number      4
_space_group_name_Hall           'P 2yb'
loop_
_symmetry_equiv_pos_site_id
_symmetry_equiv_pos_as_xyz
1 x,y,z
2 -x,1/2+y,-z
_cell_length_a                   8.2828(2)
_cell_length_b                   10.4147(3)
_cell_length_c                   15.2576(4)
_cell_angle_alpha                90
_cell_angle_beta                 99.6040(10)
_cell_angle_gamma                90
_cell_volume                     1297.72
_exptl_crystal_colour            colorless
_exptl_crystal_description       prism
_cell_formula_units_Z            2
_exptl_crystal_recrystallization_method 'petroleum ether, ethyl acetate'
loop_
_atom_site_label
_atom_site_type_symbol
_atom_site_fract_x
_atom_site_fract_y
_atom_site_fract_z
O1 O 0.45113(19) 1.64903(15) 0.36685(10)
O2 O 0.23344(17) 1.60417(14) 0.42626(12)
O3 O 0.2592(2) 1.4698(2) 0.55085(9)
O4 O -0.26796(16) 0.48670(13) 0.22668(8)
C1 C 0.0848(2) 1.39918(19) 0.41336(13)
H1 H -0.0189 1.4294 0.3775
H2 H 0.0565 1.3292 0.4520
C2 C 0.1552(3) 1.5095(2) 0.47337(15)
H3 H 0.0600 1.5532 0.4932
C3 C 0.3839(2) 1.57286(19) 0.40735(12)
C4 C 0.4535(2) 1.44632(18) 0.44593(11)
C5 C 0.3720(2) 1.32526(17) 0.39456(11)
H4 H 0.3715 1.2571 0.4407
C6 C 0.4738(2) 1.27055(18) 0.32804(12)
H5 H 0.4958 1.3398 0.2871
H6 H 0.5804 1.2405 0.3608
C7 C 0.3900(2) 1.16110(17) 0.27446(12)
H7 H 0.4535 1.1111 0.2407
C8 C 0.2340(2) 1.12936(17) 0.27086(11)
C9 C 0.1243(2) 1.20198(17) 0.32545(12)
H8 H 0.1313 1.1549 0.3831
C10 C 0.1897(2) 1.34056(17) 0.34894(11)
C11 C -0.0565(2) 1.19718(18) 0.28061(13)
H9 H -0.0697 1.2506 0.2262
H10 H -0.1241 1.2361 0.3213
C12 C -0.1234(2) 1.06073(18) 0.25489(12)
H11 H -0.1877 1.0311 0.3002
H12 H -0.1988 1.0659 0.1974
C13 C 0.0101(2) 0.96007(18) 0.24674(11)
C14 C 0.1521(2) 1.02526(17) 0.20852(12)
C15 C 0.2596(2) 0.91002(18) 0.19222(11)
H13 H 0.3324 0.8844 0.2476
H14 H 0.3272 0.9303 0.1463
C16 C 0.1335(2) 0.80282(19) 0.15991(13)
H15 H 0.1656 0.7217 0.1920
H16 H 0.1285 0.7875 0.0955
C17 C -0.0366(2) 0.84874(18) 0.17901(11)
H17 H -0.0967 0.8875 0.1230
C18 C 0.0727(2) 0.90022(18) 0.33845(11)
H18 H 0.1257 0.9666 0.3789
H19 H 0.1520 0.8323 0.3322
H20 H -0.0196 0.8636 0.3626
C19 C 0.1752(2) 1.42173(19) 0.26294(12)
H21 H 0.0625 1.4527 0.2464
H22 H 0.2040 1.3687 0.2148
H23 H 0.2499 1.4952 0.2732
C20 C -0.1427(2) 0.73870(18) 0.20541(12)
H24 H -0.0824 0.6967 0.2602
C21 C -0.3080(2) 0.7854(2) 0.22458(14)
H25 H -0.3625 0.8364 0.1742
H26 H -0.2911 0.8385 0.2784
H27 H -0.3764 0.7113 0.2334
C22 C -0.1696(2) 0.63873(19) 0.13019(12)
H28 H -0.2427 0.6768 0.0788
H29 H -0.0630 0.6216 0.1113
C23 C -0.2421(2) 0.51189(19) 0.15220(12)
C24 C -0.2714(2) 0.41313(19) 0.07839(12)
H30 H -0.1672 0.3677 0.0758
H31 H -0.3039 0.4582 0.0211
C25 C -0.4025(2) 0.31395(19) 0.08901(12)
H32 H -0.3800 0.2814 0.1515
C26 C -0.3963(3) 0.2004(2) 0.02733(14)
H33 H -0.4211 0.2294 -0.0345
H34 H -0.4770 0.1361 0.0381
H35 H -0.2865 0.1623 0.0386
C27 C -0.5713(2) 0.3763(2) 0.07414(14)
H36 H -0.5988 0.4049 0.0123
H37 H -0.5708 0.4502 0.1139
H38 H -0.6529 0.3137 0.0867
C28 C 0.6401(2) 1.4503(2) 0.44956(14)
H39 H 0.6646 1.4608 0.3893
H40 H 0.6884 1.3699 0.4751
H41 H 0.6861 1.5226 0.4866
C29 C 0.4234(3) 1.4446(2) 0.54255(13)
H42 H 0.4549 1.3594 0.5687
H43 H 0.4947 1.5095 0.5770
C30 C 0.0933(2) 1.08987(19) 0.11697(12)
H44 H 0.0099 1.1545 0.1230
H45 H 0.0465 1.0246 0.0738
H46 H 0.1864 1.1312 0.0963
loop_
_geom_bond_atom_site_label_1
_geom_bond_atom_site_label_2
_geom_bond_site_symmetry_1
_geom_bond_site_symmetry_2
O1 C3 1_555 1_555
O2 C2 1_555 1_555
O3 C2 1_555 1_555
O4 C23 1_555 1_555
C1 H1 1_555 1_555
H2 C1 1_555 1_555
C2 C1 1_555 1_555
H3 C2 1_555 1_555
C3 O2 1_555 1_555
C4 C3 1_555 1_555
C5 C4 1_555 1_555
H4 C5 1_555 1_555
C6 C5 1_555 1_555
H5 C6 1_555 1_555
H6 C6 1_555 1_555
C7 C6 1_555 1_555
H7 C7 1_555 1_555
C8 C7 1_555 1_555
C9 C8 1_555 1_555
H8 C9 1_555 1_555
C10 C1 1_555 1_555
C11 C9 1_555 1_555
H9 C11 1_555 1_555
H10 C11 1_555 1_555
C12 C11 1_555 1_555
H11 C12 1_555 1_555
H12 C12 1_555 1_555
C13 C12 1_555 1_555
C14 C8 1_555 1_555
C15 C14 1_555 1_555
H13 C15 1_555 1_555
H14 C15 1_555 1_555
C16 C15 1_555 1_555
H15 C16 1_555 1_555
H16 C16 1_555 1_555
C17 C13 1_555 1_555
H17 C17 1_555 1_555
C18 C13 1_555 1_555
H18 C18 1_555 1_555
H19 C18 1_555 1_555
H20 C18 1_555 1_555
C19 C10 1_555 1_555
H21 C19 1_555 1_555
H22 C19 1_555 1_555
H23 C19 1_555 1_555
C20 C17 1_555 1_555
H24 C20 1_555 1_555
C21 C20 1_555 1_555
H25 C21 1_555 1_555
H26 C21 1_555 1_555
H27 C21 1_555 1_555
C22 C20 1_555 1_555
H28 C22 1_555 1_555
H29 C22 1_555 1_555
C23 C22 1_555 1_555
C24 C23 1_555 1_555
H30 C24 1_555 1_555
H31 C24 1_555 1_555
C25 C24 1_555 1_555
H32 C25 1_555 1_555
C26 C25 1_555 1_555
H33 C26 1_555 1_555
H34 C26 1_555 1_555
H35 C26 1_555 1_555
C27 C25 1_555 1_555
H36 C27 1_555 1_555
H37 C27 1_555 1_555
H38 C27 1_555 1_555
C28 C4 1_555 1_555
H39 C28 1_555 1_555
H40 C28 1_555 1_555
H41 C28 1_555 1_555
C29 O3 1_555 1_555
H42 C29 1_555 1_555
H43 C29 1_555 1_555
C30 C14 1_555 1_555
H44 C30 1_555 1_555
H45 C30 1_555 1_555
H46 C30 1_555 1_555
C4 C29 1_555 1_555
C5 C10 1_555 1_555
C9 C10 1_555 1_555
C13 C14 1_555 1_555
C16 C17 1_555 1_555

#END
