
#######################################################################
#
#                 Cambridge Crystallographic Data Centre
#                                CCDC 
#
#######################################################################
#
# If this CIF has been generated from an entry in the Cambridge 
# Structural Database, then it will include bibliographic, chemical, 
# crystal, experimental, refinement or atomic coordinate data resulting 
# from the CCDC's data processing and validation procedures.
#
#######################################################################

data_MAZMIM
_chemical_formula_moiety         'C15 H18 N2 O2 S1'
_chemical_name_systematic        
6-[2-(cyclohexylsulfanyl)ethyl]-5H-pyrrolo[3,4-b]pyridine-5,7(6H)-dione
_symmetry_cell_setting           orthorhombic
_symmetry_space_group_name_H-M   'P 21 21 21'
_symmetry_Int_Tables_number      19
_space_group_name_Hall           'P 2ac 2ab'
loop_
_symmetry_equiv_pos_site_id
_symmetry_equiv_pos_as_xyz
1 x,y,z
2 1/2+x,1/2-y,-z
3 -x,1/2+y,1/2-z
4 1/2-x,-y,1/2+z
_cell_length_a                   5.5322(2)
_cell_length_b                   7.8707(3)
_cell_length_c                   32.9092(14)
_cell_angle_alpha                90
_cell_angle_beta                 90
_cell_angle_gamma                90
_cell_volume                     1432.94
_exptl_crystal_colour            colorless
_exptl_crystal_description       plate
_cell_formula_units_Z            4
loop_
_atom_site_label
_atom_site_type_symbol
_atom_site_fract_x
_atom_site_fract_y
_atom_site_fract_z
S1 S 0.53243(13) 0.93377(11) 0.09181(3)
O1 O 0.5825(3) 0.9636(2) 0.20137(6)
O2 O 0.1331(3) 1.3885(3) 0.14389(6)
N1 N 0.8186(4) 1.2919(3) 0.22791(7)
N2 N 0.3211(4) 1.1461(3) 0.16766(7)
C1 C 0.8794(5) 1.4552(4) 0.23364(8)
H1 H 1.0179 1.4779 0.2498
C2 C 0.7561(5) 1.5929(4) 0.21783(8)
H2 H 0.8111 1.7050 0.2233
C3 C 0.5532(5) 1.5678(3) 0.19413(8)
H3 H 0.4639 1.6597 0.1829
C4 C 0.4884(5) 1.4006(3) 0.18778(7)
C5 C 0.6241(5) 1.2727(3) 0.20487(8)
C6 C 0.5174(5) 1.1058(3) 0.19241(8)
C7 C 0.2900(5) 1.3212(4) 0.16376(8)
C8 C 0.1681(5) 1.0227(4) 0.14678(9)
H4 H -0.0035 1.0559 0.1499
H5 H 0.1895 0.9095 0.1594
C9 C 0.2300(5) 1.0119(4) 0.10179(9)
H6 H 0.2130 1.1263 0.0896
H7 H 0.1120 0.9361 0.0883
C10 C 0.4745(5) 0.7095(3) 0.08142(8)
H8 H 0.3597 0.6645 0.1023
C11 C 0.3645(5) 0.6857(4) 0.03962(8)
H9 H 0.4706 0.7395 0.0191
H10 H 0.2057 0.7435 0.0387
C12 C 0.3313(6) 0.4988(4) 0.02908(10)
H11 H 0.2117 0.4476 0.0478
H12 H 0.2676 0.4887 0.0011
C13 C 0.5693(6) 0.4026(4) 0.03229(10)
H13 H 0.5408 0.2803 0.0271
H14 H 0.6831 0.4450 0.0114
C14 C 0.6795(6) 0.4253(4) 0.07406(10)
H15 H 0.8382 0.3672 0.0750
H16 H 0.5734 0.3716 0.0946
C15 C 0.7133(5) 0.6123(4) 0.08458(9)
H17 H 0.8329 0.6633 0.0658
H18 H 0.7773 0.6223 0.1126
loop_
_geom_bond_atom_site_label_1
_geom_bond_atom_site_label_2
_geom_bond_site_symmetry_1
_geom_bond_site_symmetry_2
S1 C9 1_555 1_555
O1 C6 1_555 1_555
O2 C7 1_555 1_555
N1 C1 1_555 1_555
N2 C6 1_555 1_555
C1 H1 1_555 1_555
C2 C1 1_555 1_555
H2 C2 1_555 1_555
C3 C2 1_555 1_555
H3 C3 1_555 1_555
C4 C3 1_555 1_555
C5 N1 1_555 1_555
C6 C5 1_555 1_555
C7 N2 1_555 1_555
C8 N2 1_555 1_555
H4 C8 1_555 1_555
H5 C8 1_555 1_555
C9 C8 1_555 1_555
H6 C9 1_555 1_555
H7 C9 1_555 1_555
C10 S1 1_555 1_555
H8 C10 1_555 1_555
C11 C10 1_555 1_555
H9 C11 1_555 1_555
H10 C11 1_555 1_555
C12 C11 1_555 1_555
H11 C12 1_555 1_555
H12 C12 1_555 1_555
C13 C12 1_555 1_555
H13 C13 1_555 1_555
H14 C13 1_555 1_555
C14 C13 1_555 1_555
H15 C14 1_555 1_555
H16 C14 1_555 1_555
C15 C10 1_555 1_555
H17 C15 1_555 1_555
H18 C15 1_555 1_555
C4 C5 1_555 1_555
C4 C7 1_555 1_555
C14 C15 1_555 1_555

#END
