
#######################################################################
#
#                 Cambridge Crystallographic Data Centre
#                                CCDC 
#
#######################################################################
#
# If this CIF has been generated from an entry in the Cambridge 
# Structural Database, then it will include bibliographic, chemical, 
# crystal, experimental, refinement or atomic coordinate data resulting 
# from the CCDC's data processing and validation procedures.
#
#######################################################################

data_MAZZIX
_chemical_formula_moiety         'C3 H2 F3 N3 S1'
_chemical_name_systematic        2-Amino-5-trifluoromethyl-1,3,4-thiadiazole
_symmetry_cell_setting           monoclinic
_symmetry_space_group_name_H-M   'P 21/c'
_symmetry_Int_Tables_number      14
_space_group_name_Hall           '-P 2ybc'
loop_
_symmetry_equiv_pos_site_id
_symmetry_equiv_pos_as_xyz
1 x,y,z
2 -x,1/2+y,1/2-z
3 -x,-y,-z
4 x,1/2-y,1/2+z
_cell_length_a                   9.1082(12)
_cell_length_b                   6.9373(10)
_cell_length_c                   10.8048(14)
_cell_angle_alpha                90
_cell_angle_beta                 116.656(9)
_cell_angle_gamma                90
_cell_volume                     610.154
_exptl_crystal_colour            colorless
_exptl_crystal_description       plate
_cell_formula_units_Z            4
_exptl_crystal_recrystallization_method ethanol
loop_
_atom_site_label
_atom_site_type_symbol
_atom_site_fract_x
_atom_site_fract_y
_atom_site_fract_z
S1 S 0.24020(8) 0.10495(9) 0.55838(6)
F1 F 0.2190(2) -0.2644(3) 0.2778(2)
F2 F -0.0036(2) -0.1325(2) 0.25331(19)
F3 F 0.1382(3) -0.2906(3) 0.43495(19)
N1 N 0.4169(3) 0.4342(3) 0.6332(2)
N2 N 0.3963(2) 0.2678(3) 0.43721(19)
N3 N 0.3250(2) 0.1038(3) 0.3623(2)
C1 C 0.3625(3) 0.2894(4) 0.5439(2)
C2 C 0.2433(3) 0.0068(4) 0.4127(2)
C3 C 0.1499(3) -0.1710(4) 0.3435(3)
H1 H 0.4715 0.5235 0.6221
H2 H 0.3911 0.4400 0.7012
loop_
_geom_bond_atom_site_label_1
_geom_bond_atom_site_label_2
_geom_bond_site_symmetry_1
_geom_bond_site_symmetry_2
S1 C1 1_555 1_555
F1 C3 1_555 1_555
F2 C3 1_555 1_555
F3 C3 1_555 1_555
N1 C1 1_555 1_555
N2 N3 1_555 1_555
N3 C2 1_555 1_555
C1 N2 1_555 1_555
C2 S1 1_555 1_555
C3 C2 1_555 1_555
H1 N1 1_555 1_555
H2 N1 1_555 1_555

#END
