
#######################################################################
#
#                 Cambridge Crystallographic Data Centre
#                                CCDC 
#
#######################################################################
#
# If this CIF has been generated from an entry in the Cambridge 
# Structural Database, then it will include bibliographic, chemical, 
# crystal, experimental, refinement or atomic coordinate data resulting 
# from the CCDC's data processing and validation procedures.
#
#######################################################################

data_MEBLOU
_chemical_formula_moiety         'C15 H12 Cl2'
_chemical_name_systematic        endo-12,15-Dichloro(3.0)orthometacyclophane
_symmetry_cell_setting           orthorhombic
_symmetry_space_group_name_H-M   'P c a 21'
_symmetry_Int_Tables_number      29
_space_group_name_Hall           'P 2c -2ac'
loop_
_symmetry_equiv_pos_site_id
_symmetry_equiv_pos_as_xyz
1 x,y,z
2 -x,-y,1/2+z
3 1/2-x,y,1/2+z
4 1/2+x,-y,z
_cell_length_a                   16.4769(4)
_cell_length_b                   10.4623(2)
_cell_length_c                   7.2599(1)
_cell_angle_alpha                90
_cell_angle_beta                 90
_cell_angle_gamma                90
_cell_volume                     1251.51
_exptl_crystal_colour            'pale yellow'
_exptl_crystal_description       needles
_cell_formula_units_Z            4
loop_
_atom_site_label
_atom_site_type_symbol
_atom_site_fract_x
_atom_site_fract_y
_atom_site_fract_z
Cl1 Cl -0.2005(1) 0.8601(1) 0.7487(1)
Cl2 Cl 0.1429(1) 0.7702(1) 0.4372(1)
C1 C 0.0650(1) 0.5896(1) 0.6944(2)
C2 C 0.0715(1) 0.4634(2) 0.6355(3)
C3 C 0.1322(1) 0.3852(2) 0.7071(3)
C4 C 0.1853(1) 0.4330(2) 0.8365(3)
C5 C 0.1781(1) 0.5583(2) 0.8999(3)
C6 C 0.1185(1) 0.6400(1) 0.8298(2)
C7 C 0.1107(1) 0.7753(1) 0.9146(3)
C8 C 0.1555(1) 0.8939(2) 0.8254(3)
C9 C 0.1051(1) 0.9872(1) 0.6985(3)
C10 C 0.0332(1) 0.9148(1) 0.6219(2)
C11 C -0.0462(1) 0.9352(1) 0.6805(3)
C12 C -0.0999(1) 0.8320(2) 0.6884(2)
C13 C -0.0708(1) 0.7071(1) 0.6771(3)
C14 C 0.0084(1) 0.6885(2) 0.6186(2)
C15 C 0.0510(1) 0.7940(2) 0.5519(2)
H1 H 0.0346 0.4307 0.5467
H2 H 0.1370 0.2991 0.6668
H3 H 0.2274 0.3800 0.8830
H4 H 0.2142 0.5885 0.9922
H5 H 0.1292 0.7693 1.0440
H6 H 0.0521 0.7961 0.9184
H7 H 0.1789 0.9452 0.9269
H8 H 0.2015 0.8607 0.7518
H9 H 0.0861 1.0616 0.7710
H10 H 0.1395 1.0189 0.5965
H11 H -0.0637 1.0183 0.7148
H12 H -0.1043 0.6366 0.7087
loop_
_geom_bond_atom_site_label_1
_geom_bond_atom_site_label_2
_geom_bond_site_symmetry_1
_geom_bond_site_symmetry_2
Cl1 C12 1_555 1_555
Cl2 C15 1_555 1_555
C1 C2 1_555 1_555
C2 C3 1_555 1_555
C3 C4 1_555 1_555
C4 C5 1_555 1_555
C5 C6 1_555 1_555
C6 C1 1_555 1_555
C7 C6 1_555 1_555
C8 C7 1_555 1_555
C9 C8 1_555 1_555
C10 C9 1_555 1_555
C11 C10 1_555 1_555
C12 C11 1_555 1_555
C13 C12 1_555 1_555
C14 C1 1_555 1_555
C15 C10 1_555 1_555
H1 C2 1_555 1_555
H2 C3 1_555 1_555
H3 C4 1_555 1_555
H4 C5 1_555 1_555
H5 C7 1_555 1_555
H6 C7 1_555 1_555
H7 C8 1_555 1_555
H8 C8 1_555 1_555
H9 C9 1_555 1_555
H10 C9 1_555 1_555
H11 C11 1_555 1_555
H12 C13 1_555 1_555
C13 C14 1_555 1_555
C14 C15 1_555 1_555

#END
