
#######################################################################
#
#                 Cambridge Crystallographic Data Centre
#                                CCDC 
#
#######################################################################
#
# If this CIF has been generated from an entry in the Cambridge 
# Structural Database, then it will include bibliographic, chemical, 
# crystal, experimental, refinement or atomic coordinate data resulting 
# from the CCDC's data processing and validation procedures.
#
#######################################################################

data_MEBVAT
_chemical_compound_source        'whole plant of Ligularia fischeri'
_chemical_name_common            'Fischericin D monohydrate'
_chemical_formula_moiety         'C20 H32 O3,H2 O1'
_chemical_name_systematic        '16,17-dihydroxyk-auran-20-al monohydrate'
_chemical_properties_biological  
'growth prohibition of human B lymphoblastoid cells'
_symmetry_cell_setting           monoclinic
_symmetry_space_group_name_H-M   'P 21'
_symmetry_Int_Tables_number      4
_space_group_name_Hall           'P 2yb'
loop_
_symmetry_equiv_pos_site_id
_symmetry_equiv_pos_as_xyz
1 x,y,z
2 -x,1/2+y,-z
_cell_length_a                   6.3439(2)
_cell_length_b                   42.2604(13)
_cell_length_c                   7.7062(2)
_cell_angle_alpha                90
_cell_angle_beta                 113.463(4)
_cell_angle_gamma                90
_cell_volume                     1895.18
_exptl_crystal_colour            colorless
_exptl_crystal_description       block
_cell_formula_units_Z            4
loop_
_atom_site_label
_atom_site_type_symbol
_atom_site_fract_x
_atom_site_fract_y
_atom_site_fract_z
O1 O 0.8137(5) 0.13040(10) 0.7068(5)
O2 O 0.1285(5) 0.00542(8) 0.5306(5)
H1 H 0.202(9) -0.0106(14) 0.592(8)
O3 O 0.2933(7) 0.00314(10) 0.9267(5)
H2 H 0.266(8) -0.0006(12) 1.012(7)
C1 C 0.4260(9) 0.16690(12) 0.6588(7)
H3 H 0.2763 0.1713 0.6597
H4 H 0.5305 0.1620 0.7874
C2 C 0.5111(10) 0.19631(13) 0.5924(8)
H5 H 0.6678 0.1929 0.6051
H6 H 0.5108 0.2141 0.6717
C3 C 0.3588(10) 0.20392(12) 0.3860(9)
H7 H 0.2065 0.2095 0.3771
H8 H 0.4213 0.2222 0.3471
C4 C 0.3381(9) 0.17671(12) 0.2498(7)
C5 C 0.2582(7) 0.14668(11) 0.3245(6)
H9 H 0.1087 0.1525 0.3246
C6 C 0.2079(8) 0.11765(11) 0.1935(5)
H10 H 0.1192 0.1240 0.0638
H11 H 0.3512 0.1085 0.2002
C7 C 0.0741(7) 0.09322(11) 0.2538(6)
H12 H -0.0720 0.1023 0.2402
H13 H 0.0423 0.0751 0.1697
C8 C 0.1996(6) 0.08194(10) 0.4560(5)
C9 C 0.2827(6) 0.11037(10) 0.5935(5)
H14 H 0.1413 0.1200 0.5913
C10 C 0.4073(6) 0.13787(10) 0.5323(5)
C11 C 0.4096(8) 0.09865(11) 0.7989(6)
H15 H 0.5130 0.1153 0.8710
H16 H 0.2970 0.0955 0.8531
C12 C 0.5495(8) 0.06788(11) 0.8249(6)
H17 H 0.7001 0.0731 0.8286
H18 H 0.5711 0.0586 0.9459
C13 C 0.4376(6) 0.04332(10) 0.6694(6)
H19 H 0.5355 0.0246 0.6899
C14 C 0.3976(6) 0.05867(10) 0.4821(6)
H20 H 0.3529 0.0432 0.3809
H21 H 0.5337 0.0698 0.4869
C15 C 0.0435(6) 0.06071(11) 0.5198(6)
H22 H -0.0231 0.0731 0.5912
H23 H -0.0804 0.0519 0.4102
C16 C 0.1921(7) 0.03395(10) 0.6438(6)
C17 C 0.1506(8) 0.02839(12) 0.8217(7)
H24 H 0.1854 0.0475 0.8979
H25 H -0.0096 0.0231 0.7886
C18 C 0.5665(10) 0.17206(14) 0.2274(9)
H26 H 0.6881 0.1688 0.3495
H27 H 0.5989 0.1905 0.1697
H28 H 0.5550 0.1539 0.1490
C19 C 0.1524(11) 0.18569(15) 0.0550(8)
H29 H 0.1359 0.1689 -0.0333
H30 H 0.1971 0.2047 0.0107
H31 H 0.0087 0.1890 0.0662
C20 C 0.6466(7) 0.12713(11) 0.5618(7)
H32 H 0.660(6) 0.1155(9) 0.447(5)
O4 O 1.0732(6) 0.33400(10) 0.2043(5)
O5 O 0.5590(6) 0.45884(8) 0.3699(5)
H33 H 0.460(12) 0.4640(16) 0.410(10)
O6 O 0.3420(7) 0.46123(10) -0.0304(6)
H34 H 0.397(14) 0.478(2) 0.042(12)
C21 C 0.7270(8) 0.29722(11) 0.2434(7)
H35 H 0.5753 0.2926 0.2393
H36 H 0.7105 0.3024 0.1159
C22 C 0.8782(10) 0.26774(12) 0.3110(8)
H37 H 0.8041 0.2500 0.2300
H38 H 1.0245 0.2714 0.3020
C23 C 0.9192(10) 0.25981(12) 0.5154(8)
H39 H 1.0199 0.2416 0.5555
H40 H 0.7738 0.2540 0.5204
C24 C 1.0255(9) 0.28696(12) 0.6543(7)
C25 C 0.8731(7) 0.31684(10) 0.5774(6)
H41 H 0.7222 0.3107 0.5734
C26 C 0.9431(8) 0.34545(11) 0.7097(6)
H42 H 0.9769 0.3387 0.8383
H43 H 1.0808 0.3549 0.7066
C27 C 0.7491(8) 0.36980(11) 0.6485(6)
H44 H 0.6144 0.3604 0.6574
H45 H 0.7954 0.3877 0.7345
C28 C 0.6867(7) 0.38154(10) 0.4480(6)
C29 C 0.6424(6) 0.35343(10) 0.3084(6)
H46 H 0.5009 0.3436 0.3051
C30 C 0.8269(7) 0.32593(10) 0.3721(6)
C31 C 0.5798(8) 0.36577(11) 0.1055(6)
H47 H 0.6172 0.3494 0.0339
H48 H 0.4149 0.3690 0.0470
C32 C 0.6982(8) 0.39667(11) 0.0877(6)
H49 H 0.8475 0.3915 0.0882
H50 H 0.6077 0.4063 -0.0334
C33 C 0.7311(7) 0.42072(10) 0.2429(6)
H51 H 0.8122 0.4395 0.2271
C34 C 0.8641(7) 0.40486(10) 0.4323(6)
H52 H 0.9119 0.4201 0.5348
H53 H 0.9984 0.3939 0.4323
C35 C 0.4665(7) 0.40247(10) 0.3788(7)
H54 H 0.3337 0.3901 0.3005
H55 H 0.4399 0.4106 0.4859
C36 C 0.5067(7) 0.42999(11) 0.2631(7)
C37 C 0.3003(8) 0.43648(13) 0.0797(8)
H56 H 0.2602 0.4172 0.0050
H57 H 0.1704 0.4423 0.1091
C38 C 1.2778(9) 0.29194(15) 0.6808(9)
H58 H 1.2858 0.2933 0.5592
H59 H 1.3692 0.2744 0.7500
H60 H 1.3352 0.3112 0.7497
C39 C 1.0216(14) 0.27713(15) 0.8439(9)
H61 H 1.0957 0.2931 0.9369
H62 H 1.1013 0.2574 0.8836
H63 H 0.8653 0.2747 0.8303
C40 C 1.0398(7) 0.33707(11) 0.3472(6)
H64 H 1.165(8) 0.3479(10) 0.458(6)
O7 O 0.7074(9) -0.02907(14) 0.4311(9)
H65 H 0.807(13) -0.0145(19) 0.450(10)
H66 H 0.688(17) -0.033(2) 0.324(14)
O8 O 0.0837(11) -0.0081(2) 0.1604(7)
H67 H -0.0612 -0.0056 0.1121
H68 H 0.1314 -0.0085 0.2802
loop_
_geom_bond_atom_site_label_1
_geom_bond_atom_site_label_2
_geom_bond_site_symmetry_1
_geom_bond_site_symmetry_2
O1 C20 1_555 1_555
O2 H1 1_555 1_555
O3 H2 1_555 1_555
C1 H3 1_555 1_555
H4 C1 1_555 1_555
C2 C1 1_555 1_555
H5 C2 1_555 1_555
H6 C2 1_555 1_555
C3 C2 1_555 1_555
H7 C3 1_555 1_555
H8 C3 1_555 1_555
C4 C3 1_555 1_555
C5 C4 1_555 1_555
H9 C5 1_555 1_555
C6 C5 1_555 1_555
H10 C6 1_555 1_555
H11 C6 1_555 1_555
C7 C6 1_555 1_555
H12 C7 1_555 1_555
H13 C7 1_555 1_555
C8 C7 1_555 1_555
C9 C8 1_555 1_555
H14 C9 1_555 1_555
C10 C1 1_555 1_555
C11 C9 1_555 1_555
H15 C11 1_555 1_555
H16 C11 1_555 1_555
C12 C11 1_555 1_555
H17 C12 1_555 1_555
H18 C12 1_555 1_555
C13 C12 1_555 1_555
H19 C13 1_555 1_555
C14 C8 1_555 1_555
H20 C14 1_555 1_555
H21 C14 1_555 1_555
C15 C8 1_555 1_555
H22 C15 1_555 1_555
H23 C15 1_555 1_555
C16 O2 1_555 1_555
C17 O3 1_555 1_555
H24 C17 1_555 1_555
H25 C17 1_555 1_555
C18 C4 1_555 1_555
H26 C18 1_555 1_555
H27 C18 1_555 1_555
H28 C18 1_555 1_555
C19 C4 1_555 1_555
H29 C19 1_555 1_555
H30 C19 1_555 1_555
H31 C19 1_555 1_555
C20 C10 1_555 1_555
H32 C20 1_555 1_555
O4 C40 1_555 1_555
O5 H33 1_555 1_555
O6 H34 1_555 1_555
C21 H35 1_555 1_555
H36 C21 1_555 1_555
C22 C21 1_555 1_555
H37 C22 1_555 1_555
H38 C22 1_555 1_555
C23 C22 1_555 1_555
H39 C23 1_555 1_555
H40 C23 1_555 1_555
C24 C23 1_555 1_555
C25 C24 1_555 1_555
H41 C25 1_555 1_555
C26 C25 1_555 1_555
H42 C26 1_555 1_555
H43 C26 1_555 1_555
C27 C26 1_555 1_555
H44 C27 1_555 1_555
H45 C27 1_555 1_555
C28 C27 1_555 1_555
C29 C28 1_555 1_555
H46 C29 1_555 1_555
C30 C21 1_555 1_555
C31 C29 1_555 1_555
H47 C31 1_555 1_555
H48 C31 1_555 1_555
C32 C31 1_555 1_555
H49 C32 1_555 1_555
H50 C32 1_555 1_555
C33 C32 1_555 1_555
H51 C33 1_555 1_555
C34 C28 1_555 1_555
H52 C34 1_555 1_555
H53 C34 1_555 1_555
C35 C28 1_555 1_555
H54 C35 1_555 1_555
H55 C35 1_555 1_555
C36 O5 1_555 1_555
C37 O6 1_555 1_555
H56 C37 1_555 1_555
H57 C37 1_555 1_555
C38 C24 1_555 1_555
H58 C38 1_555 1_555
H59 C38 1_555 1_555
H60 C38 1_555 1_555
C39 C24 1_555 1_555
H61 C39 1_555 1_555
H62 C39 1_555 1_555
H63 C39 1_555 1_555
C40 C30 1_555 1_555
H64 C40 1_555 1_555
O7 H65 1_555 1_555
H66 O7 1_555 1_555
O8 H67 1_555 1_555
H68 O8 1_555 1_555
C5 C10 1_555 1_555
C9 C10 1_555 1_555
C13 C14 1_555 1_555
C13 C16 1_555 1_555
C15 C16 1_555 1_555
C16 C17 1_555 1_555
C25 C30 1_555 1_555
C29 C30 1_555 1_555
C33 C34 1_555 1_555
C33 C36 1_555 1_555
C35 C36 1_555 1_555
C36 C37 1_555 1_555

#END
