
#######################################################################
#
#                 Cambridge Crystallographic Data Centre
#                                CCDC 
#
#######################################################################
#
# If this CIF has been generated from an entry in the Cambridge 
# Structural Database, then it will include bibliographic, chemical, 
# crystal, experimental, refinement or atomic coordinate data resulting 
# from the CCDC's data processing and validation procedures.
#
#######################################################################

data_MECZOJ
_chemical_formula_moiety         'C22 H32 O2'
_chemical_name_systematic        
exo-trans-exo-(6R,17R)-6,17-Dimethoxyheptacyclo(11.5.1.1^4,10^.0^2,12^.0^3,11^.0^5,9^.0^14,18^)icosane
_symmetry_cell_setting           triclinic
_symmetry_space_group_name_H-M   'P -1'
_symmetry_Int_Tables_number      2
_space_group_name_Hall           '-P 1'
loop_
_symmetry_equiv_pos_site_id
_symmetry_equiv_pos_as_xyz
1 x,y,z
2 -x,-y,-z
_cell_length_a                   7.7130(4)
_cell_length_b                   8.9995(7)
_cell_length_c                   13.5820(9)
_cell_angle_alpha                106.814(6)
_cell_angle_beta                 92.935(7)
_cell_angle_gamma                96.154(6)
_cell_volume                     893.91
_exptl_crystal_colour            colorless
_exptl_crystal_description       chunk
_chemical_melting_point          398-400K
_cell_formula_units_Z            2
loop_
_atom_site_label
_atom_site_type_symbol
_atom_site_fract_x
_atom_site_fract_y
_atom_site_fract_z
O1 O 0.71522(17) 0.35817(15) 0.11548(10)
O2 O 0.04148(16) 0.81679(15) 0.19745(9)
C1 C 0.3214(2) 0.3851(2) 0.31876(13)
H1 H 0.4156 0.3918 0.3717
C2 C 0.2397(2) 0.2191(2) 0.25973(14)
H2 H 0.1593 0.1705 0.2984
C3 C 0.3836(2) 0.1184(2) 0.21352(14)
H3 H 0.3328 0.0086 0.1846
C4 C 0.5523(2) 0.1296(2) 0.28211(16)
H4 H 0.5310 0.1642 0.3545
H5 H 0.5948 0.0285 0.2675
C5 C 0.6850(2) 0.2478(2) 0.25686(15)
H6 H 0.6733 0.3536 0.2978
H7 H 0.8036 0.2267 0.2694
C6 C 0.6406(2) 0.2256(2) 0.14327(14)
H8 H 0.6924 0.1342 0.1038
C7 C 0.4402(2) 0.1864(2) 0.12432(14)
H9 H 0.4101 0.1056 0.0578
C8 C 0.3235(2) 0.3182(2) 0.13231(13)
H10 H 0.3098 0.3493 0.0692
C9 C 0.3779(2) 0.45452(19) 0.22964(13)
H11 H 0.5008 0.5000 0.2369
C10 C 0.2460(2) 0.57523(19) 0.26001(13)
H12 H 0.1510 0.5655 0.2069
C11 C 0.3276(2) 0.7425(2) 0.31605(13)
H13 H 0.4046 0.7900 0.2752
C12 C 0.1868(2) 0.8447(2) 0.36595(14)
H14 H 0.2406 0.9536 0.3950
C13 C 0.0150(2) 0.8401(2) 0.30345(14)
H15 H -0.0275 0.9418 0.3299
C14 C -0.1152(2) 0.7166(2) 0.32643(16)
H16 H -0.2345 0.7380 0.3170
H17 H -0.1038 0.6128 0.2822
C15 C -0.0646(3) 0.7315(2) 0.43896(16)
H18 H -0.0970 0.6330 0.4530
H19 H -0.1232 0.8114 0.4842
C16 C 0.1347(2) 0.7770(2) 0.45585(14)
H20 H 0.1648 0.8581 0.5222
C17 C 0.2539(2) 0.6466(2) 0.44658(13)
H21 H 0.2721 0.6170 0.5100
C18 C 0.1936(2) 0.5087(2) 0.35067(13)
H22 H 0.0703 0.4655 0.3459
C19 C 0.1532(2) 0.2397(2) 0.16063(14)
H23 H 0.0625 0.3080 0.1740
H24 H 0.1085 0.1409 0.1098
C20 C 0.4207(2) 0.7239(2) 0.41416(14)
H25 H 0.4675 0.8233 0.4637
H26 H 0.5111 0.6555 0.3993
C21 C 0.7135(4) 0.3314(3) 0.00769(19)
H27 H 0.7783 0.4192 -0.0062
H28 H 0.5948 0.3180 -0.0216
H29 H 0.7662 0.2386 -0.0224
C22 C -0.1089(3) 0.8268(3) 0.13806(19)
H30 H -0.0810 0.8177 0.0687
H31 H -0.1501 0.9257 0.1674
H32 H -0.1984 0.7436 0.1375
loop_
_geom_bond_atom_site_label_1
_geom_bond_atom_site_label_2
_geom_bond_site_symmetry_1
_geom_bond_site_symmetry_2
O1 C6 1_555 1_555
O2 C13 1_555 1_555
C1 H1 1_555 1_555
C2 C1 1_555 1_555
H2 C2 1_555 1_555
C3 C2 1_555 1_555
H3 C3 1_555 1_555
C4 C3 1_555 1_555
H4 C4 1_555 1_555
H5 C4 1_555 1_555
C5 C4 1_555 1_555
H6 C5 1_555 1_555
H7 C5 1_555 1_555
C6 C5 1_555 1_555
H8 C6 1_555 1_555
C7 C3 1_555 1_555
H9 C7 1_555 1_555
C8 C7 1_555 1_555
H10 C8 1_555 1_555
C9 C1 1_555 1_555
H11 C9 1_555 1_555
C10 C9 1_555 1_555
H12 C10 1_555 1_555
C11 C10 1_555 1_555
H13 C11 1_555 1_555
C12 C11 1_555 1_555
H14 C12 1_555 1_555
C13 C12 1_555 1_555
H15 C13 1_555 1_555
C14 C13 1_555 1_555
H16 C14 1_555 1_555
H17 C14 1_555 1_555
C15 C14 1_555 1_555
H18 C15 1_555 1_555
H19 C15 1_555 1_555
C16 C12 1_555 1_555
H20 C16 1_555 1_555
C17 C16 1_555 1_555
H21 C17 1_555 1_555
C18 C1 1_555 1_555
H22 C18 1_555 1_555
C19 C2 1_555 1_555
H23 C19 1_555 1_555
H24 C19 1_555 1_555
C20 C11 1_555 1_555
H25 C20 1_555 1_555
H26 C20 1_555 1_555
C21 O1 1_555 1_555
H27 C21 1_555 1_555
H28 C21 1_555 1_555
H29 C21 1_555 1_555
C22 O2 1_555 1_555
H30 C22 1_555 1_555
H31 C22 1_555 1_555
H32 C22 1_555 1_555
C6 C7 1_555 1_555
C8 C9 1_555 1_555
C8 C19 1_555 1_555
C10 C18 1_555 1_555
C15 C16 1_555 1_555
C17 C18 1_555 1_555
C17 C20 1_555 1_555

#END
