
#######################################################################
#
#                 Cambridge Crystallographic Data Centre
#                                CCDC 
#
#######################################################################
#
# If this CIF has been generated from an entry in the Cambridge 
# Structural Database, then it will include bibliographic, chemical, 
# crystal, experimental, refinement or atomic coordinate data resulting 
# from the CCDC's data processing and validation procedures.
#
#######################################################################

data_MEDKAI
_chemical_formula_moiety         'Cl1 1-,C12 H10 N3 O1 1+,H2 O1'
_chemical_name_systematic        
"9-Methyl-5-oxo-5,6-dihydrodipyrido(1,2-a:3',2'-e)pyrimidin-11-ium chloride monohydrate"
_symmetry_cell_setting           monoclinic
_symmetry_space_group_name_H-M   'P 21/n'
_symmetry_Int_Tables_number      14
_space_group_name_Hall           '-P 2yn'
loop_
_symmetry_equiv_pos_site_id
_symmetry_equiv_pos_as_xyz
1 x,y,z
2 1/2-x,1/2+y,1/2-z
3 -x,-y,-z
4 1/2+x,1/2-y,1/2+z
_cell_length_a                   10.5221(3)
_cell_length_b                   10.1509(3)
_cell_length_c                   11.7952(4)
_cell_angle_alpha                90
_cell_angle_beta                 110.6320(17)
_cell_angle_gamma                90
_cell_volume                     1179.03
_exptl_crystal_colour            colorless
_exptl_crystal_description       Irregular
_chemical_melting_point          '524-526 K'
_cell_formula_units_Z            4
_exptl_crystal_recrystallization_method ethanol
loop_
_atom_site_label
_atom_site_type_symbol
_atom_site_fract_x
_atom_site_fract_y
_atom_site_fract_z
Cl1 Cl 0.69407(5) 0.37777(5) 0.06555(5)
N1 N 1.00275(18) 0.36128(18) -0.26789(17)
N2 N 1.07872(17) 0.55856(17) -0.32436(15)
N3 N 1.01432(18) 0.76171(19) -0.26500(16)
O1 O 0.90119(16) 0.77909(16) -0.13375(14)
C1 C 0.9345(2) 0.2974(2) -0.2081(2)
H1 H 0.9300 0.2040 -0.2132
C2 C 0.8695(2) 0.3607(2) -0.1387(2)
H2 H 0.8228 0.3114 -0.0970
C3 C 0.8744(2) 0.4959(2) -0.13192(19)
H3 H 0.8307 0.5417 -0.0857
C4 C 0.9442(2) 0.5648(2) -0.19369(18)
C5 C 0.9501(2) 0.7093(2) -0.19170(18)
C6 C 1.0810(2) 0.6920(2) -0.32535(17)
C7 C 1.1524(2) 0.7571(2) -0.38912(18)
H4 H 1.1518 0.8506 -0.3933
C8 C 1.2229(2) 0.6850(2) -0.44528(19)
H5 H 1.2711 0.7292 -0.4886
C9 C 1.2252(2) 0.5464(2) -0.43992(18)
C10 C 1.1518(2) 0.4860(2) -0.37975(18)
H6 H 1.1509 0.3925 -0.3758
C11 C 1.0056(2) 0.4915(2) -0.25962(18)
C12 C 1.3084(2) 0.4666(2) -0.4956(2)
H7 H 1.3539 0.5258 -0.5349
H8 H 1.2490 0.4062 -0.5559
H9 H 1.3767 0.4160 -0.4322
H12 H 1.014(3) 0.851(3) -0.275(3)
O2 O 0.97658(18) 0.02255(16) -0.32960(15)
H10 H 1.035(3) 0.058(3) -0.348(3)
H11 H 0.925(3) -0.003(3) -0.391(3)
loop_
_geom_bond_atom_site_label_1
_geom_bond_atom_site_label_2
_geom_bond_site_symmetry_1
_geom_bond_site_symmetry_2
N1 C1 1_555 1_555
N2 C6 1_555 1_555
N3 C5 1_555 1_555
O1 C5 1_555 1_555
O2 H10 1_555 1_555
C1 H1 1_555 1_555
C2 C1 1_555 1_555
H2 C2 1_555 1_555
C3 C2 1_555 1_555
H3 C3 1_555 1_555
C4 C3 1_555 1_555
C5 C4 1_555 1_555
C6 N3 1_555 1_555
C7 C6 1_555 1_555
H4 C7 1_555 1_555
C8 C7 1_555 1_555
H5 C8 1_555 1_555
C9 C8 1_555 1_555
C10 N2 1_555 1_555
H6 C10 1_555 1_555
C11 N1 1_555 1_555
C12 C9 1_555 1_555
H7 C12 1_555 1_555
H8 C12 1_555 1_555
H9 C12 1_555 1_555
H11 O2 1_555 1_555
H12 N3 1_555 1_555
N2 C11 1_555 1_555
C4 C11 1_555 1_555
C9 C10 1_555 1_555

#END
