
#######################################################################
#
#                 Cambridge Crystallographic Data Centre
#                                CCDC 
#
#######################################################################
#
# If this CIF has been generated from an entry in the Cambridge 
# Structural Database, then it will include bibliographic, chemical, 
# crystal, experimental, refinement or atomic coordinate data resulting 
# from the CCDC's data processing and validation procedures.
#
#######################################################################

data_MEDLEP
_chemical_formula_moiety         'C128 H168 O12,C6 H11 Br1,C2 H3 N1'
_chemical_name_systematic        
"(P)-2,8,14,20-tetrahexyl-5,11,17,23-tetrakis(3,5-di-t-butyl-8-hydroxy-8-methylnona-3,4-diene-1,6-diyn-1-yl)-4,24:6,10:12,16:18,22-O,O'-tetramethylenecalix[4]resorcinarene bromocyclohexane acetonitrile solvate"
_symmetry_cell_setting           orthorhombic
_symmetry_space_group_name_H-M   'P 21 21 21'
_symmetry_Int_Tables_number      19
_space_group_name_Hall           'P 2ac 2ab'
loop_
_symmetry_equiv_pos_site_id
_symmetry_equiv_pos_as_xyz
1 x,y,z
2 1/2-x,-y,1/2+z
3 -x,1/2+y,1/2-z
4 1/2+x,1/2-y,-z
_cell_length_a                   15.4705(5)
_cell_length_b                   18.2238(5)
_cell_length_c                   46.4128(14)
_cell_angle_alpha                90
_cell_angle_beta                 90
_cell_angle_gamma                90
_cell_volume                     13085.2
_exptl_crystal_colour            colorless
_exptl_crystal_description       block
_cell_formula_units_Z            4
_exptl_crystal_recrystallization_method Acetonitrile/water
loop_
_atom_site_label
_atom_site_type_symbol
_atom_site_fract_x
_atom_site_fract_y
_atom_site_fract_z
O1 O 0.69708(17) 0.45596(17) 0.48173(7)
H1 H 0.6768 0.4987 0.4811
O2 O 0.66567(18) 0.60138(14) 0.47057(6)
H2 H 0.7084 0.6184 0.4616
O3 O 0.82303(16) 0.62241(14) 0.44457(6)
H3 H 0.8464 0.5812 0.4469
O4 O 0.86340(17) 0.47521(14) 0.46064(7)
H4 H 0.8150 0.4587 0.4657
O5 O 0.43763(15) 0.32525(13) 0.33413(6)
O6 O 0.33498(15) 0.41283(13) 0.34779(5)
O7 O 0.34125(15) 0.67402(13) 0.35004(5)
O8 O 0.43961(15) 0.76415(12) 0.33448(5)
O9 O 0.71973(15) 0.76492(13) 0.29272(5)
O10 O 0.82104(15) 0.67661(13) 0.27756(5)
O11 O 0.82237(16) 0.41492(13) 0.27937(6)
O12 O 0.72160(16) 0.32671(13) 0.29516(6)
C1 C 0.1049(3) 0.4518(3) 0.22166(14)
H5 H 0.0894 0.4870 0.2371
H6 H 0.0935 0.4762 0.2030
C2 C 0.1999(3) 0.4360(2) 0.22370(10)
H7 H 0.2319 0.4778 0.2153
H8 H 0.2128 0.3921 0.2119
C3 C 0.2331(2) 0.4229(2) 0.25396(9)
H9 H 0.2024 0.3801 0.2623
H10 H 0.2190 0.4662 0.2660
C4 C 0.3300(2) 0.40894(19) 0.25559(8)
H11 H 0.3604 0.4483 0.2450
H12 H 0.3430 0.3619 0.2459
C5 C 0.1735(3) 0.6764(3) 0.23331(10)
H13 H 0.1845 0.6270 0.2252
H14 H 0.1962 0.7130 0.2195
C6 C 0.2212(2) 0.6838(2) 0.26159(9)
H15 H 0.2054 0.6419 0.2741
H16 H 0.2014 0.7292 0.2713
C7 C 0.3195(2) 0.6865(2) 0.25890(8)
H17 H 0.3364 0.7316 0.2484
H18 H 0.3395 0.6438 0.2475
C8 C 0.7938(5) 0.7045(5) 0.08815(14)
H19 H 0.7733 0.7092 0.0682
H20 H 0.8394 0.6673 0.0890
H21 H 0.8167 0.7517 0.0947
C9 C 0.7189(4) 0.6816(4) 0.10748(12)
H22 H 0.6685 0.7136 0.1037
H23 H 0.7020 0.6305 0.1029
C10 C 0.7429(4) 0.6867(4) 0.13765(11)
H24 H 0.7640 0.7370 0.1415
H25 H 0.7916 0.6526 0.1412
C11 C 0.6693(3) 0.6689(3) 0.15956(9)
H26 H 0.6193 0.7015 0.1559
H27 H 0.6499 0.6176 0.1568
C12 C 0.7002(3) 0.6791(2) 0.19012(8)
H28 H 0.7343 0.7250 0.1911
H29 H 0.7395 0.6381 0.1950
C13 C 0.6286(2) 0.6827(2) 0.21277(8)
H30 H 0.5934 0.7274 0.2097
H31 H 0.5903 0.6395 0.2107
C14 C 0.7883(6) 0.4650(5) 0.08815(15)
H32 H 0.7643 0.4725 0.0688
H33 H 0.8292 0.4240 0.0878
H34 H 0.8183 0.5097 0.0944
C15 C 0.7141(5) 0.4476(4) 0.10952(13)
H35 H 0.6680 0.4847 0.1072
H36 H 0.6892 0.3991 0.1046
C16 C 0.7420(4) 0.4466(3) 0.13943(10)
H37 H 0.7669 0.4951 0.1443
H38 H 0.7885 0.4096 0.1416
C17 C 0.6700(3) 0.4292(2) 0.16101(9)
H39 H 0.6276 0.4699 0.1610
H40 H 0.6396 0.3841 0.1547
C18 C 0.7029(3) 0.4183(2) 0.19099(9)
H41 H 0.7363 0.4624 0.1967
H42 H 0.7432 0.3761 0.1910
C19 C 0.6330(2) 0.40465(19) 0.21364(8)
H43 H 0.5885 0.4436 0.2122
H44 H 0.6046 0.3570 0.2097
C20 C 0.3456(2) 0.47807(17) 0.33288(8)
C21 C 0.36121(19) 0.5455(2) 0.28935(7)
H45 H 0.3695 0.5462 0.2691
C22 C 0.3553(2) 0.47811(18) 0.30311(8)
C23 C 0.6668(2) 0.68409(18) 0.24311(7)
H46 H 0.7135 0.7220 0.2431
C24 C 0.6067(2) 0.38294(18) 0.26758(8)
C25 C 0.6030(2) 0.70594(18) 0.26665(7)
C26 C 0.5156(2) 0.68885(18) 0.26579(7)
H47 H 0.4935 0.6641 0.2494
C27 C 0.6358(2) 0.34993(18) 0.29256(8)
C28 C 0.6342(2) 0.74160(18) 0.29107(8)
C29 C 0.6394(2) 0.82330(19) 0.36094(8)
C30 C 0.5802(2) 0.76005(18) 0.31398(8)
C31 C 0.7089(2) 0.61170(19) 0.25185(8)
C32 C 0.2838(2) 0.6081(2) 0.45012(8)
C33 C 0.3636(2) 0.68580(19) 0.28835(8)
H48 H 0.3332 0.7231 0.3005
C34 C 0.3299(2) 0.5420(2) 0.43628(7)
C35 C 0.3555(2) 0.61265(19) 0.30408(8)
C36 C 0.3351(2) 0.5402(2) 0.40550(8)
C37 C 1.0302(2) 0.6693(2) 0.36952(8)
C38 C 0.4929(2) 0.34968(18) 0.31237(8)
C39 C 0.3613(2) 0.4869(2) 0.45138(8)
C40 C 0.4603(2) 0.38397(18) 0.28792(8)
C41 C 1.0207(2) 0.6100(2) 0.35416(8)
C42 C 0.3480(2) 0.61004(18) 0.33385(8)
C43 C 0.5185(2) 0.40029(18) 0.26602(8)
H49 H 0.4976 0.4243 0.2492
C44 C 0.6132(2) 0.79529(18) 0.33916(8)
C45 C 0.8186(2) 0.5464(2) 0.27911(7)
C46 C 0.6702(2) 0.40380(18) 0.24410(8)
H50 H 0.7177 0.3666 0.2444
C47 C 0.7824(2) 0.47941(19) 0.27035(8)
C48 C 0.34340(19) 0.5432(2) 0.34878(7)
C49 C 0.4588(2) 0.70667(18) 0.28821(8)
C50 C 0.4927(2) 0.74189(18) 0.31211(8)
C51 C 0.6081(2) 0.7780(2) 0.45339(8)
C52 C 0.6366(2) 0.84810(19) 0.41072(8)
C53 C 0.7817(2) 0.61149(19) 0.26950(8)
C54 C 0.3383(2) 0.5420(2) 0.37950(7)
C55 C 1.0893(2) 0.7330(2) 0.36075(9)
C56 C 0.3652(2) 0.40595(18) 0.28641(8)
H51 H 0.3315 0.3677 0.2970
C57 C 0.7491(3) 0.2462(2) 0.39716(9)
C58 C 0.8885(2) 0.6788(2) 0.44455(8)
C59 C 1.0107(2) 0.5496(2) 0.33870(7)
C60 C 0.6741(2) 0.85873(19) 0.38599(8)
C61 C 0.7835(2) 0.3808(2) 0.30337(9)
H52 H 0.7547 0.4185 0.3153
H53 H 0.8289 0.3574 0.3153
C62 C 0.9448(2) 0.5490(2) 0.31683(8)
C63 C 0.8600(2) 0.3099(2) 0.42250(9)
C64 C 0.9389(2) 0.6751(2) 0.41760(8)
C65 C 0.7829(2) 0.7127(2) 0.30129(8)
H54 H 0.8286 0.7379 0.3125
H55 H 0.7556 0.6758 0.3140
C66 C 0.9810(2) 0.6738(2) 0.39598(8)
C67 C 0.6739(2) 0.5441(2) 0.24408(7)
H56 H 0.6230 0.5435 0.2326
C68 C 0.5490(3) 0.4194(2) 0.48450(9)
C69 C 0.4127(2) 0.37614(19) 0.35551(8)
H57 H 0.4593 0.4127 0.3582
H58 H 0.4041 0.3501 0.3740
C70 C 0.8862(3) 0.3589(2) 0.43764(9)
C71 C 0.5929(2) 0.84036(19) 0.43495(8)
C72 C 0.7100(2) 0.47745(19) 0.25236(8)
C73 C 0.7542(2) 0.9082(2) 0.38129(8)
C74 C 0.6678(2) 0.2404(2) 0.38949(9)
C75 C 0.6161(2) 0.7251(2) 0.46852(8)
C76 C 0.6250(2) 0.6589(2) 0.48674(9)
C77 C 0.8314(3) 0.2514(2) 0.40410(8)
C78 C 0.8894(2) 0.5473(2) 0.29895(8)
C79 C 0.3872(2) 0.4318(2) 0.46740(8)
C80 C 0.9226(2) 0.4157(2) 0.45689(9)
C81 C 0.4753(2) 0.4264(2) 0.47674(8)
C82 C 0.3259(2) 0.6788(2) 0.43925(9)
H59 H 0.3863 0.6804 0.4455
H60 H 0.2949 0.7212 0.4471
H61 H 0.3232 0.6802 0.4182
C83 C 0.5804(2) 0.33310(18) 0.31544(8)
C84 C 0.6390(2) 0.2751(2) 0.36338(9)
C85 C 0.1883(2) 0.6051(2) 0.44127(9)
H62 H 0.1839 0.6046 0.4202
H63 H 0.1582 0.6484 0.4488
H64 H 0.1617 0.5606 0.4491
C86 C 0.5242(3) 0.8962(2) 0.44440(9)
C87 C 0.4200(2) 0.71100(19) 0.35581(8)
H65 H 0.4160 0.7354 0.3748
H66 H 0.4675 0.6747 0.3568
C88 C 0.2896(3) 0.6046(2) 0.48290(9)
H67 H 0.2637 0.5587 0.4897
H68 H 0.2585 0.6463 0.4913
H69 H 0.3504 0.6065 0.4888
C89 C 1.1295(3) 0.7180(3) 0.33144(10)
H70 H 1.1636 0.6727 0.3323
H71 H 1.1671 0.7590 0.3261
H72 H 1.0837 0.7126 0.3170
C90 C 0.6119(2) 0.30078(19) 0.34145(9)
C91 C 0.8275(3) 0.8619(2) 0.36877(10)
H73 H 0.8412 0.8217 0.3821
H74 H 0.8788 0.8927 0.3661
H75 H 0.8095 0.8416 0.3502
C92 C 0.6374(3) 0.4089(2) 0.49604(9)
C93 C 0.9483(3) 0.6669(3) 0.47005(9)
H76 H 0.9146 0.6678 0.4879
H77 H 0.9918 0.7060 0.4706
H78 H 0.9772 0.6193 0.4681
C94 C 0.7287(3) 0.9682(2) 0.35986(9)
H79 H 0.7096 0.9455 0.3418
H80 H 0.7786 0.9999 0.3561
H81 H 0.6814 0.9975 0.3679
C95 C 0.8994(3) 0.1965(2) 0.39310(8)
C96 C 1.1608(3) 0.7415(2) 0.38363(10)
H82 H 1.1345 0.7537 0.4022
H83 H 1.2003 0.7808 0.3779
H84 H 1.1929 0.6953 0.3854
C97 C 0.8579(3) 0.1414(2) 0.37261(10)
H85 H 0.8116 0.1150 0.3827
H86 H 0.9016 0.1063 0.3660
H87 H 0.8337 0.1674 0.3560
C98 C 1.0664(2) 0.4809(2) 0.34240(9)
C99 C 0.5356(3) 0.6293(2) 0.49413(10)
H88 H 0.5055 0.6154 0.4764
H89 H 0.5024 0.6672 0.5042
H90 H 0.5415 0.5861 0.5066
C100 C 0.3252(3) 0.3695(2) 0.47687(9)
C101 C 0.7817(3) 0.9422(2) 0.40989(9)
H91 H 0.7349 0.9733 0.4173
H92 H 0.8337 0.9720 0.4070
H93 H 0.7940 0.9032 0.4238
C102 C 1.1203(2) 0.4716(2) 0.31511(9)
H94 H 1.0819 0.4662 0.2985
H95 H 1.1567 0.4278 0.3169
H96 H 1.1571 0.5149 0.3124
C103 C 0.5133(3) 0.9556(3) 0.42175(10)
H97 H 0.5682 0.9817 0.4192
H98 H 0.4686 0.9903 0.4280
H99 H 0.4960 0.9332 0.4034
C104 C 0.6001(3) 0.1977(2) 0.40720(10)
C105 C 0.9385(3) 0.1556(2) 0.41867(10)
H100 H 0.9641 0.1910 0.4321
H101 H 0.9833 0.1219 0.4118
H102 H 0.8931 0.1277 0.4286
C106 C 0.4378(3) 0.8550(2) 0.44831(10)
H103 H 0.4205 0.8329 0.4299
H104 H 0.3932 0.8895 0.4547
H105 H 0.4449 0.8163 0.4628
C107 C 0.2347(3) 0.3827(3) 0.46519(11)
H106 H 0.2119 0.4286 0.4731
H107 H 0.1970 0.3419 0.4708
H108 H 0.2369 0.3861 0.4441
C108 C 1.0082(3) 0.4141(2) 0.34665(11)
H109 H 0.9709 0.4220 0.3634
H110 H 1.0440 0.3705 0.3498
H111 H 0.9725 0.4070 0.3294
C109 C 0.3595(3) 0.2963(2) 0.46539(12)
H112 H 0.3628 0.2983 0.4443
H113 H 0.3204 0.2566 0.4712
H114 H 0.4172 0.2872 0.4733
C110 C 0.5538(3) 0.9302(2) 0.47283(10)
H115 H 0.5669 0.8912 0.4867
H116 H 0.5078 0.9615 0.4805
H117 H 0.6058 0.9598 0.4695
C111 C 0.9436(3) 0.3815(3) 0.48605(11)
H118 H 0.9673 0.4192 0.4989
H119 H 0.9863 0.3423 0.4835
H120 H 0.8908 0.3611 0.4945
C112 C 1.0352(3) 0.8030(2) 0.35955(11)
H121 H 1.0097 0.8124 0.3785
H122 H 0.9890 0.7972 0.3453
H123 H 1.0721 0.8444 0.3541
C113 C 1.1261(3) 0.4900(3) 0.36840(9)
H124 H 1.1635 0.5327 0.3655
H125 H 1.1618 0.4459 0.3706
H126 H 1.0913 0.4971 0.3858
C114 C 0.6782(3) 0.6761(3) 0.51344(10)
H127 H 0.6826 0.6321 0.5255
H128 H 0.6501 0.7154 0.5244
H129 H 0.7362 0.6920 0.5077
C115 C 0.9697(3) 0.2388(3) 0.37696(10)
H130 H 0.9437 0.2658 0.3609
H131 H 1.0128 0.2043 0.3695
H132 H 0.9977 0.2735 0.3901
C116 C 0.6422(3) 0.1593(3) 0.43278(11)
H133 H 0.6813 0.1209 0.4258
H134 H 0.5973 0.1372 0.4449
H135 H 0.6750 0.1951 0.4441
C117 C 0.5546(3) 0.1421(3) 0.38827(12)
H136 H 0.5284 0.1673 0.3718
H137 H 0.5095 0.1173 0.3994
H138 H 0.5966 0.1059 0.3813
C118 C 1.0019(3) 0.4495(3) 0.44307(12)
H139 H 0.9850 0.4758 0.4255
H140 H 1.0432 0.4107 0.4381
H141 H 1.0289 0.4838 0.4566
C119 C 0.5320(4) 0.2516(3) 0.41816(13)
H142 H 0.5605 0.2917 0.4285
H143 H 0.4922 0.2261 0.4312
H144 H 0.4996 0.2716 0.4018
C120 C 0.3228(4) 0.3677(3) 0.50950(11)
H145 H 0.3813 0.3597 0.5170
H146 H 0.2850 0.3277 0.5159
H147 H 0.3004 0.4145 0.5168
C121 C 0.6690(3) 0.3313(3) 0.48921(15)
H148 H 0.6718 0.3247 0.4683
H149 H 0.6289 0.2954 0.4975
H150 H 0.7266 0.3241 0.4975
C122 C 0.6375(4) 0.4246(4) 0.52792(11)
H151 H 0.6963 0.4194 0.5355
H152 H 0.5991 0.3899 0.5377
H153 H 0.6170 0.4748 0.5313
C123 C 0.8417(3) 0.7510(2) 0.44651(10)
H154 H 0.7991 0.7543 0.4309
H155 H 0.8833 0.7913 0.4448
H156 H 0.8120 0.7544 0.4651
C124 C -0.0448(6) 0.4097(8) 0.2180(3)
H157 H -0.0509 0.4262 0.1980
H158 H -0.0628 0.4491 0.2311
H159 H -0.0813 0.3664 0.2212
C125 C 0.0497(5) 0.3899(6) 0.2239(2)
H160 H 0.0546 0.3689 0.2435
H161 H 0.0685 0.3520 0.2100
C126 C -0.0626(8) 0.7229(12) 0.2104(4)
H162 H -0.0887 0.7234 0.1911
H163 H -0.0653 0.7722 0.2187
H164 H -0.0943 0.6886 0.2227
C127 C 0.0301(8) 0.6989(12) 0.2082(3)
H165 H 0.0623 0.7363 0.1970
H166 H 0.0323 0.6525 0.1971
C128 C 0.0758(8) 0.687(2) 0.2368(4)
H167 H 0.0509 0.6439 0.2465
H168 H 0.0654 0.7305 0.2493
Br1 Br 0.60066(3) 0.54587(3) 0.33173(2)
C134 C 0.6517(3) 0.5878(2) 0.36737(10)
H185 H 0.6540 0.6423 0.3653
C135 C 0.7431(3) 0.5593(4) 0.37099(11)
H186 H 0.7733 0.5896 0.3855
H187 H 0.7743 0.5647 0.3525
C136 C 0.7461(4) 0.4796(4) 0.38028(12)
H188 H 0.7248 0.4484 0.3643
H189 H 0.8068 0.4657 0.3842
C137 C 0.6927(4) 0.4657(3) 0.40657(10)
H190 H 0.7176 0.4925 0.4231
H191 H 0.6935 0.4126 0.4112
C138 C 0.6004(3) 0.4904(3) 0.40172(11)
H192 H 0.5739 0.4596 0.3865
H193 H 0.5670 0.4832 0.4197
C139 C 0.5952(3) 0.5695(3) 0.39294(11)
H194 H 0.6126 0.6005 0.4094
H195 H 0.5345 0.5815 0.3882
N1 N 0.5498(4) 0.0410(4) 0.28968(13)
C140 C 0.6601(6) 0.1243(4) 0.31710(15)
H196 H 0.6631 0.1722 0.3075
H197 H 0.7170 0.1008 0.3165
H198 H 0.6424 0.1310 0.3372
C141 C 0.5973(4) 0.0782(3) 0.30236(13)
H169? H 0.0773 0.4111 0.2324
H170? H 0.0967 0.4959 0.2338
H171? H 0.1974 0.7127 0.2196
H172? H 0.1855 0.6270 0.2254
C129? C -0.0443(7) 0.4753(11) 0.2008(3)
H173? H -0.0657 0.4960 0.1827
H174? H -0.0565 0.5095 0.2166
H175? H -0.0733 0.4284 0.2045
C130? C 0.0518(6) 0.4631(8) 0.1986(2)
H176? H 0.0598 0.4203 0.1858
H177? H 0.0755 0.5060 0.1882
C131? C -0.0669(9) 0.6709(19) 0.2090(5)
H178? H -0.0920 0.6770 0.1898
H179? H -0.0837 0.7125 0.2212
H180? H -0.0882 0.6253 0.2176
C132? C 0.0313(11) 0.6679(17) 0.2067(5)
H181? H 0.0487 0.6179 0.2006
H182? H 0.0504 0.7026 0.1915
C133? C 0.0767(8) 0.6867(16) 0.2348(4)
H183? H 0.0641 0.7384 0.2398
H184? H 0.0532 0.6553 0.2503
loop_
_geom_bond_atom_site_label_1
_geom_bond_atom_site_label_2
_geom_bond_site_symmetry_1
_geom_bond_site_symmetry_2
O1 H1 1_555 1_555
O2 H2 1_555 1_555
O3 H3 1_555 1_555
O4 H4 1_555 1_555
O5 C38 1_555 1_555
O6 C20 1_555 1_555
O7 C42 1_555 1_555
O8 C50 1_555 1_555
O9 C28 1_555 1_555
O10 C53 1_555 1_555
O11 C47 1_555 1_555
O12 C27 1_555 1_555
C1 H5 1_555 1_555
H6 C1 1_555 1_555
C2 C1 1_555 1_555
H7 C2 1_555 1_555
H8 C2 1_555 1_555
C3 C2 1_555 1_555
H9 C3 1_555 1_555
H10 C3 1_555 1_555
C4 C3 1_555 1_555
H11 C4 1_555 1_555
H12 C4 1_555 1_555
C5 H13 1_555 1_555
H14 C5 1_555 1_555
C6 C5 1_555 1_555
H15 C6 1_555 1_555
H16 C6 1_555 1_555
C7 C6 1_555 1_555
H17 C7 1_555 1_555
H18 C7 1_555 1_555
C8 H19 1_555 1_555
H20 C8 1_555 1_555
H21 C8 1_555 1_555
C9 C8 1_555 1_555
H22 C9 1_555 1_555
H23 C9 1_555 1_555
C10 C9 1_555 1_555
H24 C10 1_555 1_555
H25 C10 1_555 1_555
C11 C10 1_555 1_555
H26 C11 1_555 1_555
H27 C11 1_555 1_555
C12 C11 1_555 1_555
H28 C12 1_555 1_555
H29 C12 1_555 1_555
C13 C12 1_555 1_555
H30 C13 1_555 1_555
H31 C13 1_555 1_555
C14 H32 1_555 1_555
H33 C14 1_555 1_555
H34 C14 1_555 1_555
C15 C14 1_555 1_555
H35 C15 1_555 1_555
H36 C15 1_555 1_555
C16 C15 1_555 1_555
H37 C16 1_555 1_555
H38 C16 1_555 1_555
C17 C16 1_555 1_555
H39 C17 1_555 1_555
H40 C17 1_555 1_555
C18 C17 1_555 1_555
H41 C18 1_555 1_555
H42 C18 1_555 1_555
C19 C18 1_555 1_555
H43 C19 1_555 1_555
H44 C19 1_555 1_555
C20 C22 1_555 1_555
C21 H45 1_555 1_555
C22 C21 1_555 1_555
C23 C13 1_555 1_555
H46 C23 1_555 1_555
C24 C27 1_555 1_555
C25 C23 1_555 1_555
C26 C25 1_555 1_555
H47 C26 1_555 1_555
C27 C83 1_555 1_555
C28 C25 1_555 1_555
C29 C44 1_555 1_555
C30 C28 1_555 1_555
C31 C23 1_555 1_555
C32 C34 1_555 1_555
C33 C7 1_555 1_555
H48 C33 1_555 1_555
C34 C36 1_555 1_555
C35 C21 1_555 1_555
C36 C54 1_555 1_555
C37 C41 1_555 1_555
C38 C40 1_555 1_555
C39 C34 1_555 1_555
C40 C43 1_555 1_555
C41 C59 1_555 1_555
C42 C35 1_555 1_555
C43 C24 1_555 1_555
H49 C43 1_555 1_555
C44 C30 1_555 1_555
C45 C47 1_555 1_555
C46 C19 1_555 1_555
H50 C46 1_555 1_555
C47 C72 1_555 1_555
C48 C20 1_555 1_555
C49 C26 1_555 1_555
C50 C30 1_555 1_555
C51 C71 1_555 1_555
C52 C60 1_555 1_555
C53 C31 1_555 1_555
C54 C48 1_555 1_555
C55 C37 1_555 1_555
C56 C4 1_555 1_555
H51 C56 1_555 1_555
C57 C74 1_555 1_555
C58 O3 1_555 1_555
C59 C62 1_555 1_555
C60 C29 1_555 1_555
C61 O11 1_555 1_555
H52 C61 1_555 1_555
H53 C61 1_555 1_555
C62 C78 1_555 1_555
C63 C70 1_555 1_555
C64 C58 1_555 1_555
C65 O9 1_555 1_555
H54 C65 1_555 1_555
H55 C65 1_555 1_555
C66 C37 1_555 1_555
C67 C31 1_555 1_555
H56 C67 1_555 1_555
C68 C81 1_555 1_555
C69 O5 1_555 1_555
H57 C69 1_555 1_555
H58 C69 1_555 1_555
C70 C80 1_555 1_555
C71 C52 1_555 1_555
C72 C46 1_555 1_555
C73 C60 1_555 1_555
C74 C84 1_555 1_555
C75 C51 1_555 1_555
C76 O2 1_555 1_555
C77 C57 1_555 1_555
C78 C45 1_555 1_555
C79 C39 1_555 1_555
C80 O4 1_555 1_555
C81 C79 1_555 1_555
C82 C32 1_555 1_555
H59 C82 1_555 1_555
H60 C82 1_555 1_555
H61 C82 1_555 1_555
C83 C38 1_555 1_555
C84 C90 1_555 1_555
C85 C32 1_555 1_555
H62 C85 1_555 1_555
H63 C85 1_555 1_555
H64 C85 1_555 1_555
C86 C71 1_555 1_555
C87 O7 1_555 1_555
H65 C87 1_555 1_555
H66 C87 1_555 1_555
C88 C32 1_555 1_555
H67 C88 1_555 1_555
H68 C88 1_555 1_555
H69 C88 1_555 1_555
C89 C55 1_555 1_555
H70 C89 1_555 1_555
H71 C89 1_555 1_555
H72 C89 1_555 1_555
C90 C83 1_555 1_555
C91 C73 1_555 1_555
H73 C91 1_555 1_555
H74 C91 1_555 1_555
H75 C91 1_555 1_555
C92 O1 1_555 1_555
C93 C58 1_555 1_555
H76 C93 1_555 1_555
H77 C93 1_555 1_555
H78 C93 1_555 1_555
C94 C73 1_555 1_555
H79 C94 1_555 1_555
H80 C94 1_555 1_555
H81 C94 1_555 1_555
C95 C77 1_555 1_555
C96 C55 1_555 1_555
H82 C96 1_555 1_555
H83 C96 1_555 1_555
H84 C96 1_555 1_555
C97 C95 1_555 1_555
H85 C97 1_555 1_555
H86 C97 1_555 1_555
H87 C97 1_555 1_555
C98 C59 1_555 1_555
C99 C76 1_555 1_555
H88 C99 1_555 1_555
H89 C99 1_555 1_555
H90 C99 1_555 1_555
C100 C79 1_555 1_555
C101 C73 1_555 1_555
H91 C101 1_555 1_555
H92 C101 1_555 1_555
H93 C101 1_555 1_555
C102 C98 1_555 1_555
H94 C102 1_555 1_555
H95 C102 1_555 1_555
H96 C102 1_555 1_555
C103 C86 1_555 1_555
H97 C103 1_555 1_555
H98 C103 1_555 1_555
H99 C103 1_555 1_555
C104 C74 1_555 1_555
C105 C95 1_555 1_555
H100 C105 1_555 1_555
H101 C105 1_555 1_555
H102 C105 1_555 1_555
C106 C86 1_555 1_555
H103 C106 1_555 1_555
H104 C106 1_555 1_555
H105 C106 1_555 1_555
C107 C100 1_555 1_555
H106 C107 1_555 1_555
H107 C107 1_555 1_555
H108 C107 1_555 1_555
C108 C98 1_555 1_555
H109 C108 1_555 1_555
H110 C108 1_555 1_555
H111 C108 1_555 1_555
C109 C100 1_555 1_555
H112 C109 1_555 1_555
H113 C109 1_555 1_555
H114 C109 1_555 1_555
C110 C86 1_555 1_555
H115 C110 1_555 1_555
H116 C110 1_555 1_555
H117 C110 1_555 1_555
C111 C80 1_555 1_555
H118 C111 1_555 1_555
H119 C111 1_555 1_555
H120 C111 1_555 1_555
C112 C55 1_555 1_555
H121 C112 1_555 1_555
H122 C112 1_555 1_555
H123 C112 1_555 1_555
C113 C98 1_555 1_555
H124 C113 1_555 1_555
H125 C113 1_555 1_555
H126 C113 1_555 1_555
C114 C76 1_555 1_555
H127 C114 1_555 1_555
H128 C114 1_555 1_555
H129 C114 1_555 1_555
C115 C95 1_555 1_555
H130 C115 1_555 1_555
H131 C115 1_555 1_555
H132 C115 1_555 1_555
C116 C104 1_555 1_555
H133 C116 1_555 1_555
H134 C116 1_555 1_555
H135 C116 1_555 1_555
C117 C104 1_555 1_555
H136 C117 1_555 1_555
H137 C117 1_555 1_555
H138 C117 1_555 1_555
C118 C80 1_555 1_555
H139 C118 1_555 1_555
H140 C118 1_555 1_555
H141 C118 1_555 1_555
C119 C104 1_555 1_555
H142 C119 1_555 1_555
H143 C119 1_555 1_555
H144 C119 1_555 1_555
C120 C100 1_555 1_555
H145 C120 1_555 1_555
H146 C120 1_555 1_555
H147 C120 1_555 1_555
C121 C92 1_555 1_555
H148 C121 1_555 1_555
H149 C121 1_555 1_555
H150 C121 1_555 1_555
C122 C92 1_555 1_555
H151 C122 1_555 1_555
H152 C122 1_555 1_555
H153 C122 1_555 1_555
C123 C58 1_555 1_555
H154 C123 1_555 1_555
H155 C123 1_555 1_555
H156 C123 1_555 1_555
C124 H157 1_555 1_555
H158 C124 1_555 1_555
H159 C124 1_555 1_555
C125 C1 1_555 1_555
H160 C125 1_555 1_555
H161 C125 1_555 1_555
C126 H162 1_555 1_555
H163 C126 1_555 1_555
H164 C126 1_555 1_555
C127 C126 1_555 1_555
H165 C127 1_555 1_555
H166 C127 1_555 1_555
C128 C5 1_555 1_555
H167 C128 1_555 1_555
H168 C128 1_555 1_555
Br1 C134 1_555 1_555
C134 H185 1_555 1_555
C135 C134 1_555 1_555
H186 C135 1_555 1_555
H187 C135 1_555 1_555
C136 C135 1_555 1_555
H188 C136 1_555 1_555
H189 C136 1_555 1_555
C137 C136 1_555 1_555
H190 C137 1_555 1_555
H191 C137 1_555 1_555
C138 C137 1_555 1_555
H192 C138 1_555 1_555
H193 C138 1_555 1_555
C139 C134 1_555 1_555
H194 C139 1_555 1_555
H195 C139 1_555 1_555
N1 C141 1_555 1_555
C140 H196 1_555 1_555
H197 C140 1_555 1_555
H198 C140 1_555 1_555
C141 C140 1_555 1_555
O6 C69 1_555 1_555
O8 C87 1_555 1_555
O10 C65 1_555 1_555
O12 C61 1_555 1_555
C22 C56 1_555 1_555
C24 C46 1_555 1_555
C33 C35 1_555 1_555
C33 C49 1_555 1_555
C40 C56 1_555 1_555
C42 C48 1_555 1_555
C45 C53 1_555 1_555
C49 C50 1_555 1_555
C63 C77 1_555 1_555
C64 C66 1_555 1_555
C67 C72 1_555 1_555
C68 C92 1_555 1_555
C75 C76 1_555 1_555
C124 C125 1_555 1_555
C127 C128 1_555 1_555
C138 C139 1_555 1_555

#END
