
#######################################################################
#
#                 Cambridge Crystallographic Data Centre
#                                CCDC 
#
#######################################################################
#
# If this CIF has been generated from an entry in the Cambridge 
# Structural Database, then it will include bibliographic, chemical, 
# crystal, experimental, refinement or atomic coordinate data resulting 
# from the CCDC's data processing and validation procedures.
#
#######################################################################

data_MEDLIT
_chemical_formula_moiety         'C128 H168 O12,C6 H11 Cl1,C2 H3 N1'
_chemical_name_systematic        
"(P)-2,8,14,20-tetrahexyl-5,11,17,23-tetrakis(3,5-di-t-butyl-8-hydroxy-8-methylnona-3,4-diene-1,6-diyn-1-yl)-4,24:6,10:12,16:18,22-O,O'-tetramethylenecalix[4]resorcinarene chlorocyclohexane acetonitrile solvate"
_symmetry_cell_setting           orthorhombic
_symmetry_space_group_name_H-M   'P 21 21 21'
_symmetry_Int_Tables_number      19
_space_group_name_Hall           'P 2ac 2ab'
loop_
_symmetry_equiv_pos_site_id
_symmetry_equiv_pos_as_xyz
1 x,y,z
2 1/2-x,-y,1/2+z
3 -x,1/2+y,1/2-z
4 1/2+x,1/2-y,-z
_cell_length_a                   15.4726(2)
_cell_length_b                   18.2043(3)
_cell_length_c                   46.4340(7)
_cell_angle_alpha                90
_cell_angle_beta                 90
_cell_angle_gamma                90
_cell_volume                     13079
_exptl_crystal_colour            colorless
_exptl_crystal_description       plate
_cell_formula_units_Z            4
_exptl_crystal_recrystallization_method water/acetonitrile
loop_
_atom_site_label
_atom_site_type_symbol
_atom_site_fract_x
_atom_site_fract_y
_atom_site_fract_z
O1 O 0.30434(16) 0.54429(17) 0.48169(7)
H1 H 0.327(3) 0.4983(14) 0.4795(12)
O2 O 0.13808(17) 0.52495(14) 0.46084(6)
H2 H 0.185(2) 0.545(3) 0.4691(9)
O3 O 0.17817(16) 0.37738(14) 0.44481(6)
H3 H 0.154(3) 0.4226(13) 0.4478(10)
O4 O 0.33522(17) 0.39878(14) 0.47096(6)
H4 H 0.2830(17) 0.384(3) 0.4641(10)
O5 O 0.66651(14) 0.58720(12) 0.34851(5)
O6 O 0.56386(15) 0.67486(12) 0.33482(5)
O7 O 0.27982(15) 0.67338(12) 0.29616(6)
O8 O 0.17887(15) 0.58526(13) 0.28028(5)
O9 O 0.17984(15) 0.32334(13) 0.27780(5)
O10 O 0.28070(15) 0.23463(12) 0.29285(5)
O11 O 0.56046(15) 0.23568(12) 0.33514(5)
O12 O 0.65872(15) 0.32600(12) 0.35072(5)
C1 C 0.3310(2) 0.59632(18) 0.24480(8)
H5 H 0.2836 0.6337 0.2452
C2 C 0.2908(2) 0.52278(18) 0.25338(7)
C3 C 0.3268(2) 0.45642(19) 0.24466(7)
H6 H 0.3773 0.4574 0.2330
C4 C 0.2920(2) 0.38839(18) 0.25230(7)
C5 C 0.3342(2) 0.31596(18) 0.24342(8)
H7 H 0.2874 0.2780 0.2432
C6 C 0.3973(2) 0.29404(18) 0.26706(7)
C7 C 0.4853(2) 0.31117(18) 0.26642(7)
H8 H 0.5075 0.3359 0.2500
C8 C 0.5418(2) 0.29368(17) 0.28869(7)
C9 C 0.6370(2) 0.31425(18) 0.28902(7)
H9 H 0.6669 0.2768 0.3012
C10 C 0.6452(2) 0.38754(18) 0.30474(7)
C11 C 0.63981(18) 0.45444(18) 0.29002(7)
H10 H 0.6319 0.4536 0.2697
C12 C 0.64547(19) 0.52211(17) 0.30375(7)
C13 C 0.6364(2) 0.59411(18) 0.28719(8)
H11 H 0.6702 0.6323 0.2978
C14 C 0.5410(2) 0.61612(17) 0.28858(8)
C15 C 0.4827(2) 0.59988(18) 0.26675(7)
H12 H 0.5035 0.5759 0.2500
C16 C 0.3948(2) 0.61717(17) 0.26837(7)
C17 C 0.3652(2) 0.65060(18) 0.29342(8)
C18 C 0.4213(2) 0.66747(17) 0.31634(8)
C19 C 0.5088(2) 0.65075(18) 0.31313(7)
C20 C 0.5892(2) 0.62365(19) 0.35613(8)
H13 H 0.5976 0.6496 0.3747
H14 H 0.5426 0.5870 0.3588
C21 C 0.65535(19) 0.52189(17) 0.33348(7)
C22 C 0.65733(19) 0.45680(19) 0.34949(7)
C23 C 0.6525(2) 0.39019(18) 0.33448(7)
C24 C 0.5804(2) 0.28889(19) 0.35637(8)
H15 H 0.5329 0.3252 0.3573
H16 H 0.5844 0.2645 0.3754
C25 C 0.5074(2) 0.25832(17) 0.31269(7)
C26 C 0.4198(2) 0.23985(18) 0.31438(7)
C27 C 0.3659(2) 0.25839(17) 0.29142(8)
C28 C 0.2176(2) 0.2866(2) 0.30138(8)
H17 H 0.1718 0.2611 0.3124
H18 H 0.2448 0.3232 0.3143
C29 C 0.2195(2) 0.38872(18) 0.26976(7)
C30 C 0.1821(2) 0.4542(2) 0.27965(7)
C31 C 0.2186(2) 0.52085(18) 0.27091(8)
C32 C 0.2181(2) 0.6195(2) 0.30433(8)
H19 H 0.2469 0.5816 0.3163
H20 H 0.1728 0.6429 0.3163
C33 C 0.1111(2) 0.4524(2) 0.29937(8)
C34 C 0.0558(2) 0.4509(2) 0.31724(8)
C35 C -0.0098(2) 0.4505(2) 0.33920(8)
C36 C -0.0662(2) 0.5183(2) 0.34283(9)
C37 C -0.1250(3) 0.5096(3) 0.36867(10)
H21 H -0.1627 0.4670 0.3658
H22 H -0.1604 0.5539 0.3709
H23 H -0.0900 0.5023 0.3860
C38 C -0.0076(3) 0.5852(2) 0.34680(11)
H24 H 0.0292 0.5779 0.3637
H25 H -0.0433 0.6292 0.3495
H26 H 0.0286 0.5914 0.3297
C39 C -0.1200(2) 0.5279(2) 0.31562(9)
H27 H -0.0815 0.5333 0.2990
H28 H -0.1561 0.5719 0.3175
H29 H -0.1570 0.4847 0.3129
C40 C -0.0200(2) 0.3899(2) 0.35453(8)
C41 C -0.0292(2) 0.3306(2) 0.37010(8)
C42 C -0.0889(2) 0.2664(2) 0.36150(9)
C43 C -0.1290(3) 0.2814(2) 0.33219(9)
H30 H -0.1625 0.3270 0.3330
H31 H -0.1671 0.2406 0.3269
H32 H -0.0831 0.2864 0.3178
C44 C -0.0343(3) 0.1966(3) 0.36007(11)
H33 H 0.0125 0.2034 0.3461
H34 H -0.0706 0.1553 0.3541
H35 H -0.0096 0.1865 0.3791
C45 C -0.1597(2) 0.2582(2) 0.38422(9)
H36 H -0.1333 0.2505 0.4032
H37 H -0.1963 0.2160 0.3794
H38 H -0.1950 0.3028 0.3847
C46 C 0.0197(2) 0.3262(2) 0.39649(8)
C47 C 0.0618(2) 0.3249(2) 0.41814(8)
C48 C 0.1121(2) 0.3215(2) 0.44497(8)
C49 C 0.1595(3) 0.2485(2) 0.44677(10)
H39 H 0.2014 0.2451 0.4310
H40 H 0.1178 0.2082 0.4453
H41 H 0.1900 0.2452 0.4652
C50 C 0.0531(3) 0.3331(3) 0.47044(9)
H42 H 0.0871 0.3320 0.4882
H43 H 0.0096 0.2940 0.4710
H44 H 0.0244 0.3809 0.4687
C51 C 0.3873(2) 0.20437(19) 0.33931(8)
C52 C 0.3609(2) 0.17647(19) 0.36097(8)
C53 C 0.3259(2) 0.14113(19) 0.38616(8)
C54 C 0.2466(2) 0.0915(2) 0.38154(8)
C55 C 0.1731(3) 0.1371(2) 0.36914(10)
H45 H 0.1576 0.1760 0.3828
H46 H 0.1229 0.1055 0.3658
H47 H 0.1916 0.1592 0.3509
C56 C 0.2722(3) 0.0314(2) 0.36017(9)
H48 H 0.2940 0.0540 0.3424
H49 H 0.2216 0.0011 0.3557
H50 H 0.3174 0.0005 0.3687
C57 C 0.2180(3) 0.0569(2) 0.41001(9)
H51 H 0.2651 0.0269 0.4178
H52 H 0.1672 0.0259 0.4067
H53 H 0.2034 0.0958 0.4238
C58 C 0.3634(2) 0.15184(19) 0.41110(8)
C59 C 0.4072(2) 0.1592(2) 0.43518(8)
C60 C 0.4767(3) 0.1041(2) 0.44448(9)
C61 C 0.5630(3) 0.1450(2) 0.44814(10)
H54 H 0.5796 0.1674 0.4298
H55 H 0.6078 0.1103 0.4542
H56 H 0.5565 0.1835 0.4627
C62 C 0.4470(3) 0.0696(2) 0.47281(10)
H57 H 0.4359 0.1084 0.4870
H58 H 0.4921 0.0367 0.4801
H59 H 0.3938 0.0415 0.4695
C63 C 0.4879(3) 0.0440(2) 0.42167(10)
H60 H 0.4331 0.0179 0.4190
H61 H 0.5324 0.0092 0.4280
H62 H 0.5055 0.0663 0.4034
C64 C 0.3929(2) 0.2216(2) 0.45348(8)
C65 C 0.3852(2) 0.2749(2) 0.46876(8)
C66 C 0.3761(2) 0.3410(2) 0.48697(8)
C67 C 0.4660(2) 0.3706(2) 0.49443(10)
H63 H 0.4966 0.3837 0.4767
H64 H 0.4988 0.3328 0.5047
H65 H 0.4603 0.4142 0.5067
C68 C 0.3244(3) 0.3236(3) 0.51386(9)
H66 H 0.3201 0.3677 0.5259
H67 H 0.3533 0.2845 0.5247
H68 H 0.2663 0.3073 0.5084
C69 C 0.66240(19) 0.45823(19) 0.38012(7)
C70 C 0.66585(19) 0.45980(19) 0.40613(7)
C71 C 0.6715(2) 0.4579(2) 0.43692(7)
C72 C 0.7172(2) 0.3918(2) 0.45086(8)
C73 C 0.6752(2) 0.3210(2) 0.43992(9)
H69 H 0.6150 0.3190 0.4464
H70 H 0.7067 0.2785 0.4476
H71 H 0.6772 0.3200 0.4188
C74 C 0.8127(2) 0.3947(2) 0.44189(9)
H72 H 0.8167 0.3965 0.4208
H73 H 0.8425 0.3508 0.4490
H74 H 0.8397 0.4387 0.4501
C75 C 0.7114(2) 0.3953(2) 0.48356(8)
H75 H 0.7384 0.4408 0.4904
H76 H 0.7415 0.3530 0.4919
H77 H 0.6506 0.3944 0.4894
C76 C 0.6402(2) 0.5133(2) 0.45202(8)
C77 C 0.6145(2) 0.56857(19) 0.46783(8)
C78 C 0.6763(2) 0.6311(2) 0.47699(9)
C79 C 0.6419(3) 0.7036(2) 0.46539(12)
H78 H 0.6405 0.7019 0.4443
H79 H 0.6796 0.7438 0.4717
H80 H 0.5833 0.7119 0.4727
C80 C 0.6783(3) 0.6339(3) 0.50988(10)
H81 H 0.6197 0.6418 0.5172
H82 H 0.7157 0.6743 0.5161
H83 H 0.7009 0.5874 0.5174
C81 C 0.7672(2) 0.6170(3) 0.46547(11)
H84 H 0.7893 0.5709 0.4735
H85 H 0.8053 0.6575 0.4711
H86 H 0.7653 0.6135 0.4444
C82 C 0.5256(2) 0.5737(2) 0.47745(8)
C83 C 0.4529(2) 0.5808(2) 0.48529(8)
C84 C 0.3638(2) 0.5906(2) 0.49628(9)
C85 C 0.3627(3) 0.5729(4) 0.52830(11)
H87 H 0.3037 0.5780 0.5357
H88 H 0.4010 0.6069 0.5385
H89 H 0.3828 0.5224 0.5313
C86 C 0.3324(3) 0.6683(2) 0.49030(14)
H90 H 0.3332 0.6774 0.4695
H91 H 0.3704 0.7035 0.5000
H92 H 0.2733 0.6739 0.4976
C87 C 0.3892(2) 0.69983(18) 0.34230(8)
C88 C 0.3624(2) 0.72564(19) 0.36424(9)
C89 C 0.3337(2) 0.7606(2) 0.39028(8)
C90 C 0.4013(3) 0.8026(2) 0.40832(9)
C91 C 0.4682(3) 0.7466(3) 0.41920(12)
H93 H 0.4392 0.7094 0.4310
H94 H 0.5119 0.7720 0.4308
H95 H 0.4962 0.7229 0.4027
C92 C 0.4474(3) 0.8580(3) 0.38962(10)
H96 H 0.4756 0.8326 0.3736
H97 H 0.4910 0.8839 0.4011
H98 H 0.4055 0.8934 0.3821
C93 C 0.3587(3) 0.8401(3) 0.43381(10)
H99 H 0.3179 0.8773 0.4268
H100 H 0.4030 0.8637 0.4457
H101 H 0.3276 0.8035 0.4453
C94 C 0.2521(3) 0.7548(2) 0.39756(8)
C95 C 0.1693(3) 0.7495(2) 0.40430(8)
C96 C 0.1010(2) 0.8040(2) 0.39304(8)
C97 C 0.0307(3) 0.7616(3) 0.37702(10)
H102 H 0.0566 0.7347 0.3609
H103 H -0.0127 0.7960 0.3697
H104 H 0.0031 0.7267 0.3902
C98 C 0.0616(3) 0.8448(2) 0.41855(9)
H105 H 0.0392 0.8092 0.4325
H106 H 0.0144 0.8762 0.4118
H107 H 0.1060 0.8751 0.4278
C99 C 0.1432(3) 0.8589(2) 0.37257(10)
H108 H 0.1905 0.8842 0.3825
H109 H 0.1002 0.8950 0.3663
H110 H 0.1661 0.8329 0.3558
C100 C 0.1405(2) 0.6906(2) 0.42279(9)
C101 C 0.1147(2) 0.6417(2) 0.43798(9)
C102 C 0.0782(2) 0.5843(2) 0.45699(9)
C103 C 0.0574(3) 0.6187(3) 0.48602(10)
H111 H 0.0337 0.5812 0.4989
H112 H 0.0147 0.6580 0.4834
H113 H 0.1102 0.6392 0.4944
C104 C -0.0005(3) 0.5504(3) 0.44329(12)
H114 H 0.0160 0.5263 0.4252
H115 H -0.0432 0.5888 0.4393
H116 H -0.0255 0.5140 0.4564
C105 C 0.8965(3) 0.5486(3) 0.22236(13)
H117 H 0.9124 0.5147 0.2382
H118 H 0.9087 0.5230 0.2040
C106 C 0.8003(3) 0.5635(2) 0.22405(9)
H119 H 0.7868 0.6071 0.2122
H120 H 0.7689 0.5211 0.2157
C107 C 0.7679(2) 0.5766(2) 0.25436(9)
H121 H 0.7992 0.6191 0.2626
H122 H 0.7818 0.5330 0.2663
C108 C 0.6711(2) 0.59121(19) 0.25613(8)
H123 H 0.6402 0.5521 0.2455
H124 H 0.6584 0.6385 0.2465
C109 C 0.8282(3) 0.3204(3) 0.23423(9)
H125 H 0.8261 0.3719 0.2274
H126 H 0.7993 0.2893 0.2196
C110 C 0.7802(2) 0.3142(2) 0.26255(9)
H127 H 0.7967 0.3562 0.2749
H128 H 0.7988 0.2687 0.2724
C111 C 0.6818(2) 0.3131(2) 0.25963(8)
H129 H 0.6642 0.2684 0.2490
H130 H 0.6630 0.3563 0.2483
C112 C 0.2073(4) 0.2977(4) 0.08879(14)
H131 H 0.1593 0.3320 0.0917
H132 H 0.1884 0.2478 0.0935
H133 H 0.2257 0.2995 0.0686
C113 C 0.2818(4) 0.3190(4) 0.10798(12)
H134 H 0.3314 0.2859 0.1043
H135 H 0.3001 0.3698 0.1035
C114 C 0.2578(3) 0.3144(4) 0.13777(11)
H136 H 0.2365 0.2640 0.1416
H137 H 0.2091 0.3485 0.1412
C115 C 0.3315(3) 0.3324(2) 0.15999(9)
H138 H 0.3817 0.3000 0.1563
H139 H 0.3506 0.3839 0.1573
C116 C 0.3012(3) 0.3219(2) 0.19020(8)
H140 H 0.2672 0.2760 0.1911
H141 H 0.2619 0.3629 0.1951
C117 C 0.3723(2) 0.3181(2) 0.21301(8)
H142 H 0.4105 0.3615 0.2111
H143 H 0.4078 0.2736 0.2098
C118 C 0.2119(5) 0.5366(4) 0.08914(14)
H144 H 0.1838 0.4905 0.0947
H145 H 0.2351 0.5319 0.0696
H146 H 0.1696 0.5767 0.0897
C119 C 0.2858(4) 0.5534(4) 0.11012(11)
H147 H 0.3316 0.5159 0.1077
H148 H 0.3110 0.6018 0.1052
C120 C 0.2579(3) 0.5542(3) 0.14007(10)
H149 H 0.2328 0.5057 0.1448
H150 H 0.2116 0.5914 0.1423
C121 C 0.3302(3) 0.5713(2) 0.16177(9)
H151 H 0.3722 0.5303 0.1617
H152 H 0.3611 0.6161 0.1555
C122 C 0.2976(3) 0.5826(2) 0.19199(8)
H153 H 0.2642 0.5387 0.1978
H154 H 0.2574 0.6250 0.1920
C123 C 0.3678(2) 0.59633(19) 0.21434(8)
H155 H 0.3956 0.6443 0.2105
H156 H 0.4125 0.5577 0.2127
C124 C 1.0437(6) 0.5915(9) 0.2188(3)
H157 H 1.0521 0.5799 0.1984
H158 H 1.0594 0.5488 0.2305
H159 H 1.0804 0.6333 0.2241
C125 C 0.9495(5) 0.6110(6) 0.2241(2)
H160 H 0.9435 0.6336 0.2434
H161 H 0.9306 0.6475 0.2096
C126 C 1.0671(9) 0.3178(14) 0.2096(4)
H162 H 1.0916 0.3212 0.1902
H163 H 1.0823 0.2702 0.2181
H164 H 1.0904 0.3574 0.2216
C127 C 0.9687(9) 0.3248(9) 0.2079(3)
H165 H 0.9468 0.2958 0.1914
H166 H 0.9528 0.3769 0.2047
C128 C 0.9247(6) 0.2959(9) 0.2373(3)
H167 H 0.9293 0.2418 0.2389
H168 H 0.9520 0.3187 0.2543
Cl1 Cl 0.39832(12) 0.45314(10) 0.33534(3)
C134 C 0.3498(4) 0.4137(3) 0.36712(11)
H185 H 0.3476 0.3591 0.3647
C135 C 0.4055(4) 0.4311(3) 0.39268(13)
H186 H 0.3885 0.3990 0.4089
H187 H 0.4664 0.4199 0.3879
C136 C 0.3991(4) 0.5096(4) 0.40207(13)
H188 H 0.4318 0.5159 0.4202
H189 H 0.4264 0.5412 0.3873
C137 C 0.3090(4) 0.5342(3) 0.40662(12)
H190 H 0.2835 0.5072 0.4231
H191 H 0.3084 0.5872 0.4113
C138 C 0.2577(5) 0.5209(4) 0.38069(13)
H192 H 0.2794 0.5529 0.3650
H193 H 0.1970 0.5349 0.3846
C139 C 0.2601(4) 0.4416(4) 0.37058(12)
H194 H 0.2291 0.4105 0.3847
H195 H 0.2295 0.4376 0.3519
N1 N 0.4492(2) 0.9586(2) 0.28982(9)
C140 C 0.4027(3) 0.9226(2) 0.30194(10)
C141 C 0.3396(5) 0.8761(3) 0.31700(11)
H196 H 0.3411 0.8264 0.3089
H197 H 0.2816 0.8968 0.3146
H198 H 0.3541 0.8740 0.3375
H169? H 0.9240 0.5910 0.2321
H170? H 0.9062 0.5059 0.2352
H171? H 0.8076 0.3649 0.2241
H172? H 0.8129 0.2774 0.2222
C129? C 1.0445(7) 0.5252(12) 0.2008(3)
H173? H 1.0680 0.5087 0.1823
H174? H 1.0570 0.4884 0.2157
H175? H 1.0711 0.5721 0.2062
C130? C 0.9477(6) 0.5351(8) 0.1982(2)
H176? H 0.9379 0.5761 0.1846
H177? H 0.9247 0.4902 0.1889
C131? C 1.0644(10) 0.2656(13) 0.2108(4)
H178? H 1.0919 0.2678 0.1918
H179? H 1.0654 0.2149 0.2179
H180? H 1.0959 0.2973 0.2242
C132? C 0.9713(10) 0.2916(10) 0.2084(3)
H181? H 0.9358 0.2496 0.2018
H182? H 0.9688 0.3296 0.1932
C133? C 0.9272(9) 0.3244(10) 0.2365(4)
H183? H 0.9466 0.2963 0.2536
H184? H 0.9452 0.3762 0.2391
loop_
_geom_bond_atom_site_label_1
_geom_bond_atom_site_label_2
_geom_bond_site_symmetry_1
_geom_bond_site_symmetry_2
O1 H1 1_555 1_555
O2 H2 1_555 1_555
O3 H3 1_555 1_555
O4 H4 1_555 1_555
O5 C20 1_555 1_555
O6 C19 1_555 1_555
O7 C17 1_555 1_555
O8 C31 1_555 1_555
O9 C28 1_555 1_555
O10 C27 1_555 1_555
O11 C24 1_555 1_555
O12 C23 1_555 1_555
C1 H5 1_555 1_555
C2 C1 1_555 1_555
C3 C2 1_555 1_555
H6 C3 1_555 1_555
C4 C3 1_555 1_555
C5 C4 1_555 1_555
H7 C5 1_555 1_555
C6 C5 1_555 1_555
C7 C6 1_555 1_555
H8 C7 1_555 1_555
C8 C7 1_555 1_555
C9 C8 1_555 1_555
H9 C9 1_555 1_555
C10 C9 1_555 1_555
C11 C10 1_555 1_555
H10 C11 1_555 1_555
C12 C11 1_555 1_555
C13 C12 1_555 1_555
H11 C13 1_555 1_555
C14 C13 1_555 1_555
C15 C14 1_555 1_555
H12 C15 1_555 1_555
C16 C1 1_555 1_555
C17 C16 1_555 1_555
C18 C17 1_555 1_555
C19 C14 1_555 1_555
C20 O6 1_555 1_555
H13 C20 1_555 1_555
H14 C20 1_555 1_555
C21 O5 1_555 1_555
C22 C21 1_555 1_555
C23 C10 1_555 1_555
C24 O12 1_555 1_555
H15 C24 1_555 1_555
H16 C24 1_555 1_555
C25 O11 1_555 1_555
C26 C25 1_555 1_555
C27 C6 1_555 1_555
C28 O10 1_555 1_555
H17 C28 1_555 1_555
H18 C28 1_555 1_555
C29 O9 1_555 1_555
C30 C29 1_555 1_555
C31 C2 1_555 1_555
C32 O7 1_555 1_555
H19 C32 1_555 1_555
H20 C32 1_555 1_555
C33 C30 1_555 1_555
C34 C33 1_555 1_555
C35 C34 1_555 1_555
C36 C35 1_555 1_555
C37 C36 1_555 1_555
H21 C37 1_555 1_555
H22 C37 1_555 1_555
H23 C37 1_555 1_555
C38 C36 1_555 1_555
H24 C38 1_555 1_555
H25 C38 1_555 1_555
H26 C38 1_555 1_555
C39 C36 1_555 1_555
H27 C39 1_555 1_555
H28 C39 1_555 1_555
H29 C39 1_555 1_555
C40 C35 1_555 1_555
C41 C40 1_555 1_555
C42 C41 1_555 1_555
C43 C42 1_555 1_555
H30 C43 1_555 1_555
H31 C43 1_555 1_555
H32 C43 1_555 1_555
C44 C42 1_555 1_555
H33 C44 1_555 1_555
H34 C44 1_555 1_555
H35 C44 1_555 1_555
C45 C42 1_555 1_555
H36 C45 1_555 1_555
H37 C45 1_555 1_555
H38 C45 1_555 1_555
C46 C41 1_555 1_555
C47 C46 1_555 1_555
C48 O3 1_555 1_555
C49 C48 1_555 1_555
H39 C49 1_555 1_555
H40 C49 1_555 1_555
H41 C49 1_555 1_555
C50 C48 1_555 1_555
H42 C50 1_555 1_555
H43 C50 1_555 1_555
H44 C50 1_555 1_555
C51 C26 1_555 1_555
C52 C51 1_555 1_555
C53 C52 1_555 1_555
C54 C53 1_555 1_555
C55 C54 1_555 1_555
H45 C55 1_555 1_555
H46 C55 1_555 1_555
H47 C55 1_555 1_555
C56 C54 1_555 1_555
H48 C56 1_555 1_555
H49 C56 1_555 1_555
H50 C56 1_555 1_555
C57 C54 1_555 1_555
H51 C57 1_555 1_555
H52 C57 1_555 1_555
H53 C57 1_555 1_555
C58 C53 1_555 1_555
C59 C58 1_555 1_555
C60 C59 1_555 1_555
C61 C60 1_555 1_555
H54 C61 1_555 1_555
H55 C61 1_555 1_555
H56 C61 1_555 1_555
C62 C60 1_555 1_555
H57 C62 1_555 1_555
H58 C62 1_555 1_555
H59 C62 1_555 1_555
C63 C60 1_555 1_555
H60 C63 1_555 1_555
H61 C63 1_555 1_555
H62 C63 1_555 1_555
C64 C59 1_555 1_555
C65 C64 1_555 1_555
C66 O4 1_555 1_555
C67 C66 1_555 1_555
H63 C67 1_555 1_555
H64 C67 1_555 1_555
H65 C67 1_555 1_555
C68 C66 1_555 1_555
H66 C68 1_555 1_555
H67 C68 1_555 1_555
H68 C68 1_555 1_555
C69 C22 1_555 1_555
C70 C69 1_555 1_555
C71 C70 1_555 1_555
C72 C71 1_555 1_555
C73 C72 1_555 1_555
H69 C73 1_555 1_555
H70 C73 1_555 1_555
H71 C73 1_555 1_555
C74 C72 1_555 1_555
H72 C74 1_555 1_555
H73 C74 1_555 1_555
H74 C74 1_555 1_555
C75 C72 1_555 1_555
H75 C75 1_555 1_555
H76 C75 1_555 1_555
H77 C75 1_555 1_555
C76 C71 1_555 1_555
C77 C76 1_555 1_555
C78 C77 1_555 1_555
C79 C78 1_555 1_555
H78 C79 1_555 1_555
H79 C79 1_555 1_555
H80 C79 1_555 1_555
C80 C78 1_555 1_555
H81 C80 1_555 1_555
H82 C80 1_555 1_555
H83 C80 1_555 1_555
C81 C78 1_555 1_555
H84 C81 1_555 1_555
H85 C81 1_555 1_555
H86 C81 1_555 1_555
C82 C77 1_555 1_555
C83 C82 1_555 1_555
C84 O1 1_555 1_555
C85 C84 1_555 1_555
H87 C85 1_555 1_555
H88 C85 1_555 1_555
H89 C85 1_555 1_555
C86 C84 1_555 1_555
H90 C86 1_555 1_555
H91 C86 1_555 1_555
H92 C86 1_555 1_555
C87 C18 1_555 1_555
C88 C87 1_555 1_555
C89 C88 1_555 1_555
C90 C89 1_555 1_555
C91 C90 1_555 1_555
H93 C91 1_555 1_555
H94 C91 1_555 1_555
H95 C91 1_555 1_555
C92 C90 1_555 1_555
H96 C92 1_555 1_555
H97 C92 1_555 1_555
H98 C92 1_555 1_555
C93 C90 1_555 1_555
H99 C93 1_555 1_555
H100 C93 1_555 1_555
H101 C93 1_555 1_555
C94 C89 1_555 1_555
C95 C94 1_555 1_555
C96 C95 1_555 1_555
C97 C96 1_555 1_555
H102 C97 1_555 1_555
H103 C97 1_555 1_555
H104 C97 1_555 1_555
C98 C96 1_555 1_555
H105 C98 1_555 1_555
H106 C98 1_555 1_555
H107 C98 1_555 1_555
C99 C96 1_555 1_555
H108 C99 1_555 1_555
H109 C99 1_555 1_555
H110 C99 1_555 1_555
C100 C95 1_555 1_555
C101 C100 1_555 1_555
C102 O2 1_555 1_555
C103 C102 1_555 1_555
H111 C103 1_555 1_555
H112 C103 1_555 1_555
H113 C103 1_555 1_555
C104 C102 1_555 1_555
H114 C104 1_555 1_555
H115 C104 1_555 1_555
H116 C104 1_555 1_555
C105 H117 1_555 1_555
H118 C105 1_555 1_555
C106 C105 1_555 1_555
H119 C106 1_555 1_555
H120 C106 1_555 1_555
C107 C106 1_555 1_555
H121 C107 1_555 1_555
H122 C107 1_555 1_555
C108 C13 1_555 1_555
H123 C108 1_555 1_555
H124 C108 1_555 1_555
C109 H125 1_555 1_555
H126 C109 1_555 1_555
C110 C109 1_555 1_555
H127 C110 1_555 1_555
H128 C110 1_555 1_555
C111 C9 1_555 1_555
H129 C111 1_555 1_555
H130 C111 1_555 1_555
C112 H131 1_555 1_555
H132 C112 1_555 1_555
H133 C112 1_555 1_555
C113 C112 1_555 1_555
H134 C113 1_555 1_555
H135 C113 1_555 1_555
C114 C113 1_555 1_555
H136 C114 1_555 1_555
H137 C114 1_555 1_555
C115 C114 1_555 1_555
H138 C115 1_555 1_555
H139 C115 1_555 1_555
C116 C115 1_555 1_555
H140 C116 1_555 1_555
H141 C116 1_555 1_555
C117 C5 1_555 1_555
H142 C117 1_555 1_555
H143 C117 1_555 1_555
C118 H144 1_555 1_555
H145 C118 1_555 1_555
H146 C118 1_555 1_555
C119 C118 1_555 1_555
H147 C119 1_555 1_555
H148 C119 1_555 1_555
C120 C119 1_555 1_555
H149 C120 1_555 1_555
H150 C120 1_555 1_555
C121 C120 1_555 1_555
H151 C121 1_555 1_555
H152 C121 1_555 1_555
C122 C121 1_555 1_555
H153 C122 1_555 1_555
H154 C122 1_555 1_555
C123 C1 1_555 1_555
H155 C123 1_555 1_555
H156 C123 1_555 1_555
C124 H157 1_555 1_555
H158 C124 1_555 1_555
H159 C124 1_555 1_555
C125 C105 1_555 1_555
H160 C125 1_555 1_555
H161 C125 1_555 1_555
C126 H162 1_555 1_555
H163 C126 1_555 1_555
H164 C126 1_555 1_555
C127 C126 1_555 1_555
H165 C127 1_555 1_555
H166 C127 1_555 1_555
C128 C109 1_555 1_555
H167 C128 1_555 1_555
H168 C128 1_555 1_555
Cl1 C134 1_555 1_555
C134 H185 1_555 1_555
C135 C134 1_555 1_555
H186 C135 1_555 1_555
H187 C135 1_555 1_555
C136 C135 1_555 1_555
H188 C136 1_555 1_555
H189 C136 1_555 1_555
C137 C136 1_555 1_555
H190 C137 1_555 1_555
H191 C137 1_555 1_555
C138 C137 1_555 1_555
H192 C138 1_555 1_555
H193 C138 1_555 1_555
C139 C134 1_555 1_555
H194 C139 1_555 1_555
H195 C139 1_555 1_555
N1 C140 1_555 1_555
C140 C141 1_555 1_555
C141 H196 1_555 1_555
H197 C141 1_555 1_555
H198 C141 1_555 1_555
O8 C32 1_555 1_555
C4 C29 1_555 1_555
C8 C25 1_555 1_555
C12 C21 1_555 1_555
C15 C16 1_555 1_555
C18 C19 1_555 1_555
C22 C23 1_555 1_555
C26 C27 1_555 1_555
C30 C31 1_555 1_555
C47 C48 1_555 1_555
C65 C66 1_555 1_555
C83 C84 1_555 1_555
C101 C102 1_555 1_555
C107 C108 1_555 1_555
C110 C111 1_555 1_555
C116 C117 1_555 1_555
C122 C123 1_555 1_555
C124 C125 1_555 1_555
C127 C128 1_555 1_555
C138 C139 1_555 1_555

#END
