
#######################################################################
#
#                 Cambridge Crystallographic Data Centre
#                                CCDC 
#
#######################################################################
#
# If this CIF has been generated from an entry in the Cambridge 
# Structural Database, then it will include bibliographic, chemical, 
# crystal, experimental, refinement or atomic coordinate data resulting 
# from the CCDC's data processing and validation procedures.
#
#######################################################################

data_MEDMUG
_chemical_formula_moiety         'C128 H168 O12,C6 H10 Cl2,C2 H3 N1'
_chemical_name_systematic        
"(P)-2,8,14,20-tetrahexyl-5,11,17,23-tetrakis(3,5-di-t-butyl-8-hydroxy-8-methylnona-3,4-diene-1,6-diyn-1-yl)-4,24:6,10:12,16:18,22-O,O'-tetramethylenecalix[4]resorcinarene (trans)-1,2-dichlorocyclohexane acetonitrile solvate"
_symmetry_cell_setting           orthorhombic
_symmetry_space_group_name_H-M   'P 21 21 21'
_symmetry_Int_Tables_number      19
_space_group_name_Hall           'P 2ac 2ab'
loop_
_symmetry_equiv_pos_site_id
_symmetry_equiv_pos_as_xyz
1 x,y,z
2 1/2-x,-y,1/2+z
3 -x,1/2+y,1/2-z
4 1/2+x,1/2-y,-z
_cell_length_a                   15.4654(2)
_cell_length_b                   18.2121(2)
_cell_length_c                   46.7197(5)
_cell_angle_alpha                90
_cell_angle_beta                 90
_cell_angle_gamma                90
_cell_volume                     13158.9
_exptl_crystal_colour            colorless
_exptl_crystal_description       cube
_cell_formula_units_Z            4
_exptl_crystal_recrystallization_method water/acetonitrile
loop_
_atom_site_label
_atom_site_type_symbol
_atom_site_fract_x
_atom_site_fract_y
_atom_site_fract_z
O1 O 0.8208(2) 0.37765(19) 0.55632(8)
H1 H 0.8409 0.4194 0.5525
O2 O 0.8624(2) 0.52743(18) 0.54278(8)
H2 H 0.8171 0.5427 0.5348
O3 O 0.6985(2) 0.54578(19) 0.52064(9)
H3 H 0.6841 0.5019 0.5177
O4 O 0.6784(2) 0.39688(18) 0.52201(8)
H4 H 0.7152 0.3791 0.5333
O5 O 0.72234(18) 0.67901(15) 0.70428(7)
O6 O 0.82297(19) 0.58979(16) 0.71963(7)
O7 O 0.82002(19) 0.32790(16) 0.72182(6)
O8 O 0.71847(18) 0.23967(15) 0.70688(6)
O9 O 0.43793(19) 0.24147(15) 0.66516(6)
O10 O 0.33995(18) 0.33281(15) 0.64977(6)
O11 O 0.33444(19) 0.59394(15) 0.65217(6)
O12 O 0.43762(19) 0.68193(15) 0.66587(6)
C1 C 0.6654(3) 0.3215(2) 0.75609(9)
H5 H 0.7121 0.2836 0.7562
C2 C 0.6027(3) 0.2996(2) 0.73262(9)
C3 C 0.5142(3) 0.3172(2) 0.73358(9)
H6 H 0.4921 0.3418 0.7499
C4 C 0.4576(3) 0.2995(2) 0.71121(8)
C5 C 0.3628(3) 0.3204(2) 0.71103(9)
H7 H 0.3324 0.2834 0.6988
C6 C 0.3552(3) 0.3942(2) 0.69568(9)
C7 C 0.3609(2) 0.4606(2) 0.71031(8)
H8 H 0.3685 0.4594 0.7305
C8 C 0.3560(3) 0.5285(2) 0.69680(9)
C9 C 0.3658(3) 0.6008(2) 0.71324(9)
H9 H 0.3320 0.6391 0.7027
C10 C 0.4606(3) 0.6224(2) 0.71174(9)
C11 C 0.5190(3) 0.6058(2) 0.73352(9)
H10 H 0.4981 0.5817 0.7502
C12 C 0.6073(3) 0.6231(2) 0.73187(9)
C13 C 0.6713(3) 0.6016(2) 0.75495(9)
H11 H 0.7191 0.6385 0.7544
C14 C 0.7103(3) 0.5281(2) 0.74639(9)
C15 C 0.6733(3) 0.4615(2) 0.75496(8)
H12 H 0.6228 0.4626 0.7665
C16 C 0.7078(3) 0.3934(2) 0.74720(9)
C17 C 0.7801(3) 0.3929(2) 0.72977(9)
C18 C 0.8186(3) 0.4588(2) 0.71987(9)
C19 C 0.7823(3) 0.5252(2) 0.72880(9)
C20 C 0.7844(3) 0.6256(2) 0.69595(10)
H13 H 0.7560 0.5885 0.6836
H14 H 0.8301 0.6498 0.6845
C21 C 0.6359(3) 0.6566(2) 0.70691(9)
C22 C 0.5811(3) 0.6737(2) 0.68416(9)
C23 C 0.4920(3) 0.6568(2) 0.68718(9)
C24 C 0.4117(3) 0.6308(2) 0.64463(9)
H15 H 0.4030 0.6570 0.6263
H16 H 0.4584 0.5943 0.6418
C25 C 0.3455(3) 0.5286(2) 0.66714(9)
C26 C 0.3438(2) 0.4637(2) 0.65116(8)
C27 C 0.3475(3) 0.3967(2) 0.66596(9)
C28 C 0.4182(3) 0.2945(2) 0.64390(9)
H17 H 0.4132 0.2698 0.6251
H18 H 0.4663 0.3303 0.6427
C29 C 0.4910(3) 0.2645(2) 0.68738(9)
C30 C 0.5796(3) 0.2459(2) 0.68546(9)
C31 C 0.6328(3) 0.2638(2) 0.70835(9)
C32 C 0.7825(3) 0.2914(2) 0.69828(9)
H19 H 0.8284 0.2656 0.6874
H20 H 0.7559 0.3281 0.6854
C33 C 0.8890(3) 0.4569(2) 0.70006(9)
C34 C 0.9442(3) 0.4547(3) 0.68233(9)
C35 C 1.0105(3) 0.4531(3) 0.66068(9)
C36 C 1.1195(3) 0.5320(3) 0.68435(10)
H21 H 1.0804 0.5373 0.7007
H22 H 1.1554 0.5761 0.6826
H23 H 1.1566 0.4890 0.6872
C37 C 1.0663(3) 0.5218(3) 0.65694(10)
C38 C 1.0082(3) 0.5885(3) 0.65259(13)
H24 H 0.9719 0.5810 0.6357
H25 H 1.0441 0.6324 0.6499
H26 H 0.9714 0.5952 0.6695
C39 C 1.1274(3) 0.5128(3) 0.63161(11)
H27 H 1.1641 0.4696 0.6347
H28 H 1.1638 0.5566 0.6298
H29 H 1.0937 0.5062 0.6140
C40 C 1.0206(3) 0.3930(3) 0.64545(10)
C41 C 1.0301(3) 0.3336(3) 0.62985(10)
C42 C 1.0894(3) 0.2700(3) 0.63866(10)
C43 C 1.0349(3) 0.2001(3) 0.64017(13)
H30 H 0.9879 0.2069 0.6540
H31 H 1.0714 0.1589 0.6463
H32 H 1.0106 0.1895 0.6212
C44 C 1.1610(3) 0.2608(3) 0.61615(11)
H33 H 1.1348 0.2532 0.5973
H34 H 1.1969 0.2183 0.6211
H35 H 1.1969 0.3051 0.6157
C45 C 1.1299(3) 0.2848(3) 0.66799(11)
H36 H 1.1624 0.3310 0.6673
H37 H 1.1690 0.2445 0.6730
H38 H 1.0841 0.2886 0.6824
C46 C 0.9818(3) 0.3291(3) 0.60369(10)
C47 C 0.9402(3) 0.3267(3) 0.58216(10)
C48 C 0.8894(3) 0.3240(3) 0.55539(10)
C49 C 0.8448(4) 0.2493(3) 0.55285(12)
H39 H 0.8027 0.2437 0.5684
H40 H 0.8881 0.2102 0.5542
H41 H 0.8150 0.2460 0.5344
C50 C 0.9473(4) 0.3391(3) 0.53008(11)
H42 H 0.9127 0.3390 0.5125
H43 H 0.9917 0.3008 0.5288
H44 H 0.9750 0.3871 0.5324
C51 C 0.6120(3) 0.2109(2) 0.66024(9)
C52 C 0.6380(3) 0.1837(2) 0.63865(9)
C53 C 0.6732(3) 0.1479(2) 0.61369(9)
C54 C 0.7523(3) 0.0978(2) 0.61875(10)
C55 C 0.7255(3) 0.0383(3) 0.64027(10)
H45 H 0.7066 0.0615 0.6581
H46 H 0.7750 0.0061 0.6442
H47 H 0.6780 0.0092 0.6323
C56 C 0.7808(4) 0.0626(3) 0.59058(11)
H48 H 0.7332 0.0332 0.5828
H49 H 0.8309 0.0310 0.5940
H50 H 0.7964 0.1012 0.5769
C57 C 0.8260(3) 0.1431(3) 0.63130(12)
H51 H 0.8424 0.1817 0.6177
H52 H 0.8758 0.1111 0.6349
H53 H 0.8071 0.1655 0.6493
C58 C 0.6369(3) 0.1587(2) 0.58864(10)
C59 C 0.5953(3) 0.1645(2) 0.56441(9)
C60 C 0.5261(3) 0.1086(3) 0.55540(10)
C61 C 0.5140(4) 0.0501(3) 0.57854(12)
H54 H 0.5684 0.0236 0.5814
H55 H 0.4689 0.0156 0.5726
H56 H 0.4968 0.0737 0.5965
C62 C 0.5556(4) 0.0722(3) 0.52743(11)
H57 H 0.5670 0.1101 0.5130
H58 H 0.5101 0.0392 0.5205
H59 H 0.6085 0.0440 0.5309
C63 C 0.4400(3) 0.1495(3) 0.55100(11)
H60 H 0.4220 0.1721 0.5691
H61 H 0.3956 0.1147 0.5447
H62 H 0.4475 0.1878 0.5364
C64 C 0.6115(3) 0.2251(2) 0.54506(10)
C65 C 0.6202(3) 0.2755(2) 0.52891(10)
C66 C 0.6299(3) 0.3385(2) 0.50908(10)
C67 C 0.6757(4) 0.3139(3) 0.48184(12)
H63 H 0.6811 0.3556 0.4687
H64 H 0.6421 0.2748 0.4726
H65 H 0.7334 0.2954 0.4867
C68 C 0.5404(3) 0.3706(3) 0.50266(12)
H66 H 0.5135 0.3871 0.5205
H67 H 0.5041 0.3329 0.4937
H68 H 0.5464 0.4123 0.4896
C69 C 0.3390(3) 0.4652(2) 0.62043(9)
C70 C 0.3355(3) 0.4667(2) 0.59479(9)
C71 C 0.3314(3) 0.4642(2) 0.56398(8)
C72 C 0.2872(3) 0.3969(2) 0.55033(9)
C73 C 0.3295(3) 0.3271(3) 0.56183(11)
H69 H 0.3908 0.3265 0.5565
H70 H 0.3007 0.2840 0.5536
H71 H 0.3241 0.3258 0.5827
C74 C 0.1916(3) 0.3992(3) 0.55875(11)
H72 H 0.1866 0.4013 0.5796
H73 H 0.1625 0.3551 0.5516
H74 H 0.1644 0.4428 0.5504
C75 C 0.2945(3) 0.3997(3) 0.51760(10)
H75 H 0.2664 0.4444 0.5105
H76 H 0.2660 0.3565 0.5093
H77 H 0.3556 0.4000 0.5121
C76 C 0.3618(3) 0.5187(2) 0.54878(9)
C77 C 0.3886(3) 0.5733(3) 0.53282(9)
C78 C 0.3277(3) 0.6355(3) 0.52276(11)
C79 C 0.2361(3) 0.6227(3) 0.53415(13)
H78 H 0.2131 0.5769 0.5262
H79 H 0.1988 0.6637 0.5284
H80 H 0.2377 0.6193 0.5551
C80 C 0.3274(4) 0.6371(4) 0.49020(12)
H81 H 0.3860 0.6467 0.4832
H82 H 0.2885 0.6760 0.4835
H83 H 0.3074 0.5896 0.4829
C81 C 0.3615(3) 0.7086(3) 0.53409(13)
H84 H 0.3597 0.7083 0.5551
H85 H 0.3253 0.7486 0.5268
H86 H 0.4213 0.7157 0.5277
C82 C 0.4778(3) 0.5778(3) 0.52365(9)
C83 C 0.5513(3) 0.5841(3) 0.51614(10)
C84 C 0.6409(3) 0.5932(3) 0.50578(11)
C85 C 0.6727(4) 0.6697(3) 0.51241(17)
H87 H 0.6709 0.6779 0.5331
H88 H 0.6355 0.7058 0.5028
H89 H 0.7322 0.6753 0.5056
C86 C 0.6441(4) 0.5761(4) 0.47383(13)
H90 H 0.7031 0.5835 0.4667
H91 H 0.6045 0.6088 0.4636
H92 H 0.6268 0.5250 0.4707
C87 C 0.6123(3) 0.7055(2) 0.65828(10)
C88 C 0.6397(3) 0.7309(2) 0.63627(10)
C89 C 0.6686(3) 0.7657(2) 0.61037(10)
C90 C 0.6008(3) 0.8064(3) 0.59230(10)
C91 C 0.5346(4) 0.7509(4) 0.58149(14)
H93 H 0.5635 0.7145 0.5694
H94 H 0.4902 0.7764 0.5703
H95 H 0.5075 0.7262 0.5978
C92 C 0.5546(4) 0.8632(3) 0.61083(12)
H96 H 0.5280 0.8387 0.6273
H97 H 0.5098 0.8877 0.5995
H98 H 0.5965 0.8997 0.6176
C93 C 0.6440(4) 0.8445(3) 0.56684(11)
H99 H 0.6856 0.8809 0.5738
H100 H 0.5998 0.8690 0.5552
H101 H 0.6742 0.8079 0.5552
C94 C 0.7502(3) 0.7602(3) 0.60315(10)
C95 C 0.8334(3) 0.7553(2) 0.59645(10)
C96 C 0.9010(3) 0.8099(3) 0.60750(10)
C97 C 0.9714(4) 0.7683(3) 0.62348(12)
H102 H 0.9456 0.7414 0.6395
H103 H 1.0144 0.8031 0.6308
H104 H 0.9995 0.7335 0.6104
C98 C 0.9401(4) 0.8506(3) 0.58192(12)
H105 H 0.9674 0.8151 0.5690
H106 H 0.9835 0.8856 0.5887
H107 H 0.8943 0.8770 0.5717
C99 C 0.8579(4) 0.8655(3) 0.62798(12)
H108 H 0.8104 0.8904 0.6180
H109 H 0.9007 0.9018 0.6342
H110 H 0.8352 0.8395 0.6447
C100 C 0.8624(3) 0.6960(3) 0.57829(10)
C101 C 0.8880(3) 0.6465(3) 0.56351(11)
C102 C 0.9233(3) 0.5866(3) 0.54522(11)
C103 C 0.9443(4) 0.6176(3) 0.51607(13)
H111 H 0.9672 0.5784 0.5038
H112 H 0.9876 0.6565 0.5180
H113 H 0.8917 0.6378 0.5074
C104 C 1.0024(4) 0.5532(3) 0.55920(15)
H114 H 0.9864 0.5328 0.5779
H115 H 1.0466 0.5912 0.5618
H116 H 1.0253 0.5141 0.5470
C105 C 0.1039(4) 0.5547(4) 0.77601(15)
H117 H 0.0942 0.5126 0.7630
H118 H 0.0759 0.5977 0.7669
C106 C 0.1996(3) 0.5696(3) 0.77566(12)
H119 H 0.2305 0.5270 0.7839
H120 H 0.2121 0.6129 0.7878
C107 C 0.2331(3) 0.5838(3) 0.74539(10)
H121 H 0.2025 0.6269 0.7374
H122 H 0.2189 0.5408 0.7333
C108 C 0.3306(3) 0.5977(2) 0.74391(9)
H123 H 0.3609 0.5581 0.7544
H124 H 0.3437 0.6447 0.7536
C109 C 0.1715(3) 0.3271(3) 0.76560(10)
H125 H 0.1725 0.3789 0.7720
H126 H 0.2012 0.2972 0.7803
C110 C 0.2192(3) 0.3202(3) 0.73726(10)
H127 H 0.2024 0.3618 0.7248
H128 H 0.2007 0.2743 0.7277
C111 C 0.3179(3) 0.3195(2) 0.74042(9)
H129 H 0.3356 0.2750 0.7511
H130 H 0.3363 0.3629 0.7516
C112 C 0.7897(5) 0.3015(4) 0.91117(14)
H131 H 0.8118 0.2534 0.9053
H132 H 0.7687 0.2987 0.9309
H133 H 0.8362 0.3379 0.9099
C113 C 0.7160(4) 0.3239(4) 0.89153(12)
H134 H 0.6659 0.2913 0.8949
H135 H 0.6981 0.3748 0.8961
C114 C 0.7420(4) 0.3196(4) 0.86101(12)
H136 H 0.7636 0.2695 0.8571
H137 H 0.7906 0.3541 0.8578
C115 C 0.6683(4) 0.3377(3) 0.83919(10)
H138 H 0.6181 0.3054 0.8429
H139 H 0.6495 0.3892 0.8418
C116 C 0.6994(3) 0.3268(3) 0.80882(10)
H140 H 0.7332 0.2806 0.8080
H141 H 0.7390 0.3676 0.8039
C117 C 0.6281(3) 0.3233(2) 0.78640(9)
H142 H 0.5900 0.3667 0.7885
H143 H 0.5927 0.2788 0.7896
C118 C 0.7867(5) 0.5370(5) 0.91077(14)
H144 H 0.8125 0.4897 0.9056
H145 H 0.7629 0.5340 0.9302
H146 H 0.8310 0.5754 0.9101
C119 C 0.7149(5) 0.5554(4) 0.88987(12)
H147 H 0.6681 0.5187 0.8920
H148 H 0.6907 0.6040 0.8949
C120 C 0.7430(4) 0.5568(3) 0.85912(11)
H149 H 0.7660 0.5078 0.8540
H150 H 0.7908 0.5926 0.8571
C121 C 0.6720(3) 0.5769(3) 0.83789(10)
H151 H 0.6271 0.5382 0.8382
H152 H 0.6446 0.6235 0.8440
C122 C 0.7047(3) 0.5857(3) 0.80753(10)
H153 H 0.7351 0.5401 0.8019
H154 H 0.7475 0.6261 0.8072
C123 C 0.6350(3) 0.6019(2) 0.78548(9)
H155 H 0.6091 0.6505 0.7895
H156 H 0.5887 0.5645 0.7870
C124 C -0.0437(6) 0.5312(13) 0.7989(3)
H157 H -0.0556 0.4928 0.7848
H158 H -0.0675 0.5780 0.7922
H159 H -0.0706 0.5181 0.8172
C125 C 0.0534(6) 0.5387(9) 0.80296(17)
H160 H 0.0644 0.5786 0.8169
H161 H 0.0757 0.4926 0.8114
C126 C -0.0645(14) 0.272(2) 0.7887(7)
H162 H -0.0658 0.2224 0.7806
H163 H -0.0965 0.3055 0.7762
H164 H -0.0913 0.2716 0.8077
C127 C 0.0286(12) 0.2977(13) 0.7912(5)
H165 H 0.0600 0.2641 0.8042
H166 H 0.0292 0.3472 0.8000
C128 C 0.0764(9) 0.3011(16) 0.7627(5)
H167 H 0.0452 0.3350 0.7498
H168 H 0.0757 0.2517 0.7539
Cl1 Cl 0.57420(15) 0.37915(12) 0.58907(4)
Cl2 Cl 0.62289(19) 0.47317(17) 0.67161(5)
C134 C 0.5790(5) 0.4479(4) 0.61671(15)
H185 H 0.5206 0.4515 0.6258
C135 C 0.6022(8) 0.5236(6) 0.6043(3)
H186 H 0.5623 0.5350 0.5883
H187 H 0.5938 0.5614 0.6193
C136 C 0.6928(5) 0.5274(5) 0.59371(17)
H188 H 0.7057 0.5781 0.5873
H189 H 0.6998 0.4942 0.5771
C137 C 0.7569(6) 0.5049(5) 0.6177(2)
H190 H 0.8164 0.5056 0.6100
H191 H 0.7539 0.5414 0.6334
C138 C 0.7383(5) 0.4307(5) 0.62954(19)
H192 H 0.7762 0.4220 0.6463
H193 H 0.7524 0.3934 0.6149
C139 C 0.6422(5) 0.4211(4) 0.63886(15)
H194 H 0.6310 0.3679 0.6427
N1 N 0.5501(3) 0.9644(3) 0.71057(10)
C146 C 0.6597(5) 0.8823(3) 0.68338(12)
H205 H 0.6465 0.8815 0.6629
H206 H 0.6568 0.8323 0.6910
H207 H 0.7180 0.9021 0.6863
C147 C 0.5964(4) 0.9289(3) 0.69831(11)
H169? H 0.0899 0.5252 0.7932
H170? H 0.0888 0.5251 0.7590
H171? H 0.1890 0.2857 0.7781
H172? H 0.1902 0.3731 0.7751
C129? C -0.0449(6) 0.6015(11) 0.7806(4)
H173? H -0.0567 0.5561 0.7700
H174? H -0.0829 0.6406 0.7735
H175? H -0.0557 0.5936 0.8010
C130? C 0.0489(6) 0.6236(5) 0.7762(3)
H176? H 0.0554 0.6500 0.7578
H177? H 0.0677 0.6567 0.7918
C131? C -0.0683(14) 0.324(2) 0.7902(8)
H178? H -0.0932 0.3682 0.7819
H179? H -0.0924 0.3159 0.8094
H180? H -0.0823 0.2814 0.7781
C132? C 0.0294(15) 0.3318(15) 0.7923(6)
H181? H 0.0431 0.3796 0.8013
H182? H 0.0526 0.2926 0.8048
C133? C 0.0736(10) 0.3276(17) 0.7634(6)
H183? H 0.0554 0.3702 0.7517
H184? H 0.0544 0.2825 0.7535
Cl3? Cl 0.5942(6) 0.4395(5) 0.66863(14)
Cl4? Cl 0.7588(5) 0.5611(4) 0.61366(18)
C140? C 0.6841(14) 0.4556(10) 0.6445(4)
H195? H 0.7379 0.4638 0.6560
C141? C 0.6989(15) 0.3918(11) 0.6239(4)
H196? H 0.7542 0.4004 0.6138
H197? H 0.7057 0.3464 0.6354
C142? C 0.6310(14) 0.3785(12) 0.6021(4)
H198? H 0.5775 0.3609 0.6115
H199? H 0.6505 0.3406 0.5884
C143? C 0.6125(18) 0.4541(12) 0.5857(5)
H200? H 0.6643 0.4675 0.5744
H201? H 0.5641 0.4466 0.5721
C144? C 0.591(2) 0.516(2) 0.6050(8)
H202? H 0.5339 0.5061 0.6140
H203? H 0.5857 0.5613 0.5936
C145? C 0.6598(12) 0.5272(10) 0.6290(4)
H204? H 0.6376 0.5635 0.6433
loop_
_geom_bond_atom_site_label_1
_geom_bond_atom_site_label_2
_geom_bond_site_symmetry_1
_geom_bond_site_symmetry_2
O1 H1 1_555 1_555
O2 H2 1_555 1_555
O3 H3 1_555 1_555
O4 H4 1_555 1_555
O5 C20 1_555 1_555
O6 C19 1_555 1_555
O7 C17 1_555 1_555
O8 C31 1_555 1_555
O9 C28 1_555 1_555
O10 C27 1_555 1_555
O11 C24 1_555 1_555
O12 C23 1_555 1_555
C1 H5 1_555 1_555
C2 C1 1_555 1_555
C3 C2 1_555 1_555
H6 C3 1_555 1_555
C4 C3 1_555 1_555
C5 C4 1_555 1_555
H7 C5 1_555 1_555
C6 C5 1_555 1_555
C7 C6 1_555 1_555
H8 C7 1_555 1_555
C8 C7 1_555 1_555
C9 C8 1_555 1_555
H9 C9 1_555 1_555
C10 C9 1_555 1_555
C11 C10 1_555 1_555
H10 C11 1_555 1_555
C12 C11 1_555 1_555
C13 C12 1_555 1_555
H11 C13 1_555 1_555
C14 C13 1_555 1_555
C15 C14 1_555 1_555
H12 C15 1_555 1_555
C16 C1 1_555 1_555
C17 C16 1_555 1_555
C18 C17 1_555 1_555
C19 C14 1_555 1_555
C20 O6 1_555 1_555
H13 C20 1_555 1_555
H14 C20 1_555 1_555
C21 O5 1_555 1_555
C22 C21 1_555 1_555
C23 C10 1_555 1_555
C24 O12 1_555 1_555
H15 C24 1_555 1_555
H16 C24 1_555 1_555
C25 O11 1_555 1_555
C26 C25 1_555 1_555
C27 C6 1_555 1_555
C28 O10 1_555 1_555
H17 C28 1_555 1_555
H18 C28 1_555 1_555
C29 O9 1_555 1_555
C30 C29 1_555 1_555
C31 C2 1_555 1_555
C32 O7 1_555 1_555
H19 C32 1_555 1_555
H20 C32 1_555 1_555
C33 C18 1_555 1_555
C34 C33 1_555 1_555
C35 C34 1_555 1_555
C36 H21 1_555 1_555
H22 C36 1_555 1_555
H23 C36 1_555 1_555
C37 C35 1_555 1_555
C38 C37 1_555 1_555
H24 C38 1_555 1_555
H25 C38 1_555 1_555
H26 C38 1_555 1_555
C39 C37 1_555 1_555
H27 C39 1_555 1_555
H28 C39 1_555 1_555
H29 C39 1_555 1_555
C40 C35 1_555 1_555
C41 C40 1_555 1_555
C42 C41 1_555 1_555
C43 C42 1_555 1_555
H30 C43 1_555 1_555
H31 C43 1_555 1_555
H32 C43 1_555 1_555
C44 C42 1_555 1_555
H33 C44 1_555 1_555
H34 C44 1_555 1_555
H35 C44 1_555 1_555
C45 C42 1_555 1_555
H36 C45 1_555 1_555
H37 C45 1_555 1_555
H38 C45 1_555 1_555
C46 C41 1_555 1_555
C47 C46 1_555 1_555
C48 O1 1_555 1_555
C49 C48 1_555 1_555
H39 C49 1_555 1_555
H40 C49 1_555 1_555
H41 C49 1_555 1_555
C50 C48 1_555 1_555
H42 C50 1_555 1_555
H43 C50 1_555 1_555
H44 C50 1_555 1_555
C51 C30 1_555 1_555
C52 C51 1_555 1_555
C53 C52 1_555 1_555
C54 C53 1_555 1_555
C55 C54 1_555 1_555
H45 C55 1_555 1_555
H46 C55 1_555 1_555
H47 C55 1_555 1_555
C56 C54 1_555 1_555
H48 C56 1_555 1_555
H49 C56 1_555 1_555
H50 C56 1_555 1_555
C57 C54 1_555 1_555
H51 C57 1_555 1_555
H52 C57 1_555 1_555
H53 C57 1_555 1_555
C58 C53 1_555 1_555
C59 C58 1_555 1_555
C60 C59 1_555 1_555
C61 C60 1_555 1_555
H54 C61 1_555 1_555
H55 C61 1_555 1_555
H56 C61 1_555 1_555
C62 C60 1_555 1_555
H57 C62 1_555 1_555
H58 C62 1_555 1_555
H59 C62 1_555 1_555
C63 C60 1_555 1_555
H60 C63 1_555 1_555
H61 C63 1_555 1_555
H62 C63 1_555 1_555
C64 C59 1_555 1_555
C65 C64 1_555 1_555
C66 O4 1_555 1_555
C67 C66 1_555 1_555
H63 C67 1_555 1_555
H64 C67 1_555 1_555
H65 C67 1_555 1_555
C68 C66 1_555 1_555
H66 C68 1_555 1_555
H67 C68 1_555 1_555
H68 C68 1_555 1_555
C69 C26 1_555 1_555
C70 C69 1_555 1_555
C71 C70 1_555 1_555
C72 C71 1_555 1_555
C73 C72 1_555 1_555
H69 C73 1_555 1_555
H70 C73 1_555 1_555
H71 C73 1_555 1_555
C74 C72 1_555 1_555
H72 C74 1_555 1_555
H73 C74 1_555 1_555
H74 C74 1_555 1_555
C75 C72 1_555 1_555
H75 C75 1_555 1_555
H76 C75 1_555 1_555
H77 C75 1_555 1_555
C76 C71 1_555 1_555
C77 C76 1_555 1_555
C78 C77 1_555 1_555
C79 C78 1_555 1_555
H78 C79 1_555 1_555
H79 C79 1_555 1_555
H80 C79 1_555 1_555
C80 C78 1_555 1_555
H81 C80 1_555 1_555
H82 C80 1_555 1_555
H83 C80 1_555 1_555
C81 C78 1_555 1_555
H84 C81 1_555 1_555
H85 C81 1_555 1_555
H86 C81 1_555 1_555
C82 C77 1_555 1_555
C83 C82 1_555 1_555
C84 O3 1_555 1_555
C85 C84 1_555 1_555
H87 C85 1_555 1_555
H88 C85 1_555 1_555
H89 C85 1_555 1_555
C86 C84 1_555 1_555
H90 C86 1_555 1_555
H91 C86 1_555 1_555
H92 C86 1_555 1_555
C87 C22 1_555 1_555
C88 C87 1_555 1_555
C89 C88 1_555 1_555
C90 C89 1_555 1_555
C91 C90 1_555 1_555
H93 C91 1_555 1_555
H94 C91 1_555 1_555
H95 C91 1_555 1_555
C92 C90 1_555 1_555
H96 C92 1_555 1_555
H97 C92 1_555 1_555
H98 C92 1_555 1_555
C93 C90 1_555 1_555
H99 C93 1_555 1_555
H100 C93 1_555 1_555
H101 C93 1_555 1_555
C94 C89 1_555 1_555
C95 C94 1_555 1_555
C96 C95 1_555 1_555
C97 C96 1_555 1_555
H102 C97 1_555 1_555
H103 C97 1_555 1_555
H104 C97 1_555 1_555
C98 C96 1_555 1_555
H105 C98 1_555 1_555
H106 C98 1_555 1_555
H107 C98 1_555 1_555
C99 C96 1_555 1_555
H108 C99 1_555 1_555
H109 C99 1_555 1_555
H110 C99 1_555 1_555
C100 C95 1_555 1_555
C101 C100 1_555 1_555
C102 O2 1_555 1_555
C103 C102 1_555 1_555
H111 C103 1_555 1_555
H112 C103 1_555 1_555
H113 C103 1_555 1_555
C104 C102 1_555 1_555
H114 C104 1_555 1_555
H115 C104 1_555 1_555
H116 C104 1_555 1_555
C105 H117 1_555 1_555
H118 C105 1_555 1_555
C106 C105 1_555 1_555
H119 C106 1_555 1_555
H120 C106 1_555 1_555
C107 C106 1_555 1_555
H121 C107 1_555 1_555
H122 C107 1_555 1_555
C108 C9 1_555 1_555
H123 C108 1_555 1_555
H124 C108 1_555 1_555
C109 H125 1_555 1_555
H126 C109 1_555 1_555
C110 C109 1_555 1_555
H127 C110 1_555 1_555
H128 C110 1_555 1_555
C111 C5 1_555 1_555
H129 C111 1_555 1_555
H130 C111 1_555 1_555
C112 H131 1_555 1_555
H132 C112 1_555 1_555
H133 C112 1_555 1_555
C113 C112 1_555 1_555
H134 C113 1_555 1_555
H135 C113 1_555 1_555
C114 C113 1_555 1_555
H136 C114 1_555 1_555
H137 C114 1_555 1_555
C115 C114 1_555 1_555
H138 C115 1_555 1_555
H139 C115 1_555 1_555
C116 C115 1_555 1_555
H140 C116 1_555 1_555
H141 C116 1_555 1_555
C117 C1 1_555 1_555
H142 C117 1_555 1_555
H143 C117 1_555 1_555
C118 H144 1_555 1_555
H145 C118 1_555 1_555
H146 C118 1_555 1_555
C119 C118 1_555 1_555
H147 C119 1_555 1_555
H148 C119 1_555 1_555
C120 C119 1_555 1_555
H149 C120 1_555 1_555
H150 C120 1_555 1_555
C121 C120 1_555 1_555
H151 C121 1_555 1_555
H152 C121 1_555 1_555
C122 C121 1_555 1_555
H153 C122 1_555 1_555
H154 C122 1_555 1_555
C123 C13 1_555 1_555
H155 C123 1_555 1_555
H156 C123 1_555 1_555
C124 H157 1_555 1_555
H158 C124 1_555 1_555
H159 C124 1_555 1_555
C125 C105 1_555 1_555
H160 C125 1_555 1_555
H161 C125 1_555 1_555
C126 H162 1_555 1_555
H163 C126 1_555 1_555
H164 C126 1_555 1_555
C127 C126 1_555 1_555
H165 C127 1_555 1_555
H166 C127 1_555 1_555
C128 C109 1_555 1_555
H167 C128 1_555 1_555
H168 C128 1_555 1_555
Cl1 C134 1_555 1_555
Cl2 C139 1_555 1_555
C134 H185 1_555 1_555
C135 C134 1_555 1_555
H186 C135 1_555 1_555
H187 C135 1_555 1_555
C136 C135 1_555 1_555
H188 C136 1_555 1_555
H189 C136 1_555 1_555
C137 C136 1_555 1_555
H190 C137 1_555 1_555
H191 C137 1_555 1_555
C138 C137 1_555 1_555
H192 C138 1_555 1_555
H193 C138 1_555 1_555
C139 C134 1_555 1_555
H194 C139 1_555 1_555
N1 C147 1_555 1_555
C146 H205 1_555 1_555
H206 C146 1_555 1_555
H207 C146 1_555 1_555
C147 C146 1_555 1_555
O8 C32 1_555 1_555
C4 C29 1_555 1_555
C8 C25 1_555 1_555
C12 C21 1_555 1_555
C15 C16 1_555 1_555
C18 C19 1_555 1_555
C22 C23 1_555 1_555
C26 C27 1_555 1_555
C30 C31 1_555 1_555
C36 C37 1_555 1_555
C47 C48 1_555 1_555
C65 C66 1_555 1_555
C83 C84 1_555 1_555
C101 C102 1_555 1_555
C107 C108 1_555 1_555
C110 C111 1_555 1_555
C116 C117 1_555 1_555
C122 C123 1_555 1_555
C124 C125 1_555 1_555
C127 C128 1_555 1_555
C138 C139 1_555 1_555

#END
