
#######################################################################
#
#                 Cambridge Crystallographic Data Centre
#                                CCDC 
#
#######################################################################
#
# If this CIF has been generated from an entry in the Cambridge 
# Structural Database, then it will include bibliographic, chemical, 
# crystal, experimental, refinement or atomic coordinate data resulting 
# from the CCDC's data processing and validation procedures.
#
#######################################################################

data_MEDYAX
_chemical_formula_moiety         'C20 H16 N2 S1'
_chemical_name_systematic        
5-(4-(2-(Methylsulfanyl)phenyl)but-1-en-3-yn-1-yl)-3-phenyl-1H-pyrazole
_symmetry_cell_setting           monoclinic
_symmetry_space_group_name_H-M   'C 2/c'
_symmetry_Int_Tables_number      15
_space_group_name_Hall           '-C 2yn'
loop_
_symmetry_equiv_pos_site_id
_symmetry_equiv_pos_as_xyz
1 x,y,z
2 -x,y,1/2-z
3 1/2+x,1/2+y,z
4 1/2-x,1/2+y,1/2-z
5 -x,-y,-z
6 x,-y,1/2+z
7 1/2-x,1/2-y,-z
8 1/2+x,1/2-y,1/2+z
_cell_length_a                   26.0310(9)
_cell_length_b                   5.2668(2)
_cell_length_c                   25.4350(11)
_cell_angle_alpha                90
_cell_angle_beta                 114.261(2)
_cell_angle_gamma                90
_cell_volume                     3179.17
_exptl_crystal_colour            brown
_exptl_crystal_description       prism
_cell_formula_units_Z            8
loop_
_atom_site_label
_atom_site_type_symbol
_atom_site_fract_x
_atom_site_fract_y
_atom_site_fract_z
S1 S 0.34126(4) -0.0336(2) 0.25612(4)
N1 N 0.24880(13) 0.5197(6) 0.03905(13)
N2 N 0.29622(14) 0.6605(6) 0.05905(13)
H1 H 0.3024 0.7914 0.0409
C1 C 0.30494(18) -0.3013(8) 0.26739(18)
H2 H 0.2679 -0.3167 0.2350
H3 H 0.3000 -0.2785 0.3033
H4 H 0.3269 -0.4556 0.2700
C2 C 0.40572(16) -0.0327(7) 0.31711(15)
C3 C 0.41865(18) -0.1931(8) 0.36400(17)
H5 H 0.3920 -0.3162 0.3639
C4 C 0.47009(18) -0.1754(8) 0.41088(17)
H6 H 0.4783 -0.2857 0.4429
C5 C 0.50960(17) 0.0007(8) 0.41167(17)
H7 H 0.5449 0.0106 0.4440
C6 C 0.49795(17) 0.1616(8) 0.36573(17)
H8 H 0.5252 0.2838 0.3668
C7 C 0.44605(16) 0.1480(7) 0.31700(16)
C8 C 0.43524(16) 0.3167(8) 0.26934(17)
C9 C 0.42888(15) 0.4622(8) 0.23127(16)
C10 C 0.42797(17) 0.6487(8) 0.19033(16)
H9 H 0.4608 0.7509 0.2011
C11 C 0.38652(17) 0.6980(8) 0.13847(16)
H10 H 0.3935 0.8328 0.1175
C12 C 0.33281(16) 0.5732(8) 0.11053(15)
C13 C 0.30771(16) 0.3651(7) 0.12442(16)
H11 H 0.3233 0.2625 0.1580
C14 C 0.25507(16) 0.3387(7) 0.07882(15)
C15 C 0.20886(16) 0.1584(7) 0.06985(16)
C16 C 0.21564(17) -0.0351(7) 0.10950(16)
H12 H 0.2506 -0.0525 0.1421
C17 C 0.17203(18) -0.2027(8) 0.10199(17)
H13 H 0.1770 -0.3321 0.1297
C18 C 0.12122(18) -0.1815(8) 0.05417(17)
H14 H 0.0913 -0.2958 0.0491
C19 C 0.11429(18) 0.0052(8) 0.01424(18)
H15 H 0.0797 0.0179 -0.0189
C20 C 0.15738(18) 0.1758(8) 0.02172(17)
H16 H 0.1519 0.3053 -0.0061
loop_
_geom_bond_atom_site_label_1
_geom_bond_atom_site_label_2
_geom_bond_site_symmetry_1
_geom_bond_site_symmetry_2
S1 C1 1_555 1_555
N1 N2 1_555 1_555
N2 H1 1_555 1_555
C1 H2 1_555 1_555
H3 C1 1_555 1_555
H4 C1 1_555 1_555
C2 S1 1_555 1_555
C3 C2 1_555 1_555
H5 C3 1_555 1_555
C4 C3 1_555 1_555
H6 C4 1_555 1_555
C5 C4 1_555 1_555
H7 C5 1_555 1_555
C6 C5 1_555 1_555
H8 C6 1_555 1_555
C7 C2 1_555 1_555
C8 C7 1_555 1_555
C9 C8 1_555 1_555
C10 C9 1_555 1_555
H9 C10 1_555 1_555
C11 C10 1_555 1_555
H10 C11 1_555 1_555
C12 N2 1_555 1_555
C13 C12 1_555 1_555
H11 C13 1_555 1_555
C14 N1 1_555 1_555
C15 C14 1_555 1_555
C16 C15 1_555 1_555
H12 C16 1_555 1_555
C17 C16 1_555 1_555
H13 C17 1_555 1_555
C18 C17 1_555 1_555
H14 C18 1_555 1_555
C19 C18 1_555 1_555
H15 C19 1_555 1_555
C20 C15 1_555 1_555
H16 C20 1_555 1_555
C6 C7 1_555 1_555
C11 C12 1_555 1_555
C13 C14 1_555 1_555
C19 C20 1_555 1_555

#END
