
#######################################################################
#
#                 Cambridge Crystallographic Data Centre
#                                CCDC 
#
#######################################################################
#
# If this CIF has been generated from an entry in the Cambridge 
# Structural Database, then it will include bibliographic, chemical, 
# crystal, experimental, refinement or atomic coordinate data resulting 
# from the CCDC's data processing and validation procedures.
#
#######################################################################

data_MEFFUA
_chemical_formula_moiety         'C50 H54 N2'
_chemical_name_systematic        
4,8-bis(9,9-dibutyl-9H-fluoren-2-yl)-1,5-naphthyridine
_symmetry_cell_setting           monoclinic
_symmetry_space_group_name_H-M   'P 21/n'
_symmetry_Int_Tables_number      14
_space_group_name_Hall           '-P 2yn'
loop_
_symmetry_equiv_pos_site_id
_symmetry_equiv_pos_as_xyz
1 x,y,z
2 1/2-x,1/2+y,1/2-z
3 -x,-y,-z
4 1/2+x,1/2-y,1/2+z
_cell_length_a                   8.9420(18)
_cell_length_b                   10.249(2)
_cell_length_c                   21.626(4)
_cell_angle_alpha                90
_cell_angle_beta                 96.87(3)
_cell_angle_gamma                90
_cell_volume                     1967.72
_exptl_crystal_colour            colorless
_exptl_crystal_description       block
_chemical_melting_point          '459 K'
_cell_formula_units_Z            2
loop_
_atom_site_label
_atom_site_type_symbol
_atom_site_fract_x
_atom_site_fract_y
_atom_site_fract_z
N1 N 0.3947(3) 0.6539(3) 0.48441(14)
C1 C 0.8967(5) 0.5767(5) 0.8665(2)
H1 H 0.8480 0.5685 0.9035
H2 H 0.8417 0.6371 0.8384
H3 H 0.9976 0.6081 0.8773
C2 C 0.9013(5) 0.4461(5) 0.8356(2)
H4 H 0.7988 0.4147 0.8257
H5 H 0.9539 0.3853 0.8649
C3 C 0.9767(4) 0.4457(4) 0.77662(17)
H6 H 0.9255 0.5078 0.7475
H7 H 1.0799 0.4749 0.7865
C4 C 0.9769(4) 0.3141(4) 0.74545(18)
H8 H 0.8731 0.2885 0.7334
H9 H 1.0205 0.2514 0.7760
C5 C 1.0610(3) 0.3033(3) 0.68788(16)
C6 C 1.0470(4) 0.1622(3) 0.66307(18)
H10 H 1.0897 0.1042 0.6960
H11 H 0.9407 0.1414 0.6544
C7 C 1.1209(4) 0.1326(4) 0.60525(18)
H12 H 1.0646 0.1757 0.5699
H13 H 1.2220 0.1684 0.6103
C8 C 1.1294(5) -0.0108(4) 0.5916(2)
H14 H 1.0284 -0.0469 0.5866
H15 H 1.1860 -0.0540 0.6269
C9 C 1.2030(5) -0.0391(4) 0.5337(2)
H16 H 1.2055 -0.1317 0.5271
H17 H 1.3039 -0.0055 0.5387
H18 H 1.1462 0.0018 0.4984
C10 C 1.2268(4) 0.3393(3) 0.70177(17)
C11 C 1.3354(4) 0.2821(4) 0.74424(19)
H19 H 1.3102 0.2144 0.7697
C12 C 1.4835(5) 0.3278(4) 0.7482(2)
H20 H 1.5570 0.2910 0.7771
C13 C 1.5217(4) 0.4262(5) 0.7102(2)
H21 H 1.6213 0.4539 0.7130
C14 C 1.4149(4) 0.4848(4) 0.66771(19)
H22 H 1.4413 0.5516 0.6420
C15 C 1.2650(4) 0.4410(3) 0.66440(16)
C16 C 1.1278(4) 0.4844(3) 0.62544(16)
C17 C 1.1039(4) 0.5844(3) 0.58295(16)
H23 H 1.1839 0.6355 0.5734
C18 C 0.9613(4) 0.6076(3) 0.55504(16)
H24 H 0.9450 0.6767 0.5271
C19 C 0.8380(4) 0.5300(3) 0.56727(16)
C20 C 0.8645(4) 0.4259(4) 0.60944(16)
H25 H 0.7856 0.3719 0.6175
C21 C 1.0085(3) 0.4040(3) 0.63889(15)
C22 C 0.6853(4) 0.5671(3) 0.53784(15)
C23 C 0.6457(4) 0.6954(4) 0.53336(17)
H26 H 0.7159 0.7585 0.5480
C24 C 0.5025(4) 0.7342(4) 0.50733(18)
H27 H 0.4815 0.8231 0.5060
C25 C 0.4290(3) 0.5247(3) 0.48670(14)
N1B N 0.6053(3) 0.3461(3) 0.51559(14)
C1B C 0.1033(5) 0.4233(5) 0.1335(2)
H1B H 0.1520 0.4315 0.0965
H2B H 0.1583 0.3629 0.1616
H3B H 0.0024 0.3919 0.1227
C2B C 0.0987(5) 0.5539(5) 0.1644(2)
H4B H 0.2012 0.5853 0.1743
H5B H 0.0461 0.6147 0.1351
C3B C 0.0233(4) 0.5543(4) 0.22338(17)
H6B H 0.0745 0.4922 0.2525
H7B H -0.0799 0.5251 0.2135
C4B C 0.0231(4) 0.6859(4) 0.25455(18)
H8B H 0.1269 0.7115 0.2666
H9B H -0.0205 0.7486 0.2240
C5B C -0.0610(3) 0.6967(3) 0.31212(16)
C6B C -0.0470(4) 0.8378(3) 0.33693(18)
H10B H -0.0897 0.8958 0.3040
H11B H 0.0593 0.8586 0.3456
C7B C -0.1209(4) 0.8674(4) 0.39475(18)
H12B H -0.0646 0.8243 0.4301
H13B H -0.2220 0.8316 0.3897
C8B C -0.1294(5) 1.0108(4) 0.4084(2)
H14B H -0.0284 1.0469 0.4134
H15B H -0.1860 1.0540 0.3731
C9B C -0.2030(5) 1.0391(4) 0.4663(2)
H16B H -0.2055 1.1317 0.4729
H17B H -0.3039 1.0055 0.4613
H18B H -0.1462 0.9982 0.5016
C10B C -0.2268(4) 0.6607(3) 0.29823(17)
C11B C -0.3354(4) 0.7179(4) 0.25576(19)
H19B H -0.3102 0.7856 0.2303
C12B C -0.4835(5) 0.6722(4) 0.2518(2)
H20B H -0.5570 0.7090 0.2229
C13B C -0.5217(4) 0.5738(5) 0.2898(2)
H21B H -0.6213 0.5461 0.2870
C14B C -0.4149(4) 0.5152(4) 0.33229(19)
H22B H -0.4413 0.4484 0.3580
C15B C -0.2650(4) 0.5590(3) 0.33560(16)
C16B C -0.1278(4) 0.5156(3) 0.37456(16)
C17B C -0.1039(4) 0.4156(3) 0.41705(16)
H23B H -0.1839 0.3645 0.4266
C18B C 0.0387(4) 0.3924(3) 0.44496(16)
H24B H 0.0550 0.3233 0.4729
C19B C 0.1620(4) 0.4700(3) 0.43273(16)
C20B C 0.1355(4) 0.5741(4) 0.39056(16)
H25B H 0.2144 0.6281 0.3825
C21B C -0.0085(3) 0.5960(3) 0.36111(15)
C22B C 0.3147(4) 0.4329(3) 0.46216(15)
C23B C 0.3543(4) 0.3046(4) 0.46664(17)
H26B H 0.2841 0.2415 0.4520
C24B C 0.4975(4) 0.2658(4) 0.49267(18)
H27B H 0.5185 0.1769 0.4940
C25B C 0.5710(3) 0.4753(3) 0.51330(14)
loop_
_geom_bond_atom_site_label_1
_geom_bond_atom_site_label_2
_geom_bond_site_symmetry_1
_geom_bond_site_symmetry_2
N1 C24 1_555 1_555
C1 H1 1_555 1_555
H2 C1 1_555 1_555
H3 C1 1_555 1_555
C2 C1 1_555 1_555
H4 C2 1_555 1_555
H5 C2 1_555 1_555
C3 C2 1_555 1_555
H6 C3 1_555 1_555
H7 C3 1_555 1_555
C4 C3 1_555 1_555
H8 C4 1_555 1_555
H9 C4 1_555 1_555
C5 C4 1_555 1_555
C6 C5 1_555 1_555
H10 C6 1_555 1_555
H11 C6 1_555 1_555
C7 C6 1_555 1_555
H12 C7 1_555 1_555
H13 C7 1_555 1_555
C8 C7 1_555 1_555
H14 C8 1_555 1_555
H15 C8 1_555 1_555
C9 C8 1_555 1_555
H16 C9 1_555 1_555
H17 C9 1_555 1_555
H18 C9 1_555 1_555
C10 C5 1_555 1_555
C11 C10 1_555 1_555
H19 C11 1_555 1_555
C12 C11 1_555 1_555
H20 C12 1_555 1_555
C13 C12 1_555 1_555
H21 C13 1_555 1_555
C14 C13 1_555 1_555
H22 C14 1_555 1_555
C15 C10 1_555 1_555
C16 C15 1_555 1_555
C17 C16 1_555 1_555
H23 C17 1_555 1_555
C18 C17 1_555 1_555
H24 C18 1_555 1_555
C19 C18 1_555 1_555
C20 C19 1_555 1_555
H25 C20 1_555 1_555
C21 C5 1_555 1_555
C22 C19 1_555 1_555
C23 C22 1_555 1_555
H26 C23 1_555 1_555
C24 C23 1_555 1_555
H27 C24 1_555 1_555
C25 N1 1_555 1_555
N1B C24B 1_555 1_555
C1B H1B 1_555 1_555
H2B C1B 1_555 1_555
H3B C1B 1_555 1_555
C2B C1B 1_555 1_555
H4B C2B 1_555 1_555
H5B C2B 1_555 1_555
C3B C2B 1_555 1_555
H6B C3B 1_555 1_555
H7B C3B 1_555 1_555
C4B C3B 1_555 1_555
H8B C4B 1_555 1_555
H9B C4B 1_555 1_555
C5B C4B 1_555 1_555
C6B C5B 1_555 1_555
H10B C6B 1_555 1_555
H11B C6B 1_555 1_555
C7B C6B 1_555 1_555
H12B C7B 1_555 1_555
H13B C7B 1_555 1_555
C8B C7B 1_555 1_555
H14B C8B 1_555 1_555
H15B C8B 1_555 1_555
C9B C8B 1_555 1_555
H16B C9B 1_555 1_555
H17B C9B 1_555 1_555
H18B C9B 1_555 1_555
C10B C5B 1_555 1_555
C11B C10B 1_555 1_555
H19B C11B 1_555 1_555
C12B C11B 1_555 1_555
H20B C12B 1_555 1_555
C13B C12B 1_555 1_555
H21B C13B 1_555 1_555
C14B C13B 1_555 1_555
H22B C14B 1_555 1_555
C15B C10B 1_555 1_555
C16B C15B 1_555 1_555
C17B C16B 1_555 1_555
H23B C17B 1_555 1_555
C18B C17B 1_555 1_555
H24B C18B 1_555 1_555
C19B C18B 1_555 1_555
C20B C19B 1_555 1_555
H25B C20B 1_555 1_555
C21B C5B 1_555 1_555
C22B C25 1_555 1_555
C23B C22B 1_555 1_555
H26B C23B 1_555 1_555
C24B C23B 1_555 1_555
H27B C24B 1_555 1_555
C25B C22 1_555 1_555
C14 C15 1_555 1_555
C16 C21 1_555 1_555
C20 C21 1_555 1_555
C25 C25B 1_555 1_555
N1B C25B 1_555 1_555
C14B C15B 1_555 1_555
C16B C21B 1_555 1_555
C19B C22B 1_555 1_555
C20B C21B 1_555 1_555

#END
