
#######################################################################
#
#                 Cambridge Crystallographic Data Centre
#                                CCDC 
#
#######################################################################
#
# If this CIF has been generated from an entry in the Cambridge 
# Structural Database, then it will include bibliographic, chemical, 
# crystal, experimental, refinement or atomic coordinate data resulting 
# from the CCDC's data processing and validation procedures.
#
#######################################################################

data_MEGKOA
_chemical_formula_moiety         'C17 H25 N1 O2 S1'
_chemical_name_systematic        
3-Cyclohexyl-1-((4-methylphenyl)sulfonyl)pyrrolidine
_symmetry_cell_setting           monoclinic
_symmetry_space_group_name_H-M   'P 21'
_symmetry_Int_Tables_number      4
_space_group_name_Hall           'P 2yb'
loop_
_symmetry_equiv_pos_site_id
_symmetry_equiv_pos_as_xyz
1 x,y,z
2 -x,1/2+y,-z
_cell_length_a                   6.3826(2)
_cell_length_b                   17.8095(7)
_cell_length_c                   14.7575(5)
_cell_angle_alpha                90
_cell_angle_beta                 99.669(4)
_cell_angle_gamma                90
_cell_volume                     1653.67
_cell_formula_units_Z            4
loop_
_atom_site_label
_atom_site_type_symbol
_atom_site_fract_x
_atom_site_fract_y
_atom_site_fract_z
S1 S 0.50185(15) 0.35032(5) 0.87724(6)
O1 O 0.3761(4) 0.33010(15) 0.79092(15)
O2 O 0.7272(4) 0.35753(15) 0.88543(17)
N1 N 0.4113(5) 0.43069(16) 0.90566(19)
C3 C 0.2570(6) 0.2511(2) 0.9565(3)
H2 H 0.1473 0.2631 0.9088
C4 C 0.1803(6) 0.4449(2) 0.8863(3)
H3 H 0.1008 0.4005 0.8977
H4 H 0.1353 0.4609 0.8232
C5 C 0.3743(5) 0.55888(18) 1.1016(2)
H5 H 0.4090 0.6018 1.0653
C7 C 0.1512(6) 0.5074(2) 0.9532(2)
H7 H 0.0107 0.5052 0.9699
H8 H 0.1702 0.5562 0.9265
C8 C 0.2220(6) 0.2009(2) 1.0239(3)
H9 H 0.0878 0.1798 1.0212
C12 C 0.1847(6) 0.5815(2) 1.1469(3)
H15 H 0.0652 0.5936 1.0994
H16 H 0.1440 0.5391 1.1815
C14 C 0.4558(6) 0.28377(17) 0.9600(2)
C15 C 0.5100(6) 0.4669(2) 0.9925(3)
H18 H 0.5975 0.5091 0.9806
H19 H 0.5973 0.4314 1.0320
C17 C 0.5666(6) 0.54405(19) 1.1763(3)
H22 H 0.6894 0.5333 1.1477
H23 H 0.5391 0.5002 1.2115
C18 C 0.3429(7) 0.1274(2) 1.1692(3)
H24 H 0.3601 0.1531 1.2271
H25 H 0.4426 0.0867 1.1729
H26 H 0.2008 0.1080 1.1546
C20 C 0.3823(7) 0.1813(2) 1.0952(3)
C23 C 0.6163(6) 0.61124(19) 1.2413(2)
H31 H 0.7331 0.5985 1.2899
H32 H 0.6600 0.6536 1.2076
C24 C 0.4233(7) 0.6333(2) 1.2836(3)
H33 H 0.3908 0.5933 1.3236
H34 H 0.4561 0.6781 1.3207
C29 C 0.6178(6) 0.2639(2) 1.0311(3)
H41 H 0.7522 0.2849 1.0342
C30 C 0.3222(5) 0.49321(18) 1.0366(2)
H42 H 0.2763 0.4511 1.0714
C33 C 0.5808(7) 0.2138(2) 1.0965(3)
H48 H 0.6916 0.2010 1.1433
C34 C 0.2315(6) 0.6481(2) 1.2108(3)
H49 H 0.2572 0.6921 1.1756
H50 H 0.1092 0.6582 1.2401
S2 S -0.00415(16) 0.60715(5) 1.62021(7)
O3 O 0.1189(4) 0.62511(17) 1.70770(16)
O4 O -0.2299(4) 0.60078(16) 1.61017(17)
C1 C -0.0742(6) 0.7472(2) 1.4031(3)
H1 H -0.1840 0.7605 1.3561
C2 C 0.0476(6) 0.67529(19) 1.5396(2)
C6 C 0.1411(5) 0.41927(18) 1.3773(2)
H6 H 0.1749 0.4648 1.3453
N2 N 0.0829(5) 0.52806(17) 1.5887(2)
C9 C -0.1121(6) 0.6962(2) 1.4693(3)
H10 H -0.2472 0.6757 1.4663
C10 C -0.0790(6) 0.39349(19) 1.3317(2)
H11 H -0.1201 0.3502 1.3646
H12 H -0.1804 0.4333 1.3363
C11 C -0.0892(6) 0.3728(2) 1.2312(2)
H13 H -0.0618 0.4171 1.1967
H14 H -0.2306 0.3548 1.2064
C13 C 0.2473(6) 0.7058(2) 1.5435(3)
H17 H 0.3566 0.6924 1.5907
C16 C -0.0074(7) 0.4981(2) 1.4976(3)
H20 H -0.0226 0.5375 1.4516
H21 H -0.1455 0.4756 1.4984
C19 C 0.3042(6) 0.3599(2) 1.3632(2)
H27 H 0.4454 0.3788 1.3868
H28 H 0.2813 0.3155 1.3984
C21 C 0.3614(6) 0.4729(2) 1.5253(2)
H29 H 0.4689 0.4342 1.5394
H30 H 0.4121 0.5104 1.4865
C22 C 0.1251(7) 0.7785(2) 1.4062(3)
C25 C 0.0742(6) 0.3121(2) 1.2200(3)
H35 H 0.0394 0.2661 1.2494
H36 H 0.0710 0.3018 1.1553
C26 C 0.2844(6) 0.7563(2) 1.4772(3)
H37 H 0.4202 0.7760 1.4800
C27 C 0.1520(5) 0.43926(19) 1.4779(2)
H38 H 0.1263 0.3933 1.5109
C28 C 0.3121(7) 0.5080(2) 1.6120(2)
H39 H 0.3366 0.4727 1.6627
H40 H 0.3986 0.5523 1.6283
C31 C 0.2935(6) 0.3381(2) 1.2630(3)
H43 H 0.3333 0.3809 1.2290
H44 H 0.3947 0.2981 1.2588
C32 C 0.1659(7) 0.8345(2) 1.3352(3)
H45 H 0.0477 0.8350 1.2855
H46 H 0.2926 0.8207 1.3122
H47 H 0.1836 0.8835 1.3624
loop_
_geom_bond_atom_site_label_1
_geom_bond_atom_site_label_2
_geom_bond_site_symmetry_1
_geom_bond_site_symmetry_2
S1 O1 1_555 1_555
S2 O3 1_555 1_555
O2 S1 1_555 1_555
N1 S1 1_555 1_555
O4 S2 1_555 1_555
C1 H1 1_555 1_555
C2 S2 1_555 1_555
C3 H2 1_555 1_555
C4 N1 1_555 1_555
H3 C4 1_555 1_555
H4 C4 1_555 1_555
C5 H5 1_555 1_555
C6 H6 1_555 1_555
C7 C4 1_555 1_555
H7 C7 1_555 1_555
H8 C7 1_555 1_555
C8 C3 1_555 1_555
H9 C8 1_555 1_555
N2 S2 1_555 1_555
C9 C1 1_555 1_555
H10 C9 1_555 1_555
C10 C6 1_555 1_555
H11 C10 1_555 1_555
H12 C10 1_555 1_555
C11 C10 1_555 1_555
H13 C11 1_555 1_555
H14 C11 1_555 1_555
C12 C5 1_555 1_555
H15 C12 1_555 1_555
H16 C12 1_555 1_555
C13 C2 1_555 1_555
H17 C13 1_555 1_555
C14 S1 1_555 1_555
C15 N1 1_555 1_555
H18 C15 1_555 1_555
H19 C15 1_555 1_555
C16 N2 1_555 1_555
H20 C16 1_555 1_555
H21 C16 1_555 1_555
C17 C5 1_555 1_555
H22 C17 1_555 1_555
H23 C17 1_555 1_555
C18 H24 1_555 1_555
H25 C18 1_555 1_555
H26 C18 1_555 1_555
C19 C6 1_555 1_555
H27 C19 1_555 1_555
H28 C19 1_555 1_555
C20 C8 1_555 1_555
C21 H29 1_555 1_555
H30 C21 1_555 1_555
C22 C1 1_555 1_555
C23 C17 1_555 1_555
H31 C23 1_555 1_555
H32 C23 1_555 1_555
C24 C23 1_555 1_555
H33 C24 1_555 1_555
H34 C24 1_555 1_555
C25 C11 1_555 1_555
H35 C25 1_555 1_555
H36 C25 1_555 1_555
C26 C13 1_555 1_555
H37 C26 1_555 1_555
C27 C6 1_555 1_555
H38 C27 1_555 1_555
C28 N2 1_555 1_555
H39 C28 1_555 1_555
H40 C28 1_555 1_555
C29 C14 1_555 1_555
H41 C29 1_555 1_555
C30 C5 1_555 1_555
H42 C30 1_555 1_555
C31 C19 1_555 1_555
H43 C31 1_555 1_555
H44 C31 1_555 1_555
C32 C22 1_555 1_555
H45 C32 1_555 1_555
H46 C32 1_555 1_555
H47 C32 1_555 1_555
C33 C20 1_555 1_555
H48 C33 1_555 1_555
C34 C12 1_555 1_555
H49 C34 1_555 1_555
H50 C34 1_555 1_555
C2 C9 1_555 1_555
C3 C14 1_555 1_555
C7 C30 1_555 1_555
C15 C30 1_555 1_555
C16 C27 1_555 1_555
C18 C20 1_555 1_555
C21 C27 1_555 1_555
C21 C28 1_555 1_555
C22 C26 1_555 1_555
C24 C34 1_555 1_555
C25 C31 1_555 1_555
C29 C33 1_555 1_555

#END
