
#######################################################################
#
#                 Cambridge Crystallographic Data Centre
#                                CCDC 
#
#######################################################################
#
# If this CIF has been generated from an entry in the Cambridge 
# Structural Database, then it will include bibliographic, chemical, 
# crystal, experimental, refinement or atomic coordinate data resulting 
# from the CCDC's data processing and validation procedures.
#
#######################################################################

data_MEGKUG
_chemical_formula_moiety         'C28 H33 N1 O3 S1'
_chemical_name_systematic        
N-(4-((2-Cyclohexylpropoxy)methyl)phenyl)biphenyl-4-sulfonamide
_symmetry_cell_setting           monoclinic
_symmetry_space_group_name_H-M   'P 21'
_symmetry_Int_Tables_number      4
_space_group_name_Hall           'P 2yb'
loop_
_symmetry_equiv_pos_site_id
_symmetry_equiv_pos_as_xyz
1 x,y,z
2 -x,1/2+y,-z
_cell_length_a                   5.9312(2)
_cell_length_b                   8.3499(5)
_cell_length_c                   25.2556(13)
_cell_angle_alpha                90
_cell_angle_beta                 96.592(4)
_cell_angle_gamma                90
_cell_volume                     1242.51
_cell_formula_units_Z            2
loop_
_atom_site_label
_atom_site_type_symbol
_atom_site_fract_x
_atom_site_fract_y
_atom_site_fract_z
S1 S 0.24959(12) 0.72719(10) 0.69451(3)
N1 N 0.0927(5) 0.6669(3) 0.73914(11)
H1 H 0.0539 0.7385 0.7608
O1 O -0.0619(4) -0.0666(3) 0.80414(10)
C1 C -0.1765(4) 0.7348(4) 0.53226(11)
C2 C 0.1871(5) -0.2928(5) 0.88438(12)
H2 H 0.0718 -0.3266 0.8556
C3 C 0.0766(4) 0.7257(4) 0.63285(11)
C4 C -0.2363(6) 0.0422(5) 0.78290(18)
H3 H -0.3455 0.0535 0.8084
H4 H -0.3149 -0.0036 0.7506
C5 C 0.0122(5) 0.5097(4) 0.74644(12)
O2 O 0.2992(4) 0.8909(3) 0.70839(11)
C6 C -0.3111(5) 0.7412(4) 0.47895(11)
C7 C 0.0221(6) 0.6456(5) 0.54176(14)
H5 H 0.0712 0.5870 0.5139
C8 C -0.1509(5) 0.2054(4) 0.77025(13)
C9 C -0.5129(6) 0.8251(6) 0.47003(14)
H6 H -0.5673 0.8789 0.4982
O3 O 0.4317(4) 0.6183(3) 0.69053(10)
C10 C -0.1158(6) 0.8142(6) 0.62494(13)
H7 H -0.1642 0.8715 0.6531
C11 C -0.1810(5) 0.4928(4) 0.77201(14)
H8 H -0.2605 0.5830 0.7809
C12 C 0.2545(6) -0.1220(5) 0.87083(15)
H9 H 0.3428 -0.1296 0.8404
C13 C -0.2556(5) 0.3423(5) 0.78425(15)
H10 H -0.3819 0.3336 0.8027
C14 C 0.0539(6) -0.0132(4) 0.85399(14)
H11 H -0.0497 -0.0142 0.8810
H12 H 0.1067 0.0958 0.8504
C15 C 0.0386(6) 0.2236(5) 0.74317(14)
H13 H 0.1125 0.1328 0.7326
C16 C 0.3141(8) -0.5797(5) 0.8947(2)
H14 H 0.2094 -0.6176 0.8650
H15 H 0.4480 -0.6472 0.8971
C17 C 0.4061(7) -0.0400(5) 0.91601(19)
H16 H 0.4613 0.0594 0.9034
H17 H 0.5321 -0.1084 0.9277
H18 H 0.3199 -0.0195 0.9452
C18 C -0.2401(6) 0.8201(5) 0.57558(14)
H19 H -0.3705 0.8827 0.5710
C19 C -0.6358(7) 0.8306(6) 0.41996(17)
H20 H -0.7702 0.8888 0.4150
C20 C 0.0105(9) -0.4801(7) 0.9452(2)
H21 H -0.0500 -0.4865 0.9792
H22 H -0.1091 -0.5110 0.9177
C21 C -0.3695(8) 0.6677(5) 0.38587(15)
H23 H -0.3198 0.6119 0.3575
C22 C -0.2420(7) 0.6621(5) 0.43545(15)
H24 H -0.1073 0.6040 0.4395
C23 C 0.1475(6) 0.6414(5) 0.59069(15)
H25 H 0.2806 0.5816 0.5956
C24 C 0.0796(8) -0.3089(6) 0.93573(19)
H26 H 0.1865 -0.2735 0.9654
H27 H -0.0531 -0.2404 0.9341
C25 C 0.3822(7) -0.4076(6) 0.8838(2)
H28 H 0.5040 -0.3752 0.9106
H29 H 0.4390 -0.4026 0.8493
C26 C 0.1199(6) 0.3728(4) 0.73167(15)
H30 H 0.2481 0.3813 0.7138
C27 C 0.2044(8) -0.5956(6) 0.94521(19)
H31 H 0.1491 -0.7042 0.9483
H32 H 0.3157 -0.5745 0.9756
C28 C -0.5626(6) 0.7519(5) 0.37796(14)
H33 H -0.6451 0.7565 0.3444
loop_
_geom_bond_atom_site_label_1
_geom_bond_atom_site_label_2
_geom_bond_site_symmetry_1
_geom_bond_site_symmetry_2
S1 N1 1_555 1_555
N1 H1 1_555 1_555
O1 C4 1_555 1_555
C1 C6 1_555 1_555
C2 H2 1_555 1_555
C3 S1 1_555 1_555
C4 H3 1_555 1_555
H4 C4 1_555 1_555
C5 N1 1_555 1_555
O2 S1 1_555 1_555
C6 C9 1_555 1_555
C7 C1 1_555 1_555
H5 C7 1_555 1_555
C8 C4 1_555 1_555
C9 H6 1_555 1_555
O3 S1 1_555 1_555
C10 C3 1_555 1_555
H7 C10 1_555 1_555
C11 C5 1_555 1_555
H8 C11 1_555 1_555
C12 C2 1_555 1_555
H9 C12 1_555 1_555
C13 C8 1_555 1_555
H10 C13 1_555 1_555
C14 O1 1_555 1_555
H11 C14 1_555 1_555
H12 C14 1_555 1_555
C15 C8 1_555 1_555
H13 C15 1_555 1_555
C16 H14 1_555 1_555
H15 C16 1_555 1_555
C17 C12 1_555 1_555
H16 C17 1_555 1_555
H17 C17 1_555 1_555
H18 C17 1_555 1_555
C18 C1 1_555 1_555
H19 C18 1_555 1_555
C19 C9 1_555 1_555
H20 C19 1_555 1_555
C20 H21 1_555 1_555
H22 C20 1_555 1_555
C21 H23 1_555 1_555
C22 C6 1_555 1_555
H24 C22 1_555 1_555
C23 C3 1_555 1_555
H25 C23 1_555 1_555
C24 C2 1_555 1_555
H26 C24 1_555 1_555
H27 C24 1_555 1_555
C25 C2 1_555 1_555
H28 C25 1_555 1_555
H29 C25 1_555 1_555
C26 C5 1_555 1_555
H30 C26 1_555 1_555
C27 C16 1_555 1_555
H31 C27 1_555 1_555
H32 C27 1_555 1_555
C28 C19 1_555 1_555
H33 C28 1_555 1_555
C7 C23 1_555 1_555
C10 C18 1_555 1_555
C11 C13 1_555 1_555
C12 C14 1_555 1_555
C15 C26 1_555 1_555
C16 C25 1_555 1_555
C20 C24 1_555 1_555
C20 C27 1_555 1_555
C21 C22 1_555 1_555
C21 C28 1_555 1_555

#END
