
#######################################################################
#
#                 Cambridge Crystallographic Data Centre
#                                CCDC 
#
#######################################################################
#
# If this CIF has been generated from an entry in the Cambridge 
# Structural Database, then it will include bibliographic, chemical, 
# crystal, experimental, refinement or atomic coordinate data resulting 
# from the CCDC's data processing and validation procedures.
#
#######################################################################

data_MEGLER
_chemical_formula_moiety         'C31 H27 Br1 N2 O1'
_chemical_name_systematic        
N'-((6'-Bromo-2'-hydroxy-3'-phenyl-1,1'-binaphthalen-2-yl)methyl)-N,N-dimethylethanimidamide
_symmetry_cell_setting           monoclinic
_symmetry_space_group_name_H-M   'I 2'
_symmetry_Int_Tables_number      5
_space_group_name_Hall           'I 2y'
loop_
_symmetry_equiv_pos_site_id
_symmetry_equiv_pos_as_xyz
1 x,y,z
2 -x,y,-z
3 1/2+x,1/2+y,1/2+z
4 1/2-x,1/2+y,1/2-z
_cell_length_a                   25.396(6)
_cell_length_b                   7.751(2)
_cell_length_c                   27.382(7)
_cell_angle_alpha                90
_cell_angle_beta                 111.766(4)
_cell_angle_gamma                90
_cell_volume                     5005.72
_exptl_crystal_colour            yellow
_exptl_crystal_description       prisms
_cell_formula_units_Z            8
loop_
_atom_site_label
_atom_site_type_symbol
_atom_site_fract_x
_atom_site_fract_y
_atom_site_fract_z
C1 C 0.4251(3) 0.6264(8) 0.3497(2)
C2 C 0.4820(3) 0.6755(9) 0.3775(2)
C3 C 0.5117(3) 0.6473(9) 0.4322(2)
H1 H 0.4925 0.5933 0.4520
C4 C 0.5673(3) 0.6955(9) 0.4574(3)
H2 H 0.5864 0.6736 0.4939
C5 C 0.5958(3) 0.7781(9) 0.4282(3)
C6 C 0.5707(3) 0.8103(9) 0.3764(2)
H3 H 0.5910 0.8664 0.3579
C7 C 0.5130(3) 0.7590(9) 0.3495(2)
C8 C 0.4843(3) 0.7905(9) 0.2950(2)
H4 H 0.5043 0.8469 0.2764
C9 C 0.4288(3) 0.7431(8) 0.2678(2)
C10 C 0.3963(3) 0.6610(8) 0.2954(2)
C11 C 0.4014(3) 0.7887(9) 0.2110(2)
C12 C 0.4352(3) 0.7916(10) 0.1791(3)
H5 H 0.4739 0.7574 0.1934
C13 C 0.4106(4) 0.8457(11) 0.1261(3)
H6 H 0.4335 0.8532 0.1055
C14 C 0.3547(4) 0.8872(12) 0.1042(3)
H7 H 0.3382 0.9194 0.0682
C15 C 0.3217(3) 0.8819(10) 0.1353(3)
H8 H 0.2828 0.9137 0.1206
C16 C 0.3450(3) 0.8311(10) 0.1867(3)
H9 H 0.3212 0.8249 0.2066
C17 C 0.3927(2) 0.5411(8) 0.3805(2)
C18 C 0.3495(2) 0.6238(9) 0.3897(2)
C19 C 0.3222(3) 0.5466(10) 0.4214(2)
H10 H 0.2924 0.6058 0.4273
C20 C 0.3391(3) 0.3866(10) 0.4432(3)
H11 H 0.3213 0.3368 0.4648
C21 C 0.3822(3) 0.2964(10) 0.4339(2)
C22 C 0.3985(3) 0.1271(10) 0.4565(3)
H12 H 0.3814 0.0773 0.4787
C23 C 0.4388(3) 0.0417(10) 0.4450(3)
H13 H 0.4489 -0.0708 0.4592
C24 C 0.4672(3) 0.1093(10) 0.4130(3)
H14 H 0.4956 0.0450 0.4061
C25 C 0.4515(3) 0.2754(10) 0.3920(3)
H15 H 0.4696 0.3246 0.3706
C26 C 0.4091(3) 0.3704(10) 0.4021(3)
C27 C 0.3257(3) 0.7966(9) 0.3644(3)
H16 H 0.3119 0.8634 0.3881
H17 H 0.3558 0.8643 0.3584
C28 C 0.2237(3) 0.7783(9) 0.3054(3)
C29 C 0.2029(3) 0.8531(12) 0.3453(3)
H18 H 0.2344 0.9106 0.3729
H19 H 0.1880 0.7607 0.3608
H20 H 0.1729 0.9371 0.3282
C30 C 0.2043(4) 0.6898(12) 0.2145(3)
H21 H 0.2146 0.7990 0.2023
H22 H 0.1737 0.6345 0.1855
H23 H 0.2374 0.6134 0.2266
C31 C 0.1240(3) 0.7293(11) 0.2486(3)
H24 H 0.1182 0.7077 0.2816
H25 H 0.1042 0.6407 0.2228
H26 H 0.1089 0.8433 0.2350
Br1 Br 0.67401(3) 0.84152(9) 0.46491(3)
N1 N 0.2784(2) 0.7652(7) 0.3137(2)
N2 N 0.1849(3) 0.7236(8) 0.2584(2)
O1 O 0.34407(17) 0.6142(6) 0.27037(16)
H53 H 0.3230 0.6651 0.2832
C32 C 0.5771(3) 0.1874(8) 0.1502(2)
C33 C 0.6046(3) 0.2169(8) 0.2043(2)
C34 C 0.5719(3) 0.2917(9) 0.2338(2)
C35 C 0.5161(3) 0.3370(8) 0.2074(2)
H27 H 0.4956 0.3865 0.2268
C36 C 0.4877(3) 0.3127(9) 0.1522(2)
C37 C 0.4310(3) 0.3665(9) 0.1259(3)
H28 H 0.4111 0.4214 0.1449
C38 C 0.4048(3) 0.3392(10) 0.0729(3)
C39 C 0.4332(3) 0.2639(9) 0.0436(2)
H29 H 0.4146 0.2474 0.0068
C40 C 0.4886(3) 0.2136(8) 0.0688(2)
H30 H 0.5075 0.1598 0.0488
C41 C 0.5185(3) 0.2383(8) 0.1230(2)
C42 C 0.5987(3) 0.3146(8) 0.2914(2)
C43 C 0.6530(3) 0.3834(9) 0.3150(3)
H31 H 0.6740 0.4127 0.2939
C44 C 0.6769(4) 0.4099(10) 0.3695(3)
H32 H 0.7135 0.4603 0.3848
C45 C 0.6472(4) 0.3627(11) 0.4010(3)
H33 H 0.6641 0.3772 0.4380
C46 C 0.5930(3) 0.2944(10) 0.3785(3)
H34 H 0.5723 0.2655 0.4000
C47 C 0.5690(3) 0.2685(10) 0.3248(3)
H35 H 0.5322 0.2192 0.3099
C48 C 0.6085(3) 0.1075(9) 0.1188(2)
C49 C 0.6527(3) 0.1919(9) 0.1102(2)
C50 C 0.6799(3) 0.1168(10) 0.0786(2)
H36 H 0.7097 0.1768 0.0728
C51 C 0.6633(3) -0.0419(11) 0.0565(3)
H37 H 0.6820 -0.0901 0.0354
C52 C 0.6207(3) -0.1340(9) 0.0638(2)
C53 C 0.6025(3) -0.3046(10) 0.0428(3)
H38 H 0.6200 -0.3565 0.0212
C54 C 0.5615(3) -0.3932(10) 0.0526(3)
H39 H 0.5503 -0.5039 0.0374
C55 C 0.5356(3) -0.3220(10) 0.0851(3)
H40 H 0.5075 -0.3866 0.0924
C56 C 0.5499(3) -0.1613(9) 0.1066(2)
H41 H 0.5315 -0.1152 0.1283
C57 C 0.5930(3) -0.0612(9) 0.0966(2)
C58 C 0.6757(3) 0.3642(9) 0.1365(2)
H42 H 0.6906 0.4324 0.1139
H43 H 0.6448 0.4311 0.1415
C59 C 0.7767(3) 0.3311(9) 0.1972(3)
C60 C 0.8003(3) 0.3970(11) 0.1584(3)
H44 H 0.7711 0.4631 0.1311
H45 H 0.8124 0.2996 0.1422
H46 H 0.8329 0.4717 0.1763
C61 C 0.7933(3) 0.2640(10) 0.2888(3)
H47 H 0.7792 0.3756 0.2956
H48 H 0.8249 0.2263 0.3203
H49 H 0.7627 0.1785 0.2798
C62 C 0.8741(3) 0.2787(10) 0.2559(3)
H50 H 0.8811 0.2284 0.2260
H51 H 0.8932 0.2093 0.2874
H52 H 0.8889 0.3968 0.2618
Br2 Br 0.32758(3) 0.40886(10) 0.03764(3)
N3 N 0.7214(2) 0.3313(7) 0.1880(2)
N4 N 0.8130(2) 0.2812(8) 0.2445(2)
O2 O 0.65729(18) 0.1733(6) 0.22982(15)
H54 H 0.6717 0.1394 0.2084
loop_
_geom_bond_atom_site_label_1
_geom_bond_atom_site_label_2
_geom_bond_site_symmetry_1
_geom_bond_site_symmetry_2
C1 C2 1_555 1_555
C2 C3 1_555 1_555
C3 H1 1_555 1_555
C4 C3 1_555 1_555
H2 C4 1_555 1_555
C5 C4 1_555 1_555
C6 C5 1_555 1_555
H3 C6 1_555 1_555
C7 C2 1_555 1_555
C8 C7 1_555 1_555
H4 C8 1_555 1_555
C9 C8 1_555 1_555
C10 C1 1_555 1_555
C11 C9 1_555 1_555
C12 C11 1_555 1_555
H5 C12 1_555 1_555
C13 C12 1_555 1_555
H6 C13 1_555 1_555
C14 C13 1_555 1_555
H7 C14 1_555 1_555
C15 C14 1_555 1_555
H8 C15 1_555 1_555
C16 C11 1_555 1_555
H9 C16 1_555 1_555
C17 C1 1_555 1_555
C18 C17 1_555 1_555
C19 C18 1_555 1_555
H10 C19 1_555 1_555
C20 C19 1_555 1_555
H11 C20 1_555 1_555
C21 C20 1_555 1_555
C22 C21 1_555 1_555
H12 C22 1_555 1_555
C23 C22 1_555 1_555
H13 C23 1_555 1_555
C24 C23 1_555 1_555
H14 C24 1_555 1_555
C25 C24 1_555 1_555
H15 C25 1_555 1_555
C26 C17 1_555 1_555
C27 C18 1_555 1_555
H16 C27 1_555 1_555
H17 C27 1_555 1_555
C28 C29 1_555 1_555
C29 H18 1_555 1_555
H19 C29 1_555 1_555
H20 C29 1_555 1_555
C30 H21 1_555 1_555
H22 C30 1_555 1_555
H23 C30 1_555 1_555
C31 H24 1_555 1_555
H25 C31 1_555 1_555
H26 C31 1_555 1_555
C32 C33 1_555 1_555
C33 C34 1_555 1_555
C34 C35 1_555 1_555
C35 H27 1_555 1_555
C36 C35 1_555 1_555
C37 C36 1_555 1_555
H28 C37 1_555 1_555
C38 C37 1_555 1_555
C39 C38 1_555 1_555
H29 C39 1_555 1_555
C40 C39 1_555 1_555
H30 C40 1_555 1_555
C41 C32 1_555 1_555
C42 C34 1_555 1_555
C43 C42 1_555 1_555
H31 C43 1_555 1_555
C44 C43 1_555 1_555
H32 C44 1_555 1_555
C45 C44 1_555 1_555
H33 C45 1_555 1_555
C46 C45 1_555 1_555
H34 C46 1_555 1_555
C47 C42 1_555 1_555
H35 C47 1_555 1_555
C48 C32 1_555 1_555
C49 C48 1_555 1_555
C50 C49 1_555 1_555
H36 C50 1_555 1_555
C51 C50 1_555 1_555
H37 C51 1_555 1_555
C52 C51 1_555 1_555
C53 C52 1_555 1_555
H38 C53 1_555 1_555
C54 C53 1_555 1_555
H39 C54 1_555 1_555
C55 C54 1_555 1_555
H40 C55 1_555 1_555
C56 C55 1_555 1_555
H41 C56 1_555 1_555
C57 C48 1_555 1_555
C58 C49 1_555 1_555
H42 C58 1_555 1_555
H43 C58 1_555 1_555
C59 C60 1_555 1_555
C60 H44 1_555 1_555
H45 C60 1_555 1_555
H46 C60 1_555 1_555
C61 H47 1_555 1_555
H48 C61 1_555 1_555
H49 C61 1_555 1_555
C62 H50 1_555 1_555
H51 C62 1_555 1_555
H52 C62 1_555 1_555
Br1 C5 1_555 1_555
Br2 C38 1_555 1_555
N1 C27 1_555 1_555
N2 C28 1_555 1_555
N3 C58 1_555 1_555
N4 C59 1_555 1_555
O1 C10 1_555 1_555
H53 O1 1_555 1_555
O2 C33 1_555 1_555
H54 O2 1_555 1_555
C6 C7 1_555 1_555
C9 C10 1_555 1_555
C15 C16 1_555 1_555
C21 C26 1_555 1_555
C25 C26 1_555 1_555
C28 N1 1_555 1_555
C30 N2 1_555 1_555
C31 N2 1_555 1_555
C36 C41 1_555 1_555
C40 C41 1_555 1_555
C46 C47 1_555 1_555
C52 C57 1_555 1_555
C56 C57 1_555 1_555
C59 N3 1_555 1_555
C61 N4 1_555 1_555
C62 N4 1_555 1_555

#END
