
#######################################################################
#
#                 Cambridge Crystallographic Data Centre
#                                CCDC 
#
#######################################################################
#
# If this CIF has been generated from an entry in the Cambridge 
# Structural Database, then it will include bibliographic, chemical, 
# crystal, experimental, refinement or atomic coordinate data resulting 
# from the CCDC's data processing and validation procedures.
#
#######################################################################

data_MEGMUI
_chemical_formula_moiety         'C38 H22 S2'
_chemical_name_systematic        
4,4'-Anthracene-9,10-diylbis(dibenzo[b,d]thiophene)
_symmetry_cell_setting           monoclinic
_symmetry_space_group_name_H-M   'P 21/n'
_symmetry_Int_Tables_number      14
_space_group_name_Hall           '-P 2yn'
loop_
_symmetry_equiv_pos_site_id
_symmetry_equiv_pos_as_xyz
1 x,y,z
2 1/2-x,1/2+y,1/2-z
3 -x,-y,-z
4 1/2+x,1/2-y,1/2+z
_cell_length_a                   16.0855(17)
_cell_length_b                   9.0743(10)
_cell_length_c                   19.466(2)
_cell_angle_alpha                90
_cell_angle_beta                 105.458(2)
_cell_angle_gamma                90
_cell_volume                     2738.57
_exptl_crystal_colour            yellow
_exptl_crystal_description       block
_cell_formula_units_Z            4
loop_
_atom_site_label
_atom_site_type_symbol
_atom_site_fract_x
_atom_site_fract_y
_atom_site_fract_z
C1 C 0.8320(2) 0.7131(4) 0.72766(15)
C2 C 0.7831(2) 0.7093(4) 0.77674(17)
H1 H 0.7325 0.7639 0.7694
C3 C 0.8115(3) 0.6228(5) 0.83633(18)
H2 H 0.7808 0.6209 0.8706
C4 C 0.8854(3) 0.5385(5) 0.84565(19)
H3 H 0.9027 0.4784 0.8856
C5 C 0.9335(2) 0.5417(4) 0.79747(17)
H4 H 0.9831 0.4846 0.8048
C6 C 0.9078(2) 0.6317(3) 0.73688(14)
C7 C 0.94843(19) 0.6554(3) 0.67962(14)
C8 C 1.0235(2) 0.5970(3) 0.66823(16)
H5 H 1.0566 0.5314 0.7010
C9 C 1.0488(2) 0.6356(4) 0.60913(17)
H6 H 1.0996 0.5968 0.6024
C10 C 0.99965(19) 0.7326(4) 0.55841(16)
H7 H 1.0179 0.7564 0.5183
C11 C 0.92459(18) 0.7935(3) 0.56703(14)
C12 C 0.90026(17) 0.7542(3) 0.62841(14)
C13 C 0.86758(16) 0.8958(3) 0.51472(13)
C14 C 0.86500(17) 1.0453(3) 0.53185(13)
C15 C 0.92122(19) 1.1076(3) 0.59493(14)
H8 H 0.9619 1.0475 0.6251
C16 C 0.9167(2) 1.2508(4) 0.61166(15)
H9 H 0.9531 1.2874 0.6536
C17 C 0.8573(2) 1.3459(3) 0.56600(16)
H10 H 0.8551 1.4448 0.5779
C18 C 0.80389(19) 1.2940(3) 0.50530(14)
H11 H 0.7656 1.3584 0.4756
C19 C 0.80456(17) 1.1425(3) 0.48531(13)
C20 C 0.74815(17) 1.0860(3) 0.42279(13)
C21 C 0.75079(18) 0.9362(3) 0.40588(13)
C22 C 0.6912(2) 0.8727(4) 0.34514(15)
H12 H 0.6506 0.9331 0.3152
C23 C 0.6922(2) 0.7273(4) 0.33000(16)
H13 H 0.6523 0.6889 0.2904
C24 C 0.7537(2) 0.6343(4) 0.37421(16)
H14 H 0.7546 0.5347 0.3631
C25 C 0.8112(2) 0.6874(3) 0.43255(15)
H15 H 0.8513 0.6237 0.4609
C26 C 0.81187(17) 0.8396(3) 0.45189(13)
C27 C 0.61056(18) 1.2323(3) 0.39639(14)
C28 C 0.68280(19) 1.1855(3) 0.37562(14)
C29 C 0.6910(2) 1.2343(4) 0.31029(15)
H16 H 0.7382 1.2044 0.2946
C30 C 0.6293(2) 1.3283(4) 0.26742(15)
H17 H 0.6356 1.3586 0.2234
C31 C 0.5599(2) 1.3759(4) 0.28966(16)
H18 H 0.5201 1.4399 0.2612
C32 C 0.54854(19) 1.3289(3) 0.35459(15)
C33 C 0.48120(19) 1.3630(4) 0.38848(17)
C34 C 0.4101(2) 1.4563(4) 0.3651(2)
H19 H 0.4005 1.5052 0.3217
C35 C 0.3551(3) 1.4744(5) 0.4070(3)
H20 H 0.3081 1.5375 0.3919
C36 C 0.3671(3) 1.4016(5) 0.4713(3)
H21 H 0.3279 1.4154 0.4983
C37 C 0.4364(2) 1.3091(5) 0.4960(2)
H22 H 0.4450 1.2604 0.5393
C38 C 0.4931(2) 1.2907(4) 0.45373(18)
S1 S 0.80827(5) 0.81837(10) 0.64970(4)
S2 S 0.58590(6) 1.18050(10) 0.47474(4)
loop_
_geom_bond_atom_site_label_1
_geom_bond_atom_site_label_2
_geom_bond_site_symmetry_1
_geom_bond_site_symmetry_2
C1 C2 1_555 1_555
C2 H1 1_555 1_555
C3 C2 1_555 1_555
H2 C3 1_555 1_555
C4 C3 1_555 1_555
H3 C4 1_555 1_555
C5 C4 1_555 1_555
H4 C5 1_555 1_555
C6 C1 1_555 1_555
C7 C6 1_555 1_555
C8 C7 1_555 1_555
H5 C8 1_555 1_555
C9 C8 1_555 1_555
H6 C9 1_555 1_555
C10 C9 1_555 1_555
H7 C10 1_555 1_555
C11 C10 1_555 1_555
C12 C7 1_555 1_555
C13 C11 1_555 1_555
C14 C13 1_555 1_555
C15 C14 1_555 1_555
H8 C15 1_555 1_555
C16 C15 1_555 1_555
H9 C16 1_555 1_555
C17 C16 1_555 1_555
H10 C17 1_555 1_555
C18 C17 1_555 1_555
H11 C18 1_555 1_555
C19 C14 1_555 1_555
C20 C19 1_555 1_555
C21 C20 1_555 1_555
C22 C21 1_555 1_555
H12 C22 1_555 1_555
C23 C22 1_555 1_555
H13 C23 1_555 1_555
C24 C23 1_555 1_555
H14 C24 1_555 1_555
C25 C24 1_555 1_555
H15 C25 1_555 1_555
C26 C13 1_555 1_555
C27 C28 1_555 1_555
C28 C20 1_555 1_555
C29 C28 1_555 1_555
H16 C29 1_555 1_555
C30 C29 1_555 1_555
H17 C30 1_555 1_555
C31 C30 1_555 1_555
H18 C31 1_555 1_555
C32 C27 1_555 1_555
C33 C32 1_555 1_555
C34 C33 1_555 1_555
H19 C34 1_555 1_555
C35 C34 1_555 1_555
H20 C35 1_555 1_555
C36 C35 1_555 1_555
H21 C36 1_555 1_555
C37 C36 1_555 1_555
H22 C37 1_555 1_555
C38 C33 1_555 1_555
S1 C1 1_555 1_555
S2 C27 1_555 1_555
C5 C6 1_555 1_555
C11 C12 1_555 1_555
C12 S1 1_555 1_555
C18 C19 1_555 1_555
C21 C26 1_555 1_555
C25 C26 1_555 1_555
C31 C32 1_555 1_555
C37 C38 1_555 1_555
C38 S2 1_555 1_555

#END
