
#######################################################################
#
#                 Cambridge Crystallographic Data Centre
#                                CCDC 
#
#######################################################################
#
# If this CIF has been generated from an entry in the Cambridge 
# Structural Database, then it will include bibliographic, chemical, 
# crystal, experimental, refinement or atomic coordinate data resulting 
# from the CCDC's data processing and validation procedures.
#
#######################################################################

data_MEGRAU
_chemical_formula_moiety         'C16 H15 Cl1 O2'
_chemical_name_systematic        
'methyl (2-chlorophenyl)(4-methylphenyl)acetate'
_symmetry_cell_setting           monoclinic
_symmetry_space_group_name_H-M   'P 21/c'
_symmetry_Int_Tables_number      14
_space_group_name_Hall           '-P 2ybc'
loop_
_symmetry_equiv_pos_site_id
_symmetry_equiv_pos_as_xyz
1 x,y,z
2 -x,1/2+y,1/2-z
3 -x,-y,-z
4 x,1/2-y,1/2+z
_cell_length_a                   10.2720(5)
_cell_length_b                   16.6349(8)
_cell_length_c                   8.9573(4)
_cell_angle_alpha                90
_cell_angle_beta                 112.011(2)
_cell_angle_gamma                90
_cell_volume                     1419.01
_exptl_crystal_colour            colorless
_exptl_crystal_description       block
_cell_formula_units_Z            4
loop_
_atom_site_label
_atom_site_type_symbol
_atom_site_fract_x
_atom_site_fract_y
_atom_site_fract_z
Cl1 Cl 0.54174(8) 0.16821(4) 0.91120(9)
O1 O 0.88650(19) 0.13678(11) 0.8867(2)
O2 O 0.75133(18) 0.13649(10) 0.62620(19)
C1 C 0.8577(2) -0.05588(13) 0.7326(3)
H1 H 0.9336 -0.0254 0.7976
C2 C 0.8810(2) -0.12428(14) 0.6584(3)
H2 H 0.9726 -0.1389 0.6742
C3 C 0.7713(2) -0.17133(12) 0.5614(3)
C4 C 0.6373(2) -0.14815(12) 0.5428(2)
H3 H 0.5615 -0.1792 0.4794
C5 C 0.6131(2) -0.08000(12) 0.6161(2)
H4 H 0.5215 -0.0659 0.6013
C6 C 0.7229(2) -0.03240(11) 0.7112(2)
C7 C 0.6927(2) 0.04354(12) 0.7879(2)
H5 H 0.5962 0.0599 0.7234
C8 C 0.7024(2) 0.03362(12) 0.9596(2)
C9 C 0.6379(2) 0.08848(14) 1.0266(3)
C10 C 0.6472(3) 0.08238(17) 1.1844(3)
H6 H 0.6034 0.1201 1.2264
C11 C 0.7214(3) 0.02033(19) 1.2779(3)
H7 H 0.7282 0.0158 1.3841
C12 C 0.7854(3) -0.03510(17) 1.2160(3)
H8 H 0.8357 -0.0773 1.2799
C13 C 0.7755(2) -0.02846(14) 1.0580(3)
H9 H 0.8190 -0.0668 1.0170
C14 C 0.7957(3) -0.24532(15) 0.4773(4)
H10 H 0.8946 -0.2522 0.5033
H11 H 0.7488 -0.2391 0.3630
H12 H 0.7591 -0.2917 0.5122
C15 C 0.7887(2) 0.11070(12) 0.7776(3)
C16 C 0.8424(3) 0.19629(18) 0.5987(4)
H13 H 0.8065 0.2111 0.4870
H14 H 0.9351 0.1745 0.6277
H15 H 0.8458 0.2429 0.6632
loop_
_geom_bond_atom_site_label_1
_geom_bond_atom_site_label_2
_geom_bond_site_symmetry_1
_geom_bond_site_symmetry_2
Cl1 C9 1_555 1_555
O1 C15 1_555 1_555
O2 C15 1_555 1_555
C1 H1 1_555 1_555
C2 C1 1_555 1_555
H2 C2 1_555 1_555
C3 C2 1_555 1_555
C4 C3 1_555 1_555
H3 C4 1_555 1_555
C5 C4 1_555 1_555
H4 C5 1_555 1_555
C6 C1 1_555 1_555
C7 C6 1_555 1_555
H5 C7 1_555 1_555
C8 C7 1_555 1_555
C9 C8 1_555 1_555
C10 C9 1_555 1_555
H6 C10 1_555 1_555
C11 C10 1_555 1_555
H7 C11 1_555 1_555
C12 C11 1_555 1_555
H8 C12 1_555 1_555
C13 C8 1_555 1_555
H9 C13 1_555 1_555
C14 C3 1_555 1_555
H10 C14 1_555 1_555
H11 C14 1_555 1_555
H12 C14 1_555 1_555
C15 C7 1_555 1_555
C16 O2 1_555 1_555
H13 C16 1_555 1_555
H14 C16 1_555 1_555
H15 C16 1_555 1_555
C5 C6 1_555 1_555
C12 C13 1_555 1_555

#END
