
#######################################################################
#
#                 Cambridge Crystallographic Data Centre
#                                CCDC 
#
#######################################################################
#
# If this CIF has been generated from an entry in the Cambridge 
# Structural Database, then it will include bibliographic, chemical, 
# crystal, experimental, refinement or atomic coordinate data resulting 
# from the CCDC's data processing and validation procedures.
#
#######################################################################

data_MEGVOK
_chemical_compound_source        'roots of Sinomenium acutum'
_chemical_name_common            
6,6a,11,12-Tetrahydro-8,9-dimethoxy-14H-dioxolo(4',5':7,8)isoquinolino(3,2-a)iosquinoline
_chemical_formula_moiety         'C20 H21 N1 O4'
_chemical_name_systematic        Tetrahydroepiberberine
_chemical_properties_biological  
'roots and stems of source plant used in Chinese folk medicine to cure rheumatism, dropsy and dermatophytosis'
_symmetry_cell_setting           orthorhombic
_symmetry_space_group_name_H-M   'P 21 21 21'
_symmetry_Int_Tables_number      19
_space_group_name_Hall           'P 2ac 2ab'
loop_
_symmetry_equiv_pos_site_id
_symmetry_equiv_pos_as_xyz
1 x,y,z
2 1/2-x,-y,1/2+z
3 -x,1/2+y,1/2-z
4 1/2+x,1/2-y,-z
_cell_length_a                   7.3670(10)
_cell_length_b                   8.377(2)
_cell_length_c                   27.676(5)
_cell_angle_alpha                90
_cell_angle_beta                 90
_cell_angle_gamma                90
_cell_volume                     1707.98
_exptl_crystal_colour            colorless
_exptl_crystal_description       block
_cell_formula_units_Z            4
_exptl_crystal_recrystallization_method acetone
loop_
_atom_site_label
_atom_site_type_symbol
_atom_site_fract_x
_atom_site_fract_y
_atom_site_fract_z
O1 O 0.6784(3) 0.7657(2) 0.15622(5)
O2 O 0.9505(3) 0.6819(2) 0.12331(5)
O3 O 0.5821(2) 0.57957(19) 0.53883(4)
O4 O 0.7091(3) 0.3350(2) 0.49434(5)
N1 N 0.5788(3) 0.7426(2) 0.31223(5)
C1 C 0.5293(3) 0.7193(3) 0.41238(7)
C2 C 0.5826(3) 0.5912(3) 0.48953(7)
C3 C 0.5187(3) 0.7168(3) 0.46326(7)
H1 H 0.4667 0.8030 0.4793
C4 C 0.6296(3) 0.5896(3) 0.33388(7)
H2 H 0.5512 0.5062 0.3204
C5 C 0.6541(3) 0.4586(3) 0.46543(7)
C6 C 0.8603(3) 0.5797(3) 0.26611(7)
C7 C 0.6068(3) 0.5912(3) 0.38862(7)
C8 C 0.9389(4) 0.6353(3) 0.17097(7)
C9 C 0.6662(3) 0.4597(3) 0.41563(7)
H3 H 0.7147 0.3716 0.3997
C10 C 0.7339(3) 0.6636(3) 0.23836(7)
C11 C 0.5622(3) 0.7255(3) 0.25968(7)
H4 H 0.5336 0.8283 0.2455
H5 H 0.4637 0.6527 0.2523
C12 C 0.8241(4) 0.5543(3) 0.31951(7)
H6 H 0.8521 0.4445 0.3277
H7 H 0.9046 0.6226 0.3380
C13 C 0.4542(4) 0.8583(3) 0.38460(7)
H8 H 0.5417 0.9448 0.3843
H9 H 0.3441 0.8964 0.4000
C14 C 0.7799(4) 0.6871(3) 0.19070(7)
C15 C 1.0623(4) 0.5526(3) 0.19728(8)
H10 H 1.1699 0.5155 0.1837
C16 C 1.0202(4) 0.5261(3) 0.24547(8)
H11 H 1.1023 0.4702 0.2646
C17 C 0.4132(4) 0.8065(3) 0.33314(7)
H12 H 0.3189 0.7257 0.3331
H13 H 0.3711 0.8970 0.3143
C18 C 0.5070(4) 0.7089(4) 0.56528(8)
H14 H 0.5744 0.8044 0.5585
H15 H 0.5132 0.6859 0.5992
H16 H 0.3826 0.7237 0.5560
C19 C 0.7866(4) 0.7644(4) 0.11353(8)
H17 H 0.7215 0.7117 0.0876
H18 H 0.8130 0.8729 0.1035
C20 C 0.7351(5) 0.1838(3) 0.47281(9)
H19 H 0.6275 0.1539 0.4554
H20 H 0.7593 0.1061 0.4975
H21 H 0.8360 0.1887 0.4509
loop_
_geom_bond_atom_site_label_1
_geom_bond_atom_site_label_2
_geom_bond_site_symmetry_1
_geom_bond_site_symmetry_2
O1 C14 1_555 1_555
O2 C8 1_555 1_555
O3 C2 1_555 1_555
O4 C5 1_555 1_555
N1 C4 1_555 1_555
C1 C3 1_555 1_555
C2 C3 1_555 1_555
C3 H1 1_555 1_555
C4 H2 1_555 1_555
C5 C2 1_555 1_555
C6 C10 1_555 1_555
C7 C1 1_555 1_555
C8 C14 1_555 1_555
C9 C5 1_555 1_555
H3 C9 1_555 1_555
C10 C11 1_555 1_555
C11 N1 1_555 1_555
H4 C11 1_555 1_555
H5 C11 1_555 1_555
C12 C4 1_555 1_555
H6 C12 1_555 1_555
H7 C12 1_555 1_555
C13 C1 1_555 1_555
H8 C13 1_555 1_555
H9 C13 1_555 1_555
C14 C10 1_555 1_555
C15 C8 1_555 1_555
H10 C15 1_555 1_555
C16 C6 1_555 1_555
H11 C16 1_555 1_555
C17 N1 1_555 1_555
H12 C17 1_555 1_555
H13 C17 1_555 1_555
C18 O3 1_555 1_555
H14 C18 1_555 1_555
H15 C18 1_555 1_555
H16 C18 1_555 1_555
C19 O1 1_555 1_555
H17 C19 1_555 1_555
H18 C19 1_555 1_555
C20 O4 1_555 1_555
H19 C20 1_555 1_555
H20 C20 1_555 1_555
H21 C20 1_555 1_555
O2 C19 1_555 1_555
C4 C7 1_555 1_555
C6 C12 1_555 1_555
C7 C9 1_555 1_555
C13 C17 1_555 1_555
C15 C16 1_555 1_555

#END
