
#######################################################################
#
#                 Cambridge Crystallographic Data Centre
#                                CCDC 
#
#######################################################################
#
# If this CIF has been generated from an entry in the Cambridge 
# Structural Database, then it will include bibliographic, chemical, 
# crystal, experimental, refinement or atomic coordinate data resulting 
# from the CCDC's data processing and validation procedures.
#
#######################################################################

data_MEGWIF
_chemical_formula_moiety         'C20 H15 Cl1 N4'
_chemical_name_systematic        
4-(4-Chlorophenyl)-5-(4-methylphenyl)-3-(2-pyridyl)-4H-1,2,4-triazole
_symmetry_cell_setting           monoclinic
_symmetry_space_group_name_H-M   'P 21/c'
_symmetry_Int_Tables_number      14
_space_group_name_Hall           '-P 2ybc'
loop_
_symmetry_equiv_pos_site_id
_symmetry_equiv_pos_as_xyz
1 x,y,z
2 -x,1/2+y,1/2-z
3 -x,-y,-z
4 x,1/2-y,1/2+z
_cell_length_a                   18.905(4)
_cell_length_b                   8.4111(16)
_cell_length_c                   11.419(2)
_cell_angle_alpha                90
_cell_angle_beta                 105.276(3)
_cell_angle_gamma                90
_cell_volume                     1751.6
_exptl_crystal_colour            colorless
_exptl_crystal_description       block
_cell_formula_units_Z            4
_exptl_crystal_recrystallization_method ethanol
loop_
_atom_site_label
_atom_site_type_symbol
_atom_site_fract_x
_atom_site_fract_y
_atom_site_fract_z
Cl1 Cl 0.28005(3) 1.53320(5) 0.89324(4)
N1 N 0.30288(7) 0.67507(15) 0.60285(12)
N2 N 0.22779(7) 0.67206(15) 0.58862(12)
N3 N 0.27391(6) 0.87656(13) 0.70383(11)
N4 N 0.43861(8) 0.88167(19) 0.81867(13)
C1 C 0.21158(8) 0.79294(16) 0.64876(13)
C2 C 0.32945(8) 0.79727(17) 0.67096(13)
C3 C 0.40746(8) 0.84114(17) 0.70379(14)
C4 C 0.44575(10) 0.8326(2) 0.61568(18)
H1 H 0.4192(11) 0.807(2) 0.5341(19)
C5 C 0.51948(11) 0.8694(3) 0.6483(2)
H2 H 0.5460(13) 0.869(3) 0.585(2)
C6 C 0.55236(11) 0.9129(3) 0.7660(2)
H3 H 0.6008(13) 0.941(3) 0.791(2)
C7 C 0.51005(10) 0.9167(3) 0.8473(2)
H4 H 0.5330(12) 0.946(3) 0.936(2)
C8 C 0.13710(8) 0.82918(18) 0.65839(15)
C9 C 0.07791(10) 0.7880(3) 0.5633(2)
H5 H 0.0876(12) 0.742(3) 0.496(2)
C10 C 0.00717(11) 0.8132(3) 0.5708(2)
H6 H -0.0340(15) 0.791(3) 0.501(2)
C11 C -0.00721(10) 0.8814(3) 0.6717(2)
C12 C 0.05171(11) 0.9230(3) 0.7657(2)
H7 H 0.0438(13) 0.970(3) 0.837(2)
C13 C 0.12328(10) 0.8968(2) 0.76101(18)
H8 H 0.1626(11) 0.920(2) 0.8286(17)
C14 C -0.08525(12) 0.9093(4) 0.6791(3)
H9 H -0.0956 0.8409 0.7398
H10 H -0.1187 0.8865 0.6018
H11 H -0.0908 1.0182 0.7003
C15 C 0.27650(7) 1.03563(15) 0.75214(12)
C16 C 0.24542(8) 1.15720(17) 0.67360(13)
H12 H 0.2220(9) 1.134(2) 0.5892(15)
C17 C 0.24618(8) 1.31162(17) 0.71632(14)
H13 H 0.2238(9) 1.399(2) 0.6617(16)
C18 C 0.27816(8) 1.34019(17) 0.83801(13)
C19 C 0.30877(8) 1.21921(19) 0.91710(14)
H14 H 0.3308(9) 1.246(2) 1.0002(16)
C20 C 0.30783(9) 1.06430(18) 0.87401(13)
H15 H 0.3290(9) 0.978(2) 0.9256(15)
loop_
_geom_bond_atom_site_label_1
_geom_bond_atom_site_label_2
_geom_bond_site_symmetry_1
_geom_bond_site_symmetry_2
Cl1 C18 1_555 1_555
N1 N2 1_555 1_555
N2 C1 1_555 1_555
N3 C1 1_555 1_555
N4 C3 1_555 1_555
C1 C8 1_555 1_555
C2 N1 1_555 1_555
C3 C2 1_555 1_555
C4 C3 1_555 1_555
H1 C4 1_555 1_555
C5 C4 1_555 1_555
H2 C5 1_555 1_555
C6 C5 1_555 1_555
H3 C6 1_555 1_555
C7 N4 1_555 1_555
H4 C7 1_555 1_555
C8 C9 1_555 1_555
C9 H5 1_555 1_555
C10 C9 1_555 1_555
H6 C10 1_555 1_555
C11 C10 1_555 1_555
C12 C11 1_555 1_555
H7 C12 1_555 1_555
C13 C8 1_555 1_555
H8 C13 1_555 1_555
C14 C11 1_555 1_555
H9 C14 1_555 1_555
H10 C14 1_555 1_555
H11 C14 1_555 1_555
C15 N3 1_555 1_555
C16 C15 1_555 1_555
H12 C16 1_555 1_555
C17 C16 1_555 1_555
H13 C17 1_555 1_555
C18 C17 1_555 1_555
C19 C18 1_555 1_555
H14 C19 1_555 1_555
C20 C15 1_555 1_555
H15 C20 1_555 1_555
N3 C2 1_555 1_555
C6 C7 1_555 1_555
C12 C13 1_555 1_555
C19 C20 1_555 1_555

#END
