
#######################################################################
#
#                 Cambridge Crystallographic Data Centre
#                                CCDC 
#
#######################################################################
#
# If this CIF has been generated from an entry in the Cambridge 
# Structural Database, then it will include bibliographic, chemical, 
# crystal, experimental, refinement or atomic coordinate data resulting 
# from the CCDC's data processing and validation procedures.
#
#######################################################################

data_MEGXAA
_chemical_formula_moiety         'C28 H18 N4 O1,2.5(C4 H8 O2)'
_chemical_name_systematic        
'{2,6-bis[2-(1H-indol-5-yl)ethenyl]-4H-pyran-4-ylidene}propanedinitrile 1,4-dioxane solvate'
_symmetry_cell_setting           triclinic
_symmetry_space_group_name_H-M   'P -1'
_symmetry_Int_Tables_number      2
_space_group_name_Hall           '-P 1'
loop_
_symmetry_equiv_pos_site_id
_symmetry_equiv_pos_as_xyz
1 x,y,z
2 -x,-y,-z
_cell_length_a                   9.885(5)
_cell_length_b                   13.056(6)
_cell_length_c                   15.400(8)
_cell_angle_alpha                70.424(8)
_cell_angle_beta                 80.392(9)
_cell_angle_gamma                68.547(8)
_cell_volume                     1740.65
_exptl_crystal_colour            red
_exptl_crystal_description       Prism
_cell_formula_units_Z            2
loop_
_atom_site_label
_atom_site_type_symbol
_atom_site_fract_x
_atom_site_fract_y
_atom_site_fract_z
O1 O 0.21191(18) 0.40825(13) 0.04692(11)
N1 N 0.1691(3) -0.1820(2) 0.46780(18)
H1 H 0.1623 -0.2012 0.5271
N2 N 0.6101(3) 0.7709(2) 0.21370(19)
H2 H 0.6431 0.7608 0.2653
N3 N -0.0347(4) 0.3658(3) -0.2604(2)
N4 N 0.1420(4) 0.6514(3) -0.3508(2)
C1 C 0.1762(4) -0.2502(3) 0.4170(3)
H3 H 0.1727 -0.3248 0.4414
C2 C 0.1889(4) -0.1963(2) 0.3265(2)
H4 H 0.1966 -0.2258 0.2780
C3 C 0.1881(3) -0.0831(2) 0.32006(19)
C4 C 0.1745(3) -0.0774(2) 0.41068(19)
C5 C 0.1704(3) 0.0202(3) 0.42913(19)
H5 H 0.1650 0.0221 0.4895
C6 C 0.1747(3) 0.1138(2) 0.35603(18)
H6 H 0.1721 0.1801 0.3675
C7 C 0.1828(3) 0.1138(2) 0.26331(16)
C8 C 0.1919(3) 0.0132(2) 0.24734(18)
H7 H 0.2008 0.0104 0.1871
C9 C 0.1804(3) 0.2184(2) 0.18844(17)
H8 H 0.2028 0.2744 0.2021
C10 C 0.1485(3) 0.2400(2) 0.10184(17)
H9 H 0.1205 0.1859 0.0893
C11 C 0.1538(2) 0.34065(19) 0.02564(16)
C12 C 0.1097(3) 0.3651(2) -0.05902(16)
H10 H 0.0671 0.3184 -0.0704
C13 C 0.1273(2) 0.46124(19) -0.13119(16)
C14 C 0.1920(3) 0.52861(19) -0.10775(17)
H11 H 0.2072 0.5921 -0.1530
C15 C 0.2318(2) 0.50268(19) -0.02126(17)
C16 C 0.2973(3) 0.5650(2) 0.00923(18)
H12 H 0.3150 0.6284 -0.0347
C17 C 0.3356(3) 0.5404(2) 0.09535(18)
H13 H 0.3142 0.4786 0.1393
C18 C 0.4066(3) 0.5994(2) 0.12775(17)
C19 C 0.4451(3) 0.5565(2) 0.22018(19)
H14 H 0.4225 0.4923 0.2587
C20 C 0.5146(3) 0.6058(3) 0.2554(2)
H15 H 0.5409 0.5749 0.3164
C21 C 0.5449(3) 0.7029(2) 0.1981(2)
C22 C 0.5084(3) 0.7482(2) 0.1046(2)
C23 C 0.4401(3) 0.6953(2) 0.07041(18)
H16 H 0.4167 0.7240 0.0088
C24 C 0.5550(3) 0.8475(2) 0.0672(2)
H17 H 0.5453 0.8960 0.0068
C25 C 0.6145(4) 0.8577(3) 0.1339(3)
H18 H 0.6532 0.9151 0.1274
C26 C 0.0854(3) 0.4870(2) -0.22108(17)
C27 C 0.0195(3) 0.4202(3) -0.24366(19)
C28 C 0.1152(3) 0.5783(3) -0.2929(2)
O2 O 0.6853(4) 0.1736(4) 0.1675(2)
O3 O 0.6788(4) 0.0636(4) 0.3549(2)
C29 C 0.8041(5) 0.1346(5) 0.2186(4)
H19 H 0.8093 0.1984 0.2351
H20 H 0.8906 0.1097 0.1803
C30 C 0.8059(5) 0.0458(6) 0.2974(4)
H21 H 0.8874 0.0317 0.3323
H22 H 0.8229 -0.0232 0.2804
C31 C 0.5597(5) 0.0980(6) 0.3027(5)
H23 H 0.5580 0.0315 0.2884
H24 H 0.4720 0.1230 0.3399
C32 C 0.5562(6) 0.1845(8) 0.2219(5)
H25 H 0.5273 0.2566 0.2365
H26 H 0.4813 0.1902 0.1854
O4 O 0.3316(5) 0.3368(5) 0.4134(2)
O5 O 0.3236(3) 0.2569(4) 0.6030(2)
C33 C 0.4465(8) 0.3141(9) 0.4636(5)
H27 H 0.4411 0.3848 0.4742
H28 H 0.5362 0.2898 0.4277
C34 C 0.4519(5) 0.2288(7) 0.5493(4)
H29 H 0.4682 0.1557 0.5392
H30 H 0.5331 0.2200 0.5822
C35 C 0.2021(5) 0.2801(6) 0.5540(4)
H31 H 0.1136 0.3051 0.5907
H32 H 0.2057 0.2100 0.5432
C36 C 0.1990(7) 0.3670(5) 0.4680(5)
H33 H 0.1845 0.4393 0.4790
H34 H 0.1178 0.3778 0.4343
O6 O 0.0622(2) 0.07522(19) 1.0081(2)
C37 C -0.0538(4) 0.1127(3) 0.9498(3)
H35 H -0.0150 0.1096 0.8882
H36 H -0.1120 0.1920 0.9459
C38 C 0.1453(4) -0.0400(3) 1.0149(3)
H37 H 0.2236 -0.0662 1.0560
H38 H 0.1882 -0.0460 0.9546
O6A O -0.0622(2) -0.07522(19) 0.9919(2)
C37A C 0.0538(4) -0.1127(3) 1.0502(3)
H35A H 0.0150 -0.1096 1.1118
H36A H 0.1120 -0.1920 1.0541
C38A C -0.1453(4) 0.0400(3) 0.9851(3)
H37A H -0.2236 0.0662 0.9440
H38A H -0.1882 0.0460 1.0454
loop_
_geom_bond_atom_site_label_1
_geom_bond_atom_site_label_2
_geom_bond_site_symmetry_1
_geom_bond_site_symmetry_2
O1 C11 1_555 1_555
N1 H1 1_555 1_555
N2 H2 1_555 1_555
N3 C27 1_555 1_555
N4 C28 1_555 1_555
C1 N1 1_555 1_555
H3 C1 1_555 1_555
C2 C1 1_555 1_555
H4 C2 1_555 1_555
C3 C2 1_555 1_555
C4 N1 1_555 1_555
C5 C4 1_555 1_555
H5 C5 1_555 1_555
C6 C5 1_555 1_555
H6 C6 1_555 1_555
C7 C6 1_555 1_555
C8 C3 1_555 1_555
H7 C8 1_555 1_555
C9 C7 1_555 1_555
H8 C9 1_555 1_555
C10 C9 1_555 1_555
H9 C10 1_555 1_555
C11 C10 1_555 1_555
C12 C11 1_555 1_555
H10 C12 1_555 1_555
C13 C12 1_555 1_555
C14 C13 1_555 1_555
H11 C14 1_555 1_555
C15 O1 1_555 1_555
C16 C15 1_555 1_555
H12 C16 1_555 1_555
C17 C16 1_555 1_555
H13 C17 1_555 1_555
C18 C17 1_555 1_555
C19 C18 1_555 1_555
H14 C19 1_555 1_555
C20 C19 1_555 1_555
H15 C20 1_555 1_555
C21 N2 1_555 1_555
C22 C21 1_555 1_555
C23 C18 1_555 1_555
H16 C23 1_555 1_555
C24 C22 1_555 1_555
H17 C24 1_555 1_555
C25 N2 1_555 1_555
H18 C25 1_555 1_555
C26 C13 1_555 1_555
C27 C26 1_555 1_555
C28 C26 1_555 1_555
O2 C29 1_555 1_555
O3 C30 1_555 1_555
C29 H19 1_555 1_555
H20 C29 1_555 1_555
C30 C29 1_555 1_555
H21 C30 1_555 1_555
H22 C30 1_555 1_555
C31 O3 1_555 1_555
H23 C31 1_555 1_555
H24 C31 1_555 1_555
C32 O2 1_555 1_555
H25 C32 1_555 1_555
H26 C32 1_555 1_555
O4 C33 1_555 1_555
O5 C34 1_555 1_555
C33 H27 1_555 1_555
H28 C33 1_555 1_555
C34 C33 1_555 1_555
H29 C34 1_555 1_555
H30 C34 1_555 1_555
C35 O5 1_555 1_555
H31 C35 1_555 1_555
H32 C35 1_555 1_555
C36 O4 1_555 1_555
H33 C36 1_555 1_555
H34 C36 1_555 1_555
O6 C37 1_555 1_555
C37 H35 1_555 1_555
H36 C37 1_555 1_555
C38 O6 1_555 1_555
H37 C38 1_555 1_555
H38 C38 1_555 1_555
O6A C37A 1_555 1_555
C37A C38 1_555 1_555
H35A C37A 1_555 1_555
H36A C37A 1_555 1_555
C38A C37 1_555 1_555
H37A C38A 1_555 1_555
H38A C38A 1_555 1_555
C3 C4 1_555 1_555
C7 C8 1_555 1_555
C14 C15 1_555 1_555
C20 C21 1_555 1_555
C22 C23 1_555 1_555
C24 C25 1_555 1_555
C31 C32 1_555 1_555
C35 C36 1_555 1_555
O6A C38A 1_555 1_555

#END
