
#######################################################################
#
#                 Cambridge Crystallographic Data Centre
#                                CCDC 
#
#######################################################################
#
# If this CIF has been generated from an entry in the Cambridge 
# Structural Database, then it will include bibliographic, chemical, 
# crystal, experimental, refinement or atomic coordinate data resulting 
# from the CCDC's data processing and validation procedures.
#
#######################################################################

data_MEHFIQ
_chemical_name_common            'Isopropyl clofibrate'
_chemical_formula_moiety         'C13 H17 Cl1 O3'
_chemical_name_systematic        
'Isopropyl 2-(4-chlorophenoxy)-2-methylpropanoate'
_chemical_properties_biological  'Isopropyl clofibrate is a hypolipidemic agent'
_symmetry_cell_setting           triclinic
_symmetry_space_group_name_H-M   'P -1'
_symmetry_Int_Tables_number      2
_space_group_name_Hall           '-P 1'
loop_
_symmetry_equiv_pos_site_id
_symmetry_equiv_pos_as_xyz
1 x,y,z
2 -x,-y,-z
_cell_length_a                   8.6352(5)
_cell_length_b                   8.6684(6)
_cell_length_c                   9.7478(6)
_cell_angle_alpha                76.242(4)
_cell_angle_beta                 73.777(4)
_cell_angle_gamma                75.333(4)
_cell_volume                     666.717
_exptl_crystal_colour            colorless
_exptl_crystal_description       irregular
_cell_formula_units_Z            2
loop_
_atom_site_label
_atom_site_type_symbol
_atom_site_fract_x
_atom_site_fract_y
_atom_site_fract_z
Cl1 Cl 0.30747(5) 0.42507(5) 0.67985(5)
O1 O 0.83988(14) -0.04465(13) 0.90625(12)
O2 O 1.05094(15) -0.23319(14) 0.60088(13)
O3 O 0.81842(14) -0.26961(14) 0.76899(12)
C1 C 0.4687(2) 0.2861(2) 0.74312(19)
C2 C 0.5992(2) 0.2130(2) 0.64536(19)
C3 C 0.7279(2) 0.1022(2) 0.69488(19)
C4 C 0.7245(2) 0.06657(19) 0.84191(18)
C5 C 0.5941(2) 0.1440(2) 0.93888(19)
C6 C 0.4653(2) 0.2532(2) 0.88984(19)
C7 C 0.9903(2) -0.1248(2) 0.81996(18)
C8 C 1.1041(2) -0.0071(2) 0.7399(2)
C9 C 1.0667(2) -0.2543(2) 0.9320(2)
C10 C 0.9577(2) -0.21339(19) 0.71559(17)
C11 C 0.7706(2) -0.3486(2) 0.67331(19)
C12 C 0.8500(2) -0.5257(2) 0.6931(2)
C13 C 0.5855(2) -0.3173(2) 0.7142(2)
H1 H 0.603(2) 0.241(2) 0.546(2)
H2 H 0.815(3) 0.058(2) 0.626(2)
H3 H 0.590(2) 0.118(2) 1.041(2)
H4 H 0.376(3) 0.305(3) 0.957(2)
H5 H 1.059(3) 0.082(2) 0.674(2)
H6 H 1.125(3) 0.041(2) 0.8091(18)
H7 H 1.201(2) -0.065(2) 0.686(2)
H8 H 0.996(2) -0.330(2) 0.9850(19)
H9 H 1.088(3) -0.200(2) 0.9987(19)
H10 H 1.164(2) -0.322(2) 0.884(2)
H11 H 0.812(2) -0.295(2) 0.573(2)
H12 H 0.809(3) -0.576(2) 0.7904(18)
H13 H 0.828(3) -0.576(2) 0.624(2)
H14 H 0.968(2) -0.543(2) 0.677(2)
H15 H 0.544(3) -0.2014(19) 0.699(2)
H16 H 0.545(3) -0.363(2) 0.8147(17)
H17 H 0.550(3) -0.368(2) 0.654(2)
loop_
_geom_bond_atom_site_label_1
_geom_bond_atom_site_label_2
_geom_bond_site_symmetry_1
_geom_bond_site_symmetry_2
Cl1 C1 1_555 1_555
O1 C4 1_555 1_555
O2 C10 1_555 1_555
O3 C10 1_555 1_555
C1 C2 1_555 1_555
C2 C3 1_555 1_555
C3 C4 1_555 1_555
C4 C5 1_555 1_555
C5 C6 1_555 1_555
C6 C1 1_555 1_555
C7 O1 1_555 1_555
C8 C7 1_555 1_555
C9 C7 1_555 1_555
C10 C7 1_555 1_555
C11 O3 1_555 1_555
C12 C11 1_555 1_555
C13 C11 1_555 1_555
H1 C2 1_555 1_555
H2 C3 1_555 1_555
H3 C5 1_555 1_555
H4 C6 1_555 1_555
H5 C8 1_555 1_555
H6 C8 1_555 1_555
H7 C8 1_555 1_555
H8 C9 1_555 1_555
H9 C9 1_555 1_555
H10 C9 1_555 1_555
H11 C11 1_555 1_555
H12 C12 1_555 1_555
H13 C12 1_555 1_555
H14 C12 1_555 1_555
H15 C13 1_555 1_555
H16 C13 1_555 1_555
H17 C13 1_555 1_555

#END
