
#######################################################################
#
#                 Cambridge Crystallographic Data Centre
#                                CCDC 
#
#######################################################################
#
# If this CIF has been generated from an entry in the Cambridge 
# Structural Database, then it will include bibliographic, chemical, 
# crystal, experimental, refinement or atomic coordinate data resulting 
# from the CCDC's data processing and validation procedures.
#
#######################################################################

data_MEHLIV
_chemical_formula_moiety         'C30 H30 N4 O6'
_chemical_name_systematic        
2,2'-((Ethylenedioxy)bis(ethyleneoxy))bis(N-(2-pyridyl)benzamide)
_symmetry_cell_setting           orthorhombic
_symmetry_space_group_name_H-M   'P 21 21 21'
_symmetry_Int_Tables_number      19
_space_group_name_Hall           'P 2ac 2ab'
loop_
_symmetry_equiv_pos_site_id
_symmetry_equiv_pos_as_xyz
1 x,y,z
2 1/2-x,-y,1/2+z
3 -x,1/2+y,1/2-z
4 1/2+x,1/2-y,-z
_cell_length_a                   12.510(2)
_cell_length_b                   14.843(3)
_cell_length_c                   14.8398(13)
_cell_angle_alpha                90
_cell_angle_beta                 90
_cell_angle_gamma                90
_cell_volume                     2755.54
_exptl_crystal_colour            colorless
_exptl_crystal_description       prism
_cell_formula_units_Z            4
_exptl_crystal_recrystallization_method acetone
loop_
_atom_site_label
_atom_site_type_symbol
_atom_site_fract_x
_atom_site_fract_y
_atom_site_fract_z
N1 N 0.5583(4) 0.3601(3) -0.1494(3)
N2 N 0.6540(4) 0.2918(3) -0.2596(3)
N3 N 0.4528(4) 0.1586(3) 0.2684(3)
N4 N 0.3755(4) 0.0208(3) 0.2800(3)
O1 O 0.3988(3) -0.0985(3) 0.3721(3)
O2 O 0.2816(3) -0.0172(2) 0.1275(2)
O3 O 0.6688(4) 0.3123(3) -0.4081(3)
O4 O 0.7558(3) 0.1489(2) -0.1939(3)
O5 O 0.4166(3) 0.0954(2) 0.0254(3)
O6 O 0.6223(3) 0.1307(2) -0.0467(3)
C1 C 0.3564(4) -0.0651(3) 0.3046(4)
C2 C 0.2802(4) -0.1181(3) 0.2492(3)
C3 C 0.2432(4) -0.0951(3) 0.1629(3)
C4 C 0.1716(5) -0.1506(4) 0.1179(4)
H1 H 0.1481 -0.1354 0.0605
C5 C 0.1358(5) -0.2276(4) 0.1580(4)
H2 H 0.0866 -0.2637 0.1280
C6 C 0.1713(5) -0.2528(4) 0.2420(4)
H3 H 0.1473 -0.3058 0.2686
C7 C 0.2431(5) -0.1978(3) 0.2857(4)
H4 H 0.2677 -0.2151 0.3423
C8 C 0.4411(4) 0.0854(3) 0.3206(4)
C9 C 0.4871(5) 0.0770(4) 0.4044(4)
H5 H 0.4778 0.0253 0.4388
C10 C 0.5470(5) 0.1477(5) 0.4351(4)
H6 H 0.5790 0.1444 0.4915
C11 C 0.5600(6) 0.2227(5) 0.3840(5)
H7 H 0.6002 0.2712 0.4049
C12 C 0.5128(5) 0.2251(4) 0.3018(5)
H8 H 0.5228 0.2762 0.2665
C13 C 0.6915(4) 0.2689(4) -0.3415(4)
C14 C 0.7617(4) 0.1878(4) -0.3481(4)
C15 C 0.7935(4) 0.1310(3) -0.2775(4)
C16 C 0.8622(5) 0.0588(4) -0.2955(5)
H9 H 0.8819 0.0199 -0.2493
C17 C 0.9001(6) 0.0454(5) -0.3803(7)
H10 H 0.9478 -0.0014 -0.3910
C18 C 0.8694(6) 0.0994(5) -0.4500(6)
H11 H 0.8944 0.0885 -0.5080
C19 C 0.8010(5) 0.1704(4) -0.4338(4)
H12 H 0.7807 0.2074 -0.4814
C20 C 0.5874(4) 0.3630(3) -0.2355(4)
C21 C 0.5545(5) 0.4306(4) -0.2937(4)
H13 H 0.5765 0.4313 -0.3535
C22 C 0.4884(6) 0.4965(4) -0.2604(7)
H14 H 0.4658 0.5436 -0.2972
C23 C 0.4558(6) 0.4921(5) -0.1716(6)
H15 H 0.4093 0.5350 -0.1480
C24 C 0.4931(6) 0.4238(5) -0.1193(5)
H16 H 0.4718 0.4216 -0.0593
C25 C 0.2629(5) 0.0040(4) 0.0363(3)
H17 H 0.1869 0.0024 0.0234
H18 H 0.2986 -0.0391 -0.0025
C26 C 0.3059(5) 0.0959(4) 0.0206(4)
H19 H 0.2836 0.1170 -0.0384
H20 H 0.2773 0.1369 0.0654
C27 C 0.4594(5) 0.1833(4) 0.0117(4)
H21 H 0.4278 0.2249 0.0546
H22 H 0.4418 0.2039 -0.0485
C28 C 0.5756(5) 0.1825(4) 0.0231(4)
H23 H 0.6030 0.2436 0.0211
H24 H 0.5938 0.1567 0.0812
C29 C 0.7336(5) 0.1283(4) -0.0377(4)
H25 H 0.7532 0.0919 0.0140
H26 H 0.7609 0.1888 -0.0284
C30 C 0.7805(5) 0.0894(4) -0.1207(4)
H27 H 0.8573 0.0835 -0.1142
H28 H 0.7507 0.0301 -0.1320
H29 H 0.674(4) 0.257(3) -0.214(3)
H30 H 0.346(4) 0.038(4) 0.227(2)
loop_
_geom_bond_atom_site_label_1
_geom_bond_atom_site_label_2
_geom_bond_site_symmetry_1
_geom_bond_site_symmetry_2
N1 C20 1_555 1_555
N2 C13 1_555 1_555
N3 C8 1_555 1_555
N4 C1 1_555 1_555
O1 C1 1_555 1_555
O2 C3 1_555 1_555
O3 C13 1_555 1_555
O4 C15 1_555 1_555
O5 C26 1_555 1_555
O6 C28 1_555 1_555
C1 C2 1_555 1_555
C2 C3 1_555 1_555
C3 C4 1_555 1_555
C4 H1 1_555 1_555
C5 C4 1_555 1_555
H2 C5 1_555 1_555
C6 C5 1_555 1_555
H3 C6 1_555 1_555
C7 C2 1_555 1_555
H4 C7 1_555 1_555
C8 N4 1_555 1_555
C9 C8 1_555 1_555
H5 C9 1_555 1_555
C10 C9 1_555 1_555
H6 C10 1_555 1_555
C11 C10 1_555 1_555
H7 C11 1_555 1_555
C12 N3 1_555 1_555
H8 C12 1_555 1_555
C13 C14 1_555 1_555
C14 C15 1_555 1_555
C15 C16 1_555 1_555
C16 H9 1_555 1_555
C17 C16 1_555 1_555
H10 C17 1_555 1_555
C18 C17 1_555 1_555
H11 C18 1_555 1_555
C19 C14 1_555 1_555
H12 C19 1_555 1_555
C20 N2 1_555 1_555
C21 C20 1_555 1_555
H13 C21 1_555 1_555
C22 C21 1_555 1_555
H14 C22 1_555 1_555
C23 C22 1_555 1_555
H15 C23 1_555 1_555
C24 N1 1_555 1_555
H16 C24 1_555 1_555
C25 O2 1_555 1_555
H17 C25 1_555 1_555
H18 C25 1_555 1_555
C26 C25 1_555 1_555
H19 C26 1_555 1_555
H20 C26 1_555 1_555
C27 O5 1_555 1_555
H21 C27 1_555 1_555
H22 C27 1_555 1_555
C28 C27 1_555 1_555
H23 C28 1_555 1_555
H24 C28 1_555 1_555
C29 O6 1_555 1_555
H25 C29 1_555 1_555
H26 C29 1_555 1_555
C30 O4 1_555 1_555
H27 C30 1_555 1_555
H28 C30 1_555 1_555
H29 N2 1_555 1_555
H30 N4 1_555 1_555
C6 C7 1_555 1_555
C11 C12 1_555 1_555
C18 C19 1_555 1_555
C23 C24 1_555 1_555
C29 C30 1_555 1_555

#END
