
#######################################################################
#
#                 Cambridge Crystallographic Data Centre
#                                CCDC 
#
#######################################################################
#
# If this CIF has been generated from an entry in the Cambridge 
# Structural Database, then it will include bibliographic, chemical, 
# crystal, experimental, refinement or atomic coordinate data resulting 
# from the CCDC's data processing and validation procedures.
#
#######################################################################

data_MEHQUN
_chemical_formula_moiety         'C12 H17 N1 O1'
_chemical_name_systematic        
2,2,4-Trimethyl-8-hydroxy-1,2,3,4-tetrahydroquinoline
_symmetry_cell_setting           monoclinic
_symmetry_space_group_name_H-M   'P 21/c'
_symmetry_Int_Tables_number      14
_space_group_name_Hall           '-P 2ybc'
loop_
_symmetry_equiv_pos_site_id
_symmetry_equiv_pos_as_xyz
1 x,y,z
2 -x,1/2+y,1/2-z
3 -x,-y,-z
4 x,1/2-y,1/2+z
_cell_length_a                   6.789(1)
_cell_length_b                   7.212(2)
_cell_length_c                   23.489(3)
_cell_angle_alpha                90
_cell_angle_beta                 105.84(5)
_cell_angle_gamma                90
_cell_volume                     1106.4
_exptl_crystal_colour            colorless
_chemical_melting_point          106-8deg.C
_cell_formula_units_Z            4
loop_
_atom_site_label
_atom_site_type_symbol
_atom_site_fract_x
_atom_site_fract_y
_atom_site_fract_z
O1 O 0.06650 -0.17280 0.24530
N1 N 0.15580 0.12190 0.19020
C1 C 0.01180 -0.00690 0.15680
C2 C -0.03940 -0.15880 0.18690
C3 C -0.18520 -0.28360 0.15800
C4 C -0.28260 -0.25750 0.09880
C5 C -0.23380 -0.10950 0.06860
C6 C -0.08520 0.01850 0.09670
C7 C -0.02430 0.17980 0.06340
C8 C 0.09480 0.32240 0.10600
C9 C 0.26130 0.24420 0.15740
C10 C -0.20280 0.26770 0.01830
C11 C 0.36250 0.39880 0.19960
C12 C 0.42150 0.13600 0.13630
H1 H 0.01300 -0.24300 0.26400
H2 H 0.24400 0.06900 0.22000
H3 H -0.21500 -0.38600 0.18100
H4 H -0.39700 -0.33700 0.07800
H5 H -0.30300 -0.08900 0.02600
H6 H 0.07700 0.13500 0.03800
H7 H 0.15900 0.40600 0.08200
H8 H -0.31000 0.30800 0.03300
H9 H -0.15000 0.36800 -0.00300
H10 H -0.27400 0.17800 -0.01500
H11 H 0.26300 0.47200 0.21600
H12 H 0.46200 0.34500 0.23500
H13 H 0.44200 0.47600 0.17900
H14 H 0.53700 0.10900 0.17100
H15 H 0.47100 0.21700 0.11000
H16 H 0.35500 0.02700 0.10700
loop_
_geom_bond_atom_site_label_1
_geom_bond_atom_site_label_2
_geom_bond_site_symmetry_1
_geom_bond_site_symmetry_2
O1 C2 1_555 1_555
N1 C1 1_555 1_555
C1 C2 1_555 1_555
C2 C3 1_555 1_555
C3 C4 1_555 1_555
C4 C5 1_555 1_555
C5 C6 1_555 1_555
C6 C1 1_555 1_555
C7 C6 1_555 1_555
C8 C7 1_555 1_555
C9 N1 1_555 1_555
C10 C7 1_555 1_555
C11 C9 1_555 1_555
C12 C9 1_555 1_555
H1 O1 1_555 1_555
H2 N1 1_555 1_555
H3 C3 1_555 1_555
H4 C4 1_555 1_555
H5 C5 1_555 1_555
H6 C7 1_555 1_555
H7 C8 1_555 1_555
H8 C10 1_555 1_555
H9 C10 1_555 1_555
H10 C10 1_555 1_555
H11 C11 1_555 1_555
H12 C11 1_555 1_555
H13 C11 1_555 1_555
H14 C12 1_555 1_555
H15 C12 1_555 1_555
H16 C12 1_555 1_555
C8 C9 1_555 1_555

#END
