
#######################################################################
#
#                 Cambridge Crystallographic Data Centre
#                                CCDC 
#
#######################################################################
#
# If this CIF has been generated from an entry in the Cambridge 
# Structural Database, then it will include bibliographic, chemical, 
# crystal, experimental, refinement or atomic coordinate data resulting 
# from the CCDC's data processing and validation procedures.
#
#######################################################################

data_MEHTEY01
_chemical_formula_moiety         'C11 H13 N1 O2'
_chemical_name_systematic        N-(2-Hydroxyphenyl)-4-amino-3-penten-2-one
_symmetry_cell_setting           orthorhombic
_symmetry_space_group_name_H-M   'P 21 21 21'
_symmetry_Int_Tables_number      19
_space_group_name_Hall           'P 2ac 2ab'
loop_
_symmetry_equiv_pos_site_id
_symmetry_equiv_pos_as_xyz
1 x,y,z
2 1/2-x,-y,1/2+z
3 1/2+x,1/2-y,-z
4 -x,1/2+y,1/2-z
_cell_length_a                   8.840(10)
_cell_length_b                   10.5250(10)
_cell_length_c                   11.2260(10)
_cell_angle_alpha                90
_cell_angle_beta                 90
_cell_angle_gamma                90
_cell_volume                     1044.48
_chemical_melting_point          '186-187 deg.C'
_cell_formula_units_Z            4
loop_
_atom_site_label
_atom_site_type_symbol
_atom_site_fract_x
_atom_site_fract_y
_atom_site_fract_z
O1 O 0.9196(2) 0.7926(1) 0.9610(1)
O2 O 0.5471(1) 0.8149(1) 0.8518(1)
N1 N 0.8025(2) 0.9224(1) 0.7827(1)
C1 C 1.0070(2) 0.8887(2) 0.9177(2)
C2 C 1.1468(2) 0.9197(2) 0.9647(2)
C3 C 1.2290(3) 1.0187(2) 0.9164(2)
C4 C 1.1711(3) 1.0875(2) 0.8230(3)
C5 C 1.0305(2) 1.0588(2) 0.7771(2)
C6 C 0.9491(2) 0.9574(2) 0.8218(2)
C7 C 0.7411(2) 0.9220(2) 0.6733(1)
C8 C 0.8311(3) 0.9674(3) 0.5692(2)
C9 C 0.5967(2) 0.8775(2) 0.6561(2)
C10 C 0.5057(2) 0.8234(2) 0.7443(2)
C11 C 0.3526(3) 0.7710(3) 0.7118(3)
loop_
_geom_bond_atom_site_label_1
_geom_bond_atom_site_label_2
_geom_bond_site_symmetry_1
_geom_bond_site_symmetry_2
O1 C1 1_555 1_555
O2 C10 1_555 1_555
N1 C6 1_555 1_555
C1 C2 1_555 1_555
C2 C3 1_555 1_555
C3 C4 1_555 1_555
C4 C5 1_555 1_555
C5 C6 1_555 1_555
C6 C1 1_555 1_555
C7 N1 1_555 1_555
C8 C7 1_555 1_555
C9 C7 1_555 1_555
C10 C9 1_555 1_555
C11 C10 1_555 1_555

#END
