
#######################################################################
#
#                 Cambridge Crystallographic Data Centre
#                                CCDC 
#
#######################################################################
#
# If this CIF has been generated from an entry in the Cambridge 
# Structural Database, then it will include bibliographic, chemical, 
# crystal, experimental, refinement or atomic coordinate data resulting 
# from the CCDC's data processing and validation procedures.
#
#######################################################################

data_MEHXEE
_chemical_formula_moiety         'C22 H25 N1 O4'
_chemical_name_systematic        
'Dimethyl (R)-1,4-dimethyl-3-(1-phenylethyl)-5,7-dihydro-6H-cyclopenta[c]pyridine-6,6-dicarboxylate'
_symmetry_cell_setting           orthorhombic
_symmetry_space_group_name_H-M   'P 21 21 21'
_symmetry_Int_Tables_number      19
_space_group_name_Hall           'P 2ac 2ab'
loop_
_symmetry_equiv_pos_site_id
_symmetry_equiv_pos_as_xyz
1 x,y,z
2 1/2+x,1/2-y,-z
3 -x,1/2+y,1/2-z
4 1/2-x,-y,1/2+z
_cell_length_a                   9.1978(2)
_cell_length_b                   13.4682(3)
_cell_length_c                   15.3589(3)
_cell_angle_alpha                90
_cell_angle_beta                 90
_cell_angle_gamma                90
_cell_volume                     1902.63
_exptl_crystal_colour            colorless
_exptl_crystal_description       block
_cell_formula_units_Z            4
_exptl_crystal_recrystallization_method 2-propanol
loop_
_atom_site_label
_atom_site_type_symbol
_atom_site_fract_x
_atom_site_fract_y
_atom_site_fract_z
O1 O 0.13976(16) 0.65547(9) 0.43918(8)
O2 O 0.17447(13) 0.51016(8) 0.37171(7)
O3 O 0.11837(16) 0.59946(9) 0.65111(9)
O4 O 0.33814(13) 0.63722(9) 0.60053(8)
N1 N 0.37111(15) 0.21972(9) 0.66075(8)
C1 C 0.42010(17) 0.29619(11) 0.61245(9)
C2 C 0.32348(17) 0.36371(11) 0.57605(9)
C3 C 0.35416(18) 0.45248(11) 0.51883(10)
C4 C 0.20873(17) 0.51198(11) 0.52424(10)
C5 C 0.09081(18) 0.43199(11) 0.54370(10)
C6 C 0.17535(17) 0.35179(11) 0.58961(10)
C7 C 0.12242(18) 0.27180(11) 0.63746(9)
C8 C 0.22762(17) 0.20783(11) 0.67298(9)
C9 C 0.58195(18) 0.30583(12) 0.60129(11)
C10 C -0.03915(18) 0.25686(11) 0.64767(11)
C11 C 0.17166(18) 0.56944(11) 0.44165(10)
C12 C 0.1338(2) 0.55755(13) 0.29099(10)
C13 C 0.21357(18) 0.58762(11) 0.59939(9)
C14 C 0.3556(2) 0.70936(13) 0.66951(12)
C15 C 0.18219(18) 0.11732(11) 0.72593(10)
C16 C 0.2920(2) 0.09118(12) 0.79739(10)
C17 C 0.15533(18) 0.02765(11) 0.66683(10)
C18 C 0.03969(19) -0.03618(11) 0.68350(11)
C19 C 0.0159(2) -0.11930(12) 0.63149(12)
C20 C 0.1068(3) -0.13936(12) 0.56171(11)
C21 C 0.2231(3) -0.07688(13) 0.54527(11)
C22 C 0.2471(3) 0.00587(13) 0.59713(11)
H1 H 0.3751 0.4324 0.4595
H2 H 0.4350 0.4911 0.5411
H3 H 0.0148 0.4585 0.5808
H4 H 0.0476 0.4073 0.4903
H5 H 0.6189 0.3535 0.6421
H6 H 0.6031 0.3275 0.5431
H7 H 0.6271 0.2426 0.6115
H8 H -0.0745 0.2983 0.6939
H9 H -0.0585 0.1886 0.6613
H10 H -0.0873 0.2742 0.5943
H11 H 0.1448 0.5113 0.2439
H12 H 0.1952 0.6141 0.2812
H13 H 0.0343 0.5787 0.2943
H14 H 0.2698 0.7497 0.6733
H15 H 0.4381 0.7507 0.6572
H16 H 0.3706 0.6755 0.7238
H17 H 0.0899 0.1334 0.7546
H18 H 0.3828 0.0726 0.7712
H19 H 0.2555 0.0368 0.8313
H20 H 0.3066 0.1478 0.8344
H21 H -0.0224 -0.0232 0.7299
H22 H -0.0614 -0.1616 0.6437
H23 H 0.0898 -0.1942 0.5263
H24 H 0.2856 -0.0905 0.4992
H25 H 0.3255 0.0474 0.5853
loop_
_geom_bond_atom_site_label_1
_geom_bond_atom_site_label_2
_geom_bond_site_symmetry_1
_geom_bond_site_symmetry_2
O1 C11 1_555 1_555
O2 C11 1_555 1_555
O3 C13 1_555 1_555
O4 C13 1_555 1_555
N1 C1 1_555 1_555
C1 C2 1_555 1_555
C2 C3 1_555 1_555
C3 C4 1_555 1_555
C4 C5 1_555 1_555
C5 C6 1_555 1_555
C6 C2 1_555 1_555
C7 C6 1_555 1_555
C8 N1 1_555 1_555
C9 C1 1_555 1_555
C10 C7 1_555 1_555
C11 C4 1_555 1_555
C12 O2 1_555 1_555
C13 C4 1_555 1_555
C14 O4 1_555 1_555
C15 C8 1_555 1_555
C16 C15 1_555 1_555
C17 C15 1_555 1_555
C18 C17 1_555 1_555
C19 C18 1_555 1_555
C20 C19 1_555 1_555
C21 C20 1_555 1_555
C22 C17 1_555 1_555
H1 C3 1_555 1_555
H2 C3 1_555 1_555
H3 C5 1_555 1_555
H4 C5 1_555 1_555
H5 C9 1_555 1_555
H6 C9 1_555 1_555
H7 C9 1_555 1_555
H8 C10 1_555 1_555
H9 C10 1_555 1_555
H10 C10 1_555 1_555
H11 C12 1_555 1_555
H12 C12 1_555 1_555
H13 C12 1_555 1_555
H14 C14 1_555 1_555
H15 C14 1_555 1_555
H16 C14 1_555 1_555
H17 C15 1_555 1_555
H18 C16 1_555 1_555
H19 C16 1_555 1_555
H20 C16 1_555 1_555
H21 C18 1_555 1_555
H22 C19 1_555 1_555
H23 C20 1_555 1_555
H24 C21 1_555 1_555
H25 C22 1_555 1_555
C7 C8 1_555 1_555
C21 C22 1_555 1_555

#END
