
#######################################################################
#
#                 Cambridge Crystallographic Data Centre
#                                CCDC 
#
#######################################################################
#
# If this CIF has been generated from an entry in the Cambridge 
# Structural Database, then it will include bibliographic, chemical, 
# crystal, experimental, refinement or atomic coordinate data resulting 
# from the CCDC's data processing and validation procedures.
#
#######################################################################

data_MEJCOU
_chemical_formula_moiety         'C13 H5 F1 N4,C10 H12 S8'
_chemical_name_systematic        
"4,4',5,5'-tetrakis(Methylthio)tetrathiofulvalene 2-fluoro-5-methyl-7,7,8,8-tetracyano-p-quinodimethane"
_symmetry_cell_setting           monoclinic
_symmetry_space_group_name_H-M   'P 21/n'
_symmetry_Int_Tables_number      14
_space_group_name_Hall           '-P 2yn'
loop_
_symmetry_equiv_pos_site_id
_symmetry_equiv_pos_as_xyz
1 x,y,z
2 1/2-x,1/2+y,1/2-z
3 -x,-y,-z
4 1/2+x,1/2-y,1/2+z
_cell_length_a                   8.885(3)
_cell_length_b                   13.954(5)
_cell_length_c                   11.800(3)
_cell_angle_alpha                90
_cell_angle_beta                 104.91(2)
_cell_angle_gamma                90
_cell_volume                     1413.72
_exptl_crystal_colour            black
_exptl_crystal_description       needle
_cell_formula_units_Z            2
loop_
_atom_site_label
_atom_site_type_symbol
_atom_site_fract_x
_atom_site_fract_y
_atom_site_fract_z
F1 F 0.3659(9) 0.6814(5) 0.5274(7)
N1 N 0.1379(13) 0.4510(9) 0.1417(9)
N2 N 0.1048(14) 0.7237(8) 0.2864(11)
C6 C 0.4318(12) 0.5923(8) 0.5122(9)
C7 C 0.5548(11) 0.5604(7) 0.6015(9)
C8 C 0.3711(12) 0.5346(7) 0.4052(10)
C9 C 0.2469(11) 0.5626(9) 0.3114(10)
C10 C 0.1865(14) 0.4995(10) 0.2162(11)
C11 C 0.1718(14) 0.6560(9) 0.3058(11)
H1 H 0.5943 0.5987 0.6692
F1B F 0.6341(9) 0.3186(5) 0.4726(7)
N1B N 0.8621(13) 0.5490(9) 0.8583(9)
N2B N 0.8952(14) 0.2763(8) 0.7136(11)
C6B C 0.5682(12) 0.4077(8) 0.4878(9)
C7B C 0.4452(11) 0.4396(7) 0.3985(9)
C8B C 0.6289(12) 0.4654(7) 0.5948(10)
C9B C 0.7531(11) 0.4374(9) 0.6886(10)
C10B C 0.8135(14) 0.5005(10) 0.7838(11)
C11B C 0.8282(14) 0.3440(9) 0.6942(11)
H1B H 0.4057 0.4013 0.3308
S1 S 0.1203(3) 0.3624(2) 0.5024(2)
S2 S 0.1638(3) 0.5222(2) 0.6733(2)
S3 S 0.3844(3) 0.2482(2) 0.6563(2)
S4 S 0.4287(3) 0.4286(2) 0.8424(2)
C1 C 0.0617(10) 0.4760(7) 0.5383(9)
C2 C 0.2697(11) 0.3505(7) 0.6350(9)
C3 C 0.2876(11) 0.4226(7) 0.7103(9)
C4 C 0.3044(12) 0.1736(7) 0.5337(10)
C5 C 0.3229(13) 0.3774(9) 0.9396(9)
S1B S -0.1203(3) 0.6376(2) 0.4976(2)
S2B S -0.1638(3) 0.4778(2) 0.3267(2)
S3B S -0.3844(3) 0.7518(2) 0.3437(2)
S4B S -0.4287(3) 0.5714(2) 0.1576(2)
C1B C -0.0617(10) 0.5240(7) 0.4617(9)
C2B C -0.2697(11) 0.6495(7) 0.3650(9)
C3B C -0.2876(11) 0.5774(7) 0.2897(9)
C4B C -0.3044(12) 0.8264(7) 0.4663(10)
C5B C -0.3229(13) 0.6226(9) 0.0604(9)
loop_
_geom_bond_atom_site_label_1
_geom_bond_atom_site_label_2
_geom_bond_site_symmetry_1
_geom_bond_site_symmetry_2
S1 C1 1_555 1_555
S2 C1 1_555 1_555
S3 C2 1_555 1_555
S4 C3 1_555 1_555
F1 C6 1_555 1_555
N1 C10 1_555 1_555
N2 C11 1_555 1_555
C1 C1B 1_555 1_555
C2 S1 1_555 1_555
C3 S2 1_555 1_555
C4 S3 1_555 1_555
C5 S4 1_555 1_555
C6 C7 1_555 1_555
C7 H1 1_555 1_555
C8 C6 1_555 1_555
C9 C8 1_555 1_555
C10 C9 1_555 1_555
C11 C9 1_555 1_555
S1B C1B 1_555 1_555
S2B C1B 1_555 1_555
S3B C2B 1_555 1_555
S4B C3B 1_555 1_555
F1B C6B 1_555 1_555
N1B C10B 1_555 1_555
N2B C11B 1_555 1_555
C2B S1B 1_555 1_555
C3B S2B 1_555 1_555
C4B S3B 1_555 1_555
C5B S4B 1_555 1_555
C6B C7B 1_555 1_555
C7B C8 1_555 1_555
C8B C7 1_555 1_555
C9B C8B 1_555 1_555
C10B C9B 1_555 1_555
C11B C9B 1_555 1_555
H1B C7B 1_555 1_555
C2 C3 1_555 1_555
C2B C3B 1_555 1_555
C6B C8B 1_555 1_555

#END
