
#######################################################################
#
#                 Cambridge Crystallographic Data Centre
#                                CCDC 
#
#######################################################################
#
# If this CIF has been generated from an entry in the Cambridge 
# Structural Database, then it will include bibliographic, chemical, 
# crystal, experimental, refinement or atomic coordinate data resulting 
# from the CCDC's data processing and validation procedures.
#
#######################################################################

data_MEJDEK
_chemical_formula_moiety         'C18 H25 N3 O3'
_chemical_name_systematic        
(2R*,4S*)-5,5-Dimethyl-3-methylene-4-methoxy-2-(4'-phenyl-1',2',4'-triazolidine-3',5'-dion-1'-yl)hexane
_symmetry_cell_setting           triclinic
_symmetry_space_group_name_H-M   'P -1'
_symmetry_Int_Tables_number      2
_space_group_name_Hall           '-P 1'
loop_
_symmetry_equiv_pos_site_id
_symmetry_equiv_pos_as_xyz
1 x,y,z
2 -x,-y,-z
_cell_length_a                   6.193(2)
_cell_length_b                   11.773(3)
_cell_length_c                   12.927(3)
_cell_angle_alpha                81.86(2)
_cell_angle_beta                 85.12(3)
_cell_angle_gamma                77.82(3)
_cell_volume                     910.527
_exptl_crystal_colour            colorless
_exptl_crystal_description       columnar
_chemical_melting_point          '134-135 deg.C'
_cell_formula_units_Z            2
loop_
_atom_site_label
_atom_site_type_symbol
_atom_site_fract_x
_atom_site_fract_y
_atom_site_fract_z
O1 O 0.6054(4) 0.1178(2) 0.7450(2)
O2 O 0.0475(4) -0.0733(2) 0.8793(2)
O3 O -0.0144(4) 0.3844(2) 0.7001(2)
N1 N 0.3429(4) 0.0001(2) 0.7899(2)
N2 N 0.3695(4) 0.1292(2) 0.8937(2)
N3 N 0.1845(5) 0.0790(2) 0.9266(2)
C1 C 0.2489(7) -0.1167(3) 0.5505(3)
C2 C 0.4596(8) -0.1744(3) 0.5243(3)
C3 C 0.6277(7) -0.1780(3) 0.5871(3)
C4 C 0.5909(6) -0.1230(3) 0.6766(3)
C5 C 0.3801(5) -0.0635(2) 0.7007(2)
C6 C 0.2065(6) -0.0600(3) 0.6396(3)
C7 C 0.4590(5) 0.0865(3) 0.8030(2)
C8 C 0.1738(6) -0.0047(3) 0.8667(2)
C9 C 0.3631(5) 0.2516(3) 0.9125(2)
C10 C 0.3877(7) 0.2553(3) 1.0276(3)
C11 C 0.1591(5) 0.3320(3) 0.8674(2)
C12 C -0.0299(6) 0.3527(3) 0.9233(3)
C13 C 0.1801(5) 0.3813(3) 0.7526(2)
C14 C 0.2280(5) 0.5067(3) 0.7308(3)
C15 C 0.4272(7) 0.5137(3) 0.7888(4)
C16 C 0.2775(9) 0.5333(4) 0.6135(3)
C17 C 0.0295(6) 0.5971(3) 0.7654(4)
C18 C -0.0334(8) 0.2733(4) 0.6756(3)
H1 H 0.0862 0.0999 0.9794
H2 H 0.1303 -0.1154 0.5069
H3 H 0.4880 -0.2118 0.4618
H4 H 0.7734 -0.2201 0.5690
H5 H 0.7092 -0.1258 0.7209
H6 H 0.0601 -0.0191 0.6580
H7 H 0.4892 0.2757 0.8743
H8 H 0.5212 0.2023 1.0490
H9 H 0.3951 0.3333 1.0385
H10 H 0.2632 0.2322 1.0682
H11 H -0.1590 0.4007 0.8921
H12 H -0.0380 0.3200 0.9956
H13 H 0.3001 0.3306 0.7196
H14 H 0.3954 0.4979 0.8628
H15 H 0.5514 0.4562 0.7676
H16 H 0.4616 0.5903 0.7726
H17 H 0.1516 0.5302 0.5763
H18 H 0.3122 0.6098 0.5977
H19 H 0.4019 0.4757 0.5928
H20 H -0.0023 0.5804 0.8394
H21 H 0.0639 0.6737 0.7501
H22 H -0.0971 0.5944 0.7286
H23 H -0.1683 0.2821 0.6411
H24 H 0.0899 0.2434 0.6302
H25 H -0.0367 0.2198 0.7388
loop_
_geom_bond_atom_site_label_1
_geom_bond_atom_site_label_2
_geom_bond_site_symmetry_1
_geom_bond_site_symmetry_2
O1 C7 1_555 1_555
O2 C8 1_555 1_555
O3 C13 1_555 1_555
N1 C5 1_555 1_555
N2 N3 1_555 1_555
N3 C8 1_555 1_555
C1 C2 1_555 1_555
C2 C3 1_555 1_555
C3 C4 1_555 1_555
C4 C5 1_555 1_555
C5 C6 1_555 1_555
C6 C1 1_555 1_555
C7 N1 1_555 1_555
C8 N1 1_555 1_555
C9 N2 1_555 1_555
C10 C9 1_555 1_555
C11 C9 1_555 1_555
C12 C11 1_555 1_555
C13 C11 1_555 1_555
C14 C13 1_555 1_555
C15 C14 1_555 1_555
C16 C14 1_555 1_555
C17 C14 1_555 1_555
C18 O3 1_555 1_555
H1 N3 1_555 1_555
H2 C1 1_555 1_555
H3 C2 1_555 1_555
H4 C3 1_555 1_555
H5 C4 1_555 1_555
H6 C6 1_555 1_555
H7 C9 1_555 1_555
H8 C10 1_555 1_555
H9 C10 1_555 1_555
H10 C10 1_555 1_555
H11 C12 1_555 1_555
H12 C12 1_555 1_555
H13 C13 1_555 1_555
H14 C15 1_555 1_555
H15 C15 1_555 1_555
H16 C15 1_555 1_555
H17 C16 1_555 1_555
H18 C16 1_555 1_555
H19 C16 1_555 1_555
H20 C17 1_555 1_555
H21 C17 1_555 1_555
H22 C17 1_555 1_555
H23 C18 1_555 1_555
H24 C18 1_555 1_555
H25 C18 1_555 1_555
N2 C7 1_555 1_555

#END
