
#######################################################################
#
#                 Cambridge Crystallographic Data Centre
#                                CCDC 
#
#######################################################################
#
# If this CIF has been generated from an entry in the Cambridge 
# Structural Database, then it will include bibliographic, chemical, 
# crystal, experimental, refinement or atomic coordinate data resulting 
# from the CCDC's data processing and validation procedures.
#
#######################################################################

data_MEJDEN
_chemical_formula_moiety         'C16 H11 Cl1 N2 O2'
_chemical_name_systematic        
'2-aminoquinolin-8-yl 4-chlorobenzoate unknown solvate'
_symmetry_cell_setting           triclinic
_symmetry_space_group_name_H-M   'P -1'
_symmetry_Int_Tables_number      2
_space_group_name_Hall           '-P 1'
loop_
_symmetry_equiv_pos_site_id
_symmetry_equiv_pos_as_xyz
1 x,y,z
2 -x,-y,-z
_cell_length_a                   10.2425(2)
_cell_length_b                   11.2220(3)
_cell_length_c                   13.7847(3)
_cell_angle_alpha                112.293(2)
_cell_angle_beta                 92.6647(18)
_cell_angle_gamma                104.094(2)
_cell_volume                     1404.75
_exptl_crystal_colour            colorless
_exptl_crystal_description       block
_cell_formula_units_Z            4
loop_
_atom_site_label
_atom_site_type_symbol
_atom_site_fract_x
_atom_site_fract_y
_atom_site_fract_z
Cl1 Cl 0.54638(7) 0.70274(7) 0.05419(4)
O1 O 0.49642(10) 0.80251(10) 0.55657(8)
O2 O 0.63978(14) 0.67511(13) 0.52743(9)
N1 N 0.29678(11) 0.65353(12) 0.62624(9)
N2 N 0.09174(13) 0.49476(15) 0.59217(11)
H1 H 0.0914 0.4744 0.5254
H2 H 0.0253 0.4532 0.6138
C1 C 0.63477(19) 0.94288(18) 0.84034(14)
H3 H 0.7120 1.0051 0.8865
C2 C 0.62219(17) 0.91637(16) 0.73176(13)
H4 H 0.6899 0.9630 0.7062
C3 C 0.51096(14) 0.82244(15) 0.66393(11)
C4 C 0.40466(14) 0.74893(13) 0.69817(11)
C5 C 0.41673(16) 0.78094(15) 0.80881(11)
C6 C 0.53321(19) 0.87691(17) 0.87793(13)
H5 H 0.5411 0.8956 0.9501
C7 C 0.19646(14) 0.59199(15) 0.66305(12)
C8 C 0.19637(16) 0.62335(17) 0.77383(13)
H6 H 0.1221 0.5814 0.7971
C9 C 0.30461(18) 0.71397(17) 0.84381(12)
H7 H 0.3063 0.7331 0.9158
C10 C 0.57200(14) 0.72999(14) 0.49569(11)
C11 C 0.56305(13) 0.72711(14) 0.38736(11)
C12 C 0.48596(13) 0.79429(14) 0.35399(11)
H8 H 0.4374 0.8441 0.4005
C13 C 0.48146(15) 0.78698(15) 0.25127(12)
H9 H 0.4296 0.8314 0.2283
C14 C 0.55430(17) 0.71347(17) 0.18372(12)
C15 C 0.63232(19) 0.6469(2) 0.21549(14)
H10 H 0.6815 0.5980 0.1689
C16 C 0.63629(18) 0.65411(19) 0.31756(13)
H11 H 0.6886 0.6096 0.3400
Cl2 Cl 0.03392(9) 0.90690(8) 0.87853(5)
O3 O 0.02560(10) 0.79920(11) 0.36979(9)
O4 O 0.23838(11) 0.93758(11) 0.43198(10)
N3 N 0.16604(10) 0.61523(11) 0.32588(8)
N4 N 0.27352(14) 0.49525(14) 0.38634(11)
H12 H 0.2961 0.5676 0.4436
H13 H 0.3427 0.4641 0.3734
C17 C 0.0536(2) 0.7336(2) 0.08992(16)
H14 H 0.0290 0.7624 0.0386
C18 C 0.02209(19) 0.78949(18) 0.19226(17)
H15 H -0.0247 0.8543 0.2087
C19 C 0.06018(14) 0.74851(15) 0.26793(12)
C20 C 0.12974(12) 0.64958(13) 0.24575(10)
C21 C 0.15858(15) 0.59202(15) 0.14175(11)
C22 C 0.12011(19) 0.63744(19) 0.06543(13)
H16 H 0.1406 0.6009 -0.0028
C23 C 0.23308(13) 0.52362(14) 0.30461(11)
C24 C 0.26052(17) 0.45486(16) 0.20046(13)
H17 H 0.3030 0.3870 0.1871
C25 C 0.22423(17) 0.48926(18) 0.12175(13)
H18 H 0.2424 0.4453 0.0538
C26 C 0.13249(14) 0.88057(14) 0.44891(13)
C27 C 0.10207(15) 0.88762(14) 0.55429(13)
C28 C -0.02692(17) 0.83359(17) 0.57203(15)
H19 H -0.0997 0.7939 0.5166
C29 C -0.0478(2) 0.83843(19) 0.67122(18)
H20 H -0.1343 0.8023 0.6831
C30 C 0.0608(2) 0.89726(18) 0.75270(16)
C31 C 0.1900(2) 0.9518(2) 0.73742(16)
H21 H 0.2625 0.9911 0.7931
C32 C 0.20942(17) 0.94671(17) 0.63772(14)
H22 H 0.2960 0.9835 0.6263
loop_
_geom_bond_atom_site_label_1
_geom_bond_atom_site_label_2
_geom_bond_site_symmetry_1
_geom_bond_site_symmetry_2
Cl1 C14 1_555 1_555
O1 C3 1_555 1_555
O2 C10 1_555 1_555
N1 C4 1_555 1_555
N2 H1 1_555 1_555
H2 N2 1_555 1_555
C1 H3 1_555 1_555
C2 C1 1_555 1_555
H4 C2 1_555 1_555
C3 C2 1_555 1_555
C4 C3 1_555 1_555
C5 C4 1_555 1_555
C6 C1 1_555 1_555
H5 C6 1_555 1_555
C7 N1 1_555 1_555
C8 C7 1_555 1_555
H6 C8 1_555 1_555
C9 C5 1_555 1_555
H7 C9 1_555 1_555
C10 O1 1_555 1_555
C11 C10 1_555 1_555
C12 C11 1_555 1_555
H8 C12 1_555 1_555
C13 C12 1_555 1_555
H9 C13 1_555 1_555
C14 C13 1_555 1_555
C15 C14 1_555 1_555
H10 C15 1_555 1_555
C16 C11 1_555 1_555
H11 C16 1_555 1_555
Cl2 C30 1_555 1_555
O3 C19 1_555 1_555
O4 C26 1_555 1_555
N3 C20 1_555 1_555
N4 H12 1_555 1_555
H13 N4 1_555 1_555
C17 H14 1_555 1_555
C18 C17 1_555 1_555
H15 C18 1_555 1_555
C19 C18 1_555 1_555
C20 C19 1_555 1_555
C21 C20 1_555 1_555
C22 C17 1_555 1_555
H16 C22 1_555 1_555
C23 N3 1_555 1_555
C24 C23 1_555 1_555
H17 C24 1_555 1_555
C25 C21 1_555 1_555
H18 C25 1_555 1_555
C26 O3 1_555 1_555
C27 C26 1_555 1_555
C28 C27 1_555 1_555
H19 C28 1_555 1_555
C29 C28 1_555 1_555
H20 C29 1_555 1_555
C30 C29 1_555 1_555
C31 C30 1_555 1_555
H21 C31 1_555 1_555
C32 C27 1_555 1_555
H22 C32 1_555 1_555
N2 C7 1_555 1_555
C5 C6 1_555 1_555
C8 C9 1_555 1_555
C15 C16 1_555 1_555
N4 C23 1_555 1_555
C21 C22 1_555 1_555
C24 C25 1_555 1_555
C31 C32 1_555 1_555

#END
