
#######################################################################
#
#                 Cambridge Crystallographic Data Centre
#                                CCDC 
#
#######################################################################
#
# If this CIF has been generated from an entry in the Cambridge 
# Structural Database, then it will include bibliographic, chemical, 
# crystal, experimental, refinement or atomic coordinate data resulting 
# from the CCDC's data processing and validation procedures.
#
#######################################################################

data_MEJNAR
_chemical_formula_moiety         'C25 H31 N1 O2'
_chemical_name_systematic        
(S*)-4-(Isopropylidene)-3-((4R*)-4-(4-methoxyphenylamino)-4-phenyl-(1E)-but-1-enyl)tetrahydropyran
_symmetry_cell_setting           triclinic
_symmetry_space_group_name_H-M   'P -1'
_symmetry_Int_Tables_number      2
_space_group_name_Hall           '-P 1'
loop_
_symmetry_equiv_pos_site_id
_symmetry_equiv_pos_as_xyz
1 x,y,z
2 -x,-y,-z
_cell_length_a                   8.8531(8)
_cell_length_b                   10.122(2)
_cell_length_c                   12.351(2)
_cell_angle_alpha                85.224(5)
_cell_angle_beta                 85.589(3)
_cell_angle_gamma                76.189(2)
_cell_volume                     1069.19
_exptl_crystal_description       block
_cell_formula_units_Z            2
loop_
_atom_site_label
_atom_site_type_symbol
_atom_site_fract_x
_atom_site_fract_y
_atom_site_fract_z
O1 O 0.2581(2) 0.2530(2) 0.9429(1)
O2 O -0.4070(4) 1.2984(3) 0.5898(4)
N1 N -0.3014(2) 0.7791(2) 0.8032(2)
C1 C 0.2834(3) 0.1214(3) 0.8998(2)
C2 C 0.1582(3) 0.1177(3) 0.8250(2)
C3 C 0.1465(2) 0.2289(2) 0.7347(2)
C4 C 0.1414(2) 0.3662(2) 0.7773(2)
C5 C 0.2677(3) 0.3533(3) 0.8564(2)
C6 C 0.1383(2) 0.2083(3) 0.6301(2)
C7 C 0.1326(4) 0.3175(3) 0.5391(2)
C8 C 0.1332(3) 0.0717(3) 0.5913(2)
C9 C -0.0185(3) 0.4258(2) 0.8294(2)
C10 C -0.1399(3) 0.4894(3) 0.7797(2)
C11 C -0.3016(3) 0.5397(3) 0.8295(2)
C12 C -0.3862(2) 0.6793(2) 0.7800(2)
C13 C -0.5574(2) 0.7107(2) 0.8197(2)
C14 C -0.6710(3) 0.7015(3) 0.7521(3)
C15 C -0.8275(3) 0.7234(3) 0.7911(3)
C16 C -0.8689(3) 0.7534(3) 0.8963(3)
C17 C -0.7574(3) 0.7641(3) 0.9635(3)
C18 C -0.6024(3) 0.7428(2) 0.9257(2)
C19 C -0.3310(2) 0.9099(2) 0.7527(2)
C20 C -0.4365(3) 0.9533(3) 0.6720(2)
C21 C -0.4566(4) 1.0819(3) 0.6207(3)
C22 C -0.3738(4) 1.1705(3) 0.6481(3)
C23 C -0.2709(4) 1.1309(4) 0.7272(4)
C24 C -0.2486(3) 1.0022(3) 0.7800(3)
C25 C -0.3141(9) 1.3597(7) 0.5651(6)
H1 H 0.286(3) 0.058(3) 0.965(2)
H2 H 0.391(3) 0.103(3) 0.861(2)
H3 H 0.189(3) 0.029(3) 0.794(2)
H4 H 0.055(3) 0.128(3) 0.869(2)
H5 H 0.160(2) 0.429(2) 0.718(2)
H6 H 0.255(3) 0.435(3) 0.892(2)
H7 H 0.376(3) 0.329(2) 0.816(2)
H8 H 0.0432 0.3906 0.5511
H9 H 0.2238 0.3535 0.5373
H10 H 0.1276 0.2822 0.4714
H11 H 0.1285 0.0784 0.5130
H12 H 0.2250 0.0046 0.6093
H13 H 0.0445 0.0431 0.6227
H14 H -0.032(3) 0.421(3) 0.901(2)
H15 H -0.129(4) 0.500(4) 0.702(3)
H16 H -0.295(2) 0.546(2) 0.911(2)
H17 H -0.363(3) 0.478(3) 0.820(2)
H18 H -0.384(2) 0.672(2) 0.698(2)
H19 H -0.645(3) 0.679(3) 0.673(2)
H20 H -0.899(3) 0.718(3) 0.742(2)
H21 H -0.983(3) 0.767(3) 0.917(2)
H22 H -0.787(3) 0.789(3) 1.039(3)
H23 H -0.526(3) 0.752(3) 0.975(2)
H24 H -0.278(3) 0.768(3) 0.866(2)
H25 H -0.496(3) 0.894(2) 0.652(2)
H26 H -0.526(3) 1.110(3) 0.567(2)
H27 H -0.210(4) 1.182(3) 0.747(3)
H28 H -0.175(3) 0.969(3) 0.831(2)
H29 H -0.2315 1.3118 0.5128
H30 H -0.2584 1.3795 0.6230
H31 H -0.3557 1.4475 0.5254
loop_
_geom_bond_atom_site_label_1
_geom_bond_atom_site_label_2
_geom_bond_site_symmetry_1
_geom_bond_site_symmetry_2
O1 C1 1_555 1_555
O2 C22 1_555 1_555
N1 C12 1_555 1_555
C1 C2 1_555 1_555
C2 C3 1_555 1_555
C3 C4 1_555 1_555
C4 C5 1_555 1_555
C5 O1 1_555 1_555
C6 C3 1_555 1_555
C7 C6 1_555 1_555
C8 C6 1_555 1_555
C9 C4 1_555 1_555
C10 C9 1_555 1_555
C11 C10 1_555 1_555
C12 C11 1_555 1_555
C13 C12 1_555 1_555
C14 C13 1_555 1_555
C15 C14 1_555 1_555
C16 C15 1_555 1_555
C17 C16 1_555 1_555
C18 C13 1_555 1_555
C19 N1 1_555 1_555
C20 C19 1_555 1_555
C21 C20 1_555 1_555
C22 C21 1_555 1_555
C23 C22 1_555 1_555
C24 C19 1_555 1_555
C25 O2 1_555 1_555
H1 C1 1_555 1_555
H2 C1 1_555 1_555
H3 C2 1_555 1_555
H4 C2 1_555 1_555
H5 C4 1_555 1_555
H6 C5 1_555 1_555
H7 C5 1_555 1_555
H8 C7 1_555 1_555
H9 C7 1_555 1_555
H10 C7 1_555 1_555
H11 C8 1_555 1_555
H12 C8 1_555 1_555
H13 C8 1_555 1_555
H14 C9 1_555 1_555
H15 C10 1_555 1_555
H16 C11 1_555 1_555
H17 C11 1_555 1_555
H18 C12 1_555 1_555
H19 C14 1_555 1_555
H20 C15 1_555 1_555
H21 C16 1_555 1_555
H22 C17 1_555 1_555
H23 C18 1_555 1_555
H24 N1 1_555 1_555
H25 C20 1_555 1_555
H26 C21 1_555 1_555
H27 C23 1_555 1_555
H28 C24 1_555 1_555
H29 C25 1_555 1_555
H30 C25 1_555 1_555
H31 C25 1_555 1_555
C17 C18 1_555 1_555
C23 C24 1_555 1_555

#END
