
#######################################################################
#
#                 Cambridge Crystallographic Data Centre
#                                CCDC 
#
#######################################################################
#
# If this CIF has been generated from an entry in the Cambridge 
# Structural Database, then it will include bibliographic, chemical, 
# crystal, experimental, refinement or atomic coordinate data resulting 
# from the CCDC's data processing and validation procedures.
#
#######################################################################

data_MEJPIB
_chemical_formula_moiety         'C8 H8 Cl1 N1 O1'
_chemical_name_systematic        N-(2-Chlorophenyl)acetamide
_symmetry_cell_setting           orthorhombic
_symmetry_space_group_name_H-M   'P b c a'
_symmetry_Int_Tables_number      61
_space_group_name_Hall           '-P 2ac 2ab'
loop_
_symmetry_equiv_pos_site_id
_symmetry_equiv_pos_as_xyz
1 x,y,z
2 1/2-x,-y,1/2+z
3 -x,1/2+y,1/2-z
4 1/2+x,1/2-y,-z
5 -x,-y,-z
6 1/2+x,y,1/2-z
7 x,1/2-y,1/2+z
8 1/2-x,1/2+y,z
_cell_length_a                   10.516(2)
_cell_length_b                   9.5540(19)
_cell_length_c                   16.670(3)
_cell_angle_alpha                90
_cell_angle_beta                 90
_cell_angle_gamma                90
_cell_volume                     1674.83
_exptl_crystal_colour            colorless
_exptl_crystal_description       block
_chemical_melting_point          90-91deg.C
_cell_formula_units_Z            8
loop_
_atom_site_label
_atom_site_type_symbol
_atom_site_fract_x
_atom_site_fract_y
_atom_site_fract_z
Cl1 Cl 0.96758(6) 0.19712(7) 0.73117(4)
O1 O 0.77707(15) -0.21268(17) 0.59491(11)
N1 N 0.84393(18) 0.01140(19) 0.60963(10)
H1 H 0.8212(19) 0.0970(19) 0.6097(10)
C1 C 1.0419(2) 0.0650(2) 0.67673(12)
C2 C 1.1695(2) 0.0428(3) 0.68913(15)
H2 H 1.2142 0.0986 0.7251
C3 C 1.2305(3) -0.0621(3) 0.64836(18)
H3 H 1.3164 -0.0785 0.6577
C4 C 1.1657(2) -0.1435(3) 0.59361(16)
H4 H 1.2078 -0.2140 0.5658
C5 C 1.0380(2) -0.1197(2) 0.58039(13)
H5 H 0.9944 -0.1739 0.5432
C6 C 0.9741(2) -0.0153(2) 0.62224(11)
C7 C 0.7549(3) -0.0864(3) 0.59502(13)
C8 C 0.6239(2) -0.0306(2) 0.57894(15)
H6 H 0.6250 0.0697 0.5825
H7 H 0.5657 -0.0676 0.6179
H8 H 0.5974 -0.0582 0.5262
loop_
_geom_bond_atom_site_label_1
_geom_bond_atom_site_label_2
_geom_bond_site_symmetry_1
_geom_bond_site_symmetry_2
Cl1 C1 1_555 1_555
O1 C7 1_555 1_555
N1 H1 1_555 1_555
C1 C2 1_555 1_555
C2 H2 1_555 1_555
C3 C2 1_555 1_555
H3 C3 1_555 1_555
C4 C3 1_555 1_555
H4 C4 1_555 1_555
C5 C4 1_555 1_555
H5 C5 1_555 1_555
C6 N1 1_555 1_555
C7 N1 1_555 1_555
C8 C7 1_555 1_555
H6 C8 1_555 1_555
H7 C8 1_555 1_555
H8 C8 1_555 1_555
C1 C6 1_555 1_555
C5 C6 1_555 1_555

#END
