
#######################################################################
#
#                 Cambridge Crystallographic Data Centre
#                                CCDC 
#
#######################################################################
#
# If this CIF has been generated from an entry in the Cambridge 
# Structural Database, then it will include bibliographic, chemical, 
# crystal, experimental, refinement or atomic coordinate data resulting 
# from the CCDC's data processing and validation procedures.
#
#######################################################################

data_MEKKOC
_chemical_formula_moiety         '3(C8 H20 N1 1+),C9 H3 O6 3-,C3 H6 O1'
_chemical_name_systematic        
'tris(Di-t-butylammonium) trimesate acetone clathrate'
_symmetry_cell_setting           monoclinic
_symmetry_space_group_name_H-M   'P 21/n'
_symmetry_Int_Tables_number      14
_space_group_name_Hall           '-P 2yn'
loop_
_symmetry_equiv_pos_site_id
_symmetry_equiv_pos_as_xyz
1 x,y,z
2 1/2+x,1/2-y,1/2+z
3 -x,-y,-z
4 1/2-x,1/2+y,1/2-z
_cell_length_a                   9.7487(6)
_cell_length_b                   18.492(2)
_cell_length_c                   23.164(2)
_cell_angle_alpha                90
_cell_angle_beta                 101.641(3)
_cell_angle_gamma                90
_cell_volume                     4089.95
_exptl_crystal_colour            colorless
_exptl_crystal_description       block
_cell_formula_units_Z            4
_exptl_crystal_recrystallization_method acetone/isopropanol
loop_
_atom_site_label
_atom_site_type_symbol
_atom_site_fract_x
_atom_site_fract_y
_atom_site_fract_z
O1 O 1.2801(3) 0.65275(13) 0.22128(13)
O2 O 1.1203(3) 0.70368(14) 0.15625(14)
O3 O 0.6976(2) 0.56518(11) 0.06675(9)
O4 O 0.6574(2) 0.45852(12) 0.10521(10)
O5 O 0.9766(2) 0.36738(11) 0.28333(9)
O6 O 1.1615(2) 0.43446(11) 0.32413(10)
C1 C 1.0675(3) 0.59098(14) 0.19242(12)
C2 C 0.9452(3) 0.58292(14) 0.14999(12)
H7 H 0.9209(3) 0.61855(14) 0.12013(12)
C3 C 0.8582(3) 0.52377(14) 0.15061(12)
C4 C 0.8932(3) 0.47272(14) 0.19554(12)
H8 H 0.8333(3) 0.43243(14) 0.19662(12)
C5 C 1.0139(3) 0.47976(14) 0.23865(12)
C6 C 1.1002(3) 0.53886(15) 0.23590(12)
H9 H 1.1842(3) 0.54366(15) 0.26469(12)
C7 C 1.1628(3) 0.6543(2) 0.19033(14)
C8 C 0.7275(3) 0.5155(2) 0.10364(13)
C9 C 1.0522(3) 0.4225(2) 0.28539(13)
N1 N 0.3944(3) 0.42017(12) 0.05172(12)
H1 H 0.3678(31) 0.4291(16) 0.0078(16)
H2 H 0.4854(33) 0.4378(15) 0.0654(13)
C10 C 0.2979(3) 0.4674(2) 0.08042(13)
C11 C 0.4099(3) 0.33825(15) 0.05667(12)
C12 C 0.3419(4) 0.4663(2) 0.14737(15)
H10 H 0.4440(5) 0.4706(13) 0.15868(15)
H11 H 0.3119(22) 0.4207(6) 0.1625(2)
H12 H 0.2980(21) 0.5069(8) 0.1640(2)
C13 C 0.1440(3) 0.4467(2) 0.0600(2)
H13 H 0.1261(6) 0.4007(6) 0.0782(8)
H14 H 0.1227(7) 0.4416(12) 0.0170(2)
H15 H 0.0846(3) 0.4845(6) 0.0717(9)
C14 C 0.3199(3) 0.5436(2) 0.05772(15)
H16 H 0.4195(4) 0.5562(4) 0.0682(7)
H17 H 0.2653(16) 0.5785(2) 0.0757(7)
H18 H 0.2890(19) 0.5448(3) 0.0148(2)
C15 C 0.2776(3) 0.2998(2) 0.02585(14)
H19 H 0.2046(7) 0.3056(9) 0.0490(4)
H20 H 0.2974(6) 0.2483(2) 0.0220(8)
H21 H 0.2454(11) 0.3208(7) -0.0134(3)
C16 C 0.5260(3) 0.3206(2) 0.02344(14)
H22 H 0.6105(6) 0.3479(7) 0.0406(5)
H23 H 0.4955(8) 0.3340(9) -0.0181(2)
H24 H 0.5464(13) 0.2687(2) 0.0265(7)
C17 C 0.4557(3) 0.3137(2) 0.12023(13)
H25 H 0.3785(7) 0.3205(9) 0.1410(2)
H26 H 0.5367(12) 0.3422(7) 0.1396(3)
H27 H 0.4814(18) 0.2624(3) 0.12110(13)
N2 N 0.9798(3) 0.22554(14) 0.24201(11)
H3 H 0.9801(32) 0.2784(19) 0.2594(14)
H4 H 1.0642(35) 0.2065(17) 0.2598(14)
C18 C 0.8691(3) 0.1852(2) 0.26789(13)
C19 C 0.9838(3) 0.2316(2) 0.17663(13)
C20 C 0.8626(4) 0.1056(2) 0.2501(2)
H28 H 0.8216(25) 0.1013(2) 0.2080(3)
H29 H 0.8046(23) 0.0791(3) 0.2729(8)
H30 H 0.9574(5) 0.0852(4) 0.2580(11)
C21 C 0.7264(3) 0.2210(2) 0.2505(2)
H31 H 0.6889(12) 0.2128(11) 0.2085(3)
H32 H 0.7357(5) 0.2731(3) 0.2582(10)
H33 H 0.6625(8) 0.2001(10) 0.2737(8)
C22 C 0.9207(4) 0.1926(2) 0.33424(14)
H34 H 1.0150(10) 0.1721(10) 0.3454(2)
H35 H 0.8572(13) 0.1667(10) 0.35480(14)
H36 H 0.9233(22) 0.2439(2) 0.3452(2)
C23 C 0.8526(4) 0.2680(2) 0.14179(14)
H37 H 0.7742(6) 0.2338(4) 0.1363(8)
H38 H 0.8692(8) 0.2831(10) 0.1032(4)
H39 H 0.8300(13) 0.3104(7) 0.1635(5)
C24 C 1.0085(4) 0.1585(2) 0.15000(15)
H40 H 0.9215(7) 0.1304(5) 0.1431(9)
H41 H 1.0814(16) 0.1321(5) 0.1773(4)
H42 H 1.0385(21) 0.1659(2) 0.1125(5)
C25 C 1.1100(4) 0.2805(2) 0.1767(2)
H43 H 1.1940(6) 0.2582(6) 0.2004(9)
H44 H 1.0939(11) 0.3276(5) 0.1936(10)
H45 H 1.1231(15) 0.2872(10) 0.1362(2)
N3 N 1.1309(3) 0.84378(15) 0.12336(11)
H5 H 1.1436(30) 0.7912(18) 0.1387(13)
H6 H 1.2115(33) 0.8707(17) 0.1447(14)
C26 C 1.1518(3) 0.8362(2) 0.06017(13)
C27 C 1.0050(3) 0.8769(2) 0.1433(2)
C28 C 1.2988(4) 0.8059(2) 0.0677(2)
H46 H 1.3043(9) 0.7598(8) 0.0889(11)
H47 H 1.3657(5) 0.8402(7) 0.0902(11)
H48 H 1.3217(12) 0.7981(15) 0.0288(2)
C29 C 1.1433(5) 0.9084(2) 0.0292(2)
H49 H 1.2008(24) 0.9438(5) 0.0548(5)
H50 H 1.0458(6) 0.9248(8) 0.0202(11)
H51 H 1.1778(28) 0.9033(4) -0.0075(7)
C30 C 1.0475(4) 0.7822(2) 0.0261(2)
H52 H 1.0453(20) 0.7387(6) 0.0501(5)
H53 H 1.0763(15) 0.7692(11) -0.0107(6)
H54 H 0.9541(6) 0.8041(5) 0.0171(10)
C31 C 0.9925(4) 0.9573(2) 0.1311(2)
H55 H 0.9608(31) 0.9653(2) 0.0887(3)
H56 H 1.0840(9) 0.9802(3) 0.1444(13)
H57 H 0.9246(25) 0.9783(4) 0.1522(11)
C32 C 1.0379(4) 0.8653(3) 0.2095(2)
H58 H 1.0473(32) 0.8134(3) 0.2179(2)
H59 H 0.9619(16) 0.8851(15) 0.2266(2)
H60 H 1.1258(18) 0.8898(14) 0.2266(2)
C33 C 0.8689(3) 0.8375(2) 0.1164(2)
H61 H 0.8831(8) 0.7852(2) 0.1212(9)
H62 H 0.8422(13) 0.8491(10) 0.0744(3)
H63 H 0.7943(7) 0.8528(9) 0.1365(7)
O7 O 0.5934(5) 0.1250(3) 0.0807(2)
C34 C 0.5177(5) 0.0768(3) 0.0910(3)
C35 C 0.3736(5) 0.0884(3) 0.1004(3)
H64 H 0.3355(18) 0.0425(6) 0.1113(20)
H65 H 0.3146(12) 0.1067(23) 0.0640(6)
H66 H 0.3754(8) 0.1237(18) 0.1321(13)
C36 C 0.5713(7) 0.0019(3) 0.0922(4)
H67 H 0.4947(17) -0.0308(6) 0.0752(27)
H68 H 0.6096(63) -0.0123(13) 0.1330(4)
H69 H 0.6451(50) -0.0008(8) 0.0691(25)
loop_
_geom_bond_atom_site_label_1
_geom_bond_atom_site_label_2
_geom_bond_site_symmetry_1
_geom_bond_site_symmetry_2
O1 C7 1_555 1_555
O2 C7 1_555 1_555
O3 C8 1_555 1_555
O4 C8 1_555 1_555
O5 C9 1_555 1_555
O6 C9 1_555 1_555
N1 H1 1_555 1_555
H2 N1 1_555 1_555
N2 H3 1_555 1_555
H4 N2 1_555 1_555
N3 H5 1_555 1_555
H6 N3 1_555 1_555
C1 C2 1_555 1_555
C2 H7 1_555 1_555
C3 C2 1_555 1_555
C4 C3 1_555 1_555
H8 C4 1_555 1_555
C5 C4 1_555 1_555
C6 C1 1_555 1_555
H9 C6 1_555 1_555
C7 C1 1_555 1_555
C8 C3 1_555 1_555
C9 C5 1_555 1_555
C10 N1 1_555 1_555
C11 N1 1_555 1_555
C12 C10 1_555 1_555
H10 C12 1_555 1_555
H11 C12 1_555 1_555
H12 C12 1_555 1_555
C13 C10 1_555 1_555
H13 C13 1_555 1_555
H14 C13 1_555 1_555
H15 C13 1_555 1_555
C14 C10 1_555 1_555
H16 C14 1_555 1_555
H17 C14 1_555 1_555
H18 C14 1_555 1_555
C15 C11 1_555 1_555
H19 C15 1_555 1_555
H20 C15 1_555 1_555
H21 C15 1_555 1_555
C16 C11 1_555 1_555
H22 C16 1_555 1_555
H23 C16 1_555 1_555
H24 C16 1_555 1_555
C17 C11 1_555 1_555
H25 C17 1_555 1_555
H26 C17 1_555 1_555
H27 C17 1_555 1_555
C18 N2 1_555 1_555
C19 N2 1_555 1_555
C20 C18 1_555 1_555
H28 C20 1_555 1_555
H29 C20 1_555 1_555
H30 C20 1_555 1_555
C21 C18 1_555 1_555
H31 C21 1_555 1_555
H32 C21 1_555 1_555
H33 C21 1_555 1_555
C22 C18 1_555 1_555
H34 C22 1_555 1_555
H35 C22 1_555 1_555
H36 C22 1_555 1_555
C23 C19 1_555 1_555
H37 C23 1_555 1_555
H38 C23 1_555 1_555
H39 C23 1_555 1_555
C24 C19 1_555 1_555
H40 C24 1_555 1_555
H41 C24 1_555 1_555
H42 C24 1_555 1_555
C25 C19 1_555 1_555
H43 C25 1_555 1_555
H44 C25 1_555 1_555
H45 C25 1_555 1_555
C26 N3 1_555 1_555
C27 N3 1_555 1_555
C28 C26 1_555 1_555
H46 C28 1_555 1_555
H47 C28 1_555 1_555
H48 C28 1_555 1_555
C29 C26 1_555 1_555
H49 C29 1_555 1_555
H50 C29 1_555 1_555
H51 C29 1_555 1_555
C30 C26 1_555 1_555
H52 C30 1_555 1_555
H53 C30 1_555 1_555
H54 C30 1_555 1_555
C31 C27 1_555 1_555
H55 C31 1_555 1_555
H56 C31 1_555 1_555
H57 C31 1_555 1_555
C32 C27 1_555 1_555
H58 C32 1_555 1_555
H59 C32 1_555 1_555
H60 C32 1_555 1_555
C33 C27 1_555 1_555
H61 C33 1_555 1_555
H62 C33 1_555 1_555
H63 C33 1_555 1_555
O7 C34 1_555 1_555
C34 C35 1_555 1_555
C35 H64 1_555 1_555
H65 C35 1_555 1_555
H66 C35 1_555 1_555
C36 C34 1_555 1_555
H67 C36 1_555 1_555
H68 C36 1_555 1_555
H69 C36 1_555 1_555
C5 C6 1_555 1_555

#END
