
#######################################################################
#
#                 Cambridge Crystallographic Data Centre
#                                CCDC 
#
#######################################################################
#
# If this CIF has been generated from an entry in the Cambridge 
# Structural Database, then it will include bibliographic, chemical, 
# crystal, experimental, refinement or atomic coordinate data resulting 
# from the CCDC's data processing and validation procedures.
#
#######################################################################

data_MEKNIC
_chemical_formula_moiety         'C17 H12 N2'
_chemical_name_systematic        1-phenyl-9H-\b-carboline
_symmetry_cell_setting           rhombohedral
_symmetry_space_group_name_H-M   'R -3'
_symmetry_Int_Tables_number      148
_space_group_name_Hall           '-R 3'
loop_
_symmetry_equiv_pos_site_id
_symmetry_equiv_pos_as_xyz
1 x,y,z
2 -y,x-y,z
3 -x+y,-x,z
4 2/3+x,1/3+y,1/3+z
5 2/3-y,1/3+x-y,1/3+z
6 2/3-x+y,1/3-x,1/3+z
7 1/3+x,2/3+y,2/3+z
8 1/3-y,2/3+x-y,2/3+z
9 1/3-x+y,2/3-x,2/3+z
10 -x,-y,-z
11 y,-x+y,-z
12 x-y,x,-z
13 1/3-x,2/3-y,2/3-z
14 1/3+y,2/3-x+y,2/3-z
15 1/3+x-y,2/3+x,2/3-z
16 2/3-x,1/3-y,1/3-z
17 2/3+y,1/3-x+y,1/3-z
18 2/3+x-y,1/3+x,1/3-z
_cell_length_a                   24.941(4)
_cell_length_b                   24.941(4)
_cell_length_c                   10.343(3)
_cell_angle_alpha                90
_cell_angle_beta                 90
_cell_angle_gamma                120
_cell_volume                     5571.92
_exptl_crystal_colour            colorless
_exptl_crystal_description       Prism
_cell_formula_units_Z            18
loop_
_atom_site_label
_atom_site_type_symbol
_atom_site_fract_x
_atom_site_fract_y
_atom_site_fract_z
N1 N 0.70150(4) 0.85601(4) 0.04974(8)
N2 N 0.78046(4) 1.02735(4) 0.05565(8)
C1 C 0.65182(4) 0.82046(4) 0.13085(9)
C2 C 0.62000(5) 0.75629(5) 0.14697(10)
H1 H 0.6314 0.7307 0.1003
C3 C 0.57111(5) 0.73135(5) 0.23384(10)
H2 H 0.5487 0.6878 0.2469
C4 C 0.55400(5) 0.76893(5) 0.30298(10)
H3 H 0.5200 0.7503 0.3610
C5 C 0.58592(5) 0.83270(5) 0.28796(10)
H4 H 0.5744 0.8579 0.3356
C6 C 0.63580(4) 0.85917(4) 0.20061(9)
C7 C 0.68021(4) 0.92183(4) 0.16338(9)
C8 C 0.69339(5) 0.98078(5) 0.20314(10)
H5 H 0.6686 0.9860 0.2660
C9 C 0.74384(5) 1.03116(5) 0.14760(10)
H6 H 0.7535 1.0712 0.1759
C10 C 0.76872(4) 0.97117(4) 0.01569(9)
C11 C 0.71959(4) 0.91759(4) 0.07011(9)
C12 C 0.81066(4) 0.96880(4) -0.08317(9)
C13 C 0.87438(5) 1.01005(5) -0.07403(10)
H7 H 0.8901 1.0396 -0.0060
C14 C 0.91468(5) 1.00800(5) -0.16386(11)
H8 H 0.9579 1.0358 -0.1564
C15 C 0.89188(5) 0.96539(5) -0.26483(11)
H9 H 0.9195 0.9645 -0.3268
C16 C 0.82878(5) 0.92415(5) -0.27502(10)
H10 H 0.8133 0.8950 -0.3438
C17 C 0.78825(5) 0.92560(5) -0.18414(10)
H11 H 0.7451 0.8971 -0.1907
H12 H 0.7247(6) 0.8414(6) 0.0132(13)
loop_
_geom_bond_atom_site_label_1
_geom_bond_atom_site_label_2
_geom_bond_site_symmetry_1
_geom_bond_site_symmetry_2
N1 C1 1_555 1_555
N2 C9 1_555 1_555
C1 C2 1_555 1_555
C2 H1 1_555 1_555
C3 C2 1_555 1_555
H2 C3 1_555 1_555
C4 C3 1_555 1_555
H3 C4 1_555 1_555
C5 C4 1_555 1_555
H4 C5 1_555 1_555
C6 C1 1_555 1_555
C7 C6 1_555 1_555
C8 C7 1_555 1_555
H5 C8 1_555 1_555
C9 C8 1_555 1_555
H6 C9 1_555 1_555
C10 N2 1_555 1_555
C11 N1 1_555 1_555
C12 C10 1_555 1_555
C13 C12 1_555 1_555
H7 C13 1_555 1_555
C14 C13 1_555 1_555
H8 C14 1_555 1_555
C15 C14 1_555 1_555
H9 C15 1_555 1_555
C16 C15 1_555 1_555
H10 C16 1_555 1_555
C17 C12 1_555 1_555
H11 C17 1_555 1_555
H12 N1 1_555 1_555
C5 C6 1_555 1_555
C7 C11 1_555 1_555
C10 C11 1_555 1_555
C16 C17 1_555 1_555

#END
