
#######################################################################
#
#                 Cambridge Crystallographic Data Centre
#                                CCDC 
#
#######################################################################
#
# If this CIF has been generated from an entry in the Cambridge 
# Structural Database, then it will include bibliographic, chemical, 
# crystal, experimental, refinement or atomic coordinate data resulting 
# from the CCDC's data processing and validation procedures.
#
#######################################################################

data_MEKVUU
_chemical_formula_moiety         'C6 H8 Br2 O1'
_chemical_name_systematic        
rac-(anti-4,4-dibromospiro(2.2)pent-1-yl)methanol
_symmetry_cell_setting           monoclinic
_symmetry_space_group_name_H-M   'P 21/c'
_symmetry_Int_Tables_number      14
_space_group_name_Hall           '-P 2ybc'
loop_
_symmetry_equiv_pos_site_id
_symmetry_equiv_pos_as_xyz
1 x,y,z
2 -x,1/2+y,1/2-z
3 -x,-y,-z
4 x,1/2-y,1/2+z
_cell_length_a                   6.3458(1)
_cell_length_b                   17.3413(4)
_cell_length_c                   22.0989(4)
_cell_angle_alpha                90
_cell_angle_beta                 96.27(1)
_cell_angle_gamma                90
_cell_volume                     2417.31
_exptl_crystal_colour            colorless
_exptl_crystal_description       prism
_chemical_melting_point          '330-332 K'
_cell_formula_units_Z            12
_exptl_crystal_recrystallization_method 'hexane/diethyl ether'
loop_
_atom_site_label
_atom_site_type_symbol
_atom_site_fract_x
_atom_site_fract_y
_atom_site_fract_z
Br1 Br 1.56941(4) 0.264531(15) 1.275386(11)
Br2 Br 1.11097(4) 0.229231(16) 1.314725(11)
O1 O 0.8064(3) 0.20554(11) 1.06117(8)
C1 C 0.8580(4) 0.25362(14) 1.11362(11)
C2 C 1.0383(4) 0.21698(13) 1.15306(10)
C3 C 1.1877(4) 0.26800(13) 1.19023(10)
C4 C 1.2687(3) 0.27394(13) 1.25460(10)
C5 C 1.1862(4) 0.34529(14) 1.22048(11)
C6 C 1.2627(4) 0.22994(14) 1.13670(11)
H1 H 0.719(5) 0.2214(17) 1.0446(14)
H4 H 0.735(4) 0.2591(14) 1.1357(12)
H5 H 0.898(4) 0.3042(15) 1.1023(11)
H6 H 1.005(4) 0.1709(14) 1.1700(11)
H7 H 1.284(4) 0.3828(16) 1.2112(12)
H8 H 1.059(5) 0.3641(17) 1.2303(14)
H9 H 1.275(4) 0.2600(15) 1.1014(12)
H10 H 1.369(5) 0.1886(17) 1.1459(13)
Br3 Br 0.76995(4) -0.007035(15) 0.774873(11)
Br4 Br 0.32435(4) -0.012098(15) 0.827773(12)
O2 O 1.1082(3) 0.17457(10) 0.98377(8)
C7 C 1.0456(4) 0.10413(14) 0.95373(11)
C8 C 0.8509(4) 0.11218(13) 0.90914(11)
C9 C 0.7089(4) 0.04437(13) 0.89846(10)
C10 C 0.6253(4) -0.00388(13) 0.84692(10)
C11 C 0.7283(4) -0.04169(14) 0.90441(11)
C12 C 0.6338(4) 0.10996(15) 0.93232(12)
H2 H 1.032(5) 0.1848(18) 1.0028(14)
H11 H 1.157(5) 0.0874(17) 0.9352(13)
H12 H 1.013(5) 0.0620(18) 0.9861(14)
H13 H 0.864(5) 0.1429(17) 0.8764(14)
H14 H 0.853(5) -0.0641(17) 0.9033(13)
H15 H 0.637(5) -0.0694(17) 0.9318(14)
H16 H 0.631(4) 0.1031(16) 0.9736(13)
H17 H 0.532(5) 0.1404(18) 0.9130(14)
Br5 Br 1.11654(4) 0.507201(13) 0.887002(11)
Br6 Br 0.67230(4) 0.566706(13) 0.923043(12)
O3 O 0.4547(3) 0.27177(10) 0.99863(7)
C13 C 0.4781(4) 0.32105(13) 0.94784(10)
C14 C 0.6702(3) 0.37054(13) 0.96286(10)
C15 C 0.7741(3) 0.40370(12) 0.91187(10)
C16 C 0.8256(3) 0.48205(12) 0.89358(10)
C17 C 0.7132(4) 0.42742(14) 0.84716(11)
C18 C 0.8855(4) 0.34116(14) 0.94790(11)
H3 H 0.363(6) 0.244(2) 0.9912(16)
H18 H 0.499(4) 0.2920(16) 0.9125(13)
H19 H 0.356(5) 0.3524(16) 0.9374(13)
H20 H 0.669(4) 0.4015(16) 0.9963(13)
H21 H 0.579(5) 0.4391(16) 0.8369(13)
H22 H 0.795(4) 0.4103(16) 0.8158(13)
H23 H 0.886(4) 0.2911(16) 0.9307(12)
H24 H 1.008(5) 0.3573(16) 0.9745(13)
loop_
_geom_bond_atom_site_label_1
_geom_bond_atom_site_label_2
_geom_bond_site_symmetry_1
_geom_bond_site_symmetry_2
Br1 C4 1_555 1_555
Br2 C4 1_555 1_555
Br3 C10 1_555 1_555
Br4 C10 1_555 1_555
Br5 C16 1_555 1_555
Br6 C16 1_555 1_555
O1 C1 1_555 1_555
O2 C7 1_555 1_555
O3 C13 1_555 1_555
C1 C2 1_555 1_555
C2 C3 1_555 1_555
C3 C4 1_555 1_555
C4 C5 1_555 1_555
C5 C3 1_555 1_555
C6 C2 1_555 1_555
C7 C8 1_555 1_555
C8 C9 1_555 1_555
C9 C10 1_555 1_555
C10 C11 1_555 1_555
C11 C9 1_555 1_555
C12 C8 1_555 1_555
C13 C14 1_555 1_555
C14 C15 1_555 1_555
C15 C16 1_555 1_555
C16 C17 1_555 1_555
C17 C15 1_555 1_555
C18 C14 1_555 1_555
H1 O1 1_555 1_555
H2 O2 1_555 1_555
H3 O3 1_555 1_555
H4 C1 1_555 1_555
H5 C1 1_555 1_555
H6 C2 1_555 1_555
H7 C5 1_555 1_555
H8 C5 1_555 1_555
H9 C6 1_555 1_555
H10 C6 1_555 1_555
H11 C7 1_555 1_555
H12 C7 1_555 1_555
H13 C8 1_555 1_555
H14 C11 1_555 1_555
H15 C11 1_555 1_555
H16 C12 1_555 1_555
H17 C12 1_555 1_555
H18 C13 1_555 1_555
H19 C13 1_555 1_555
H20 C14 1_555 1_555
H21 C17 1_555 1_555
H22 C17 1_555 1_555
H23 C18 1_555 1_555
H24 C18 1_555 1_555
C3 C6 1_555 1_555
C9 C12 1_555 1_555
C15 C18 1_555 1_555

#END
