
#######################################################################
#
#                 Cambridge Crystallographic Data Centre
#                                CCDC 
#
#######################################################################
#
# If this CIF has been generated from an entry in the Cambridge 
# Structural Database, then it will include bibliographic, chemical, 
# crystal, experimental, refinement or atomic coordinate data resulting 
# from the CCDC's data processing and validation procedures.
#
#######################################################################

data_MEKVOO
_chemical_name_common            '(M)-(-)-(7)triangulane-1,9-dicarboxylic acid'
_chemical_formula_moiety         'C17 H18 O4'
_chemical_name_systematic        
'(1R,3S,4S,5S,6S,7S,8S,9R)-Hexaspiro(2.0.0.0.0.0.2^8^.1^7^.1^6^.1^5^.1^4^.1^3^)pentadecane-1,9-dicarboxylic acid'
_symmetry_cell_setting           orthorhombic
_symmetry_space_group_name_H-M   'P 21 21 21'
_symmetry_Int_Tables_number      19
_space_group_name_Hall           'P 2ac 2ab'
loop_
_symmetry_equiv_pos_site_id
_symmetry_equiv_pos_as_xyz
1 x,y,z
2 1/2-x,-y,1/2+z
3 -x,1/2+y,1/2-z
4 1/2+x,1/2-y,-z
_cell_length_a                   5.6750(15)
_cell_length_b                   10.029(3)
_cell_length_c                   26.637(7)
_cell_angle_alpha                90
_cell_angle_beta                 90
_cell_angle_gamma                90
_cell_volume                     1516.03
_exptl_crystal_colour            colorless
_exptl_crystal_description       plate
_chemical_melting_point          '530-532 K (dec.)'
_cell_formula_units_Z            4
_exptl_crystal_recrystallization_method hexane/tetrahydrofuran
loop_
_atom_site_label
_atom_site_type_symbol
_atom_site_fract_x
_atom_site_fract_y
_atom_site_fract_z
O1 O 0.5823(7) 0.5111(4) 0.15456(11)
O2 O 0.6181(7) 0.2917(4) 0.14358(14)
O3 O 0.5715(7) 0.4750(4) -0.27886(12)
O4 O 0.5023(7) 0.6871(4) -0.30085(13)
C1 C 0.3137(9) 0.3983(6) 0.10119(17)
H1 H 0.2424 0.3081 0.0961
C2 C 0.3187(9) 0.4891(6) 0.05618(16)
C3 C 0.3398(9) 0.4682(6) 0.00242(16)
C4 C 0.2130(9) 0.4691(6) -0.04480(16)
C5 C 0.1981(10) 0.5537(5) -0.08859(16)
C6 C 0.3251(10) 0.5642(5) -0.13628(17)
C7 C 0.3101(10) 0.5248(5) -0.18853(17)
C8 C 0.2625(9) 0.5895(6) -0.23914(17)
H2 H 0.1554 0.6687 -0.2392
C9 C 0.1507(10) 0.4528(6) -0.22349(17)
H3 H -0.0196 0.4513 -0.2155
H4 H 0.2113 0.3711 -0.2398
C10 C 0.5321(9) 0.4980(6) -0.16030(16)
H5 H 0.6716 0.5535 -0.1681
H6 H 0.5670 0.4046 -0.1508
C11 C 0.2889(10) 0.6895(6) -0.10423(17)
H7 H 0.4268 0.7263 -0.0862
H8 H 0.1729 0.7565 -0.1159
C12 C -0.0257(9) 0.4934(7) -0.06779(17)
H9 H -0.1364 0.5527 -0.0497
H10 H -0.1000 0.4196 -0.0867
C13 C 0.3607(10) 0.3500(5) -0.03149(17)
H11 H 0.2786 0.2670 -0.0216
H12 H 0.5109 0.3371 -0.0498
C14 C 0.5119(9) 0.5584(6) 0.02883(17)
H13 H 0.6749 0.5257 0.0337
H14 H 0.4971 0.6557 0.0234
C15 C 0.1472(10) 0.5175(6) 0.09675(16)
H15 H -0.0213 0.4992 0.0900
H16 H 0.1775 0.5956 0.1186
C16 C 0.5133(11) 0.4061(6) 0.13604(19)
C17 C 0.4539(10) 0.5902(7) -0.27534(19)
H17 H 0.765(4) 0.292(5) 0.1627(14)
H18 H 0.694(6) 0.488(5) -0.3040(12)
loop_
_geom_bond_atom_site_label_1
_geom_bond_atom_site_label_2
_geom_bond_site_symmetry_1
_geom_bond_site_symmetry_2
O1 C16 1_555 1_555
O2 C16 1_555 1_555
O3 C17 1_555 1_555
O4 C17 1_555 1_555
C1 H1 1_555 1_555
C2 C1 1_555 1_555
C3 C2 1_555 1_555
C4 C3 1_555 1_555
C5 C4 1_555 1_555
C6 C5 1_555 1_555
C7 C6 1_555 1_555
C8 C7 1_555 1_555
H2 C8 1_555 1_555
C9 C7 1_555 1_555
H3 C9 1_555 1_555
H4 C9 1_555 1_555
C10 C6 1_555 1_555
H5 C10 1_555 1_555
H6 C10 1_555 1_555
C11 C5 1_555 1_555
H7 C11 1_555 1_555
H8 C11 1_555 1_555
C12 C4 1_555 1_555
H9 C12 1_555 1_555
H10 C12 1_555 1_555
C13 C3 1_555 1_555
H11 C13 1_555 1_555
H12 C13 1_555 1_555
C14 C2 1_555 1_555
H13 C14 1_555 1_555
H14 C14 1_555 1_555
C15 C1 1_555 1_555
H15 C15 1_555 1_555
H16 C15 1_555 1_555
C16 C1 1_555 1_555
C17 C8 1_555 1_555
H17 O2 1_555 1_555
H18 O3 1_555 1_555
C2 C15 1_555 1_555
C3 C14 1_555 1_555
C4 C13 1_555 1_555
C5 C12 1_555 1_555
C6 C11 1_555 1_555
C7 C10 1_555 1_555
C8 C9 1_555 1_555

#END
