
#######################################################################
#
#                 Cambridge Crystallographic Data Centre
#                                CCDC 
#
#######################################################################
#
# If this CIF has been generated from an entry in the Cambridge 
# Structural Database, then it will include bibliographic, chemical, 
# crystal, experimental, refinement or atomic coordinate data resulting 
# from the CCDC's data processing and validation procedures.
#
#######################################################################

data_MEKVII
_chemical_name_common            (15)triangulane
_chemical_formula_moiety         'C31 H34'
_chemical_name_systematic        
(4S,5S,6S,7S,8S,9R,10S,11S,12S,13S,14S,15S)-tetradecaspiro(2.0.0.0.0.0.0.0.0.0.0.0.0.0.2^16^.1^15^.1^14^.1^13^.1^12^.1^11^.1^10^.1^9^.1^8^.1^7^.1^6^.1^5^.1^4^.1^3^)untriacontane
_symmetry_cell_setting           orthorhombic
_symmetry_space_group_name_H-M   'P 21 21 21'
_symmetry_Int_Tables_number      19
_space_group_name_Hall           'P 2ac 2ab'
loop_
_symmetry_equiv_pos_site_id
_symmetry_equiv_pos_as_xyz
1 x,y,z
2 1/2-x,-y,1/2+z
3 -x,1/2+y,1/2-z
4 1/2+x,1/2-y,-z
_cell_length_a                   7.4015(1)
_cell_length_b                   16.3396(3)
_cell_length_c                   20.8063(4)
_cell_angle_alpha                90
_cell_angle_beta                 90
_cell_angle_gamma                90
_cell_volume                     2516.26
_exptl_crystal_colour            colorless
_exptl_crystal_description       prism
_chemical_melting_point          '126-127 deg.C'
_cell_formula_units_Z            4
_exptl_crystal_recrystallization_method acetone/acetonitrile
loop_
_atom_site_label
_atom_site_type_symbol
_atom_site_fract_x
_atom_site_fract_y
_atom_site_fract_z
C1 C 0.2091(3) -0.20667(10) 0.05320(8)
C2 C 0.1819(2) -0.12948(9) 0.08923(7)
C3 C 0.0329(2) -0.07572(8) 0.10667(7)
C4 C -0.0453(2) 0.00280(8) 0.08832(7)
C5 C -0.0429(2) 0.08799(8) 0.10962(7)
C6 C -0.1516(2) 0.14596(8) 0.14566(6)
C7 C -0.2857(2) 0.20914(8) 0.13251(7)
C8 C -0.30068(19) 0.29772(8) 0.12474(7)
C9 C -0.18694(19) 0.37056(8) 0.12090(6)
C10 C 0.0021(2) 0.39662(8) 0.12118(6)
C11 C 0.13834(19) 0.43911(8) 0.15919(7)
C12 C 0.2076(2) 0.52225(8) 0.16604(7)
C13 C 0.34440(19) 0.57519(8) 0.13772(6)
C14 C 0.53015(19) 0.60164(8) 0.14877(6)
C15 C 0.6336(2) 0.67081(9) 0.17353(7)
C16 C 0.5980(3) 0.75350(10) 0.19985(9)
C17 C 0.7336(2) 0.74046(10) 0.14505(9)
C18 C 0.6762(2) 0.58599(9) 0.19736(7)
C19 C 0.4797(2) 0.56815(9) 0.08411(7)
C20 C 0.1536(2) 0.60619(9) 0.14344(8)
C21 C 0.1740(2) 0.47214(9) 0.22562(7)
C22 C 0.19069(19) 0.36290(9) 0.12341(7)
C23 C -0.1181(2) 0.42327(9) 0.06694(7)
C24 C -0.3498(2) 0.37160(8) 0.16412(7)
C25 C -0.3887(2) 0.24232(9) 0.07611(7)
C26 C -0.3247(2) 0.14630(9) 0.18358(7)
C27 C 0.0465(2) 0.14036(9) 0.15968(8)
C28 C -0.0132(2) 0.06944(9) 0.03974(7)
C29 C -0.1674(2) -0.07006(9) 0.09512(7)
C30 C 0.1567(3) -0.10675(10) 0.15841(8)
C31 C 0.3306(3) -0.13296(11) 0.04195(9)
H1 H 0.128(3) -0.2195(12) 0.0188(10)
H2 H 0.258(3) -0.2547(12) 0.0779(9)
H3 H 0.648(3) 0.7686(13) 0.2428(11)
H4 H 0.480(3) 0.7805(12) 0.1877(9)
H5 H 0.698(3) 0.7582(13) 0.1009(11)
H6 H 0.860(3) 0.7445(13) 0.1561(10)
H7 H 0.637(3) 0.5720(11) 0.2413(9)
H8 H 0.789(3) 0.5605(12) 0.1798(9)
H9 H 0.465(3) 0.6056(11) 0.0487(9)
H10 H 0.521(3) 0.5150(11) 0.0740(9)
H11 H 0.130(3) 0.6457(11) 0.1750(8)
H12 H 0.084(3) 0.6088(11) 0.1043(9)
H13 H 0.069(3) 0.4871(11) 0.2512(9)
H14 H 0.275(3) 0.4499(12) 0.2493(9)
H15 H 0.211(3) 0.3155(11) 0.1506(8)
H16 H 0.269(3) 0.3681(11) 0.0833(9)
H17 H -0.095(2) 0.3980(10) 0.0250(8)
H18 H -0.156(3) 0.4809(12) 0.0665(9)
H19 H -0.325(3) 0.3702(12) 0.2117(10)
H20 H -0.455(2) 0.4053(10) 0.1509(8)
H21 H -0.331(3) 0.2379(11) 0.0331(8)
H22 H -0.519(3) 0.2382(12) 0.0771(9)
H23 H -0.314(3) 0.1646(11) 0.2285(9)
H24 H -0.416(3) 0.1021(12) 0.1740(9)
H25 H 0.083(3) 0.1155(12) 0.2006(10)
H26 H 0.122(3) 0.1857(11) 0.1446(8)
H27 H -0.110(3) 0.0827(13) 0.0093(10)
H28 H 0.104(3) 0.0769(12) 0.0222(9)
H29 H -0.215(3) -0.0921(12) 0.0550(9)
H30 H -0.248(3) -0.0739(13) 0.1318(11)
H31 H 0.115(3) -0.1465(12) 0.1887(10)
H32 H 0.237(3) -0.0685(13) 0.1768(10)
H33 H 0.458(4) -0.1332(14) 0.0596(11)
H34 H 0.315(3) -0.1008(14) 0.0010(11)
loop_
_geom_bond_atom_site_label_1
_geom_bond_atom_site_label_2
_geom_bond_site_symmetry_1
_geom_bond_site_symmetry_2
C1 C2 1_555 1_555
C2 C3 1_555 1_555
C3 C4 1_555 1_555
C4 C5 1_555 1_555
C5 C6 1_555 1_555
C6 C7 1_555 1_555
C7 C8 1_555 1_555
C8 C9 1_555 1_555
C9 C10 1_555 1_555
C10 C11 1_555 1_555
C11 C12 1_555 1_555
C12 C13 1_555 1_555
C13 C14 1_555 1_555
C14 C15 1_555 1_555
C15 C16 1_555 1_555
C16 C17 1_555 1_555
C17 C15 1_555 1_555
C18 C14 1_555 1_555
C19 C13 1_555 1_555
C20 C12 1_555 1_555
C21 C11 1_555 1_555
C22 C10 1_555 1_555
C23 C9 1_555 1_555
C24 C8 1_555 1_555
C25 C7 1_555 1_555
C26 C6 1_555 1_555
C27 C5 1_555 1_555
C28 C4 1_555 1_555
C29 C3 1_555 1_555
C30 C2 1_555 1_555
C31 C1 1_555 1_555
H1 C1 1_555 1_555
H2 C1 1_555 1_555
H3 C16 1_555 1_555
H4 C16 1_555 1_555
H5 C17 1_555 1_555
H6 C17 1_555 1_555
H7 C18 1_555 1_555
H8 C18 1_555 1_555
H9 C19 1_555 1_555
H10 C19 1_555 1_555
H11 C20 1_555 1_555
H12 C20 1_555 1_555
H13 C21 1_555 1_555
H14 C21 1_555 1_555
H15 C22 1_555 1_555
H16 C22 1_555 1_555
H17 C23 1_555 1_555
H18 C23 1_555 1_555
H19 C24 1_555 1_555
H20 C24 1_555 1_555
H21 C25 1_555 1_555
H22 C25 1_555 1_555
H23 C26 1_555 1_555
H24 C26 1_555 1_555
H25 C27 1_555 1_555
H26 C27 1_555 1_555
H27 C28 1_555 1_555
H28 C28 1_555 1_555
H29 C29 1_555 1_555
H30 C29 1_555 1_555
H31 C30 1_555 1_555
H32 C30 1_555 1_555
H33 C31 1_555 1_555
H34 C31 1_555 1_555
C2 C31 1_555 1_555
C3 C30 1_555 1_555
C4 C29 1_555 1_555
C5 C28 1_555 1_555
C6 C27 1_555 1_555
C7 C26 1_555 1_555
C8 C25 1_555 1_555
C9 C24 1_555 1_555
C10 C23 1_555 1_555
C11 C22 1_555 1_555
C12 C21 1_555 1_555
C13 C20 1_555 1_555
C14 C19 1_555 1_555
C15 C18 1_555 1_555

#END
