
#######################################################################
#
#                 Cambridge Crystallographic Data Centre
#                                CCDC 
#
#######################################################################
#
# If this CIF has been generated from an entry in the Cambridge 
# Structural Database, then it will include bibliographic, chemical, 
# crystal, experimental, refinement or atomic coordinate data resulting 
# from the CCDC's data processing and validation procedures.
#
#######################################################################

data_MELFIT08
_chemical_name_common            Aripiprazole
_chemical_formula_moiety         'C23 H27 Cl2 N3 O2'
_chemical_name_systematic        
7-(4-(4-(2,3-dichlorophenyl)piperazin-1-yl)butoxy)-3,4-dihydroquinolin-2(1H)-one
_symmetry_cell_setting           orthorhombic
_symmetry_space_group_name_H-M   'P n a 21'
_symmetry_Int_Tables_number      33
_space_group_name_Hall           'P 2c -2n'
loop_
_symmetry_equiv_pos_site_id
_symmetry_equiv_pos_as_xyz
1 x,y,z
2 -x,-y,1/2+z
3 1/2-x,1/2+y,1/2+z
4 1/2+x,1/2-y,z
_cell_length_a                   23.610(4)
_cell_length_b                   12.457(2)
_cell_length_c                   7.7044(13)
_cell_angle_alpha                90
_cell_angle_beta                 90
_cell_angle_gamma                90
_cell_volume                     2265.94
_exptl_crystal_colour            colorless
_exptl_crystal_description       rod
_cell_formula_units_Z            4
loop_
_atom_site_label
_atom_site_type_symbol
_atom_site_fract_x
_atom_site_fract_y
_atom_site_fract_z
Cl1 Cl 1.03232(3) 0.72511(6) 1.46420(9)
Cl2 Cl 1.15461(4) 0.80781(7) 1.53722(11)
O1 O 0.70917(8) 0.41615(19) 0.5262(3)
O2 O 0.49592(9) 0.50082(17) -0.0816(3)
N1 N 1.00433(10) 0.69297(19) 1.0898(3)
N2 N 0.91414(9) 0.56574(17) 0.9553(3)
N3 N 0.56134(9) 0.4464(2) 0.1103(3)
H1 H 0.5413(12) 0.470(2) 0.185(4)
C1 C 1.07744(13) 0.7517(2) 1.2927(4)
C2 C 1.13105(14) 0.7918(2) 1.3247(4)
C3 C 1.16705(14) 0.8222(3) 1.1913(4)
H2 H 1.2039 0.8490 1.2147
C4 C 1.14753(13) 0.8122(3) 1.0235(5)
H3 H 1.1707 0.8353 0.9300
C5 C 1.09479(13) 0.7690(2) 0.9888(4)
H4 H 1.0829 0.7615 0.8716
C6 C 1.05898(13) 0.7367(2) 1.1207(4)
C7 C 0.99870(12) 0.5789(2) 1.1338(4)
H5 H 1.0144 0.5657 1.2510
H6 H 1.0203 0.5349 1.0496
C8 C 0.98089(13) 0.7135(2) 0.9168(4)
H7 H 1.0026 0.6727 0.8287
H8 H 0.9839 0.7908 0.8890
C9 C 0.93684(12) 0.5473(2) 1.1296(4)
H9 H 0.9328 0.4705 1.1607
H10 H 0.9154 0.5903 1.2153
C10 C 0.91966(13) 0.6794(2) 0.9134(4)
H11 H 0.8979 0.7225 0.9983
H12 H 0.9037 0.6930 0.7966
C11 C 0.85584(13) 0.5297(2) 0.9408(4)
H13 H 0.8306 0.5826 0.9977
H14 H 0.8516 0.4603 1.0022
C12 C 0.83777(13) 0.5159(3) 0.7514(4)
H15 H 0.8418 0.5857 0.6912
H16 H 0.8638 0.4643 0.6946
C13 C 0.77814(13) 0.4769(3) 0.7287(4)
H17 H 0.7721 0.4126 0.8019
H18 H 0.7515 0.5333 0.7681
C14 C 0.76594(12) 0.4497(3) 0.5440(4)
H19 H 0.7728 0.5133 0.4700
H20 H 0.7916 0.3916 0.5052
C15 C 0.69081(12) 0.3943(2) 0.3595(4)
C16 C 0.72288(13) 0.3388(3) 0.2404(4)
H21 H 0.7599 0.3147 0.2693
C17 C 0.63683(11) 0.4285(2) 0.3183(4)
H22 H 0.6145 0.4653 0.4019
C18 C 0.70022(12) 0.3184(3) 0.0772(4)
H23 H 0.7222 0.2795 -0.0049
C19 C 0.61559(11) 0.4087(2) 0.1545(3)
C20 C 0.64682(11) 0.3530(2) 0.0309(4)
C21 C 0.61959(13) 0.3310(3) -0.1423(4)
H24 H 0.5966 0.2647 -0.1350
H25 H 0.6493 0.3198 -0.2311
C22 C 0.58209(12) 0.4244(2) -0.1955(4)
H26 H 0.6063 0.4858 -0.2291
H27 H 0.5596 0.4033 -0.2984
C23 C 0.54241(12) 0.4594(2) -0.0532(4)
loop_
_geom_bond_atom_site_label_1
_geom_bond_atom_site_label_2
_geom_bond_site_symmetry_1
_geom_bond_site_symmetry_2
Cl1 C1 1_555 1_555
Cl2 C2 1_555 1_555
O1 C14 1_555 1_555
O2 C23 1_555 1_555
N1 C6 1_555 1_555
N2 C9 1_555 1_555
N3 H1 1_555 1_555
C1 C2 1_555 1_555
C2 C3 1_555 1_555
C3 H2 1_555 1_555
C4 C3 1_555 1_555
H3 C4 1_555 1_555
C5 C4 1_555 1_555
H4 C5 1_555 1_555
C6 C1 1_555 1_555
C7 N1 1_555 1_555
H5 C7 1_555 1_555
H6 C7 1_555 1_555
C8 N1 1_555 1_555
H7 C8 1_555 1_555
H8 C8 1_555 1_555
C9 C7 1_555 1_555
H9 C9 1_555 1_555
H10 C9 1_555 1_555
C10 N2 1_555 1_555
H11 C10 1_555 1_555
H12 C10 1_555 1_555
C11 N2 1_555 1_555
H13 C11 1_555 1_555
H14 C11 1_555 1_555
C12 C11 1_555 1_555
H15 C12 1_555 1_555
H16 C12 1_555 1_555
C13 C12 1_555 1_555
H17 C13 1_555 1_555
H18 C13 1_555 1_555
C14 C13 1_555 1_555
H19 C14 1_555 1_555
H20 C14 1_555 1_555
C15 O1 1_555 1_555
C16 C15 1_555 1_555
H21 C16 1_555 1_555
C17 C15 1_555 1_555
H22 C17 1_555 1_555
C18 C16 1_555 1_555
H23 C18 1_555 1_555
C19 N3 1_555 1_555
C20 C18 1_555 1_555
C21 C20 1_555 1_555
H24 C21 1_555 1_555
H25 C21 1_555 1_555
C22 C21 1_555 1_555
H26 C22 1_555 1_555
H27 C22 1_555 1_555
C23 N3 1_555 1_555
C5 C6 1_555 1_555
C8 C10 1_555 1_555
C17 C19 1_555 1_555
C19 C20 1_555 1_555
C22 C23 1_555 1_555

#END
