
#######################################################################
#
#                 Cambridge Crystallographic Data Centre
#                                CCDC 
#
#######################################################################
#
# If this CIF has been generated from an entry in the Cambridge 
# Structural Database, then it will include bibliographic, chemical, 
# crystal, experimental, refinement or atomic coordinate data resulting 
# from the CCDC's data processing and validation procedures.
#
#######################################################################

data_MELHOD
_chemical_compound_source        'dried leaves of Artemisia annua L.'
_chemical_name_common            'arteannoide E'
_chemical_formula_moiety         'C13 H16 O3'
_chemical_name_systematic        
'2-((4R,7R,7aS)-7-methyl-2-oxo-2,4,5,6,7,7a-hexahydro-1H-inden-4-yl)prop-2-enoic acid'
_symmetry_cell_setting           orthorhombic
_symmetry_space_group_name_H-M   'P 21 21 21'
_symmetry_Int_Tables_number      19
_space_group_name_Hall           'P 2ac 2ab'
loop_
_symmetry_equiv_pos_site_id
_symmetry_equiv_pos_as_xyz
1 x,y,z
2 1/2-x,-y,1/2+z
3 -x,1/2+y,1/2-z
4 1/2+x,1/2-y,-z
_cell_length_a                   6.47354(14)
_cell_length_b                   9.06933(18)
_cell_length_c                   20.1058(4)
_cell_angle_alpha                90
_cell_angle_beta                 90
_cell_angle_gamma                90
_cell_volume                     1180.42
_exptl_crystal_colour            colorless
_exptl_crystal_description       block
_chemical_melting_point          '146.0-147.0 deg.C'
_cell_formula_units_Z            4
loop_
_atom_site_label
_atom_site_type_symbol
_atom_site_fract_x
_atom_site_fract_y
_atom_site_fract_z
O1 O 0.9058(2) 0.24223(16) 0.58783(7)
O2 O 0.8224(2) 0.71679(14) 0.76478(6)
O3 O 0.7800(3) 0.59382(18) 0.85967(7)
H1 H 0.8831 0.6407 0.8704
C1 C 0.7788(3) 0.3396(2) 0.59906(9)
C2 C 0.7162(3) 0.39802(19) 0.66337(9)
H2 H 0.7637 0.3644 0.7043
C3 C 0.6577(3) 0.4182(3) 0.54586(10)
C4 C 0.5334(3) 0.5365(2) 0.58233(9)
H3 H 0.5893 0.6334 0.5705
C5 C 0.5796(3) 0.50754(18) 0.65480(9)
C6 C 0.4665(3) 0.59858(19) 0.70522(9)
H4 H 0.5057 0.7013 0.6969
C7 C 0.2332(3) 0.5873(2) 0.68992(10)
H5 H 0.1873 0.4866 0.6968
H6 H 0.1570 0.6504 0.7202
C8 C 0.1885(3) 0.6331(2) 0.61851(10)
H7 H 0.2305 0.7349 0.6123
H8 H 0.0410 0.6272 0.6105
C9 C 0.3007(3) 0.5365(2) 0.56810(10)
H9 H 0.2502 0.4353 0.5733
C10 C 0.2583(4) 0.5847(3) 0.49667(11)
H10 H 0.3055 0.6841 0.4905
H11 H 0.1126 0.5797 0.4881
H12 H 0.3301 0.5205 0.4665
C11 C 0.5240(3) 0.56629(19) 0.77643(9)
C12 C 0.7227(3) 0.6324(2) 0.79881(9)
C13 C 0.4064(3) 0.4922(2) 0.81908(10)
H13 H 0.447(4) 0.481(2) 0.8640(13)
H14 H 0.270(4) 0.451(3) 0.8050(11)
H15 H 0.754(4) 0.456(3) 0.5124(13)
H16 H 0.573(4) 0.350(3) 0.5232(13)
loop_
_geom_bond_atom_site_label_1
_geom_bond_atom_site_label_2
_geom_bond_site_symmetry_1
_geom_bond_site_symmetry_2
O1 C1 1_555 1_555
O2 C12 1_555 1_555
O3 H1 1_555 1_555
C1 C2 1_555 1_555
C2 H2 1_555 1_555
C3 C1 1_555 1_555
C4 C3 1_555 1_555
H3 C4 1_555 1_555
C5 C2 1_555 1_555
C6 C5 1_555 1_555
H4 C6 1_555 1_555
C7 C6 1_555 1_555
H5 C7 1_555 1_555
H6 C7 1_555 1_555
C8 C7 1_555 1_555
H7 C8 1_555 1_555
H8 C8 1_555 1_555
C9 C4 1_555 1_555
H9 C9 1_555 1_555
C10 C9 1_555 1_555
H10 C10 1_555 1_555
H11 C10 1_555 1_555
H12 C10 1_555 1_555
C11 C6 1_555 1_555
C12 O3 1_555 1_555
C13 C11 1_555 1_555
H13 C13 1_555 1_555
H14 C13 1_555 1_555
H15 C3 1_555 1_555
H16 C3 1_555 1_555
C4 C5 1_555 1_555
C8 C9 1_555 1_555
C11 C12 1_555 1_555

#END
