
#######################################################################
#
#                 Cambridge Crystallographic Data Centre
#                                CCDC 
#
#######################################################################
#
# If this CIF has been generated from an entry in the Cambridge 
# Structural Database, then it will include bibliographic, chemical, 
# crystal, experimental, refinement or atomic coordinate data resulting 
# from the CCDC's data processing and validation procedures.
#
#######################################################################

data_MENMIE
_chemical_formula_moiety         'C144 H106 N2 O4'
_chemical_name_systematic        
"2,9-bis(4,4''-ditrityl-5'-n-butyl-1,1':3',1''-terphenyl-2'-yl)isoquinolino[4',5',6':6,5,10]anthra[2,1,9-def]isoquinoline-1,3,8,10(2H,9H)-tetrone unknown solvate"
_symmetry_cell_setting           triclinic
_symmetry_space_group_name_H-M   'P -1'
_symmetry_Int_Tables_number      2
_space_group_name_Hall           '-P 1'
loop_
_symmetry_equiv_pos_site_id
_symmetry_equiv_pos_as_xyz
1 x,y,z
2 -x,-y,-z
_cell_length_a                   9.5089(6)
_cell_length_b                   16.5114(10)
_cell_length_c                   18.4177(11)
_cell_angle_alpha                96.813(5)
_cell_angle_beta                 99.765(5)
_cell_angle_gamma                93.246(5)
_cell_volume                     2820.94
_exptl_crystal_colour            orange
_exptl_crystal_description       plate
_cell_formula_units_Z            1
loop_
_atom_site_label
_atom_site_type_symbol
_atom_site_fract_x
_atom_site_fract_y
_atom_site_fract_z
C1 C 0.1565(2) 0.31381(14) 0.28444(13)
C2 C 0.0787(3) 0.35665(14) 0.33924(13)
C3 C -0.0634(3) 0.33236(15) 0.33815(14)
H1 H -0.110409 0.290960 0.302104
C4 C -0.1366(3) 0.37005(15) 0.39127(15)
H2 H -0.232164 0.353209 0.389676
C5 C -0.0699(2) 0.43220(14) 0.44655(14)
C6 C 0.0739(2) 0.46146(14) 0.44561(13)
C7 C 0.1441(3) 0.52922(14) 0.49595(13)
C8 C 0.2811(3) 0.55749(15) 0.48934(15)
H3 H 0.324600 0.604461 0.519505
C9 C 0.3552(3) 0.51671(15) 0.43809(15)
H4 H 0.447729 0.536175 0.435633
C10 C 0.2924(2) 0.44838(14) 0.39157(14)
C11 C 0.1484(2) 0.42190(14) 0.39190(13)
C12 C 0.3773(2) 0.40030(14) 0.34446(13)
C13 C 0.3912(2) 0.28308(14) 0.25510(14)
C14 C 0.4369(3) 0.21552(15) 0.28950(15)
C15 C 0.5335(3) 0.16737(16) 0.26001(17)
H5 H 0.564171 0.122636 0.282883
C16 C 0.5855(3) 0.18465(17) 0.19676(18)
C17 C 0.5386(3) 0.25211(16) 0.16386(15)
H6 H 0.571625 0.263631 0.121183
C18 C 0.4437(3) 0.30321(15) 0.19269(14)
C19 C 0.3909(3) 0.20229(14) 0.36100(15)
C20 C 0.2558(3) 0.16633(15) 0.36392(14)
H7 H 0.194300 0.145226 0.320101
C21 C 0.2123(3) 0.16182(15) 0.43244(14)
H8 H 0.121694 0.137983 0.433345
C22 C 0.3013(3) 0.19211(14) 0.49870(14)
C23 C 0.4399(3) 0.22450(15) 0.49535(15)
H9 H 0.503524 0.242829 0.539164
C24 C 0.4826(3) 0.22942(15) 0.42766(15)
H10 H 0.574553 0.251301 0.426813
C25 C 0.2601(3) 0.18784(15) 0.57572(14)
C26 C 0.3625(3) 0.12854(15) 0.61125(14)
C27 C 0.3554(3) 0.04786(16) 0.57756(15)
H11 H 0.283619 0.029505 0.537044
C28 C 0.4542(3) -0.00550(17) 0.60370(17)
H12 H 0.447775 -0.059115 0.580534
C29 C 0.5618(3) 0.02043(17) 0.66387(17)
H13 H 0.626985 -0.015604 0.681736
C30 C 0.5713(3) 0.10032(18) 0.69698(17)
H14 H 0.643781 0.118449 0.737253
C31 C 0.4728(3) 0.15440(16) 0.67045(15)
H15 H 0.481335 0.208404 0.692837
C32 C 0.0996(3) 0.16042(15) 0.56865(14)
C33 C 0.0476(3) 0.09379(17) 0.59790(16)
H16 H 0.111296 0.059835 0.620663
C34 C -0.0999(3) 0.07684(19) 0.59362(19)
H17 H -0.132614 0.031453 0.613249
C35 C -0.1969(3) 0.1259(2) 0.56106(17)
H18 H -0.294618 0.114134 0.558341
C36 C -0.1462(3) 0.1936(2) 0.53218(17)
H19 H -0.210569 0.227462 0.509774
C37 C -0.0007(3) 0.21098(17) 0.53652(16)
H20 H 0.031313 0.257141 0.517770
C38 C 0.2749(3) 0.27258(15) 0.62269(14)
C39 C 0.2947(3) 0.34601(16) 0.59430(15)
H21 H 0.309239 0.345162 0.545542
C40 C 0.2931(3) 0.42051(16) 0.63778(16)
H22 H 0.305425 0.468882 0.617580
C41 C 0.2734(3) 0.42376(17) 0.71059(17)
H23 H 0.272942 0.473853 0.739524
C42 C 0.2543(3) 0.35107(17) 0.73997(15)
H24 H 0.241392 0.352396 0.789017
C43 C 0.2545(3) 0.27716(15) 0.69685(14)
H25 H 0.240750 0.229047 0.717242
C44 C 0.4110(3) 0.38093(15) 0.16194(13)
C45 C 0.5227(3) 0.43306(15) 0.15031(14)
H26 H 0.615869 0.417514 0.159444
C46 C 0.4976(3) 0.50826(15) 0.12521(13)
H27 H 0.574344 0.542170 0.118293
C47 C 0.3605(3) 0.53322(15) 0.11044(13)
C48 C 0.2476(3) 0.47934(16) 0.12050(14)
H28 H 0.154147 0.494221 0.110055
C49 C 0.2719(3) 0.40479(15) 0.14554(14)
H29 H 0.195099 0.370308 0.151487
C50 C 0.3218(3) 0.61684(15) 0.08592(14)
C51 C 0.2381(3) 0.60497(16) 0.00538(15)
C52 C 0.1992(3) 0.52867(16) -0.03702(15)
H30 H 0.220104 0.481597 -0.015477
C53 C 0.1302(3) 0.52123(18) -0.11052(15)
H31 H 0.106152 0.469612 -0.137527
C54 C 0.0970(3) 0.59043(19) -0.14381(16)
H32 H 0.050866 0.585559 -0.193046
C55 C 0.1333(3) 0.66675(19) -0.10295(17)
H33 H 0.109888 0.713429 -0.124599
C56 C 0.2047(3) 0.67429(17) -0.02950(16)
H34 H 0.230593 0.726120 -0.003199
C57 C 0.4553(3) 0.67542(15) 0.08650(14)
C58 C 0.5484(3) 0.65509(17) 0.03735(15)
H35 H 0.532500 0.605071 0.007000
C59 C 0.6650(3) 0.70854(18) 0.03294(16)
H36 H 0.726797 0.693648 0.000456
C60 C 0.6884(3) 0.78383(18) 0.07703(18)
H37 H 0.765480 0.819775 0.074044
C61 C 0.5961(3) 0.80513(18) 0.12556(18)
H38 H 0.611167 0.855650 0.155111
C62 C 0.4807(3) 0.75116(17) 0.13033(16)
H39 H 0.419785 0.766063 0.163311
C63 C 0.2343(3) 0.65396(15) 0.14384(15)
C64 C 0.1056(3) 0.68880(18) 0.12594(18)
H40 H 0.064222 0.688157 0.076331
C65 C 0.0374(3) 0.7249(2) 0.1817(2)
H41 H -0.048941 0.747868 0.168799
C66 C 0.0969(4) 0.7267(2) 0.2559(2)
H42 H 0.052242 0.751828 0.292776
C67 C 0.2234(3) 0.6908(2) 0.27442(18)
H43 H 0.263098 0.690570 0.324137
C68 C 0.2922(3) 0.65471(18) 0.21879(17)
H44 H 0.377665 0.630938 0.231970
C69 C 0.6872(5) 0.1302(2) 0.1624(2)
H45 H 0.633348 0.098236 0.117670
H46 H 0.759333 0.165192 0.147235
C70 C 0.7629(6) 0.0719(3) 0.2100(3)
H47 H 0.692321 0.034397 0.223407
H48 H 0.815851 0.102763 0.255493
C71 C 0.8660(7) 0.0230(4) 0.1704(4)
H49 H 0.923403 0.061542 0.149583
H50 H 0.808599 -0.012461 0.128891
C72 C 0.9753(9) -0.0334(3) 0.2154(2)
H51 H 1.031819 -0.059702 0.182367
H52 H 1.037161 0.000256 0.255633
H53 H 0.921644 -0.074207 0.234811
N1 N 0.3033(2) 0.33639(12) 0.29292(11)
O1 O 0.09937(18) 0.26100(11) 0.23524(10)
O2 O 0.50598(18) 0.41237(11) 0.35082(11)
C1A C -0.1565(2) 0.68619(14) 0.71556(13)
C2A C -0.0787(3) 0.64335(14) 0.66076(13)
C3A C 0.0634(3) 0.66764(15) 0.66185(14)
H1A H 0.110409 0.709040 0.697896
C4A C 0.1366(3) 0.62995(15) 0.60873(15)
H2A H 0.232164 0.646791 0.610324
C5A C 0.0699(2) 0.56780(14) 0.55345(14)
C6A C -0.0739(2) 0.53854(14) 0.55439(13)
C7A C -0.1441(3) 0.47078(14) 0.50405(13)
C8A C -0.2811(3) 0.44251(15) 0.51066(15)
H3A H -0.324600 0.395539 0.480495
C9A C -0.3552(3) 0.48329(15) 0.56191(15)
H4A H -0.447729 0.463825 0.564367
C10A C -0.2924(2) 0.55162(14) 0.60843(14)
C11A C -0.1484(2) 0.57810(14) 0.60810(13)
C12A C -0.3773(2) 0.59970(14) 0.65554(13)
C13A C -0.3912(2) 0.71692(14) 0.74490(14)
C14A C -0.4369(3) 0.78448(15) 0.71050(15)
C15A C -0.5335(3) 0.83263(16) 0.73999(17)
H5A H -0.564171 0.877364 0.717117
C16A C -0.5855(3) 0.81535(17) 0.80324(18)
C17A C -0.5386(3) 0.74789(16) 0.83614(15)
H6A H -0.571625 0.736369 0.878817
C18A C -0.4437(3) 0.69679(15) 0.80731(14)
C19A C -0.3909(3) 0.79771(14) 0.63900(15)
C20A C -0.2558(3) 0.83367(15) 0.63608(14)
H7A H -0.194300 0.854774 0.679899
C21A C -0.2123(3) 0.83818(15) 0.56756(14)
H8A H -0.121694 0.862017 0.566655
C22A C -0.3013(3) 0.80789(14) 0.50130(14)
C23A C -0.4399(3) 0.77550(15) 0.50465(15)
H9A H -0.503524 0.757171 0.460836
C24A C -0.4826(3) 0.77058(15) 0.57234(15)
H10A H -0.574553 0.748699 0.573187
C25A C -0.2601(3) 0.81216(15) 0.42428(14)
C26A C -0.3625(3) 0.87146(15) 0.38875(14)
C27A C -0.3554(3) 0.95214(16) 0.42244(15)
H11A H -0.283619 0.970495 0.462956
C28A C -0.4542(3) 1.00550(17) 0.39630(17)
H12A H -0.447775 1.059115 0.419466
C29A C -0.5618(3) 0.97957(17) 0.33613(17)
H13A H -0.626985 1.015604 0.318264
C30A C -0.5713(3) 0.89968(18) 0.30302(17)
H14A H -0.643781 0.881551 0.262747
C31A C -0.4728(3) 0.84560(16) 0.32955(15)
H15A H -0.481335 0.791596 0.307163
C32A C -0.0996(3) 0.83958(15) 0.43135(14)
C33A C -0.0476(3) 0.90621(17) 0.40210(16)
H16A H -0.111296 0.940165 0.379337
C34A C 0.0999(3) 0.92316(19) 0.40638(19)
H17A H 0.132614 0.968547 0.386751
C35A C 0.1969(3) 0.8741(2) 0.43894(17)
H18A H 0.294618 0.885866 0.441659
C36A C 0.1462(3) 0.8064(2) 0.46782(17)
H19A H 0.210569 0.772538 0.490226
C37A C 0.0007(3) 0.78902(17) 0.46348(16)
H20A H -0.031313 0.742859 0.482230
C38A C -0.2749(3) 0.72742(15) 0.37731(14)
C39A C -0.2947(3) 0.65399(16) 0.40570(15)
H21A H -0.309239 0.654838 0.454458
C40A C -0.2931(3) 0.57949(16) 0.36222(16)
H22A H -0.305425 0.531118 0.382420
C41A C -0.2734(3) 0.57624(17) 0.28941(17)
H23A H -0.272942 0.526147 0.260476
C42A C -0.2543(3) 0.64893(17) 0.26003(15)
H24A H -0.241392 0.647604 0.210983
C43A C -0.2545(3) 0.72284(15) 0.30315(14)
H25A H -0.240750 0.770953 0.282758
C44A C -0.4110(3) 0.61907(15) 0.83806(13)
C45A C -0.5227(3) 0.56694(15) 0.84969(14)
H26A H -0.615869 0.582486 0.840556
C46A C -0.4976(3) 0.49174(15) 0.87479(13)
H27A H -0.574344 0.457830 0.881707
C47A C -0.3605(3) 0.46678(15) 0.88956(13)
C48A C -0.2476(3) 0.52066(16) 0.87950(14)
H28A H -0.154147 0.505779 0.889945
C49A C -0.2719(3) 0.59521(15) 0.85446(14)
H29A H -0.195099 0.629692 0.848513
C50A C -0.3218(3) 0.38316(15) 0.91408(14)
C51A C -0.2381(3) 0.39503(16) 0.99462(15)
C52A C -0.1992(3) 0.47133(16) 1.03702(15)
H30A H -0.220104 0.518403 1.015477
C53A C -0.1302(3) 0.47877(18) 1.11052(15)
H31A H -0.106152 0.530388 1.137527
C54A C -0.0970(3) 0.40957(19) 1.14381(16)
H32A H -0.050866 0.414441 1.193046
C55A C -0.1333(3) 0.33325(19) 1.10295(17)
H33A H -0.109888 0.286571 1.124599
C56A C -0.2047(3) 0.32571(17) 1.02950(16)
H34A H -0.230593 0.273880 1.003199
C57A C -0.4553(3) 0.32458(15) 0.91350(14)
C58A C -0.5484(3) 0.34491(17) 0.96265(15)
H35A H -0.532500 0.394929 0.993000
C59A C -0.6650(3) 0.29146(18) 0.96706(16)
H36A H -0.726797 0.306352 0.999544
C60A C -0.6884(3) 0.21617(18) 0.92297(18)
H37A H -0.765480 0.180225 0.925956
C61A C -0.5961(3) 0.19487(18) 0.87444(18)
H38A H -0.611167 0.144350 0.844889
C62A C -0.4807(3) 0.24884(17) 0.86967(16)
H39A H -0.419785 0.233937 0.836689
C63A C -0.2343(3) 0.34604(15) 0.85616(15)
C64A C -0.1056(3) 0.31120(18) 0.87406(18)
H40A H -0.064222 0.311843 0.923669
C65A C -0.0374(3) 0.2751(2) 0.8183(2)
H41A H 0.048941 0.252132 0.831201
C66A C -0.0969(4) 0.2733(2) 0.7441(2)
H42A H -0.052242 0.248172 0.707224
C67A C -0.2234(3) 0.3092(2) 0.72558(18)
H43A H -0.263098 0.309430 0.675863
C68A C -0.2922(3) 0.34529(18) 0.78121(17)
H44A H -0.377665 0.369062 0.768030
C69A C -0.6872(5) 0.8698(2) 0.8376(2)
H45A H -0.633348 0.901764 0.882330
H46A H -0.759333 0.834808 0.852765
C70A C -0.7629(6) 0.9281(3) 0.7900(3)
H47A H -0.692321 0.965603 0.776593
H48A H -0.815851 0.897237 0.744507
C71A C -0.8660(7) 0.9770(4) 0.8296(4)
H49A H -0.923403 0.938458 0.850417
H50A H -0.808599 1.012461 0.871109
C72A C -0.9753(9) 1.0334(3) 0.7846(2)
H51A H -1.031819 1.059702 0.817633
H52A H -1.037161 0.999744 0.744367
H53A H -0.921644 1.074207 0.765189
N1A N -0.3033(2) 0.66361(12) 0.70708(11)
O1A O -0.09937(18) 0.73900(11) 0.76476(10)
O2A O -0.50598(18) 0.58763(11) 0.64918(11)
loop_
_geom_bond_atom_site_label_1
_geom_bond_atom_site_label_2
_geom_bond_site_symmetry_1
_geom_bond_site_symmetry_2
C1 C2 1_555 1_555
C2 C3 1_555 1_555
C3 H1 1_555 1_555
C4 C3 1_555 1_555
H2 C4 1_555 1_555
C5 C4 1_555 1_555
C6 C5 1_555 1_555
C7 C6 1_555 1_555
C8 C7 1_555 1_555
H3 C8 1_555 1_555
C9 C8 1_555 1_555
H4 C9 1_555 1_555
C10 C9 1_555 1_555
C11 C2 1_555 1_555
C12 C10 1_555 1_555
C13 C14 1_555 1_555
C14 C15 1_555 1_555
C15 H5 1_555 1_555
C16 C15 1_555 1_555
C17 C16 1_555 1_555
H6 C17 1_555 1_555
C18 C13 1_555 1_555
C19 C14 1_555 1_555
C20 C19 1_555 1_555
H7 C20 1_555 1_555
C21 C20 1_555 1_555
H8 C21 1_555 1_555
C22 C21 1_555 1_555
C23 C22 1_555 1_555
H9 C23 1_555 1_555
C24 C19 1_555 1_555
H10 C24 1_555 1_555
C25 C22 1_555 1_555
C26 C25 1_555 1_555
C27 C26 1_555 1_555
H11 C27 1_555 1_555
C28 C27 1_555 1_555
H12 C28 1_555 1_555
C29 C28 1_555 1_555
H13 C29 1_555 1_555
C30 C29 1_555 1_555
H14 C30 1_555 1_555
C31 C26 1_555 1_555
H15 C31 1_555 1_555
C32 C25 1_555 1_555
C33 C32 1_555 1_555
H16 C33 1_555 1_555
C34 C33 1_555 1_555
H17 C34 1_555 1_555
C35 C34 1_555 1_555
H18 C35 1_555 1_555
C36 C35 1_555 1_555
H19 C36 1_555 1_555
C37 C32 1_555 1_555
H20 C37 1_555 1_555
C38 C25 1_555 1_555
C39 C38 1_555 1_555
H21 C39 1_555 1_555
C40 C39 1_555 1_555
H22 C40 1_555 1_555
C41 C40 1_555 1_555
H23 C41 1_555 1_555
C42 C41 1_555 1_555
H24 C42 1_555 1_555
C43 C38 1_555 1_555
H25 C43 1_555 1_555
C44 C18 1_555 1_555
C45 C44 1_555 1_555
H26 C45 1_555 1_555
C46 C45 1_555 1_555
H27 C46 1_555 1_555
C47 C46 1_555 1_555
C48 C47 1_555 1_555
H28 C48 1_555 1_555
C49 C44 1_555 1_555
H29 C49 1_555 1_555
C50 C47 1_555 1_555
C51 C50 1_555 1_555
C52 C51 1_555 1_555
H30 C52 1_555 1_555
C53 C52 1_555 1_555
H31 C53 1_555 1_555
C54 C53 1_555 1_555
H32 C54 1_555 1_555
C55 C54 1_555 1_555
H33 C55 1_555 1_555
C56 C51 1_555 1_555
H34 C56 1_555 1_555
C57 C50 1_555 1_555
C58 C57 1_555 1_555
H35 C58 1_555 1_555
C59 C58 1_555 1_555
H36 C59 1_555 1_555
C60 C59 1_555 1_555
H37 C60 1_555 1_555
C61 C60 1_555 1_555
H38 C61 1_555 1_555
C62 C57 1_555 1_555
H39 C62 1_555 1_555
C63 C50 1_555 1_555
C64 C63 1_555 1_555
H40 C64 1_555 1_555
C65 C64 1_555 1_555
H41 C65 1_555 1_555
C66 C65 1_555 1_555
H42 C66 1_555 1_555
C67 C66 1_555 1_555
H43 C67 1_555 1_555
C68 C63 1_555 1_555
H44 C68 1_555 1_555
C69 C16 1_555 1_555
H45 C69 1_555 1_555
H46 C69 1_555 1_555
C70 C69 1_555 1_555
H47 C70 1_555 1_555
H48 C70 1_555 1_555
C71 C70 1_555 1_555
H49 C71 1_555 1_555
H50 C71 1_555 1_555
C72 C71 1_555 1_555
H51 C72 1_555 1_555
H52 C72 1_555 1_555
H53 C72 1_555 1_555
N1 C1 1_555 1_555
O1 C1 1_555 1_555
O2 C12 1_555 1_555
C1A C2A 1_555 1_555
C2A C3A 1_555 1_555
C3A H1A 1_555 1_555
C4A C3A 1_555 1_555
H2A C4A 1_555 1_555
C5A C7 1_555 1_555
C6A C5A 1_555 1_555
C7A C5 1_555 1_555
C8A C7A 1_555 1_555
H3A C8A 1_555 1_555
C9A C8A 1_555 1_555
H4A C9A 1_555 1_555
C10A C9A 1_555 1_555
C11A C2A 1_555 1_555
C12A C10A 1_555 1_555
C13A C14A 1_555 1_555
C14A C15A 1_555 1_555
C15A H5A 1_555 1_555
C16A C15A 1_555 1_555
C17A C16A 1_555 1_555
H6A C17A 1_555 1_555
C18A C13A 1_555 1_555
C19A C14A 1_555 1_555
C20A C19A 1_555 1_555
H7A C20A 1_555 1_555
C21A C20A 1_555 1_555
H8A C21A 1_555 1_555
C22A C21A 1_555 1_555
C23A C22A 1_555 1_555
H9A C23A 1_555 1_555
C24A C19A 1_555 1_555
H10A C24A 1_555 1_555
C25A C22A 1_555 1_555
C26A C25A 1_555 1_555
C27A C26A 1_555 1_555
H11A C27A 1_555 1_555
C28A C27A 1_555 1_555
H12A C28A 1_555 1_555
C29A C28A 1_555 1_555
H13A C29A 1_555 1_555
C30A C29A 1_555 1_555
H14A C30A 1_555 1_555
C31A C26A 1_555 1_555
H15A C31A 1_555 1_555
C32A C25A 1_555 1_555
C33A C32A 1_555 1_555
H16A C33A 1_555 1_555
C34A C33A 1_555 1_555
H17A C34A 1_555 1_555
C35A C34A 1_555 1_555
H18A C35A 1_555 1_555
C36A C35A 1_555 1_555
H19A C36A 1_555 1_555
C37A C32A 1_555 1_555
H20A C37A 1_555 1_555
C38A C25A 1_555 1_555
C39A C38A 1_555 1_555
H21A C39A 1_555 1_555
C40A C39A 1_555 1_555
H22A C40A 1_555 1_555
C41A C40A 1_555 1_555
H23A C41A 1_555 1_555
C42A C41A 1_555 1_555
H24A C42A 1_555 1_555
C43A C38A 1_555 1_555
H25A C43A 1_555 1_555
C44A C18A 1_555 1_555
C45A C44A 1_555 1_555
H26A C45A 1_555 1_555
C46A C45A 1_555 1_555
H27A C46A 1_555 1_555
C47A C46A 1_555 1_555
C48A C47A 1_555 1_555
H28A C48A 1_555 1_555
C49A C44A 1_555 1_555
H29A C49A 1_555 1_555
C50A C47A 1_555 1_555
C51A C50A 1_555 1_555
C52A C51A 1_555 1_555
H30A C52A 1_555 1_555
C53A C52A 1_555 1_555
H31A C53A 1_555 1_555
C54A C53A 1_555 1_555
H32A C54A 1_555 1_555
C55A C54A 1_555 1_555
H33A C55A 1_555 1_555
C56A C51A 1_555 1_555
H34A C56A 1_555 1_555
C57A C50A 1_555 1_555
C58A C57A 1_555 1_555
H35A C58A 1_555 1_555
C59A C58A 1_555 1_555
H36A C59A 1_555 1_555
C60A C59A 1_555 1_555
H37A C60A 1_555 1_555
C61A C60A 1_555 1_555
H38A C61A 1_555 1_555
C62A C57A 1_555 1_555
H39A C62A 1_555 1_555
C63A C50A 1_555 1_555
C64A C63A 1_555 1_555
H40A C64A 1_555 1_555
C65A C64A 1_555 1_555
H41A C65A 1_555 1_555
C66A C65A 1_555 1_555
H42A C66A 1_555 1_555
C67A C66A 1_555 1_555
H43A C67A 1_555 1_555
C68A C63A 1_555 1_555
H44A C68A 1_555 1_555
C69A C16A 1_555 1_555
H45A C69A 1_555 1_555
H46A C69A 1_555 1_555
C70A C69A 1_555 1_555
H47A C70A 1_555 1_555
H48A C70A 1_555 1_555
C71A C70A 1_555 1_555
H49A C71A 1_555 1_555
H50A C71A 1_555 1_555
C72A C71A 1_555 1_555
H51A C72A 1_555 1_555
H52A C72A 1_555 1_555
H53A C72A 1_555 1_555
N1A C1A 1_555 1_555
O1A C1A 1_555 1_555
O2A C12A 1_555 1_555
C6 C11 1_555 1_555
C10 C11 1_555 1_555
C12 N1 1_555 1_555
C13 N1 1_555 1_555
C17 C18 1_555 1_555
C23 C24 1_555 1_555
C30 C31 1_555 1_555
C36 C37 1_555 1_555
C42 C43 1_555 1_555
C48 C49 1_555 1_555
C55 C56 1_555 1_555
C61 C62 1_555 1_555
C67 C68 1_555 1_555
C4A C5A 1_555 1_555
C6A C7A 1_555 1_555
C6A C11A 1_555 1_555
C10A C11A 1_555 1_555
C12A N1A 1_555 1_555
C13A N1A 1_555 1_555
C17A C18A 1_555 1_555
C23A C24A 1_555 1_555
C30A C31A 1_555 1_555
C36A C37A 1_555 1_555
C42A C43A 1_555 1_555
C48A C49A 1_555 1_555
C55A C56A 1_555 1_555
C61A C62A 1_555 1_555
C67A C68A 1_555 1_555

#END
