
#######################################################################
#
#                 Cambridge Crystallographic Data Centre
#                                CCDC 
#
#######################################################################
#
# If this CIF has been generated from an entry in the Cambridge 
# Structural Database, then it will include bibliographic, chemical, 
# crystal, experimental, refinement or atomic coordinate data resulting 
# from the CCDC's data processing and validation procedures.
#
#######################################################################

data_MENQOO
_chemical_formula_moiety         'C25 H23 B1 N2'
_chemical_name_systematic        
1',3',7',9'-tetramethyl-5H-spiro[dibenzo[b,d]borole-5,5'-dipyrrolo[1,2-c:2',1'-f][1,3,2]diazaborinine]
_symmetry_cell_setting           triclinic
_symmetry_space_group_name_H-M   'P -1'
_symmetry_Int_Tables_number      2
_space_group_name_Hall           '-P 1'
loop_
_symmetry_equiv_pos_site_id
_symmetry_equiv_pos_as_xyz
1 x,y,z
2 -x,-y,-z
_cell_length_a                   8.6859(2)
_cell_length_b                   15.3055(3)
_cell_length_c                   15.4712(3)
_cell_angle_alpha                90.4570(10)
_cell_angle_beta                 96.0700(10)
_cell_angle_gamma                99.7110(10)
_cell_volume                     2015.24
_exptl_crystal_colour            orange
_exptl_crystal_description       block
_cell_formula_units_Z            4
loop_
_atom_site_label
_atom_site_type_symbol
_atom_site_fract_x
_atom_site_fract_y
_atom_site_fract_z
B1 B 0.31086(16) 0.16564(9) 0.17939(9)
N1 N 0.29111(12) 0.09215(7) 0.10565(7)
N2 N 0.42233(12) 0.24853(7) 0.14694(7)
C1 C 0.37432(15) 0.13480(8) 0.27500(8)
C2 C 0.51186(16) 0.10617(8) 0.30634(9)
H1 H 0.5864 0.0980 0.2676
C3 C 0.5421(2) 0.08919(9) 0.39429(9)
H2 H 0.6382 0.0710 0.4153
C4 C 0.4333(2) 0.09869(9) 0.45121(9)
H3 H 0.4548 0.0869 0.5111
C5 C 0.29300(19) 0.12530(9) 0.42128(9)
H4 H 0.2170 0.1305 0.4600
C6 C 0.26445(16) 0.14427(8) 0.33396(8)
C7 C 0.12714(16) 0.17729(8) 0.28979(9)
C8 C -0.00475(18) 0.19608(10) 0.32569(12)
H5 H -0.0137 0.1888 0.3860
C9 C -0.12200(18) 0.22541(10) 0.27219(14)
H6 H -0.2116 0.2391 0.2962
C10 C -0.11092(18) 0.23512(10) 0.18458(14)
H7 H -0.1942 0.2535 0.1483
C11 C 0.02274(16) 0.21794(9) 0.14880(11)
H8 H 0.0306 0.2257 0.0885
C12 C 0.14365(15) 0.18960(8) 0.20097(9)
C13 C 0.20510(17) 0.01039(9) 0.10366(9)
C14 C 0.21150(19) -0.03215(10) 0.02326(10)
H9 H 0.1608 -0.0906 0.0060
C15 C 0.30316(17) 0.02496(10) -0.02586(9)
C16 C 0.35428(15) 0.10343(9) 0.02597(8)
C17 C 0.44665(15) 0.18193(9) 0.00823(8)
H10 H 0.4899 0.1869 -0.0458
C18 C 0.47916(15) 0.25376(9) 0.06562(8)
C19 C 0.56479(17) 0.34004(10) 0.05696(10)
C20 C 0.55966(18) 0.38532(10) 0.13328(10)
H11 H 0.6070 0.4451 0.1470
C21 C 0.47252(16) 0.32817(9) 0.18762(9)
C22 C 0.1182(2) -0.02654(10) 0.17658(11)
H12 H 0.0402 0.0104 0.1878
H13 H 0.1922 -0.0272 0.2289
H14 H 0.0649 -0.0872 0.1611
C23 C 0.3425(2) 0.01046(12) -0.11616(10)
H15 H 0.2913 -0.0488 -0.1378
H16 H 0.4566 0.0155 -0.1156
H17 H 0.3054 0.0552 -0.1542
C24 C 0.4406(2) 0.34930(10) 0.27718(10)
H18 H 0.4789 0.3066 0.3174
H19 H 0.3272 0.3459 0.2787
H20 H 0.4945 0.4093 0.2946
C25 C 0.6418(3) 0.37398(14) -0.02124(12)
H21 H 0.7070 0.4321 -0.0070
H22 H 0.5609 0.3797 -0.0691
H23 H 0.7078 0.3324 -0.0387
B2 B 0.23644(17) 0.33911(9) 0.68316(9)
N3 N 0.16234(12) 0.37861(7) 0.76024(7)
N4 N 0.23946(12) 0.41081(6) 0.61061(7)
C26 C 0.40927(15) 0.31503(9) 0.71091(8)
C27 C 0.55213(16) 0.36797(11) 0.73841(10)
H24 H 0.5581 0.4301 0.7461
C28 C 0.68734(18) 0.32994(13) 0.75490(11)
H25 H 0.7853 0.3667 0.7727
C29 C 0.6799(2) 0.23996(14) 0.74563(12)
H26 H 0.7724 0.2150 0.7583
C30 C 0.53936(19) 0.18535(12) 0.71804(11)
H27 H 0.5346 0.1232 0.7115
C31 C 0.40510(16) 0.22318(9) 0.70001(9)
C32 C 0.24589(16) 0.17874(8) 0.66585(8)
C33 C 0.19452(19) 0.08861(9) 0.64843(10)
H28 H 0.2649 0.0477 0.6591
C34 C 0.0405(2) 0.05919(9) 0.61545(10)
H29 H 0.0049 -0.0022 0.6029
C35 C -0.06219(19) 0.11844(10) 0.60068(10)
H30 H -0.1680 0.0977 0.5777
C36 C -0.01137(17) 0.20881(9) 0.61928(9)
H31 H -0.0833 0.2490 0.6096
C37 C 0.14324(15) 0.24038(8) 0.65173(8)
C38 C 0.14060(16) 0.34276(10) 0.83850(9)
C39 C 0.06716(17) 0.39809(11) 0.88692(10)
H32 H 0.0399 0.3879 0.9443
C40 C 0.04113(18) 0.46942(10) 0.83781(10)
C41 C 0.10196(15) 0.45764(8) 0.75828(9)
C42 C 0.11204(15) 0.51129(8) 0.68698(9)
H33 H 0.0700 0.5647 0.6876
C43 C 0.18055(15) 0.49031(8) 0.61531(9)
C44 C 0.20704(17) 0.53778(9) 0.53839(9)
C45 C 0.28054(19) 0.48671(10) 0.48916(10)
H34 H 0.3135 0.5011 0.4336
C46 C 0.29936(18) 0.40910(9) 0.53439(9)
C47 C 0.1866(2) 0.25726(12) 0.86528(11)
H35 H 0.2999 0.2607 0.8634
H36 H 0.1295 0.2097 0.8256
H37 H 0.1609 0.2449 0.9246
C48 C -0.0403(3) 0.54391(12) 0.86057(14)
H38 H -0.1306 0.5207 0.8917
H39 H -0.0767 0.5719 0.8072
H40 H 0.0330 0.5879 0.8977
C49 C 0.1636(2) 0.62636(11) 0.51759(12)
H41 H 0.1691 0.6372 0.4555
H42 H 0.2368 0.6727 0.5520
H43 H 0.0564 0.6273 0.5316
C50 C 0.3716(2) 0.33514(10) 0.50408(11)
H44 H 0.4558 0.3243 0.5479
H45 H 0.4152 0.3506 0.4492
H46 H 0.2917 0.2815 0.4950
loop_
_geom_bond_atom_site_label_1
_geom_bond_atom_site_label_2
_geom_bond_site_symmetry_1
_geom_bond_site_symmetry_2
B1 N1 1_555 1_555
N1 C13 1_555 1_555
N2 B1 1_555 1_555
C1 B1 1_555 1_555
C2 C1 1_555 1_555
H1 C2 1_555 1_555
C3 C2 1_555 1_555
H2 C3 1_555 1_555
C4 C3 1_555 1_555
H3 C4 1_555 1_555
C5 C4 1_555 1_555
H4 C5 1_555 1_555
C6 C1 1_555 1_555
C7 C6 1_555 1_555
C8 C7 1_555 1_555
H5 C8 1_555 1_555
C9 C8 1_555 1_555
H6 C9 1_555 1_555
C10 C9 1_555 1_555
H7 C10 1_555 1_555
C11 C10 1_555 1_555
H8 C11 1_555 1_555
C12 B1 1_555 1_555
C13 C14 1_555 1_555
C14 H9 1_555 1_555
C15 C14 1_555 1_555
C16 N1 1_555 1_555
C17 C16 1_555 1_555
H10 C17 1_555 1_555
C18 N2 1_555 1_555
C19 C18 1_555 1_555
C20 C19 1_555 1_555
H11 C20 1_555 1_555
C21 N2 1_555 1_555
C22 C13 1_555 1_555
H12 C22 1_555 1_555
H13 C22 1_555 1_555
H14 C22 1_555 1_555
C23 C15 1_555 1_555
H15 C23 1_555 1_555
H16 C23 1_555 1_555
H17 C23 1_555 1_555
C24 C21 1_555 1_555
H18 C24 1_555 1_555
H19 C24 1_555 1_555
H20 C24 1_555 1_555
C25 C19 1_555 1_555
H21 C25 1_555 1_555
H22 C25 1_555 1_555
H23 C25 1_555 1_555
B2 N3 1_555 1_555
N3 C38 1_555 1_555
N4 B2 1_555 1_555
C26 B2 1_555 1_555
C27 C26 1_555 1_555
H24 C27 1_555 1_555
C28 C27 1_555 1_555
H25 C28 1_555 1_555
C29 C28 1_555 1_555
H26 C29 1_555 1_555
C30 C29 1_555 1_555
H27 C30 1_555 1_555
C31 C26 1_555 1_555
C32 C31 1_555 1_555
C33 C32 1_555 1_555
H28 C33 1_555 1_555
C34 C33 1_555 1_555
H29 C34 1_555 1_555
C35 C34 1_555 1_555
H30 C35 1_555 1_555
C36 C35 1_555 1_555
H31 C36 1_555 1_555
C37 B2 1_555 1_555
C38 C39 1_555 1_555
C39 H32 1_555 1_555
C40 C39 1_555 1_555
C41 N3 1_555 1_555
C42 C41 1_555 1_555
H33 C42 1_555 1_555
C43 N4 1_555 1_555
C44 C43 1_555 1_555
C45 C44 1_555 1_555
H34 C45 1_555 1_555
C46 N4 1_555 1_555
C47 C38 1_555 1_555
H35 C47 1_555 1_555
H36 C47 1_555 1_555
H37 C47 1_555 1_555
C48 C40 1_555 1_555
H38 C48 1_555 1_555
H39 C48 1_555 1_555
H40 C48 1_555 1_555
C49 C44 1_555 1_555
H41 C49 1_555 1_555
H42 C49 1_555 1_555
H43 C49 1_555 1_555
C50 C46 1_555 1_555
H44 C50 1_555 1_555
H45 C50 1_555 1_555
H46 C50 1_555 1_555
C5 C6 1_555 1_555
C7 C12 1_555 1_555
C11 C12 1_555 1_555
C15 C16 1_555 1_555
C17 C18 1_555 1_555
C20 C21 1_555 1_555
C30 C31 1_555 1_555
C32 C37 1_555 1_555
C36 C37 1_555 1_555
C40 C41 1_555 1_555
C42 C43 1_555 1_555
C45 C46 1_555 1_555

#END
