
#######################################################################
#
#                 Cambridge Crystallographic Data Centre
#                                CCDC 
#
#######################################################################
#
# If this CIF has been generated from an entry in the Cambridge 
# Structural Database, then it will include bibliographic, chemical, 
# crystal, experimental, refinement or atomic coordinate data resulting 
# from the CCDC's data processing and validation procedures.
#
#######################################################################

data_MENQAY
_chemical_formula_moiety         'C20 H23 N1 O5'
_chemical_name_systematic        
'Ethyl 12b-allyl-1-hydroxy-3,6,7,12b-tetrahydro-4H-1,3-dioxolo(4,5-g)pyrido(2,1-a)isoquinoline-2-carboxylate'
_symmetry_cell_setting           monoclinic
_symmetry_space_group_name_H-M   'P 21/c'
_symmetry_Int_Tables_number      14
_space_group_name_Hall           '-P 2ybc'
loop_
_symmetry_equiv_pos_site_id
_symmetry_equiv_pos_as_xyz
1 x,y,z
2 -x,1/2+y,1/2-z
3 -x,-y,-z
4 x,1/2-y,1/2+z
_cell_length_a                   8.5365(7)
_cell_length_b                   20.0523(18)
_cell_length_c                   10.6574(9)
_cell_angle_alpha                90
_cell_angle_beta                 99.854(4)
_cell_angle_gamma                90
_cell_volume                     1797.38
_exptl_crystal_colour            colorless
_exptl_crystal_description       plate
_chemical_melting_point          '395-396 K'
_cell_formula_units_Z            4
_exptl_crystal_recrystallization_method 'ethyl acetate'
loop_
_atom_site_label
_atom_site_type_symbol
_atom_site_fract_x
_atom_site_fract_y
_atom_site_fract_z
O1 O 0.3644(3) 0.72684(13) 0.6686(3)
H1 H 0.4297 0.7171 0.6235
N1 N 0.0345(4) 0.62860(15) 0.7403(3)
O2 O 0.4766(4) 0.66506(14) 0.4938(3)
O3 O 0.3496(4) 0.57247(14) 0.4151(3)
O4 O -0.2179(4) 0.93117(15) 0.6902(4)
O5 O 0.0411(4) 0.93451(13) 0.6546(3)
C1 C 0.0957(5) 0.81455(18) 0.6949(4)
H2 H 0.2013 0.8170 0.6840
C2 C 0.1324(5) 0.68983(18) 0.7464(4)
C3 C 0.0006(5) 0.86979(19) 0.6826(4)
C4 C 0.0280(5) 0.75370(18) 0.7247(4)
C5 C 0.2449(4) 0.68203(18) 0.6510(4)
C6 C 0.3633(5) 0.6268(2) 0.4889(4)
C7 C 0.2356(5) 0.6956(2) 0.8804(4)
H3 H 0.3038 0.7344 0.8817
H4 H 0.1661 0.7031 0.9421
C8 C 0.2358(5) 0.63344(19) 0.5618(4)
C9 C -0.0322(5) 0.6102(2) 0.6089(4)
H5 H -0.0831 0.6486 0.5641
H6 H -0.1118 0.5756 0.6089
C10 C -0.0881(5) 0.6339(2) 0.8199(4)
H7 H -0.0376 0.6424 0.9071
H8 H -0.1436 0.5916 0.8184
C11 C -0.1523(5) 0.8677(2) 0.7027(5)
C12 C -0.2074(6) 0.6883(2) 0.7777(6)
H9 H -0.2677 0.6973 0.8452
H10 H -0.2813 0.6733 0.7036
C13 C -0.2206(5) 0.8102(2) 0.7342(5)
H11 H -0.3252 0.8095 0.7480
C14 C 0.0984(5) 0.5853(2) 0.5430(4)
H12 H 0.0582 0.5802 0.4527
H13 H 0.1343 0.5420 0.5769
C15 C -0.1059(6) 0.9698(2) 0.6392(5)
H14 H -0.0909 1.0123 0.6828
H15 H -0.1440 0.9782 0.5495
C16 C -0.1276(5) 0.7521(2) 0.7451(4)
C17 C 0.4405(7) 0.4979(3) 0.2711(5)
H16 H 0.4252 0.4631 0.3296
H17 H 0.5274 0.4865 0.2287
H18 H 0.3455 0.5033 0.2093
C18 C 0.4770(6) 0.5614(2) 0.3421(5)
H19 H 0.5786 0.5582 0.3988
H20 H 0.4819 0.5980 0.2834
C19 C 0.3354(8) 0.6371(3) 0.9202(6)
H21 H 0.2845 0.5978 0.8904
C20 C 0.4534(11) 0.6274(4) 0.9753(7)
H22 H 0.5168 0.6627 1.0105
H23 H 0.4903 0.5838 0.9871
loop_
_geom_bond_atom_site_label_1
_geom_bond_atom_site_label_2
_geom_bond_site_symmetry_1
_geom_bond_site_symmetry_2
O1 H1 1_555 1_555
N1 C2 1_555 1_555
O2 C6 1_555 1_555
O3 C6 1_555 1_555
O4 C11 1_555 1_555
O5 C3 1_555 1_555
C1 H2 1_555 1_555
C2 C4 1_555 1_555
C3 C1 1_555 1_555
C4 C1 1_555 1_555
C5 O1 1_555 1_555
C6 C8 1_555 1_555
C7 C2 1_555 1_555
H3 C7 1_555 1_555
H4 C7 1_555 1_555
C8 C5 1_555 1_555
C9 N1 1_555 1_555
H5 C9 1_555 1_555
H6 C9 1_555 1_555
C10 N1 1_555 1_555
H7 C10 1_555 1_555
H8 C10 1_555 1_555
C11 C3 1_555 1_555
C12 C10 1_555 1_555
H9 C12 1_555 1_555
H10 C12 1_555 1_555
C13 C11 1_555 1_555
H11 C13 1_555 1_555
C14 C8 1_555 1_555
H12 C14 1_555 1_555
H13 C14 1_555 1_555
C15 O4 1_555 1_555
H14 C15 1_555 1_555
H15 C15 1_555 1_555
C16 C4 1_555 1_555
C17 H16 1_555 1_555
H17 C17 1_555 1_555
H18 C17 1_555 1_555
C18 O3 1_555 1_555
H19 C18 1_555 1_555
H20 C18 1_555 1_555
C19 C7 1_555 1_555
H21 C19 1_555 1_555
C20 C19 1_555 1_555
H22 C20 1_555 1_555
H23 C20 1_555 1_555
O5 C15 1_555 1_555
C2 C5 1_555 1_555
C9 C14 1_555 1_555
C12 C16 1_555 1_555
C13 C16 1_555 1_555
C17 C18 1_555 1_555

#END
