
#######################################################################
#
#                 Cambridge Crystallographic Data Centre
#                                CCDC 
#
#######################################################################
#
# If this CIF has been generated from an entry in the Cambridge 
# Structural Database, then it will include bibliographic, chemical, 
# crystal, experimental, refinement or atomic coordinate data resulting 
# from the CCDC's data processing and validation procedures.
#
#######################################################################

data_MENQAA
_chemical_formula_moiety         'C31 H27 B1 N2 O1,C1 H2 Cl2'
_chemical_name_systematic        
"1,3,7,9-tetramethyl-10-phenyl-5H-spiro[dipyrrolo[1,2-c:2',1'-f][1,3,2]diazaborinine-5,10'-phenoxaborinine] dichloromethane solvate"
_symmetry_cell_setting           monoclinic
_symmetry_space_group_name_H-M   'P 21/n'
_symmetry_Int_Tables_number      14
_space_group_name_Hall           '-P 2yn'
loop_
_symmetry_equiv_pos_site_id
_symmetry_equiv_pos_as_xyz
1 x,y,z
2 1/2-x,1/2+y,1/2-z
3 -x,-y,-z
4 1/2+x,1/2-y,1/2+z
_cell_length_a                   8.9083(3)
_cell_length_b                   14.5182(5)
_cell_length_c                   21.1754(7)
_cell_angle_alpha                90
_cell_angle_beta                 100.057(2)
_cell_angle_gamma                90
_cell_volume                     2696.59
_exptl_crystal_description       block
_cell_formula_units_Z            4
loop_
_atom_site_label
_atom_site_type_symbol
_atom_site_fract_x
_atom_site_fract_y
_atom_site_fract_z
B1 B 0.8088(2) 0.75557(15) 0.95940(9)
O1 O 1.02555(15) 0.61863(9) 1.03067(6)
N1 N 0.78708(17) 0.86047(10) 0.97483(7)
N2 N 0.69129(17) 0.73733(10) 0.89573(7)
C1 C 0.7744(2) 0.69155(13) 1.01638(8)
C2 C 0.6349(2) 0.69196(14) 1.03814(9)
H1 H 0.5585 0.7342 1.0194
C3 C 0.6035(2) 0.63361(16) 1.08570(10)
H2 H 0.5072 0.6357 1.0990
C4 C 0.7143(2) 0.57202(15) 1.11370(9)
H3 H 0.6940 0.5316 1.1465
C5 C 0.8535(2) 0.56930(14) 1.09421(9)
H4 H 0.9297 0.5273 1.1135
C6 C 0.8821(2) 0.62840(13) 1.04614(8)
C7 C 1.0708(2) 0.67026(13) 0.98229(9)
C8 C 1.2164(2) 0.65009(15) 0.97122(10)
H5 H 1.2765 0.6048 0.9963
C9 C 1.2733(2) 0.69617(15) 0.92356(10)
H6 H 1.3725 0.6824 0.9155
C10 C 1.1852(2) 0.76272(15) 0.88733(9)
H7 H 1.2237 0.7950 0.8545
C11 C 1.0408(2) 0.78137(13) 0.89955(9)
H8 H 0.9815 0.8271 0.8745
C12 C 0.9782(2) 0.73588(13) 0.94713(8)
C13 C 0.8585(2) 0.90626(13) 1.02653(9)
C14 C 0.8160(2) 0.99933(13) 1.02160(9)
H9 H 0.8512 1.0458 1.0522
C15 C 0.7154(2) 1.01253(13) 0.96544(9)
C16 C 0.6975(2) 0.92440(12) 0.93476(9)
C17 C 0.6138(2) 0.89666(13) 0.87638(8)
C18 C 0.6088(2) 0.80456(13) 0.85656(8)
C19 C 0.5275(2) 0.76046(13) 0.80079(8)
C20 C 0.5634(2) 0.66822(13) 0.80805(9)
H10 H 0.5263 0.6210 0.7783
C21 C 0.6632(2) 0.65523(13) 0.86623(9)
C22 C 0.9663(2) 0.86236(15) 1.07968(9)
H11 H 1.0432 0.8273 1.0619
H12 H 0.9100 0.8208 1.1036
H13 H 1.0166 0.9101 1.1086
C23 C 0.6395(3) 1.10218(14) 0.94468(11)
H14 H 0.6844 1.1512 0.9738
H15 H 0.5302 1.0976 0.9457
H16 H 0.6543 1.1165 0.9010
C24 C 0.4201(2) 0.80110(14) 0.74528(9)
H17 H 0.3774 0.7518 0.7159
H18 H 0.4753 0.8448 0.7225
H19 H 0.3373 0.8332 0.7612
C25 C 0.7272(2) 0.56576(13) 0.89315(10)
H20 H 0.8373 0.5721 0.9077
H21 H 0.7078 0.5181 0.8600
H22 H 0.6785 0.5483 0.9295
C26 C 0.5273(2) 0.96669(12) 0.83298(9)
C27 C 0.3819(2) 0.99246(14) 0.84085(9)
H23 H 0.3377 0.9663 0.8744
C28 C 0.3014(3) 1.05634(15) 0.79972(11)
H24 H 0.2021 1.0742 0.8055
C29 C 0.3631(3) 1.09417(15) 0.75060(10)
H25 H 0.3064 1.1375 0.7223
C30 C 0.5075(3) 1.06900(14) 0.74256(10)
H26 H 0.5506 1.0952 0.7087
C31 C 0.5905(2) 1.00583(14) 0.78355(9)
H27 H 0.6905 0.9892 0.7780
Cl1 Cl -0.01547(7) 0.90588(4) 0.74816(3)
Cl2 Cl -0.25674(7) 0.81407(5) 0.65998(3)
C32 C -0.1151(3) 0.80200(17) 0.72748(13)
H28 H -0.0421 0.7540 0.7191
H29 H -0.1621 0.7813 0.7641
loop_
_geom_bond_atom_site_label_1
_geom_bond_atom_site_label_2
_geom_bond_site_symmetry_1
_geom_bond_site_symmetry_2
B1 N1 1_555 1_555
O1 C6 1_555 1_555
N1 C13 1_555 1_555
N2 B1 1_555 1_555
C1 B1 1_555 1_555
C2 C1 1_555 1_555
H1 C2 1_555 1_555
C3 C2 1_555 1_555
H2 C3 1_555 1_555
C4 C3 1_555 1_555
H3 C4 1_555 1_555
C5 C4 1_555 1_555
H4 C5 1_555 1_555
C6 C1 1_555 1_555
C7 O1 1_555 1_555
C8 C7 1_555 1_555
H5 C8 1_555 1_555
C9 C8 1_555 1_555
H6 C9 1_555 1_555
C10 C9 1_555 1_555
H7 C10 1_555 1_555
C11 C10 1_555 1_555
H8 C11 1_555 1_555
C12 B1 1_555 1_555
C13 C14 1_555 1_555
C14 H9 1_555 1_555
C15 C14 1_555 1_555
C16 N1 1_555 1_555
C17 C16 1_555 1_555
C18 N2 1_555 1_555
C19 C18 1_555 1_555
C20 C19 1_555 1_555
H10 C20 1_555 1_555
C21 N2 1_555 1_555
C22 C13 1_555 1_555
H11 C22 1_555 1_555
H12 C22 1_555 1_555
H13 C22 1_555 1_555
C23 C15 1_555 1_555
H14 C23 1_555 1_555
H15 C23 1_555 1_555
H16 C23 1_555 1_555
C24 C19 1_555 1_555
H17 C24 1_555 1_555
H18 C24 1_555 1_555
H19 C24 1_555 1_555
C25 C21 1_555 1_555
H20 C25 1_555 1_555
H21 C25 1_555 1_555
H22 C25 1_555 1_555
C26 C17 1_555 1_555
C27 C26 1_555 1_555
H23 C27 1_555 1_555
C28 C27 1_555 1_555
H24 C28 1_555 1_555
C29 C28 1_555 1_555
H25 C29 1_555 1_555
C30 C29 1_555 1_555
H26 C30 1_555 1_555
C31 C26 1_555 1_555
H27 C31 1_555 1_555
Cl1 C32 1_555 1_555
Cl2 C32 1_555 1_555
C32 H28 1_555 1_555
H29 C32 1_555 1_555
C5 C6 1_555 1_555
C7 C12 1_555 1_555
C11 C12 1_555 1_555
C15 C16 1_555 1_555
C17 C18 1_555 1_555
C20 C21 1_555 1_555
C30 C31 1_555 1_555

#END
