
#######################################################################
#
#                 Cambridge Crystallographic Data Centre
#                                CCDC 
#
#######################################################################
#
# If this CIF has been generated from an entry in the Cambridge 
# Structural Database, then it will include bibliographic, chemical, 
# crystal, experimental, refinement or atomic coordinate data resulting 
# from the CCDC's data processing and validation procedures.
#
#######################################################################

data_MENRUV
_chemical_formula_moiety         'C88 H62 B4 F40 O2 P2'
_chemical_name_systematic        
4,4,12,12,17,17,18,18-octakis(pentafluorophenyl)-1,9-bis[2,4,6-tri-isopropylphenyl]-5,13-dioxa-1\l^5^,9\l^5^-diphospha-4\l^5^,12\l^5^,17\l^5^,18\l^5^-tetraboratricyclo[12.2.1.1^6,9^]octadecane
_symmetry_cell_setting           triclinic
_symmetry_space_group_name_H-M   'P -1'
_symmetry_Int_Tables_number      2
_space_group_name_Hall           '-P 1'
loop_
_symmetry_equiv_pos_site_id
_symmetry_equiv_pos_as_xyz
1 x,y,z
2 -x,-y,-z
_cell_length_a                   11.1630(5)
_cell_length_b                   16.2067(8)
_cell_length_c                   24.8378(11)
_cell_angle_alpha                76.4320(10)
_cell_angle_beta                 87.505(2)
_cell_angle_gamma                76.034(2)
_cell_volume                     4238.6
_exptl_crystal_description       prism
_cell_formula_units_Z            2
loop_
_atom_site_label
_atom_site_type_symbol
_atom_site_fract_x
_atom_site_fract_y
_atom_site_fract_z
P1 P 0.52058(4) 0.90587(3) 0.28219(2)
B1 B 0.50033(19) 0.95618(13) 0.19784(8)
B2 B 0.72811(19) 0.68167(13) 0.39796(8)
O1 O 0.51954(11) 0.83922(7) 0.14471(5)
C1 C 0.38732(16) 0.85728(11) 0.28084(7)
H1 H 0.3824 0.8139 0.3158
H2 H 0.309 0.9029 0.2749
C2 C 0.41382(17) 0.81311(11) 0.23170(7)
H3 H 0.4669 0.7535 0.2442
H4 H 0.3354 0.8081 0.2171
C3 C 0.47724(16) 0.86579(11) 0.18683(7)
C4 C 0.64455(16) 0.80864(11) 0.30982(7)
H5 H 0.6607 0.7708 0.283
H6 H 0.7211 0.8272 0.3141
C5 C 0.61190(16) 0.75571(11) 0.36597(7)
H7 H 0.5465 0.7269 0.36
H8 H 0.5779 0.7964 0.39
C6 C 0.51075(16) 0.98248(11) 0.32686(7)
C7 C 0.60355(17) 1.03064(11) 0.32043(7)
C8 C 0.59297(17) 1.09629(11) 0.34895(7)
H9 H 0.6548 1.1286 0.3443
C9 C 0.49547(18) 1.11645(12) 0.38393(7)
C10 C 0.40976(18) 1.06548(12) 0.39169(8)
H10 H 0.3437 1.0774 0.4163
C11 C 0.41532(17) 0.99791(11) 0.36536(7)
C12 C 0.72086(16) 1.00973(11) 0.28722(7)
H11 H 0.7091 0.9689 0.2644
C13 C 0.82968(18) 0.96186(13) 0.32756(8)
H12 H 0.8484 1.0023 0.3479
H13 H 0.9023 0.9402 0.3067
H14 H 0.8076 0.9125 0.3538
C14 C 0.75404(18) 1.08890(12) 0.24797(8)
H15 H 0.6866 1.1181 0.2211
H16 H 0.8298 1.0695 0.2283
H17 H 0.767 1.1298 0.2694
C15 C 0.47890(19) 1.18956(12) 0.41428(8)
H18 H 0.4621 1.1645 0.4539
C16 C 0.5917(2) 1.22614(14) 0.41393(9)
H19 H 0.6636 1.1783 0.4277
H20 H 0.5777 1.2677 0.4378
H21 H 0.6068 1.256 0.376
C17 C 0.3646(2) 1.26227(13) 0.39136(9)
H22 H 0.3761 1.2867 0.352
H23 H 0.3533 1.3084 0.4118
H24 H 0.2915 1.238 0.3957
C18 C 0.31937(17) 0.94429(12) 0.38255(8)
H25 H 0.342 0.893 0.3652
C19 C 0.32127(19) 0.90892(13) 0.44537(8)
H26 H 0.2889 0.9573 0.4634
H27 H 0.4063 0.8804 0.4582
H28 H 0.2699 0.8665 0.4548
C20 C 0.19049(18) 0.99709(14) 0.36082(9)
H29 H 0.1636 1.0461 0.3788
H30 H 0.1322 0.9594 0.369
H31 H 0.1933 1.0196 0.3207
C21 C 0.37164(17) 1.03209(11) 0.19483(7)
C22 C 0.36943(17) 1.11220(12) 0.20709(7)
C23 C 0.26470(18) 1.17915(12) 0.20436(8)
C24 C 0.15353(18) 1.16851(12) 0.18848(8)
C25 C 0.14977(17) 1.09093(12) 0.17596(8)
C26 C 0.25713(17) 1.02578(11) 0.17894(7)
C27 C 0.61128(16) 0.98668(11) 0.16108(7)
C28 C 0.59675(17) 1.06123(11) 0.11803(8)
C29 C 0.69380(18) 1.08733(12) 0.08836(7)
C30 C 0.81310(18) 1.03927(12) 0.10057(8)
C31 C 0.83282(17) 0.96344(12) 0.14170(8)
C32 C 0.73276(17) 0.93855(11) 0.16902(7)
C33 C 0.82714(16) 0.73029(11) 0.41632(7)
C34 C 0.79008(17) 0.77822(12) 0.45651(8)
C35 C 0.85922(18) 0.82619(12) 0.47489(8)
C36 C 0.97384(18) 0.82868(12) 0.45279(8)
C37 C 1.01684(17) 0.78174(12) 0.41356(8)
C38 C 0.94364(17) 0.73481(11) 0.39613(7)
C39 C 0.69368(16) 0.61308(11) 0.45292(7)
C40 C 0.57959(17) 0.61905(11) 0.47836(8)
C41 C 0.55925(17) 0.56295(12) 0.52729(8)
C42 C 0.65479(19) 0.49596(12) 0.55273(8)
C43 C 0.76988(18) 0.48687(12) 0.52941(8)
C44 C 0.78715(17) 0.54520(12) 0.48133(8)
P2 P 0.72817(4) 0.53745(3) 0.23247(2)
B3 B 0.85802(19) 0.51499(13) 0.29434(8)
B4 B 0.49797(19) 0.75852(13) 0.12220(9)
O2 O 0.80157(11) 0.62162(7) 0.35775(5)
C45 C 0.60955(16) 0.52432(11) 0.28579(7)
H32 H 0.5257 0.5464 0.269
H33 H 0.6203 0.4621 0.305
C46 C 0.62963(16) 0.57852(11) 0.32610(7)
H34 H 0.5821 0.6397 0.313
H35 H 0.5991 0.5548 0.3631
C47 C 0.76451(16) 0.57643(11) 0.33036(7)
C48 C 0.67096(16) 0.65073(11) 0.19293(7)
H36 H 0.6675 0.6909 0.2178
H37 H 0.7296 0.6644 0.163
C49 C 0.54244(16) 0.66628(11) 0.16743(7)
H38 H 0.4816 0.6639 0.1976
H39 H 0.542 0.618 0.1494
C50 C 0.74375(17) 0.47009(11) 0.18124(7)
C51 C 0.84574(17) 0.47332(11) 0.14510(7)
C52 C 0.86202(18) 0.42591(12) 0.10436(8)
H40 H 0.9322 0.4265 0.0813
C53 C 0.68042(19) 0.37641(13) 0.13086(8)
H41 H 0.624 0.3432 0.1259
C54 C 0.65878(17) 0.42163(11) 0.17313(8)
C55 C 0.93234(16) 0.53360(11) 0.14293(8)
H42 H 0.9118 0.5636 0.1742
C56 C 1.06990(18) 0.48683(13) 0.14769(8)
H43 H 1.0856 0.4427 0.1827
H44 H 1.1194 0.5295 0.1467
H45 H 1.0925 0.4584 0.1167
C57 C 0.90594(18) 0.60352(12) 0.08815(8)
H46 H 0.9329 0.5762 0.057
H47 H 0.9509 0.6485 0.0881
H48 H 0.8172 0.6303 0.0845
C58 C 0.78021(19) 0.37774(13) 0.09578(8)
C59 C 0.7935(2) 0.33462(15) 0.04687(9)
H49 H 0.733 0.2971 0.0514
C60 C 0.9232(2) 0.27612(15) 0.04488(10)
H50 H 0.9838 0.3121 0.0384
H51 H 0.9265 0.2459 0.0148
H52 H 0.9421 0.2329 0.0802
C61 C 0.7623(2) 0.40388(16) -0.00733(10)
H53 H 0.6784 0.4395 -0.0057
H54 H 0.7677 0.3752 -0.0383
H55 H 0.821 0.4413 -0.0128
C62 C 0.54205(17) 0.41456(12) 0.20655(8)
H56 H 0.5256 0.461 0.2281
C63 C 0.4282(2) 0.42976(16) 0.16990(10)
H57 H 0.4211 0.484 0.1414
H58 H 0.354 0.4343 0.1927
H59 H 0.4366 0.3807 0.1522
C64 C 0.5624(2) 0.32684(16) 0.24787(10)
H60 H 0.577 0.2799 0.2279
H61 H 0.4891 0.3249 0.2709
H62 H 0.6342 0.3191 0.2715
C65 C 0.87102(16) 0.41143(11) 0.32483(7)
C66 C 0.83672(16) 0.38262(11) 0.37894(8)
C67 C 0.85471(18) 0.29562(12) 0.40641(8)
C68 C 0.90742(19) 0.23200(12) 0.37882(8)
C69 C 0.94296(18) 0.25641(12) 0.32480(8)
C70 C 0.92545(17) 0.34377(12) 0.29931(7)
C71 C 0.98800(16) 0.54362(11) 0.28266(7)
C72 C 0.98948(16) 0.63023(11) 0.25889(7)
C73 C 1.09280(17) 0.66378(11) 0.25404(7)
C74 C 1.20429(17) 0.60895(12) 0.27368(8)
C75 C 1.21034(16) 0.52194(12) 0.29617(8)
C76 C 1.10412(17) 0.49147(11) 0.30079(8)
C77 C 0.35161(16) 0.78876(11) 0.10542(7)
C78 C 0.30484(17) 0.87083(12) 0.07072(8)
C79 C 0.18305(18) 0.90255(12) 0.05371(8)
C80 C 0.10080(17) 0.85098(13) 0.07049(8)
C81 C 0.14138(18) 0.76984(12) 0.10521(8)
C82 C 0.26424(17) 0.74021(11) 0.12123(7)
C83 C 0.57921(16) 0.75709(11) 0.06588(7)
C84 C 0.56096(17) 0.70073(12) 0.03401(8)
C85 C 0.62173(19) 0.69146(13) -0.01450(8)
C86 C 0.70567(19) 0.74071(13) -0.03387(8)
C87 C 0.72716(18) 0.79819(12) -0.00476(8)
C88 C 0.66492(17) 0.80505(12) 0.04419(8)
F1 F 0.47586(10) 1.12913(7) 0.21966(5)
F2 F 0.27099(11) 1.25511(7) 0.21562(5)
F3 F 0.05194(10) 1.23368(7) 0.18347(5)
F4 F 0.04247(10) 1.07892(7) 0.16062(5)
F5 F 0.24535(10) 0.95203(7) 0.16480(5)
F6 F 0.48351(10) 1.11306(7) 0.10299(4)
F7 F 0.67184(11) 1.16046(7) 0.04739(5)
F8 F 0.90793(10) 1.06540(8) 0.07290(5)
F9 F 0.94788(10) 0.91546(7) 0.15561(5)
F10 F 0.75808(10) 0.86152(6) 0.20750(4)
F11 F 0.67697(10) 0.78051(7) 0.47934(5)
F12 F 0.81569(12) 0.87172(8) 0.51345(5)
F13 F 1.04048(10) 0.87763(7) 0.46872(5)
F14 F 1.12852(10) 0.78344(7) 0.39111(5)
F15 F 0.99197(10) 0.69362(7) 0.35587(4)
F16 F 0.47995(10) 0.68284(7) 0.45643(5)
F17 F 0.44659(10) 0.57223(7) 0.55022(5)
F18 F 0.63527(11) 0.43982(8) 0.59963(5)
F19 F 0.86338(11) 0.42130(8) 0.55367(5)
F20 F 0.90215(10) 0.53413(7) 0.46071(5)
F21 F 0.78313(10) 0.44110(7) 0.40891(4)
F22 F 0.82040(11) 0.27453(7) 0.45938(5)
F23 F 0.92435(13) 0.14715(7) 0.40394(5)
F24 F 0.99723(12) 0.19436(7) 0.29788(5)
F25 F 0.96942(10) 0.36343(7) 0.24782(4)
F26 F 0.88134(9) 0.68779(6) 0.24101(4)
F27 F 1.08514(10) 0.74919(7) 0.23331(5)
F28 F 1.30605(10) 0.63999(7) 0.27160(5)
F29 F 1.31972(10) 0.46775(7) 0.31459(5)
F30 F 1.11970(10) 0.40558(7) 0.32554(5)
F31 F 0.38105(10) 0.92422(7) 0.05243(5)
F32 F 0.14588(11) 0.98277(7) 0.02106(5)
F33 F -0.01746(10) 0.87871(8) 0.05359(5)
F34 F 0.06133(10) 0.71983(8) 0.12363(5)
F35 F 0.29598(10) 0.65814(7) 0.15399(5)
F36 F 0.47829(11) 0.65126(7) 0.05045(5)
F37 F 0.59801(12) 0.63632(8) -0.04341(5)
F38 F 0.76583(12) 0.73259(8) -0.08125(5)
F39 F 0.80767(12) 0.84716(8) -0.02402(5)
F40 F 0.69396(11) 0.86126(8) 0.07088(5)
loop_
_geom_bond_atom_site_label_1
_geom_bond_atom_site_label_2
_geom_bond_site_symmetry_1
_geom_bond_site_symmetry_2
P1 B1 1_555 1_555
B1 C3 1_555 1_555
B2 C5 1_555 1_555
O1 C3 1_555 1_555
C1 P1 1_555 1_555
H1 C1 1_555 1_555
H2 C1 1_555 1_555
C2 C1 1_555 1_555
H3 C2 1_555 1_555
H4 C2 1_555 1_555
C3 C2 1_555 1_555
C4 P1 1_555 1_555
H5 C4 1_555 1_555
H6 C4 1_555 1_555
C5 C4 1_555 1_555
H7 C5 1_555 1_555
H8 C5 1_555 1_555
C6 P1 1_555 1_555
C7 C6 1_555 1_555
C8 C7 1_555 1_555
H9 C8 1_555 1_555
C9 C8 1_555 1_555
C10 C9 1_555 1_555
H10 C10 1_555 1_555
C11 C6 1_555 1_555
C12 C7 1_555 1_555
H11 C12 1_555 1_555
C13 C12 1_555 1_555
H12 C13 1_555 1_555
H13 C13 1_555 1_555
H14 C13 1_555 1_555
C14 C12 1_555 1_555
H15 C14 1_555 1_555
H16 C14 1_555 1_555
H17 C14 1_555 1_555
C15 C9 1_555 1_555
H18 C15 1_555 1_555
C16 C15 1_555 1_555
H19 C16 1_555 1_555
H20 C16 1_555 1_555
H21 C16 1_555 1_555
C17 C15 1_555 1_555
H22 C17 1_555 1_555
H23 C17 1_555 1_555
H24 C17 1_555 1_555
C18 C11 1_555 1_555
H25 C18 1_555 1_555
C19 C18 1_555 1_555
H26 C19 1_555 1_555
H27 C19 1_555 1_555
H28 C19 1_555 1_555
C20 C18 1_555 1_555
H29 C20 1_555 1_555
H30 C20 1_555 1_555
H31 C20 1_555 1_555
C21 B1 1_555 1_555
C22 C21 1_555 1_555
C23 C22 1_555 1_555
C24 C23 1_555 1_555
C25 C24 1_555 1_555
C26 C21 1_555 1_555
C27 B1 1_555 1_555
C28 C27 1_555 1_555
C29 C28 1_555 1_555
C30 C29 1_555 1_555
C31 C30 1_555 1_555
C32 C27 1_555 1_555
C33 B2 1_555 1_555
C34 C33 1_555 1_555
C35 C34 1_555 1_555
C36 C35 1_555 1_555
C37 C36 1_555 1_555
C38 C33 1_555 1_555
C39 B2 1_555 1_555
C40 C39 1_555 1_555
C41 C40 1_555 1_555
C42 C41 1_555 1_555
C43 C42 1_555 1_555
C44 C39 1_555 1_555
P2 B3 1_555 1_555
B3 C47 1_555 1_555
B4 O1 1_555 1_555
O2 B2 1_555 1_555
C45 P2 1_555 1_555
H32 C45 1_555 1_555
H33 C45 1_555 1_555
C46 C45 1_555 1_555
H34 C46 1_555 1_555
H35 C46 1_555 1_555
C47 O2 1_555 1_555
C48 P2 1_555 1_555
H36 C48 1_555 1_555
H37 C48 1_555 1_555
C49 B4 1_555 1_555
H38 C49 1_555 1_555
H39 C49 1_555 1_555
C50 P2 1_555 1_555
C51 C50 1_555 1_555
C52 C51 1_555 1_555
H40 C52 1_555 1_555
C53 H41 1_555 1_555
C54 C50 1_555 1_555
C55 C51 1_555 1_555
H42 C55 1_555 1_555
C56 C55 1_555 1_555
H43 C56 1_555 1_555
H44 C56 1_555 1_555
H45 C56 1_555 1_555
C57 C55 1_555 1_555
H46 C57 1_555 1_555
H47 C57 1_555 1_555
H48 C57 1_555 1_555
C58 C52 1_555 1_555
C59 C58 1_555 1_555
H49 C59 1_555 1_555
C60 C59 1_555 1_555
H50 C60 1_555 1_555
H51 C60 1_555 1_555
H52 C60 1_555 1_555
C61 C59 1_555 1_555
H53 C61 1_555 1_555
H54 C61 1_555 1_555
H55 C61 1_555 1_555
C62 C54 1_555 1_555
H56 C62 1_555 1_555
C63 C62 1_555 1_555
H57 C63 1_555 1_555
H58 C63 1_555 1_555
H59 C63 1_555 1_555
C64 C62 1_555 1_555
H60 C64 1_555 1_555
H61 C64 1_555 1_555
H62 C64 1_555 1_555
C65 B3 1_555 1_555
C66 C65 1_555 1_555
C67 C66 1_555 1_555
C68 C67 1_555 1_555
C69 C68 1_555 1_555
C70 C65 1_555 1_555
C71 B3 1_555 1_555
C72 C71 1_555 1_555
C73 C72 1_555 1_555
C74 C73 1_555 1_555
C75 C74 1_555 1_555
C76 C71 1_555 1_555
C77 B4 1_555 1_555
C78 C77 1_555 1_555
C79 C78 1_555 1_555
C80 C79 1_555 1_555
C81 C80 1_555 1_555
C82 C77 1_555 1_555
C83 B4 1_555 1_555
C84 C83 1_555 1_555
C85 C84 1_555 1_555
C86 C85 1_555 1_555
C87 C86 1_555 1_555
C88 C83 1_555 1_555
F1 C22 1_555 1_555
F2 C23 1_555 1_555
F3 C24 1_555 1_555
F4 C25 1_555 1_555
F5 C26 1_555 1_555
F6 C28 1_555 1_555
F7 C29 1_555 1_555
F8 C30 1_555 1_555
F9 C31 1_555 1_555
F10 C32 1_555 1_555
F11 C34 1_555 1_555
F12 C35 1_555 1_555
F13 C36 1_555 1_555
F14 C37 1_555 1_555
F15 C38 1_555 1_555
F16 C40 1_555 1_555
F17 C41 1_555 1_555
F18 C42 1_555 1_555
F19 C43 1_555 1_555
F20 C44 1_555 1_555
F21 C66 1_555 1_555
F22 C67 1_555 1_555
F23 C68 1_555 1_555
F24 C69 1_555 1_555
F25 C70 1_555 1_555
F26 C72 1_555 1_555
F27 C73 1_555 1_555
F28 C74 1_555 1_555
F29 C75 1_555 1_555
F30 C76 1_555 1_555
F31 C78 1_555 1_555
F32 C79 1_555 1_555
F33 C80 1_555 1_555
F34 C81 1_555 1_555
F35 C82 1_555 1_555
F36 C84 1_555 1_555
F37 C85 1_555 1_555
F38 C86 1_555 1_555
F39 C87 1_555 1_555
F40 C88 1_555 1_555
C10 C11 1_555 1_555
C25 C26 1_555 1_555
C31 C32 1_555 1_555
C37 C38 1_555 1_555
C43 C44 1_555 1_555
C46 C47 1_555 1_555
C48 C49 1_555 1_555
C53 C54 1_555 1_555
C53 C58 1_555 1_555
C69 C70 1_555 1_555
C75 C76 1_555 1_555
C81 C82 1_555 1_555
C87 C88 1_555 1_555

#END
