
#######################################################################
#
#                 Cambridge Crystallographic Data Centre
#                                CCDC 
#
#######################################################################
#
# If this CIF has been generated from an entry in the Cambridge 
# Structural Database, then it will include bibliographic, chemical, 
# crystal, experimental, refinement or atomic coordinate data resulting 
# from the CCDC's data processing and validation procedures.
#
#######################################################################

data_MENZEN
_chemical_formula_moiety         'C46 H40 O8,C1 H1 Cl3'
_chemical_name_systematic        
"5,5',13,13'-tetramethoxy-2,2',16,16'-tetraoxa[9,9'-bi(tetracyclo[15.2.2.1^4,8^.1^10,14^]tricosane)]-1(19),1'(19'),4(23),4'(23'),5,5',7,7',9(9'),10(22),10'(22'),11,11',13,13',17,17',20,20'-nonadecaene chloroform solvate"
_symmetry_cell_setting           monoclinic
_symmetry_space_group_name_H-M   'P 21/c'
_symmetry_Int_Tables_number      14
_space_group_name_Hall           '-P 2ybc'
loop_
_symmetry_equiv_pos_site_id
_symmetry_equiv_pos_as_xyz
1 x,y,z
2 -x,1/2+y,1/2-z
3 -x,-y,-z
4 x,1/2-y,1/2+z
_cell_length_a                   18.716(3)
_cell_length_b                   11.071(2)
_cell_length_c                   20.558(4)
_cell_angle_alpha                90
_cell_angle_beta                 105.544(2)
_cell_angle_gamma                90
_cell_volume                     4103.92
_exptl_crystal_colour            colorless
_exptl_crystal_description       block
_cell_formula_units_Z            4
loop_
_atom_site_label
_atom_site_type_symbol
_atom_site_fract_x
_atom_site_fract_y
_atom_site_fract_z
Cl1 Cl 0.29219(3) 0.24632(5) 0.14554(3)
Cl2 Cl 0.24840(3) 0.48662(5) 0.09497(3)
Cl3 Cl 0.20933(3) 0.39820(6) 0.21324(3)
C1 C 0.27671(11) 0.39629(19) 0.16760(10)
H1 H 0.3241 0.4295 0.1970
O1 O 0.44187(7) 0.42689(12) 0.13384(6)
O2 O 0.41204(7) 0.48815(13) 0.27556(6)
O3 O 0.55332(7) 0.20857(13) 0.49614(6)
O4 O 0.69400(8) 0.33209(12) 0.58667(6)
O5 O 1.06759(7) 0.31001(14) 0.49094(7)
O6 O 1.10633(7) 0.46542(13) 0.36930(7)
O7 O 0.95031(8) 0.44493(14) 0.09924(7)
O8 O 0.80971(8) 0.61673(13) 0.05902(7)
C2 C 0.51220(10) 0.41792(16) 0.17621(9)
C3 C 0.52507(10) 0.48361(16) 0.23645(9)
C4 C 0.46519(10) 0.55994(18) 0.25169(10)
H2 H 0.4881 0.6204 0.2865
H3 H 0.4387 0.6041 0.2104
C5 C 0.44439(10) 0.41922(18) 0.33249(9)
C6 C 0.48463(11) 0.47358(18) 0.39192(10)
H4 H 0.4874 0.5591 0.3954
C7 C 0.52055(11) 0.40214(18) 0.44595(10)
H5 H 0.5495 0.4388 0.4862
C8 C 0.51469(10) 0.27794(18) 0.44189(9)
C9 C 0.62426(11) 0.16667(17) 0.48862(10)
H6 H 0.6154 0.1072 0.4513
H7 H 0.6514 0.1250 0.5306
C10 C 0.67165(10) 0.26732(17) 0.47416(9)
C11 C 0.70651(10) 0.34910(17) 0.52454(9)
C12 C 0.72165(12) 0.4221(2) 0.63689(10)
H8 H 0.7050 0.4040 0.6772
H9 H 0.7029 0.5015 0.6192
H10 H 0.7760 0.4224 0.6487
C13 C 0.74929(10) 0.44234(17) 0.50981(9)
H11 H 0.7735 0.4972 0.5442
C14 C 0.75660(10) 0.45539(17) 0.44459(9)
H12 H 0.7866 0.5187 0.4352
C15 C 0.72092(10) 0.37781(16) 0.39277(9)
C16 C 0.67853(10) 0.28477(17) 0.40918(9)
H13 H 0.6533 0.2312 0.3745
C17 C 0.72512(10) 0.39708(16) 0.32166(9)
C18 C 0.65210(10) 0.40627(16) 0.27036(9)
C19 C 0.59442(10) 0.47507(17) 0.28278(9)
H14 H 0.6029 0.5175 0.3243
C20 C 0.63751(10) 0.34560(17) 0.20883(9)
H15 H 0.6759 0.2993 0.1988
C21 C 0.56872(10) 0.35048(17) 0.16169(9)
H16 H 0.5604 0.3083 0.1201
C22 C 0.79031(10) 0.40888(16) 0.30548(9)
C23 C 0.86294(10) 0.37862(17) 0.35343(9)
C24 C 0.92455(10) 0.45342(17) 0.35992(9)
H17 H 0.9196 0.5233 0.3323
C25 C 0.99279(10) 0.42954(18) 0.40522(9)
C26 C 0.99981(10) 0.32674(19) 0.44605(9)
C27 C 1.07537(13) 0.2082(3) 0.53509(12)
H18 H 1.1241 0.2108 0.5680
H19 H 1.0708 0.1336 0.5086
H20 H 1.0365 0.2106 0.5589
C28 C 0.93999(11) 0.24891(19) 0.43911(10)
H21 H 0.9451 0.1779 0.4659
C29 C 0.87311(11) 0.27482(18) 0.39326(10)
H22 H 0.8328 0.2204 0.3887
C30 C 1.05815(11) 0.51099(19) 0.40913(10)
H23 H 1.0400 0.5924 0.3926
H24 H 1.0872 0.5188 0.4569
C31 C 1.07206(10) 0.46023(19) 0.30021(10)
C32 C 1.05563(12) 0.34931(19) 0.26929(11)
H25 H 1.0704 0.2772 0.2943
C33 C 1.01745(12) 0.34363(19) 0.20146(11)
H26 H 1.0070 0.2674 0.1798
C34 C 0.99452(11) 0.4483(2) 0.16538(10)
C35 C 0.87728(11) 0.3938(2) 0.09291(10)
H27 H 0.8827 0.3071 0.1052
H28 H 0.8478 0.3994 0.0452
C36 C 0.83560(10) 0.45608(18) 0.13684(10)
C37 C 0.80252(11) 0.56904(18) 0.11839(9)
C38 C 0.77938(12) 0.73458(19) 0.04174(10)
H29 H 0.8039 0.7921 0.0769
H30 H 0.7261 0.7332 0.0380
H31 H 0.7874 0.7593 -0.0016
C39 C 0.76525(11) 0.62662(18) 0.15963(10)
H32 H 0.7428 0.7032 0.1471
C40 C 0.76097(11) 0.57199(18) 0.21894(9)
H33 H 0.7350 0.6118 0.2466
C41 C 0.79343(10) 0.46101(17) 0.23920(9)
C42 C 0.83097(10) 0.40495(17) 0.19733(9)
H34 H 0.8542 0.3292 0.2106
C43 C 1.01615(12) 0.5586(2) 0.19477(11)
H35 H 1.0040 0.6306 0.1690
C44 C 1.05591(12) 0.56437(19) 0.26238(11)
H36 H 1.0720 0.6403 0.2825
C45 C 0.47073(11) 0.2242(2) 0.38401(10)
H37 H 0.4642 0.1390 0.3820
C46 C 0.43623(11) 0.29554(19) 0.32883(10)
H38 H 0.4071 0.2590 0.2886
C47 C 0.42761(11) 0.3644(2) 0.07070(9)
H39 H 0.4359 0.2777 0.0790
H40 H 0.4611 0.3946 0.0450
H41 H 0.3761 0.3781 0.0449
loop_
_geom_bond_atom_site_label_1
_geom_bond_atom_site_label_2
_geom_bond_site_symmetry_1
_geom_bond_site_symmetry_2
Cl1 C1 1_555 1_555
Cl2 C1 1_555 1_555
Cl3 C1 1_555 1_555
C1 H1 1_555 1_555
O1 C2 1_555 1_555
O2 C4 1_555 1_555
O3 C8 1_555 1_555
O4 C11 1_555 1_555
O5 C26 1_555 1_555
O6 C30 1_555 1_555
O7 C34 1_555 1_555
O8 C37 1_555 1_555
C2 C3 1_555 1_555
C3 C4 1_555 1_555
C4 H2 1_555 1_555
H3 C4 1_555 1_555
C5 O2 1_555 1_555
C6 C5 1_555 1_555
H4 C6 1_555 1_555
C7 C6 1_555 1_555
H5 C7 1_555 1_555
C8 C7 1_555 1_555
C9 O3 1_555 1_555
H6 C9 1_555 1_555
H7 C9 1_555 1_555
C10 C9 1_555 1_555
C11 C10 1_555 1_555
C12 O4 1_555 1_555
H8 C12 1_555 1_555
H9 C12 1_555 1_555
H10 C12 1_555 1_555
C13 C11 1_555 1_555
H11 C13 1_555 1_555
C14 C13 1_555 1_555
H12 C14 1_555 1_555
C15 C14 1_555 1_555
C16 C10 1_555 1_555
H13 C16 1_555 1_555
C17 C15 1_555 1_555
C18 C17 1_555 1_555
C19 C3 1_555 1_555
H14 C19 1_555 1_555
C20 C18 1_555 1_555
H15 C20 1_555 1_555
C21 C2 1_555 1_555
H16 C21 1_555 1_555
C22 C17 1_555 1_555
C23 C22 1_555 1_555
C24 C23 1_555 1_555
H17 C24 1_555 1_555
C25 C24 1_555 1_555
C26 C25 1_555 1_555
C27 O5 1_555 1_555
H18 C27 1_555 1_555
H19 C27 1_555 1_555
H20 C27 1_555 1_555
C28 C26 1_555 1_555
H21 C28 1_555 1_555
C29 C23 1_555 1_555
H22 C29 1_555 1_555
C30 C25 1_555 1_555
H23 C30 1_555 1_555
H24 C30 1_555 1_555
C31 O6 1_555 1_555
C32 C31 1_555 1_555
H25 C32 1_555 1_555
C33 C32 1_555 1_555
H26 C33 1_555 1_555
C34 C33 1_555 1_555
C35 O7 1_555 1_555
H27 C35 1_555 1_555
H28 C35 1_555 1_555
C36 C35 1_555 1_555
C37 C36 1_555 1_555
C38 O8 1_555 1_555
H29 C38 1_555 1_555
H30 C38 1_555 1_555
H31 C38 1_555 1_555
C39 C37 1_555 1_555
H32 C39 1_555 1_555
C40 C39 1_555 1_555
H33 C40 1_555 1_555
C41 C22 1_555 1_555
C42 C36 1_555 1_555
H34 C42 1_555 1_555
C43 C34 1_555 1_555
H35 C43 1_555 1_555
C44 C31 1_555 1_555
H36 C44 1_555 1_555
C45 C8 1_555 1_555
H37 C45 1_555 1_555
C46 C5 1_555 1_555
H38 C46 1_555 1_555
C47 O1 1_555 1_555
H39 C47 1_555 1_555
H40 C47 1_555 1_555
H41 C47 1_555 1_555
C15 C16 1_555 1_555
C18 C19 1_555 1_555
C20 C21 1_555 1_555
C28 C29 1_555 1_555
C40 C41 1_555 1_555
C41 C42 1_555 1_555
C43 C44 1_555 1_555
C45 C46 1_555 1_555

#END
