
#######################################################################
#
#                 Cambridge Crystallographic Data Centre
#                                CCDC 
#
#######################################################################
#
# If this CIF has been generated from an entry in the Cambridge 
# Structural Database, then it will include bibliographic, chemical, 
# crystal, experimental, refinement or atomic coordinate data resulting 
# from the CCDC's data processing and validation procedures.
#
#######################################################################

data_MEPDOB
_chemical_formula_moiety         'C18 H22 Br1 N2 O4'
_chemical_name_systematic        
'Methyl 12-bromo-13,14-furoxandeisopropyldehydroabietate'
_symmetry_cell_setting           orthorhombic
_symmetry_space_group_name_H-M   'P 21 21 21'
_symmetry_Int_Tables_number      19
_space_group_name_Hall           'P 2ac 2ab'
loop_
_symmetry_equiv_pos_site_id
_symmetry_equiv_pos_as_xyz
1 x,y,z
2 1/2+x,1/2-y,-z
3 -x,1/2+y,1/2-z
4 1/2-x,-y,1/2+z
_cell_length_a                   6.652(2)
_cell_length_b                   12.832(4)
_cell_length_c                   20.483(6)
_cell_angle_alpha                90
_cell_angle_beta                 90
_cell_angle_gamma                90
_cell_volume                     1748.4
_exptl_crystal_colour            'pale yellow'
_exptl_crystal_description       prism
_chemical_melting_point          203.8-204.4deg.C
_cell_formula_units_Z            4
_exptl_crystal_recrystallization_method ethanol
loop_
_atom_site_label
_atom_site_type_symbol
_atom_site_fract_x
_atom_site_fract_y
_atom_site_fract_z
Br1 Br 0.17789(3) 0.012304(14) 0.609524(9)
O1 O 0.1752(2) 0.18079(11) 0.41249(6)
O2 O 0.1785(2) 0.35536(12) 0.39231(6)
O3 O 0.3241(4) 0.79092(13) 0.63723(11)
O4 O 0.5764(3) 0.68236(13) 0.62065(9)
N1 N 0.1756(3) 0.11657(13) 0.46632(8)
N2 N 0.1760(3) 0.28893(13) 0.43430(7)
C1 C 0.1765(3) 0.15356(13) 0.58496(9)
C2 C 0.1763(3) 0.17899(13) 0.51727(8)
C3 C 0.1757(3) 0.28526(14) 0.49966(8)
C4 C 0.1772(3) 0.37050(14) 0.54458(8)
C5 C 0.1839(3) 0.34232(12) 0.60940(8)
C6 C 0.1807(3) 0.23319(13) 0.62820(8)
H1 H 0.1817 0.2168 0.6734
C7 C 0.1716(3) 0.48070(14) 0.51996(8)
H2 H 0.0633 0.4876 0.4871
H3 H 0.3008 0.4971 0.4983
C8 C 0.1356(3) 0.55800(15) 0.57483(9)
H4 H -0.0083 0.5577 0.5872
H5 H 0.1713 0.6291 0.5601
C9 C 0.2646(3) 0.52762(14) 0.63386(8)
H6 H 0.4005 0.5115 0.6155
C10 C 0.2999(3) 0.61847(15) 0.68356(9)
C11 C 0.4487(4) 0.57935(16) 0.73627(9)
H7 H 0.5817 0.5670 0.7160
H8 H 0.4650 0.6337 0.7701
C12 C 0.3755(3) 0.47901(16) 0.76817(9)
H9 H 0.2486 0.4931 0.7918
H10 H 0.4764 0.4555 0.8005
C13 C 0.3400(3) 0.39191(14) 0.71822(8)
H11 H 0.2880 0.3295 0.7411
H12 H 0.4699 0.3729 0.6978
C14 C 0.1899(3) 0.42385(13) 0.66430(8)
C15 C 0.3969(4) 0.70718(17) 0.64529(11)
C16 C 0.6731(6) 0.7622(2) 0.58176(15)
H13 H 0.5832 0.7833 0.5462
H14 H 0.7983 0.7346 0.5634
H15 H 0.7031 0.8226 0.6093
C17 C 0.1074(4) 0.66214(18) 0.71481(12)
H16 H 0.1371 0.7291 0.7356
H17 H 0.0576 0.6130 0.7477
H18 H 0.0049 0.6721 0.6810
C18 C -0.0277(3) 0.42748(16) 0.69294(9)
H19 H -0.1135 0.4699 0.6646
H20 H -0.0242 0.4582 0.7367
H21 H -0.0820 0.3566 0.6955
H22 H 0.176(3) 0.0416(15) 0.4503(9)
loop_
_geom_bond_atom_site_label_1
_geom_bond_atom_site_label_2
_geom_bond_site_symmetry_1
_geom_bond_site_symmetry_2
Br1 C1 1_555 1_555
O1 N1 1_555 1_555
O2 N2 1_555 1_555
O3 C15 1_555 1_555
O4 C15 1_555 1_555
N1 C2 1_555 1_555
N2 O1 1_555 1_555
C1 C2 1_555 1_555
C2 C3 1_555 1_555
C3 N2 1_555 1_555
C4 C3 1_555 1_555
C5 C4 1_555 1_555
C6 C1 1_555 1_555
H1 C6 1_555 1_555
C7 C4 1_555 1_555
H2 C7 1_555 1_555
H3 C7 1_555 1_555
C8 C7 1_555 1_555
H4 C8 1_555 1_555
H5 C8 1_555 1_555
C9 C8 1_555 1_555
H6 C9 1_555 1_555
C10 C9 1_555 1_555
C11 C10 1_555 1_555
H7 C11 1_555 1_555
H8 C11 1_555 1_555
C12 C11 1_555 1_555
H9 C12 1_555 1_555
H10 C12 1_555 1_555
C13 C12 1_555 1_555
H11 C13 1_555 1_555
H12 C13 1_555 1_555
C14 C5 1_555 1_555
C15 C10 1_555 1_555
C16 O4 1_555 1_555
H13 C16 1_555 1_555
H14 C16 1_555 1_555
H15 C16 1_555 1_555
C17 C10 1_555 1_555
H16 C17 1_555 1_555
H17 C17 1_555 1_555
H18 C17 1_555 1_555
C18 C14 1_555 1_555
H19 C18 1_555 1_555
H20 C18 1_555 1_555
H21 C18 1_555 1_555
H22 N1 1_555 1_555
C5 C6 1_555 1_555
C9 C14 1_555 1_555
C13 C14 1_555 1_555

#END
