
#######################################################################
#
#                 Cambridge Crystallographic Data Centre
#                                CCDC 
#
#######################################################################
#
# If this CIF has been generated from an entry in the Cambridge 
# Structural Database, then it will include bibliographic, chemical, 
# crystal, experimental, refinement or atomic coordinate data resulting 
# from the CCDC's data processing and validation procedures.
#
#######################################################################

data_MEPSUW
_chemical_formula_moiety         'C9 H5 N1'
_chemical_name_systematic        2-(Buta-1,3-diynyl)pyridine
_symmetry_cell_setting           monoclinic
_symmetry_space_group_name_H-M   'P 21/c'
_symmetry_Int_Tables_number      14
_space_group_name_Hall           '-P 2ybc'
loop_
_symmetry_equiv_pos_site_id
_symmetry_equiv_pos_as_xyz
1 x,y,z
2 -x,1/2+y,1/2-z
3 -x,-y,-z
4 x,1/2-y,1/2+z
_cell_length_a                   3.8200(4)
_cell_length_b                   14.3322(15)
_cell_length_c                   12.4728(14)
_cell_angle_alpha                90
_cell_angle_beta                 95.235(15)
_cell_angle_gamma                90
_cell_volume                     680.025
_exptl_crystal_colour            'pale brown'
_exptl_crystal_description       plate
_cell_formula_units_Z            4
loop_
_atom_site_label
_atom_site_type_symbol
_atom_site_fract_x
_atom_site_fract_y
_atom_site_fract_z
N1 N 0.3655(3) 0.79365(6) 0.57160(8)
C1 C 0.3894(3) 0.70561(8) 0.53566(9)
C2 C 0.5099(3) 0.68386(9) 0.43654(9)
H1 H 0.521(3) 0.6194(10) 0.4133(11)
C3 C 0.6036(3) 0.75558(9) 0.37107(10)
H2 H 0.683(4) 0.7424(9) 0.3000(12)
C4 C 0.5796(3) 0.84620(9) 0.40671(10)
H3 H 0.637(4) 0.8986(10) 0.3633(11)
C5 C 0.4607(3) 0.86129(9) 0.50665(10)
H4 H 0.436(4) 0.9273(10) 0.5363(11)
C6 C 0.2792(3) 0.63267(8) 0.60381(9)
C7 C 0.1830(3) 0.56953(8) 0.65723(9)
C8 C 0.0746(3) 0.49688(8) 0.71841(9)
C9 C -0.0205(3) 0.43289(8) 0.76988(10)
H5 H -0.095(4) 0.3793(11) 0.8104(13)
loop_
_geom_bond_atom_site_label_1
_geom_bond_atom_site_label_2
_geom_bond_site_symmetry_1
_geom_bond_site_symmetry_2
N1 C1 1_555 1_555
C1 C2 1_555 1_555
C2 H1 1_555 1_555
C3 C2 1_555 1_555
H2 C3 1_555 1_555
C4 C3 1_555 1_555
H3 C4 1_555 1_555
C5 N1 1_555 1_555
H4 C5 1_555 1_555
C6 C1 1_555 1_555
C7 C6 1_555 1_555
C8 C7 1_555 1_555
C9 C8 1_555 1_555
H5 C9 1_555 1_555
C4 C5 1_555 1_555

#END
