
#######################################################################
#
#                 Cambridge Crystallographic Data Centre
#                                CCDC 
#
#######################################################################
#
# If this CIF has been generated from an entry in the Cambridge 
# Structural Database, then it will include bibliographic, chemical, 
# crystal, experimental, refinement or atomic coordinate data resulting 
# from the CCDC's data processing and validation procedures.
#
#######################################################################

data_MEPTEH
_chemical_formula_moiety         'C8 H4 N2'
_chemical_name_systematic        2-(Buta-1,3-diynyl)pyrazine
_symmetry_cell_setting           monoclinic
_symmetry_space_group_name_H-M   'P n'
_symmetry_Int_Tables_number      7
_space_group_name_Hall           'P -2yac'
loop_
_symmetry_equiv_pos_site_id
_symmetry_equiv_pos_as_xyz
1 x,y,z
2 1/2+x,-y,1/2+z
_cell_length_a                   3.8182(7)
_cell_length_b                   17.949(3)
_cell_length_c                   9.4768(16)
_cell_angle_alpha                90
_cell_angle_beta                 94.48(1)
_cell_angle_gamma                90
_cell_volume                     647.488
_exptl_crystal_colour            off-white
_exptl_crystal_description       prism
_cell_formula_units_Z            4
loop_
_atom_site_label
_atom_site_type_symbol
_atom_site_fract_x
_atom_site_fract_y
_atom_site_fract_z
N1 N 0.217(2) 0.0413(4) 0.3025(10)
C1 C 0.326(2) 0.1108(4) 0.3467(9)
C2 C 0.492(2) 0.1571(5) 0.2559(10)
H1 H 0.5710 0.2043 0.2910
N2 N 0.568(2) 0.1403(4) 0.1238(8)
C3 C 0.464(2) 0.0726(5) 0.0809(10)
H2 H 0.5038 0.0572 -0.0124
C4 C 0.297(2) 0.0254(5) 0.1704(9)
H3 H 0.2376 -0.0227 0.1343
C5 C 0.237(2) 0.1326(4) 0.4847(11)
C6 C 0.154(2) 0.1498(5) 0.5993(13)
C7 C 0.047(2) 0.1661(5) 0.7280(12)
C8 C -0.057(2) 0.1786(5) 0.8415(13)
H4 H -0.1394 0.1880 0.9318
N5 N 0.8201(5) 0.45765(13) 0.6674(2)
C17 C 0.7221(6) 0.38908(14) 0.6266(2)
C18 C 0.5542(6) 0.34005(14) 0.7135(2)
H9 H 0.4839 0.2922 0.6789
N6 N 0.4861(5) 0.36021(14) 0.8457(2)
C19 C 0.5853(7) 0.42819(16) 0.8869(3)
H10 H 0.5400 0.4443 0.9792
C20 C 0.7521(7) 0.47684(15) 0.7996(3)
H11 H 0.8181 0.5250 0.8339
C21 C 0.8041(6) 0.36669(16) 0.4883(2)
C22 C 0.8881(6) 0.34909(16) 0.3713(3)
C23 C 0.9947(7) 0.33424(17) 0.2398(3)
C24 C 1.0999(7) 0.32187(18) 0.1244(3)
H12 H 1.1827 0.3116 0.0345
N3? N 0.1295(19) 0.0425(4) 0.3737(8)
C9? C 0.2338(19) 0.1131(4) 0.4142(9)
C10? C 0.3961(19) 0.1599(4) 0.3230(8)
H5? H 0.4683 0.2090 0.3491
N4? N 0.4727(19) 0.1415(4) 0.1914(9)
C11? C 0.370(2) 0.0709(5) 0.1518(9)
H6? H 0.4135 0.0548 0.0593
C12? C 0.209(2) 0.0244(5) 0.2413(10)
H7? H 0.1473 -0.0238 0.2061
C13? C 0.155(2) 0.1360(5) 0.5518(11)
C14? C 0.0754(19) 0.1515(4) 0.6642(11)
C15? C -0.033(2) 0.1666(5) 0.7946(13)
C16? C -0.147(2) 0.1761(5) 0.9106(10)
H8? H -0.2359 0.1842 1.0002
loop_
_geom_bond_atom_site_label_1
_geom_bond_atom_site_label_2
_geom_bond_site_symmetry_1
_geom_bond_site_symmetry_2
N1 C1 1_555 1_555
C1 C2 1_555 1_555
C2 H1 1_555 1_555
N2 C2 1_555 1_555
C3 N2 1_555 1_555
H2 C3 1_555 1_555
C4 N1 1_555 1_555
H3 C4 1_555 1_555
C5 C1 1_555 1_555
C6 C5 1_555 1_555
C7 C6 1_555 1_555
C8 C7 1_555 1_555
H4 C8 1_555 1_555
N5 C17 1_555 1_555
C17 C18 1_555 1_555
C18 H9 1_555 1_555
N6 C18 1_555 1_555
C19 N6 1_555 1_555
H10 C19 1_555 1_555
C20 N5 1_555 1_555
H11 C20 1_555 1_555
C21 C17 1_555 1_555
C22 C21 1_555 1_555
C23 C22 1_555 1_555
C24 C23 1_555 1_555
H12 C24 1_555 1_555
C3 C4 1_555 1_555
C19 C20 1_555 1_555

#END
