
#######################################################################
#
#                 Cambridge Crystallographic Data Centre
#                                CCDC 
#
#######################################################################
#
# If this CIF has been generated from an entry in the Cambridge 
# Structural Database, then it will include bibliographic, chemical, 
# crystal, experimental, refinement or atomic coordinate data resulting 
# from the CCDC's data processing and validation procedures.
#
#######################################################################

data_MEPZUF
_chemical_formula_moiety         'C27 H19 Br1 N2 O1'
_chemical_name_systematic        
2-[1-(4-bromophenyl)-4,5-diphenyl-1H-imidazol-2-yl]phenol
_symmetry_cell_setting           orthorhombic
_symmetry_space_group_name_H-M   'P 21 21 21'
_symmetry_Int_Tables_number      19
_space_group_name_Hall           'P 2ac 2ab'
loop_
_symmetry_equiv_pos_site_id
_symmetry_equiv_pos_as_xyz
1 x,y,z
2 1/2-x,-y,1/2+z
3 -x,1/2+y,1/2-z
4 1/2+x,1/2-y,-z
_cell_length_a                   9.367(7)
_cell_length_b                   12.203(10)
_cell_length_c                   19.612(15)
_cell_angle_alpha                90
_cell_angle_beta                 90
_cell_angle_gamma                90
_cell_volume                     2241.76
_exptl_crystal_colour            white
_exptl_crystal_description       block
_cell_formula_units_Z            4
loop_
_atom_site_label
_atom_site_type_symbol
_atom_site_fract_x
_atom_site_fract_y
_atom_site_fract_z
Br1 Br 0.17776(6) 1.03622(4) 0.54927(3)
O1 O 0.8749(3) 0.6101(2) 0.74243(16)
H1 H 0.8242 0.5599 0.7259
N1 N 0.5100(3) 0.6249(2) 0.62075(13)
N2 N 0.6814(3) 0.5214(2) 0.66409(13)
C1 C 0.4608(4) 0.5175(3) 0.61941(17)
C2 C 0.3180(4) 0.4868(3) 0.59184(17)
C3 C 0.1937(4) 0.5249(4) 0.6202(2)
H2 H 0.1975 0.5751 0.6572
C4 C 0.0628(5) 0.4909(5) 0.5952(3)
H3 H -0.0226 0.5177 0.6154
C5 C 0.0555(5) 0.4201(5) 0.5426(3)
H4 H -0.0350 0.3977 0.5258
C6 C 0.1774(6) 0.3803(4) 0.5132(2)
H5 H 0.1716 0.3305 0.4761
C7 C 0.3106(5) 0.4133(3) 0.53807(19)
H6 H 0.3957 0.3854 0.5182
C8 C 0.5679(3) 0.4551(3) 0.64643(17)
C9 C 0.5755(4) 0.3357(3) 0.65951(17)
C10 C 0.4548(4) 0.2721(3) 0.66944(19)
H7 H 0.3629 0.3047 0.6669
C11 C 0.4672(5) 0.1618(3) 0.6830(2)
H8 H 0.3835 0.1188 0.6887
C12 C 0.5982(5) 0.1133(3) 0.6882(2)
H9 H 0.6054 0.0374 0.6984
C13 C 0.7194(4) 0.1749(3) 0.6788(2)
H10 H 0.8108 0.1415 0.6823
C14 C 0.7085(4) 0.2857(3) 0.66397(18)
H11 H 0.7926 0.3278 0.6568
C15 C 0.6454(3) 0.6232(3) 0.64806(17)
C16 C 0.4285(4) 0.7205(3) 0.60302(17)
C17 C 0.3823(4) 0.7898(3) 0.65452(18)
H12 H 0.4027 0.7726 0.7008
C18 C 0.3076(4) 0.8827(3) 0.63890(19)
H13 H 0.2756 0.9302 0.6741
C19 C 0.2792(4) 0.9066(3) 0.5715(2)
C20 C 0.3236(5) 0.8384(3) 0.5205(2)
H14 H 0.3027 0.8555 0.4743
C21 C 0.3992(4) 0.7442(3) 0.5362(2)
H15 H 0.4304 0.6964 0.5010
C22 C 0.7407(3) 0.7162(3) 0.65988(19)
C23 C 0.8504(4) 0.7054(3) 0.7078(2)
C24 C 0.9398(5) 0.7935(4) 0.7222(3)
H16 H 1.0107 0.7870 0.7566
C25 C 0.9259(5) 0.8902(4) 0.6866(3)
H17 H 0.9873 0.9501 0.6965
C26 C 0.8239(5) 0.9004(3) 0.6369(2)
H18 H 0.8170 0.9663 0.6113
C27 C 0.7319(4) 0.8157(3) 0.62410(19)
H19 H 0.6603 0.8244 0.5902
loop_
_geom_bond_atom_site_label_1
_geom_bond_atom_site_label_2
_geom_bond_site_symmetry_1
_geom_bond_site_symmetry_2
Br1 C19 1_555 1_555
O1 H1 1_555 1_555
N1 C1 1_555 1_555
N2 C8 1_555 1_555
C1 C2 1_555 1_555
C2 C3 1_555 1_555
C3 H2 1_555 1_555
C4 C3 1_555 1_555
H3 C4 1_555 1_555
C5 C4 1_555 1_555
H4 C5 1_555 1_555
C6 C5 1_555 1_555
H5 C6 1_555 1_555
C7 C2 1_555 1_555
H6 C7 1_555 1_555
C8 C1 1_555 1_555
C9 C8 1_555 1_555
C10 C9 1_555 1_555
H7 C10 1_555 1_555
C11 C10 1_555 1_555
H8 C11 1_555 1_555
C12 C11 1_555 1_555
H9 C12 1_555 1_555
C13 C12 1_555 1_555
H10 C13 1_555 1_555
C14 C9 1_555 1_555
H11 C14 1_555 1_555
C15 N1 1_555 1_555
C16 N1 1_555 1_555
C17 C16 1_555 1_555
H12 C17 1_555 1_555
C18 C17 1_555 1_555
H13 C18 1_555 1_555
C19 C18 1_555 1_555
C20 C19 1_555 1_555
H14 C20 1_555 1_555
C21 C16 1_555 1_555
H15 C21 1_555 1_555
C22 C15 1_555 1_555
C23 O1 1_555 1_555
C24 C23 1_555 1_555
H16 C24 1_555 1_555
C25 C24 1_555 1_555
H17 C25 1_555 1_555
C26 C25 1_555 1_555
H18 C26 1_555 1_555
C27 C22 1_555 1_555
H19 C27 1_555 1_555
N2 C15 1_555 1_555
C6 C7 1_555 1_555
C13 C14 1_555 1_555
C20 C21 1_555 1_555
C22 C23 1_555 1_555
C26 C27 1_555 1_555

#END
