
#######################################################################
#
#                 Cambridge Crystallographic Data Centre
#                                CCDC 
#
#######################################################################
#
# If this CIF has been generated from an entry in the Cambridge 
# Structural Database, then it will include bibliographic, chemical, 
# crystal, experimental, refinement or atomic coordinate data resulting 
# from the CCDC's data processing and validation procedures.
#
#######################################################################

data_MEQBOA
_chemical_formula_moiety         'C16 H14 Cl2 O3'
_chemical_name_systematic        
4-(2,4-Dichlorobenzyloxy)-3-ethoxybenzaldehyde
_symmetry_cell_setting           rhombohedral
_symmetry_space_group_name_H-M   'R 3'
_symmetry_Int_Tables_number      146
_space_group_name_Hall           'R 3'
loop_
_symmetry_equiv_pos_site_id
_symmetry_equiv_pos_as_xyz
1 x,y,z
2 -y,x-y,z
3 -x+y,-x,z
4 2/3+x,1/3+y,1/3+z
5 2/3-y,1/3+x-y,1/3+z
6 2/3-x+y,1/3-x,1/3+z
7 1/3+x,2/3+y,2/3+z
8 1/3-y,2/3+x-y,2/3+z
9 1/3-x+y,2/3-x,2/3+z
_cell_length_a                   19.849(3)
_cell_length_b                   19.849(3)
_cell_length_c                   10.340(2)
_cell_angle_alpha                90
_cell_angle_beta                 90
_cell_angle_gamma                120.00
_cell_volume                     3528
_exptl_crystal_colour            colorless
_exptl_crystal_description       block
_cell_formula_units_Z            9
_exptl_crystal_recrystallization_method acetonitrile
loop_
_atom_site_label
_atom_site_type_symbol
_atom_site_fract_x
_atom_site_fract_y
_atom_site_fract_z
Cl1 Cl 0.34754(6) 0.27838(8) 0.36798(11)
Cl2 Cl 0.03498(6) 0.11165(5) 0.35177(12)
O1 O 0.04996(14) 0.34052(14) 0.3773(2)
O2 O 0.08296(14) 0.48186(13) 0.3796(2)
O3 O -0.18716(18) 0.4669(2) 0.3739(4)
C1 C -0.0130(2) 0.35061(18) 0.3790(3)
C2 C 0.0054(2) 0.42927(18) 0.3809(3)
C3 C -0.05343(19) 0.4456(2) 0.3825(3)
H1 H -0.0417 0.4972 0.3854
C4 C -0.1311(2) 0.3863(2) 0.3798(4)
C5 C -0.1483(2) 0.3095(2) 0.3787(4)
H2 H -0.2000 0.2698 0.3778
C6 C -0.0890(2) 0.2909(2) 0.3787(4)
H3 H -0.1007 0.2393 0.3786
C7 C 0.1066(2) 0.56240(19) 0.3905(4)
H4 H 0.0876 0.5719 0.4709
H5 H 0.0856 0.5780 0.3193
C8 C 0.1932(2) 0.6076(3) 0.3877(4)
H6 H 0.2134 0.5925 0.4595
H7 H 0.2106 0.6622 0.3936
H8 H 0.2115 0.5973 0.3083
C9 C -0.1945(3) 0.4037(3) 0.3779(4)
H9 H -0.2450 0.3617 0.3799
C10 C 0.0363(2) 0.26315(17) 0.3830(4)
H10 H 0.0044 0.2330 0.3106
H11 H 0.0095 0.2382 0.4625
C11 C 0.11434(19) 0.26784(18) 0.3780(3)
C12 C 0.1836(2) 0.3378(2) 0.3905(4)
H12 H 0.1822 0.3837 0.4000
C13 C 0.2549(2) 0.3407(2) 0.3891(4)
H13 H 0.3008 0.3881 0.3980
C14 C 0.2576(2) 0.2729(2) 0.3744(3)
C15 C 0.1912(2) 0.2029(2) 0.3622(4)
H14 H 0.1932 0.1573 0.3526
C16 C 0.1198(2) 0.2014(2) 0.3646(4)
loop_
_geom_bond_atom_site_label_1
_geom_bond_atom_site_label_2
_geom_bond_site_symmetry_1
_geom_bond_site_symmetry_2
Cl1 C14 1_555 1_555
Cl2 C16 1_555 1_555
O1 C1 1_555 1_555
O2 C2 1_555 1_555
O3 C9 1_555 1_555
C1 C2 1_555 1_555
C2 C3 1_555 1_555
C3 H1 1_555 1_555
C4 C3 1_555 1_555
C5 C4 1_555 1_555
H2 C5 1_555 1_555
C6 C1 1_555 1_555
H3 C6 1_555 1_555
C7 O2 1_555 1_555
H4 C7 1_555 1_555
H5 C7 1_555 1_555
C8 C7 1_555 1_555
H6 C8 1_555 1_555
H7 C8 1_555 1_555
H8 C8 1_555 1_555
C9 C4 1_555 1_555
H9 C9 1_555 1_555
C10 O1 1_555 1_555
H10 C10 1_555 1_555
H11 C10 1_555 1_555
C11 C10 1_555 1_555
C12 C11 1_555 1_555
H12 C12 1_555 1_555
C13 C12 1_555 1_555
H13 C13 1_555 1_555
C14 C13 1_555 1_555
C15 C14 1_555 1_555
H14 C15 1_555 1_555
C16 C11 1_555 1_555
C5 C6 1_555 1_555
C15 C16 1_555 1_555

#END
