
#######################################################################
#
#                 Cambridge Crystallographic Data Centre
#                                CCDC 
#
#######################################################################
#
# If this CIF has been generated from an entry in the Cambridge 
# Structural Database, then it will include bibliographic, chemical, 
# crystal, experimental, refinement or atomic coordinate data resulting 
# from the CCDC's data processing and validation procedures.
#
#######################################################################

data_MEQGEU
_chemical_name_common            'pentabenzoylcalix[5]arene acetone solvate'
_chemical_formula_moiety         'C70 H50 O10,C3 H6 O1'
_chemical_name_systematic        
'31,32,33,34,35-pentakis(benzoyloxy)calix[5]arene acetone solvate'
_symmetry_cell_setting           monoclinic
_symmetry_space_group_name_H-M   'P 21/n'
_symmetry_Int_Tables_number      14
_space_group_name_Hall           '-P 2yn'
loop_
_symmetry_equiv_pos_site_id
_symmetry_equiv_pos_as_xyz
1 x,y,z
2 1/2-x,1/2+y,1/2-z
3 -x,-y,-z
4 1/2+x,1/2-y,1/2+z
_cell_length_a                   14.023(2)
_cell_length_b                   18.318(3)
_cell_length_c                   23.193(4)
_cell_angle_alpha                90
_cell_angle_beta                 102.858(3)
_cell_angle_gamma                90
_cell_volume                     5808.27
_chemical_melting_point          'above 260deg.C(dec.)'
_cell_formula_units_Z            4
loop_
_atom_site_label
_atom_site_type_symbol
_atom_site_fract_x
_atom_site_fract_y
_atom_site_fract_z
C1 C 0.5256(4) 0.4853(2) 0.2861(3)
C2 C 0.4678(4) 0.4936(3) 0.3267(3)
C3 C 0.5125(5) 0.5199(3) 0.3808(3)
C4 C 0.6095(5) 0.5377(3) 0.3945(3)
C5 C 0.6656(4) 0.5303(3) 0.3524(3)
C6 C 0.6243(4) 0.5032(2) 0.2972(2)
C7 C 0.6872(4) 0.4913(2) 0.2520(2)
C8 C 0.7520(4) 0.5554(2) 0.2466(2)
C9 C 0.8519(4) 0.5554(3) 0.2730(2)
C10 C 0.9101(4) 0.6141(3) 0.2683(2)
C11 C 0.8697(4) 0.6753(3) 0.2373(2)
C12 C 0.7713(3) 0.6784(2) 0.2105(2)
C13 C 0.7157(3) 0.6171(2) 0.2145(2)
C14 C 0.7252(3) 0.7463(2) 0.1782(2)
C15 C 0.6704(3) 0.7908(2) 0.2153(2)
C16 C 0.7137(4) 0.8072(3) 0.2741(2)
C17 C 0.6677(4) 0.8504(3) 0.3073(2)
C18 C 0.5754(4) 0.8770(3) 0.2837(2)
C19 C 0.5274(4) 0.8621(2) 0.2264(2)
C20 C 0.5784(3) 0.8204(2) 0.1933(2)
C21 C 0.4278(4) 0.8959(3) 0.2008(2)
C22 C 0.3414(4) 0.8470(3) 0.1799(2)
C23 C 0.2847(5) 0.8530(3) 0.1232(3)
C24 C 0.1975(5) 0.8164(4) 0.1068(3)
C25 C 0.1644(4) 0.7721(3) 0.1451(3)
C26 C 0.2197(4) 0.7605(3) 0.2026(2)
C27 C 0.3057(3) 0.7990(3) 0.2169(2)
C28 C 0.1859(4) 0.7093(3) 0.2443(3)
C29 C 0.2068(4) 0.6299(3) 0.2351(3)
C30 C 0.1664(5) 0.5956(4) 0.1828(3)
C31 C 0.1862(6) 0.5238(4) 0.1715(4)
C32 C 0.2499(5) 0.4855(4) 0.2137(4)
C33 C 0.2926(4) 0.5150(3) 0.2672(3)
C34 C 0.2661(4) 0.5868(3) 0.2776(3)
C35 C 0.3619(4) 0.4713(3) 0.3141(3)
C36 C 0.4879(4) 0.3863(3) 0.2203(3)
C37 C 0.4411(4) 0.3635(3) 0.1598(3)
C38 C 0.3901(5) 0.4118(3) 0.1179(3)
C39 C 0.3465(6) 0.3882(5) 0.0633(4)
C40 C 0.3486(6) 0.3155(5) 0.0490(4)
C41 C 0.3970(5) 0.2673(4) 0.0899(4)
C42 C 0.4431(4) 0.2910(3) 0.1448(3)
C43 C 0.5971(4) 0.5941(3) 0.1277(2)
C44 C 0.4945(4) 0.6002(2) 0.0984(2)
C45 C 0.3282(4) 0.6307(3) 0.0943(4)
C46 C 0.3027(5) 0.6060(4) 0.0370(4)
C47 C 0.3721(6) 0.5798(4) 0.0095(3)
C48 C 0.4683(5) 0.5777(3) 0.0397(3)
C49 C 0.4238(4) 0.6279(3) 0.1258(3)
C50 C 0.5397(4) 0.8607(3) 0.0948(2)
C51 C 0.4835(3) 0.8455(3) 0.0342(2)
C52 C 0.4327(4) 0.7821(3) 0.0174(2)
C53 C 0.3794(4) 0.7737(4) -0.0399(3)
C54 C 0.3787(5) 0.8278(4) -0.0798(3)
C55 C 0.4292(5) 0.8898(4) -0.0646(3)
C56 C 0.4805(4) 0.8988(3) -0.0082(3)
C57 C 0.4217(5) 0.7514(3) 0.2942(3)
C58 C 0.4773(5) 0.7630(4) 0.3570(3)
C59 C 0.4546(6) 0.8149(5) 0.3913(4)
C60 C 0.5077(11) 0.8271(6) 0.4471(4)
C61 C 0.5865(12) 0.7858(8) 0.4673(5)
C62 C 0.5578(6) 0.7206(4) 0.3762(4)
C63 C 0.2408(5) 0.5994(3) 0.3726(4)
C64 C 0.2852(5) 0.6176(3) 0.4356(3)
C65 C 0.2328(5) 0.5989(4) 0.4773(4)
C66 C 0.2715(8) 0.6139(5) 0.5367(4)
C67 C 0.3607(8) 0.6448(5) 0.5544(4)
C68 C 0.4120(6) 0.6622(4) 0.5128(4)
C69 C 0.3757(5) 0.6481(4) 0.4548(3)
C70 C 0.6133(7) 0.7318(7) 0.4344(7)
O1 O 0.4809(2) 0.4587(2) 0.2292(2)
O2 O 0.5289(3) 0.3458(2) 0.2588(2)
O3 O 0.6163(2) 0.6182(2) 0.1851(1)
O4 O 0.6613(3) 0.5712(3) 0.1061(2)
O5 O 0.5324(2) 0.8061(2) 0.1332(1)
O6 O 0.5861(3) 0.9149(2) 0.1097(2)
O7 O 0.3573(3) 0.8006(2) 0.2770(2)
O8 O 0.4392(3) 0.7015(3) 0.2644(2)
O9 O 0.3007(2) 0.6141(2) 0.3351(2)
O10 O 0.1599(3) 0.5746(3) 0.3543(2)
H1 H 0.4760 0.5259 0.4093
H2 H 0.6382 0.5548 0.4321
H3 H 0.7312 0.5438 0.3615
H4 H 0.7277 0.4485 0.2633
H5 H 0.6446 0.4817 0.2137
H6 H 0.8794 0.5146 0.2942
H7 H 0.9765 0.6128 0.2858
H8 H 0.9094 0.7152 0.2345
H9 H 0.7760 0.7762 0.1679
H10 H 0.6805 0.7319 0.1418
H11 H 0.7752 0.7883 0.2909
H12 H 0.6987 0.8619 0.3459
H13 H 0.5446 0.9058 0.3072
H14 H 0.4123 0.9282 0.2306
H15 H 0.4345 0.9263 0.1676
H16 H 0.3058 0.8823 0.0958
H17 H 0.1602 0.8220 0.0686
H18 H 0.1041 0.7492 0.1330
H19 H 0.1159 0.7154 0.2400
H20 H 0.2173 0.7228 0.2845
H21 H 0.1238 0.6219 0.1537
H22 H 0.1567 0.5020 0.1357
H23 H 0.2647 0.4376 0.2057
H24 H 0.3394 0.4746 0.3506
H25 H 0.3576 0.4204 0.3021
H26 H 0.3859 0.4608 0.1276
H27 H 0.3147 0.4214 0.0351
H28 H 0.3172 0.2993 0.0116
H29 H 0.3987 0.2181 0.0804
H30 H 0.4763 0.2578 0.1724
H31 H 0.2803 0.6497 0.1120
H32 H 0.2375 0.6072 0.0168
H33 H 0.3545 0.5634 -0.0294
H34 H 0.5161 0.5611 0.0208
H35 H 0.4406 0.6442 0.1647
H36 H 0.4341 0.7447 0.0447
H37 H 0.3442 0.7311 -0.0511
H38 H 0.3426 0.8220 -0.1184
H39 H 0.4290 0.9262 -0.0926
H40 H 0.5147 0.9421 0.0022
H41 H 0.4002 0.8440 0.3768
H42 H 0.4896 0.8634 0.4707
H43 H 0.6242 0.7944 0.5050
H44 H 0.5759 0.6853 0.3518
H45 H 0.1720 0.5765 0.4658
H46 H 0.2354 0.6025 0.5646
H47 H 0.3866 0.6541 0.5943
H48 H 0.4731 0.6841 0.5245
H49 H 0.4130 0.6595 0.4275
H50 H 0.6672 0.7026 0.4497
C71 C 0.3904(13) 0.9280(12) 0.5738(5)
C72 C 0.3994(11) 0.9667(6) 0.5184(6)
C73 C 0.3793(5) 0.8424(3) 0.5741(3)
O11 O 0.4107(10) 0.9721(6) 0.6180(6)
H51 H 0.3650 1.0123 0.5156
H52 H 0.3718 0.9369 0.4848
H53 H 0.4672 0.9756 0.5193
H54 H 0.4131 0.8235 0.6118
H55 H 0.4069 0.8216 0.5435
H56 H 0.3113 0.8298 0.5674
loop_
_geom_bond_atom_site_label_1
_geom_bond_atom_site_label_2
_geom_bond_site_symmetry_1
_geom_bond_site_symmetry_2
C1 C2 1_555 1_555
C2 C3 1_555 1_555
C3 C4 1_555 1_555
C4 C5 1_555 1_555
C5 C6 1_555 1_555
C6 C1 1_555 1_555
C7 C6 1_555 1_555
C8 C7 1_555 1_555
C9 C8 1_555 1_555
C10 C9 1_555 1_555
C11 C10 1_555 1_555
C12 C11 1_555 1_555
C13 C8 1_555 1_555
C14 C12 1_555 1_555
C15 C14 1_555 1_555
C16 C15 1_555 1_555
C17 C16 1_555 1_555
C18 C17 1_555 1_555
C19 C18 1_555 1_555
C20 C15 1_555 1_555
C21 C19 1_555 1_555
C22 C21 1_555 1_555
C23 C22 1_555 1_555
C24 C23 1_555 1_555
C25 C24 1_555 1_555
C26 C25 1_555 1_555
C27 C22 1_555 1_555
C28 C26 1_555 1_555
C29 C28 1_555 1_555
C30 C29 1_555 1_555
C31 C30 1_555 1_555
C32 C31 1_555 1_555
C33 C32 1_555 1_555
C34 C29 1_555 1_555
C35 C2 1_555 1_555
C36 C37 1_555 1_555
C37 C38 1_555 1_555
C38 C39 1_555 1_555
C39 C40 1_555 1_555
C40 C41 1_555 1_555
C41 C42 1_555 1_555
C42 C37 1_555 1_555
C43 C44 1_555 1_555
C44 C48 1_555 1_555
C45 C46 1_555 1_555
C46 C47 1_555 1_555
C47 C48 1_555 1_555
C48 H34 1_555 1_555
C49 C44 1_555 1_555
C50 C51 1_555 1_555
C51 C52 1_555 1_555
C52 C53 1_555 1_555
C53 C54 1_555 1_555
C54 C55 1_555 1_555
C55 C56 1_555 1_555
C56 C51 1_555 1_555
C57 C58 1_555 1_555
C58 C59 1_555 1_555
C59 C60 1_555 1_555
C60 C61 1_555 1_555
C61 C70 1_555 1_555
C62 C58 1_555 1_555
C63 C64 1_555 1_555
C64 C65 1_555 1_555
C65 C66 1_555 1_555
C66 C67 1_555 1_555
C67 C68 1_555 1_555
C68 C69 1_555 1_555
C69 C64 1_555 1_555
C70 C62 1_555 1_555
C71 C72 1_555 1_555
C72 H51 1_555 1_555
C73 C71 1_555 1_555
O1 C1 1_555 1_555
O2 C36 1_555 1_555
O3 C13 1_555 1_555
O4 C43 1_555 1_555
O5 C20 1_555 1_555
O6 C50 1_555 1_555
O7 C27 1_555 1_555
O8 C57 1_555 1_555
O9 C34 1_555 1_555
O10 C63 1_555 1_555
O11 C71 1_555 1_555
H1 C3 1_555 1_555
H2 C4 1_555 1_555
H3 C5 1_555 1_555
H4 C7 1_555 1_555
H5 C7 1_555 1_555
H6 C9 1_555 1_555
H7 C10 1_555 1_555
H8 C11 1_555 1_555
H9 C14 1_555 1_555
H10 C14 1_555 1_555
H11 C16 1_555 1_555
H12 C17 1_555 1_555
H13 C18 1_555 1_555
H14 C21 1_555 1_555
H15 C21 1_555 1_555
H16 C23 1_555 1_555
H17 C24 1_555 1_555
H18 C25 1_555 1_555
H19 C28 1_555 1_555
H20 C28 1_555 1_555
H21 C30 1_555 1_555
H22 C31 1_555 1_555
H23 C32 1_555 1_555
H24 C35 1_555 1_555
H25 C35 1_555 1_555
H26 C38 1_555 1_555
H27 C39 1_555 1_555
H28 C40 1_555 1_555
H29 C41 1_555 1_555
H30 C42 1_555 1_555
H31 C45 1_555 1_555
H32 C46 1_555 1_555
H33 C47 1_555 1_555
H35 C49 1_555 1_555
H36 C52 1_555 1_555
H37 C53 1_555 1_555
H38 C54 1_555 1_555
H39 C55 1_555 1_555
H40 C56 1_555 1_555
H41 C59 1_555 1_555
H42 C60 1_555 1_555
H43 C61 1_555 1_555
H44 C62 1_555 1_555
H45 C65 1_555 1_555
H46 C66 1_555 1_555
H47 C67 1_555 1_555
H48 C68 1_555 1_555
H49 C69 1_555 1_555
H50 C70 1_555 1_555
H52 C72 1_555 1_555
H53 C72 1_555 1_555
H54 C73 1_555 1_555
H55 C73 1_555 1_555
H56 C73 1_555 1_555
C12 C13 1_555 1_555
C19 C20 1_555 1_555
C26 C27 1_555 1_555
C33 C34 1_555 1_555
C33 C35 1_555 1_555
C36 O1 1_555 1_555
C43 O3 1_555 1_555
C45 C49 1_555 1_555
C50 O5 1_555 1_555
C57 O7 1_555 1_555
C63 O9 1_555 1_555

#END
