
#######################################################################
#
#                 Cambridge Crystallographic Data Centre
#                                CCDC 
#
#######################################################################
#
# If this CIF has been generated from an entry in the Cambridge 
# Structural Database, then it will include bibliographic, chemical, 
# crystal, experimental, refinement or atomic coordinate data resulting 
# from the CCDC's data processing and validation procedures.
#
#######################################################################

data_MERCAQ
_chemical_formula_moiety         'C21 H14 Cl1 N1 O3'
_chemical_name_systematic        
(6-chloro-2-hydroxy-3-phenyl-2H-1,4-benzoxazin-2-yl)(phenyl)methanone
_symmetry_cell_setting           monoclinic
_symmetry_space_group_name_H-M   'P 21/c'
_symmetry_Int_Tables_number      14
_space_group_name_Hall           '-P 2ybc'
loop_
_symmetry_equiv_pos_site_id
_symmetry_equiv_pos_as_xyz
1 x,y,z
2 -x,1/2+y,1/2-z
3 -x,-y,-z
4 x,1/2-y,1/2+z
_cell_length_a                   15.9208(11)
_cell_length_b                   9.3232(8)
_cell_length_c                   12.1334(7)
_cell_angle_alpha                90
_cell_angle_beta                 97.588(5)
_cell_angle_gamma                90
_cell_volume                     1785.22
_exptl_crystal_colour            colorless
_cell_formula_units_Z            4
loop_
_atom_site_label
_atom_site_type_symbol
_atom_site_fract_x
_atom_site_fract_y
_atom_site_fract_z
C1 C 0.58389(15) 0.6365(3) 0.69223(18)
H1 H 0.6084 0.5916 0.7570
C2 C 0.50057(16) 0.6119(3) 0.6513(2)
C3 C 0.46271(17) 0.6802(3) 0.5568(2)
H2 H 0.4058 0.6640 0.5314
C4 C 0.50892(15) 0.7718(3) 0.5006(2)
H3 H 0.4837 0.8181 0.4368
C5 C 0.59323(15) 0.7950(3) 0.53922(18)
C6 C 0.63104(14) 0.7299(3) 0.63515(17)
C7 C 0.76248(15) 0.8208(3) 0.61426(18)
C8 C 0.72805(15) 0.8597(3) 0.49448(18)
C9 C 0.76330(14) 1.0003(3) 0.45026(18)
C10 C 0.75822(15) 1.1376(3) 0.51033(18)
C11 C 0.79286(17) 1.2585(3) 0.4676(2)
H4 H 0.8176 1.2518 0.4025
C12 C 0.79098(19) 1.3882(3) 0.5207(2)
H5 H 0.8143 1.4688 0.4914
C13 C 0.75485(18) 1.3993(4) 0.6169(2)
H6 H 0.7546 1.4871 0.6533
C14 C 0.71905(18) 1.2810(3) 0.6594(2)
H7 H 0.6937 1.2892 0.7239
C15 C 0.72055(16) 1.1509(3) 0.60717(19)
H8 H 0.6963 1.0711 0.6365
C16 C 0.85181(15) 0.8566(3) 0.6543(2)
C17 C 0.91373(17) 0.8477(4) 0.5844(2)
H9 H 0.8997 0.8169 0.5114
C18 C 0.9966(2) 0.8849(5) 0.6232(3)
H10 H 1.0379 0.8801 0.5758
C19 C 1.0177(2) 0.9280(7) 0.7298(4)
H11 H 1.0735 0.9522 0.7556
C20 C 0.9569(2) 0.9360(6) 0.7997(3)
H12 H 0.9719 0.9653 0.8730
C21 C 0.87394(19) 0.9011(5) 0.7629(2)
H13 H 0.8330 0.9075 0.8107
Cl1 Cl 0.44209(5) 0.49246(10) 0.72029(6)
N1 N 0.71607(11) 0.7596(2) 0.67893(14)
O1 O 0.63922(10) 0.88945(19) 0.48367(12)
O2 O 0.74484(11) 0.74369(19) 0.42990(13)
H14 H 0.7440 0.7696 0.3652
O3 O 0.79270(12) 0.9931(2) 0.36352(13)
loop_
_geom_bond_atom_site_label_1
_geom_bond_atom_site_label_2
_geom_bond_site_symmetry_1
_geom_bond_site_symmetry_2
C1 H1 1_555 1_555
C2 C1 1_555 1_555
C3 C2 1_555 1_555
H2 C3 1_555 1_555
C4 C3 1_555 1_555
H3 C4 1_555 1_555
C5 C4 1_555 1_555
C6 C1 1_555 1_555
C7 C8 1_555 1_555
C8 C9 1_555 1_555
C9 C10 1_555 1_555
C10 C11 1_555 1_555
C11 H4 1_555 1_555
C12 C11 1_555 1_555
H5 C12 1_555 1_555
C13 C12 1_555 1_555
H6 C13 1_555 1_555
C14 C13 1_555 1_555
H7 C14 1_555 1_555
C15 C10 1_555 1_555
H8 C15 1_555 1_555
C16 C7 1_555 1_555
C17 C16 1_555 1_555
H9 C17 1_555 1_555
C18 C17 1_555 1_555
H10 C18 1_555 1_555
C19 C18 1_555 1_555
H11 C19 1_555 1_555
C20 C19 1_555 1_555
H12 C20 1_555 1_555
C21 C16 1_555 1_555
H13 C21 1_555 1_555
Cl1 C2 1_555 1_555
N1 C6 1_555 1_555
O1 C5 1_555 1_555
O2 C8 1_555 1_555
H14 O2 1_555 1_555
O3 C9 1_555 1_555
C5 C6 1_555 1_555
C7 N1 1_555 1_555
C8 O1 1_555 1_555
C14 C15 1_555 1_555
C20 C21 1_555 1_555

#END
