
#######################################################################
#
#                 Cambridge Crystallographic Data Centre
#                                CCDC 
#
#######################################################################
#
# If this CIF has been generated from an entry in the Cambridge 
# Structural Database, then it will include bibliographic, chemical, 
# crystal, experimental, refinement or atomic coordinate data resulting 
# from the CCDC's data processing and validation procedures.
#
#######################################################################

data_MERMII
_chemical_formula_moiety         'C10 H4 Cl2 N8 O4'
_chemical_name_systematic        
1,1'-(3,5-dichloro-4,6-dinitro-1,2-phenylene)bis(1H-1,2,4-triazole)
_symmetry_cell_setting           monoclinic
_symmetry_space_group_name_H-M   'P 21/c'
_symmetry_Int_Tables_number      14
_space_group_name_Hall           '-P 2ybc'
loop_
_symmetry_equiv_pos_site_id
_symmetry_equiv_pos_as_xyz
1 x,y,z
2 -x,1/2+y,1/2-z
3 -x,-y,-z
4 x,1/2-y,1/2+z
_cell_length_a                   16.424(3)
_cell_length_b                   10.270(2)
_cell_length_c                   17.559(3)
_cell_angle_alpha                90
_cell_angle_beta                 92.886(4)
_cell_angle_gamma                90
_cell_volume                     2958
_exptl_crystal_colour            colorless
_exptl_crystal_description       prismatic
_cell_formula_units_Z            8
loop_
_atom_site_label
_atom_site_type_symbol
_atom_site_fract_x
_atom_site_fract_y
_atom_site_fract_z
Cl1 Cl 0.86881(10) 0.90944(17) 0.27158(9)
Cl2 Cl 1.10009(9) 0.69006(17) 0.11153(9)
N1 N 1.0231(3) 0.7638(6) 0.2532(3)
N2 N 0.9990(3) 0.7643(5) -0.0258(2)
N3 N 0.8521(2) 0.9081(4) -0.0211(2)
N4 N 0.8913(3) 0.9584(5) -0.0807(3)
N5 N 0.7589(3) 0.9256(9) -0.1126(4)
N6 N 0.7897(2) 0.9796(4) 0.1214(3)
N7 N 0.7201(3) 0.9116(5) 0.1310(4)
N8 N 0.6953(3) 1.1239(5) 0.1227(4)
O1 O 1.0768(3) 0.8341(7) 0.2775(3)
O2 O 1.0038(4) 0.6608(5) 0.2786(3)
O3 O 0.9619(3) 0.6760(5) -0.0568(3)
O4 O 1.0603(3) 0.8148(5) -0.0470(2)
C1 C 0.9072(3) 0.8739(5) 0.1848(3)
C2 C 0.9786(3) 0.8063(5) 0.1815(3)
C3 C 1.0106(3) 0.7738(5) 0.1128(3)
C4 C 0.9679(3) 0.8095(5) 0.0472(3)
C5 C 0.8954(3) 0.8776(4) 0.0480(3)
C6 C 0.8651(3) 0.9123(4) 0.1185(3)
C7 C 0.7740(4) 1.1049(5) 0.1179(4)
H1 H 0.8127 1.1701 0.1127
C8 C 0.6658(4) 1.0034(6) 0.1304(4)
H2 H 0.6106 0.9867 0.1349
C9 C 0.7739(4) 0.8880(9) -0.0412(4)
H3 H 0.7356 0.8529 -0.0098
C10 C 0.8322(4) 0.9653(8) -0.1333(4)
H4 H 0.8406 0.9958 -0.1821
Cl3 Cl 0.65542(10) 0.05472(18) 0.75012(9)
Cl4 Cl 0.41889(8) 0.33082(15) 0.60539(9)
N9 N 0.5050(3) 0.2180(6) 0.7417(3)
N10 N 0.4981(3) 0.2572(5) 0.4623(3)
N11 N 0.6412(3) 0.1060(4) 0.4594(3)
N12 N 0.6356(4) -0.0109(6) 0.4272(4)
N13 N 0.7157(4) 0.1156(8) 0.3609(3)
N14 N 0.7201(2) 0.0201(4) 0.5944(3)
N15 N 0.7858(3) 0.0854(5) 0.5703(4)
N16 N 0.8194(3) -0.1189(5) 0.6032(5)
O5 O 0.5293(4) 0.3156(6) 0.7711(3)
O6 O 0.4551(4) 0.1484(7) 0.7622(3)
O7 O 0.4459(3) 0.1955(6) 0.4321(3)
O8 O 0.5242(4) 0.3588(5) 0.4398(3)
C11 C 0.6098(3) 0.1102(5) 0.6661(3)
C12 C 0.5410(3) 0.1854(5) 0.6675(3)
C13 C 0.5039(3) 0.2348(5) 0.6016(3)
C14 C 0.5375(3) 0.2056(5) 0.5333(3)
C15 C 0.6073(3) 0.1323(4) 0.5304(3)
C16 C 0.6448(3) 0.0850(4) 0.5971(3)
C17 C 0.7415(4) -0.1013(6) 0.6128(4)
H5 H 0.7063 -0.1645 0.6299
C18 C 0.8422(4) -0.0010(6) 0.5775(5)
H6 H 0.8956 0.0165 0.5657
C19 C 0.6877(4) 0.1825(7) 0.4170(4)
H7 H 0.6982 0.2701 0.4263
C20 C 0.6808(5) 0.0015(8) 0.3688(4)
H8 H 0.6879 -0.0663 0.3346
loop_
_geom_bond_atom_site_label_1
_geom_bond_atom_site_label_2
_geom_bond_site_symmetry_1
_geom_bond_site_symmetry_2
Cl1 C1 1_555 1_555
Cl2 C3 1_555 1_555
N1 O1 1_555 1_555
N2 O3 1_555 1_555
N3 N4 1_555 1_555
N4 C10 1_555 1_555
N5 C9 1_555 1_555
N6 N7 1_555 1_555
N7 C8 1_555 1_555
N8 C7 1_555 1_555
O2 N1 1_555 1_555
O4 N2 1_555 1_555
C1 C2 1_555 1_555
C2 N1 1_555 1_555
C3 C2 1_555 1_555
C4 N2 1_555 1_555
C5 N3 1_555 1_555
C6 N6 1_555 1_555
C7 N6 1_555 1_555
H1 C7 1_555 1_555
C8 N8 1_555 1_555
H2 C8 1_555 1_555
C9 N3 1_555 1_555
H3 C9 1_555 1_555
C10 N5 1_555 1_555
H4 C10 1_555 1_555
Cl3 C11 1_555 1_555
Cl4 C13 1_555 1_555
N9 O5 1_555 1_555
N10 O7 1_555 1_555
N11 N12 1_555 1_555
N12 C20 1_555 1_555
N13 C19 1_555 1_555
N14 N15 1_555 1_555
N15 C18 1_555 1_555
N16 C17 1_555 1_555
O6 N9 1_555 1_555
O8 N10 1_555 1_555
C11 C12 1_555 1_555
C12 N9 1_555 1_555
C13 C12 1_555 1_555
C14 N10 1_555 1_555
C15 N11 1_555 1_555
C16 N14 1_555 1_555
C17 N14 1_555 1_555
H5 C17 1_555 1_555
C18 N16 1_555 1_555
H6 C18 1_555 1_555
C19 N11 1_555 1_555
H7 C19 1_555 1_555
C20 N13 1_555 1_555
H8 C20 1_555 1_555
C1 C6 1_555 1_555
C3 C4 1_555 1_555
C4 C5 1_555 1_555
C5 C6 1_555 1_555
C11 C16 1_555 1_555
C13 C14 1_555 1_555
C14 C15 1_555 1_555
C15 C16 1_555 1_555

#END
