
#######################################################################
#
#                 Cambridge Crystallographic Data Centre
#                                CCDC 
#
#######################################################################
#
# If this CIF has been generated from an entry in the Cambridge 
# Structural Database, then it will include bibliographic, chemical, 
# crystal, experimental, refinement or atomic coordinate data resulting 
# from the CCDC's data processing and validation procedures.
#
#######################################################################

data_MERPEE
_chemical_formula_moiety         'C1 H6 N3 1+,C6 H4 Cl1 O3 S1 1-,C8 H10'
_chemical_name_systematic        
'Guanidinium (4-chlorobenzenesulfonate) (p-xylene) clathrate'
_symmetry_cell_setting           orthorhombic
_symmetry_space_group_name_H-M   'P 21 21 21'
_symmetry_Int_Tables_number      19
_space_group_name_Hall           'P 2ac 2ab'
loop_
_symmetry_equiv_pos_site_id
_symmetry_equiv_pos_as_xyz
1 x,y,z
2 1/2-x,-y,1/2+z
3 1/2+x,1/2-y,-z
4 -x,1/2+y,1/2-z
_cell_length_a                   7.4892(9)
_cell_length_b                   11.5560(14)
_cell_length_c                   21.175(3)
_cell_angle_alpha                90
_cell_angle_beta                 90
_cell_angle_gamma                90
_cell_volume                     1832.59
_exptl_crystal_colour            colorless
_exptl_crystal_description       'flat block'
_cell_formula_units_Z            4
loop_
_atom_site_label
_atom_site_type_symbol
_atom_site_fract_x
_atom_site_fract_y
_atom_site_fract_z
Cl1 Cl 0.14539(11) 0.11196(7) 1.11309(3)
S1 S 0.23782(7) 0.08659(4) 0.82034(2)
O1 O 0.2492(2) 0.20391(11) 0.79559(7)
C1 C 0.2072(2) 0.09814(16) 0.90285(9)
O2 O 0.40185(18) 0.02129(13) 0.81081(7)
C2 C 0.2634(3) 0.19565(17) 0.93548(11)
H5 H 0.3150 0.2587 0.9133
O3 O 0.08239(18) 0.02327(13) 0.79686(7)
C3 C 0.2442(4) 0.20095(18) 1.00015(11)
H8 H 0.2824 0.2674 1.0229
C4 C 0.1684(3) 0.1079(2) 1.03151(10)
C5 C 0.1104(3) 0.0116(2) 0.99992(11)
H9 H 0.0577 -0.0511 1.0222
C6 C 0.1301(3) 0.00706(19) 0.93484(10)
H10 H 0.0903 -0.0591 0.9122
N1 N 0.8975(2) 0.28645(17) 0.74593(9)
H1 H 0.8999 0.3539 0.7267
H2 H 0.9980 0.2517 0.7561
N2 N 0.7378(3) 0.13482(14) 0.78748(9)
H3 H 0.8377 0.0989 0.7972
H4 H 0.6343 0.1027 0.7963
N3 N 0.5918(2) 0.28956(17) 0.74416(8)
H6 H 0.5941 0.3571 0.7249
H7 H 0.4889 0.2567 0.7532
C7 C 0.7433(3) 0.23733(16) 0.75947(9)
C8 C 0.1723(3) 0.5684(2) 0.93054(12)
C9 C 0.2555(4) 0.67418(19) 0.93683(11)
H11 H 0.2927 0.7146 0.9001
C10 C 0.2860(3) 0.7227(2) 0.99569(12)
H12 H 0.3458 0.7950 0.9986
C11 C 0.2306(3) 0.6675(2) 1.05049(11)
C12 C 0.1460(3) 0.5620(2) 1.04410(12)
H13 H 0.1067 0.5221 1.0808
C13 C 0.1177(3) 0.5136(2) 0.98597(13)
H14 H 0.0594 0.4408 0.9833
C14 C 0.1409(5) 0.5141(3) 0.86677(14)
H15 H 0.0883 0.4372 0.8723
H16 H 0.2549 0.5072 0.8443
H17 H 0.0593 0.5628 0.8422
C15 C 0.2605(4) 0.7219(3) 1.11429(13)
H18 H 0.1793 0.7877 1.1196
H19 H 0.3843 0.7488 1.1174
H20 H 0.2374 0.6646 1.1474
loop_
_geom_bond_atom_site_label_1
_geom_bond_atom_site_label_2
_geom_bond_site_symmetry_1
_geom_bond_site_symmetry_2
Cl1 C4 1_555 1_555
S1 O1 1_555 1_555
N1 H1 1_555 1_555
H2 N1 1_555 1_555
C1 S1 1_555 1_555
O2 S1 1_555 1_555
N2 H3 1_555 1_555
H4 N2 1_555 1_555
C2 C1 1_555 1_555
H5 C2 1_555 1_555
O3 S1 1_555 1_555
N3 H6 1_555 1_555
H7 N3 1_555 1_555
C3 C2 1_555 1_555
H8 C3 1_555 1_555
C4 C3 1_555 1_555
C5 C4 1_555 1_555
H9 C5 1_555 1_555
C6 C1 1_555 1_555
H10 C6 1_555 1_555
C7 N1 1_555 1_555
C8 C9 1_555 1_555
C9 H11 1_555 1_555
C10 C9 1_555 1_555
H12 C10 1_555 1_555
C11 C10 1_555 1_555
C12 C11 1_555 1_555
H13 C12 1_555 1_555
C13 C8 1_555 1_555
H14 C13 1_555 1_555
C14 C8 1_555 1_555
H15 C14 1_555 1_555
H16 C14 1_555 1_555
H17 C14 1_555 1_555
C15 C11 1_555 1_555
H18 C15 1_555 1_555
H19 C15 1_555 1_555
H20 C15 1_555 1_555
N2 C7 1_555 1_555
N3 C7 1_555 1_555
C5 C6 1_555 1_555
C12 C13 1_555 1_555

#END
