
#######################################################################
#
#                 Cambridge Crystallographic Data Centre
#                                CCDC 
#
#######################################################################
#
# If this CIF has been generated from an entry in the Cambridge 
# Structural Database, then it will include bibliographic, chemical, 
# crystal, experimental, refinement or atomic coordinate data resulting 
# from the CCDC's data processing and validation procedures.
#
#######################################################################

data_MERPUU
_chemical_formula_moiety         'C1 H6 N3 1+,C6 H5 O3 S1 1-,C6 H4 Cl2'
_chemical_name_systematic        
'Guanidinium (benzenesulfonate) (1,2-dichlorobenzene) clathrate'
_symmetry_cell_setting           orthorhombic
_symmetry_space_group_name_H-M   'P 21 21 21'
_symmetry_Int_Tables_number      19
_space_group_name_Hall           'P 2ac 2ab'
loop_
_symmetry_equiv_pos_site_id
_symmetry_equiv_pos_as_xyz
1 x,y,z
2 1/2-x,-y,1/2+z
3 1/2+x,1/2-y,-z
4 -x,1/2+y,1/2-z
_cell_length_a                   7.5989(9)
_cell_length_b                   11.9609(14)
_cell_length_c                   18.500(2)
_cell_angle_alpha                90
_cell_angle_beta                 90
_cell_angle_gamma                90
_cell_volume                     1681.46
_exptl_crystal_colour            colorless
_exptl_crystal_description       'flat block'
_cell_formula_units_Z            4
loop_
_atom_site_label
_atom_site_type_symbol
_atom_site_fract_x
_atom_site_fract_y
_atom_site_fract_z
Cl1 Cl 0.28986(15) 0.47795(10) 0.88294(8)
Cl2 Cl 0.12033(13) 0.23695(9) 0.88676(5)
C8 C 0.1467(4) 0.3141(3) 0.96551(16)
C9 C 0.2187(4) 0.4195(3) 0.9637(2)
C10 C 0.2397(5) 0.4779(3) 1.0275(3)
H12 H 0.2922 0.5500 1.0270
C11 C 0.1853(6) 0.4323(4) 1.0916(3)
H13 H 0.1977 0.4736 1.1352
C12 C 0.1133(5) 0.3277(4) 1.0931(2)
H14 H 0.0767 0.2962 1.1378
C13 C 0.0936(4) 0.2680(3) 1.03036(17)
H15 H 0.0436 0.1952 1.0315
S1 S 0.73129(9) 0.68422(5) 0.80863(4)
O1 O 0.5757(2) 0.63549(16) 0.77449(10)
C1 C 0.7172(4) 0.6497(2) 0.90167(14)
O2 O 0.8930(2) 0.63242(16) 0.78196(10)
C2 C 0.6279(4) 0.7199(3) 0.94834(17)
H5 H 0.5776 0.7877 0.9312
O3 O 0.7335(3) 0.80537(14) 0.80410(10)
C3 C 0.6130(4) 0.6901(3) 1.02036(18)
H8 H 0.5528 0.7379 1.0531
C4 C 0.6852(4) 0.5914(3) 1.04483(17)
H9 H 0.6745 0.5716 1.0944
C5 C 0.7728(4) 0.5212(3) 0.99791(15)
H10 H 0.8214 0.4530 1.0150
C6 C 0.7899(4) 0.5503(2) 0.92596(14)
H11 H 0.8510 0.5026 0.8935
N1 N 0.5851(3) 0.5988(2) 1.23953(13)
H1 H 0.4840 0.6337 1.2342
H2 H 0.5868 0.5270 1.2499
N2 N 0.8872(3) 0.6011(2) 1.23976(13)
H3 H 0.9868 0.6378 1.2345
H4 H 0.8885 0.5293 1.2501
N3 N 0.7330(3) 0.76236(18) 1.21655(11)
H6 H 0.6322 0.7976 1.2111
H7 H 0.8327 0.7990 1.2116
C7 C 0.7347(4) 0.6543(2) 1.23208(13)
loop_
_geom_bond_atom_site_label_1
_geom_bond_atom_site_label_2
_geom_bond_site_symmetry_1
_geom_bond_site_symmetry_2
Cl1 C9 1_555 1_555
S1 O1 1_555 1_555
N1 H1 1_555 1_555
H2 N1 1_555 1_555
C1 S1 1_555 1_555
Cl2 C8 1_555 1_555
O2 S1 1_555 1_555
N2 H3 1_555 1_555
H4 N2 1_555 1_555
C2 C1 1_555 1_555
H5 C2 1_555 1_555
O3 S1 1_555 1_555
N3 H6 1_555 1_555
H7 N3 1_555 1_555
C3 C2 1_555 1_555
H8 C3 1_555 1_555
C4 C3 1_555 1_555
H9 C4 1_555 1_555
C5 C4 1_555 1_555
H10 C5 1_555 1_555
C6 C1 1_555 1_555
H11 C6 1_555 1_555
C7 N1 1_555 1_555
C8 C9 1_555 1_555
C9 C10 1_555 1_555
C10 H12 1_555 1_555
C11 C10 1_555 1_555
H13 C11 1_555 1_555
C12 C11 1_555 1_555
H14 C12 1_555 1_555
C13 C8 1_555 1_555
H15 C13 1_555 1_555
N2 C7 1_555 1_555
N3 C7 1_555 1_555
C5 C6 1_555 1_555
C12 C13 1_555 1_555

#END
