
#######################################################################
#
#                 Cambridge Crystallographic Data Centre
#                                CCDC 
#
#######################################################################
#
# If this CIF has been generated from an entry in the Cambridge 
# Structural Database, then it will include bibliographic, chemical, 
# crystal, experimental, refinement or atomic coordinate data resulting 
# from the CCDC's data processing and validation procedures.
#
#######################################################################

data_MERQUY
_chemical_formula_moiety         'C16 H14 S4'
_chemical_name_systematic        
2,3,4,8,9,10-hexahydrothiopyrano[3,2-b]thiopyrano[2',3':4,5]thieno[2,3-f][1]benzothiophene
_symmetry_cell_setting           monoclinic
_symmetry_space_group_name_H-M   'P 21/n'
_symmetry_Int_Tables_number      14
_space_group_name_Hall           '-P 2yn'
loop_
_symmetry_equiv_pos_site_id
_symmetry_equiv_pos_as_xyz
1 x,y,z
2 1/2-x,1/2+y,1/2-z
3 -x,-y,-z
4 1/2+x,1/2-y,1/2+z
_cell_length_a                   7.25568(14)
_cell_length_b                   13.4167(3)
_cell_length_c                   8.21749(16)
_cell_angle_alpha                90
_cell_angle_beta                 112.0241(12)
_cell_angle_gamma                90
_cell_volume                     741.575
_exptl_crystal_colour            yellow
_exptl_crystal_description       platelet
_cell_formula_units_Z            2
loop_
_atom_site_label
_atom_site_type_symbol
_atom_site_fract_x
_atom_site_fract_y
_atom_site_fract_z
S1 S 0.92294(11) 0.09222(6) 0.61330(10)
S2 S 0.65442(12) 0.11617(6) 0.99710(9)
C1 C 0.7293(5) 0.09486(19) 0.8201(4)
C2 C 0.5909(4) -0.00596(19) 0.3743(3)
H1 H 0.6523 -0.0097 0.2907
C3 C 0.5988(4) 0.04520(18) 0.6623(3)
C4 C 0.6864(4) 0.03838(19) 0.5357(4)
C5 C 0.9040(4) 0.1230(2) 0.8130(4)
C6 C 1.0745(5) 0.1739(2) 0.9556(4)
H2 H 1.0776 0.2452 0.9254
H3 H 1.2015 0.1432 0.9629
C7 C 1.0544(5) 0.1654(2) 1.1318(4)
H4 H 1.0762 0.0952 1.1714
H5 H 1.1590 0.2063 1.2187
C8 C 0.8533(5) 0.1989(2) 1.1271(4)
H6 H 0.8257 0.2670 1.0774
H7 H 0.8563 0.2016 1.2485
S1B S 0.07706(11) -0.09222(6) 0.38670(10)
S2B S 0.34558(12) -0.11617(6) 0.00290(9)
C1B C 0.2707(5) -0.09486(19) 0.1799(4)
C2B C 0.4091(4) 0.00596(19) 0.6257(3)
H1B H 0.3477 0.0097 0.7093
C3B C 0.4012(4) -0.04520(18) 0.3377(3)
C4B C 0.3136(4) -0.03838(19) 0.4643(4)
C5B C 0.0960(4) -0.1230(2) 0.1870(4)
C6B C -0.0745(5) -0.1739(2) 0.0444(4)
H2B H -0.0776 -0.2452 0.0746
H3B H -0.2015 -0.1432 0.0371
C7B C -0.0544(5) -0.1654(2) -0.1318(4)
H4B H -0.0762 -0.0952 -0.1714
H5B H -0.1590 -0.2063 -0.2187
C8B C 0.1467(5) -0.1989(2) -0.1271(4)
H6B H 0.1743 -0.2670 -0.0774
H7B H 0.1437 -0.2016 -0.2485
loop_
_geom_bond_atom_site_label_1
_geom_bond_atom_site_label_2
_geom_bond_site_symmetry_1
_geom_bond_site_symmetry_2
S1 C4 1_555 1_555
S2 C1 1_555 1_555
C1 C3 1_555 1_555
C2 H1 1_555 1_555
C3 C4 1_555 1_555
C4 C2 1_555 1_555
C5 S1 1_555 1_555
C6 C5 1_555 1_555
H2 C6 1_555 1_555
H3 C6 1_555 1_555
C7 C6 1_555 1_555
H4 C7 1_555 1_555
H5 C7 1_555 1_555
C8 S2 1_555 1_555
H6 C8 1_555 1_555
H7 C8 1_555 1_555
S1B C4B 1_555 1_555
S2B C1B 1_555 1_555
C1B C3B 1_555 1_555
C2B C3 1_555 1_555
H1B C2B 1_555 1_555
C3B C2 1_555 1_555
C4B C2B 1_555 1_555
C5B S1B 1_555 1_555
C6B C5B 1_555 1_555
H2B C6B 1_555 1_555
H3B C6B 1_555 1_555
C7B C6B 1_555 1_555
H4B C7B 1_555 1_555
H5B C7B 1_555 1_555
C8B S2B 1_555 1_555
H6B C8B 1_555 1_555
H7B C8B 1_555 1_555
C1 C5 1_555 1_555
C7 C8 1_555 1_555
C1B C5B 1_555 1_555
C3B C4B 1_555 1_555
C7B C8B 1_555 1_555

#END
