
#######################################################################
#
#                 Cambridge Crystallographic Data Centre
#                                CCDC 
#
#######################################################################
#
# If this CIF has been generated from an entry in the Cambridge 
# Structural Database, then it will include bibliographic, chemical, 
# crystal, experimental, refinement or atomic coordinate data resulting 
# from the CCDC's data processing and validation procedures.
#
#######################################################################

data_MERYAM
_chemical_formula_moiety         'C30 H35 Br1 O4'
_chemical_name_systematic        
'3-(4-bromophenyl)-3-(3,5-di-t-butyl-4-hydroxyphenyl)-2-hydroxy-1-(4-methoxyphenyl)propan-1-one unknown solvate'
_symmetry_cell_setting           monoclinic
_symmetry_space_group_name_H-M   'C 2'
_symmetry_Int_Tables_number      5
_space_group_name_Hall           'C 2y'
loop_
_symmetry_equiv_pos_site_id
_symmetry_equiv_pos_as_xyz
1 x,y,z
2 -x,y,-z
3 1/2+x,1/2+y,z
4 1/2-x,1/2+y,-z
_cell_length_a                   38.5894(6)
_cell_length_b                   5.82791(11)
_cell_length_c                   13.70105(19)
_cell_angle_alpha                90
_cell_angle_beta                 91.5902(14)
_cell_angle_gamma                90
_cell_volume                     3080.12
_exptl_crystal_colour            colorless
_exptl_crystal_description       needle
_cell_formula_units_Z            4
loop_
_atom_site_label
_atom_site_type_symbol
_atom_site_fract_x
_atom_site_fract_y
_atom_site_fract_z
Br1 Br 0.26875(2) 1.31744(10) 0.07342(2)
C1 C 0.27751(7) 0.8019(9) 0.2791(3)
H1 H 0.2665 0.6630 0.2906
C2 C 0.26670(9) 0.9327(8) 0.1998(3)
H2 H 0.2488 0.8820 0.1584
C3 C 0.28262(8) 1.1369(7) 0.1833(2)
C4 C 0.30876(10) 1.2140(7) 0.2444(3)
H3 H 0.3194 1.3544 0.2329
C5 C 0.31927(9) 1.0811(7) 0.3237(3)
H4 H 0.3369 1.1348 0.3655
C6 C 0.30433(6) 0.8713(5) 0.3422(2)
C7 C 0.31658(6) 0.7203(6) 0.4269(2)
H5 H 0.3111 0.5618 0.4083
C8 C 0.29647(6) 0.7714(6) 0.5200(2)
H6 H 0.2999 0.9308 0.5410
C9 C 0.30764(8) 0.6033(7) 0.6013(3)
C10 C 0.31539(8) 0.6888(6) 0.7013(3)
C11 C 0.30597(10) 0.9066(8) 0.7338(3)
H7 H 0.2949 1.0078 0.6908
C12 C 0.31283(13) 0.9735(9) 0.8287(4)
H8 H 0.3060 1.1184 0.8491
C13 C 0.32943(11) 0.8317(11) 0.8928(3)
C14 C 0.33933(13) 0.6157(10) 0.8629(4)
H9 H 0.3507 0.5175 0.9066
C15 C 0.33226(11) 0.5443(8) 0.7666(3)
H10 H 0.3390 0.3987 0.7466
C16 C 0.35023(18) 0.7731(17) 1.0561(4)
H11 H 0.3723 0.7209 1.0344
H12 H 0.3354 0.6434 1.0665
H13 H 0.3534 0.8566 1.1161
C17 C 0.35587(6) 0.7324(5) 0.4421(2)
C18 C 0.37645(7) 0.6249(6) 0.3741(2)
H14 H 0.3656 0.5466 0.3226
C19 C 0.41226(7) 0.6290(6) 0.3796(2)
C20 C 0.42763(6) 0.7430(6) 0.4598(2)
C21 C 0.40825(7) 0.8531(6) 0.5311(2)
C22 C 0.37213(6) 0.8469(6) 0.5186(2)
H15 H 0.3586 0.9229 0.5635
C23 C 0.43364(8) 0.5177(7) 0.2981(3)
C24 C 0.41037(11) 0.3934(10) 0.2228(3)
H16 H 0.3983 0.2709 0.2542
H17 H 0.4243 0.3316 0.1722
H18 H 0.3939 0.4997 0.1949
C25 C 0.45342(13) 0.7077(10) 0.2453(3)
H19 H 0.4372 0.8162 0.2177
H20 H 0.4667 0.6412 0.1943
H21 H 0.4687 0.7846 0.2911
C26 C 0.45914(11) 0.3368(10) 0.3382(3)
H22 H 0.4752 0.4076 0.3837
H23 H 0.4716 0.2712 0.2853
H24 H 0.4466 0.2183 0.3707
C27 C 0.42482(8) 0.9723(7) 0.6214(2)
C28 C 0.45130(12) 1.1553(10) 0.5948(4)
H25 H 0.4699 1.0850 0.5605
H26 H 0.4603 1.2268 0.6532
H27 H 0.4403 1.2689 0.5537
C29 C 0.44251(15) 0.7896(13) 0.6872(3)
H28 H 0.4251 0.6974 0.7172
H29 H 0.4565 0.8640 0.7370
H30 H 0.4569 0.6936 0.6484
C30 C 0.39803(11) 1.0935(11) 0.6817(4)
H31 H 0.3860 1.2055 0.6420
H32 H 0.4094 1.1685 0.7362
H33 H 0.3817 0.9834 0.7051
O1 O 0.26047(5) 0.7223(6) 0.5027(2)
H34 H 0.2495 0.8428 0.4997
O2 O 0.30900(9) 0.4019(5) 0.5820(2)
O3 O 0.33499(12) 0.9165(8) 0.9849(3)
O4 O 0.46347(5) 0.7424(5) 0.46670(19)
H35 H 0.4762 0.6934 0.5165
loop_
_geom_bond_atom_site_label_1
_geom_bond_atom_site_label_2
_geom_bond_site_symmetry_1
_geom_bond_site_symmetry_2
Br1 C3 1_555 1_555
C1 H1 1_555 1_555
C2 C1 1_555 1_555
H2 C2 1_555 1_555
C3 C2 1_555 1_555
C4 C3 1_555 1_555
H3 C4 1_555 1_555
C5 C4 1_555 1_555
H4 C5 1_555 1_555
C6 C1 1_555 1_555
C7 C6 1_555 1_555
H5 C7 1_555 1_555
C8 C7 1_555 1_555
H6 C8 1_555 1_555
C9 C8 1_555 1_555
C10 C9 1_555 1_555
C11 C10 1_555 1_555
H7 C11 1_555 1_555
C12 C11 1_555 1_555
H8 C12 1_555 1_555
C13 C12 1_555 1_555
C14 C13 1_555 1_555
H9 C14 1_555 1_555
C15 C10 1_555 1_555
H10 C15 1_555 1_555
C16 H11 1_555 1_555
H12 C16 1_555 1_555
H13 C16 1_555 1_555
C17 C7 1_555 1_555
C18 C17 1_555 1_555
H14 C18 1_555 1_555
C19 C18 1_555 1_555
C20 C19 1_555 1_555
C21 C20 1_555 1_555
C22 C17 1_555 1_555
H15 C22 1_555 1_555
C23 C19 1_555 1_555
C24 C23 1_555 1_555
H16 C24 1_555 1_555
H17 C24 1_555 1_555
H18 C24 1_555 1_555
C25 C23 1_555 1_555
H19 C25 1_555 1_555
H20 C25 1_555 1_555
H21 C25 1_555 1_555
C26 C23 1_555 1_555
H22 C26 1_555 1_555
H23 C26 1_555 1_555
H24 C26 1_555 1_555
C27 C21 1_555 1_555
C28 C27 1_555 1_555
H25 C28 1_555 1_555
H26 C28 1_555 1_555
H27 C28 1_555 1_555
C29 C27 1_555 1_555
H28 C29 1_555 1_555
H29 C29 1_555 1_555
H30 C29 1_555 1_555
C30 C27 1_555 1_555
H31 C30 1_555 1_555
H32 C30 1_555 1_555
H33 C30 1_555 1_555
O1 C8 1_555 1_555
H34 O1 1_555 1_555
O2 C9 1_555 1_555
O3 C13 1_555 1_555
O4 C20 1_555 1_555
H35 O4 1_555 1_555
C5 C6 1_555 1_555
C14 C15 1_555 1_555
C16 O3 1_555 1_555
C21 C22 1_555 1_555

#END
