
#######################################################################
#
#                 Cambridge Crystallographic Data Centre
#                                CCDC 
#
#######################################################################
#
# If this CIF has been generated from an entry in the Cambridge 
# Structural Database, then it will include bibliographic, chemical, 
# crystal, experimental, refinement or atomic coordinate data resulting 
# from the CCDC's data processing and validation procedures.
#
#######################################################################

data_METPRA01
_chemical_name_common            Metoclopramide
_chemical_formula_moiety         'C14 H22 Cl1 N3 O2'
_chemical_name_systematic        
N-(Diethylaminoethyl)-2-methoxy-4-amino-5-chlorobenzamide
_chemical_properties_biological  'antiemetic agent'
_symmetry_cell_setting           triclinic
_symmetry_space_group_name_H-M   'P -1'
_symmetry_Int_Tables_number      2
_space_group_name_Hall           '-P 1'
loop_
_symmetry_equiv_pos_site_id
_symmetry_equiv_pos_as_xyz
1 x,y,z
2 -x,-y,-z
_cell_length_a                   7.500(1)
_cell_length_b                   8.707(2)
_cell_length_c                   13.292(2)
_cell_angle_alpha                101.70(2)
_cell_angle_beta                 81.20(2)
_cell_angle_gamma                114.90(1)
_cell_volume                     768.72
_cell_formula_units_Z            2
loop_
_atom_site_label
_atom_site_type_symbol
_atom_site_fract_x
_atom_site_fract_y
_atom_site_fract_z
Cl1 Cl 0.31880 0.02830 0.30660
O1 O 0.21050 -0.08950 -0.13310
O2 O 0.26180 0.37220 0.04970
N1 N 0.27730 -0.29230 0.16290
N2 N 0.24890 0.23460 -0.11140
N3 N 0.39990 0.29870 -0.33060
C1 C 0.25210 0.09250 0.02740
C2 C 0.23630 -0.06510 -0.03220
C3 C 0.24380 -0.19120 0.01510
C4 C 0.27330 -0.16600 0.11810
C5 C 0.28520 -0.01090 0.17610
C6 C 0.27640 0.11470 0.13060
C7 C 0.17370 -0.25460 -0.19240
C8 C 0.25440 0.24420 -0.01180
C9 C 0.25800 0.37790 -0.15590
C10 C 0.23130 0.32310 -0.27020
C11 C 0.55060 0.46220 -0.35060
C12 C 0.74550 0.46040 -0.39730
C13 C 0.33680 0.18360 -0.42680
C14 C 0.22390 0.00000 -0.41130
H1 H 0.27300 -0.37000 0.14500
H2 H 0.38400 -0.25100 0.20500
H3 H 0.25600 0.15500 -0.15600
H4 H 0.22000 -0.29200 -0.00700
H5 H 0.04100 -0.35100 -0.15500
H6 H 0.12100 -0.25800 -0.26200
H7 H 0.29400 -0.27400 -0.19800
H8 H 0.40400 0.49300 -0.14800
H9 H 0.15600 0.40900 -0.13800
H10 H 0.20000 0.40700 -0.30000
H11 H 0.10000 0.21400 -0.28500
H12 H 0.54500 0.53500 -0.29400
H13 H 0.49000 0.51300 -0.38100
H14 H 0.81300 0.41900 -0.35800
H15 H 0.71400 0.41500 -0.45900
H16 H 0.84700 0.58400 -0.40400
H17 H 0.26800 0.21800 -0.46000
H18 H 0.45700 0.19300 -0.47200
H19 H 0.18800 -0.07500 -0.46500
H20 H 0.31300 -0.02200 -0.38100
H21 H 0.08100 -0.02300 -0.37800
loop_
_geom_bond_atom_site_label_1
_geom_bond_atom_site_label_2
_geom_bond_site_symmetry_1
_geom_bond_site_symmetry_2
Cl1 C5 1_555 1_555
O1 C2 1_555 1_555
O2 C8 1_555 1_555
N1 C4 1_555 1_555
N2 C8 1_555 1_555
N3 C10 1_555 1_555
C1 C2 1_555 1_555
C2 C3 1_555 1_555
C3 C4 1_555 1_555
C4 C5 1_555 1_555
C5 C6 1_555 1_555
C6 C1 1_555 1_555
C7 O1 1_555 1_555
C8 C1 1_555 1_555
C9 N2 1_555 1_555
C10 C9 1_555 1_555
C11 N3 1_555 1_555
C12 C11 1_555 1_555
C13 N3 1_555 1_555
C14 C13 1_555 1_555
H1 N1 1_555 1_555
H2 N1 1_555 1_555
H3 N2 1_555 1_555
H4 C3 1_555 1_555
H5 C7 1_555 1_555
H6 C7 1_555 1_555
H7 C7 1_555 1_555
H8 C9 1_555 1_555
H9 C9 1_555 1_555
H10 C10 1_555 1_555
H11 C10 1_555 1_555
H12 C11 1_555 1_555
H13 C11 1_555 1_555
H14 C12 1_555 1_555
H15 C12 1_555 1_555
H16 C12 1_555 1_555
H17 C13 1_555 1_555
H18 C13 1_555 1_555
H19 C14 1_555 1_555
H20 C14 1_555 1_555
H21 C14 1_555 1_555

#END
