
#######################################################################
#
#                 Cambridge Crystallographic Data Centre
#                                CCDC 
#
#######################################################################
#
# If this CIF has been generated from an entry in the Cambridge 
# Structural Database, then it will include bibliographic, chemical, 
# crystal, experimental, refinement or atomic coordinate data resulting 
# from the CCDC's data processing and validation procedures.
#
#######################################################################

data_METXIT
_chemical_formula_moiety         'C19 H18 O4 S1'
_chemical_name_systematic        
(Z)-1,4-bis(4-Methoxyphenyl)-2-(methylsulfanyl)but-2-ene-1,4-dione
_symmetry_cell_setting           monoclinic
_symmetry_space_group_name_H-M   'P 21/n'
_symmetry_Int_Tables_number      14
_space_group_name_Hall           '-P 2yn'
loop_
_symmetry_equiv_pos_site_id
_symmetry_equiv_pos_as_xyz
1 x,y,z
2 1/2-x,1/2+y,1/2-z
3 -x,-y,-z
4 1/2+x,1/2-y,1/2+z
_cell_length_a                   5.6728(6)
_cell_length_b                   17.9498(18)
_cell_length_c                   16.6998(16)
_cell_angle_alpha                90
_cell_angle_beta                 92.225(2)
_cell_angle_gamma                90
_cell_volume                     1699.19
_exptl_crystal_colour            yellow
_exptl_crystal_description       Block
_cell_formula_units_Z            4
_exptl_crystal_recrystallization_method dichloromethane/methanol
loop_
_atom_site_label
_atom_site_type_symbol
_atom_site_fract_x
_atom_site_fract_y
_atom_site_fract_z
C1 C 0.7500(5) 0.62879(15) 0.69234(19)
H1 H 0.6163 0.6063 0.6649
H2 H 0.7250 0.6815 0.6964
H3 H 0.7693 0.6079 0.7451
C2 C 1.0059(3) 0.54331(10) 0.62910(11)
C3 C 0.8713(3) 0.48232(11) 0.64917(12)
H4 H 0.7381 0.4884 0.6793
C4 C 0.9370(3) 0.41203(10) 0.62403(11)
H5 H 0.8449 0.3711 0.6366
C5 C 1.1370(3) 0.40155(9) 0.58049(10)
C6 C 1.2707(3) 0.46372(10) 0.56198(12)
H6 H 1.4067 0.4577 0.5333
C7 C 1.2057(4) 0.53367(10) 0.58521(12)
H7 H 1.2958 0.5747 0.5715
C8 C 1.2144(3) 0.32807(10) 0.55216(12)
C9 C 1.0712(3) 0.26028(9) 0.57311(12)
C10 C 1.3913(4) 0.26969(13) 0.70257(15)
H8 H 1.5199 0.2637 0.6674
H9 H 1.4376 0.2520 0.7551
H10 H 1.3498 0.3214 0.7055
C11 C 0.8998(3) 0.23800(10) 0.52107(12)
H11 H 0.8749 0.2649 0.4739
C12 C 0.7502(3) 0.17332(10) 0.53508(11)
C13 C 0.5686(3) 0.14946(9) 0.47375(11)
C14 C 0.4114(4) 0.09433(11) 0.49416(12)
H12 H 0.4218 0.0743 0.5456
C15 C 0.2394(4) 0.06805(12) 0.44040(13)
H13 H 0.1362 0.0308 0.4556
C16 C 0.2218(3) 0.09721(10) 0.36443(11)
C17 C 0.3763(4) 0.15284(12) 0.34292(12)
H14 H 0.3648 0.1728 0.2915
C18 C 0.5461(4) 0.17875(11) 0.39672(12)
H15 H 0.6476 0.2164 0.3814
C19 C -0.1037(4) 0.01833(13) 0.32611(15)
H16 H -0.0189 -0.0258 0.3424
H17 H -0.2039 0.0074 0.2800
H18 H -0.1981 0.0350 0.3691
O1 O 0.9563(3) 0.61501(8) 0.64884(10)
O2 O 1.3890(3) 0.32057(8) 0.51300(11)
O3 O 0.7743(3) 0.13912(8) 0.59850(9)
O4 O 0.0600(3) 0.07541(8) 0.30660(9)
S1 S 1.14005(10) 0.21697(3) 0.66438(3)
loop_
_geom_bond_atom_site_label_1
_geom_bond_atom_site_label_2
_geom_bond_site_symmetry_1
_geom_bond_site_symmetry_2
C1 H1 1_555 1_555
H2 C1 1_555 1_555
H3 C1 1_555 1_555
C2 C3 1_555 1_555
C3 H4 1_555 1_555
C4 C3 1_555 1_555
H5 C4 1_555 1_555
C5 C4 1_555 1_555
C6 C5 1_555 1_555
H6 C6 1_555 1_555
C7 C2 1_555 1_555
H7 C7 1_555 1_555
C8 C5 1_555 1_555
C9 C8 1_555 1_555
C10 H8 1_555 1_555
H9 C10 1_555 1_555
H10 C10 1_555 1_555
C11 C9 1_555 1_555
H11 C11 1_555 1_555
C12 C11 1_555 1_555
C13 C12 1_555 1_555
C14 C13 1_555 1_555
H12 C14 1_555 1_555
C15 C14 1_555 1_555
H13 C15 1_555 1_555
C16 C15 1_555 1_555
C17 C16 1_555 1_555
H14 C17 1_555 1_555
C18 C13 1_555 1_555
H15 C18 1_555 1_555
C19 H16 1_555 1_555
H17 C19 1_555 1_555
H18 C19 1_555 1_555
O1 C1 1_555 1_555
O2 C8 1_555 1_555
O3 C12 1_555 1_555
O4 C16 1_555 1_555
S1 C9 1_555 1_555
C2 O1 1_555 1_555
C6 C7 1_555 1_555
C10 S1 1_555 1_555
C17 C18 1_555 1_555
C19 O4 1_555 1_555

#END
