
#######################################################################
#
#                 Cambridge Crystallographic Data Centre
#                                CCDC 
#
#######################################################################
#
# If this CIF has been generated from an entry in the Cambridge 
# Structural Database, then it will include bibliographic, chemical, 
# crystal, experimental, refinement or atomic coordinate data resulting 
# from the CCDC's data processing and validation procedures.
#
#######################################################################

data_MEVMEF
_chemical_formula_moiety         'C12 H12 N2 S2'
_chemical_name_systematic        
5-Methyl-2-(2,3-diaza-4-(5-methyl-2-thienyl)buta-1,3-dienyl)thiophene
_symmetry_cell_setting           monoclinic
_symmetry_space_group_name_H-M   'P 21/c'
_symmetry_Int_Tables_number      14
_space_group_name_Hall           '-P 2ybc'
loop_
_symmetry_equiv_pos_site_id
_symmetry_equiv_pos_as_xyz
1 x,y,z
2 x,1/2-y,1/2+z
3 -x,-y,-z
4 -x,1/2+y,1/2-z
_cell_length_a                   11.932(2)
_cell_length_b                   10.638(1)
_cell_length_c                   10.349(1)
_cell_angle_alpha                90
_cell_angle_beta                 108.501(9)
_cell_angle_gamma                90
_cell_volume                     1245.73
_exptl_crystal_colour            yellow
_exptl_crystal_description       prism
_chemical_melting_point          411-412K
_cell_formula_units_Z            4
_exptl_crystal_recrystallization_method acetonitrile
loop_
_atom_site_label
_atom_site_type_symbol
_atom_site_fract_x
_atom_site_fract_y
_atom_site_fract_z
S1 S 0.60315(7) 0.08065(7) 0.92628(8)
S2 S 1.10914(7) -0.35665(7) 0.99179(7)
N1 N 0.8134(2) -0.0887(2) 0.9562(2)
N2 N 0.9104(2) -0.1676(2) 0.9656(2)
C1 C 0.7970(2) -0.0066(3) 0.8630(3)
C2 C 0.7016(2) 0.0823(3) 0.8350(3)
C3 C 0.6755(3) 0.1773(3) 0.7436(3)
C4 C 0.5776(3) 0.2492(3) 0.7468(3)
C5 C 0.5284(2) 0.2089(3) 0.8400(3)
C6 C 0.4246(3) 0.2631(3) 0.8731(3)
C7 C 0.9413(2) -0.2317(3) 1.0759(3)
C8 C 1.0357(2) -0.3217(3) 1.1070(3)
C9 C 1.0798(2) -0.3903(3) 1.2226(3)
C10 C 1.1718(3) -0.4711(3) 1.2195(3)
C11 C 1.1983(2) -0.4638(3) 1.1014(3)
C12 C 1.2907(3) -0.5344(3) 1.0599(3)
H1 H 0.8492 -0.0039 0.8103
H2 H 0.7192 0.1940 0.6831
H3 H 0.5489 0.3193 0.6890
H4 H 0.4415 0.3474 0.9035
H5 H 0.3570 0.2618 0.7939
H6 H 0.4094 0.2146 0.9428
H7 H 0.9001 -0.2192 1.1398
H8 H 1.0511 -0.3843 1.2982
H9 H 1.2115 -0.5254 1.2926
H10 H 1.2757 -0.6221 1.0602
H11 H 1.2881 -0.5091 0.9710
H12 H 1.3667 -0.5167 1.1223
loop_
_geom_bond_atom_site_label_1
_geom_bond_atom_site_label_2
_geom_bond_site_symmetry_1
_geom_bond_site_symmetry_2
S1 C2 1_555 1_555
S2 C8 1_555 1_555
N1 N2 1_555 1_555
N2 C7 1_555 1_555
C1 N1 1_555 1_555
C2 C1 1_555 1_555
C3 C2 1_555 1_555
C4 C3 1_555 1_555
C5 S1 1_555 1_555
C6 C5 1_555 1_555
C7 C8 1_555 1_555
C8 C9 1_555 1_555
C9 C10 1_555 1_555
C10 C11 1_555 1_555
C11 S2 1_555 1_555
C12 C11 1_555 1_555
H1 C1 1_555 1_555
H2 C3 1_555 1_555
H3 C4 1_555 1_555
H4 C6 1_555 1_555
H5 C6 1_555 1_555
H6 C6 1_555 1_555
H7 C7 1_555 1_555
H8 C9 1_555 1_555
H9 C10 1_555 1_555
H10 C12 1_555 1_555
H11 C12 1_555 1_555
H12 C12 1_555 1_555
C4 C5 1_555 1_555

#END
