
#######################################################################
#
#                 Cambridge Crystallographic Data Centre
#                                CCDC 
#
#######################################################################
#
# If this CIF has been generated from an entry in the Cambridge 
# Structural Database, then it will include bibliographic, chemical, 
# crystal, experimental, refinement or atomic coordinate data resulting 
# from the CCDC's data processing and validation procedures.
#
#######################################################################

data_MEWHUT
_chemical_formula_moiety         'C13 H14 Cl1 N1 O1'
_chemical_name_systematic        
5-(3-Chlorophenyl)-N-hydroxy-3-methylcyclohex-2-en-1-imine
_symmetry_cell_setting           tetragonal
_symmetry_space_group_name_H-M   'I 41/a'
_symmetry_Int_Tables_number      88
_space_group_name_Hall           '-I 4ad'
loop_
_symmetry_equiv_pos_site_id
_symmetry_equiv_pos_as_xyz
1 x,y,z
2 1/2-x,-y,1/2+z
3 3/4-y,1/4+x,1/4+z
4 3/4+y,3/4-x,3/4+z
5 1/2+x,1/2+y,1/2+z
6 -x,1/2-y,z
7 1/4-y,3/4+x,3/4+z
8 1/4+y,1/4-x,1/4+z
9 -x,-y,-z
10 1/2+x,y,1/2-z
11 1/4+y,3/4-x,3/4-z
12 1/4-y,1/4+x,1/4-z
13 1/2-x,1/2-y,1/2-z
14 x,1/2+y,-z
15 3/4+y,1/4-x,1/4-z
16 3/4-y,3/4+x,3/4-z
_cell_length_a                   19.7898(8)
_cell_length_b                   19.7898(8)
_cell_length_c                   12.4416(11)
_cell_angle_alpha                90
_cell_angle_beta                 90
_cell_angle_gamma                90
_cell_volume                     4872.58
_exptl_crystal_colour            white
_exptl_crystal_description       Block
_cell_formula_units_Z            16
loop_
_atom_site_label
_atom_site_type_symbol
_atom_site_fract_x
_atom_site_fract_y
_atom_site_fract_z
O1 O 0.5714(9) 0.6964(10) 0.5126(13)
H1 H 0.5873 0.7176 0.5632
N1 N 0.5172(8) 0.6572(8) 0.5484(11)
C1 C 0.5202(8) 0.6216(9) 0.3560(9)
H2 H 0.5687 0.6283 0.3589
H3 H 0.5010 0.6582 0.3141
C2 C 0.4922(8) 0.6246(8) 0.4677(7)
C3 C 0.4336(8) 0.5833(7) 0.4904(12)
H4 H 0.4135 0.5871 0.5577
C4 C 0.4070(6) 0.5404(6) 0.4205(13)
C5 C 0.4409(10) 0.5208(11) 0.3142(15)
H5 H 0.4480 0.4723 0.3128
H6 H 0.4111 0.5323 0.2550
C6 C 0.5054(4) 0.5550(4) 0.2999(5)
H7 H 0.5377 0.5238 0.3331
C7 C 0.34307(17) 0.49939(17) 0.4407(3)
H8 H 0.3338 0.4715 0.3793
H9 H 0.3058 0.5295 0.4527
H10 H 0.3494 0.4713 0.5028
C8 C 0.52861(17) 0.55769(17) 0.1822(3)
C9 C 0.58200(17) 0.51926(17) 0.1431(3)
H11 H 0.6054 0.4904 0.1888
C10 C 0.60045(17) 0.52400(17) 0.0355(3)
C11 C 0.56550(17) 0.56717(17) -0.0328(3)
H12 H 0.5778 0.5703 -0.1048
C12 C 0.51211(17) 0.60561(17) 0.0063(3)
H13 H 0.4887 0.6345 -0.0395
C13 C 0.49367(17) 0.60087(17) 0.1138(3)
H14 H 0.4580 0.6266 0.1400
Cl1 Cl 0.6641(5) 0.4726(6) -0.0028(7)
O2? O 0.5722(9) 0.6919(14) 0.5195(19)
H15? H 0.5786 0.7190 0.5682
N2? N 0.5138(8) 0.6543(11) 0.5411(14)
C14? C 0.5283(9) 0.6052(12) 0.3642(11)
H16? H 0.5638 0.5713 0.3650
H17? H 0.5491 0.6484 0.3485
C15? C 0.4964(11) 0.6083(10) 0.4731(9)
C16? C 0.4381(9) 0.5666(9) 0.4972(14)
H18? H 0.4183 0.5704 0.5647
C17? C 0.4117(7) 0.5234(8) 0.4276(16)
C18? C 0.4337(12) 0.5340(13) 0.3107(17)
H19? H 0.4548 0.4921 0.2880
H20? H 0.3926 0.5384 0.2689
C19? C 0.4783(3) 0.5882(4) 0.2756(5)
H21? H 0.4491 0.6280 0.2699
C20? C 0.3566(2) 0.4738(2) 0.4612(4)
H22? H 0.3422 0.4482 0.3997
H23? H 0.3188 0.4983 0.4900
H24? H 0.3740 0.4437 0.5149
C21? C 0.5110(2) 0.5810(2) 0.1653(4)
C22? C 0.5606(2) 0.5320(2) 0.1517(4)
H25? H 0.5722 0.5039 0.2086
C23? C 0.5928(2) 0.5251(2) 0.0530(4)
C24? C 0.5754(2) 0.5671(2) -0.0321(4)
H26? H 0.5969 0.5625 -0.0981
C25? C 0.5258(2) 0.6161(2) -0.0185(4)
H27? H 0.5141 0.6443 -0.0755
C26? C 0.4936(2) 0.6231(2) 0.0802(4)
H28? H 0.4604 0.6558 0.0892
Cl2? Cl 0.6585(5) 0.4711(6) 0.0291(8)
loop_
_geom_bond_atom_site_label_1
_geom_bond_atom_site_label_2
_geom_bond_site_symmetry_1
_geom_bond_site_symmetry_2
O1 H1 1_555 1_555
N1 O1 1_555 1_555
C1 H2 1_555 1_555
H3 C1 1_555 1_555
C2 N1 1_555 1_555
C3 C2 1_555 1_555
H4 C3 1_555 1_555
C4 C3 1_555 1_555
C5 C4 1_555 1_555
H5 C5 1_555 1_555
H6 C5 1_555 1_555
C6 C1 1_555 1_555
H7 C6 1_555 1_555
C7 C4 1_555 1_555
H8 C7 1_555 1_555
H9 C7 1_555 1_555
H10 C7 1_555 1_555
C8 C6 1_555 1_555
C9 C8 1_555 1_555
H11 C9 1_555 1_555
C10 C9 1_555 1_555
C11 C10 1_555 1_555
H12 C11 1_555 1_555
C12 C11 1_555 1_555
H13 C12 1_555 1_555
C13 C8 1_555 1_555
H14 C13 1_555 1_555
Cl1 C10 1_555 1_555
C1 C2 1_555 1_555
C5 C6 1_555 1_555
C12 C13 1_555 1_555

#END
