
#######################################################################
#
#                 Cambridge Crystallographic Data Centre
#                                CCDC 
#
#######################################################################
#
# If this CIF has been generated from an entry in the Cambridge 
# Structural Database, then it will include bibliographic, chemical, 
# crystal, experimental, refinement or atomic coordinate data resulting 
# from the CCDC's data processing and validation procedures.
#
#######################################################################

data_MEWHEE
_chemical_formula_moiety         'C16 H17 N1 O2'
_chemical_name_systematic        
"methyl 4'-amino-3',5'-dimethyl[1,1'-biphenyl]-4-carboxylate"
_symmetry_cell_setting           orthorhombic
_symmetry_space_group_name_H-M   'P 21 21 21'
_symmetry_Int_Tables_number      19
_space_group_name_Hall           'P 2ac 2ab'
loop_
_symmetry_equiv_pos_site_id
_symmetry_equiv_pos_as_xyz
1 x,y,z
2 1/2-x,-y,1/2+z
3 -x,1/2+y,1/2-z
4 1/2+x,1/2-y,-z
_cell_length_a                   6.3761(2)
_cell_length_b                   12.0521(4)
_cell_length_c                   17.3288(5)
_cell_angle_alpha                90
_cell_angle_beta                 90
_cell_angle_gamma                90
_cell_volume                     1331.64
_exptl_crystal_colour            white
_exptl_crystal_description       block
_cell_formula_units_Z            4
loop_
_atom_site_label
_atom_site_type_symbol
_atom_site_fract_x
_atom_site_fract_y
_atom_site_fract_z
O1 O -0.0797(2) -0.01015(13) -0.10231(7)
O2 O -0.3748(2) -0.01044(15) -0.03251(9)
C1 C 0.2205(3) 0.21392(16) 0.28138(11)
H1 H 0.1010 0.1723 0.2919
C2 C 0.5052(3) 0.32717(16) 0.32712(10)
C3 C -0.0620(3) 0.06490(17) 0.02223(10)
C4 C -0.1904(3) 0.01148(17) -0.03871(11)
C5 C 0.1671(3) 0.16990(16) 0.14115(10)
C6 C 0.1455(3) 0.09717(18) 0.01065(10)
H2 H 0.2096 0.0838 -0.0367
C7 C -0.1544(3) 0.08566(18) 0.09357(11)
H3 H -0.2926 0.0645 0.1023
C8 C 0.2866(3) 0.22263(15) 0.20517(10)
C9 C 0.2570(3) 0.14897(18) 0.06889(10)
H4 H 0.3950 0.1704 0.0598
N1 N 0.6156(3) 0.37525(17) 0.38730(10)
C10 C 0.4705(3) 0.28263(16) 0.19202(10)
H5 H 0.5217 0.2879 0.1419
C11 C 0.5800(3) 0.33479(15) 0.25138(11)
C12 C -0.0423(3) 0.13758(18) 0.15166(11)
H6 H -0.1073 0.1513 0.1987
C13 C -0.1975(4) -0.05720(19) -0.16556(11)
H7 H -0.3055 -0.0063 -0.1810
H8 H -0.2601 -0.1258 -0.1494
H9 H -0.1053 -0.0707 -0.2083
C14 C 0.3237(3) 0.26408(17) 0.34238(11)
C15 C 0.7758(3) 0.40006(18) 0.23400(12)
H10 H 0.8878 0.3748 0.2666
H11 H 0.7504 0.4774 0.2434
H12 H 0.8140 0.3896 0.1809
C16 C 0.2467(4) 0.2485(2) 0.42396(12)
H13 H 0.1360 0.1945 0.4245
H14 H 0.1949 0.3178 0.4435
H15 H 0.3602 0.2231 0.4558
H16 H 0.545(5) 0.389(3) 0.4359(16)
H17 H 0.717(5) 0.426(2) 0.3745(13)
loop_
_geom_bond_atom_site_label_1
_geom_bond_atom_site_label_2
_geom_bond_site_symmetry_1
_geom_bond_site_symmetry_2
O1 C4 1_555 1_555
O2 C4 1_555 1_555
C1 H1 1_555 1_555
C2 N1 1_555 1_555
C3 C4 1_555 1_555
C5 C8 1_555 1_555
C6 C3 1_555 1_555
H2 C6 1_555 1_555
C7 C3 1_555 1_555
H3 C7 1_555 1_555
C8 C1 1_555 1_555
C9 C5 1_555 1_555
H4 C9 1_555 1_555
N1 H16 1_555 1_555
C10 C8 1_555 1_555
H5 C10 1_555 1_555
C11 C2 1_555 1_555
C12 C5 1_555 1_555
H6 C12 1_555 1_555
C13 O1 1_555 1_555
H7 C13 1_555 1_555
H8 C13 1_555 1_555
H9 C13 1_555 1_555
C14 C1 1_555 1_555
C15 C11 1_555 1_555
H10 C15 1_555 1_555
H11 C15 1_555 1_555
H12 C15 1_555 1_555
C16 C14 1_555 1_555
H13 C16 1_555 1_555
H14 C16 1_555 1_555
H15 C16 1_555 1_555
H17 N1 1_555 1_555
C2 C14 1_555 1_555
C6 C9 1_555 1_555
C7 C12 1_555 1_555
C10 C11 1_555 1_555

#END
