
#######################################################################
#
#                 Cambridge Crystallographic Data Centre
#                                CCDC 
#
#######################################################################
#
# If this CIF has been generated from an entry in the Cambridge 
# Structural Database, then it will include bibliographic, chemical, 
# crystal, experimental, refinement or atomic coordinate data resulting 
# from the CCDC's data processing and validation procedures.
#
#######################################################################

data_MEWJAB
_chemical_formula_moiety         'C21 H28 O5'
_chemical_name_systematic        
1\b,15\a-Dihydroxy-16\a,17-epoxypregn-4-ene-3,20-dione
_symmetry_cell_setting           orthorhombic
_symmetry_space_group_name_H-M   'P 21 21 21'
_symmetry_Int_Tables_number      19
_space_group_name_Hall           'P 2ac 2ab'
loop_
_symmetry_equiv_pos_site_id
_symmetry_equiv_pos_as_xyz
1 x,y,z
2 1/2-x,-y,1/2+z
3 -x,1/2+y,1/2-z
4 1/2+x,1/2-y,-z
_cell_length_a                   7.6372(10)
_cell_length_b                   13.7067(16)
_cell_length_c                   17.083(2)
_cell_angle_alpha                90
_cell_angle_beta                 90
_cell_angle_gamma                90
_cell_volume                     1788.26
_exptl_crystal_colour            colorless
_exptl_crystal_description       Prism
_cell_formula_units_Z            4
loop_
_atom_site_label
_atom_site_type_symbol
_atom_site_fract_x
_atom_site_fract_y
_atom_site_fract_z
O1 O 0.49950(15) 0.92527(9) 0.12185(7)
H1 H 0.551(3) 0.9592(16) 0.0847(13)
O2 O 0.03424(16) 1.15599(9) 0.13838(7)
O3 O -0.19159(16) 0.52524(9) 0.08958(7)
H2 H -0.255(3) 0.4733(15) 0.0906(13)
O4 O 0.12518(14) 0.44448(8) 0.00189(6)
O5 O 0.54475(15) 0.38806(9) 0.07485(7)
C1 C 0.3139(2) 0.94276(12) 0.11529(10)
H3 H 0.2810 0.9395 0.0587
C2 C 0.2779(2) 1.04568(12) 0.14471(11)
H4 H 0.3232 1.0520 0.1988
H5 H 0.3420 1.0928 0.1114
C3 C 0.0870(2) 1.07134(13) 0.14422(9)
C4 C -0.0321(2) 0.98930(13) 0.15609(9)
H6 H -0.1544 1.0019 0.1549
C5 C 0.0208(2) 0.89693(12) 0.16862(9)
C6 C -0.1108(2) 0.82234(12) 0.19573(10)
H7 H -0.2299 0.8501 0.1903
H8 H -0.0909 0.8088 0.2520
C7 C -0.1019(2) 0.72628(12) 0.15031(10)
H9 H -0.1793 0.6776 0.1755
H10 H -0.1440 0.7368 0.0962
C8 C 0.0854(2) 0.68738(12) 0.14825(9)
H11 H 0.1243 0.6739 0.2031
C9 C 0.2095(2) 0.76441(12) 0.11175(9)
H12 H 0.1575 0.7811 0.0597
C10 C 0.2117(2) 0.86252(12) 0.15956(9)
C11 C 0.3945(2) 0.72402(12) 0.09401(10)
H13 H 0.4567 0.7714 0.0603
H14 H 0.4601 0.7192 0.1438
C12 C 0.3979(2) 0.62358(12) 0.05362(9)
H15 H 0.3527 0.6297 -0.0005
H16 H 0.5199 0.5994 0.0508
C13 C 0.2860(2) 0.55152(12) 0.09924(9)
C14 C 0.0983(2) 0.59318(11) 0.10095(9)
H17 H 0.0705 0.6116 0.0457
C15 C -0.0208(2) 0.50721(12) 0.12027(10)
H18 H -0.0263 0.4967 0.1781
C16 C 0.0699(2) 0.42251(12) 0.08075(9)
H19 H 0.0394 0.3540 0.0956
C17 C 0.2552(2) 0.44928(12) 0.06428(9)
C18 C 0.3623(2) 0.53329(13) 0.18182(9)
H20 H 0.2983 0.4798 0.2070
H21 H 0.3505 0.5926 0.2134
H22 H 0.4863 0.5158 0.1774
C19 C 0.2903(2) 0.84768(12) 0.24259(9)
H23 H 0.2864 0.9095 0.2714
H24 H 0.4121 0.8258 0.2380
H25 H 0.2221 0.7984 0.2708
C20 C 0.3939(2) 0.37170(12) 0.05503(9)
C21 C 0.3414(2) 0.27630(13) 0.02084(11)
H26 H 0.3040 0.2858 -0.0335
H27 H 0.2445 0.2488 0.0513
H28 H 0.4412 0.2314 0.0222
loop_
_geom_bond_atom_site_label_1
_geom_bond_atom_site_label_2
_geom_bond_site_symmetry_1
_geom_bond_site_symmetry_2
O1 H1 1_555 1_555
O2 C3 1_555 1_555
O3 H2 1_555 1_555
O4 C16 1_555 1_555
O5 C20 1_555 1_555
C1 O1 1_555 1_555
H3 C1 1_555 1_555
C2 C1 1_555 1_555
H4 C2 1_555 1_555
H5 C2 1_555 1_555
C3 C2 1_555 1_555
C4 C3 1_555 1_555
H6 C4 1_555 1_555
C5 C4 1_555 1_555
C6 C5 1_555 1_555
H7 C6 1_555 1_555
H8 C6 1_555 1_555
C7 C6 1_555 1_555
H9 C7 1_555 1_555
H10 C7 1_555 1_555
C8 C7 1_555 1_555
H11 C8 1_555 1_555
C9 C8 1_555 1_555
H12 C9 1_555 1_555
C10 C1 1_555 1_555
C11 C9 1_555 1_555
H13 C11 1_555 1_555
H14 C11 1_555 1_555
C12 C11 1_555 1_555
H15 C12 1_555 1_555
H16 C12 1_555 1_555
C13 C12 1_555 1_555
C14 C8 1_555 1_555
H17 C14 1_555 1_555
C15 O3 1_555 1_555
H18 C15 1_555 1_555
C16 C15 1_555 1_555
H19 C16 1_555 1_555
C17 O4 1_555 1_555
C18 C13 1_555 1_555
H20 C18 1_555 1_555
H21 C18 1_555 1_555
H22 C18 1_555 1_555
C19 C10 1_555 1_555
H23 C19 1_555 1_555
H24 C19 1_555 1_555
H25 C19 1_555 1_555
C20 C17 1_555 1_555
C21 C20 1_555 1_555
H26 C21 1_555 1_555
H27 C21 1_555 1_555
H28 C21 1_555 1_555
C5 C10 1_555 1_555
C9 C10 1_555 1_555
C13 C14 1_555 1_555
C13 C17 1_555 1_555
C14 C15 1_555 1_555
C16 C17 1_555 1_555

#END
