
#######################################################################
#
#                 Cambridge Crystallographic Data Centre
#                                CCDC 
#
#######################################################################
#
# If this CIF has been generated from an entry in the Cambridge 
# Structural Database, then it will include bibliographic, chemical, 
# crystal, experimental, refinement or atomic coordinate data resulting 
# from the CCDC's data processing and validation procedures.
#
#######################################################################

data_MEXQAJ
_chemical_formula_moiety         'C26 H16 F4 O2'
_chemical_name_systematic        
7,8,9,10-Tetrafluoro-23-isopropylidenehexacyclo[14.6.1.0^2,15^.0^4,13^.0^6,11^.0^17,22^]tricosa-4(13),5,7,9,11,17,19,21-octaene-3,14-dione
_symmetry_cell_setting           triclinic
_symmetry_space_group_name_H-M   'P -1'
_symmetry_Int_Tables_number      2
_space_group_name_Hall           '-P 1'
loop_
_symmetry_equiv_pos_site_id
_symmetry_equiv_pos_as_xyz
1 x,y,z
2 -x,-y,-z
_cell_length_a                   8.3352(2)
_cell_length_b                   9.9497(3)
_cell_length_c                   11.8088(4)
_cell_angle_alpha                95.8530(10)
_cell_angle_beta                 94.886(2)
_cell_angle_gamma                101.2650(10)
_cell_volume                     949.902
_exptl_crystal_colour            colorless
_exptl_crystal_description       prism
_cell_formula_units_Z            2
loop_
_atom_site_label
_atom_site_type_symbol
_atom_site_fract_x
_atom_site_fract_y
_atom_site_fract_z
F1 F 0.26996(10) 0.86540(8) 0.54281(7)
F2 F 0.52304(10) 1.07578(8) 0.63012(7)
F3 F 0.66685(10) 1.08509(8) 0.84555(7)
F4 F 0.56831(10) 0.88215(8) 0.97443(7)
O1 O -0.13644(12) 0.44547(10) 0.61232(9)
O2 O 0.16777(12) 0.45433(10) 1.02368(8)
C1 C -0.05196(16) 0.29527(13) 0.73870(11)
H1 H -0.1681 0.2502 0.7357
C2 C 0.03526(16) 0.29939(13) 0.86156(12)
H2 H -0.0439 0.2564 0.9106
C3 C 0.16792(17) 0.20663(14) 0.84098(12)
H3 H 0.2593 0.2183 0.9015
C4 C 0.07022(17) 0.06151(14) 0.80711(12)
C5 C -0.00962(16) 0.05800(14) 0.69744(12)
C6 C 0.04080(16) 0.20102(13) 0.66225(12)
H4 H 0.0303 0.2079 0.5798
C7 C 0.04214(18) -0.05209(15) 0.86703(13)
H5 H 0.0965 -0.0498 0.9396
C8 C -0.06958(19) -0.16979(15) 0.81574(13)
H6 H -0.0907 -0.247 0.8546
C9 C -0.14985(18) -0.17305(14) 0.70719(13)
H7 H -0.2241 -0.2526 0.6744
C10 C -0.12098(18) -0.05887(14) 0.64637(13)
H8 H -0.175 -0.0613 0.5737
C11 C 0.21287(17) 0.24752(14) 0.72508(12)
C12 C 0.35094(17) 0.31996(14) 0.69503(13)
C13 C 0.36569(19) 0.36199(16) 0.57721(14)
H9 H 0.2615 0.3317 0.5314
H10 H 0.4471 0.3205 0.5424
H11 H 0.3979 0.4607 0.5824
C14 C 0.50320(18) 0.36995(16) 0.77798(15)
H12 H 0.5222 0.4686 0.7947
H13 H 0.5958 0.3445 0.7448
H14 H 0.4888 0.3287 0.8474
C15 C -0.03865(16) 0.43143(14) 0.69053(12)
C16 C 0.15427(16) 0.64861(14) 0.67058(12)
H15 H 0.1024 0.645 0.5971
C17 C 0.34236(17) 0.86759(14) 0.64915(12)
C18 C 0.46795(17) 0.97417(14) 0.69241(12)
C19 C 0.54358(16) 0.97874(14) 0.80385(13)
C20 C 0.49225(16) 0.87644(14) 0.86825(12)
C21 C 0.30537(17) 0.65915(14) 0.89383(12)
H16 H 0.3533 0.6632 0.9685
C22 C 0.12760(16) 0.43780(14) 0.92083(12)
C23 C 0.10287(16) 0.54570(13) 0.73677(12)
C24 C 0.28509(16) 0.75937(13) 0.71355(12)
C25 C 0.36193(16) 0.76463(14) 0.82684(12)
C26 C 0.17986(16) 0.55054(14) 0.84942(12)
loop_
_geom_bond_atom_site_label_1
_geom_bond_atom_site_label_2
_geom_bond_site_symmetry_1
_geom_bond_site_symmetry_2
F1 C17 1_555 1_555
F2 C18 1_555 1_555
F3 C19 1_555 1_555
F4 C20 1_555 1_555
O1 C15 1_555 1_555
O2 C22 1_555 1_555
C1 H1 1_555 1_555
C2 C1 1_555 1_555
H2 C2 1_555 1_555
C3 C2 1_555 1_555
H3 C3 1_555 1_555
C4 C3 1_555 1_555
C5 C4 1_555 1_555
C6 C1 1_555 1_555
H4 C6 1_555 1_555
C7 C4 1_555 1_555
H5 C7 1_555 1_555
C8 C7 1_555 1_555
H6 C8 1_555 1_555
C9 C8 1_555 1_555
H7 C9 1_555 1_555
C10 C5 1_555 1_555
H8 C10 1_555 1_555
C11 C3 1_555 1_555
C12 C11 1_555 1_555
C13 C12 1_555 1_555
H9 C13 1_555 1_555
H10 C13 1_555 1_555
H11 C13 1_555 1_555
C14 C12 1_555 1_555
H12 C14 1_555 1_555
H13 C14 1_555 1_555
H14 C14 1_555 1_555
C15 C1 1_555 1_555
C16 H15 1_555 1_555
C17 C18 1_555 1_555
C18 C19 1_555 1_555
C19 C20 1_555 1_555
C20 C25 1_555 1_555
C21 H16 1_555 1_555
C22 C2 1_555 1_555
C23 C15 1_555 1_555
C24 C16 1_555 1_555
C25 C21 1_555 1_555
C26 C21 1_555 1_555
C5 C6 1_555 1_555
C6 C11 1_555 1_555
C9 C10 1_555 1_555
C16 C23 1_555 1_555
C17 C24 1_555 1_555
C22 C26 1_555 1_555
C23 C26 1_555 1_555
C24 C25 1_555 1_555

#END
