
#######################################################################
#
#                 Cambridge Crystallographic Data Centre
#                                CCDC 
#
#######################################################################
#
# If this CIF has been generated from an entry in the Cambridge 
# Structural Database, then it will include bibliographic, chemical, 
# crystal, experimental, refinement or atomic coordinate data resulting 
# from the CCDC's data processing and validation procedures.
#
#######################################################################

data_MEYQUC
_chemical_compound_source        'seeds of Caesalpinia minax Hance'
_chemical_name_common            'Caesalmin C'
_chemical_formula_moiety         'C26 H34 O8'
_chemical_name_systematic        
5\a-Hydroxy-1\a,6\a,7\b-triacetoxyvouacapan-14(17)-ene
_chemical_properties_biological  'significant activity against the Para3 virus'
_symmetry_cell_setting           orthorhombic
_symmetry_space_group_name_H-M   'P 21 21 21'
_symmetry_Int_Tables_number      19
_space_group_name_Hall           'P 2ac 2ab'
loop_
_symmetry_equiv_pos_site_id
_symmetry_equiv_pos_as_xyz
1 x,y,z
2 1/2-x,-y,1/2+z
3 -x,1/2+y,1/2-z
4 1/2+x,1/2-y,-z
_cell_length_a                   9.9931(18)
_cell_length_b                   12.553(5)
_cell_length_c                   21.287(3)
_cell_angle_alpha                90
_cell_angle_beta                 90
_cell_angle_gamma                90
_cell_volume                     2670.31
_exptl_crystal_colour            colorless
_exptl_crystal_description       block
_chemical_melting_point          '129-130 deg.C'
_cell_formula_units_Z            4
_exptl_crystal_recrystallization_method methanol
loop_
_atom_site_label
_atom_site_type_symbol
_atom_site_fract_x
_atom_site_fract_y
_atom_site_fract_z
O1 O 0.2379(3) 0.4361(2) 0.16751(14)
O2 O 0.1611(5) 0.3011(3) 0.1118(2)
O3 O 0.3534(3) 0.6217(2) 0.22321(11)
H1 H 0.3312 0.5599 0.2300
O4 O 0.3419(3) 0.8411(2) 0.23082(13)
O5 O 0.2565(4) 0.9945(3) 0.19305(18)
O6 O 0.4737(3) 0.8762(2) 0.11033(13)
O7 O 0.6182(4) 0.9258(3) 0.18628(17)
O8 O 0.5008(6) 0.4470(3) -0.0418(2)
C1 C 0.1473(5) 0.5111(3) 0.1355(2)
H2 H 0.1214 0.4815 0.0947
C2 C 0.0231(5) 0.5228(4) 0.1767(2)
H3 H -0.0426 0.5661 0.1549
H4 H -0.0159 0.4530 0.1838
C3 C 0.0551(5) 0.5729(4) 0.2385(2)
H5 H 0.1137 0.5254 0.2616
H6 H -0.0272 0.5796 0.2624
C4 C 0.1218(4) 0.6831(3) 0.2350(2)
C5 C 0.2477(4) 0.6756(3) 0.19010(18)
C6 C 0.3113(4) 0.7835(3) 0.17358(18)
H7 H 0.2485 0.8252 0.1481
C7 C 0.4437(4) 0.7721(3) 0.13840(18)
H8 H 0.5146 0.7529 0.1681
C8 C 0.4451(4) 0.6940(3) 0.08278(19)
H9 H 0.4055 0.7318 0.0470
C9 C 0.3591(5) 0.5942(3) 0.09372(17)
H10 H 0.4093 0.5480 0.1224
C10 C 0.2217(4) 0.6169(3) 0.12527(18)
C11 C 0.3447(6) 0.5325(4) 0.0307(2)
H11 H 0.3068 0.4625 0.0382
H12 H 0.2859 0.5709 0.0023
C12 C 0.4772(7) 0.5227(4) 0.0033(2)
C13 C 0.5880(6) 0.5778(4) 0.0171(2)
C14 C 0.5874(5) 0.6628(3) 0.0632(2)
C15 C 0.6935(8) 0.5346(5) -0.0218(3)
H13 H 0.7825 0.5561 -0.0230
C16 C 0.6372(11) 0.4582(6) -0.0554(4)
H14 H 0.6828 0.4168 -0.0847
C17 C 0.6986(5) 0.7078(4) 0.0843(2)
H15 H 0.7814 0.6851 0.0695
H16 H 0.6938 0.7621 0.1139
C18 C 0.1593(5) 0.7124(4) 0.3029(2)
H17 H 0.0797 0.7161 0.3280
H18 H 0.2036 0.7802 0.3033
H19 H 0.2181 0.6590 0.3197
C19 C 0.0171(5) 0.7672(4) 0.2148(3)
H20 H -0.0119 0.7525 0.1727
H21 H 0.0566 0.8368 0.2164
H22 H -0.0583 0.7644 0.2427
C20 C 0.1339(5) 0.6826(4) 0.0798(2)
H23 H 0.1217 0.6436 0.0414
H24 H 0.1772 0.7492 0.0709
H25 H 0.0484 0.6959 0.0988
C21 C 0.2357(6) 0.3346(4) 0.1504(3)
C22 C 0.3347(6) 0.2704(4) 0.1871(3)
H26 H 0.3311 0.1975 0.1737
H27 H 0.3136 0.2746 0.2310
H28 H 0.4231 0.2981 0.1801
C23 C 0.3098(5) 0.9456(4) 0.2345(2)
C24 C 0.3512(6) 0.9896(4) 0.2969(2)
H29 H 0.3281 1.0638 0.2990
H30 H 0.4462 0.9817 0.3019
H31 H 0.3059 0.9517 0.3298
C25 C 0.5593(5) 0.9438(4) 0.1389(2)
C26 C 0.5668(7) 1.0462(4) 0.1009(3)
H32 H 0.6269 1.0951 0.1211
H33 H 0.4794 1.0776 0.0983
H34 H 0.5989 1.0307 0.0594
loop_
_geom_bond_atom_site_label_1
_geom_bond_atom_site_label_2
_geom_bond_site_symmetry_1
_geom_bond_site_symmetry_2
O1 C1 1_555 1_555
O2 C21 1_555 1_555
O3 H1 1_555 1_555
O4 C6 1_555 1_555
O5 C23 1_555 1_555
O6 C7 1_555 1_555
O7 C25 1_555 1_555
O8 C12 1_555 1_555
C1 H2 1_555 1_555
C2 C1 1_555 1_555
H3 C2 1_555 1_555
H4 C2 1_555 1_555
C3 C2 1_555 1_555
H5 C3 1_555 1_555
H6 C3 1_555 1_555
C4 C3 1_555 1_555
C5 O3 1_555 1_555
C6 C5 1_555 1_555
H7 C6 1_555 1_555
C7 C6 1_555 1_555
H8 C7 1_555 1_555
C8 C7 1_555 1_555
H9 C8 1_555 1_555
C9 C8 1_555 1_555
H10 C9 1_555 1_555
C10 C1 1_555 1_555
C11 C9 1_555 1_555
H11 C11 1_555 1_555
H12 C11 1_555 1_555
C12 C11 1_555 1_555
C13 C12 1_555 1_555
C14 C8 1_555 1_555
C15 C13 1_555 1_555
H13 C15 1_555 1_555
C16 O8 1_555 1_555
H14 C16 1_555 1_555
C17 C14 1_555 1_555
H15 C17 1_555 1_555
H16 C17 1_555 1_555
C18 C4 1_555 1_555
H17 C18 1_555 1_555
H18 C18 1_555 1_555
H19 C18 1_555 1_555
C19 C4 1_555 1_555
H20 C19 1_555 1_555
H21 C19 1_555 1_555
H22 C19 1_555 1_555
C20 C10 1_555 1_555
H23 C20 1_555 1_555
H24 C20 1_555 1_555
H25 C20 1_555 1_555
C21 O1 1_555 1_555
C22 C21 1_555 1_555
H26 C22 1_555 1_555
H27 C22 1_555 1_555
H28 C22 1_555 1_555
C23 O4 1_555 1_555
C24 C23 1_555 1_555
H29 C24 1_555 1_555
H30 C24 1_555 1_555
H31 C24 1_555 1_555
C25 O6 1_555 1_555
C26 C25 1_555 1_555
H32 C26 1_555 1_555
H33 C26 1_555 1_555
H34 C26 1_555 1_555
C4 C5 1_555 1_555
C5 C10 1_555 1_555
C9 C10 1_555 1_555
C13 C14 1_555 1_555
C15 C16 1_555 1_555

#END
