
#######################################################################
#
#                 Cambridge Crystallographic Data Centre
#                                CCDC 
#
#######################################################################
#
# If this CIF has been generated from an entry in the Cambridge 
# Structural Database, then it will include bibliographic, chemical, 
# crystal, experimental, refinement or atomic coordinate data resulting 
# from the CCDC's data processing and validation procedures.
#
#######################################################################

data_MEYRAJ
_chemical_compound_source        'seeds of Caesalpinia minax Hance'
_chemical_name_common            'Caesalmin C monohydrate'
_chemical_formula_moiety         'C26 H34 O8,H2 O1'
_chemical_name_systematic        
'5\a-Hydroxy-1\a,6\a,7\b-triacetoxyvouacapan-14(17)-ene monohydrate'
_chemical_properties_biological  'significant activity against the Para3 virus'
_symmetry_cell_setting           orthorhombic
_symmetry_space_group_name_H-M   'P 21 21 21'
_symmetry_Int_Tables_number      19
_space_group_name_Hall           'P 2ac 2ab'
loop_
_symmetry_equiv_pos_site_id
_symmetry_equiv_pos_as_xyz
1 x,y,z
2 1/2-x,-y,1/2+z
3 -x,1/2+y,1/2-z
4 1/2+x,1/2-y,-z
_cell_length_a                   9.9290(8)
_cell_length_b                   12.6006(10)
_cell_length_c                   21.9298(18)
_cell_angle_alpha                90
_cell_angle_beta                 90
_cell_angle_gamma                90
_cell_volume                     2743.67
_exptl_crystal_colour            colorless
_exptl_crystal_description       plate
_chemical_melting_point          '121-122 deg.C'
_cell_formula_units_Z            4
_exptl_crystal_recrystallization_method acetone
loop_
_atom_site_label
_atom_site_type_symbol
_atom_site_fract_x
_atom_site_fract_y
_atom_site_fract_z
O1 O 0.8978(9) -0.2011(6) 0.4399(4)
O2 O 0.6374(8) -0.1050(8) 0.4486(3)
O3 O 0.2615(3) -0.0744(2) 0.33114(16)
O4 O 0.3398(7) -0.2108(3) 0.3837(3)
O5 O 0.1464(3) 0.1091(2) 0.27934(13)
H1 H 0.1716 0.0497 0.2691
O6 O 0.1577(3) 0.3281(2) 0.27165(14)
O7 O 0.2447(5) 0.4802(3) 0.30693(19)
O8 O 0.0269(3) 0.3632(2) 0.38680(14)
O9 O -0.1235(5) 0.4040(4) 0.3146(2)
O10 O 0.0358(6) -0.0403(4) 0.5516(2)
C1 C 0.3562(5) -0.0015(4) 0.3609(2)
H2 H 0.3838 -0.0319 0.4001
C2 C 0.4786(6) 0.0088(4) 0.3204(2)
H3 H 0.5461 0.0515 0.3409
H4 H 0.5166 -0.0609 0.3131
C3 C 0.4430(6) 0.0597(4) 0.2601(3)
H5 H 0.3805 0.0138 0.2387
H6 H 0.5240 0.0649 0.2356
C4 C 0.3799(5) 0.1706(4) 0.2655(2)
C5 C 0.2540(4) 0.1630(3) 0.31013(19)
C6 C 0.1910(4) 0.2714(3) 0.32635(19)
H7 H 0.2554 0.3131 0.3503
C7 C 0.0598(4) 0.2592(3) 0.3622(2)
H8 H -0.0121 0.2362 0.3347
C8 C 0.0649(4) 0.1856(3) 0.4173(2)
H9 H 0.1105 0.2253 0.4497
C9 C 0.1494(5) 0.0836(3) 0.40708(19)
H10 H 0.0955 0.0368 0.3811
C10 C 0.2846(4) 0.1047(3) 0.3724(2)
C11 C 0.1711(6) 0.0252(5) 0.4670(2)
H11 H 0.2006 -0.0468 0.4588
H12 H 0.2407 0.0605 0.4904
C12 C 0.0481(7) 0.0229(4) 0.5014(2)
C13 C -0.0673(6) 0.0801(4) 0.4920(2)
C14 C -0.0739(5) 0.1558(4) 0.4426(2)
C15 C -0.1579(8) 0.0490(5) 0.5392(3)
H13 H -0.2460 0.0725 0.5445
C16 C -0.0914(10) -0.0206(6) 0.5745(4)
H14 H -0.1264 -0.0514 0.6096
C17 C -0.1888(6) 0.1969(5) 0.4232(3)
H15 H -0.2695 0.1772 0.4415
H16 H -0.1889 0.2454 0.3912
C18 C 0.3367(6) 0.1998(4) 0.1999(2)
H17 H 0.2939 0.2681 0.2000
H18 H 0.2748 0.1474 0.1849
H19 H 0.4147 0.2019 0.1740
C19 C 0.4858(5) 0.2535(4) 0.2836(3)
H20 H 0.5149 0.2406 0.3247
H21 H 0.4471 0.3232 0.2809
H22 H 0.5615 0.2486 0.2565
C20 C 0.3775(5) 0.1703(4) 0.4150(2)
H23 H 0.3905 0.1326 0.4526
H24 H 0.3365 0.2378 0.4233
H25 H 0.4631 0.1811 0.3955
C21 C 0.2632(6) -0.1760(4) 0.3462(3)
C22 C 0.1640(7) -0.2393(4) 0.3116(3)
H26 H 0.1698 -0.3123 0.3239
H27 H 0.1828 -0.2337 0.2688
H28 H 0.0750 -0.2130 0.3196
C23 C 0.1909(5) 0.4318(4) 0.2677(3)
C24 C 0.1459(6) 0.4760(5) 0.2077(3)
H29 H 0.1684 0.5500 0.2057
H30 H 0.0502 0.4675 0.2038
H31 H 0.1903 0.4388 0.1752
C25 C -0.0620(6) 0.4272(4) 0.3595(3)
C26 C -0.0700(8) 0.5304(5) 0.3924(3)
H32 H -0.1337 0.5759 0.3723
H33 H 0.0170 0.5637 0.3925
H34 H -0.0985 0.5183 0.4336
loop_
_geom_bond_atom_site_label_1
_geom_bond_atom_site_label_2
_geom_bond_site_symmetry_1
_geom_bond_site_symmetry_2
O3 C1 1_555 1_555
O4 C21 1_555 1_555
O5 H1 1_555 1_555
O6 C6 1_555 1_555
O7 C23 1_555 1_555
O8 C7 1_555 1_555
O9 C25 1_555 1_555
O10 C12 1_555 1_555
C1 H2 1_555 1_555
C2 C1 1_555 1_555
H3 C2 1_555 1_555
H4 C2 1_555 1_555
C3 C2 1_555 1_555
H5 C3 1_555 1_555
H6 C3 1_555 1_555
C4 C3 1_555 1_555
C5 O5 1_555 1_555
C6 C5 1_555 1_555
H7 C6 1_555 1_555
C7 C6 1_555 1_555
H8 C7 1_555 1_555
C8 C7 1_555 1_555
H9 C8 1_555 1_555
C9 C8 1_555 1_555
H10 C9 1_555 1_555
C10 C1 1_555 1_555
C11 C9 1_555 1_555
H11 C11 1_555 1_555
H12 C11 1_555 1_555
C12 C11 1_555 1_555
C13 C12 1_555 1_555
C14 C8 1_555 1_555
C15 C13 1_555 1_555
H13 C15 1_555 1_555
C16 O10 1_555 1_555
H14 C16 1_555 1_555
C17 C14 1_555 1_555
H15 C17 1_555 1_555
H16 C17 1_555 1_555
C18 C4 1_555 1_555
H17 C18 1_555 1_555
H18 C18 1_555 1_555
H19 C18 1_555 1_555
C19 C4 1_555 1_555
H20 C19 1_555 1_555
H21 C19 1_555 1_555
H22 C19 1_555 1_555
C20 C10 1_555 1_555
H23 C20 1_555 1_555
H24 C20 1_555 1_555
H25 C20 1_555 1_555
C21 O3 1_555 1_555
C22 C21 1_555 1_555
H26 C22 1_555 1_555
H27 C22 1_555 1_555
H28 C22 1_555 1_555
C23 O6 1_555 1_555
C24 C23 1_555 1_555
H29 C24 1_555 1_555
H30 C24 1_555 1_555
H31 C24 1_555 1_555
C25 O8 1_555 1_555
C26 C25 1_555 1_555
H32 C26 1_555 1_555
H33 C26 1_555 1_555
H34 C26 1_555 1_555
C4 C5 1_555 1_555
C5 C10 1_555 1_555
C9 C10 1_555 1_555
C13 C14 1_555 1_555
C15 C16 1_555 1_555

#END
