
#######################################################################
#
#                 Cambridge Crystallographic Data Centre
#                                CCDC 
#
#######################################################################
#
# If this CIF has been generated from an entry in the Cambridge 
# Structural Database, then it will include bibliographic, chemical, 
# crystal, experimental, refinement or atomic coordinate data resulting 
# from the CCDC's data processing and validation procedures.
#
#######################################################################

data_MEZCUR
_chemical_formula_moiety         'C22 H17 Br1 N4 O4 S1'
_chemical_name_systematic        
3'-(4-Bromophenyl)-1-methyl-4'-(3-methyl-4-nitro-1,2-oxazol-5-yl)-5'-thioxospiro[indole-3,2'-pyrrolidin]-2(1H)-one
_symmetry_cell_setting           monoclinic
_symmetry_space_group_name_H-M   'C 2'
_symmetry_Int_Tables_number      5
_space_group_name_Hall           'C 2y'
loop_
_symmetry_equiv_pos_site_id
_symmetry_equiv_pos_as_xyz
1 x,y,z
2 -x,y,-z
3 1/2+x,1/2+y,z
4 1/2-x,1/2+y,-z
_cell_length_a                   30.977(2)
_cell_length_b                   6.0722(4)
_cell_length_c                   11.0436(8)
_cell_angle_alpha                90
_cell_angle_beta                 91.2910(10)
_cell_angle_gamma                90
_cell_volume                     2076.76
_exptl_crystal_colour            colorless
_exptl_crystal_description       prism
_cell_formula_units_Z            4
loop_
_atom_site_label
_atom_site_type_symbol
_atom_site_fract_x
_atom_site_fract_y
_atom_site_fract_z
Br1 Br 0.748301(5) -0.25791(4) 0.266149(15)
S1 S 0.538222(14) 0.65713(9) 0.69752(4)
O1 O 0.65917(4) 0.2461(4) 0.95277(12)
O2 O 0.55036(4) 0.1304(2) 0.41901(13)
C1 C 0.51545(6) 0.1301(3) 0.17183(19)
H1 H 0.5139 -0.0032 0.2215
H2 H 0.5246 0.0910 0.0902
H3 H 0.4869 0.1999 0.1669
O3 O 0.61039(5) 0.1657(3) 0.81578(14)
C2 C 0.65525(5) 0.2879(3) 0.40876(16)
C3 C 0.70155(6) -0.0285(3) 0.44431(18)
H4 H 0.7137 -0.1344 0.4984
O4 O 0.65607(4) 0.7290(3) 0.65285(11)
N1 N 0.68188(5) 0.8017(3) 0.75293(16)
N2 N 0.63908(5) 0.2838(3) 0.85754(15)
C4 C 0.65032(6) 0.4799(3) 0.79317(17)
C5 C 0.63725(5) 0.5356(3) 0.67889(17)
C6 C 0.60791(5) 0.4439(3) 0.58366(16)
H5 H 0.6014 0.2862 0.6018
C7 C 0.62460(5) 0.4655(3) 0.45225(16)
H6 H 0.6405 0.6085 0.4482
C8 C 0.67261(6) 0.1297(3) 0.48608(17)
H7 H 0.6647 0.1286 0.5687
C9 C 0.71219(5) -0.0290(3) 0.32387(18)
C10 C 0.66803(5) 0.2882(3) 0.28766(17)
H8 H 0.6575 0.3998 0.2345
C11 C 0.69587(6) 0.1282(3) 0.24385(18)
H9 H 0.7035 0.1266 0.1610
C12 C 0.56579(5) 0.5779(3) 0.57872(17)
N3 N 0.55594(5) 0.6151(3) 0.46340(14)
H10 H 0.5351 0.7055 0.4402
C13 C 0.58225(5) 0.4946(3) 0.37724(16)
C14 C 0.55830(5) 0.2754(3) 0.34677(17)
N4 N 0.54637(5) 0.2822(3) 0.22631(14)
C15 C 0.56255(6) 0.4727(3) 0.17026(17)
C16 C 0.56041(6) 0.5310(3) 0.04978(17)
H11 H 0.5455 0.4419 -0.0082
C17 C 0.58100(5) 0.7266(4) 0.01534(16)
H12 H 0.5798 0.7712 -0.0671
C18 C 0.60319(6) 0.8559(3) 0.10001(18)
H13 H 0.6175 0.9856 0.0744
C19 C 0.60467(6) 0.7968(3) 0.22226(18)
H14 H 0.6191 0.8867 0.2808
C20 C 0.58449(5) 0.6033(3) 0.25577(16)
C21 C 0.67833(6) 0.6503(3) 0.83607(17)
C22 C 0.70186(6) 0.6779(4) 0.95423(18)
H15 H 0.7166 0.8207 0.9558
H16 H 0.7232 0.5598 0.9644
H17 H 0.6813 0.6715 1.0202
loop_
_geom_bond_atom_site_label_1
_geom_bond_atom_site_label_2
_geom_bond_site_symmetry_1
_geom_bond_site_symmetry_2
Br1 C9 1_555 1_555
S1 C12 1_555 1_555
O1 N2 1_555 1_555
O2 C14 1_555 1_555
C1 H1 1_555 1_555
H2 C1 1_555 1_555
H3 C1 1_555 1_555
O3 N2 1_555 1_555
C2 C7 1_555 1_555
C3 H4 1_555 1_555
O4 N1 1_555 1_555
N1 C21 1_555 1_555
N2 C4 1_555 1_555
C4 C5 1_555 1_555
C5 O4 1_555 1_555
C6 C5 1_555 1_555
H5 C6 1_555 1_555
C7 C6 1_555 1_555
H6 C7 1_555 1_555
C8 C2 1_555 1_555
H7 C8 1_555 1_555
C9 C3 1_555 1_555
C10 C2 1_555 1_555
H8 C10 1_555 1_555
C11 C9 1_555 1_555
H9 C11 1_555 1_555
C12 C6 1_555 1_555
N3 C12 1_555 1_555
H10 N3 1_555 1_555
C13 C7 1_555 1_555
C14 C13 1_555 1_555
N4 C1 1_555 1_555
C15 N4 1_555 1_555
C16 C15 1_555 1_555
H11 C16 1_555 1_555
C17 C16 1_555 1_555
H12 C17 1_555 1_555
C18 C17 1_555 1_555
H13 C18 1_555 1_555
C19 C18 1_555 1_555
H14 C19 1_555 1_555
C20 C13 1_555 1_555
C21 C4 1_555 1_555
C22 C21 1_555 1_555
H15 C22 1_555 1_555
H16 C22 1_555 1_555
H17 C22 1_555 1_555
C3 C8 1_555 1_555
C10 C11 1_555 1_555
N3 C13 1_555 1_555
C14 N4 1_555 1_555
C15 C20 1_555 1_555
C19 C20 1_555 1_555

#END
