
#######################################################################
#
#                 Cambridge Crystallographic Data Centre
#                                CCDC 
#
#######################################################################
#
# If this CIF has been generated from an entry in the Cambridge 
# Structural Database, then it will include bibliographic, chemical, 
# crystal, experimental, refinement or atomic coordinate data resulting 
# from the CCDC's data processing and validation procedures.
#
#######################################################################

data_MEZGUW
_chemical_formula_moiety         'C38 H35 N5 O5 S1,C1 H1 Cl3'
_chemical_name_systematic        
"t-butyl 1-benzyl-3''-(4-methylphenyl)-2'-(methylsulfinyl)-2,5''-dioxo-1''-phenyl-1,1'',2,5''-tetrahydro-1'H-dispiro[indole-3,5'-imidazole-4',4''-pyrazole]-1'-carboxylate chloroform solvate"
_symmetry_cell_setting           orthorhombic
_symmetry_space_group_name_H-M   'P 21 21 21'
_symmetry_Int_Tables_number      19
_space_group_name_Hall           'P 2ac 2ab'
loop_
_symmetry_equiv_pos_site_id
_symmetry_equiv_pos_as_xyz
1 x,y,z
2 1/2-x,-y,1/2+z
3 -x,1/2+y,1/2-z
4 1/2+x,1/2-y,-z
_cell_length_a                   10.226(3)
_cell_length_b                   17.963(5)
_cell_length_c                   21.716(6)
_cell_angle_alpha                90
_cell_angle_beta                 90
_cell_angle_gamma                90
_cell_volume                     3989
_exptl_crystal_colour            colorless
_exptl_crystal_description       block
_cell_formula_units_Z            4
loop_
_atom_site_label
_atom_site_type_symbol
_atom_site_fract_x
_atom_site_fract_y
_atom_site_fract_z
S1 S 0.80345(15) 0.61257(7) 0.89715(6)
N1 N 0.7208(4) 0.47439(19) 0.94789(16)
O1 O 0.8188(4) 0.33824(19) 1.01564(16)
O2 O 0.9732(3) 0.4729(2) 1.04063(15)
N2 N 0.7623(4) 0.5704(2) 1.01287(17)
O3 O 0.6234(3) 0.38337(19) 0.89770(14)
N3 N 0.8613(4) 0.4602(2) 1.13277(17)
C1 C 0.3605(5) 0.3522(3) 1.0374(2)
H1 H 0.3377 0.3052 1.0519
C2 C 0.5244(4) 0.4433(2) 1.0107(2)
C3 C 0.8763(5) 0.4762(3) 1.0718(2)
C4 C 0.6733(4) 0.5129(2) 1.1119(2)
C5 C 0.6718(4) 0.4461(2) 1.00645(19)
N4 N 0.6008(4) 0.3296(2) 1.03948(17)
C6 C 0.7112(5) 0.3644(2) 1.0204(2)
O4 O 0.7031(5) 0.4820(2) 0.84477(16)
C7 C 0.7399(4) 0.5043(2) 1.0515(2)
C8 C 0.4888(5) 0.3729(3) 1.03112(19)
C9 C 0.7617(4) 0.5478(2) 0.9575(2)
C10 C 0.6824(5) 0.4486(3) 0.8911(2)
C11 C 0.5065(5) 0.6105(3) 1.0940(2)
H2 H 0.5616 0.6322 1.0650
C12 C 0.4640(6) 0.5176(3) 1.1688(3)
H3 H 0.4896 0.4758 1.1910
C13 C 0.2667(5) 0.4039(3) 1.0214(3)
H4 H 0.1786 0.3915 1.0247
C14 C 0.9514(5) 0.4286(3) 1.1752(2)
C15 C 0.5671(6) 0.2389(3) 1.1225(3)
C16 C 0.5466(5) 0.5472(3) 1.1250(2)
C17 C 0.3868(6) 0.6414(3) 1.1055(2)
H5 H 0.3617 0.6839 1.0840
C18 C 0.5973(6) 0.2505(3) 1.0569(3)
H6 H 0.6815 0.2282 1.0478
H7 H 0.5319 0.2253 1.0322
C19 C 0.4297(5) 0.4936(3) 0.9938(2)
H8 H 0.4520 0.5401 0.9782
C20 C 0.3009(5) 0.4732(3) 1.0006(3)
H9 H 0.2356 0.5073 0.9910
C21 C 0.3447(6) 0.5494(4) 1.1798(3)
H10 H 0.2901 0.5288 1.2095
C22 C 0.6198(7) 0.3359(4) 0.7917(3)
H11 H 0.6858 0.2998 0.8014
H12 H 0.6607 0.3811 0.7781
H13 H 0.5646 0.3169 0.7595
C23 C 0.3038(6) 0.6117(3) 1.1476(3)
C24 C 0.5036(8) 0.1740(5) 1.1391(4)
H14 H 0.4818 0.1386 1.1095
C25 C 1.1273(8) 0.3670(4) 1.2564(3)
H15 H 1.1863 0.3466 1.2842
C26 C 0.4293(9) 0.4047(6) 0.8363(4)
H16 H 0.3823 0.4128 0.8740
H17 H 0.3712 0.3843 0.8059
H18 H 0.4639 0.4512 0.8217
C27 C 0.9143(7) 0.4087(4) 1.2320(3)
H19 H 0.8280 0.4158 1.2440
C28 C 1.0016(9) 0.3780(5) 1.2728(3)
H20 H 0.9738 0.3647 1.3120
C29 C 1.0797(6) 0.4180(4) 1.1581(3)
H21 H 1.1082 0.4323 1.1192
C30 C 0.4956(9) 0.2784(4) 0.8785(3)
H22 H 0.5697 0.2462 0.8838
H23 H 0.4316 0.2542 0.8531
H24 H 0.4580 0.2894 0.9180
C31 C 1.1660(6) 0.3858(4) 1.1997(3)
H25 H 1.2521 0.3772 1.1879
C32 C 0.5396(7) 0.3512(4) 0.8475(3)
C33 C 0.5700(14) 0.2782(7) 1.2271(5)
H26 H 0.5914 0.3141 1.2563
C34 C 0.5076(14) 0.2135(8) 1.2434(4)
H27 H 0.4884 0.2041 1.2846
C35 C 0.5990(10) 0.2877(5) 1.1670(3)
H28 H 0.6438 0.3306 1.1557
C36 C 0.4736(11) 0.1627(7) 1.1993(6)
H29 H 0.4291 0.1198 1.2107
C37 C 0.1683(8) 0.6442(5) 1.1604(4)
H30 H 0.1576 0.6895 1.1374
H31 H 0.1597 0.6545 1.2036
H32 H 0.1026 0.6091 1.1481
C38 C 0.9555(6) 0.5664(4) 0.8802(3)
H33 H 0.9995 0.5921 0.8475
H34 H 0.9383 0.5160 0.8679
H35 H 1.0098 0.5664 0.9163
O5 O 0.8401(5) 0.6809(2) 0.92991(18)
N5 N 0.7408(4) 0.4840(2) 1.15690(17)
Cl1 Cl 0.32609(19) 0.80491(10) 0.86538(8)
Cl2 Cl 0.4859(2) 0.71184(12) 0.94012(9)
Cl3 Cl 0.2105(3) 0.69473(15) 0.94236(14)
C39 C 0.3374(5) 0.7578(3) 0.9350(3)
H36 H 0.3317 0.7940 0.9686
loop_
_geom_bond_atom_site_label_1
_geom_bond_atom_site_label_2
_geom_bond_site_symmetry_1
_geom_bond_site_symmetry_2
S1 C9 1_555 1_555
N1 C5 1_555 1_555
O1 C6 1_555 1_555
O2 C3 1_555 1_555
N2 C7 1_555 1_555
O3 C10 1_555 1_555
N3 C3 1_555 1_555
C1 H1 1_555 1_555
C2 C5 1_555 1_555
C3 C7 1_555 1_555
C4 C7 1_555 1_555
C5 C6 1_555 1_555
N4 C6 1_555 1_555
O4 C10 1_555 1_555
C7 C5 1_555 1_555
C8 C1 1_555 1_555
C9 N1 1_555 1_555
C10 N1 1_555 1_555
C11 H2 1_555 1_555
C12 H3 1_555 1_555
C13 C1 1_555 1_555
H4 C13 1_555 1_555
C14 N3 1_555 1_555
C15 C18 1_555 1_555
C16 C4 1_555 1_555
C17 C11 1_555 1_555
H5 C17 1_555 1_555
C18 N4 1_555 1_555
H6 C18 1_555 1_555
H7 C18 1_555 1_555
C19 C2 1_555 1_555
H8 C19 1_555 1_555
C20 C13 1_555 1_555
H9 C20 1_555 1_555
C21 C12 1_555 1_555
H10 C21 1_555 1_555
C22 H11 1_555 1_555
H12 C22 1_555 1_555
H13 C22 1_555 1_555
C23 C17 1_555 1_555
C24 C15 1_555 1_555
H14 C24 1_555 1_555
C25 H15 1_555 1_555
C26 H16 1_555 1_555
H17 C26 1_555 1_555
H18 C26 1_555 1_555
C27 C14 1_555 1_555
H19 C27 1_555 1_555
C28 C25 1_555 1_555
H20 C28 1_555 1_555
C29 C14 1_555 1_555
H21 C29 1_555 1_555
C30 H22 1_555 1_555
H23 C30 1_555 1_555
H24 C30 1_555 1_555
C31 C25 1_555 1_555
H25 C31 1_555 1_555
C32 O3 1_555 1_555
C33 H26 1_555 1_555
C34 C33 1_555 1_555
H27 C34 1_555 1_555
C35 C15 1_555 1_555
H28 C35 1_555 1_555
C36 C24 1_555 1_555
H29 C36 1_555 1_555
C37 C23 1_555 1_555
H30 C37 1_555 1_555
H31 C37 1_555 1_555
H32 C37 1_555 1_555
C38 S1 1_555 1_555
H33 C38 1_555 1_555
H34 C38 1_555 1_555
H35 C38 1_555 1_555
O5 S1 1_555 1_555
N5 N3 1_555 1_555
Cl1 C39 1_555 1_555
Cl2 C39 1_555 1_555
Cl3 C39 1_555 1_555
C39 H36 1_555 1_555
N2 C9 1_555 1_555
C2 C8 1_555 1_555
C4 N5 1_555 1_555
N4 C8 1_555 1_555
C11 C16 1_555 1_555
C12 C16 1_555 1_555
C19 C20 1_555 1_555
C21 C23 1_555 1_555
C22 C32 1_555 1_555
C26 C32 1_555 1_555
C27 C28 1_555 1_555
C29 C31 1_555 1_555
C30 C32 1_555 1_555
C33 C35 1_555 1_555
C34 C36 1_555 1_555

#END
