
#######################################################################
#
#                 Cambridge Crystallographic Data Centre
#                                CCDC 
#
#######################################################################
#
# If this CIF has been generated from an entry in the Cambridge 
# Structural Database, then it will include bibliographic, chemical, 
# crystal, experimental, refinement or atomic coordinate data resulting 
# from the CCDC's data processing and validation procedures.
#
#######################################################################

data_MEZKAG
_chemical_formula_moiety         'C54 H54 F4 Mg1 N2 O4 P2'
_chemical_name_systematic        
'bis(4-((2,6-difluorophenyl)imino)-3-(diphenylphosphino)penten-2-olato)-bis(tetrahydrofuran)-magnesium unknown solvate'
_symmetry_cell_setting           triclinic
_symmetry_space_group_name_H-M   'P -1'
_symmetry_Int_Tables_number      2
_space_group_name_Hall           '-P 1'
loop_
_symmetry_equiv_pos_site_id
_symmetry_equiv_pos_as_xyz
1 x,y,z
2 -x,-y,-z
_cell_length_a                   9.5802(3)
_cell_length_b                   12.1650(3)
_cell_length_c                   12.9404(4)
_cell_angle_alpha                62.4790(10)
_cell_angle_beta                 88.1650(10)
_cell_angle_gamma                74.4760(10)
_cell_volume                     1281.23
_exptl_crystal_colour            yellow
_exptl_crystal_description       block
_cell_formula_units_Z            1
loop_
_atom_site_label
_atom_site_type_symbol
_atom_site_fract_x
_atom_site_fract_y
_atom_site_fract_z
C1 C 0.17296(12) -0.22404(11) 0.68388(10)
H1 H 0.1086 -0.1945 0.7270
C2 C 0.38054(12) -0.21518(11) 0.57507(10)
H2 H 0.4567 -0.1798 0.5447
F1 F -0.25952(8) -0.04717(7) 0.80712(7)
C3 C 0.26099(14) 0.23377(13) 0.32750(11)
H3 H 0.2681 0.2377 0.2541
C4 C 0.36370(13) -0.31535(12) 0.55750(11)
H4 H 0.4279 -0.3459 0.5149
C5 C 0.21657(14) 0.33980(12) 0.44616(12)
H5 H 0.1933 0.4153 0.4529
F2 F -0.13186(9) 0.32830(7) 0.72689(8)
N1 N -0.04022(9) 0.06407(8) 0.81377(8)
C6 C 0.42662(11) -0.15092(12) 0.92982(10)
H6 H 0.4735 -0.0916 0.9325
H7 H 0.4680 -0.1783 0.8740
H8 H 0.4408 -0.2248 1.0059
O1 O 0.06560(9) 0.16674(8) 0.96251(7)
Mg1 Mg 0.0000 0.0000 1.0000
O2 O 0.19500(8) -0.08348(7) 0.97784(7)
C7 C 0.15669(14) -0.32446(12) 0.66626(12)
H9 H 0.0816 -0.3611 0.6971
C8 C -0.23507(12) 0.26791(11) 0.73611(10)
C9 C -0.02116(11) 0.07332(11) 0.62289(9)
H10 H -0.1072 0.0453 0.6299
H11 H 0.0478 0.0335 0.5860
H12 H -0.0464 0.1656 0.5763
C10 C 0.04528(10) 0.03481(9) 0.74322(9)
C11 C 0.22758(14) 0.34657(12) 0.33678(11)
H13 H 0.2127 0.4262 0.2700
C12 C 0.28426(11) -0.16662(10) 0.63795(9)
P1 P 0.32627(3) -0.04905(3) 0.67437(2)
C13 C 0.26465(10) -0.08458(9) 0.89338(9)
C14 C 0.20043(10) -0.03104(10) 0.77661(9)
C15 C -0.44470(12) 0.14806(14) 0.74918(11)
H14 H -0.5149 0.1068 0.7527
C16 C 0.25199(14) -0.37009(11) 0.60297(11)
H15 H 0.2410 -0.4372 0.5910
C17 C -0.18824(10) 0.13640(10) 0.77142(9)
C18 C 0.15836(18) 0.34413(14) 0.85731(14)
H16 H 0.0951 0.3989 0.7844
H17 H 0.2499 0.3658 0.8486
C19 C 0.28401(12) 0.11439(12) 0.42732(10)
H18 H 0.3064 0.0394 0.4198
C20 C 0.27398(11) 0.10580(11) 0.53858(9)
C21 C -0.29878(11) 0.08059(11) 0.77566(10)
C22 C 0.18260(14) 0.20261(12) 0.89368(12)
H19 H 0.1798 0.1895 0.8254
H20 H 0.2762 0.1514 0.9398
C23 C 0.23998(13) 0.22103(12) 0.54616(11)
H21 H 0.2330 0.2180 0.6192
C24 C -0.37982(14) 0.33988(13) 0.71032(11)
H22 H -0.4061 0.4276 0.6888
C25 C -0.48437(13) 0.27814(15) 0.71740(12)
H23 H -0.5824 0.3247 0.7006
C26 C -0.00782(15) 0.26642(12) 0.99267(13)
H24 H -0.0175 0.2294 1.0760
H25 H -0.1042 0.3120 0.9499
C27 C 0.08628(19) 0.35686(15) 0.95884(15)
H26 H 0.1581 0.3304 1.0232
H27 H 0.0279 0.4450 0.9346
C1A C -0.17296(12) 0.22404(11) 1.31612(10)
H1A H -0.1086 0.1945 1.2730
C2A C -0.38054(12) 0.21518(11) 1.42493(10)
H2A H -0.4567 0.1798 1.4553
F1A F 0.25952(8) 0.04717(7) 1.19288(7)
C3A C -0.26099(14) -0.23377(13) 1.67250(11)
H3A H -0.2681 -0.2377 1.7459
C4A C -0.36370(13) 0.31535(12) 1.44250(11)
H4A H -0.4279 0.3459 1.4851
C5A C -0.21657(14) -0.33980(12) 1.55384(12)
H5A H -0.1933 -0.4153 1.5471
F2A F 0.13186(9) -0.32830(7) 1.27311(8)
N1A N 0.04022(9) -0.06407(8) 1.18623(8)
C6A C -0.42662(11) 0.15092(12) 1.07018(10)
H6A H -0.4735 0.0916 1.0675
H7A H -0.4680 0.1783 1.1260
H8A H -0.4408 0.2248 0.9941
O1A O -0.06560(9) -0.16674(8) 1.03749(7)
O2A O -0.19500(8) 0.08348(7) 1.02216(7)
C7A C -0.15669(14) 0.32446(12) 1.33374(12)
H9A H -0.0816 0.3611 1.3029
C8A C 0.23507(12) -0.26791(11) 1.26389(10)
C9A C 0.02116(11) -0.07332(11) 1.37711(9)
H10A H 0.1072 -0.0453 1.3701
H11A H -0.0478 -0.0335 1.4140
H12A H 0.0464 -0.1656 1.4237
C10A C -0.04528(10) -0.03481(9) 1.25678(9)
C11A C -0.22758(14) -0.34657(12) 1.66322(11)
H13A H -0.2127 -0.4262 1.7300
C12A C -0.28426(11) 0.16662(10) 1.36205(9)
P1A P -0.32627(3) 0.04905(3) 1.32563(2)
C13A C -0.26465(10) 0.08458(9) 1.10662(9)
C14A C -0.20043(10) 0.03104(10) 1.22339(9)
C15A C 0.44470(12) -0.14806(14) 1.25082(11)
H14A H 0.5149 -0.1068 1.2473
C16A C -0.25199(14) 0.37009(11) 1.39703(11)
H15A H -0.2410 0.4372 1.4090
C17A C 0.18824(10) -0.13640(10) 1.22858(9)
C18A C -0.15836(18) -0.34413(14) 1.14269(14)
H16A H -0.0951 -0.3989 1.2156
H17A H -0.2499 -0.3658 1.1514
C19A C -0.28401(12) -0.11439(12) 1.57268(10)
H18A H -0.3064 -0.0394 1.5802
C20A C -0.27398(11) -0.10580(11) 1.46142(9)
C21A C 0.29878(11) -0.08059(11) 1.22434(10)
C22A C -0.18260(14) -0.20261(12) 1.10632(12)
H19A H -0.1798 -0.1895 1.1746
H20A H -0.2762 -0.1514 1.0602
C23A C -0.23998(13) -0.22103(12) 1.45384(11)
H21A H -0.2330 -0.2180 1.3808
C24A C 0.37982(14) -0.33988(13) 1.28968(11)
H22A H 0.4061 -0.4276 1.3112
C25A C 0.48437(13) -0.27814(15) 1.28260(12)
H23A H 0.5824 -0.3247 1.2994
C26A C 0.00782(15) -0.26642(12) 1.00733(13)
H24A H 0.0175 -0.2294 0.9240
H25A H 0.1042 -0.3120 1.0501
C27A C -0.08628(19) -0.35686(15) 1.04116(15)
H26A H -0.1581 -0.3304 0.9768
H27A H -0.0279 -0.4450 1.0654
loop_
_geom_bond_atom_site_label_1
_geom_bond_atom_site_label_2
_geom_bond_site_symmetry_1
_geom_bond_site_symmetry_2
C1 H1 1_555 1_555
C2 H2 1_555 1_555
F1 C21 1_555 1_555
C3 H3 1_555 1_555
C4 C2 1_555 1_555
H4 C4 1_555 1_555
C5 H5 1_555 1_555
F2 C8 1_555 1_555
N1 Mg1 1_555 1_555
C6 H6 1_555 1_555
H7 C6 1_555 1_555
H8 C6 1_555 1_555
O1 Mg1 1_555 1_555
Mg1 O2 1_555 1_555
O2 C13 1_555 1_555
C7 C1 1_555 1_555
H9 C7 1_555 1_555
C8 C17 1_555 1_555
C9 H10 1_555 1_555
H11 C9 1_555 1_555
H12 C9 1_555 1_555
C10 N1 1_555 1_555
C11 C3 1_555 1_555
H13 C11 1_555 1_555
C12 C1 1_555 1_555
P1 C12 1_555 1_555
C13 C6 1_555 1_555
C14 C10 1_555 1_555
C15 H14 1_555 1_555
C16 C4 1_555 1_555
H15 C16 1_555 1_555
C17 N1 1_555 1_555
C18 H16 1_555 1_555
H17 C18 1_555 1_555
C19 C3 1_555 1_555
H18 C19 1_555 1_555
C20 P1 1_555 1_555
C21 C15 1_555 1_555
C22 O1 1_555 1_555
H19 C22 1_555 1_555
H20 C22 1_555 1_555
C23 C5 1_555 1_555
H21 C23 1_555 1_555
C24 C8 1_555 1_555
H22 C24 1_555 1_555
C25 C15 1_555 1_555
H23 C25 1_555 1_555
C26 O1 1_555 1_555
H24 C26 1_555 1_555
H25 C26 1_555 1_555
C27 C18 1_555 1_555
H26 C27 1_555 1_555
H27 C27 1_555 1_555
C1A H1A 1_555 1_555
C2A H2A 1_555 1_555
F1A C21A 1_555 1_555
C3A H3A 1_555 1_555
C4A C2A 1_555 1_555
H4A C4A 1_555 1_555
C5A H5A 1_555 1_555
F2A C8A 1_555 1_555
N1A Mg1 1_555 1_555
C6A H6A 1_555 1_555
H7A C6A 1_555 1_555
H8A C6A 1_555 1_555
O1A Mg1 1_555 1_555
O2A Mg1 1_555 1_555
C7A C1A 1_555 1_555
H9A C7A 1_555 1_555
C8A C17A 1_555 1_555
C9A H10A 1_555 1_555
H11A C9A 1_555 1_555
H12A C9A 1_555 1_555
C10A N1A 1_555 1_555
C11A C3A 1_555 1_555
H13A C11A 1_555 1_555
C12A C1A 1_555 1_555
P1A C12A 1_555 1_555
C13A C6A 1_555 1_555
C14A C10A 1_555 1_555
C15A H14A 1_555 1_555
C16A C4A 1_555 1_555
H15A C16A 1_555 1_555
C17A N1A 1_555 1_555
C18A H16A 1_555 1_555
H17A C18A 1_555 1_555
C19A C3A 1_555 1_555
H18A C19A 1_555 1_555
C20A P1A 1_555 1_555
C21A C15A 1_555 1_555
C22A O1A 1_555 1_555
H19A C22A 1_555 1_555
H20A C22A 1_555 1_555
C23A C5A 1_555 1_555
H21A C23A 1_555 1_555
C24A C8A 1_555 1_555
H22A C24A 1_555 1_555
C25A C15A 1_555 1_555
H23A C25A 1_555 1_555
C26A O1A 1_555 1_555
H24A C26A 1_555 1_555
H25A C26A 1_555 1_555
C27A C18A 1_555 1_555
H26A C27A 1_555 1_555
H27A C27A 1_555 1_555
C2 C12 1_555 1_555
C5 C11 1_555 1_555
C7 C16 1_555 1_555
C9 C10 1_555 1_555
P1 C14 1_555 1_555
C13 C14 1_555 1_555
C17 C21 1_555 1_555
C18 C22 1_555 1_555
C19 C20 1_555 1_555
C20 C23 1_555 1_555
C24 C25 1_555 1_555
C26 C27 1_555 1_555
C2A C12A 1_555 1_555
C5A C11A 1_555 1_555
O2A C13A 1_555 1_555
C7A C16A 1_555 1_555
C9A C10A 1_555 1_555
P1A C14A 1_555 1_555
C13A C14A 1_555 1_555
C17A C21A 1_555 1_555
C18A C22A 1_555 1_555
C19A C20A 1_555 1_555
C20A C23A 1_555 1_555
C24A C25A 1_555 1_555
C26A C27A 1_555 1_555

#END
