
#######################################################################
#
#                 Cambridge Crystallographic Data Centre
#                                CCDC 
#
#######################################################################
#
# If this CIF has been generated from an entry in the Cambridge 
# Structural Database, then it will include bibliographic, chemical, 
# crystal, experimental, refinement or atomic coordinate data resulting 
# from the CCDC's data processing and validation procedures.
#
#######################################################################

data_MHBACR11
_chemical_formula_moiety         'C28 H24 N2'
_chemical_name_systematic        
10,10'-Dimethyl-9,9',10,10'-tetrahydro-9,9'-biacridine
_symmetry_cell_setting           monoclinic
_symmetry_space_group_name_H-M   'P 21/c'
_symmetry_Int_Tables_number      14
_space_group_name_Hall           '-P 2ybc'
loop_
_symmetry_equiv_pos_site_id
_symmetry_equiv_pos_as_xyz
1 x,y,z
2 -x,1/2+y,1/2-z
3 -x,-y,-z
4 x,1/2-y,1/2+z
_cell_length_a                   12.190(8)
_cell_length_b                   5.566(3)
_cell_length_c                   18.721(9)
_cell_angle_alpha                90
_cell_angle_beta                 129.16(3)
_cell_angle_gamma                90
_cell_volume                     984.903
_exptl_crystal_description       block
_cell_formula_units_Z            2
loop_
_atom_site_label
_atom_site_type_symbol
_atom_site_fract_x
_atom_site_fract_y
_atom_site_fract_z
N1 N 0.4481(3) 0.2752(6) 0.3409(2)
C1 C 0.2507(4) -0.2270(7) 0.3401(3)
H1 H 0.2671(4) -0.3544(7) 0.3795(3)
C2 C 0.1186(4) -0.2064(8) 0.2542(3)
H2 H 0.0452(4) -0.3165(8) 0.2355(3)
C3 C 0.0953(4) -0.0218(8) 0.1959(3)
H3 H 0.0052(4) -0.0044(8) 0.1370(3)
C4 C 0.2040(4) 0.1373(7) 0.2240(3)
H4 H 0.1878(4) 0.2616(7) 0.1836(3)
C5 C 0.6979(4) 0.2866(7) 0.4098(3)
H5 H 0.6808(4) 0.4200(7) 0.3723(3)
C6 C 0.8328(4) 0.1905(8) 0.4699(3)
H6 H 0.9074(4) 0.2601(8) 0.4737(3)
C7 C 0.8603(4) -0.0047(8) 0.5245(3)
H7 H 0.9523(4) -0.0731(8) 0.5643(3)
C8 C 0.7504(4) -0.0989(7) 0.5198(3)
H8 H 0.7681(4) -0.2333(7) 0.5571(3)
C9 C 0.4994(4) -0.0816(7) 0.4649(2)
H9 H 0.5176(4) -0.2521(7) 0.4865(2)
C10 C 0.3599(4) -0.0677(7) 0.3704(2)
C11 C 0.3363(4) 0.1172(7) 0.3106(3)
C12 C 0.5875(4) 0.1899(7) 0.4038(3)
C13 C 0.6145(4) -0.0008(7) 0.4617(2)
C14 C 0.4231(4) 0.4719(7) 0.2803(3)
H10 H 0.4949(14) 0.5967(18) 0.3168(3)
H11 H 0.429(2) 0.4105(10) 0.2336(9)
H12 H 0.3289(10) 0.540(3) 0.2500(11)
N1B N 0.5519(3) -0.2752(6) 0.6591(2)
C1B C 0.7493(4) 0.2270(7) 0.6599(3)
H1B H 0.7329(4) 0.3544(7) 0.6205(3)
C2B C 0.8814(4) 0.2064(8) 0.7458(3)
H2B H 0.9548(4) 0.3165(8) 0.7645(3)
C3B C 0.9047(4) 0.0218(8) 0.8041(3)
H3B H 0.9948(4) 0.0044(8) 0.8630(3)
C4B C 0.7960(4) -0.1373(7) 0.7760(3)
H4B H 0.8122(4) -0.2616(7) 0.8164(3)
C5B C 0.3021(4) -0.2866(7) 0.5902(3)
H5B H 0.3192(4) -0.4200(7) 0.6277(3)
C6B C 0.1672(4) -0.1905(8) 0.5301(3)
H6B H 0.0926(4) -0.2601(8) 0.5263(3)
C7B C 0.1397(4) 0.0047(8) 0.4755(3)
H7B H 0.0477(4) 0.0731(8) 0.4357(3)
C8B C 0.2496(4) 0.0989(7) 0.4802(3)
H8B H 0.2319(4) 0.2333(7) 0.4429(3)
C9B C 0.5006(4) 0.0816(7) 0.5351(2)
H9B H 0.4824(4) 0.2521(7) 0.5135(2)
C10B C 0.6401(4) 0.0677(7) 0.6296(2)
C11B C 0.6637(4) -0.1172(7) 0.6894(3)
C12B C 0.4125(4) -0.1899(7) 0.5962(3)
C13B C 0.3855(4) 0.0008(7) 0.5383(2)
C14B C 0.5769(4) -0.4719(7) 0.7197(3)
H10B H 0.5051(14) -0.5967(18) 0.6832(3)
H11B H 0.571(2) -0.4105(10) 0.7664(9)
H12B H 0.6711(10) -0.540(3) 0.7500(11)
loop_
_geom_bond_atom_site_label_1
_geom_bond_atom_site_label_2
_geom_bond_site_symmetry_1
_geom_bond_site_symmetry_2
N1 C11 1_555 1_555
C1 H1 1_555 1_555
C2 C1 1_555 1_555
H2 C2 1_555 1_555
C3 C2 1_555 1_555
H3 C3 1_555 1_555
C4 C3 1_555 1_555
H4 C4 1_555 1_555
C5 H5 1_555 1_555
C6 C5 1_555 1_555
H6 C6 1_555 1_555
C7 C6 1_555 1_555
H7 C7 1_555 1_555
C8 C7 1_555 1_555
H8 C8 1_555 1_555
C9 H9 1_555 1_555
C10 C1 1_555 1_555
C11 C4 1_555 1_555
C12 N1 1_555 1_555
C13 C8 1_555 1_555
C14 N1 1_555 1_555
H10 C14 1_555 1_555
H11 C14 1_555 1_555
H12 C14 1_555 1_555
N1B C11B 1_555 1_555
C1B H1B 1_555 1_555
C2B C1B 1_555 1_555
H2B C2B 1_555 1_555
C3B C2B 1_555 1_555
H3B C3B 1_555 1_555
C4B C3B 1_555 1_555
H4B C4B 1_555 1_555
C5B H5B 1_555 1_555
C6B C5B 1_555 1_555
H6B C6B 1_555 1_555
C7B C6B 1_555 1_555
H7B C7B 1_555 1_555
C8B C7B 1_555 1_555
H8B C8B 1_555 1_555
C9B C9 1_555 1_555
H9B C9B 1_555 1_555
C10B C1B 1_555 1_555
C11B C4B 1_555 1_555
C12B N1B 1_555 1_555
C13B C8B 1_555 1_555
C14B N1B 1_555 1_555
H10B C14B 1_555 1_555
H11B C14B 1_555 1_555
H12B C14B 1_555 1_555
C5 C12 1_555 1_555
C9 C10 1_555 1_555
C9 C13 1_555 1_555
C10 C11 1_555 1_555
C12 C13 1_555 1_555
C5B C12B 1_555 1_555
C9B C10B 1_555 1_555
C9B C13B 1_555 1_555
C10B C11B 1_555 1_555
C12B C13B 1_555 1_555

#END
