
#######################################################################
#
#                 Cambridge Crystallographic Data Centre
#                                CCDC 
#
#######################################################################
#
# If this CIF has been generated from an entry in the Cambridge 
# Structural Database, then it will include bibliographic, chemical, 
# crystal, experimental, refinement or atomic coordinate data resulting 
# from the CCDC's data processing and validation procedures.
#
#######################################################################

data_MIBHIP
_chemical_formula_moiety         'C18 H21 N1 O4'
_chemical_name_systematic        
11,12-dimethoxy-5,6,9,13b-tetrahydro-4H-cyclopenta[a]pyrrolo[2,1-b][3]benzazepine-2,8(1H,3H)-dione
_symmetry_cell_setting           monoclinic
_symmetry_space_group_name_H-M   'P 21/c'
_symmetry_Int_Tables_number      14
_space_group_name_Hall           '-P 2ybc'
loop_
_symmetry_equiv_pos_site_id
_symmetry_equiv_pos_as_xyz
1 x,y,z
2 -x,1/2+y,1/2-z
3 -x,-y,-z
4 x,1/2-y,1/2+z
_cell_length_a                   8.576(2)
_cell_length_b                   7.6040(18)
_cell_length_c                   24.573(6)
_cell_angle_alpha                90
_cell_angle_beta                 99.323(4)
_cell_angle_gamma                90
_cell_volume                     1581.28
_chemical_melting_point          '222-224 deg.C'
_cell_formula_units_Z            4
loop_
_atom_site_label
_atom_site_type_symbol
_atom_site_fract_x
_atom_site_fract_y
_atom_site_fract_z
O1 O 0.20540(18) 1.2147(2) 0.28518(7)
O2 O 0.25741(19) 0.9344(2) 0.23085(6)
O3 O 0.7002(3) 0.6113(3) 0.53092(8)
O4 O 0.83728(19) 1.23338(19) 0.43887(7)
N1 N 0.86646(19) 0.9509(2) 0.41589(7)
C1 C 0.3193(2) 1.1034(3) 0.31116(9)
C2 C 0.3466(2) 0.9513(3) 0.28219(8)
C3 C 0.4569(2) 0.8303(3) 0.30591(8)
H1 H 0.4754 0.7301 0.2862
C4 C 0.5412(2) 0.8553(3) 0.35885(8)
C5 C 0.6499(2) 0.7120(3) 0.38604(8)
H2 H 0.6524 0.6207 0.3581
C6 C 0.5854(3) 0.6230(3) 0.43455(10)
H3 H 0.4936 0.6859 0.4428
H4 H 0.5551 0.5024 0.4253
C7 C 0.7159(3) 0.6281(3) 0.48308(10)
C8 C 0.8665(3) 0.6610(3) 0.46272(9)
H5 H 0.9181 0.5506 0.4570
H6 H 0.9369 0.7302 0.4893
C9 C 0.8266(2) 0.7613(2) 0.40814(8)
C10 C 0.9351(3) 0.7102(4) 0.36733(10)
H7 H 0.9533 0.5843 0.3677
H8 H 0.8909 0.7464 0.3302
C11 C 1.0871(3) 0.8098(4) 0.38832(11)
H9 H 1.1480 0.7513 0.4199
H10 H 1.1519 0.8224 0.3597
C12 C 1.0268(3) 0.9851(3) 0.40422(12)
H11 H 1.0939 1.0316 0.4366
H12 H 1.0238 1.0689 0.3743
C13 C 0.7829(3) 1.0835(3) 0.43317(8)
C14 C 0.6168(3) 1.0462(3) 0.44226(8)
H13 H 0.5750 1.1471 0.4593
H14 H 0.6161 0.9461 0.4667
C15 C 0.5153(2) 1.0077(3) 0.38731(8)
C16 C 0.4040(2) 1.1305(3) 0.36326(9)
H15 H 0.3866 1.2319 0.3826
C17 C 0.1829(3) 1.3765(3) 0.31141(12)
H16 H 0.1557 1.3540 0.3472
H17 H 0.0991 1.4410 0.2895
H18 H 0.2787 1.4440 0.3153
C18 C 0.2618(3) 0.7745(4) 0.20319(10)
H19 H 0.3685 0.7495 0.1984
H20 H 0.1959 0.7817 0.1677
H21 H 0.2241 0.6823 0.2244
loop_
_geom_bond_atom_site_label_1
_geom_bond_atom_site_label_2
_geom_bond_site_symmetry_1
_geom_bond_site_symmetry_2
O1 C1 1_555 1_555
O2 C2 1_555 1_555
O3 C7 1_555 1_555
O4 C13 1_555 1_555
N1 C9 1_555 1_555
C1 C2 1_555 1_555
C2 C3 1_555 1_555
C3 H1 1_555 1_555
C4 C3 1_555 1_555
C5 C4 1_555 1_555
H2 C5 1_555 1_555
C6 C5 1_555 1_555
H3 C6 1_555 1_555
H4 C6 1_555 1_555
C7 C6 1_555 1_555
C8 C7 1_555 1_555
H5 C8 1_555 1_555
H6 C8 1_555 1_555
C9 C5 1_555 1_555
C10 C9 1_555 1_555
H7 C10 1_555 1_555
H8 C10 1_555 1_555
C11 C10 1_555 1_555
H9 C11 1_555 1_555
H10 C11 1_555 1_555
C12 N1 1_555 1_555
H11 C12 1_555 1_555
H12 C12 1_555 1_555
C13 N1 1_555 1_555
C14 C13 1_555 1_555
H13 C14 1_555 1_555
H14 C14 1_555 1_555
C15 C4 1_555 1_555
C16 C1 1_555 1_555
H15 C16 1_555 1_555
C17 O1 1_555 1_555
H16 C17 1_555 1_555
H17 C17 1_555 1_555
H18 C17 1_555 1_555
C18 O2 1_555 1_555
H19 C18 1_555 1_555
H20 C18 1_555 1_555
H21 C18 1_555 1_555
C8 C9 1_555 1_555
C11 C12 1_555 1_555
C14 C15 1_555 1_555
C15 C16 1_555 1_555

#END
