
#######################################################################
#
#                 Cambridge Crystallographic Data Centre
#                                CCDC 
#
#######################################################################
#
# If this CIF has been generated from an entry in the Cambridge 
# Structural Database, then it will include bibliographic, chemical, 
# crystal, experimental, refinement or atomic coordinate data resulting 
# from the CCDC's data processing and validation procedures.
#
#######################################################################

data_MIBKIS
_chemical_name_common            
2-((3-Ammoniopropanoyl)amino)-3-phenylpropanoate
_chemical_formula_moiety         'C12 H16 N2 O3'
_chemical_name_systematic        \b-Alanyl-L-phenylalanine
_symmetry_cell_setting           monoclinic
_symmetry_space_group_name_H-M   'P 21'
_symmetry_Int_Tables_number      4
_space_group_name_Hall           'P 2yb'
loop_
_symmetry_equiv_pos_site_id
_symmetry_equiv_pos_as_xyz
1 x,y,z
2 -x,1/2+y,-z
_cell_length_a                   13.9345(12)
_cell_length_b                   5.5848(5)
_cell_length_c                   15.4060(13)
_cell_angle_alpha                90
_cell_angle_beta                 92.408(7)
_cell_angle_gamma                90
_cell_volume                     1197.86
_exptl_crystal_colour            white
_exptl_crystal_description       needle
_cell_formula_units_Z            4
loop_
_atom_site_label
_atom_site_type_symbol
_atom_site_fract_x
_atom_site_fract_y
_atom_site_fract_z
C1 C 0.81570(10) 0.4270(3) 0.43657(9)
H1 H 0.7876 0.5641 0.4646
H2 H 0.8258 0.3034 0.4802
C2 C 0.74367(9) 0.3332(2) 0.36565(9)
H3 H 0.7775 0.2279 0.3263
N1 N 0.70243(8) 0.5342(2) 0.31614(8)
H4 H 0.7105 0.6776 0.3354
C3 C 0.65230(10) 0.4988(3) 0.24131(10)
O1 O 0.64595(9) 0.3006(2) 0.20566(8)
C4 C 0.60291(10) 0.7175(3) 0.20178(10)
H5 H 0.5341 0.6906 0.1970
H6 H 0.6148 0.8550 0.2392
C5 C 0.64021(10) 0.7673(3) 0.11298(10)
H7 H 0.7089 0.7961 0.1181
H8 H 0.6294 0.6283 0.0761
N2 N 0.59183(8) 0.9783(2) 0.07239(8)
H9 H 0.5287 0.9536 0.0689
H10 H 0.6132 1.0002 0.0193
H11 H 0.6046 1.1076 0.1046
C6 C 0.91185(10) 0.4996(3) 0.40343(9)
C7 C 0.92577(11) 0.7170(3) 0.36073(10)
H12 H 0.8744 0.8216 0.3518
C8 C 1.01558(11) 0.7786(3) 0.33140(11)
H13 H 1.0236 0.9231 0.3026
C9 C 1.09355(11) 0.6246(3) 0.34506(11)
H14 H 1.1538 0.6660 0.3261
C10 C 1.07989(11) 0.4092(3) 0.38728(11)
H15 H 1.1314 0.3051 0.3964
C11 C 0.99061(10) 0.3469(3) 0.41610(10)
H16 H 0.9829 0.2014 0.4443
C12 C 0.66484(9) 0.1888(3) 0.40926(9)
O2 O 0.59975(7) 0.30433(19) 0.44373(8)
O3 O 0.67456(8) -0.03471(19) 0.41074(7)
C13 C 0.91884(10) 0.5454(3) -0.10065(10)
C14 C 0.94087(11) 0.7539(3) -0.14510(11)
H17 H 0.8932 0.8672 -0.1568
C15 C 1.03346(12) 0.7948(3) -0.17215(12)
H18 H 1.0471 0.9344 -0.2021
C16 C 1.10559(11) 0.6276(3) -0.15463(11)
H19 H 1.1678 0.6558 -0.1717
C17 C 1.08348(11) 0.4177(4) -0.11131(12)
H20 H 1.1310 0.3035 -0.1002
C18 C 0.99140(10) 0.3776(3) -0.08466(11)
H21 H 0.9777 0.2365 -0.0556
C19 C 0.82010(10) 0.4970(3) -0.06795(10)
H22 H 0.7976 0.6405 -0.0398
H23 H 0.8253 0.3719 -0.0244
C20 C 0.74408(9) 0.4208(3) -0.13868(9)
H24 H 0.7735 0.3136 -0.1803
C21 C 0.66551(10) 0.2868(3) -0.09174(9)
O4 O 0.60080(7) 0.4075(2) -0.05955(8)
O5 O 0.67508(9) 0.0634(2) -0.08368(8)
N3 N 0.70570(8) 0.6318(2) -0.18377(8)
H25 H 0.7085 0.7676 -0.1574
C22 C 0.66645(11) 0.6229(3) -0.26421(10)
O6 O 0.67078(10) 0.4481(2) -0.31292(8)
C23 C 0.61219(11) 0.8490(3) -0.29285(10)
H26 H 0.5439 0.8219 -0.2879
H27 H 0.6307 0.9789 -0.2538
C24 C 0.63066(11) 0.9237(3) -0.38454(10)
H28 H 0.6000 1.0769 -0.3962
H29 H 0.6992 0.9442 -0.3904
N4 N 0.59393(8) 0.7454(2) -0.44997(8)
H30 H 0.6192 0.6024 -0.4376
H31 H 0.6105 0.7905 -0.5027
H32 H 0.5302 0.7369 -0.4486
loop_
_geom_bond_atom_site_label_1
_geom_bond_atom_site_label_2
_geom_bond_site_symmetry_1
_geom_bond_site_symmetry_2
C1 H1 1_555 1_555
H2 C1 1_555 1_555
C2 C1 1_555 1_555
H3 C2 1_555 1_555
N1 C2 1_555 1_555
H4 N1 1_555 1_555
C3 N1 1_555 1_555
O1 C3 1_555 1_555
C4 C3 1_555 1_555
H5 C4 1_555 1_555
H6 C4 1_555 1_555
C5 C4 1_555 1_555
H7 C5 1_555 1_555
H8 C5 1_555 1_555
N2 C5 1_555 1_555
H9 N2 1_555 1_555
H10 N2 1_555 1_555
H11 N2 1_555 1_555
C6 C1 1_555 1_555
C7 C6 1_555 1_555
H12 C7 1_555 1_555
C8 C7 1_555 1_555
H13 C8 1_555 1_555
C9 C8 1_555 1_555
H14 C9 1_555 1_555
C10 C9 1_555 1_555
H15 C10 1_555 1_555
C11 C6 1_555 1_555
H16 C11 1_555 1_555
C12 C2 1_555 1_555
O2 C12 1_555 1_555
O3 C12 1_555 1_555
C13 C14 1_555 1_555
C14 H17 1_555 1_555
C15 C14 1_555 1_555
H18 C15 1_555 1_555
C16 C15 1_555 1_555
H19 C16 1_555 1_555
C17 C16 1_555 1_555
H20 C17 1_555 1_555
C18 C13 1_555 1_555
H21 C18 1_555 1_555
C19 C13 1_555 1_555
H22 C19 1_555 1_555
H23 C19 1_555 1_555
C20 C19 1_555 1_555
H24 C20 1_555 1_555
C21 C20 1_555 1_555
O4 C21 1_555 1_555
O5 C21 1_555 1_555
N3 C20 1_555 1_555
H25 N3 1_555 1_555
C22 N3 1_555 1_555
O6 C22 1_555 1_555
C23 C22 1_555 1_555
H26 C23 1_555 1_555
H27 C23 1_555 1_555
C24 C23 1_555 1_555
H28 C24 1_555 1_555
H29 C24 1_555 1_555
N4 C24 1_555 1_555
H30 N4 1_555 1_555
H31 N4 1_555 1_555
H32 N4 1_555 1_555
C10 C11 1_555 1_555
C17 C18 1_555 1_555

#END
