
#######################################################################
#
#                 Cambridge Crystallographic Data Centre
#                                CCDC 
#
#######################################################################
#
# If this CIF has been generated from an entry in the Cambridge 
# Structural Database, then it will include bibliographic, chemical, 
# crystal, experimental, refinement or atomic coordinate data resulting 
# from the CCDC's data processing and validation procedures.
#
#######################################################################

data_MICGIP
_chemical_formula_moiety         'C22 H34 N2 O12'
_chemical_name_systematic        
'Methyl 5-acetamido-2-hydroxy-4-(morpholin-4-yl)-7,8,9-tri-O-acetyl-3,5-dideoxy-\b-L-glycero-D-galacto-2-nonulopyranosidonate'
_symmetry_cell_setting           monoclinic
_symmetry_space_group_name_H-M   'P 21'
_symmetry_Int_Tables_number      4
_space_group_name_Hall           'P 2yb'
loop_
_symmetry_equiv_pos_site_id
_symmetry_equiv_pos_as_xyz
1 x,y,z
2 -x,1/2+y,-z
_cell_length_a                   12.069(2)
_cell_length_b                   10.4513(19)
_cell_length_c                   21.177(4)
_cell_angle_alpha                90
_cell_angle_beta                 103.400(4)
_cell_angle_gamma                90
_cell_volume                     2598.48
_exptl_crystal_colour            colorless
_exptl_crystal_description       prismatic
_chemical_melting_point          '454.2 K'
_cell_formula_units_Z            4
_exptl_crystal_recrystallization_method 'absolute ethanol'
loop_
_atom_site_label
_atom_site_type_symbol
_atom_site_fract_x
_atom_site_fract_y
_atom_site_fract_z
O1 O 0.8271(4) 0.2530(4) 0.1294(2)
O2 O 0.8459(3) 0.0791(3) 0.06466(18)
O3 O 0.4582(5) -0.1645(6) 0.2252(3)
O4 O 1.0459(4) 0.1960(5) 0.1715(3)
O5 O 1.0074(4) -0.0102(4) 0.1784(3)
O6 O 0.4967(4) -0.1762(4) -0.0050(2)
O7 O 0.7519(3) -0.0867(4) -0.04372(19)
O8 O 0.6054(5) -0.1090(5) -0.1294(2)
O9 O 0.8245(3) 0.2430(4) -0.0624(2)
O10 O 1.0132(5) 0.2541(6) -0.0260(3)
O11 O 0.9134(4) 0.1436(4) -0.1615(2)
O12 O 1.0341(5) -0.0140(5) -0.1270(3)
N1 N 0.5706(4) -0.0172(5) 0.1474(2)
N2 N 0.5370(4) 0.0350(5) 0.0104(2)
C1 C 0.8544(5) 0.1240(5) 0.1295(3)
C2 C 0.7757(5) 0.0497(6) 0.1601(3)
H2 H 0.7803 0.0824 0.2035
H3 H 0.7999 -0.0390 0.1640
C3 C 0.6524(4) 0.0566(5) 0.1213(3)
H4 H 0.6290 0.1465 0.1205
C4 C 0.6482(4) 0.0179(5) 0.0525(3)
H5 H 0.6675 -0.0732 0.0525
C5 C 0.7347(4) 0.0917(5) 0.0243(3)
H6 H 0.7138 0.1825 0.0226
C6 C 0.7373(5) 0.0493(5) -0.0440(3)
H7 H 0.6648 0.0715 -0.0737
C7 C 0.8334(5) 0.1067(5) -0.0687(3)
H8 H 0.9066 0.0767 -0.0425
C8 C 0.8243(5) 0.0763(7) -0.1404(3)
H9 H 0.8322 -0.0151 -0.1461
H10 H 0.7505 0.1028 -0.1661
C9 C 0.9806(6) 0.1081(6) 0.1619(3)
C10 C 1.1275(6) -0.0347(8) 0.2133(4)
H11 H 1.1347 -0.0246 0.2591
H12 H 1.1768 0.0249 0.1988
H13 H 1.1484 -0.1204 0.2045
C11 C 0.5394(6) 0.0355(7) 0.2040(3)
H14 H 0.5223 0.1258 0.1974
H15 H 0.6024 0.0264 0.2416
C12 C 0.4379(6) -0.0336(9) 0.2151(4)
H16 H 0.4163 0.0027 0.2526
H17 H 0.3748 -0.0216 0.1778
C13 C 0.4912(7) -0.2179(8) 0.1717(4)
H18 H 0.4289 -0.2105 0.1336
H19 H 0.5072 -0.3082 0.1797
C14 C 0.5951(6) -0.1531(6) 0.1586(3)
H20 H 0.6592 -0.1642 0.1954
H21 H 0.6146 -0.1909 0.1208
C15 C 0.4695(5) -0.0633(7) -0.0151(3)
C16 C 0.3600(6) -0.0248(8) -0.0602(4)
H22 H 0.2987 -0.0742 -0.0509
H23 H 0.3648 -0.0398 -0.1042
H24 H 0.3464 0.0645 -0.0544
C17 C 0.6810(7) -0.1539(6) -0.0899(4)
C18 C 0.7095(7) -0.2933(6) -0.0821(4)
H25 H 0.7490 -0.3190 -0.1145
H26 H 0.6406 -0.3421 -0.0872
H27 H 0.7572 -0.3082 -0.0398
C19 C 0.9237(7) 0.3065(7) -0.0378(4)
C20 C 0.8973(7) 0.4446(7) -0.0362(4)
H28 H 0.9556 0.4932 -0.0493
H29 H 0.8942 0.4686 0.0071
H30 H 0.8251 0.4616 -0.0652
C21 C 1.0155(7) 0.0890(7) -0.1489(3)
C22 C 1.1038(7) 0.1775(7) -0.1617(4)
H31 H 1.1558 0.1311 -0.1813
H32 H 1.1446 0.2147 -0.1216
H33 H 1.0681 0.2441 -0.1906
H66 H 0.886(6) 0.291(7) 0.122(3)
H67 H 0.508(5) 0.117(6) 0.015(3)
O13 O 0.2121(4) 0.1394(4) 0.3602(2)
H1 H 0.2540 0.1007 0.3414
O14 O 0.2836(3) 0.3132(4) 0.42592(19)
O15 O -0.2431(4) 0.5361(6) 0.2651(3)
O16 O 0.3943(6) 0.2088(6) 0.3171(3)
O17 O 0.3510(4) 0.4105(5) 0.3154(2)
O18 O 0.0024(4) 0.5628(4) 0.5052(2)
O19 O 0.2807(3) 0.4648(4) 0.5401(2)
O20 O 0.2187(5) 0.4693(6) 0.6320(3)
O21 O 0.3680(3) 0.1341(4) 0.55478(19)
O22 O 0.5065(6) 0.1062(6) 0.5039(4)
O23 O 0.5521(4) 0.2345(4) 0.6410(2)
O24 O 0.6553(5) 0.4061(5) 0.6350(3)
N3 N -0.0631(4) 0.3967(5) 0.3478(2)
N4 N 0.0224(4) 0.3536(5) 0.4847(3)
C23 C 0.2367(6) 0.2702(6) 0.3608(3)
C24 C 0.1338(5) 0.3443(7) 0.3323(3)
H34 H 0.1026 0.3152 0.2882
H35 H 0.1535 0.4340 0.3305
C25 C 0.0431(5) 0.3285(6) 0.3731(3)
H36 H 0.0250 0.2372 0.3740
C26 C 0.0994(5) 0.3693(5) 0.4425(3)
H37 H 0.1201 0.4599 0.4421
C27 C 0.2053(5) 0.2933(6) 0.4681(3)
H38 H 0.1851 0.2024 0.4672
C28 C 0.2656(5) 0.3279(5) 0.5352(3)
H39 H 0.2201 0.3000 0.5654
C29 C 0.3858(5) 0.2723(6) 0.5568(3)
H40 H 0.4319 0.2972 0.5263
C30 C 0.4457(5) 0.3061(7) 0.6243(3)
H41 H 0.4613 0.3973 0.6274
H42 H 0.3985 0.2848 0.6541
C31 C 0.3363(7) 0.2900(8) 0.3293(3)
C32 C 0.4450(7) 0.4436(9) 0.2857(4)
H43 H 0.4233 0.4265 0.2399
H44 H 0.5106 0.3932 0.3050
H45 H 0.4628 0.5327 0.2926
C33 C -0.1327(6) 0.3434(7) 0.2866(3)
H46 H -0.0956 0.3603 0.2515
H47 H -0.1390 0.2514 0.2908
C34 C -0.2474(6) 0.4009(8) 0.2714(4)
H48 H -0.2915 0.3647 0.2312
H49 H -0.2856 0.3798 0.3056
C35 C -0.1771(7) 0.5875(8) 0.3221(4)
H50 H -0.2140 0.5702 0.3573
H51 H -0.1736 0.6796 0.3173
C36 C -0.0558(6) 0.5346(7) 0.3404(4)
H52 H -0.0160 0.5544 0.3067
H53 H -0.0142 0.5727 0.3807
C37 C -0.0167(5) 0.4508(6) 0.5147(3)
C38 C -0.0853(7) 0.4131(8) 0.5629(4)
H54 H -0.1613 0.4462 0.5490
H55 H -0.0502 0.4476 0.6048
H56 H -0.0881 0.3215 0.5656
C39 C 0.2541(6) 0.5248(7) 0.5914(4)
C40 C 0.2764(7) 0.6642(7) 0.5880(4)
H57 H 0.3537 0.6820 0.6099
H58 H 0.2257 0.7108 0.6085
H59 H 0.2640 0.6898 0.5434
C41 C 0.4366(8) 0.0628(8) 0.5274(4)
C42 C 0.4135(8) -0.0727(8) 0.5342(4)
H60 H 0.4833 -0.1162 0.5535
H61 H 0.3814 -0.1086 0.4923
H62 H 0.3607 -0.0825 0.5615
C43 C 0.6473(7) 0.2945(8) 0.6425(4)
C44 C 0.7450(6) 0.2055(8) 0.6573(4)
H63 H 0.8146 0.2528 0.6616
H64 H 0.7383 0.1445 0.6227
H65 H 0.7458 0.1614 0.6972
H68 H 0.003(4) 0.285(5) 0.494(2)
loop_
_geom_bond_atom_site_label_1
_geom_bond_atom_site_label_2
_geom_bond_site_symmetry_1
_geom_bond_site_symmetry_2
O1 C1 1_555 1_555
O2 C1 1_555 1_555
O3 C12 1_555 1_555
O4 C9 1_555 1_555
O5 C9 1_555 1_555
O6 C15 1_555 1_555
O7 C6 1_555 1_555
O8 C17 1_555 1_555
O9 C7 1_555 1_555
O10 C19 1_555 1_555
O11 C8 1_555 1_555
O12 C21 1_555 1_555
O13 H1 1_555 1_555
O14 C23 1_555 1_555
O15 C34 1_555 1_555
O16 C31 1_555 1_555
O17 C31 1_555 1_555
O18 C37 1_555 1_555
O19 C28 1_555 1_555
O20 C39 1_555 1_555
O21 C29 1_555 1_555
O22 C41 1_555 1_555
O23 C30 1_555 1_555
O24 C43 1_555 1_555
N1 C3 1_555 1_555
N2 C4 1_555 1_555
N3 C25 1_555 1_555
N4 C26 1_555 1_555
C1 C2 1_555 1_555
C2 H2 1_555 1_555
H3 C2 1_555 1_555
C3 C2 1_555 1_555
H4 C3 1_555 1_555
C4 C3 1_555 1_555
H5 C4 1_555 1_555
C5 O2 1_555 1_555
H6 C5 1_555 1_555
C6 C5 1_555 1_555
H7 C6 1_555 1_555
C7 C6 1_555 1_555
H8 C7 1_555 1_555
C8 C7 1_555 1_555
H9 C8 1_555 1_555
H10 C8 1_555 1_555
C9 C1 1_555 1_555
C10 O5 1_555 1_555
H11 C10 1_555 1_555
H12 C10 1_555 1_555
H13 C10 1_555 1_555
C11 N1 1_555 1_555
H14 C11 1_555 1_555
H15 C11 1_555 1_555
C12 C11 1_555 1_555
H16 C12 1_555 1_555
H17 C12 1_555 1_555
C13 O3 1_555 1_555
H18 C13 1_555 1_555
H19 C13 1_555 1_555
C14 N1 1_555 1_555
H20 C14 1_555 1_555
H21 C14 1_555 1_555
C15 N2 1_555 1_555
C16 C15 1_555 1_555
H22 C16 1_555 1_555
H23 C16 1_555 1_555
H24 C16 1_555 1_555
C17 O7 1_555 1_555
C18 C17 1_555 1_555
H25 C18 1_555 1_555
H26 C18 1_555 1_555
H27 C18 1_555 1_555
C19 O9 1_555 1_555
C20 C19 1_555 1_555
H28 C20 1_555 1_555
H29 C20 1_555 1_555
H30 C20 1_555 1_555
C21 O11 1_555 1_555
C22 C21 1_555 1_555
H31 C22 1_555 1_555
H32 C22 1_555 1_555
H33 C22 1_555 1_555
C23 O13 1_555 1_555
C24 C23 1_555 1_555
H34 C24 1_555 1_555
H35 C24 1_555 1_555
C25 C24 1_555 1_555
H36 C25 1_555 1_555
C26 C25 1_555 1_555
H37 C26 1_555 1_555
C27 O14 1_555 1_555
H38 C27 1_555 1_555
C28 C27 1_555 1_555
H39 C28 1_555 1_555
C29 C28 1_555 1_555
H40 C29 1_555 1_555
C30 C29 1_555 1_555
H41 C30 1_555 1_555
H42 C30 1_555 1_555
C31 C23 1_555 1_555
C32 O17 1_555 1_555
H43 C32 1_555 1_555
H44 C32 1_555 1_555
H45 C32 1_555 1_555
C33 N3 1_555 1_555
H46 C33 1_555 1_555
H47 C33 1_555 1_555
C34 C33 1_555 1_555
H48 C34 1_555 1_555
H49 C34 1_555 1_555
C35 O15 1_555 1_555
H50 C35 1_555 1_555
H51 C35 1_555 1_555
C36 N3 1_555 1_555
H52 C36 1_555 1_555
H53 C36 1_555 1_555
C37 N4 1_555 1_555
C38 C37 1_555 1_555
H54 C38 1_555 1_555
H55 C38 1_555 1_555
H56 C38 1_555 1_555
C39 O19 1_555 1_555
C40 C39 1_555 1_555
H57 C40 1_555 1_555
H58 C40 1_555 1_555
H59 C40 1_555 1_555
C41 O21 1_555 1_555
C42 C41 1_555 1_555
H60 C42 1_555 1_555
H61 C42 1_555 1_555
H62 C42 1_555 1_555
C43 O23 1_555 1_555
C44 C43 1_555 1_555
H63 C44 1_555 1_555
H64 C44 1_555 1_555
H65 C44 1_555 1_555
H66 O1 1_555 1_555
H67 N2 1_555 1_555
H68 N4 1_555 1_555
C4 C5 1_555 1_555
C13 C14 1_555 1_555
C26 C27 1_555 1_555
C35 C36 1_555 1_555

#END
