
#######################################################################
#
#                 Cambridge Crystallographic Data Centre
#                                CCDC 
#
#######################################################################
#
# If this CIF has been generated from an entry in the Cambridge 
# Structural Database, then it will include bibliographic, chemical, 
# crystal, experimental, refinement or atomic coordinate data resulting 
# from the CCDC's data processing and validation procedures.
#
#######################################################################

data_MICKAL
_chemical_formula_moiety         'C12 H10 F9 N3'
_chemical_name_systematic        
6,7-difluoro-1,4-dimethyl-8-(1,2,2,2-tetrafluoro-1-(trifluoromethyl)ethyl)-1,2,3,4-tetrahydropyrido(2,3-b)pyrazine
_symmetry_cell_setting           monoclinic
_symmetry_space_group_name_H-M   'P 21/c'
_symmetry_Int_Tables_number      14
_space_group_name_Hall           '-P 2ybc'
loop_
_symmetry_equiv_pos_site_id
_symmetry_equiv_pos_as_xyz
1 x,y,z
2 -x,1/2+y,1/2-z
3 -x,-y,-z
4 x,1/2-y,1/2+z
_cell_length_a                   6.9634(5)
_cell_length_b                   13.5908(10)
_cell_length_c                   14.8672(11)
_cell_angle_alpha                90
_cell_angle_beta                 92.12(1)
_cell_angle_gamma                90
_cell_volume                     1406.04
_exptl_crystal_colour            colorless
_exptl_crystal_description       needle
_chemical_melting_point          57.9-58.5deg.C
_cell_formula_units_Z            4
_chemical_properties_physical    light-sensitive
_exptl_crystal_recrystallization_method n-hexane
loop_
_atom_site_label
_atom_site_type_symbol
_atom_site_fract_x
_atom_site_fract_y
_atom_site_fract_z
F1 F 0.2828(4) 0.72067(17) 0.40113(18)
F2 F 0.2486(4) 0.65195(17) 0.23305(16)
F3 F 0.2535(4) 0.34634(18) 0.18811(16)
F4 F 0.2647(4) 0.5715(2) 0.08077(17)
F5 F 0.5108(4) 0.5149(2) 0.15718(18)
F6 F 0.3681(5) 0.4261(2) 0.05427(18)
F7 F -0.0714(4) 0.5416(2) 0.16631(18)
F8 F -0.1085(4) 0.3933(2) 0.21481(17)
F9 F -0.0333(4) 0.4182(2) 0.07776(18)
N1 N 0.2602(5) 0.5694(2) 0.4617(2)
N2 N 0.2267(5) 0.3202(2) 0.3598(2)
N3 N 0.2349(5) 0.4172(2) 0.5277(2)
C1 C 0.2641(6) 0.6227(3) 0.3883(3)
C2 C 0.2497(6) 0.5876(3) 0.3024(3)
C3 C 0.2375(5) 0.4858(3) 0.2882(2)
C4 C 0.2387(5) 0.4251(3) 0.3641(3)
C5 C 0.1171(7) 0.2823(3) 0.4340(3)
C6 C 0.2045(7) 0.3109(3) 0.5253(3)
C7 C 0.2450(5) 0.4709(3) 0.4513(3)
C8 C 0.2090(6) 0.4452(3) 0.1919(3)
C9 C 0.3394(6) 0.4910(4) 0.1201(3)
C10 C -0.0051(7) 0.4493(3) 0.1616(3)
C11 C 0.4152(7) 0.2724(4) 0.3520(4)
C12 C 0.2537(7) 0.4637(4) 0.6155(3)
H1 H -0.016(8) 0.308(4) 0.422(3)
H2 H 0.115(7) 0.214(4) 0.433(3)
H3 H 0.323(7) 0.281(3) 0.536(3)
H4 H 0.118(8) 0.290(4) 0.567(4)
H5 H 0.393(7) 0.203(4) 0.336(3)
H6 H 0.495(8) 0.308(4) 0.297(4)
H7 H 0.487(6) 0.279(3) 0.413(3)
H8 H 0.354(10) 0.507(5) 0.620(4)
H9 H 0.264(8) 0.424(4) 0.661(4)
H10 H 0.138(11) 0.503(5) 0.632(4)
loop_
_geom_bond_atom_site_label_1
_geom_bond_atom_site_label_2
_geom_bond_site_symmetry_1
_geom_bond_site_symmetry_2
F1 C1 1_555 1_555
F2 C2 1_555 1_555
F3 C8 1_555 1_555
F4 C9 1_555 1_555
F5 C9 1_555 1_555
F6 C9 1_555 1_555
F7 C10 1_555 1_555
F8 C10 1_555 1_555
F9 C10 1_555 1_555
N1 C1 1_555 1_555
N2 C4 1_555 1_555
N3 C6 1_555 1_555
C1 C2 1_555 1_555
C2 C3 1_555 1_555
C3 C4 1_555 1_555
C4 C7 1_555 1_555
C5 N2 1_555 1_555
C6 C5 1_555 1_555
C7 N1 1_555 1_555
C8 C3 1_555 1_555
C9 C8 1_555 1_555
C10 C8 1_555 1_555
C11 N2 1_555 1_555
C12 N3 1_555 1_555
H1 C5 1_555 1_555
H2 C5 1_555 1_555
H3 C6 1_555 1_555
H4 C6 1_555 1_555
H5 C11 1_555 1_555
H6 C11 1_555 1_555
H7 C11 1_555 1_555
H8 C12 1_555 1_555
H9 C12 1_555 1_555
H10 C12 1_555 1_555
N3 C7 1_555 1_555

#END
