
#######################################################################
#
#                 Cambridge Crystallographic Data Centre
#                                CCDC 
#
#######################################################################
#
# If this CIF has been generated from an entry in the Cambridge 
# Structural Database, then it will include bibliographic, chemical, 
# crystal, experimental, refinement or atomic coordinate data resulting 
# from the CCDC's data processing and validation procedures.
#
#######################################################################

data_MIDPAT
_chemical_compound_source        'leaves of Artemisia lavandulaefolia'
_chemical_name_common            'Artelavanolide A'
_chemical_formula_moiety         'C15 H20 O6,H2 O1'
_chemical_name_systematic        
'7,8,9-trihydroxy-6a,9-dimethyl-3-methylidenedecahydroazuleno[4,5-b]furan-2,6-dione monohydrate'
_symmetry_cell_setting           monoclinic
_symmetry_space_group_name_H-M   'P 21'
_symmetry_Int_Tables_number      4
_space_group_name_Hall           'P 2yb'
loop_
_symmetry_equiv_pos_site_id
_symmetry_equiv_pos_as_xyz
1 x,y,z
2 -x,1/2+y,-z
_cell_length_a                   9.8759(2)
_cell_length_b                   8.20660(10)
_cell_length_c                   10.1061(2)
_cell_angle_alpha                90
_cell_angle_beta                 110.7420(10)
_cell_angle_gamma                90
_cell_volume                     765.986
_exptl_crystal_colour            colorless
_exptl_crystal_description       block
_cell_formula_units_Z            2
loop_
_atom_site_label
_atom_site_type_symbol
_atom_site_fract_x
_atom_site_fract_y
_atom_site_fract_z
O1 O 0.81483(18) 0.6592(2) 0.47513(17)
H1 H 0.877091 0.729339 0.506962
O2 O 0.98144(16) 0.3958(2) 0.46374(18)
H2 H 0.973175 0.436417 0.534613
O3 O 0.69567(17) 0.2241(2) 0.20877(17)
H3 H 0.655768 0.139894 0.219050
O4 O 0.40644(15) 0.2459(2) 0.23903(17)
O5 O 0.1995(2) 0.1087(3) 0.1934(3)
O6 O 0.6423(2) 0.8911(3) 0.2089(3)
C1 C 0.6539(2) 0.6069(3) 0.2371(2)
C2 C 0.8122(2) 0.6100(3) 0.3396(2)
H4 H 0.872746 0.680157 0.304935
C3 C 0.8566(2) 0.4310(3) 0.3447(2)
H5 H 0.881309 0.410373 0.260451
C4 C 0.7185(2) 0.3281(3) 0.3288(2)
C5 C 0.5975(2) 0.4589(2) 0.2990(2)
H6 H 0.594664 0.493037 0.390941
C6 C 0.4448(2) 0.4105(3) 0.2084(2)
H7 H 0.434805 0.416591 0.108549
C7 C 0.3272(2) 0.5157(3) 0.2318(2)
H8 H 0.349577 0.521216 0.334197
C8 C 0.3190(3) 0.6900(4) 0.1793(3)
H9 H 0.230411 0.739508 0.180841
H10 H 0.314977 0.689215 0.081976
C9 C 0.4487(3) 0.7940(3) 0.2687(4)
H11 H 0.420554 0.907788 0.255005
H12 H 0.469280 0.768633 0.367677
C10 C 0.5855(2) 0.7733(3) 0.2381(2)
C11 C 0.1992(3) 0.4040(4) 0.1728(3)
C12 C 0.2601(2) 0.2376(3) 0.2000(2)
C13 C 0.0615(3) 0.4343(5) 0.1042(3)
H13 H -0.003157 0.348721 0.069760
H14 H 0.028685 0.541376 0.089913
C14 C 0.6491(3) 0.5793(3) 0.0842(2)
H15 H 0.671324 0.467498 0.072688
H16 H 0.718951 0.648649 0.066169
H17 H 0.554106 0.604672 0.018731
C15 C 0.7335(3) 0.2274(4) 0.4593(3)
H18 H 0.644750 0.169904 0.444907
H19 H 0.754076 0.298060 0.539755
H20 H 0.811065 0.150630 0.475709
O7 O 1.0358(3) 0.4683(5) 0.7461(3)
H21 H 1.111771 0.521324 0.792304
H22 H 0.963833 0.507852 0.762739
loop_
_geom_bond_atom_site_label_1
_geom_bond_atom_site_label_2
_geom_bond_site_symmetry_1
_geom_bond_site_symmetry_2
O1 H1 1_555 1_555
O2 H2 1_555 1_555
O3 H3 1_555 1_555
O4 C6 1_555 1_555
O5 C12 1_555 1_555
O6 C10 1_555 1_555
C1 C2 1_555 1_555
C2 O1 1_555 1_555
H4 C2 1_555 1_555
C3 O2 1_555 1_555
H5 C3 1_555 1_555
C4 O3 1_555 1_555
C5 C1 1_555 1_555
H6 C5 1_555 1_555
C6 C5 1_555 1_555
H7 C6 1_555 1_555
C7 C6 1_555 1_555
H8 C7 1_555 1_555
C8 C7 1_555 1_555
H9 C8 1_555 1_555
H10 C8 1_555 1_555
C9 C8 1_555 1_555
H11 C9 1_555 1_555
H12 C9 1_555 1_555
C10 C1 1_555 1_555
C11 C7 1_555 1_555
C12 O4 1_555 1_555
C13 C11 1_555 1_555
H13 C13 1_555 1_555
H14 C13 1_555 1_555
C14 C1 1_555 1_555
H15 C14 1_555 1_555
H16 C14 1_555 1_555
H17 C14 1_555 1_555
C15 C4 1_555 1_555
H18 C15 1_555 1_555
H19 C15 1_555 1_555
H20 C15 1_555 1_555
O7 H21 1_555 1_555
H22 O7 1_555 1_555
C2 C3 1_555 1_555
C3 C4 1_555 1_555
C4 C5 1_555 1_555
C9 C10 1_555 1_555
C11 C12 1_555 1_555

#END
