
#######################################################################
#
#                 Cambridge Crystallographic Data Centre
#                                CCDC 
#
#######################################################################
#
# If this CIF has been generated from an entry in the Cambridge 
# Structural Database, then it will include bibliographic, chemical, 
# crystal, experimental, refinement or atomic coordinate data resulting 
# from the CCDC's data processing and validation procedures.
#
#######################################################################

data_MIDTOL
_chemical_name_common            
't-butyl (R)-3-((R)-1-(t-butoxy)-1,4-dioxo-4-phenylbutan-2-yl)-2-oxoindoline-1-carboxylate'
_chemical_formula_moiety         'C27 H31 N1 O6'
_chemical_name_systematic        
't-butyl (R)-3-((R)-1-t-butoxy-1,4-dioxo-4-phenylbutan-2-yl)-2-oxo-2,3-dihydro-1H-indole-1-carboxylate'
_symmetry_cell_setting           monoclinic
_symmetry_space_group_name_H-M   'P 21'
_symmetry_Int_Tables_number      4
_space_group_name_Hall           'P 2yb'
loop_
_symmetry_equiv_pos_site_id
_symmetry_equiv_pos_as_xyz
1 x,y,z
2 -x,1/2+y,-z
_cell_length_a                   11.7021(5)
_cell_length_b                   8.2640(3)
_cell_length_c                   13.0877(6)
_cell_angle_alpha                90
_cell_angle_beta                 97.202(2)
_cell_angle_gamma                90
_cell_volume                     1255.68
_exptl_crystal_colour            colorless
_exptl_crystal_description       block
_cell_formula_units_Z            2
_exptl_crystal_recrystallization_method 
'Re-crystallisation from solvent: ethanol/chloroform'
_exptl_crystal_preparation       'SADABS; (sheldrick, 2003)'
loop_
_atom_site_label
_atom_site_type_symbol
_atom_site_fract_x
_atom_site_fract_y
_atom_site_fract_z
O1 O -0.92571(8) -0.60131(13) -0.76783(7)
O2 O -0.76244(11) -0.39137(15) -0.48295(11)
O3 O -1.28189(10) -0.59330(15) -0.81650(9)
C1 C -1.00791(11) -0.73549(15) -0.59689(10)
H1 H -1.0272 -0.7550 -0.5272
C2 C -1.00146(11) -0.89776(15) -0.64805(10)
C3 C -0.82270(18) -0.4537(3) -0.89047(15)
H2 H -0.8655 -0.3590 -0.8762
H3 H -0.8069 -0.4507 -0.9607
H4 H -0.7515 -0.4565 -0.8453
O4 O -1.14847(10) -0.52339(13) -0.64442(9)
O5 O -1.29841(13) -0.85613(17) -0.86004(12)
C4 C -1.03587(17) -1.18471(19) -0.75400(13)
H5 H -1.0479 -1.2831 -0.7881
N1 N -1.16089(10) -0.77106(14) -0.73262(9)
C5 C -0.84665(11) -0.61427(16) -0.68540(10)
C6 C -0.92321(13) -1.02261(17) -0.62681(11)
H6 H -0.8601 -1.0106 -0.5767
C7 C -0.90252(11) -0.62430(15) -0.58700(9)
H7 H -0.9297 -0.5153 -0.5731
O6 O -0.74425(9) -0.61540(19) -0.68761(9)
C8 C -1.3610(2) -0.5795(3) -0.99964(17)
H8 H -1.2850 -0.5468 -1.0114
H9 H -1.4170 -0.5248 -1.0474
H10 H -1.3690 -0.6943 -1.0093
C9 C -1.09510(12) -0.91576(15) -0.72380(10)
C10 C -0.5656(2) -0.7202(3) -0.4062(2)
H11 H -0.6095 -0.8085 -0.4319
C11 C -1.49072(17) -0.6085(4) -0.8612(2)
H12 H -1.4903 -0.7233 -0.8721
H13 H -1.5553 -0.5614 -0.9033
H14 H -1.4967 -0.5865 -0.7900
C12 C -0.89266(13) -0.6036(2) -0.87353(10)
C13 C -1.25514(12) -0.7474(2) -0.80903(12)
C14 C -0.54582(19) -0.4347(4) -0.3750(2)
H15 H -0.5765 -0.3307 -0.3798
C15 C -0.94076(15) -1.16648(19) -0.68192(13)
H16 H -0.8879 -1.2505 -0.6699
C16 C -1.3717(2) -0.3552(3) -0.8735(2)
H17 H -1.3812 -0.3304 -0.8034
H18 H -1.4310 -0.3024 -0.9189
H19 H -1.2977 -0.3181 -0.8878
C17 C -1.00907(16) -0.6006(3) -0.93897(12)
H20 H -1.0513 -0.6965 -0.9260
H21 H -0.9984 -0.5966 -1.0105
H22 H -1.0513 -0.5069 -0.9219
C18 C -1.38015(14) -0.5361(2) -0.88982(16)
C19 C -0.73008(13) -0.5294(2) -0.46783(11)
C20 C -1.11448(15) -1.06036(18) -0.77729(12)
H23 H -1.1779 -1.0734 -0.8270
C21 C -0.81144(13) -0.66874(19) -0.49756(11)
H24 H -0.8491 -0.6997 -0.4386
H25 H -0.7677 -0.7611 -0.5169
C22 C -1.11285(11) -0.65646(16) -0.65847(10)
C23 C -0.8293(2) -0.7594(3) -0.89024(17)
H26 H -0.7548 -0.7574 -0.8500
H27 H -0.8202 -0.7699 -0.9618
H28 H -0.8726 -0.8496 -0.8695
C24 C -0.61170(14) -0.5647(3) -0.41544(12)
C25 C -0.4349(2) -0.4588(5) -0.3276(3)
H29 H -0.3907 -0.3714 -0.3012
C26 C -0.3897(2) -0.6141(6) -0.3197(2)
H30 H -0.3151 -0.6303 -0.2876
C27 C -0.4534(2) -0.7431(5) -0.3583(3)
H31 H -0.4220 -0.8466 -0.3527
loop_
_geom_bond_atom_site_label_1
_geom_bond_atom_site_label_2
_geom_bond_site_symmetry_1
_geom_bond_site_symmetry_2
O1 C5 1_555 1_555
O2 C19 1_555 1_555
O3 C13 1_555 1_555
C1 H1 1_555 1_555
C2 C1 1_555 1_555
C3 H2 1_555 1_555
H3 C3 1_555 1_555
H4 C3 1_555 1_555
O4 C22 1_555 1_555
O5 C13 1_555 1_555
C4 H5 1_555 1_555
N1 C9 1_555 1_555
C5 C7 1_555 1_555
C6 C2 1_555 1_555
H6 C6 1_555 1_555
C7 C1 1_555 1_555
H7 C7 1_555 1_555
O6 C5 1_555 1_555
C8 H8 1_555 1_555
H9 C8 1_555 1_555
H10 C8 1_555 1_555
C9 C2 1_555 1_555
C10 H11 1_555 1_555
C11 H12 1_555 1_555
H13 C11 1_555 1_555
H14 C11 1_555 1_555
C12 O1 1_555 1_555
C13 N1 1_555 1_555
C14 H15 1_555 1_555
C15 C4 1_555 1_555
H16 C15 1_555 1_555
C16 H17 1_555 1_555
H18 C16 1_555 1_555
H19 C16 1_555 1_555
C17 C12 1_555 1_555
H20 C17 1_555 1_555
H21 C17 1_555 1_555
H22 C17 1_555 1_555
C18 O3 1_555 1_555
C19 C21 1_555 1_555
C20 C4 1_555 1_555
H23 C20 1_555 1_555
C21 C7 1_555 1_555
H24 C21 1_555 1_555
H25 C21 1_555 1_555
C22 C1 1_555 1_555
C23 C12 1_555 1_555
H26 C23 1_555 1_555
H27 C23 1_555 1_555
H28 C23 1_555 1_555
C24 C10 1_555 1_555
C25 C14 1_555 1_555
H29 C25 1_555 1_555
C26 C25 1_555 1_555
H30 C26 1_555 1_555
C27 C10 1_555 1_555
H31 C27 1_555 1_555
C3 C12 1_555 1_555
N1 C22 1_555 1_555
C6 C15 1_555 1_555
C8 C18 1_555 1_555
C9 C20 1_555 1_555
C11 C18 1_555 1_555
C14 C24 1_555 1_555
C16 C18 1_555 1_555
C19 C24 1_555 1_555
C26 C27 1_555 1_555

#END
