
#######################################################################
#
#                 Cambridge Crystallographic Data Centre
#                                CCDC 
#
#######################################################################
#
# If this CIF has been generated from an entry in the Cambridge 
# Structural Database, then it will include bibliographic, chemical, 
# crystal, experimental, refinement or atomic coordinate data resulting 
# from the CCDC's data processing and validation procedures.
#
#######################################################################

data_MIDXUS01
_chemical_compound_source        'seeds of Millettia thonningii (Leguminosae)'
_chemical_name_common            O,O-Dimethylalpinumisoflavone
_chemical_formula_moiety         'C22 H20 O5'
_chemical_name_systematic        
5-Methoxy-2,2-dimethyl-7-(4-methoxyphenyl)-2H,6H-benzo(1,2-b:5,4-b')dipyran-6-one
_chemical_properties_biological  
'Millettia thonningii is used as medication against various diseases; lethal toxicity to brine shrimp nauplii'
_symmetry_cell_setting           monoclinic
_symmetry_space_group_name_H-M   'P 21/n'
_symmetry_Int_Tables_number      14
_space_group_name_Hall           '-P 2yn'
loop_
_symmetry_equiv_pos_site_id
_symmetry_equiv_pos_as_xyz
1 x,y,z
2 1/2-x,1/2+y,1/2-z
3 -x,-y,-z
4 1/2+x,1/2-y,1/2+z
_cell_length_a                   9.0604(7)
_cell_length_b                   19.0147(14)
_cell_length_c                   10.5963(8)
_cell_angle_alpha                90
_cell_angle_beta                 101.333(2)
_cell_angle_gamma                90
_cell_volume                     1789.94
_exptl_crystal_colour            colorless
_exptl_crystal_description       plate
_cell_formula_units_Z            4
_exptl_crystal_recrystallization_method ethanol
loop_
_atom_site_label
_atom_site_type_symbol
_atom_site_fract_x
_atom_site_fract_y
_atom_site_fract_z
O1 O 0.68549(7) 1.09157(3) -0.06942(6)
O2 O 0.74664(7) 0.91221(3) 0.24714(6)
O3 O 0.78319(7) 0.77658(3) 0.14572(7)
O4 O 0.61429(7) 0.85964(3) -0.20908(6)
O5 O 0.75398(7) 0.46379(3) -0.06885(7)
C1 C 0.70470(10) 1.21220(10) -0.02020(10)
C2 C 0.93600(10) 1.13610(10) 0.00950(10)
C3 C 0.77140(10) 1.14080(10) 0.02290(10)
C4 C 0.75440(10) 1.12290(10) 0.15780(10)
C5 C 0.73600(10) 1.05610(10) 0.19040(10)
C6 C 0.71960(10) 1.00090(10) 0.09180(10)
C7 C 0.71940(10) 0.92960(10) 0.12030(10)
C8 C 0.62950(10) 0.87510(10) 0.29220(10)
C9 C 0.69427(9) 0.87807(4) 0.02050(9)
C10 C 0.72480(10) 0.80240(10) 0.04130(10)
C11 C 0.68170(10) 0.75910(10) -0.07530(10)
C12 C 0.62730(10) 0.78970(10) -0.18950(10)
C13 C 0.65280(10) 0.90360(10) -0.10590(10)
C14 C 0.65090(10) 0.97470(10) -0.13750(10)
C15 C 0.69010(10) 1.02270(10) -0.03810(10)
C16 C 0.69650(10) 0.68110(10) -0.06950(10)
C17 C 0.83050(10) 0.64900(10) -0.00690(10)
C18 C 0.84690(10) 0.57660(10) -0.00840(10)
C19 C 0.72790(10) 0.53440(10) -0.07190(10)
C20 C 0.59380(10) 0.56550(10) -0.13370(10)
C21 C 0.57930(10) 0.63850(10) -0.13190(10)
C22 C 0.63370(10) 0.41960(10) -0.12850(10)
H1 H 0.7690(10) 1.2540(10) 0.0350(10)
H2 H 0.7070(10) 1.2230(10) -0.1210(10)
H3 H 0.5890(10) 1.2160(10) -0.0100(10)
H4 H 1.0020(10) 1.1720(10) 0.0750(10)
H5 H 0.9480(10) 1.1490(10) -0.0900(10)
H6 H 0.9780(10) 1.0850(10) 0.0340(10)
H7 H 0.7660(10) 1.1640(10) 0.2270(10)
H8 H 0.7270(10) 1.0410(10) 0.2860(10)
H9 H 0.645(2) 0.8790(10) 0.393(2)
H10 H 0.524(2) 0.8970(10) 0.259(2)
H11 H 0.622(2) 0.8250(10) 0.264(2)
H12 H 0.5910(10) 0.7630(10) -0.2790(10)
H13 H 0.6230(10) 0.9910(10) -0.2350(10)
H14 H 0.9230(10) 0.6820(10) 0.0420(10)
H15 H 0.9500(10) 0.5530(10) 0.0370(10)
H16 H 0.5070(10) 0.5280(10) -0.1860(10)
H17 H 0.4750(10) 0.6620(10) -0.1790(10)
H18 H 0.6770(10) 0.3670(10) -0.1130(10)
H19 H 0.6000(10) 0.4310(10) -0.2300(10)
H20 H 0.5380(10) 0.4260(10) -0.0850(10)
loop_
_geom_bond_atom_site_label_1
_geom_bond_atom_site_label_2
_geom_bond_site_symmetry_1
_geom_bond_site_symmetry_2
O1 C3 1_555 1_555
O2 C7 1_555 1_555
O3 C10 1_555 1_555
O4 C12 1_555 1_555
O5 C19 1_555 1_555
C1 C3 1_555 1_555
C2 C3 1_555 1_555
C3 C4 1_555 1_555
C4 C5 1_555 1_555
C5 C6 1_555 1_555
C6 C7 1_555 1_555
C7 C9 1_555 1_555
C8 O2 1_555 1_555
C9 C10 1_555 1_555
C10 C11 1_555 1_555
C11 C12 1_555 1_555
C12 H12 1_555 1_555
C13 O4 1_555 1_555
C14 C13 1_555 1_555
C15 O1 1_555 1_555
C16 C11 1_555 1_555
C17 C16 1_555 1_555
C18 C17 1_555 1_555
C19 C18 1_555 1_555
C20 C19 1_555 1_555
C21 C16 1_555 1_555
C22 O5 1_555 1_555
H1 C1 1_555 1_555
H2 C1 1_555 1_555
H3 C1 1_555 1_555
H4 C2 1_555 1_555
H5 C2 1_555 1_555
H6 C2 1_555 1_555
H7 C4 1_555 1_555
H8 C5 1_555 1_555
H9 C8 1_555 1_555
H10 C8 1_555 1_555
H11 C8 1_555 1_555
H13 C14 1_555 1_555
H14 C17 1_555 1_555
H15 C18 1_555 1_555
H16 C20 1_555 1_555
H17 C21 1_555 1_555
H18 C22 1_555 1_555
H19 C22 1_555 1_555
H20 C22 1_555 1_555
C6 C15 1_555 1_555
C9 C13 1_555 1_555
C14 C15 1_555 1_555
C20 C21 1_555 1_555

#END
