
#######################################################################
#
#                 Cambridge Crystallographic Data Centre
#                                CCDC 
#
#######################################################################
#
# If this CIF has been generated from an entry in the Cambridge 
# Structural Database, then it will include bibliographic, chemical, 
# crystal, experimental, refinement or atomic coordinate data resulting 
# from the CCDC's data processing and validation procedures.
#
#######################################################################

data_MIDYAZ01
_chemical_compound_source        'seeds of Millettia thonningii (Leguminosae)'
_chemical_name_common            
5-O-Methyl-4-O-(3-methylbut-2-en-1-yl)alpinumisoflavone
_chemical_formula_moiety         'C26 H26 O5'
_chemical_name_systematic        
5-Methoxy-2,2-dimethyl-7-(4-(3-methylbut-2-en-1-yloxy)phenyl)-2H,6H-benzo(1,2-b:5,4-b')dipyran-6-one
_chemical_properties_biological  
'Millettia thonningii is used as medication against various diseases; lethal toxicity to brine shrimp nauplii'
_symmetry_cell_setting           orthorhombic
_symmetry_space_group_name_H-M   'P n a 21'
_symmetry_Int_Tables_number      33
_space_group_name_Hall           'P 2c -2n'
loop_
_symmetry_equiv_pos_site_id
_symmetry_equiv_pos_as_xyz
1 x,y,z
2 -x,-y,1/2+z
3 1/2+x,1/2-y,z
4 1/2-x,1/2+y,1/2+z
_cell_length_a                   11.9602(3)
_cell_length_b                   18.6249(5)
_cell_length_c                   19.9648(5)
_cell_angle_alpha                90
_cell_angle_beta                 90
_cell_angle_gamma                90
_cell_volume                     4447.31
_exptl_crystal_colour            colorless
_exptl_crystal_description       prismatic
_cell_formula_units_Z            8
_exptl_crystal_recrystallization_method ethanol
loop_
_atom_site_label
_atom_site_type_symbol
_atom_site_fract_x
_atom_site_fract_y
_atom_site_fract_z
O1 O -0.18082 0.1252 0.05613
O2 O -0.06297(6) 0.19068(4) 0.15913(5)
O3 O 0.02915(6) 0.34507(4) 0.02485(5)
O4 O -0.18961(7) 0.25760(4) -0.14854(5)
O5 O 0.18883(6) 0.32327(4) 0.40191(5)
C1 C -0.13790(10) 0.16530(10) -0.22530(10)
C2 C -0.3200(2) 0.23230(10) -0.23360(10)
C3 C -0.23660(10) 0.19800(10) -0.18610(10)
C4 C -0.28780(10) 0.14230(10) -0.14140(10)
C5 C -0.26105(9) 0.13652(7) -0.07672(7)
C6 C -0.18224(8) 0.18739(6) -0.04674(6)
C7 C -0.14313(8) 0.18183(5) 0.01861(6)
C8 C -0.09850(10) 0.07140(10) 0.07000(10)
C9 C -0.07122(8) 0.23485(5) 0.04695(6)
C10 C -0.03685(8) 0.23669(5) 0.11778(6)
C11 C 0.03224(8) 0.29874(5) 0.13619(6)
C12 C 0.06065(9) 0.34754(6) 0.08950(6)
C13 C -0.03898(8) 0.29106(5) 0.00410(6)
C14 C -0.07480(9) 0.29748(6) -0.06211(6)
C15 C -0.14769(8) 0.24626(6) -0.08657(6)
C16 C 0.07430(8) 0.30722(5) 0.20576(6)
C17 C 0.00388(8) 0.29595(5) 0.26112(6)
C18 C 0.04454(8) 0.30276(5) 0.32565(6)
C19 C 0.15701(8) 0.32039(5) 0.33661(6)
C20 C 0.22756(9) 0.33279(6) 0.28205(6)
C21 C 0.18550(8) 0.32614(5) 0.21709(6)
C22 C 0.30120(10) 0.34290(10) 0.41640(10)
C23 C 0.31360(10) 0.33710(10) 0.49060(10)
C24 C 0.40740(10) 0.32470(10) 0.52410(10)
C25 C 0.4077(2) 0.32300(10) 0.59920(10)
C26 C 0.51930(10) 0.31320(10) 0.49210(10)
H1 H -0.106(2) 0.2070(10) -0.2600(10)
H2 H -0.183(2) 0.1280(10) -0.2530(10)
H3 H -0.074(2) 0.1380(10) -0.1890(10)
H4 H -0.3780(10) 0.2470(10) -0.1970(10)
H5 H -0.352(2) 0.1850(10) -0.2620(10)
H6 H -0.281(2) 0.2810(10) -0.2620(10)
H7 H -0.3440(10) 0.1090(10) -0.1630(10)
H8 H -0.2940(10) 0.0950(10) -0.0460(10)
H9 H -0.089(2) 0.0420(10) 0.0300(10)
H10 H -0.130(2) 0.0410(10) 0.1050(10)
H11 H -0.022(2) 0.0920(10) 0.0810(10)
H12 H 0.1120(10) 0.3930(10) 0.1010(10)
H13 H -0.0490(10) 0.3420(10) -0.0920(10)
H14 H -0.0800(10) 0.2820(10) 0.2540(10)
H15 H -0.0050(10) 0.2930(10) 0.3680(10)
H16 H 0.3130(10) 0.3470(10) 0.2890(10)
H17 H 0.2420(10) 0.3340(10) 0.1790(10)
H18 H 0.3110(10) 0.3990(10) 0.4000(10)
H19 H 0.3590(10) 0.3080(10) 0.3910(10)
H20 H 0.2380(10) 0.3450(10) 0.5180(10)
H21 H 0.457(2) 0.3630(10) 0.6190(10)
H22 H 0.441(2) 0.276(2) 0.6160(10)
H23 H 0.323(2) 0.3280(10) 0.6150(10)
H24 H 0.5210(10) 0.3130(10) 0.4380(10)
H25 H 0.549(2) 0.2630(10) 0.5030(10)
H26 H 0.577(2) 0.3510(10) 0.5110(10)
O6 O 0.99170(6) 0.52699(4) 0.36400(5)
O7 O 0.87410(7) 0.50555(4) 0.24591(5)
O8 O 0.70955(6) 0.34243(4) 0.33975(5)
O9 O 0.89903(6) 0.36799(4) 0.54250(5)
O10 O 0.67082(7) 0.44789(4) -0.03743(5)
C27 C 0.9941(2) 0.37090(10) 0.64650(10)
C28 C 0.84230(10) 0.45950(10) 0.62030(10)
C29 C 0.94210(10) 0.41780(10) 0.59270(10)
C30 C 1.02682(9) 0.46809(6) 0.56291(7)
C31 C 1.02819(9) 0.48351(6) 0.49754(7)
C32 C 0.94540(8) 0.45005(5) 0.45326(6)
C33 C 0.92961(8) 0.47054(5) 0.38697(6)
C34 C 1.08600(10) 0.50720(10) 0.32400(10)
C35 C 0.84952(8) 0.43614(5) 0.34508(6)
C36 C 0.82822(8) 0.45517(5) 0.27458(6)
C37 C 0.74724(8) 0.40859(5) 0.23991(6)
C38 C 0.69248(8) 0.35727(5) 0.27443(6)
C39 C 0.78900(8) 0.37955(5) 0.37423(6)
C40 C 0.80436(8) 0.35673(6) 0.44023(6)
C41 C 0.88177(8) 0.39265(6) 0.47935(6)
C42 C 0.72582(8) 0.41719(5) 0.16706(6)
C43 C 0.70572(8) 0.48509(5) 0.13898(6)
C44 C 0.68614(9) 0.49260(6) 0.07104(6)
C45 C 0.68653(8) 0.43282(6) 0.02881(6)
C46 C 0.70414(8) 0.36457(6) 0.05586(6)
C47 C 0.72411(8) 0.35762(5) 0.12445(6)
C48 C 0.63680(10) 0.39130(10) -0.08140(10)
C49 C 0.63172(9) 0.42070(7) -0.15122(6)
C50 C 0.56025(9) 0.47010(6) -0.17346(6)
C51 C 0.56280(10) 0.49630(10) -0.24450(10)
C52 C 0.47090(10) 0.50330(10) -0.13040(10)
H27 H 0.9310(10) 0.3330(10) 0.6700(10)
H28 H 1.0210(10) 0.4070(10) 0.6820(10)
H29 H 1.058(2) 0.3410(10) 0.6230(10)
H30 H 0.8100(10) 0.4910(10) 0.5810(10)
H31 H 0.868(2) 0.4970(10) 0.6580(10)
H32 H 0.7810(10) 0.4240(10) 0.6410(10)
H33 H 1.0860(10) 0.4930(10) 0.5990(10)
H34 H 1.0860(10) 0.5220(10) 0.4760(10)
H35 H 1.147(2) 0.4850(10) 0.3570(10)
H36 H 1.111(2) 0.5520(10) 0.3030(10)
H37 H 1.0660(10) 0.4680(10) 0.2900(10)
H38 H 0.6320(10) 0.3240(10) 0.2520(10)
H39 H 0.7570(10) 0.3140(10) 0.4590(10)
H40 H 0.7070(10) 0.5340(10) 0.1710(10)
H41 H 0.6710(10) 0.5440(10) 0.0500(10)
H42 H 0.7030(10) 0.3200(10) 0.0230(10)
H43 H 0.7420(10) 0.3040(10) 0.1440(10)
H44 H 0.5530(10) 0.3720(10) -0.0620(10)
H45 H 0.6960(10) 0.3480(10) -0.0790(10)
H46 H 0.6900(10) 0.4020(10) -0.1880(10)
H47 H 0.629(2) 0.4730(10) -0.2720(10)
H48 H 0.573(2) 0.5540(10) -0.2470(10)
H49 H 0.487(2) 0.4860(10) -0.2680(10)
H50 H 0.468(2) 0.4860(10) -0.0820(10)
H51 H 0.384(2) 0.4910(10) -0.1530(10)
H52 H 0.478(2) 0.5600(10) -0.1270(10)
loop_
_geom_bond_atom_site_label_1
_geom_bond_atom_site_label_2
_geom_bond_site_symmetry_1
_geom_bond_site_symmetry_2
O1 C7 1_555 1_555
O2 C10 1_555 1_555
O3 C12 1_555 1_555
O4 C3 1_555 1_555
O5 C19 1_555 1_555
O6 C33 1_555 1_555
O7 C36 1_555 1_555
O8 C38 1_555 1_555
O9 C29 1_555 1_555
O10 C45 1_555 1_555
C1 C3 1_555 1_555
C2 C3 1_555 1_555
C3 C4 1_555 1_555
C4 C5 1_555 1_555
C5 C6 1_555 1_555
C6 C7 1_555 1_555
C7 C9 1_555 1_555
C8 O1 1_555 1_555
C9 C10 1_555 1_555
C10 C11 1_555 1_555
C11 C12 1_555 1_555
C12 H12 1_555 1_555
C13 O3 1_555 1_555
C14 C13 1_555 1_555
C15 O4 1_555 1_555
C16 C11 1_555 1_555
C17 C16 1_555 1_555
C18 C17 1_555 1_555
C19 C18 1_555 1_555
C20 C19 1_555 1_555
C21 C16 1_555 1_555
C22 O5 1_555 1_555
C23 C22 1_555 1_555
C24 C23 1_555 1_555
C25 C24 1_555 1_555
C26 C24 1_555 1_555
C27 C29 1_555 1_555
C28 C29 1_555 1_555
C29 C30 1_555 1_555
C30 C31 1_555 1_555
C31 C32 1_555 1_555
C32 C33 1_555 1_555
C33 C35 1_555 1_555
C34 O6 1_555 1_555
C35 C36 1_555 1_555
C36 C37 1_555 1_555
C37 C38 1_555 1_555
C38 H38 1_555 1_555
C39 O8 1_555 1_555
C40 C39 1_555 1_555
C41 O9 1_555 1_555
C42 C37 1_555 1_555
C43 C42 1_555 1_555
C44 C43 1_555 1_555
C45 C44 1_555 1_555
C46 C45 1_555 1_555
C47 C42 1_555 1_555
C48 O10 1_555 1_555
C49 C48 1_555 1_555
C50 C49 1_555 1_555
C51 C50 1_555 1_555
C52 C50 1_555 1_555
H1 C1 1_555 1_555
H2 C1 1_555 1_555
H3 C1 1_555 1_555
H4 C2 1_555 1_555
H5 C2 1_555 1_555
H6 C2 1_555 1_555
H7 C4 1_555 1_555
H8 C5 1_555 1_555
H9 C8 1_555 1_555
H10 C8 1_555 1_555
H11 C8 1_555 1_555
H13 C14 1_555 1_555
H14 C17 1_555 1_555
H15 C18 1_555 1_555
H16 C20 1_555 1_555
H17 C21 1_555 1_555
H18 C22 1_555 1_555
H19 C22 1_555 1_555
H20 C23 1_555 1_555
H21 C25 1_555 1_555
H22 C25 1_555 1_555
H23 C25 1_555 1_555
H24 C26 1_555 1_555
H25 C26 1_555 1_555
H26 C26 1_555 1_555
H27 C27 1_555 1_555
H28 C27 1_555 1_555
H29 C27 1_555 1_555
H30 C28 1_555 1_555
H31 C28 1_555 1_555
H32 C28 1_555 1_555
H33 C30 1_555 1_555
H34 C31 1_555 1_555
H35 C34 1_555 1_555
H36 C34 1_555 1_555
H37 C34 1_555 1_555
H39 C40 1_555 1_555
H40 C43 1_555 1_555
H41 C44 1_555 1_555
H42 C46 1_555 1_555
H43 C47 1_555 1_555
H44 C48 1_555 1_555
H45 C48 1_555 1_555
H46 C49 1_555 1_555
H47 C51 1_555 1_555
H48 C51 1_555 1_555
H49 C51 1_555 1_555
H50 C52 1_555 1_555
H51 C52 1_555 1_555
H52 C52 1_555 1_555
C6 C15 1_555 1_555
C9 C13 1_555 1_555
C14 C15 1_555 1_555
C20 C21 1_555 1_555
C32 C41 1_555 1_555
C35 C39 1_555 1_555
C40 C41 1_555 1_555
C46 C47 1_555 1_555

#END
