
#######################################################################
#
#                 Cambridge Crystallographic Data Centre
#                                CCDC 
#
#######################################################################
#
# If this CIF has been generated from an entry in the Cambridge 
# Structural Database, then it will include bibliographic, chemical, 
# crystal, experimental, refinement or atomic coordinate data resulting 
# from the CCDC's data processing and validation procedures.
#
#######################################################################

data_MIDYED
_chemical_formula_moiety         'C24 H20 O2'
_chemical_name_systematic        
1-(1-Methyl-2,3-dihydro-1H-benzo(f)chromene-3-yl)-2-naphthol
_symmetry_cell_setting           monoclinic
_symmetry_space_group_name_H-M   'P 21/c'
_symmetry_Int_Tables_number      14
_space_group_name_Hall           '-P 2ybc'
loop_
_symmetry_equiv_pos_site_id
_symmetry_equiv_pos_as_xyz
1 x,y,z
2 -x,1/2+y,1/2-z
3 -x,-y,-z
4 x,1/2-y,1/2+z
_cell_length_a                   7.56720(10)
_cell_length_b                   7.97840(10)
_cell_length_c                   28.80290(10)
_cell_angle_alpha                90
_cell_angle_beta                 92.4410(1)
_cell_angle_gamma                90
_cell_volume                     1737.37
_exptl_crystal_colour            colorless
_exptl_crystal_description       parallelepiped
_chemical_melting_point          205deg.C
_cell_formula_units_Z            4
loop_
_atom_site_label
_atom_site_type_symbol
_atom_site_fract_x
_atom_site_fract_y
_atom_site_fract_z
O1 O -0.24693(16) 0.99751(18) 0.10117(5)
H1 H -0.1808 0.9373 0.0867
C1 C 0.4174(3) 0.6407(3) 0.14494(6)
H2 H 0.4883 0.5575 0.1305
H3 H 0.4258 0.6264 0.1780
H4 H 0.4590 0.7504 0.1371
O2 O 0.06744(15) 0.90198(12) 0.07468(3)
C2 C 0.2240(2) 0.62143(19) 0.12761(5)
H5 H 0.1820 0.5119 0.1379
C3 C 0.1065(2) 0.75622(19) 0.14813(5)
H6 H -0.0161 0.7208 0.1455
H7 H 0.1386 0.7710 0.1808
C4 C 0.1277(2) 0.92132(18) 0.12275(5)
H8 H 0.2535 0.9507 0.1237
C5 C 0.3073(2) 0.3613(2) -0.02839(6)
H9 H 0.3007 0.3682 -0.0606
C6 C 0.3730(2) 0.2198(2) -0.00775(7)
H10 H 0.4122 0.1316 -0.0258
C7 C 0.3810(2) 0.2076(2) 0.04066(7)
H11 H 0.4238 0.1100 0.0547
C8 C 0.3271(2) 0.3368(2) 0.06762(6)
H12 H 0.3335 0.3257 0.0998
C9 C 0.26130(19) 0.48797(17) 0.04747(5)
C10 C 0.24893(19) 0.49813(18) -0.00191(5)
C11 C 0.1764(2) 0.6440(2) -0.02299(5)
H13 H 0.1681 0.6518 -0.0552
C12 C 0.1188(2) 0.77294(19) 0.00308(5)
H14 H 0.0695 0.8675 -0.0112
C13 C 0.13406(19) 0.76284(17) 0.05189(5)
C14 C 0.20503(19) 0.62639(17) 0.07488(5)
C15 C 0.2889(2) 1.1421(2) 0.19536(6)
H15 H 0.3562 1.0589 0.1820
C16 C 0.3639(3) 1.2381(3) 0.23013(7)
H16 H 0.4808 1.2193 0.2400
C17 C 0.2669(4) 1.3643(3) 0.25099(7)
H17 H 0.3186 1.4286 0.2748
C18 C 0.0976(3) 1.3924(2) 0.23638(7)
H18 H 0.0343 1.4777 0.2501
C19 C 0.0140(3) 1.2956(2) 0.20070(6)
C20 C 0.1116(2) 1.16577(18) 0.17907(5)
C21 C 0.0266(2) 1.06404(18) 0.14376(5)
C22 C -0.1494(2) 1.0921(2) 0.13231(6)
C23 C -0.2437(3) 1.2233(2) 0.15299(7)
H19 H -0.3613 1.2423 0.1438
C24 C -0.1645(3) 1.3214(2) 0.18595(7)
H20 H -0.2285 1.4073 0.1992
loop_
_geom_bond_atom_site_label_1
_geom_bond_atom_site_label_2
_geom_bond_site_symmetry_1
_geom_bond_site_symmetry_2
O1 H1 1_555 1_555
C1 H2 1_555 1_555
H3 C1 1_555 1_555
H4 C1 1_555 1_555
O2 C4 1_555 1_555
C2 C1 1_555 1_555
H5 C2 1_555 1_555
C3 C2 1_555 1_555
H6 C3 1_555 1_555
H7 C3 1_555 1_555
C4 C3 1_555 1_555
H8 C4 1_555 1_555
C5 H9 1_555 1_555
C6 C5 1_555 1_555
H10 C6 1_555 1_555
C7 C6 1_555 1_555
H11 C7 1_555 1_555
C8 C7 1_555 1_555
H12 C8 1_555 1_555
C9 C8 1_555 1_555
C10 C5 1_555 1_555
C11 C10 1_555 1_555
H13 C11 1_555 1_555
C12 C11 1_555 1_555
H14 C12 1_555 1_555
C13 O2 1_555 1_555
C14 C2 1_555 1_555
C15 H15 1_555 1_555
C16 C15 1_555 1_555
H16 C16 1_555 1_555
C17 C16 1_555 1_555
H17 C17 1_555 1_555
C18 C17 1_555 1_555
H18 C18 1_555 1_555
C19 C18 1_555 1_555
C20 C15 1_555 1_555
C21 C4 1_555 1_555
C22 O1 1_555 1_555
C23 C22 1_555 1_555
H19 C23 1_555 1_555
C24 C19 1_555 1_555
H20 C24 1_555 1_555
C9 C10 1_555 1_555
C9 C14 1_555 1_555
C12 C13 1_555 1_555
C13 C14 1_555 1_555
C19 C20 1_555 1_555
C20 C21 1_555 1_555
C21 C22 1_555 1_555
C23 C24 1_555 1_555

#END
