
#######################################################################
#
#                 Cambridge Crystallographic Data Centre
#                                CCDC 
#
#######################################################################
#
# If this CIF has been generated from an entry in the Cambridge 
# Structural Database, then it will include bibliographic, chemical, 
# crystal, experimental, refinement or atomic coordinate data resulting 
# from the CCDC's data processing and validation procedures.
#
#######################################################################

data_MIFNAT
_chemical_formula_moiety         'C30 H30 N4'
_chemical_name_systematic        
1,1',3,3'-tetramethyl-2,2'-diphenyl-2,2',3,3'-tetrahydro-1H,1'H-2,2'-bibenzimidazole
_symmetry_cell_setting           monoclinic
_symmetry_space_group_name_H-M   'P 21/c'
_symmetry_Int_Tables_number      14
_space_group_name_Hall           '-P 2ybc'
loop_
_symmetry_equiv_pos_site_id
_symmetry_equiv_pos_as_xyz
1 x,y,z
2 -x,1/2+y,1/2-z
3 -x,-y,-z
4 x,1/2-y,1/2+z
_cell_length_a                   10.3038(7)
_cell_length_b                   16.3680(12)
_cell_length_c                   7.0296(5)
_cell_angle_alpha                90
_cell_angle_beta                 104.6300(19)
_cell_angle_gamma                90
_cell_volume                     1147.12
_exptl_crystal_colour            colorless
_exptl_crystal_description       parallelepiped
_cell_formula_units_Z            2
loop_
_atom_site_label
_atom_site_type_symbol
_atom_site_fract_x
_atom_site_fract_y
_atom_site_fract_z
N1 N 0.38162(15) 0.57643(9) 0.8390(2)
N2 N 0.34390(15) 0.50046(9) 1.0978(2)
C1 C 0.42276(18) 0.49823(11) 0.9471(3)
C2 C 0.37524(18) 0.42444(11) 0.8072(3)
C3 C 0.23724(19) 0.42190(12) 0.7179(3)
H1 H 0.181 0.4637 0.7465
C4 C 0.1807(2) 0.35999(12) 0.5889(3)
H2 H 0.0871 0.36 0.5294
C5 C 0.2609(2) 0.29804(12) 0.5467(3)
H3 H 0.2227 0.2552 0.4592
C6 C 0.3967(2) 0.29944(11) 0.6335(3)
H4 H 0.4523 0.2572 0.6051
C7 C 0.45364(19) 0.36195(11) 0.7621(3)
H5 H 0.5475 0.3618 0.8199
C8 C 0.24639(18) 0.56102(11) 1.0480(3)
C9 C 0.26971(18) 0.60773(11) 0.8936(3)
C10 C 0.18759(19) 0.67189(12) 0.8146(3)
H6 H 0.2038 0.7037 0.7098
C11 C 0.0787(2) 0.68849(13) 0.8950(3)
H7 H 0.0206 0.7327 0.8445
C12 C 0.0548(2) 0.64211(13) 1.0449(3)
H8 H -0.02 0.6546 1.0957
C13 C 0.13831(19) 0.57680(12) 1.1243(3)
H9 H 0.1211 0.5444 1.2274
C14 C 0.30814(19) 0.42536(12) 1.1839(3)
H10 H 0.3144 0.4342 1.3239
H11 H 0.3698 0.3816 1.1692
H12 H 0.2161 0.4098 1.1166
C15 C 0.3806(2) 0.58377(12) 0.6312(3)
H13 H 0.2905 0.5715 0.5498
H14 H 0.445 0.5451 0.6004
H15 H 0.4055 0.6396 0.6043
N1B N 0.61838(15) 0.42357(9) 1.1610(2)
N2B N 0.65610(15) 0.49954(9) 0.9022(2)
C1B C 0.57724(18) 0.50177(11) 1.0529(3)
C2B C 0.62476(18) 0.57556(11) 1.1928(3)
C3B C 0.76276(19) 0.57810(12) 1.2821(3)
H1B H 0.819 0.5363 1.2535
C4B C 0.8193(2) 0.64001(12) 1.4111(3)
H2B H 0.9129 0.64 1.4706
C5B C 0.7391(2) 0.70196(12) 1.4533(3)
H3B H 0.7773 0.7448 1.5408
C6B C 0.6033(2) 0.70056(11) 1.3665(3)
H4B H 0.5477 0.7428 1.3949
C7B C 0.54636(19) 0.63805(11) 1.2379(3)
H5B H 0.4525 0.6382 1.1801
C8B C 0.75361(18) 0.43898(11) 0.9520(3)
C9B C 0.73029(18) 0.39227(11) 1.1064(3)
C10B C 0.81241(19) 0.32811(12) 1.1854(3)
H6B H 0.7962 0.2963 1.2902
C11B C 0.9213(2) 0.31151(13) 1.1050(3)
H7B H 0.9794 0.2673 1.1555
C12B C 0.9452(2) 0.35789(13) 0.9551(3)
H8B H 1.02 0.3454 0.9043
C13B C 0.86169(19) 0.42320(12) 0.8757(3)
H9B H 0.8789 0.4556 0.7726
C14B C 0.69186(19) 0.57464(12) 0.8161(3)
H10B H 0.6856 0.5658 0.6761
H11B H 0.6302 0.6184 0.8308
H12B H 0.7839 0.5902 0.8834
C15B C 0.6194(2) 0.41623(12) 1.3688(3)
H13B H 0.7095 0.4285 1.4502
H14B H 0.555 0.4549 1.3996
H15B H 0.5945 0.3604 1.3957
loop_
_geom_bond_atom_site_label_1
_geom_bond_atom_site_label_2
_geom_bond_site_symmetry_1
_geom_bond_site_symmetry_2
N1 C1 1_555 1_555
N2 C1 1_555 1_555
C1 C2 1_555 1_555
C2 C3 1_555 1_555
C3 H1 1_555 1_555
C4 C3 1_555 1_555
H2 C4 1_555 1_555
C5 C4 1_555 1_555
H3 C5 1_555 1_555
C6 C5 1_555 1_555
H4 C6 1_555 1_555
C7 C2 1_555 1_555
H5 C7 1_555 1_555
C8 N2 1_555 1_555
C9 N1 1_555 1_555
C10 C9 1_555 1_555
H6 C10 1_555 1_555
C11 C10 1_555 1_555
H7 C11 1_555 1_555
C12 C11 1_555 1_555
H8 C12 1_555 1_555
C13 C8 1_555 1_555
H9 C13 1_555 1_555
C14 N2 1_555 1_555
H10 C14 1_555 1_555
H11 C14 1_555 1_555
H12 C14 1_555 1_555
C15 N1 1_555 1_555
H13 C15 1_555 1_555
H14 C15 1_555 1_555
H15 C15 1_555 1_555
N1B C1B 1_555 1_555
N2B C1B 1_555 1_555
C1B C1 1_555 1_555
C2B C1B 1_555 1_555
C3B C2B 1_555 1_555
H1B C3B 1_555 1_555
C4B C3B 1_555 1_555
H2B C4B 1_555 1_555
C5B C4B 1_555 1_555
H3B C5B 1_555 1_555
C6B C5B 1_555 1_555
H4B C6B 1_555 1_555
C7B C2B 1_555 1_555
H5B C7B 1_555 1_555
C8B N2B 1_555 1_555
C9B N1B 1_555 1_555
C10B C9B 1_555 1_555
H6B C10B 1_555 1_555
C11B C10B 1_555 1_555
H7B C11B 1_555 1_555
C12B C11B 1_555 1_555
H8B C12B 1_555 1_555
C13B C8B 1_555 1_555
H9B C13B 1_555 1_555
C14B N2B 1_555 1_555
H10B C14B 1_555 1_555
H11B C14B 1_555 1_555
H12B C14B 1_555 1_555
C15B N1B 1_555 1_555
H13B C15B 1_555 1_555
H14B C15B 1_555 1_555
H15B C15B 1_555 1_555
C6 C7 1_555 1_555
C8 C9 1_555 1_555
C12 C13 1_555 1_555
C6B C7B 1_555 1_555
C8B C9B 1_555 1_555
C12B C13B 1_555 1_555

#END
