
#######################################################################
#
#                 Cambridge Crystallographic Data Centre
#                                CCDC 
#
#######################################################################
#
# If this CIF has been generated from an entry in the Cambridge 
# Structural Database, then it will include bibliographic, chemical, 
# crystal, experimental, refinement or atomic coordinate data resulting 
# from the CCDC's data processing and validation procedures.
#
#######################################################################

data_MIFNUN
_chemical_formula_moiety         'C21 H30 N2 O1'
_chemical_name_systematic        
N-{1-[2-(bicyclo[1.1.1]pentan-1-yl)ethyl]piperidin-4-yl}-N-phenylpropanamide
_symmetry_cell_setting           monoclinic
_symmetry_space_group_name_H-M   'P 21/n'
_symmetry_Int_Tables_number      14
_space_group_name_Hall           '-P 2yn'
loop_
_symmetry_equiv_pos_site_id
_symmetry_equiv_pos_as_xyz
1 x,y,z
2 1/2-x,1/2+y,1/2-z
3 -x,-y,-z
4 1/2+x,1/2-y,1/2+z
_cell_length_a                   14.7270(3)
_cell_length_b                   5.77560(10)
_cell_length_c                   21.9219(5)
_cell_angle_alpha                90
_cell_angle_beta                 92.4149(18)
_cell_angle_gamma                90
_cell_volume                     1862.96
_exptl_crystal_colour            colorless
_exptl_crystal_description       block
_chemical_melting_point          '357-358 K'
_cell_formula_units_Z            4
loop_
_atom_site_label
_atom_site_type_symbol
_atom_site_fract_x
_atom_site_fract_y
_atom_site_fract_z
C1 C 0.56785(17) 0.1205(6) 0.36385(14)
C2 C 0.6241(4) 0.3447(8) 0.36822(12)
C3 C 0.61710(9) 0.2590(3) 0.43491(11)
C4 C 0.51525(16) 0.2091(11) 0.41831(16)
C5 C 0.6369(4) 0.0135(6) 0.4104(2)
C6 C 0.65653(6) 0.36988(18) 0.49160(4)
C7 C 0.75727(7) 0.42196(18) 0.48519(4)
N1 N 0.80019(6) 0.53737(14) 0.53885(4)
C8 C 0.77730(7) 0.78510(18) 0.53831(4)
C9 C 0.82010(6) 0.90982(18) 0.59371(4)
C10 C 0.92298(6) 0.87988(17) 0.59599(4)
C11 C 0.94662(7) 0.62355(17) 0.59261(4)
C12 C 0.89929(7) 0.51485(17) 0.53661(5)
N2 N 0.96732(5) 0.99254(15) 0.65018(4)
C13 C 1.05309(7) 1.07883(19) 0.64557(5)
O1 O 1.09232(5) 1.07314(17) 0.59749(4)
C14 C 1.09723(8) 1.1821(3) 0.70322(5)
C15 C 1.17417(9) 1.3448(3) 0.69118(6)
C16 C 0.92330(6) 0.98598(17) 0.70762(4)
C17 C 0.93728(7) 0.80240(19) 0.74774(5)
C18 C 0.89411(7) 0.7994(2) 0.80312(5)
C19 C 0.83733(7) 0.9799(2) 0.81850(5)
C20 C 0.82303(7) 1.1620(2) 0.77810(5)
C21 C 0.86543(7) 1.16495(18) 0.72271(5)
H1 H 0.5421 0.0463 0.3265
H2 H 0.6857 0.3328 0.3520
H3 H 0.5929 0.4951 0.3572
H4 H 0.4830 0.0891 0.4425
H5 H 0.4766 0.3437 0.4103
H6 H 0.7005 -0.0127 0.3972
H7 H 0.6148 -0.1123 0.4352
H8 H 0.6478 0.2725 0.5282
H9 H 0.6250 0.5168 0.4962
H10 H 0.7897 0.2750 0.4795
H11 H 0.7654 0.5163 0.4486
H12 H 0.7989 0.8567 0.5005
H13 H 0.7103 0.8016 0.5391
H14 H 0.7966 0.8445 0.6308
H15 H 0.8041 1.0760 0.5921
H16 H 0.9469 0.9564 0.5606
H17 H 1.0129 0.6046 0.5907
H18 H 0.9264 0.5445 0.6294
H19 H 0.9146 0.3506 0.5351
H20 H 0.9208 0.5917 0.4992
H21 H 1.1179 1.0542 0.7277
H22 H 1.0520 1.2591 0.7275
H23 H 1.2013 1.4053 0.7291
H24 H 1.2210 1.2638 0.6698
H25 H 1.1531 1.4770 0.6656
H26 H 0.9762 0.6800 0.7366
H27 H 0.9044 0.6733 0.8306
H28 H 0.8081 0.9741 0.8561
H29 H 0.7832 1.2878 0.7875
H30 H 0.8554 1.2903 0.6950
C22? C 0.56761(18) 0.1272(7) 0.36175(14)
C23? C 0.5953(5) 0.3820(7) 0.37148(17)
C24? C 0.61661(10) 0.2612(4) 0.43359(12)
C25? C 0.5232(3) 0.1379(11) 0.42406(16)
C26? C 0.6568(3) 0.0599(10) 0.3963(2)
H31? H 0.6522 0.2563 0.5257
H32? H 0.6232 0.5092 0.5021
H33? H 0.5412 0.0570 0.3241
H34? H 0.6488 0.4397 0.3490
H35? H 0.5474 0.4976 0.3734
H36? H 0.5159 -0.0110 0.4441
H37? H 0.4672 0.2316 0.4270
H38? H 0.7131 0.0940 0.3758
H39? H 0.6592 -0.0979 0.4161
loop_
_geom_bond_atom_site_label_1
_geom_bond_atom_site_label_2
_geom_bond_site_symmetry_1
_geom_bond_site_symmetry_2
C1 C2 1_555 1_555
C2 C3 1_555 1_555
C3 C4 1_555 1_555
C4 C1 1_555 1_555
C5 C1 1_555 1_555
C6 C3 1_555 1_555
C7 C6 1_555 1_555
N1 C7 1_555 1_555
C8 N1 1_555 1_555
C9 C8 1_555 1_555
C10 C9 1_555 1_555
C11 C10 1_555 1_555
C12 N1 1_555 1_555
N2 C10 1_555 1_555
C13 N2 1_555 1_555
O1 C13 1_555 1_555
C14 C13 1_555 1_555
C15 C14 1_555 1_555
C16 N2 1_555 1_555
C17 C16 1_555 1_555
C18 C17 1_555 1_555
C19 C18 1_555 1_555
C20 C19 1_555 1_555
C21 C16 1_555 1_555
H1 C1 1_555 1_555
H2 C2 1_555 1_555
H3 C2 1_555 1_555
H4 C4 1_555 1_555
H5 C4 1_555 1_555
H6 C5 1_555 1_555
H7 C5 1_555 1_555
H8 C6 1_555 1_555
H9 C6 1_555 1_555
H10 C7 1_555 1_555
H11 C7 1_555 1_555
H12 C8 1_555 1_555
H13 C8 1_555 1_555
H14 C9 1_555 1_555
H15 C9 1_555 1_555
H16 C10 1_555 1_555
H17 C11 1_555 1_555
H18 C11 1_555 1_555
H19 C12 1_555 1_555
H20 C12 1_555 1_555
H21 C14 1_555 1_555
H22 C14 1_555 1_555
H23 C15 1_555 1_555
H24 C15 1_555 1_555
H25 C15 1_555 1_555
H26 C17 1_555 1_555
H27 C18 1_555 1_555
H28 C19 1_555 1_555
H29 C20 1_555 1_555
H30 C21 1_555 1_555
C3 C5 1_555 1_555
C11 C12 1_555 1_555
C20 C21 1_555 1_555

#END
