
#######################################################################
#
#                 Cambridge Crystallographic Data Centre
#                                CCDC 
#
#######################################################################
#
# If this CIF has been generated from an entry in the Cambridge 
# Structural Database, then it will include bibliographic, chemical, 
# crystal, experimental, refinement or atomic coordinate data resulting 
# from the CCDC's data processing and validation procedures.
#
#######################################################################

data_MIFZOQ
_chemical_formula_moiety         'C22 H23 Cl2 N1 O4,C1 H4 O1'
_chemical_name_systematic        
'(3,5-trans)-7-Chloro-5-(2-chlorophenyl)-1-neopentyl-2-oxo-1,2,3,5-tetrahydro-4,1-benzoxazepine-3-acetic acid methanol solvate'
_chemical_properties_biological  'potent squalene synthase inhibitor'
_symmetry_cell_setting           triclinic
_symmetry_space_group_name_H-M   'P -1'
_symmetry_Int_Tables_number      2
_space_group_name_Hall           '-P 1'
loop_
_symmetry_equiv_pos_site_id
_symmetry_equiv_pos_as_xyz
1 x,y,z
2 -x,-y,-z
_cell_length_a                   10.440(1)
_cell_length_b                   13.641(2)
_cell_length_c                   9.5062(9)
_cell_angle_alpha                101.156(9)
_cell_angle_beta                 106.102(8)
_cell_angle_gamma                106.646(10)
_cell_volume                     1190.14
_exptl_crystal_colour            colorless
_exptl_crystal_description       prism
_chemical_melting_point          521K
_cell_formula_units_Z            2
loop_
_atom_site_label
_atom_site_type_symbol
_atom_site_fract_x
_atom_site_fract_y
_atom_site_fract_z
N1 N 0.3539(3) 0.3275(2) 0.7230(3)
C1 C 0.4929(4) 0.3628(3) 0.7343(4)
C2 C 0.5196(4) 0.3544(3) 0.5832(4)
O1 O 0.5044(2) 0.2475(2) 0.5109(3)
C3 C 0.3810(3) 0.1652(2) 0.5085(4)
C4 C 0.2507(3) 0.1967(3) 0.4684(4)
C5 C 0.2421(3) 0.2781(3) 0.5758(4)
C6 C 0.1258(4) 0.3107(3) 0.5389(5)
C7 C 0.0174(4) 0.2625(3) 0.3990(5)
C8 C 0.0259(4) 0.1821(3) 0.2938(4)
C9 C 0.1413(4) 0.1488(3) 0.3269(4)
O2 O 0.5928(3) 0.4010(2) 0.8575(3)
Cl1 Cl -0.1115(1) 0.1195(1) 0.1160(1)
C10 C 0.3674(3) 0.0620(3) 0.4017(4)
C11 C 0.4323(4) 0.0615(3) 0.2935(4)
C12 C 0.4201(5) -0.0344(4) 0.1977(4)
C13 C 0.3444(5) -0.1296(4) 0.2114(5)
C14 C 0.2794(4) -0.1320(3) 0.3178(5)
C15 C 0.2902(4) -0.0365(3) 0.4118(4)
Cl2 Cl 0.2061(1) -0.04145(8) 0.5451(1)
C16 C 0.6692(4) 0.4242(3) 0.6058(5)
C17 C 0.6889(8) 0.4213(4) 0.4547(9)
O3 O 0.6077(6) 0.4398(4) 0.3536(5)
O4 O 0.7998(5) 0.4030(3) 0.4447(7)
C18 C 0.3185(4) 0.3505(3) 0.8628(4)
C19 C 0.2674(4) 0.2560(3) 0.9245(4)
C20 C 0.1254(5) 0.1724(4) 0.8128(5)
C21 C 0.2487(5) 0.3049(4) 1.0734(5)
C22 C 0.3787(5) 0.2041(4) 0.9577(5)
H1 H 0.4508 0.3757 0.5144
H2 H 0.3999 0.1572 0.6118
H3 H 0.1214 0.3659 0.6099
H4 H -0.0609 0.2840 0.3757
H5 H 0.1454 0.0944 0.2543
H6 H 0.4849 0.1262 0.2845
H7 H 0.4634 -0.0336 0.1244
H8 H 0.3370 -0.1936 0.1477
H9 H 0.2283 -0.1970 0.3271
H10 H 0.6875 0.4974 0.6611
H11 H 0.7375 0.3997 0.6669
H12 H 0.7915 0.4059 0.3573
H13 H 0.2447 0.3813 0.8426
H14 H 0.4027 0.4049 0.9433
H15 H 0.0550 0.2052 0.7925
H16 H 0.0948 0.1161 0.8567
H17 H 0.1367 0.1430 0.7188
H18 H 0.1770 0.3364 1.0509
H19 H 0.3377 0.3591 1.1426
H20 H 0.2197 0.2499 1.1199
H21 H 0.4670 0.2562 1.0319
H22 H 0.3937 0.1774 0.8648
H23 H 0.3460 0.1459 0.9974
O5 O 0.7701(5) 0.4129(4) 0.1401(4)
C23 C 0.9001(7) 0.4289(6) 0.1235(8)
H24 H 0.7113 0.4092 0.0595
H25 H 0.9199 0.4839(1) 0.0746(1)
H26 H 0.8983 0.36352(8) 0.0618(1)
H27 H 0.9732 0.4504(2) 0.2226(3)
loop_
_geom_bond_atom_site_label_1
_geom_bond_atom_site_label_2
_geom_bond_site_symmetry_1
_geom_bond_site_symmetry_2
N1 C1 1_555 1_555
C1 C2 1_555 1_555
C2 O1 1_555 1_555
O1 C3 1_555 1_555
C3 C4 1_555 1_555
C4 C5 1_555 1_555
C5 N1 1_555 1_555
C6 C5 1_555 1_555
C7 C6 1_555 1_555
C8 C7 1_555 1_555
C9 C4 1_555 1_555
O2 C1 1_555 1_555
Cl1 C8 1_555 1_555
C10 C3 1_555 1_555
C11 C10 1_555 1_555
C12 C11 1_555 1_555
C13 C12 1_555 1_555
C14 C13 1_555 1_555
C15 C10 1_555 1_555
Cl2 C15 1_555 1_555
C16 C2 1_555 1_555
C17 C16 1_555 1_555
O3 C17 1_555 1_555
O4 C17 1_555 1_555
C18 N1 1_555 1_555
C19 C18 1_555 1_555
C20 C19 1_555 1_555
C21 C19 1_555 1_555
C22 C19 1_555 1_555
O5 C23 1_555 1_555
C23 H25 1_555 1_555
H1 C2 1_555 1_555
H2 C3 1_555 1_555
H3 C6 1_555 1_555
H4 C7 1_555 1_555
H5 C9 1_555 1_555
H6 C11 1_555 1_555
H7 C12 1_555 1_555
H8 C13 1_555 1_555
H9 C14 1_555 1_555
H10 C16 1_555 1_555
H11 C16 1_555 1_555
H12 O4 1_555 1_555
H13 C18 1_555 1_555
H14 C18 1_555 1_555
H15 C20 1_555 1_555
H16 C20 1_555 1_555
H17 C20 1_555 1_555
H18 C21 1_555 1_555
H19 C21 1_555 1_555
H20 C21 1_555 1_555
H21 C22 1_555 1_555
H22 C22 1_555 1_555
H23 C22 1_555 1_555
H24 O5 1_555 1_555
H26 C23 1_555 1_555
H27 C23 1_555 1_555
C8 C9 1_555 1_555
C14 C15 1_555 1_555

#END
