
#######################################################################
#
#                 Cambridge Crystallographic Data Centre
#                                CCDC 
#
#######################################################################
#
# If this CIF has been generated from an entry in the Cambridge 
# Structural Database, then it will include bibliographic, chemical, 
# crystal, experimental, refinement or atomic coordinate data resulting 
# from the CCDC's data processing and validation procedures.
#
#######################################################################

data_MIGBEJ
_chemical_formula_moiety         'C21 H20 Cl2 N2 O3'
_chemical_name_systematic        
'7-Chloro-5-(2-chlorophenyl)-1-isobutyl-2-oxo-2,3-dihydro-1H-1,4-benzodiazepine-3-acetic acid'
_chemical_properties_biological  'weak squalene synthase inhibitor'
_symmetry_cell_setting           monoclinic
_symmetry_space_group_name_H-M   'C 2/c'
_symmetry_Int_Tables_number      15
_space_group_name_Hall           '-C 2yn'
loop_
_symmetry_equiv_pos_site_id
_symmetry_equiv_pos_as_xyz
1 x,y,z
2 x,-y,1/2+z
3 1/2+x,1/2+y,z
4 1/2+x,1/2-y,1/2+z
5 -x,-y,-z
6 -x,y,1/2-z
7 1/2-x,1/2-y,-z
8 1/2-x,1/2+y,1/2-z
_cell_length_a                   22.101(1)
_cell_length_b                   13.533(1)
_cell_length_c                   17.459(1)
_cell_angle_alpha                90
_cell_angle_beta                 128.114(3)
_cell_angle_gamma                90
_cell_volume                     4108.48
_exptl_crystal_colour            colorless
_exptl_crystal_description       plate
_chemical_melting_point          448-451K
_cell_formula_units_Z            8
_exptl_crystal_recrystallization_method methanol
loop_
_atom_site_label
_atom_site_type_symbol
_atom_site_fract_x
_atom_site_fract_y
_atom_site_fract_z
N1 N 0.2885(1) 0.3233(2) 0.1404(2)
C1 C 0.3538(2) 0.2675(2) 0.1810(2)
C2 C 0.3787(2) 0.2095(2) 0.2704(2)
N2 N 0.4076(1) 0.2798(2) 0.3500(2)
C3 C 0.3582(2) 0.3304(2) 0.3488(2)
C4 C 0.2735(2) 0.3234(2) 0.2697(2)
C5 C 0.2427(2) 0.3177(2) 0.1722(2)
C6 C 0.1627(2) 0.3118(2) 0.1016(2)
C7 C 0.1159(2) 0.3111(2) 0.1271(3)
C8 C 0.1462(2) 0.3163(2) 0.2234(3)
C9 C 0.2253(2) 0.3220(2) 0.2952(2)
O1 O 0.3890(1) 0.2665(2) 0.1484(2)
Cl1 Cl 0.08572(5) 0.31580(9) 0.25463(8)
C10 C 0.3898(2) 0.3959(2) 0.4346(2)
C11 C 0.4439(2) 0.3569(3) 0.5271(2)
C12 C 0.4818(2) 0.4153(3) 0.6096(3)
C13 C 0.4669(2) 0.5133(3) 0.6016(3)
C14 C 0.4128(2) 0.5542(3) 0.5125(3)
C15 C 0.3737(2) 0.4953(2) 0.4300(2)
Cl2 Cl 0.30304(7) 0.55161(7) 0.31866(8)
C16 C 0.4432(2) 0.1376(2) 0.3015(2)
C17 C 0.4658(2) 0.0764(2) 0.3862(2)
O2 O 0.4271(1) 0.0693(2) 0.4143(2)
O3 O 0.5312(1) 0.0309(2) 0.4286(2)
C18 C 0.2599(2) 0.3836(3) 0.0537(2)
C19 C 0.2479(2) 0.4908(3) 0.0653(3)
C20 C 0.3244(3) 0.5414(3) 0.1396(4)
C21 C 0.2038(3) 0.5413(4) -0.0326(4)
H1 H 0.3347 0.1733 0.2571
H2 H 0.1414 0.3082 0.0361
H3 H 0.0629 0.3072 0.0792
H4 H 0.2459 0.3248 0.3604
H5 H 0.4550 0.2897 0.5337
H6 H 0.5175 0.3871 0.6707
H7 H 0.4936 0.5529 0.6570
H8 H 0.4023 0.6215 0.5071
H10 H 0.4267 0.0946 0.2473
H11 H 0.4876 0.1745 0.3183
H12 H 0.5408 -0.0015 0.4746
H13 H 0.2115 0.3562 -0.0019
H14 H 0.2964 0.3797 0.0402
H15 H 0.2172 0.4938 0.0883
H16 H 0.3156 0.6093 0.1461
H17 H 0.3554 0.5381 0.1185
H18 H 0.3505 0.5087 0.2013
H19 H 0.1961 0.6095 -0.0256
H20 H 0.1548 0.5095 -0.0772
H21 H 0.2324 0.5369 -0.0571
Cl3? Cl 0.4094(8) 0.2224(9) 0.5327(9)
H9? H 0.3355 0.5234 0.3699
loop_
_geom_bond_atom_site_label_1
_geom_bond_atom_site_label_2
_geom_bond_site_symmetry_1
_geom_bond_site_symmetry_2
N1 C1 1_555 1_555
C1 C2 1_555 1_555
C2 N2 1_555 1_555
N2 C3 1_555 1_555
C3 C4 1_555 1_555
C4 C5 1_555 1_555
C5 N1 1_555 1_555
C6 C5 1_555 1_555
C7 C6 1_555 1_555
C8 C7 1_555 1_555
C9 C4 1_555 1_555
O1 C1 1_555 1_555
Cl1 C8 1_555 1_555
C10 C3 1_555 1_555
C11 C10 1_555 1_555
C12 C11 1_555 1_555
C13 C12 1_555 1_555
C14 C13 1_555 1_555
C15 C10 1_555 1_555
Cl2 C15 1_555 1_555
C16 C2 1_555 1_555
C17 C16 1_555 1_555
O2 C17 1_555 1_555
O3 C17 1_555 1_555
C18 N1 1_555 1_555
C19 C18 1_555 1_555
C20 C19 1_555 1_555
C21 C19 1_555 1_555
H1 C2 1_555 1_555
H2 C6 1_555 1_555
H3 C7 1_555 1_555
H4 C9 1_555 1_555
H5 C11 1_555 1_555
H6 C12 1_555 1_555
H7 C13 1_555 1_555
H8 C14 1_555 1_555
H10 C16 1_555 1_555
H11 C16 1_555 1_555
H12 O3 1_555 1_555
H13 C18 1_555 1_555
H14 C18 1_555 1_555
H15 C19 1_555 1_555
H16 C20 1_555 1_555
H17 C20 1_555 1_555
H18 C20 1_555 1_555
H19 C21 1_555 1_555
H20 C21 1_555 1_555
H21 C21 1_555 1_555
C8 C9 1_555 1_555
C14 C15 1_555 1_555

#END
