
#######################################################################
#
#                 Cambridge Crystallographic Data Centre
#                                CCDC 
#
#######################################################################
#
# If this CIF has been generated from an entry in the Cambridge 
# Structural Database, then it will include bibliographic, chemical, 
# crystal, experimental, refinement or atomic coordinate data resulting 
# from the CCDC's data processing and validation procedures.
#
#######################################################################

data_MIGDOY
_chemical_formula_moiety         'C17 H28 N1 O2 1+,C20 H17 O8 1-,2.25(H2 O1)'
_chemical_name_systematic        
'2-(1-hydroxycyclohexyl)-2-(4-methoxyphenyl)-N,N-dimethylethan-1-aminium 3-carboxy-2,3-bis[(4-methylbenzene-1-carbonyl)oxy]propanoate hydrate'
_symmetry_cell_setting           monoclinic
_symmetry_space_group_name_H-M   'P 21'
_symmetry_Int_Tables_number      4
_space_group_name_Hall           'P 2yb'
loop_
_symmetry_equiv_pos_site_id
_symmetry_equiv_pos_as_xyz
1 x,y,z
2 -x,1/2+y,-z
_cell_length_a                   14.296(2)
_cell_length_b                   7.9189(12)
_cell_length_c                   17.427(3)
_cell_angle_alpha                90
_cell_angle_beta                 107.708(4)
_cell_angle_gamma                90
_cell_volume                     1879.41
_exptl_crystal_description       block
_cell_formula_units_Z            2
loop_
_atom_site_label
_atom_site_type_symbol
_atom_site_fract_x
_atom_site_fract_y
_atom_site_fract_z
O1 O 0.8831(7) 0.8291(13) 0.9613(5)
H1 H 0.8974 0.7629 0.9281
H2 H 0.9035 0.9281 0.9562
O2 O 0.87136(14) 1.1949(2) 0.73644(12)
H3 H 0.8501 1.2877 0.7438
O3 O 0.79570(19) 1.1089(2) 0.82231(15)
O4 O 0.92721(12) 0.89179(18) 0.71104(9)
O5 O 1.06779(13) 1.0128(2) 0.78275(10)
O6 O 0.74192(12) 0.78837(19) 0.69388(9)
O7 O 0.62943(14) 0.6717(3) 0.74276(12)
O8 O 0.93819(15) 0.5807(2) 0.83621(13)
O9 O 0.81470(14) 0.4864(2) 0.73457(11)
C1 C 0.84625(19) 1.0858(3) 0.77944(15)
C2 C 0.88895(17) 0.9105(3) 0.77698(13)
H4 H 0.9428 0.8937 0.8269
C3 C 0.81468(17) 0.7730(3) 0.77084(13)
H5 H 0.7832 0.7904 0.8129
C4 C 0.86111(19) 0.5973(3) 0.78128(14)
C5 C 1.01716(18) 0.9549(3) 0.72025(15)
C6 C 1.04537(18) 0.9405(3) 0.64599(14)
C7 C 0.9857(2) 0.8660(4) 0.57725(16)
H6 H 0.9245 0.8245 0.5763
C8 C 1.0164(3) 0.8526(5) 0.50976(18)
H7 H 0.9755 0.8013 0.4637
C9 C 1.1058(3) 0.9133(4) 0.50904(19)
C10 C 1.1649(2) 0.9872(5) 0.5777(2)
H8 H 1.2261 1.0285 0.5784
C11 C 1.1356(2) 1.0016(4) 0.64594(16)
H9 H 1.1768 1.0527 0.6919
C12 C 1.1388(4) 0.8964(7) 0.4345(2)
H10 H 1.0989 0.9674 0.3926
H11 H 1.1320 0.7811 0.4168
H12 H 1.2063 0.9301 0.4471
C13 C 0.65305(19) 0.7220(3) 0.68620(15)
C14 C 0.59006(19) 0.7225(3) 0.60210(16)
C15 C 0.6250(2) 0.7530(4) 0.53869(17)
H13 H 0.6914 0.7748 0.5479
C16 C 0.5622(3) 0.7516(5) 0.4611(2)
H14 H 0.5875 0.7698 0.4186
C17 C 0.4638(3) 0.7243(4) 0.4448(2)
C18 C 0.4298(3) 0.6911(5) 0.5089(2)
H15 H 0.3632 0.6703 0.4995
C19 C 0.4915(2) 0.6878(5) 0.5866(2)
H16 H 0.4668 0.6621 0.6288
C20 C 0.3947(3) 0.7294(5) 0.3605(2)
H17 H 0.4317 0.7373 0.3230
H18 H 0.3524 0.8259 0.3545
H19 H 0.3558 0.6284 0.3501
O10 O 0.25297(17) 0.3846(2) 0.87119(13)
O11 O 0.59024(14) 0.4947(3) 1.19904(12)
N1 N 0.20954(18) 0.8565(3) 0.99526(13)
H20 H 0.2534 0.8160 1.0410
C21 C 0.1961(2) 0.7247(4) 0.93146(16)
H21 H 0.1494 0.7657 0.8821
H22 H 0.1683 0.6243 0.9480
C22 C 0.29046(19) 0.6773(3) 0.91454(15)
H23 H 0.3148 0.7802 0.8958
C23 C 0.2720(2) 0.5465(3) 0.84487(16)
C24 C 0.3648(2) 0.5291(4) 0.82050(18)
H24 H 0.4160 0.4806 0.8651
H25 H 0.3863 0.6405 0.8101
C25 C 0.3515(3) 0.4196(5) 0.74624(19)
H26 H 0.4120 0.4188 0.7320
H27 H 0.3375 0.3045 0.7583
C26 C 0.2690(3) 0.4838(6) 0.6759(2)
H28 H 0.2859 0.5943 0.6601
H29 H 0.2597 0.4081 0.6304
C27 C 0.1754(3) 0.4955(5) 0.69775(19)
H30 H 0.1549 0.3829 0.7076
H31 H 0.1244 0.5432 0.6528
C28 C 0.1873(2) 0.6040(4) 0.77216(17)
H32 H 0.1267 0.6008 0.7863
H33 H 0.1986 0.7201 0.7595
C29 C 0.36861(18) 0.6229(3) 0.99056(14)
C30 C 0.46332(19) 0.6882(3) 1.00969(16)
H34 H 0.4783 0.7641 0.9744
C31 C 0.5347(2) 0.6444(3) 1.07846(17)
H35 H 0.5975 0.6892 1.0893
C32 C 0.51374(19) 0.5336(3) 1.13181(15)
C33 C 0.42087(19) 0.4661(3) 1.11492(15)
H36 H 0.4063 0.3911 1.1507
C34 C 0.34959(19) 0.5104(3) 1.04461(15)
H37 H 0.2872 0.4634 1.0333
C35 C 0.2501(3) 1.0175(4) 0.9738(2)
H38 H 0.2101 1.0547 0.9217
H39 H 0.3160 0.9991 0.9727
H40 H 0.2502 1.1022 1.0133
C36 C 0.1152(3) 0.8842(7) 1.0122(2)
H41 H 0.0932 0.7798 1.0289
H42 H 0.0669 0.9244 0.9644
H43 H 0.1242 0.9665 1.0543
C37 C 0.5663(3) 0.4355(5) 1.26593(18)
H44 H 0.6252 0.4230 1.3104
H45 H 0.5340 0.3282 1.2535
H46 H 0.5233 0.5146 1.2800
H47 H 0.207(2) 0.384(4) 0.8772(18)
O12 O 0.32761(19) 0.8658(3) 0.15303(11)
H48 H 0.3111 0.7998 0.1851
H49 H 0.3267 0.9672 0.1688
O13 O 0.06352(14) 0.3142(3) 0.87851(10)
H50 H 0.0287 0.4005 0.8598
H51 H 0.0407 0.2290 0.8491
loop_
_geom_bond_atom_site_label_1
_geom_bond_atom_site_label_2
_geom_bond_site_symmetry_1
_geom_bond_site_symmetry_2
O1 H1 1_555 1_555
H2 O1 1_555 1_555
O2 H3 1_555 1_555
O3 C1 1_555 1_555
O4 C2 1_555 1_555
O5 C5 1_555 1_555
O6 C3 1_555 1_555
O7 C13 1_555 1_555
O8 C4 1_555 1_555
O9 C4 1_555 1_555
C1 O2 1_555 1_555
C2 C1 1_555 1_555
H4 C2 1_555 1_555
C3 C2 1_555 1_555
H5 C3 1_555 1_555
C4 C3 1_555 1_555
C5 O4 1_555 1_555
C6 C5 1_555 1_555
C7 C6 1_555 1_555
H6 C7 1_555 1_555
C8 C7 1_555 1_555
H7 C8 1_555 1_555
C9 C8 1_555 1_555
C10 C9 1_555 1_555
H8 C10 1_555 1_555
C11 C6 1_555 1_555
H9 C11 1_555 1_555
C12 C9 1_555 1_555
H10 C12 1_555 1_555
H11 C12 1_555 1_555
H12 C12 1_555 1_555
C13 O6 1_555 1_555
C14 C13 1_555 1_555
C15 C14 1_555 1_555
H13 C15 1_555 1_555
C16 C15 1_555 1_555
H14 C16 1_555 1_555
C17 C16 1_555 1_555
C18 C17 1_555 1_555
H15 C18 1_555 1_555
C19 C14 1_555 1_555
H16 C19 1_555 1_555
C20 C17 1_555 1_555
H17 C20 1_555 1_555
H18 C20 1_555 1_555
H19 C20 1_555 1_555
O10 C23 1_555 1_555
O11 C32 1_555 1_555
N1 H20 1_555 1_555
C21 N1 1_555 1_555
H21 C21 1_555 1_555
H22 C21 1_555 1_555
C22 C21 1_555 1_555
H23 C22 1_555 1_555
C23 C22 1_555 1_555
C24 C23 1_555 1_555
H24 C24 1_555 1_555
H25 C24 1_555 1_555
C25 C24 1_555 1_555
H26 C25 1_555 1_555
H27 C25 1_555 1_555
C26 C25 1_555 1_555
H28 C26 1_555 1_555
H29 C26 1_555 1_555
C27 C26 1_555 1_555
H30 C27 1_555 1_555
H31 C27 1_555 1_555
C28 C23 1_555 1_555
H32 C28 1_555 1_555
H33 C28 1_555 1_555
C29 C22 1_555 1_555
C30 C29 1_555 1_555
H34 C30 1_555 1_555
C31 C30 1_555 1_555
H35 C31 1_555 1_555
C32 C31 1_555 1_555
C33 C32 1_555 1_555
H36 C33 1_555 1_555
C34 C29 1_555 1_555
H37 C34 1_555 1_555
C35 N1 1_555 1_555
H38 C35 1_555 1_555
H39 C35 1_555 1_555
H40 C35 1_555 1_555
C36 N1 1_555 1_555
H41 C36 1_555 1_555
H42 C36 1_555 1_555
H43 C36 1_555 1_555
C37 O11 1_555 1_555
H44 C37 1_555 1_555
H45 C37 1_555 1_555
H46 C37 1_555 1_555
H47 O10 1_555 1_555
O12 H48 1_555 1_555
H49 O12 1_555 1_555
O13 H50 1_555 1_555
H51 O13 1_555 1_555
C10 C11 1_555 1_555
C18 C19 1_555 1_555
C27 C28 1_555 1_555
C33 C34 1_555 1_555

#END
