
#######################################################################
#
#                 Cambridge Crystallographic Data Centre
#                                CCDC 
#
#######################################################################
#
# If this CIF has been generated from an entry in the Cambridge 
# Structural Database, then it will include bibliographic, chemical, 
# crystal, experimental, refinement or atomic coordinate data resulting 
# from the CCDC's data processing and validation procedures.
#
#######################################################################

data_MIGDAK
_chemical_formula_moiety         'C62 H64 N2 O2 S2'
_chemical_name_systematic        
N,N'-[{4,8-bis[(2-ethylhexyl)oxy]benzo[1,2-b:4,5-b']bisthiene-2,6-diyl}bis(4,1-phenylene)]bis(N-phenylaniline)
_symmetry_cell_setting           triclinic
_symmetry_space_group_name_H-M   'P -1'
_symmetry_Int_Tables_number      2
_space_group_name_Hall           '-P 1'
loop_
_symmetry_equiv_pos_site_id
_symmetry_equiv_pos_as_xyz
1 x,y,z
2 -x,-y,-z
_cell_length_a                   8.0504(7)
_cell_length_b                   13.1288(12)
_cell_length_c                   13.7652(12)
_cell_angle_alpha                118.287(3)
_cell_angle_beta                 97.756(3)
_cell_angle_gamma                94.257(3)
_cell_volume                     1253.4
_exptl_crystal_description       needle
_cell_formula_units_Z            1
loop_
_atom_site_label
_atom_site_type_symbol
_atom_site_fract_x
_atom_site_fract_y
_atom_site_fract_z
C1 C 1.0847(6) 0.9281(4) 0.3478(4)
C2 C 1.1791(5) 1.0365(4) 0.4196(4)
H1 H 1.1388 1.1083 0.4370
C3 C 1.3469(6) 1.0290(4) 0.4657(4)
C4 C 1.3720(5) 0.9114(4) 0.4263(4)
C5 C 0.5852(5) 0.8737(4) 0.1626(4)
C6 C 0.6415(5) 0.9701(4) 0.2692(4)
H2 H 0.5687 1.0259 0.3015
C7 C 0.8019(5) 0.9849(4) 0.3280(4)
H3 H 0.8387 1.0519 0.4002
C8 C 0.9117(5) 0.9048(4) 0.2848(4)
C9 C 0.8519(5) 0.8064(4) 0.1788(4)
H4 H 0.9223 0.7485 0.1482
C10 C 0.6936(5) 0.7921(4) 0.1183(4)
H5 H 0.6574 0.7258 0.0456
C11 C 0.3474(5) 0.9613(4) 0.1164(4)
C12 C 0.1787(6) 0.9640(4) 0.1247(4)
H6 H 0.1122 0.8988 0.1209
C13 C 0.1067(6) 1.0605(5) 0.1385(5)
H7 H -0.0097 1.0615 0.1437
C14 C 0.2022(7) 1.1559(5) 0.1450(5)
H8 H 0.1518 1.2223 0.1542
C15 C 0.3689(7) 1.1543(4) 0.1382(4)
H9 H 0.4351 1.2203 0.1435
C16 C 0.4438(6) 1.0568(4) 0.1234(4)
H10 H 0.5602 1.0562 0.1181
C17 C 0.3245(5) 0.7472(4) 0.0297(4)
C18 C 0.3278(6) 0.6607(4) 0.0599(4)
H11 H 0.3978 0.6756 0.1281
C19 C 0.2286(6) 0.5525(4) -0.0099(4)
H12 H 0.2340 0.4925 0.0100
C20 C 0.1227(6) 0.5295(5) -0.1069(4)
H13 H 0.0530 0.4554 -0.1530
C21 C 0.1194(6) 0.6163(4) -0.1364(4)
H14 H 0.0469 0.6016 -0.2037
C22 C 0.2203(5) 0.7243(4) -0.0692(4)
H15 H 0.2181 0.7830 -0.0910
N1 N 0.4227(4) 0.8603(3) 0.1004(3)
S1 S 1.19293(15) 0.81348(10) 0.33462(10)
C23 C 1.531(2) 0.8846(11) 0.449(2)
O1 O 1.5567(12) 0.7684(7) 0.3987(7)
C24 C 1.5389(11) 0.7109(8) 0.4641(7)
H16 H 1.4181 0.6962 0.4678
H17 H 1.6047 0.7602 0.5416
C25 C 1.6069(11) 0.5946(8) 0.4053(9)
H18 H 1.5833 0.5507 0.4459
C26 C 1.7982(9) 0.6148(9) 0.4155(8)
H19 H 1.8323 0.5398 0.3636
H20 H 1.8260 0.6712 0.3893
C27 C 1.9043(12) 0.6594(14) 0.5304(9)
H21 H 1.8769 0.6044 0.5583
H22 H 1.8754 0.7362 0.5827
C28 C 2.0945(11) 0.6733(9) 0.5306(9)
H23 H 2.1218 0.7277 0.5019
H24 H 2.1238 0.5964 0.4791
C29 C 2.2022(19) 0.720(2) 0.6482(14)
H25 H 2.3228 0.7277 0.6443
H26 H 2.1753 0.7971 0.6991
H27 H 2.1773 0.6658 0.6762
C30 C 1.5172(13) 0.5176(10) 0.2833(9)
H28 H 1.5442 0.5572 0.2402
H29 H 1.5634 0.4430 0.2518
C31 C 1.3265(13) 0.4898(13) 0.2659(12)
H30 H 1.2804 0.4348 0.1863
H31 H 1.2777 0.5621 0.2886
H32 H 1.2978 0.4546 0.3115
C1A C 1.9153(6) 1.0719(4) 0.6522(4)
C2A C 1.8209(5) 0.9635(4) 0.5804(4)
H1A H 1.8612 0.8917 0.5630
C3A C 1.6531(6) 0.9710(4) 0.5343(4)
C4A C 1.6280(5) 1.0886(4) 0.5737(4)
C5A C 2.4148(5) 1.1263(4) 0.8374(4)
C6A C 2.3585(5) 1.0299(4) 0.7308(4)
H2A H 2.4313 0.9741 0.6985
C7A C 2.1981(5) 1.0151(4) 0.6720(4)
H3A H 2.1613 0.9481 0.5998
C8A C 2.0883(5) 1.0952(4) 0.7152(4)
C9A C 2.1481(5) 1.1936(4) 0.8212(4)
H4A H 2.0777 1.2515 0.8518
C10A C 2.3064(5) 1.2079(4) 0.8817(4)
H5A H 2.3426 1.2742 0.9544
C11A C 2.6526(5) 1.0387(4) 0.8836(4)
C12A C 2.8213(6) 1.0360(4) 0.8753(4)
H6A H 2.8878 1.1012 0.8791
C13A C 2.8933(6) 0.9395(5) 0.8615(5)
H7A H 3.0097 0.9385 0.8563
C14A C 2.7978(7) 0.8441(5) 0.8550(5)
H8A H 2.8482 0.7777 0.8458
C15A C 2.6311(7) 0.8457(4) 0.8618(4)
H9A H 2.5649 0.7797 0.8565
C16A C 2.5562(6) 0.9432(4) 0.8766(4)
H10A H 2.4398 0.9438 0.8819
C17A C 2.6755(5) 1.2528(4) 0.9703(4)
C18A C 2.6722(6) 1.3393(4) 0.9401(4)
H11A H 2.6022 1.3244 0.8719
C19A C 2.7714(6) 1.4475(4) 1.0099(4)
H12A H 2.7660 1.5075 0.9900
C20A C 2.8773(6) 1.4705(5) 1.1069(4)
H13A H 2.9470 1.5446 1.1530
C21A C 2.8806(6) 1.3837(4) 1.1364(4)
H14A H 2.9531 1.3984 1.2037
C22A C 2.7797(5) 1.2757(4) 1.0692(4)
H15A H 2.7819 1.2170 1.0910
N1A N 2.5773(4) 1.1397(3) 0.8996(3)
S1A S 1.80707(15) 1.18652(10) 0.66538(10)
C23A C 1.469(2) 1.1154(11) 0.551(2)
O1A O 1.4433(12) 1.2316(7) 0.6013(7)
C24A C 1.4611(11) 1.2891(8) 0.5359(7)
H16A H 1.5819 1.3038 0.5322
H17A H 1.3953 1.2398 0.4584
C25A C 1.3931(11) 1.4054(8) 0.5947(9)
H18A H 1.4167 1.4493 0.5541
C26A C 1.2018(9) 1.3852(9) 0.5845(8)
H19A H 1.1677 1.4602 0.6364
H20A H 1.1740 1.3288 0.6107
C27A C 1.0957(12) 1.3406(14) 0.4696(9)
H21A H 1.1231 1.3956 0.4417
H22A H 1.1246 1.2638 0.4173
C28A C 0.9055(11) 1.3267(9) 0.4694(9)
H23A H 0.8782 1.2723 0.4981
H24A H 0.8762 1.4036 0.5209
C29A C 0.7978(19) 1.280(2) 0.3518(14)
H25A H 0.6772 1.2723 0.3557
H26A H 0.8247 1.2029 0.3009
H27A H 0.8227 1.3342 0.3238
C30A C 1.4828(13) 1.4824(10) 0.7167(9)
H28A H 1.4558 1.4428 0.7598
H29A H 1.4366 1.5570 0.7482
C31A C 1.6735(13) 1.5102(13) 0.7341(12)
H30A H 1.7196 1.5652 0.8137
H31A H 1.7223 1.4379 0.7114
H32A H 1.7022 1.5454 0.6885
C32? C 1.512(2) 0.8792(12) 0.469(2)
O2? O 1.5192(11) 0.7637(8) 0.4386(8)
C33? C 1.6323(12) 0.7079(7) 0.3627(7)
H33? H 1.7434 0.7592 0.3881
H34? H 1.5834 0.6914 0.2859
C34? C 1.6537(12) 0.5931(8) 0.3640(8)
H35? H 1.7219 0.5495 0.3058
C35? C 1.7528(11) 0.6178(8) 0.4772(8)
H36? H 1.7122 0.6838 0.5375
H37? H 1.7280 0.5482 0.4862
C36? C 1.9441(12) 0.6478(15) 0.4925(9)
H38? H 1.9866 0.5790 0.4368
H39? H 1.9687 0.7129 0.4767
C37? C 2.0390(13) 0.6825(10) 0.6086(9)
H40? H 2.0048 0.6214 0.6279
H41? H 2.0065 0.7566 0.6636
C38? C 2.2326(18) 0.699(3) 0.6186(16)
H42? H 2.2877 0.7215 0.6955
H43? H 2.2659 0.6256 0.5656
H44? H 2.2677 0.7608 0.6013
C39? C 1.4813(14) 0.5158(10) 0.3312(10)
H45? H 1.4999 0.4419 0.3309
H46? H 1.4131 0.5564 0.3892
C40? C 1.3812(17) 0.4865(13) 0.2177(10)
H47? H 1.2877 0.4224 0.1938
H48? H 1.4558 0.4624 0.1626
H49? H 1.3353 0.5556 0.2230
loop_
_geom_bond_atom_site_label_1
_geom_bond_atom_site_label_2
_geom_bond_site_symmetry_1
_geom_bond_site_symmetry_2
C1 C2 1_555 1_555
C2 H1 1_555 1_555
C3 C2 1_555 1_555
C4 C3 1_555 1_555
C5 C6 1_555 1_555
C6 H2 1_555 1_555
C7 C6 1_555 1_555
H3 C7 1_555 1_555
C8 C1 1_555 1_555
C9 C8 1_555 1_555
H4 C9 1_555 1_555
C10 C5 1_555 1_555
H5 C10 1_555 1_555
C11 C12 1_555 1_555
C12 H6 1_555 1_555
C13 C12 1_555 1_555
H7 C13 1_555 1_555
C14 C13 1_555 1_555
H8 C14 1_555 1_555
C15 C14 1_555 1_555
H9 C15 1_555 1_555
C16 C11 1_555 1_555
H10 C16 1_555 1_555
C17 C18 1_555 1_555
C18 H11 1_555 1_555
C19 C18 1_555 1_555
H12 C19 1_555 1_555
C20 C19 1_555 1_555
H13 C20 1_555 1_555
C21 C20 1_555 1_555
H14 C21 1_555 1_555
C22 C17 1_555 1_555
H15 C22 1_555 1_555
N1 C5 1_555 1_555
S1 C1 1_555 1_555
C23 C4 1_555 1_555
O1 C23 1_555 1_555
C24 O1 1_555 1_555
H16 C24 1_555 1_555
H17 C24 1_555 1_555
C25 C24 1_555 1_555
H18 C25 1_555 1_555
C26 C25 1_555 1_555
H19 C26 1_555 1_555
H20 C26 1_555 1_555
C27 C26 1_555 1_555
H21 C27 1_555 1_555
H22 C27 1_555 1_555
C28 C27 1_555 1_555
H23 C28 1_555 1_555
H24 C28 1_555 1_555
C29 C28 1_555 1_555
H25 C29 1_555 1_555
H26 C29 1_555 1_555
H27 C29 1_555 1_555
C30 C25 1_555 1_555
H28 C30 1_555 1_555
H29 C30 1_555 1_555
C31 C30 1_555 1_555
H30 C31 1_555 1_555
H31 C31 1_555 1_555
H32 C31 1_555 1_555
C1A C2A 1_555 1_555
C2A H1A 1_555 1_555
C3A C23 1_555 1_555
C4A C3A 1_555 1_555
C5A C6A 1_555 1_555
C6A H2A 1_555 1_555
C7A C6A 1_555 1_555
H3A C7A 1_555 1_555
C8A C1A 1_555 1_555
C9A C8A 1_555 1_555
H4A C9A 1_555 1_555
C10A C5A 1_555 1_555
H5A C10A 1_555 1_555
C11A C12A 1_555 1_555
C12A H6A 1_555 1_555
C13A C12A 1_555 1_555
H7A C13A 1_555 1_555
C14A C13A 1_555 1_555
H8A C14A 1_555 1_555
C15A C14A 1_555 1_555
H9A C15A 1_555 1_555
C16A C11A 1_555 1_555
H10A C16A 1_555 1_555
C17A C18A 1_555 1_555
C18A H11A 1_555 1_555
C19A C18A 1_555 1_555
H12A C19A 1_555 1_555
C20A C19A 1_555 1_555
H13A C20A 1_555 1_555
C21A C20A 1_555 1_555
H14A C21A 1_555 1_555
C22A C17A 1_555 1_555
H15A C22A 1_555 1_555
N1A C5A 1_555 1_555
S1A C1A 1_555 1_555
C23A C3 1_555 1_555
O1A C23A 1_555 1_555
C24A O1A 1_555 1_555
H16A C24A 1_555 1_555
H17A C24A 1_555 1_555
C25A C24A 1_555 1_555
H18A C25A 1_555 1_555
C26A C25A 1_555 1_555
H19A C26A 1_555 1_555
H20A C26A 1_555 1_555
C27A C26A 1_555 1_555
H21A C27A 1_555 1_555
H22A C27A 1_555 1_555
C28A C27A 1_555 1_555
H23A C28A 1_555 1_555
H24A C28A 1_555 1_555
C29A C28A 1_555 1_555
H25A C29A 1_555 1_555
H26A C29A 1_555 1_555
H27A C29A 1_555 1_555
C30A C25A 1_555 1_555
H28A C30A 1_555 1_555
H29A C30A 1_555 1_555
C31A C30A 1_555 1_555
H30A C31A 1_555 1_555
H31A C31A 1_555 1_555
H32A C31A 1_555 1_555
C4 S1 1_555 1_555
C7 C8 1_555 1_555
C9 C10 1_555 1_555
C11 N1 1_555 1_555
C15 C16 1_555 1_555
C17 N1 1_555 1_555
C21 C22 1_555 1_555
C2A C3A 1_555 1_555
C4A S1A 1_555 1_555
C4A C23A 1_555 1_555
C7A C8A 1_555 1_555
C9A C10A 1_555 1_555
C11A N1A 1_555 1_555
C15A C16A 1_555 1_555
C17A N1A 1_555 1_555
C21A C22A 1_555 1_555

#END
