
#######################################################################
#
#                 Cambridge Crystallographic Data Centre
#                                CCDC 
#
#######################################################################
#
# If this CIF has been generated from an entry in the Cambridge 
# Structural Database, then it will include bibliographic, chemical, 
# crystal, experimental, refinement or atomic coordinate data resulting 
# from the CCDC's data processing and validation procedures.
#
#######################################################################

data_MIGLIA
_chemical_formula_moiety         'C62 H60 N2 O2 S2'
_chemical_name_systematic        
9,9'-[{4,8-bis[(2-ethylhexyl)oxy]benzo[1,2-b:4,5-b']bisthiene-2,6-diyl}bis(4,1-phenylene)]bis(9H-carbazole)
_symmetry_cell_setting           monoclinic
_symmetry_space_group_name_H-M   'P 21/c'
_symmetry_Int_Tables_number      14
_space_group_name_Hall           '-P 2ybc'
loop_
_symmetry_equiv_pos_site_id
_symmetry_equiv_pos_as_xyz
1 x,y,z
2 -x,1/2+y,1/2-z
3 -x,-y,-z
4 x,1/2-y,1/2+z
_cell_length_a                   7.2675(4)
_cell_length_b                   33.225(2)
_cell_length_c                   20.6820(15)
_cell_angle_alpha                90
_cell_angle_beta                 91.280(2)
_cell_angle_gamma                90
_cell_volume                     4992.69
_exptl_crystal_description       needle
_cell_formula_units_Z            4
loop_
_atom_site_label
_atom_site_type_symbol
_atom_site_fract_x
_atom_site_fract_y
_atom_site_fract_z
C1 C 1.3007(6) 0.58120(14) 0.3187(2)
C2 C 1.3019(6) 0.54176(15) 0.2951(3)
H1 H 1.1980 0.5318 0.2715
C3 C 1.4533(6) 0.51718(15) 0.3059(3)
H2 H 1.4528 0.4904 0.2896
C4 C 1.6044(6) 0.53134(14) 0.3399(2)
C5 C 1.6060(6) 0.57026(14) 0.3638(2)
H3 H 1.7100 0.5799 0.3878
C6 C 1.4560(6) 0.59506(14) 0.3527(2)
H4 H 1.4587 0.6219 0.3684
C7 C 1.8604(6) 0.48763(14) 0.3025(3)
C8 C 1.8585(6) 0.49546(16) 0.2368(3)
H5 H 1.7788 0.5153 0.2185
C9 C 1.9756(7) 0.47363(17) 0.1987(3)
H6 H 1.9762 0.4785 0.1534
C10 C 2.0939(8) 0.44437(18) 0.2256(4)
H7 H 2.1743 0.4298 0.1986
C11 C 2.0936(7) 0.43687(16) 0.2907(4)
H8 H 2.1739 0.4171 0.3089
C12 C 1.9759(6) 0.45814(13) 0.3301(3)
C13 C 1.9378(6) 0.45690(14) 0.3983(3)
C14 C 1.9985(7) 0.43294(17) 0.4503(4)
H9 H 2.0896 0.4129 0.4444
C15 C 1.9243(8) 0.43895(19) 0.5097(4)
H10 H 1.9649 0.4227 0.5450
C16 C 1.7915(8) 0.46813(19) 0.5198(3)
H11 H 1.7426 0.4715 0.5617
C17 C 1.7297(7) 0.49235(16) 0.4692(3)
H12 H 1.6394 0.5125 0.4759
C18 C 1.8024(6) 0.48636(14) 0.4093(3)
C19 C 0.1986(6) 0.75393(15) 0.2439(3)
C20 C 0.1979(6) 0.79352(15) 0.2642(3)
H13 H 0.3026 0.8041 0.2867
C21 C 0.0474(6) 0.81805(15) 0.2524(3)
H14 H 0.0494 0.8452 0.2666
C22 C -0.1045(6) 0.80323(15) 0.2202(2)
C23 C -0.1096(7) 0.76314(15) 0.2006(3)
H15 H -0.2161 0.7525 0.1794
C24 C 0.0421(7) 0.73911(15) 0.2125(3)
H16 H 0.0394 0.7118 0.1989
C25 C -0.3592(6) 0.84861(14) 0.2530(3)
C26 C -0.3470(7) 0.84651(15) 0.3197(3)
H17 H -0.2592 0.8295 0.3407
C27 C -0.4648(7) 0.86964(17) 0.3547(3)
H18 H -0.4576 0.8687 0.4006
C28 C -0.5947(7) 0.89453(17) 0.3247(3)
H19 H -0.6757 0.9100 0.3502
C29 C -0.6068(7) 0.89684(16) 0.2588(3)
H20 H -0.6942 0.9143 0.2386
C30 C -0.4902(6) 0.87347(14) 0.2211(3)
C31 C -0.4649(6) 0.86856(14) 0.1529(3)
C32 C -0.5465(7) 0.88565(17) 0.0977(3)
H21 H -0.6447 0.9043 0.1013
C33 C -0.4820(9) 0.87498(19) 0.0378(3)
H22 H -0.5359 0.8867 0.0000
C34 C -0.3400(8) 0.84748(18) 0.0318(3)
H23 H -0.2990 0.8405 -0.0100
C35 C -0.2570(7) 0.82999(16) 0.0858(3)
H24 H -0.1592 0.8113 0.0817
C36 C -0.3215(6) 0.84071(14) 0.1459(3)
N1 N 1.7586(5) 0.50535(12) 0.3507(2)
N2 N -0.2590(5) 0.82844(12) 0.2071(2)
S1 S 1.0066(4) 0.59929(9) 0.23551(14)
C37 C 1.140(4) 0.6065(10) 0.3047(14)
C38 C 1.0800(19) 0.6378(4) 0.3436(6)
H25 H 1.1403 0.6462 0.3825
C39 C 0.912(2) 0.6560(5) 0.3165(7)
C40 C 0.859(3) 0.6370(8) 0.2578(9)
C41 C 0.7022(18) 0.6487(4) 0.2234(7)
C42 C 0.595(2) 0.6791(5) 0.2487(6)
C43 C 0.6492(16) 0.6983(4) 0.3072(5)
C44 C 0.8058(13) 0.6870(3) 0.3417(5)
S2 S 0.5046(3) 0.73694(8) 0.32843(14)
C45 C 0.368(2) 0.7285(6) 0.2606(8)
C46 C 0.4281(14) 0.6978(3) 0.2216(5)
H26 H 0.3688 0.6898 0.1822
O1 O 0.7856(13) 0.7106(3) 0.3931(4)
C47 C 0.903(2) 0.7453(4) 0.3900(6)
H27 H 0.8507 0.7652 0.3592
H28 H 1.0268 0.7375 0.3757
C48 C 0.9136(16) 0.7629(4) 0.4582(7)
H29 H 0.9343 0.7386 0.4859
C49 C 1.0718(17) 0.7873(5) 0.4736(8)
H30 H 1.0594 0.7968 0.5187
H31 H 1.0655 0.8114 0.4455
C50 C 1.2559(18) 0.7702(6) 0.4682(9)
H32 H 1.2761 0.7668 0.4213
H33 H 1.3425 0.7914 0.4832
C51 C 1.317(3) 0.7342(6) 0.4976(9)
H34 H 1.4305 0.7252 0.4764
H35 H 1.2221 0.7132 0.4903
C52 C 1.357(3) 0.7379(8) 0.5714(9)
H36 H 1.3982 0.7118 0.5884
H37 H 1.4527 0.7581 0.5793
H38 H 1.2441 0.7460 0.5931
C53 C 0.7238(17) 0.7771(5) 0.4782(7)
H39 H 0.6362 0.7543 0.4755
H40 H 0.6796 0.7983 0.4480
C54 C 0.729(3) 0.7937(7) 0.5472(8)
H41 H 0.6060 0.8026 0.5589
H42 H 0.7713 0.7726 0.5771
H43 H 0.8146 0.8166 0.5497
O2 O 0.6939(17) 0.6221(4) 0.1655(6)
C55 C 0.537(2) 0.5960(6) 0.1648(8)
H44 H 0.4253 0.6111 0.1763
H45 H 0.5558 0.5739 0.1965
C56 C 0.516(2) 0.5786(5) 0.0953(8)
H46 H 0.4736 0.6007 0.0658
C57 C 0.699(2) 0.5634(7) 0.0724(8)
H47 H 0.7327 0.5387 0.0966
H48 H 0.7945 0.5840 0.0816
C58 C 0.693(3) 0.5542(8) 0.0000(9)
H49 H 0.6049 0.5321 -0.0088
H50 H 0.6493 0.5783 -0.0241
C59 C 0.881(3) 0.5424(8) -0.0235(11)
H51 H 0.8672 0.5252 -0.0625
H52 H 0.9469 0.5267 0.0105
C60 C 0.993(4) 0.5807(10) -0.0398(14)
H53 H 1.1144 0.5729 -0.0550
H54 H 0.9274 0.5960 -0.0737
H55 H 1.0069 0.5975 -0.0010
C61 C 0.365(2) 0.5460(5) 0.0960(10)
H56 H 0.3197 0.5408 0.0513
H57 H 0.2605 0.5554 0.1218
C62 C 0.445(3) 0.5070(6) 0.1256(12)
H58 H 0.3487 0.4863 0.1259
H59 H 0.5476 0.4977 0.0996
H60 H 0.4885 0.5123 0.1699
O3? O 0.6552(11) 0.6308(2) 0.1640(4)
C63? C 0.601(4) 0.5894(5) 0.1719(10)
H61? H 0.4970 0.5886 0.2019
H62? H 0.7051 0.5748 0.1929
C64? C 0.546(3) 0.5672(5) 0.1124(11)
H63? H 0.6541 0.5557 0.0897
C65? C 0.428(3) 0.5973(8) 0.0671(12)
H64? H 0.4595 0.6257 0.0766
H65? H 0.4486 0.5919 0.0208
C66? C 0.227(3) 0.5883(11) 0.0846(13)
H66? H 0.2182 0.5601 0.0994
H67? H 0.1915 0.6060 0.1207
C67? C 0.096(4) 0.5947(12) 0.0282(17)
H68? H 0.1597 0.5900 -0.0128
H69? H 0.0502 0.6228 0.0282
C68? C -0.069(5) 0.5651(15) 0.034(2)
H70? H -0.1546 0.5692 -0.0029
H71? H -0.0232 0.5374 0.0332
H72? H -0.1324 0.5701 0.0742
C69? C 0.397(4) 0.5336(7) 0.1295(13)
H73? H 0.4097 0.5258 0.1756
H74? H 0.2710 0.5441 0.1215
C70? C 0.432(5) 0.4974(7) 0.086(2)
H75? H 0.3432 0.4762 0.0954
H76? H 0.4193 0.5055 0.0407
H77? H 0.5573 0.4873 0.0946
S3? S 1.0866(8) 0.64600(16) 0.3652(2)
C71? C 1.136(6) 0.6084(16) 0.311(2)
C72? C 1.004(2) 0.6055(5) 0.2628(8)
H78? H 1.0047 0.5850 0.2308
C73? C 0.862(5) 0.6363(12) 0.2647(15)
C74? C 0.890(3) 0.6592(9) 0.3215(11)
C75? C 0.767(2) 0.6897(5) 0.3361(8)
C76? C 0.620(3) 0.6974(7) 0.2942(8)
C77? C 0.594(3) 0.6742(8) 0.2379(10)
C78? C 0.714(3) 0.6435(6) 0.2233(10)
S4? S 0.3990(6) 0.68829(13) 0.1944(2)
C79? C 0.349(4) 0.7262(9) 0.2472(12)
C80? C 0.474(2) 0.7271(4) 0.2974(8)
H79? H 0.4656 0.7459 0.3319
O4? O 0.8540(8) 0.7043(2) 0.4005(3)
C81? C 1.002(3) 0.7331(6) 0.3957(8)
H80? H 0.9556 0.7580 0.3747
H81? H 1.1006 0.7218 0.3689
C82? C 1.080(2) 0.7429(6) 0.4647(9)
H82? H 1.1661 0.7659 0.4590
C83? C 0.934(3) 0.7580(7) 0.5059(9)
H83? H 0.9911 0.7690 0.5461
H84? H 0.8539 0.7353 0.5180
C84? C 0.815(3) 0.7911(7) 0.4736(11)
H85? H 0.7483 0.7801 0.4352
H86? H 0.8931 0.8137 0.4596
C85? C 0.674(3) 0.8060(7) 0.5251(13)
H87? H 0.7366 0.8098 0.5676
H88? H 0.6187 0.8320 0.5114
C86? C 0.524(4) 0.7734(10) 0.5296(16)
H89? H 0.4330 0.7816 0.5613
H90? H 0.4629 0.7700 0.4872
H91? H 0.5803 0.7479 0.5431
C87? C 1.195(4) 0.7092(8) 0.4907(12)
H92? H 1.3094 0.7077 0.4656
H93? H 1.1276 0.6836 0.4841
C88? C 1.247(7) 0.7133(12) 0.5626(15)
H94? H 1.3229 0.6902 0.5762
H95? H 1.3175 0.7382 0.5696
H96? H 1.1355 0.7141 0.5881
O5? O 0.8540(8) 0.7043(2) 0.4005(3)
C89? C 0.978(3) 0.7372(6) 0.3973(8)
H97? H 0.9165 0.7606 0.3767
H98? H 1.0852 0.7298 0.3708
C90? C 1.046(3) 0.7484(5) 0.4679(9)
H99? H 0.9413 0.7553 0.4965
C91? C 1.182(2) 0.7844(4) 0.4601(10)
H100? H 1.2520 0.7886 0.5013
H101? H 1.2715 0.7780 0.4262
C92? C 1.080(3) 0.8225(5) 0.4421(9)
H102? H 1.1678 0.8453 0.4419
H103? H 1.0268 0.8197 0.3979
C93? C 0.929(3) 0.8317(8) 0.4881(10)
H104? H 0.8362 0.8099 0.4863
H105? H 0.8670 0.8571 0.4750
C94? C 1.006(4) 0.8359(10) 0.5579(9)
H106? H 0.9048 0.8418 0.5870
H107? H 1.0652 0.8106 0.5711
H108? H 1.0960 0.8578 0.5598
C95? C 1.159(4) 0.7123(6) 0.4937(12)
H109? H 1.0781 0.6884 0.4963
H110? H 1.2583 0.7061 0.4634
C96? C 1.243(7) 0.7214(12) 0.5607(17)
H111? H 1.3135 0.6980 0.5760
H112? H 1.3240 0.7448 0.5580
H113? H 1.1439 0.7271 0.5909
O6? O 0.6552(11) 0.6308(2) 0.1640(4)
C97? C 0.519(3) 0.5996(6) 0.1713(7)
H114? H 0.4185 0.6096 0.1987
H115? H 0.5756 0.5760 0.1930
C98? C 0.442(2) 0.5875(5) 0.1072(8)
H116? H 0.3630 0.5631 0.1125
C99? C 0.323(3) 0.6221(7) 0.0762(9)
H117? H 0.2221 0.6300 0.1048
H118? H 0.3998 0.6460 0.0671
C100? C 0.247(4) 0.6026(8) 0.0123(10)
H119? H 0.3506 0.5948 -0.0154
H120? H 0.1764 0.5780 0.0224
C101? C 0.126(4) 0.6317(8) -0.0228(13)
H121? H 0.2002 0.6478 -0.0530
H122? H 0.0702 0.6504 0.0085
C102? C -0.026(4) 0.6091(12) -0.0607(18)
H123? H -0.1050 0.6285 -0.0837
H124? H 0.0300 0.5909 -0.0919
H125? H -0.0998 0.5935 -0.0306
C103? C 0.595(3) 0.5780(7) 0.0584(9)
H126? H 0.6907 0.5993 0.0598
H127? H 0.5429 0.5764 0.0139
C104? C 0.681(4) 0.5366(8) 0.0789(15)
H128? H 0.7788 0.5294 0.0492
H129? H 0.7323 0.5386 0.1230
H130? H 0.5852 0.5158 0.0774
loop_
_geom_bond_atom_site_label_1
_geom_bond_atom_site_label_2
_geom_bond_site_symmetry_1
_geom_bond_site_symmetry_2
C1 C2 1_555 1_555
C2 H1 1_555 1_555
C3 C2 1_555 1_555
H2 C3 1_555 1_555
C4 C3 1_555 1_555
C5 C4 1_555 1_555
H3 C5 1_555 1_555
C6 C1 1_555 1_555
H4 C6 1_555 1_555
C7 C8 1_555 1_555
C8 H5 1_555 1_555
C9 C8 1_555 1_555
H6 C9 1_555 1_555
C10 C9 1_555 1_555
H7 C10 1_555 1_555
C11 C10 1_555 1_555
H8 C11 1_555 1_555
C12 C7 1_555 1_555
C13 C12 1_555 1_555
C14 C13 1_555 1_555
H9 C14 1_555 1_555
C15 C14 1_555 1_555
H10 C15 1_555 1_555
C16 C15 1_555 1_555
H11 C16 1_555 1_555
C17 C16 1_555 1_555
H12 C17 1_555 1_555
C18 C13 1_555 1_555
C19 C20 1_555 1_555
C20 H13 1_555 1_555
C21 C20 1_555 1_555
H14 C21 1_555 1_555
C22 C21 1_555 1_555
C23 C22 1_555 1_555
H15 C23 1_555 1_555
C24 C19 1_555 1_555
H16 C24 1_555 1_555
C25 C26 1_555 1_555
C26 H17 1_555 1_555
C27 C26 1_555 1_555
H18 C27 1_555 1_555
C28 C27 1_555 1_555
H19 C28 1_555 1_555
C29 C28 1_555 1_555
H20 C29 1_555 1_555
C30 C25 1_555 1_555
C31 C30 1_555 1_555
C32 C31 1_555 1_555
H21 C32 1_555 1_555
C33 C32 1_555 1_555
H22 C33 1_555 1_555
C34 C33 1_555 1_555
H23 C34 1_555 1_555
C35 C34 1_555 1_555
H24 C35 1_555 1_555
C36 C31 1_555 1_555
N1 C4 1_555 1_555
N2 C22 1_555 1_555
S1 C37 1_555 1_555
C37 C1 1_555 1_555
C38 C37 1_555 1_555
H25 C38 1_555 1_555
C39 C38 1_555 1_555
C40 S1 1_555 1_555
C41 C40 1_555 1_555
C42 C41 1_555 1_555
C43 C42 1_555 1_555
C44 C39 1_555 1_555
S2 C43 1_555 1_555
C45 C19 1_555 1_555
C46 C42 1_555 1_555
H26 C46 1_555 1_555
O1 C44 1_555 1_555
C47 O1 1_555 1_555
H27 C47 1_555 1_555
H28 C47 1_555 1_555
C48 C47 1_555 1_555
H29 C48 1_555 1_555
C49 C48 1_555 1_555
H30 C49 1_555 1_555
H31 C49 1_555 1_555
C50 C49 1_555 1_555
H32 C50 1_555 1_555
H33 C50 1_555 1_555
C51 C50 1_555 1_555
H34 C51 1_555 1_555
H35 C51 1_555 1_555
C52 C51 1_555 1_555
H36 C52 1_555 1_555
H37 C52 1_555 1_555
H38 C52 1_555 1_555
C53 C48 1_555 1_555
H39 C53 1_555 1_555
H40 C53 1_555 1_555
C54 C53 1_555 1_555
H41 C54 1_555 1_555
H42 C54 1_555 1_555
H43 C54 1_555 1_555
O2 C41 1_555 1_555
C55 O2 1_555 1_555
H44 C55 1_555 1_555
H45 C55 1_555 1_555
C56 C55 1_555 1_555
H46 C56 1_555 1_555
C57 C56 1_555 1_555
H47 C57 1_555 1_555
H48 C57 1_555 1_555
C58 C57 1_555 1_555
H49 C58 1_555 1_555
H50 C58 1_555 1_555
C59 C58 1_555 1_555
H51 C59 1_555 1_555
H52 C59 1_555 1_555
C60 C59 1_555 1_555
H53 C60 1_555 1_555
H54 C60 1_555 1_555
H55 C60 1_555 1_555
C61 C56 1_555 1_555
H56 C61 1_555 1_555
H57 C61 1_555 1_555
C62 C61 1_555 1_555
H58 C62 1_555 1_555
H59 C62 1_555 1_555
H60 C62 1_555 1_555
C5 C6 1_555 1_555
C7 N1 1_555 1_555
C11 C12 1_555 1_555
C17 C18 1_555 1_555
C18 N1 1_555 1_555
C23 C24 1_555 1_555
C25 N2 1_555 1_555
C29 C30 1_555 1_555
C35 C36 1_555 1_555
C36 N2 1_555 1_555
C39 C40 1_555 1_555
C43 C44 1_555 1_555
S2 C45 1_555 1_555
C45 C46 1_555 1_555

#END
