
#######################################################################
#
#                 Cambridge Crystallographic Data Centre
#                                CCDC 
#
#######################################################################
#
# If this CIF has been generated from an entry in the Cambridge 
# Structural Database, then it will include bibliographic, chemical, 
# crystal, experimental, refinement or atomic coordinate data resulting 
# from the CCDC's data processing and validation procedures.
#
#######################################################################

data_MIGWUX
_chemical_formula_moiety         '2(C11 H18 N1 1+),I3 1-,I1 1-'
_chemical_name_systematic        
'bis(N,N,2,4,6-pentamethylanilinium) triiodide iodide'
_symmetry_cell_setting           triclinic
_symmetry_space_group_name_H-M   'P -1'
_symmetry_Int_Tables_number      2
_space_group_name_Hall           '-P 1'
loop_
_symmetry_equiv_pos_site_id
_symmetry_equiv_pos_as_xyz
1 x,y,z
2 -x,-y,-z
_cell_length_a                   9.7006(19)
_cell_length_b                   11.404(2)
_cell_length_c                   15.584(3)
_cell_angle_alpha                76.74(3)
_cell_angle_beta                 79.97(3)
_cell_angle_gamma                65.09(3)
_cell_volume                     1516.04
_exptl_crystal_colour            colorless
_exptl_crystal_description       lamellar
_cell_formula_units_Z            2
loop_
_atom_site_label
_atom_site_type_symbol
_atom_site_fract_x
_atom_site_fract_y
_atom_site_fract_z
N1 N 0.6350(6) 0.3633(5) 0.3338(4)
H1 H 0.649(6) 0.406(5) 0.361(4)
C1 C 0.5429(6) 0.4491(5) 0.2593(4)
C2 C 0.4975(6) 0.5822(5) 0.2534(4)
C3 C 0.4090(7) 0.6657(6) 0.1848(4)
H2 H 0.3781 0.7560 0.1790
C4 C 0.3668(7) 0.6165(7) 0.1253(4)
C5 C 0.4170(8) 0.4845(7) 0.1336(4)
H3 H 0.3902 0.4518 0.0925
C6 C 0.5050(7) 0.3959(6) 0.1990(4)
C7 C 0.5541(8) 0.2943(7) 0.4035(5)
H4 H 0.6200 0.2417 0.4495
H5 H 0.5271 0.2390 0.3776
H6 H 0.4633 0.3581 0.4281
C8 C 0.7927(7) 0.2724(7) 0.3064(5)
H7 H 0.8408 0.3206 0.2624
H8 H 0.7875 0.2043 0.2822
H9 H 0.8511 0.2339 0.3569
C9 C 0.5375(7) 0.6423(6) 0.3171(4)
H10 H 0.5986 0.5739 0.3602
H11 H 0.4456 0.6981 0.3463
H12 H 0.5938 0.6932 0.2851
C10 C 0.2644(10) 0.7089(8) 0.0534(5)
H13 H 0.2462 0.6585 0.0184
H14 H 0.3134 0.7625 0.0162
H15 H 0.1690 0.7640 0.0802
C11 C 0.5518(9) 0.2507(6) 0.1995(5)
H16 H 0.5120 0.2405 0.1507
H17 H 0.5118 0.2123 0.2540
H18 H 0.6611 0.2076 0.1941
N2 N 0.0440(5) 0.2715(5) 0.6723(3)
H19 H -0.0302 0.3440 0.6449
C12 C 0.0786(6) 0.3156(6) 0.7458(4)
C13 C 0.1857(7) 0.2298(6) 0.8042(4)
C14 C 0.2150(8) 0.2814(7) 0.8670(4)
H20 H 0.2874 0.2252 0.9061
C15 C 0.1433(8) 0.4114(7) 0.8753(4)
C16 C 0.0341(7) 0.4927(7) 0.8172(4)
H21 H -0.0174 0.5809 0.8221
C17 C -0.0011(6) 0.4478(6) 0.7525(4)
C18 C 0.2708(8) 0.0833(6) 0.8054(5)
H22 H 0.3378 0.0457 0.8520
H23 H 0.3294 0.0685 0.7496
H24 H 0.1989 0.0429 0.8153
C19 C -0.1225(7) 0.5437(6) 0.6925(4)
H25 H -0.1629 0.6287 0.7092
H26 H -0.2031 0.5139 0.6979
H27 H -0.0786 0.5493 0.6323
C20 C 0.1867(9) 0.4635(8) 0.9428(5)
H28 H 0.1776 0.4136 1.0006
H29 H 0.1200 0.5541 0.9424
H30 H 0.2902 0.4559 0.9284
C21 C -0.0258(8) 0.1718(7) 0.7026(5)
H31 H -0.1093 0.2020 0.7465
H32 H 0.0497 0.0896 0.7277
H33 H -0.0624 0.1602 0.6530
C22 C 0.1741(7) 0.2340(7) 0.6028(5)
H34 H 0.2127 0.3017 0.5858
H35 H 0.1395 0.2235 0.5521
H36 H 0.2535 0.1529 0.6257
I1 I 0.37570(6) 0.02505(5) 0.40744(3)
I2 I 0.22609(5) 0.06603(4) 0.24946(3)
I3 I 0.07003(7) 0.10573(6) 0.09424(4)
I4 I 0.79727(6) 0.41172(6) 0.50156(4)
loop_
_geom_bond_atom_site_label_1
_geom_bond_atom_site_label_2
_geom_bond_site_symmetry_1
_geom_bond_site_symmetry_2
N1 H1 1_555 1_555
C1 N1 1_555 1_555
C2 C1 1_555 1_555
C3 C2 1_555 1_555
H2 C3 1_555 1_555
C4 C3 1_555 1_555
C5 C4 1_555 1_555
H3 C5 1_555 1_555
C6 C1 1_555 1_555
C7 N1 1_555 1_555
H4 C7 1_555 1_555
H5 C7 1_555 1_555
H6 C7 1_555 1_555
C8 N1 1_555 1_555
H7 C8 1_555 1_555
H8 C8 1_555 1_555
H9 C8 1_555 1_555
C9 C2 1_555 1_555
H10 C9 1_555 1_555
H11 C9 1_555 1_555
H12 C9 1_555 1_555
C10 C4 1_555 1_555
H13 C10 1_555 1_555
H14 C10 1_555 1_555
H15 C10 1_555 1_555
C11 C6 1_555 1_555
H16 C11 1_555 1_555
H17 C11 1_555 1_555
H18 C11 1_555 1_555
N2 H19 1_555 1_555
C12 N2 1_555 1_555
C13 C12 1_555 1_555
C14 C13 1_555 1_555
H20 C14 1_555 1_555
C15 C14 1_555 1_555
C16 C15 1_555 1_555
H21 C16 1_555 1_555
C17 C12 1_555 1_555
C18 C13 1_555 1_555
H22 C18 1_555 1_555
H23 C18 1_555 1_555
H24 C18 1_555 1_555
C19 C17 1_555 1_555
H25 C19 1_555 1_555
H26 C19 1_555 1_555
H27 C19 1_555 1_555
C20 C15 1_555 1_555
H28 C20 1_555 1_555
H29 C20 1_555 1_555
H30 C20 1_555 1_555
C21 N2 1_555 1_555
H31 C21 1_555 1_555
H32 C21 1_555 1_555
H33 C21 1_555 1_555
C22 N2 1_555 1_555
H34 C22 1_555 1_555
H35 C22 1_555 1_555
H36 C22 1_555 1_555
I1 I2 1_555 1_555
I2 I3 1_555 1_555
C5 C6 1_555 1_555
C16 C17 1_555 1_555

#END
