
#######################################################################
#
#                 Cambridge Crystallographic Data Centre
#                                CCDC 
#
#######################################################################
#
# If this CIF has been generated from an entry in the Cambridge 
# Structural Database, then it will include bibliographic, chemical, 
# crystal, experimental, refinement or atomic coordinate data resulting 
# from the CCDC's data processing and validation procedures.
#
#######################################################################

data_MIHMUL
_chemical_formula_moiety         'C13 H13 Br1 O2'
_chemical_name_systematic        
"(S)-(+)-4-(4'-Bromophenyl)-2-n-propyl-2,3-butadienoic acid"
_symmetry_cell_setting           monoclinic
_symmetry_space_group_name_H-M   'P 21'
_symmetry_Int_Tables_number      4
_space_group_name_Hall           'P 2yb'
loop_
_symmetry_equiv_pos_site_id
_symmetry_equiv_pos_as_xyz
1 x,y,z
2 -x,1/2+y,-z
_cell_length_a                   15.468(4)
_cell_length_b                   5.6049(19)
_cell_length_c                   15.501(5)
_cell_angle_alpha                90
_cell_angle_beta                 98.61(2)
_cell_angle_gamma                90
_cell_volume                     1328.74
_cell_formula_units_Z            4
loop_
_atom_site_label
_atom_site_type_symbol
_atom_site_fract_x
_atom_site_fract_y
_atom_site_fract_z
Br1 Br 0.49425(7) -0.3125(2) 0.18610(6)
O1 O 0.1646(4) 0.0419(12) 0.6392(4)
O2 O 0.3021(4) -0.0640(15) 0.6324(4)
C1 C 0.3716(5) -0.0639(18) 0.3862(7)
C2 C 0.3942(6) -0.2028(17) 0.3203(7)
C3 C 0.4630(6) -0.1250(19) 0.2793(5)
C4 C 0.5076(6) 0.079(2) 0.3035(7)
C5 C 0.4853(5) 0.216(2) 0.3714(6)
C6 C 0.4143(4) 0.1422(17) 0.4123(5)
C7 C 0.3903(5) 0.2930(18) 0.4829(6)
C8 C 0.3143(5) 0.2704(15) 0.5122(5)
C9 C 0.2408(5) 0.2456(18) 0.5433(5)
C10 C 0.2323(7) 0.0690(16) 0.6093(6)
C11 C 0.1577(6) 0.3911(18) 0.5092(6)
H1 H 0.1113 0.2798 0.4883
H2 H 0.1401 0.4770 0.5580
C12 C 0.1649(6) 0.562(2) 0.4400(7)
H3 H 0.1800 0.4766 0.3898
H4 H 0.2121 0.6718 0.4597
C13 C 0.0810(6) 0.705(3) 0.4116(7)
H5 H 0.0352 0.5986 0.3869
H6 H 0.0913 0.8209 0.3687
H7 H 0.0641 0.7842 0.4613
H15 H 0.331(9) -0.14(3) 0.426(10)
H16 H 0.377(10) -0.34(4) 0.305(10)
H17 H 0.538(10) 0.11(3) 0.275(10)
H18 H 0.512(10) 0.38(3) 0.384(10)
H19 H 0.428(10) 0.38(3) 0.519(10)
H20 H 0.286(6) -0.19(2) 0.665(7)
Br2 Br -0.25930(7) -0.2501(2) 0.78904(10)
O3 O 0.2742(4) 0.6082(14) 0.7465(4)
O4 O 0.1350(4) 0.7053(16) 0.7484(5)
C14 C -0.0129(6) 0.038(2) 0.8359(6)
C15 C -0.0809(9) -0.1119(18) 0.8084(6)
C16 C -0.1633(7) -0.0501(19) 0.8283(6)
C17 C -0.1750(6) 0.145(2) 0.8728(7)
C18 C -0.1065(6) 0.2991(17) 0.9036(5)
C19 C -0.0224(5) 0.2424(18) 0.8830(5)
C20 C 0.0512(6) 0.4030(17) 0.9137(5)
C21 C 0.1258(6) 0.4091(16) 0.8806(5)
C22 C 0.1990(6) 0.4121(19) 0.8462(6)
C23 C 0.2058(7) 0.5783(18) 0.7767(6)
C24 C 0.2773(6) 0.263(2) 0.8795(7)
H8 H 0.2934 0.1740 0.8305
H9 H 0.3254 0.3698 0.8995
C25 C 0.2702(7) 0.093(3) 0.9493(8)
H10 H 0.2244 -0.0210 0.9295
H11 H 0.2535 0.1780 0.9988
C26 C 0.3545(8) -0.039(3) 0.9783(9)
H12 H 0.3748 -0.1091 0.9285
H13 H 0.3445 -0.1631 1.0186
H14 H 0.3977 0.0695 1.0064
H21 H 0.042(8) 0.02(2) 0.830(8)
H22 H -0.070(6) -0.29(3) 0.774(6)
H23 H -0.219(7) 0.15(3) 0.895(7)
H24 H -0.108(7) 0.48(2) 0.936(7)
H25 H 0.035(7) 0.54(2) 0.951(6)
H26 H 0.148(7) 0.79(2) 0.707(7)
loop_
_geom_bond_atom_site_label_1
_geom_bond_atom_site_label_2
_geom_bond_site_symmetry_1
_geom_bond_site_symmetry_2
Br1 C3 1_555 1_555
Br2 C16 1_555 1_555
O1 C10 1_555 1_555
O2 C10 1_555 1_555
O3 C23 1_555 1_555
O4 C23 1_555 1_555
C1 C2 1_555 1_555
C2 C3 1_555 1_555
C3 C4 1_555 1_555
C4 C5 1_555 1_555
C5 C6 1_555 1_555
C6 C1 1_555 1_555
C7 C6 1_555 1_555
C8 C7 1_555 1_555
C9 C8 1_555 1_555
C10 C9 1_555 1_555
C11 C9 1_555 1_555
H1 C11 1_555 1_555
H2 C11 1_555 1_555
C12 C11 1_555 1_555
H3 C12 1_555 1_555
H4 C12 1_555 1_555
C13 C12 1_555 1_555
H5 C13 1_555 1_555
H6 C13 1_555 1_555
H7 C13 1_555 1_555
C14 C15 1_555 1_555
C15 C16 1_555 1_555
C16 C17 1_555 1_555
C17 C18 1_555 1_555
C18 C19 1_555 1_555
C19 C14 1_555 1_555
C20 C19 1_555 1_555
C21 C20 1_555 1_555
C22 C21 1_555 1_555
C23 C22 1_555 1_555
C24 C22 1_555 1_555
H8 C24 1_555 1_555
H9 C24 1_555 1_555
C25 C24 1_555 1_555
H10 C25 1_555 1_555
H11 C25 1_555 1_555
C26 C25 1_555 1_555
H12 C26 1_555 1_555
H13 C26 1_555 1_555
H14 C26 1_555 1_555
H15 C1 1_555 1_555
H16 C2 1_555 1_555
H17 C4 1_555 1_555
H18 C5 1_555 1_555
H19 C7 1_555 1_555
H20 O2 1_555 1_555
H21 C14 1_555 1_555
H22 C15 1_555 1_555
H23 C17 1_555 1_555
H24 C18 1_555 1_555
H25 C20 1_555 1_555
H26 O4 1_555 1_555

#END
