
#######################################################################
#
#                 Cambridge Crystallographic Data Centre
#                                CCDC 
#
#######################################################################
#
# If this CIF has been generated from an entry in the Cambridge 
# Structural Database, then it will include bibliographic, chemical, 
# crystal, experimental, refinement or atomic coordinate data resulting 
# from the CCDC's data processing and validation procedures.
#
#######################################################################

data_MIHZOT
_chemical_formula_moiety         'C17 H22 N2 O3'
_chemical_name_systematic        
2-(\a-methylbutyryl)-1-cyano-6,7-dimethoxy-1,2,3,4-tetrahydroisoquinoline
_symmetry_cell_setting           monoclinic
_symmetry_space_group_name_H-M   'P 21'
_symmetry_Int_Tables_number      4
_space_group_name_Hall           'P 2yb'
loop_
_symmetry_equiv_pos_site_id
_symmetry_equiv_pos_as_xyz
1 x,y,z
2 -x,1/2+y,-z
_cell_length_a                   10.6078(3)
_cell_length_b                   11.6253(3)
_cell_length_c                   13.1419(3)
_cell_angle_alpha                90
_cell_angle_beta                 92.734(2)
_cell_angle_gamma                90
_cell_volume                     1618.8
_exptl_crystal_colour            colorless
_exptl_crystal_description       prism
_chemical_melting_point          '140-141 deg.C'
_cell_formula_units_Z            4
loop_
_atom_site_label
_atom_site_type_symbol
_atom_site_fract_x
_atom_site_fract_y
_atom_site_fract_z
C1 C 0.69931(18) 0.14501(16) 0.26558(14)
H1 H 0.6144 0.1343 0.2941
C2 C 0.70684(19) 0.26511(17) 0.22653(14)
C3 C 0.84111(19) 0.02883(18) 0.16189(15)
H2 H 0.8913 0.0981 0.1469
H3 H 0.8407 -0.0225 0.1017
C4 C 0.9000(2) -0.03256(18) 0.25338(15)
H4 H 0.856 -0.1065 0.2634
H5 H 0.9898 -0.0493 0.242
C5 C 0.97884(18) 0.02792(17) 0.42854(15)
H6 H 1.0396 -0.032 0.4267
C6 C 0.97894(17) 0.10077(17) 0.51223(14)
C7 C 0.8856(2) 0.18589(17) 0.51681(14)
C8 C 0.79590(19) 0.19652(17) 0.43806(14)
H7 H 0.7311 0.2524 0.4423
C9 C 0.79897(18) 0.12583(16) 0.35153(14)
C10 C 0.89052(18) 0.04151(17) 0.34687(14)
C11 C 1.1735(2) 0.0242(2) 0.57803(16)
H8 H 1.1435 -0.0553 0.5705
H9 H 1.2319 0.0298 0.6379
H10 H 1.2171 0.0467 0.5171
C12 C 0.8725(2) 0.2230(2) 0.69466(15)
H11 H 0.8194 0.154 0.6916
H12 H 0.8329 0.2818 0.736
H13 H 0.9557 0.2036 0.7254
C13 C 0.60723(18) 0.04821(17) 0.11827(14)
C14 C 0.6078(2) -0.04247(18) 0.03489(16)
H14 H 0.6858 -0.0904 0.0442
C15 C 0.6060(2) 0.0152(2) -0.06928(17)
H15 H 0.603 -0.0452 -0.1224
H16 H 0.5278 0.0614 -0.0783
C16 C 0.7180(3) 0.0925(3) -0.0856(2)
H17 H 0.7247 0.1503 -0.0314
H18 H 0.7067 0.131 -0.1518
H19 H 0.7953 0.0462 -0.0844
C17 C 0.4914(2) -0.1192(2) 0.0452(2)
H20 H 0.4148 -0.0727 0.035
H21 H 0.4937 -0.1536 0.1134
H22 H 0.4915 -0.1803 -0.0062
N1 N 0.71416(18) 0.35671(17) 0.19619(14)
N2 N 0.71096(15) 0.06262(14) 0.18216(12)
O1 O 0.51161(13) 0.10577(13) 0.13035(10)
O2 O 1.06856(13) 0.09880(12) 0.59059(10)
O3 O 0.88621(14) 0.26627(12) 0.59377(10)
C18 C 0.30270(18) 0.21707(16) 0.25821(14)
H23 H 0.389 0.2314 0.2334
C19 C 0.29244(19) 0.09258(18) 0.28363(15)
C20 C 0.15609(18) 0.29949(19) 0.37768(15)
H24 H 0.1538 0.3412 0.4432
H25 H 0.119 0.2223 0.3868
C21 C 0.0802(2) 0.3645(2) 0.29607(15)
H26 H 0.1037 0.4469 0.2989
H27 H -0.0107 0.3583 0.309
C22 C 0.01787(19) 0.34504(17) 0.11003(15)
H28 H -0.0537 0.3914 0.1221
C23 C 0.03661(18) 0.30550(16) 0.01285(14)
C24 C 0.14198(19) 0.23633(16) -0.00594(14)
C25 C 0.22612(18) 0.20839(17) 0.07430(14)
H29 H 0.2974 0.1616 0.0625
C26 C 0.20636(18) 0.24911(16) 0.17315(14)
C27 C 0.10324(18) 0.31759(17) 0.19120(14)
C28 C -0.1432(2) 0.4056(2) -0.05543(18)
H30 H -0.1975 0.3743 -0.0038
H31 H -0.1927 0.4158 -0.1197
H32 H -0.1092 0.48 -0.0324
C29 C 0.2642(2) 0.1444(2) -0.12950(16)
H33 H 0.3388 0.1889 -0.1066
H34 H 0.2646 0.133 -0.2034
H35 H 0.2656 0.0695 -0.0953
C30 C 0.39275(19) 0.31969(17) 0.40526(14)
C31 C 0.3796(2) 0.41188(18) 0.48612(15)
H36 H 0.2951 0.4495 0.476
C32 C 0.4829(2) 0.50159(19) 0.47208(18)
H37 H 0.475 0.5629 0.5237
H38 H 0.5663 0.4646 0.4843
C33 C 0.4771(3) 0.5556(2) 0.3669(2)
H39 H 0.491 0.4963 0.3157
H40 H 0.5426 0.6148 0.3636
H41 H 0.3939 0.5908 0.3535
C34 C 0.3903(3) 0.3579(2) 0.59219(17)
H42 H 0.3206 0.3038 0.5998
H43 H 0.3864 0.4185 0.6438
H44 H 0.4708 0.3169 0.601
N3 N 0.2820(2) -0.00233(17) 0.30349(14)
N4 N 0.28695(15) 0.28814(14) 0.34819(12)
O4 O 0.49571(13) 0.27825(13) 0.38756(11)
O5 O -0.04149(13) 0.32771(12) -0.07062(10)
O6 O 0.15350(14) 0.20506(13) -0.10516(10)
loop_
_geom_bond_atom_site_label_1
_geom_bond_atom_site_label_2
_geom_bond_site_symmetry_1
_geom_bond_site_symmetry_2
C1 H1 1_555 1_555
C2 C1 1_555 1_555
C3 H2 1_555 1_555
H3 C3 1_555 1_555
C4 C3 1_555 1_555
H4 C4 1_555 1_555
H5 C4 1_555 1_555
C5 H6 1_555 1_555
C6 C5 1_555 1_555
C7 C6 1_555 1_555
C8 C7 1_555 1_555
H7 C8 1_555 1_555
C9 C1 1_555 1_555
C10 C4 1_555 1_555
C11 H8 1_555 1_555
H9 C11 1_555 1_555
H10 C11 1_555 1_555
C12 H11 1_555 1_555
H12 C12 1_555 1_555
H13 C12 1_555 1_555
C13 C14 1_555 1_555
C14 H14 1_555 1_555
C15 C14 1_555 1_555
H15 C15 1_555 1_555
H16 C15 1_555 1_555
C16 C15 1_555 1_555
H17 C16 1_555 1_555
H18 C16 1_555 1_555
H19 C16 1_555 1_555
C17 C14 1_555 1_555
H20 C17 1_555 1_555
H21 C17 1_555 1_555
H22 C17 1_555 1_555
C18 H23 1_555 1_555
C19 C18 1_555 1_555
C20 H24 1_555 1_555
H25 C20 1_555 1_555
C21 C20 1_555 1_555
H26 C21 1_555 1_555
H27 C21 1_555 1_555
C22 H28 1_555 1_555
C23 C22 1_555 1_555
C24 C23 1_555 1_555
C25 C24 1_555 1_555
H29 C25 1_555 1_555
C26 C18 1_555 1_555
C27 C21 1_555 1_555
C28 H30 1_555 1_555
H31 C28 1_555 1_555
H32 C28 1_555 1_555
C29 H33 1_555 1_555
H34 C29 1_555 1_555
H35 C29 1_555 1_555
C30 C31 1_555 1_555
C31 H36 1_555 1_555
C32 C31 1_555 1_555
H37 C32 1_555 1_555
H38 C32 1_555 1_555
C33 C32 1_555 1_555
H39 C33 1_555 1_555
H40 C33 1_555 1_555
H41 C33 1_555 1_555
C34 C31 1_555 1_555
H42 C34 1_555 1_555
H43 C34 1_555 1_555
H44 C34 1_555 1_555
N1 C2 1_555 1_555
N2 C1 1_555 1_555
N3 C19 1_555 1_555
N4 C18 1_555 1_555
O1 C13 1_555 1_555
O2 C6 1_555 1_555
O3 C7 1_555 1_555
O4 C30 1_555 1_555
O5 C23 1_555 1_555
O6 C24 1_555 1_555
C3 N2 1_555 1_555
C5 C10 1_555 1_555
C8 C9 1_555 1_555
C9 C10 1_555 1_555
C11 O2 1_555 1_555
C12 O3 1_555 1_555
C13 N2 1_555 1_555
C20 N4 1_555 1_555
C22 C27 1_555 1_555
C25 C26 1_555 1_555
C26 C27 1_555 1_555
C28 O5 1_555 1_555
C29 O6 1_555 1_555
C30 N4 1_555 1_555

#END
