
#######################################################################
#
#                 Cambridge Crystallographic Data Centre
#                                CCDC 
#
#######################################################################
#
# If this CIF has been generated from an entry in the Cambridge 
# Structural Database, then it will include bibliographic, chemical, 
# crystal, experimental, refinement or atomic coordinate data resulting 
# from the CCDC's data processing and validation procedures.
#
#######################################################################

data_MIHZEJ
_chemical_formula_moiety         'C38 H52 N2 O2'
_chemical_name_systematic        
(S)-2-cholesteryloxycarbonyl-1,2-dihydroisoquinoline-1-carbonitrile
_symmetry_cell_setting           monoclinic
_symmetry_space_group_name_H-M   'P 21'
_symmetry_Int_Tables_number      4
_space_group_name_Hall           'P 2yb'
loop_
_symmetry_equiv_pos_site_id
_symmetry_equiv_pos_as_xyz
1 x,y,z
2 -x,1/2+y,-z
_cell_length_a                   10.224(5)
_cell_length_b                   9.366(5)
_cell_length_c                   16.942(9)
_cell_angle_alpha                90
_cell_angle_beta                 92.86(4)
_cell_angle_gamma                90
_cell_volume                     1620.31
_exptl_crystal_colour            white
_exptl_crystal_description       irregular
_chemical_melting_point          '200-201 deg.C'
_cell_formula_units_Z            2
loop_
_atom_site_label
_atom_site_type_symbol
_atom_site_fract_x
_atom_site_fract_y
_atom_site_fract_z
C1 C 0.0559(3) 0.2593(5) 0.6577(2)
H1 H 0.0888 0.2311 0.7101
H2 H 0.0018 0.1819 0.6366
C2 C 0.1709(4) 0.2773(5) 0.6062(2)
H3 H 0.2319 0.3464 0.6297
H4 H 0.2163 0.187 0.6016
C3 C 0.1233(3) 0.3272(4) 0.5267(2)
H5 H 0.0638 0.2558 0.5024
C4 C 0.0539(4) 0.4650(4) 0.5330(2)
H6 H 0.0226 0.4962 0.4808
H7 H 0.1138 0.5367 0.5548
C5 C -0.0593(3) 0.4495(4) 0.5849(2)
C6 C -0.1764(3) 0.4866(4) 0.5583(2)
H8 H -0.1854 0.5207 0.5068
C7 C -0.2950(4) 0.4786(5) 0.6033(2)
H9 H -0.3494 0.4008 0.5829
H10 H -0.3442 0.5665 0.5959
C8 C -0.2654(3) 0.4558(4) 0.6897(2)
H11 H -0.2368 0.5465 0.7138
C9 C -0.1577(3) 0.3470(4) 0.70297(19)
H12 H -0.1879 0.26 0.6755
C10 C -0.0302(3) 0.3911(4) 0.6657(2)
C11 C -0.1398(4) 0.3084(6) 0.7897(2)
H13 H -0.078 0.2301 0.7952
H14 H -0.1019 0.3896 0.8181
C12 C -0.2652(4) 0.2659(5) 0.8274(3)
H15 H -0.2972 0.1771 0.8042
H16 H -0.2472 0.2499 0.8834
C13 C -0.3691(3) 0.3788(4) 0.8162(2)
C14 C -0.3854(3) 0.4061(4) 0.7280(2)
H17 H -0.4075 0.3134 0.704
C15 C -0.5073(4) 0.4940(7) 0.7190(3)
H18 H -0.5497 0.4818 0.6669
H19 H -0.4882 0.5945 0.7274
C16 C -0.5922(4) 0.4362(7) 0.7826(3)
H20 H -0.6239 0.5139 0.8143
H21 H -0.6671 0.3858 0.7588
C17 C -0.5097(3) 0.3358(5) 0.8337(2)
H22 H -0.5239 0.2397 0.8121
C18 C -0.3301(4) 0.5117(6) 0.8615(2)
H23 H -0.3312 0.493 0.9171
H24 H -0.3907 0.587 0.8478
H25 H -0.2435 0.5399 0.8484
C19 C 0.0429(4) 0.5017(5) 0.7149(2)
H26 H 0.1197 0.5307 0.6887
H27 H 0.0681 0.4619 0.7656
H28 H -0.0126 0.583 0.7217
C20 C -0.5508(3) 0.3321(7) 0.9180(2)
H29 H -0.5414 0.4292 0.9391
C21 C -0.4692(6) 0.2366(12) 0.9705(4)
H30 H -0.4689 0.1422 0.9484
H31 H -0.5049 0.2333 1.0218
H32 H -0.3812 0.2725 0.9751
C22 C -0.6938(4) 0.2911(8) 0.9215(3)
H33 H -0.7426 0.3398 0.879
H34 H -0.7017 0.1893 0.9116
C23 C -0.7557(4) 0.3233(8) 0.9964(3)
H35 H -0.7114 0.2689 1.0385
H36 H -0.7429 0.4238 1.0084
C24 C -0.8962(5) 0.2915(10) 0.9958(3)
H37 H -0.9395 0.3523 0.9562
H38 H -0.908 0.1938 0.9779
C25 C -0.9660(6) 0.3070(16) 1.0685(4)
H39 H -0.9281 0.2245 1.097
C26 C -0.9363(10) 0.402(2) 1.1199(6)
H40 H -0.8428 0.407 1.1278
H41 H -0.9743 0.3775 1.1688
H42 H -0.9694 0.4926 1.1018
C27 C -1.1021(7) 0.256(2) 1.0606(5)
H43 H -1.1047 0.1557 1.0724
H44 H -1.1362 0.2716 1.0074
H45 H -1.1544 0.3069 1.0966
C28 C 0.4469(3) 0.3910(4) 0.4069(2)
H46 H 0.4532 0.3249 0.4518
C29 C 0.3134(4) 0.3973(5) 0.2852(2)
H47 H 0.2306 0.4079 0.2606
C30 C 0.4166(5) 0.4110(6) 0.2432(3)
H48 H 0.4056 0.4354 0.1901
C31 C 0.5454(4) 0.3896(5) 0.2769(2)
C32 C 0.6562(5) 0.3811(7) 0.2337(3)
H49 H 0.6493 0.3951 0.1793
C33 C 0.7744(4) 0.3529(9) 0.2694(3)
H50 H 0.8483 0.3511 0.2396
C34 C 0.7868(4) 0.3273(7) 0.3477(3)
H51 H 0.8683 0.3055 0.3715
C35 C 0.6792(3) 0.3336(5) 0.3916(3)
H52 H 0.6867 0.3149 0.4456
C36 C 0.5606(3) 0.3672(4) 0.3568(2)
C37 C 0.4531(4) 0.5365(5) 0.4366(2)
C38 C 0.2113(3) 0.3480(5) 0.4026(2)
N1 N 0.3243(3) 0.3680(4) 0.36371(16)
N2 N 0.4613(5) 0.6490(5) 0.4589(3)
O1 O 0.1076(2) 0.3353(4) 0.36999(17)
O2 O 0.2360(2) 0.3430(3) 0.47979(14)
loop_
_geom_bond_atom_site_label_1
_geom_bond_atom_site_label_2
_geom_bond_site_symmetry_1
_geom_bond_site_symmetry_2
C1 H1 1_555 1_555
H2 C1 1_555 1_555
C2 C1 1_555 1_555
H3 C2 1_555 1_555
H4 C2 1_555 1_555
C3 C2 1_555 1_555
H5 C3 1_555 1_555
C4 C3 1_555 1_555
H6 C4 1_555 1_555
H7 C4 1_555 1_555
C5 C4 1_555 1_555
C6 C5 1_555 1_555
H8 C6 1_555 1_555
C7 C6 1_555 1_555
H9 C7 1_555 1_555
H10 C7 1_555 1_555
C8 C7 1_555 1_555
H11 C8 1_555 1_555
C9 C8 1_555 1_555
H12 C9 1_555 1_555
C10 C1 1_555 1_555
C11 C9 1_555 1_555
H13 C11 1_555 1_555
H14 C11 1_555 1_555
C12 C11 1_555 1_555
H15 C12 1_555 1_555
H16 C12 1_555 1_555
C13 C12 1_555 1_555
C14 C8 1_555 1_555
H17 C14 1_555 1_555
C15 C14 1_555 1_555
H18 C15 1_555 1_555
H19 C15 1_555 1_555
C16 C15 1_555 1_555
H20 C16 1_555 1_555
H21 C16 1_555 1_555
C17 C13 1_555 1_555
H22 C17 1_555 1_555
C18 C13 1_555 1_555
H23 C18 1_555 1_555
H24 C18 1_555 1_555
H25 C18 1_555 1_555
C19 C10 1_555 1_555
H26 C19 1_555 1_555
H27 C19 1_555 1_555
H28 C19 1_555 1_555
C20 C17 1_555 1_555
H29 C20 1_555 1_555
C21 C20 1_555 1_555
H30 C21 1_555 1_555
H31 C21 1_555 1_555
H32 C21 1_555 1_555
C22 C20 1_555 1_555
H33 C22 1_555 1_555
H34 C22 1_555 1_555
C23 C22 1_555 1_555
H35 C23 1_555 1_555
H36 C23 1_555 1_555
C24 C23 1_555 1_555
H37 C24 1_555 1_555
H38 C24 1_555 1_555
C25 C24 1_555 1_555
H39 C25 1_555 1_555
C26 C25 1_555 1_555
H40 C26 1_555 1_555
H41 C26 1_555 1_555
H42 C26 1_555 1_555
C27 C25 1_555 1_555
H43 C27 1_555 1_555
H44 C27 1_555 1_555
H45 C27 1_555 1_555
C28 H46 1_555 1_555
C29 H47 1_555 1_555
C30 C29 1_555 1_555
H48 C30 1_555 1_555
C31 C30 1_555 1_555
C32 C31 1_555 1_555
H49 C32 1_555 1_555
C33 C32 1_555 1_555
H50 C33 1_555 1_555
C34 C33 1_555 1_555
H51 C34 1_555 1_555
C35 C34 1_555 1_555
H52 C35 1_555 1_555
C36 C28 1_555 1_555
C37 C28 1_555 1_555
C38 N1 1_555 1_555
N1 C28 1_555 1_555
N2 C37 1_555 1_555
O1 C38 1_555 1_555
O2 C3 1_555 1_555
C5 C10 1_555 1_555
C9 C10 1_555 1_555
C13 C14 1_555 1_555
C16 C17 1_555 1_555
C29 N1 1_555 1_555
C31 C36 1_555 1_555
C35 C36 1_555 1_555
C38 O2 1_555 1_555

#END
