
#######################################################################
#
#                 Cambridge Crystallographic Data Centre
#                                CCDC 
#
#######################################################################
#
# If this CIF has been generated from an entry in the Cambridge 
# Structural Database, then it will include bibliographic, chemical, 
# crystal, experimental, refinement or atomic coordinate data resulting 
# from the CCDC's data processing and validation procedures.
#
#######################################################################

data_MILBUE
_chemical_formula_moiety         'C16 H18 N1 O2 1+,C7 H7 O3 S1 1-,2(H2 O1)'
_chemical_name_systematic        
'1-Methyl-4-(2-(3,4-dimethoxyphenyl)vinyl)pyridinium p-tolylsulfonate dihydrate'
_symmetry_cell_setting           monoclinic
_symmetry_space_group_name_H-M   'P 21/n'
_symmetry_Int_Tables_number      14
_space_group_name_Hall           '-P 2yn'
loop_
_symmetry_equiv_pos_site_id
_symmetry_equiv_pos_as_xyz
1 x,y,z
2 1/2-x,1/2+y,1/2-z
3 -x,-y,-z
4 1/2+x,1/2-y,1/2+z
_cell_length_a                   8.101(1)
_cell_length_b                   8.958(2)
_cell_length_c                   33.281(5)
_cell_angle_alpha                90
_cell_angle_beta                 94.910(1)
_cell_angle_gamma                90
_cell_volume                     2406.3
_chemical_melting_point          178-180deg.C
_cell_formula_units_Z            4
_exptl_crystal_recrystallization_method methanol/water
loop_
_atom_site_label
_atom_site_type_symbol
_atom_site_fract_x
_atom_site_fract_y
_atom_site_fract_z
S1 S 0.5850(4) 0.9387(4) 0.6132(1)
O1 O 0.6444(3) 0.8108(10) 0.5934(3)
O2 O 0.4102(8) 0.9660(23) 0.6068(4)
O3 O 0.6757(10) 1.0710(7) 0.6040(2)
C1 C 0.7289(17) 0.8543(18) 0.7955(3)
C2 C 0.6969(12) 0.8765(22) 0.7508(3)
C3 C 0.7843(19) 0.8052(21) 0.7226(3)
C4 C 0.7569(19) 0.8284(18) 0.6816(3)
C5 C 0.6240(19) 0.9130(19) 0.6662(2)
C6 C 0.5286(23) 0.9809(30) 0.6933(3)
C7 C 0.5643(26) 0.9593(35) 0.7342(3)
O4 O 0.2953(12) 0.4593(8) 0.7092(2)
O5 O 0.1485(18) 0.2445(10) 0.6701(4)
N1 N -0.4299(19) 0.5590(16) 0.4265(4)
C8 C -0.5584(15) 0.5841(16) 0.3920(4)
C9 C -0.3727(35) 0.6744(15) 0.4498(5)
C10 C -0.2785(31) 0.6528(10) 0.4850(5)
C11 C -0.2473(17) 0.5099(10) 0.4992(3)
C12 C -0.3186(28) 0.3928(12) 0.4771(5)
C13 C -0.4153(21) 0.4194(16) 0.4417(4)
C14 C -0.1494(8) 0.4885(6) 0.5377(2)
C15 C -0.0757(6) 0.5872(6) 0.5634(13)
C16 C 0.0242(13) 0.5600(9) 0.6013(2)
C17 C 0.1106(23) 0.6679(13) 0.6240(4)
C18 C 0.1934(29) 0.6449(10) 0.6615(5)
C19 C 0.2170(20) 0.4977(10) 0.6726(3)
C20 C 0.1341(18) 0.3821(10) 0.6522(4)
C21 C 0.0433(24) 0.4143(9) 0.6143(4)
C22 C 0.3806(13) 0.5822(8) 0.7291(2)
C23 C 0.0735(30) 0.1156(15) 0.6508(4)
O6 O 0.1615(17) 0.9249(11) 0.5385(4)
O7 O 0.8694(17) 1.1072(13) 0.5359(3)
S2? S 0.5793(10) 0.9413(9) 0.6106(2)
O8? O 0.6699(16) 0.8292(14) 0.5898(4)
O9? O 0.4046(11) 0.9251(23) 0.6036(5)
O10? O 0.6328(16) 1.0914(10) 0.6047(4)
C24? C 0.7659(12) 0.8361(9) 0.7898(2)
C25? C 0.7132(18) 0.8561(22) 0.7458(2)
C26? C 0.8140(19) 0.8137(18) 0.7164(3)
C27? C 0.7669(17) 0.8214(16) 0.6756(3)
C28? C 0.6277(1) 0.9022(20) 0.6625(3)
C29? C 0.5289(22) 0.9550(2) 0.6911(3)
C30? C 0.5703(28) 0.9299(39) 0.7316(3)
O11? O 0.3034(17) 0.4638(13) 0.7088(4)
O12? O 0.1687(14) 0.2234(11) 0.6748(3)
N2? N -0.4523(10) 0.5708(12) 0.4306(4)
C31? C -0.5310(14) 0.5654(12) 0.3881(3)
C32? C -0.3891(30) 0.7007(14) 0.4455(5)
C33? C -0.2948(35) 0.7002(13) 0.4805(6)
C34? C -0.2460(14) 0.5704(11) 0.5004(2)
C35? C -0.2944(23) 0.4379(11) 0.4818(4)
C36? C -0.3963(14) 0.4396(12) 0.4464(3)
C37? C -0.1406(10) 0.5921(8) 0.5378(2)
C38? C -0.0847(9) 0.4748(8) 0.5596(2)
C39? C 0.0220(26) 0.4951(12) 0.5969(4)
C40? C 0.0833(16) 0.6208(10) 0.6176(3)
C41? C 0.1865(24) 0.6149(10) 0.6528(4)
C42? C 0.2004(20) 0.4835(10) 0.6744(3)
C43? C 0.1358(10) 0.3566(9) 0.6555(2)
C44? C 0.0339(17) 0.3667(12) 0.6186(3)
C45? C 0.3685(22) 0.5881(16) 0.7322(4)
C46? C 0.1005(35) 0.0899(17) 0.6565(6)
O13? O 0.1875(20) 0.9777(13) 0.5442(5)
O14? O 0.8749(21) 1.0728(16) 0.5469(3)
loop_
_geom_bond_atom_site_label_1
_geom_bond_atom_site_label_2
_geom_bond_site_symmetry_1
_geom_bond_site_symmetry_2
S1 O1 1_555 1_555
O2 S1 1_555 1_555
O3 S1 1_555 1_555
C1 C2 1_555 1_555
C2 C3 1_555 1_555
C3 C4 1_555 1_555
C4 C5 1_555 1_555
C5 S1 1_555 1_555
C6 C5 1_555 1_555
C7 C2 1_555 1_555
O4 C19 1_555 1_555
O5 C20 1_555 1_555
N1 C8 1_555 1_555
C9 N1 1_555 1_555
C10 C9 1_555 1_555
C11 C10 1_555 1_555
C12 C11 1_555 1_555
C13 N1 1_555 1_555
C14 C11 1_555 1_555
C15 C14 1_555 1_555
C16 C15 1_555 1_555
C17 C16 1_555 1_555
C18 C17 1_555 1_555
C19 C18 1_555 1_555
C20 C19 1_555 1_555
C21 C16 1_555 1_555
C22 O4 1_555 1_555
C23 O5 1_555 1_555
C6 C7 1_555 1_555
C12 C13 1_555 1_555
C20 C21 1_555 1_555

#END
