
#######################################################################
#
#                 Cambridge Crystallographic Data Centre
#                                CCDC 
#
#######################################################################
#
# If this CIF has been generated from an entry in the Cambridge 
# Structural Database, then it will include bibliographic, chemical, 
# crystal, experimental, refinement or atomic coordinate data resulting 
# from the CCDC's data processing and validation procedures.
#
#######################################################################

data_MILFET
_chemical_formula_moiety         'C21 H26 I1 N1 O1'
_chemical_name_systematic        N-(3,5-di-t-butylsalicylidene)-4-iodobenzene
_symmetry_cell_setting           monoclinic
_symmetry_space_group_name_H-M   'P 21/c'
_symmetry_Int_Tables_number      14
_space_group_name_Hall           '-P 2ybc'
loop_
_symmetry_equiv_pos_site_id
_symmetry_equiv_pos_as_xyz
1 x,y,z
2 -x,1/2+y,1/2-z
3 -x,-y,-z
4 x,1/2-y,1/2+z
_cell_length_a                   9.1871(6)
_cell_length_b                   12.3803(8)
_cell_length_c                   18.0626(9)
_cell_angle_alpha                90
_cell_angle_beta                 103.073(5)
_cell_angle_gamma                90
_cell_volume                     2001.18
_exptl_crystal_colour            'light yellow'
_exptl_crystal_description       block
_chemical_melting_point          160deg.C
_cell_formula_units_Z            4
_exptl_crystal_recrystallization_method methanol
loop_
_atom_site_label
_atom_site_type_symbol
_atom_site_fract_x
_atom_site_fract_y
_atom_site_fract_z
C1 C -0.2982(10) 0.0203(7) -0.1595(5)
C2 C -0.2626(10) -0.0210(7) -0.2250(5)
C3 C -0.3513(10) -0.0959(7) -0.2712(5)
C4 C -0.4771(10) -0.1306(7) -0.2481(5)
H1 H -0.5373 -0.1821 -0.2777
C5 C -0.5198(10) -0.0935(7) -0.1831(5)
C6 C -0.4262(10) -0.0157(7) -0.1401(5)
C7 C -0.1729(17) 0.0965(11) -0.1189(8)
H2 H -0.0868 0.1083 -0.1367
N1 N -0.1952(12) 0.1422(9) -0.0595(6)
O1 O -0.4370(9) 0.0242(7) -0.0736(4)
H3 H -0.3698 0.0681 -0.0591
C9 C -0.3061(11) -0.1391(8) -0.3434(5)
C10 C -0.4112(14) -0.2270(11) -0.3814(6)
H6 H -0.5111 -0.1989 -0.3955
H7 H -0.4083 -0.2862 -0.3469
H8 H -0.3810 -0.2515 -0.4261
C11 C -0.1496(14) -0.1873(13) -0.3219(9)
H9 H -0.1262 -0.2208 -0.3657
H10 H -0.1455 -0.2404 -0.2827
H11 H -0.0785 -0.1311 -0.3037
C12 C -0.308(2) -0.0454(12) -0.3976(7)
H12 H -0.2487 0.0127 -0.3715
H13 H -0.4089 -0.0212 -0.4162
H14 H -0.2675 -0.0684 -0.4396
C13 C -0.6551(11) -0.1403(8) -0.1575(5)
C14 C -0.5952(13) -0.2048(9) -0.0835(6)
H15 H -0.5342 -0.2634 -0.0937
H16 H -0.6777 -0.2330 -0.0650
H17 H -0.5367 -0.1580 -0.0459
C15 C -0.7621(13) -0.0511(9) -0.1424(6)
H18 H -0.7099 -0.0043 -0.1028
H19 H -0.8455 -0.0835 -0.1270
H20 H -0.7974 -0.0099 -0.1879
C16 C -0.7445(12) -0.2189(9) -0.2166(6)
H21 H -0.6816 -0.2781 -0.2238
H22 H -0.7792 -0.1818 -0.2640
H23 H -0.8286 -0.2459 -0.1989
C17 C -0.0667(11) 0.2045(7) -0.0223(5)
C18 C -0.1070(11) 0.3077(7) -0.0065(5)
H24 H -0.2014 0.3343 -0.0288
C19 C -0.0069(10) 0.3704(8) 0.0423(5)
H25 H -0.0329 0.4406 0.0524
C20 C 0.1313(11) 0.3315(7) 0.0766(5)
C21 C 0.1737(11) 0.2297(7) 0.0624(5)
H26 H 0.2677 0.2039 0.0862
C22 C 0.0751(10) 0.1650(8) 0.0118(5)
H27 H 0.1031 0.0958 0.0007
I1 I 0.28099(10) 0.43120(6) 0.15211(4)
C8? C -0.246(3) 0.0926(19) -0.0978(13)
H4? H -0.3009 0.1147 -0.0633
N2? N -0.112(2) 0.1231(16) -0.0963(11)
O2? O -0.1330(14) 0.0169(12) -0.2281(8)
H5? H -0.1057 0.0606 -0.1936
loop_
_geom_bond_atom_site_label_1
_geom_bond_atom_site_label_2
_geom_bond_site_symmetry_1
_geom_bond_site_symmetry_2
C1 C2 1_555 1_555
C2 C3 1_555 1_555
C3 C4 1_555 1_555
C4 H1 1_555 1_555
C5 C4 1_555 1_555
C6 C1 1_555 1_555
C7 C1 1_555 1_555
H2 C7 1_555 1_555
N1 C7 1_555 1_555
O1 C6 1_555 1_555
H3 O1 1_555 1_555
C9 C3 1_555 1_555
C10 C9 1_555 1_555
H6 C10 1_555 1_555
H7 C10 1_555 1_555
H8 C10 1_555 1_555
C11 C9 1_555 1_555
H9 C11 1_555 1_555
H10 C11 1_555 1_555
H11 C11 1_555 1_555
C12 C9 1_555 1_555
H12 C12 1_555 1_555
H13 C12 1_555 1_555
H14 C12 1_555 1_555
C13 C5 1_555 1_555
C14 C13 1_555 1_555
H15 C14 1_555 1_555
H16 C14 1_555 1_555
H17 C14 1_555 1_555
C15 C13 1_555 1_555
H18 C15 1_555 1_555
H19 C15 1_555 1_555
H20 C15 1_555 1_555
C16 C13 1_555 1_555
H21 C16 1_555 1_555
H22 C16 1_555 1_555
H23 C16 1_555 1_555
C17 N1 1_555 1_555
C18 C17 1_555 1_555
H24 C18 1_555 1_555
C19 C18 1_555 1_555
H25 C19 1_555 1_555
C20 C19 1_555 1_555
C21 C20 1_555 1_555
H26 C21 1_555 1_555
C22 C17 1_555 1_555
H27 C22 1_555 1_555
I1 C20 1_555 1_555
C5 C6 1_555 1_555
C21 C22 1_555 1_555

#END
