
#######################################################################
#
#                 Cambridge Crystallographic Data Centre
#                                CCDC 
#
#######################################################################
#
# If this CIF has been generated from an entry in the Cambridge 
# Structural Database, then it will include bibliographic, chemical, 
# crystal, experimental, refinement or atomic coordinate data resulting 
# from the CCDC's data processing and validation procedures.
#
#######################################################################

data_MILTOS
_chemical_formula_moiety         'C20 H23 N3 O3 S1'
_chemical_name_systematic        
1-(4-Nitrophenyl)-3-(2,2,4,4-tetramethyl-3,4-dihydro-2H-thiochromen-6-yl)urea
_symmetry_cell_setting           orthorhombic
_symmetry_space_group_name_H-M   'P b c a'
_symmetry_Int_Tables_number      61
_space_group_name_Hall           '-P 2ac 2ab'
loop_
_symmetry_equiv_pos_site_id
_symmetry_equiv_pos_as_xyz
1 x,y,z
2 1/2-x,-y,1/2+z
3 -x,1/2+y,1/2-z
4 1/2+x,1/2-y,-z
5 -x,-y,-z
6 1/2+x,y,1/2-z
7 x,1/2-y,1/2+z
8 1/2-x,1/2+y,z
_cell_length_a                   9.4300(19)
_cell_length_b                   12.980(3)
_cell_length_c                   32.020(6)
_cell_angle_alpha                90
_cell_angle_beta                 90
_cell_angle_gamma                90
_cell_volume                     3919.29
_exptl_crystal_colour            yellow
_exptl_crystal_description       wedge
_chemical_melting_point          '446 K'
_cell_formula_units_Z            8
loop_
_atom_site_label
_atom_site_type_symbol
_atom_site_fract_x
_atom_site_fract_y
_atom_site_fract_z
C1 C 0.07325(17) 0.65725(12) 0.30794(5)
C2 C -0.04245(17) 0.57470(12) 0.30606(5)
H1 H -0.0702 0.5681 0.2770
H2 H -0.1240 0.6018 0.3209
C3 C -0.01627(17) 0.46476(11) 0.32272(5)
C4 C -0.03096(16) 0.39494(11) 0.39699(5)
H3 H -0.0908 0.3434 0.3872
C5 C 0.00731(16) 0.39470(11) 0.43858(5)
C6 C 0.09285(17) 0.47246(13) 0.45379(5)
H4 H 0.1186 0.4735 0.4818
C7 C 0.13991(17) 0.54873(12) 0.42708(5)
H5 H 0.1960 0.6017 0.4375
C8 C 0.03275(16) 0.25820(11) 0.49166(5)
C9 C 0.01075(15) 0.11971(11) 0.54384(5)
C10 C 0.12472(16) 0.05867(12) 0.53184(5)
H6 H 0.1702 0.0716 0.5066
C11 C 0.17098(18) -0.02059(13) 0.55684(6)
H7 H 0.2474 -0.0612 0.5488
C12 C 0.10254(19) -0.03857(13) 0.59377(6)
C13 C -0.0107(2) 0.02006(14) 0.60649(6)
H8 H -0.0557 0.0063 0.6317
C14 C -0.05692(18) 0.09967(13) 0.58136(5)
H9 H -0.1336 0.1399 0.5896
C15 C 0.1678(2) 0.65687(18) 0.26949(6)
H10 H 0.2163 0.5920 0.2676
H11 H 0.2361 0.7115 0.2716
H12 H 0.1108 0.6669 0.2450
C16 C 0.0028(2) 0.76340(13) 0.31136(6)
H13 H 0.0744 0.8160 0.3112
H14 H -0.0501 0.7673 0.3369
H15 H -0.0600 0.7734 0.2881
C17 C 0.1075(2) 0.41009(14) 0.30088(6)
H16 H 0.1948 0.4438 0.3080
H17 H 0.0938 0.4127 0.2712
H18 H 0.1112 0.3395 0.3098
C18 C -0.1531(2) 0.40413(14) 0.31382(6)
H19 H -0.1403 0.3335 0.3218
H20 H -0.1746 0.4077 0.2845
H21 H -0.2299 0.4334 0.3295
C19 C 0.01688(15) 0.46964(11) 0.36924(5)
C20 C 0.10506(16) 0.54766(11) 0.38505(5)
N1 N -0.04736(13) 0.31650(10) 0.46570(4)
H22 H -0.1374 0.3058 0.4655
N2 N -0.04440(13) 0.19716(10) 0.51801(4)
H23 H -0.1345 0.2071 0.5188
N3 N 0.1513(2) -0.12447(13) 0.62021(7)
O1 O 0.16286(12) 0.26030(9) 0.49195(4)
O2 O 0.24395(18) -0.18132(11) 0.60669(5)
O3 O 0.09700(19) -0.13490(13) 0.65444(6)
S1 S 0.18863(5) 0.64145(4) 0.353595(15)
loop_
_geom_bond_atom_site_label_1
_geom_bond_atom_site_label_2
_geom_bond_site_symmetry_1
_geom_bond_site_symmetry_2
C1 C2 1_555 1_555
C2 H1 1_555 1_555
H2 C2 1_555 1_555
C3 C2 1_555 1_555
C4 H3 1_555 1_555
C5 C4 1_555 1_555
C6 C5 1_555 1_555
H4 C6 1_555 1_555
C7 C6 1_555 1_555
H5 C7 1_555 1_555
C8 N1 1_555 1_555
C9 C10 1_555 1_555
C10 H6 1_555 1_555
C11 C10 1_555 1_555
H7 C11 1_555 1_555
C12 C11 1_555 1_555
C13 C12 1_555 1_555
H8 C13 1_555 1_555
C14 C9 1_555 1_555
H9 C14 1_555 1_555
C15 C1 1_555 1_555
H10 C15 1_555 1_555
H11 C15 1_555 1_555
H12 C15 1_555 1_555
C16 C1 1_555 1_555
H13 C16 1_555 1_555
H14 C16 1_555 1_555
H15 C16 1_555 1_555
C17 C3 1_555 1_555
H16 C17 1_555 1_555
H17 C17 1_555 1_555
H18 C17 1_555 1_555
C18 C3 1_555 1_555
H19 C18 1_555 1_555
H20 C18 1_555 1_555
H21 C18 1_555 1_555
C19 C3 1_555 1_555
C20 C7 1_555 1_555
N1 C5 1_555 1_555
H22 N1 1_555 1_555
N2 C8 1_555 1_555
H23 N2 1_555 1_555
N3 C12 1_555 1_555
O1 C8 1_555 1_555
O2 N3 1_555 1_555
O3 N3 1_555 1_555
S1 C1 1_555 1_555
C4 C19 1_555 1_555
C9 N2 1_555 1_555
C13 C14 1_555 1_555
C19 C20 1_555 1_555
C20 S1 1_555 1_555

#END
