
#######################################################################
#
#                 Cambridge Crystallographic Data Centre
#                                CCDC 
#
#######################################################################
#
# If this CIF has been generated from an entry in the Cambridge 
# Structural Database, then it will include bibliographic, chemical, 
# crystal, experimental, refinement or atomic coordinate data resulting 
# from the CCDC's data processing and validation procedures.
#
#######################################################################

data_MILVOT
_chemical_formula_moiety         'C100 H92 N4 O16 S2,2(C6 H14)'
_chemical_name_systematic        
'2,17,23,38-tetrakis(bis(Ethoxycarbonyl)methylidene)-7,12,28,33-tetra-p-tolyl-45,49-dithia-44,46,48,50-tetrazanonacyclo (37.3.1.1^3,6^.1^8,11^.1^13,16^.1^18,22^.1^24,27^.1^29,32^.1^34,37^) pentaconta-1(43),3,5,7,9,11,13,15,18(47),19,21,24,26,28,30,32,34,36,39,41-icosaene hexane solvate'
_symmetry_cell_setting           triclinic
_symmetry_space_group_name_H-M   'P -1'
_symmetry_Int_Tables_number      2
_space_group_name_Hall           '-P 1'
loop_
_symmetry_equiv_pos_site_id
_symmetry_equiv_pos_as_xyz
1 x,y,z
2 -x,-y,-z
_cell_length_a                   13.3598(3)
_cell_length_b                   18.5652(4)
_cell_length_c                   23.1445(6)
_cell_angle_alpha                71.668(1)
_cell_angle_beta                 84.352(1)
_cell_angle_gamma                77.554(1)
_cell_volume                     5318.18
_exptl_crystal_colour            black
_exptl_crystal_description       prisms
_cell_formula_units_Z            2
_exptl_crystal_recrystallization_method hexanes
loop_
_atom_site_label
_atom_site_type_symbol
_atom_site_fract_x
_atom_site_fract_y
_atom_site_fract_z
S1 S 0.20585(9) -0.02297(5) 0.29532(4)
S2 S 0.18038(9) 0.45323(5) 0.21537(5)
O1 O 0.1301(2) -0.05798(15) 0.60417(11)
O2 O 0.1516(2) -0.04349(15) 0.69423(11)
O3 O 0.3595(3) 0.01662(18) 0.68827(13)
O4 O 0.2148(2) 0.10703(16) 0.67187(12)
O5 O 0.3504(3) 0.28023(15) 0.64057(13)
O6 O 0.4980(3) 0.31443(15) 0.59683(12)
O7 O 0.2706(3) 0.49052(14) 0.48661(13)
O8 O 0.3504(3) 0.46141(14) 0.57313(13)
O9 O 0.1790(3) 0.53730(14) -0.09825(12)
O10 O 0.2212(4) 0.52045(17) -0.18762(13)
O11 O 0.3858(3) 0.36477(18) -0.17907(15)
O12 O 0.2200(3) 0.35875(18) -0.16867(14)
O13 O 0.3229(2) 0.14773(14) -0.14376(11)
O14 O 0.4633(2) 0.05597(14) -0.11746(11)
O15 O 0.2492(2) -0.05614(13) 0.00541(11)
O16 O 0.2923(2) -0.02735(14) -0.09342(12)
N1 N 0.2166(2) -0.02059(15) 0.49456(13)
H1 H 0.1855 -0.0502 0.5252
N2 N 0.2339(2) 0.41619(15) 0.41393(14)
H2 H 0.2167 0.4534 0.4311
N3 N 0.2240(3) 0.45917(15) 0.01483(14)
H3 H 0.1949 0.4983 -0.0152
N4 N 0.2371(2) 0.01337(14) 0.09051(12)
H4 H 0.2190 -0.0174 0.0730
C1 C 0.1427(3) -0.06016(19) 0.25039(17)
C2 C 0.0808(3) -0.1110(2) 0.28972(18)
H5 H 0.0404 -0.1372 0.2748
C3 C 0.0839(3) -0.1188(2) 0.34956(18)
H6 H 0.0464 -0.1512 0.3800
C4 C 0.1490(3) -0.07393(19) 0.36371(16)
C5 C 0.1617(3) -0.07136(19) 0.42088(17)
C6 C 0.2167(3) -0.02047(19) 0.43470(16)
C7 C 0.2753(3) 0.03402(19) 0.40088(17)
H7 H 0.2895 0.0470 0.3582
C8 C 0.3089(3) 0.06563(19) 0.44084(16)
H8 H 0.3502 0.1039 0.4301
C9 C 0.2711(3) 0.03122(18) 0.49981(16)
C10 C 0.2853(3) 0.04766(18) 0.55489(16)
C11 C 0.3583(3) 0.10264(19) 0.54455(16)
C12 C 0.3202(3) 0.18173(19) 0.52827(16)
H9 H 0.2483 0.2007 0.5251
C13 C 0.3868(3) 0.23367(19) 0.51642(16)
C14 C 0.4911(3) 0.2059(2) 0.52036(18)
H10 H 0.5370 0.2409 0.5115
C15 C 0.5290(4) 0.1267(2) 0.5372(2)
H11 H 0.6008 0.1076 0.5406
C16 C 0.4634(4) 0.0759(2) 0.54914(18)
H12 H 0.4901 0.0218 0.5607
C17 C 0.3430(3) 0.31961(18) 0.49762(17)
C18 C 0.2968(3) 0.34580(19) 0.43940(17)
C19 C 0.3035(3) 0.3050(2) 0.39710(17)
H13 H 0.3414 0.2541 0.4018
C20 C 0.2458(3) 0.3510(2) 0.34716(18)
H14 H 0.2378 0.3376 0.3117
C21 C 0.2018(3) 0.42061(19) 0.35881(17)
C22 C 0.1352(3) 0.49055(19) 0.32333(18)
C23 C 0.1193(3) 0.50858(19) 0.26318(18)
C24 C 0.0539(3) 0.5770(2) 0.22663(19)
H15 H 0.0112 0.6136 0.2437
C25 C 0.0576(3) 0.5851(2) 0.16701(19)
H16 H 0.0183 0.6279 0.1385
C26 C 0.1261(3) 0.5234(2) 0.14950(18)
C27 C 0.1475(3) 0.51966(19) 0.09139(18)
C28 C 0.2131(3) 0.4563(2) 0.07431(18)
C29 C 0.2730(3) 0.3862(2) 0.10602(19)
H17 H 0.2817 0.3682 0.1488
C30 C 0.3174(3) 0.3471(2) 0.06550(17)
H18 H 0.3614 0.2977 0.0754
C31 C 0.2864(3) 0.3929(2) 0.00737(18)
C32 C 0.3071(3) 0.37374(18) -0.04866(17)
C33 C 0.3720(3) 0.29456(18) -0.04047(16)
C34 C 0.3245(3) 0.23086(19) -0.02623(15)
H19 H 0.2519 0.2382 -0.0224
C35 C 0.3829(3) 0.15652(19) -0.01762(16)
C36 C 0.4879(4) 0.1468(2) -0.02311(17)
H20 H 0.5280 0.0963 -0.0173
C37 C 0.5362(4) 0.2097(2) -0.03708(19)
H21 H 0.6089 0.2023 -0.0407
C38 C 0.4772(3) 0.2833(2) -0.04572(18)
H22 H 0.5099 0.3265 -0.0554
C39 C 0.3317(3) 0.08724(18) -0.00021(17)
C40 C 0.2939(3) 0.06893(18) 0.06209(17)
C41 C 0.3036(3) 0.1043(2) 0.10556(17)
H23 H 0.3390 0.1454 0.0995
C42 C 0.2533(4) 0.0698(2) 0.15907(18)
H24 H 0.2479 0.0834 0.1957
C43 C 0.2124(3) 0.01208(19) 0.14958(16)
C44 C 0.1532(3) -0.04302(19) 0.18792(16)
C45 C 0.1147(3) -0.12498(19) 0.47451(16)
C46 C 0.1745(4) -0.1950(2) 0.5067(2)
H25 H 0.2438 -0.2094 0.4942
C47 C 0.1319(5) -0.2435(3) 0.5571(2)
H26 H 0.1731 -0.2912 0.5787
C48 C 0.0331(4) -0.2250(3) 0.5768(2)
C49 C -0.0242(4) -0.1555(2) 0.54500(19)
H27 H -0.0933 -0.1409 0.5579
C50 C 0.0161(4) -0.1061(2) 0.49466(19)
H28 H -0.0255 -0.0583 0.4737
C51 C -0.0141(5) -0.2794(3) 0.6314(2)
H29 H -0.0511 -0.2500 0.6582
H30 H 0.0403 -0.3200 0.6540
H31 H -0.0619 -0.3030 0.6172
C52 C 0.2464(3) 0.02175(19) 0.61267(16)
C53 C 0.1729(4) -0.0305(2) 0.63398(17)
C54 C 0.0704(4) -0.0897(2) 0.7202(2)
H32 H 0.0409 -0.0793 0.7584
H33 H 0.0146 -0.0749 0.6910
C55 C 0.1164(5) -0.1731(3) 0.7326(2)
H34 H 0.1417 -0.1835 0.6942
H35 H 0.0644 -0.2040 0.7517
H36 H 0.1735 -0.1868 0.7600
C56 C 0.2802(4) 0.0476(2) 0.66169(17)
C57 C 0.2431(5) 0.1328(3) 0.7212(2)
H37 H 0.2711 0.0873 0.7554
H38 H 0.2964 0.1645 0.7061
C58 C 0.1580(6) 0.1752(6) 0.7407(4)
H39 H 0.1165 0.2074 0.7058
H40 H 0.1787 0.2084 0.7611
H41 H 0.1176 0.1404 0.7694
C59 C 0.3531(3) 0.35891(19) 0.53634(17)
C60 C 0.3982(4) 0.3134(2) 0.59713(19)
C61 C 0.5495(5) 0.2696(3) 0.6548(2)
H42 H 0.5372 0.2160 0.6682
H43 H 0.5231 0.2940 0.6871
C62 C 0.6611(5) 0.2697(4) 0.6423(3)
H44 H 0.6853 0.2476 0.6090
H45 H 0.6990 0.2387 0.6790
H46 H 0.6723 0.3229 0.6307
C63 C 0.3191(4) 0.4429(2) 0.52766(19)
C64 C 0.3179(5) 0.5435(2) 0.5719(2)
H47 H 0.2495 0.5655 0.5540
H48 H 0.3140 0.5477 0.6137
C65 C 0.3923(6) 0.5837(3) 0.5359(3)
H49 H 0.4604 0.5586 0.5522
H50 H 0.3768 0.6374 0.5368
H51 H 0.3913 0.5829 0.4938
C66 C 0.0852(3) 0.5458(2) 0.35747(18)
C67 C 0.0081(4) 0.5298(2) 0.4004(2)
H52 H -0.0152 0.4826 0.4085
C68 C -0.0361(4) 0.5811(3) 0.4320(2)
H53 H -0.0893 0.5682 0.4614
C69 C -0.0064(4) 0.6493(2) 0.4225(2)
C70 C 0.0710(4) 0.6650(3) 0.3801(3)
H54 H 0.0951 0.7116 0.3734
C71 C 0.1158(4) 0.6155(2) 0.3462(2)
H55 H 0.1671 0.6295 0.3157
C72 C -0.0559(5) 0.7059(3) 0.4566(2)
H56 H -0.0026 0.7249 0.4705
H57 H -0.0959 0.6799 0.4918
H58 H -0.1013 0.7496 0.4296
C73 C 0.1005(3) 0.58784(19) 0.04046(17)
C74 C 0.0060(4) 0.5924(2) 0.01777(18)
H59 H -0.0313 0.5521 0.0355
C75 C -0.0342(4) 0.6546(2) -0.03005(19)
H60 H -0.0987 0.6564 -0.0449
C76 C 0.0173(4) 0.7144(2) -0.05681(18)
C77 C 0.1126(4) 0.7097(2) -0.0337(2)
H61 H 0.1491 0.7504 -0.0512
C78 C 0.1544(4) 0.6474(2) 0.0136(2)
H62 H 0.2196 0.6449 0.0279
C79 C -0.0297(4) 0.7846(2) -0.1083(2)
H63 H -0.0831 0.8183 -0.0914
H64 H -0.0600 0.7673 -0.1373
H65 H 0.0238 0.8132 -0.1292
C80 C 0.2772(4) 0.4148(2) -0.10548(18)
C81 C 0.2185(4) 0.4949(2) -0.12730(17)
C82 C 0.1817(6) 0.6079(4) -0.2211(4)
H66 H 0.1969 0.6428 -0.1999
H67 H 0.2046 0.6238 -0.2645
C83 C 0.0784(8) 0.5974(4) -0.2124(3)
H68 H 0.0718 0.5543 -0.2267
H69 H 0.0334 0.6448 -0.2356
H70 H 0.0586 0.5861 -0.1691
C84 C 0.2993(4) 0.3769(2) -0.1554(2)
C85 C 0.2359(6) 0.3347(3) -0.2239(2)
H71 H 0.1846 0.3032 -0.2237
H72 H 0.3048 0.3015 -0.2234
C86 C 0.2272(5) 0.4018(3) -0.2822(2)
H73 H 0.1613 0.4372 -0.2818
H74 H 0.2316 0.3821 -0.3172
H75 H 0.2832 0.4295 -0.2853
C87 C 0.3288(3) 0.05413(19) -0.04428(16)
C88 C 0.3697(3) 0.0917(2) -0.10724(17)
C89 C 0.5105(4) 0.0855(3) -0.1781(2)
H76 H 0.4572 0.1040 -0.2091
H77 H 0.5617 0.0433 -0.1877
C90 C 0.5615(5) 0.1504(3) -0.1799(2)
H78 H 0.5092 0.1956 -0.1780
H79 H 0.6025 0.1636 -0.2179
H80 H 0.6062 0.1345 -0.1452
C91 C 0.2857(3) -0.0142(2) -0.03917(17)
C92 C 0.2572(4) -0.0954(2) -0.0956(2)
H81 H 0.3018 -0.1429 -0.0712
H82 H 0.1862 -0.0946 -0.0785
C93 C 0.2607(8) -0.0947(5) -0.1574(3)
H83 H 0.2278 -0.0434 -0.1826
H84 H 0.2244 -0.1337 -0.1608
H85 H 0.3323 -0.1064 -0.1713
C94 C 0.0987(3) -0.0817(2) 0.15664(16)
C95 C 0.1183(4) -0.1612(2) 0.16808(18)
H86 H 0.1679 -0.1930 0.1969
C96 C 0.0663(4) -0.1944(2) 0.13797(19)
H87 H 0.0810 -0.2491 0.1468
C97 C -0.0061(3) -0.1515(2) 0.09552(18)
C98 C -0.0224(3) -0.0717(2) 0.08221(18)
H88 H -0.0691 -0.0401 0.0516
C99 C 0.0278(3) -0.0374(2) 0.11246(18)
H89 H 0.0138 0.0173 0.1030
C100 C -0.0669(4) -0.1888(2) 0.0650(2)
H90 H -0.0244 -0.2368 0.0602
H91 H -0.0874 -0.1532 0.0249
H92 H -0.1282 -0.2005 0.0902
loop_
_geom_bond_atom_site_label_1
_geom_bond_atom_site_label_2
_geom_bond_site_symmetry_1
_geom_bond_site_symmetry_2
S1 C1 1_555 1_555
S2 C23 1_555 1_555
O1 C53 1_555 1_555
O2 C53 1_555 1_555
O3 C56 1_555 1_555
O4 C56 1_555 1_555
O5 C60 1_555 1_555
O6 C60 1_555 1_555
O7 C63 1_555 1_555
O8 C63 1_555 1_555
O9 C81 1_555 1_555
O10 C81 1_555 1_555
O11 C84 1_555 1_555
O12 C84 1_555 1_555
O13 C88 1_555 1_555
O14 C88 1_555 1_555
O15 C91 1_555 1_555
O16 C91 1_555 1_555
N1 H1 1_555 1_555
N2 H2 1_555 1_555
N3 H3 1_555 1_555
N4 H4 1_555 1_555
C1 C2 1_555 1_555
C2 H5 1_555 1_555
C3 C2 1_555 1_555
H6 C3 1_555 1_555
C4 S1 1_555 1_555
C5 C4 1_555 1_555
C6 N1 1_555 1_555
C7 C6 1_555 1_555
H7 C7 1_555 1_555
C8 C7 1_555 1_555
H8 C8 1_555 1_555
C9 N1 1_555 1_555
C10 C9 1_555 1_555
C11 C10 1_555 1_555
C12 C11 1_555 1_555
H9 C12 1_555 1_555
C13 C12 1_555 1_555
C14 C13 1_555 1_555
H10 C14 1_555 1_555
C15 C14 1_555 1_555
H11 C15 1_555 1_555
C16 C11 1_555 1_555
H12 C16 1_555 1_555
C17 C13 1_555 1_555
C18 N2 1_555 1_555
C19 C18 1_555 1_555
H13 C19 1_555 1_555
C20 C19 1_555 1_555
H14 C20 1_555 1_555
C21 N2 1_555 1_555
C22 C21 1_555 1_555
C23 C22 1_555 1_555
C24 C23 1_555 1_555
H15 C24 1_555 1_555
C25 C24 1_555 1_555
H16 C25 1_555 1_555
C26 S2 1_555 1_555
C27 C26 1_555 1_555
C28 N3 1_555 1_555
C29 C28 1_555 1_555
H17 C29 1_555 1_555
C30 C29 1_555 1_555
H18 C30 1_555 1_555
C31 N3 1_555 1_555
C32 C31 1_555 1_555
C33 C32 1_555 1_555
C34 C33 1_555 1_555
H19 C34 1_555 1_555
C35 C34 1_555 1_555
C36 C35 1_555 1_555
H20 C36 1_555 1_555
C37 C36 1_555 1_555
H21 C37 1_555 1_555
C38 C33 1_555 1_555
H22 C38 1_555 1_555
C39 C35 1_555 1_555
C40 N4 1_555 1_555
C41 C40 1_555 1_555
H23 C41 1_555 1_555
C42 C41 1_555 1_555
H24 C42 1_555 1_555
C43 N4 1_555 1_555
C44 C1 1_555 1_555
C45 C5 1_555 1_555
C46 C45 1_555 1_555
H25 C46 1_555 1_555
C47 C46 1_555 1_555
H26 C47 1_555 1_555
C48 C47 1_555 1_555
C49 C48 1_555 1_555
H27 C49 1_555 1_555
C50 C45 1_555 1_555
H28 C50 1_555 1_555
C51 C48 1_555 1_555
H29 C51 1_555 1_555
H30 C51 1_555 1_555
H31 C51 1_555 1_555
C52 C10 1_555 1_555
C53 C52 1_555 1_555
C54 O2 1_555 1_555
H32 C54 1_555 1_555
H33 C54 1_555 1_555
C55 C54 1_555 1_555
H34 C55 1_555 1_555
H35 C55 1_555 1_555
H36 C55 1_555 1_555
C56 C52 1_555 1_555
C57 O4 1_555 1_555
H37 C57 1_555 1_555
H38 C57 1_555 1_555
C58 C57 1_555 1_555
H39 C58 1_555 1_555
H40 C58 1_555 1_555
H41 C58 1_555 1_555
C59 C17 1_555 1_555
C60 C59 1_555 1_555
C61 O6 1_555 1_555
H42 C61 1_555 1_555
H43 C61 1_555 1_555
C62 C61 1_555 1_555
H44 C62 1_555 1_555
H45 C62 1_555 1_555
H46 C62 1_555 1_555
C63 C59 1_555 1_555
C64 O8 1_555 1_555
H47 C64 1_555 1_555
H48 C64 1_555 1_555
C65 C64 1_555 1_555
H49 C65 1_555 1_555
H50 C65 1_555 1_555
H51 C65 1_555 1_555
C66 C22 1_555 1_555
C67 C66 1_555 1_555
H52 C67 1_555 1_555
C68 C67 1_555 1_555
H53 C68 1_555 1_555
C69 C68 1_555 1_555
C70 C69 1_555 1_555
H54 C70 1_555 1_555
C71 C66 1_555 1_555
H55 C71 1_555 1_555
C72 C69 1_555 1_555
H56 C72 1_555 1_555
H57 C72 1_555 1_555
H58 C72 1_555 1_555
C73 C27 1_555 1_555
C74 C73 1_555 1_555
H59 C74 1_555 1_555
C75 C74 1_555 1_555
H60 C75 1_555 1_555
C76 C75 1_555 1_555
C77 C76 1_555 1_555
H61 C77 1_555 1_555
C78 C73 1_555 1_555
H62 C78 1_555 1_555
C79 C76 1_555 1_555
H63 C79 1_555 1_555
H64 C79 1_555 1_555
H65 C79 1_555 1_555
C80 C32 1_555 1_555
C81 C80 1_555 1_555
C82 O10 1_555 1_555
H66 C82 1_555 1_555
H67 C82 1_555 1_555
C83 C82 1_555 1_555
H68 C83 1_555 1_555
H69 C83 1_555 1_555
H70 C83 1_555 1_555
C84 C80 1_555 1_555
C85 O12 1_555 1_555
H71 C85 1_555 1_555
H72 C85 1_555 1_555
C86 C85 1_555 1_555
H73 C86 1_555 1_555
H74 C86 1_555 1_555
H75 C86 1_555 1_555
C87 C39 1_555 1_555
C88 C87 1_555 1_555
C89 O14 1_555 1_555
H76 C89 1_555 1_555
H77 C89 1_555 1_555
C90 C89 1_555 1_555
H78 C90 1_555 1_555
H79 C90 1_555 1_555
H80 C90 1_555 1_555
C91 C87 1_555 1_555
C92 O16 1_555 1_555
H81 C92 1_555 1_555
H82 C92 1_555 1_555
C93 C92 1_555 1_555
H83 C93 1_555 1_555
H84 C93 1_555 1_555
H85 C93 1_555 1_555
C94 C44 1_555 1_555
C95 C94 1_555 1_555
H86 C95 1_555 1_555
C96 C95 1_555 1_555
H87 C96 1_555 1_555
C97 C96 1_555 1_555
C98 C97 1_555 1_555
H88 C98 1_555 1_555
C99 C94 1_555 1_555
H89 C99 1_555 1_555
C100 C97 1_555 1_555
H90 C100 1_555 1_555
H91 C100 1_555 1_555
H92 C100 1_555 1_555
C3 C4 1_555 1_555
C5 C6 1_555 1_555
C8 C9 1_555 1_555
C15 C16 1_555 1_555
C17 C18 1_555 1_555
C20 C21 1_555 1_555
C25 C26 1_555 1_555
C27 C28 1_555 1_555
C30 C31 1_555 1_555
C37 C38 1_555 1_555
C39 C40 1_555 1_555
C42 C43 1_555 1_555
C43 C44 1_555 1_555
C49 C50 1_555 1_555
C70 C71 1_555 1_555
C77 C78 1_555 1_555
C98 C99 1_555 1_555

#END
