
#######################################################################
#
#                 Cambridge Crystallographic Data Centre
#                                CCDC 
#
#######################################################################
#
# If this CIF has been generated from an entry in the Cambridge 
# Structural Database, then it will include bibliographic, chemical, 
# crystal, experimental, refinement or atomic coordinate data resulting 
# from the CCDC's data processing and validation procedures.
#
#######################################################################

data_MIMNEC
_chemical_formula_moiety         'C27 H27 N1 O7 S1'
_chemical_name_systematic        
9-Hydroxy-8-methoxy-5-methyl-2,3-methylenedioxy-6a-(4-toluenesulfonyl)-6a,7,8,9,10,10a-hexahydrobenzo(c)phenanthridin-6(5H)-one
_symmetry_cell_setting           triclinic
_symmetry_space_group_name_H-M   'P -1'
_symmetry_Int_Tables_number      2
_space_group_name_Hall           '-P 1'
loop_
_symmetry_equiv_pos_site_id
_symmetry_equiv_pos_as_xyz
1 x,y,z
2 -x,-y,-z
_cell_length_a                   10.4237(14)
_cell_length_b                   11.8721(16)
_cell_length_c                   19.368(3)
_cell_angle_alpha                89.888(2)
_cell_angle_beta                 89.951(2)
_cell_angle_gamma                79.431(3)
_cell_volume                     2356.15
_exptl_crystal_colour            colorless
_chemical_melting_point          '188.6 deg.C(dec.)'
_cell_formula_units_Z            4
_exptl_crystal_recrystallization_method 'n-hexane/ethyl acetate'
loop_
_atom_site_label
_atom_site_type_symbol
_atom_site_fract_x
_atom_site_fract_y
_atom_site_fract_z
S1 S 0.74631(7) 0.57275(6) 0.09786(4)
N1 N 0.6724(3) 0.8739(2) 0.08246(13)
O1 O 0.7370(2) 0.82079(19) 0.19044(11)
O2 O 0.9546(3) 1.0213(2) -0.11463(14)
O3 O 0.8908(3) 0.9592(3) -0.21851(15)
O4 O 0.2877(3) 0.7358(3) 0.17010(15)
H1 H 0.2868 0.7399 0.2124
O5 O 0.5264(3) 0.4738(2) 0.18111(14)
O6 O 0.6862(2) 0.50119(19) 0.05431(12)
O7 O 0.8140(2) 0.5260(2) 0.15870(13)
C1 C 0.6861(3) 0.7998(3) 0.13647(16)
C2 C 0.6383(3) 0.8405(2) 0.01492(15)
C3 C 0.6984(3) 0.8762(3) -0.04524(17)
C4 C 0.7999(3) 0.9418(3) -0.04368(18)
H3 H 0.8292 0.9670 -0.0021
C5 C 0.8521(4) 0.9659(3) -0.10417(19)
C6 C 0.9617(5) 1.0367(4) -0.1882(2)
H4 H 0.9240 1.1148 -0.2009
H5 H 1.0518 1.0206 -0.2035
C7 C 0.8131(4) 0.9282(3) -0.1676(2)
C8 C 0.7198(4) 0.8648(3) -0.1726(2)
H6 H 0.6939 0.8409 -0.2153
C9 C 0.6609(3) 0.8351(3) -0.10909(17)
C10 C 0.5719(4) 0.7595(3) -0.11132(18)
H7 H 0.5470 0.7343 -0.1538
C11 C 0.5220(3) 0.7229(3) -0.05302(18)
H8 H 0.4670 0.6695 -0.0554
C12 C 0.5528(3) 0.7650(3) 0.01131(16)
C13 C 0.5046(3) 0.7284(3) 0.07904(17)
H9 H 0.4531 0.7981 0.0989
C14 C 0.4125(3) 0.6421(3) 0.07767(18)
H10 H 0.3400 0.6691 0.0468
H11 H 0.4585 0.5690 0.0607
C15 C 0.3621(3) 0.6278(3) 0.1493(2)
H12 H 0.3045 0.5711 0.1481
C16 C 0.4713(4) 0.5878(3) 0.19963(18)
H13 H 0.4339 0.5871 0.2460
C17 C 0.5729(3) 0.6662(3) 0.20027(16)
H14 H 0.5355 0.7373 0.2231
H15 H 0.6474 0.6297 0.2273
C18 C 0.6208(3) 0.6942(3) 0.12856(16)
C19 C 0.8603(3) 0.6282(3) 0.04650(17)
C20 C 0.8599(3) 0.6127(3) -0.02356(18)
H16 H 0.7982 0.5762 -0.0442
C21 C 0.9522(4) 0.6522(3) -0.06271(19)
H17 H 0.9528 0.6407 -0.1102
C22 C 1.0438(3) 0.7080(3) -0.0341(2)
C23 C 1.0438(3) 0.7204(3) 0.0372(2)
H18 H 1.1060 0.7563 0.0579
C24 C 0.9542(3) 0.6808(3) 0.0773(2)
H19 H 0.9559 0.6889 0.1250
C25 C 1.1398(4) 0.7552(4) -0.0778(3)
H20 H 1.1256 0.7396 -0.1255
H21 H 1.2268 0.7199 -0.0648
H22 H 1.1286 0.8365 -0.0710
C26 C 0.6883(4) 0.9909(3) 0.09886(18)
H23 H 0.7117 0.9951 0.1466
H24 H 0.6078 1.0428 0.0903
H25 H 0.7558 1.0116 0.0704
C27 C 0.5946(5) 0.4088(4) 0.2347(3)
H26 H 0.6292 0.3331 0.2182
H27 H 0.5362 0.4040 0.2725
H28 H 0.6648 0.4448 0.2500
S2 S 0.24650(7) 0.57276(6) 0.40214(4)
N2 N 0.1724(2) 0.8738(2) 0.41753(13)
O8 O 0.2373(2) 0.82094(19) 0.30967(11)
O9 O 0.4547(3) 1.0215(2) 0.61469(14)
O10 O 0.3906(3) 0.9598(3) 0.71835(14)
O11 O -0.2125(3) 0.7361(3) 0.33008(15)
H2 H -0.2138 0.7406 0.2878
O12 O 0.0269(3) 0.4737(2) 0.31871(14)
O13 O 0.1861(2) 0.50118(18) 0.44576(12)
O14 O 0.3139(2) 0.5254(2) 0.34141(12)
C28 C 0.1860(3) 0.8001(2) 0.36354(15)
C29 C 0.1383(3) 0.8400(2) 0.48512(16)
C30 C 0.1983(3) 0.8761(3) 0.54490(17)
C31 C 0.3000(3) 0.9414(3) 0.54414(18)
H29 H 0.3297 0.9667 0.5026
C32 C 0.3521(3) 0.9658(3) 0.60428(18)
C33 C 0.4613(5) 1.0359(4) 0.6880(2)
H30 H 0.5513 1.0194 0.7034
H31 H 0.4239 1.1141 0.7007
C34 C 0.3134(4) 0.9279(3) 0.66724(19)
C35 C 0.2203(4) 0.8647(4) 0.6722(2)
H32 H 0.1947 0.8406 0.7150
C36 C 0.1608(3) 0.8350(3) 0.60976(17)
C37 C 0.0715(4) 0.7592(3) 0.61098(18)
H33 H 0.0463 0.7335 0.6534
C38 C 0.0213(3) 0.7226(3) 0.55283(18)
H34 H -0.0342 0.6697 0.5554
C39 C 0.0528(3) 0.7646(3) 0.48874(17)
C40 C 0.0044(3) 0.7284(3) 0.42100(17)
H35 H -0.0470 0.7983 0.4011
C41 C -0.0873(3) 0.6418(3) 0.42220(17)
H36 H -0.0409 0.5685 0.4390
H37 H -0.1597 0.6681 0.4532
C42 C -0.1385(4) 0.6277(3) 0.3505(2)
H38 H -0.1962 0.5712 0.3519
C43 C -0.0276(4) 0.5870(3) 0.30019(18)
H39 H -0.0644 0.5864 0.2537
C44 C 0.0730(3) 0.6664(3) 0.29987(16)
H40 H 0.1475 0.6309 0.2725
H41 H 0.0347 0.7376 0.2773
C45 C 0.1213(3) 0.6939(3) 0.37139(16)
C46 C 0.3607(3) 0.6282(2) 0.45287(17)
C47 C 0.3600(3) 0.6130(3) 0.52369(17)
H42 H 0.2979 0.5770 0.5445
C48 C 0.4527(4) 0.6524(3) 0.5627(2)
H43 H 0.4539 0.6407 0.6102
C49 C 0.5433(4) 0.7081(3) 0.5338(2)
C50 C 0.5443(3) 0.7202(3) 0.4622(2)
H44 H 0.6068 0.7557 0.4413
C51 C 0.4549(3) 0.6805(3) 0.4229(2)
H45 H 0.4568 0.6887 0.3752
C52 C 0.6404(4) 0.7552(4) 0.5778(3)
H46 H 0.6256 0.7398 0.6255
H47 H 0.6300 0.8364 0.5708
H48 H 0.7273 0.7193 0.5651
C53 C 0.1884(4) 0.9909(3) 0.40099(19)
H49 H 0.2111 0.9953 0.3531
H50 H 0.2565 1.0112 0.4291
H51 H 0.1082 1.0429 0.4099
C54 C 0.0946(5) 0.4095(4) 0.2649(2)
H52 H 0.1293 0.3336 0.2811
H53 H 0.1648 0.4457 0.2496
H54 H 0.0360 0.4054 0.2271
loop_
_geom_bond_atom_site_label_1
_geom_bond_atom_site_label_2
_geom_bond_site_symmetry_1
_geom_bond_site_symmetry_2
S1 O6 1_555 1_555
S2 O13 1_555 1_555
N1 C1 1_555 1_555
N2 C28 1_555 1_555
O1 C1 1_555 1_555
O2 C5 1_555 1_555
O3 C6 1_555 1_555
O4 H1 1_555 1_555
O5 C16 1_555 1_555
O7 S1 1_555 1_555
O8 C28 1_555 1_555
O9 C32 1_555 1_555
O10 C33 1_555 1_555
O11 H2 1_555 1_555
O12 C43 1_555 1_555
O14 S2 1_555 1_555
C1 C18 1_555 1_555
C2 N1 1_555 1_555
C3 C2 1_555 1_555
C4 C3 1_555 1_555
H3 C4 1_555 1_555
C5 C4 1_555 1_555
C6 O2 1_555 1_555
H4 C6 1_555 1_555
H5 C6 1_555 1_555
C7 O3 1_555 1_555
C8 C7 1_555 1_555
H6 C8 1_555 1_555
C9 C3 1_555 1_555
C10 C9 1_555 1_555
H7 C10 1_555 1_555
C11 C10 1_555 1_555
H8 C11 1_555 1_555
C12 C2 1_555 1_555
C13 C12 1_555 1_555
H9 C13 1_555 1_555
C14 C13 1_555 1_555
H10 C14 1_555 1_555
H11 C14 1_555 1_555
C15 O4 1_555 1_555
H12 C15 1_555 1_555
C16 C15 1_555 1_555
H13 C16 1_555 1_555
C17 C16 1_555 1_555
H14 C17 1_555 1_555
H15 C17 1_555 1_555
C18 S1 1_555 1_555
C19 S1 1_555 1_555
C20 C19 1_555 1_555
H16 C20 1_555 1_555
C21 C20 1_555 1_555
H17 C21 1_555 1_555
C22 C21 1_555 1_555
C23 C22 1_555 1_555
H18 C23 1_555 1_555
C24 C19 1_555 1_555
H19 C24 1_555 1_555
C25 C22 1_555 1_555
H20 C25 1_555 1_555
H21 C25 1_555 1_555
H22 C25 1_555 1_555
C26 N1 1_555 1_555
H23 C26 1_555 1_555
H24 C26 1_555 1_555
H25 C26 1_555 1_555
C27 O5 1_555 1_555
H26 C27 1_555 1_555
H27 C27 1_555 1_555
H28 C27 1_555 1_555
C28 C45 1_555 1_555
C29 N2 1_555 1_555
C30 C29 1_555 1_555
C31 C30 1_555 1_555
H29 C31 1_555 1_555
C32 C31 1_555 1_555
C33 O9 1_555 1_555
H30 C33 1_555 1_555
H31 C33 1_555 1_555
C34 O10 1_555 1_555
C35 C34 1_555 1_555
H32 C35 1_555 1_555
C36 C30 1_555 1_555
C37 C36 1_555 1_555
H33 C37 1_555 1_555
C38 C37 1_555 1_555
H34 C38 1_555 1_555
C39 C29 1_555 1_555
C40 C39 1_555 1_555
H35 C40 1_555 1_555
C41 C40 1_555 1_555
H36 C41 1_555 1_555
H37 C41 1_555 1_555
C42 O11 1_555 1_555
H38 C42 1_555 1_555
C43 C42 1_555 1_555
H39 C43 1_555 1_555
C44 C43 1_555 1_555
H40 C44 1_555 1_555
H41 C44 1_555 1_555
C45 S2 1_555 1_555
C46 S2 1_555 1_555
C47 C46 1_555 1_555
H42 C47 1_555 1_555
C48 C47 1_555 1_555
H43 C48 1_555 1_555
C49 C48 1_555 1_555
C50 C49 1_555 1_555
H44 C50 1_555 1_555
C51 C46 1_555 1_555
H45 C51 1_555 1_555
C52 C49 1_555 1_555
H46 C52 1_555 1_555
H47 C52 1_555 1_555
H48 C52 1_555 1_555
C53 N2 1_555 1_555
H49 C53 1_555 1_555
H50 C53 1_555 1_555
H51 C53 1_555 1_555
C54 O12 1_555 1_555
H52 C54 1_555 1_555
H53 C54 1_555 1_555
H54 C54 1_555 1_555
C5 C7 1_555 1_555
C8 C9 1_555 1_555
C11 C12 1_555 1_555
C13 C18 1_555 1_555
C14 C15 1_555 1_555
C17 C18 1_555 1_555
C23 C24 1_555 1_555
C32 C34 1_555 1_555
C35 C36 1_555 1_555
C38 C39 1_555 1_555
C40 C45 1_555 1_555
C41 C42 1_555 1_555
C44 C45 1_555 1_555
C50 C51 1_555 1_555

#END
