
#######################################################################
#
#                 Cambridge Crystallographic Data Centre
#                                CCDC 
#
#######################################################################
#
# If this CIF has been generated from an entry in the Cambridge 
# Structural Database, then it will include bibliographic, chemical, 
# crystal, experimental, refinement or atomic coordinate data resulting 
# from the CCDC's data processing and validation procedures.
#
#######################################################################

data_MIMPOP
_chemical_formula_moiety         'C18 H15 N1 O2'
_chemical_name_systematic        2-(2-(4-Methoxyphenyl)vinyl)quinolin-8-ol
_symmetry_cell_setting           monoclinic
_symmetry_space_group_name_H-M   'P 21/c'
_symmetry_Int_Tables_number      14
_space_group_name_Hall           '-P 2ybc'
loop_
_symmetry_equiv_pos_site_id
_symmetry_equiv_pos_as_xyz
1 x,y,z
2 -x,1/2+y,1/2-z
3 -x,-y,-z
4 x,1/2-y,1/2+z
_cell_length_a                   9.84(2)
_cell_length_b                   9.281(19)
_cell_length_c                   16.30(3)
_cell_angle_alpha                90
_cell_angle_beta                 102.64(3)
_cell_angle_gamma                90
_cell_volume                     1452.52
_exptl_crystal_colour            colorless
_exptl_crystal_description       Block
_cell_formula_units_Z            4
loop_
_atom_site_label
_atom_site_type_symbol
_atom_site_fract_x
_atom_site_fract_y
_atom_site_fract_z
O1 O 0.67172(16) 0.55515(15) 0.12361(10)
N1 N 0.80435(14) 0.75128(16) 0.23599(9)
C1 C 0.68358(19) 0.6936(2) 0.09762(12)
O2 O 1.33083(13) 0.62624(16) 0.73573(8)
C2 C 0.6293(2) 0.7310(2) 0.01655(13)
H1 H 0.5858 0.6618 -0.0216
C3 C 0.6388(2) 0.8738(3) -0.00965(14)
H2 H 0.6017 0.8982 -0.0654
C4 C 0.7010(2) 0.9772(2) 0.04474(14)
H3 H 0.7055 1.0716 0.0263
C5 C 0.75870(17) 0.9416(2) 0.12911(12)
C6 C 0.75117(17) 0.7975(2) 0.15638(11)
C7 C 0.82578(19) 1.0400(2) 0.19092(14)
H4 H 0.8321 1.1367 0.1771
C8 C 0.88085(19) 0.9946(2) 0.26992(13)
H5 H 0.9258 1.0597 0.3102
C9 C 0.87001(18) 0.8467(2) 0.29158(12)
C10 C 0.93147(19) 0.7920(2) 0.37513(11)
H6 H 0.8946 0.7074 0.3918
C11 C 1.03629(19) 0.8533(2) 0.42961(12)
H7 H 1.0663 0.9421 0.4139
C12 C 1.10906(18) 0.79817(19) 0.51046(11)
C13 C 1.24187(19) 0.8466(2) 0.54535(12)
H8 H 1.2801 0.9186 0.5178
C14 C 1.31956(19) 0.7923(2) 0.61915(12)
H9 H 1.4093 0.8264 0.6404
C15 C 1.26400(18) 0.6871(2) 0.66171(11)
C16 C 1.12989(18) 0.6378(2) 0.62920(11)
H10 H 1.0911 0.5677 0.6579
C17 C 1.05479(18) 0.6918(2) 0.55527(12)
H11 H 0.9653 0.6572 0.5340
C18 C 1.4678(2) 0.6741(3) 0.77156(16)
H12 H 1.5028 0.6234 0.8232
H13 H 1.4664 0.7756 0.7826
H14 H 1.5270 0.6556 0.7331
H15 H 0.712(2) 0.552(3) 0.1767(17)
loop_
_geom_bond_atom_site_label_1
_geom_bond_atom_site_label_2
_geom_bond_site_symmetry_1
_geom_bond_site_symmetry_2
O1 C1 1_555 1_555
N1 C6 1_555 1_555
C1 C2 1_555 1_555
O2 C15 1_555 1_555
C2 H1 1_555 1_555
C3 C2 1_555 1_555
H2 C3 1_555 1_555
C4 C3 1_555 1_555
H3 C4 1_555 1_555
C5 C4 1_555 1_555
C6 C1 1_555 1_555
C7 C5 1_555 1_555
H4 C7 1_555 1_555
C8 C7 1_555 1_555
H5 C8 1_555 1_555
C9 N1 1_555 1_555
C10 C9 1_555 1_555
H6 C10 1_555 1_555
C11 C10 1_555 1_555
H7 C11 1_555 1_555
C12 C11 1_555 1_555
C13 C12 1_555 1_555
H8 C13 1_555 1_555
C14 C13 1_555 1_555
H9 C14 1_555 1_555
C15 C14 1_555 1_555
C16 C15 1_555 1_555
H10 C16 1_555 1_555
C17 C12 1_555 1_555
H11 C17 1_555 1_555
C18 O2 1_555 1_555
H12 C18 1_555 1_555
H13 C18 1_555 1_555
H14 C18 1_555 1_555
H15 O1 1_555 1_555
C5 C6 1_555 1_555
C8 C9 1_555 1_555
C16 C17 1_555 1_555

#END
