
#######################################################################
#
#                 Cambridge Crystallographic Data Centre
#                                CCDC 
#
#######################################################################
#
# If this CIF has been generated from an entry in the Cambridge 
# Structural Database, then it will include bibliographic, chemical, 
# crystal, experimental, refinement or atomic coordinate data resulting 
# from the CCDC's data processing and validation procedures.
#
#######################################################################

data_MINZER
_chemical_formula_moiety         'C9 H9 N1 O2'
_chemical_name_systematic        5-methoxy-1,3-dihydro-2H-indol-2-one
_symmetry_cell_setting           triclinic
_symmetry_space_group_name_H-M   'P -1'
_symmetry_Int_Tables_number      2
_space_group_name_Hall           '-P 1'
loop_
_symmetry_equiv_pos_site_id
_symmetry_equiv_pos_as_xyz
1 x,y,z
2 -x,-y,-z
_cell_length_a                   4.39790(10)
_cell_length_b                   8.7601(3)
_cell_length_c                   10.9009(3)
_cell_angle_alpha                111.3310(13)
_cell_angle_beta                 92.1479(15)
_cell_angle_gamma                95.2237(15)
_cell_volume                     388.444
_exptl_crystal_colour            brown
_exptl_crystal_description       plate
_cell_formula_units_Z            2
loop_
_atom_site_label
_atom_site_type_symbol
_atom_site_fract_x
_atom_site_fract_y
_atom_site_fract_z
C1 C 0.5423(2) 0.52498(13) 0.72389(11)
C2 C 0.4883(2) 0.63648(14) 0.84836(10)
C3 C 0.6314(3) 0.79506(14) 0.89731(11)
H1 H 0.598036 0.868646 0.983228
C4 C 0.8275(3) 0.84585(14) 0.81780(11)
H2 H 0.927090 0.955360 0.849165
C5 C 0.8766(2) 0.73586(14) 0.69281(11)
C6 C 0.7366(3) 0.57348(14) 0.64559(11)
H3 H 0.774800 0.498071 0.561075
C7 C 0.3570(3) 0.36324(14) 0.70167(11)
H4 H 0.490801 0.275575 0.693382
H5 H 0.214804 0.328664 0.621394
C8 C 0.1825(3) 0.40151(14) 0.82588(11)
N1 N 0.2748(2) 0.55901(12) 0.90599(9)
H6 H 0.187(3) 0.6053(17) 0.9843(14)
O1 O -0.0080(2) 0.30578(10) 0.84949(8)
O2 O 1.0597(2) 0.77461(10) 0.60617(8)
C9 C 1.1895(3) 0.94079(15) 0.64362(13)
H7 H 1.026307 1.013314 0.663046
H8 H 1.301256 0.953767 0.571267
H9 H 1.330844 0.970145 0.722423
loop_
_geom_bond_atom_site_label_1
_geom_bond_atom_site_label_2
_geom_bond_site_symmetry_1
_geom_bond_site_symmetry_2
C1 C2 1_555 1_555
C2 C3 1_555 1_555
C3 H1 1_555 1_555
C4 C3 1_555 1_555
H2 C4 1_555 1_555
C5 C4 1_555 1_555
C6 C1 1_555 1_555
H3 C6 1_555 1_555
C7 C1 1_555 1_555
H4 C7 1_555 1_555
H5 C7 1_555 1_555
C8 C7 1_555 1_555
N1 C2 1_555 1_555
H6 N1 1_555 1_555
O1 C8 1_555 1_555
O2 C5 1_555 1_555
C9 O2 1_555 1_555
H7 C9 1_555 1_555
H8 C9 1_555 1_555
H9 C9 1_555 1_555
C5 C6 1_555 1_555
C8 N1 1_555 1_555

#END
