
#######################################################################
#
#                 Cambridge Crystallographic Data Centre
#                                CCDC 
#
#######################################################################
#
# If this CIF has been generated from an entry in the Cambridge 
# Structural Database, then it will include bibliographic, chemical, 
# crystal, experimental, refinement or atomic coordinate data resulting 
# from the CCDC's data processing and validation procedures.
#
#######################################################################

data_MIPZUJ
_chemical_formula_moiety         'C23 H28 O6'
_chemical_name_systematic        
10-acetyl-6,9-dihydroxy-4,4-dimethyl-8-(propan-2-yl)-2,3,4,4a,5,6-hexahydro-5,11b-(epoxymethano)cyclohepta[a]naphthalene-11,12(1H)-dione
_symmetry_cell_setting           monoclinic
_symmetry_space_group_name_H-M   'P 21'
_symmetry_Int_Tables_number      4
_space_group_name_Hall           'P 2yb'
loop_
_symmetry_equiv_pos_site_id
_symmetry_equiv_pos_as_xyz
1 x,y,z
2 -x,1/2+y,-z
_cell_length_a                   7.3005(4)
_cell_length_b                   12.1224(5)
_cell_length_c                   11.9121(6)
_cell_angle_alpha                90
_cell_angle_beta                 105.259(6)
_cell_angle_gamma                90
_cell_volume                     1017.05
_exptl_crystal_colour            colorless
_exptl_crystal_description       block
_cell_formula_units_Z            2
loop_
_atom_site_label
_atom_site_type_symbol
_atom_site_fract_x
_atom_site_fract_y
_atom_site_fract_z
O1 O -0.2940(4) -0.11343(16) -0.5410(2)
O2 O -0.4278(2) 0.04116(15) -0.49910(16)
O3 O -0.6328(3) 0.22603(17) -0.62060(18)
H1 H -0.699(6) 0.267(4) -0.583(4)
O4 O -0.1388(3) -0.02470(15) -0.76058(17)
O5 O -0.0696(3) 0.3015(2) -0.94363(19)
H2 H 0.0291 0.2718 -0.9483
O6 O 0.1813(3) 0.1660(2) -0.9222(2)
C1 C -0.1487(3) 0.14947(18) -0.43848(19)
H3 H -0.0997 0.2209 -0.4560
C2 C -0.0515(4) 0.1191(2) -0.3107(2)
C3 C 0.1541(4) 0.0851(3) -0.3060(2)
H4 H 0.2199 0.1478 -0.3277
H5 H 0.2193 0.0650 -0.2268
C4 C 0.1641(4) -0.0111(3) -0.3860(3)
H6 H 0.1025 -0.0748 -0.3628
H7 H 0.2960 -0.0299 -0.3781
C5 C 0.0688(4) 0.0161(2) -0.5129(2)
H8 H 0.1480 0.0678 -0.5410
H9 H 0.0598 -0.0508 -0.5588
C6 C -0.1285(3) 0.06525(18) -0.53193(19)
C7 C -0.2022(3) 0.12238(18) -0.65141(19)
C8 C -0.3366(3) 0.20176(19) -0.6694(2)
C9 C -0.4340(3) 0.23017(19) -0.5739(2)
H10 H -0.3995 0.3060 -0.5485
C10 C -0.3650(3) 0.1550(2) -0.4698(2)
H11 H -0.4088 0.1816 -0.4036
C11 C -0.4076(3) 0.2636(2) -0.7764(2)
H12 H -0.5281 0.2934 -0.7858
C12 C -0.3287(3) 0.2855(2) -0.8651(2)
C13 C -0.1459(4) 0.2435(2) -0.8732(2)
C14 C -0.0559(3) 0.1477(2) -0.8227(2)
C15 C -0.1354(3) 0.07552(19) -0.7485(2)
C16 C -0.1503(5) 0.0266(3) -0.2601(3)
H13 H -0.1474 -0.0405 -0.3025
H14 H -0.2797 0.0469 -0.2666
H15 H -0.0854 0.0155 -0.1796
C17 C -0.0462(5) 0.2226(3) -0.2376(3)
H16 H 0.0158 0.2064 -0.1577
H17 H -0.1735 0.2471 -0.2438
H18 H 0.0225 0.2794 -0.2652
C18 C -0.2866(4) -0.0151(2) -0.5256(2)
C19 C -0.4291(4) 0.3592(2) -0.9662(2)
H19 H -0.3332 0.4085 -0.9829
C20 C -0.5060(4) 0.2877(3) -1.0746(2)
H20 H -0.4042 0.2454 -1.0900
H21 H -0.5602 0.3343 -1.1401
H22 H -0.6017 0.2388 -1.0615
C21 C -0.5857(5) 0.4315(3) -0.9430(3)
H23 H -0.6895 0.3859 -0.9358
H24 H -0.6292 0.4821 -1.0065
H25 H -0.5372 0.4721 -0.8722
C22 C 0.1171(4) 0.1111(2) -0.8531(2)
C23 C 0.2262(5) 0.0108(3) -0.8008(3)
H26 H 0.2282 0.0058 -0.7201
H27 H 0.3539 0.0159 -0.8080
H28 H 0.1664 -0.0538 -0.8409
loop_
_geom_bond_atom_site_label_1
_geom_bond_atom_site_label_2
_geom_bond_site_symmetry_1
_geom_bond_site_symmetry_2
O1 C18 1_555 1_555
O2 C10 1_555 1_555
O3 H1 1_555 1_555
O4 C15 1_555 1_555
O5 H2 1_555 1_555
O6 C22 1_555 1_555
C1 H3 1_555 1_555
C2 C1 1_555 1_555
C3 C2 1_555 1_555
H4 C3 1_555 1_555
H5 C3 1_555 1_555
C4 C3 1_555 1_555
H6 C4 1_555 1_555
H7 C4 1_555 1_555
C5 C4 1_555 1_555
H8 C5 1_555 1_555
H9 C5 1_555 1_555
C6 C1 1_555 1_555
C7 C6 1_555 1_555
C8 C7 1_555 1_555
C9 O3 1_555 1_555
H10 C9 1_555 1_555
C10 C1 1_555 1_555
H11 C10 1_555 1_555
C11 C8 1_555 1_555
H12 C11 1_555 1_555
C12 C11 1_555 1_555
C13 O5 1_555 1_555
C14 C13 1_555 1_555
C15 C7 1_555 1_555
C16 C2 1_555 1_555
H13 C16 1_555 1_555
H14 C16 1_555 1_555
H15 C16 1_555 1_555
C17 C2 1_555 1_555
H16 C17 1_555 1_555
H17 C17 1_555 1_555
H18 C17 1_555 1_555
C18 O2 1_555 1_555
C19 C12 1_555 1_555
H19 C19 1_555 1_555
C20 C19 1_555 1_555
H20 C20 1_555 1_555
H21 C20 1_555 1_555
H22 C20 1_555 1_555
C21 C19 1_555 1_555
H23 C21 1_555 1_555
H24 C21 1_555 1_555
H25 C21 1_555 1_555
C22 C14 1_555 1_555
C23 C22 1_555 1_555
H26 C23 1_555 1_555
H27 C23 1_555 1_555
H28 C23 1_555 1_555
C5 C6 1_555 1_555
C6 C18 1_555 1_555
C8 C9 1_555 1_555
C9 C10 1_555 1_555
C12 C13 1_555 1_555
C14 C15 1_555 1_555

#END
