
#######################################################################
#
#                 Cambridge Crystallographic Data Centre
#                                CCDC 
#
#######################################################################
#
# If this CIF has been generated from an entry in the Cambridge 
# Structural Database, then it will include bibliographic, chemical, 
# crystal, experimental, refinement or atomic coordinate data resulting 
# from the CCDC's data processing and validation procedures.
#
#######################################################################

data_MIQHOM
_chemical_formula_moiety         'C28 H47 N1 O7 Si1'
_chemical_name_systematic        
't-butyl 1-((t-butyl(dimethyl)silyl)oxy)-13-formyl-9,9-dimethoxy-8-oxo-1,2,3,6,7,8,9,10-octahydro-7a,10-ethano-4-benzazonine-4(5H)-carboxylate'
_symmetry_cell_setting           monoclinic
_symmetry_space_group_name_H-M   'P 21/c'
_symmetry_Int_Tables_number      14
_space_group_name_Hall           '-P 2ybc'
loop_
_symmetry_equiv_pos_site_id
_symmetry_equiv_pos_as_xyz
1 x,y,z
2 -x,1/2+y,1/2-z
3 -x,-y,-z
4 x,1/2-y,1/2+z
_cell_length_a                   9.5353(9)
_cell_length_b                   23.6854(19)
_cell_length_c                   14.1735(18)
_cell_angle_alpha                90
_cell_angle_beta                 108.988(3)
_cell_angle_gamma                90
_cell_volume                     3026.87
_exptl_crystal_colour            colorless
_exptl_crystal_description       prism
_cell_formula_units_Z            4
loop_
_atom_site_label
_atom_site_type_symbol
_atom_site_fract_x
_atom_site_fract_y
_atom_site_fract_z
C1 C 0.4432(8) 0.2156(4) 0.8648(5)
H1 H 0.4867 0.2535 0.8781
H2 H 0.5105 0.1883 0.9088
H3 H 0.3479 0.2152 0.8772
C2 C 0.5936(7) 0.2021(3) 0.7087(6)
H4 H 0.6290 0.2411 0.7216
H5 H 0.5834 0.1920 0.6397
H6 H 0.6648 0.1767 0.7546
C3 C 0.3313(4) 0.12440(18) 0.7063(4)
C4 C 0.1922(8) 0.1164(3) 0.7286(6)
H7 H 0.1250 0.1480 0.7010
H8 H 0.2138 0.1149 0.8011
H9 H 0.1454 0.0810 0.6987
C5 C 0.2876(8) 0.1143(3) 0.5871(5)
H10 H 0.3755 0.1196 0.5667
H11 H 0.2107 0.1413 0.5517
H12 H 0.2502 0.0757 0.5709
C6 C 0.4501(9) 0.0792(3) 0.7450(6)
H13 H 0.5380 0.0894 0.7273
H14 H 0.4117 0.0428 0.7149
H15 H 0.4769 0.0765 0.8177
C7 C 0.2884(4) 0.29891(15) 0.6648(3)
H16 H 0.3357 0.3099 0.7363
C8 C 0.3796(4) 0.32359(16) 0.6046(3)
H17 H 0.4806 0.3072 0.6284
H18 H 0.3337 0.3131 0.5336
C9 C 0.3904(4) 0.38704(17) 0.6132(3)
H19 H 0.4669 0.4004 0.5850
H20 H 0.2944 0.4037 0.5729
C10 C 0.5709(4) 0.40003(17) 0.7766(3)
C11 C 0.7395(4) 0.41470(18) 0.9461(3)
C12 C 0.8615(5) 0.4431(2) 0.9155(4)
H21 H 0.8379 0.4832 0.9023
H22 H 0.8688 0.4251 0.8551
H23 H 0.9563 0.4394 0.9695
C13 C 0.7690(6) 0.3525(2) 0.9669(4)
H24 H 0.6877 0.3358 0.9855
H25 H 0.8624 0.3476 1.0217
H26 H 0.7760 0.3338 0.9070
C14 C 0.7147(5) 0.4452(2) 1.0327(4)
H27 H 0.6966 0.4853 1.0162
H28 H 0.8028 0.4412 1.0919
H29 H 0.6286 0.4290 1.0461
C15 C 0.3204(4) 0.43902(17) 0.7486(3)
H30 H 0.2338 0.4468 0.6887
H31 H 0.3655 0.4759 0.7745
C16 C 0.2628(4) 0.41272(18) 0.8273(3)
H32 H 0.2115 0.4431 0.8512
H33 H 0.3509 0.4022 0.8844
C17 C 0.1575(4) 0.36076(17) 0.8048(3)
H34 H 0.2195 0.3267 0.8279
H35 H 0.0925 0.3642 0.8466
C18 C 0.0579(4) 0.34977(16) 0.6978(3)
C19 C -0.0269(4) 0.40255(17) 0.6482(3)
C20 C -0.1119(4) 0.39468(16) 0.5361(3)
C21 C -0.0743(5) 0.4221(2) 0.3829(3)
H36 H -0.0119 0.4464 0.3571
H37 H -0.1783 0.4335 0.3534
H38 H -0.0628 0.3828 0.3655
C22 C -0.2878(4) 0.47125(19) 0.5209(4)
H39 H -0.3949 0.4783 0.4990
H40 H -0.2426 0.4940 0.4807
H41 H -0.2442 0.4816 0.5914
C23 C -0.1165(4) 0.33221(16) 0.5146(3)
H42 H -0.1769 0.3241 0.4438
C24 C -0.1807(4) 0.30194(17) 0.5878(3)
H43 H -0.1921 0.2612 0.5716
H44 H -0.2799 0.3175 0.5809
C25 C -0.0769(4) 0.30978(16) 0.6967(3)
H45 H -0.1339 0.3278 0.7367
C26 C -0.0192(4) 0.25439(19) 0.7419(4)
H46 H 0.0368 0.2329 0.7101
C27 C 0.1306(4) 0.32116(15) 0.6292(3)
C28 C 0.0411(4) 0.31225(16) 0.5371(3)
H47 H 0.0742 0.2944 0.4882
N1 N 0.4281(3) 0.40729(13) 0.7167(2)
O1 O 0.2837(2) 0.23843(10) 0.65832(19)
O2 O 0.6625(3) 0.37515(13) 0.7490(2)
O3 O 0.5952(3) 0.42269(12) 0.8668(2)
O4 O -0.0327(3) 0.44527(12) 0.6932(2)
O5 O -0.0301(3) 0.42768(11) 0.4897(2)
O6 O -0.2613(3) 0.41289(11) 0.5085(2)
O7 O -0.0366(4) 0.23465(17) 0.8134(3)
Si1 Si 0.41240(11) 0.19577(5) 0.72772(9)
C29? C 0.511(3) 0.2191(12) 0.8419(17)
H48? H 0.5461 0.2575 0.8369
H49? H 0.5965 0.1942 0.8707
H50? H 0.4485 0.2191 0.8847
C30? C 0.551(2) 0.1902(12) 0.6550(18)
H51? H 0.4991 0.1762 0.5875
H52? H 0.6304 0.1640 0.6894
H53? H 0.5928 0.2275 0.6511
C31? C 0.248(2) 0.1239(10) 0.8009(18)
H54? H 0.3232 0.1309 0.8658
H55? H 0.2014 0.0870 0.8020
H56? H 0.1718 0.1535 0.7874
C32? C 0.201(3) 0.1131(11) 0.626(2)
H57? H 0.1568 0.1487 0.5952
H58? H 0.1297 0.0932 0.6512
H59? H 0.2245 0.0896 0.5767
C33? C 0.426(2) 0.0770(9) 0.7737(16)
H60? H 0.5048 0.0941 0.8292
H61? H 0.4711 0.0535 0.7342
H62? H 0.3629 0.0535 0.8000
loop_
_geom_bond_atom_site_label_1
_geom_bond_atom_site_label_2
_geom_bond_site_symmetry_1
_geom_bond_site_symmetry_2
C1 H1 1_555 1_555
H2 C1 1_555 1_555
H3 C1 1_555 1_555
C2 H4 1_555 1_555
H5 C2 1_555 1_555
H6 C2 1_555 1_555
C3 C4 1_555 1_555
C4 H7 1_555 1_555
H8 C4 1_555 1_555
H9 C4 1_555 1_555
C5 C3 1_555 1_555
H10 C5 1_555 1_555
H11 C5 1_555 1_555
H12 C5 1_555 1_555
C6 C3 1_555 1_555
H13 C6 1_555 1_555
H14 C6 1_555 1_555
H15 C6 1_555 1_555
C7 H16 1_555 1_555
C8 C7 1_555 1_555
H17 C8 1_555 1_555
H18 C8 1_555 1_555
C9 C8 1_555 1_555
H19 C9 1_555 1_555
H20 C9 1_555 1_555
C10 N1 1_555 1_555
C11 C12 1_555 1_555
C12 H21 1_555 1_555
H22 C12 1_555 1_555
H23 C12 1_555 1_555
C13 C11 1_555 1_555
H24 C13 1_555 1_555
H25 C13 1_555 1_555
H26 C13 1_555 1_555
C14 C11 1_555 1_555
H27 C14 1_555 1_555
H28 C14 1_555 1_555
H29 C14 1_555 1_555
C15 H30 1_555 1_555
H31 C15 1_555 1_555
C16 C15 1_555 1_555
H32 C16 1_555 1_555
H33 C16 1_555 1_555
C17 C16 1_555 1_555
H34 C17 1_555 1_555
H35 C17 1_555 1_555
C18 C17 1_555 1_555
C19 C18 1_555 1_555
C20 C19 1_555 1_555
C21 H36 1_555 1_555
H37 C21 1_555 1_555
H38 C21 1_555 1_555
C22 H39 1_555 1_555
H40 C22 1_555 1_555
H41 C22 1_555 1_555
C23 C20 1_555 1_555
H42 C23 1_555 1_555
C24 C23 1_555 1_555
H43 C24 1_555 1_555
H44 C24 1_555 1_555
C25 C18 1_555 1_555
H45 C25 1_555 1_555
C26 C25 1_555 1_555
H46 C26 1_555 1_555
C27 C7 1_555 1_555
C28 C23 1_555 1_555
H47 C28 1_555 1_555
N1 C9 1_555 1_555
O1 C7 1_555 1_555
O2 C10 1_555 1_555
O3 C10 1_555 1_555
O4 C19 1_555 1_555
O5 C20 1_555 1_555
O6 C20 1_555 1_555
O7 C26 1_555 1_555
Si1 C1 1_555 1_555
C2 Si1 1_555 1_555
C3 Si1 1_555 1_555
C11 O3 1_555 1_555
C15 N1 1_555 1_555
C18 C27 1_555 1_555
C21 O5 1_555 1_555
C22 O6 1_555 1_555
C24 C25 1_555 1_555
C27 C28 1_555 1_555
O1 Si1 1_555 1_555

#END
