
#######################################################################
#
#                 Cambridge Crystallographic Data Centre
#                                CCDC 
#
#######################################################################
#
# If this CIF has been generated from an entry in the Cambridge 
# Structural Database, then it will include bibliographic, chemical, 
# crystal, experimental, refinement or atomic coordinate data resulting 
# from the CCDC's data processing and validation procedures.
#
#######################################################################

data_MIQQEI01
_chemical_name_common            
'Double calix(4)arene perdeuterodimethylsulfoxide solvate'
_chemical_formula_moiety         'C108 H116 N8 O16,2(C2 D6 O1 S1)'
_chemical_name_systematic        
'4,8,12,16-Tetraoxo-5,7,13,15-tetra-aza-2,10(1,4)-dibenzena-1,9(5,3)-di(1,2-oxazola)-3,11(3,5)-di(1,2-oxazola)-6,14(5,17)-di(tetrapropoxycalix(4)arena)cyclohexadecaphane perdeuterodimethylsulfoxide solvate'
_symmetry_cell_setting           triclinic
_symmetry_space_group_name_H-M   'P -1'
_symmetry_Int_Tables_number      2
_space_group_name_Hall           '-P 1'
loop_
_symmetry_equiv_pos_site_id
_symmetry_equiv_pos_as_xyz
1 x,y,z
2 -x,-y,-z
_cell_length_a                   9.9175(9)
_cell_length_b                   10.6381(10)
_cell_length_c                   30.730(3)
_cell_angle_alpha                87.248(2)
_cell_angle_beta                 81.458(2)
_cell_angle_gamma                71.205(2)
_cell_volume                     3035.19
_exptl_crystal_colour            colorless
_exptl_crystal_description       'long plate'
_chemical_melting_point          'above 238deg.C(dec.)'
_cell_formula_units_Z            1
_exptl_crystal_recrystallization_method perdeuterodimethylsulfoxide/chloroform
loop_
_atom_site_label
_atom_site_type_symbol
_atom_site_fract_x
_atom_site_fract_y
_atom_site_fract_z
S1 S 0.6041(6) 0.1952(7) 0.2893(2)
C1 C 0.613(4) 0.172(5) 0.3495(11)
D1 D 0.6053 0.0841 0.3583
D2 D 0.5327 0.2407 0.3658
D3 D 0.7040 0.1780 0.3559
C2 C 0.624(3) 0.355(3) 0.2818(9)
D4 D 0.6161 0.3831 0.2511
D5 D 0.7187 0.3516 0.2886
D6 D 0.5487 0.4185 0.3014
O1 O 0.4498(10) 0.2130(10) 0.2893(4)
N1 N 0.032(3) 0.436(3) 0.4166(8)
N2 N -0.511(2) 0.475(2) 0.5939(6)
N3 N 0.1972(11) 0.4106(10) 0.2797(3)
N4 N 0.6859(12) 0.6889(13) 0.3050(4)
O2 O 0.140(3) 0.425(2) 0.3832(8)
O3 O -0.6312(19) 0.462(2) 0.6232(4)
O4 O -0.0385(11) 0.5064(14) 0.3065(4)
O5 O 0.4992(17) 0.843(2) 0.3482(4)
O6 O 0.2417(9) 0.6374(9) 0.1116(3)
O7 O 0.2835(8) 0.8950(8) 0.1471(3)
O8 O 0.5700(8) 0.5864(8) 0.1165(2)
O9 O 0.6297(8) 0.8508(8) 0.1312(2)
C3 C 0.2352(13) 0.5817(15) 0.1545(4)
C4 C 0.1311(13) 0.6614(13) 0.1883(4)
C5 C 0.1179(12) 0.6071(13) 0.2288(4)
H1 H 0.0487 0.6574 0.2520
C6 C 0.2034(14) 0.4794(14) 0.2369(4)
C7 C 0.3082(13) 0.4045(13) 0.2036(4)
H2 H 0.3679 0.3174 0.2093
C8 C 0.3215(13) 0.4604(14) 0.1628(4)
C9 C 0.4408(15) 0.3786(14) 0.1293(4)
H3 H 0.4326 0.4218 0.1001
H4 H 0.4307 0.2896 0.1271
C10 C 0.6492(13) 0.4691(12) 0.1361(4)
C11 C 0.5912(14) 0.3631(14) 0.1420(4)
C12 C 0.6662(17) 0.2492(15) 0.1626(5)
H5 H 0.6281 0.1777 0.1680
C13 C 0.7938(19) 0.2399(14) 0.1751(5)
H6 H 0.8465 0.1596 0.1881
C14 C 0.8500(15) 0.3428(15) 0.1697(5)
H7 H 0.9400 0.3330 0.1790
C15 C 0.7755(13) 0.4619(13) 0.1506(4)
C16 C 0.8225(12) 0.5848(13) 0.1492(4)
H8 H 0.8139 0.6269 0.1199
H9 H 0.9249 0.5583 0.1536
C17 C 0.6374(12) 0.8072(13) 0.1749(4)
C18 C 0.7313(12) 0.6858(13) 0.1848(4)
C19 C 0.7421(12) 0.6500(13) 0.2280(4)
H10 H 0.8075 0.5664 0.2346
C20 C 0.6601(14) 0.7326(14) 0.2619(4)
C21 C 0.5577(14) 0.8532(13) 0.2523(4)
H11 H 0.4972 0.9098 0.2753
C22 C 0.5473(13) 0.8877(12) 0.2085(4)
C23 C 0.4202(13) 1.0187(13) 0.1999(4)
H12 H 0.4267 1.0937 0.2164
H13 H 0.4293 1.0409 0.1682
C24 C 0.2191(13) 0.9313(12) 0.1884(5)
C25 C 0.2765(14) 0.9981(12) 0.2145(4)
C26 C 0.2021(16) 1.0490(13) 0.2570(4)
H14 H 0.2403 1.0974 0.2748
C27 C 0.0726(19) 1.0254(19) 0.2713(6)
H15 H 0.0169 1.0642 0.2980
C28 C 0.0251(15) 0.9498(16) 0.2483(6)
H16 H -0.0595 0.9305 0.2609
C29 C 0.0911(13) 0.8964(13) 0.2067(5)
C30 C 0.0423(12) 0.8048(12) 0.1813(4)
H17 H 0.0533 0.8267 0.1496
H18 H -0.0607 0.8170 0.1914
C31 C 0.0826(16) 0.4245(16) 0.3090(5)
C32 C 0.1128(19) 0.338(2) 0.3501(5)
C33 C 0.003(5) 0.234(3) 0.3588(16)
H19 H -0.0700 0.2468 0.3389
H20 H 0.0519 0.1394 0.3654
C34 C -0.037(2) 0.335(3) 0.3985(16)
C35 C -0.163(3) 0.343(4) 0.4496(7)
C36 C -0.184(2) 0.449(2) 0.4845(7)
H21 H -0.1257 0.5059 0.4810
C37 C -0.286(2) 0.461(3) 0.5207(6)
H22 H -0.3063 0.5254 0.5431
C38 C -0.364(2) 0.359(3) 0.5206(7)
C39 C -0.352(2) 0.270(2) 0.4884(8)
H23 H -0.4101 0.2139 0.4896
C40 C -0.240(3) 0.269(3) 0.4526(8)
H24 H -0.2225 0.2070 0.4292
C41 C -0.488(2) 0.375(3) 0.5637(7)
C42 C -0.562(2) 0.285(2) 0.5686(8)
H25 H -0.6209 0.2926 0.5447
H26 H -0.4965 0.1928 0.5700
C43 C -0.656(2) 0.331(2) 0.6132(9)
H27 H -0.7597 0.3450 0.6115
C44 C 0.611(2) 0.741(2) 0.3425(6)
C45 C 0.1554(14) 0.6022(15) 0.0852(5)
H28 H 0.0531 0.6359 0.0985
H29 H 0.1838 0.5043 0.0829
C46 C 0.1756(17) 0.6634(16) 0.0392(5)
H30 H 0.1579 0.7599 0.0420
H31 H 0.2756 0.6223 0.0248
C47 C 0.0710(19) 0.640(2) 0.0114(6)
H32 H 0.0838 0.6793 -0.0178
H33 H -0.0279 0.6813 0.0257
H34 H 0.0898 0.5444 0.0084
C48 C 0.2020(18) 0.9815(15) 0.1124(5)
H35 H 0.2301 0.9334 0.0840
H36 H 0.0975 0.9990 0.1212
C49 C 0.2316(19) 1.1091(18) 0.1066(6)
H37 H 0.3353 1.0939 0.0967
H38 H 0.2034 1.1592 0.1346
C50 C 0.1406(17) 1.1862(17) 0.0711(5)
H39 H 0.1575 1.2717 0.0655
H40 H 0.0384 1.2014 0.0816
H41 H 0.1684 1.1342 0.0439
C51 C 0.6066(14) 0.5890(15) 0.0693(4)
H42 H 0.5887 0.5143 0.0558
H43 H 0.7096 0.5806 0.0614
C52 C 0.5161(14) 0.7162(15) 0.0537(4)
H44 H 0.5338 0.7902 0.0677
H45 H 0.4134 0.7239 0.0619
C53 C 0.5502(17) 0.7257(18) 0.0034(4)
H46 H 0.4901 0.8114 -0.0067
H47 H 0.5302 0.6536 -0.0105
H48 H 0.6519 0.7180 -0.0047
C54 C 0.7374(13) 0.9113(13) 0.1156(4)
H49 H 0.8339 0.8435 0.1126
H50 H 0.7351 0.9795 0.1368
C55 C 0.7072(14) 0.9746(15) 0.0715(5)
H51 H 0.6100 1.0413 0.0748
H52 H 0.7089 0.9058 0.0506
C56 C 0.8179(16) 1.0416(16) 0.0529(5)
H53 H 0.7967 1.0805 0.0241
H54 H 0.9142 0.9757 0.0496
H55 H 0.8142 1.1117 0.0731
C43A C 0.656(2) 0.669(2) 0.3868(9)
O3A O 0.6312(19) 0.538(2) 0.3768(4)
N2A N 0.511(2) 0.525(2) 0.4061(6)
C41A C 0.488(2) 0.625(3) 0.4363(7)
C38A C 0.364(2) 0.641(3) 0.4794(7)
C37A C 0.286(2) 0.539(3) 0.4793(6)
C36A C 0.184(2) 0.551(2) 0.5155(7)
C35A C 0.163(3) 0.657(4) 0.5504(7)
C34A C 0.037(2) 0.665(3) 0.6015(16)
N1A N -0.032(3) 0.564(3) 0.5834(8)
O2A O -0.140(3) 0.575(2) 0.6168(8)
C32A C -0.1128(19) 0.662(2) 0.6499(5)
C31A C -0.0826(16) 0.5755(16) 0.6910(5)
N3A N -0.1972(11) 0.5894(10) 0.7203(3)
C6A C -0.2034(14) 0.5206(14) 0.7631(4)
C5A C -0.1179(12) 0.3929(13) 0.7712(4)
C4A C -0.1311(13) 0.3386(13) 0.8117(4)
C3A C -0.2352(13) 0.4183(15) 0.8455(4)
O6A O -0.2417(9) 0.3626(9) 0.8884(3)
C45A C -0.1554(14) 0.3978(15) 0.9148(5)
H28A H -0.0531 0.3641 0.9015
H29A H -0.1838 0.4957 0.9171
C46A C -0.1756(17) 0.3366(16) 0.9608(5)
H30A H -0.1579 0.2401 0.9580
H31A H -0.2756 0.3777 0.9752
C47A C -0.0710(19) 0.360(2) 0.9886(6)
H32A H -0.0838 0.3207 1.0178
H33A H 0.0279 0.3187 0.9743
H34A H -0.0898 0.4556 0.9916
C8A C -0.3215(13) 0.5396(14) 0.8372(4)
C7A C -0.3082(13) 0.5955(13) 0.7964(4)
H2A H -0.3679 0.6826 0.7907
C9A C -0.4408(15) 0.6214(14) 0.8707(4)
H3A H -0.4326 0.5782 0.8999
H4A H -0.4307 0.7104 0.8729
C11A C -0.5912(14) 0.6369(14) 0.8580(4)
C10A C -0.6492(13) 0.5309(12) 0.8639(4)
O8A O -0.5700(8) 0.4136(8) 0.8835(2)
C51A C -0.6066(14) 0.4110(15) 0.9307(4)
H42A H -0.5887 0.4857 0.9442
H43A H -0.7096 0.4194 0.9386
C52A C -0.5161(14) 0.2838(15) 0.9463(4)
H44A H -0.5338 0.2098 0.9323
H45A H -0.4134 0.2761 0.9381
C53A C -0.5502(17) 0.2743(18) 0.9966(4)
H46A H -0.4901 0.1886 1.0067
H47A H -0.5302 0.3464 1.0105
H48A H -0.6519 0.2820 1.0047
C15A C -0.7755(13) 0.5381(13) 0.8494(4)
C14A C -0.8500(15) 0.6572(15) 0.8303(5)
C13A C -0.7938(19) 0.7601(14) 0.8249(5)
C12A C -0.6662(17) 0.7508(15) 0.8374(5)
H5A H -0.6281 0.8223 0.8320
H6A H -0.8465 0.8404 0.8119
H7A H -0.9400 0.6670 0.8210
C16A C -0.8225(12) 0.4152(13) 0.8508(4)
H8A H -0.8139 0.3731 0.8801
H9A H -0.9249 0.4417 0.8464
C18A C -0.7313(12) 0.3142(13) 0.8152(4)
C17A C -0.6374(12) 0.1928(13) 0.8251(4)
O9A O -0.6297(8) 0.1492(8) 0.8688(2)
C54A C -0.7374(13) 0.0887(13) 0.8844(4)
H49A H -0.8339 0.1565 0.8874
H50A H -0.7351 0.0205 0.8632
C55A C -0.7072(14) 0.0254(15) 0.9285(5)
H51A H -0.6100 -0.0413 0.9252
H52A H -0.7089 0.0942 0.9494
C56A C -0.8179(16) -0.0416(16) 0.9471(5)
H53A H -0.7967 -0.0805 0.9759
H54A H -0.9142 0.0243 0.9504
H55A H -0.8142 -0.1117 0.9269
C22A C -0.5473(13) 0.1123(12) 0.7915(4)
C21A C -0.5577(14) 0.1468(13) 0.7477(4)
C20A C -0.6601(14) 0.2674(14) 0.7381(4)
N4A N -0.6859(12) 0.3111(13) 0.6950(4)
C44A C -0.611(2) 0.259(2) 0.6575(6)
O5A O -0.4992(17) 0.157(2) 0.6518(4)
C19A C -0.7421(12) 0.3500(13) 0.7720(4)
H10A H -0.8075 0.4336 0.7654
H11A H -0.4972 0.0902 0.7247
C23A C -0.4202(13) -0.0187(13) 0.8001(4)
H12A H -0.4267 -0.0937 0.7836
H13A H -0.4293 -0.0409 0.8318
C25A C -0.2765(14) 0.0019(12) 0.7855(4)
C24A C -0.2191(13) 0.0687(12) 0.8116(5)
O7A O -0.2835(8) 0.1050(8) 0.8529(3)
C48A C -0.2020(18) 0.0185(15) 0.8876(5)
H35A H -0.2301 0.0666 0.9160
H36A H -0.0975 0.0010 0.8788
C49A C -0.2316(19) -0.1091(18) 0.8934(6)
H37A H -0.3353 -0.0939 0.9033
H38A H -0.2034 -0.1592 0.8654
C50A C -0.1406(17) -0.1862(17) 0.9289(5)
H39A H -0.1575 -0.2717 0.9345
H40A H -0.0384 -0.2014 0.9184
H41A H -0.1684 -0.1342 0.9561
C29A C -0.0911(13) 0.1036(13) 0.7933(5)
C28A C -0.0251(15) 0.0502(16) 0.7517(6)
C27A C -0.0726(19) -0.0254(19) 0.7287(6)
C26A C -0.2021(16) -0.0490(13) 0.7430(4)
H14A H -0.2403 -0.0974 0.7252
H15A H -0.0169 -0.0642 0.7020
H16A H 0.0595 0.0695 0.7391
C30A C -0.0423(12) 0.1952(12) 0.8187(4)
H17A H -0.0533 0.1733 0.8504
H18A H 0.0607 0.1830 0.8086
H1A H -0.0487 0.3426 0.7480
O4A O 0.0385(11) 0.4936(14) 0.6935(4)
C33A C -0.003(5) 0.766(3) 0.6412(16)
H19A H 0.0700 0.7532 0.6611
H20A H -0.0519 0.8606 0.6346
C40A C 0.240(3) 0.731(3) 0.5474(8)
C39A C 0.352(2) 0.730(2) 0.5116(8)
H23A H 0.4101 0.7861 0.5104
H24A H 0.2225 0.7930 0.5708
H21A H 0.1257 0.4941 0.5190
H22A H 0.3063 0.4746 0.4569
C42A C 0.562(2) 0.715(2) 0.4314(8)
H25A H 0.6209 0.7074 0.4553
H26A H 0.4965 0.8072 0.4300
H27A H 0.7597 0.6550 0.3885
loop_
_geom_bond_atom_site_label_1
_geom_bond_atom_site_label_2
_geom_bond_site_symmetry_1
_geom_bond_site_symmetry_2
S1 C1 1_555 1_555
C1 D1 1_555 1_555
D2 C1 1_555 1_555
D3 C1 1_555 1_555
C2 S1 1_555 1_555
D4 C2 1_555 1_555
D5 C2 1_555 1_555
D6 C2 1_555 1_555
O1 S1 1_555 1_555
N1 O2 1_555 1_555
N2 O3 1_555 1_555
N3 C6 1_555 1_555
N4 C20 1_555 1_555
O2 C32 1_555 1_555
O3 C43 1_555 1_555
O4 C31 1_555 1_555
O5 C44 1_555 1_555
O6 C3 1_555 1_555
O7 C24 1_555 1_555
O8 C10 1_555 1_555
O9 C17 1_555 1_555
C3 C4 1_555 1_555
C4 C5 1_555 1_555
C5 H1 1_555 1_555
C6 C5 1_555 1_555
C7 C6 1_555 1_555
H2 C7 1_555 1_555
C8 C3 1_555 1_555
C9 C8 1_555 1_555
H3 C9 1_555 1_555
H4 C9 1_555 1_555
C10 C11 1_555 1_555
C11 C9 1_555 1_555
C12 C11 1_555 1_555
H5 C12 1_555 1_555
C13 C12 1_555 1_555
H6 C13 1_555 1_555
C14 C13 1_555 1_555
H7 C14 1_555 1_555
C15 C10 1_555 1_555
C16 C15 1_555 1_555
H8 C16 1_555 1_555
H9 C16 1_555 1_555
C17 C18 1_555 1_555
C18 C16 1_555 1_555
C19 C18 1_555 1_555
H10 C19 1_555 1_555
C20 C19 1_555 1_555
C21 C20 1_555 1_555
H11 C21 1_555 1_555
C22 C17 1_555 1_555
C23 C22 1_555 1_555
H12 C23 1_555 1_555
H13 C23 1_555 1_555
C24 C25 1_555 1_555
C25 C23 1_555 1_555
C26 C25 1_555 1_555
H14 C26 1_555 1_555
C27 C26 1_555 1_555
H15 C27 1_555 1_555
C28 C27 1_555 1_555
H16 C28 1_555 1_555
C29 C24 1_555 1_555
C30 C4 1_555 1_555
H17 C30 1_555 1_555
H18 C30 1_555 1_555
C31 N3 1_555 1_555
C32 C31 1_555 1_555
C33 C32 1_555 1_555
H19 C33 1_555 1_555
H20 C33 1_555 1_555
C34 N1 1_555 1_555
C35 C34 1_555 1_555
C36 C35 1_555 1_555
H21 C36 1_555 1_555
C37 C36 1_555 1_555
H22 C37 1_555 1_555
C38 C37 1_555 1_555
C39 C38 1_555 1_555
H23 C39 1_555 1_555
C40 C35 1_555 1_555
H24 C40 1_555 1_555
C41 N2 1_555 1_555
C42 C41 1_555 1_555
H25 C42 1_555 1_555
H26 C42 1_555 1_555
C43 C42 1_555 1_555
H27 C43 1_555 1_555
C44 N4 1_555 1_555
C45 O6 1_555 1_555
H28 C45 1_555 1_555
H29 C45 1_555 1_555
C46 C45 1_555 1_555
H30 C46 1_555 1_555
H31 C46 1_555 1_555
C47 C46 1_555 1_555
H32 C47 1_555 1_555
H33 C47 1_555 1_555
H34 C47 1_555 1_555
C48 O7 1_555 1_555
H35 C48 1_555 1_555
H36 C48 1_555 1_555
C49 C48 1_555 1_555
H37 C49 1_555 1_555
H38 C49 1_555 1_555
C50 C49 1_555 1_555
H39 C50 1_555 1_555
H40 C50 1_555 1_555
H41 C50 1_555 1_555
C51 O8 1_555 1_555
H42 C51 1_555 1_555
H43 C51 1_555 1_555
C52 C51 1_555 1_555
H44 C52 1_555 1_555
H45 C52 1_555 1_555
C53 C52 1_555 1_555
H46 C53 1_555 1_555
H47 C53 1_555 1_555
H48 C53 1_555 1_555
C54 O9 1_555 1_555
H49 C54 1_555 1_555
H50 C54 1_555 1_555
C55 C54 1_555 1_555
H51 C55 1_555 1_555
H52 C55 1_555 1_555
C56 C55 1_555 1_555
H53 C56 1_555 1_555
H54 C56 1_555 1_555
H55 C56 1_555 1_555
C43A C44 1_555 1_555
O3A C43A 1_555 1_555
N2A O3A 1_555 1_555
C41A N2A 1_555 1_555
C38A C41A 1_555 1_555
C37A C38A 1_555 1_555
C36A C37A 1_555 1_555
C35A C36A 1_555 1_555
C34A C35A 1_555 1_555
N1A C34A 1_555 1_555
O2A N1A 1_555 1_555
C32A O2A 1_555 1_555
C31A C32A 1_555 1_555
N3A C31A 1_555 1_555
C6A N3A 1_555 1_555
C5A C6A 1_555 1_555
C4A C5A 1_555 1_555
C3A C4A 1_555 1_555
O6A C3A 1_555 1_555
C45A O6A 1_555 1_555
H28A C45A 1_555 1_555
H29A C45A 1_555 1_555
C46A C45A 1_555 1_555
H30A C46A 1_555 1_555
H31A C46A 1_555 1_555
C47A C46A 1_555 1_555
H32A C47A 1_555 1_555
H33A C47A 1_555 1_555
H34A C47A 1_555 1_555
C8A C3A 1_555 1_555
C7A C6A 1_555 1_555
H2A C7A 1_555 1_555
C9A C8A 1_555 1_555
H3A C9A 1_555 1_555
H4A C9A 1_555 1_555
C11A C9A 1_555 1_555
C10A C11A 1_555 1_555
O8A C10A 1_555 1_555
C51A O8A 1_555 1_555
H42A C51A 1_555 1_555
H43A C51A 1_555 1_555
C52A C51A 1_555 1_555
H44A C52A 1_555 1_555
H45A C52A 1_555 1_555
C53A C52A 1_555 1_555
H46A C53A 1_555 1_555
H47A C53A 1_555 1_555
H48A C53A 1_555 1_555
C15A C10A 1_555 1_555
C14A C15A 1_555 1_555
C13A C14A 1_555 1_555
C12A C11A 1_555 1_555
H5A C12A 1_555 1_555
H6A C13A 1_555 1_555
H7A C14A 1_555 1_555
C16A C15A 1_555 1_555
H8A C16A 1_555 1_555
H9A C16A 1_555 1_555
C18A C16A 1_555 1_555
C17A C18A 1_555 1_555
O9A C17A 1_555 1_555
C54A O9A 1_555 1_555
H49A C54A 1_555 1_555
H50A C54A 1_555 1_555
C55A C54A 1_555 1_555
H51A C55A 1_555 1_555
H52A C55A 1_555 1_555
C56A C55A 1_555 1_555
H53A C56A 1_555 1_555
H54A C56A 1_555 1_555
H55A C56A 1_555 1_555
C22A C17A 1_555 1_555
C21A C22A 1_555 1_555
C20A C21A 1_555 1_555
N4A C20A 1_555 1_555
C44A C43 1_555 1_555
O5A C44A 1_555 1_555
C19A C18A 1_555 1_555
H10A C19A 1_555 1_555
H11A C21A 1_555 1_555
C23A C22A 1_555 1_555
H12A C23A 1_555 1_555
H13A C23A 1_555 1_555
C25A C23A 1_555 1_555
C24A C25A 1_555 1_555
O7A C24A 1_555 1_555
C48A O7A 1_555 1_555
H35A C48A 1_555 1_555
H36A C48A 1_555 1_555
C49A C48A 1_555 1_555
H37A C49A 1_555 1_555
H38A C49A 1_555 1_555
C50A C49A 1_555 1_555
H39A C50A 1_555 1_555
H40A C50A 1_555 1_555
H41A C50A 1_555 1_555
C29A C24A 1_555 1_555
C28A C29A 1_555 1_555
C27A C28A 1_555 1_555
C26A C25A 1_555 1_555
H14A C26A 1_555 1_555
H15A C27A 1_555 1_555
H16A C28A 1_555 1_555
C30A C4A 1_555 1_555
H17A C30A 1_555 1_555
H18A C30A 1_555 1_555
H1A C5A 1_555 1_555
O4A C31A 1_555 1_555
C33A C34A 1_555 1_555
H19A C33A 1_555 1_555
H20A C33A 1_555 1_555
C40A C35A 1_555 1_555
C39A C38A 1_555 1_555
H23A C39A 1_555 1_555
H24A C40A 1_555 1_555
H21A C36A 1_555 1_555
H22A C37A 1_555 1_555
C42A C43A 1_555 1_555
H25A C42A 1_555 1_555
H26A C42A 1_555 1_555
H27A C43A 1_555 1_555
C7 C8 1_555 1_555
C14 C15 1_555 1_555
C21 C22 1_555 1_555
C28 C29 1_555 1_555
C29 C30 1_555 1_555
C33 C34 1_555 1_555
C38 C41 1_555 1_555
C39 C40 1_555 1_555
C41A C42A 1_555 1_555
C32A C33A 1_555 1_555
C8A C7A 1_555 1_555
C13A C12A 1_555 1_555
C20A C19A 1_555 1_555
N4A C44A 1_555 1_555
C29A C30A 1_555 1_555
C27A C26A 1_555 1_555
C40A C39A 1_555 1_555

#END
