
#######################################################################
#
#                 Cambridge Crystallographic Data Centre
#                                CCDC 
#
#######################################################################
#
# If this CIF has been generated from an entry in the Cambridge 
# Structural Database, then it will include bibliographic, chemical, 
# crystal, experimental, refinement or atomic coordinate data resulting 
# from the CCDC's data processing and validation procedures.
#
#######################################################################

data_MIRSAJ
_chemical_formula_moiety         'C6 H4 Br2 O1'
_chemical_name_systematic        3,5-Dibromophenol
_symmetry_cell_setting           monoclinic
_symmetry_space_group_name_H-M   'P 21/c'
_symmetry_Int_Tables_number      14
_space_group_name_Hall           '-P 2ybc'
loop_
_symmetry_equiv_pos_site_id
_symmetry_equiv_pos_as_xyz
1 x,y,z
2 -x,1/2+y,1/2-z
3 -x,-y,-z
4 x,1/2-y,1/2+z
_cell_length_a                   11.169(2)
_cell_length_b                   4.2067(8)
_cell_length_c                   14.911(3)
_cell_angle_alpha                90
_cell_angle_beta                 91.070(6)
_cell_angle_gamma                90
_cell_volume                     700.466
_exptl_crystal_colour            colorless
_exptl_crystal_description       needle
_cell_formula_units_Z            4
loop_
_atom_site_label
_atom_site_type_symbol
_atom_site_fract_x
_atom_site_fract_y
_atom_site_fract_z
C1 C -0.3441(5) 0.4219(15) 0.6778(4)
C2 C -0.2334(6) 0.2755(15) 0.6915(4)
H1 H -0.2144 0.1717 0.7449
C3 C -0.2891(5) 0.5879(15) 0.5325(4)
C4 C -0.3736(6) 0.5797(15) 0.5990(4)
H2 H -0.4478 0.6771 0.5911
O1 O -0.4251(4) 0.4004(13) 0.7472(3)
H3 H -0.465(8) 0.54(2) 0.747(6)
C5 C -0.1528(5) 0.2908(15) 0.6222(4)
C6 C -0.1783(5) 0.4451(15) 0.5419(4)
H4 H -0.1229 0.4521 0.4961
Br1 Br 0.00050(6) 0.10313(17) 0.63830(5)
Br2 Br -0.32795(6) 0.79362(17) 0.42238(4)
loop_
_geom_bond_atom_site_label_1
_geom_bond_atom_site_label_2
_geom_bond_site_symmetry_1
_geom_bond_site_symmetry_2
C1 C2 1_555 1_555
C2 H1 1_555 1_555
C3 C4 1_555 1_555
C4 C1 1_555 1_555
H2 C4 1_555 1_555
O1 C1 1_555 1_555
H3 O1 1_555 1_555
C5 C2 1_555 1_555
C6 C3 1_555 1_555
H4 C6 1_555 1_555
Br1 C5 1_555 1_555
Br2 C3 1_555 1_555
C5 C6 1_555 1_555

#END
