
#######################################################################
#
#                 Cambridge Crystallographic Data Centre
#                                CCDC 
#
#######################################################################
#
# If this CIF has been generated from an entry in the Cambridge 
# Structural Database, then it will include bibliographic, chemical, 
# crystal, experimental, refinement or atomic coordinate data resulting 
# from the CCDC's data processing and validation procedures.
#
#######################################################################

data_MIRVAM
_chemical_formula_moiety         'C19 H17 N3 O2'
_chemical_name_systematic        
6-Cyclopropyl-10-methoxy-11b,12-dihydro-13H-quinazolino[3,4-a]quinazolin-13-one
_symmetry_cell_setting           monoclinic
_symmetry_space_group_name_H-M   'P 21/c'
_symmetry_Int_Tables_number      14
_space_group_name_Hall           '-P 2ybc'
loop_
_symmetry_equiv_pos_site_id
_symmetry_equiv_pos_as_xyz
1 x,y,z
2 -x,1/2+y,1/2-z
3 -x,-y,-z
4 x,1/2-y,1/2+z
_cell_length_a                   5.2403(4)
_cell_length_b                   16.3094(12)
_cell_length_c                   17.8420(13)
_cell_angle_alpha                90
_cell_angle_beta                 94.9210(10)
_cell_angle_gamma                90
_cell_volume                     1519.27
_exptl_crystal_colour            colorless
_exptl_crystal_description       prism
_cell_formula_units_Z            4
loop_
_atom_site_label
_atom_site_type_symbol
_atom_site_fract_x
_atom_site_fract_y
_atom_site_fract_z
O1 O 0.26179(17) 0.42052(6) 0.01189(5)
O2 O 0.8203(2) 0.80934(6) 0.06284(6)
N1 N 0.3394(2) 0.53431(6) 0.08361(6)
H1 H 0.4756 0.5463 0.0623
N2 N 0.18663(19) 0.54431(6) 0.20585(6)
N3 N 0.4953(2) 0.61059(7) 0.28968(6)
C1 C -0.1414(2) 0.37438(8) 0.09938(7)
H2 H -0.1331 0.3478 0.0535
C2 C -0.3148(3) 0.34798(9) 0.14829(8)
H3 H -0.4188 0.3028 0.1363
C3 C -0.3322(2) 0.38960(8) 0.21550(8)
H4 H -0.4520 0.3730 0.2479
C4 C -0.1739(2) 0.45544(8) 0.23488(8)
H5 H -0.1902 0.4836 0.2796
C5 C 0.0101(2) 0.47967(8) 0.18738(7)
C6 C 0.0211(2) 0.44013(8) 0.11785(7)
C7 C 0.2149(2) 0.46415(8) 0.06581(7)
C8 C 0.2457(2) 0.59097(8) 0.13917(7)
H6 H 0.0885 0.6172 0.1172
C9 C 0.4434(2) 0.65598(7) 0.15815(7)
C10 C 0.5203(3) 0.70611(8) 0.10093(8)
H7 H 0.4360 0.7034 0.0530
C11 C 0.7227(3) 0.75996(8) 0.11579(8)
C12 C 0.8436(3) 0.76526(8) 0.18819(9)
H8 H 0.9807 0.8010 0.1982
C13 C 0.7602(3) 0.71760(8) 0.24496(8)
H9 H 0.8394 0.7225 0.2934
C14 C 0.5587(2) 0.66191(8) 0.23106(7)
C15 C 0.3266(2) 0.55397(8) 0.27494(7)
C16 C 0.2864(2) 0.49317(9) 0.33525(7)
H10 H 0.2170 0.4399 0.3183
C17 C 0.2086(3) 0.52307(11) 0.40998(8)
H11 H 0.1865 0.5816 0.4163
H12 H 0.0922 0.4891 0.4359
C18 C 0.4729(3) 0.49194(10) 0.40414(8)
H13 H 0.5171 0.4391 0.4266
H14 H 0.6113 0.5316 0.4070
C19 C 0.7169(4) 0.79925(10) -0.01314(9)
H15 H 0.7322 0.7429 -0.0277
H16 H 0.8094 0.8333 -0.0454
H17 H 0.5396 0.8148 -0.0175
loop_
_geom_bond_atom_site_label_1
_geom_bond_atom_site_label_2
_geom_bond_site_symmetry_1
_geom_bond_site_symmetry_2
O1 C7 1_555 1_555
O2 C11 1_555 1_555
N1 H1 1_555 1_555
N2 C5 1_555 1_555
N3 C14 1_555 1_555
C1 H2 1_555 1_555
C2 C1 1_555 1_555
H3 C2 1_555 1_555
C3 C2 1_555 1_555
H4 C3 1_555 1_555
C4 C3 1_555 1_555
H5 C4 1_555 1_555
C5 C4 1_555 1_555
C6 C1 1_555 1_555
C7 N1 1_555 1_555
C8 N1 1_555 1_555
H6 C8 1_555 1_555
C9 C8 1_555 1_555
C10 C9 1_555 1_555
H7 C10 1_555 1_555
C11 C10 1_555 1_555
C12 C11 1_555 1_555
H8 C12 1_555 1_555
C13 C12 1_555 1_555
H9 C13 1_555 1_555
C14 C9 1_555 1_555
C15 N2 1_555 1_555
C16 C15 1_555 1_555
H10 C16 1_555 1_555
C17 C16 1_555 1_555
H11 C17 1_555 1_555
H12 C17 1_555 1_555
C18 C16 1_555 1_555
H13 C18 1_555 1_555
H14 C18 1_555 1_555
C19 O2 1_555 1_555
H15 C19 1_555 1_555
H16 C19 1_555 1_555
H17 C19 1_555 1_555
N2 C8 1_555 1_555
N3 C15 1_555 1_555
C5 C6 1_555 1_555
C6 C7 1_555 1_555
C13 C14 1_555 1_555
C17 C18 1_555 1_555

#END
