
#######################################################################
#
#                 Cambridge Crystallographic Data Centre
#                                CCDC 
#
#######################################################################
#
# If this CIF has been generated from an entry in the Cambridge 
# Structural Database, then it will include bibliographic, chemical, 
# crystal, experimental, refinement or atomic coordinate data resulting 
# from the CCDC's data processing and validation procedures.
#
#######################################################################

data_MIRYUI
_chemical_formula_moiety         'C18 H16 N4 O1'
_chemical_name_systematic        
(E)-5-Phenyl-N'-(1-phenylethylidene)-1H-pyrazole-3-carbohydrazide
_symmetry_cell_setting           tetragonal
_symmetry_space_group_name_H-M   'P 43'
_symmetry_Int_Tables_number      78
_space_group_name_Hall           'P 4cw'
loop_
_symmetry_equiv_pos_site_id
_symmetry_equiv_pos_as_xyz
1 x,y,z
2 -x,-y,1/2+z
3 -y,x,3/4+z
4 y,-x,1/4+z
_cell_length_a                   8.0190(11)
_cell_length_b                   8.0190(11)
_cell_length_c                   24.147(5)
_cell_angle_alpha                90
_cell_angle_beta                 90
_cell_angle_gamma                90
_cell_volume                     1552.76
_exptl_crystal_colour            yellow
_exptl_crystal_description       block
_cell_formula_units_Z            4
_exptl_crystal_recrystallization_method DMF
loop_
_atom_site_label
_atom_site_type_symbol
_atom_site_fract_x
_atom_site_fract_y
_atom_site_fract_z
O1 O 0.6526(4) 0.7885(4) 0.19156(14)
N1 N 0.8996(5) 0.5984(5) 0.14452(17)
N2 N 0.7574(4) 0.6473(5) 0.11695(18)
H1 H 0.7423 0.6186 0.0830
N3 N 0.4872(4) 0.7339(5) 0.05571(16)
N4 N 0.3421(5) 0.7929(5) 0.03787(17)
H2 H 0.3060 0.7777 0.0047
C1 C 1.2768(6) 0.3604(6) 0.1231(3)
H3 H 1.2546 0.3129 0.0888
C2 C 1.4206(7) 0.3174(7) 0.1507(3)
H4 H 1.4918 0.2381 0.1355
C3 C 1.4605(6) 0.3911(7) 0.2008(3)
H5 H 1.5600 0.3658 0.2187
C4 C 1.3495(7) 0.5025(7) 0.2236(2)
H6 H 1.3737 0.5505 0.2578
C5 C 1.2040(6) 0.5445(6) 0.1972(2)
H7 H 1.1314 0.6203 0.2135
C6 C 1.1639(5) 0.4735(6) 0.1456(2)
C7 C 1.0116(6) 0.5222(5) 0.1161(2)
C8 C 0.9950(7) 0.4862(7) 0.0543(2)
H8 H 0.9620 0.5861 0.0354
H9 H 0.9123 0.4013 0.0487
H10 H 1.1002 0.4485 0.0401
C9 C 0.6421(6) 0.7398(5) 0.1432(2)
C10 C 0.4972(5) 0.7848(5) 0.10870(19)
C11 C 0.3586(5) 0.8767(5) 0.12334(19)
H11 H 0.3378 0.9267 0.1574
C12 C 0.2562(5) 0.8794(5) 0.07682(19)
C13 C 0.0915(5) 0.9501(5) 0.06862(18)
C14 C 0.0112(6) 0.9482(7) 0.0169(2)
H12 H 0.0658 0.9053 -0.0140
C15 C -0.1487(7) 1.0101(7) 0.0119(3)
H13 H -0.2025 1.0052 -0.0221
C16 C -0.2297(6) 1.0789(7) 0.0566(2)
H14 H -0.3361 1.1233 0.0525
C17 C -0.1517(6) 1.0818(7) 0.1080(2)
H15 H -0.2059 1.1264 0.1386
C18 C 0.0066(6) 1.0182(6) 0.1129(2)
H16 H 0.0584 1.0211 0.1474
loop_
_geom_bond_atom_site_label_1
_geom_bond_atom_site_label_2
_geom_bond_site_symmetry_1
_geom_bond_site_symmetry_2
O1 C9 1_555 1_555
N1 N2 1_555 1_555
N2 H1 1_555 1_555
N3 N4 1_555 1_555
N4 H2 1_555 1_555
C1 H3 1_555 1_555
C2 C1 1_555 1_555
H4 C2 1_555 1_555
C3 C2 1_555 1_555
H5 C3 1_555 1_555
C4 C3 1_555 1_555
H6 C4 1_555 1_555
C5 C4 1_555 1_555
H7 C5 1_555 1_555
C6 C1 1_555 1_555
C7 N1 1_555 1_555
C8 C7 1_555 1_555
H8 C8 1_555 1_555
H9 C8 1_555 1_555
H10 C8 1_555 1_555
C9 N2 1_555 1_555
C10 N3 1_555 1_555
C11 C10 1_555 1_555
H11 C11 1_555 1_555
C12 N4 1_555 1_555
C13 C12 1_555 1_555
C14 C13 1_555 1_555
H12 C14 1_555 1_555
C15 C14 1_555 1_555
H13 C15 1_555 1_555
C16 C15 1_555 1_555
H14 C16 1_555 1_555
C17 C16 1_555 1_555
H15 C17 1_555 1_555
C18 C13 1_555 1_555
H16 C18 1_555 1_555
C5 C6 1_555 1_555
C6 C7 1_555 1_555
C9 C10 1_555 1_555
C11 C12 1_555 1_555
C17 C18 1_555 1_555

#END
