
#######################################################################
#
#                 Cambridge Crystallographic Data Centre
#                                CCDC 
#
#######################################################################
#
# If this CIF has been generated from an entry in the Cambridge 
# Structural Database, then it will include bibliographic, chemical, 
# crystal, experimental, refinement or atomic coordinate data resulting 
# from the CCDC's data processing and validation procedures.
#
#######################################################################

data_MISRUE
_chemical_compound_source        'Aspergillus terreus'
_chemical_name_common            'versicolactone B'
_chemical_formula_moiety         'C24 H24 O6'
_chemical_name_systematic        
'methyl 4-hydroxy-2-{[4-hydroxy-3-(3-methylbut-2-en-1-yl)phenyl]methyl}-5-oxo-3-phenyl-2,5-dihydrofuran-2-carboxylate'
_chemical_properties_biological  'cytotoxin against PANC-1 cell line'
_symmetry_cell_setting           monoclinic
_symmetry_space_group_name_H-M   'P 21'
_symmetry_Int_Tables_number      4
_space_group_name_Hall           'P 2yb'
loop_
_symmetry_equiv_pos_site_id
_symmetry_equiv_pos_as_xyz
1 x,y,z
2 -x,1/2+y,-z
_cell_length_a                   9.7749(16)
_cell_length_b                   8.5417(15)
_cell_length_c                   12.510(2)
_cell_angle_alpha                90
_cell_angle_beta                 98.073(4)
_cell_angle_gamma                90
_cell_volume                     1034.16
_exptl_crystal_colour            colorless
_exptl_crystal_description       prism
_cell_formula_units_Z            2
loop_
_atom_site_label
_atom_site_type_symbol
_atom_site_fract_x
_atom_site_fract_y
_atom_site_fract_z
O1 O 0.29392(12) 0.3898(2) 0.86632(9)
O2 O -0.03308(12) 0.5708(2) 0.79095(10)
H1 H -0.0616 0.5513 0.8498
O3 O 0.10716(12) 0.3457(2) 0.94766(10)
O4 O 0.28672(14) 0.2465(2) 0.67670(10)
O5 O 0.47680(13) 0.3819(2) 0.65272(10)
O6 O 0.19396(13) 1.0649(2) 1.05177(9)
H2 H 0.1784 1.1462 1.0142
C1 C 0.1275(2) 0.8276(3) 0.43757(15)
H3 H 0.1120 0.8846 0.3718
C2 C 0.02303(18) 0.8115(3) 0.50060(16)
H4 H -0.0638 0.8602 0.4788
C3 C 0.04335(18) 0.7252(3) 0.59509(14)
H5 H -0.0304 0.7133 0.6364
C4 C 0.17190(17) 0.6548(3) 0.63092(13)
C5 C 0.19078(16) 0.5592(3) 0.72927(13)
C6 C 0.32684(17) 0.4826(3) 0.77555(13)
C7 C 0.44197(17) 0.5972(3) 0.82045(13)
H6 H 0.5152 0.5396 0.8673
H7 H 0.4837 0.6430 0.7599
C8 C 0.38712(16) 0.7272(3) 0.88466(14)
C9 C 0.35640(18) 0.6979(3) 0.98905(14)
H8 H 0.3804 0.5998 1.0222
C10 C 0.29119(17) 0.8104(3) 1.04492(14)
C11 C 0.25173(18) 0.7798(3) 1.15607(14)
H9 H 0.2890 0.8658 1.2047
H10 H 0.1498 0.7831 1.1507
C12 C 0.30129(17) 0.6272(3) 1.20665(13)
H11 H 0.3985 0.6128 1.2204
C13 C 0.22438(19) 0.5103(3) 1.23434(14)
C14 C 0.0684(2) 0.5074(4) 1.2124(2)
H12 H 0.0307 0.5177 1.2806
H13 H 0.0376 0.4082 1.1777
H14 H 0.0356 0.5946 1.1646
C15 C 0.2556(2) 0.7596(3) 0.47157(14)
H15 H 0.3285 0.7718 0.4294
C16 C 0.27735(18) 0.6740(3) 0.56657(15)
H16 H 0.3651 0.6275 0.5885
C17 C 0.16065(17) 0.4128(3) 0.87857(13)
C18 C 0.09921(18) 0.5240(3) 0.79615(13)
C19 C 0.37490(18) 0.3650(3) 0.69501(14)
C20 C 0.3161(2) 0.1336(3) 0.59634(16)
H17 H 0.3090 0.1848 0.5257
H18 H 0.2493 0.0476 0.5930
H19 H 0.4097 0.0923 0.6161
C21 C 0.2884(2) 0.3699(3) 1.29407(17)
H20 H 0.3893 0.3770 1.3002
H21 H 0.2568 0.2745 1.2546
H22 H 0.2609 0.3666 1.3664
C22 C 0.25924(17) 0.9555(3) 0.99541(13)
C23 C 0.29271(18) 0.9876(3) 0.89316(15)
H23 H 0.2727 1.0872 0.8608
C24 C 0.35564(18) 0.8723(3) 0.83904(14)
H24 H 0.3776 0.8936 0.7689
loop_
_geom_bond_atom_site_label_1
_geom_bond_atom_site_label_2
_geom_bond_site_symmetry_1
_geom_bond_site_symmetry_2
O1 C6 1_555 1_555
O2 H1 1_555 1_555
O3 C17 1_555 1_555
O4 C19 1_555 1_555
O5 C19 1_555 1_555
O6 H2 1_555 1_555
C1 H3 1_555 1_555
C2 C1 1_555 1_555
H4 C2 1_555 1_555
C3 C2 1_555 1_555
H5 C3 1_555 1_555
C4 C3 1_555 1_555
C5 C4 1_555 1_555
C6 C5 1_555 1_555
C7 C6 1_555 1_555
H6 C7 1_555 1_555
H7 C7 1_555 1_555
C8 C7 1_555 1_555
C9 C8 1_555 1_555
H8 C9 1_555 1_555
C10 C9 1_555 1_555
C11 C10 1_555 1_555
H9 C11 1_555 1_555
H10 C11 1_555 1_555
C12 C11 1_555 1_555
H11 C12 1_555 1_555
C13 C12 1_555 1_555
C14 C13 1_555 1_555
H12 C14 1_555 1_555
H13 C14 1_555 1_555
H14 C14 1_555 1_555
C15 C1 1_555 1_555
H15 C15 1_555 1_555
C16 C4 1_555 1_555
H16 C16 1_555 1_555
C17 O1 1_555 1_555
C18 O2 1_555 1_555
C19 C6 1_555 1_555
C20 O4 1_555 1_555
H17 C20 1_555 1_555
H18 C20 1_555 1_555
H19 C20 1_555 1_555
C21 C13 1_555 1_555
H20 C21 1_555 1_555
H21 C21 1_555 1_555
H22 C21 1_555 1_555
C22 O6 1_555 1_555
C23 C22 1_555 1_555
H23 C23 1_555 1_555
C24 C8 1_555 1_555
H24 C24 1_555 1_555
C5 C18 1_555 1_555
C10 C22 1_555 1_555
C15 C16 1_555 1_555
C17 C18 1_555 1_555
C23 C24 1_555 1_555

#END
