
#######################################################################
#
#                 Cambridge Crystallographic Data Centre
#                                CCDC 
#
#######################################################################
#
# If this CIF has been generated from an entry in the Cambridge 
# Structural Database, then it will include bibliographic, chemical, 
# crystal, experimental, refinement or atomic coordinate data resulting 
# from the CCDC's data processing and validation procedures.
#
#######################################################################

data_MISVES
_chemical_compound_source        'Marine Fungi'
_chemical_name_common            'Versispiroketal A monohydrate'
_chemical_formula_moiety         'C17 H18 O6,H2 O1'
_chemical_name_systematic        
"(1'R,2R,7'S)-4,5',7'-trihydroxy-2',6,7'-trimethylspiro[benzo[d][1,3]dioxole-2,8'-bicyclo[3.2.1]octan]-2'-en-4'-one monohydrate"
_symmetry_cell_setting           orthorhombic
_symmetry_space_group_name_H-M   'I b a 2'
_symmetry_Int_Tables_number      45
_space_group_name_Hall           'I 2 -2c'
loop_
_symmetry_equiv_pos_site_id
_symmetry_equiv_pos_as_xyz
1 x,y,z
2 -x,-y,z
3 1/2+x,1/2-y,z
4 1/2-x,1/2+y,z
5 1/2+x,1/2+y,1/2+z
6 1/2-x,1/2-y,1/2+z
7 x,-y,1/2+z
8 -x,y,1/2+z
_cell_length_a                   25.1245(4)
_cell_length_b                   17.8586(3)
_cell_length_c                   7.11686(10)
_cell_angle_alpha                90
_cell_angle_beta                 90
_cell_angle_gamma                90
_cell_volume                     3193.25
_exptl_crystal_colour            'whiteish colorless'
_exptl_crystal_description       needle
_cell_formula_units_Z            8
loop_
_atom_site_label
_atom_site_type_symbol
_atom_site_fract_x
_atom_site_fract_y
_atom_site_fract_z
O1 O 0.65750(6) 0.71776(9) 0.4272(2)
O2 O 0.65529(7) 0.87452(10) -0.0380(2)
O3 O 0.58546(7) 0.78170(9) 0.5499(3)
O4 O 0.69779(7) 0.84666(10) 0.6146(2)
H1 H 0.6807 0.8572 0.7091
O5 O 0.69326(7) 0.57358(9) 0.5630(3)
H2 H 0.6929 0.5801 0.4490
O6 O 0.64344(7) 0.97576(9) 0.5708(3)
C1 C 0.59197(9) 0.71516(13) 0.6461(3)
C2 C 0.63504(9) 0.67756(12) 0.5725(4)
C3 C 0.65061(9) 0.60899(13) 0.6420(4)
C4 C 0.57503(9) 0.87153(13) 0.2188(4)
C5 C 0.69104(10) 0.75557(13) 0.0268(3)
H3 H 0.6692 0.7368 -0.0735
H4 H 0.6954 0.7173 0.1203
H5 H 0.7252 0.7696 -0.0220
C6 C 0.63112(9) 0.92486(13) 0.4645(3)
C7 C 0.56228(9) 0.68804(13) 0.7933(4)
H6 H 0.5332 0.7143 0.8405
C8 C 0.66441(9) 0.82362(12) 0.1146(3)
C9 C 0.66532(9) 0.85411(13) 0.4563(3)
C10 C 0.69865(9) 0.85838(13) 0.2746(3)
H7 H 0.7316 0.8306 0.2893
H8 H 0.7073 0.9100 0.2455
C11 C 0.62848(9) 0.78700(13) 0.4168(4)
C12 C 0.58601(10) 0.92821(13) 0.3359(4)
H9 H 0.5644 0.9705 0.3352
C13 C 0.61072(9) 0.80302(13) 0.2156(4)
H10 H 0.5932 0.7597 0.1577
C14 C 0.57785(11) 0.61889(14) 0.8691(4)
C15 C 0.62121(11) 0.58049(14) 0.7925(4)
H11 H 0.6308 0.5345 0.8435
C16 C 0.53104(10) 0.87462(14) 0.0790(4)
H12 H 0.5119 0.9208 0.0932
H13 H 0.5073 0.8333 0.0990
H14 H 0.5456 0.8718 -0.0456
C17 C 0.54893(14) 0.58741(17) 1.0378(5)
H15 H 0.5615 0.6116 1.1497
H16 H 0.5555 0.5346 1.0463
H17 H 0.5114 0.5961 1.0244
H18 H 0.6513(14) 0.922(2) 0.006(5)
O7 O 0.71414(8) 0.44072(11) 0.6863(3)
H19 H 0.7409 0.4171 0.6433
H20 H 0.7136 0.4847 0.6410
loop_
_geom_bond_atom_site_label_1
_geom_bond_atom_site_label_2
_geom_bond_site_symmetry_1
_geom_bond_site_symmetry_2
O1 C2 1_555 1_555
O2 C8 1_555 1_555
O3 C1 1_555 1_555
O4 H1 1_555 1_555
O5 H2 1_555 1_555
O6 C6 1_555 1_555
C1 C2 1_555 1_555
C2 C3 1_555 1_555
C3 O5 1_555 1_555
C4 C12 1_555 1_555
C5 H3 1_555 1_555
H4 C5 1_555 1_555
H5 C5 1_555 1_555
C6 C9 1_555 1_555
C7 C1 1_555 1_555
H6 C7 1_555 1_555
C8 C5 1_555 1_555
C9 O4 1_555 1_555
C10 C8 1_555 1_555
H7 C10 1_555 1_555
H8 C10 1_555 1_555
C11 O1 1_555 1_555
C12 C6 1_555 1_555
H9 C12 1_555 1_555
C13 C4 1_555 1_555
H10 C13 1_555 1_555
C14 C7 1_555 1_555
C15 C3 1_555 1_555
H11 C15 1_555 1_555
C16 C4 1_555 1_555
H12 C16 1_555 1_555
H13 C16 1_555 1_555
H14 C16 1_555 1_555
C17 C14 1_555 1_555
H15 C17 1_555 1_555
H16 C17 1_555 1_555
H17 C17 1_555 1_555
H18 O2 1_555 1_555
O7 H19 1_555 1_555
H20 O7 1_555 1_555
O3 C11 1_555 1_555
C8 C13 1_555 1_555
C9 C10 1_555 1_555
C9 C11 1_555 1_555
C11 C13 1_555 1_555
C14 C15 1_555 1_555

#END
