
#######################################################################
#
#                 Cambridge Crystallographic Data Centre
#                                CCDC 
#
#######################################################################
#
# If this CIF has been generated from an entry in the Cambridge 
# Structural Database, then it will include bibliographic, chemical, 
# crystal, experimental, refinement or atomic coordinate data resulting 
# from the CCDC's data processing and validation procedures.
#
#######################################################################

data_MIWPAJ
_chemical_formula_moiety         'C20 H18 N1 O3 P1'
_chemical_name_systematic        
(-)-1,1'-Biphenyl-2,2'-dihydroxy-N-(\a-(S)-methylbenzyl)phosphoramidate
_symmetry_cell_setting           monoclinic
_symmetry_space_group_name_H-M   'P 21'
_symmetry_Int_Tables_number      4
_space_group_name_Hall           'P 2yb'
loop_
_symmetry_equiv_pos_site_id
_symmetry_equiv_pos_as_xyz
1 x,y,z
2 -x,1/2+y,-z
_cell_length_a                   8.785(2)
_cell_length_b                   10.296(2)
_cell_length_c                   10.061(2)
_cell_angle_alpha                90
_cell_angle_beta                 97.18(3)
_cell_angle_gamma                90
_cell_volume                     902.885
_exptl_crystal_colour            colorless
_chemical_melting_point          204-206deg.C
_cell_formula_units_Z            2
_exptl_crystal_recrystallization_method ethanol
loop_
_atom_site_label
_atom_site_type_symbol
_atom_site_fract_x
_atom_site_fract_y
_atom_site_fract_z
P1 P 0.4315(1) 0.3055(1) 0.4258(1)
O1 O 0.5149(2) 0.3017(2) 0.2936(2)
O2 O 0.2770(2) 0.2283(2) 0.3792(2)
O3 O 0.4143(2) 0.4402(2) 0.4657(2)
N1 N 0.5128(2) 0.2132(2) 0.5419(2)
C1 C 0.5192(3) 0.1886(2) 0.2173(3)
C2 C 0.6584(4) 0.1271(4) 0.2164(3)
C3 C 0.6703(6) 0.0226(4) 0.1329(4)
C4 C 0.5434(6) -0.0211(4) 0.0542(4)
C5 C 0.4038(5) 0.0389(3) 0.0567(3)
C6 C 0.3874(3) 0.1474(3) 0.1385(2)
C7 C 0.2400(3) 0.2146(3) 0.1390(3)
C8 C 0.1420(4) 0.2378(4) 0.0203(3)
C9 C 0.0042(5) 0.2994(6) 0.0229(4)
C10 C -0.0418(4) 0.3397(5) 0.1414(5)
C11 C 0.0525(3) 0.3203(4) 0.2604(3)
C12 C 0.1887(3) 0.2582(3) 0.2570(3)
C13 C 0.5751(4) 0.1769(3) 0.7820(3)
C14 C 0.6004(3) 0.2648(2) 0.6653(2)
C15 C 0.7680(3) 0.2833(2) 0.6516(2)
C16 C 0.8658(4) 0.1803(3) 0.6399(4)
C17 C 1.0194(4) 0.2000(5) 0.6315(4)
C18 C 1.0774(4) 0.3239(5) 0.6335(3)
C19 C 0.9807(5) 0.4271(4) 0.6437(4)
C20 C 0.8287(4) 0.4073(3) 0.6514(3)
loop_
_geom_bond_atom_site_label_1
_geom_bond_atom_site_label_2
_geom_bond_site_symmetry_1
_geom_bond_site_symmetry_2
P1 O1 1_555 1_555
O1 C1 1_555 1_555
O2 P1 1_555 1_555
O3 P1 1_555 1_555
N1 P1 1_555 1_555
C1 C2 1_555 1_555
C2 C3 1_555 1_555
C3 C4 1_555 1_555
C4 C5 1_555 1_555
C5 C6 1_555 1_555
C6 C1 1_555 1_555
C7 C6 1_555 1_555
C8 C7 1_555 1_555
C9 C8 1_555 1_555
C10 C9 1_555 1_555
C11 C10 1_555 1_555
C12 O2 1_555 1_555
C13 C14 1_555 1_555
C14 N1 1_555 1_555
C15 C14 1_555 1_555
C16 C15 1_555 1_555
C17 C16 1_555 1_555
C18 C17 1_555 1_555
C19 C18 1_555 1_555
C20 C15 1_555 1_555
C7 C12 1_555 1_555
C11 C12 1_555 1_555
C19 C20 1_555 1_555

#END
