
#######################################################################
#
#                 Cambridge Crystallographic Data Centre
#                                CCDC 
#
#######################################################################
#
# If this CIF has been generated from an entry in the Cambridge 
# Structural Database, then it will include bibliographic, chemical, 
# crystal, experimental, refinement or atomic coordinate data resulting 
# from the CCDC's data processing and validation procedures.
#
#######################################################################

data_MIXGEH
_chemical_formula_moiety         'C20 H16 Br1 N1 O3'
_chemical_name_systematic        
'ethyl 3-bromo-6-hydroxy-11-methyl-11H-benzo[a]carbazole-5-carboxylate'
_symmetry_cell_setting           monoclinic
_symmetry_space_group_name_H-M   'P 21/c'
_symmetry_Int_Tables_number      14
_space_group_name_Hall           '-P 2ybc'
loop_
_symmetry_equiv_pos_site_id
_symmetry_equiv_pos_as_xyz
1 x,y,z
2 -x,1/2+y,1/2-z
3 -x,-y,-z
4 x,1/2-y,1/2+z
_cell_length_a                   14.3664(6)
_cell_length_b                   14.1501(6)
_cell_length_c                   17.8928(8)
_cell_angle_alpha                90
_cell_angle_beta                 112.334(5)
_cell_angle_gamma                90
_cell_volume                     3364.5
_exptl_crystal_colour            'light colorless'
_exptl_crystal_description       block
_cell_formula_units_Z            8
loop_
_atom_site_label
_atom_site_type_symbol
_atom_site_fract_x
_atom_site_fract_y
_atom_site_fract_z
Br1 Br 0.88315(3) 0.30687(3) 1.03928(3)
O1 O 0.5123(2) 0.3237(2) 0.59413(15)
H1 H 0.5649 0.3257 0.5862
O2 O 0.6975(2) 0.3302(2) 0.62887(17)
O3 O 0.8044(2) 0.3473(2) 0.75511(17)
N1 N 0.3686(2) 0.3388(2) 0.7813(2)
C1 C 0.7514(3) 0.3186(3) 0.9589(2)
C2 C 0.6704(3) 0.3242(3) 0.9818(2)
H2 H 0.6793 0.3233 1.0360
C3 C 0.5768(3) 0.3310(3) 0.9229(2)
H3 H 0.5215 0.3342 0.9379
C4 C 0.5606(3) 0.3333(2) 0.8406(2)
C5 C 0.6449(3) 0.3295(2) 0.8171(2)
C6 C 0.7411(3) 0.3206(2) 0.8799(2)
H4 H 0.7980 0.3160 0.8671
C7 C 0.6307(3) 0.3304(2) 0.7320(2)
C8 C 0.5333(3) 0.3273(2) 0.6740(2)
C9 C 0.4502(3) 0.3284(2) 0.6964(2)
C10 C 0.4628(3) 0.3354(2) 0.7775(2)
C11 C 0.2970(3) 0.3327(3) 0.7033(3)
C12 C 0.1923(3) 0.3319(3) 0.6779(3)
H5 H 0.1606 0.3364 0.7144
C13 C 0.1385(4) 0.3241(3) 0.5959(4)
H6 H 0.0686 0.3241 0.5769
C14 C 0.1841(4) 0.3162(3) 0.5412(3)
H7 H 0.1446 0.3102 0.4865
C15 C 0.2877(4) 0.3170(3) 0.5660(3)
H8 H 0.3184 0.3119 0.5289
C16 C 0.3447(3) 0.3257(3) 0.6488(3)
C17 C 0.3425(3) 0.3515(3) 0.8518(3)
H9 H 0.3605 0.2959 0.8849
H10 H 0.2714 0.3622 0.8345
H11 H 0.3782 0.4049 0.8824
C18 C 0.7116(4) 0.3353(3) 0.7014(3)
C19 C 0.8865(4) 0.3470(4) 0.7264(3)
H12 H 0.8809 0.4006 0.6911
H13 H 0.8854 0.2894 0.6967
C20 C 0.9805(4) 0.3530(4) 0.7990(3)
H14 H 1.0372 0.3524 0.7831
H15 H 0.9846 0.3000 0.8336
H16 H 0.9807 0.4105 0.8275
Br2 Br 0.79015(3) 0.60760(4) 0.67475(3)
O4 O 0.40386(19) 0.5879(2) 0.87920(15)
H17 H 0.4549 0.5868 0.9205
O5 O 0.5874(2) 0.5885(2) 0.96243(16)
O6 O 0.69943(19) 0.57000(18) 0.90598(15)
N2 N 0.2710(2) 0.5735(2) 0.60451(18)
C21 C 0.6566(3) 0.5928(3) 0.6708(3)
C22 C 0.5782(3) 0.5874(3) 0.5969(3)
H18 H 0.5894 0.5880 0.5490
C23 C 0.4839(3) 0.5813(3) 0.5965(2)
H19 H 0.4303 0.5778 0.5469
C24 C 0.4626(3) 0.5799(2) 0.6673(2)
C25 C 0.5454(3) 0.5840(2) 0.7441(2)
C26 C 0.6425(3) 0.5918(2) 0.7420(2)
H20 H 0.6981 0.5964 0.7903
C27 C 0.3643(3) 0.5771(2) 0.6681(2)
C28 C 0.1967(3) 0.5755(3) 0.6362(2)
C29 C 0.0927(3) 0.5724(3) 0.5958(3)
H21 H 0.0630 0.5699 0.5397
C30 C 0.0364(3) 0.5731(3) 0.6424(3)
H22 H -0.0333 0.5699 0.6172
C31 C 0.0794(3) 0.5784(3) 0.7264(3)
H23 H 0.0383 0.5795 0.7559
C32 C 0.1817(3) 0.5819(3) 0.7657(3)
H24 H 0.2105 0.5855 0.8218
C33 C 0.2418(3) 0.5802(3) 0.7206(2)
C34 C 0.3481(3) 0.5815(2) 0.7396(2)
C35 C 0.4293(3) 0.5848(2) 0.8143(2)
C36 C 0.5280(3) 0.5836(2) 0.8186(2)
C37 C 0.2496(3) 0.5644(3) 0.5183(2)
H25 H 0.2705 0.6208 0.4993
H26 H 0.1787 0.5552 0.4895
H27 H 0.2856 0.5112 0.5094
C38 C 0.6054(3) 0.5816(3) 0.9008(3)
C39 C 0.7784(3) 0.5681(3) 0.9860(2)
H28 H 0.7699 0.5145 1.0166
H29 H 0.7775 0.6256 1.0153
C40 C 0.8752(3) 0.5601(3) 0.9731(3)
H30 H 0.8735 0.5045 0.9418
H31 H 0.9303 0.5556 1.0244
H32 H 0.8838 0.6149 0.9447
loop_
_geom_bond_atom_site_label_1
_geom_bond_atom_site_label_2
_geom_bond_site_symmetry_1
_geom_bond_site_symmetry_2
Br1 C1 1_555 1_555
O1 H1 1_555 1_555
O2 C18 1_555 1_555
O3 C18 1_555 1_555
N1 C10 1_555 1_555
C1 C2 1_555 1_555
C2 H2 1_555 1_555
C3 C2 1_555 1_555
H3 C3 1_555 1_555
C4 C3 1_555 1_555
C5 C4 1_555 1_555
C6 C1 1_555 1_555
H4 C6 1_555 1_555
C7 C5 1_555 1_555
C8 O1 1_555 1_555
C9 C8 1_555 1_555
C10 C4 1_555 1_555
C11 N1 1_555 1_555
C12 C11 1_555 1_555
H5 C12 1_555 1_555
C13 C12 1_555 1_555
H6 C13 1_555 1_555
C14 C13 1_555 1_555
H7 C14 1_555 1_555
C15 C14 1_555 1_555
H8 C15 1_555 1_555
C16 C9 1_555 1_555
C17 N1 1_555 1_555
H9 C17 1_555 1_555
H10 C17 1_555 1_555
H11 C17 1_555 1_555
C18 C7 1_555 1_555
C19 O3 1_555 1_555
H12 C19 1_555 1_555
H13 C19 1_555 1_555
C20 C19 1_555 1_555
H14 C20 1_555 1_555
H15 C20 1_555 1_555
H16 C20 1_555 1_555
Br2 C21 1_555 1_555
O4 H17 1_555 1_555
O5 C38 1_555 1_555
O6 C38 1_555 1_555
N2 C27 1_555 1_555
C21 C22 1_555 1_555
C22 H18 1_555 1_555
C23 C22 1_555 1_555
H19 C23 1_555 1_555
C24 C23 1_555 1_555
C25 C24 1_555 1_555
C26 C21 1_555 1_555
H20 C26 1_555 1_555
C27 C24 1_555 1_555
C28 N2 1_555 1_555
C29 C28 1_555 1_555
H21 C29 1_555 1_555
C30 C29 1_555 1_555
H22 C30 1_555 1_555
C31 C30 1_555 1_555
H23 C31 1_555 1_555
C32 C31 1_555 1_555
H24 C32 1_555 1_555
C33 C28 1_555 1_555
C34 C27 1_555 1_555
C35 O4 1_555 1_555
C36 C25 1_555 1_555
C37 N2 1_555 1_555
H25 C37 1_555 1_555
H26 C37 1_555 1_555
H27 C37 1_555 1_555
C38 C36 1_555 1_555
C39 O6 1_555 1_555
H28 C39 1_555 1_555
H29 C39 1_555 1_555
C40 C39 1_555 1_555
H30 C40 1_555 1_555
H31 C40 1_555 1_555
H32 C40 1_555 1_555
C5 C6 1_555 1_555
C7 C8 1_555 1_555
C9 C10 1_555 1_555
C11 C16 1_555 1_555
C15 C16 1_555 1_555
C25 C26 1_555 1_555
C32 C33 1_555 1_555
C33 C34 1_555 1_555
C34 C35 1_555 1_555
C35 C36 1_555 1_555

#END
