
#######################################################################
#
#                 Cambridge Crystallographic Data Centre
#                                CCDC 
#
#######################################################################
#
# If this CIF has been generated from an entry in the Cambridge 
# Structural Database, then it will include bibliographic, chemical, 
# crystal, experimental, refinement or atomic coordinate data resulting 
# from the CCDC's data processing and validation procedures.
#
#######################################################################

data_MIXPUG
_chemical_formula_moiety         'C31 H23 N5,1.5(H2 O1)'
_chemical_name_systematic        
'N,N-diphenyl-4-(5-((pyridin-2-ylmethylene)amino)-1H-benzimidazol-2-yl)aniline sesquihydrate'
_symmetry_cell_setting           monoclinic
_symmetry_space_group_name_H-M   'P 21/c'
_symmetry_Int_Tables_number      14
_space_group_name_Hall           '-P 2ybc'
loop_
_symmetry_equiv_pos_site_id
_symmetry_equiv_pos_as_xyz
1 x,y,z
2 -x,1/2+y,1/2-z
3 -x,-y,-z
4 x,1/2-y,1/2+z
_cell_length_a                   16.824(5)
_cell_length_b                   27.111(5)
_cell_length_c                   11.546(5)
_cell_angle_alpha                90
_cell_angle_beta                 91.858(5)
_cell_angle_gamma                90
_cell_volume                     5263.54
_cell_formula_units_Z            8
loop_
_atom_site_label
_atom_site_type_symbol
_atom_site_fract_x
_atom_site_fract_y
_atom_site_fract_z
C1 C 0.3600(2) 0.2650(1) 0.9171(3)
N1 N 0.4276(2) 0.2961(1) 0.9085(2)
C2 C 0.3477(3) 0.2263(2) 0.8413(4)
H1 H 0.3824 0.2212 0.7814
N2 N 0.4299(2) 0.4309(1) 0.4408(2)
C3 C 0.2834(4) 0.1951(2) 0.8544(5)
H2 H 0.2746 0.1696 0.8017
N3 N 0.5617(2) 0.4269(1) 0.4799(2)
C4 C 0.2342(4) 0.2010(3) 0.9412(6)
H3 H 0.1923 0.1791 0.9500
N4 N 0.6183(2) 0.5306(1) 0.1363(3)
C5 C 0.2448(3) 0.2384(3) 1.0159(5)
H4 H 0.2098 0.2427 1.0757
C6 C 0.7210(3) 0.5716(2) -0.0310(4)
H5 H 0.6778 0.5536 -0.0602
C7 C 0.3089(3) 0.2710(2) 1.0041(4)
H6 H 0.3162 0.2969 1.0563
C8 C 0.4681(2) 0.3112(1) 1.0131(3)
C9 C 0.4976(2) 0.2765(1) 1.0899(3)
H7 H 0.4925 0.2431 1.0732
C10 C 0.5353(3) 0.2919(2) 1.1932(4)
H8 H 0.5542 0.2685 1.2462
C11 C 0.5446(3) 0.3409(2) 1.2171(4)
H9 H 0.5709 0.3509 1.2852
C12 C 0.5151(2) 0.3749(2) 1.1407(3)
H10 H 0.5211 0.4083 1.1573
C13 C 0.4766(2) 0.3608(1) 1.0392(3)
H11 H 0.4562 0.3845 0.9881
C14 C 0.4418(2) 0.3220(1) 0.8049(3)
C15 C 0.5191(2) 0.3382(1) 0.7834(3)
H12 H 0.5607 0.3297 0.8345
C16 C 0.5342(2) 0.3665(1) 0.6883(3)
H13 H 0.5858 0.3773 0.6767
C17 C 0.4735(2) 0.3795(1) 0.6085(3)
C18 C 0.3986(2) 0.3611(1) 0.6264(3)
H14 H 0.3578 0.3677 0.5724
C19 C 0.3826(2) 0.3328(1) 0.7236(3)
H15 H 0.3313 0.3211 0.7337
C20 C 0.4898(2) 0.4123(1) 0.5105(3)
C21 C 0.5475(2) 0.4570(1) 0.3838(3)
C22 C 0.6012(2) 0.4810(1) 0.3127(3)
H16 H 0.6557 0.4795 0.3284
C23 C 0.5702(2) 0.5069(1) 0.2183(3)
C24 C 0.4884(2) 0.5084(1) 0.1943(3)
H17 H 0.4696 0.5250 0.1285
C25 C 0.4349(2) 0.4861(1) 0.2643(3)
H18 H 0.3804 0.4884 0.2492
C26 C 0.4658(2) 0.4600(1) 0.3589(3)
C27 C 0.6819(2) 0.5523(2) 0.1693(4)
H19 H 0.6960 0.5532 0.2479
C28 C 0.7331(2) 0.5757(2) 0.0862(4)
N5 N 0.7914(3) 0.6034(2) 0.1346(4)
C29 C 0.8382(4) 0.6281(3) 0.0605(6)
H20 H 0.8764 0.6499 0.0902
C30 C 0.8303(4) 0.6216(3) -0.0593(7)
H21 H 0.8662 0.6368 -0.1073
C31 C 0.7716(4) 0.5937(2) -0.1065(5)
H22 H 0.7655 0.5895 -0.1862
N6 N 0.8731(2) 0.2906(1) 0.9800(3)
N7 N 0.8742(2) 0.4245(1) 0.5108(3)
N8 N 1.0054(2) 0.4100(1) 0.5364(3)
N9 N 1.0669(2) 0.5058(1) 0.1819(3)
N10 N 1.2618(2) 0.5548(1) 0.1693(3)
C32 C 0.8127(2) 0.2535(2) 0.9760(3)
C33 C 0.8130(3) 0.2173(2) 0.8938(4)
H23 H 0.8531 0.2161 0.8403
C34 C 0.7520(3) 0.1816(2) 0.8908(5)
H24 H 0.7512 0.1568 0.8352
C35 C 0.6945(3) 0.1841(2) 0.9702(5)
H25 H 0.6544 0.1605 0.9691
C36 C 0.6940(3) 0.2202(2) 1.0505(5)
H26 H 0.6536 0.2214 1.1036
C37 C 0.7529(3) 0.2549(2) 1.0542(4)
H27 H 0.7525 0.2796 1.1100
C38 C 0.9297(2) 0.2898(2) 1.0741(3)
C39 C 0.9753(3) 0.2482(2) 1.0920(5)
H28 H 0.9669 0.2212 1.0435
C40 C 1.0326(4) 0.2450(3) 1.1787(6)
H29 H 1.0644 0.2171 1.1878
C41 C 1.0410(4) 0.2839(3) 1.2496(6)
H30 H 1.0778 0.2811 1.3111
C42 C 1.0005(4) 0.3266(3) 1.2395(5)
H31 H 1.0100 0.3529 1.2898
C43 C 0.9411(3) 0.3293(2) 1.1449(4)
H32 H 0.9112 0.3578 1.1332
C44 C 0.8873(2) 0.3192(1) 0.8818(3)
C45 C 0.9597(2) 0.3433(2) 0.8686(4)
H33 H 0.9991 0.3410 0.9269
C46 C 0.9736(2) 0.3701(2) 0.7709(3)
H34 H 1.0225 0.3857 0.7642
C47 C 0.9169(2) 0.3748(1) 0.6815(3)
C48 C 0.8439(2) 0.3525(1) 0.6979(3)
H35 H 0.8040 0.3561 0.6410
C49 C 0.8286(2) 0.3256(1) 0.7943(3)
H36 H 0.7788 0.3113 0.8020
C50 C 0.9338(2) 0.4027(1) 0.5777(3)
C51 C 0.9934(2) 0.4386(1) 0.4371(3)
C52 C 1.0469(2) 0.4568(1) 0.3592(3)
H37 H 1.1010 0.4503 0.3685
C53 C 1.0183(2) 0.4849(1) 0.2675(3)
C54 C 0.9364(2) 0.4939(2) 0.2519(3)
H38 H 0.9184 0.5122 0.1882
C55 C 0.8819(2) 0.4762(2) 0.3283(3)
H39 H 0.8279 0.4827 0.3182
C56 C 0.9114(2) 0.4483(1) 0.4212(3)
C57 C 1.1378(2) 0.5179(1) 0.2091(3)
H40 H 1.1574 0.5117 0.2839
C58 C 1.1898(2) 0.5415(1) 0.1259(3)
C59 C 1.1663(3) 0.5500(2) 0.0117(3)
H41 H 1.1161 0.5404 -0.0159
C60 C 1.2182(3) 0.5727(2) -0.0601(4)
H42 H 1.2039 0.5783 -0.1375
C61 C 1.2913(3) 0.5871(2) -0.0166(4)
H43 H 1.3272 0.6031 -0.0632
C62 C 1.3100(2) 0.5772(2) 0.0973(4)
H44 H 1.3599 0.5868 0.1261
O1 O 0.7153(1) 0.4496(1) 0.5788(2)
H45 H 0.7578 0.4333 0.5710
H46 H 0.6809 0.4321 0.6120
O2 O 0.8296(2) 0.6017(1) 0.3897(3)
H47 H 0.8708 0.6072 0.4322
H48 H 0.8433 0.5905 0.3246
O3 O 0.2639(2) 0.4434(1) 0.4519(3)
H49 H 0.2656 0.4725 0.4795
H50 H 0.2976 0.4408 0.3989
loop_
_geom_bond_atom_site_label_1
_geom_bond_atom_site_label_2
_geom_bond_site_symmetry_1
_geom_bond_site_symmetry_2
C1 N1 1_555 1_555
N1 C8 1_555 1_555
C2 C1 1_555 1_555
H1 C2 1_555 1_555
N2 C20 1_555 1_555
C3 C2 1_555 1_555
H2 C3 1_555 1_555
N3 C20 1_555 1_555
C4 C3 1_555 1_555
H3 C4 1_555 1_555
N4 C23 1_555 1_555
C5 C4 1_555 1_555
H4 C5 1_555 1_555
C6 H5 1_555 1_555
C7 C1 1_555 1_555
H6 C7 1_555 1_555
C8 C9 1_555 1_555
C9 H7 1_555 1_555
C10 C9 1_555 1_555
H8 C10 1_555 1_555
C11 C10 1_555 1_555
H9 C11 1_555 1_555
C12 C11 1_555 1_555
H10 C12 1_555 1_555
C13 C8 1_555 1_555
H11 C13 1_555 1_555
C14 N1 1_555 1_555
C15 C14 1_555 1_555
H12 C15 1_555 1_555
C16 C15 1_555 1_555
H13 C16 1_555 1_555
C17 C16 1_555 1_555
C18 C17 1_555 1_555
H14 C18 1_555 1_555
C19 C14 1_555 1_555
H15 C19 1_555 1_555
C20 C17 1_555 1_555
C21 N3 1_555 1_555
C22 C21 1_555 1_555
H16 C22 1_555 1_555
C23 C22 1_555 1_555
C24 C23 1_555 1_555
H17 C24 1_555 1_555
C25 C24 1_555 1_555
H18 C25 1_555 1_555
C26 N2 1_555 1_555
C27 N4 1_555 1_555
H19 C27 1_555 1_555
C28 C6 1_555 1_555
N5 C28 1_555 1_555
C29 N5 1_555 1_555
H20 C29 1_555 1_555
C30 C29 1_555 1_555
H21 C30 1_555 1_555
C31 C6 1_555 1_555
H22 C31 1_555 1_555
N6 C32 1_555 1_555
N7 C50 1_555 1_555
N8 C50 1_555 1_555
N9 C53 1_555 1_555
N10 C58 1_555 1_555
C32 C33 1_555 1_555
C33 H23 1_555 1_555
C34 C33 1_555 1_555
H24 C34 1_555 1_555
C35 C34 1_555 1_555
H25 C35 1_555 1_555
C36 C35 1_555 1_555
H26 C36 1_555 1_555
C37 C32 1_555 1_555
H27 C37 1_555 1_555
C38 N6 1_555 1_555
C39 C38 1_555 1_555
H28 C39 1_555 1_555
C40 C39 1_555 1_555
H29 C40 1_555 1_555
C41 C40 1_555 1_555
H30 C41 1_555 1_555
C42 C41 1_555 1_555
H31 C42 1_555 1_555
C43 C38 1_555 1_555
H32 C43 1_555 1_555
C44 N6 1_555 1_555
C45 C44 1_555 1_555
H33 C45 1_555 1_555
C46 C45 1_555 1_555
H34 C46 1_555 1_555
C47 C46 1_555 1_555
C48 C47 1_555 1_555
H35 C48 1_555 1_555
C49 C44 1_555 1_555
H36 C49 1_555 1_555
C50 C47 1_555 1_555
C51 N8 1_555 1_555
C52 C51 1_555 1_555
H37 C52 1_555 1_555
C53 C52 1_555 1_555
C54 C53 1_555 1_555
H38 C54 1_555 1_555
C55 C54 1_555 1_555
H39 C55 1_555 1_555
C56 N7 1_555 1_555
C57 N9 1_555 1_555
H40 C57 1_555 1_555
C58 C57 1_555 1_555
C59 C58 1_555 1_555
H41 C59 1_555 1_555
C60 C59 1_555 1_555
H42 C60 1_555 1_555
C61 C60 1_555 1_555
H43 C61 1_555 1_555
C62 N10 1_555 1_555
H44 C62 1_555 1_555
O1 H45 1_555 1_555
H46 O1 1_555 1_555
O2 H47 1_555 1_555
H48 O2 1_555 1_555
O3 H49 1_555 1_555
H50 O3 1_555 1_555
C5 C7 1_555 1_555
C12 C13 1_555 1_555
C18 C19 1_555 1_555
C21 C26 1_555 1_555
C25 C26 1_555 1_555
C27 C28 1_555 1_555
C30 C31 1_555 1_555
C36 C37 1_555 1_555
C42 C43 1_555 1_555
C48 C49 1_555 1_555
C51 C56 1_555 1_555
C55 C56 1_555 1_555
C61 C62 1_555 1_555

#END
