
#######################################################################
#
#                 Cambridge Crystallographic Data Centre
#                                CCDC 
#
#######################################################################
#
# If this CIF has been generated from an entry in the Cambridge 
# Structural Database, then it will include bibliographic, chemical, 
# crystal, experimental, refinement or atomic coordinate data resulting 
# from the CCDC's data processing and validation procedures.
#
#######################################################################

data_MIXWUM
_chemical_formula_moiety         'C20 H18 N2 O4'
_chemical_name_systematic        
N'-(3-Ethoxy-2-hydroxybenzylidene)-3-hydroxynaphthalene-2-carbohydrazide
_symmetry_cell_setting           monoclinic
_symmetry_space_group_name_H-M   'C 2/c'
_symmetry_Int_Tables_number      15
_space_group_name_Hall           '-C 2yn'
loop_
_symmetry_equiv_pos_site_id
_symmetry_equiv_pos_as_xyz
1 x,y,z
2 1/2+x,1/2+y,z
3 -x,y,1/2-z
4 1/2-x,1/2+y,1/2-z
5 -x,-y,-z
6 1/2-x,1/2-y,-z
7 x,-y,1/2+z
8 1/2+x,1/2-y,1/2+z
_cell_length_a                   28.420(15)
_cell_length_b                   6.456(5)
_cell_length_c                   18.800(14)
_cell_angle_alpha                90
_cell_angle_beta                 100.658(10)
_cell_angle_gamma                90
_cell_volume                     3389.91
_exptl_crystal_colour            colorless
_exptl_crystal_description       block
_cell_formula_units_Z            8
loop_
_atom_site_label
_atom_site_type_symbol
_atom_site_fract_x
_atom_site_fract_y
_atom_site_fract_z
O1 O 1.00934(6) -0.1963(2) 0.34159(8)
H1 H 1.0059 -0.3211 0.3470
O2 O 0.98937(6) 0.4267(2) 0.38501(9)
O3 O 0.88269(7) 0.6149(3) 0.24267(9)
H2 H 0.9039 0.5398 0.2644
O4 O 0.81068(6) 0.8088(3) 0.16639(10)
N1 N 0.96591(7) 0.1590(3) 0.31039(10)
N2 N 0.93488(7) 0.2841(3) 0.26466(10)
C1 C 1.02434(7) 0.1001(3) 0.41996(11)
C2 C 1.03361(8) -0.1122(3) 0.40475(11)
C3 C 1.06657(8) -0.2231(3) 0.45120(13)
H3 H 1.0734 -0.3580 0.4390
C4 C 1.09062(8) -0.1396(3) 0.51714(12)
C5 C 1.12406(8) -0.2534(4) 0.56714(14)
H4 H 1.1314 -0.3888 0.5563
C6 C 1.14561(9) -0.1678(4) 0.63087(14)
H5 H 1.1670 -0.2465 0.6635
C7 C 1.13609(8) 0.0384(4) 0.64834(13)
H6 H 1.1516 0.0960 0.6917
C8 C 1.10409(8) 0.1528(4) 0.60139(12)
H7 H 1.0976 0.2882 0.6133
C9 C 1.08064(8) 0.0685(3) 0.53476(11)
C10 C 1.04759(8) 0.1814(3) 0.48433(12)
H8 H 1.0412 0.3179 0.4952
C11 C 0.99190(8) 0.2416(3) 0.37086(12)
C12 C 0.91016(8) 0.2028(4) 0.20827(12)
H9 H 0.9147 0.0643 0.1977
C13 C 0.87471(8) 0.3253(4) 0.16007(12)
C14 C 0.86145(8) 0.5211(4) 0.18082(12)
C15 C 0.82336(9) 0.6255(4) 0.13816(13)
C16 C 0.80210(9) 0.5426(4) 0.07255(13)
H10 H 0.7776 0.6148 0.0431
C17 C 0.81680(9) 0.3529(4) 0.04985(14)
H11 H 0.8027 0.3001 0.0049
C18 C 0.85201(8) 0.2431(4) 0.09359(13)
H12 H 0.8609 0.1134 0.0791
C19 C 0.76647(9) 0.9005(4) 0.13279(16)
H13 H 0.7413 0.7971 0.1251
H14 H 0.7694 0.9590 0.0863
C20 C 0.75477(11) 1.0676(4) 0.18230(17)
H15 H 0.7498 1.0067 0.2269
H16 H 0.7262 1.1384 0.1597
H17 H 0.7808 1.1643 0.1920
H18 H 0.9661(10) 0.0234(18) 0.2992(15)
loop_
_geom_bond_atom_site_label_1
_geom_bond_atom_site_label_2
_geom_bond_site_symmetry_1
_geom_bond_site_symmetry_2
O1 H1 1_555 1_555
O2 C11 1_555 1_555
O3 H2 1_555 1_555
O4 C15 1_555 1_555
N1 N2 1_555 1_555
N2 C12 1_555 1_555
C1 C2 1_555 1_555
C2 O1 1_555 1_555
C3 C2 1_555 1_555
H3 C3 1_555 1_555
C4 C3 1_555 1_555
C5 C4 1_555 1_555
H4 C5 1_555 1_555
C6 C5 1_555 1_555
H5 C6 1_555 1_555
C7 C6 1_555 1_555
H6 C7 1_555 1_555
C8 C7 1_555 1_555
H7 C8 1_555 1_555
C9 C4 1_555 1_555
C10 C1 1_555 1_555
H8 C10 1_555 1_555
C11 N1 1_555 1_555
C12 H9 1_555 1_555
C13 C12 1_555 1_555
C14 O3 1_555 1_555
C15 C14 1_555 1_555
C16 C15 1_555 1_555
H10 C16 1_555 1_555
C17 C16 1_555 1_555
H11 C17 1_555 1_555
C18 C13 1_555 1_555
H12 C18 1_555 1_555
C19 O4 1_555 1_555
H13 C19 1_555 1_555
H14 C19 1_555 1_555
C20 C19 1_555 1_555
H15 C20 1_555 1_555
H16 C20 1_555 1_555
H17 C20 1_555 1_555
H18 N1 1_555 1_555
C1 C11 1_555 1_555
C8 C9 1_555 1_555
C9 C10 1_555 1_555
C13 C14 1_555 1_555
C17 C18 1_555 1_555

#END
