
#######################################################################
#
#                 Cambridge Crystallographic Data Centre
#                                CCDC 
#
#######################################################################
#
# If this CIF has been generated from an entry in the Cambridge 
# Structural Database, then it will include bibliographic, chemical, 
# crystal, experimental, refinement or atomic coordinate data resulting 
# from the CCDC's data processing and validation procedures.
#
#######################################################################

data_MIXWOH
_chemical_formula_moiety         'C26 H29 N1 O7 S2'
_chemical_name_systematic        
'((3-acetylphenyl)imino)diethane-2,1-diyl bis(4-methylbenzenesulfonate)'
_symmetry_cell_setting           monoclinic
_symmetry_space_group_name_H-M   'P 21/c'
_symmetry_Int_Tables_number      14
_space_group_name_Hall           '-P 2ybc'
loop_
_symmetry_equiv_pos_site_id
_symmetry_equiv_pos_as_xyz
1 x,y,z
2 -x,1/2+y,1/2-z
3 -x,-y,-z
4 x,1/2-y,1/2+z
_cell_length_a                   22.308(4)
_cell_length_b                   7.6356(13)
_cell_length_c                   15.932(3)
_cell_angle_alpha                90
_cell_angle_beta                 105.850(3)
_cell_angle_gamma                90
_cell_volume                     2610.6
_cell_formula_units_Z            4
loop_
_atom_site_label
_atom_site_type_symbol
_atom_site_fract_x
_atom_site_fract_y
_atom_site_fract_z
S1 S 0.38681(4) 0.61507(11) 0.16019(5)
S2 S 0.25308(5) 1.35743(12) 0.38828(5)
N1 N 0.25295(10) 0.9566(3) 0.22687(14)
O1 O 0.42057(12) 0.5301(4) 0.23702(15)
O2 O 0.33401(11) 0.5315(3) 0.10400(16)
O3 O 0.36554(9) 0.7914(3) 0.19420(13)
O4 O -0.01180(12) 0.7300(5) 0.18018(18)
O5 O 0.29051(9) 1.1853(3) 0.38372(12)
O6 O 0.29943(14) 1.4898(3) 0.40849(16)
O7 O 0.21467(15) 1.3293(4) 0.44486(16)
C1 C 0.55733(18) 0.8142(5) -0.0585(3)
H1 H 0.5442 0.7539 -0.1133
H2 H 0.5993 0.7808 -0.0290
H3 H 0.5556 0.9383 -0.0685
C2 C 0.51491(14) 0.7663(4) -0.0029(2)
C3 C 0.45303(15) 0.7376(5) -0.0394(2)
H4 H 0.4369 0.7480 -0.0995
C4 C 0.41404(15) 0.6937(5) 0.0100(2)
H5 H 0.3719 0.6749 -0.0165
C5 C 0.43686(12) 0.6775(4) 0.09838(17)
C6 C 0.49841(14) 0.7097(5) 0.1371(2)
H6 H 0.5143 0.7013 0.1973
C7 C 0.53638(14) 0.7544(5) 0.0858(3)
H7 H 0.5782 0.7773 0.1124
C8 C 0.32288(15) 0.9039(4) 0.1328(2)
H8 H 0.2897 0.8349 0.0953
H9 H 0.3447 0.9651 0.0965
C9 C 0.29642(13) 1.0326(4) 0.1839(2)
H10 H 0.3304 1.0861 0.2277
H11 H 0.2753 1.1246 0.1449
C10 C 0.19124(12) 0.9296(3) 0.18169(16)
C11 C 0.16833(14) 0.9772(4) 0.09360(17)
H12 H 0.1952 1.0248 0.0642
C12 C 0.10684(15) 0.9541(4) 0.05087(19)
H13 H 0.0928 0.9856 -0.0076
C13 C 0.06512(15) 0.8863(4) 0.0912(2)
H14 H 0.0233 0.8738 0.0610
C14 C 0.08634(13) 0.8365(4) 0.17810(18)
C15 C 0.14855(12) 0.8578(3) 0.22164(17)
H15 H 0.1625 0.8231 0.2797
C16 C 0.04092(15) 0.7607(4) 0.2209(2)
C17 C 0.06036(17) 0.7237(5) 0.3164(2)
H16 H 0.0278 0.6611 0.3323
H17 H 0.0682 0.8320 0.3481
H18 H 0.0976 0.6541 0.3303
C18 C 0.27647(13) 0.9013(4) 0.31693(18)
H19 H 0.3216 0.8959 0.3317
H20 H 0.2613 0.7842 0.3229
C19 C 0.25768(14) 1.0206(4) 0.38055(18)
H21 H 0.2131 1.0405 0.3621
H22 H 0.2682 0.9673 0.4380
C20 C 0.20618(13) 1.3840(4) 0.28200(19)
C21 C 0.14383(15) 1.3444(4) 0.2605(2)
H23 H 0.1255 1.3049 0.3028
C22 C 0.10880(15) 1.3640(4) 0.1754(3)
H24 H 0.0665 1.3372 0.1608
C23 C 0.13460(15) 1.4222(4) 0.1113(2)
C24 C 0.19743(14) 1.4603(4) 0.13437(19)
H25 H 0.2159 1.4987 0.0919
C25 C 0.23306(13) 1.4424(4) 0.21861(18)
H26 H 0.2753 1.4695 0.2332
C26 C 0.09672(19) 1.4417(5) 0.0182(2)
H27 H 0.0952 1.5629 0.0018
H28 H 0.0552 1.3998 0.0122
H29 H 0.1155 1.3748 -0.0189
loop_
_geom_bond_atom_site_label_1
_geom_bond_atom_site_label_2
_geom_bond_site_symmetry_1
_geom_bond_site_symmetry_2
S1 O1 1_555 1_555
S2 O5 1_555 1_555
N1 C9 1_555 1_555
O2 S1 1_555 1_555
O3 S1 1_555 1_555
O4 C16 1_555 1_555
O5 C19 1_555 1_555
O6 S2 1_555 1_555
O7 S2 1_555 1_555
C1 H1 1_555 1_555
H2 C1 1_555 1_555
H3 C1 1_555 1_555
C2 C1 1_555 1_555
C3 C2 1_555 1_555
H4 C3 1_555 1_555
C4 C3 1_555 1_555
H5 C4 1_555 1_555
C5 S1 1_555 1_555
C6 C5 1_555 1_555
H6 C6 1_555 1_555
C7 C2 1_555 1_555
H7 C7 1_555 1_555
C8 O3 1_555 1_555
H8 C8 1_555 1_555
H9 C8 1_555 1_555
C9 C8 1_555 1_555
H10 C9 1_555 1_555
H11 C9 1_555 1_555
C10 N1 1_555 1_555
C11 C10 1_555 1_555
H12 C11 1_555 1_555
C12 C11 1_555 1_555
H13 C12 1_555 1_555
C13 C12 1_555 1_555
H14 C13 1_555 1_555
C14 C13 1_555 1_555
C15 C10 1_555 1_555
H15 C15 1_555 1_555
C16 C14 1_555 1_555
C17 C16 1_555 1_555
H16 C17 1_555 1_555
H17 C17 1_555 1_555
H18 C17 1_555 1_555
C18 N1 1_555 1_555
H19 C18 1_555 1_555
H20 C18 1_555 1_555
C19 C18 1_555 1_555
H21 C19 1_555 1_555
H22 C19 1_555 1_555
C20 S2 1_555 1_555
C21 C20 1_555 1_555
H23 C21 1_555 1_555
C22 C21 1_555 1_555
H24 C22 1_555 1_555
C23 C22 1_555 1_555
C24 C23 1_555 1_555
H25 C24 1_555 1_555
C25 C20 1_555 1_555
H26 C25 1_555 1_555
C26 C23 1_555 1_555
H27 C26 1_555 1_555
H28 C26 1_555 1_555
H29 C26 1_555 1_555
C4 C5 1_555 1_555
C6 C7 1_555 1_555
C14 C15 1_555 1_555
C24 C25 1_555 1_555

#END
