
#######################################################################
#
#                 Cambridge Crystallographic Data Centre
#                                CCDC 
#
#######################################################################
#
# If this CIF has been generated from an entry in the Cambridge 
# Structural Database, then it will include bibliographic, chemical, 
# crystal, experimental, refinement or atomic coordinate data resulting 
# from the CCDC's data processing and validation procedures.
#
#######################################################################

data_MIXZUO
_chemical_name_common            
2,3,4-Tri-O-acetyl-6-O-trityl-1-O-(2,3,4-tri-O-acetyl-6-O-trityl-alpha-D-glucopyranosyl)-alpha-D-glucopyranose
_chemical_formula_moiety         'C62 H62 O17'
_chemical_name_systematic        'Ditrityl \a,\a-trehalose hexaacetate'
_symmetry_cell_setting           orthorhombic
_symmetry_space_group_name_H-M   'P 21 21 2'
_symmetry_Int_Tables_number      18
_space_group_name_Hall           'P 2 2ab'
loop_
_symmetry_equiv_pos_site_id
_symmetry_equiv_pos_as_xyz
1 x,y,z
2 -x,-y,z
3 1/2+x,1/2-y,-z
4 1/2-x,1/2+y,-z
_cell_length_a                   15.0595(4)
_cell_length_b                   17.1977(6)
_cell_length_c                   10.8465(4)
_cell_angle_alpha                90
_cell_angle_beta                 90
_cell_angle_gamma                90
_cell_volume                     2809.12
_exptl_crystal_colour            colorless
_exptl_crystal_description       prism
_cell_formula_units_Z            2
_exptl_crystal_recrystallization_method 'ethyl acetate/methanol'
loop_
_atom_site_label
_atom_site_type_symbol
_atom_site_fract_x
_atom_site_fract_y
_atom_site_fract_z
O1 O 0.5000 1.0000 0.8011(2)
O2 O 0.33569(10) 0.98239(10) 0.88892(17)
O3 O 0.20150(13) 0.92560(11) 0.8817(2)
O4 O 0.35539(11) 0.81530(10) 0.96958(17)
O5 O 0.48244(11) 0.90000(9) 0.65828(16)
O6 O 0.36533(15) 0.89970(13) 1.1280(2)
O7 O 0.51108(12) 0.74591(10) 0.88536(18)
O8 O 0.41558(15) 0.65155(12) 0.8283(2)
O9 O 0.51307(11) 0.74806(10) 0.57844(17)
C1 C 0.43883(16) 0.95672(14) 0.7293(3)
H1 H 0.4064 0.9930 0.6730
C2 C 0.37292(16) 0.92010(14) 0.8175(3)
H2 H 0.3246 0.8945 0.7691
C3 C 0.41827(16) 0.85968(14) 0.8983(3)
H3 H 0.4629 0.8850 0.9536
C4 C 0.46345(16) 0.80181(14) 0.8129(2)
H4 H 0.4181 0.7749 0.7607
C5 C 0.53040(16) 0.84374(14) 0.7314(3)
H5 H 0.5748 0.8712 0.7843
C6 C 0.57796(17) 0.79057(15) 0.6430(3)
H6 H 0.6144 0.8213 0.5848
H7 H 0.6176 0.7548 0.6887
C7 C 0.24836(17) 0.97687(16) 0.9191(3)
C8 C 0.2205(2) 1.04135(19) 1.0009(4)
H8 H 0.1558 1.0404 1.0105
H9 H 0.2385 1.0911 0.9645
H10 H 0.2487 1.0353 1.0818
C9 C 0.33984(19) 0.83878(18) 1.0864(3)
C10 C 0.2863(2) 0.7796(2) 1.1545(3)
H11 H 0.3261 0.7411 1.1916
H12 H 0.2458 0.7535 1.0970
H13 H 0.2519 0.8053 1.2194
C11 C 0.4794(2) 0.67099(16) 0.8839(3)
C12 C 0.5378(2) 0.62098(19) 0.9610(4)
H17 H 0.5155 0.5674 0.9597
H18 H 0.5380 0.6404 1.0459
H19 H 0.5984 0.6222 0.9280
C13 C 0.54362(16) 0.70324(15) 0.4741(3)
C14 C 0.46089(17) 0.65837(15) 0.4324(3)
C15 C 0.37963(17) 0.66718(17) 0.4898(3)
H20 H 0.3739 0.7023 0.5569
C16 C 0.3064(2) 0.62515(19) 0.4504(4)
H21 H 0.2509 0.6317 0.4907
C17 C 0.3134(2) 0.57462(18) 0.3543(4)
H22 H 0.2629 0.5463 0.3272
C18 C 0.3937(2) 0.5649(2) 0.2970(4)
H23 H 0.3992 0.5293 0.2304
C19 C 0.4663(2) 0.60666(19) 0.3358(3)
H24 H 0.5216 0.5997 0.2951
C20 C 0.56998(18) 0.75812(17) 0.3686(3)
C21 C 0.53403(19) 0.83244(18) 0.3648(3)
H25 H 0.4973 0.8499 0.4304
C22 C 0.5511(3) 0.8812(2) 0.2666(4)
H26 H 0.5267 0.9321 0.2659
C23 C 0.6021(3) 0.8572(4) 0.1714(5)
H27 H 0.6122 0.8907 0.1031
C24 C 0.6392(3) 0.7843(4) 0.1736(4)
H28 H 0.6765 0.7679 0.1079
C25 C 0.6227(2) 0.7345(2) 0.2708(4)
H29 H 0.6477 0.6838 0.2707
C26 C 0.61601(17) 0.64760(17) 0.5193(3)
C27 C 0.70605(19) 0.6622(2) 0.5029(4)
H30 H 0.7249 0.7062 0.4569
C28 C 0.7689(2) 0.6116(3) 0.5547(5)
H31 H 0.8304 0.6214 0.5425
C29 C 0.7433(3) 0.5490(3) 0.6220(4)
H32 H 0.7866 0.5152 0.6566
C30 C 0.6550(3) 0.5348(2) 0.6397(4)
H33 H 0.6371 0.4912 0.6872
C31 C 0.5916(2) 0.58318(18) 0.5892(3)
H34 H 0.5305 0.5724 0.6023
C1A C 0.56117(16) 1.04328(14) 0.7293(3)
O5A O 0.51756(11) 1.10000(9) 0.65828(16)
C5A C 0.46960(16) 1.15626(14) 0.7314(3)
C4A C 0.53655(16) 1.19819(14) 0.8129(2)
O7A O 0.48892(12) 1.25409(10) 0.88536(18)
C11A C 0.5206(2) 1.32901(16) 0.8839(3)
O8A O 0.58442(15) 1.34845(12) 0.8283(2)
C12A C 0.4622(2) 1.37902(19) 0.9610(4)
H17A H 0.4845 1.4326 0.9597
H18A H 0.4620 1.3596 1.0459
H19A H 0.4016 1.3778 0.9280
C3A C 0.58173(16) 1.14032(14) 0.8983(3)
O4A O 0.64461(11) 1.18470(10) 0.96958(17)
C9A C 0.66016(19) 1.16122(18) 1.0864(3)
O6A O 0.63467(15) 1.10030(13) 1.1280(2)
C10A C 0.7137(2) 1.2204(2) 1.1545(3)
H11A H 0.6739 1.2589 1.1916
H12A H 0.7542 1.2465 1.0970
H13A H 0.7481 1.1947 1.2194
C2A C 0.62708(16) 1.07990(14) 0.8175(3)
O2A O 0.66431(10) 1.01761(10) 0.88892(17)
C7A C 0.75164(17) 1.02313(16) 0.9191(3)
O3A O 0.79850(13) 1.07440(11) 0.8817(2)
C8A C 0.7795(2) 0.95865(19) 1.0009(4)
H8A H 0.8442 0.9596 1.0105
H9A H 0.7615 0.9089 0.9645
H10A H 0.7513 0.9647 1.0818
H1A H 0.5936 1.0070 0.6730
H2A H 0.6754 1.1055 0.7691
H3A H 0.5371 1.1150 0.9536
H4A H 0.5819 1.2251 0.7607
H5A H 0.4252 1.1288 0.7843
C6A C 0.42204(17) 1.20943(15) 0.6430(3)
O9A O 0.48693(11) 1.25194(10) 0.57844(17)
C13A C 0.45638(16) 1.29676(15) 0.4741(3)
C14A C 0.53911(17) 1.34163(15) 0.4324(3)
C15A C 0.62037(17) 1.33282(17) 0.4898(3)
H20A H 0.6261 1.2977 0.5569
C16A C 0.6936(2) 1.37485(19) 0.4504(4)
H21A H 0.7491 1.3683 0.4907
C17A C 0.6866(2) 1.42538(18) 0.3543(4)
H22A H 0.7371 1.4537 0.3272
C18A C 0.6063(2) 1.4351(2) 0.2970(4)
H23A H 0.6008 1.4707 0.2304
C19A C 0.5337(2) 1.39334(19) 0.3358(3)
H24A H 0.4784 1.4003 0.2951
C20A C 0.43002(18) 1.24188(17) 0.3686(3)
C21A C 0.46597(19) 1.16756(18) 0.3648(3)
H25A H 0.5027 1.1501 0.4304
C22A C 0.4489(3) 1.1188(2) 0.2666(4)
H26A H 0.4733 1.0679 0.2659
C23A C 0.3979(3) 1.1428(4) 0.1714(5)
H27A H 0.3878 1.1093 0.1031
C24A C 0.3608(3) 1.2157(4) 0.1736(4)
H28A H 0.3235 1.2321 0.1079
C25A C 0.3773(2) 1.2655(2) 0.2708(4)
H29A H 0.3523 1.3162 0.2707
C26A C 0.38399(17) 1.35240(17) 0.5193(3)
C27A C 0.29395(19) 1.3378(2) 0.5029(4)
H30A H 0.2751 1.2938 0.4569
C28A C 0.2311(2) 1.3884(3) 0.5547(5)
H31A H 0.1696 1.3786 0.5425
C29A C 0.2567(3) 1.4510(3) 0.6220(4)
H32A H 0.2134 1.4848 0.6566
C30A C 0.3450(3) 1.4652(2) 0.6397(4)
H33A H 0.3629 1.5088 0.6872
C31A C 0.4084(2) 1.41682(18) 0.5892(3)
H34A H 0.4695 1.4276 0.6023
H6A H 0.3856 1.1787 0.5848
H7A H 0.3824 1.2452 0.6887
H14? H 0.5857 0.6525 0.9961
H15? H 0.5633 0.5796 0.9099
H16? H 0.5029 0.5978 1.0278
loop_
_geom_bond_atom_site_label_1
_geom_bond_atom_site_label_2
_geom_bond_site_symmetry_1
_geom_bond_site_symmetry_2
O1 C1 1_555 1_555
O2 C2 1_555 1_555
O3 C7 1_555 1_555
O4 C3 1_555 1_555
O5 C1 1_555 1_555
O6 C9 1_555 1_555
O7 C4 1_555 1_555
O8 C11 1_555 1_555
O9 C6 1_555 1_555
C1 H1 1_555 1_555
C2 C1 1_555 1_555
H2 C2 1_555 1_555
C3 C2 1_555 1_555
H3 C3 1_555 1_555
C4 C3 1_555 1_555
H4 C4 1_555 1_555
C5 O5 1_555 1_555
H5 C5 1_555 1_555
C6 C5 1_555 1_555
H6 C6 1_555 1_555
H7 C6 1_555 1_555
C7 O2 1_555 1_555
C8 C7 1_555 1_555
H8 C8 1_555 1_555
H9 C8 1_555 1_555
H10 C8 1_555 1_555
C9 O4 1_555 1_555
C10 C9 1_555 1_555
H11 C10 1_555 1_555
H12 C10 1_555 1_555
H13 C10 1_555 1_555
C11 O7 1_555 1_555
C12 C11 1_555 1_555
H17 C12 1_555 1_555
H18 C12 1_555 1_555
H19 C12 1_555 1_555
C13 O9 1_555 1_555
C14 C13 1_555 1_555
C15 C14 1_555 1_555
H20 C15 1_555 1_555
C16 C15 1_555 1_555
H21 C16 1_555 1_555
C17 C16 1_555 1_555
H22 C17 1_555 1_555
C18 C17 1_555 1_555
H23 C18 1_555 1_555
C19 C14 1_555 1_555
H24 C19 1_555 1_555
C20 C13 1_555 1_555
C21 C20 1_555 1_555
H25 C21 1_555 1_555
C22 C21 1_555 1_555
H26 C22 1_555 1_555
C23 C22 1_555 1_555
H27 C23 1_555 1_555
C24 C23 1_555 1_555
H28 C24 1_555 1_555
C25 C20 1_555 1_555
H29 C25 1_555 1_555
C26 C13 1_555 1_555
C27 C26 1_555 1_555
H30 C27 1_555 1_555
C28 C27 1_555 1_555
H31 C28 1_555 1_555
C29 C28 1_555 1_555
H32 C29 1_555 1_555
C30 C29 1_555 1_555
H33 C30 1_555 1_555
C31 C26 1_555 1_555
H34 C31 1_555 1_555
C1A O1 1_555 1_555
O5A C1A 1_555 1_555
C5A O5A 1_555 1_555
C4A C5A 1_555 1_555
O7A C4A 1_555 1_555
C11A O7A 1_555 1_555
O8A C11A 1_555 1_555
C12A C11A 1_555 1_555
H17A C12A 1_555 1_555
H18A C12A 1_555 1_555
H19A C12A 1_555 1_555
C3A C4A 1_555 1_555
O4A C3A 1_555 1_555
C9A O4A 1_555 1_555
O6A C9A 1_555 1_555
C10A C9A 1_555 1_555
H11A C10A 1_555 1_555
H12A C10A 1_555 1_555
H13A C10A 1_555 1_555
C2A C1A 1_555 1_555
O2A C2A 1_555 1_555
C7A O2A 1_555 1_555
O3A C7A 1_555 1_555
C8A C7A 1_555 1_555
H8A C8A 1_555 1_555
H9A C8A 1_555 1_555
H10A C8A 1_555 1_555
H1A C1A 1_555 1_555
H2A C2A 1_555 1_555
H3A C3A 1_555 1_555
H4A C4A 1_555 1_555
H5A C5A 1_555 1_555
C6A C5A 1_555 1_555
O9A C6A 1_555 1_555
C13A O9A 1_555 1_555
C14A C13A 1_555 1_555
C15A C14A 1_555 1_555
H20A C15A 1_555 1_555
C16A C15A 1_555 1_555
H21A C16A 1_555 1_555
C17A C16A 1_555 1_555
H22A C17A 1_555 1_555
C18A C17A 1_555 1_555
H23A C18A 1_555 1_555
C19A C14A 1_555 1_555
H24A C19A 1_555 1_555
C20A C13A 1_555 1_555
C21A C20A 1_555 1_555
H25A C21A 1_555 1_555
C22A C21A 1_555 1_555
H26A C22A 1_555 1_555
C23A C22A 1_555 1_555
H27A C23A 1_555 1_555
C24A C23A 1_555 1_555
H28A C24A 1_555 1_555
C25A C20A 1_555 1_555
H29A C25A 1_555 1_555
C26A C13A 1_555 1_555
C27A C26A 1_555 1_555
H30A C27A 1_555 1_555
C28A C27A 1_555 1_555
H31A C28A 1_555 1_555
C29A C28A 1_555 1_555
H32A C29A 1_555 1_555
C30A C29A 1_555 1_555
H33A C30A 1_555 1_555
C31A C26A 1_555 1_555
H34A C31A 1_555 1_555
H6A C6A 1_555 1_555
H7A C6A 1_555 1_555
C4 C5 1_555 1_555
C18 C19 1_555 1_555
C24 C25 1_555 1_555
C30 C31 1_555 1_555
C3A C2A 1_555 1_555
C18A C19A 1_555 1_555
C24A C25A 1_555 1_555
C30A C31A 1_555 1_555

#END
