
#######################################################################
#
#                 Cambridge Crystallographic Data Centre
#                                CCDC 
#
#######################################################################
#
# If this CIF has been generated from an entry in the Cambridge 
# Structural Database, then it will include bibliographic, chemical, 
# crystal, experimental, refinement or atomic coordinate data resulting 
# from the CCDC's data processing and validation procedures.
#
#######################################################################

data_MIYJUA
_chemical_formula_moiety         'C16 H13 N5 O5,C3 H7 N1 O1'
_chemical_name_systematic        
'7-Amino-2,3,4,5-tetrahydro-1,3-dimethyl-5-(2-nitrophenyl)-2,4-dioxo-1H-pyrano(2,3-d)pyrimidine-6-carbonitrile dimethylformamide solvate'
_symmetry_cell_setting           monoclinic
_symmetry_space_group_name_H-M   'P 21/c'
_symmetry_Int_Tables_number      14
_space_group_name_Hall           '-P 2ybc'
loop_
_symmetry_equiv_pos_site_id
_symmetry_equiv_pos_as_xyz
1 x,y,z
2 -x,1/2+y,1/2-z
3 -x,-y,-z
4 x,1/2-y,1/2+z
_cell_length_a                   11.383(2)
_cell_length_b                   13.372(2)
_cell_length_c                   13.673(2)
_cell_angle_alpha                90
_cell_angle_beta                 97.380(4)
_cell_angle_gamma                90
_cell_volume                     2063.97
_exptl_crystal_colour            colorless
_exptl_crystal_description       block
_chemical_melting_point          '253-255 deg.C'
_cell_formula_units_Z            4
loop_
_atom_site_label
_atom_site_type_symbol
_atom_site_fract_x
_atom_site_fract_y
_atom_site_fract_z
O1 O 0.40091(16) -0.00624(13) 0.61352(12)
O2 O 0.37155(18) 0.28255(15) 0.41360(14)
O3 O 0.5547(2) 0.29044(16) 0.72842(15)
O4 O 0.2654(2) 0.1040(2) 0.20784(16)
O5 O 0.2193(3) 0.2593(2) 0.1859(2)
N1 N 0.4649(2) 0.28639(16) 0.57063(16)
N2 N 0.48061(19) 0.14169(16) 0.66813(15)
N3 N 0.3382(2) -0.15964(17) 0.57421(18)
H1 H 0.3046 -0.2057 0.5366
H2 H 0.3696 -0.1739 0.6332
N4 N 0.1861(3) -0.1470(2) 0.3239(2)
N5 N 0.2150(2) 0.1798(3) 0.22964(19)
C1 C 0.3416(2) -0.06646(19) 0.54125(19)
C2 C 0.2975(2) -0.03010(19) 0.45167(19)
C3 C 0.3059(2) 0.07877(19) 0.42235(18)
H3 H 0.3473 0.0828 0.3639
C4 C 0.3764(2) 0.13403(19) 0.50497(18)
C5 C 0.4171(2) 0.09178(19) 0.59151(18)
C6 C 0.4022(2) 0.2378(2) 0.49047(19)
C7 C 0.5024(2) 0.2432(2) 0.6598(2)
C8 C 0.4883(3) 0.3929(2) 0.5591(2)
H4 H 0.4181 0.4305 0.5662
H5 H 0.5111 0.4047 0.4949
H6 H 0.5512 0.4135 0.6086
C9 C 0.5230(3) 0.0929(2) 0.7620(2)
H7 H 0.4687 0.1060 0.8087
H8 H 0.5998 0.1186 0.7869
H9 H 0.5282 0.0220 0.7520
C10 C 0.2368(3) -0.0958(2) 0.3820(2)
C11 C 0.1833(2) 0.12601(19) 0.39798(19)
C12 C 0.1434(2) 0.1759(2) 0.3113(2)
C13 C 0.0358(3) 0.2252(2) 0.2961(2)
H10 H 0.0130 0.2590 0.2373
C14 C -0.0366(3) 0.2237(3) 0.3684(3)
H11 H -0.1100 0.2553 0.3584
C15 C -0.0006(3) 0.1755(3) 0.4558(3)
H12 H -0.0492 0.1753 0.5055
C16 C 0.1079(3) 0.1272(2) 0.4700(2)
H13 H 0.1309 0.0947 0.5295
O6 O 0.2293(3) 0.6595(2) 0.4920(3)
N6 N 0.1680(3) 0.5311(3) 0.3900(3)
C17 C 0.2038(4) 0.6238(3) 0.4092(4)
H14 H 0.2102 0.6655 0.3557
C18 C 0.1522(5) 0.4617(4) 0.4676(5)
H15 H 0.1679 0.4949 0.5302
H16 H 0.2059 0.4066 0.4656
H17 H 0.0722 0.4374 0.4588
C19 C 0.1435(8) 0.4934(5) 0.2899(5)
H18 H 0.0617 0.4745 0.2767
H19 H 0.1925 0.4362 0.2824
H20 H 0.1602 0.5447 0.2445
loop_
_geom_bond_atom_site_label_1
_geom_bond_atom_site_label_2
_geom_bond_site_symmetry_1
_geom_bond_site_symmetry_2
O1 C1 1_555 1_555
O2 C6 1_555 1_555
O3 C7 1_555 1_555
O4 N5 1_555 1_555
O5 N5 1_555 1_555
O6 C17 1_555 1_555
N1 C6 1_555 1_555
N2 C5 1_555 1_555
N3 H1 1_555 1_555
H2 N3 1_555 1_555
N4 C10 1_555 1_555
N5 C12 1_555 1_555
N6 C17 1_555 1_555
C1 N3 1_555 1_555
C2 C1 1_555 1_555
C3 C2 1_555 1_555
H3 C3 1_555 1_555
C4 C3 1_555 1_555
C5 O1 1_555 1_555
C6 C4 1_555 1_555
C7 N1 1_555 1_555
C8 N1 1_555 1_555
H4 C8 1_555 1_555
H5 C8 1_555 1_555
H6 C8 1_555 1_555
C9 N2 1_555 1_555
H7 C9 1_555 1_555
H8 C9 1_555 1_555
H9 C9 1_555 1_555
C10 C2 1_555 1_555
C11 C3 1_555 1_555
C12 C11 1_555 1_555
C13 C12 1_555 1_555
H10 C13 1_555 1_555
C14 C13 1_555 1_555
H11 C14 1_555 1_555
C15 C14 1_555 1_555
H12 C15 1_555 1_555
C16 C11 1_555 1_555
H13 C16 1_555 1_555
C17 H14 1_555 1_555
C18 N6 1_555 1_555
H15 C18 1_555 1_555
H16 C18 1_555 1_555
H17 C18 1_555 1_555
C19 N6 1_555 1_555
H18 C19 1_555 1_555
H19 C19 1_555 1_555
H20 C19 1_555 1_555
N2 C7 1_555 1_555
C4 C5 1_555 1_555
C15 C16 1_555 1_555

#END
