
#######################################################################
#
#                 Cambridge Crystallographic Data Centre
#                                CCDC 
#
#######################################################################
#
# If this CIF has been generated from an entry in the Cambridge 
# Structural Database, then it will include bibliographic, chemical, 
# crystal, experimental, refinement or atomic coordinate data resulting 
# from the CCDC's data processing and validation procedures.
#
#######################################################################

data_MIYKIP
_chemical_formula_moiety         'C18 H24 N4 O7 S1'
_chemical_name_systematic        
N-(3,5-Dimethylpyrimidin-2-yl)-N'-(tri-O-acetylxylosyl)thiourea
_chemical_properties_biological  'some herbicidal activity against sorghum'
_symmetry_cell_setting           monoclinic
_symmetry_space_group_name_H-M   'P 21'
_symmetry_Int_Tables_number      4
_space_group_name_Hall           'P 2yb'
loop_
_symmetry_equiv_pos_site_id
_symmetry_equiv_pos_as_xyz
1 x,y,z
2 -x,1/2+y,-z
_cell_length_a                   7.5500(17)
_cell_length_b                   10.498(2)
_cell_length_c                   14.208(3)
_cell_angle_alpha                90
_cell_angle_beta                 99.929(4)
_cell_angle_gamma                90
_cell_volume                     1109.26
_exptl_crystal_colour            colorless
_exptl_crystal_description       block
_chemical_melting_point          '227-229 deg.C'
_cell_formula_units_Z            2
_exptl_crystal_recrystallization_method 'ethyl acetate/light petroleum'
loop_
_atom_site_label
_atom_site_type_symbol
_atom_site_fract_x
_atom_site_fract_y
_atom_site_fract_z
S1 S 0.34314(12) 0.53180(9) 0.59302(6)
C1 C 0.0233(5) 0.0838(4) 0.2160(2)
H1 H -0.0315 0.0021 0.2012
H2 H 0.1121 0.0985 0.1763
H3 H -0.0670 0.1490 0.2045
C2 C 0.1144(4) 0.0868(3) 0.3227(2)
C3 C 0.1399(5) -0.0162(3) 0.3748(2)
H4 H 0.1062 -0.0956 0.3486
C4 C 0.2208(4) -0.0041(3) 0.4730(2)
C5 C 0.2550(4) -0.1155(3) 0.5358(2)
H5 H 0.3715 -0.1078 0.5750
H6 H 0.2510 -0.1913 0.4978
H7 H 0.1648 -0.1203 0.5758
C6 C 0.2278(4) 0.2089(3) 0.4506(2)
C7 C 0.3336(4) 0.3799(3) 0.5751(2)
C8 C 0.4498(4) 0.3106(3) 0.7386(2)
H8 H 0.5124 0.3927 0.7460
C9 C 0.3495(5) 0.3414(4) 0.8871(2)
H9 H 0.2438 0.3480 0.9172
H10 H 0.4117 0.4225 0.8938
C10 C 0.4714(4) 0.2377(3) 0.93422(19)
H11 H 0.4065 0.1569 0.9344
C11 C 0.6416(4) 0.2218(3) 0.88723(19)
H12 H 0.7204 0.2963 0.8992
C12 C 0.5737(4) 0.2030(3) 0.77934(18)
H13 H 0.5123 0.1208 0.7676
C13 C 0.4726(6) 0.2174(4) 1.1017(2)
C14 C 0.5444(7) 0.2869(4) 1.1976(2)
H14 H 0.5716 0.3739 1.1848
H15 H 0.6513 0.2451 1.2293
H16 H 0.4545 0.2845 1.2378
C15 C 0.9213(5) 0.1150(4) 0.9391(2)
C16 C 0.9950(5) -0.0124(3) 0.9495(3)
H17 H 1.1239 -0.0080 0.9603
H18 H 0.9536 -0.0601 0.8923
H19 H 0.9563 -0.0536 1.0028
C17 C 0.7696(4) 0.1011(3) 0.69023(19)
C18 C 0.9528(4) 0.1096(4) 0.6618(2)
H20 H 1.0227 0.0364 0.6855
H21 H 1.0125 0.1854 0.6885
H22 H 0.9396 0.1124 0.5934
N1 N 0.2544(3) 0.1116(2) 0.50717(17)
N2 N 0.1438(3) 0.2061(3) 0.35572(17)
N3 N 0.2649(4) 0.3331(2) 0.48318(19)
H23 H 0.2418 0.3908 0.4398
N4 N 0.3764(3) 0.2853(2) 0.63861(16)
H24 H 0.3600 0.2077 0.6198
O1 O 0.2972(3) 0.3102(2) 0.78740(14)
O2 O 0.5412(4) 0.2811(3) 1.03329(15)
O3 O 0.7336(3) 0.1092(2) 0.92069(14)
O4 O 0.7324(3) 0.20595(19) 0.73571(13)
O5 O 0.3936(4) 0.1197(3) 1.09054(18)
O6 O 0.9966(4) 0.2122(3) 0.9386(2)
O7 O 0.6789(3) 0.0106(2) 0.67781(15)
loop_
_geom_bond_atom_site_label_1
_geom_bond_atom_site_label_2
_geom_bond_site_symmetry_1
_geom_bond_site_symmetry_2
S1 C7 1_555 1_555
C1 H1 1_555 1_555
H2 C1 1_555 1_555
H3 C1 1_555 1_555
C2 C1 1_555 1_555
C3 C2 1_555 1_555
H4 C3 1_555 1_555
C4 C3 1_555 1_555
C5 C4 1_555 1_555
H5 C5 1_555 1_555
H6 C5 1_555 1_555
H7 C5 1_555 1_555
C6 N1 1_555 1_555
C7 N3 1_555 1_555
C8 H8 1_555 1_555
C9 H9 1_555 1_555
H10 C9 1_555 1_555
C10 C9 1_555 1_555
H11 C10 1_555 1_555
C11 C10 1_555 1_555
H12 C11 1_555 1_555
C12 C8 1_555 1_555
H13 C12 1_555 1_555
C13 C14 1_555 1_555
C14 H14 1_555 1_555
H15 C14 1_555 1_555
H16 C14 1_555 1_555
C15 C16 1_555 1_555
C16 H17 1_555 1_555
H18 C16 1_555 1_555
H19 C16 1_555 1_555
C17 C18 1_555 1_555
C18 H20 1_555 1_555
H21 C18 1_555 1_555
H22 C18 1_555 1_555
N1 C4 1_555 1_555
N2 C2 1_555 1_555
N3 C6 1_555 1_555
H23 N3 1_555 1_555
N4 C7 1_555 1_555
H24 N4 1_555 1_555
O1 C8 1_555 1_555
O2 C10 1_555 1_555
O3 C11 1_555 1_555
O4 C12 1_555 1_555
O5 C13 1_555 1_555
O6 C15 1_555 1_555
O7 C17 1_555 1_555
C6 N2 1_555 1_555
C8 N4 1_555 1_555
C9 O1 1_555 1_555
C11 C12 1_555 1_555
C13 O2 1_555 1_555
C15 O3 1_555 1_555
C17 O4 1_555 1_555

#END
