
#######################################################################
#
#                 Cambridge Crystallographic Data Centre
#                                CCDC 
#
#######################################################################
#
# If this CIF has been generated from an entry in the Cambridge 
# Structural Database, then it will include bibliographic, chemical, 
# crystal, experimental, refinement or atomic coordinate data resulting 
# from the CCDC's data processing and validation procedures.
#
#######################################################################

data_MIYZEB
_chemical_formula_moiety         'C22 H22 Cl1 F3 N4 O3'
_chemical_name_systematic        
4-((3-Chloro-5-cyclopropyl-7-(trifluoromethyl)pyrazolo[1,5-a]pyridin-2-yl)carbonyl)-1-(2-hydroxybicyclo[3.1.0]hex-3-yl)piperazin-2-one
_symmetry_cell_setting           monoclinic
_symmetry_space_group_name_H-M   'P 21'
_symmetry_Int_Tables_number      4
_space_group_name_Hall           'P 2yb'
loop_
_symmetry_equiv_pos_site_id
_symmetry_equiv_pos_as_xyz
1 x,y,z
2 -x,1/2+y,-z
_cell_length_a                   14.4726(2)
_cell_length_b                   10.0476(2)
_cell_length_c                   15.3526(2)
_cell_angle_alpha                90
_cell_angle_beta                 100.1250(10)
_cell_angle_gamma                90
_cell_volume                     2197.73
_cell_formula_units_Z            4
loop_
_atom_site_label
_atom_site_type_symbol
_atom_site_fract_x
_atom_site_fract_y
_atom_site_fract_z
C1 C 0.69751(19) 0.6326(3) 0.78681(18)
C2 C 0.7958(2) 0.6840(4) 0.80290(19)
C3 C 0.8327(2) 0.7801(3) 0.7528(2)
C4 C 0.92698(19) 0.7908(3) 0.7899(2)
C5 C 1.00348(19) 0.8674(3) 0.7733(2)
H1 H 0.9952 0.9280 0.7268
C6 C 1.0897(2) 0.8531(4) 0.8252(2)
C7 C 1.0992(2) 0.7585(4) 0.8957(2)
H2 H 1.1576 0.7480 0.9315
C8 C 1.0272(2) 0.6844(4) 0.9123(2)
C9 C 1.0335(3) 0.5856(5) 0.9863(3)
C10 C 1.1728(2) 0.9327(4) 0.8133(3)
H3 H 1.2319 0.9058 0.8508
C11 C 1.1827(3) 0.9875(5) 0.7262(3)
H4 H 1.2450 0.9894 0.7112
H5 H 1.1323 0.9706 0.6768
C12 C 1.1634(3) 1.0779(5) 0.7955(4)
H6 H 1.1011 1.1165 0.7890
H7 H 1.2139 1.1354 0.8234
C13 C 0.6971(2) 0.6430(4) 0.94856(19)
H8 H 0.7353 0.7219 0.9467
H9 H 0.7378 0.5726 0.9763
C14 C 0.6240(2) 0.6718(3) 1.00511(19)
C15 C 0.5387(2) 0.4930(4) 0.9242(2)
H10 H 0.4747 0.4598 0.9123
H11 H 0.5798 0.4192 0.9453
C16 C 0.5638(2) 0.5455(4) 0.8408(2)
H12 H 0.5611 0.4740 0.7980
H13 H 0.5188 0.6130 0.8162
C17 C 0.4900(2) 0.5863(3) 1.0614(2)
H14 H 0.5114 0.6574 1.1039
C18 C 0.50321(19) 0.4554(4) 1.1118(2)
H15 H 0.4970 0.3816 1.0694
C19 C 0.4220(2) 0.4520(5) 1.1609(2)
H16 H 0.4037 0.3663 1.1832
C20 C 0.3954(3) 0.5747(5) 1.2024(3)
H17 H 0.4393 0.6484 1.2085
H18 H 0.3602 0.5659 1.2504
C21 C 0.3473(2) 0.5402(5) 1.1127(3)
H19 H 0.2818 0.5104 1.1042
C22 C 0.3844(2) 0.6002(4) 1.0352(2)
H20 H 0.3663 0.6930 1.0270
H21 H 0.3614 0.5519 0.9810
Cl1 Cl 0.77703(6) 0.87467(8) 0.66774(6)
F1 F 1.0113(2) 0.4633(3) 0.9588(2)
F2 F 1.11898(15) 0.5826(4) 1.03231(18)
F3 F 0.97698(19) 0.6177(4) 1.04264(15)
N1 N 0.94007(16) 0.7005(3) 0.85865(16)
N2 N 0.86099(16) 0.6350(3) 0.86774(16)
N3 N 0.65832(17) 0.6030(3) 0.85745(15)
N4 N 0.54671(16) 0.5941(3) 0.99189(15)
O1 O 0.65486(14) 0.6171(3) 0.71112(13)
O2 O 0.63928(16) 0.7598(3) 1.06227(16)
O3 O 0.59476(13) 0.4540(2) 1.16276(15)
H22 H 0.6104 0.3770 1.1756
C23 C 0.29684(19) 0.6827(3) 0.70479(19)
C24 C 0.20002(19) 0.6241(3) 0.68882(19)
C25 C 0.1635(2) 0.5308(3) 0.7402(2)
C26 C 0.07001(19) 0.5177(3) 0.70407(19)
C27 C -0.00701(19) 0.4423(4) 0.7222(2)
H23 H 0.0012 0.3834 0.7696
C28 C -0.0934(2) 0.4558(4) 0.6703(2)
C29 C -0.1034(2) 0.5471(4) 0.5988(2)
H24 H -0.1621 0.5582 0.5636
C30 C -0.0299(2) 0.6183(4) 0.5803(2)
C31 C -0.0364(3) 0.7104(5) 0.5029(3)
C32 C -0.1764(2) 0.3774(4) 0.6846(3)
H25 H -0.2354 0.4030 0.6466
C33 C -0.1677(3) 0.2323(4) 0.7055(3)
H26 H -0.2183 0.1744 0.6784
H27 H -0.1056 0.1930 0.7132
C34 C -0.1871(3) 0.3258(5) 0.7729(3)
H28 H -0.1370 0.3440 0.8223
H29 H -0.2496 0.3254 0.7875
C35 C 0.29851(19) 0.6742(4) 0.54354(19)
H30 H 0.2554 0.7416 0.5153
H31 H 0.2632 0.5925 0.5454
C36 C 0.37369(19) 0.6512(3) 0.48745(18)
C37 C 0.4472(2) 0.8406(3) 0.5669(2)
H32 H 0.4004 0.9064 0.5431
H33 H 0.5080 0.8839 0.5780
C38 C 0.4255(2) 0.7867(4) 0.6504(2)
H34 H 0.4748 0.7260 0.6765
H35 H 0.4228 0.8589 0.6919
C39 C 0.51521(18) 0.7344(3) 0.44132(19)
H36 H 0.5078 0.6506 0.4082
C40 C 0.61801(19) 0.7458(3) 0.4844(2)
H37 H 0.6245 0.8144 0.5305
C41 C 0.6646(2) 0.7938(4) 0.4092(2)
H38 H 0.7265 0.8360 0.4235
C42 C 0.6364(2) 0.7304(4) 0.3199(2)
H39 H 0.6807 0.7344 0.2792
H40 H 0.5991 0.6497 0.3162
C43 C 0.5911(2) 0.8579(4) 0.3409(2)
H41 H 0.6063 0.9405 0.3125
C44 C 0.4986(2) 0.8478(4) 0.3740(2)
H42 H 0.4475 0.8268 0.3260
H43 H 0.4842 0.9302 0.4018
Cl2 Cl 0.22102(6) 0.44315(9) 0.82964(6)
F4 F 0.02272(16) 0.6788(4) 0.44971(14)
F5 F -0.12156(14) 0.7104(4) 0.45453(16)
F6 F -0.0172(2) 0.8360(3) 0.5289(2)
N5 N 0.05569(15) 0.6033(3) 0.63326(16)
N6 N 0.13458(15) 0.6705(3) 0.62310(16)
N7 N 0.33500(16) 0.7161(3) 0.63406(16)
N8 N 0.44783(15) 0.7332(3) 0.50267(16)
O4 O 0.33768(14) 0.6999(3) 0.78091(13)
O5 O 0.36193(14) 0.5650(3) 0.43062(14)
O6 O 0.65622(14) 0.6242(2) 0.52212(13)
H44 H 0.6574 0.6255 0.5757
loop_
_geom_bond_atom_site_label_1
_geom_bond_atom_site_label_2
_geom_bond_site_symmetry_1
_geom_bond_site_symmetry_2
C1 C2 1_555 1_555
C2 C3 1_555 1_555
C3 C4 1_555 1_555
C4 C5 1_555 1_555
C5 H1 1_555 1_555
C6 C5 1_555 1_555
C7 C6 1_555 1_555
H2 C7 1_555 1_555
C8 C7 1_555 1_555
C9 C8 1_555 1_555
C10 C6 1_555 1_555
H3 C10 1_555 1_555
C11 C10 1_555 1_555
H4 C11 1_555 1_555
H5 C11 1_555 1_555
C12 C10 1_555 1_555
H6 C12 1_555 1_555
H7 C12 1_555 1_555
C13 H8 1_555 1_555
H9 C13 1_555 1_555
C14 C13 1_555 1_555
C15 H10 1_555 1_555
H11 C15 1_555 1_555
C16 C15 1_555 1_555
H12 C16 1_555 1_555
H13 C16 1_555 1_555
C17 H14 1_555 1_555
C18 C17 1_555 1_555
H15 C18 1_555 1_555
C19 C18 1_555 1_555
H16 C19 1_555 1_555
C20 C19 1_555 1_555
H17 C20 1_555 1_555
H18 C20 1_555 1_555
C21 C19 1_555 1_555
H19 C21 1_555 1_555
C22 C17 1_555 1_555
H20 C22 1_555 1_555
H21 C22 1_555 1_555
Cl1 C3 1_555 1_555
F1 C9 1_555 1_555
F2 C9 1_555 1_555
F3 C9 1_555 1_555
N1 C4 1_555 1_555
N2 C2 1_555 1_555
N3 C1 1_555 1_555
N4 C14 1_555 1_555
O1 C1 1_555 1_555
O2 C14 1_555 1_555
O3 C18 1_555 1_555
H22 O3 1_555 1_555
C23 C24 1_555 1_555
C24 C25 1_555 1_555
C25 C26 1_555 1_555
C26 C27 1_555 1_555
C27 H23 1_555 1_555
C28 C27 1_555 1_555
C29 C28 1_555 1_555
H24 C29 1_555 1_555
C30 C29 1_555 1_555
C31 C30 1_555 1_555
C32 C28 1_555 1_555
H25 C32 1_555 1_555
C33 C32 1_555 1_555
H26 C33 1_555 1_555
H27 C33 1_555 1_555
C34 C32 1_555 1_555
H28 C34 1_555 1_555
H29 C34 1_555 1_555
C35 H30 1_555 1_555
H31 C35 1_555 1_555
C36 C35 1_555 1_555
C37 H32 1_555 1_555
H33 C37 1_555 1_555
C38 C37 1_555 1_555
H34 C38 1_555 1_555
H35 C38 1_555 1_555
C39 H36 1_555 1_555
C40 C39 1_555 1_555
H37 C40 1_555 1_555
C41 C40 1_555 1_555
H38 C41 1_555 1_555
C42 C41 1_555 1_555
H39 C42 1_555 1_555
H40 C42 1_555 1_555
C43 C41 1_555 1_555
H41 C43 1_555 1_555
C44 C39 1_555 1_555
H42 C44 1_555 1_555
H43 C44 1_555 1_555
Cl2 C25 1_555 1_555
F4 C31 1_555 1_555
F5 C31 1_555 1_555
F6 C31 1_555 1_555
N5 C26 1_555 1_555
N6 C24 1_555 1_555
N7 C23 1_555 1_555
N8 C36 1_555 1_555
O4 C23 1_555 1_555
O5 C36 1_555 1_555
O6 C40 1_555 1_555
H44 O6 1_555 1_555
C8 N1 1_555 1_555
C11 C12 1_555 1_555
C13 N3 1_555 1_555
C15 N4 1_555 1_555
C16 N3 1_555 1_555
C17 N4 1_555 1_555
C20 C21 1_555 1_555
C21 C22 1_555 1_555
N1 N2 1_555 1_555
C30 N5 1_555 1_555
C33 C34 1_555 1_555
C35 N7 1_555 1_555
C37 N8 1_555 1_555
C38 N7 1_555 1_555
C39 N8 1_555 1_555
C42 C43 1_555 1_555
C43 C44 1_555 1_555
N5 N6 1_555 1_555

#END
