
#######################################################################
#
#                 Cambridge Crystallographic Data Centre
#                                CCDC 
#
#######################################################################
#
# If this CIF has been generated from an entry in the Cambridge 
# Structural Database, then it will include bibliographic, chemical, 
# crystal, experimental, refinement or atomic coordinate data resulting 
# from the CCDC's data processing and validation procedures.
#
#######################################################################

data_MIZCOO
_chemical_formula_moiety         'C17 H39 B10 N5 O4'
_chemical_name_systematic        
6-(1,7-Dicarbadodecaboran-1-yl)-2,4-bis(bis(methoxyethyl)amino)-1,3,5-triazine
_chemical_properties_biological  
'low cytotoxicity against B-16 Melanoma cancer cells'
_symmetry_cell_setting           triclinic
_symmetry_space_group_name_H-M   'P -1'
_symmetry_Int_Tables_number      2
_space_group_name_Hall           '-P 1'
loop_
_symmetry_equiv_pos_site_id
_symmetry_equiv_pos_as_xyz
1 x,y,z
2 -x,-y,-z
_cell_length_a                   10.7570(18)
_cell_length_b                   12.265(2)
_cell_length_c                   12.390(2)
_cell_angle_alpha                109.939(3)
_cell_angle_beta                 100.064(3)
_cell_angle_gamma                106.740(3)
_cell_volume                     1402.28
_exptl_crystal_colour            colorless
_exptl_crystal_description       block
_chemical_melting_point          40-45deg.C
_cell_formula_units_Z            2
loop_
_atom_site_label
_atom_site_type_symbol
_atom_site_fract_x
_atom_site_fract_y
_atom_site_fract_z
O1 O 1.1570(2) 0.6974(2) 0.20081(17)
O2 O 0.6360(3) 0.5733(3) -0.0610(2)
O3 O 0.4109(2) 0.8565(2) 0.03984(19)
O4 O 0.7287(3) 1.23357(19) 0.3214(2)
N1 N 0.72137(18) 0.88909(16) 0.37322(16)
N2 N 0.82761(18) 0.74049(16) 0.33074(15)
N3 N 0.77094(18) 0.82042(16) 0.18581(15)
N4 N 0.8720(2) 0.67463(17) 0.14920(16)
N5 N 0.66391(19) 0.96010(17) 0.22894(16)
C1 C 0.7841(2) 0.81403(19) 0.52136(18)
C2 C 0.7428(7) 0.6807(4) 0.6580(3)
H1 H 0.7084 0.5895 0.6631
C3 C 0.7764(2) 0.81421(18) 0.39850(18)
C4 C 0.7199(2) 0.88761(18) 0.26293(18)
C5 C 0.8222(2) 0.74808(19) 0.22328(18)
C6 C 0.9265(3) 0.5920(2) 0.1848(2)
H2 H 0.9208 0.5238 0.1129
H3 H 0.8702 0.5562 0.2267
C7 C 1.0715(3) 0.6561(3) 0.2646(2)
H4 H 1.0795 0.7270 0.3353
H5 H 1.0991 0.5985 0.2912
C8 C 1.2940(3) 0.7647(3) 0.2733(3)
H6 H 1.3482 0.7913 0.2265
H7 H 1.3270 0.7120 0.3025
H8 H 1.3000 0.8367 0.3404
C9 C 0.8702(3) 0.6734(2) 0.0307(2)
H9 H 0.9551 0.6699 0.0165
H10 H 0.8654 0.7512 0.0307
C10 C 0.7550(4) 0.5671(3) -0.0700(3)
H11 H 0.7648 0.5682 -0.1460
H12 H 0.7577 0.4889 -0.0695
C11 C 0.5205(4) 0.4710(5) -0.1517(4)
H13 H 0.4387 0.4823 -0.1389
H14 H 0.5208 0.3943 -0.1476
H15 H 0.5242 0.4676 -0.2296
C12 C 0.6505(3) 0.9574(2) 0.1082(2)
H16 H 0.7330 0.9547 0.0878
H17 H 0.6411 1.0339 0.1087
C13 C 0.5309(3) 0.8477(3) 0.0136(2)
H18 H 0.5285 0.8474 -0.0651
H19 H 0.5384 0.7704 0.0126
C14 C 0.2922(4) 0.7504(4) -0.0367(4)
H20 H 0.2143 0.7618 -0.0142
H21 H 0.3007 0.6773 -0.0293
H22 H 0.2809 0.7400 -0.1187
C15 C 0.6018(2) 1.0327(2) 0.3061(2)
H23 H 0.5689 0.9901 0.3546
H24 H 0.5236 1.0347 0.2554
C16 C 0.6954(3) 1.1644(2) 0.3882(2)
H25 H 0.6515 1.2027 0.4439
H26 H 0.7778 1.1642 0.4347
C17 C 0.8035(6) 1.3619(3) 0.3952(4)
H27 H 0.8241 1.4059 0.3457
H28 H 0.8868 1.3717 0.4479
H29 H 0.7505 1.3952 0.4424
B1 B 0.8036(5) 0.8195(4) 0.7863(3)
H30 H 0.8111 0.8198 0.8761
B2 B 0.9178(5) 0.7808(5) 0.7096(3)
H31 H 1.0005 0.7577 0.7503
B3 B 0.9187(3) 0.9281(3) 0.7553(3)
H32 H 1.0055 1.0057 0.8291
B4 B 0.7587(4) 0.9273(4) 0.7430(3)
H33 H 0.7369 1.0012 0.8075
B5 B 0.6482(4) 0.7796(5) 0.6811(3)
H34 H 0.5514 0.7547 0.7021
B6 B 0.6609(5) 0.7030(4) 0.5368(3)
H35 H 0.5737 0.6271 0.4620
B7 B 0.8291(5) 0.7042(3) 0.5546(3)
H36 H 0.8519 0.6295 0.4922
B8 B 0.9407(3) 0.8623(4) 0.6183(3)
H37 H 1.0367 0.8918 0.5972
B9 B 0.8423(4) 0.9551(3) 0.6409(3)
H38 H 0.8747 1.0460 0.6351
B10 B 0.6722(4) 0.8591(4) 0.5916(3)
H39 H 0.5928 0.8862 0.5519
loop_
_geom_bond_atom_site_label_1
_geom_bond_atom_site_label_2
_geom_bond_site_symmetry_1
_geom_bond_site_symmetry_2
O1 C7 1_555 1_555
O2 C10 1_555 1_555
O3 C13 1_555 1_555
O4 C16 1_555 1_555
N1 C3 1_555 1_555
N2 C3 1_555 1_555
N3 C4 1_555 1_555
N4 C5 1_555 1_555
N5 C4 1_555 1_555
C1 C3 1_555 1_555
C2 H1 1_555 1_555
C4 N1 1_555 1_555
C5 N2 1_555 1_555
C6 N4 1_555 1_555
H2 C6 1_555 1_555
H3 C6 1_555 1_555
C7 C6 1_555 1_555
H4 C7 1_555 1_555
H5 C7 1_555 1_555
C8 O1 1_555 1_555
H6 C8 1_555 1_555
H7 C8 1_555 1_555
H8 C8 1_555 1_555
C9 N4 1_555 1_555
H9 C9 1_555 1_555
H10 C9 1_555 1_555
C10 C9 1_555 1_555
H11 C10 1_555 1_555
H12 C10 1_555 1_555
C11 O2 1_555 1_555
H13 C11 1_555 1_555
H14 C11 1_555 1_555
H15 C11 1_555 1_555
C12 N5 1_555 1_555
H16 C12 1_555 1_555
H17 C12 1_555 1_555
C13 C12 1_555 1_555
H18 C13 1_555 1_555
H19 C13 1_555 1_555
C14 O3 1_555 1_555
H20 C14 1_555 1_555
H21 C14 1_555 1_555
H22 C14 1_555 1_555
C15 N5 1_555 1_555
H23 C15 1_555 1_555
H24 C15 1_555 1_555
C16 C15 1_555 1_555
H25 C16 1_555 1_555
H26 C16 1_555 1_555
C17 O4 1_555 1_555
H27 C17 1_555 1_555
H28 C17 1_555 1_555
H29 C17 1_555 1_555
B1 C2 1_555 1_555
H30 B1 1_555 1_555
B2 C2 1_555 1_555
H31 B2 1_555 1_555
B3 B1 1_555 1_555
H32 B3 1_555 1_555
B4 B1 1_555 1_555
H33 B4 1_555 1_555
B5 C2 1_555 1_555
H34 B5 1_555 1_555
B6 C1 1_555 1_555
H35 B6 1_555 1_555
B7 C1 1_555 1_555
H36 B7 1_555 1_555
B8 C1 1_555 1_555
H37 B8 1_555 1_555
B9 C1 1_555 1_555
H38 B9 1_555 1_555
B10 C1 1_555 1_555
H39 B10 1_555 1_555
N3 C5 1_555 1_555
C2 B6 1_555 1_555
C2 B7 1_555 1_555
B1 B2 1_555 1_555
B1 B5 1_555 1_555
B2 B3 1_555 1_555
B2 B7 1_555 1_555
B2 B8 1_555 1_555
B3 B4 1_555 1_555
B3 B8 1_555 1_555
B3 B9 1_555 1_555
B4 B5 1_555 1_555
B4 B9 1_555 1_555
B4 B10 1_555 1_555
B5 B6 1_555 1_555
B5 B10 1_555 1_555
B6 B7 1_555 1_555
B6 B10 1_555 1_555
B7 B8 1_555 1_555
B8 B9 1_555 1_555
B9 B10 1_555 1_555

#END
