
#######################################################################
#
#                 Cambridge Crystallographic Data Centre
#                                CCDC 
#
#######################################################################
#
# If this CIF has been generated from an entry in the Cambridge 
# Structural Database, then it will include bibliographic, chemical, 
# crystal, experimental, refinement or atomic coordinate data resulting 
# from the CCDC's data processing and validation procedures.
#
#######################################################################

data_MIZTEU
_chemical_formula_moiety         'C32 H46 Li2 N2 O4 P2'
_chemical_name_systematic        
bis(\m~2~-1-Methyl-1,3-benzazaphosphol-2-yl)-bis(bis(tetrahydrofuran)-lithium)
_symmetry_cell_setting           orthorhombic
_symmetry_space_group_name_H-M   'P b c a'
_symmetry_Int_Tables_number      61
_space_group_name_Hall           '-P 2ac 2ab'
loop_
_symmetry_equiv_pos_site_id
_symmetry_equiv_pos_as_xyz
1 x,y,z
2 1/2+x,y,1/2-z
3 x,1/2-y,1/2+z
4 1/2-x,1/2+y,z
5 -x,-y,-z
6 1/2-x,-y,1/2+z
7 -x,1/2+y,1/2-z
8 1/2+x,1/2-y,-z
_cell_length_a                   14.620(3)
_cell_length_b                   13.658(3)
_cell_length_c                   16.966(3)
_cell_angle_alpha                90
_cell_angle_beta                 90
_cell_angle_gamma                90
_cell_volume                     3387.77
_exptl_crystal_colour            colorless
_exptl_crystal_description       prism
_cell_formula_units_Z            4
loop_
_atom_site_label
_atom_site_type_symbol
_atom_site_fract_x
_atom_site_fract_y
_atom_site_fract_z
C1 C 0.0423(2) 0.2870(2) 0.56435(13)
C2 C 0.1295(2) 0.2590(2) 0.59058(13)
C3 C 0.1896(2) 0.3332(2) 0.6155(2)
H1 H 0.2481(2) 0.3169(2) 0.6324(2)
C4 C 0.1625(3) 0.4300(2) 0.6149(2)
H2 H 0.2028(3) 0.4785(2) 0.6315(2)
C5 C 0.0758(3) 0.4552(2) 0.5898(2)
H3 H 0.0583(3) 0.5207(2) 0.5903(2)
C6 C 0.0146(2) 0.3855(2) 0.5641(2)
H4 H -0.0435(2) 0.4032(2) 0.5469(2)
C7 C -0.2592(2) 0.1177(3) 0.6822(2)
H5 H -0.2864(2) 0.1117(3) 0.7341(2)
H6 H -0.2524(2) 0.1866(3) 0.6698(2)
C8 C -0.1679(2) 0.0663(2) 0.6793(2)
H7 H -0.1183(2) 0.1136(2) 0.6788(2)
H8 H -0.1604(2) 0.0238(2) 0.7246(2)
C9 C -0.3177(2) 0.0676(3) 0.6215(2)
H9 H -0.3742(2) 0.0442(3) 0.6447(2)
H10 H -0.3322(2) 0.1119(3) 0.5785(2)
C10 C -0.2610(2) -0.0154(3) 0.5931(2)
H11 H -0.2769(2) -0.0750(3) 0.6211(2)
H12 H -0.2708(2) -0.0260(3) 0.5372(2)
C11 C 0.0753(2) -0.1983(2) 0.7426(2)
H13 H 0.0746(2) -0.1968(2) 0.7998(2)
H14 H 0.1345(2) -0.2218(2) 0.7251(2)
C12 C 0.0558(2) -0.0983(2) 0.7094(2)
H15 H 0.0276(2) -0.0569(2) 0.7489(2)
H16 H 0.1120(2) -0.0675(2) 0.6917(2)
C13 C -0.0006(3) -0.2630(2) 0.7115(2)
H17 H 0.0239(3) -0.3144(2) 0.6782(2)
H18 H -0.0344(3) -0.2928(2) 0.7545(2)
C14 C -0.0608(2) -0.1956(2) 0.6651(2)
H19 H -0.0830(2) -0.2279(2) 0.6179(2)
H20 H -0.1129(2) -0.1750(2) 0.6963(2)
C15 C -0.1021(2) 0.2210(2) 0.5101(2)
H21 H -0.1168(2) 0.2895(2) 0.5102(2)
H22 H -0.1450(2) 0.1863(2) 0.5426(2)
H23 H -0.1052(2) 0.1964(2) 0.4572(2)
C16 C 0.0305(2) 0.1159(2) 0.54788(14)
Li1 Li -0.0467(3) -0.0221(3) 0.5619(2)
N1 N -0.00977(13) 0.20713(14) 0.54092(11)
O1 O -0.16842(12) 0.01026(14) 0.60779(10)
O2 O -0.00475(13) -0.11291(13) 0.64483(11)
P1 P 0.14008(5) 0.12874(5) 0.58512(4)
C16D C -0.0305(2) -0.1159(2) 0.45212(14)
Li1D Li 0.0467(3) 0.0221(3) 0.4381(2)
O1D O 0.16842(12) -0.01026(14) 0.39221(10)
C8D C 0.1679(2) -0.0663(2) 0.3207(2)
C7D C 0.2592(2) -0.1177(3) 0.3178(2)
H5D H 0.2864(2) -0.1117(3) 0.2659(2)
H6D H 0.2524(2) -0.1866(3) 0.3302(2)
C9D C 0.3177(2) -0.0676(3) 0.3785(2)
H9D H 0.3742(2) -0.0442(3) 0.3553(2)
H10D H 0.3322(2) -0.1119(3) 0.4215(2)
C10D C 0.2610(2) 0.0154(3) 0.4069(2)
H11D H 0.2769(2) 0.0750(3) 0.3789(2)
H12D H 0.2708(2) 0.0260(3) 0.4628(2)
H7D H 0.1183(2) -0.1136(2) 0.3212(2)
H8D H 0.1604(2) -0.0238(2) 0.2754(2)
O2D O 0.00475(13) 0.11291(13) 0.35517(11)
C12D C -0.0558(2) 0.0983(2) 0.2906(2)
C11D C -0.0753(2) 0.1983(2) 0.2574(2)
H13D H -0.0746(2) 0.1968(2) 0.2002(2)
H14D H -0.1345(2) 0.2218(2) 0.2749(2)
C13D C 0.0006(3) 0.2630(2) 0.2885(2)
H17D H -0.0239(3) 0.3144(2) 0.3218(2)
H18D H 0.0344(3) 0.2928(2) 0.2455(2)
C14D C 0.0608(2) 0.1956(2) 0.3349(2)
H19D H 0.0830(2) 0.2279(2) 0.3821(2)
H20D H 0.1129(2) 0.1750(2) 0.3037(2)
H15D H -0.0276(2) 0.0569(2) 0.2511(2)
H16D H -0.1120(2) 0.0675(2) 0.3083(2)
N1D N 0.00977(13) -0.20713(14) 0.45908(11)
C1D C -0.0423(2) -0.2870(2) 0.43565(13)
C2D C -0.1295(2) -0.2590(2) 0.40942(13)
C3D C -0.1896(2) -0.3332(2) 0.3845(2)
H1D H -0.2481(2) -0.3169(2) 0.3676(2)
C4D C -0.1625(3) -0.4300(2) 0.3851(2)
H2D H -0.2028(3) -0.4785(2) 0.3685(2)
C5D C -0.0758(3) -0.4552(2) 0.4102(2)
H3D H -0.0583(3) -0.5207(2) 0.4097(2)
C6D C -0.0146(2) -0.3855(2) 0.4359(2)
H4D H 0.0435(2) -0.4032(2) 0.4531(2)
P1D P -0.14008(5) -0.12874(5) 0.41488(4)
C15D C 0.1021(2) -0.2210(2) 0.4899(2)
H21D H 0.1168(2) -0.2895(2) 0.4898(2)
H22D H 0.1450(2) -0.1863(2) 0.4574(2)
H23D H 0.1052(2) -0.1964(2) 0.5428(2)
loop_
_geom_bond_atom_site_label_1
_geom_bond_atom_site_label_2
_geom_bond_site_symmetry_1
_geom_bond_site_symmetry_2
C1 C2 1_555 1_555
C2 C3 1_555 1_555
C3 H1 1_555 1_555
C4 C3 1_555 1_555
H2 C4 1_555 1_555
C5 C4 1_555 1_555
H3 C5 1_555 1_555
C6 C1 1_555 1_555
H4 C6 1_555 1_555
C7 H5 1_555 1_555
H6 C7 1_555 1_555
C8 C7 1_555 1_555
H7 C8 1_555 1_555
H8 C8 1_555 1_555
C9 C7 1_555 1_555
H9 C9 1_555 1_555
H10 C9 1_555 1_555
C10 C9 1_555 1_555
H11 C10 1_555 1_555
H12 C10 1_555 1_555
C11 H13 1_555 1_555
H14 C11 1_555 1_555
C12 C11 1_555 1_555
H15 C12 1_555 1_555
H16 C12 1_555 1_555
C13 C11 1_555 1_555
H17 C13 1_555 1_555
H18 C13 1_555 1_555
C14 C13 1_555 1_555
H19 C14 1_555 1_555
H20 C14 1_555 1_555
C15 H21 1_555 1_555
H22 C15 1_555 1_555
H23 C15 1_555 1_555
C16 Li1 1_555 1_555
Li1 O1 1_555 1_555
N1 C1 1_555 1_555
O1 C8 1_555 1_555
O2 C12 1_555 1_555
P1 C2 1_555 1_555
C16D Li1 1_555 1_555
Li1D C16 1_555 1_555
O1D Li1D 1_555 1_555
C8D O1D 1_555 1_555
C7D C8D 1_555 1_555
H5D C7D 1_555 1_555
H6D C7D 1_555 1_555
C9D C7D 1_555 1_555
H9D C9D 1_555 1_555
H10D C9D 1_555 1_555
C10D O1D 1_555 1_555
H11D C10D 1_555 1_555
H12D C10D 1_555 1_555
H7D C8D 1_555 1_555
H8D C8D 1_555 1_555
O2D Li1D 1_555 1_555
C12D O2D 1_555 1_555
C11D C12D 1_555 1_555
H13D C11D 1_555 1_555
H14D C11D 1_555 1_555
C13D C11D 1_555 1_555
H17D C13D 1_555 1_555
H18D C13D 1_555 1_555
C14D O2D 1_555 1_555
H19D C14D 1_555 1_555
H20D C14D 1_555 1_555
H15D C12D 1_555 1_555
H16D C12D 1_555 1_555
N1D C16D 1_555 1_555
C1D N1D 1_555 1_555
C2D C1D 1_555 1_555
C3D C2D 1_555 1_555
H1D C3D 1_555 1_555
C4D C3D 1_555 1_555
H2D C4D 1_555 1_555
C5D C4D 1_555 1_555
H3D C5D 1_555 1_555
C6D C1D 1_555 1_555
H4D C6D 1_555 1_555
P1D C16D 1_555 1_555
C15D N1D 1_555 1_555
H21D C15D 1_555 1_555
H22D C15D 1_555 1_555
H23D C15D 1_555 1_555
C5 C6 1_555 1_555
C10 O1 1_555 1_555
C14 O2 1_555 1_555
C15 N1 1_555 1_555
C16 N1 1_555 1_555
C16 P1 1_555 1_555
Li1 O2 1_555 1_555
C16D Li1D 1_555 1_555
C9D C10D 1_555 1_555
C13D C14D 1_555 1_555
C2D P1D 1_555 1_555
C5D C6D 1_555 1_555

#END
