
#######################################################################
#
#                 Cambridge Crystallographic Data Centre
#                                CCDC 
#
#######################################################################
#
# If this CIF has been generated from an entry in the Cambridge 
# Structural Database, then it will include bibliographic, chemical, 
# crystal, experimental, refinement or atomic coordinate data resulting 
# from the CCDC's data processing and validation procedures.
#
#######################################################################

data_MNIANL11
_chemical_name_common            m-nitroaniline
_chemical_formula_moiety         'C6 H6 N2 O2'
_chemical_name_systematic        3-nitroaniline
_symmetry_cell_setting           orthorhombic
_symmetry_space_group_name_H-M   'P c a 21'
_symmetry_Int_Tables_number      29
_space_group_name_Hall           'P 2c -2ac'
loop_
_symmetry_equiv_pos_site_id
_symmetry_equiv_pos_as_xyz
1 x,y,z
2 -x,-y,1/2+z
3 1/2-x,y,1/2+z
4 1/2+x,-y,z
_cell_length_a                   18.7169(4)
_cell_length_b                   6.5215(2)
_cell_length_c                   5.00140(10)
_cell_angle_alpha                90
_cell_angle_beta                 90
_cell_angle_gamma                90
_cell_volume                     610.482
_exptl_crystal_description       block
_cell_formula_units_Z            4
_exptl_crystal_recrystallization_method ethanol
_exptl_crystal_preparation       'crystal was mounted on a graphite fibre'
loop_
_atom_site_label
_atom_site_type_symbol
_atom_site_fract_x
_atom_site_fract_y
_atom_site_fract_z
O1 O 0.39879(6) 1.06784(19) 0.0795(3)
O2 O 0.30390(6) 0.89456(19) -0.0261(3)
N1 N 0.30431(7) 0.2819(2) 0.5743(3)
N2 N 0.35802(7) 0.9202(2) 0.1096(3)
C1 C 0.37561(8) 0.7694(2) 0.3170(3)
C2 C 0.33173(9) 0.5977(2) 0.3415(3)
C3 C 0.34867(8) 0.4516(2) 0.5354(3)
C4 C 0.40898(8) 0.4832(3) 0.6982(3)
C5 C 0.45130(8) 0.6569(3) 0.6668(3)
C6 C 0.43576(8) 0.8043(3) 0.4746(4)
H1 H 0.2909(12) 0.582(4) 0.229(6)
H2 H 0.4634(12) 0.926(4) 0.460(7)
H3 H 0.4188(14) 0.387(4) 0.827(7)
H4 H 0.2771(11) 0.259(3) 0.448(6)
H5 H 0.4923(12) 0.677(3) 0.779(5)
H6 H 0.3231(12) 0.176(4) 0.657(6)
loop_
_geom_bond_atom_site_label_1
_geom_bond_atom_site_label_2
_geom_bond_site_symmetry_1
_geom_bond_site_symmetry_2
O1 N2 1_555 1_555
O2 N2 1_555 1_555
N1 C3 1_555 1_555
N2 C1 1_555 1_555
C1 C2 1_555 1_555
C2 C3 1_555 1_555
C3 C4 1_555 1_555
C4 C5 1_555 1_555
C5 C6 1_555 1_555
C6 C1 1_555 1_555
H1 C2 1_555 1_555
H2 C6 1_555 1_555
H3 C4 1_555 1_555
H4 N1 1_555 1_555
H5 C5 1_555 1_555
H6 N1 1_555 1_555

#END
