
#######################################################################
#
#                 Cambridge Crystallographic Data Centre
#                                CCDC 
#
#######################################################################
#
# If this CIF has been generated from an entry in the Cambridge 
# Structural Database, then it will include bibliographic, chemical, 
# crystal, experimental, refinement or atomic coordinate data resulting 
# from the CCDC's data processing and validation procedures.
#
#######################################################################

data_MOBBAH02
_chemical_formula_moiety         'C42 H50 B2 N4'
_chemical_name_systematic        
1,2-bis(1,3-bis(2,4,6-trimethylphenyl)-1,3-dihydro-2H-imidazol-2-ylidene)diborene
_symmetry_cell_setting           monoclinic
_symmetry_space_group_name_H-M   'P 21/c'
_symmetry_Int_Tables_number      14
_space_group_name_Hall           '-P 2ybc'
loop_
_symmetry_equiv_pos_site_id
_symmetry_equiv_pos_as_xyz
1 x,y,z
2 -x,1/2+y,1/2-z
3 -x,-y,-z
4 x,1/2-y,1/2+z
_cell_length_a                   12.7212(19)
_cell_length_b                   11.4045(17)
_cell_length_c                   14.332(2)
_cell_angle_alpha                90
_cell_angle_beta                 114.377(2)
_cell_angle_gamma                90
_cell_volume                     1893.9
_exptl_crystal_colour            red
_cell_formula_units_Z            2
_exptl_crystal_recrystallization_method 'diethyl ether'
loop_
_atom_site_label
_atom_site_type_symbol
_atom_site_fract_x
_atom_site_fract_y
_atom_site_fract_z
B1 B 0.0125(4) 0.9993(5) 0.0623(3)
H1 H 0.1003(19) 1.022(3) 0.119(2)
N1 N 0.0316(2) 0.8249(2) 0.18985(19)
N2 N -0.1380(2) 0.8426(2) 0.06946(19)
C1 C -0.0307(3) 0.8921(3) 0.1049(2)
C2 C -0.0365(3) 0.7389(3) 0.2046(3)
H2 H -0.0132 0.6839 0.2571
C3 C -0.1417(3) 0.7495(3) 0.1297(3)
H3 H -0.2056 0.7031 0.1198
C4 C -0.2396(3) 0.8848(3) -0.0151(2)
C5 C -0.2738(3) 0.8288(3) -0.1095(2)
C6 C -0.3743(3) 0.8681(4) -0.1889(3)
H4 H -0.3986 0.8320 -0.2525
C7 C -0.4389(3) 0.9581(4) -0.1768(3)
C8 C -0.4022(3) 1.0102(4) -0.0814(3)
H5 H -0.4460 1.0708 -0.0723
C9 C -0.3027(3) 0.9756(3) 0.0012(3)
C10 C -0.2646(4) 1.0335(5) 0.1045(3)
H6 H -0.1943 0.9979 0.1515
H7 H -0.3233 1.0240 0.1295
H8 H -0.2518 1.1156 0.0982
C11 C -0.5482(4) 0.9996(5) -0.2639(4)
H9 H -0.5612 0.9544 -0.3242
H10 H -0.5407 1.0809 -0.2773
H11 H -0.6122 0.9897 -0.2455
C12 C -0.2043(3) 0.7303(4) -0.1243(3)
H12 H -0.1383 0.7159 -0.0613
H13 H -0.1791 0.7510 -0.1767
H14 H -0.2509 0.6608 -0.1444
C13 C 0.1518(3) 0.8385(3) 0.2589(2)
C14 C 0.2361(3) 0.7980(3) 0.2300(2)
C15 C 0.3498(3) 0.8004(3) 0.3031(3)
H15 H 0.4078 0.7731 0.2850
C16 C 0.3800(3) 0.8416(3) 0.4013(3)
C17 C 0.2924(3) 0.8845(3) 0.4248(3)
H16 H 0.3114 0.9150 0.4900
C18 C 0.1777(3) 0.8841(3) 0.3561(2)
C19 C 0.0844(3) 0.9280(4) 0.3865(3)
H17 H 0.0108 0.9213 0.3292
H18 H 0.0988 1.0087 0.4070
H19 H 0.0842 0.8820 0.4425
C20 C 0.5030(3) 0.8329(4) 0.4809(3)
H20 H 0.5509 0.8009 0.4501
H21 H 0.5058 0.7827 0.5357
H22 H 0.5304 0.9096 0.5076
C21 C 0.2063(4) 0.7489(4) 0.1245(3)
H23 H 0.1245 0.7546 0.0847
H24 H 0.2294 0.6681 0.1299
H25 H 0.2460 0.7926 0.0916
B1B B -0.0125(4) 1.0007(5) -0.0623(3)
H1B H -0.1003(19) 0.978(3) -0.119(2)
N1B N -0.0316(2) 1.1751(2) -0.18985(19)
N2B N 0.1380(2) 1.1574(2) -0.06946(19)
C1B C 0.0307(3) 1.1079(3) -0.1049(2)
C2B C 0.0365(3) 1.2611(3) -0.2046(3)
H2B H 0.0132 1.3161 -0.2571
C3B C 0.1417(3) 1.2505(3) -0.1297(3)
H3B H 0.2056 1.2969 -0.1198
C4B C 0.2396(3) 1.1152(3) 0.0151(2)
C5B C 0.2738(3) 1.1712(3) 0.1095(2)
C6B C 0.3743(3) 1.1319(4) 0.1889(3)
H4B H 0.3986 1.1680 0.2525
C7B C 0.4389(3) 1.0419(4) 0.1768(3)
C8B C 0.4022(3) 0.9898(4) 0.0814(3)
H5B H 0.4460 0.9292 0.0723
C9B C 0.3027(3) 1.0244(3) -0.0012(3)
C10B C 0.2646(4) 0.9665(5) -0.1045(3)
H6B H 0.1943 1.0021 -0.1515
H7B H 0.3233 0.9760 -0.1295
H8B H 0.2518 0.8844 -0.0982
C11B C 0.5482(4) 1.0004(5) 0.2639(4)
H9B H 0.5612 1.0456 0.3242
H10B H 0.5407 0.9191 0.2773
H11B H 0.6122 1.0103 0.2455
C12B C 0.2043(3) 1.2697(4) 0.1243(3)
H12B H 0.1383 1.2841 0.0613
H13B H 0.1791 1.2490 0.1767
H14B H 0.2509 1.3392 0.1444
C13B C -0.1518(3) 1.1615(3) -0.2589(2)
C14B C -0.2361(3) 1.2020(3) -0.2300(2)
C15B C -0.3498(3) 1.1996(3) -0.3031(3)
H15B H -0.4078 1.2269 -0.2850
C16B C -0.3800(3) 1.1584(3) -0.4013(3)
C17B C -0.2924(3) 1.1155(3) -0.4248(3)
H16B H -0.3114 1.0850 -0.4900
C18B C -0.1777(3) 1.1159(3) -0.3561(2)
C19B C -0.0844(3) 1.0720(4) -0.3865(3)
H17B H -0.0108 1.0787 -0.3292
H18B H -0.0988 0.9913 -0.4070
H19B H -0.0842 1.1180 -0.4425
C20B C -0.5030(3) 1.1671(4) -0.4809(3)
H20B H -0.5509 1.1991 -0.4501
H21B H -0.5058 1.2173 -0.5357
H22B H -0.5304 1.0904 -0.5076
C21B C -0.2063(4) 1.2511(4) -0.1245(3)
H23B H -0.1245 1.2454 -0.0847
H24B H -0.2294 1.3319 -0.1299
H25B H -0.2460 1.2074 -0.0916
loop_
_geom_bond_atom_site_label_1
_geom_bond_atom_site_label_2
_geom_bond_site_symmetry_1
_geom_bond_site_symmetry_2
B1 H1 1_555 1_555
N1 C1 1_555 1_555
N2 C1 1_555 1_555
C1 B1 1_555 1_555
C2 N1 1_555 1_555
H2 C2 1_555 1_555
C3 N2 1_555 1_555
H3 C3 1_555 1_555
C4 N2 1_555 1_555
C5 C4 1_555 1_555
C6 C5 1_555 1_555
H4 C6 1_555 1_555
C7 C6 1_555 1_555
C8 C7 1_555 1_555
H5 C8 1_555 1_555
C9 C4 1_555 1_555
C10 C9 1_555 1_555
H6 C10 1_555 1_555
H7 C10 1_555 1_555
H8 C10 1_555 1_555
C11 C7 1_555 1_555
H9 C11 1_555 1_555
H10 C11 1_555 1_555
H11 C11 1_555 1_555
C12 C5 1_555 1_555
H12 C12 1_555 1_555
H13 C12 1_555 1_555
H14 C12 1_555 1_555
C13 N1 1_555 1_555
C14 C13 1_555 1_555
C15 C14 1_555 1_555
H15 C15 1_555 1_555
C16 C15 1_555 1_555
C17 C16 1_555 1_555
H16 C17 1_555 1_555
C18 C13 1_555 1_555
C19 C18 1_555 1_555
H17 C19 1_555 1_555
H18 C19 1_555 1_555
H19 C19 1_555 1_555
C20 C16 1_555 1_555
H20 C20 1_555 1_555
H21 C20 1_555 1_555
H22 C20 1_555 1_555
C21 C14 1_555 1_555
H23 C21 1_555 1_555
H24 C21 1_555 1_555
H25 C21 1_555 1_555
B1B B1 1_555 1_555
H1B B1B 1_555 1_555
N1B C1B 1_555 1_555
N2B C1B 1_555 1_555
C1B B1B 1_555 1_555
C2B N1B 1_555 1_555
H2B C2B 1_555 1_555
C3B N2B 1_555 1_555
H3B C3B 1_555 1_555
C4B N2B 1_555 1_555
C5B C4B 1_555 1_555
C6B C5B 1_555 1_555
H4B C6B 1_555 1_555
C7B C6B 1_555 1_555
C8B C7B 1_555 1_555
H5B C8B 1_555 1_555
C9B C4B 1_555 1_555
C10B C9B 1_555 1_555
H6B C10B 1_555 1_555
H7B C10B 1_555 1_555
H8B C10B 1_555 1_555
C11B C7B 1_555 1_555
H9B C11B 1_555 1_555
H10B C11B 1_555 1_555
H11B C11B 1_555 1_555
C12B C5B 1_555 1_555
H12B C12B 1_555 1_555
H13B C12B 1_555 1_555
H14B C12B 1_555 1_555
C13B N1B 1_555 1_555
C14B C13B 1_555 1_555
C15B C14B 1_555 1_555
H15B C15B 1_555 1_555
C16B C15B 1_555 1_555
C17B C16B 1_555 1_555
H16B C17B 1_555 1_555
C18B C13B 1_555 1_555
C19B C18B 1_555 1_555
H17B C19B 1_555 1_555
H18B C19B 1_555 1_555
H19B C19B 1_555 1_555
C20B C16B 1_555 1_555
H20B C20B 1_555 1_555
H21B C20B 1_555 1_555
H22B C20B 1_555 1_555
C21B C14B 1_555 1_555
H23B C21B 1_555 1_555
H24B C21B 1_555 1_555
H25B C21B 1_555 1_555
C2 C3 1_555 1_555
C8 C9 1_555 1_555
C17 C18 1_555 1_555
C2B C3B 1_555 1_555
C8B C9B 1_555 1_555
C17B C18B 1_555 1_555

#END
