
#######################################################################
#
#                 Cambridge Crystallographic Data Centre
#                                CCDC 
#
#######################################################################
#
# If this CIF has been generated from an entry in the Cambridge 
# Structural Database, then it will include bibliographic, chemical, 
# crystal, experimental, refinement or atomic coordinate data resulting 
# from the CCDC's data processing and validation procedures.
#
#######################################################################

data_MOBBUC
_chemical_formula_moiety         'C27 H27 Br1 N2'
_chemical_name_systematic        
2-Bromo-N-isopropyl-N-(2-(N-isopropyl-3-phenylprop-2-ynimidoyl)phenyl)aniline
_symmetry_cell_setting           orthorhombic
_symmetry_space_group_name_H-M   'P 21 21 21'
_symmetry_Int_Tables_number      19
_space_group_name_Hall           'P 2ac 2ab'
loop_
_symmetry_equiv_pos_site_id
_symmetry_equiv_pos_as_xyz
1 x,y,z
2 1/2-x,-y,1/2+z
3 1/2+x,1/2-y,-z
4 -x,1/2+y,1/2-z
_cell_length_a                   8.3871(4)
_cell_length_b                   8.7921(5)
_cell_length_c                   30.7243(18)
_cell_angle_alpha                90
_cell_angle_beta                 90
_cell_angle_gamma                90
_cell_volume                     2265.62
_cell_formula_units_Z            4
loop_
_atom_site_label
_atom_site_type_symbol
_atom_site_fract_x
_atom_site_fract_y
_atom_site_fract_z
Br1 Br 0.17342(6) 0.09005(7) 0.43996(2)
C1 C 0.2220(5) 0.2817(6) 0.32264(17)
C2 C -0.0040(6) 0.1392(6) 0.30296(19)
H1 H -0.0579 0.2155 0.3221
C3 C -0.0159(7) -0.0150(8) 0.3238(2)
H2 H 0.0553 -0.0861 0.3088
H3 H -0.1259 -0.0518 0.3218
H4 H 0.0153 -0.0077 0.3545
C4 C -0.0799(7) 0.1434(8) 0.2588(2)
H5 H -0.0631 0.2437 0.2457
H6 H -0.1945 0.1241 0.2616
H7 H -0.0317 0.0652 0.2403
C5 C 0.5286(6) 0.2739(6) 0.43108(16)
H8 H 0.4594 0.2205 0.4527
C6 C 0.6979(6) 0.2178(6) 0.4396(2)
H9 H 0.7092 0.1136 0.4287
H10 H 0.7191 0.2195 0.4710
H11 H 0.7741 0.2841 0.4247
C7 C 0.5089(6) 0.4427(5) 0.44020(18)
H12 H 0.5796 0.5009 0.4210
H13 H 0.5365 0.4636 0.4706
H14 H 0.3981 0.4725 0.4349
C8 C 0.1354(5) 0.3713(5) 0.35472(17)
C9 C 0.0716(5) 0.4534(5) 0.38005(17)
C10 C -0.0016(5) 0.5493(5) 0.41271(17)
C11 C 0.0316(6) 0.5279(6) 0.45634(18)
H15 H 0.1014 0.4485 0.4651
C12 C -0.0364(6) 0.6212(7) 0.48729(19)
H16 H -0.0130 0.6064 0.5172
C13 C -0.1374(7) 0.7351(7) 0.4748(2)
H17 H -0.1832 0.7997 0.4962
C14 C -0.1737(7) 0.7574(6) 0.4316(2)
H18 H -0.2454 0.8358 0.4233
C15 C -0.1050(6) 0.6645(6) 0.40022(19)
H19 H -0.1288 0.6798 0.3703
C16 C 0.3921(5) 0.3327(5) 0.31637(16)
C17 C 0.4317(5) 0.4027(6) 0.27791(16)
H20 H 0.3554 0.4062 0.2551
C18 C 0.5801(6) 0.4684(6) 0.27156(18)
H21 H 0.6066 0.5161 0.2448
C19 C 0.6881(6) 0.4624(6) 0.30539(17)
H22 H 0.7885 0.5112 0.3023
C20 C 0.6537(5) 0.3873(5) 0.34351(15)
H23 H 0.7320 0.3811 0.3658
C21 C 0.5049(6) 0.3201(5) 0.34980(16)
C22 C 0.4378(5) 0.0782(6) 0.38020(15)
C23 C 0.3223(7) -0.0055(5) 0.40215(15)
C24 C 0.3026(7) -0.1607(6) 0.39558(19)
H24 H 0.2245 -0.2152 0.4116
C25 C 0.3966(7) -0.2347(7) 0.3658(2)
H25 H 0.3840 -0.3409 0.3611
C26 C 0.5086(7) -0.1548(6) 0.34277(19)
H26 H 0.5712 -0.2056 0.3215
C27 C 0.5316(6) -0.0018(6) 0.35011(18)
H27 H 0.6124 0.0506 0.3345
N1 N 0.1654(5) 0.1799(5) 0.29880(14)
N2 N 0.4621(4) 0.2354(4) 0.38757(13)
loop_
_geom_bond_atom_site_label_1
_geom_bond_atom_site_label_2
_geom_bond_site_symmetry_1
_geom_bond_site_symmetry_2
Br1 C23 1_555 1_555
C1 C8 1_555 1_555
C2 H1 1_555 1_555
C3 C2 1_555 1_555
H2 C3 1_555 1_555
H3 C3 1_555 1_555
H4 C3 1_555 1_555
C4 C2 1_555 1_555
H5 C4 1_555 1_555
H6 C4 1_555 1_555
H7 C4 1_555 1_555
C5 H8 1_555 1_555
C6 C5 1_555 1_555
H9 C6 1_555 1_555
H10 C6 1_555 1_555
H11 C6 1_555 1_555
C7 C5 1_555 1_555
H12 C7 1_555 1_555
H13 C7 1_555 1_555
H14 C7 1_555 1_555
C8 C9 1_555 1_555
C9 C10 1_555 1_555
C10 C11 1_555 1_555
C11 H15 1_555 1_555
C12 C11 1_555 1_555
H16 C12 1_555 1_555
C13 C12 1_555 1_555
H17 C13 1_555 1_555
C14 C13 1_555 1_555
H18 C14 1_555 1_555
C15 C10 1_555 1_555
H19 C15 1_555 1_555
C16 C1 1_555 1_555
C17 C16 1_555 1_555
H20 C17 1_555 1_555
C18 C17 1_555 1_555
H21 C18 1_555 1_555
C19 C18 1_555 1_555
H22 C19 1_555 1_555
C20 C19 1_555 1_555
H23 C20 1_555 1_555
C21 C16 1_555 1_555
C22 C23 1_555 1_555
C23 C24 1_555 1_555
C24 H24 1_555 1_555
C25 C24 1_555 1_555
H25 C25 1_555 1_555
C26 C25 1_555 1_555
H26 C26 1_555 1_555
C27 C22 1_555 1_555
H27 C27 1_555 1_555
N1 C1 1_555 1_555
N2 C5 1_555 1_555
C2 N1 1_555 1_555
C14 C15 1_555 1_555
C20 C21 1_555 1_555
C21 N2 1_555 1_555
C22 N2 1_555 1_555
C26 C27 1_555 1_555

#END
