
#######################################################################
#
#                 Cambridge Crystallographic Data Centre
#                                CCDC 
#
#######################################################################
#
# If this CIF has been generated from an entry in the Cambridge 
# Structural Database, then it will include bibliographic, chemical, 
# crystal, experimental, refinement or atomic coordinate data resulting 
# from the CCDC's data processing and validation procedures.
#
#######################################################################

data_MOCNAU
_chemical_formula_moiety         'C11 H8 N3 1+,C1 F3 O3 S1 1-'
_chemical_name_systematic        
'Benzo[e]pyrido[2,1-c][1,2,4]triazin-11-ium trifluoromethanesulfonate'
_symmetry_cell_setting           monoclinic
_symmetry_space_group_name_H-M   'P 21/c'
_symmetry_Int_Tables_number      14
_space_group_name_Hall           '-P 2ybc'
loop_
_symmetry_equiv_pos_site_id
_symmetry_equiv_pos_as_xyz
1 x,y,z
2 -x,1/2+y,1/2-z
3 -x,-y,-z
4 x,1/2-y,1/2+z
_cell_length_a                   12.9900(9)
_cell_length_b                   16.0879(13)
_cell_length_c                   6.1202(4)
_cell_angle_alpha                90.00
_cell_angle_beta                 92.373(5)
_cell_angle_gamma                90.00
_cell_volume                     1277.91
_cell_formula_units_Z            4
_exptl_crystal_recrystallization_method acetonitrile/toluene
loop_
_atom_site_label
_atom_site_type_symbol
_atom_site_fract_x
_atom_site_fract_y
_atom_site_fract_z
S1 S 0.27008(7) -0.05497(5) 0.35546(14)
F1 F 0.3491(2) -0.20140(15) 0.4123(4)
F2 F 0.2773(2) -0.15067(18) 0.6936(4)
F3 F 0.1838(2) -0.19770(15) 0.4240(5)
O1 O 0.3681(2) -0.0213(2) 0.4256(5)
O2 O 0.2585(2) -0.07103(18) 0.1254(4)
O3 O 0.1845(2) -0.01372(17) 0.4484(5)
C1 C 0.2698(3) -0.1563(2) 0.4776(6)
C2 C 0.3351(3) 0.0859(2) -0.1432(6)
C3 C 0.4396(3) 0.0869(2) -0.1474(7)
C4 C 0.4991(3) 0.1226(3) 0.0211(7)
C5 C 0.4504(3) 0.1573(3) 0.1937(7)
C6 C 0.3444(3) 0.1565(2) 0.1983(6)
N1 N 0.2991(3) 0.19212(19) 0.3769(5)
N2 N 0.2015(3) 0.19258(19) 0.3914(5)
C7 C 0.1384(3) 0.1589(2) 0.2259(6)
C8 C 0.0322(3) 0.1626(2) 0.2475(7)
C9 C -0.0330(3) 0.1316(3) 0.0871(7)
C10 C 0.0076(3) 0.0957(2) -0.0983(7)
C11 C 0.1120(3) 0.0908(2) -0.1227(6)
C12 C 0.1783(3) 0.12251(19) 0.0394(5)
N3 N 0.2858(2) 0.12111(17) 0.0284(4)
H1 H 0.292(3) 0.057(2) -0.260(6)
H2 H 0.135(3) 0.070(2) -0.253(6)
H3 H 0.485(3) 0.180(3) 0.301(7)
H4 H 0.469(3) 0.068(3) -0.263(7)
H5 H 0.573(4) 0.124(3) 0.007(7)
H6 H -0.103(3) 0.130(3) 0.103(7)
H7 H -0.033(3) 0.080(3) -0.207(7)
H8 H 0.009(3) 0.192(3) 0.381(7)
loop_
_geom_bond_atom_site_label_1
_geom_bond_atom_site_label_2
_geom_bond_site_symmetry_1
_geom_bond_site_symmetry_2
S1 O1 1_555 1_555
F1 C1 1_555 1_555
F2 C1 1_555 1_555
F3 C1 1_555 1_555
O2 S1 1_555 1_555
O3 S1 1_555 1_555
C1 S1 1_555 1_555
C2 C3 1_555 1_555
C3 C4 1_555 1_555
C4 C5 1_555 1_555
C5 C6 1_555 1_555
C6 N1 1_555 1_555
N1 N2 1_555 1_555
N2 C7 1_555 1_555
C7 C8 1_555 1_555
C8 C9 1_555 1_555
C9 C10 1_555 1_555
C10 C11 1_555 1_555
C11 C12 1_555 1_555
C12 C7 1_555 1_555
N3 C2 1_555 1_555
H1 C2 1_555 1_555
H2 C11 1_555 1_555
H3 C5 1_555 1_555
H4 C3 1_555 1_555
H5 C4 1_555 1_555
H6 C9 1_555 1_555
H7 C10 1_555 1_555
H8 C8 1_555 1_555
C6 N3 1_555 1_555
C12 N3 1_555 1_555

#END
