
#######################################################################
#
#                 Cambridge Crystallographic Data Centre
#                                CCDC 
#
#######################################################################
#
# If this CIF has been generated from an entry in the Cambridge 
# Structural Database, then it will include bibliographic, chemical, 
# crystal, experimental, refinement or atomic coordinate data resulting 
# from the CCDC's data processing and validation procedures.
#
#######################################################################

data_MOCPEA
_chemical_formula_moiety         'C28 H30 N1 O6 P1'
_chemical_name_systematic        
'(R)-Ethyl 1-(diphenylphosphoryl)-2-(3,4,5-trimethoxyphenyl)-2,5-dihydro-1H-pyrrole-3-carboxylate'
_symmetry_cell_setting           monoclinic
_symmetry_space_group_name_H-M   'P 21'
_symmetry_Int_Tables_number      4
_space_group_name_Hall           'P 2yb'
loop_
_symmetry_equiv_pos_site_id
_symmetry_equiv_pos_as_xyz
1 x,y,z
2 -x,1/2+y,-z
_cell_length_a                   10.251(3)
_cell_length_b                   9.229(2)
_cell_length_c                   14.677(4)
_cell_angle_alpha                90
_cell_angle_beta                 110.152(4)
_cell_angle_gamma                90
_cell_volume                     1303.54
_exptl_crystal_colour            colorless
_exptl_crystal_description       cube
_chemical_melting_point          '165-166 deg.C'
_cell_formula_units_Z            2
_exptl_crystal_recrystallization_method ether
loop_
_atom_site_label
_atom_site_type_symbol
_atom_site_fract_x
_atom_site_fract_y
_atom_site_fract_z
P1 P 0.33844(4) 0.77767(4) 0.64006(3)
O1 O 1.10236(10) 0.77377(14) 0.90661(8)
O2 O 0.94011(11) 0.71036(14) 1.01107(8)
C1 C 0.87712(14) 0.7816(2) 0.92512(10)
O3 O 1.00224(11) 0.90730(15) 0.73625(8)
O4 O 0.23303(11) 0.88325(14) 0.58186(8)
C2 C 0.68681(14) 0.89850(17) 0.80267(11)
C3 C 0.53578(14) 0.94729(18) 0.76577(10)
H1 H 0.5150 1.0018 0.7035
C4 C 0.91009(15) 0.88410(18) 0.78316(11)
C5 C 0.77186(15) 0.92926(18) 0.74925(11)
H2 H 0.7360 0.9809 0.6898
O5 O 0.64838(14) 1.22357(14) 0.82587(9)
C6 C 0.46267(16) 0.73683(17) 0.58232(11)
N1 N 0.43602(12) 0.82318(14) 0.75252(9)
C7 C 0.96334(14) 0.81011(17) 0.87149(11)
C8 C 0.73865(15) 0.82436(17) 0.89040(11)
H3 H 0.6797 0.8031 0.9264
C9 C 0.50117(17) 1.0398(2) 0.83984(11)
C10 C 0.25725(16) 0.61138(19) 0.65754(11)
O6 O 0.54358(15) 1.25523(17) 0.93586(10)
C11 C 0.58679(16) 0.66317(19) 0.62770(12)
H4 H 0.6084 0.6296 0.6924
C12 C 0.85368(19) 0.6655(2) 1.06327(13)
H5 H 0.8108 0.7507 1.0813
H6 H 0.9096 0.6139 1.1221
H7 H 0.7809 0.6011 1.0225
C13 C 0.11968(17) 0.5860(2) 0.59857(12)
H8 H 0.0712 0.6572 0.5526
C14 C 0.67859(18) 0.63859(19) 0.57915(14)
H9 H 0.7632 0.5886 0.6108
C15 C 0.56546(19) 1.1837(2) 0.87359(12)
C16 C 0.94858(18) 0.9652(2) 0.64002(12)
H10 H 0.8734 0.9030 0.5996
H11 H 1.0229 0.9692 0.6124
H12 H 0.9127 1.0631 0.6422
C17 C 0.41355(17) 0.9730(2) 0.87391(12)
H13 H 0.3837 1.0117 0.9234
C18 C 0.43286(19) 0.7832(2) 0.48649(12)
H14 H 0.3479 0.8320 0.4538
C19 C 0.05299(19) 0.4582(2) 0.60623(14)
H15 H -0.0405 0.4417 0.5657
C20 C 0.36711(17) 0.8318(2) 0.82665(12)
H16 H 0.2647 0.8288 0.7958
H17 H 0.3974 0.7515 0.8740
C21 C 0.2597(2) 0.3788(2) 0.73280(16)
H18 H 0.3073 0.3076 0.7790
C22 C 0.7235(2) 1.3600(2) 0.85455(16)
H19 H 0.7834 1.3566 0.9238
H20 H 0.6574 1.4415 0.8452
C23 C 0.6483(2) 0.6862(2) 0.48463(15)
H21 H 0.7119 0.6687 0.4516
C24 C 0.5269(2) 0.7584(3) 0.43887(14)
H22 H 0.5066 0.7917 0.3742
C25 C 0.32676(18) 0.5060(2) 0.72529(13)
H23 H 0.4202 0.5218 0.7662
C26 C 0.8095(2) 1.3786(3) 0.79173(18)
H24 H 0.8757 1.2984 0.8029
H25 H 0.8603 1.4705 0.8075
H26 H 0.7490 1.3793 0.7234
C27 C 1.12888(19) 0.6236(2) 0.89757(16)
H27 H 1.0812 0.5659 0.9326
H28 H 1.2291 0.6056 0.9250
H29 H 1.0945 0.5963 0.8288
C28 C 0.1240(2) 0.3547(2) 0.67354(16)
H30 H 0.0791 0.2667 0.6789
loop_
_geom_bond_atom_site_label_1
_geom_bond_atom_site_label_2
_geom_bond_site_symmetry_1
_geom_bond_site_symmetry_2
P1 O4 1_555 1_555
O1 C7 1_555 1_555
O2 C1 1_555 1_555
C1 C7 1_555 1_555
O3 C4 1_555 1_555
C2 C3 1_555 1_555
C3 H1 1_555 1_555
C4 C5 1_555 1_555
C5 C2 1_555 1_555
H2 C5 1_555 1_555
O5 C15 1_555 1_555
C6 P1 1_555 1_555
N1 P1 1_555 1_555
C7 C4 1_555 1_555
C8 C1 1_555 1_555
H3 C8 1_555 1_555
C9 C3 1_555 1_555
C10 P1 1_555 1_555
O6 C15 1_555 1_555
C11 C6 1_555 1_555
H4 C11 1_555 1_555
C12 O2 1_555 1_555
H5 C12 1_555 1_555
H6 C12 1_555 1_555
H7 C12 1_555 1_555
C13 C10 1_555 1_555
H8 C13 1_555 1_555
C14 C11 1_555 1_555
H9 C14 1_555 1_555
C15 C9 1_555 1_555
C16 O3 1_555 1_555
H10 C16 1_555 1_555
H11 C16 1_555 1_555
H12 C16 1_555 1_555
C17 C9 1_555 1_555
H13 C17 1_555 1_555
C18 C6 1_555 1_555
H14 C18 1_555 1_555
C19 C13 1_555 1_555
H15 C19 1_555 1_555
C20 N1 1_555 1_555
H16 C20 1_555 1_555
H17 C20 1_555 1_555
C21 H18 1_555 1_555
C22 O5 1_555 1_555
H19 C22 1_555 1_555
H20 C22 1_555 1_555
C23 C14 1_555 1_555
H21 C23 1_555 1_555
C24 C18 1_555 1_555
H22 C24 1_555 1_555
C25 C10 1_555 1_555
H23 C25 1_555 1_555
C26 C22 1_555 1_555
H24 C26 1_555 1_555
H25 C26 1_555 1_555
H26 C26 1_555 1_555
C27 O1 1_555 1_555
H27 C27 1_555 1_555
H28 C27 1_555 1_555
H29 C27 1_555 1_555
C28 C19 1_555 1_555
H30 C28 1_555 1_555
C2 C8 1_555 1_555
C3 N1 1_555 1_555
C17 C20 1_555 1_555
C21 C25 1_555 1_555
C21 C28 1_555 1_555
C23 C24 1_555 1_555

#END
