
#######################################################################
#
#                 Cambridge Crystallographic Data Centre
#                                CCDC 
#
#######################################################################
#
# If this CIF has been generated from an entry in the Cambridge 
# Structural Database, then it will include bibliographic, chemical, 
# crystal, experimental, refinement or atomic coordinate data resulting 
# from the CCDC's data processing and validation procedures.
#
#######################################################################

data_MOCVUW
_chemical_name_common            
2,2-Dichloro-2-nitro-1-(4-toluenesulfonamido)-1-(4-methylphenyl)ethane
_chemical_formula_moiety         'C16 H16 Cl2 N2 O4 S1'
_chemical_name_systematic        
N-(2,2-Dichloro-2-nitro-1-p-tolylethyl)-4-methylbenzenesulfonamide
_symmetry_cell_setting           orthorhombic
_symmetry_space_group_name_H-M   'P b c a'
_symmetry_Int_Tables_number      61
_space_group_name_Hall           '-P 2ac 2ab'
loop_
_symmetry_equiv_pos_site_id
_symmetry_equiv_pos_as_xyz
1 x,y,z
2 1/2-x,-y,1/2+z
3 1/2+x,1/2-y,-z
4 -x,1/2+y,1/2-z
5 -x,-y,-z
6 1/2+x,y,1/2-z
7 1/2-x,1/2+y,z
8 x,1/2-y,1/2+z
_cell_length_a                   7.748(5)
_cell_length_b                   19.85(1)
_cell_length_c                   23.03(1)
_cell_angle_alpha                90
_cell_angle_beta                 90
_cell_angle_gamma                90
_cell_volume                     3541.96
_exptl_crystal_colour            colorless
_exptl_crystal_description       block
_chemical_melting_point          '138-140 deg.C'
_cell_formula_units_Z            8
loop_
_atom_site_label
_atom_site_type_symbol
_atom_site_fract_x
_atom_site_fract_y
_atom_site_fract_z
C1 C 0.9769(5) 0.82719(17) 0.83887(16)
C2 C 1.0866(5) 0.86581(19) 0.87075(15)
H1 H 1.1461 0.8470 0.9019
C3 C 1.1097(6) 0.9325(2) 0.85710(19)
H2 H 1.1832 0.9589 0.8796
C4 C 1.0234(6) 0.9615(2) 0.8094(2)
C5 C 0.9186(7) 0.9228(2) 0.7775(2)
H3 H 0.8585 0.9412 0.7464
C6 C 0.9001(6) 0.8557(2) 0.79094(17)
H4 H 0.8333 0.8287 0.7668
C7 C 0.9423(5) 0.75505(18) 0.85491(15)
H5 H 0.8308 0.7442 0.8371
C8 C 1.0692(6) 0.70523(19) 0.82927(15)
C9 C 1.0477(8) 1.0348(3) 0.7982(3)
H6 H 1.0678 1.0419 0.7576
H7 H 1.1450 1.0509 0.8200
H8 H 0.9460 1.0589 0.8099
C10 C 0.7124(6) 0.84424(19) 0.95421(17)
C11 C 0.6324(6) 0.8843(2) 0.91471(19)
H9 H 0.5771 0.8637 0.8835
C12 C 0.6285(7) 0.9502(2) 0.9179(2)
H10 H 0.5658 0.9750 0.8909
C13 C 0.7205(7) 0.9834(2) 0.9628(2)
C14 C 0.8060(7) 0.9417(2) 1.00356(19)
H11 H 0.8630 0.9614 1.0348
C15 C 0.8067(7) 0.87506(19) 0.99821(16)
H12 H 0.8704 0.8489 1.0240
C16 C 0.7046(9) 1.0588(2) 0.9700(2)
H13 H 0.7138 1.0802 0.9327
H14 H 0.7953 1.0748 0.9949
H15 H 0.5948 1.0694 0.9870
Cl1 Cl 1.07229(16) 0.70710(6) 0.75438(4)
Cl2 Cl 1.26955(14) 0.71447(5) 0.85967(4)
N1 N 0.9989(5) 0.63279(16) 0.84542(14)
N2 N 0.9203(4) 0.74134(15) 0.91732(12)
H16 H 0.9433 0.6974 0.9233
O1 O 1.0971(5) 0.59442(16) 0.86897(16)
O2 O 0.8552(4) 0.62129(15) 0.83141(14)
O3 O 0.7392(4) 0.72725(13) 1.00259(12)
O4 O 0.6822(4) 0.73229(16) 0.89062(14)
S1 S 0.73087(13) 0.75744(5) 0.94590(4)
loop_
_geom_bond_atom_site_label_1
_geom_bond_atom_site_label_2
_geom_bond_site_symmetry_1
_geom_bond_site_symmetry_2
C1 C2 1_555 1_555
C2 H1 1_555 1_555
C3 C2 1_555 1_555
H2 C3 1_555 1_555
C4 C3 1_555 1_555
C5 C4 1_555 1_555
H3 C5 1_555 1_555
C6 C1 1_555 1_555
H4 C6 1_555 1_555
C7 C1 1_555 1_555
H5 C7 1_555 1_555
C8 C7 1_555 1_555
C9 C4 1_555 1_555
H6 C9 1_555 1_555
H7 C9 1_555 1_555
H8 C9 1_555 1_555
C10 C11 1_555 1_555
C11 H9 1_555 1_555
C12 C11 1_555 1_555
H10 C12 1_555 1_555
C13 C12 1_555 1_555
C14 C13 1_555 1_555
H11 C14 1_555 1_555
C15 C10 1_555 1_555
H12 C15 1_555 1_555
C16 C13 1_555 1_555
H13 C16 1_555 1_555
H14 C16 1_555 1_555
H15 C16 1_555 1_555
Cl1 C8 1_555 1_555
Cl2 C8 1_555 1_555
N1 C8 1_555 1_555
N2 C7 1_555 1_555
H16 N2 1_555 1_555
O1 N1 1_555 1_555
O2 N1 1_555 1_555
O3 S1 1_555 1_555
O4 S1 1_555 1_555
S1 C10 1_555 1_555
C5 C6 1_555 1_555
C14 C15 1_555 1_555
N2 S1 1_555 1_555

#END
