
#######################################################################
#
#                 Cambridge Crystallographic Data Centre
#                                CCDC 
#
#######################################################################
#
# If this CIF has been generated from an entry in the Cambridge 
# Structural Database, then it will include bibliographic, chemical, 
# crystal, experimental, refinement or atomic coordinate data resulting 
# from the CCDC's data processing and validation procedures.
#
#######################################################################

data_MODFUG
_chemical_formula_moiety         'C27 H21 N3'
_chemical_name_systematic        
5-(1,4-Dimethyl-4-phenyl-1,2,3,4-tetrahydro-1-naphthyl)-1,2,4-benzenetricarbonitrile
_symmetry_cell_setting           monoclinic
_symmetry_space_group_name_H-M   'P 21/c'
_symmetry_Int_Tables_number      14
_space_group_name_Hall           '-P 2ybc'
loop_
_symmetry_equiv_pos_site_id
_symmetry_equiv_pos_as_xyz
1 x,y,z
2 -x,1/2+y,1/2-z
3 -x,-y,-z
4 x,1/2-y,1/2+z
_cell_length_a                   9.0481(4)
_cell_length_b                   8.2368(4)
_cell_length_c                   28.4787(13)
_cell_angle_alpha                90
_cell_angle_beta                 97.3840(10)
_cell_angle_gamma                90
_cell_volume                     2104.84
_exptl_crystal_colour            colorless
_exptl_crystal_description       slab
_chemical_melting_point          'above 523K'
_cell_formula_units_Z            4
loop_
_atom_site_label
_atom_site_type_symbol
_atom_site_fract_x
_atom_site_fract_y
_atom_site_fract_z
N1 N 0.6376(3) 0.3818(3) 0.28632(9)
N2 N -0.1690(3) 0.7299(4) 0.30422(12)
N3 N -0.0104(3) 0.6865(4) 0.17993(11)
C1 C 0.1739(3) 0.5513(3) 0.34183(10)
H1 H 0.1334 0.5580 0.3702
C2 C 0.0924(3) 0.6091(3) 0.30026(11)
C3 C 0.1501(3) 0.6018(3) 0.25765(10)
C4 C 0.2932(3) 0.5403(3) 0.25679(10)
H2 H 0.3345 0.5374 0.2285
C5 C 0.3741(3) 0.4834(3) 0.29840(10)
C6 C 0.3155(3) 0.4836(3) 0.34163(9)
C7 C 0.4019(3) 0.4188(3) 0.38750(9)
C8 C 0.4753(3) 0.2544(3) 0.37945(9)
C9 C 0.3951(3) 0.1388(3) 0.35106(10)
H3 H 0.2988 0.1632 0.3373
C10 C 0.4545(3) -0.0110(3) 0.34272(10)
H4 H 0.3988 -0.0867 0.3237
C11 C 0.5969(3) -0.0468(3) 0.36280(11)
H5 H 0.6391 -0.1465 0.3568
C12 C 0.6776(3) 0.0649(3) 0.39187(10)
H6 H 0.7734 0.0382 0.4055
C13 C 0.6192(3) 0.2170(3) 0.40134(9)
C14 C 0.7181(3) 0.3341(3) 0.43318(10)
C15 C 0.6288(3) 0.4831(3) 0.44616(10)
H7 H 0.5727 0.4542 0.4718
H8 H 0.6977 0.5689 0.4575
C16 C 0.5223(3) 0.5461(3) 0.40482(10)
H9 H 0.5779 0.5739 0.3790
H10 H 0.4744 0.6440 0.4143
C17 C 0.7780(3) 0.2485(3) 0.47992(10)
C18 C 0.9260(3) 0.2585(4) 0.50034(12)
H11 H 0.9947 0.3148 0.4849
C19 C 0.9717(4) 0.1845(4) 0.54380(13)
H12 H 1.0709 0.1921 0.5570
C20 C 0.8737(4) 0.1012(4) 0.56740(13)
H13 H 0.9053 0.0527 0.5964
C21 C 0.7272(4) 0.0902(4) 0.54745(12)
H14 H 0.6591 0.0338 0.5631
C22 C 0.6807(3) 0.1623(4) 0.50451(10)
H15 H 0.5814 0.1529 0.4916
C23 C -0.0536(3) 0.6765(4) 0.30233(11)
C24 C 0.0620(3) 0.6511(4) 0.21428(12)
C25 C 0.5215(3) 0.4237(3) 0.29344(10)
C26 C 0.8450(3) 0.3904(4) 0.40576(11)
H16 H 0.9059 0.4683 0.4244
H17 H 0.8034 0.4394 0.3764
H18 H 0.9048 0.2987 0.3994
C27 C 0.2975(3) 0.3909(3) 0.42560(10)
H19 H 0.3511 0.3360 0.4523
H20 H 0.2142 0.3257 0.4126
H21 H 0.2624 0.4936 0.4356
loop_
_geom_bond_atom_site_label_1
_geom_bond_atom_site_label_2
_geom_bond_site_symmetry_1
_geom_bond_site_symmetry_2
N1 C25 1_555 1_555
N2 C23 1_555 1_555
N3 C24 1_555 1_555
C1 H1 1_555 1_555
C2 C1 1_555 1_555
C3 C2 1_555 1_555
C4 C3 1_555 1_555
H2 C4 1_555 1_555
C5 C4 1_555 1_555
C6 C1 1_555 1_555
C7 C6 1_555 1_555
C8 C7 1_555 1_555
C9 C8 1_555 1_555
H3 C9 1_555 1_555
C10 C9 1_555 1_555
H4 C10 1_555 1_555
C11 C10 1_555 1_555
H5 C11 1_555 1_555
C12 C11 1_555 1_555
H6 C12 1_555 1_555
C13 C8 1_555 1_555
C14 C13 1_555 1_555
C15 C14 1_555 1_555
H7 C15 1_555 1_555
H8 C15 1_555 1_555
C16 C7 1_555 1_555
H9 C16 1_555 1_555
H10 C16 1_555 1_555
C17 C14 1_555 1_555
C18 C17 1_555 1_555
H11 C18 1_555 1_555
C19 C18 1_555 1_555
H12 C19 1_555 1_555
C20 C19 1_555 1_555
H13 C20 1_555 1_555
C21 C20 1_555 1_555
H14 C21 1_555 1_555
C22 C17 1_555 1_555
H15 C22 1_555 1_555
C23 C2 1_555 1_555
C24 C3 1_555 1_555
C25 C5 1_555 1_555
C26 C14 1_555 1_555
H16 C26 1_555 1_555
H17 C26 1_555 1_555
H18 C26 1_555 1_555
C27 C7 1_555 1_555
H19 C27 1_555 1_555
H20 C27 1_555 1_555
H21 C27 1_555 1_555
C5 C6 1_555 1_555
C12 C13 1_555 1_555
C15 C16 1_555 1_555
C21 C22 1_555 1_555

#END
