
#######################################################################
#
#                 Cambridge Crystallographic Data Centre
#                                CCDC 
#
#######################################################################
#
# If this CIF has been generated from an entry in the Cambridge 
# Structural Database, then it will include bibliographic, chemical, 
# crystal, experimental, refinement or atomic coordinate data resulting 
# from the CCDC's data processing and validation procedures.
#
#######################################################################

data_MODKEV
_chemical_formula_moiety         'C14 H18 Cl1 N3 O2'
_chemical_name_systematic        
3-(4-Chlorophenyl)-1,1-bis(dimethylamino)-4-nitro-1,3-butadiene
_symmetry_cell_setting           orthorhombic
_symmetry_space_group_name_H-M   'P 21 21 21'
_symmetry_Int_Tables_number      19
_space_group_name_Hall           'P 2ac 2ab'
loop_
_symmetry_equiv_pos_site_id
_symmetry_equiv_pos_as_xyz
1 x,y,z
2 1/2-x,-y,1/2+z
3 1/2+x,1/2-y,-z
4 -x,1/2+y,1/2-z
_cell_length_a                   10.654(9)
_cell_length_b                   11.197(7)
_cell_length_c                   12.456(9)
_cell_angle_alpha                90
_cell_angle_beta                 90
_cell_angle_gamma                90
_cell_volume                     1485.91
_exptl_crystal_colour            'ruby red'
_chemical_melting_point          164deg.C(dec.)
_cell_formula_units_Z            4
_exptl_crystal_recrystallization_method 'ethyl acetate'
loop_
_atom_site_label
_atom_site_type_symbol
_atom_site_fract_x
_atom_site_fract_y
_atom_site_fract_z
Cl1 Cl 0.9638(2) 0.2766(1) 0.4493(1)
O1 O 0.4005(4) 0.7723(4) 0.7003(3)
N1 N 0.4018(5) 0.6619(4) 0.6939(4)
C1 C 0.5014(6) 0.6017(5) 0.6544(5)
C2 C 0.6185(5) 0.6487(4) 0.6314(4)
N2 N 0.8724(4) 0.7499(4) 0.6875(4)
O2 O 0.3065(5) 0.6042(5) 0.7248(4)
N3 N 0.8074(5) 0.9148(4) 0.5937(4)
C3 C 0.6540(6) 0.7677(4) 0.6372(4)
C4 C 0.7772(6) 0.8091(4) 0.6380(4)
C5 C 0.9097(7) 0.9882(5) 0.6323(7)
C6 C 0.7217(6) 0.9756(5) 0.5224(6)
C7 C 0.9975(6) 0.7400(6) 0.6435(6)
C8 C 0.8505(7) 0.6798(6) 0.7838(5)
C9 C 0.7087(5) 0.5577(4) 0.5887(4)
C10 C 0.7797(6) 0.5797(4) 0.4974(4)
C11 C 0.8589(5) 0.4961(4) 0.4555(5)
C12 C 0.8657(6) 0.3843(4) 0.5069(5)
C13 C 0.7971(7) 0.3594(5) 0.5946(5)
C14 C 0.7189(6) 0.4463(5) 0.6364(5)
H1 H 0.4902 0.5206 0.6412
H2 H 0.5903 0.8245 0.6407
H3 H 0.9151 1.0595 0.5897
H4 H 0.9870 0.9446 0.6269
H5 H 0.8949 1.0094 0.7059
H9 H 0.7588 1.0492 0.4987
H10 H 0.6448 0.9923 0.5596
H11 H 0.7046 0.9258 0.4614
H12 H 1.0490 0.6941 0.6913
H13 H 1.0328 0.8183 0.6350
H14 H 0.9937 0.7011 0.5749
H18 H 0.9280 0.6443 0.8070
H19 H 0.7905 0.6181 0.7687
H20 H 0.8185 0.7307 0.8395
H24 H 0.7731 0.6536 0.4638
H25 H 0.9068 0.5125 0.3948
H26 H 0.8022 0.2847 0.6268
H27 H 0.6722 0.4296 0.6977
H6? H 0.9495 0.9495 0.6920
H7? H 0.8776 1.0644 0.6548
H8? H 0.9697 0.9996 0.5758
H15? H 1.0013 0.7816 0.5762
H16? H 1.0176 0.6573 0.6325
H17? H 1.0567 0.7745 0.6926
H21? H 0.7634 0.6844 0.8031
H22? H 0.9008 0.7107 0.8414
H23? H 0.8728 0.5980 0.7706
loop_
_geom_bond_atom_site_label_1
_geom_bond_atom_site_label_2
_geom_bond_site_symmetry_1
_geom_bond_site_symmetry_2
Cl1 C12 1_555 1_555
O1 N1 1_555 1_555
N1 C1 1_555 1_555
C1 C2 1_555 1_555
C2 C3 1_555 1_555
N2 C4 1_555 1_555
O2 N1 1_555 1_555
N3 C4 1_555 1_555
C3 C4 1_555 1_555
C5 N3 1_555 1_555
C6 N3 1_555 1_555
C7 N2 1_555 1_555
C8 N2 1_555 1_555
C9 C2 1_555 1_555
C10 C9 1_555 1_555
C11 C10 1_555 1_555
C12 C11 1_555 1_555
C13 C12 1_555 1_555
C14 C9 1_555 1_555
H1 C1 1_555 1_555
H2 C3 1_555 1_555
H3 C5 1_555 1_555
H4 C5 1_555 1_555
H5 C5 1_555 1_555
H9 C6 1_555 1_555
H10 C6 1_555 1_555
H11 C6 1_555 1_555
H12 C7 1_555 1_555
H13 C7 1_555 1_555
H14 C7 1_555 1_555
H18 C8 1_555 1_555
H19 C8 1_555 1_555
H20 C8 1_555 1_555
H24 C10 1_555 1_555
H25 C11 1_555 1_555
H26 C13 1_555 1_555
H27 C14 1_555 1_555
C13 C14 1_555 1_555

#END
