
#######################################################################
#
#                 Cambridge Crystallographic Data Centre
#                                CCDC 
#
#######################################################################
#
# If this CIF has been generated from an entry in the Cambridge 
# Structural Database, then it will include bibliographic, chemical, 
# crystal, experimental, refinement or atomic coordinate data resulting 
# from the CCDC's data processing and validation procedures.
#
#######################################################################

data_MOGHAS
_chemical_formula_moiety         'C34 H52 O2 S2'
_chemical_name_systematic        
(S,S)-2,2'-(cyclohexane-1,2-diyldisulfanediyl)bis(4,6-di-t-butylphenol)
_symmetry_cell_setting           orthorhombic
_symmetry_space_group_name_H-M   'P 21 21 21'
_symmetry_Int_Tables_number      19
_space_group_name_Hall           'P 2ac 2ab'
loop_
_symmetry_equiv_pos_site_id
_symmetry_equiv_pos_as_xyz
1 x,y,z
2 1/2-x,-y,1/2+z
3 1/2+x,1/2-y,-z
4 -x,1/2+y,1/2-z
_cell_length_a                   9.239(2)
_cell_length_b                   10.468(2)
_cell_length_c                   34.444(8)
_cell_angle_alpha                90
_cell_angle_beta                 90
_cell_angle_gamma                90
_cell_volume                     3331.21
_exptl_crystal_colour            colorless
_exptl_crystal_description       plate
_cell_formula_units_Z            4
loop_
_atom_site_label
_atom_site_type_symbol
_atom_site_fract_x
_atom_site_fract_y
_atom_site_fract_z
S1 S 1.06347(11) 0.17803(9) 0.54612(3)
S2 S 1.02000(9) 0.23914(7) 0.45575(2)
O1 O 0.8932(4) 0.1734(3) 0.62315(10)
H1 H 0.8750 0.2026 0.6010
O3 O 1.2722(4) 0.0625(5) 0.44856(12)
H3 H 1.2295 0.1046 0.4659
C1 C 1.0245(3) 0.1054(3) 0.62213(8)
C2 C 1.1087(4) 0.0909(3) 0.58890(8)
C3 C 1.2313(3) 0.0143(3) 0.58897(9)
H6 H 1.2865 0.0047 0.5659
C4 C 1.2739(3) -0.0490(3) 0.62299(9)
C5 C 1.1893(3) -0.0316(3) 0.65547(8)
H7 H 1.2178 -0.0738 0.6787
C6 C 1.0639(3) 0.0440(3) 0.65674(8)
C7 C 1.4134(4) -0.1300(3) 0.62374(11)
C8 C 1.3960(5) -0.2491(5) 0.59841(17)
H8 H 1.3771 -0.2234 0.5715
H9 H 1.3147 -0.3003 0.6080
H10 H 1.4849 -0.3000 0.5995
C9 C 1.5424(4) -0.0488(5) 0.61084(16)
H11 H 1.6324 -0.0960 0.6155
H12 H 1.5438 0.0311 0.6257
H13 H 1.5337 -0.0296 0.5831
C10 C 1.4533(5) -0.1760(5) 0.66544(13)
H14 H 1.5417 -0.2276 0.6644
H15 H 1.3739 -0.2276 0.6759
H16 H 1.4693 -0.1017 0.6822
C11 C 0.9739(3) 0.0587(3) 0.69383(9)
C12 C 0.9608(6) 0.1966(5) 0.70631(16)
H17 H 0.9046 0.2441 0.6870
H18 H 1.0576 0.2342 0.7086
H19 H 0.9117 0.2010 0.7315
C13 C 0.8259(5) -0.0031(5) 0.68888(14)
H20 H 0.7684 0.0103 0.7124
H21 H 0.8378 -0.0949 0.6844
H22 H 0.7761 0.0355 0.6667
C14 C 1.0445(5) -0.0215(7) 0.72795(12)
H23 H 1.1382 0.0160 0.7349
H24 H 1.0588 -0.1099 0.7194
H25 H 0.9803 -0.0202 0.7506
C15 C 0.9722(3) 0.0580(3) 0.51558(8)
H26 H 1.049(4) 0.001(4) 0.5017(9)
C16 C 0.8978(3) 0.1298(3) 0.48257(8)
H27 H 0.818(4) 0.187(3) 0.4951(9)
C17 C 0.8183(4) 0.0375(3) 0.45560(10)
H28 H 0.894(5) -0.019(4) 0.4422(11)
H29 H 0.771(4) 0.082(4) 0.4356(11)
C18 C 0.7090(4) -0.0442(4) 0.47827(10)
H30 H 0.629(4) 0.006(4) 0.4904(11)
H31 H 0.669(4) -0.115(3) 0.4604(9)
C19 C 0.7816(4) -0.1135(3) 0.51195(10)
H32 H 0.715(4) -0.156(4) 0.5255(10)
H33 H 0.850(4) -0.177(4) 0.4990(10)
C20 C 0.8596(4) -0.0184(3) 0.53859(9)
H34 H 0.908(4) -0.061(3) 0.5587(10)
H35 H 0.787(4) 0.039(4) 0.5501(11)
C21 C 1.0762(3) 0.1530(3) 0.41352(7)
C22 C 1.2004(3) 0.0764(3) 0.41408(8)
C23 C 1.2482(3) 0.0156(3) 0.38037(8)
C24 C 1.1683(3) 0.0337(3) 0.34679(8)
H37 H 1.1998 -0.0077 0.3237
C25 C 1.0439(3) 0.1095(3) 0.34490(8)
C26 C 0.9988(3) 0.1697(3) 0.37895(8)
H38 H 0.9151 0.2223 0.3787
C27 C 0.9572(3) 0.1256(3) 0.30681(8)
C28 C 0.8020(4) 0.0744(5) 0.31273(12)
H39 H 0.7549 0.1221 0.3337
H40 H 0.8059 -0.0164 0.3196
H41 H 0.7466 0.0852 0.2887
C29 C 0.9508(5) 0.2664(4) 0.29541(12)
H42 H 1.0491 0.2984 0.2911
H43 H 0.9050 0.3154 0.3163
H44 H 0.8941 0.2758 0.2715
C30 C 1.0246(5) 0.0506(5) 0.27326(10)
H45 H 0.9702 0.0675 0.2494
H46 H 1.0212 -0.0410 0.2791
H47 H 1.1254 0.0772 0.2698
C31 C 1.3880(3) -0.0648(3) 0.37979(10)
C32 C 1.5183(3) 0.0200(3) 0.38962(10)
H48 H 1.5075 0.0537 0.4160
H49 H 1.5232 0.0911 0.3712
H50 H 1.6074 -0.0305 0.3880
C33 C 1.3781(4) -0.1739(4) 0.40904(15)
H51 H 1.4630 -0.2293 0.4064
H52 H 1.2902 -0.2236 0.4041
H53 H 1.3749 -0.1388 0.4354
C34 C 1.4186(4) -0.1225(5) 0.33961(13)
H54 H 1.5084 -0.1723 0.3406
H55 H 1.4286 -0.0537 0.3205
H56 H 1.3382 -0.1784 0.3321
O2? O 1.3170(8) -0.0238(8) 0.55584(19)
H2? H 1.2813 0.0077 0.5355
O4? O 0.8779(4) 0.2385(4) 0.37754(12)
H4? H 0.8615 0.2704 0.3995
H5? H 0.9400 0.1571 0.6213
H36? H 1.2526 0.0657 0.4376
loop_
_geom_bond_atom_site_label_1
_geom_bond_atom_site_label_2
_geom_bond_site_symmetry_1
_geom_bond_site_symmetry_2
S1 C2 1_555 1_555
S2 C16 1_555 1_555
O1 H1 1_555 1_555
O3 H3 1_555 1_555
C1 O1 1_555 1_555
C2 C1 1_555 1_555
C3 C2 1_555 1_555
H6 C3 1_555 1_555
C4 C3 1_555 1_555
C5 C4 1_555 1_555
H7 C5 1_555 1_555
C6 C1 1_555 1_555
C7 C4 1_555 1_555
C8 C7 1_555 1_555
H8 C8 1_555 1_555
H9 C8 1_555 1_555
H10 C8 1_555 1_555
C9 C7 1_555 1_555
H11 C9 1_555 1_555
H12 C9 1_555 1_555
H13 C9 1_555 1_555
C10 C7 1_555 1_555
H14 C10 1_555 1_555
H15 C10 1_555 1_555
H16 C10 1_555 1_555
C11 C6 1_555 1_555
C12 C11 1_555 1_555
H17 C12 1_555 1_555
H18 C12 1_555 1_555
H19 C12 1_555 1_555
C13 C11 1_555 1_555
H20 C13 1_555 1_555
H21 C13 1_555 1_555
H22 C13 1_555 1_555
C14 C11 1_555 1_555
H23 C14 1_555 1_555
H24 C14 1_555 1_555
H25 C14 1_555 1_555
C15 S1 1_555 1_555
H26 C15 1_555 1_555
C16 C15 1_555 1_555
H27 C16 1_555 1_555
C17 C16 1_555 1_555
H28 C17 1_555 1_555
H29 C17 1_555 1_555
C18 C17 1_555 1_555
H30 C18 1_555 1_555
H31 C18 1_555 1_555
C19 C18 1_555 1_555
H32 C19 1_555 1_555
H33 C19 1_555 1_555
C20 C15 1_555 1_555
H34 C20 1_555 1_555
H35 C20 1_555 1_555
C21 S2 1_555 1_555
C22 O3 1_555 1_555
C23 C22 1_555 1_555
C24 C23 1_555 1_555
H37 C24 1_555 1_555
C25 C24 1_555 1_555
C26 C21 1_555 1_555
H38 C26 1_555 1_555
C27 C25 1_555 1_555
C28 C27 1_555 1_555
H39 C28 1_555 1_555
H40 C28 1_555 1_555
H41 C28 1_555 1_555
C29 C27 1_555 1_555
H42 C29 1_555 1_555
H43 C29 1_555 1_555
H44 C29 1_555 1_555
C30 C27 1_555 1_555
H45 C30 1_555 1_555
H46 C30 1_555 1_555
H47 C30 1_555 1_555
C31 C23 1_555 1_555
C32 C31 1_555 1_555
H48 C32 1_555 1_555
H49 C32 1_555 1_555
H50 C32 1_555 1_555
C33 C31 1_555 1_555
H51 C33 1_555 1_555
H52 C33 1_555 1_555
H53 C33 1_555 1_555
C34 C31 1_555 1_555
H54 C34 1_555 1_555
H55 C34 1_555 1_555
H56 C34 1_555 1_555
C5 C6 1_555 1_555
C19 C20 1_555 1_555
C21 C22 1_555 1_555
C25 C26 1_555 1_555

#END
