
#######################################################################
#
#                 Cambridge Crystallographic Data Centre
#                                CCDC 
#
#######################################################################
#
# If this CIF has been generated from an entry in the Cambridge 
# Structural Database, then it will include bibliographic, chemical, 
# crystal, experimental, refinement or atomic coordinate data resulting 
# from the CCDC's data processing and validation procedures.
#
#######################################################################

data_MOGJIB
_chemical_formula_moiety         'C26 H18 B2 N2 O3,1.5(C1 H2 Cl2)'
_chemical_name_systematic        
'1,17-Dibora-2,18,33-trioxa-9,25-diazaoctacyclo(15.15.1.0^1,9^.0^3,8^.0^11,16^.0^11,16^.0^17,25^.0^27,32^)tritriaconta-3,5,7,9,11,13,15,19,21,23,25,27,29,31-tetradecaene dichloromethane solvate'
_symmetry_cell_setting           monoclinic
_symmetry_space_group_name_H-M   'P 21/c'
_symmetry_Int_Tables_number      14
_space_group_name_Hall           '-P 2ybc'
loop_
_symmetry_equiv_pos_site_id
_symmetry_equiv_pos_as_xyz
1 x,y,z
2 x,1/2-y,1/2+z
3 -x,-y,-z
4 -x,1/2+y,1/2-z
_cell_length_a                   10.0447(8)
_cell_length_b                   21.0894(15)
_cell_length_c                   12.6214(9)
_cell_angle_alpha                90
_cell_angle_beta                 105.301(2)
_cell_angle_gamma                90
_cell_volume                     2578.9
_exptl_crystal_colour            yellow
_exptl_crystal_description       irregular
_chemical_melting_point          180deg.C(dec.)
_cell_formula_units_Z            4
_exptl_crystal_recrystallization_method dichloromethane
loop_
_atom_site_label
_atom_site_type_symbol
_atom_site_fract_x
_atom_site_fract_y
_atom_site_fract_z
B1 B 0.95925(13) 0.15165(6) 0.90515(10)
B2 B 0.74039(14) 0.15003(6) 0.95270(10)
O1 O 0.87963(9) 0.17017(4) 0.97761(7)
O2 O 0.66468(10) 0.18116(4) 1.02816(7)
O3 O 1.10962(9) 0.16691(4) 0.95383(7)
C1 C 0.94658(12) 0.07902(5) 0.85503(9)
C2 C 1.02286(15) 0.06659(6) 0.77781(11)
C3 C 1.03533(16) 0.00614(7) 0.73545(12)
C4 C 0.97372(16) -0.04607(7) 0.77233(12)
C5 C 0.89855(14) -0.03644(6) 0.84862(10)
C6 C 0.88092(12) 0.02545(5) 0.88787(9)
C7 C 0.79555(12) 0.02625(5) 0.96547(9)
N1 N 0.73615(10) 0.07557(5) 0.99386(7)
C8 C 0.65459(12) 0.07435(6) 1.07015(9)
C9 C 0.61517(13) 0.13704(5) 1.08587(9)
C10 C 0.53044(14) 0.14910(6) 1.15548(10)
C11 C 0.48680(15) 0.09750(7) 1.20755(12)
C12 C 0.52647(16) 0.03506(7) 1.19158(12)
C13 C 0.61219(14) 0.02286(6) 1.12299(11)
C14 C 0.64403(12) 0.15364(5) 0.82507(9)
C15 C 0.50955(13) 0.12937(6) 0.80745(10)
C16 C 0.41212(14) 0.13009(7) 0.70491(11)
C17 C 0.44559(14) 0.15700(7) 0.61454(11)
C18 C 0.57605(13) 0.18350(6) 0.62840(10)
C19 C 0.67607(12) 0.18177(5) 0.73178(9)
C20 C 0.80680(12) 0.21192(6) 0.73080(9)
N2 N 0.92564(10) 0.20099(5) 0.79950(8)
C21 C 1.05257(12) 0.23017(6) 0.79728(9)
C22 C 1.15524(12) 0.20780(6) 0.88868(9)
C23 C 1.29198(13) 0.22776(6) 0.90476(10)
C24 C 1.32206(14) 0.26915(7) 0.82727(11)
C25 C 1.21916(14) 0.29074(6) 0.73587(11)
C26 C 1.08151(13) 0.27173(6) 0.71999(10)
H1 H 1.071(2) 0.1012(10) 0.7528(17)
H2 H 1.099(3) -0.0016(12) 0.679(2)
H3 H 0.987(2) -0.0861(12) 0.7481(19)
H4 H 0.8575(18) -0.0726(9) 0.8799(14)
H5 H 0.775(2) -0.0166(9) 0.9970(15)
H6 H 0.5020(19) 0.1910(9) 1.1609(15)
H7 H 0.434(2) 0.1086(9) 1.2566(17)
H8 H 0.494(2) 0.0006(9) 1.2320(15)
H9 H 0.643(2) -0.0200(9) 1.1161(16)
H10 H 0.4792(19) 0.1108(8) 0.8683(14)
H11 H 0.321(2) 0.1110(9) 0.6985(17)
H12 H 0.381(2) 0.1606(9) 0.5421(16)
H13 H 0.6058(19) 0.2044(9) 0.5659(15)
H14 H 0.8057(18) 0.2398(8) 0.6699(14)
H15 H 1.362(2) 0.2128(10) 0.9638(17)
H16 H 1.423(2) 0.2824(10) 0.8413(16)
H17 H 1.2429(18) 0.3197(9) 0.6825(15)
H18 H 1.0075(17) 0.2863(8) 0.6572(13)
C27 C 0.9221(2) 0.16275(12) 0.50125(15)
Cl1 Cl 0.78831(6) 0.14685(3) 0.38304(4)
Cl2 Cl 1.07693(6) 0.12321(4) 0.49695(4)
H19 H 0.951(4) 0.2142(18) 0.504(3)
H20 H 0.894(3) 0.1514(11) 0.565(2)
C28? C 0.5563(7) 0.0236(3) 0.4741(4)
Cl3? Cl 0.66869(19) 0.00059(10) 0.59308(12)
Cl4? Cl 0.3872(2) -0.00018(11) 0.4638(2)
loop_
_geom_bond_atom_site_label_1
_geom_bond_atom_site_label_2
_geom_bond_site_symmetry_1
_geom_bond_site_symmetry_2
B1 O1 1_555 1_555
B2 O1 1_555 1_555
O2 B2 1_555 1_555
O3 B1 1_555 1_555
C1 B1 1_555 1_555
C2 C1 1_555 1_555
C3 C2 1_555 1_555
C4 C3 1_555 1_555
C5 C4 1_555 1_555
C6 C1 1_555 1_555
C7 C6 1_555 1_555
N1 B2 1_555 1_555
C8 N1 1_555 1_555
C9 O2 1_555 1_555
C10 C9 1_555 1_555
C11 C10 1_555 1_555
C12 C11 1_555 1_555
C13 C8 1_555 1_555
C14 B2 1_555 1_555
C15 C14 1_555 1_555
C16 C15 1_555 1_555
C17 C16 1_555 1_555
C18 C17 1_555 1_555
C19 C14 1_555 1_555
C20 C19 1_555 1_555
N2 B1 1_555 1_555
C21 N2 1_555 1_555
C22 O3 1_555 1_555
C23 C22 1_555 1_555
C24 C23 1_555 1_555
C25 C24 1_555 1_555
C26 C21 1_555 1_555
C27 Cl1 1_555 1_555
Cl2 C27 1_555 1_555
H1 C2 1_555 1_555
H2 C3 1_555 1_555
H3 C4 1_555 1_555
H4 C5 1_555 1_555
H5 C7 1_555 1_555
H6 C10 1_555 1_555
H7 C11 1_555 1_555
H8 C12 1_555 1_555
H9 C13 1_555 1_555
H10 C15 1_555 1_555
H11 C16 1_555 1_555
H12 C17 1_555 1_555
H13 C18 1_555 1_555
H14 C20 1_555 1_555
H15 C23 1_555 1_555
H16 C24 1_555 1_555
H17 C25 1_555 1_555
H18 C26 1_555 1_555
H19 C27 1_555 1_555
H20 C27 1_555 1_555
C5 C6 1_555 1_555
C7 N1 1_555 1_555
C8 C9 1_555 1_555
C12 C13 1_555 1_555
C18 C19 1_555 1_555
C20 N2 1_555 1_555
C21 C22 1_555 1_555
C25 C26 1_555 1_555

#END
