
#######################################################################
#
#                 Cambridge Crystallographic Data Centre
#                                CCDC 
#
#######################################################################
#
# If this CIF has been generated from an entry in the Cambridge 
# Structural Database, then it will include bibliographic, chemical, 
# crystal, experimental, refinement or atomic coordinate data resulting 
# from the CCDC's data processing and validation procedures.
#
#######################################################################

data_MOGLPR
_chemical_name_common            Methyl-alpha-nigeroside
_chemical_formula_moiety         'C13 H24 O11'
_chemical_name_systematic        
Methyl-3-O-\a-D-glucopyranosyl-\a-D-glucopyranoside
_symmetry_cell_setting           monoclinic
_symmetry_space_group_name_H-M   'P 21'
_symmetry_Int_Tables_number      4
_space_group_name_Hall           'P 2yb'
loop_
_symmetry_equiv_pos_site_id
_symmetry_equiv_pos_as_xyz
1 x,y,z
2 -x,1/2+y,-z
_cell_length_a                   6.591(2)
_cell_length_b                   13.243(4)
_cell_length_c                   9.446(2)
_cell_angle_alpha                90
_cell_angle_beta                 108.0(1)
_cell_angle_gamma                90
_cell_volume                     784.137
_cell_formula_units_Z            2
loop_
_atom_site_label
_atom_site_type_symbol
_atom_site_fract_x
_atom_site_fract_y
_atom_site_fract_z
C1 C 0.63470 0.65760 -0.41780
C2 C 0.60220 0.56050 -0.34030
C3 C 0.81590 0.51050 -0.26670
C4 C 0.93000 0.49390 -0.38410
C5 C 0.94980 0.59420 -0.45770
C6 C 1.05220 0.58930 -0.58050
C7 C 0.77110 0.82310 -0.37160
O1 O 0.74840 0.72690 -0.30930
O2 O 0.48950 0.58100 -0.23690
O3 O 0.77990 0.41370 -0.21090
O4 O 1.13820 0.45340 -0.31680
O5 O 0.74040 0.63570 -0.52330
O6 O 0.92520 0.53330 -0.70040
C8 C 0.91540 0.38780 -0.06890
C9 C 0.97620 0.27690 -0.07400
C10 C 0.77780 0.21090 -0.10590
C11 C 0.66730 0.23370 0.01100
C12 C 0.62560 0.34680 0.02240
C13 C 0.55390 0.36880 0.15670
O7 O 1.08230 0.26740 -0.18440
O8 O 0.84170 0.10760 -0.09930
O9 O 0.46790 0.18020 -0.02800
O10 O 0.81860 0.40340 0.04200
O11 O 0.50190 0.47130 0.16990
H1 H 0.50100 0.68300 -0.47600
H2 H 0.51400 0.51500 -0.42400
H3 H 0.90500 0.55100 -0.18700
H4 H 0.83900 0.44900 -0.46600
H5 H 1.04300 0.64300 -0.37900
H6 H 1.17300 0.55700 -0.54700
H7 H 1.06200 0.65400 -0.62000
H8 H 0.64600 0.82900 -0.45300
H9 H 0.80700 0.82000 -0.45200
H10 H 0.86100 0.86700 -0.28700
H11 H 1.03300 0.43100 -0.05100
H12 H 1.07600 0.26300 0.02800
H13 H 0.68700 0.22100 -0.20200
H14 H 0.76600 0.21500 0.10600
H15 H 0.52600 0.36800 -0.07000
H16 H 0.43200 0.33600 0.15000
H17 H 0.67500 0.35300 0.25500
H18 H 0.38000 0.53200 -0.24700
H19 H 1.14700 0.39800 -0.26900
H20 H 0.96200 0.54700 -0.77800
H21 H 1.20700 0.23700 -0.15300
H22 H 0.72800 0.07600 -0.12500
H23 H 0.48100 0.15600 0.04900
H24 H 0.61400 0.49800 0.21100
loop_
_geom_bond_atom_site_label_1
_geom_bond_atom_site_label_2
_geom_bond_site_symmetry_1
_geom_bond_site_symmetry_2
C1 C2 1_555 1_555
C2 C3 1_555 1_555
C3 C4 1_555 1_555
C4 C5 1_555 1_555
C5 C6 1_555 1_555
C6 O6 1_555 1_555
C7 O1 1_555 1_555
O1 C1 1_555 1_555
O2 C2 1_555 1_555
O3 C3 1_555 1_555
O4 C4 1_555 1_555
O5 C1 1_555 1_555
O6 H20 1_555 1_555
C8 O3 1_555 1_555
C9 C8 1_555 1_555
C10 C9 1_555 1_555
C11 C10 1_555 1_555
C12 C11 1_555 1_555
C13 C12 1_555 1_555
O7 C9 1_555 1_555
O8 C10 1_555 1_555
O9 C11 1_555 1_555
O10 C8 1_555 1_555
O11 C13 1_555 1_555
H1 C1 1_555 1_555
H2 C2 1_555 1_555
H3 C3 1_555 1_555
H4 C4 1_555 1_555
H5 C5 1_555 1_555
H6 C6 1_555 1_555
H7 C6 1_555 1_555
H8 C7 1_555 1_555
H9 C7 1_555 1_555
H10 C7 1_555 1_555
H11 C8 1_555 1_555
H12 C9 1_555 1_555
H13 C10 1_555 1_555
H14 C11 1_555 1_555
H15 C12 1_555 1_555
H16 C13 1_555 1_555
H17 C13 1_555 1_555
H18 O2 1_555 1_555
H19 O4 1_555 1_555
H21 O7 1_555 1_555
H22 O8 1_555 1_555
H23 O9 1_555 1_555
H24 O11 1_555 1_555
C5 O5 1_555 1_555
C12 O10 1_555 1_555

#END
