
#######################################################################
#
#                 Cambridge Crystallographic Data Centre
#                                CCDC 
#
#######################################################################
#
# If this CIF has been generated from an entry in the Cambridge 
# Structural Database, then it will include bibliographic, chemical, 
# crystal, experimental, refinement or atomic coordinate data resulting 
# from the CCDC's data processing and validation procedures.
#
#######################################################################

data_MOGXIR
_chemical_formula_moiety         'C32 H24 N6 O8 S2'
_chemical_name_systematic        
1,1'-bis((2-Nitrophenyl)sulfonyl)-2,2',3,3'-tetrahydro-1H,1'H-3a,3a'-bipyrrolo[2,3-b]indole
_symmetry_cell_setting           tetragonal
_symmetry_space_group_name_H-M   'I -4'
_symmetry_Int_Tables_number      82
_space_group_name_Hall           'I -4'
loop_
_symmetry_equiv_pos_site_id
_symmetry_equiv_pos_as_xyz
1 x,y,z
2 y,-x,-z
3 -x,-y,z
4 -y,x,-z
5 1/2+x,1/2+y,1/2+z
6 1/2+y,1/2-x,1/2-z
7 1/2-x,1/2-y,1/2+z
8 1/2-y,1/2+x,1/2-z
_cell_length_a                   21.9204(5)
_cell_length_b                   21.9204(5)
_cell_length_c                   14.1057(4)
_cell_angle_alpha                90
_cell_angle_beta                 90
_cell_angle_gamma                90
_cell_volume                     6777.84
_exptl_crystal_colour            colorless
_exptl_crystal_description       plate
_cell_formula_units_Z            8
loop_
_atom_site_label
_atom_site_type_symbol
_atom_site_fract_x
_atom_site_fract_y
_atom_site_fract_z
S1 S 0.24486(6) 0.84718(5) -0.00601(10)
S2 S 0.15478(9) 0.97050(7) 0.16673(12)
N1 N 0.27999(19) 0.91302(17) -0.0061(3)
N2 N 0.26963(18) 0.94401(18) -0.1695(3)
N3 N 0.1896(3) 1.0038(2) 0.0792(4)
N4 N 0.2611(3) 1.0692(2) 0.1614(4)
N5 N 0.3520(3) 0.7572(3) 0.0467(6)
N6 N 0.1326(6) 0.9684(5) 0.3863(6)
O1 O 0.18701(19) 0.8574(2) -0.0489(4)
O2 O 0.2502(2) 0.82502(18) 0.0894(3)
O3 O 0.1989(3) 0.9415(3) 0.2226(4)
O4 O 0.1075(3) 0.9342(2) 0.1238(4)
O5 O 0.3836(2) 0.7988(2) 0.0745(5)
O6 O 0.3357(4) 0.7139(3) 0.1019(6)
O7 O 0.1025(6) 0.9216(4) 0.3585(8)
O8 O 0.1680(8) 0.9728(8) 0.4515(7)
C1 C 0.2645(2) 1.0600(2) -0.0096(4)
C2 C 0.2032(2) 1.0624(2) -0.0643(4)
H1 H 0.1845 1.1024 -0.0586
H2 H 0.2094 1.0534 -0.1310
C3 C 0.1627(3) 1.0130(3) -0.0170(4)
H3 H 0.1208 1.0267 -0.0124
H4 H 0.1637 0.9754 -0.0532
C4 C 0.2407(3) 1.0416(3) 0.0870(4)
C5 C 0.2976(3) 1.1173(3) 0.0194(5)
C6 C 0.2985(4) 1.1164(3) 0.1217(5)
C7 C 0.3283(4) 1.1597(3) 0.1745(6)
H5 H 0.3296 1.1579 0.2403
C8 C 0.3573(4) 1.2081(3) 0.1221(7)
H6 H 0.3795 1.2376 0.1544
C9 C 0.3526(4) 1.2111(3) 0.0249(7)
H7 H 0.3689 1.2447 -0.0065
C10 C 0.3245(3) 1.1657(3) -0.0279(5)
H8 H 0.3236 1.1678 -0.0938
C11 C 0.1193(3) 1.0301(3) 0.2310(5)
C12 C 0.1161(4) 1.0236(4) 0.3324(6)
C13 C 0.0956(4) 1.0719(4) 0.3885(6)
H9 H 0.0947 1.0688 0.4542
C14 C 0.0766(6) 1.1256(4) 0.3425(8)
H10 H 0.0583 1.1571 0.3763
C15 C 0.0854(6) 1.1302(4) 0.2487(9)
H11 H 0.0758 1.1671 0.2198
C16 C 0.1079(5) 1.0834(4) 0.1916(7)
H12 H 0.1148 1.0896 0.1272
C17 C 0.3122(2) 1.0130(2) -0.0527(4)
C18 C 0.3576(3) 0.9878(2) 0.0212(4)
H13 H 0.3951 0.9747 -0.0091
H14 H 0.3672 1.0186 0.0683
C19 C 0.3245(3) 0.9333(3) 0.0671(4)
H15 H 0.3531 0.9009 0.0822
H16 H 0.3037 0.9457 0.1247
C20 C 0.2809(2) 0.9528(2) -0.0803(4)
C21 C 0.3315(2) 1.0316(2) -0.1517(4)
C22 C 0.2999(2) 0.9948(2) -0.2154(4)
C23 C 0.3051(2) 1.0017(3) -0.3118(4)
H17 H 0.2834 0.9773 -0.3539
C24 C 0.3445(3) 1.0473(3) -0.3433(5)
H18 H 0.3482 1.0544 -0.4081
C25 C 0.3780(3) 1.0820(3) -0.2819(6)
H19 H 0.4049 1.1110 -0.3057
C26 C 0.3724(3) 1.0748(3) -0.1855(5)
H20 H 0.3955 1.0982 -0.1439
C27 C 0.2847(3) 0.7978(2) -0.0821(4)
C28 C 0.3299(3) 0.7575(3) -0.0503(6)
C29 C 0.3557(4) 0.7155(3) -0.1088(8)
H21 H 0.3840 0.6879 -0.0849
C30 C 0.3398(5) 0.7136(4) -0.2041(9)
H22 H 0.3587 0.6859 -0.2444
C31 C 0.2960(5) 0.7526(4) -0.2389(6)
H23 H 0.2851 0.7510 -0.3026
C32 C 0.2669(3) 0.7961(3) -0.1765(4)
H24 H 0.2368 0.8223 -0.1991
H25? H 0.0780 1.0144 0.2205
loop_
_geom_bond_atom_site_label_1
_geom_bond_atom_site_label_2
_geom_bond_site_symmetry_1
_geom_bond_site_symmetry_2
S1 N1 1_555 1_555
S2 N3 1_555 1_555
N1 C19 1_555 1_555
N2 C20 1_555 1_555
N3 C3 1_555 1_555
N4 C4 1_555 1_555
N5 O5 1_555 1_555
N6 O7 1_555 1_555
O1 S1 1_555 1_555
O2 S1 1_555 1_555
O3 S2 1_555 1_555
O4 S2 1_555 1_555
O6 N5 1_555 1_555
O8 N6 1_555 1_555
C1 C2 1_555 1_555
C2 H1 1_555 1_555
H2 C2 1_555 1_555
C3 C2 1_555 1_555
H3 C3 1_555 1_555
H4 C3 1_555 1_555
C4 N3 1_555 1_555
C5 C1 1_555 1_555
C6 N4 1_555 1_555
C7 C6 1_555 1_555
H5 C7 1_555 1_555
C8 C7 1_555 1_555
H6 C8 1_555 1_555
C9 C8 1_555 1_555
H7 C9 1_555 1_555
C10 C5 1_555 1_555
H8 C10 1_555 1_555
C11 S2 1_555 1_555
C12 N6 1_555 1_555
C13 C12 1_555 1_555
H9 C13 1_555 1_555
C14 C13 1_555 1_555
H10 C14 1_555 1_555
C15 C14 1_555 1_555
H11 C15 1_555 1_555
C16 C11 1_555 1_555
H12 C16 1_555 1_555
C17 C1 1_555 1_555
C18 C17 1_555 1_555
H13 C18 1_555 1_555
H14 C18 1_555 1_555
C19 C18 1_555 1_555
H15 C19 1_555 1_555
H16 C19 1_555 1_555
C20 N1 1_555 1_555
C21 C17 1_555 1_555
C22 N2 1_555 1_555
C23 C22 1_555 1_555
H17 C23 1_555 1_555
C24 C23 1_555 1_555
H18 C24 1_555 1_555
C25 C24 1_555 1_555
H19 C25 1_555 1_555
C26 C21 1_555 1_555
H20 C26 1_555 1_555
C27 S1 1_555 1_555
C28 N5 1_555 1_555
C29 C28 1_555 1_555
H21 C29 1_555 1_555
C30 C29 1_555 1_555
H22 C30 1_555 1_555
C31 C30 1_555 1_555
H23 C31 1_555 1_555
C32 C27 1_555 1_555
H24 C32 1_555 1_555
C1 C4 1_555 1_555
C5 C6 1_555 1_555
C9 C10 1_555 1_555
C11 C12 1_555 1_555
C15 C16 1_555 1_555
C17 C20 1_555 1_555
C21 C22 1_555 1_555
C25 C26 1_555 1_555
C27 C28 1_555 1_555
C31 C32 1_555 1_555

#END
