
#######################################################################
#
#                 Cambridge Crystallographic Data Centre
#                                CCDC 
#
#######################################################################
#
# If this CIF has been generated from an entry in the Cambridge 
# Structural Database, then it will include bibliographic, chemical, 
# crystal, experimental, refinement or atomic coordinate data resulting 
# from the CCDC's data processing and validation procedures.
#
#######################################################################

data_MOGXEN
_chemical_formula_moiety         'C40 H34 N4 O8,C4 H8 O2'
_chemical_name_systematic        
"1,1'-Dibenzyl 2,2'-dimethyl 2,2',3,3'-tetrahydro-1H,1'H-3a,3a'-bipyrrolo[2,3-b]indole-1,1',2,2'-tetracarboxylate ethyl acetate solvate"
_symmetry_cell_setting           monoclinic
_symmetry_space_group_name_H-M   'P 21'
_symmetry_Int_Tables_number      4
_space_group_name_Hall           'P 2yb'
loop_
_symmetry_equiv_pos_site_id
_symmetry_equiv_pos_as_xyz
1 x,y,z
2 -x,1/2+y,-z
_cell_length_a                   10.1723(8)
_cell_length_b                   19.9258(16)
_cell_length_c                   10.4443(9)
_cell_angle_alpha                90
_cell_angle_beta                 90.467(2)
_cell_angle_gamma                90
_cell_volume                     2116.9
_exptl_crystal_colour            colorless
_exptl_crystal_description       block
_cell_formula_units_Z            2
loop_
_atom_site_label
_atom_site_type_symbol
_atom_site_fract_x
_atom_site_fract_y
_atom_site_fract_z
N1 N 0.5455(2) 0.00134(10) 0.40479(19)
N2 N 0.5393(2) 0.03789(11) 0.62690(19)
N3 N 0.7142(2) 0.21715(13) 0.6632(2)
N4 N 0.8048(2) 0.10488(12) 0.6343(2)
O1 O 0.56776(19) -0.01323(11) 0.81989(17)
O2 O 0.65394(17) -0.05722(9) 0.63926(17)
O3 O 0.2904(2) 0.02334(11) 0.7338(2)
O4 O 0.29389(18) 0.13081(12) 0.79939(19)
O5 O 0.8992(2) 0.02788(13) 0.7666(2)
O6 O 0.7697(2) 0.11137(15) 0.84434(18)
O7 O 1.07132(18) 0.10414(10) 0.5544(2)
O8 O 1.02710(19) 0.00915(11) 0.4457(2)
C1 C 0.5154(2) 0.04067(12) 0.2934(2)
C2 C 0.4885(3) 0.01461(14) 0.1722(2)
H1 H 0.5009 -0.0316 0.1536
C3 C 0.4424(3) 0.05928(16) 0.0795(2)
H2 H 0.4251 0.0433 -0.0047
C4 C 0.4213(3) 0.12596(16) 0.1070(3)
H3 H 0.3869 0.1547 0.0424
C5 C 0.4498(3) 0.15220(14) 0.2290(2)
H4 H 0.4354 0.1983 0.2476
C6 C 0.4990(2) 0.10933(12) 0.3208(2)
C7 C 0.5414(2) 0.11877(12) 0.4590(2)
C8 C 0.4440(2) 0.14236(12) 0.5611(2)
H5 H 0.3523 0.1370 0.5305
H6 H 0.4591 0.1901 0.5829
C9 C 0.4715(2) 0.09646(12) 0.6794(2)
H7 H 0.5294 0.1202 0.7428
C10 C 0.5516(2) 0.04491(12) 0.4953(2)
C11 C 0.3414(2) 0.07720(15) 0.7410(2)
C12 C 0.1640(3) 0.1236(2) 0.8542(3)
H8 H 0.0987 0.1189 0.7852
H9 H 0.1435 0.1634 0.9055
H10 H 0.1620 0.0836 0.9088
C13 C 0.5860(2) -0.01266(12) 0.7057(2)
C14 C 0.7151(3) -0.11068(14) 0.7165(3)
H11 H 0.6468 -0.1404 0.7528
H12 H 0.7670 -0.0911 0.7879
C15 C 0.8019(3) -0.14921(14) 0.6296(3)
C16 C 0.9370(3) -0.13599(16) 0.6254(3)
H13 H 0.9733 -0.1012 0.6768
C17 C 1.0180(3) -0.17330(18) 0.5467(4)
H14 H 1.1097 -0.1642 0.5458
C18 C 0.9681(3) -0.22333(17) 0.4699(4)
H15 H 1.0250 -0.2487 0.4169
C19 C 0.8325(3) -0.23680(18) 0.4700(4)
H16 H 0.7969 -0.2707 0.4160
C20 C 0.7506(3) -0.19992(15) 0.5503(3)
H17 H 0.6591 -0.2092 0.5513
C21 C 0.6663(2) 0.26070(15) 0.5650(3)
C22 C 0.6401(3) 0.32846(16) 0.5805(4)
H18 H 0.6389 0.3486 0.6629
C23 C 0.6157(3) 0.36569(15) 0.4699(4)
H19 H 0.5954 0.4121 0.4775
C24 C 0.6200(3) 0.33694(16) 0.3488(4)
H20 H 0.6085 0.3644 0.2751
C25 C 0.6410(2) 0.26807(14) 0.3343(3)
H21 H 0.6409 0.2480 0.2518
C26 C 0.6621(2) 0.23007(12) 0.4429(3)
C27 C 0.6813(2) 0.15588(12) 0.4665(2)
C28 C 0.7943(2) 0.11590(12) 0.4061(2)
H22 H 0.8646 0.1463 0.3762
H23 H 0.7621 0.0888 0.3328
C29 C 0.8452(2) 0.06992(12) 0.5161(2)
H24 H 0.8037 0.0245 0.5106
C30 C 0.7298(2) 0.16118(13) 0.6046(2)
C31 C 0.9949(2) 0.06439(13) 0.5108(2)
C32 C 1.1675(3) -0.0034(2) 0.4336(4)
H25 H 1.2083 0.0337 0.3867
H26 H 1.1812 -0.0454 0.3869
H27 H 1.2075 -0.0068 0.5190
C33 C 0.8318(3) 0.07631(17) 0.7531(3)
C34 C 0.7843(4) 0.0849(2) 0.9740(3)
H28 H 0.8111 0.0372 0.9699
H29 H 0.6986 0.0872 1.0182
C35 C 0.8840(3) 0.12348(17) 1.0486(2)
C36 C 0.8790(5) 0.1915(3) 1.0518(7)
H30 H 0.8112 0.2140 1.0057
C37 C 0.9685(7) 0.2285(4) 1.1193(9)
H31 H 0.9628 0.2761 1.1170
C38 C 1.0609(6) 0.2006(4) 1.1864(5)
H32 H 1.1211 0.2280 1.2327
C39 C 1.0732(3) 0.1342(4) 1.1917(3)
H33 H 1.1402 0.1141 1.2427
C40 C 0.9812(3) 0.0925(2) 1.1173(3)
H34 H 0.9892 0.0450 1.1171
C41 C 0.4750(7) 0.8101(6) 0.0345(8)
O9 O 0.3771(8) 0.8530(3) 0.0726(6)
C42 C 0.5542(12) 0.7869(6) 0.1290(12)
H35 H 0.6211 0.7573 0.0924
H36 H 0.5019 0.7618 0.1911
H37 H 0.5973 0.8248 0.1719
C43 C 0.2965(11) 0.8855(6) -0.0197(10)
H38 H 0.2763 0.8524 -0.0877
H39 H 0.3499 0.9213 -0.0595
O10 O 0.4932(13) 0.7982(9) -0.0722(12)
C44 C 0.1648(15) 0.9175(7) 0.021(3)
H40 H 0.1228 0.9388 -0.0535
H41 H 0.1814 0.9514 0.0871
H42 H 0.1068 0.8827 0.0550
loop_
_geom_bond_atom_site_label_1
_geom_bond_atom_site_label_2
_geom_bond_site_symmetry_1
_geom_bond_site_symmetry_2
N1 C1 1_555 1_555
N2 C9 1_555 1_555
N3 C21 1_555 1_555
N4 C29 1_555 1_555
O1 C13 1_555 1_555
O2 C13 1_555 1_555
O3 C11 1_555 1_555
O4 C11 1_555 1_555
O5 C33 1_555 1_555
O6 C33 1_555 1_555
O7 C31 1_555 1_555
O8 C31 1_555 1_555
C1 C2 1_555 1_555
C2 H1 1_555 1_555
C3 C2 1_555 1_555
H2 C3 1_555 1_555
C4 C3 1_555 1_555
H3 C4 1_555 1_555
C5 C4 1_555 1_555
H4 C5 1_555 1_555
C6 C1 1_555 1_555
C7 C6 1_555 1_555
C8 C7 1_555 1_555
H5 C8 1_555 1_555
H6 C8 1_555 1_555
C9 C8 1_555 1_555
H7 C9 1_555 1_555
C10 N1 1_555 1_555
C11 C9 1_555 1_555
C12 O4 1_555 1_555
H8 C12 1_555 1_555
H9 C12 1_555 1_555
H10 C12 1_555 1_555
C13 N2 1_555 1_555
C14 O2 1_555 1_555
H11 C14 1_555 1_555
H12 C14 1_555 1_555
C15 C14 1_555 1_555
C16 C15 1_555 1_555
H13 C16 1_555 1_555
C17 C16 1_555 1_555
H14 C17 1_555 1_555
C18 C17 1_555 1_555
H15 C18 1_555 1_555
C19 C18 1_555 1_555
H16 C19 1_555 1_555
C20 C15 1_555 1_555
H17 C20 1_555 1_555
C21 C22 1_555 1_555
C22 H18 1_555 1_555
C23 C22 1_555 1_555
H19 C23 1_555 1_555
C24 C23 1_555 1_555
H20 C24 1_555 1_555
C25 C24 1_555 1_555
H21 C25 1_555 1_555
C26 C21 1_555 1_555
C27 C7 1_555 1_555
C28 C27 1_555 1_555
H22 C28 1_555 1_555
H23 C28 1_555 1_555
C29 C28 1_555 1_555
H24 C29 1_555 1_555
C30 N3 1_555 1_555
C31 C29 1_555 1_555
C32 O8 1_555 1_555
H25 C32 1_555 1_555
H26 C32 1_555 1_555
H27 C32 1_555 1_555
C33 N4 1_555 1_555
C34 O6 1_555 1_555
H28 C34 1_555 1_555
H29 C34 1_555 1_555
C35 C34 1_555 1_555
C36 C35 1_555 1_555
H30 C36 1_555 1_555
C37 C36 1_555 1_555
H31 C37 1_555 1_555
C38 C37 1_555 1_555
H32 C38 1_555 1_555
C39 C38 1_555 1_555
H33 C39 1_555 1_555
C40 C35 1_555 1_555
H34 C40 1_555 1_555
C41 O9 1_555 1_555
O9 C43 1_555 1_555
C42 C41 1_555 1_555
H35 C42 1_555 1_555
H36 C42 1_555 1_555
H37 C42 1_555 1_555
C43 H38 1_555 1_555
H39 C43 1_555 1_555
O10 C41 1_555 1_555
C44 C43 1_555 1_555
H40 C44 1_555 1_555
H41 C44 1_555 1_555
H42 C44 1_555 1_555
N2 C10 1_555 1_555
N4 C30 1_555 1_555
C5 C6 1_555 1_555
C7 C10 1_555 1_555
C19 C20 1_555 1_555
C25 C26 1_555 1_555
C26 C27 1_555 1_555
C27 C30 1_555 1_555
C39 C40 1_555 1_555

#END
