
#######################################################################
#
#                 Cambridge Crystallographic Data Centre
#                                CCDC 
#
#######################################################################
#
# If this CIF has been generated from an entry in the Cambridge 
# Structural Database, then it will include bibliographic, chemical, 
# crystal, experimental, refinement or atomic coordinate data resulting 
# from the CCDC's data processing and validation procedures.
#
#######################################################################

data_MOKMEG
_chemical_formula_moiety         'C40 H34 S2'
_chemical_name_systematic        
5,11-bis(4-t-Butylphenyl)indeno[2,1-b]indeno[1',2':4,5]thieno[2,3-d]thiophene
_symmetry_cell_setting           monoclinic
_symmetry_space_group_name_H-M   'C 2/c'
_symmetry_Int_Tables_number      15
_space_group_name_Hall           '-C 2yn'
loop_
_symmetry_equiv_pos_site_id
_symmetry_equiv_pos_as_xyz
1 x,y,z
2 -x,y,1/2-z
3 1/2+x,1/2+y,z
4 1/2-x,1/2+y,1/2-z
5 -x,-y,-z
6 x,-y,1/2+z
7 1/2-x,1/2-y,-z
8 1/2+x,1/2-y,1/2+z
_cell_length_a                   24.0560(10)
_cell_length_b                   16.0276(10)
_cell_length_c                   18.3518(16)
_cell_angle_alpha                90
_cell_angle_beta                 122.105(4)
_cell_angle_gamma                90
_cell_volume                     5993.67
_exptl_crystal_colour            black
_exptl_crystal_description       plate
_cell_formula_units_Z            8
_chemical_properties_physical    'Air-sensitive, Light-sensitive'
_exptl_crystal_recrystallization_method chloroform/acetonitrile
loop_
_atom_site_label
_atom_site_type_symbol
_atom_site_fract_x
_atom_site_fract_y
_atom_site_fract_z
S1 S 0.42585(8) 0.34459(7) 0.86469(8)
S2 S 0.56395(8) 0.51864(7) 0.87694(8)
C1 C 0.4043(3) 0.4442(3) 0.8807(3)
C2 C 0.3560(3) 0.4773(3) 0.8898(3)
C3 C 0.3690(3) 0.5683(3) 0.9026(3)
C4 C 0.3355(3) 0.6344(3) 0.9122(3)
H1 H 0.2964 0.6248 0.9118
C5 C 0.3609(4) 0.7150(4) 0.9224(4)
H2 H 0.3382 0.7601 0.9289
C6 C 0.4170(4) 0.7315(3) 0.9233(4)
H3 H 0.4329 0.7871 0.9315
C7 C 0.4514(4) 0.6670(3) 0.9124(3)
H4 H 0.4903 0.6780 0.9125
C8 C 0.4268(3) 0.5873(3) 0.9014(3)
C9 C 0.4496(3) 0.5076(3) 0.8876(3)
C10 C 0.4977(3) 0.4765(3) 0.8776(3)
C11 C 0.4933(3) 0.3862(3) 0.8664(3)
C12 C 0.5440(3) 0.3548(3) 0.8627(3)
C13 C 0.5718(4) 0.2740(3) 0.8604(3)
C14 C 0.5496(3) 0.1934(3) 0.8554(3)
H5 H 0.5096 0.1826 0.8525
C15 C 0.5884(4) 0.1280(3) 0.8549(3)
H6 H 0.5754 0.0718 0.8535
C16 C 0.6448(4) 0.1448(3) 0.8565(4)
H7 H 0.6695 0.0997 0.8544
C17 C 0.6672(3) 0.2258(3) 0.8613(3)
H8 H 0.7067 0.2362 0.8629
C18 C 0.6298(3) 0.2920(3) 0.8635(3)
C19 C 0.6412(3) 0.3838(3) 0.8687(3)
C20 C 0.5887(3) 0.4184(3) 0.8677(3)
C21 C 0.3007(3) 0.4334(3) 0.8843(3)
C22 C 0.2722(3) 0.3647(3) 0.8311(3)
H9 H 0.2890 0.3464 0.7971
C23 C 0.2203(3) 0.3220(3) 0.8259(3)
H10 H 0.2020 0.2755 0.7883
C24 C 0.1944(4) 0.3459(3) 0.8747(3)
C25 C 0.2230(3) 0.4150(3) 0.9292(3)
H11 H 0.2064 0.4331 0.9633
C26 C 0.2750(3) 0.4573(3) 0.9341(3)
H12 H 0.2937 0.5036 0.9720
C27 C 0.1360(4) 0.3034(4) 0.8697(4)
C28 C 0.1559(4) 0.2666(4) 0.9582(4)
H13 H 0.1774 0.3098 1.0025
H14 H 0.1863 0.2200 0.9719
H15 H 0.1166 0.2467 0.9564
C29 C 0.0814(4) 0.3678(4) 0.8426(4)
H16 H 0.0441 0.3414 0.8412
H17 H 0.0672 0.3892 0.7853
H18 H 0.0978 0.4139 0.8839
C30 C 0.1095(4) 0.2324(4) 0.8043(5)
H19 H 0.0700 0.2091 0.7996
H20 H 0.1429 0.1888 0.8231
H21 H 0.0985 0.2538 0.7481
C31 C 0.6956(3) 0.4281(3) 0.8714(3)
C32 C 0.6863(3) 0.5044(3) 0.8294(3)
H22 H 0.6439 0.5290 0.8001
C33 C 0.7371(3) 0.5451(3) 0.8294(3)
H23 H 0.7288 0.5963 0.7993
C34 C 0.8005(3) 0.5118(3) 0.8730(3)
C35 C 0.8103(3) 0.4376(3) 0.9187(3)
H24 H 0.8531 0.4143 0.9508
C36 C 0.7600(3) 0.3980(3) 0.9185(3)
H25 H 0.7689 0.3484 0.9513
C37 C 0.8563(3) 0.5510(3) 0.8689(4)
C38 C 0.9179(4) 0.5646(4) 0.9582(4)
H26 H 0.9526 0.5891 0.9521
H27 H 0.9329 0.5109 0.9881
H28 H 0.9077 0.6024 0.9914
C39 C 0.8364(4) 0.6372(4) 0.8243(4)
H29 H 0.8721 0.6593 0.8192
H30 H 0.8277 0.6757 0.8586
H31 H 0.7968 0.6313 0.7669
C40 C 0.8746(4) 0.4939(4) 0.8173(4)
H32 H 0.8370 0.4892 0.7580
H33 H 0.8862 0.4384 0.8438
H34 H 0.9120 0.5177 0.8172
loop_
_geom_bond_atom_site_label_1
_geom_bond_atom_site_label_2
_geom_bond_site_symmetry_1
_geom_bond_site_symmetry_2
S1 C1 1_555 1_555
S2 C10 1_555 1_555
C1 C2 1_555 1_555
C2 C3 1_555 1_555
C3 C4 1_555 1_555
C4 H1 1_555 1_555
C5 C4 1_555 1_555
H2 C5 1_555 1_555
C6 C5 1_555 1_555
H3 C6 1_555 1_555
C7 C6 1_555 1_555
H4 C7 1_555 1_555
C8 C3 1_555 1_555
C9 C1 1_555 1_555
C10 C9 1_555 1_555
C11 S1 1_555 1_555
C12 C11 1_555 1_555
C13 C12 1_555 1_555
C14 C13 1_555 1_555
H5 C14 1_555 1_555
C15 C14 1_555 1_555
H6 C15 1_555 1_555
C16 C15 1_555 1_555
H7 C16 1_555 1_555
C17 C16 1_555 1_555
H8 C17 1_555 1_555
C18 C13 1_555 1_555
C19 C18 1_555 1_555
C20 S2 1_555 1_555
C21 C2 1_555 1_555
C22 C21 1_555 1_555
H9 C22 1_555 1_555
C23 C22 1_555 1_555
H10 C23 1_555 1_555
C24 C23 1_555 1_555
C25 C24 1_555 1_555
H11 C25 1_555 1_555
C26 C21 1_555 1_555
H12 C26 1_555 1_555
C27 C24 1_555 1_555
C28 C27 1_555 1_555
H13 C28 1_555 1_555
H14 C28 1_555 1_555
H15 C28 1_555 1_555
C29 C27 1_555 1_555
H16 C29 1_555 1_555
H17 C29 1_555 1_555
H18 C29 1_555 1_555
C30 C27 1_555 1_555
H19 C30 1_555 1_555
H20 C30 1_555 1_555
H21 C30 1_555 1_555
C31 C19 1_555 1_555
C32 C31 1_555 1_555
H22 C32 1_555 1_555
C33 C32 1_555 1_555
H23 C33 1_555 1_555
C34 C33 1_555 1_555
C35 C34 1_555 1_555
H24 C35 1_555 1_555
C36 C31 1_555 1_555
H25 C36 1_555 1_555
C37 C34 1_555 1_555
C38 C37 1_555 1_555
H26 C38 1_555 1_555
H27 C38 1_555 1_555
H28 C38 1_555 1_555
C39 C37 1_555 1_555
H29 C39 1_555 1_555
H30 C39 1_555 1_555
H31 C39 1_555 1_555
C40 C37 1_555 1_555
H32 C40 1_555 1_555
H33 C40 1_555 1_555
H34 C40 1_555 1_555
C7 C8 1_555 1_555
C8 C9 1_555 1_555
C10 C11 1_555 1_555
C12 C20 1_555 1_555
C17 C18 1_555 1_555
C19 C20 1_555 1_555
C25 C26 1_555 1_555
C35 C36 1_555 1_555

#END
