
#######################################################################
#
#                 Cambridge Crystallographic Data Centre
#                                CCDC 
#
#######################################################################
#
# If this CIF has been generated from an entry in the Cambridge 
# Structural Database, then it will include bibliographic, chemical, 
# crystal, experimental, refinement or atomic coordinate data resulting 
# from the CCDC's data processing and validation procedures.
#
#######################################################################

data_MOKNOQ
_chemical_formula_moiety         'C10 H8 O3'
_chemical_name_systematic        3-Phenyltetrahydrofuran-2,5-dione
_symmetry_cell_setting           orthorhombic
_symmetry_space_group_name_H-M   'P 21 21 21'
_symmetry_Int_Tables_number      19
_space_group_name_Hall           'P 2ac 2ab'
loop_
_symmetry_equiv_pos_site_id
_symmetry_equiv_pos_as_xyz
1 x,y,z
2 1/2-x,-y,1/2+z
3 -x,1/2+y,1/2-z
4 1/2+x,1/2-y,-z
_cell_length_a                   5.6172(9)
_cell_length_b                   10.1460(12)
_cell_length_c                   14.9899(19)
_cell_angle_alpha                90
_cell_angle_beta                 90
_cell_angle_gamma                90
_cell_volume                     854.306
_exptl_crystal_colour            colorless
_exptl_crystal_description       block
_cell_formula_units_Z            4
_exptl_crystal_recrystallization_method 'petroleum ether/dichloromethane'
loop_
_atom_site_label
_atom_site_type_symbol
_atom_site_fract_x
_atom_site_fract_y
_atom_site_fract_z
O1 O 0.4229(4) 0.1359(2) 0.81130(15)
O2 O 0.2752(5) 0.0346(2) 0.69260(15)
O3 O 0.4849(4) 0.2600(3) 0.93134(16)
C1 C 0.2504(7) 0.1168(3) 0.7480(2)
C2 C 0.0469(6) 0.2115(3) 0.76195(17)
H1 H -0.0975 0.1607 0.7747
C3 C 0.1200(7) 0.2861(3) 0.84658(19)
H2 H 0.1304 0.3800 0.8349
H3 H 0.001(4) 0.267(3) 0.8964(14)
C4 C 0.3563(7) 0.2335(3) 0.8716(2)
C5 C 0.0043(5) 0.2936(3) 0.67943(17)
C6 C 0.1636(5) 0.3888(3) 0.65339(19)
H4 H 0.3001 0.4032 0.6871
C7 C 0.1241(7) 0.4634(3) 0.5779(2)
H5 H 0.2342 0.5271 0.5611
C8 C -0.0773(7) 0.4438(3) 0.5275(2)
H6 H -0.115(5) 0.505(2) 0.4773(14)
C9 C -0.2372(6) 0.3485(3) 0.55219(19)
H7 H -0.3733 0.3343 0.5182
C10 C -0.1959(5) 0.2734(3) 0.62758(19)
H8 H -0.3043 0.2083 0.6436
loop_
_geom_bond_atom_site_label_1
_geom_bond_atom_site_label_2
_geom_bond_site_symmetry_1
_geom_bond_site_symmetry_2
O1 C1 1_555 1_555
O2 C1 1_555 1_555
O3 C4 1_555 1_555
C1 C2 1_555 1_555
C2 H1 1_555 1_555
C3 C2 1_555 1_555
H2 C3 1_555 1_555
H3 C3 1_555 1_555
C4 O1 1_555 1_555
C5 C2 1_555 1_555
C6 C5 1_555 1_555
H4 C6 1_555 1_555
C7 C6 1_555 1_555
H5 C7 1_555 1_555
C8 C7 1_555 1_555
H6 C8 1_555 1_555
C9 C8 1_555 1_555
H7 C9 1_555 1_555
C10 C5 1_555 1_555
H8 C10 1_555 1_555
C3 C4 1_555 1_555
C9 C10 1_555 1_555

#END
