
#######################################################################
#
#                 Cambridge Crystallographic Data Centre
#                                CCDC 
#
#######################################################################
#
# If this CIF has been generated from an entry in the Cambridge 
# Structural Database, then it will include bibliographic, chemical, 
# crystal, experimental, refinement or atomic coordinate data resulting 
# from the CCDC's data processing and validation procedures.
#
#######################################################################

data_MOKPEH
_chemical_formula_moiety         'C27 H23 Cl1'
_chemical_name_systematic        
1-t-Butyl-7-chloro-1,2-diphenyl-1H-cyclobut[a]indene
_symmetry_cell_setting           monoclinic
_symmetry_space_group_name_H-M   'P 21/n'
_symmetry_Int_Tables_number      14
_space_group_name_Hall           '-P 2yn'
loop_
_symmetry_equiv_pos_site_id
_symmetry_equiv_pos_as_xyz
1 x,y,z
2 1/2-x,1/2+y,1/2-z
3 -x,-y,-z
4 1/2+x,1/2-y,1/2+z
_cell_length_a                   9.336(1)
_cell_length_b                   18.430(2)
_cell_length_c                   12.728(1)
_cell_angle_alpha                90
_cell_angle_beta                 106.535(6)
_cell_angle_gamma                90
_cell_volume                     2099.45
_exptl_crystal_colour            yellow
_chemical_melting_point          156-157deg.C
_cell_formula_units_Z            4
loop_
_atom_site_label
_atom_site_type_symbol
_atom_site_fract_x
_atom_site_fract_y
_atom_site_fract_z
Cl1 Cl 0.1659(1) 0.0431(1) 0.3556(1)
C1 C 0.1215(3) 0.2445(2) 0.4514(2)
C2 C -0.0441(3) 0.2639(2) 0.4532(2)
C3 C -0.0936(3) 0.1955(2) 0.4216(2)
C4 C -0.2019(3) 0.1364(2) 0.3903(3)
C5 C -0.3517(4) 0.1282(2) 0.3826(3)
C6 C -0.4190(5) 0.0616(2) 0.3483(4)
C7 C -0.3399(5) 0.0056(2) 0.3221(4)
C8 C -0.1896(5) 0.0125(2) 0.3290(3)
C9 C -0.1203(4) 0.0783(2) 0.3641(3)
C10 C 0.0361(3) 0.1014(2) 0.3807(3)
C11 C 0.0485(3) 0.1700(2) 0.4155(2)
C12 C 0.2483(3) 0.2413(2) 0.5628(2)
C13 C 0.1853(4) 0.2107(2) 0.6520(3)
C14 C 0.3704(4) 0.1906(2) 0.5500(3)
C15 C 0.3209(4) 0.3147(2) 0.6009(3)
C16 C 0.1714(3) 0.2818(2) 0.3612(2)
C17 C 0.1603(3) 0.3565(2) 0.3454(3)
C18 C 0.2117(4) 0.3894(2) 0.2660(3)
C19 C 0.2753(4) 0.3502(2) 0.2005(3)
C20 C 0.2861(4) 0.2762(2) 0.2136(3)
C21 C 0.2341(3) 0.2424(2) 0.2925(2)
C22 C -0.1255(3) 0.3280(2) 0.4731(2)
C23 C -0.2806(4) 0.3290(2) 0.4322(3)
C24 C -0.3631(4) 0.3874(2) 0.4491(3)
C25 C -0.2923(5) 0.4464(2) 0.5085(4)
C26 C -0.1417(5) 0.4456(2) 0.5497(4)
C27 C -0.0580(4) 0.3877(2) 0.5331(3)
H1 H -0.4062(4) 0.1663(2) 0.3999(3)
H2 H -0.5196(5) 0.0552(2) 0.3432(4)
H3 H -0.3879(5) -0.0382(2) 0.2991(4)
H4 H -0.1368(5) -0.0259(2) 0.3105(3)
H5 H 0.2649(5) 0.2045(10) 0.7184(5)
H6 H 0.1389(20) 0.1647(5) 0.6288(7)
H7 H 0.1126(17) 0.2438(6) 0.6648(12)
H8 H 0.4472(12) 0.1871(9) 0.6184(5)
H9 H 0.4123(16) 0.2092(6) 0.4948(12)
H10 H 0.3288(6) 0.1433(4) 0.5286(16)
H11 H 0.4024(14) 0.3081(2) 0.6661(9)
H12 H 0.2483(7) 0.3467(4) 0.6163(15)
H13 H 0.3577(19) 0.3353(5) 0.5444(7)
H14 H 0.1175(3) 0.3846(2) 0.3891(3)
H15 H 0.2027(4) 0.4395(2) 0.2570(3)
H16 H 0.3109(4) 0.3731(2) 0.1478(3)
H17 H 0.3287(4) 0.2487(2) 0.1690(3)
H18 H 0.2413(3) 0.1922(2) 0.2996(2)
H19 H -0.3295(4) 0.2893(2) 0.3925(3)
H20 H -0.4666(4) 0.3872(2) 0.4206(3)
H21 H -0.3473(5) 0.4861(2) 0.5201(4)
H22 H -0.0938(5) 0.4852(2) 0.5901(4)
H23 H 0.0453(4) 0.3886(2) 0.5626(3)
loop_
_geom_bond_atom_site_label_1
_geom_bond_atom_site_label_2
_geom_bond_site_symmetry_1
_geom_bond_site_symmetry_2
Cl1 C10 1_555 1_555
C1 C2 1_555 1_555
C2 C3 1_555 1_555
C3 C4 1_555 1_555
C4 C5 1_555 1_555
C5 C6 1_555 1_555
C6 C7 1_555 1_555
C7 C8 1_555 1_555
C8 C9 1_555 1_555
C9 C4 1_555 1_555
C10 C9 1_555 1_555
C11 C1 1_555 1_555
C12 C1 1_555 1_555
C13 C12 1_555 1_555
C14 C12 1_555 1_555
C15 C12 1_555 1_555
C16 C1 1_555 1_555
C17 C16 1_555 1_555
C18 C17 1_555 1_555
C19 C18 1_555 1_555
C20 C19 1_555 1_555
C21 C16 1_555 1_555
C22 C2 1_555 1_555
C23 C22 1_555 1_555
C24 C23 1_555 1_555
C25 C24 1_555 1_555
C26 C25 1_555 1_555
C27 C22 1_555 1_555
H1 C5 1_555 1_555
H2 C6 1_555 1_555
H3 C7 1_555 1_555
H4 C8 1_555 1_555
H5 C13 1_555 1_555
H6 C13 1_555 1_555
H7 C13 1_555 1_555
H8 C14 1_555 1_555
H9 C14 1_555 1_555
H10 C14 1_555 1_555
H11 C15 1_555 1_555
H12 C15 1_555 1_555
H13 C15 1_555 1_555
H14 C17 1_555 1_555
H15 C18 1_555 1_555
H16 C19 1_555 1_555
H17 C20 1_555 1_555
H18 C21 1_555 1_555
H19 C23 1_555 1_555
H20 C24 1_555 1_555
H21 C25 1_555 1_555
H22 C26 1_555 1_555
H23 C27 1_555 1_555
C3 C11 1_555 1_555
C10 C11 1_555 1_555
C20 C21 1_555 1_555
C26 C27 1_555 1_555

#END
