
#######################################################################
#
#                 Cambridge Crystallographic Data Centre
#                                CCDC 
#
#######################################################################
#
# If this CIF has been generated from an entry in the Cambridge 
# Structural Database, then it will include bibliographic, chemical, 
# crystal, experimental, refinement or atomic coordinate data resulting 
# from the CCDC's data processing and validation procedures.
#
#######################################################################

data_MOLJON
_chemical_compound_source        
'seeds of the mangrove Avicennia marina from Hong Kong'
_chemical_formula_moiety         'C8 H10 O4'
_chemical_name_systematic        
1-Methyl-2,5,9-trioxatricyclo[5.2.1.0^4,8^]decan-6-one
_symmetry_cell_setting           orthorhombic
_symmetry_space_group_name_H-M   'P 21 21 21'
_symmetry_Int_Tables_number      19
_space_group_name_Hall           'P 2ac 2ab'
loop_
_symmetry_equiv_pos_site_id
_symmetry_equiv_pos_as_xyz
1 x,y,z
2 1/2-x,-y,1/2+z
3 -x,1/2+y,1/2-z
4 1/2+x,1/2-y,-z
_cell_length_a                   7.2745(11)
_cell_length_b                   9.7015(15)
_cell_length_c                   10.8735(17)
_cell_angle_alpha                90
_cell_angle_beta                 90
_cell_angle_gamma                90
_cell_volume                     767.382
_exptl_crystal_colour            colorless
_exptl_crystal_description       block
_chemical_melting_point          '178-180 deg.C'
_cell_formula_units_Z            4
_exptl_crystal_recrystallization_method 'ethyl acetate'
loop_
_atom_site_label
_atom_site_type_symbol
_atom_site_fract_x
_atom_site_fract_y
_atom_site_fract_z
C1 C 0.5914(3) 0.6991(2) 0.67008(18)
C2 C 0.3914(3) 0.73708(19) 0.66999(16)
H1 H 0.3630 0.8065 0.6073
C3 C 0.2639(3) 0.6110(2) 0.66086(16)
H2 H 0.1547 0.6319 0.6132
H3 H 0.3267 0.5330 0.6241
C4 C 0.2163(2) 0.58305(18) 0.79442(16)
C5 C 0.0493(3) 0.4964(2) 0.8188(2)
H4 H 0.0317 0.4874 0.9059
H5 H 0.0660 0.4067 0.7831
H6 H -0.0566 0.5396 0.7830
C6 C 0.3529(2) 0.78994(18) 0.80015(15)
H7 H 0.3374 0.8902 0.8033
C7 C 0.5219(3) 0.74026(19) 0.87281(15)
H8 H 0.5605 0.8094 0.9332
C8 C 0.4715(3) 0.6060(2) 0.93516(16)
H9 H 0.5821 0.5600 0.9634
H10 H 0.3945 0.6245 1.0061
O1 O 0.6840(2) 0.6575(2) 0.58735(15)
O2 O 0.66389(18) 0.71597(16) 0.78389(12)
O3 O 0.19450(16) 0.71705(13) 0.84378(12)
O4 O 0.37582(18) 0.51926(13) 0.85119(12)
loop_
_geom_bond_atom_site_label_1
_geom_bond_atom_site_label_2
_geom_bond_site_symmetry_1
_geom_bond_site_symmetry_2
C1 C2 1_555 1_555
C2 H1 1_555 1_555
C3 C2 1_555 1_555
H2 C3 1_555 1_555
H3 C3 1_555 1_555
C4 C3 1_555 1_555
C5 C4 1_555 1_555
H4 C5 1_555 1_555
H5 C5 1_555 1_555
H6 C5 1_555 1_555
C6 C2 1_555 1_555
H7 C6 1_555 1_555
C7 C6 1_555 1_555
H8 C7 1_555 1_555
C8 C7 1_555 1_555
H9 C8 1_555 1_555
H10 C8 1_555 1_555
O1 C1 1_555 1_555
O2 C1 1_555 1_555
O3 C4 1_555 1_555
O4 C4 1_555 1_555
C6 O3 1_555 1_555
C7 O2 1_555 1_555
C8 O4 1_555 1_555

#END
