
#######################################################################
#
#                 Cambridge Crystallographic Data Centre
#                                CCDC 
#
#######################################################################
#
# If this CIF has been generated from an entry in the Cambridge 
# Structural Database, then it will include bibliographic, chemical, 
# crystal, experimental, refinement or atomic coordinate data resulting 
# from the CCDC's data processing and validation procedures.
#
#######################################################################

data_MOLMUV
_chemical_formula_moiety         'C32 H24 N4 O8,C6 H6'
_chemical_name_systematic        
"Cyclo-(N,N'-bis(cyclohexane-1,2-diyl)-bis(pyromellitdiimide)) benzene solvate"
_symmetry_cell_setting           triclinic
_symmetry_space_group_name_H-M   'P 1'
_symmetry_Int_Tables_number      1
_space_group_name_Hall           'P 1'
loop_
_symmetry_equiv_pos_site_id
_symmetry_equiv_pos_as_xyz
1 x,y,z
_cell_length_a                   6.9170(10)
_cell_length_b                   7.569(2)
_cell_length_c                   15.812(3)
_cell_angle_alpha                82.91(3)
_cell_angle_beta                 81.64(3)
_cell_angle_gamma                71.09(3)
_cell_volume                     772.253
_exptl_crystal_colour            colorless
_exptl_crystal_description       plate
_chemical_melting_point          'above 360 deg.C'
_cell_formula_units_Z            1
loop_
_atom_site_label
_atom_site_type_symbol
_atom_site_fract_x
_atom_site_fract_y
_atom_site_fract_z
C1 C 0.1288(4) -0.4644(4) 1.22316(17)
H1 H 0.2072 -0.5861 1.2050
C2 C 0.2727(4) -0.3955(4) 1.26834(17)
H2 H 0.1888 -0.2873 1.2971
C3 C 0.3672(5) -0.5471(4) 1.33691(19)
H3 H 0.4583 -0.5074 1.3650
H4 H 0.4451 -0.6605 1.3107
C4 C 0.1947(5) -0.5837(5) 1.40241(19)
H5 H 0.1257 -0.4725 1.4317
H6 H 0.2528 -0.6827 1.4443
C5 C 0.0394(5) -0.6356(4) 1.3600(2)
H7 H -0.0710 -0.6472 1.4025
H8 H 0.1044 -0.7550 1.3370
C6 C -0.0487(5) -0.4898(5) 1.2878(2)
H9 H -0.1396 -0.5306 1.2601
H10 H -0.1252 -0.3724 1.3108
C7 C -0.0082(4) -0.1465(4) 1.13980(19)
C8 C 0.0118(4) -0.0837(4) 1.04597(18)
C9 C -0.0138(4) 0.0957(4) 1.00693(18)
H11 H -0.0707 0.2059 1.0379
C10 C 0.0482(4) 0.1028(4) 0.91954(18)
C11 C 0.0794(4) 0.2640(4) 0.86157(17)
C12 C 0.2044(4) -0.0006(4) 0.78459(18)
C13 C 0.1224(4) -0.0570(4) 0.87360(18)
C14 C 0.1419(4) -0.2365(4) 0.91215(18)
H12 H 0.1913 -0.3461 0.8807
C15 C 0.0852(4) -0.2433(4) 1.00041(18)
C16 C 0.1105(4) -0.4114(4) 1.06394(18)
C17 C 0.3256(4) 0.2838(4) 0.73083(17)
H13 H 0.3141 0.3941 0.7579
C18 C 0.5533(4) 0.1596(4) 0.72856(17)
H14 H 0.5711 0.0606 0.6927
C19 C 0.6927(5) 0.2725(4) 0.6859(2)
H15 H 0.6767 0.3749 0.7194
H16 H 0.8336 0.1945 0.6833
C20 C 0.6370(5) 0.3477(4) 0.59551(19)
H17 H 0.7195 0.4255 0.5707
H18 H 0.6673 0.2449 0.5605
C21 C 0.4097(5) 0.4626(4) 0.59625(18)
H19 H 0.3826 0.5722 0.6264
H20 H 0.3780 0.5030 0.5385
C22 C 0.2707(5) 0.3482(4) 0.63985(19)
H21 H 0.1288 0.4231 0.6409
H22 H 0.2917 0.2414 0.6085
C23 C 0.6568(4) -0.1254(4) 0.83350(19)
C24 C 0.6303(4) -0.1554(4) 0.92909(18)
C25 C 0.6386(4) -0.3218(4) 0.97957(18)
H23 H 0.6839 -0.4419 0.9564
C26 C 0.5775(4) -0.2993(4) 1.06579(18)
C27 C 0.5292(4) -0.4389(4) 1.13448(18)
C28 C 0.4219(4) -0.1480(4) 1.19060(18)
C29 C 0.5145(4) -0.1243(4) 1.09986(17)
C30 C 0.5138(4) 0.0407(4) 1.04973(18)
H24 H 0.4770 0.1599 1.0731
C31 C 0.5709(4) 0.0180(4) 0.96288(18)
C32 C 0.5604(4) 0.1652(4) 0.88900(19)
N1 N 0.0628(4) -0.3413(3) 1.14553(15)
N2 N 0.4241(4) -0.3366(3) 1.20434(15)
N3 N 0.1891(4) 0.1891(3) 0.78518(15)
N4 N 0.6034(4) 0.0709(3) 0.81454(15)
O1 O -0.0686(4) -0.0486(3) 1.19925(14)
O2 O 0.1634(3) -0.5749(3) 1.05156(13)
O3 O 0.0313(3) 0.4259(3) 0.87610(13)
O4 O 0.2753(3) -0.0958(3) 0.72469(13)
O5 O 0.5199(3) 0.3328(3) 0.89148(14)
O6 O 0.7078(4) -0.2397(3) 0.78129(14)
O7 O 0.3525(4) -0.0324(3) 1.24229(13)
O8 O 0.5667(3) -0.6056(3) 1.13082(13)
C33 C 0.7313(7) -0.1895(5) 0.5663(2)
H25 H 0.6905 -0.2446 0.6212
C34 C 0.6051(7) -0.1454(6) 0.5035(3)
H26 H 0.4773 -0.1732 0.5136
C35 C 0.6606(8) -0.0630(5) 0.4250(3)
H27 H 0.5702 -0.0309 0.3809
C36 C 0.8442(7) -0.0268(5) 0.4098(2)
H28 H 0.8836 0.0304 0.3552
C37 C 0.9734(7) -0.0702(6) 0.4722(3)
H29 H 1.1027 -0.0453 0.4612
C38 C 0.9161(8) -0.1522(5) 0.5521(3)
H30 H 1.0061 -0.1829 0.5962
loop_
_geom_bond_atom_site_label_1
_geom_bond_atom_site_label_2
_geom_bond_site_symmetry_1
_geom_bond_site_symmetry_2
C1 H1 1_555 1_555
C2 C1 1_555 1_555
H2 C2 1_555 1_555
C3 C2 1_555 1_555
H3 C3 1_555 1_555
H4 C3 1_555 1_555
C4 C3 1_555 1_555
H5 C4 1_555 1_555
H6 C4 1_555 1_555
C5 C4 1_555 1_555
H7 C5 1_555 1_555
H8 C5 1_555 1_555
C6 C1 1_555 1_555
H9 C6 1_555 1_555
H10 C6 1_555 1_555
C7 C8 1_555 1_555
C8 C9 1_555 1_555
C9 H11 1_555 1_555
C10 C9 1_555 1_555
C11 C10 1_555 1_555
C12 C13 1_555 1_555
C13 C10 1_555 1_555
C14 C13 1_555 1_555
H12 C14 1_555 1_555
C15 C8 1_555 1_555
C16 C15 1_555 1_555
C17 H13 1_555 1_555
C18 C17 1_555 1_555
H14 C18 1_555 1_555
C19 C18 1_555 1_555
H15 C19 1_555 1_555
H16 C19 1_555 1_555
C20 C19 1_555 1_555
H17 C20 1_555 1_555
H18 C20 1_555 1_555
C21 C20 1_555 1_555
H19 C21 1_555 1_555
H20 C21 1_555 1_555
C22 C17 1_555 1_555
H21 C22 1_555 1_555
H22 C22 1_555 1_555
C23 C24 1_555 1_555
C24 C25 1_555 1_555
C25 H23 1_555 1_555
C26 C25 1_555 1_555
C27 C26 1_555 1_555
C28 C29 1_555 1_555
C29 C26 1_555 1_555
C30 C29 1_555 1_555
H24 C30 1_555 1_555
C31 C24 1_555 1_555
C32 C31 1_555 1_555
N1 C1 1_555 1_555
N2 C2 1_555 1_555
N3 C11 1_555 1_555
N4 C18 1_555 1_555
O1 C7 1_555 1_555
O2 C16 1_555 1_555
O3 C11 1_555 1_555
O4 C12 1_555 1_555
O5 C32 1_555 1_555
O6 C23 1_555 1_555
O7 C28 1_555 1_555
O8 C27 1_555 1_555
C33 H25 1_555 1_555
C34 C33 1_555 1_555
H26 C34 1_555 1_555
C35 C34 1_555 1_555
H27 C35 1_555 1_555
C36 C35 1_555 1_555
H28 C36 1_555 1_555
C37 C36 1_555 1_555
H29 C37 1_555 1_555
C38 C33 1_555 1_555
H30 C38 1_555 1_555
C5 C6 1_555 1_555
C7 N1 1_555 1_555
C12 N3 1_555 1_555
C14 C15 1_555 1_555
C16 N1 1_555 1_555
C17 N3 1_555 1_555
C21 C22 1_555 1_555
C23 N4 1_555 1_555
C27 N2 1_555 1_555
C28 N2 1_555 1_555
C30 C31 1_555 1_555
C32 N4 1_555 1_555
C37 C38 1_555 1_555

#END
