
#######################################################################
#
#                 Cambridge Crystallographic Data Centre
#                                CCDC 
#
#######################################################################
#
# If this CIF has been generated from an entry in the Cambridge 
# Structural Database, then it will include bibliographic, chemical, 
# crystal, experimental, refinement or atomic coordinate data resulting 
# from the CCDC's data processing and validation procedures.
#
#######################################################################

data_MOLRAI
_chemical_formula_moiety         'C6 H16 N1 1+,C3 H1 F6 O4 S1 1-'
_chemical_name_systematic        
'triethylammonium 1,1,1,3,3,3-hexafluoropropan-2-yl sulfate'
_symmetry_cell_setting           monoclinic
_symmetry_space_group_name_H-M   'P 21/c'
_symmetry_Int_Tables_number      14
_space_group_name_Hall           '-P 2ybc'
loop_
_symmetry_equiv_pos_site_id
_symmetry_equiv_pos_as_xyz
1 x,y,z
2 -x,1/2+y,1/2-z
3 -x,-y,-z
4 x,1/2-y,1/2+z
_cell_length_a                   15.0716(6)
_cell_length_b                   9.0850(4)
_cell_length_c                   25.0798(10)
_cell_angle_alpha                90
_cell_angle_beta                 119.699(3)
_cell_angle_gamma                90
_cell_volume                     2982.97
_exptl_crystal_colour            colorless
_chemical_melting_point          '315 K'
_cell_formula_units_Z            8
_exptl_crystal_recrystallization_method tetrahydrofuran
loop_
_atom_site_label
_atom_site_type_symbol
_atom_site_fract_x
_atom_site_fract_y
_atom_site_fract_z
N1 N 0.6041(2) 0.2428(3) 0.58664(12)
H1 H 0.582(2) 0.243(3) 0.5466(9)
C1 C 0.6964(3) 0.3399(4) 0.61722(16)
H2 H 0.7527 0.2920 0.6158
H3 H 0.7155 0.3519 0.6600
C2 C 0.6799(3) 0.4898(4) 0.58796(18)
H4 H 0.6563 0.4788 0.5449
H5 H 0.7431 0.5434 0.6069
H6 H 0.6298 0.5426 0.5934
C3 C 0.5162(3) 0.3044(4) 0.59285(17)
H7 H 0.5301 0.2887 0.6346
H8 H 0.5120 0.4097 0.5856
C4 C 0.4160(3) 0.2364(4) 0.54956(16)
H9 H 0.3626 0.2866 0.5526
H10 H 0.4166 0.1345 0.5598
H11 H 0.4042 0.2445 0.5084
C5 C 0.6280(3) 0.0882(4) 0.61042(17)
H12 H 0.5647 0.0329 0.5940
H13 H 0.6587 0.0899 0.6548
C6 C 0.6992(3) 0.0102(4) 0.59369(17)
H14 H 0.7022 -0.0924 0.6035
H15 H 0.7663 0.0523 0.6164
H16 H 0.6745 0.0212 0.5505
S1 S 0.58005(6) 0.24708(9) 0.42525(4)
F1 F 0.77424(16) 0.5168(2) 0.46206(11)
F2 F 0.91118(16) 0.4091(2) 0.47724(11)
F3 F 0.87643(17) 0.4243(3) 0.55043(10)
F4 F 0.78917(15) 0.0028(2) 0.47909(11)
F5 F 0.88053(15) 0.1277(2) 0.56084(9)
F6 F 0.92262(15) 0.1165(2) 0.49097(9)
O1 O 0.52589(18) 0.2307(3) 0.45901(11)
O2 O 0.56064(18) 0.3802(3) 0.39188(11)
O3 O 0.57964(17) 0.1186(3) 0.39241(11)
O4 O 0.69808(15) 0.2618(2) 0.48356(9)
C7 C 0.7774(2) 0.2602(3) 0.46889(14)
H17 H 0.7480 0.2505 0.4244
C8 C 0.8360(3) 0.4038(4) 0.49007(16)
C9 C 0.8439(2) 0.1255(4) 0.50079(16)
N2 N -0.3066(2) -0.1206(3) 0.30826(14)
H18 H -0.284(3) -0.027(3) 0.3226(16)
C10 C -0.2971(3) -0.1285(4) 0.25259(18)
H19 H -0.2273 -0.1049 0.2635
H20 H -0.3412 -0.0545 0.2237
C11 C -0.3241(3) -0.2755(4) 0.22160(19)
H21 H -0.3111 -0.2750 0.1878
H22 H -0.3951 -0.2954 0.2067
H23 H -0.2833 -0.3503 0.2504
C12 C -0.2420(3) -0.2275(4) 0.35773(19)
H24 H -0.2505 -0.2095 0.3931
H25 H -0.2660 -0.3264 0.3433
C13 C -0.1320(4) -0.2183(5) 0.3771(2)
H26 H -0.0935 -0.2773 0.4131
H27 H -0.1098 -0.1178 0.3860
H28 H -0.1213 -0.2539 0.3447
C14 C -0.4149(3) -0.1303(4) 0.2970(2)
H29 H -0.4422 -0.2268 0.2803
H30 H -0.4134 -0.1213 0.3359
C15 C -0.4845(3) -0.0172(4) 0.25454(18)
H31 H -0.5502 -0.0262 0.2516
H32 H -0.4914 -0.0306 0.2147
H33 H -0.4570 0.0788 0.2698
S2 S -0.24349(6) 0.27645(9) 0.30300(4)
F7 F -0.0167(2) 0.3261(3) 0.24576(12)
F8 F 0.05343(17) 0.4926(3) 0.31486(11)
F9 F -0.10700(16) 0.5039(3) 0.25001(11)
F10 F 0.02782(18) 0.0989(2) 0.33230(10)
F11 F 0.11823(16) 0.2685(2) 0.39503(11)
F12 F 0.00467(16) 0.1557(2) 0.40717(9)
O5 O -0.32854(18) 0.2518(3) 0.24367(11)
O6 O -0.23076(18) 0.4218(2) 0.32749(11)
O7 O -0.22846(17) 0.1632(2) 0.34692(10)
O8 O -0.14858(17) 0.2526(2) 0.28895(10)
C16 C -0.0551(2) 0.3243(4) 0.32682(15)
H34 H -0.0637 0.3928 0.3541
C17 C -0.0300(3) 0.4112(4) 0.28378(18)
C18 C 0.0246(3) 0.2107(4) 0.36504(16)
loop_
_geom_bond_atom_site_label_1
_geom_bond_atom_site_label_2
_geom_bond_site_symmetry_1
_geom_bond_site_symmetry_2
N1 H1 1_555 1_555
C1 N1 1_555 1_555
H2 C1 1_555 1_555
H3 C1 1_555 1_555
C2 C1 1_555 1_555
H4 C2 1_555 1_555
H5 C2 1_555 1_555
H6 C2 1_555 1_555
C3 N1 1_555 1_555
H7 C3 1_555 1_555
H8 C3 1_555 1_555
C4 C3 1_555 1_555
H9 C4 1_555 1_555
H10 C4 1_555 1_555
H11 C4 1_555 1_555
C5 N1 1_555 1_555
H12 C5 1_555 1_555
H13 C5 1_555 1_555
C6 C5 1_555 1_555
H14 C6 1_555 1_555
H15 C6 1_555 1_555
H16 C6 1_555 1_555
S1 O1 1_555 1_555
F1 C8 1_555 1_555
F2 C8 1_555 1_555
F3 C8 1_555 1_555
F4 C9 1_555 1_555
F5 C9 1_555 1_555
F6 C9 1_555 1_555
O2 S1 1_555 1_555
O3 S1 1_555 1_555
O4 S1 1_555 1_555
C7 O4 1_555 1_555
H17 C7 1_555 1_555
C8 C7 1_555 1_555
C9 C7 1_555 1_555
N2 H18 1_555 1_555
C10 N2 1_555 1_555
H19 C10 1_555 1_555
H20 C10 1_555 1_555
C11 C10 1_555 1_555
H21 C11 1_555 1_555
H22 C11 1_555 1_555
H23 C11 1_555 1_555
C12 N2 1_555 1_555
H24 C12 1_555 1_555
H25 C12 1_555 1_555
C13 C12 1_555 1_555
H26 C13 1_555 1_555
H27 C13 1_555 1_555
H28 C13 1_555 1_555
C14 N2 1_555 1_555
H29 C14 1_555 1_555
H30 C14 1_555 1_555
C15 C14 1_555 1_555
H31 C15 1_555 1_555
H32 C15 1_555 1_555
H33 C15 1_555 1_555
S2 O5 1_555 1_555
F7 C17 1_555 1_555
F8 C17 1_555 1_555
F9 C17 1_555 1_555
F10 C18 1_555 1_555
F11 C18 1_555 1_555
F12 C18 1_555 1_555
O6 S2 1_555 1_555
O7 S2 1_555 1_555
O8 S2 1_555 1_555
C16 O8 1_555 1_555
H34 C16 1_555 1_555
C17 C16 1_555 1_555
C18 C16 1_555 1_555

#END
