
#######################################################################
#
#                 Cambridge Crystallographic Data Centre
#                                CCDC 
#
#######################################################################
#
# If this CIF has been generated from an entry in the Cambridge 
# Structural Database, then it will include bibliographic, chemical, 
# crystal, experimental, refinement or atomic coordinate data resulting 
# from the CCDC's data processing and validation procedures.
#
#######################################################################

data_MOMKAC
_chemical_formula_moiety         'C22 H19 N1 O3'
_chemical_name_systematic        
6-(2,6-Dimethylphenoxy)-2-ethyl-1H-benzo[de]isoquinoline-1,3(2H)-dione
_symmetry_cell_setting           monoclinic
_symmetry_space_group_name_H-M   'P 21/c'
_symmetry_Int_Tables_number      14
_space_group_name_Hall           '-P 2ybc'
loop_
_symmetry_equiv_pos_site_id
_symmetry_equiv_pos_as_xyz
1 x,y,z
2 -x,1/2+y,1/2-z
3 -x,-y,-z
4 x,1/2-y,1/2+z
_cell_length_a                   11.085(6)
_cell_length_b                   14.161(8)
_cell_length_c                   10.946(6)
_cell_angle_alpha                90
_cell_angle_beta                 93.577(11)
_cell_angle_gamma                90
_cell_volume                     1714.9
_exptl_crystal_colour            yellow
_exptl_crystal_description       rectangular
_cell_formula_units_Z            4
loop_
_atom_site_label
_atom_site_type_symbol
_atom_site_fract_x
_atom_site_fract_y
_atom_site_fract_z
O1 O 0.7354(3) 0.2238(2) 0.2891(3)
C1 C 0.8347(4) -0.0051(3) 0.4054(4)
C2 C 0.8295(4) 0.0800(3) 0.3374(4)
N1 N 0.8482(4) -0.1735(2) 0.5406(4)
C3 C 0.7493(4) -0.0234(3) 0.4907(4)
C4 C 0.6532(4) 0.1250(3) 0.4430(4)
H1 H 0.587(3) 0.1705(19) 0.4564(7)
O2 O 1.0083(3) -0.2190(2) 0.4386(3)
C5 C 0.9271(4) -0.0706(3) 0.3855(4)
C6 C 0.7551(5) -0.1109(3) 0.5625(5)
C7 C 0.6622(4) 0.0422(3) 0.5093(4)
H2 H 0.611(3) 0.0315(6) 0.564(3)
C8 C 0.6426(4) 0.2908(3) 0.2969(4)
C9 C 0.9314(5) -0.1591(3) 0.4558(5)
O3 O 0.6843(4) -0.1306(2) 0.6377(4)
C10 C 0.7351(4) 0.1441(3) 0.3597(4)
C11 C 1.0073(5) 0.0342(4) 0.2394(5)
H3 H 1.070(3) 0.0481(7) 0.181(3)
C12 C 0.9179(4) 0.0981(3) 0.2546(4)
H4 H 0.9155(4) 0.156(2) 0.208(2)
C13 C 1.0125(5) -0.0504(4) 0.3044(5)
H5 H 1.078(3) -0.096(2) 0.2919(7)
C14 C 0.8583(5) -0.2607(3) 0.6136(5)
H6 H 0.8196(12) -0.2505(4) 0.693(3)
H7 H 0.946(3) -0.2753(5) 0.6330(9)
C15 C 0.6673(5) 0.3687(3) 0.3699(4)
C16 C 0.5369(5) 0.2775(3) 0.2285(4)
C17 C 0.4725(6) 0.4287(4) 0.2999(6)
H8 H 0.402(3) 0.486(2) 0.3000(6)
C18 C 0.4517(5) 0.3479(4) 0.2310(5)
H9 H 0.377(4) 0.3409(5) 0.184(2)
C19 C 0.5802(6) 0.4383(3) 0.3682(5)
H10 H 0.5945(10) 0.492(3) 0.414(2)
C20 C 0.5127(5) 0.1914(4) 0.1536(5)
H11 H 0.589(2) 0.1688(16) 0.121(3)
H12 H 0.453(3) 0.2064(8) 0.084(3)
H13 H 0.479(3) 0.1412(17) 0.2053(16)
C21 C 0.7814(5) 0.3774(4) 0.4475(5)
H14 H 0.849(2) 0.371(2) 0.3973(15)
H15 H 0.7848(15) 0.329(2) 0.509(3)
H16 H 0.7842(15) 0.438(2) 0.487(3)
C22 C 0.7999(5) -0.3427(3) 0.5489(5)
H17 H 0.808(3) -0.3981(19) 0.600(2)
H18 H 0.838(3) -0.3539(18) 0.473(3)
H19 H 0.715(3) -0.3295(12) 0.531(3)
loop_
_geom_bond_atom_site_label_1
_geom_bond_atom_site_label_2
_geom_bond_site_symmetry_1
_geom_bond_site_symmetry_2
O1 C8 1_555 1_555
C1 C2 1_555 1_555
C2 C10 1_555 1_555
N1 C6 1_555 1_555
C3 C1 1_555 1_555
C4 H1 1_555 1_555
O2 C9 1_555 1_555
C5 C1 1_555 1_555
C6 C3 1_555 1_555
C7 C3 1_555 1_555
H2 C7 1_555 1_555
C8 C15 1_555 1_555
C9 N1 1_555 1_555
O3 C6 1_555 1_555
C10 O1 1_555 1_555
C11 H3 1_555 1_555
C12 C2 1_555 1_555
H4 C12 1_555 1_555
C13 C5 1_555 1_555
H5 C13 1_555 1_555
C14 N1 1_555 1_555
H6 C14 1_555 1_555
H7 C14 1_555 1_555
C15 C19 1_555 1_555
C16 C8 1_555 1_555
C17 H8 1_555 1_555
C18 C16 1_555 1_555
H9 C18 1_555 1_555
C19 C17 1_555 1_555
H10 C19 1_555 1_555
C20 C16 1_555 1_555
H11 C20 1_555 1_555
H12 C20 1_555 1_555
H13 C20 1_555 1_555
C21 C15 1_555 1_555
H14 C21 1_555 1_555
H15 C21 1_555 1_555
H16 C21 1_555 1_555
C22 C14 1_555 1_555
H17 C22 1_555 1_555
H18 C22 1_555 1_555
H19 C22 1_555 1_555
C4 C7 1_555 1_555
C4 C10 1_555 1_555
C5 C9 1_555 1_555
C11 C12 1_555 1_555
C11 C13 1_555 1_555
C17 C18 1_555 1_555

#END
