
#######################################################################
#
#                 Cambridge Crystallographic Data Centre
#                                CCDC 
#
#######################################################################
#
# If this CIF has been generated from an entry in the Cambridge 
# Structural Database, then it will include bibliographic, chemical, 
# crystal, experimental, refinement or atomic coordinate data resulting 
# from the CCDC's data processing and validation procedures.
#
#######################################################################

data_MOMTIT
_chemical_formula_moiety         'C20 H16 Cl1 N3 O4 S1'
_chemical_name_systematic        
5-chloro-N-((2-oxo-3-(4-(2-oxopyridin-1(2H)-yl)phenyl)-1,3-oxazolidin-5-yl)methyl)thiophene-2-carboxamide
_symmetry_cell_setting           monoclinic
_symmetry_space_group_name_H-M   'P 21'
_symmetry_Int_Tables_number      4
_space_group_name_Hall           'P 2yb'
loop_
_symmetry_equiv_pos_site_id
_symmetry_equiv_pos_as_xyz
1 x,y,z
2 -x,1/2+y,-z
_cell_length_a                   5.7900(12)
_cell_length_b                   13.086(3)
_cell_length_c                   12.889(3)
_cell_angle_alpha                90
_cell_angle_beta                 100.86(3)
_cell_angle_gamma                90
_cell_volume                     959.083
_exptl_crystal_colour            colorless
_exptl_crystal_description       prism
_cell_formula_units_Z            2
loop_
_atom_site_label
_atom_site_type_symbol
_atom_site_fract_x
_atom_site_fract_y
_atom_site_fract_z
S1 S 0.88494(10) 1.36835(5) 0.71575(4)
Cl1 Cl 1.16090(13) 1.46291(5) 0.90851(5)
O1 O 1.2356(3) 0.75421(14) 1.01196(12)
O2 O 0.4494(2) 1.03031(11) 0.47908(10)
O3 O 0.3102(2) 1.01027(12) 0.62689(11)
O4 O 0.6751(3) 1.27360(13) 0.51546(12)
N1 N 0.8757(3) 0.67944(14) 0.96278(12)
N2 N 0.6487(3) 0.92783(12) 0.60155(11)
N3 N 0.9131(3) 1.13587(14) 0.52527(13)
H1 H 1.046(2) 1.1053(15) 0.5595(14)
C1 C 1.0936(4) 0.68989(18) 1.03045(16)
C2 C 1.1309(4) 0.62166(19) 1.11819(17)
H2 H 1.2736 0.6244 1.1654
C3 C 0.9701(5) 0.5541(2) 1.1355(2)
H3 H 1.0019 0.5108 1.1937
C4 C 0.7524(5) 0.5483(2) 1.0659(2)
H4 H 0.6381 0.5021 1.0778
C5 C 0.7128(4) 0.61036(18) 0.98215(18)
H5 H 0.5695 0.6063 0.9355
C6 C 0.8186(4) 0.74298(16) 0.87034(15)
C7 C 0.6184(4) 0.80146(17) 0.85576(16)
H6 H 0.5232 0.8005 0.9064
C8 C 0.5566(3) 0.86167(18) 0.76695(15)
H7 H 0.4191 0.9001 0.7576
C9 C 0.6987(3) 0.86501(16) 0.69173(13)
C10 C 0.8986(3) 0.80392(17) 0.70660(15)
H8 H 0.9929 0.8033 0.6556
C11 C 0.9589(4) 0.74458(17) 0.79529(16)
H9 H 1.0951 0.7053 0.8047
C12 C 0.4583(4) 0.98944(16) 0.57549(16)
C13 C 0.7682(4) 0.91607(16) 0.51267(14)
H10 H 0.7425 0.8485 0.4816
H11 H 0.9359 0.9279 0.5337
C14 C 0.6523(4) 0.99857(16) 0.43624(15)
H12 H 0.5986 0.9679 0.3665
C15 C 0.8010(4) 1.09123(17) 0.42481(16)
H13 H 0.9218 1.0720 0.3856
H14 H 0.7027 1.1426 0.3839
C16 C 0.8450(4) 1.22518(17) 0.56037(16)
C17 C 0.9931(4) 1.26624(16) 0.65738(15)
C18 C 1.2094(4) 1.23978(18) 0.71049(16)
H15 H 1.2956 1.1860 0.6899
C19 C 1.2923(4) 1.30096(18) 0.79970(17)
H16 H 1.4368 1.2924 0.8446
C20 C 1.1345(4) 1.37315(18) 0.81097(15)
loop_
_geom_bond_atom_site_label_1
_geom_bond_atom_site_label_2
_geom_bond_site_symmetry_1
_geom_bond_site_symmetry_2
S1 C17 1_555 1_555
Cl1 C20 1_555 1_555
O1 C1 1_555 1_555
O2 C12 1_555 1_555
O3 C12 1_555 1_555
O4 C16 1_555 1_555
N1 C1 1_555 1_555
N2 C9 1_555 1_555
N3 H1 1_555 1_555
C1 C2 1_555 1_555
C2 H2 1_555 1_555
C3 C2 1_555 1_555
H3 C3 1_555 1_555
C4 C3 1_555 1_555
H4 C4 1_555 1_555
C5 N1 1_555 1_555
H5 C5 1_555 1_555
C6 N1 1_555 1_555
C7 C6 1_555 1_555
H6 C7 1_555 1_555
C8 C7 1_555 1_555
H7 C8 1_555 1_555
C9 C8 1_555 1_555
C10 C9 1_555 1_555
H8 C10 1_555 1_555
C11 C6 1_555 1_555
H9 C11 1_555 1_555
C12 N2 1_555 1_555
C13 N2 1_555 1_555
H10 C13 1_555 1_555
H11 C13 1_555 1_555
C14 O2 1_555 1_555
H12 C14 1_555 1_555
C15 N3 1_555 1_555
H13 C15 1_555 1_555
H14 C15 1_555 1_555
C16 N3 1_555 1_555
C17 C16 1_555 1_555
C18 C17 1_555 1_555
H15 C18 1_555 1_555
C19 C18 1_555 1_555
H16 C19 1_555 1_555
C20 S1 1_555 1_555
C4 C5 1_555 1_555
C10 C11 1_555 1_555
C13 C14 1_555 1_555
C14 C15 1_555 1_555
C19 C20 1_555 1_555

#END
