
#######################################################################
#
#                 Cambridge Crystallographic Data Centre
#                                CCDC 
#
#######################################################################
#
# If this CIF has been generated from an entry in the Cambridge 
# Structural Database, then it will include bibliographic, chemical, 
# crystal, experimental, refinement or atomic coordinate data resulting 
# from the CCDC's data processing and validation procedures.
#
#######################################################################

data_MOMWOC
_chemical_formula_moiety         'C20 H22 N2 O5'
_chemical_name_systematic        
'methyl 4-(9-ethyl-6-oxo-6,7,8,10-tetrahydropyrido[1,2-a]indol-10-yl)-2-(methoxyimino)-3-oxobutanoate'
_symmetry_cell_setting           monoclinic
_symmetry_space_group_name_H-M   'P 21/c'
_symmetry_Int_Tables_number      14
_space_group_name_Hall           '-P 2ybc'
loop_
_symmetry_equiv_pos_site_id
_symmetry_equiv_pos_as_xyz
1 x,y,z
2 -x,1/2+y,1/2-z
3 -x,-y,-z
4 x,1/2-y,1/2+z
_cell_length_a                   15.2319(11)
_cell_length_b                   7.8737(6)
_cell_length_c                   15.4675(11)
_cell_angle_alpha                90
_cell_angle_beta                 90.2330(10)
_cell_angle_gamma                90
_cell_volume                     1855.02
_exptl_crystal_colour            white
_cell_formula_units_Z            4
_chemical_properties_physical    'Air-sensitive, acid-sensitive'
loop_
_atom_site_label
_atom_site_type_symbol
_atom_site_fract_x
_atom_site_fract_y
_atom_site_fract_z
C1 C 0.13344(10) 0.1802(2) 0.33117(9)
C2 C 0.18374(10) 0.0961(2) 0.40425(9)
H1 H 0.1429 0.0622 0.4516
C3 C 0.22058(10) -0.0603(2) 0.35967(10)
C4 C 0.25883(11) -0.2052(2) 0.39367(11)
H2 H 0.2645 -0.2190 0.4545
C5 C 0.28882(12) -0.3304(2) 0.33780(12)
H3 H 0.3151 -0.4304 0.3606
C6 C 0.28074(11) -0.3104(2) 0.24897(12)
H4 H 0.3019 -0.3970 0.2117
C7 C 0.24235(11) -0.1663(2) 0.21354(10)
H5 H 0.2375 -0.1521 0.1527
C8 C 0.21127(10) -0.0438(2) 0.27011(10)
C9 C 0.14533(10) 0.1744(2) 0.17214(10)
C10 C 0.09562(12) 0.3392(2) 0.17545(11)
H6 H 0.0647 0.3557 0.1197
H7 H 0.1381 0.4334 0.1823
C11 C 0.02885(12) 0.3489(2) 0.24826(11)
H8 H 0.0075 0.4671 0.2537
H9 H -0.0221 0.2757 0.2341
C12 C 0.06842(11) 0.2925(2) 0.33330(10)
C13 C 0.02905(11) 0.3547(2) 0.41672(11)
H10 H 0.0091 0.4735 0.4091
H11 H 0.0747 0.3537 0.4625
C14 C -0.04824(13) 0.2457(3) 0.44540(13)
H12 H -0.0923 0.2415 0.3991
H13 H -0.0745 0.2951 0.4974
H14 H -0.0277 0.1304 0.4582
C15 C 0.25501(10) 0.2175(2) 0.43905(9)
H15 H 0.3023 0.2269 0.3956
H16 H 0.2290 0.3318 0.4466
C16 C 0.29429(10) 0.1613(2) 0.52350(10)
C17 C 0.35742(10) 0.2771(2) 0.56845(10)
C18 C 0.39846(11) 0.2123(2) 0.65123(10)
C19 C 0.51749(14) 0.0567(3) 0.70848(13)
H17 H 0.5388 0.1492 0.7454
H18 H 0.5673 -0.0117 0.6888
H19 H 0.4771 -0.0151 0.7414
C20 C 0.43723(13) 0.6861(2) 0.55731(12)
H20 H 0.4430 0.6868 0.4942
H21 H 0.4885 0.7413 0.5835
H22 H 0.3839 0.7477 0.5737
N1 N 0.16411(8) 0.10685(17) 0.25161(8)
N2 N 0.37111(9) 0.42537(18) 0.53752(8)
O1 O 0.16907(8) 0.10767(17) 0.10465(7)
O2 O 0.27761(8) 0.02626(15) 0.55818(7)
O3 O 0.36743(9) 0.23297(17) 0.72127(8)
O4 O 0.47177(8) 0.12733(17) 0.63399(8)
O5 O 0.43169(8) 0.51406(15) 0.58731(7)
loop_
_geom_bond_atom_site_label_1
_geom_bond_atom_site_label_2
_geom_bond_site_symmetry_1
_geom_bond_site_symmetry_2
C1 C2 1_555 1_555
C2 H1 1_555 1_555
C3 C2 1_555 1_555
C4 C3 1_555 1_555
H2 C4 1_555 1_555
C5 C4 1_555 1_555
H3 C5 1_555 1_555
C6 C5 1_555 1_555
H4 C6 1_555 1_555
C7 C6 1_555 1_555
H5 C7 1_555 1_555
C8 C3 1_555 1_555
C9 C10 1_555 1_555
C10 H6 1_555 1_555
H7 C10 1_555 1_555
C11 C10 1_555 1_555
H8 C11 1_555 1_555
H9 C11 1_555 1_555
C12 C1 1_555 1_555
C13 C12 1_555 1_555
H10 C13 1_555 1_555
H11 C13 1_555 1_555
C14 C13 1_555 1_555
H12 C14 1_555 1_555
H13 C14 1_555 1_555
H14 C14 1_555 1_555
C15 C2 1_555 1_555
H15 C15 1_555 1_555
H16 C15 1_555 1_555
C16 C15 1_555 1_555
C17 C16 1_555 1_555
C18 C17 1_555 1_555
C19 H17 1_555 1_555
H18 C19 1_555 1_555
H19 C19 1_555 1_555
C20 H20 1_555 1_555
H21 C20 1_555 1_555
H22 C20 1_555 1_555
N1 C1 1_555 1_555
N2 C17 1_555 1_555
O1 C9 1_555 1_555
O2 C16 1_555 1_555
O3 C18 1_555 1_555
O4 C18 1_555 1_555
O5 C20 1_555 1_555
C7 C8 1_555 1_555
C8 N1 1_555 1_555
C9 N1 1_555 1_555
C11 C12 1_555 1_555
C19 O4 1_555 1_555
N2 O5 1_555 1_555

#END
