
#######################################################################
#
#                 Cambridge Crystallographic Data Centre
#                                CCDC 
#
#######################################################################
#
# If this CIF has been generated from an entry in the Cambridge 
# Structural Database, then it will include bibliographic, chemical, 
# crystal, experimental, refinement or atomic coordinate data resulting 
# from the CCDC's data processing and validation procedures.
#
#######################################################################

data_MONVUG
_chemical_formula_moiety         'C12 H20 O3'
_chemical_name_systematic        
1-(Hydroxymethyl)-4,10-dimethyl-3-oxatricyclo[5.2.1.0^2,4^]decan-10-ol
_symmetry_cell_setting           monoclinic
_symmetry_space_group_name_H-M   'P 21'
_symmetry_Int_Tables_number      4
_space_group_name_Hall           'P 2yb'
loop_
_symmetry_equiv_pos_site_id
_symmetry_equiv_pos_as_xyz
1 x,y,z
2 -x,1/2+y,-z
_cell_length_a                   11.5999(4)
_cell_length_b                   9.9553(3)
_cell_length_c                   14.6251(5)
_cell_angle_alpha                90
_cell_angle_beta                 99.7370(10)
_cell_angle_gamma                90
_cell_volume                     1664.58
_exptl_crystal_colour            colorless
_exptl_crystal_description       'fragment of prism'
_cell_formula_units_Z            6
loop_
_atom_site_label
_atom_site_type_symbol
_atom_site_fract_x
_atom_site_fract_y
_atom_site_fract_z
C1 C 0.19204(11) 0.23333(14) 0.49696(9)
C2 C 0.23856(12) 0.19725(14) 0.59783(10)
H1 H 0.2079 0.2573 0.6421
C3 C 0.35166(12) 0.13804(14) 0.63730(10)
C4 C 0.44192(12) 0.09690(17) 0.58009(10)
H2 H 0.4975 0.0369 0.6181
H3 H 0.4853 0.1777 0.5680
C5 C 0.40122(12) 0.02727(15) 0.48720(10)
H4 H 0.3617 -0.0562 0.4995
H5 H 0.4710 0.0020 0.4616
C6 C 0.31960(12) 0.10441(15) 0.41215(10)
H6 H 0.3209 0.0604 0.3516
C7 C 0.35276(14) 0.25369(16) 0.40439(11)
H7 H 0.3364 0.2830 0.3395
H8 H 0.4362 0.2671 0.4281
C8 C 0.27758(12) 0.33444(14) 0.46320(10)
H9 H 0.2340 0.4052 0.4256
H10 H 0.3275 0.3763 0.5163
C9 C 0.19118(11) 0.11354(14) 0.42774(9)
O1 O 0.24547(8) 0.05628(10) 0.62871(7)
C10 C 0.40092(15) 0.17118(19) 0.73681(11)
H11 H 0.3374 0.1919 0.7700
H12 H 0.4525 0.2482 0.7388
H13 H 0.4446 0.0948 0.7657
O2 O 0.14814(9) -0.00872(10) 0.46143(7)
H14 H 0.182(2) -0.010(3) 0.5241(17)
C11 C 0.11218(15) 0.13577(17) 0.33409(11)
H15 H 0.1197 0.0603 0.2935
H16 H 0.1352 0.2177 0.3061
H17 H 0.0315 0.1434 0.3433
C12 C 0.07065(12) 0.29554(15) 0.49397(11)
H18 H 0.0380 0.3220 0.4303
H19 H 0.0178 0.2299 0.5150
O3 O 0.08200(10) 0.41007(12) 0.55305(9)
H20 H 0.018(2) 0.449(3) 0.5564(15)
C13 C 0.84933(10) 0.09699(13) 0.82473(9)
C14 C 0.91283(11) 0.11590(15) 0.92432(9)
H21 H 0.8912 0.0463 0.9667
C15 C 1.02795(12) 0.17423(16) 0.95844(10)
C16 C 1.10846(12) 0.23365(18) 0.89770(11)
H22 H 1.1554 0.1602 0.8786
H23 H 1.1626 0.2946 0.9363
C17 C 1.05501(12) 0.31004(15) 0.81072(10)
H24 H 1.1191 0.3403 0.7799
H25 H 1.0172 0.3907 0.8302
C18 C 0.96575(12) 0.23727(14) 0.73849(9)
H26 H 0.9593 0.2868 0.6791
C19 C 0.99660(14) 0.09047(16) 0.72076(12)
H27 H 1.0801 0.0744 0.7424
H28 H 0.9788 0.0703 0.6543
C20 C 0.92250(12) 0.00110(14) 0.77460(10)
H29 H 0.9732 -0.0550 0.8196
H30 H 0.8712 -0.0576 0.7319
C21 C 0.84176(10) 0.22587(13) 0.76383(8)
O4 O 0.92269(9) 0.24994(12) 0.96720(7)
C22 C 1.09255(16) 0.1251(2) 1.05060(13)
H31 H 1.0370 0.0895 1.0870
H32 H 1.1352 0.1991 1.0837
H33 H 1.1470 0.0549 1.0403
O5 O 0.80595(9) 0.34247(10) 0.80918(7)
H34 H 0.8438(19) 0.344(3) 0.8585(15)
C23 C 0.75289(14) 0.21509(16) 0.67431(10)
H35 H 0.7592 0.2934 0.6360
H36 H 0.6746 0.2104 0.6892
H37 H 0.7684 0.1347 0.6410
C24 C 0.72814(11) 0.03902(15) 0.82953(10)
H38 H 0.6828 0.1038 0.8594
H39 H 0.6860 0.0220 0.7667
O6 O 0.74046(9) -0.08278(12) 0.88099(8)
H40 H 0.681(2) -0.103(3) 0.8855(17)
C25 C 0.45926(11) 0.61508(13) 0.83395(9)
C26 C 0.42370(11) 0.66089(15) 0.73359(9)
H41 H 0.4593 0.6049 0.6898
C27 C 0.31271(11) 0.72172(15) 0.68956(10)
C28 C 0.21576(12) 0.76123(17) 0.74051(11)
H42 H 0.1681 0.6812 0.7456
H43 H 0.1659 0.8260 0.7018
C29 C 0.24807(12) 0.82179(16) 0.83723(11)
H44 H 0.1753 0.8460 0.8589
H45 H 0.2910 0.9053 0.8317
C30 C 0.32130(12) 0.73550(16) 0.91267(10)
H46 H 0.3128 0.7725 0.9740
C31 C 0.28379(13) 0.58707(16) 0.90937(10)
H47 H 0.2027 0.5778 0.8778
H48 H 0.2899 0.5508 0.9723
C32 C 0.36789(12) 0.51143(14) 0.85511(10)
H49 H 0.4066 0.4374 0.8925
H50 H 0.3245 0.4744 0.7973
C33 C 0.45296(11) 0.72702(14) 0.90759(9)
O7 O 0.41936(8) 0.80338(10) 0.70791(7)
C34 C 0.27227(15) 0.69137(18) 0.58802(11)
H51 H 0.3396 0.6731 0.5587
H52 H 0.2300 0.7681 0.5583
H53 H 0.2213 0.6135 0.5819
O8 O 0.50310(9) 0.85182(11) 0.88541(8)
H54 H 0.4778(17) 0.873(2) 0.8336(14)
C35 C 0.51914(15) 0.68840(17) 1.00358(11)
H55 H 0.5000 0.7513 1.0494
H56 H 0.6026 0.6910 1.0031
H57 H 0.4968 0.5984 1.0190
C36 C 0.58178(11) 0.55425(16) 0.84274(11)
H58 H 0.6373 0.6229 0.8296
H59 H 0.6074 0.5215 0.9061
O9 O 0.57915(10) 0.44633(12) 0.77882(9)
H60 H 0.6366(17) 0.422(2) 0.7829(13)
loop_
_geom_bond_atom_site_label_1
_geom_bond_atom_site_label_2
_geom_bond_site_symmetry_1
_geom_bond_site_symmetry_2
C1 C2 1_555 1_555
C2 H1 1_555 1_555
C3 C2 1_555 1_555
C4 C3 1_555 1_555
H2 C4 1_555 1_555
H3 C4 1_555 1_555
C5 C4 1_555 1_555
H4 C5 1_555 1_555
H5 C5 1_555 1_555
C6 C5 1_555 1_555
H6 C6 1_555 1_555
C7 C6 1_555 1_555
H7 C7 1_555 1_555
H8 C7 1_555 1_555
C8 C1 1_555 1_555
H9 C8 1_555 1_555
H10 C8 1_555 1_555
C9 C1 1_555 1_555
O1 C2 1_555 1_555
C10 C3 1_555 1_555
H11 C10 1_555 1_555
H12 C10 1_555 1_555
H13 C10 1_555 1_555
O2 C9 1_555 1_555
H14 O2 1_555 1_555
C11 C9 1_555 1_555
H15 C11 1_555 1_555
H16 C11 1_555 1_555
H17 C11 1_555 1_555
C12 C1 1_555 1_555
H18 C12 1_555 1_555
H19 C12 1_555 1_555
O3 C12 1_555 1_555
H20 O3 1_555 1_555
C13 C14 1_555 1_555
C14 H21 1_555 1_555
C15 C14 1_555 1_555
C16 C15 1_555 1_555
H22 C16 1_555 1_555
H23 C16 1_555 1_555
C17 C16 1_555 1_555
H24 C17 1_555 1_555
H25 C17 1_555 1_555
C18 C17 1_555 1_555
H26 C18 1_555 1_555
C19 C18 1_555 1_555
H27 C19 1_555 1_555
H28 C19 1_555 1_555
C20 C13 1_555 1_555
H29 C20 1_555 1_555
H30 C20 1_555 1_555
C21 C13 1_555 1_555
O4 C14 1_555 1_555
C22 C15 1_555 1_555
H31 C22 1_555 1_555
H32 C22 1_555 1_555
H33 C22 1_555 1_555
O5 C21 1_555 1_555
H34 O5 1_555 1_555
C23 C21 1_555 1_555
H35 C23 1_555 1_555
H36 C23 1_555 1_555
H37 C23 1_555 1_555
C24 C13 1_555 1_555
H38 C24 1_555 1_555
H39 C24 1_555 1_555
O6 C24 1_555 1_555
H40 O6 1_555 1_555
C25 C26 1_555 1_555
C26 H41 1_555 1_555
C27 C26 1_555 1_555
C28 C27 1_555 1_555
H42 C28 1_555 1_555
H43 C28 1_555 1_555
C29 C28 1_555 1_555
H44 C29 1_555 1_555
H45 C29 1_555 1_555
C30 C29 1_555 1_555
H46 C30 1_555 1_555
C31 C30 1_555 1_555
H47 C31 1_555 1_555
H48 C31 1_555 1_555
C32 C25 1_555 1_555
H49 C32 1_555 1_555
H50 C32 1_555 1_555
C33 C25 1_555 1_555
O7 C26 1_555 1_555
C34 C27 1_555 1_555
H51 C34 1_555 1_555
H52 C34 1_555 1_555
H53 C34 1_555 1_555
O8 C33 1_555 1_555
H54 O8 1_555 1_555
C35 C33 1_555 1_555
H55 C35 1_555 1_555
H56 C35 1_555 1_555
H57 C35 1_555 1_555
C36 C25 1_555 1_555
H58 C36 1_555 1_555
H59 C36 1_555 1_555
O9 C36 1_555 1_555
H60 O9 1_555 1_555
C3 O1 1_555 1_555
C6 C9 1_555 1_555
C7 C8 1_555 1_555
C15 O4 1_555 1_555
C18 C21 1_555 1_555
C19 C20 1_555 1_555
C27 O7 1_555 1_555
C30 C33 1_555 1_555
C31 C32 1_555 1_555

#END
