
#######################################################################
#
#                 Cambridge Crystallographic Data Centre
#                                CCDC 
#
#######################################################################
#
# If this CIF has been generated from an entry in the Cambridge 
# Structural Database, then it will include bibliographic, chemical, 
# crystal, experimental, refinement or atomic coordinate data resulting 
# from the CCDC's data processing and validation procedures.
#
#######################################################################

data_MOPVUI
_chemical_formula_moiety         'C13 H17 N4 O2 1+,Cl1 1-'
_chemical_name_systematic        
'1H-Indole-2,3-dione 3-(trimethylammonioacetyl)hydrazone chloride'
_symmetry_cell_setting           monoclinic
_symmetry_space_group_name_H-M   'P 21/n'
_symmetry_Int_Tables_number      14
_space_group_name_Hall           '-P 2yn'
loop_
_symmetry_equiv_pos_site_id
_symmetry_equiv_pos_as_xyz
1 x,y,z
2 1/2-x,1/2+y,1/2-z
3 -x,-y,-z
4 1/2+x,1/2-y,1/2+z
_cell_length_a                   12.250(2)
_cell_length_b                   13.631(2)
_cell_length_c                   9.777(1)
_cell_angle_alpha                90
_cell_angle_beta                 113.506(7)
_cell_angle_gamma                90
_cell_volume                     1497.09
_cell_formula_units_Z            4
loop_
_atom_site_label
_atom_site_type_symbol
_atom_site_fract_x
_atom_site_fract_y
_atom_site_fract_z
Cl1 Cl 0.6834(8) 0.1738(1) 0.5666(8)
O1 O 0.2842(4) -0.3928(5) 0.9706(5)
O2 O 0.4621(2) -0.1126(1) 0.9551(1)
N1 N 0.3044(4) -0.5502(3) 0.8951(8)
N2 N 0.4478(4) -0.3466(6) 0.8150(7)
N3 N 0.4239(6) -0.2688(7) 0.8853(1)
N4 N 0.6082(4) -0.0840(9) 0.7895(1)
C1 C 0.4293(5) -0.7148(5) 0.6917(9)
C2 C 0.4891(2) -0.6449(8) 0.6450(3)
C3 C 0.4868(7) -0.5474(8) 0.6831(4)
C4 C 0.4225(5) -0.5221(5) 0.7670(1)
C5 C 0.3626(9) -0.5940(1) 0.8120(6)
C6 C 0.3652(6) -0.6911(1) 0.7749(2)
C7 C 0.3235(5) -0.4526(4) 0.9078(7)
C8 C 0.4026(3) -0.4301(8) 0.8270(6)
C9 C 0.4765(2) -0.1811(2) 0.8849(2)
C10 C 0.5500(2) -0.1802(3) 0.7925(1)
C11 C 0.6711(7) -0.0989(1) 0.6870(4)
C12 C 0.5201(6) -0.0026(3) 0.7291(2)
C13 C 0.6988(9) -0.0571(1) 0.9415(3)
loop_
_geom_bond_atom_site_label_1
_geom_bond_atom_site_label_2
_geom_bond_site_symmetry_1
_geom_bond_site_symmetry_2
O1 C7 1_555 1_555
O2 C9 1_555 1_555
N1 C5 1_555 1_555
N2 N3 1_555 1_555
N3 C9 1_555 1_555
N4 C10 1_555 1_555
C1 C2 1_555 1_555
C2 C3 1_555 1_555
C3 C4 1_555 1_555
C4 C5 1_555 1_555
C5 C6 1_555 1_555
C6 C1 1_555 1_555
C7 N1 1_555 1_555
C8 N2 1_555 1_555
C9 C10 1_555 1_555
C11 N4 1_555 1_555
C12 N4 1_555 1_555
C13 N4 1_555 1_555
C4 C8 1_555 1_555
C7 C8 1_555 1_555

#END
