
#######################################################################
#
#                 Cambridge Crystallographic Data Centre
#                                CCDC 
#
#######################################################################
#
# If this CIF has been generated from an entry in the Cambridge 
# Structural Database, then it will include bibliographic, chemical, 
# crystal, experimental, refinement or atomic coordinate data resulting 
# from the CCDC's data processing and validation procedures.
#
#######################################################################

data_MOQHUW
_chemical_formula_moiety         'C24 H32 N4 O5 S6'
_chemical_name_systematic        
6,16,26-Trioxa-3,9,11,21,23,29-hexathia-13,19,36,37-tetraazatetracyclo[29.3.1.1^10,13^.1^19,22^]heptatriaconta-1(35),10(37),22(36),31,33-pentaene-12,20-dione
_symmetry_cell_setting           monoclinic
_symmetry_space_group_name_H-M   'C 2/c'
_symmetry_Int_Tables_number      15
_space_group_name_Hall           '-C 2yn'
loop_
_symmetry_equiv_pos_site_id
_symmetry_equiv_pos_as_xyz
1 x,y,z
2 -x,y,1/2-z
3 1/2+x,1/2+y,z
4 1/2-x,1/2+y,1/2-z
5 -x,-y,-z
6 x,-y,1/2+z
7 1/2-x,1/2-y,-z
8 1/2+x,1/2-y,1/2+z
_cell_length_a                   11.7399(19)
_cell_length_b                   14.979(2)
_cell_length_c                   17.436(3)
_cell_angle_alpha                90
_cell_angle_beta                 90.440(14)
_cell_angle_gamma                90
_cell_volume                     3066.06
_exptl_crystal_colour            colorless
_exptl_crystal_description       block
_chemical_melting_point          74-76deg.C
_cell_formula_units_Z            4
_exptl_crystal_recrystallization_method acetone
loop_
_atom_site_label
_atom_site_type_symbol
_atom_site_fract_x
_atom_site_fract_y
_atom_site_fract_z
O1 O 0.5063(5) -0.1063(3) 0.2823(3)
C1 C 0.3979(7) -0.1362(4) 0.2298(5)
H1 H 0.4106 -0.1953 0.2511
H2 H 0.3646 -0.1456 0.1794
C2 C 0.3092(3) -0.0989(2) 0.2744(3)
H3 H 0.3212 -0.1146 0.3278
H4 H 0.237 -0.1243 0.258
N1 N 0.3038(2) -0.00241(17) 0.26728(16)
N2 N 0.2851(2) 0.03274(15) 0.19534(14)
C3 C 0.2764(2) 0.11776(18) 0.19945(16)
S1 S 0.29229(10) 0.16347(6) 0.29013(5)
C4 C 0.3059(3) 0.0535(3) 0.3279(2)
O2 O 0.3142(3) 0.0339(2) 0.39471(17)
S2 S 0.24304(8) 0.18756(6) 0.12268(5)
C5 C 0.2804(3) 0.1173(3) 0.0425(2)
H5 H 0.2537 0.0571 0.0523
H6 H 0.2414 0.1389 -0.0031
C6 C 0.4047(4) 0.1146(3) 0.0277(2)
H7 H 0.445 0.093 0.0727
H8 H 0.4203 0.0744 -0.0146
O3 O 0.4415(2) 0.2015(2) 0.00950(15)
C7 C 0.5602(9) 0.1866(6) -0.0114(6)
H9 H 0.5667 0.1506 -0.0574
H10 H 0.6034 0.1592 0.03
C8 C 0.5960(7) 0.2831(5) -0.0251(4)
H11 H 0.5381 0.3108 -0.0571
H12 H 0.6658 0.2821 -0.0545
S3 S 0.62202(9) 0.36194(11) 0.06471(8)
C9 C 0.4832(4) 0.3743(4) 0.1071(3)
H13 H 0.4324 0.4061 0.0725
H14 H 0.4504 0.3162 0.1179
C10 C 0.4909(11) 0.3779(2) 0.2613(5)
C11 C 0.4966(8) 0.4164(3) 0.1666(4)
C12 C 0.4883(5) 0.5086(4) 0.1594(3)
H15 H 0.4799 0.5343 0.1112
C13 C 0.4926(7) 0.5623(2) 0.2244(3)
H16 H 0.4871 0.624 0.2196
O1A O 0.4937(5) -0.1063(3) 0.2177(3)
C1A C 0.6021(7) -0.1362(4) 0.2702(5)
H1A H 0.5894 -0.1953 0.2489
H2A H 0.6354 -0.1456 0.3206
C2A C 0.6908(3) -0.0989(2) 0.2256(3)
H3A H 0.6788 -0.1146 0.1722
H4A H 0.763 -0.1243 0.242
N1A N 0.6962(2) -0.00241(17) 0.23272(16)
N2A N 0.7149(2) 0.03274(15) 0.30466(14)
C3A C 0.7236(2) 0.11776(18) 0.30055(16)
S1A S 0.70771(10) 0.16347(6) 0.20987(5)
C4A C 0.6941(3) 0.0535(3) 0.1721(2)
O2A O 0.6858(3) 0.0339(2) 0.10529(17)
S2A S 0.75696(8) 0.18756(6) 0.37732(5)
C5A C 0.7196(3) 0.1173(3) 0.4575(2)
H5A H 0.7463 0.0571 0.4477
H6A H 0.7586 0.1389 0.5031
C6A C 0.5953(4) 0.1146(3) 0.4723(2)
H7A H 0.555 0.093 0.4273
H8A H 0.5797 0.0744 0.5146
O3A O 0.5585(2) 0.2015(2) 0.49050(15)
C7A C 0.4398(9) 0.1866(6) 0.5114(6)
H9A H 0.4333 0.1506 0.5574
H10A H 0.3966 0.1592 0.47
C8A C 0.4040(7) 0.2831(5) 0.5251(4)
H11A H 0.4619 0.3108 0.5571
H12A H 0.3342 0.2821 0.5545
S3A S 0.37798(9) 0.36194(11) 0.43529(8)
C9A C 0.5168(4) 0.3743(4) 0.3929(3)
H13A H 0.5676 0.4061 0.4275
H14A H 0.5496 0.3162 0.3821
C10A C 0.5091(11) 0.3779(2) 0.2387(5)
C11A C 0.5034(8) 0.4164(3) 0.3334(4)
C12A C 0.5117(5) 0.5086(4) 0.3406(3)
H15A H 0.5201 0.5343 0.3888
C13A C 0.5074(7) 0.5623(2) 0.2756(3)
H16A H 0.5129 0.624 0.2804
C14? C 0.4443(12) 0.2326(8) 0.5170(7)
H17? H 0.4333 0.2099 0.5685
H18? H 0.3872 0.2046 0.4845
C15? C 0.4197(9) 0.3307(6) 0.5184(5)
H19? H 0.4878 0.3633 0.5331
H20? H 0.361 0.3433 0.5558
H21? H 0.4854 0.3162 0.2565
C16? C 0.4949(7) 0.5238(4) 0.2035(3)
H22? H 0.492 0.5597 0.16
C17? C 0.4866(8) 0.4316(4) 0.1964(3)
C18? C 0.5862(12) -0.1385(7) 0.2228(8)
H23? H 0.5904 -0.1798 0.18
H24? H 0.5833 -0.1753 0.2685
loop_
_geom_bond_atom_site_label_1
_geom_bond_atom_site_label_2
_geom_bond_site_symmetry_1
_geom_bond_site_symmetry_2
O1 C1 1_555 1_555
C1 H1 1_555 1_555
H2 C1 1_555 1_555
C2 C1 1_555 1_555
H3 C2 1_555 1_555
H4 C2 1_555 1_555
N1 C2 1_555 1_555
N2 N1 1_555 1_555
C3 N2 1_555 1_555
S1 C3 1_555 1_555
C4 N1 1_555 1_555
O2 C4 1_555 1_555
S2 C3 1_555 1_555
C5 S2 1_555 1_555
H5 C5 1_555 1_555
H6 C5 1_555 1_555
C6 C5 1_555 1_555
H7 C6 1_555 1_555
H8 C6 1_555 1_555
O3 C6 1_555 1_555
C7 O3 1_555 1_555
H9 C7 1_555 1_555
H10 C7 1_555 1_555
C8 C7 1_555 1_555
H11 C8 1_555 1_555
H12 C8 1_555 1_555
S3 C8 1_555 1_555
C9 S3 1_555 1_555
H13 C9 1_555 1_555
H14 C9 1_555 1_555
C10 C11 1_555 1_555
C11 C9 1_555 1_555
C12 C11 1_555 1_555
H15 C12 1_555 1_555
C13 C12 1_555 1_555
H16 C13 1_555 1_555
O1A O1 1_555 1_555
C1A O1 1_555 1_555
H1A C1A 1_555 1_555
H2A C1A 1_555 1_555
C2A C1A 1_555 1_555
H3A C2A 1_555 1_555
H4A C2A 1_555 1_555
N1A C2A 1_555 1_555
N2A N1A 1_555 1_555
C3A N2A 1_555 1_555
S1A C3A 1_555 1_555
C4A N1A 1_555 1_555
O2A C4A 1_555 1_555
S2A C3A 1_555 1_555
C5A S2A 1_555 1_555
H5A C5A 1_555 1_555
H6A C5A 1_555 1_555
C6A C5A 1_555 1_555
H7A C6A 1_555 1_555
H8A C6A 1_555 1_555
O3A C6A 1_555 1_555
C7A O3A 1_555 1_555
H9A C7A 1_555 1_555
H10A C7A 1_555 1_555
C8A C7A 1_555 1_555
H11A C8A 1_555 1_555
H12A C8A 1_555 1_555
S3A C8A 1_555 1_555
C9A S3A 1_555 1_555
H13A C9A 1_555 1_555
H14A C9A 1_555 1_555
C10A C10 1_555 1_555
C11A C10 1_555 1_555
C12A C11A 1_555 1_555
H15A C12A 1_555 1_555
C13A C13 1_555 1_555
H16A C13A 1_555 1_555
C1 O1A 1_555 1_555
S1 C4 1_555 1_555
C11 C10A 1_555 1_555
O1A C1A 1_555 1_555
S1A C4A 1_555 1_555
C9A C11A 1_555 1_555
C10A C11A 1_555 1_555
C12A C13A 1_555 1_555

#END
