
#######################################################################
#
#                 Cambridge Crystallographic Data Centre
#                                CCDC 
#
#######################################################################
#
# If this CIF has been generated from an entry in the Cambridge 
# Structural Database, then it will include bibliographic, chemical, 
# crystal, experimental, refinement or atomic coordinate data resulting 
# from the CCDC's data processing and validation procedures.
#
#######################################################################

data_MOQMEL
_chemical_compound_source        
'cultures of the ascomycete Daldinia concentrica'
_chemical_name_common            
6-Ethyl-3-hydroxy-2-(2-hydroxy-2-propanyl)-3,6-dihydrofuro[2,3-e][2]benzofuran-8(2H)-one
_chemical_formula_moiety         'C15 H18 O5'
_chemical_name_systematic        'Daldinin A'
_chemical_properties_biological  'no anti-HIV activity'
_symmetry_cell_setting           orthorhombic
_symmetry_space_group_name_H-M   'P 21 21 21'
_symmetry_Int_Tables_number      19
_space_group_name_Hall           'P 2ac 2ab'
loop_
_symmetry_equiv_pos_site_id
_symmetry_equiv_pos_as_xyz
1 x,y,z
2 1/2-x,-y,1/2+z
3 1/2+x,1/2-y,-z
4 -x,1/2+y,1/2-z
_cell_length_a                   8.245
_cell_length_b                   11.153
_cell_length_c                   15.784
_cell_angle_alpha                90
_cell_angle_beta                 90
_cell_angle_gamma                90
_cell_volume                     1451.44
_exptl_crystal_colour            colorless
_exptl_crystal_description       plate
_chemical_melting_point          '228-229 deg.C'
_cell_formula_units_Z            4
loop_
_atom_site_label
_atom_site_type_symbol
_atom_site_fract_x
_atom_site_fract_y
_atom_site_fract_z
O1 O -0.1261(3) 0.3507(2) 0.68925(16)
O2 O -0.1300(3) 0.5511(2) 0.68953(18)
O3 O 0.2400(3) 0.2685(2) 0.64365(16)
O4 O 0.3672(3) 0.1347(3) 0.50264(15)
H1 H 0.4035 0.1992 0.4863
O5 O 0.5376(4) 0.3409(4) 0.5219(2)
H2 H 0.4934 0.2832 0.4994
C1 C -0.0540(4) 0.4431(3) 0.68137(19)
C2 C -0.0127(6) 0.6499(3) 0.6849(3)
H3 H -0.0041 0.6783 0.7435
C3 C 0.1457(5) 0.5881(3) 0.6691(2)
C4 C 0.2965(7) 0.6378(5) 0.6584(3)
H4 H 0.3126 0.7201 0.6627
C5 C 0.4241(6) 0.5604(5) 0.6409(3)
H5 H 0.5275 0.5915 0.6324
C6 C 0.4002(4) 0.4381(4) 0.6359(3)
C7 C 0.2465(4) 0.3901(3) 0.6494(2)
C8 C 0.1176(4) 0.4653(3) 0.66565(18)
C9 C 0.5104(5) 0.3369(5) 0.6111(3)
H6 H 0.6133 0.3415 0.6420
C10 C 0.4104(4) 0.2275(4) 0.6404(2)
H7 H 0.4439 0.2081 0.6983
C11 C 0.4200(5) 0.1129(4) 0.5884(3)
C12 C 0.5994(6) 0.0723(6) 0.5868(3)
H8 H 0.6088 -0.0004 0.5545
H9 H 0.6361 0.0583 0.6436
H10 H 0.6645 0.1337 0.5611
C13 C 0.3109(8) 0.0173(5) 0.6230(3)
H11 H 0.2009 0.0455 0.6228
H12 H 0.3427 -0.0015 0.6800
H13 H 0.3192 -0.0532 0.5885
C14 C -0.0929(16) 0.7474(9) 0.6409(9)
H14 H -0.1998 0.7610 0.6646
H15 H -0.0303 0.8207 0.6464
C15 C -0.1051(16) 0.7151(11) 0.5566(8)
H16 H -0.1576 0.7781 0.5256
H17 H -0.1677 0.6428 0.5519
H18 H 0.0014 0.7018 0.5339
loop_
_geom_bond_atom_site_label_1
_geom_bond_atom_site_label_2
_geom_bond_site_symmetry_1
_geom_bond_site_symmetry_2
O1 C1 1_555 1_555
O2 C1 1_555 1_555
O3 C7 1_555 1_555
O4 H1 1_555 1_555
O5 H2 1_555 1_555
C1 C8 1_555 1_555
C2 O2 1_555 1_555
H3 C2 1_555 1_555
C3 C2 1_555 1_555
C4 C3 1_555 1_555
H4 C4 1_555 1_555
C5 C4 1_555 1_555
H5 C5 1_555 1_555
C6 C5 1_555 1_555
C7 C6 1_555 1_555
C8 C3 1_555 1_555
C9 O5 1_555 1_555
H6 C9 1_555 1_555
C10 O3 1_555 1_555
H7 C10 1_555 1_555
C11 O4 1_555 1_555
C12 C11 1_555 1_555
H8 C12 1_555 1_555
H9 C12 1_555 1_555
H10 C12 1_555 1_555
C13 C11 1_555 1_555
H11 C13 1_555 1_555
H12 C13 1_555 1_555
H13 C13 1_555 1_555
C14 C2 1_555 1_555
H14 C14 1_555 1_555
H15 C14 1_555 1_555
C15 C14 1_555 1_555
H16 C15 1_555 1_555
H17 C15 1_555 1_555
H18 C15 1_555 1_555
C6 C9 1_555 1_555
C7 C8 1_555 1_555
C9 C10 1_555 1_555
C10 C11 1_555 1_555

#END
