
#######################################################################
#
#                 Cambridge Crystallographic Data Centre
#                                CCDC 
#
#######################################################################
#
# If this CIF has been generated from an entry in the Cambridge 
# Structural Database, then it will include bibliographic, chemical, 
# crystal, experimental, refinement or atomic coordinate data resulting 
# from the CCDC's data processing and validation procedures.
#
#######################################################################

data_MORQAL
_chemical_formula_moiety         'C17 H29 N1 O1'
_chemical_name_systematic        
cis-N,N-Dicyclohexyl-2-methyl-cyclopropanecarboxamide
_symmetry_cell_setting           monoclinic
_symmetry_space_group_name_H-M   'C c'
_symmetry_Int_Tables_number      9
_space_group_name_Hall           'C -2yc'
loop_
_symmetry_equiv_pos_site_id
_symmetry_equiv_pos_as_xyz
1 x,y,z
2 x,-y,1/2+z
3 1/2+x,1/2+y,z
4 1/2+x,1/2-y,1/2+z
_cell_length_a                   8.7675(18)
_cell_length_b                   20.780(4)
_cell_length_c                   8.9057(18)
_cell_angle_alpha                90.00
_cell_angle_beta                 103.90(3)
_cell_angle_gamma                90.00
_cell_volume                     1575
_exptl_crystal_description       rod
_chemical_melting_point          '70.0-71.0 deg.C'
_cell_formula_units_Z            4
_exptl_crystal_recrystallization_method Cyclohexane
loop_
_atom_site_label
_atom_site_type_symbol
_atom_site_fract_x
_atom_site_fract_y
_atom_site_fract_z
C1 C 0.8733(2) 0.35998(10) 0.3898(3)
H1 H 0.8579 0.3282 0.3063
C2 C 0.7158(2) 0.36706(11) 0.4350(3)
H2 H 0.6827 0.3254 0.4646
H3 H 0.7290 0.3955 0.5235
C3 C 0.5890(3) 0.39410(11) 0.3011(3)
H4 H 0.5663 0.3630 0.2175
H5 H 0.4933 0.4010 0.3355
C4 C 0.6396(3) 0.45703(11) 0.2417(3)
H6 H 0.6533 0.4894 0.3223
H7 H 0.5586 0.4718 0.1542
C5 C 0.7932(3) 0.44802(10) 0.1927(3)
H8 H 0.7771 0.4180 0.1070
H9 H 0.8258 0.4889 0.1578
C6 C 0.9218(3) 0.42274(10) 0.3262(3)
H10 H 0.9446 0.4546 0.4080
H11 H 1.0169 0.4157 0.2908
C7 C 1.0491(2) 0.37704(9) 0.6551(3)
H12 H 0.9810 0.4150 0.6353
C8 C 1.0235(3) 0.34682(10) 0.8040(3)
H13 H 0.9148 0.3335 0.7884
H14 H 1.0895 0.3090 0.8301
C9 C 1.0636(3) 0.39514(11) 0.9362(3)
H15 H 0.9919 0.4314 0.9134
H16 H 1.0504 0.3750 1.0306
C10 C 1.2317(3) 0.41910(11) 0.9601(3)
H17 H 1.3038 0.3835 0.9915
H18 H 1.2530 0.4509 1.0422
C11 C 1.2585(3) 0.44888(11) 0.8118(3)
H19 H 1.1946 0.4873 0.7869
H20 H 1.3678 0.4614 0.8282
C12 C 1.2170(2) 0.40191(10) 0.6769(3)
H21 H 1.2896 0.3659 0.6960
H22 H 1.2275 0.4232 0.5830
C13 C 1.0688(2) 0.27729(10) 0.5151(3)
C14 C 1.0128(2) 0.23698(10) 0.3732(3)
H23 H 0.8990 0.2310 0.3369
C15 C 1.1152(3) 0.18186(10) 0.3484(3)
H24 H 1.2117 0.1744 0.4266
H25 H 1.0637 0.1432 0.2999
C16 C 1.1061(3) 0.24117(10) 0.2500(3)
H26 H 1.0444 0.2367 0.1431
C17 C 1.2451(3) 0.28553(11) 0.2723(3)
H27 H 1.3086 0.2811 0.3758
H28 H 1.2091 0.3292 0.2554
H29 H 1.3063 0.2746 0.1999
N1 N 0.9975(2) 0.33494(8) 0.5189(2)
O1 O 1.17820(17) 0.25897(7) 0.6212(2)
loop_
_geom_bond_atom_site_label_1
_geom_bond_atom_site_label_2
_geom_bond_site_symmetry_1
_geom_bond_site_symmetry_2
C1 H1 1_555 1_555
C2 C1 1_555 1_555
H2 C2 1_555 1_555
H3 C2 1_555 1_555
C3 C2 1_555 1_555
H4 C3 1_555 1_555
H5 C3 1_555 1_555
C4 C3 1_555 1_555
H6 C4 1_555 1_555
H7 C4 1_555 1_555
C5 C4 1_555 1_555
H8 C5 1_555 1_555
H9 C5 1_555 1_555
C6 C1 1_555 1_555
H10 C6 1_555 1_555
H11 C6 1_555 1_555
C7 H12 1_555 1_555
C8 C7 1_555 1_555
H13 C8 1_555 1_555
H14 C8 1_555 1_555
C9 C8 1_555 1_555
H15 C9 1_555 1_555
H16 C9 1_555 1_555
C10 C9 1_555 1_555
H17 C10 1_555 1_555
H18 C10 1_555 1_555
C11 C10 1_555 1_555
H19 C11 1_555 1_555
H20 C11 1_555 1_555
C12 C7 1_555 1_555
H21 C12 1_555 1_555
H22 C12 1_555 1_555
C13 C14 1_555 1_555
C14 H23 1_555 1_555
C15 C14 1_555 1_555
H24 C15 1_555 1_555
H25 C15 1_555 1_555
C16 C14 1_555 1_555
H26 C16 1_555 1_555
C17 C16 1_555 1_555
H27 C17 1_555 1_555
H28 C17 1_555 1_555
H29 C17 1_555 1_555
N1 C1 1_555 1_555
O1 C13 1_555 1_555
C5 C6 1_555 1_555
C7 N1 1_555 1_555
C11 C12 1_555 1_555
C13 N1 1_555 1_555
C15 C16 1_555 1_555

#END
