
#######################################################################
#
#                 Cambridge Crystallographic Data Centre
#                                CCDC 
#
#######################################################################
#
# If this CIF has been generated from an entry in the Cambridge 
# Structural Database, then it will include bibliographic, chemical, 
# crystal, experimental, refinement or atomic coordinate data resulting 
# from the CCDC's data processing and validation procedures.
#
#######################################################################

data_MOSSOD
_chemical_formula_moiety         'C4 H12 N2 2+,2(C2 H2 N1 O3 1-)'
_chemical_name_systematic        'Piperazinediium dioxamate'
_symmetry_cell_setting           monoclinic
_symmetry_space_group_name_H-M   'P 21/c'
_symmetry_Int_Tables_number      14
_space_group_name_Hall           '-P 2ybc'
loop_
_symmetry_equiv_pos_site_id
_symmetry_equiv_pos_as_xyz
1 x,y,z
2 -x,1/2+y,1/2-z
3 -x,-y,-z
4 x,1/2-y,1/2+z
_cell_length_a                   6.4323(4)
_cell_length_b                   6.7681(4)
_cell_length_c                   13.0032(7)
_cell_angle_alpha                90
_cell_angle_beta                 94.488(2)
_cell_angle_gamma                90
_cell_volume                     564.351
_exptl_crystal_colour            colorless
_exptl_crystal_description       block
_cell_formula_units_Z            2
loop_
_atom_site_label
_atom_site_type_symbol
_atom_site_fract_x
_atom_site_fract_y
_atom_site_fract_z
N1 N 0.08666(10) 0.95960(10) 0.40409(4)
H1 H 0.1752 0.9900 0.3562
H2 H 0.0161 0.8502 0.3830
C1 C -0.06294(12) 1.12524(12) 0.41301(5)
H3 H -0.1436 1.1441 0.3475
H4 H 0.0132 1.2462 0.4297
C2 C 0.20790(11) 0.91851(12) 0.50401(6)
H5 H 0.2938 1.0320 0.5240
H6 H 0.2992 0.8064 0.4962
N1B N -0.08666(10) 1.04040(10) 0.59591(4)
H1B H -0.1752 1.0100 0.6438
H2B H -0.0161 1.1498 0.6170
C1B C 0.06294(12) 0.87476(12) 0.58699(5)
H3B H 0.1436 0.8559 0.6525
H4B H -0.0132 0.7538 0.5703
C2B C -0.20790(11) 1.08149(12) 0.49599(6)
H5B H -0.2938 0.9680 0.4760
H6B H -0.2992 1.1936 0.5038
O1 O 0.13426(8) 0.15896(9) 0.19612(4)
O2 O 0.44704(10) -0.03929(12) 0.30376(4)
O3 O 0.28309(12) 0.09059(12) 0.05073(4)
N2 N 0.61883(11) -0.06196(13) 0.15969(5)
H7 H 0.7247 -0.1186 0.1917
H8 H 0.6182 -0.0387 0.0946
C3 C 0.27471(10) 0.08954(10) 0.14582(4)
C4 C 0.45721(11) -0.01070(11) 0.21043(5)
loop_
_geom_bond_atom_site_label_1
_geom_bond_atom_site_label_2
_geom_bond_site_symmetry_1
_geom_bond_site_symmetry_2
N1 H1 1_555 1_555
H2 N1 1_555 1_555
C1 N1 1_555 1_555
H3 C1 1_555 1_555
H4 C1 1_555 1_555
C2 N1 1_555 1_555
H5 C2 1_555 1_555
H6 C2 1_555 1_555
O1 C3 1_555 1_555
O2 C4 1_555 1_555
O3 C3 1_555 1_555
N2 H7 1_555 1_555
H8 N2 1_555 1_555
C3 C4 1_555 1_555
C4 N2 1_555 1_555
N1B H1B 1_555 1_555
H2B N1B 1_555 1_555
C1B C2 1_555 1_555
H3B C1B 1_555 1_555
H4B C1B 1_555 1_555
C2B C1 1_555 1_555
H5B C2B 1_555 1_555
H6B C2B 1_555 1_555
N1B C1B 1_555 1_555
N1B C2B 1_555 1_555

#END
