
#######################################################################
#
#                 Cambridge Crystallographic Data Centre
#                                CCDC 
#
#######################################################################
#
# If this CIF has been generated from an entry in the Cambridge 
# Structural Database, then it will include bibliographic, chemical, 
# crystal, experimental, refinement or atomic coordinate data resulting 
# from the CCDC's data processing and validation procedures.
#
#######################################################################

data_MOSWAT
_chemical_formula_moiety         'C26 H16 Cl1 N3 O3'
_chemical_name_systematic        
(Z)-3-(9-Anthryl)-1-(4-chlorophenyl)-2-(4-nitro-1H-imidazol-1-yl)prop-2-en-1-one
_symmetry_cell_setting           triclinic
_symmetry_space_group_name_H-M   'P -1'
_symmetry_Int_Tables_number      2
_space_group_name_Hall           '-P 1'
loop_
_symmetry_equiv_pos_site_id
_symmetry_equiv_pos_as_xyz
1 x,y,z
2 -x,-y,-z
_cell_length_a                   8.0511(9)
_cell_length_b                   11.0406(12)
_cell_length_c                   12.9274(14)
_cell_angle_alpha                76.065(2)
_cell_angle_beta                 85.974(2)
_cell_angle_gamma                71.258(2)
_cell_volume                     1056.11
_exptl_crystal_colour            orange
_exptl_crystal_description       block
_cell_formula_units_Z            2
_exptl_crystal_recrystallization_method chloroform/acetone
loop_
_atom_site_label
_atom_site_type_symbol
_atom_site_fract_x
_atom_site_fract_y
_atom_site_fract_z
C1 C 0.4503(2) 0.91044(16) 0.38505(12)
C2 C 0.3150(2) 0.99845(18) 0.43057(13)
C3 C 0.2324(3) 1.13103(19) 0.37653(16)
H1 H 0.2673 1.1618 0.3078
C4 C 0.1039(3) 1.2135(2) 0.4233(2)
H2 H 0.0521 1.2999 0.3863
C5 C 0.0482(3) 1.1702(3) 0.5267(2)
H3 H -0.0389 1.2284 0.5581
C6 C 0.1195(3) 1.0455(3) 0.58072(18)
H4 H 0.0806 1.0181 0.6491
C7 C 0.2544(2) 0.9537(2) 0.53486(14)
C8 C 0.3284(3) 0.8240(2) 0.58804(14)
H5 H 0.2870 0.7948 0.6553
C9 C 0.4618(3) 0.7360(2) 0.54475(14)
C10 C 0.5404(4) 0.6035(2) 0.60138(18)
H6 H 0.4981 0.5739 0.6682
C11 C 0.6738(4) 0.5211(2) 0.5604(2)
H7 H 0.7210 0.4345 0.5983
C12 C 0.7438(4) 0.5643(2) 0.45999(19)
H8 H 0.8385 0.5065 0.4332
C13 C 0.6736(3) 0.68926(18) 0.40237(15)
H9 H 0.7218 0.7164 0.3368
C14 C 0.5276(2) 0.77936(17) 0.44076(13)
C15 C 0.5225(2) 0.96316(15) 0.28220(12)
H10 H 0.5605 1.0348 0.2804
C16 C 0.5410(2) 0.92308(15) 0.19171(12)
C17 C 0.6425(2) 0.97302(15) 0.10011(12)
C18 C 0.6982(2) 1.08892(16) 0.10310(12)
C19 C 0.5813(2) 1.21059(17) 0.10958(14)
H11 H 0.4615 1.2227 0.1122
C20 C 0.6414(3) 1.31410(18) 0.11219(15)
H12 H 0.5631 1.3961 0.1153
C21 C 0.8197(3) 1.29305(19) 0.11011(15)
C22 C 0.9379(3) 1.1743(2) 0.10195(16)
H13 H 1.0576 1.1626 0.0995
C23 C 0.8762(2) 1.07254(18) 0.09746(15)
H14 H 0.9550 0.9922 0.0906
C24 C 0.5604(3) 0.70649(17) 0.15237(15)
H15 H 0.6791 0.6812 0.1360
C25 C 0.2993(3) 0.70981(18) 0.17933(14)
C26 C 0.3024(2) 0.82478(17) 0.19785(13)
H16 H 0.2098 0.8902 0.2183
Cl1 Cl 0.90255(10) 1.41713(6) 0.11994(6)
N1 N 0.47212(18) 0.82266(13) 0.17975(10)
N2 N 0.4588(2) 0.63534(15) 0.15188(13)
N3 N 0.1473(3) 0.6670(2) 0.18554(14)
O1 O 0.68863(17) 0.91581(12) 0.02841(10)
O2 O 0.0083(3) 0.7406(2) 0.21193(17)
O3 O 0.1648(3) 0.5612(2) 0.16539(18)
loop_
_geom_bond_atom_site_label_1
_geom_bond_atom_site_label_2
_geom_bond_site_symmetry_1
_geom_bond_site_symmetry_2
C1 C2 1_555 1_555
C2 C3 1_555 1_555
C3 H1 1_555 1_555
C4 C3 1_555 1_555
H2 C4 1_555 1_555
C5 C4 1_555 1_555
H3 C5 1_555 1_555
C6 C5 1_555 1_555
H4 C6 1_555 1_555
C7 C2 1_555 1_555
C8 C7 1_555 1_555
H5 C8 1_555 1_555
C9 C8 1_555 1_555
C10 C9 1_555 1_555
H6 C10 1_555 1_555
C11 C10 1_555 1_555
H7 C11 1_555 1_555
C12 C11 1_555 1_555
H8 C12 1_555 1_555
C13 C12 1_555 1_555
H9 C13 1_555 1_555
C14 C1 1_555 1_555
C15 C1 1_555 1_555
H10 C15 1_555 1_555
C16 C15 1_555 1_555
C17 C16 1_555 1_555
C18 C17 1_555 1_555
C19 C18 1_555 1_555
H11 C19 1_555 1_555
C20 C19 1_555 1_555
H12 C20 1_555 1_555
C21 C20 1_555 1_555
C22 C21 1_555 1_555
H13 C22 1_555 1_555
C23 C18 1_555 1_555
H14 C23 1_555 1_555
C24 H15 1_555 1_555
C25 C26 1_555 1_555
C26 H16 1_555 1_555
Cl1 C21 1_555 1_555
N1 C16 1_555 1_555
N2 C24 1_555 1_555
N3 C25 1_555 1_555
O1 C17 1_555 1_555
O2 N3 1_555 1_555
O3 N3 1_555 1_555
C6 C7 1_555 1_555
C9 C14 1_555 1_555
C13 C14 1_555 1_555
C22 C23 1_555 1_555
C24 N1 1_555 1_555
C25 N2 1_555 1_555
C26 N1 1_555 1_555

#END
