
#######################################################################
#
#                 Cambridge Crystallographic Data Centre
#                                CCDC 
#
#######################################################################
#
# If this CIF has been generated from an entry in the Cambridge 
# Structural Database, then it will include bibliographic, chemical, 
# crystal, experimental, refinement or atomic coordinate data resulting 
# from the CCDC's data processing and validation procedures.
#
#######################################################################

data_MOSYID
_chemical_formula_moiety         'C15 H13 N1 O2'
_chemical_name_systematic        'Methyl 9H-carbazole-9-acetate'
_symmetry_cell_setting           monoclinic
_symmetry_space_group_name_H-M   'P 21/c'
_symmetry_Int_Tables_number      14
_space_group_name_Hall           '-P 2ybc'
loop_
_symmetry_equiv_pos_site_id
_symmetry_equiv_pos_as_xyz
1 x,y,z
2 -x,1/2+y,1/2-z
3 -x,-y,-z
4 x,1/2-y,1/2+z
_cell_length_a                   10.875(3)
_cell_length_b                   5.8773(12)
_cell_length_c                   18.608(4)
_cell_angle_alpha                90
_cell_angle_beta                 103.599(3)
_cell_angle_gamma                90
_cell_volume                     1156
_exptl_crystal_colour            colorless
_exptl_crystal_description       prism
_cell_formula_units_Z            4
_exptl_crystal_recrystallization_method methanol
loop_
_atom_site_label
_atom_site_type_symbol
_atom_site_fract_x
_atom_site_fract_y
_atom_site_fract_z
O1 O 0.15039(15) 0.6886(3) 0.49433(9)
O2 O 0.11310(18) 1.0517(3) 0.45700(10)
N1 N 0.31648(18) 0.7955(3) 0.62011(11)
C1 C 0.4231(2) 0.6749(4) 0.61296(13)
C2 C 0.5141(2) 0.7323(4) 0.57434(13)
H1 H 0.5081 0.8696 0.5468
C3 C 0.6132(2) 0.5828(5) 0.57759(13)
H2 H 0.6767 0.6191 0.5520
C4 C 0.6228(2) 0.3793(5) 0.61751(13)
H3 H 0.6912 0.2784 0.6179
C5 C 0.5332(2) 0.3246(4) 0.65647(13)
H4 H 0.5400 0.1872 0.6840
C6 C 0.4324(2) 0.4737(4) 0.65483(13)
C7 C 0.3267(2) 0.4732(4) 0.68959(13)
C8 C 0.2899(2) 0.3290(4) 0.74042(13)
H5 H 0.3364 0.1942 0.7568
C9 C 0.1848(2) 0.3858(5) 0.76644(14)
H6 H 0.1602 0.2914 0.8021
C10 C 0.1143(2) 0.5807(5) 0.74077(14)
H7 H 0.0412 0.6141 0.7585
C11 C 0.1483(2) 0.7260(5) 0.69037(14)
H8 H 0.0994 0.8574 0.6730
C12 C 0.2565(2) 0.6735(4) 0.66592(13)
C13 C 0.2590(2) 0.9803(4) 0.57265(13)
H9 H 0.3273 1.0713 0.5597
H10 H 0.2146 1.0802 0.6012
C14 C 0.1662(2) 0.9128(4) 0.50173(13)
C15 C 0.0599(2) 0.6135(4) 0.42803(13)
H11 H -0.0252 0.6634 0.4301
H12 H 0.0617 0.4471 0.4250
H13 H 0.0821 0.6794 0.3844
loop_
_geom_bond_atom_site_label_1
_geom_bond_atom_site_label_2
_geom_bond_site_symmetry_1
_geom_bond_site_symmetry_2
O1 C14 1_555 1_555
O2 C14 1_555 1_555
N1 C1 1_555 1_555
C1 C2 1_555 1_555
C2 H1 1_555 1_555
C3 C2 1_555 1_555
H2 C3 1_555 1_555
C4 C3 1_555 1_555
H3 C4 1_555 1_555
C5 C4 1_555 1_555
H4 C5 1_555 1_555
C6 C1 1_555 1_555
C7 C6 1_555 1_555
C8 C7 1_555 1_555
H5 C8 1_555 1_555
C9 C8 1_555 1_555
H6 C9 1_555 1_555
C10 C9 1_555 1_555
H7 C10 1_555 1_555
C11 C10 1_555 1_555
H8 C11 1_555 1_555
C12 N1 1_555 1_555
C13 N1 1_555 1_555
H9 C13 1_555 1_555
H10 C13 1_555 1_555
C14 C13 1_555 1_555
C15 O1 1_555 1_555
H11 C15 1_555 1_555
H12 C15 1_555 1_555
H13 C15 1_555 1_555
C5 C6 1_555 1_555
C7 C12 1_555 1_555
C11 C12 1_555 1_555

#END
