
#######################################################################
#
#                 Cambridge Crystallographic Data Centre
#                                CCDC 
#
#######################################################################
#
# If this CIF has been generated from an entry in the Cambridge 
# Structural Database, then it will include bibliographic, chemical, 
# crystal, experimental, refinement or atomic coordinate data resulting 
# from the CCDC's data processing and validation procedures.
#
#######################################################################

data_MOTHUZ
_chemical_formula_moiety         'C24 H17 Cl1 N6'
_chemical_name_systematic        
2-Amino-4-[1-(2-chlorophenyl)-5-methyl-1H-1,2,3-triazol-4-yl]-6-(4-methylphenyl)benzene-1,3-dicarbonitrile
_symmetry_cell_setting           monoclinic
_symmetry_space_group_name_H-M   'P 21/n'
_symmetry_Int_Tables_number      14
_space_group_name_Hall           '-P 2yn'
loop_
_symmetry_equiv_pos_site_id
_symmetry_equiv_pos_as_xyz
1 x,y,z
2 1/2-x,1/2+y,1/2-z
3 -x,-y,-z
4 1/2+x,1/2-y,1/2+z
_cell_length_a                   13.623(6)
_cell_length_b                   7.792(4)
_cell_length_c                   20.608(10)
_cell_angle_alpha                90
_cell_angle_beta                 103.502(6)
_cell_angle_gamma                90
_cell_volume                     2127.09
_exptl_crystal_colour            colorless
_exptl_crystal_description       block
_chemical_melting_point          '470-471 K'
_cell_formula_units_Z            4
loop_
_atom_site_label
_atom_site_type_symbol
_atom_site_fract_x
_atom_site_fract_y
_atom_site_fract_z
C1 C 0.24428(14) 0.9337(2) -0.06466(9)
C2 C 0.18147(18) 0.9038(3) -0.12685(9)
H1 H 0.2062 0.8490 -0.1598
C3 C 0.08287(17) 0.9551(3) -0.13950(9)
H2 H 0.0409 0.9343 -0.1813
C4 C 0.04481(15) 1.0363(3) -0.09206(10)
H3 H -0.0225 1.0703 -0.1016
C5 C 0.10651(13) 1.0676(3) -0.02996(9)
H4 H 0.0811 1.1230 0.0026
C6 C 0.20613(13) 1.0164(2) -0.01645(7)
C7 C 0.29203(12) 0.9574(2) 0.10288(7)
C8 C 0.35736(13) 1.0573(2) 0.14774(8)
C9 C 0.25130(14) 0.7827(2) 0.10582(9)
H5 H 0.1810 0.7897 0.1061
H6 H 0.2875 0.7265 0.1457
H7 H 0.2589 0.7185 0.0675
C10 C 0.41031(13) 1.0236(2) 0.21766(7)
C11 C 0.35630(12) 0.9787(2) 0.26529(8)
C12 C 0.40644(13) 0.9537(2) 0.33256(7)
C13 C 0.51190(12) 0.9773(2) 0.34982(7)
C14 C 0.56677(13) 1.0206(2) 0.30216(8)
C15 C 0.51383(13) 1.0430(2) 0.23641(8)
H8 H 0.5489 1.0718 0.2043
C16 C 0.24834(15) 0.9704(3) 0.24816(8)
C17 C 0.56104(13) 0.9498(2) 0.41871(8)
C18 C 0.67814(12) 1.0387(2) 0.31955(8)
C19 C 0.72827(13) 1.1296(3) 0.37549(9)
H9 H 0.6915 1.1798 0.4033
C20 C 0.83163(14) 1.1464(3) 0.39034(10)
H10 H 0.8633 1.2092 0.4278
C21 C 0.88966(13) 1.0726(2) 0.35108(10)
C22 C 0.83984(14) 0.9792(2) 0.29615(9)
H11 H 0.8772 0.9255 0.2695
C23 C 0.73613(14) 0.9637(2) 0.27994(8)
H12 H 0.7046 0.9024 0.2421
C24 C 1.00282(15) 1.0947(3) 0.36777(14)
H13 H 1.0198 1.2071 0.3861
H14 H 1.0273 1.0815 0.3280
H15 H 1.0334 1.0096 0.3999
Cl1 Cl 0.36899(5) 0.87178(10) -0.04831(3)
N1 N 0.27058(11) 1.05500(18) 0.04722(6)
N2 N 0.31963(13) 1.2076(2) 0.05662(7)
N3 N 0.37317(13) 1.2074(2) 0.11804(7)
N4 N 0.16232(13) 0.9651(3) 0.23643(9)
N5 N 0.35492(11) 0.9051(2) 0.37873(6)
H16 H 0.2907 0.8892 0.3670
H17 H 0.3866 0.8903 0.4196
N6 N 0.59330(13) 0.9292(3) 0.47402(7)
loop_
_geom_bond_atom_site_label_1
_geom_bond_atom_site_label_2
_geom_bond_site_symmetry_1
_geom_bond_site_symmetry_2
C1 C2 1_555 1_555
C2 H1 1_555 1_555
C3 C2 1_555 1_555
H2 C3 1_555 1_555
C4 C3 1_555 1_555
H3 C4 1_555 1_555
C5 C4 1_555 1_555
H4 C5 1_555 1_555
C6 C1 1_555 1_555
C7 C8 1_555 1_555
C8 C10 1_555 1_555
C9 C7 1_555 1_555
H5 C9 1_555 1_555
H6 C9 1_555 1_555
H7 C9 1_555 1_555
C10 C11 1_555 1_555
C11 C12 1_555 1_555
C12 C13 1_555 1_555
C13 C14 1_555 1_555
C14 C15 1_555 1_555
C15 C10 1_555 1_555
H8 C15 1_555 1_555
C16 C11 1_555 1_555
C17 C13 1_555 1_555
C18 C14 1_555 1_555
C19 C18 1_555 1_555
H9 C19 1_555 1_555
C20 C19 1_555 1_555
H10 C20 1_555 1_555
C21 C20 1_555 1_555
C22 C21 1_555 1_555
H11 C22 1_555 1_555
C23 C18 1_555 1_555
H12 C23 1_555 1_555
C24 C21 1_555 1_555
H13 C24 1_555 1_555
H14 C24 1_555 1_555
H15 C24 1_555 1_555
Cl1 C1 1_555 1_555
N1 C6 1_555 1_555
N2 N1 1_555 1_555
N3 C8 1_555 1_555
N4 C16 1_555 1_555
N5 C12 1_555 1_555
H16 N5 1_555 1_555
H17 N5 1_555 1_555
N6 C17 1_555 1_555
C5 C6 1_555 1_555
C7 N1 1_555 1_555
C22 C23 1_555 1_555
N2 N3 1_555 1_555

#END
