
#######################################################################
#
#                 Cambridge Crystallographic Data Centre
#                                CCDC 
#
#######################################################################
#
# If this CIF has been generated from an entry in the Cambridge 
# Structural Database, then it will include bibliographic, chemical, 
# crystal, experimental, refinement or atomic coordinate data resulting 
# from the CCDC's data processing and validation procedures.
#
#######################################################################

data_MOTZOM
_chemical_formula_moiety         'C72 H84 N12,C1 H2 Cl2,7(C1 H4 O1),2.5(H2 O1)'
_chemical_name_systematic        
'5,12,20,27,35,42,50,57,62,69,74,81-Dodecaazatridecacyclo[29.29.10.10^16,46^.1^3,59^.1^14,18^.1^29,33^.1^44,48^.0^6,11^.0^21,26^.0^36,41^.0^51,56^.0^63,68^.0^75,80^]tetraoctaconta-1,3(71),4,12,14(84),15,17,19,27,29(83),30,32,34,42,44(72),45,47,49,57,59,61,69,73,81-tetracosaene dichloromethane methanol solvate hydrate'
_symmetry_cell_setting           monoclinic
_symmetry_space_group_name_H-M   'I 2'
_symmetry_Int_Tables_number      5
_space_group_name_Hall           'I 2y'
loop_
_symmetry_equiv_pos_site_id
_symmetry_equiv_pos_as_xyz
1 x,y,z
2 -x,y,-z
3 1/2+x,1/2+y,1/2+z
4 1/2-x,1/2+y,1/2-z
_cell_length_a                   21.7305(17)
_cell_length_b                   19.7370(15)
_cell_length_c                   22.9973(17)
_cell_angle_alpha                90
_cell_angle_beta                 105.506(2)
_cell_angle_gamma                90
_cell_volume                     9504.42
_exptl_crystal_colour            colorless
_exptl_crystal_description       needle
_cell_formula_units_Z            4
loop_
_atom_site_label
_atom_site_type_symbol
_atom_site_fract_x
_atom_site_fract_y
_atom_site_fract_z
Cl1 Cl 0.5705(3) 0.2822(2) 0.2463(2)
Cl2 Cl 0.7007(4) 0.2777(5) 0.3482(4)
C1 C 0.6452(7) 0.2583(9) 0.2912(6)
H1 H 0.6363 0.2112 0.3014
H2 H 0.6691 0.2533 0.2604
O1 O 0.5529(3) 0.2296(4) 0.5145(3)
H3 H 0.5344 0.1939 0.5204
C2 C 0.5998(5) 0.2136(7) 0.4793(5)
H4 H 0.5772 0.2086 0.4365
H5 H 0.6219 0.1711 0.4942
H6 H 0.6311 0.2503 0.4841
O2 O 0.80559(18) 0.0862(2) 0.26116(18)
H7 H 0.8200 0.0922 0.2311
C3 C 0.7950(3) 0.1510(3) 0.2860(3)
H8 H 0.7572 0.1725 0.2594
H9 H 0.8323 0.1801 0.2892
H10 H 0.7884 0.1444 0.3261
O3 O 0.6399(3) 0.0429(4) 0.5090(3)
H11 H 0.6546 0.0327 0.4798
C4 C 0.6007(7) -0.0089(9) 0.5186(8)
H12 H 0.5866 -0.0364 0.4820
H13 H 0.5633 0.0106 0.5287
H14 H 0.6243 -0.0375 0.5520
O4 O 0.3012(5) 0.1798(6) 0.1536(5)
H15 H 0.2796 0.1500 0.1310
C5 C 0.3728(8) 0.1540(10) 0.1793(8)
H16 H 0.3778 0.1100 0.1612
H17 H 0.3826 0.1492 0.2232
H18 H 0.4022 0.1869 0.1692
O5 O 0.2275(6) 0.3323(8) 0.1251(6)
H19 H 0.2324 0.2912 0.1346
C6 C 0.2418(11) 0.3718(12) 0.1772(10)
H20 H 0.2020 0.3879 0.1849
H21 H 0.2678 0.4107 0.1719
H22 H 0.2655 0.3445 0.2115
O6 O 0.9095(3) 0.2398(3) 0.2336(2)
H23 H 0.9022 0.2810 0.2382
C7 C 0.9179(5) 0.2303(6) 0.1792(5)
H24 H 0.9140 0.2738 0.1579
H25 H 0.8856 0.1988 0.1564
H26 H 0.9606 0.2114 0.1831
O7 O 0.6765(6) 0.5683(7) 0.4760(6)
O8 O 0.6891(3) 0.5628(3) 0.3567(3)
H27 H 0.6971 0.5783 0.3255
C8 C 0.7105(4) 0.5013(5) 0.3660(4)
H28 H 0.6877 0.4723 0.3325
H29 H 0.7038 0.4843 0.4038
H30 H 0.7563 0.5007 0.3685
O9 O 0.8795(7) 0.2879(8) 0.7698(7)
O10 O 0.6951(11) 0.3976(13) 0.3661(11)
O11 O 0.4037(10) 0.6753(11) 0.3425(10)
N1 N 0.61969(14) 0.44670(16) 0.51665(14)
N2 N 0.73874(14) 0.37510(15) 0.56790(13)
N3 N 0.91917(13) 0.34900(14) 0.39021(12)
N4 N 0.87536(13) 0.37703(15) 0.26218(12)
N5 N 0.64875(12) 0.20810(14) 0.08658(12)
N6 N 0.61627(14) 0.08541(15) 0.13959(13)
N7 N 0.42698(14) 0.13022(16) 0.30887(12)
N8 N 0.39922(14) 0.25843(16) 0.35530(13)
N9 N 0.70822(14) 0.00726(16) 0.42022(13)
N10 N 0.81792(13) 0.08010(14) 0.49206(13)
N11 N 0.49675(14) 0.51428(16) 0.23393(15)
N12 N 0.59182(12) 0.50790(14) 0.16713(13)
C9 C 0.52050(17) 0.4544(2) 0.32776(18)
C10 C 0.55584(17) 0.4540(2) 0.38771(18)
H31 H 0.5853 0.4895 0.4028
C11 C 0.54825(17) 0.4014(2) 0.42622(17)
C12 C 0.50398(17) 0.3498(2) 0.40379(17)
H32 H 0.4988 0.3139 0.4296
C13 C 0.46745(17) 0.35058(19) 0.34378(17)
C14 C 0.47634(17) 0.4023(2) 0.30568(17)
H33 H 0.4524 0.4023 0.2645
C15 C 0.52880(17) 0.5103(2) 0.28815(18)
H34 H 0.5594 0.5446 0.3041
C16 C 0.58323(18) 0.3992(2) 0.49068(17)
H35 H 0.5783 0.3606 0.5137
C17 C 0.41781(17) 0.29897(19) 0.32123(17)
H36 H 0.3989 0.2961 0.2790
C18 C 0.76169(15) 0.38178(17) 0.22141(14)
C19 C 0.70821(15) 0.42316(17) 0.21040(15)
H37 H 0.7107 0.4660 0.2297
C20 C 0.64992(15) 0.40159(17) 0.17038(15)
C21 C 0.64699(14) 0.33830(17) 0.14315(14)
H38 H 0.6080 0.3235 0.1164
C22 C 0.70056(16) 0.29614(17) 0.15452(16)
C23 C 0.75777(15) 0.31823(17) 0.19345(15)
H39 H 0.7945 0.2900 0.2011
C24 C 0.82310(15) 0.40600(17) 0.26080(15)
H40 H 0.8233 0.4444 0.2858
C25 C 0.59302(14) 0.44549(17) 0.15392(15)
H41 H 0.5541 0.4255 0.1316
C26 C 0.69855(15) 0.22973(17) 0.12489(15)
H42 H 0.7357 0.2021 0.1347
C27 C 0.64438(17) 0.05993(18) 0.32953(17)
C28 C 0.63939(17) 0.07233(17) 0.26929(16)
H43 H 0.6751 0.0642 0.2538
C29 C 0.58248(17) 0.09663(18) 0.23081(16)
C30 C 0.53065(17) 0.10999(18) 0.25358(16)
H44 H 0.4921 0.1272 0.2279
C31 C 0.53554(17) 0.09785(19) 0.31521(16)
C32 C 0.59185(18) 0.07312(19) 0.35208(16)
H45 H 0.5950 0.0649 0.3935
C33 C 0.70335(17) 0.02910(18) 0.36755(16)
H46 H 0.7393 0.0255 0.3517
C34 C 0.57428(16) 0.10597(17) 0.16486(15)
H47 H 0.5369 0.1277 0.1412
C35 C 0.48071(18) 0.11058(19) 0.34033(16)
H48 H 0.4863 0.1036 0.3823
C36 C 0.86052(15) 0.27833(17) 0.44136(15)
C37 C 0.84693(15) 0.21290(17) 0.45547(15)
H49 H 0.8644 0.1756 0.4391
C38 C 0.80730(15) 0.20114(17) 0.49409(15)
C39 C 0.78302(15) 0.25619(18) 0.51826(15)
H50 H 0.7565 0.2488 0.5445
C40 C 0.79713(15) 0.32255(17) 0.50445(15)
C41 C 0.83545(15) 0.33345(17) 0.46622(15)
H51 H 0.8449 0.3784 0.4567
C42 C 0.90200(15) 0.29023(17) 0.40068(15)
H52 H 0.9161 0.2525 0.3819
C43 C 0.79261(15) 0.13117(17) 0.50917(15)
H53 H 0.7631 0.1245 0.5326
C44 C 0.77257(15) 0.38138(17) 0.53074(15)
H54 H 0.7823 0.4256 0.5196
C45 C 0.72095(17) 0.43683(19) 0.59406(17)
H55 H 0.7366 0.4774 0.5762
C46 C 0.75134(19) 0.4344(2) 0.66239(19)
H56 H 0.7389 0.3917 0.6787
H57 H 0.7984 0.4347 0.6703
C47 C 0.7309(2) 0.4941(3) 0.6949(2)
H58 H 0.7462 0.5369 0.6811
H59 H 0.7506 0.4899 0.7389
C48 C 0.6586(2) 0.4963(3) 0.6826(2)
H60 H 0.6459 0.5368 0.7020
H61 H 0.6437 0.4556 0.7001
C49 C 0.6274(2) 0.4986(2) 0.6138(2)
H62 H 0.5804 0.4980 0.6062
H63 H 0.6393 0.5415 0.5973
C50 C 0.64799(17) 0.43931(19) 0.58152(16)
H64 H 0.6326 0.3962 0.5956
C51 C 0.50922(16) 0.57146(17) 0.19812(17)
H65 H 0.5437 0.6005 0.2237
C52 C 0.44820(17) 0.61334(19) 0.1757(2)
H66 H 0.4129 0.5833 0.1544
H67 H 0.4365 0.6334 0.2108
C53 C 0.45675(18) 0.6698(2) 0.1332(2)
H68 H 0.4157 0.6940 0.1179
H69 H 0.4886 0.7027 0.1559
C54 C 0.47829(17) 0.6429(2) 0.08107(19)
H70 H 0.4864 0.6812 0.0563
H71 H 0.4441 0.6146 0.0554
C55 C 0.53973(16) 0.60034(18) 0.10297(18)
H72 H 0.5512 0.5807 0.0677
H73 H 0.5752 0.6300 0.1245
C56 C 0.53108(15) 0.54349(16) 0.14487(16)
H74 H 0.4982 0.5110 0.1217
C57 C 0.93390(14) 0.40609(16) 0.30138(14)
H75 H 0.9235 0.4490 0.3198
C58 C 0.98083(15) 0.42104(18) 0.26400(16)
H76 H 0.9625 0.4561 0.2335
H77 H 0.9876 0.3794 0.2424
C59 C 1.04505(16) 0.4458(2) 0.30401(18)
H78 H 1.0749 0.4542 0.2789
H79 H 1.0389 0.4889 0.3237
C60 C 1.07331(16) 0.3932(2) 0.35180(17)
H80 H 1.1142 0.4102 0.3781
H81 H 1.0823 0.3511 0.3321
C61 C 1.02734(15) 0.3776(2) 0.39015(15)
H82 H 1.0459 0.3416 0.4197
H83 H 1.0219 0.4186 0.4130
C62 C 0.96226(14) 0.35448(17) 0.35143(15)
H84 H 0.9664 0.3094 0.3331
C63 C 0.37635(16) 0.13855(19) 0.33960(14)
H85 H 0.3943 0.1317 0.3840
C64 C 0.32466(19) 0.0859(2) 0.31478(17)
H86 H 0.3428 0.0399 0.3244
H87 H 0.3099 0.0901 0.2703
C65 C 0.26789(18) 0.0948(2) 0.34143(18)
H88 H 0.2817 0.0858 0.3854
H89 H 0.2342 0.0616 0.3228
C66 C 0.24069(17) 0.1666(2) 0.33039(17)
H90 H 0.2225 0.1738 0.2865
H91 H 0.2059 0.1721 0.3504
C67 C 0.29254(17) 0.2188(2) 0.35500(17)
H92 H 0.3077 0.2143 0.3994
H93 H 0.2745 0.2649 0.3457
C68 C 0.34904(15) 0.20977(18) 0.32763(14)
H94 H 0.3345 0.2179 0.2831
C69 C 0.65428(15) 0.14096(16) 0.06115(14)
H95 H 0.6976 0.1218 0.0803
C70 C 0.6454(2) 0.14820(19) -0.00670(17)
H96 H 0.6800 0.1768 -0.0141
H97 H 0.6042 0.1708 -0.0252
C71 C 0.6466(2) 0.0780(2) -0.03601(19)
H98 H 0.6381 0.0833 -0.0803
H99 H 0.6895 0.0576 -0.0206
C72 C 0.59681(19) 0.0311(2) -0.02222(18)
H100 H 0.6009 -0.0144 -0.0388
H101 H 0.5536 0.0486 -0.0422
C73 C 0.60440(17) 0.02539(17) 0.04549(17)
H102 H 0.5695 -0.0031 0.0525
H103 H 0.6454 0.0027 0.0648
C74 C 0.60293(14) 0.09448(17) 0.07464(14)
H104 H 0.5598 0.1155 0.0587
C75 C 0.76825(17) -0.02659(18) 0.45146(16)
H105 H 0.7976 -0.0276 0.4246
C76 C 0.7530(2) -0.0990(2) 0.46678(19)
H106 H 0.7206 -0.0978 0.4899
H107 H 0.7348 -0.1243 0.4289
C77 C 0.8124(2) -0.1356(2) 0.50371(19)
H108 H 0.8003 -0.1811 0.5152
H109 H 0.8428 -0.1418 0.4788
C78 C 0.8445(2) -0.0960(2) 0.56007(18)
H110 H 0.8161 -0.0950 0.5874
H111 H 0.8846 -0.1191 0.5815
C79 C 0.85918(18) -0.02461(19) 0.54517(18)
H112 H 0.8912 -0.0257 0.5216
H113 H 0.8781 0.0003 0.5831
C80 C 0.79955(16) 0.01313(17) 0.50899(15)
H114 H 0.7686 0.0182 0.5340
O12? O 0.6082(8) 0.3198(9) 0.3032(7)
H115? H 0.6178 0.3474 0.3320
O13? O 0.4531(4) 0.2362(4) 0.1274(4)
H116? H 0.4374 0.2602 0.0968
C81? C 0.6137(7) 0.2573(8) 0.3245(7)
H117? H 0.6117 0.2253 0.2915
H118? H 0.5787 0.2479 0.3429
H119? H 0.6547 0.2523 0.3550
C82? C 0.4873(5) 0.2768(6) 0.1737(5)
H120? H 0.5010 0.3180 0.1569
H121? H 0.5250 0.2521 0.1971
H122? H 0.4603 0.2891 0.2001
O14? O 0.5426(6) 0.1352(7) 0.4957(6)
H123? H 0.5074 0.1418 0.4703
C83? C 0.5847(7) 0.1747(9) 0.4846(7)
H124? H 0.5746 0.1833 0.4411
H125? H 0.6268 0.1534 0.4981
H126? H 0.5848 0.2176 0.5060
O15? O 0.3270(4) 0.2431(5) 0.1401(4)
Cl3? Cl 0.5000 0.36667(10) 0.0000
Cl4? Cl 0.48162(11) 0.26900(13) 0.08096(12)
C84? C 0.5000 0.2816(4) 0.0000
H127? H 0.5419 0.2626 -0.0008
H128? H 0.4659 0.2626 -0.0336
loop_
_geom_bond_atom_site_label_1
_geom_bond_atom_site_label_2
_geom_bond_site_symmetry_1
_geom_bond_site_symmetry_2
Cl1 C1 1_555 1_555
Cl2 C1 1_555 1_555
C1 H1 1_555 1_555
H2 C1 1_555 1_555
O1 H3 1_555 1_555
C2 O1 1_555 1_555
H4 C2 1_555 1_555
H5 C2 1_555 1_555
H6 C2 1_555 1_555
O2 H7 1_555 1_555
C3 O2 1_555 1_555
H8 C3 1_555 1_555
H9 C3 1_555 1_555
H10 C3 1_555 1_555
O3 H11 1_555 1_555
C4 O3 1_555 1_555
H12 C4 1_555 1_555
H13 C4 1_555 1_555
H14 C4 1_555 1_555
O4 H15 1_555 1_555
C5 O4 1_555 1_555
H16 C5 1_555 1_555
H17 C5 1_555 1_555
H18 C5 1_555 1_555
O5 H19 1_555 1_555
C6 O5 1_555 1_555
H20 C6 1_555 1_555
H21 C6 1_555 1_555
H22 C6 1_555 1_555
O6 H23 1_555 1_555
C7 O6 1_555 1_555
H24 C7 1_555 1_555
H25 C7 1_555 1_555
H26 C7 1_555 1_555
O8 H27 1_555 1_555
C8 O8 1_555 1_555
H28 C8 1_555 1_555
H29 C8 1_555 1_555
H30 C8 1_555 1_555
N1 C16 1_555 1_555
N2 C44 1_555 1_555
N3 C42 1_555 1_555
N4 C24 1_555 1_555
N5 C26 1_555 1_555
N6 C34 1_555 1_555
N7 C35 1_555 1_555
N8 C17 1_555 1_555
N9 C33 1_555 1_555
N10 C43 1_555 1_555
N11 C15 1_555 1_555
N12 C25 1_555 1_555
C9 C10 1_555 1_555
C10 H31 1_555 1_555
C11 C10 1_555 1_555
C12 C11 1_555 1_555
H32 C12 1_555 1_555
C13 C12 1_555 1_555
C14 C9 1_555 1_555
H33 C14 1_555 1_555
C15 C9 1_555 1_555
H34 C15 1_555 1_555
C16 C11 1_555 1_555
H35 C16 1_555 1_555
C17 C13 1_555 1_555
H36 C17 1_555 1_555
C18 C19 1_555 1_555
C19 H37 1_555 1_555
C20 C19 1_555 1_555
C21 C20 1_555 1_555
H38 C21 1_555 1_555
C22 C21 1_555 1_555
C23 C18 1_555 1_555
H39 C23 1_555 1_555
C24 C18 1_555 1_555
H40 C24 1_555 1_555
C25 C20 1_555 1_555
H41 C25 1_555 1_555
C26 C22 1_555 1_555
H42 C26 1_555 1_555
C27 C28 1_555 1_555
C28 H43 1_555 1_555
C29 C28 1_555 1_555
C30 C29 1_555 1_555
H44 C30 1_555 1_555
C31 C30 1_555 1_555
C32 C27 1_555 1_555
H45 C32 1_555 1_555
C33 C27 1_555 1_555
H46 C33 1_555 1_555
C34 C29 1_555 1_555
H47 C34 1_555 1_555
C35 C31 1_555 1_555
H48 C35 1_555 1_555
C36 C37 1_555 1_555
C37 H49 1_555 1_555
C38 C37 1_555 1_555
C39 C38 1_555 1_555
H50 C39 1_555 1_555
C40 C39 1_555 1_555
C41 C36 1_555 1_555
H51 C41 1_555 1_555
C42 C36 1_555 1_555
H52 C42 1_555 1_555
C43 C38 1_555 1_555
H53 C43 1_555 1_555
C44 C40 1_555 1_555
H54 C44 1_555 1_555
C45 N2 1_555 1_555
H55 C45 1_555 1_555
C46 C45 1_555 1_555
H56 C46 1_555 1_555
H57 C46 1_555 1_555
C47 C46 1_555 1_555
H58 C47 1_555 1_555
H59 C47 1_555 1_555
C48 C47 1_555 1_555
H60 C48 1_555 1_555
H61 C48 1_555 1_555
C49 C48 1_555 1_555
H62 C49 1_555 1_555
H63 C49 1_555 1_555
C50 N1 1_555 1_555
H64 C50 1_555 1_555
C51 N11 1_555 1_555
H65 C51 1_555 1_555
C52 C51 1_555 1_555
H66 C52 1_555 1_555
H67 C52 1_555 1_555
C53 C52 1_555 1_555
H68 C53 1_555 1_555
H69 C53 1_555 1_555
C54 C53 1_555 1_555
H70 C54 1_555 1_555
H71 C54 1_555 1_555
C55 C54 1_555 1_555
H72 C55 1_555 1_555
H73 C55 1_555 1_555
C56 N12 1_555 1_555
H74 C56 1_555 1_555
C57 N4 1_555 1_555
H75 C57 1_555 1_555
C58 C57 1_555 1_555
H76 C58 1_555 1_555
H77 C58 1_555 1_555
C59 C58 1_555 1_555
H78 C59 1_555 1_555
H79 C59 1_555 1_555
C60 C59 1_555 1_555
H80 C60 1_555 1_555
H81 C60 1_555 1_555
C61 C60 1_555 1_555
H82 C61 1_555 1_555
H83 C61 1_555 1_555
C62 N3 1_555 1_555
H84 C62 1_555 1_555
C63 N7 1_555 1_555
H85 C63 1_555 1_555
C64 C63 1_555 1_555
H86 C64 1_555 1_555
H87 C64 1_555 1_555
C65 C64 1_555 1_555
H88 C65 1_555 1_555
H89 C65 1_555 1_555
C66 C65 1_555 1_555
H90 C66 1_555 1_555
H91 C66 1_555 1_555
C67 C66 1_555 1_555
H92 C67 1_555 1_555
H93 C67 1_555 1_555
C68 N8 1_555 1_555
H94 C68 1_555 1_555
C69 N5 1_555 1_555
H95 C69 1_555 1_555
C70 C69 1_555 1_555
H96 C70 1_555 1_555
H97 C70 1_555 1_555
C71 C70 1_555 1_555
H98 C71 1_555 1_555
H99 C71 1_555 1_555
C72 C71 1_555 1_555
H100 C72 1_555 1_555
H101 C72 1_555 1_555
C73 C72 1_555 1_555
H102 C73 1_555 1_555
H103 C73 1_555 1_555
C74 N6 1_555 1_555
H104 C74 1_555 1_555
C75 N9 1_555 1_555
H105 C75 1_555 1_555
C76 C75 1_555 1_555
H106 C76 1_555 1_555
H107 C76 1_555 1_555
C77 C76 1_555 1_555
H108 C77 1_555 1_555
H109 C77 1_555 1_555
C78 C77 1_555 1_555
H110 C78 1_555 1_555
H111 C78 1_555 1_555
C79 C78 1_555 1_555
H112 C79 1_555 1_555
H113 C79 1_555 1_555
C80 N10 1_555 1_555
H114 C80 1_555 1_555
C13 C14 1_555 1_555
C22 C23 1_555 1_555
C31 C32 1_555 1_555
C40 C41 1_555 1_555
C45 C50 1_555 1_555
C49 C50 1_555 1_555
C51 C56 1_555 1_555
C55 C56 1_555 1_555
C57 C62 1_555 1_555
C61 C62 1_555 1_555
C63 C68 1_555 1_555
C67 C68 1_555 1_555
C69 C74 1_555 1_555
C73 C74 1_555 1_555
C75 C80 1_555 1_555
C79 C80 1_555 1_555

#END
