
#######################################################################
#
#                 Cambridge Crystallographic Data Centre
#                                CCDC 
#
#######################################################################
#
# If this CIF has been generated from an entry in the Cambridge 
# Structural Database, then it will include bibliographic, chemical, 
# crystal, experimental, refinement or atomic coordinate data resulting 
# from the CCDC's data processing and validation procedures.
#
#######################################################################

data_MOVBAA
_chemical_formula_moiety         'C7 H6 N2 O1 S2'
_chemical_name_systematic        7-Methoxy-1,3,2,4-benzodithiadiazine
_symmetry_cell_setting           monoclinic
_symmetry_space_group_name_H-M   'P 21/n'
_symmetry_Int_Tables_number      14
_space_group_name_Hall           '-P 2yn'
loop_
_symmetry_equiv_pos_site_id
_symmetry_equiv_pos_as_xyz
1 x,y,z
2 1/2+x,1/2-y,1/2+z
3 -x,-y,-z
4 1/2-x,1/2+y,1/2-z
_cell_length_a                   6.0520(10)
_cell_length_b                   10.554(2)
_cell_length_c                   12.938(2)
_cell_angle_alpha                90
_cell_angle_beta                 97.49(2)
_cell_angle_gamma                90
_cell_volume                     819.335
_exptl_crystal_colour            black
_exptl_crystal_description       needle
_chemical_melting_point          '109-110 deg.C'
_cell_formula_units_Z            4
loop_
_atom_site_label
_atom_site_type_symbol
_atom_site_fract_x
_atom_site_fract_y
_atom_site_fract_z
S1 S 0.67894(15) 0.29099(8) 0.07246(7)
N1 N 0.4670(5) 0.3866(3) 0.0923(2)
S2 S 0.2387(2) 0.38323(9) 0.02440(7)
N2 N 0.1978(5) 0.2870(3) -0.0643(2)
C1 C 0.2984(6) 0.1103(3) -0.1653(2)
C2 C 0.4445(6) 0.0187(3) -0.1934(2)
C3 C 0.6560(5) 0.0115(3) -0.1383(2)
C4 C 0.7193(6) 0.0965(3) -0.0564(2)
C5 C 0.5736(5) 0.1875(3) -0.0315(2)
C6 C 0.3584(5) 0.1960(3) -0.0863(2)
O1 O 0.8157(4) -0.0736(2) -0.1548(2)
C7 C 0.7788(9) -0.1509(4) -0.2458(3)
H1 H 0.1445(61) 0.1179(35) -0.1978(29)
H2 H 0.3930(61) -0.0335(38) -0.2457(29)
H3 H 0.8709(62) 0.0929(36) -0.0185(28)
H4 H 0.8996(77) -0.2027(43) -0.2445(33)
H5 H 0.7512(82) -0.1039(50) -0.3055(42)
H6 H 0.634(12) -0.2177(73) -0.2483(51)
loop_
_geom_bond_atom_site_label_1
_geom_bond_atom_site_label_2
_geom_bond_site_symmetry_1
_geom_bond_site_symmetry_2
S1 N1 1_555 1_555
N1 S2 1_555 1_555
S2 N2 1_555 1_555
N2 C6 1_555 1_555
C1 C2 1_555 1_555
C2 C3 1_555 1_555
C3 C4 1_555 1_555
C4 C5 1_555 1_555
C5 S1 1_555 1_555
C6 C1 1_555 1_555
O1 C3 1_555 1_555
C7 O1 1_555 1_555
H1 C1 1_555 1_555
H2 C2 1_555 1_555
H3 C4 1_555 1_555
H4 C7 1_555 1_555
H5 C7 1_555 1_555
H6 C7 1_555 1_555
C5 C6 1_555 1_555

#END
