
#######################################################################
#
#                 Cambridge Crystallographic Data Centre
#                                CCDC 
#
#######################################################################
#
# If this CIF has been generated from an entry in the Cambridge 
# Structural Database, then it will include bibliographic, chemical, 
# crystal, experimental, refinement or atomic coordinate data resulting 
# from the CCDC's data processing and validation procedures.
#
#######################################################################

data_MOVKOX
_chemical_formula_moiety         'C36 H48 N2 O1'
_chemical_name_systematic        
2,6-bis((2,6-diisopropylphenyl)iminomethyl)-4-t-butylphenol
_symmetry_cell_setting           monoclinic
_symmetry_space_group_name_H-M   'P 21/n'
_symmetry_Int_Tables_number      14
_space_group_name_Hall           '-P 2yn'
loop_
_symmetry_equiv_pos_site_id
_symmetry_equiv_pos_as_xyz
1 x,y,z
2 1/2+x,1/2-y,1/2+z
3 -x,-y,-z
4 1/2-x,1/2+y,1/2-z
_cell_length_a                   9.9570(2)
_cell_length_b                   17.4138(3)
_cell_length_c                   19.0076(4)
_cell_angle_alpha                90
_cell_angle_beta                 99.5295(20)
_cell_angle_gamma                90
_cell_volume                     3250.23
_exptl_crystal_colour            yellow
_exptl_crystal_description       block
_chemical_melting_point          465-466K
_cell_formula_units_Z            4
_exptl_crystal_recrystallization_method ethanol
loop_
_atom_site_label
_atom_site_type_symbol
_atom_site_fract_x
_atom_site_fract_y
_atom_site_fract_z
O1 O 0.87478(11) 0.38470(7) 0.09324(7)
H1 H 0.886(3) 0.3551(16) 0.0535(15)
N1 N 0.71974(14) 0.50435(8) 0.24317(7)
N2 N 0.84175(14) 0.29095(8) -0.01517(7)
C1 C 0.81373(17) 0.54983(10) 0.29076(8)
C2 C 0.78798(19) 0.62950(10) 0.29187(9)
C3 C 0.8787(2) 0.67526(12) 0.33703(11)
H2 H 0.8653 0.7281 0.3374
C4 C 0.9881(2) 0.64361(13) 0.38111(11)
H3 H 1.0485 0.6751 0.4106
C5 C 1.0081(2) 0.56591(13) 0.38167(10)
H4 H 1.0809 0.5452 0.4129
C6 C 0.92275(18) 0.51685(11) 0.33683(9)
C7 C 0.9476(2) 0.43072(12) 0.34261(11)
H5 H 0.8793 0.4056 0.3070
C8 C 1.0872(3) 0.40875(17) 0.32675(18)
H6 H 1.0974 0.4278 0.2805
H7 H 1.0960 0.3538 0.3274
H8 H 1.1563 0.4307 0.3623
C9 C 0.9295(3) 0.40078(16) 0.41590(15)
H9 H 0.9457 0.3464 0.4182
H10 H 0.8383 0.4111 0.4236
H11 H 0.9930 0.4260 0.4520
C10 C 0.6637(2) 0.66317(12) 0.24537(11)
H12 H 0.5901 0.6256 0.2442
C11 C 0.6851(3) 0.67463(19) 0.16966(13)
H13 H 0.7154 0.6274 0.1515
H14 H 0.7527 0.7137 0.1682
H15 H 0.6010 0.6902 0.1409
C12 C 0.6146(3) 0.73798(16) 0.27552(16)
H16 H 0.5360 0.7567 0.2441
H17 H 0.6859 0.7756 0.2796
H18 H 0.5912 0.7283 0.3217
C13 C 0.76486(16) 0.47045(9) 0.19295(8)
H19 H 0.8569 0.4751 0.1902
C14 C 0.67844(16) 0.42405(9) 0.13879(8)
C15 C 0.53718(16) 0.42273(9) 0.13404(8)
H20 H 0.4981 0.4507 0.1671
C16 C 0.45192(15) 0.38134(9) 0.08189(8)
C17 C 0.51470(15) 0.33978(9) 0.03420(8)
H21 H 0.4606 0.3112 -0.0009
C18 C 0.65521(15) 0.33906(8) 0.03666(8)
C19 C 0.73841(15) 0.38250(8) 0.08918(8)
C20 C 0.29656(16) 0.38551(11) 0.07594(10)
C21 C 0.2488(3) 0.46006(19) 0.0389(2)
H22 H 0.1516 0.4639 0.0346
H23 H 0.2741 0.4610 -0.0077
H24 H 0.2906 0.5025 0.0664
C22 C 0.2546(3) 0.3829(3) 0.14757(15)
H25 H 0.2995 0.4233 0.1768
H26 H 0.2795 0.3342 0.1695
H27 H 0.1578 0.3896 0.1425
C23 C 0.2257(2) 0.32149(19) 0.0298(2)
H28 H 0.1290 0.3261 0.0274
H29 H 0.2555 0.2727 0.0502
H30 H 0.2479 0.3252 -0.0173
C24 C 0.71460(16) 0.29306(9) -0.01437(8)
H31 H 0.6570 0.2641 -0.0477
C25 C 0.89455(16) 0.24376(10) -0.06612(9)
C26 C 0.9554(2) 0.17388(11) -0.04247(10)
C27 C 1.0097(2) 0.12940(13) -0.09180(13)
H32 H 1.0491 0.0823 -0.0778
C28 C 1.0060(3) 0.15366(15) -0.16039(13)
H33 H 1.0421 0.1229 -0.1926
C29 C 0.9490(2) 0.22359(14) -0.18205(12)
H34 H 0.9488 0.2398 -0.2287
C30 C 0.89164(19) 0.27065(12) -0.13574(10)
C31 C 0.8369(2) 0.34952(14) -0.15875(11)
H35 H 0.7786 0.3664 -0.1249
C32 C 0.9493(3) 0.40592(17) -0.1562(3)
H36 H 0.9122 0.4554 -0.1710
H37 H 1.0099 0.3897 -0.1876
H38 H 0.9983 0.4092 -0.1084
C33 C 0.7524(6) 0.3498(3) -0.2321(3)
H39 H 0.7202 0.4010 -0.2439
H40 H 0.6762 0.3159 -0.2330
H41 H 0.8070 0.3329 -0.2663
C34 C 0.9572(3) 0.14704(13) 0.03360(11)
H42 H 0.9491 0.1928 0.0626
C35 C 0.8346(3) 0.09676(17) 0.03817(16)
H43 H 0.7530 0.1233 0.0176
H44 H 0.8312 0.0853 0.0873
H45 H 0.8419 0.0498 0.0126
C36 C 1.0885(3) 0.10648(18) 0.06586(17)
H46 H 1.0832 0.0910 0.1138
H47 H 1.1640 0.1409 0.0663
H48 H 1.1012 0.0620 0.0378
loop_
_geom_bond_atom_site_label_1
_geom_bond_atom_site_label_2
_geom_bond_site_symmetry_1
_geom_bond_site_symmetry_2
O1 H1 1_555 1_555
N1 C1 1_555 1_555
N2 C24 1_555 1_555
C1 C2 1_555 1_555
C2 C3 1_555 1_555
C3 H2 1_555 1_555
C4 C3 1_555 1_555
H3 C4 1_555 1_555
C5 C4 1_555 1_555
H4 C5 1_555 1_555
C6 C1 1_555 1_555
C7 C6 1_555 1_555
H5 C7 1_555 1_555
C8 C7 1_555 1_555
H6 C8 1_555 1_555
H7 C8 1_555 1_555
H8 C8 1_555 1_555
C9 C7 1_555 1_555
H9 C9 1_555 1_555
H10 C9 1_555 1_555
H11 C9 1_555 1_555
C10 C2 1_555 1_555
H12 C10 1_555 1_555
C11 C10 1_555 1_555
H13 C11 1_555 1_555
H14 C11 1_555 1_555
H15 C11 1_555 1_555
C12 C10 1_555 1_555
H16 C12 1_555 1_555
H17 C12 1_555 1_555
H18 C12 1_555 1_555
C13 N1 1_555 1_555
H19 C13 1_555 1_555
C14 C13 1_555 1_555
C15 C14 1_555 1_555
H20 C15 1_555 1_555
C16 C15 1_555 1_555
C17 C16 1_555 1_555
H21 C17 1_555 1_555
C18 C17 1_555 1_555
C19 O1 1_555 1_555
C20 C16 1_555 1_555
C21 C20 1_555 1_555
H22 C21 1_555 1_555
H23 C21 1_555 1_555
H24 C21 1_555 1_555
C22 C20 1_555 1_555
H25 C22 1_555 1_555
H26 C22 1_555 1_555
H27 C22 1_555 1_555
C23 C20 1_555 1_555
H28 C23 1_555 1_555
H29 C23 1_555 1_555
H30 C23 1_555 1_555
C24 C18 1_555 1_555
H31 C24 1_555 1_555
C25 N2 1_555 1_555
C26 C25 1_555 1_555
C27 C26 1_555 1_555
H32 C27 1_555 1_555
C28 C27 1_555 1_555
H33 C28 1_555 1_555
C29 C28 1_555 1_555
H34 C29 1_555 1_555
C30 C25 1_555 1_555
C31 C30 1_555 1_555
H35 C31 1_555 1_555
C32 C31 1_555 1_555
H36 C32 1_555 1_555
H37 C32 1_555 1_555
H38 C32 1_555 1_555
C33 C31 1_555 1_555
H39 C33 1_555 1_555
H40 C33 1_555 1_555
H41 C33 1_555 1_555
C34 C26 1_555 1_555
H42 C34 1_555 1_555
C35 C34 1_555 1_555
H43 C35 1_555 1_555
H44 C35 1_555 1_555
H45 C35 1_555 1_555
C36 C34 1_555 1_555
H46 C36 1_555 1_555
H47 C36 1_555 1_555
H48 C36 1_555 1_555
C5 C6 1_555 1_555
C14 C19 1_555 1_555
C18 C19 1_555 1_555
C29 C30 1_555 1_555

#END
