
#######################################################################
#
#                 Cambridge Crystallographic Data Centre
#                                CCDC 
#
#######################################################################
#
# If this CIF has been generated from an entry in the Cambridge 
# Structural Database, then it will include bibliographic, chemical, 
# crystal, experimental, refinement or atomic coordinate data resulting 
# from the CCDC's data processing and validation procedures.
#
#######################################################################

data_MOXBUW
_chemical_formula_moiety         'C1 H6 N3 O1 1+,C6 H2 N3 O7 1-'
_chemical_name_systematic        'Hydrogen semicarbazide picrate'
_symmetry_cell_setting           triclinic
_symmetry_space_group_name_H-M   'P -1'
_symmetry_Int_Tables_number      2
_space_group_name_Hall           '-P 1'
loop_
_symmetry_equiv_pos_site_id
_symmetry_equiv_pos_as_xyz
1 x,y,z
2 -x,-y,-z
_cell_length_a                   5.024(1)
_cell_length_b                   10.209(1)
_cell_length_c                   11.551(1)
_cell_angle_alpha                79.00(1)
_cell_angle_beta                 81.11(1)
_cell_angle_gamma                82.47(1)
_cell_volume                     571.421
_cell_formula_units_Z            2
loop_
_atom_site_label
_atom_site_type_symbol
_atom_site_fract_x
_atom_site_fract_y
_atom_site_fract_z
O1 O 0.2270(2) 0.9876(1) 0.3468(1)
O2 O -0.2454(2) 1.1502(1) 0.3660(1)
O3 O -0.1625(3) 1.3579(1) 0.3207(1)
O4 O 0.3228(3) 1.4615(1) -0.0845(1)
O5 O 0.7185(3) 1.3518(1) -0.1110(1)
O6 O 0.9250(2) 0.9313(1) 0.1405(1)
O7 O 0.5807(2) 0.8233(1) 0.2159(1)
N1 N -0.1090(3) 1.2393(1) 0.3106(1)
N2 N 0.4899(3) 1.3676(1) -0.0545(1)
N3 N 0.6828(2) 0.9277(1) 0.1751(1)
C1 C 0.2790(3) 1.0718(1) 0.2549(1)
C2 C 0.1288(3) 1.2033(2) 0.2287(1)
C3 C 0.1945(3) 1.2987(2) 0.1306(1)
C4 C 0.4202(3) 1.2707(2) 0.0508(1)
C5 C 0.5829(3) 1.1497(2) 0.0684(1)
C6 C 0.5091(3) 1.0542(1) 0.1645(1)
H7 H 0.0888 1.3808 0.1181
H8 H 0.7390 1.1338 0.0160
O8 O 0.2135(2) 1.3885(1) 0.5490(1)
N4 N 0.2288(3) 1.1674(1) 0.5389(1)
N5 N -0.1635(3) 1.2813(1) 0.6065(1)
N6 N -0.3047(2) 1.4008(1) 0.6386(1)
C7 C 0.1035(3) 1.2827(1) 0.5644(1)
H1 H 0.3973 1.1621 0.5098
H2 H 0.1418 1.0978 0.5515
H3 H -0.2439 1.2103 0.6135
H4 H -0.2928 1.4021 0.7144
H5 H -0.4780 1.4046 0.6288
H6 H -0.2322 1.4711 0.5927
loop_
_geom_bond_atom_site_label_1
_geom_bond_atom_site_label_2
_geom_bond_site_symmetry_1
_geom_bond_site_symmetry_2
O1 C1 1_555 1_555
O2 N1 1_555 1_555
O3 N1 1_555 1_555
O4 N2 1_555 1_555
O5 N2 1_555 1_555
O6 N3 1_555 1_555
O7 N3 1_555 1_555
O8 C7 1_555 1_555
N1 C2 1_555 1_555
N2 C4 1_555 1_555
N3 C6 1_555 1_555
N4 C7 1_555 1_555
N5 N6 1_555 1_555
N6 H4 1_555 1_555
C1 C2 1_555 1_555
C2 C3 1_555 1_555
C3 C4 1_555 1_555
C4 C5 1_555 1_555
C5 C6 1_555 1_555
C6 C1 1_555 1_555
C7 N5 1_555 1_555
H1 N4 1_555 1_555
H2 N4 1_555 1_555
H3 N5 1_555 1_555
H5 N6 1_555 1_555
H6 N6 1_555 1_555
H7 C3 1_555 1_555
H8 C5 1_555 1_555

#END
