
#######################################################################
#
#                 Cambridge Crystallographic Data Centre
#                                CCDC 
#
#######################################################################
#
# If this CIF has been generated from an entry in the Cambridge 
# Structural Database, then it will include bibliographic, chemical, 
# crystal, experimental, refinement or atomic coordinate data resulting 
# from the CCDC's data processing and validation procedures.
#
#######################################################################

data_MOXTIE
_chemical_formula_moiety         'C28 H27 Cl1 N2 O5'
_chemical_name_systematic        
'benzyl 5-acetyl-1-(3-chlorophenyl)-6-methyl-4-(4-nitrophenyl)piperidine-2-carboxylate'
_symmetry_cell_setting           monoclinic
_symmetry_space_group_name_H-M   'P 21'
_symmetry_Int_Tables_number      4
_space_group_name_Hall           'P 2yb'
loop_
_symmetry_equiv_pos_site_id
_symmetry_equiv_pos_as_xyz
1 x,y,z
2 -x,1/2+y,-z
_cell_length_a                   6.7772(4)
_cell_length_b                   15.3124(12)
_cell_length_c                   12.6846(7)
_cell_angle_alpha                90
_cell_angle_beta                 97.829(4)
_cell_angle_gamma                90
_cell_volume                     1304.08
_exptl_crystal_colour            colorless
_exptl_crystal_description       clavate
_cell_formula_units_Z            2
loop_
_atom_site_label
_atom_site_type_symbol
_atom_site_fract_x
_atom_site_fract_y
_atom_site_fract_z
Cl1 Cl 0.8989(2) -0.00342(8) 0.86284(9)
O1 O 1.6573(5) 0.7912(2) 0.6408(3)
O2 O 1.3996(4) 0.85156(19) 0.6917(2)
O3 O 0.8066(3) 0.34344(16) 0.97214(17)
O4 O 0.8180(3) 0.48256(18) 0.56323(17)
O5 O 0.5826(3) 0.36421(18) 0.82889(18)
N1 N 1.4937(6) 0.7873(2) 0.6703(3)
N2 N 0.8713(3) 0.30817(16) 0.70249(18)
C1 C 1.0434(4) 0.3056(2) 0.6413(2)
H1 H 1.1535 0.2754 0.6845
C2 C 1.1117(4) 0.39936(19) 0.6206(2)
H2 H 1.2361 0.3939 0.5898
C3 C 1.1640(4) 0.4479(2) 0.7274(2)
H3 H 1.2737 0.4153 0.7677
C4 C 0.9921(4) 0.44404(19) 0.7925(2)
H4 H 0.8808 0.4775 0.7572
H5 H 1.0327 0.4699 0.8619
C5 C 0.9269(4) 0.34995(19) 0.8063(2)
H6 H 1.0354 0.3172 0.8474
C6 C 1.2439(4) 0.5391(2) 0.7113(2)
C7 C 1.4309(4) 0.5465(2) 0.6769(2)
H7 H 1.5017 0.4966 0.6639
C8 C 1.5103(5) 0.6281(2) 0.6622(2)
H8 H 1.6338 0.6333 0.6385
C9 C 1.4064(5) 0.7007(2) 0.6827(2)
C10 C 1.2218(5) 0.6959(2) 0.7149(2)
H9 H 1.1521 0.7463 0.7275
C11 C 1.1416(4) 0.6145(2) 0.7284(2)
H10 H 1.0157 0.6104 0.7495
C12 C 0.5215(5) 0.2706(2) 1.0352(2)
C13 C 0.3320(6) 0.2780(3) 1.0612(3)
H11 H 0.2817 0.3325 1.0758
C14 C 0.2156(6) 0.2037(5) 1.0655(4)
H12 H 0.0882 0.2086 1.0844
C15 C 0.2859(9) 0.1241(4) 1.0423(4)
H13 H 0.2073 0.0745 1.0446
C16 C 0.4733(9) 0.1179(3) 1.0158(4)
H14 H 0.5234 0.0635 1.0005
C17 C 0.5875(6) 0.1899(3) 1.0113(3)
H15 H 0.7141 0.1842 0.9916
C18 C 0.7827(5) 0.22330(19) 0.7110(2)
C19 C 0.8732(5) 0.1580(2) 0.7757(2)
H16 H 0.9966 0.1678 0.8158
C20 C 0.7807(6) 0.0785(2) 0.7806(3)
C21 C 0.6021(7) 0.0606(3) 0.7199(4)
H17 H 0.5429 0.0060 0.7227
C22 C 0.5123(5) 0.1248(3) 0.6549(3)
H18 H 0.3909 0.1138 0.6134
C23 C 0.6014(5) 0.2059(3) 0.6507(3)
H19 H 0.5385 0.2492 0.6069
C24 C 0.7494(5) 0.3524(2) 0.8660(3)
C25 C 0.6494(6) 0.3503(3) 1.0382(3)
H20 H 0.5663 0.4001 1.0149
H21 H 0.7084 0.3609 1.1111
C26 C 0.9921(6) 0.2557(2) 0.5382(3)
H22 H 0.9721 0.1952 0.5536
H23 H 1.0993 0.2610 0.4963
H24 H 0.8725 0.2792 0.4993
C27 C 0.9692(5) 0.4513(2) 0.5411(2)
C28 C 1.0296(6) 0.4666(3) 0.4337(3)
H25 H 0.9177 0.4884 0.3864
H26 H 1.0743 0.4127 0.4064
H27 H 1.1356 0.5087 0.4393
loop_
_geom_bond_atom_site_label_1
_geom_bond_atom_site_label_2
_geom_bond_site_symmetry_1
_geom_bond_site_symmetry_2
Cl1 C20 1_555 1_555
O1 N1 1_555 1_555
O2 N1 1_555 1_555
O3 C24 1_555 1_555
O4 C27 1_555 1_555
O5 C24 1_555 1_555
N1 C9 1_555 1_555
N2 C1 1_555 1_555
C1 H1 1_555 1_555
C2 C1 1_555 1_555
H2 C2 1_555 1_555
C3 C2 1_555 1_555
H3 C3 1_555 1_555
C4 C3 1_555 1_555
H4 C4 1_555 1_555
H5 C4 1_555 1_555
C5 N2 1_555 1_555
H6 C5 1_555 1_555
C6 C3 1_555 1_555
C7 C6 1_555 1_555
H7 C7 1_555 1_555
C8 C7 1_555 1_555
H8 C8 1_555 1_555
C9 C8 1_555 1_555
C10 C9 1_555 1_555
H9 C10 1_555 1_555
C11 C6 1_555 1_555
H10 C11 1_555 1_555
C12 C13 1_555 1_555
C13 H11 1_555 1_555
C14 C13 1_555 1_555
H12 C14 1_555 1_555
C15 C14 1_555 1_555
H13 C15 1_555 1_555
C16 C15 1_555 1_555
H14 C16 1_555 1_555
C17 C12 1_555 1_555
H15 C17 1_555 1_555
C18 N2 1_555 1_555
C19 C18 1_555 1_555
H16 C19 1_555 1_555
C20 C19 1_555 1_555
C21 C20 1_555 1_555
H17 C21 1_555 1_555
C22 C21 1_555 1_555
H18 C22 1_555 1_555
C23 C18 1_555 1_555
H19 C23 1_555 1_555
C24 C5 1_555 1_555
C25 O3 1_555 1_555
H20 C25 1_555 1_555
H21 C25 1_555 1_555
C26 C1 1_555 1_555
H22 C26 1_555 1_555
H23 C26 1_555 1_555
H24 C26 1_555 1_555
C27 C2 1_555 1_555
C28 C27 1_555 1_555
H25 C28 1_555 1_555
H26 C28 1_555 1_555
H27 C28 1_555 1_555
C4 C5 1_555 1_555
C10 C11 1_555 1_555
C12 C25 1_555 1_555
C16 C17 1_555 1_555
C22 C23 1_555 1_555

#END
