
#######################################################################
#
#                 Cambridge Crystallographic Data Centre
#                                CCDC 
#
#######################################################################
#
# If this CIF has been generated from an entry in the Cambridge 
# Structural Database, then it will include bibliographic, chemical, 
# crystal, experimental, refinement or atomic coordinate data resulting 
# from the CCDC's data processing and validation procedures.
#
#######################################################################

data_MOYVON
_chemical_formula_moiety         'C4 H8 O1,2(C1 H1 Cl3)'
_chemical_name_systematic        'bis(chloroform) tetrahydrofuran'
_symmetry_cell_setting           monoclinic
_symmetry_space_group_name_H-M   'P 21/c'
_symmetry_Int_Tables_number      14
_space_group_name_Hall           '-P 2ybc'
loop_
_symmetry_equiv_pos_site_id
_symmetry_equiv_pos_as_xyz
1 x,y,z
2 -x,1/2+y,1/2-z
3 -x,-y,-z
4 x,1/2-y,1/2+z
_cell_length_a                   10.7809(4)
_cell_length_b                   8.5161(3)
_cell_length_c                   14.1652(6)
_cell_angle_alpha                90
_cell_angle_beta                 90.424(6)
_cell_angle_gamma                90
_cell_volume                     1300.49
_exptl_crystal_colour            'light colorless'
_exptl_crystal_description       block
_cell_formula_units_Z            4
_exptl_crystal_recrystallization_method 'in situ cryocrystallization'
loop_
_atom_site_label
_atom_site_type_symbol
_atom_site_fract_x
_atom_site_fract_y
_atom_site_fract_z
Cl1 Cl 0.87700(8) 1.05166(8) 0.41354(5)
Cl2 Cl 0.94105(7) 0.90410(11) 0.23700(6)
Cl3 Cl 0.74550(8) 1.13591(10) 0.24315(5)
C1 C 0.8196(2) 0.9835(3) 0.30433(17)
H1 H 0.758(2) 0.908(3) 0.3104(17)
Cl4 Cl 0.53308(7) 1.06957(8) 0.61874(5)
Cl5 Cl 0.58460(6) 0.74443(8) 0.66399(5)
Cl6 Cl 0.78475(6) 0.96915(9) 0.65562(5)
C2 C 0.6405(2) 0.9142(3) 0.60797(17)
H2 H 0.648(2) 0.893(3) 0.5457(19)
O1 O 0.71977(15) 0.69912(19) 0.42660(12)
C3 C 0.6380(2) 0.5678(3) 0.41440(18)
H3 H 0.6313 0.5398 0.3482
H4 H 0.5559 0.5930 0.4375
C4 C 0.6935(3) 0.4345(3) 0.4702(2)
H5 H 0.6649 0.4359 0.5350
H6 H 0.6730 0.3340 0.4420
C5 C 0.8300(3) 0.4662(3) 0.4653(2)
H7 H 0.8661 0.4145 0.4111
H8 H 0.8719 0.4299 0.5221
C6 C 0.8394(2) 0.6419(3) 0.4563(2)
H9 H 0.8627 0.6881 0.5164
H10 H 0.9018 0.6695 0.4101
loop_
_geom_bond_atom_site_label_1
_geom_bond_atom_site_label_2
_geom_bond_site_symmetry_1
_geom_bond_site_symmetry_2
Cl1 C1 1_555 1_555
Cl2 C1 1_555 1_555
Cl3 C1 1_555 1_555
C1 H1 1_555 1_555
Cl4 C2 1_555 1_555
Cl5 C2 1_555 1_555
Cl6 C2 1_555 1_555
C2 H2 1_555 1_555
O1 C3 1_555 1_555
C3 H3 1_555 1_555
H4 C3 1_555 1_555
C4 C3 1_555 1_555
H5 C4 1_555 1_555
H6 C4 1_555 1_555
C5 C4 1_555 1_555
H7 C5 1_555 1_555
H8 C5 1_555 1_555
C6 O1 1_555 1_555
H9 C6 1_555 1_555
H10 C6 1_555 1_555
C5 C6 1_555 1_555

#END
