
#######################################################################
#
#                 Cambridge Crystallographic Data Centre
#                                CCDC 
#
#######################################################################
#
# If this CIF has been generated from an entry in the Cambridge 
# Structural Database, then it will include bibliographic, chemical, 
# crystal, experimental, refinement or atomic coordinate data resulting 
# from the CCDC's data processing and validation procedures.
#
#######################################################################

data_MOYZOR
_chemical_formula_moiety         'C7 F5 O2 1-,C4 H6 N3 1+'
_chemical_name_systematic        '2-Aminopyrimidinium pentafluorobenzoate'
_symmetry_cell_setting           triclinic
_symmetry_space_group_name_H-M   'P -1'
_symmetry_Int_Tables_number      2
_space_group_name_Hall           '-P 1'
loop_
_symmetry_equiv_pos_site_id
_symmetry_equiv_pos_as_xyz
1 x,y,z
2 -x,-y,-z
_cell_length_a                   6.2442(3)
_cell_length_b                   7.5997(4)
_cell_length_c                   13.1394(8)
_cell_angle_alpha                74.342(2)
_cell_angle_beta                 78.636(3)
_cell_angle_gamma                78.907(3)
_cell_volume                     582.172
_exptl_crystal_colour            colorless
_exptl_crystal_description       needle
_cell_formula_units_Z            2
loop_
_atom_site_label
_atom_site_type_symbol
_atom_site_fract_x
_atom_site_fract_y
_atom_site_fract_z
C1 C -0.0535(3) 0.4348(3) 0.29606(14)
C2 C 0.0482(3) 0.5510(2) 0.32918(15)
C3 C 0.1972(3) 0.4868(3) 0.39988(16)
C4 C 0.2512(3) 0.3005(3) 0.43874(15)
C5 C 0.1544(3) 0.1800(2) 0.40770(15)
C6 C 0.0012(3) 0.2477(3) 0.33856(15)
C7 C -0.2107(3) 0.5078(3) 0.21369(15)
O1 O -0.1264(2) 0.6045(2) 0.12573(11)
O2 O -0.3985(2) 0.4692(2) 0.23743(12)
F1 F 0.00156(19) 0.73586(15) 0.29222(10)
F2 F 0.2902(2) 0.60556(17) 0.42978(10)
F3 F 0.3979(2) 0.23568(17) 0.50627(10)
F4 F 0.2114(2) -0.00267(15) 0.44279(10)
F5 F -0.08969(19) 0.12500(15) 0.31048(9)
H1 H 0.184(4) 0.630(3) 0.0890(19)
H2 H 0.416(4) 0.575(3) 0.131(2)
H3 H 0.712(4) 0.700(4) 0.035(2)
C8 C 0.4127(3) 0.7554(2) -0.00912(15)
C9 C 0.7228(3) 0.8903(3) -0.10726(15)
H4 H 0.8739 0.9027 -0.1141
C10 C 0.6010(3) 0.9901(3) -0.18456(16)
H5 H 0.6633 1.0726 -0.2466
C11 C 0.3808(3) 0.9652(3) -0.16814(16)
H6 H 0.2935 1.0341 -0.2213
N1 N 0.2838(3) 0.8521(2) -0.08339(13)
N2 N 0.3280(3) 0.6389(2) 0.07703(13)
N3 N 0.6279(3) 0.7737(2) -0.02079(13)
loop_
_geom_bond_atom_site_label_1
_geom_bond_atom_site_label_2
_geom_bond_site_symmetry_1
_geom_bond_site_symmetry_2
C1 C2 1_555 1_555
C2 C3 1_555 1_555
C3 C4 1_555 1_555
C4 C5 1_555 1_555
C5 C6 1_555 1_555
C6 C1 1_555 1_555
C7 C1 1_555 1_555
O1 C7 1_555 1_555
O2 C7 1_555 1_555
F1 C2 1_555 1_555
F2 C3 1_555 1_555
F3 C4 1_555 1_555
F4 C5 1_555 1_555
F5 C6 1_555 1_555
H1 N2 1_555 1_555
H2 N2 1_555 1_555
H3 N3 1_555 1_555
C8 N1 1_555 1_555
C9 H4 1_555 1_555
C10 C9 1_555 1_555
H5 C10 1_555 1_555
C11 C10 1_555 1_555
H6 C11 1_555 1_555
N1 C11 1_555 1_555
N2 C8 1_555 1_555
N3 C8 1_555 1_555
C9 N3 1_555 1_555

#END
