
#######################################################################
#
#                 Cambridge Crystallographic Data Centre
#                                CCDC 
#
#######################################################################
#
# If this CIF has been generated from an entry in the Cambridge 
# Structural Database, then it will include bibliographic, chemical, 
# crystal, experimental, refinement or atomic coordinate data resulting 
# from the CCDC's data processing and validation procedures.
#
#######################################################################

data_MOZBEK
_chemical_formula_moiety         'C7 H5 Br1 O2,2(C4 H5 N3)'
_chemical_name_systematic        '2-Aminopyrimidine 2-bromobenzoic acid'
_symmetry_cell_setting           monoclinic
_symmetry_space_group_name_H-M   'P 21/c'
_symmetry_Int_Tables_number      14
_space_group_name_Hall           '-P 2ybc'
loop_
_symmetry_equiv_pos_site_id
_symmetry_equiv_pos_as_xyz
1 x,y,z
2 -x,1/2+y,1/2-z
3 -x,-y,-z
4 x,1/2-y,1/2+z
_cell_length_a                   10.2035(4)
_cell_length_b                   7.6008(3)
_cell_length_c                   21.9836(8)
_cell_angle_alpha                90
_cell_angle_beta                 94.412(2)
_cell_angle_gamma                90
_cell_volume                     1699.88
_exptl_crystal_colour            colorless
_exptl_crystal_description       block
_chemical_melting_point          '368 K'
_cell_formula_units_Z            4
loop_
_atom_site_label
_atom_site_type_symbol
_atom_site_fract_x
_atom_site_fract_y
_atom_site_fract_z
C1 C 0.5964(2) 0.6309(3) 0.41866(11)
C2 C 0.5996(2) 0.6004(3) 0.35610(11)
C3 C 0.7095(3) 0.5272(3) 0.33268(13)
H1 H 0.7095 0.5057 0.2901
C4 C 0.8183(3) 0.4854(4) 0.37063(14)
H2 H 0.8930 0.4342 0.3544
C5 C 0.8190(3) 0.5177(4) 0.43204(14)
H3 H 0.8949 0.4917 0.4582
C6 C 0.7086(2) 0.5885(3) 0.45585(12)
H4 H 0.7096 0.6086 0.4985
C7 C 0.4800(2) 0.7030(3) 0.44789(10)
O1 O 0.50765(18) 0.7589(3) 0.50323(8)
O2 O 0.36987(17) 0.7055(2) 0.42229(7)
Br1 Br 0.46347(3) 0.66941(4) 0.297059(11)
H5 H 0.426(4) 0.804(5) 0.524(2)
C8 C 0.9199(2) 0.7048(3) 0.21431(10)
C9 C 0.7827(2) 0.8582(3) 0.14728(11)
H6 H 0.7531 0.9664 0.1295
C10 C 0.7229(2) 0.7059(3) 0.12651(11)
H7 H 0.6550 0.7060 0.0944
C11 C 0.7666(2) 0.5526(3) 0.15479(10)
H8 H 0.7252 0.4451 0.1425
N1 N 0.86450(19) 0.5483(2) 0.19862(8)
N2 N 1.0220(2) 0.7038(3) 0.25638(10)
N3 N 0.88045(19) 0.8621(2) 0.19130(9)
H9 H 1.047(2) 0.609(4) 0.2699(11)
H10 H 1.060(3) 0.799(4) 0.2657(12)
H11 H 0.087(3) 0.586(3) -0.0329(12)
H12 H 0.216(3) 0.667(3) -0.0386(13)
C12 C 0.1962(2) 0.5766(3) 0.04001(10)
C13 C 0.1449(2) 0.4609(3) 0.13048(11)
H13 H 0.0841 0.4036 0.1545
C14 C 0.2675(2) 0.5022(3) 0.15758(11)
H14 H 0.2911 0.4772 0.1993
C15 C 0.3532(2) 0.5810(3) 0.12130(11)
H15 H 0.4387 0.6110 0.1383
N4 N 0.32040(18) 0.6172(3) 0.06239(9)
N5 N 0.1613(2) 0.6191(3) -0.01756(10)
N6 N 0.10737(19) 0.4969(3) 0.07267(9)
loop_
_geom_bond_atom_site_label_1
_geom_bond_atom_site_label_2
_geom_bond_site_symmetry_1
_geom_bond_site_symmetry_2
C1 C2 1_555 1_555
C2 C3 1_555 1_555
C3 H1 1_555 1_555
C4 C3 1_555 1_555
H2 C4 1_555 1_555
C5 C4 1_555 1_555
H3 C5 1_555 1_555
C6 C1 1_555 1_555
H4 C6 1_555 1_555
C7 C1 1_555 1_555
O1 C7 1_555 1_555
O2 C7 1_555 1_555
Br1 C2 1_555 1_555
H5 O1 1_555 1_555
C8 N1 1_555 1_555
C9 H6 1_555 1_555
C10 C9 1_555 1_555
H7 C10 1_555 1_555
C11 C10 1_555 1_555
H8 C11 1_555 1_555
N1 C11 1_555 1_555
N2 C8 1_555 1_555
N3 C8 1_555 1_555
H9 N2 1_555 1_555
H10 N2 1_555 1_555
H11 N5 1_555 1_555
H12 N5 1_555 1_555
C12 N4 1_555 1_555
C13 H13 1_555 1_555
C14 C13 1_555 1_555
H14 C14 1_555 1_555
C15 C14 1_555 1_555
H15 C15 1_555 1_555
N4 C15 1_555 1_555
N5 C12 1_555 1_555
N6 C12 1_555 1_555
C5 C6 1_555 1_555
C9 N3 1_555 1_555
C13 N6 1_555 1_555

#END
