
#######################################################################
#
#                 Cambridge Crystallographic Data Centre
#                                CCDC 
#
#######################################################################
#
# If this CIF has been generated from an entry in the Cambridge 
# Structural Database, then it will include bibliographic, chemical, 
# crystal, experimental, refinement or atomic coordinate data resulting 
# from the CCDC's data processing and validation procedures.
#
#######################################################################

data_MOZHOY
_chemical_formula_moiety         'C17 H16 O2,C26 H29 N2 O1 1+,Cl1 1-'
_chemical_name_systematic        
"(S)-(-)-1,1'-Spirobi-indane-7,7'-diol N-benzylcinchonidinium chloride"
_symmetry_cell_setting           monoclinic
_symmetry_space_group_name_H-M   'P 21'
_symmetry_Int_Tables_number      4
_space_group_name_Hall           'P 2yb'
loop_
_symmetry_equiv_pos_site_id
_symmetry_equiv_pos_as_xyz
1 x,y,z
2 -x,1/2+y,-z
_cell_length_a                   13.944(2)
_cell_length_b                   9.083(2)
_cell_length_c                   14.316(3)
_cell_angle_alpha                90
_cell_angle_beta                 97.03(2)
_cell_angle_gamma                90
_cell_volume                     1799.54
_cell_formula_units_Z            2
_exptl_crystal_recrystallization_method 'ethyl acetate/hexane'
loop_
_atom_site_label
_atom_site_type_symbol
_atom_site_fract_x
_atom_site_fract_y
_atom_site_fract_z
O1 O 0.43479(13) 0.4435(2) 0.44792(13)
H1 H 0.4908 0.4430 0.4360
N1 N 0.31603(14) 0.3193(2) 0.58958(14)
N2 N 0.30600(19) 0.2190(3) 0.13478(16)
C1 C 0.4033(2) 0.1362(4) 0.7910(2)
H2 H 0.3769 0.0540 0.7587
C2 C 0.4185(3) 0.1344(6) 0.8876(3)
H3 H 0.4008 0.0524 0.9204
C3 C 0.4599(3) 0.2541(7) 0.9357(2)
H4 H 0.4695 0.2533 1.0011
C4 C 0.4870(2) 0.3738(5) 0.8880(2)
H5 H 0.5165 0.4533 0.9208
C5 C 0.4704(2) 0.3774(4) 0.78980(19)
H6 H 0.4884 0.4592 0.7571
C6 C 0.42675(19) 0.2580(3) 0.74148(18)
C7 C 0.41194(18) 0.2574(3) 0.63478(16)
H7 H 0.4177 0.1569 0.6134
H8 H 0.4636 0.3138 0.6124
C8 C 0.23262(19) 0.2402(3) 0.62605(17)
H9 H 0.2299 0.2672 0.6912
H10 H 0.2426 0.1347 0.6233
C9 C 0.1374(2) 0.2808(4) 0.56731(19)
H11 H 0.0918 0.3064 0.6117
C10 C 0.1545(2) 0.4215(3) 0.5125(2)
H12 H 0.0931 0.4616 0.4827
C11 C 0.2052(2) 0.5325(3) 0.5821(2)
H13 H 0.2052 0.6290 0.5531
H14 H 0.1714 0.5395 0.6373
C12 C 0.3085(2) 0.4814(3) 0.6105(2)
H15 H 0.3521 0.5365 0.5758
H16 H 0.3268 0.4989 0.6771
C13 C 0.22124(18) 0.3872(3) 0.43886(17)
H17 H 0.1854 0.3373 0.3857
H18 H 0.2472 0.4779 0.4164
C14 C 0.30295(17) 0.2899(3) 0.48248(16)
H19 H 0.2800 0.1882 0.4741
C15 C 0.0885(3) 0.1656(5) 0.5017(3)
H20 H 0.0322 0.1964 0.4655
C16 C 0.1124(3) 0.0346(6) 0.4886(3)
H21 H 0.1679 -0.0041 0.5224
H22 H 0.0745 -0.0237 0.4453
C17 C 0.39461(19) 0.3009(3) 0.43280(17)
H23 H 0.4417 0.2275 0.4596
C18 C 0.36700(19) 0.2687(3) 0.32871(17)
C19 C 0.33841(19) 0.1240(3) 0.29637(18)
C20 C 0.3401(2) -0.0004(3) 0.3552(2)
H24 H 0.3623 0.0089 0.4189
C21 C 0.3097(2) -0.1344(4) 0.3201(2)
H25 H 0.3101 -0.2151 0.3601
C22 C 0.2781(2) -0.1504(4) 0.2246(2)
H26 H 0.2576 -0.2422 0.2012
C23 C 0.2768(2) -0.0343(4) 0.1655(2)
H27 H 0.2553 -0.0472 0.1019
C24 C 0.3075(2) 0.1057(4) 0.19850(19)
C25 C 0.3357(2) 0.3475(4) 0.1677(2)
H28 H 0.3368 0.4242 0.1248
C26 C 0.3665(2) 0.3787(4) 0.26394(18)
H29 H 0.3861 0.4732 0.2825
Cl1 Cl 0.63680(5) 0.35758(9) 0.41367(5)
O2 O 0.79477(17) 0.6093(2) 0.03759(14)
H30 H 0.7668 0.6665 -0.0009
O3 O 0.79796(15) 0.3942(3) 0.28977(14)
H31 H 0.7515 0.3736 0.3173
C27 C 0.9254(2) 0.6099(3) 0.15926(16)
C28 C 0.8553(2) 0.6865(3) 0.10220(18)
C29 C 0.8484(2) 0.8374(4) 0.1112(2)
H32 H 0.7994 0.8886 0.0751
C30 C 0.9136(3) 0.9116(4) 0.1733(2)
H33 H 0.9081 1.0132 0.1786
C31 C 0.9872(3) 0.8397(4) 0.2283(2)
H34 H 1.0325 0.8914 0.2686
C32 C 0.9912(2) 0.6873(3) 0.22115(18)
C33 C 1.0625(2) 0.5810(4) 0.2732(2)
H35 H 1.0740 0.6050 0.3397
H36 H 1.1235 0.5819 0.2472
C34 C 1.0122(2) 0.4316(4) 0.2577(2)
H37 H 0.9730 0.4108 0.3077
H38 H 1.0592 0.3533 0.2556
C35 C 0.9481(2) 0.4465(3) 0.16168(18)
C36 C 1.0048(2) 0.3994(4) 0.0791(2)
H39 H 1.0312 0.4853 0.0511
H40 H 1.0578 0.3345 0.1021
C37 C 0.9357(2) 0.3217(4) 0.0082(2)
H41 H 0.9655 0.2352 -0.0156
H42 H 0.9144 0.3863 -0.0443
C38 C 0.8518(2) 0.2787(3) 0.05955(19)
C39 C 0.7737(3) 0.1932(4) 0.0286(2)
H43 H 0.7690 0.1490 -0.0304
C40 C 0.7017(2) 0.1730(4) 0.0858(2)
H44 H 0.6481 0.1155 0.0653
C41 C 0.7097(2) 0.2382(3) 0.1730(2)
H45 H 0.6618 0.2230 0.2119
C42 C 0.7884(2) 0.3263(3) 0.20357(19)
C43 C 0.86035(18) 0.3472(3) 0.14656(17)
loop_
_geom_bond_atom_site_label_1
_geom_bond_atom_site_label_2
_geom_bond_site_symmetry_1
_geom_bond_site_symmetry_2
O1 H1 1_555 1_555
N1 C7 1_555 1_555
N2 C24 1_555 1_555
C1 H2 1_555 1_555
C2 C1 1_555 1_555
H3 C2 1_555 1_555
C3 C2 1_555 1_555
H4 C3 1_555 1_555
C4 C3 1_555 1_555
H5 C4 1_555 1_555
C5 C4 1_555 1_555
H6 C5 1_555 1_555
C6 C1 1_555 1_555
C7 C6 1_555 1_555
H7 C7 1_555 1_555
H8 C7 1_555 1_555
C8 N1 1_555 1_555
H9 C8 1_555 1_555
H10 C8 1_555 1_555
C9 C8 1_555 1_555
H11 C9 1_555 1_555
C10 C9 1_555 1_555
H12 C10 1_555 1_555
C11 C10 1_555 1_555
H13 C11 1_555 1_555
H14 C11 1_555 1_555
C12 N1 1_555 1_555
H15 C12 1_555 1_555
H16 C12 1_555 1_555
C13 C10 1_555 1_555
H17 C13 1_555 1_555
H18 C13 1_555 1_555
C14 N1 1_555 1_555
H19 C14 1_555 1_555
C15 C9 1_555 1_555
H20 C15 1_555 1_555
C16 C15 1_555 1_555
H21 C16 1_555 1_555
H22 C16 1_555 1_555
C17 O1 1_555 1_555
H23 C17 1_555 1_555
C18 C17 1_555 1_555
C19 C18 1_555 1_555
C20 C19 1_555 1_555
H24 C20 1_555 1_555
C21 C20 1_555 1_555
H25 C21 1_555 1_555
C22 C21 1_555 1_555
H26 C22 1_555 1_555
C23 C22 1_555 1_555
H27 C23 1_555 1_555
C24 C19 1_555 1_555
C25 N2 1_555 1_555
H28 C25 1_555 1_555
C26 C18 1_555 1_555
H29 C26 1_555 1_555
O2 H30 1_555 1_555
O3 H31 1_555 1_555
C27 C28 1_555 1_555
C28 O2 1_555 1_555
C29 C28 1_555 1_555
H32 C29 1_555 1_555
C30 C29 1_555 1_555
H33 C30 1_555 1_555
C31 C30 1_555 1_555
H34 C31 1_555 1_555
C32 C27 1_555 1_555
C33 C32 1_555 1_555
H35 C33 1_555 1_555
H36 C33 1_555 1_555
C34 C33 1_555 1_555
H37 C34 1_555 1_555
H38 C34 1_555 1_555
C35 C27 1_555 1_555
C36 C35 1_555 1_555
H39 C36 1_555 1_555
H40 C36 1_555 1_555
C37 C36 1_555 1_555
H41 C37 1_555 1_555
H42 C37 1_555 1_555
C38 C37 1_555 1_555
C39 C38 1_555 1_555
H43 C39 1_555 1_555
C40 C39 1_555 1_555
H44 C40 1_555 1_555
C41 C40 1_555 1_555
H45 C41 1_555 1_555
C42 O3 1_555 1_555
C43 C35 1_555 1_555
C5 C6 1_555 1_555
C11 C12 1_555 1_555
C13 C14 1_555 1_555
C14 C17 1_555 1_555
C23 C24 1_555 1_555
C25 C26 1_555 1_555
C31 C32 1_555 1_555
C34 C35 1_555 1_555
C38 C43 1_555 1_555
C41 C42 1_555 1_555
C42 C43 1_555 1_555

#END
