
#######################################################################
#
#                 Cambridge Crystallographic Data Centre
#                                CCDC 
#
#######################################################################
#
# If this CIF has been generated from an entry in the Cambridge 
# Structural Database, then it will include bibliographic, chemical, 
# crystal, experimental, refinement or atomic coordinate data resulting 
# from the CCDC's data processing and validation procedures.
#
#######################################################################

data_MOZMEU
_chemical_formula_moiety         'C10 H8 Br1 N1'
_chemical_name_systematic        8-Bromo-2-methylquinoline
_symmetry_cell_setting           monoclinic
_symmetry_space_group_name_H-M   'P 21/c'
_symmetry_Int_Tables_number      14
_space_group_name_Hall           '-P 2ybc'
loop_
_symmetry_equiv_pos_site_id
_symmetry_equiv_pos_as_xyz
1 x,y,z
2 -x,1/2+y,1/2-z
3 -x,-y,-z
4 x,1/2-y,1/2+z
_cell_length_a                   5.0440(17)
_cell_length_b                   13.467(4)
_cell_length_c                   13.391(4)
_cell_angle_alpha                90
_cell_angle_beta                 97.678(4)
_cell_angle_gamma                90
_cell_volume                     901.463
_exptl_crystal_colour            colorless
_exptl_crystal_description       block
_chemical_melting_point          '342-343 K'
_cell_formula_units_Z            4
_exptl_crystal_recrystallization_method ethanol
loop_
_atom_site_label
_atom_site_type_symbol
_atom_site_fract_x
_atom_site_fract_y
_atom_site_fract_z
Br1 Br 1.04425(17) 0.41478(5) 0.40291(5)
N1 N 0.6713(11) 0.2556(3) 0.2991(3)
C1 C 0.9974(14) 0.3782(4) 0.2655(4)
C2 C 0.8122(12) 0.3021(4) 0.2325(4)
C3 C 0.7845(13) 0.2775(4) 0.1287(4)
C4 C 0.5039(14) 0.1846(4) 0.2646(5)
C5 C 1.1397(14) 0.4256(4) 0.2022(6)
H1 H 1.2578 0.4757 0.2266
C6 C 0.6014(14) 0.2003(5) 0.0957(5)
H2 H 0.5778 0.1807 0.0285
C7 C 1.1122(15) 0.4004(5) 0.0989(5)
H3 H 1.2156 0.4321 0.0561
C8 C 0.4624(16) 0.1559(5) 0.1622(5)
H4 H 0.3394 0.1064 0.1408
C9 C 0.9318(15) 0.3287(5) 0.0624(5)
H5 H 0.9066 0.3138 -0.0061
C10 C 0.3468(14) 0.1364(5) 0.3370(6)
H6 H 0.3969 0.0677 0.3444
H7 H 0.1596 0.1412 0.3123
H8 H 0.3821 0.1690 0.4011
loop_
_geom_bond_atom_site_label_1
_geom_bond_atom_site_label_2
_geom_bond_site_symmetry_1
_geom_bond_site_symmetry_2
Br1 C1 1_555 1_555
N1 C2 1_555 1_555
C1 C2 1_555 1_555
C2 C3 1_555 1_555
C3 C6 1_555 1_555
C4 N1 1_555 1_555
C5 C1 1_555 1_555
H1 C5 1_555 1_555
C6 H2 1_555 1_555
C7 C5 1_555 1_555
H3 C7 1_555 1_555
C8 C4 1_555 1_555
H4 C8 1_555 1_555
C9 C3 1_555 1_555
H5 C9 1_555 1_555
C10 C4 1_555 1_555
H6 C10 1_555 1_555
H7 C10 1_555 1_555
H8 C10 1_555 1_555
C6 C8 1_555 1_555
C7 C9 1_555 1_555

#END
