
#######################################################################
#
#                 Cambridge Crystallographic Data Centre
#                                CCDC 
#
#######################################################################
#
# If this CIF has been generated from an entry in the Cambridge 
# Structural Database, then it will include bibliographic, chemical, 
# crystal, experimental, refinement or atomic coordinate data resulting 
# from the CCDC's data processing and validation procedures.
#
#######################################################################

data_MOZNOF
_chemical_formula_moiety         'C20 H20 N6 2+,2(Cl1 O4 1-)'
_chemical_name_systematic        
"2,2',4,4'-Tetramethyl-7,7'-diazenediyl-bis(1,8-naphthyridin-1-ium) diperchlorate"
_symmetry_cell_setting           monoclinic
_symmetry_space_group_name_H-M   'P 21/n'
_symmetry_Int_Tables_number      14
_space_group_name_Hall           '-P 2yn'
loop_
_symmetry_equiv_pos_site_id
_symmetry_equiv_pos_as_xyz
1 x,y,z
2 1/2-x,1/2+y,1/2-z
3 -x,-y,-z
4 1/2+x,1/2-y,1/2+z
_cell_length_a                   8.2008(16)
_cell_length_b                   13.042(3)
_cell_length_c                   11.133(2)
_cell_angle_alpha                90
_cell_angle_beta                 102.63(3)
_cell_angle_gamma                90
_cell_volume                     1161.92
_exptl_crystal_colour            yellow
_exptl_crystal_description       prism
_cell_formula_units_Z            2
_exptl_crystal_recrystallization_method 'ethanol/perchloric acid'
loop_
_atom_site_label
_atom_site_type_symbol
_atom_site_fract_x
_atom_site_fract_y
_atom_site_fract_z
N1 N 0.6259(2) 0.83991(12) 0.80976(14)
N2 N 0.5576(2) 0.68663(12) 0.88762(14)
N3 N 0.4967(2) 0.52789(12) 0.95394(14)
C1 C 0.6950(3) 0.99037(16) 0.70209(19)
H1 H 0.7525 0.9466 0.6557
H2 H 0.7573 1.0526 0.7228
H3 H 0.5860 1.0063 0.6537
C2 C 0.6780(3) 0.93708(15) 0.81696(17)
C3 C 0.7132(3) 0.98554(15) 0.93190(18)
H4 H 0.7480 1.0536 0.9372
C4 C 0.6978(2) 0.93524(15) 1.03682(17)
C5 C 0.6409(2) 0.83139(14) 1.02677(16)
C6 C 0.6177(3) 0.77045(15) 1.12667(17)
H5 H 0.6356 0.7978 1.2056
C7 C 0.5685(3) 0.67085(15) 1.10573(16)
H6 H 0.5524 0.6293 1.1701
C8 C 0.5425(2) 0.63213(14) 0.98489(15)
C9 C 0.6065(2) 0.78426(14) 0.91017(16)
C10 C 0.7442(3) 0.98621(16) 1.15997(19)
H7 H 0.8410 0.9532 1.2088
H8 H 0.6529 0.9809 1.2008
H9 H 0.7686 1.0572 1.1493
H10 H 0.607(3) 0.8059(18) 0.7387(15)
N1B N 0.3741(2) 0.16009(12) 1.19024(14)
N2B N 0.4424(2) 0.31337(12) 1.11238(14)
N3B N 0.5033(2) 0.47211(12) 1.04606(14)
C1B C 0.3050(3) 0.00963(16) 1.29791(19)
H1B H 0.2475 0.0534 1.3443
H2B H 0.2427 -0.0526 1.2772
H3B H 0.4140 -0.0063 1.3463
C2B C 0.3220(3) 0.06292(15) 1.18304(17)
C3B C 0.2868(3) 0.01446(15) 1.06810(18)
H4B H 0.2520 -0.0536 1.0628
C4B C 0.3022(2) 0.06476(15) 0.96318(17)
C5B C 0.3591(2) 0.16861(14) 0.97323(16)
C6B C 0.3823(3) 0.22955(15) 0.87333(17)
H5B H 0.3644 0.2022 0.7944
C7B C 0.4315(3) 0.32915(15) 0.89427(16)
H6B H 0.4476 0.3707 0.8299
C8B C 0.4575(2) 0.36787(14) 1.01511(15)
C9B C 0.3935(2) 0.21574(14) 1.08983(16)
C10B C 0.2558(3) 0.01379(16) 0.84003(19)
H7B H 0.1590 0.0468 0.7912
H8B H 0.3471 0.0191 0.7992
H9B H 0.2314 -0.0572 0.8507
H10B H 0.393(3) 0.1941(18) 1.2613(15)
Cl1 Cl 0.07021(6) 0.72566(4) 0.98120(4)
O1 O 0.1777(3) 0.76617(13) 1.09150(15)
O2 O 0.1613(2) 0.65386(14) 0.92339(14)
O3 O -0.0642(2) 0.67208(14) 1.01881(17)
O4 O 0.0056(2) 0.80751(14) 0.89857(15)
loop_
_geom_bond_atom_site_label_1
_geom_bond_atom_site_label_2
_geom_bond_site_symmetry_1
_geom_bond_site_symmetry_2
N1 C2 1_555 1_555
N2 C8 1_555 1_555
N3 C8 1_555 1_555
C1 H1 1_555 1_555
H2 C1 1_555 1_555
H3 C1 1_555 1_555
C2 C1 1_555 1_555
C3 C2 1_555 1_555
H4 C3 1_555 1_555
C4 C3 1_555 1_555
C5 C4 1_555 1_555
C6 C5 1_555 1_555
H5 C6 1_555 1_555
C7 C6 1_555 1_555
H6 C7 1_555 1_555
C8 C7 1_555 1_555
C9 N1 1_555 1_555
C10 C4 1_555 1_555
H7 C10 1_555 1_555
H8 C10 1_555 1_555
H9 C10 1_555 1_555
Cl1 O1 1_555 1_555
O2 Cl1 1_555 1_555
O3 Cl1 1_555 1_555
O4 Cl1 1_555 1_555
H10 N1 1_555 1_555
N1B C2B 1_555 1_555
N2B C8B 1_555 1_555
N3B N3 1_555 1_555
C1B H1B 1_555 1_555
H2B C1B 1_555 1_555
H3B C1B 1_555 1_555
C2B C1B 1_555 1_555
C3B C2B 1_555 1_555
H4B C3B 1_555 1_555
C4B C3B 1_555 1_555
C5B C4B 1_555 1_555
C6B C5B 1_555 1_555
H5B C6B 1_555 1_555
C7B C6B 1_555 1_555
H6B C7B 1_555 1_555
C8B N3B 1_555 1_555
C9B N1B 1_555 1_555
C10B C4B 1_555 1_555
H7B C10B 1_555 1_555
H8B C10B 1_555 1_555
H9B C10B 1_555 1_555
H10B N1B 1_555 1_555
N2 C9 1_555 1_555
C5 C9 1_555 1_555
N2B C9B 1_555 1_555
C5B C9B 1_555 1_555
C7B C8B 1_555 1_555

#END
