
#######################################################################
#
#                 Cambridge Crystallographic Data Centre
#                                CCDC 
#
#######################################################################
#
# If this CIF has been generated from an entry in the Cambridge 
# Structural Database, then it will include bibliographic, chemical, 
# crystal, experimental, refinement or atomic coordinate data resulting 
# from the CCDC's data processing and validation procedures.
#
#######################################################################

data_MOZWUU
_chemical_formula_moiety         'C14 H10 Br1 N3 O4'
_chemical_name_systematic        
(E)-3-Bromo-N'-(4-hydroxy-3-nitrobenzylidene)benzohydrazide
_symmetry_cell_setting           monoclinic
_symmetry_space_group_name_H-M   'P 21/c'
_symmetry_Int_Tables_number      14
_space_group_name_Hall           '-P 2ybc'
loop_
_symmetry_equiv_pos_site_id
_symmetry_equiv_pos_as_xyz
1 x,y,z
2 -x,1/2+y,1/2-z
3 -x,-y,-z
4 x,1/2-y,1/2+z
_cell_length_a                   12.3230(10)
_cell_length_b                   13.6970(10)
_cell_length_c                   8.4300(10)
_cell_angle_alpha                90
_cell_angle_beta                 97.133(2)
_cell_angle_gamma                90
_cell_volume                     1411.87
_exptl_crystal_colour            colorless
_exptl_crystal_description       block
_cell_formula_units_Z            4
_exptl_crystal_recrystallization_method methanol
loop_
_atom_site_label
_atom_site_type_symbol
_atom_site_fract_x
_atom_site_fract_y
_atom_site_fract_z
Br1 Br 1.07300(4) 0.14793(4) 0.14031(6)
N1 N 0.6951(2) 0.3333(2) 0.5669(3)
N2 N 0.7511(2) 0.2683(2) 0.4801(3)
N3 N 0.6518(3) 0.7702(2) 0.5895(4)
O1 O 0.7225(3) 0.7781(2) 0.5036(4)
O2 O 0.6110(4) 0.8411(2) 0.6463(5)
O3 O 0.4820(2) 0.7296(2) 0.7858(4)
H1 H 0.4390 0.7082 0.8440
O4 O 0.7360(3) 0.14917(19) 0.6595(3)
C1 C 0.6432(3) 0.4996(2) 0.5965(4)
C2 C 0.6664(3) 0.5944(2) 0.5594(4)
H2 H 0.7163 0.6068 0.4878
C3 C 0.6159(3) 0.6722(3) 0.6279(4)
C4 C 0.5363(3) 0.6554(3) 0.7283(4)
C5 C 0.5151(3) 0.5582(3) 0.7673(4)
H3 H 0.4645 0.5452 0.8378
C6 C 0.5678(3) 0.4816(3) 0.7031(4)
H4 H 0.5530 0.4177 0.7311
C7 C 0.6986(3) 0.4217(2) 0.5201(4)
H5 H 0.7374 0.4368 0.4354
C8 C 0.7693(3) 0.1783(3) 0.5364(4)
C9 C 0.8344(3) 0.1142(2) 0.4401(4)
C10 C 0.9097(3) 0.1540(3) 0.3480(4)
H6 H 0.9198 0.2212 0.3441
C11 C 0.9692(3) 0.0920(3) 0.2625(4)
C12 C 0.9556(3) -0.0073(3) 0.2673(5)
H7 H 0.9957 -0.0482 0.2084
C13 C 0.8825(3) -0.0454(3) 0.3592(5)
H8 H 0.8734 -0.1127 0.3633
C14 C 0.8215(3) 0.0146(3) 0.4469(4)
H9 H 0.7723 -0.0123 0.5098
H10 H 0.762(4) 0.284(3) 0.380(2)
loop_
_geom_bond_atom_site_label_1
_geom_bond_atom_site_label_2
_geom_bond_site_symmetry_1
_geom_bond_site_symmetry_2
Br1 C11 1_555 1_555
N1 N2 1_555 1_555
N2 C8 1_555 1_555
N3 O1 1_555 1_555
O2 N3 1_555 1_555
O3 H1 1_555 1_555
O4 C8 1_555 1_555
C1 C2 1_555 1_555
C2 H2 1_555 1_555
C3 N3 1_555 1_555
C4 O3 1_555 1_555
C5 C4 1_555 1_555
H3 C5 1_555 1_555
C6 C1 1_555 1_555
H4 C6 1_555 1_555
C7 N1 1_555 1_555
H5 C7 1_555 1_555
C8 C9 1_555 1_555
C9 C10 1_555 1_555
C10 H6 1_555 1_555
C11 C10 1_555 1_555
C12 C11 1_555 1_555
H7 C12 1_555 1_555
C13 C12 1_555 1_555
H8 C13 1_555 1_555
C14 C9 1_555 1_555
H9 C14 1_555 1_555
H10 N2 1_555 1_555
C1 C7 1_555 1_555
C2 C3 1_555 1_555
C3 C4 1_555 1_555
C5 C6 1_555 1_555
C13 C14 1_555 1_555

#END
