
#######################################################################
#
#                 Cambridge Crystallographic Data Centre
#                                CCDC 
#
#######################################################################
#
# If this CIF has been generated from an entry in the Cambridge 
# Structural Database, then it will include bibliographic, chemical, 
# crystal, experimental, refinement or atomic coordinate data resulting 
# from the CCDC's data processing and validation procedures.
#
#######################################################################

data_MSIZDP01
_chemical_formula_moiety         'C18 H54 N4 P2 Si6'
_chemical_name_systematic        
N,N,N',N',1,3-hexakis(trimethylsilyl)-1,3,2,4-diazadiphosphetidine-2,4-diamine
_symmetry_cell_setting           monoclinic
_symmetry_space_group_name_H-M   'P 21/n'
_symmetry_Int_Tables_number      14
_space_group_name_Hall           '-P 2yn'
loop_
_symmetry_equiv_pos_site_id
_symmetry_equiv_pos_as_xyz
1 x,y,z
2 1/2-x,1/2+y,1/2-z
3 -x,-y,-z
4 1/2+x,1/2-y,1/2+z
_cell_length_a                   9.1591(16)
_cell_length_b                   15.697(3)
_cell_length_c                   12.779(2)
_cell_angle_alpha                90
_cell_angle_beta                 109.616(3)
_cell_angle_gamma                90
_cell_volume                     1730.62
_exptl_crystal_colour            colorless
_exptl_crystal_description       block
_cell_formula_units_Z            2
loop_
_atom_site_label
_atom_site_type_symbol
_atom_site_fract_x
_atom_site_fract_y
_atom_site_fract_z
P1 P 0.59659(6) 1.00996(3) 0.10029(4)
N1 N 0.42049(19) 1.05100(10) 0.01597(13)
N2 N 0.5680(2) 0.94529(11) 0.19965(13)
Si1 Si 0.30816(8) 1.13122(4) 0.04383(6)
Si2 Si 0.70379(9) 0.97439(5) 0.33097(5)
Si3 Si 0.43097(8) 0.86318(4) 0.18790(6)
C1 C 0.4346(4) 1.2250(2) 0.1010(3)
H1 H 0.5170 1.2085 0.1696
H2 H 0.3725 1.2708 0.1170
H3 H 0.4809 1.2449 0.0465
C2 C 0.1513(3) 1.1599(2) -0.0864(3)
H4 H 0.1967 1.1799 -0.1413
H5 H 0.0875 1.2052 -0.0713
H6 H 0.0867 1.1097 -0.1155
C3 C 0.2167(4) 1.0957(2) 0.1463(3)
H7 H 0.1508 1.0461 0.1169
H8 H 0.1536 1.1420 0.1598
H9 H 0.2977 1.0803 0.2161
C4 C 0.7220(4) 0.8907(2) 0.4378(3)
H10 H 0.6218 0.8828 0.4485
H11 H 0.7998 0.9082 0.5081
H12 H 0.7541 0.8369 0.4130
C5 C 0.9036(4) 0.9889(3) 0.3270(3)
H13 H 0.9352 0.9375 0.2968
H14 H 0.9753 0.9991 0.4025
H15 H 0.9055 1.0378 0.2798
C6 C 0.6452(6) 1.0745(3) 0.3818(3)
H16 H 0.6395 1.1203 0.3285
H17 H 0.7215 1.0894 0.4539
H18 H 0.5433 1.0669 0.3899
C7 C 0.2733(3) 0.85797(18) 0.0510(2)
H19 H 0.2169 0.9122 0.0365
H20 H 0.2018 0.8118 0.0519
H21 H 0.3180 0.8472 -0.0075
C8 C 0.3313(4) 0.8788(2) 0.2927(3)
H22 H 0.3978 0.8575 0.3651
H23 H 0.2331 0.8475 0.2692
H24 H 0.3110 0.9396 0.2985
C9 C 0.5290(4) 0.75695(18) 0.2100(3)
H25 H 0.5858 0.7501 0.1577
H26 H 0.4510 0.7118 0.1974
H27 H 0.6015 0.7533 0.2862
P1B P 0.40341(6) 0.99004(3) -0.10029(4)
N1B N 0.57951(19) 0.94900(10) -0.01597(13)
N2B N 0.4320(2) 1.05471(11) -0.19965(13)
Si1B Si 0.69184(8) 0.86878(4) -0.04383(6)
Si2B Si 0.29621(9) 1.02561(5) -0.33097(5)
Si3B Si 0.56903(8) 1.13682(4) -0.18790(6)
C1B C 0.5654(4) 0.7750(2) -0.1010(3)
H1B H 0.4830 0.7915 -0.1696
H2B H 0.6275 0.7292 -0.1170
H3B H 0.5191 0.7551 -0.0465
C2B C 0.8487(3) 0.8401(2) 0.0864(3)
H4B H 0.8033 0.8201 0.1413
H5B H 0.9125 0.7948 0.0713
H6B H 0.9133 0.8903 0.1155
C3B C 0.7833(4) 0.9043(2) -0.1463(3)
H7B H 0.8492 0.9539 -0.1169
H8B H 0.8464 0.8580 -0.1598
H9B H 0.7023 0.9197 -0.2161
C4B C 0.2780(4) 1.1093(2) -0.4378(3)
H10B H 0.3782 1.1172 -0.4485
H11B H 0.2002 1.0918 -0.5081
H12B H 0.2459 1.1631 -0.4130
C5B C 0.0964(4) 1.0111(3) -0.3270(3)
H13B H 0.0648 1.0625 -0.2968
H14B H 0.0247 1.0009 -0.4025
H15B H 0.0945 0.9622 -0.2798
C6B C 0.3548(6) 0.9255(3) -0.3818(3)
H16B H 0.3605 0.8797 -0.3285
H17B H 0.2785 0.9106 -0.4539
H18B H 0.4567 0.9331 -0.3899
C7B C 0.7267(3) 1.14203(18) -0.0510(2)
H19B H 0.7831 1.0878 -0.0365
H20B H 0.7982 1.1882 -0.0519
H21B H 0.6820 1.1528 0.0075
C8B C 0.6687(4) 1.1212(2) -0.2927(3)
H22B H 0.6022 1.1425 -0.3651
H23B H 0.7669 1.1525 -0.2692
H24B H 0.6890 1.0604 -0.2985
C9B C 0.4710(4) 1.24305(18) -0.2100(3)
H25B H 0.4142 1.2499 -0.1577
H26B H 0.5490 1.2882 -0.1974
H27B H 0.3985 1.2467 -0.2862
loop_
_geom_bond_atom_site_label_1
_geom_bond_atom_site_label_2
_geom_bond_site_symmetry_1
_geom_bond_site_symmetry_2
P1 N1 1_555 1_555
N1 Si1 1_555 1_555
N2 P1 1_555 1_555
Si1 C1 1_555 1_555
Si2 N2 1_555 1_555
Si3 N2 1_555 1_555
C1 H1 1_555 1_555
H2 C1 1_555 1_555
H3 C1 1_555 1_555
C2 Si1 1_555 1_555
H4 C2 1_555 1_555
H5 C2 1_555 1_555
H6 C2 1_555 1_555
C3 Si1 1_555 1_555
H7 C3 1_555 1_555
H8 C3 1_555 1_555
H9 C3 1_555 1_555
C4 Si2 1_555 1_555
H10 C4 1_555 1_555
H11 C4 1_555 1_555
H12 C4 1_555 1_555
C5 Si2 1_555 1_555
H13 C5 1_555 1_555
H14 C5 1_555 1_555
H15 C5 1_555 1_555
C6 Si2 1_555 1_555
H16 C6 1_555 1_555
H17 C6 1_555 1_555
H18 C6 1_555 1_555
C7 Si3 1_555 1_555
H19 C7 1_555 1_555
H20 C7 1_555 1_555
H21 C7 1_555 1_555
C8 Si3 1_555 1_555
H22 C8 1_555 1_555
H23 C8 1_555 1_555
H24 C8 1_555 1_555
C9 Si3 1_555 1_555
H25 C9 1_555 1_555
H26 C9 1_555 1_555
H27 C9 1_555 1_555
P1B N1 1_555 1_555
N1B P1 1_555 1_555
N2B P1B 1_555 1_555
Si1B N1B 1_555 1_555
Si2B N2B 1_555 1_555
Si3B N2B 1_555 1_555
C1B Si1B 1_555 1_555
H1B C1B 1_555 1_555
H2B C1B 1_555 1_555
H3B C1B 1_555 1_555
C2B Si1B 1_555 1_555
H4B C2B 1_555 1_555
H5B C2B 1_555 1_555
H6B C2B 1_555 1_555
C3B Si1B 1_555 1_555
H7B C3B 1_555 1_555
H8B C3B 1_555 1_555
H9B C3B 1_555 1_555
C4B Si2B 1_555 1_555
H10B C4B 1_555 1_555
H11B C4B 1_555 1_555
H12B C4B 1_555 1_555
C5B Si2B 1_555 1_555
H13B C5B 1_555 1_555
H14B C5B 1_555 1_555
H15B C5B 1_555 1_555
C6B Si2B 1_555 1_555
H16B C6B 1_555 1_555
H17B C6B 1_555 1_555
H18B C6B 1_555 1_555
C7B Si3B 1_555 1_555
H19B C7B 1_555 1_555
H20B C7B 1_555 1_555
H21B C7B 1_555 1_555
C8B Si3B 1_555 1_555
H22B C8B 1_555 1_555
H23B C8B 1_555 1_555
H24B C8B 1_555 1_555
C9B Si3B 1_555 1_555
H25B C9B 1_555 1_555
H26B C9B 1_555 1_555
H27B C9B 1_555 1_555
P1B N1B 1_555 1_555

#END
