
#######################################################################
#
#                 Cambridge Crystallographic Data Centre
#                                CCDC 
#
#######################################################################
#
# If this CIF has been generated from an entry in the Cambridge 
# Structural Database, then it will include bibliographic, chemical, 
# crystal, experimental, refinement or atomic coordinate data resulting 
# from the CCDC's data processing and validation procedures.
#
#######################################################################

data_MSULIN01
_chemical_formula_moiety         'C11 H10 O2 S1'
_chemical_name_systematic        2-Dimethylsulfuranylidene-1,3-indanedione
_symmetry_cell_setting           orthorhombic
_symmetry_space_group_name_H-M   'P 21 21 21'
_symmetry_Int_Tables_number      19
_space_group_name_Hall           'P 2ac 2ab'
loop_
_symmetry_equiv_pos_site_id
_symmetry_equiv_pos_as_xyz
1 x,y,z
2 1/2-x,-y,1/2+z
3 1/2+x,1/2-y,-z
4 -x,1/2+y,1/2-z
_cell_length_a                   5.9586(10)
_cell_length_b                   9.0347(16)
_cell_length_c                   18.388(3)
_cell_angle_alpha                90
_cell_angle_beta                 90
_cell_angle_gamma                90
_cell_volume                     989.903
_exptl_crystal_colour            yellow
_exptl_crystal_description       sphere
_cell_formula_units_Z            4
loop_
_atom_site_label
_atom_site_type_symbol
_atom_site_fract_x
_atom_site_fract_y
_atom_site_fract_z
S1 S 0.69019(6) 0.18166(3) 0.759578(17)
O1 O 1.16470(19) 0.30243(12) 0.82297(6)
O2 O 0.6580(2) -0.08918(12) 0.87068(6)
C1 C 1.0668(2) 0.19512(15) 0.85008(7)
C2 C 0.6652(3) 0.37781(17) 0.77115(10)
H1 H 0.577(4) 0.392(2) 0.8174(13)
H2 H 0.577(4) 0.413(2) 0.7299(11)
H3 H 0.800(4) 0.415(2) 0.7723(10)
C3 C 0.8513(4) 0.1759(2) 0.67715(9)
H4 H 0.869(4) 0.072(3) 0.6667(13)
H5 H 1.007(4) 0.218(2) 0.6861(13)
H6 H 0.766(4) 0.225(2) 0.6443(12)
C4 C 0.8650(2) 0.12383(15) 0.82805(7)
C5 C 0.8108(3) 0.00115(14) 0.87462(7)
C6 C 0.9902(3) 0.00169(15) 0.93203(7)
C7 C 1.0144(3) -0.08753(17) 0.99262(8)
H7 H 0.912(3) -0.162(2) 1.0027(10)
C8 C 1.1999(4) -0.0615(2) 1.03757(8)
H8 H 1.218(4) -0.122(2) 1.0814(11)
C9 C 1.3508(3) 0.0494(2) 1.02254(9)
H9 H 1.483(4) 0.059(2) 1.0528(11)
C10 C 1.3239(3) 0.14064(19) 0.96185(9)
H10 H 1.426(3) 0.215(2) 0.9530(10)
C11 C 1.1422(2) 0.11426(15) 0.91745(7)
loop_
_geom_bond_atom_site_label_1
_geom_bond_atom_site_label_2
_geom_bond_site_symmetry_1
_geom_bond_site_symmetry_2
S1 C2 1_555 1_555
O1 C1 1_555 1_555
O2 C5 1_555 1_555
C1 C4 1_555 1_555
C2 H1 1_555 1_555
H2 C2 1_555 1_555
H3 C2 1_555 1_555
C3 S1 1_555 1_555
H4 C3 1_555 1_555
H5 C3 1_555 1_555
H6 C3 1_555 1_555
C4 S1 1_555 1_555
C5 C4 1_555 1_555
C6 C5 1_555 1_555
C7 C6 1_555 1_555
H7 C7 1_555 1_555
C8 C7 1_555 1_555
H8 C8 1_555 1_555
C9 C8 1_555 1_555
H9 C9 1_555 1_555
C10 C9 1_555 1_555
H10 C10 1_555 1_555
C11 C1 1_555 1_555
C6 C11 1_555 1_555
C10 C11 1_555 1_555

#END
