
#######################################################################
#
#                 Cambridge Crystallographic Data Centre
#                                CCDC 
#
#######################################################################
#
# If this CIF has been generated from an entry in the Cambridge 
# Structural Database, then it will include bibliographic, chemical, 
# crystal, experimental, refinement or atomic coordinate data resulting 
# from the CCDC's data processing and validation procedures.
#
#######################################################################

data_MTAPQO
_chemical_formula_moiety         'C22 H22 N2 O4'
_chemical_name_systematic        
4H-5,11,13-Trimethyl-1-p-tolyl-1-aza-3,7-dioxa-dicyclopenta(a,c)quinoline-2,8-dione
_symmetry_cell_setting           orthorhombic
_symmetry_space_group_name_H-M   'P b c a'
_symmetry_Int_Tables_number      61
_space_group_name_Hall           '-P 2ac 2ab'
loop_
_symmetry_equiv_pos_site_id
_symmetry_equiv_pos_as_xyz
1 x,y,z
2 1/2-x,-y,1/2+z
3 1/2+x,1/2-y,-z
4 -x,1/2+y,1/2-z
5 -x,-y,-z
6 1/2+x,y,1/2-z
7 1/2-x,1/2+y,z
8 x,1/2-y,1/2+z
_cell_length_a                   18.356(5)
_cell_length_b                   15.998(4)
_cell_length_c                   12.738(3)
_cell_angle_alpha                90
_cell_angle_beta                 90
_cell_angle_gamma                90
_cell_volume                     3740.63
_cell_formula_units_Z            8
loop_
_atom_site_label
_atom_site_type_symbol
_atom_site_fract_x
_atom_site_fract_y
_atom_site_fract_z
N1 N 0.51490 0.11930 0.04740
C1 C 0.45360 0.07850 0.07410
O1 O 0.39830 0.09940 0.00850
C2 C 0.42780 0.14850 -0.07760
C3 C 0.50100 0.18280 -0.03490
C4 C 0.37090 0.21500 -0.10600
C5 C 0.29380 0.17780 -0.11560
O2 O 0.25220 0.21480 -0.03080
C6 C 0.29510 0.26670 0.02620
N2 N 0.36250 0.26930 -0.01570
C7 C 0.57950 0.11100 0.11100
C8 C 0.57390 0.12300 0.21900
C9 C 0.63210 0.10820 0.28290
C10 C 0.69880 0.08080 0.24350
C11 C 0.70370 0.07050 0.13390
C12 C 0.64520 0.08590 0.06950
O3 O 0.44350 0.02930 0.14550
C13 C 0.56000 0.18010 -0.12080
O4 O 0.27280 0.30400 0.10170
C14 C 0.39360 0.26440 -0.20330
C15 C 0.42490 0.30910 0.02660
C16 C 0.41990 0.38600 0.07500
C17 C 0.48120 0.42620 0.11000
C18 C 0.55030 0.39030 0.09740
C19 C 0.55450 0.31310 0.05050
C20 C 0.49220 0.26990 0.01370
C21 C 0.76000 0.05840 0.31500
C22 C 0.61730 0.43640 0.13160
loop_
_geom_bond_atom_site_label_1
_geom_bond_atom_site_label_2
_geom_bond_site_symmetry_1
_geom_bond_site_symmetry_2
N1 C1 1_555 1_555
C1 O1 1_555 1_555
O1 C2 1_555 1_555
C2 C3 1_555 1_555
C3 N1 1_555 1_555
C4 C2 1_555 1_555
C5 C4 1_555 1_555
O2 C5 1_555 1_555
C6 O2 1_555 1_555
N2 C4 1_555 1_555
C7 N1 1_555 1_555
C8 C7 1_555 1_555
C9 C8 1_555 1_555
C10 C9 1_555 1_555
C11 C10 1_555 1_555
C12 C7 1_555 1_555
O3 C1 1_555 1_555
C13 C3 1_555 1_555
O4 C6 1_555 1_555
C14 C4 1_555 1_555
C15 N2 1_555 1_555
C16 C15 1_555 1_555
C17 C16 1_555 1_555
C18 C17 1_555 1_555
C19 C18 1_555 1_555
C20 C3 1_555 1_555
C21 C10 1_555 1_555
C22 C18 1_555 1_555
C6 N2 1_555 1_555
C11 C12 1_555 1_555
C15 C20 1_555 1_555
C19 C20 1_555 1_555

#END
