
#######################################################################
#
#                 Cambridge Crystallographic Data Centre
#                                CCDC 
#
#######################################################################
#
# If this CIF has been generated from an entry in the Cambridge 
# Structural Database, then it will include bibliographic, chemical, 
# crystal, experimental, refinement or atomic coordinate data resulting 
# from the CCDC's data processing and validation procedures.
#
#######################################################################

data_MUBCUJ
_chemical_formula_moiety         'C38 H32 O4 Si4'
_chemical_name_systematic        
4',8'-dimethyl-4',8'-diphenyldispiro[dibenzo[b,d]silole-5,2'-[1,3,5,7,2,4,6,8]tetroxatetrasilocane-6',5''-dibenzo[b,d]silole]
_symmetry_cell_setting           orthorhombic
_symmetry_space_group_name_H-M   'P b c a'
_symmetry_Int_Tables_number      61
_space_group_name_Hall           '-P 2ac 2ab'
loop_
_symmetry_equiv_pos_site_id
_symmetry_equiv_pos_as_xyz
1 x,y,z
2 1/2-x,-y,1/2+z
3 -x,1/2+y,1/2-z
4 1/2+x,1/2-y,-z
5 -x,-y,-z
6 1/2+x,y,1/2-z
7 x,1/2-y,1/2+z
8 1/2-x,1/2+y,z
_cell_length_a                   8.306(3)
_cell_length_b                   22.618(8)
_cell_length_c                   34.932(12)
_cell_angle_alpha                90
_cell_angle_beta                 90
_cell_angle_gamma                90
_cell_volume                     6562.5
_exptl_crystal_colour            colorless
_exptl_crystal_description       block
_cell_formula_units_Z            8
loop_
_atom_site_label
_atom_site_type_symbol
_atom_site_fract_x
_atom_site_fract_y
_atom_site_fract_z
Si1 Si 0.66363(4) 0.09425(2) 0.14592(2)
Si2 Si 0.30697(4) 0.13781(2) 0.14086(2)
Si3 Si 0.43858(4) 0.26440(2) 0.14971(2)
Si4 Si 0.75072(4) 0.21980(2) 0.11243(2)
O1 O 0.47493(11) 0.10674(4) 0.15474(3)
O2 O 0.34618(12) 0.20717(4) 0.13244(3)
O3 O 0.62239(12) 0.26360(4) 0.13375(3)
O4 O 0.75169(12) 0.15527(4) 0.13334(3)
C1 C 0.69046(16) 0.02936(6) 0.11389(4)
C2 C 0.63173(18) 0.01644(7) 0.07736(4)
H1 H 0.5738 0.0456 0.0635
C3 C 0.6578(2) -0.03904(7) 0.06127(5)
H2 H 0.6179 -0.0477 0.0364
C4 C 0.7421(2) -0.08185(7) 0.08161(5)
H3 H 0.7603 -0.1195 0.0704
C5 C 0.80018(19) -0.07014(7) 0.11814(5)
H4 H 0.8571 -0.0997 0.1319
C6 C 0.77429(16) -0.01459(6) 0.13456(4)
C7 C 0.82489(16) 0.00262(6) 0.17399(4)
C8 C 0.92136(18) -0.03154(7) 0.19810(5)
H5 H 0.9590 -0.0691 0.1899
C9 C 0.96200(18) -0.01020(8) 0.23413(5)
H6 H 1.0296 -0.0331 0.2503
C10 C 0.90536(18) 0.04394(7) 0.24682(4)
H7 H 0.9312 0.0575 0.2718
C11 C 0.81013(16) 0.07853(7) 0.22272(4)
H8 H 0.7721 0.1159 0.2313
C12 C 0.77063(15) 0.05862(6) 0.18628(4)
C13 C 0.23209(16) 0.10733(6) 0.09495(4)
C14 C 0.13389(18) 0.05718(6) 0.09409(4)
H9 H 0.1075 0.0378 0.1174
C15 C 0.07403(19) 0.03506(7) 0.05980(4)
H10 H 0.0079 0.0008 0.0598
C16 C 0.1112(2) 0.06325(7) 0.02557(4)
H11 H 0.0707 0.0482 0.0021
C17 C 0.2075(2) 0.11329(7) 0.02580(4)
H12 H 0.2329 0.1326 0.0024
C18 C 0.26698(18) 0.13535(7) 0.06010(4)
H13 H 0.3322 0.1699 0.0600
C19 C 0.16057(16) 0.12846(7) 0.17983(4)
H14 H 0.1963 0.1509 0.2023
H15 H 0.1523 0.0865 0.1865
H16 H 0.0551 0.1430 0.1715
C20 C 0.41806(16) 0.27270(6) 0.20234(4)
C21 C 0.46808(19) 0.23804(7) 0.23310(4)
H17 H 0.5260 0.2025 0.2285
C22 C 0.4338(2) 0.25510(8) 0.27042(4)
H18 H 0.4677 0.2312 0.2913
C23 C 0.3499(2) 0.30711(8) 0.27727(4)
H19 H 0.3284 0.3189 0.3029
C24 C 0.29717(19) 0.34215(7) 0.24713(4)
H20 H 0.2390 0.3775 0.2520
C25 C 0.33026(16) 0.32496(6) 0.20960(4)
C26 C 0.27944(16) 0.35829(6) 0.17482(4)
C27 C 0.18927(19) 0.41042(7) 0.17517(5)
H21 H 0.1533 0.4267 0.1987
C28 C 0.1526(2) 0.43829(7) 0.14082(5)
H22 H 0.0915 0.4738 0.1411
C29 C 0.20380(19) 0.41498(7) 0.10620(5)
H23 H 0.1784 0.4346 0.0829
C30 C 0.29237(17) 0.36294(7) 0.10563(4)
H24 H 0.3271 0.3469 0.0819
C31 C 0.33060(16) 0.33408(6) 0.13966(4)
C32 C 0.68814(16) 0.20799(6) 0.06180(4)
C33 C 0.74090(18) 0.15726(7) 0.04238(4)
H25 H 0.8087 0.1298 0.0552
C34 C 0.6955(2) 0.14653(7) 0.00471(4)
H26 H 0.7317 0.1118 -0.0080
C35 C 0.5973(2) 0.18652(8) -0.01440(4)
H27 H 0.5655 0.1790 -0.0401
C36 C 0.5455(2) 0.23744(8) 0.00405(4)
H28 H 0.4791 0.2650 -0.0090
C37 C 0.59103(18) 0.24804(7) 0.04179(4)
H29 H 0.5556 0.2831 0.0542
C38 C 0.95116(16) 0.25397(7) 0.11596(4)
H30 H 0.9457 0.2949 0.1069
H31 H 1.0277 0.2317 0.1002
H32 H 0.9869 0.2535 0.1427
loop_
_geom_bond_atom_site_label_1
_geom_bond_atom_site_label_2
_geom_bond_site_symmetry_1
_geom_bond_site_symmetry_2
Si1 O1 1_555 1_555
Si2 O1 1_555 1_555
Si3 O2 1_555 1_555
Si4 O3 1_555 1_555
O2 Si2 1_555 1_555
O3 Si3 1_555 1_555
O4 Si1 1_555 1_555
C1 Si1 1_555 1_555
C2 C1 1_555 1_555
H1 C2 1_555 1_555
C3 C2 1_555 1_555
H2 C3 1_555 1_555
C4 C3 1_555 1_555
H3 C4 1_555 1_555
C5 C4 1_555 1_555
H4 C5 1_555 1_555
C6 C1 1_555 1_555
C7 C6 1_555 1_555
C8 C7 1_555 1_555
H5 C8 1_555 1_555
C9 C8 1_555 1_555
H6 C9 1_555 1_555
C10 C9 1_555 1_555
H7 C10 1_555 1_555
C11 C10 1_555 1_555
H8 C11 1_555 1_555
C12 Si1 1_555 1_555
C13 Si2 1_555 1_555
C14 C13 1_555 1_555
H9 C14 1_555 1_555
C15 C14 1_555 1_555
H10 C15 1_555 1_555
C16 C15 1_555 1_555
H11 C16 1_555 1_555
C17 C16 1_555 1_555
H12 C17 1_555 1_555
C18 C13 1_555 1_555
H13 C18 1_555 1_555
C19 Si2 1_555 1_555
H14 C19 1_555 1_555
H15 C19 1_555 1_555
H16 C19 1_555 1_555
C20 Si3 1_555 1_555
C21 C20 1_555 1_555
H17 C21 1_555 1_555
C22 C21 1_555 1_555
H18 C22 1_555 1_555
C23 C22 1_555 1_555
H19 C23 1_555 1_555
C24 C23 1_555 1_555
H20 C24 1_555 1_555
C25 C20 1_555 1_555
C26 C25 1_555 1_555
C27 C26 1_555 1_555
H21 C27 1_555 1_555
C28 C27 1_555 1_555
H22 C28 1_555 1_555
C29 C28 1_555 1_555
H23 C29 1_555 1_555
C30 C29 1_555 1_555
H24 C30 1_555 1_555
C31 Si3 1_555 1_555
C32 Si4 1_555 1_555
C33 C32 1_555 1_555
H25 C33 1_555 1_555
C34 C33 1_555 1_555
H26 C34 1_555 1_555
C35 C34 1_555 1_555
H27 C35 1_555 1_555
C36 C35 1_555 1_555
H28 C36 1_555 1_555
C37 C32 1_555 1_555
H29 C37 1_555 1_555
C38 Si4 1_555 1_555
H30 C38 1_555 1_555
H31 C38 1_555 1_555
H32 C38 1_555 1_555
Si4 O4 1_555 1_555
C5 C6 1_555 1_555
C7 C12 1_555 1_555
C11 C12 1_555 1_555
C17 C18 1_555 1_555
C24 C25 1_555 1_555
C26 C31 1_555 1_555
C30 C31 1_555 1_555
C36 C37 1_555 1_555

#END
