
#######################################################################
#
#                 Cambridge Crystallographic Data Centre
#                                CCDC 
#
#######################################################################
#
# If this CIF has been generated from an entry in the Cambridge 
# Structural Database, then it will include bibliographic, chemical, 
# crystal, experimental, refinement or atomic coordinate data resulting 
# from the CCDC's data processing and validation procedures.
#
#######################################################################

data_MUBGEW
_chemical_name_common            
N-(4-Bromo-2-((S)-menthyloxy)-5-oxo-2,5-dihydro-3-furyl)-L-valine
_chemical_formula_moiety         'C19 H30 Br1 N1 O5'
_chemical_name_systematic        
N-((2S)-4-Bromo-2-(((1R,2S,5R)-2-isopropyl-5-methylcyclohexyl)oxy)-5-oxo-2,5-dihydro-3-furyl)-L-valine
_symmetry_cell_setting           tetragonal
_symmetry_space_group_name_H-M   'P 43 21 2'
_symmetry_Int_Tables_number      96
_space_group_name_Hall           'P 4nw 2abw'
loop_
_symmetry_equiv_pos_site_id
_symmetry_equiv_pos_as_xyz
1 x,y,z
2 -x,-y,1/2+z
3 1/2-y,1/2+x,3/4+z
4 1/2+y,1/2-x,1/4+z
5 1/2-x,1/2+y,3/4-z
6 1/2+x,1/2-y,1/4-z
7 y,x,-z
8 -y,-x,1/2-z
_cell_length_a                   10.5409(9)
_cell_length_b                   10.5409(9)
_cell_length_c                   39.388(7)
_cell_angle_alpha                90
_cell_angle_beta                 90
_cell_angle_gamma                90
_cell_volume                     4376.42
_exptl_crystal_colour            colorless
_exptl_crystal_description       block
_cell_formula_units_Z            8
_exptl_crystal_recrystallization_method acetone
loop_
_atom_site_label
_atom_site_type_symbol
_atom_site_fract_x
_atom_site_fract_y
_atom_site_fract_z
Br1 Br 0.60721(4) 1.06205(6) 0.066070(11)
C1 C 0.3102(4) 1.0150(4) -0.02299(8)
C2 C 0.3657(3) 0.9857(3) 0.01146(8)
H1 H 0.4503 1.0240 0.0126
C3 C 0.3802(4) 0.8413(4) 0.01711(9)
H2 H 0.3900 0.8288 0.0416
C4 C 0.4988(5) 0.7874(5) 0.00061(13)
H3 H 0.5138 0.7032 0.0090
H4 H 0.5702 0.8404 0.0060
H5 H 0.4875 0.7845 -0.0236
C5 C 0.3284(3) 1.0733(3) 0.06891(8)
C6 C 0.4445(3) 1.0829(3) 0.08348(8)
C7 C 0.4303(4) 1.1255(3) 0.11806(8)
C8 C 0.2303(3) 1.1000(4) 0.09637(7)
H6 H 0.1722 1.1677 0.0894
C9 C 0.0390(3) 1.0016(3) 0.11682(8)
H7 H -0.0103 1.0597 0.1026
C10 C -0.0201(4) 0.8704(3) 0.11490(10)
H8 H 0.0288 0.8163 0.1303
C11 C -0.0114(5) 0.8091(4) 0.07965(11)
H9 H 0.0778 0.8134 0.0728
C12 C -0.1550(4) 0.8779(5) 0.12957(12)
H10 H -0.2064 0.9322 0.1152
H11 H -0.1925 0.7939 0.1294
C13 C -0.1566(4) 0.9290(5) 0.16525(11)
H12 H -0.1137 0.8694 0.1801
H13 H -0.2438 0.9361 0.1728
C14 C -0.0928(4) 1.0580(4) 0.16822(9)
H14 H -0.1425 1.1186 0.1548
C15 C 0.0400(3) 1.0516(4) 0.15277(9)
H15 H 0.0772 1.1358 0.1529
H16 H 0.0929 0.9972 0.1667
C16 C -0.0907(5) 1.1053(5) 0.20473(10)
H17 H -0.1760 1.1192 0.2124
H18 H -0.0441 1.1835 0.2059
H19 H -0.0506 1.0431 0.2189
C17 C 0.2621(5) 0.7689(5) 0.00673(12)
H20 H 0.2539 0.7706 -0.0175
H21 H 0.1889 0.8078 0.0169
H22 H 0.2687 0.6826 0.0143
C18 C -0.0868(5) 0.8769(5) 0.05239(12)
H23 H -0.0734 0.8358 0.0309
H24 H -0.0595 0.9636 0.0510
H25 H -0.1754 0.8743 0.0580
C19 C -0.0465(6) 0.6681(5) 0.08090(16)
H26 H -0.1369 0.6595 0.0827
H27 H -0.0070 0.6294 0.1003
H28 H -0.0175 0.6271 0.0606
N1 N 0.2878(3) 1.0434(3) 0.03785(6)
H29 H 0.2098 1.0594 0.0330
O1 O 0.3055(3) 1.1382(2) 0.12568(5)
O2 O 0.5122(3) 1.1529(3) 0.13854(6)
O3 O 0.1660(2) 0.9901(2) 0.10285(6)
O4 O 0.3943(3) 0.9922(4) -0.04650(6)
H30 H 0.3630 1.0057 -0.0652
O5 O 0.2048(3) 1.0509(3) -0.02793(6)
loop_
_geom_bond_atom_site_label_1
_geom_bond_atom_site_label_2
_geom_bond_site_symmetry_1
_geom_bond_site_symmetry_2
Br1 C6 1_555 1_555
C1 C2 1_555 1_555
C2 H1 1_555 1_555
C3 C2 1_555 1_555
H2 C3 1_555 1_555
C4 C3 1_555 1_555
H3 C4 1_555 1_555
H4 C4 1_555 1_555
H5 C4 1_555 1_555
C5 C6 1_555 1_555
C6 C7 1_555 1_555
C7 O1 1_555 1_555
C8 C5 1_555 1_555
H6 C8 1_555 1_555
C9 H7 1_555 1_555
C10 C9 1_555 1_555
H8 C10 1_555 1_555
C11 C10 1_555 1_555
H9 C11 1_555 1_555
C12 C10 1_555 1_555
H10 C12 1_555 1_555
H11 C12 1_555 1_555
C13 C12 1_555 1_555
H12 C13 1_555 1_555
H13 C13 1_555 1_555
C14 C13 1_555 1_555
H14 C14 1_555 1_555
C15 C9 1_555 1_555
H15 C15 1_555 1_555
H16 C15 1_555 1_555
C16 C14 1_555 1_555
H17 C16 1_555 1_555
H18 C16 1_555 1_555
H19 C16 1_555 1_555
C17 C3 1_555 1_555
H20 C17 1_555 1_555
H21 C17 1_555 1_555
H22 C17 1_555 1_555
C18 C11 1_555 1_555
H23 C18 1_555 1_555
H24 C18 1_555 1_555
H25 C18 1_555 1_555
C19 C11 1_555 1_555
H26 C19 1_555 1_555
H27 C19 1_555 1_555
H28 C19 1_555 1_555
N1 C2 1_555 1_555
H29 N1 1_555 1_555
O1 C8 1_555 1_555
O2 C7 1_555 1_555
O3 C8 1_555 1_555
O4 C1 1_555 1_555
H30 O4 1_555 1_555
O5 C1 1_555 1_555
C5 N1 1_555 1_555
C9 O3 1_555 1_555
C14 C15 1_555 1_555

#END
