
#######################################################################
#
#                 Cambridge Crystallographic Data Centre
#                                CCDC 
#
#######################################################################
#
# If this CIF has been generated from an entry in the Cambridge 
# Structural Database, then it will include bibliographic, chemical, 
# crystal, experimental, refinement or atomic coordinate data resulting 
# from the CCDC's data processing and validation procedures.
#
#######################################################################

data_MUBKOK
_chemical_formula_moiety         'C17 H11 F2 N3 O1'
_chemical_name_systematic        
(Z)-1-(2,4-Difluorophenyl)-3-phenyl-2-(1H-1,2,4-triazol-1-yl)prop-2-en-1-one
_symmetry_cell_setting           monoclinic
_symmetry_space_group_name_H-M   'P 21/n'
_symmetry_Int_Tables_number      14
_space_group_name_Hall           '-P 2yn'
loop_
_symmetry_equiv_pos_site_id
_symmetry_equiv_pos_as_xyz
1 x,y,z
2 1/2-x,1/2+y,1/2-z
3 -x,-y,-z
4 1/2+x,1/2-y,1/2+z
_cell_length_a                   11.7595(16)
_cell_length_b                   7.5800(10)
_cell_length_c                   17.068(2)
_cell_angle_alpha                90
_cell_angle_beta                 108.067(2)
_cell_angle_gamma                90
_cell_volume                     1446.38
_exptl_crystal_colour            colorless
_exptl_crystal_description       block
_cell_formula_units_Z            4
_exptl_crystal_recrystallization_method 'ethyl acetate/petroleum ether'
loop_
_atom_site_label
_atom_site_type_symbol
_atom_site_fract_x
_atom_site_fract_y
_atom_site_fract_z
C1 C 0.37404(14) 0.4189(2) 0.17104(10)
C2 C 0.32338(16) 0.3486(2) 0.22725(10)
C3 C 0.20317(17) 0.3192(3) 0.20996(12)
H1 H 0.1718 0.2696 0.2486
C4 C 0.13143(16) 0.3665(3) 0.13310(13)
C5 C 0.17475(16) 0.4363(3) 0.07450(12)
H2 H 0.1236 0.4666 0.0228
C6 C 0.29653(15) 0.4609(2) 0.09396(11)
H3 H 0.3275 0.5068 0.0543
C7 C 0.50387(15) 0.4647(2) 0.19524(10)
C8 C 0.57636(13) 0.4110(2) 0.14180(9)
C9 C 0.54142(14) 0.2954(2) 0.07984(10)
H4 H 0.4616 0.2613 0.0658
C10 C 0.60984(14) 0.2144(2) 0.03078(10)
C11 C 0.54836(15) 0.1629(2) -0.04971(10)
H5 H 0.4664 0.1823 -0.0707
C12 C 0.60760(17) 0.0835(2) -0.09852(11)
H6 H 0.5661 0.0534 -0.1527
C13 C 0.72778(18) 0.0488(3) -0.06717(12)
H7 H 0.7677 -0.0051 -0.1000
C14 C 0.78932(17) 0.0939(3) 0.01321(13)
H8 H 0.8703 0.0677 0.0347
C15 C 0.73151(15) 0.1777(2) 0.06192(11)
H9 H 0.7740 0.2096 0.1156
C16 C 0.78369(16) 0.4806(3) 0.23361(11)
H10 H 0.7819 0.4182 0.2801
C17 C 0.83462(16) 0.6374(3) 0.15148(11)
H11 H 0.8810 0.7101 0.1297
F1 F 0.39533(10) 0.30437(19) 0.30320(7)
F2 F 0.01212(10) 0.3410(2) 0.11449(8)
N1 N 0.69278(12) 0.48896(18) 0.16383(8)
N2 N 0.72498(12) 0.5930(2) 0.10902(9)
N3 N 0.87605(13) 0.5715(2) 0.22846(10)
O1 O 0.55016(12) 0.5454(2) 0.25844(8)
loop_
_geom_bond_atom_site_label_1
_geom_bond_atom_site_label_2
_geom_bond_site_symmetry_1
_geom_bond_site_symmetry_2
C1 C2 1_555 1_555
C2 C3 1_555 1_555
C3 H1 1_555 1_555
C4 C3 1_555 1_555
C5 C4 1_555 1_555
H2 C5 1_555 1_555
C6 C1 1_555 1_555
H3 C6 1_555 1_555
C7 C1 1_555 1_555
C8 C7 1_555 1_555
C9 C8 1_555 1_555
H4 C9 1_555 1_555
C10 C9 1_555 1_555
C11 C10 1_555 1_555
H5 C11 1_555 1_555
C12 C11 1_555 1_555
H6 C12 1_555 1_555
C13 C12 1_555 1_555
H7 C13 1_555 1_555
C14 C13 1_555 1_555
H8 C14 1_555 1_555
C15 C10 1_555 1_555
H9 C15 1_555 1_555
C16 H10 1_555 1_555
C17 H11 1_555 1_555
F1 C2 1_555 1_555
F2 C4 1_555 1_555
N1 C8 1_555 1_555
N2 C17 1_555 1_555
N3 C16 1_555 1_555
O1 C7 1_555 1_555
C5 C6 1_555 1_555
C14 C15 1_555 1_555
C16 N1 1_555 1_555
C17 N3 1_555 1_555
N1 N2 1_555 1_555

#END
