
#######################################################################
#
#                 Cambridge Crystallographic Data Centre
#                                CCDC 
#
#######################################################################
#
# If this CIF has been generated from an entry in the Cambridge 
# Structural Database, then it will include bibliographic, chemical, 
# crystal, experimental, refinement or atomic coordinate data resulting 
# from the CCDC's data processing and validation procedures.
#
#######################################################################

data_MUBLAW
_chemical_formula_moiety         'C13 H15 N1 O1'
_chemical_name_systematic        
(+-)-(1R,3R)-3-Hydroxy-2-phenylcyclohexanecarbonitrile
_symmetry_cell_setting           orthorhombic
_symmetry_space_group_name_H-M   'P 21 21 21'
_symmetry_Int_Tables_number      19
_space_group_name_Hall           'P 2ac 2ab'
loop_
_symmetry_equiv_pos_site_id
_symmetry_equiv_pos_as_xyz
1 x,y,z
2 1/2-x,-y,1/2+z
3 1/2+x,1/2-y,-z
4 -x,1/2+y,1/2-z
_cell_length_a                   11.242(4)
_cell_length_b                   17.323(4)
_cell_length_c                   5.735(4)
_cell_angle_alpha                90
_cell_angle_beta                 90
_cell_angle_gamma                90
_cell_volume                     1116.86
_exptl_crystal_colour            colorless
_exptl_crystal_description       plate
_chemical_melting_point          115-116deg.C
_cell_formula_units_Z            4
loop_
_atom_site_label
_atom_site_type_symbol
_atom_site_fract_x
_atom_site_fract_y
_atom_site_fract_z
O1 O 0.3299(7) 0.1272(5) 0.348(1)
N1 N 0.6697(8) 0.2589(8) 0.877(2)
C1 C 0.3034(9) 0.1467(7) 0.593(2)
C2 C 0.3937(8) 0.2032(6) 0.686(2)
C3 C 0.5176(8) 0.1611(6) 0.701(2)
C4 C 0.514(1) 0.0901(7) 0.838(2)
C5 C 0.423(1) 0.0320(7) 0.743(2)
C6 C 0.3001(9) 0.0693(6) 0.729(2)
C7 C 0.3933(8) 0.2767(7) 0.555(2)
C8 C 0.4603(9) 0.2897(8) 0.353(2)
C9 C 0.4578(9) 0.3594(7) 0.235(2)
C10 C 0.387(1) 0.4174(8) 0.303(3)
C11 C 0.319(1) 0.4070(7) 0.513(3)
C12 C 0.3225(9) 0.3374(7) 0.628(2)
C13 C 0.6051(9) 0.2164(8) 0.795(2)
H1 H 0.2271 0.1703 0.6002
H2 H 0.3710 0.2150 0.8405
H3 H 0.5413 0.1484 0.5465
H4 H 0.5911 0.0666 0.8337
H5 H 0.4941 0.1018 0.9937
H6 H 0.4475 0.0157 0.5909
H7 H 0.4204 -0.0118 0.8429
H8 H 0.2725 0.0793 0.8827
H9 H 0.2471 0.0353 0.6523
H10 H 0.5091 0.2493 0.2948
H11 H 0.5077 0.3666 0.1027
H12 H 0.3830 0.4641 0.2169
H13 H 0.2712 0.4480 0.5694
H14 H 0.2752 0.3313 0.7642
loop_
_geom_bond_atom_site_label_1
_geom_bond_atom_site_label_2
_geom_bond_site_symmetry_1
_geom_bond_site_symmetry_2
O1 C1 1_555 1_555
N1 C13 1_555 1_555
C1 C2 1_555 1_555
C2 C3 1_555 1_555
C3 C4 1_555 1_555
C4 C5 1_555 1_555
C5 C6 1_555 1_555
C6 C1 1_555 1_555
C7 C2 1_555 1_555
C8 C7 1_555 1_555
C9 C8 1_555 1_555
C10 C9 1_555 1_555
C11 C10 1_555 1_555
C12 C7 1_555 1_555
C13 C3 1_555 1_555
H1 C1 1_555 1_555
H2 C2 1_555 1_555
H3 C3 1_555 1_555
H4 C4 1_555 1_555
H5 C4 1_555 1_555
H6 C5 1_555 1_555
H7 C5 1_555 1_555
H8 C6 1_555 1_555
H9 C6 1_555 1_555
H10 C8 1_555 1_555
H11 C9 1_555 1_555
H12 C10 1_555 1_555
H13 C11 1_555 1_555
H14 C12 1_555 1_555
C11 C12 1_555 1_555

#END
