
#######################################################################
#
#                 Cambridge Crystallographic Data Centre
#                                CCDC 
#
#######################################################################
#
# If this CIF has been generated from an entry in the Cambridge 
# Structural Database, then it will include bibliographic, chemical, 
# crystal, experimental, refinement or atomic coordinate data resulting 
# from the CCDC's data processing and validation procedures.
#
#######################################################################

data_MUBNUT
_chemical_formula_moiety         'C25 H19 N3 O2'
_chemical_name_systematic        
4-((Z)-2-Furyl(1-naphthylamino)methylene)-5-methyl-2-phenyl-2,4-dihydro-3H-pyrazol-3-one
_symmetry_cell_setting           monoclinic
_symmetry_space_group_name_H-M   'P 21/n'
_symmetry_Int_Tables_number      14
_space_group_name_Hall           '-P 2yn'
loop_
_symmetry_equiv_pos_site_id
_symmetry_equiv_pos_as_xyz
1 x,y,z
2 1/2-x,1/2+y,1/2-z
3 -x,-y,-z
4 1/2+x,1/2-y,1/2+z
_cell_length_a                   9.8484(10)
_cell_length_b                   17.5071(18)
_cell_length_c                   12.1549(13)
_cell_angle_alpha                90
_cell_angle_beta                 108.836(2)
_cell_angle_gamma                90
_cell_volume                     1983.48
_exptl_crystal_colour            yellow
_exptl_crystal_description       block
_cell_formula_units_Z            4
_exptl_crystal_recrystallization_method ethanol
loop_
_atom_site_label
_atom_site_type_symbol
_atom_site_fract_x
_atom_site_fract_y
_atom_site_fract_z
O1 O 0.31096(12) 0.99855(6) 0.59990(9)
N1 N 0.45802(13) 0.85606(7) 0.46997(10)
N2 N 0.34379(12) 0.90162(7) 0.47756(10)
N3 N 0.55828(15) 1.02258(7) 0.77544(11)
O2 O 0.75042(12) 0.85524(6) 0.83717(10)
C1 C 0.20702(15) 0.89273(8) 0.39232(12)
C2 C 0.61359(16) 0.96190(8) 0.73800(12)
C3 C 0.38634(16) 0.94942(8) 0.57273(12)
C4 C 0.59012(16) 1.05724(9) 0.88701(13)
C5 C 0.56923(16) 0.87256(8) 0.56016(12)
C6 C 0.53422(15) 0.92941(8) 0.63218(12)
C7 C 0.75221(16) 0.93050(8) 0.80752(12)
C8 C 0.19138(17) 0.84437(9) 0.29868(13)
H1 H 0.2712 0.8203 0.2895
C9 C 0.53169(17) 1.13195(9) 0.88745(13)
C10 C 0.65935(18) 1.02042(10) 0.98919(14)
H2 H 0.6968 0.9718 0.9881
C11 C 0.08712(17) 0.92954(9) 0.40357(14)
H3 H 0.0965 0.9628 0.4653
C12 C -0.06237(18) 0.86776(10) 0.23023(15)
H4 H -0.1525 0.8592 0.1763
C13 C 0.71017(17) 0.83648(10) 0.57112(15)
H5 H 0.7012 0.8060 0.5035
H6 H 0.7393 0.8047 0.6391
H7 H 0.7808 0.8756 0.5778
C14 C 0.67368(19) 1.05648(12) 1.09619(14)
H8 H 0.7246 1.0322 1.1653
C15 C 0.46253(18) 1.17379(10) 0.78515(15)
H9 H 0.4562 1.1530 0.7133
C16 C 0.05709(18) 0.83200(10) 0.21910(14)
H10 H 0.0471 0.7990 0.1570
C17 C -0.04613(18) 0.91643(10) 0.32260(15)
H11 H -0.1262 0.9409 0.3306
C18 C 0.6143(2) 1.12593(12) 1.09975(15)
H12 H 0.6215 1.1477 1.1712
C19 C 0.88543(18) 0.95840(10) 0.85144(14)
H13 H 0.9150 1.0081 0.8444
C20 C 0.4782(2) 1.23835(12) 0.99697(19)
H14 H 0.4819 1.2605 1.0675
C21 C 0.54195(19) 1.16567(10) 0.99658(15)
C22 C 0.8882(2) 0.83722(11) 0.90023(15)
H15 H 0.9184 0.7893 0.9315
C23 C 0.97269(19) 0.89690(11) 0.91091(16)
H16 H 1.0709 0.8985 0.9500
C24 C 0.4050(2) 1.24393(11) 0.78978(18)
H17 H 0.3609 1.2706 0.7214
C25 C 0.4119(3) 1.27615(12) 0.8966(2)
H18 H 0.3708 1.3237 0.8988
H19 H 0.4738(19) 1.0356(10) 0.7248(15)
loop_
_geom_bond_atom_site_label_1
_geom_bond_atom_site_label_2
_geom_bond_site_symmetry_1
_geom_bond_site_symmetry_2
O1 C3 1_555 1_555
N1 N2 1_555 1_555
N2 C1 1_555 1_555
N3 C2 1_555 1_555
O2 C7 1_555 1_555
C1 C8 1_555 1_555
C2 C6 1_555 1_555
C3 N2 1_555 1_555
C4 N3 1_555 1_555
C5 N1 1_555 1_555
C6 C3 1_555 1_555
C7 C2 1_555 1_555
C8 H1 1_555 1_555
C9 C4 1_555 1_555
C10 C4 1_555 1_555
H2 C10 1_555 1_555
C11 C1 1_555 1_555
H3 C11 1_555 1_555
C12 H4 1_555 1_555
C13 C5 1_555 1_555
H5 C13 1_555 1_555
H6 C13 1_555 1_555
H7 C13 1_555 1_555
C14 C10 1_555 1_555
H8 C14 1_555 1_555
C15 C9 1_555 1_555
H9 C15 1_555 1_555
C16 C8 1_555 1_555
H10 C16 1_555 1_555
C17 C11 1_555 1_555
H11 C17 1_555 1_555
C18 C14 1_555 1_555
H12 C18 1_555 1_555
C19 C7 1_555 1_555
H13 C19 1_555 1_555
C20 H14 1_555 1_555
C21 C9 1_555 1_555
C22 O2 1_555 1_555
H15 C22 1_555 1_555
C23 C19 1_555 1_555
H16 C23 1_555 1_555
C24 C15 1_555 1_555
H17 C24 1_555 1_555
C25 C20 1_555 1_555
H18 C25 1_555 1_555
H19 N3 1_555 1_555
C5 C6 1_555 1_555
C12 C16 1_555 1_555
C12 C17 1_555 1_555
C18 C21 1_555 1_555
C20 C21 1_555 1_555
C22 C23 1_555 1_555
C24 C25 1_555 1_555

#END
