
#######################################################################
#
#                 Cambridge Crystallographic Data Centre
#                                CCDC 
#
#######################################################################
#
# If this CIF has been generated from an entry in the Cambridge 
# Structural Database, then it will include bibliographic, chemical, 
# crystal, experimental, refinement or atomic coordinate data resulting 
# from the CCDC's data processing and validation procedures.
#
#######################################################################

data_MUBNAZ
_chemical_formula_moiety         'C14 H17 N4 O8 1+,I3 1-'
_chemical_name_systematic        
'hydrogen bis(3-(carboxymethyl)imidazolylacetate) triiodide'
_symmetry_cell_setting           monoclinic
_symmetry_space_group_name_H-M   'C 2/c'
_symmetry_Int_Tables_number      15
_space_group_name_Hall           '-C 2yn'
loop_
_symmetry_equiv_pos_site_id
_symmetry_equiv_pos_as_xyz
1 x,y,z
2 -x,y,1/2-z
3 1/2+x,1/2+y,z
4 1/2-x,1/2+y,1/2-z
5 -x,-y,-z
6 x,-y,1/2+z
7 1/2-x,1/2-y,-z
8 1/2+x,1/2-y,1/2+z
_cell_length_a                   22.260(3)
_cell_length_b                   10.1973(17)
_cell_length_c                   10.1077(17)
_cell_angle_alpha                90
_cell_angle_beta                 92.209(2)
_cell_angle_gamma                90
_cell_volume                     2292.66
_exptl_crystal_colour            red
_exptl_crystal_description       plate
_cell_formula_units_Z            4
loop_
_atom_site_label
_atom_site_type_symbol
_atom_site_fract_x
_atom_site_fract_y
_atom_site_fract_z
O1 O 0.46232(19) -0.1010(4) 0.1047(4)
O2 O 0.45813(18) 0.1069(4) 0.1678(4)
O3 O 0.4311(2) 0.7258(4) -0.0724(5)
O4 O 0.4461(2) 0.5756(4) 0.0836(4)
N1 N 0.38543(17) 0.1836(4) -0.0301(4)
N2 N 0.38902(19) 0.3887(4) -0.0756(4)
C1 C 0.4130(2) 0.2736(5) -0.0999(5)
H1 H 0.4441 0.2581 -0.1566
C2 C 0.3446(2) 0.3728(5) 0.0145(6)
H2 H 0.3207 0.4385 0.0487
C3 C 0.3423(3) 0.2448(5) 0.0434(6)
H3 H 0.3167 0.2047 0.1016
C4 C 0.4439(2) 0.0124(5) 0.0929(5)
C5 C 0.4008(2) 0.0437(5) -0.0226(5)
H4 H 0.4189 0.0175 -0.1043
H5 H 0.3643 -0.0069 -0.0140
C6 C 0.4295(2) 0.6072(5) -0.0261(5)
C7 C 0.4056(3) 0.5151(5) -0.1311(5)
H6 H 0.3706 0.5541 -0.1757
H7 H 0.4359 0.5019 -0.1962
H8 H 0.5000 0.106(9) 0.2500
H9 H 0.435(4) 0.780(7) -0.014(9)
O1A O 0.53768(19) -0.1010(4) 0.3953(4)
O2A O 0.54187(18) 0.1069(4) 0.3322(4)
O3A O 0.5689(2) 0.7258(4) 0.5724(5)
O4A O 0.5539(2) 0.5756(4) 0.4164(4)
N1A N 0.61457(17) 0.1836(4) 0.5301(4)
N2A N 0.61098(19) 0.3887(4) 0.5756(4)
C1A C 0.5870(2) 0.2736(5) 0.5999(5)
H1A H 0.5559 0.2581 0.6566
C2A C 0.6554(2) 0.3728(5) 0.4855(6)
H2A H 0.6793 0.4385 0.4513
C3A C 0.6577(3) 0.2448(5) 0.4566(6)
H3A H 0.6833 0.2047 0.3984
C4A C 0.5561(2) 0.0124(5) 0.4071(5)
C5A C 0.5992(2) 0.0437(5) 0.5226(5)
H4A H 0.5811 0.0175 0.6043
H5A H 0.6357 -0.0069 0.5140
C6A C 0.5705(2) 0.6072(5) 0.5261(5)
C7A C 0.5944(3) 0.5151(5) 0.6311(5)
H6A H 0.6294 0.5541 0.6757
H7A H 0.5641 0.5019 0.6962
H9A H 0.565(4) 0.780(7) 0.514(9)
I1 I 0.228024(19) 0.42974(5) 0.27861(4)
I2 I 0.2500 0.2500 0.5000
I1F I 0.271976(19) 0.07026(5) 0.72139(4)
loop_
_geom_bond_atom_site_label_1
_geom_bond_atom_site_label_2
_geom_bond_site_symmetry_1
_geom_bond_site_symmetry_2
O1 C4 1_555 1_555
O2 C4 1_555 1_555
O3 C6 1_555 1_555
O4 C6 1_555 1_555
N1 C1 1_555 1_555
N2 C1 1_555 1_555
C1 H1 1_555 1_555
C2 N2 1_555 1_555
H2 C2 1_555 1_555
C3 N1 1_555 1_555
H3 C3 1_555 1_555
C4 C5 1_555 1_555
C5 N1 1_555 1_555
H4 C5 1_555 1_555
H5 C5 1_555 1_555
C6 C7 1_555 1_555
C7 N2 1_555 1_555
H6 C7 1_555 1_555
H7 C7 1_555 1_555
I1 I2 1_555 1_555
I2 I1F 1_555 1_555
H8 O2 1_555 1_555
H9 O3 1_555 1_555
O1A C4A 1_555 1_555
O2A H8 1_555 1_555
O3A C6A 1_555 1_555
O4A C6A 1_555 1_555
N1A C1A 1_555 1_555
N2A C1A 1_555 1_555
C1A H1A 1_555 1_555
C2A N2A 1_555 1_555
H2A C2A 1_555 1_555
C3A N1A 1_555 1_555
H3A C3A 1_555 1_555
C4A O2A 1_555 1_555
C5A N1A 1_555 1_555
H4A C5A 1_555 1_555
H5A C5A 1_555 1_555
C6A C7A 1_555 1_555
C7A N2A 1_555 1_555
H6A C7A 1_555 1_555
H7A C7A 1_555 1_555
H9A O3A 1_555 1_555
C2 C3 1_555 1_555
C2A C3A 1_555 1_555
C4A C5A 1_555 1_555

#END
