
#######################################################################
#
#                 Cambridge Crystallographic Data Centre
#                                CCDC 
#
#######################################################################
#
# If this CIF has been generated from an entry in the Cambridge 
# Structural Database, then it will include bibliographic, chemical, 
# crystal, experimental, refinement or atomic coordinate data resulting 
# from the CCDC's data processing and validation procedures.
#
#######################################################################

data_MUBSUZ
_chemical_name_common            'tetrahexyloxy rubicenoid pentacene'
_chemical_formula_moiety         'C58 H66 O4,C1 H4 O1'
_chemical_name_systematic        
'6,7,15,16-tetrakis(hexyloxy)dibenzo[b,n]rubicene methanol solvate'
_symmetry_cell_setting           triclinic
_symmetry_space_group_name_H-M   'P -1'
_symmetry_Int_Tables_number      2
_space_group_name_Hall           '-P 1'
loop_
_symmetry_equiv_pos_site_id
_symmetry_equiv_pos_as_xyz
1 x,y,z
2 -x,-y,-z
_cell_length_a                   4.6842(5)
_cell_length_b                   14.8758(15)
_cell_length_c                   17.8030(18)
_cell_angle_alpha                107.779(5)
_cell_angle_beta                 94.984(5)
_cell_angle_gamma                91.886(5)
_cell_volume                     1174.51
_exptl_crystal_colour            'deep green'
_exptl_crystal_description       Needle
_cell_formula_units_Z            1
loop_
_atom_site_label
_atom_site_type_symbol
_atom_site_fract_x
_atom_site_fract_y
_atom_site_fract_z
C1 C 0.296(4) 0.1622(13) 0.6678(13)
H1 H 0.4937 0.1907 0.6740
H2 H 0.2345 0.1336 0.6105
C2 C 0.286(6) 0.0871(18) 0.7095(11)
H3 H 0.1057 0.0475 0.6879
H4 H 0.4456 0.0461 0.6925
C3 C 0.301(2) 0.1121(9) 0.7987(9)
H5 H 0.1537 0.1570 0.8188
H6 H 0.4921 0.1433 0.8226
C4 C 0.2525(18) 0.0233(6) 0.8230(5)
H7 H 0.0579 -0.0058 0.8010
H8 H 0.3932 -0.0229 0.7999
C5 C 0.2818(13) 0.0440(4) 0.9120(3)
H9 H 0.1369 0.0885 0.9352
H10 H 0.4744 0.0746 0.9344
C6 C 0.241(2) -0.0466(5) 0.9344(5)
H11 H 0.0456 -0.0749 0.9151
H12 H 0.2692 -0.0316 0.9922
H13 H 0.3803 -0.0914 0.9102
O1 O -0.2003(3) 0.36377(10) 0.77856(8)
O2 O 0.1070(3) 0.23255(10) 0.70271(8)
C7 C -0.0491(4) 0.38588(14) 0.72363(11)
C8 C -0.0515(4) 0.47182(14) 0.70803(11)
H14 H -0.1627 0.5206 0.7367
C9 C 0.1101(4) 0.48620(14) 0.64999(11)
C10 C 0.2759(4) 0.41382(14) 0.60801(11)
C11 C 0.2801(4) 0.32817(14) 0.62450(11)
H15 H 0.3936 0.2797 0.5966
C12 C 0.1178(4) 0.31410(14) 0.68188(11)
C13 C 0.1411(4) 0.56658(14) 0.61777(11)
C14 C 0.3248(4) 0.53751(14) 0.55674(11)
C15 C 0.4136(4) 0.44596(14) 0.54912(11)
C16 C 0.0287(4) 0.65549(14) 0.63385(11)
C17 C -0.1605(4) 0.69242(14) 0.69311(11)
H16 H -0.2152 0.6552 0.7250
C18 C -0.2641(4) 0.77923(15) 0.70494(12)
H17 H -0.3898 0.8017 0.7448
C19 C -0.1866(4) 0.83686(15) 0.65840(12)
H18 H -0.2596 0.8977 0.6674
C20 C -0.0085(4) 0.80494(14) 0.60118(12)
H19 H 0.0410 0.8441 0.5703
C21 C 0.1067(4) 0.71422(14) 0.58601(11)
C22 C 0.5967(4) 0.40543(14) 0.49072(11)
C23 C 0.7134(4) 0.31622(14) 0.47373(11)
H20 H 0.6680 0.2758 0.5039
C24 C -0.3567(4) 0.43688(14) 0.82648(12)
H21 H -0.4958 0.4598 0.7925
H22 H -0.2233 0.4908 0.8581
C25 C -0.5132(4) 0.39660(14) 0.88084(11)
H23 H -0.6372 0.3407 0.8482
H24 H -0.6396 0.4444 0.9099
C26 C -0.3153(4) 0.36738(15) 0.94078(12)
H25 H -0.2034 0.3147 0.9120
H26 H -0.1780 0.4213 0.9699
C27 C -0.4777(4) 0.33650(15) 0.99997(12)
H27 H -0.6037 0.2795 0.9709
H28 H -0.6023 0.3873 1.0252
C28 C -0.2850(5) 0.31439(17) 1.06451(13)
H29 H -0.1777 0.2584 1.0400
H30 H -0.1433 0.3685 1.0894
C29 C -0.4486(5) 0.29506(18) 1.12835(14)
H31 H -0.5537 0.3505 1.1534
H32 H -0.3133 0.2821 1.1684
H33 H -0.5847 0.2402 1.1045
C1A C 0.704(4) 0.8378(13) 0.3322(13)
H1A H 0.5063 0.8093 0.3260
H2A H 0.7655 0.8664 0.3895
C2A C 0.714(6) 0.9129(18) 0.2905(11)
H3A H 0.8943 0.9525 0.3121
H4A H 0.5544 0.9539 0.3075
C3A C 0.699(2) 0.8879(9) 0.2013(9)
H5A H 0.8463 0.8430 0.1812
H6A H 0.5079 0.8567 0.1774
C4A C 0.7475(18) 0.9767(6) 0.1770(5)
H7A H 0.9421 1.0058 0.1990
H8A H 0.6068 1.0229 0.2001
C5A C 0.7182(13) 0.9560(4) 0.0880(3)
H9A H 0.8631 0.9115 0.0648
H10A H 0.5256 0.9254 0.0656
C6A C 0.759(2) 1.0466(5) 0.0656(5)
H11A H 0.9544 1.0749 0.0849
H12A H 0.7308 1.0316 0.0078
H13A H 0.6197 1.0914 0.0898
O1A O 1.2003(3) 0.63623(10) 0.22144(8)
O2A O 0.8930(3) 0.76745(10) 0.29729(8)
C7A C 1.0491(4) 0.61412(14) 0.27637(11)
C8A C 1.0515(4) 0.52818(14) 0.29197(11)
H14A H 1.1627 0.4794 0.2633
C9A C 0.8899(4) 0.51380(14) 0.35001(11)
C10A C 0.7241(4) 0.58618(14) 0.39199(11)
C11A C 0.7199(4) 0.67183(14) 0.37550(11)
H15A H 0.6064 0.7203 0.4034
C12A C 0.8822(4) 0.68590(14) 0.31812(11)
C13A C 0.8589(4) 0.43342(14) 0.38223(11)
C14A C 0.6752(4) 0.46249(14) 0.44326(11)
C15A C 0.5864(4) 0.55404(14) 0.45088(11)
C16A C 0.9713(4) 0.34451(14) 0.36615(11)
C17A C 1.1605(4) 0.30758(14) 0.30689(11)
H16A H 1.2152 0.3448 0.2750
C18A C 1.2641(4) 0.22077(15) 0.29506(12)
H17A H 1.3898 0.1983 0.2552
C19A C 1.1866(4) 0.16314(15) 0.34160(12)
H18A H 1.2596 0.1023 0.3326
C20A C 1.0085(4) 0.19506(14) 0.39882(12)
H19A H 0.9590 0.1559 0.4297
C21A C 0.8933(4) 0.28578(14) 0.41399(11)
C22A C 0.4033(4) 0.59457(14) 0.50928(11)
C23A C 0.2866(4) 0.68378(14) 0.52627(11)
H20A H 0.3320 0.7242 0.4961
C24A C 1.3567(4) 0.56312(14) 0.17352(12)
H21A H 1.4958 0.5402 0.2075
H22A H 1.2233 0.5092 0.1419
C25A C 1.5132(4) 0.60340(14) 0.11916(11)
H23A H 1.6372 0.6593 0.1518
H24A H 1.6396 0.5556 0.0901
C26A C 1.3153(4) 0.63262(15) 0.05922(12)
H25A H 1.2034 0.6853 0.0880
H26A H 1.1780 0.5787 0.0301
C27A C 1.4777(4) 0.66350(15) 0.00003(12)
H27A H 1.6037 0.7205 0.0291
H28A H 1.6023 0.6127 -0.0252
C28A C 1.2850(5) 0.68561(17) -0.06451(13)
H29A H 1.1777 0.7416 -0.0400
H30A H 1.1433 0.6315 -0.0894
C29A C 1.4486(5) 0.70494(18) -0.12835(14)
H31A H 1.5537 0.6495 -0.1534
H32A H 1.3133 0.7179 -0.1684
H33A H 1.5847 0.7598 -0.1045
C30? C 0.330(4) 0.1702(15) 0.6797(15)
H34? H 0.5192 0.2009 0.7060
H35? H 0.3370 0.1507 0.6216
C31? C 0.254(6) 0.085(2) 0.7067(12)
H36? H 0.3326 0.0270 0.6739
H37? H 0.0434 0.0748 0.7056
C32? C 0.401(2) 0.1176(11) 0.7919(10)
H38? H 0.3072 0.1733 0.8235
H39? H 0.6043 0.1375 0.7910
C33? C 0.391(2) 0.0401(8) 0.8334(7)
H40? H 0.4492 -0.0198 0.7969
H41? H 0.5325 0.0587 0.8810
C34? C 0.1014(16) 0.0230(4) 0.8577(4)
H42? H -0.0440 0.0106 0.8113
H43? H 0.0519 0.0804 0.8987
C35? C 0.0926(19) -0.0623(5) 0.8908(5)
H44? H 0.2284 -0.0486 0.9386
H45? H 0.1456 -0.1190 0.8507
H46? H -0.1017 -0.0729 0.9041
C36? C 0.2160(16) 0.9693(6) 0.4675(5)
H47? H 0.2412 0.9135 0.4852
O3? O 0.4925(13) 1.0264(5) 0.4828(4)
H48? H 0.4777 1.0695 0.4616
H49? H 0.5044 1.0432 0.5245
H50? H 0.4425 0.9822 0.4330
H51? H 0.4510 0.9307 0.4999
H52? H -0.0005 0.9468 0.4650
H53? H 0.1531 0.9490 0.4106
H54? H -0.0709 0.9925 0.5035
C37? C 0.3972(14) 0.9877(7) 0.4868(6)
O4? O 0.0902(10) 0.9979(4) 0.4915(4)
loop_
_geom_bond_atom_site_label_1
_geom_bond_atom_site_label_2
_geom_bond_site_symmetry_1
_geom_bond_site_symmetry_2
C1 H1 1_555 1_555
H2 C1 1_555 1_555
C2 C1 1_555 1_555
H3 C2 1_555 1_555
H4 C2 1_555 1_555
C3 C2 1_555 1_555
H5 C3 1_555 1_555
H6 C3 1_555 1_555
C4 C3 1_555 1_555
H7 C4 1_555 1_555
H8 C4 1_555 1_555
C5 C4 1_555 1_555
H9 C5 1_555 1_555
H10 C5 1_555 1_555
C6 C5 1_555 1_555
H11 C6 1_555 1_555
H12 C6 1_555 1_555
H13 C6 1_555 1_555
O1 C7 1_555 1_555
O2 C1 1_555 1_555
C7 C8 1_555 1_555
C8 H14 1_555 1_555
C9 C8 1_555 1_555
C10 C9 1_555 1_555
C11 C10 1_555 1_555
H15 C11 1_555 1_555
C12 O2 1_555 1_555
C13 C9 1_555 1_555
C14 C13 1_555 1_555
C15 C10 1_555 1_555
C16 C13 1_555 1_555
C17 C16 1_555 1_555
H16 C17 1_555 1_555
C18 C17 1_555 1_555
H17 C18 1_555 1_555
C19 C18 1_555 1_555
H18 C19 1_555 1_555
C20 C19 1_555 1_555
H19 C20 1_555 1_555
C21 C16 1_555 1_555
C22 C15 1_555 1_555
C23 C22 1_555 1_555
H20 C23 1_555 1_555
C24 O1 1_555 1_555
H21 C24 1_555 1_555
H22 C24 1_555 1_555
C25 C24 1_555 1_555
H23 C25 1_555 1_555
H24 C25 1_555 1_555
C26 C25 1_555 1_555
H25 C26 1_555 1_555
H26 C26 1_555 1_555
C27 C26 1_555 1_555
H27 C27 1_555 1_555
H28 C27 1_555 1_555
C28 C27 1_555 1_555
H29 C28 1_555 1_555
H30 C28 1_555 1_555
C29 C28 1_555 1_555
H31 C29 1_555 1_555
H32 C29 1_555 1_555
H33 C29 1_555 1_555
C1A H1A 1_555 1_555
H2A C1A 1_555 1_555
C2A C1A 1_555 1_555
H3A C2A 1_555 1_555
H4A C2A 1_555 1_555
C3A C2A 1_555 1_555
H5A C3A 1_555 1_555
H6A C3A 1_555 1_555
C4A C3A 1_555 1_555
H7A C4A 1_555 1_555
H8A C4A 1_555 1_555
C5A C4A 1_555 1_555
H9A C5A 1_555 1_555
H10A C5A 1_555 1_555
C6A C5A 1_555 1_555
H11A C6A 1_555 1_555
H12A C6A 1_555 1_555
H13A C6A 1_555 1_555
O1A C7A 1_555 1_555
O2A C1A 1_555 1_555
C7A C8A 1_555 1_555
C8A H14A 1_555 1_555
C9A C8A 1_555 1_555
C10A C9A 1_555 1_555
C11A C10A 1_555 1_555
H15A C11A 1_555 1_555
C12A O2A 1_555 1_555
C13A C9A 1_555 1_555
C14A C22 1_555 1_555
C15A C10A 1_555 1_555
C16A C13A 1_555 1_555
C17A C16A 1_555 1_555
H16A C17A 1_555 1_555
C18A C17A 1_555 1_555
H17A C18A 1_555 1_555
C19A C18A 1_555 1_555
H18A C19A 1_555 1_555
C20A C19A 1_555 1_555
H19A C20A 1_555 1_555
C21A C23 1_555 1_555
C22A C14 1_555 1_555
C23A C21 1_555 1_555
H20A C23A 1_555 1_555
C24A O1A 1_555 1_555
H21A C24A 1_555 1_555
H22A C24A 1_555 1_555
C25A C24A 1_555 1_555
H23A C25A 1_555 1_555
H24A C25A 1_555 1_555
C26A C25A 1_555 1_555
H25A C26A 1_555 1_555
H26A C26A 1_555 1_555
C27A C26A 1_555 1_555
H27A C27A 1_555 1_555
H28A C27A 1_555 1_555
C28A C27A 1_555 1_555
H29A C28A 1_555 1_555
H30A C28A 1_555 1_555
C29A C28A 1_555 1_555
H31A C29A 1_555 1_555
H32A C29A 1_555 1_555
H33A C29A 1_555 1_555
C7 C12 1_555 1_555
C11 C12 1_555 1_555
C14 C15 1_555 1_555
C20 C21 1_555 1_555
C7A C12A 1_555 1_555
C11A C12A 1_555 1_555
C13A C14A 1_555 1_555
C14A C15A 1_555 1_555
C15A C22A 1_555 1_555
C16A C21A 1_555 1_555
C20A C21A 1_555 1_555
C22A C23A 1_555 1_555

#END
