
#######################################################################
#
#                 Cambridge Crystallographic Data Centre
#                                CCDC 
#
#######################################################################
#
# If this CIF has been generated from an entry in the Cambridge 
# Structural Database, then it will include bibliographic, chemical, 
# crystal, experimental, refinement or atomic coordinate data resulting 
# from the CCDC's data processing and validation procedures.
#
#######################################################################

data_MUDNOQ
_chemical_formula_moiety         'C20 H14 O1'
_chemical_name_systematic        2,3-diphenyl-1-benzofuran
_symmetry_cell_setting           orthorhombic
_symmetry_space_group_name_H-M   'P 21 21 21'
_symmetry_Int_Tables_number      19
_space_group_name_Hall           'P 2ac 2ab'
loop_
_symmetry_equiv_pos_site_id
_symmetry_equiv_pos_as_xyz
1 x,y,z
2 1/2-x,-y,1/2+z
3 -x,1/2+y,1/2-z
4 1/2+x,1/2-y,-z
_cell_length_a                   7.9454(18)
_cell_length_b                   10.384(2)
_cell_length_c                   17.007(4)
_cell_angle_alpha                90
_cell_angle_beta                 90
_cell_angle_gamma                90
_cell_volume                     1403.16
_exptl_crystal_colour            colorless
_exptl_crystal_description       Block
_cell_formula_units_Z            4
loop_
_atom_site_label
_atom_site_type_symbol
_atom_site_fract_x
_atom_site_fract_y
_atom_site_fract_z
O1 O 0.20822(14) 0.93054(11) 0.14703(6)
C1 C 0.0520(2) 0.88220(15) 0.12910(9)
C2 C -0.0132(2) 0.86926(16) 0.05440(10)
H1 H 0.0486 0.8909 0.0099
C3 C -0.1759(3) 0.82223(18) 0.04940(11)
H2 H -0.2249 0.8108 0.0002
C4 C -0.2674(2) 0.79177(18) 0.11643(12)
H3 H -0.3772 0.7620 0.1111
C5 C -0.1994(2) 0.80466(16) 0.19075(10)
H4 H -0.2618 0.7838 0.2352
C6 C -0.0346(2) 0.84988(14) 0.19738(9)
C7 C 0.07742(19) 0.88140(14) 0.26216(9)
C8 C 0.22031(19) 0.92928(14) 0.22903(8)
C9 C 0.38043(19) 0.97818(14) 0.25856(9)
C10 C 0.4441(2) 0.94137(16) 0.33178(10)
H5 H 0.3843 0.8836 0.3628
C11 C 0.5961(2) 0.99058(18) 0.35835(11)
H6 H 0.6380 0.9653 0.4070
C12 C 0.6855(2) 1.07697(18) 0.31282(12)
H7 H 0.7863 1.1112 0.3312
C13 C 0.6250(2) 1.11208(17) 0.24043(12)
H8 H 0.6864 1.1689 0.2094
C14 C 0.4738(2) 1.06393(16) 0.21307(10)
H9 H 0.4340 1.0889 0.1640
C15 C 0.03369(19) 0.86499(14) 0.34621(9)
C16 C 0.0567(2) 0.96390(16) 0.40050(9)
H10 H 0.1076 1.0404 0.3849
C17 C 0.0041(2) 0.9488(2) 0.47743(10)
H11 H 0.0198 1.0152 0.5134
C18 C -0.0716(3) 0.8353(2) 0.50124(11)
H12 H -0.1085 0.8259 0.5528
C19 C -0.0922(3) 0.7364(2) 0.44837(11)
H13 H -0.1414 0.6596 0.4645
C20 C -0.0398(2) 0.75082(17) 0.37143(10)
H14 H -0.0540 0.6833 0.3361
loop_
_geom_bond_atom_site_label_1
_geom_bond_atom_site_label_2
_geom_bond_site_symmetry_1
_geom_bond_site_symmetry_2
O1 C1 1_555 1_555
C1 C2 1_555 1_555
C2 H1 1_555 1_555
C3 C2 1_555 1_555
H2 C3 1_555 1_555
C4 C3 1_555 1_555
H3 C4 1_555 1_555
C5 C4 1_555 1_555
H4 C5 1_555 1_555
C6 C1 1_555 1_555
C7 C6 1_555 1_555
C8 O1 1_555 1_555
C9 C8 1_555 1_555
C10 C9 1_555 1_555
H5 C10 1_555 1_555
C11 C10 1_555 1_555
H6 C11 1_555 1_555
C12 C11 1_555 1_555
H7 C12 1_555 1_555
C13 C12 1_555 1_555
H8 C13 1_555 1_555
C14 C9 1_555 1_555
H9 C14 1_555 1_555
C15 C7 1_555 1_555
C16 C15 1_555 1_555
H10 C16 1_555 1_555
C17 C16 1_555 1_555
H11 C17 1_555 1_555
C18 C17 1_555 1_555
H12 C18 1_555 1_555
C19 C18 1_555 1_555
H13 C19 1_555 1_555
C20 C15 1_555 1_555
H14 C20 1_555 1_555
C5 C6 1_555 1_555
C7 C8 1_555 1_555
C13 C14 1_555 1_555
C19 C20 1_555 1_555

#END
