
#######################################################################
#
#                 Cambridge Crystallographic Data Centre
#                                CCDC 
#
#######################################################################
#
# If this CIF has been generated from an entry in the Cambridge 
# Structural Database, then it will include bibliographic, chemical, 
# crystal, experimental, refinement or atomic coordinate data resulting 
# from the CCDC's data processing and validation procedures.
#
#######################################################################

data_MUDRAG
_chemical_compound_source        'Euphorbia lathyris'
_chemical_name_common            lathyrol
_chemical_formula_moiety         'C20 H30 O4'
_chemical_name_systematic        
4a,7,8-trihydroxy-1,1,3,6-tetramethyl-9-methylene-1,1a,4a,5,6,7,7a,8,9,10,11,11a-dodecahydro-4H-cyclopenta[a]cyclopropa[f][11]annulen-4-one
_chemical_properties_biological  'MDR reversal activity'
_symmetry_cell_setting           orthorhombic
_symmetry_space_group_name_H-M   'P 21 21 21'
_symmetry_Int_Tables_number      19
_space_group_name_Hall           'P 2ac 2ab'
loop_
_symmetry_equiv_pos_site_id
_symmetry_equiv_pos_as_xyz
1 x,y,z
2 1/2-x,-y,1/2+z
3 -x,1/2+y,1/2-z
4 1/2+x,1/2-y,-z
_cell_length_a                   6.7090(9)
_cell_length_b                   9.9394(14)
_cell_length_c                   28.074(4)
_cell_angle_alpha                90
_cell_angle_beta                 90
_cell_angle_gamma                90
_cell_volume                     1872.07
_exptl_crystal_colour            colorless
_exptl_crystal_description       needle
_chemical_melting_point          '434 K'
_cell_formula_units_Z            4
loop_
_atom_site_label
_atom_site_type_symbol
_atom_site_fract_x
_atom_site_fract_y
_atom_site_fract_z
O1 O 0.5901(2) 0.30490(13) 0.49655(4)
O2 O 0.1863(2) 0.40691(14) 0.44643(5)
O3 O 0.7261(2) 0.79404(14) 0.44069(5)
O4 O 0.7969(2) 0.43915(14) 0.42823(5)
C1 C 0.8149(3) 0.5783(2) 0.49987(6)
H1 H 0.9452 0.5318 0.5012
H2 H 0.8366 0.6754 0.5059
C2 C 0.6711(3) 0.51916(18) 0.53734(6)
H3 H 0.5983 0.5956 0.5526
C3 C 0.5207(3) 0.43800(18) 0.50812(6)
H4 H 0.3911 0.4323 0.5256
C4 C 0.4954(3) 0.52421(18) 0.46298(6)
H5 H 0.4284 0.6101 0.4723
C5 C 0.3665(2) 0.45568(18) 0.42483(6)
H6 H 0.4418 0.3779 0.4111
C6 C 0.2880(3) 0.54285(19) 0.38426(6)
C7 C 0.2104(3) 0.4644(2) 0.34195(6)
H7 H 0.1336 0.5267 0.3215
H8 H 0.1165 0.3952 0.3538
C8 C 0.3682(3) 0.3943(2) 0.31096(7)
H9 H 0.4684 0.3523 0.3322
H10 H 0.3027 0.3212 0.2928
C9 C 0.4748(3) 0.4852(2) 0.27628(7)
H11 H 0.3847 0.5264 0.2519
C10 C 0.6811(3) 0.4576(2) 0.25806(6)
C11 C 0.6478(3) 0.5776(2) 0.29127(6)
H12 H 0.6500 0.6676 0.2753
C12 C 0.7045(3) 0.5785(2) 0.34166(6)
H13 H 0.7081 0.4943 0.3576
C13 C 0.7515(3) 0.68759(18) 0.36716(6)
C14 C 0.7371(3) 0.68649(18) 0.41985(6)
C15 C 0.7162(3) 0.55707(18) 0.45051(6)
C16 C 0.7784(4) 0.4412(2) 0.57636(7)
H14 H 0.8548 0.3675 0.5621
H15 H 0.6803 0.4043 0.5987
H16 H 0.8690 0.5016 0.5934
C17 C 0.2654(3) 0.67481(19) 0.38754(7)
H17 H 0.1990 0.7227 0.3629
H18 H 0.3156 0.7216 0.4145
C18 C 0.7954(3) 0.3360(2) 0.27450(7)
H19 H 0.7512 0.2569 0.2566
H20 H 0.7714 0.3216 0.3085
H21 H 0.9381 0.3504 0.2691
C19 C 0.7215(4) 0.4947(3) 0.20652(7)
H22 H 0.6884 0.4183 0.1859
H23 H 0.8627 0.5175 0.2027
H24 H 0.6394 0.5723 0.1976
C20 C 0.7781(3) 0.8257(2) 0.34596(7)
H25 H 0.6501 0.8732 0.3462
H26 H 0.8259 0.8173 0.3131
H27 H 0.8755 0.8763 0.3648
H28 H 0.677(4) 0.316(2) 0.4765(8)
H29 H 0.203(5) 0.341(3) 0.4615(11)
H30 H 0.911(5) 0.441(3) 0.4335(9)
loop_
_geom_bond_atom_site_label_1
_geom_bond_atom_site_label_2
_geom_bond_site_symmetry_1
_geom_bond_site_symmetry_2
O1 C3 1_555 1_555
O2 C5 1_555 1_555
O3 C14 1_555 1_555
O4 C15 1_555 1_555
C1 H1 1_555 1_555
H2 C1 1_555 1_555
C2 C1 1_555 1_555
H3 C2 1_555 1_555
C3 C2 1_555 1_555
H4 C3 1_555 1_555
C4 C3 1_555 1_555
H5 C4 1_555 1_555
C5 C4 1_555 1_555
H6 C5 1_555 1_555
C6 C5 1_555 1_555
C7 C6 1_555 1_555
H7 C7 1_555 1_555
H8 C7 1_555 1_555
C8 C7 1_555 1_555
H9 C8 1_555 1_555
H10 C8 1_555 1_555
C9 C8 1_555 1_555
H11 C9 1_555 1_555
C10 C9 1_555 1_555
C11 C9 1_555 1_555
H12 C11 1_555 1_555
C12 C11 1_555 1_555
H13 C12 1_555 1_555
C13 C12 1_555 1_555
C14 C13 1_555 1_555
C15 C1 1_555 1_555
C16 C2 1_555 1_555
H14 C16 1_555 1_555
H15 C16 1_555 1_555
H16 C16 1_555 1_555
C17 C6 1_555 1_555
H17 C17 1_555 1_555
H18 C17 1_555 1_555
C18 C10 1_555 1_555
H19 C18 1_555 1_555
H20 C18 1_555 1_555
H21 C18 1_555 1_555
C19 C10 1_555 1_555
H22 C19 1_555 1_555
H23 C19 1_555 1_555
H24 C19 1_555 1_555
C20 C13 1_555 1_555
H25 C20 1_555 1_555
H26 C20 1_555 1_555
H27 C20 1_555 1_555
H28 O1 1_555 1_555
H29 O2 1_555 1_555
H30 O4 1_555 1_555
C4 C15 1_555 1_555
C10 C11 1_555 1_555
C14 C15 1_555 1_555

#END
