
#######################################################################
#
#                 Cambridge Crystallographic Data Centre
#                                CCDC 
#
#######################################################################
#
# If this CIF has been generated from an entry in the Cambridge 
# Structural Database, then it will include bibliographic, chemical, 
# crystal, experimental, refinement or atomic coordinate data resulting 
# from the CCDC's data processing and validation procedures.
#
#######################################################################

data_MUFLEE
_chemical_formula_moiety         'C26 H22 O1 P1 1+,N1 O3 1-'
_chemical_name_systematic        'Triphenyl(benzoylmethyl)phosphonium nitrate'
_symmetry_cell_setting           orthorhombic
_symmetry_space_group_name_H-M   'P b c a'
_symmetry_Int_Tables_number      61
_space_group_name_Hall           '-P 2ac 2ab'
loop_
_symmetry_equiv_pos_site_id
_symmetry_equiv_pos_as_xyz
1 x,y,z
2 1/2+x,y,1/2-z
3 x,1/2-y,1/2+z
4 1/2-x,1/2+y,z
5 -x,-y,-z
6 1/2-x,-y,1/2+z
7 -x,1/2+y,1/2-z
8 1/2+x,1/2-y,-z
_cell_length_a                   10.7617(5)
_cell_length_b                   19.1957(7)
_cell_length_c                   21.4568(9)
_cell_angle_alpha                90
_cell_angle_beta                 90
_cell_angle_gamma                90
_cell_volume                     4432.51
_exptl_crystal_colour            colorless
_exptl_crystal_description       block
_chemical_melting_point          465.5K
_cell_formula_units_Z            8
loop_
_atom_site_label
_atom_site_type_symbol
_atom_site_fract_x
_atom_site_fract_y
_atom_site_fract_z
P1 P 0.38531(2) 0.121424(14) 0.331702(12)
O1 O 0.21672(8) 0.18309(4) 0.24087(4)
C1 C 0.40900(10) 0.20290(5) 0.29175(5)
H1 H 0.4942(15) 0.2036(8) 0.2772(7)
H2 H 0.4027(16) 0.2377(9) 0.3211(8)
C2 C 0.31488(10) 0.21526(5) 0.24053(5)
C3 C 0.34443(10) 0.26673(6) 0.19095(5)
C4 C 0.26177(12) 0.27205(7) 0.14083(6)
H3 H 0.1903(15) 0.2423(9) 0.1405(7)
C5 C 0.28494(14) 0.31903(8) 0.09318(6)
H4 H 0.2284(19) 0.3227(10) 0.0601(9)
C6 C 0.38956(14) 0.36121(7) 0.09552(6)
H5 H 0.4063(17) 0.3932(10) 0.0626(9)
C7 C 0.47223(13) 0.35638(7) 0.14484(6)
H6 H 0.5453(18) 0.3854(9) 0.1463(8)
C8 C 0.44980(11) 0.30895(6) 0.19276(6)
H7 H 0.5099(16) 0.3070(8) 0.2272(8)
C9 C 0.51618(10) 0.11068(6) 0.38258(5)
C10 C 0.60549(12) 0.05961(8) 0.37170(6)
H8 H 0.6000(17) 0.0296(10) 0.3344(9)
C11 C 0.70482(14) 0.05308(10) 0.41277(7)
H9 H 0.765(2) 0.0155(11) 0.4055(10)
C12 C 0.71501(12) 0.09698(9) 0.46363(6)
H10 H 0.7833(18) 0.0924(10) 0.4910(9)
C13 C 0.62633(12) 0.14813(7) 0.47423(6)
H11 H 0.6320(17) 0.1796(9) 0.5096(9)
C14 C 0.52603(11) 0.15504(6) 0.43402(5)
H12 H 0.4631(17) 0.1886(9) 0.4413(8)
C15 C 0.25170(10) 0.12243(5) 0.38161(5)
C16 C 0.16844(11) 0.17834(6) 0.38242(5)
H13 H 0.1809(14) 0.2165(8) 0.3541(7)
C17 C 0.07192(11) 0.17887(7) 0.42578(6)
H14 H 0.0148(16) 0.2189(9) 0.4249(8)
C18 C 0.05856(11) 0.12458(7) 0.46799(6)
H15 H -0.0046(16) 0.1260(8) 0.4979(8)
C19 C 0.14083(12) 0.06897(7) 0.46696(5)
H16 H 0.1296(15) 0.0324(9) 0.4958(8)
C20 C 0.23824(11) 0.06772(6) 0.42437(5)
H17 H 0.2954(15) 0.0290(9) 0.4246(8)
C21 C 0.38548(10) 0.05312(5) 0.27485(5)
C22 C 0.31005(10) -0.00558(6) 0.27995(5)
H18 H 0.2535(15) -0.0102(8) 0.3143(7)
C23 C 0.31837(12) -0.05798(6) 0.23508(6)
H19 H 0.2691(16) -0.0991(9) 0.2403(8)
C24 C 0.40235(12) -0.05229(6) 0.18638(6)
H20 H 0.4088(16) -0.0876(9) 0.1563(8)
C25 C 0.47783(12) 0.00612(7) 0.18133(6)
H21 H 0.5343(15) 0.0099(8) 0.1474(8)
C26 C 0.46983(11) 0.05906(6) 0.22523(5)
H22 H 0.5229(15) 0.0997(8) 0.2217(7)
N1 N 0.84451(11) 0.14572(5) 0.61723(5)
O2 O 0.91347(17) 0.19044(6) 0.59453(7)
O3 O 0.84495(12) 0.08553(5) 0.59537(5)
O4 O 0.77706(11) 0.16155(6) 0.66242(5)
loop_
_geom_bond_atom_site_label_1
_geom_bond_atom_site_label_2
_geom_bond_site_symmetry_1
_geom_bond_site_symmetry_2
P1 C1 1_555 1_555
O1 C2 1_555 1_555
C1 H1 1_555 1_555
H2 C1 1_555 1_555
C2 C1 1_555 1_555
C3 C2 1_555 1_555
C4 C3 1_555 1_555
H3 C4 1_555 1_555
C5 C4 1_555 1_555
H4 C5 1_555 1_555
C6 C5 1_555 1_555
H5 C6 1_555 1_555
C7 C6 1_555 1_555
H6 C7 1_555 1_555
C8 C3 1_555 1_555
H7 C8 1_555 1_555
C9 P1 1_555 1_555
C10 C9 1_555 1_555
H8 C10 1_555 1_555
C11 C10 1_555 1_555
H9 C11 1_555 1_555
C12 C11 1_555 1_555
H10 C12 1_555 1_555
C13 C12 1_555 1_555
H11 C13 1_555 1_555
C14 C9 1_555 1_555
H12 C14 1_555 1_555
C15 P1 1_555 1_555
C16 C15 1_555 1_555
H13 C16 1_555 1_555
C17 C16 1_555 1_555
H14 C17 1_555 1_555
C18 C17 1_555 1_555
H15 C18 1_555 1_555
C19 C18 1_555 1_555
H16 C19 1_555 1_555
C20 C15 1_555 1_555
H17 C20 1_555 1_555
C21 P1 1_555 1_555
C22 C21 1_555 1_555
H18 C22 1_555 1_555
C23 C22 1_555 1_555
H19 C23 1_555 1_555
C24 C23 1_555 1_555
H20 C24 1_555 1_555
C25 C24 1_555 1_555
H21 C25 1_555 1_555
C26 C21 1_555 1_555
H22 C26 1_555 1_555
N1 O2 1_555 1_555
O3 N1 1_555 1_555
O4 N1 1_555 1_555
C7 C8 1_555 1_555
C13 C14 1_555 1_555
C19 C20 1_555 1_555
C25 C26 1_555 1_555

#END
