
#######################################################################
#
#                 Cambridge Crystallographic Data Centre
#                                CCDC 
#
#######################################################################
#
# If this CIF has been generated from an entry in the Cambridge 
# Structural Database, then it will include bibliographic, chemical, 
# crystal, experimental, refinement or atomic coordinate data resulting 
# from the CCDC's data processing and validation procedures.
#
#######################################################################

data_MUFMEH
_chemical_formula_moiety         'C20 H22 N1 O3 S1 1+,0.5(H2 O1),I1 1-'
_chemical_name_systematic        
'2-(2-(3,4-dimethoxyphenyl)vinyl)-3-ethyl-5-methoxy-1,3-benzothiazol-3-ium iodide hydrate'
_symmetry_cell_setting           triclinic
_symmetry_space_group_name_H-M   'P -1'
_symmetry_Int_Tables_number      2
_space_group_name_Hall           '-P 1'
loop_
_symmetry_equiv_pos_site_id
_symmetry_equiv_pos_as_xyz
1 x,y,z
2 -x,-y,-z
_cell_length_a                   7.4692(4)
_cell_length_b                   15.9898(9)
_cell_length_c                   18.4114(11)
_cell_angle_alpha                110.533(2)
_cell_angle_beta                 91.966(2)
_cell_angle_gamma                94.712(2)
_cell_volume                     2047.54
_exptl_crystal_colour            yellow
_exptl_crystal_description       prism
_cell_formula_units_Z            4
loop_
_atom_site_label
_atom_site_type_symbol
_atom_site_fract_x
_atom_site_fract_y
_atom_site_fract_z
I1 I -0.10556(2) 0.735902(11) 0.386537(9)
I2 I 0.58320(2) 0.779174(11) 0.105386(9)
S1 S 0.15792(8) 1.14266(4) 0.39494(3)
O1 O 0.3666(3) 0.77860(12) 0.58069(11)
O2 O 0.4716(3) 0.88826(13) 0.71803(10)
O3 O -0.1700(3) 1.08034(14) 0.08620(12)
N1 N 0.0322(3) 0.98864(14) 0.30117(12)
C1 C 0.1156(3) 1.02925(17) 0.37176(15)
C2 C 0.1675(3) 0.98369(17) 0.42288(14)
H1 H 0.1441(3) 0.92026(17) 0.40634(14)
C3 C 0.2489(3) 1.02975(17) 0.49402(14)
H2 H 0.2690(3) 1.09307(17) 0.50823(14)
C4 C 0.3092(3) 0.99233(18) 0.55130(15)
C5 C 0.3057(3) 0.89883(17) 0.53448(14)
H3 H 0.2644(3) 0.85799(17) 0.48417(14)
C6 C 0.3626(3) 0.86663(17) 0.59150(15)
C7 C 0.4229(3) 0.92706(17) 0.66662(14)
C8 C 0.4291(3) 1.01855(18) 0.68263(15)
H4 H 0.4715(3) 1.05936(18) 0.73280(15)
C9 C 0.3731(3) 1.05121(17) 0.62516(14)
H5 H 0.3787(3) 1.11414(17) 0.63658(14)
C10 C 0.3348(5) 0.7163(2) 0.50313(17)
H6 H 0.423(2) 0.7311(11) 0.4702(4)
H7 H 0.346(3) 0.6554(3) 0.5026(3)
H8 H 0.2131(14) 0.7194(13) 0.4832(6)
C11 C 0.5429(4) 0.9468(2) 0.79303(15)
H9 H 0.6571(15) 0.9787(11) 0.7883(2)
H10 H 0.4572(14) 0.9903(9) 0.8163(6)
H11 H 0.563(3) 0.9116(3) 0.8262(4)
C12 C 0.0643(3) 1.13480(17) 0.30526(14)
C13 C 0.0018(3) 1.04664(18) 0.26128(15)
C14 C -0.0778(3) 1.02255(17) 0.18581(14)
H12 H -0.1190(3) 0.96204(17) 0.15555(14)
C15 C -0.0934(4) 1.09167(18) 0.15754(15)
C16 C -0.0310(4) 1.18137(19) 0.20202(16)
H13 H -0.0435(4) 1.22705(19) 0.18085(16)
C17 C 0.0477(4) 1.20339(17) 0.27572(15)
H14 H 0.0899(4) 1.26381(17) 0.30586(15)
C18 C -0.2327(4) 0.99044(19) 0.03545(15)
H15 H -0.279(3) 0.9916(3) -0.0147(5)
H16 H -0.1330(9) 0.9527(4) 0.0274(11)
H17 H -0.329(2) 0.9658(6) 0.0591(6)
C19 C -0.0217(3) 0.89087(16) 0.26556(14)
H18 H -0.0426(3) 0.86605(16) 0.30717(14)
H19 H -0.1361(3) 0.88061(16) 0.23352(14)
C20 C 0.1199(4) 0.84226(19) 0.21544(17)
H20 H 0.146(2) 0.8689(10) 0.1759(9)
H21 H 0.2301(11) 0.8476(13) 0.2479(3)
H22 H 0.0759(13) 0.7787(4) 0.1899(11)
S2 S 0.36122(9) 0.36715(4) 0.11681(4)
O4 O 0.0936(3) 0.71002(12) -0.08238(10)
O5 O 0.0215(3) 0.59749(13) -0.22223(11)
O6 O 0.6769(3) 0.46182(15) 0.43344(12)
N2 N 0.4570(3) 0.52765(14) 0.20667(12)
C21 C 0.3823(3) 0.48064(18) 0.13563(15)
C22 C 0.3243(3) 0.51987(18) 0.08078(15)
H23 H 0.3314(3) 0.58338(18) 0.09623(15)
C23 C 0.2595(3) 0.46859(17) 0.00733(14)
H24 H 0.2559(3) 0.40534(17) -0.00662(14)
C24 C 0.1952(3) 0.50185(17) -0.05167(15)
C25 C 0.1773(3) 0.59366(17) -0.03522(14)
H25 H 0.2070(3) 0.63560(17) 0.01587(14)
C26 C 0.1168(3) 0.62284(16) -0.09306(14)
C27 C 0.0754(3) 0.56172(18) -0.16905(15)
C28 C 0.0891(3) 0.47070(17) -0.18517(14)
H26 H 0.0587(3) 0.42867(17) -0.23617(14)
C29 C 0.1476(3) 0.44148(17) -0.12616(14)
H27 H 0.1548(3) 0.37923(17) -0.13721(14)
C30 C 0.0853(4) 0.76914(17) -0.00349(15)
H28 H 0.059(3) 0.8284(4) -0.00284(16)
H29 H -0.010(2) 0.7447(7) 0.0210(4)
H30 H 0.2012(10) 0.7747(11) 0.0252(4)
C31 C -0.0369(4) 0.5367(2) -0.29804(15)
H31 H -0.071(3) 0.5705(2) -0.3308(4)
H32 H 0.0610(11) 0.5008(11) -0.3207(5)
H33 H -0.1410(19) 0.4969(10) -0.2949(2)
C32 C 0.4500(3) 0.38471(17) 0.20958(14)
C33 C 0.4951(3) 0.47560(18) 0.25108(15)
C34 C 0.5712(3) 0.50693(18) 0.32791(14)
H34 H 0.6018(3) 0.56911(18) 0.35607(14)
C35 C 0.5997(4) 0.4426(2) 0.36063(15)
C36 C 0.5530(4) 0.35034(19) 0.31872(16)
H35 H 0.5732(4) 0.30790(19) 0.34278(16)
C37 C 0.4791(4) 0.32108(19) 0.24387(16)
H36 H 0.4482(4) 0.25889(19) 0.21582(16)
C38 C 0.7277(5) 0.5535(2) 0.47962(17)
H37 H 0.810(3) 0.5805(5) 0.4516(6)
H38 H 0.6200(6) 0.5858(4) 0.4902(12)
H39 H 0.788(3) 0.5572(2) 0.5288(6)
C39 C 0.4996(3) 0.62634(16) 0.23658(14)
H40 H 0.6117(3) 0.64239(16) 0.27084(14)
H41 H 0.5208(3) 0.64678(16) 0.19241(14)
C40 C 0.3493(4) 0.6743(2) 0.28160(18)
H42 H 0.2404(10) 0.6623(13) 0.2468(4)
H43 H 0.325(2) 0.6526(12) 0.3242(9)
H44 H 0.3855(13) 0.7390(2) 0.3029(12)
O7 O 0.4945(3) 0.17497(16) 0.07220(12)
loop_
_geom_bond_atom_site_label_1
_geom_bond_atom_site_label_2
_geom_bond_site_symmetry_1
_geom_bond_site_symmetry_2
S1 C1 1_555 1_555
O1 C6 1_555 1_555
O2 C7 1_555 1_555
O3 C15 1_555 1_555
N1 C1 1_555 1_555
C1 C2 1_555 1_555
C2 H1 1_555 1_555
C3 C2 1_555 1_555
H2 C3 1_555 1_555
C4 C3 1_555 1_555
C5 C4 1_555 1_555
H3 C5 1_555 1_555
C6 C5 1_555 1_555
C7 C6 1_555 1_555
C8 C7 1_555 1_555
H4 C8 1_555 1_555
C9 C4 1_555 1_555
H5 C9 1_555 1_555
C10 O1 1_555 1_555
H6 C10 1_555 1_555
H7 C10 1_555 1_555
H8 C10 1_555 1_555
C11 O2 1_555 1_555
H9 C11 1_555 1_555
H10 C11 1_555 1_555
H11 C11 1_555 1_555
C12 S1 1_555 1_555
C13 N1 1_555 1_555
C14 C13 1_555 1_555
H12 C14 1_555 1_555
C15 C14 1_555 1_555
C16 C15 1_555 1_555
H13 C16 1_555 1_555
C17 C12 1_555 1_555
H14 C17 1_555 1_555
C18 O3 1_555 1_555
H15 C18 1_555 1_555
H16 C18 1_555 1_555
H17 C18 1_555 1_555
C19 N1 1_555 1_555
H18 C19 1_555 1_555
H19 C19 1_555 1_555
C20 C19 1_555 1_555
H20 C20 1_555 1_555
H21 C20 1_555 1_555
H22 C20 1_555 1_555
S2 C21 1_555 1_555
O4 C26 1_555 1_555
O5 C27 1_555 1_555
O6 C35 1_555 1_555
N2 C21 1_555 1_555
C21 C22 1_555 1_555
C22 H23 1_555 1_555
C23 C22 1_555 1_555
H24 C23 1_555 1_555
C24 C23 1_555 1_555
C25 C24 1_555 1_555
H25 C25 1_555 1_555
C26 C25 1_555 1_555
C27 C26 1_555 1_555
C28 C27 1_555 1_555
H26 C28 1_555 1_555
C29 C24 1_555 1_555
H27 C29 1_555 1_555
C30 O4 1_555 1_555
H28 C30 1_555 1_555
H29 C30 1_555 1_555
H30 C30 1_555 1_555
C31 O5 1_555 1_555
H31 C31 1_555 1_555
H32 C31 1_555 1_555
H33 C31 1_555 1_555
C32 S2 1_555 1_555
C33 N2 1_555 1_555
C34 C33 1_555 1_555
H34 C34 1_555 1_555
C35 C34 1_555 1_555
C36 C35 1_555 1_555
H35 C36 1_555 1_555
C37 C32 1_555 1_555
H36 C37 1_555 1_555
C38 O6 1_555 1_555
H37 C38 1_555 1_555
H38 C38 1_555 1_555
H39 C38 1_555 1_555
C39 N2 1_555 1_555
H40 C39 1_555 1_555
H41 C39 1_555 1_555
C40 C39 1_555 1_555
H42 C40 1_555 1_555
H43 C40 1_555 1_555
H44 C40 1_555 1_555
C8 C9 1_555 1_555
C12 C13 1_555 1_555
C16 C17 1_555 1_555
C28 C29 1_555 1_555
C32 C33 1_555 1_555
C36 C37 1_555 1_555

#END
