
#######################################################################
#
#                 Cambridge Crystallographic Data Centre
#                                CCDC 
#
#######################################################################
#
# If this CIF has been generated from an entry in the Cambridge 
# Structural Database, then it will include bibliographic, chemical, 
# crystal, experimental, refinement or atomic coordinate data resulting 
# from the CCDC's data processing and validation procedures.
#
#######################################################################

data_MUGLOR
_chemical_formula_moiety         '2(C2 H6 N5 1+),C2 N6 O4 2-'
_chemical_name_systematic        
'bis(4,5-diamino-4H-1,2,4-triazol-1-ium) 5-(dinitromethylene)tetrazole-1,4-diide'
_symmetry_cell_setting           triclinic
_symmetry_space_group_name_H-M   'P -1'
_symmetry_Int_Tables_number      2
_space_group_name_Hall           '-P 1'
loop_
_symmetry_equiv_pos_site_id
_symmetry_equiv_pos_as_xyz
1 x,y,z
2 -x,-y,-z
_cell_length_a                   6.9800(5)
_cell_length_b                   7.1674(5)
_cell_length_c                   15.2519(10)
_cell_angle_alpha                92.932(2)
_cell_angle_beta                 94.494(2)
_cell_angle_gamma                92.288(2)
_cell_volume                     758.947
_exptl_crystal_colour            yellow
_cell_formula_units_Z            2
loop_
_atom_site_label
_atom_site_type_symbol
_atom_site_fract_x
_atom_site_fract_y
_atom_site_fract_z
C1 C 0.3158(3) 0.6440(2) 0.84031(10)
C2 C 0.2485(2) 0.67847(19) 0.97743(8)
H1 H 0.343(3) 0.684(3) 0.7845(13)
H2 H 0.416(4) 1.000(3) 0.8908(14)
H3 H 0.218(3) 1.005(3) 0.8659(16)
H4 H 0.216(3) 0.882(3) 1.0660(14)
H5 H 0.199(3) 0.672(3) 1.0974(13)
H6 H 0.245(3) 0.402(3) 0.9893(13)
N1 N 0.2949(3) 0.97009(19) 0.90791(9)
N2 N 0.28510(18) 0.77427(16) 0.90637(7)
N3 N 0.2129(3) 0.7509(2) 1.05513(8)
N4 N 0.2999(2) 0.4760(2) 0.86572(8)
N5 N 0.2568(2) 0.49951(17) 0.95247(8)
C3 C 0.23707(19) 0.15480(17) 0.21860(8)
C4 C 0.26927(19) 0.00555(16) 0.27930(8)
N6 N 0.2479(2) 0.13153(15) 0.13216(7)
N7 N 0.2118(2) 0.29973(17) 0.10157(8)
N8 N 0.1828(2) 0.41799(16) 0.16727(8)
N9 N 0.1966(2) 0.32935(15) 0.24248(7)
N10 N 0.12462(18) -0.12784(15) 0.28699(7)
N11 N 0.43611(17) 0.01135(16) 0.33329(7)
O1 O -0.02940(19) -0.1103(2) 0.24213(9)
O2 O 0.14189(17) -0.26031(14) 0.33592(7)
O3 O 0.46836(16) -0.09921(18) 0.39213(8)
O4 O 0.55927(17) 0.13911(17) 0.32224(7)
C5 C 0.24108(17) 0.47394(17) 0.50066(8)
C6 C 0.1563(2) 0.18807(18) 0.53078(9)
H7 H 0.312(2) 0.719(2) 0.4617(12)
H8 H 0.337(2) 0.702(2) 0.5621(12)
H9 H 0.377(3) 0.351(3) 0.6743(14)
H10 H 0.186(3) 0.374(3) 0.6888(14)
H11 H 0.132(2) 0.083(2) 0.5645(11)
H12 H 0.181(3) 0.398(2) 0.3714(13)
N12 N 0.2745(2) 0.41859(18) 0.65543(7)
N13 N 0.22418(16) 0.35966(14) 0.56730(7)
N14 N 0.30792(19) 0.64926(16) 0.50953(8)
N15 N 0.18002(17) 0.37188(16) 0.42756(7)
N16 N 0.12736(17) 0.19033(16) 0.44664(7)
loop_
_geom_bond_atom_site_label_1
_geom_bond_atom_site_label_2
_geom_bond_site_symmetry_1
_geom_bond_site_symmetry_2
C1 H1 1_555 1_555
C2 N2 1_555 1_555
H2 N1 1_555 1_555
H3 N1 1_555 1_555
H4 N3 1_555 1_555
H5 N3 1_555 1_555
H6 N5 1_555 1_555
N1 N2 1_555 1_555
N2 C1 1_555 1_555
N3 C2 1_555 1_555
N4 C1 1_555 1_555
N5 C2 1_555 1_555
C3 C4 1_555 1_555
C4 N10 1_555 1_555
N6 C3 1_555 1_555
N7 N6 1_555 1_555
N8 N7 1_555 1_555
N9 C3 1_555 1_555
N10 O1 1_555 1_555
N11 C4 1_555 1_555
O2 N10 1_555 1_555
O3 N11 1_555 1_555
O4 N11 1_555 1_555
C5 N13 1_555 1_555
C6 H11 1_555 1_555
H7 N14 1_555 1_555
H8 N14 1_555 1_555
H9 N12 1_555 1_555
H10 N12 1_555 1_555
H12 N15 1_555 1_555
N12 N13 1_555 1_555
N13 C6 1_555 1_555
N14 C5 1_555 1_555
N15 C5 1_555 1_555
N16 C6 1_555 1_555
N4 N5 1_555 1_555
N8 N9 1_555 1_555
N15 N16 1_555 1_555

#END
