
#######################################################################
#
#                 Cambridge Crystallographic Data Centre
#                                CCDC 
#
#######################################################################
#
# If this CIF has been generated from an entry in the Cambridge 
# Structural Database, then it will include bibliographic, chemical, 
# crystal, experimental, refinement or atomic coordinate data resulting 
# from the CCDC's data processing and validation procedures.
#
#######################################################################

data_MUJDEC
_chemical_formula_moiety         'C12 H24 B2 F1 O4 1-,C16 H36 N1 1+'
_chemical_name_systematic        
"Tetra-n-butylammonium 2-fluoro-4,4,4',4',5,5,5',5'-octamethyl-2,2'-bi-1,3,2-dioxaborolane"
_symmetry_cell_setting           orthorhombic
_symmetry_space_group_name_H-M   'P b c a'
_symmetry_Int_Tables_number      61
_space_group_name_Hall           '-P 2ac 2ab'
loop_
_symmetry_equiv_pos_site_id
_symmetry_equiv_pos_as_xyz
1 x,y,z
2 1/2-x,-y,1/2+z
3 -x,1/2+y,1/2-z
4 1/2+x,1/2-y,-z
5 -x,-y,-z
6 1/2+x,y,1/2-z
7 x,1/2-y,1/2+z
8 1/2-x,1/2+y,z
_cell_length_a                   17.1149(7)
_cell_length_b                   18.0789(6)
_cell_length_c                   20.4401(8)
_cell_angle_alpha                90
_cell_angle_beta                 90
_cell_angle_gamma                90
_cell_volume                     6324.55
_exptl_crystal_colour            colorless
_exptl_crystal_description       plate
_cell_formula_units_Z            8
loop_
_atom_site_label
_atom_site_type_symbol
_atom_site_fract_x
_atom_site_fract_y
_atom_site_fract_z
C1 C 0.43575(15) 0.14139(13) 0.80828(13)
C2 C 0.43691(15) 0.22718(12) 0.80817(11)
C3 C 0.4415(2) 0.10616(16) 0.87586(15)
H1 H 0.3972 0.1223 0.9027
H2 H 0.4904 0.1214 0.8968
H3 H 0.4405 0.0522 0.8715
C4 C 0.49544(17) 0.10809(15) 0.76291(16)
H4 H 0.4877 0.0544 0.7606
H5 H 0.5480 0.1186 0.7794
H6 H 0.4895 0.1295 0.7192
C5 C 0.40030(17) 0.26034(16) 0.86927(13)
H7 H 0.3950 0.3139 0.8637
H8 H 0.4337 0.2501 0.9071
H9 H 0.3486 0.2384 0.8763
C6 C 0.51561(16) 0.26149(14) 0.79568(13)
H10 H 0.5349 0.2457 0.7528
H11 H 0.5523 0.2456 0.8297
H12 H 0.5108 0.3155 0.7965
C7 C 0.30627(15) 0.15237(12) 0.57314(11)
C8 C 0.24657(16) 0.21684(13) 0.57417(11)
C9 C 0.39037(16) 0.17998(14) 0.57258(13)
H13 H 0.3970 0.2179 0.6064
H14 H 0.4024 0.2012 0.5296
H15 H 0.4258 0.1386 0.5814
C10 C 0.29436(18) 0.09687(14) 0.51856(12)
H16 H 0.3341 0.0580 0.5217
H17 H 0.2990 0.1219 0.4762
H18 H 0.2423 0.0748 0.5224
C11 C 0.26705(19) 0.28069(14) 0.52957(12)
H19 H 0.2277 0.3197 0.5341
H20 H 0.2683 0.2634 0.4841
H21 H 0.3185 0.3003 0.5416
C12 C 0.16402(16) 0.19043(15) 0.56006(13)
H22 H 0.1513 0.1488 0.5889
H23 H 0.1603 0.1745 0.5143
H24 H 0.1271 0.2310 0.5678
B1 B 0.33667(16) 0.18463(14) 0.74196(13)
B2 B 0.26581(17) 0.17540(13) 0.68229(13)
O1 O 0.35923(10) 0.12552(8) 0.78089(8)
O2 O 0.38510(10) 0.24457(8) 0.75388(8)
O3 O 0.29161(10) 0.11768(8) 0.63459(8)
O4 O 0.25075(10) 0.24103(8) 0.64113(7)
F1 F 0.19347(8) 0.14990(7) 0.71155(7)
C13 C 0.32841(14) 0.95850(12) 0.69530(11)
H25 H 0.3723 0.9608 0.7268
H26 H 0.3169 1.0099 0.6815
C14 C 0.35570(14) 0.91567(13) 0.63550(12)
H27 H 0.3600 0.8625 0.6463
H28 H 0.3171 0.9212 0.5997
C15 C 0.43429(15) 0.94469(13) 0.61344(12)
H29 H 0.4735 0.9344 0.6478
H30 H 0.4310 0.9990 0.6080
C16 C 0.46144(17) 0.91020(15) 0.54940(13)
H31 H 0.4665 0.8566 0.5549
H32 H 0.5121 0.9312 0.5371
H33 H 0.4231 0.9207 0.5150
C17 C 0.27604(14) 0.85588(12) 0.76508(12)
H34 H 0.2279 0.8386 0.7872
H35 H 0.2892 0.8189 0.7311
C18 C 0.34128(16) 0.85651(14) 0.81482(12)
H36 H 0.3316 0.8954 0.8479
H37 H 0.3916 0.8673 0.7930
C19 C 0.34478(18) 0.78050(17) 0.84789(14)
H38 H 0.2983 0.7746 0.8763
H39 H 0.3426 0.7416 0.8138
C20 C 0.4174(2) 0.7693(2) 0.88854(16)
H40 H 0.4635 0.7707 0.8601
H41 H 0.4147 0.7213 0.9106
H42 H 0.4212 0.8088 0.9213
C21 C 0.23427(15) 0.98864(12) 0.77881(12)
H43 H 0.2183 1.0328 0.7535
H44 H 0.2811 1.0025 0.8045
C22 C 0.16895(15) 0.96981(13) 0.82635(13)
H45 H 0.1873 0.9318 0.8577
H46 H 0.1239 0.9493 0.8020
C23 C 0.14356(16) 1.03891(15) 0.86355(13)
H47 H 0.1234 1.0756 0.8318
H48 H 0.1001 1.0256 0.8933
C24 C 0.20788(18) 1.07424(15) 0.90313(13)
H49 H 0.2307 1.0374 0.9327
H50 H 0.1863 1.1152 0.9288
H51 H 0.2484 1.0931 0.8736
C25 C 0.19140(14) 0.91077(13) 0.68389(12)
H52 H 0.2093 0.8715 0.6536
H53 H 0.1471 0.8905 0.7094
C26 C 0.16199(16) 0.97536(16) 0.64365(14)
H54 H 0.1301 1.0073 0.6726
H55 H 0.2078 1.0048 0.6296
C27 C 0.1164(3) 0.9585(2) 0.5866(2)
H56 H 0.0956 1.0056 0.5689
H57 H 0.1518 0.9374 0.5531
C28 C 0.0530(4) 0.9092(3) 0.5952(3)
H58 H 0.0163 0.9299 0.6271
H59 H 0.0726 0.8616 0.6111
H60 H 0.0263 0.9020 0.5532
N1 N 0.25753(11) 0.92867(9) 0.73089(9)
C29? C 0.0988(3) 0.9472(2) 0.5978(2)
H61? H 0.1369 0.9113 0.5728
H62? H 0.0645 0.9290 0.6164
C30? C 0.0718(5) 0.9802(4) 0.5384(3)
H63? H 0.1100 0.9712 0.5036
H64? H 0.0654 1.0335 0.5448
H65? H 0.0215 0.9583 0.5262
loop_
_geom_bond_atom_site_label_1
_geom_bond_atom_site_label_2
_geom_bond_site_symmetry_1
_geom_bond_site_symmetry_2
C1 C2 1_555 1_555
C2 C5 1_555 1_555
C3 C1 1_555 1_555
H1 C3 1_555 1_555
H2 C3 1_555 1_555
H3 C3 1_555 1_555
C4 C1 1_555 1_555
H4 C4 1_555 1_555
H5 C4 1_555 1_555
H6 C4 1_555 1_555
C5 H7 1_555 1_555
H8 C5 1_555 1_555
H9 C5 1_555 1_555
C6 C2 1_555 1_555
H10 C6 1_555 1_555
H11 C6 1_555 1_555
H12 C6 1_555 1_555
C7 C8 1_555 1_555
C8 C11 1_555 1_555
C9 C7 1_555 1_555
H13 C9 1_555 1_555
H14 C9 1_555 1_555
H15 C9 1_555 1_555
C10 C7 1_555 1_555
H16 C10 1_555 1_555
H17 C10 1_555 1_555
H18 C10 1_555 1_555
C11 H19 1_555 1_555
H20 C11 1_555 1_555
H21 C11 1_555 1_555
C12 C8 1_555 1_555
H22 C12 1_555 1_555
H23 C12 1_555 1_555
H24 C12 1_555 1_555
B1 B2 1_555 1_555
B2 O3 1_555 1_555
O1 C1 1_555 1_555
O2 C2 1_555 1_555
O3 C7 1_555 1_555
O4 C8 1_555 1_555
F1 B2 1_555 1_555
C13 H25 1_555 1_555
H26 C13 1_555 1_555
C14 C13 1_555 1_555
H27 C14 1_555 1_555
H28 C14 1_555 1_555
C15 C14 1_555 1_555
H29 C15 1_555 1_555
H30 C15 1_555 1_555
C16 C15 1_555 1_555
H31 C16 1_555 1_555
H32 C16 1_555 1_555
H33 C16 1_555 1_555
C17 H34 1_555 1_555
H35 C17 1_555 1_555
C18 C17 1_555 1_555
H36 C18 1_555 1_555
H37 C18 1_555 1_555
C19 C18 1_555 1_555
H38 C19 1_555 1_555
H39 C19 1_555 1_555
C20 C19 1_555 1_555
H40 C20 1_555 1_555
H41 C20 1_555 1_555
H42 C20 1_555 1_555
C21 H43 1_555 1_555
H44 C21 1_555 1_555
C22 C21 1_555 1_555
H45 C22 1_555 1_555
H46 C22 1_555 1_555
C23 C22 1_555 1_555
H47 C23 1_555 1_555
H48 C23 1_555 1_555
C24 C23 1_555 1_555
H49 C24 1_555 1_555
H50 C24 1_555 1_555
H51 C24 1_555 1_555
C25 H52 1_555 1_555
H53 C25 1_555 1_555
C26 C25 1_555 1_555
H54 C26 1_555 1_555
H55 C26 1_555 1_555
C27 C26 1_555 1_555
H56 C27 1_555 1_555
H57 C27 1_555 1_555
C28 C27 1_555 1_555
H58 C28 1_555 1_555
H59 C28 1_555 1_555
H60 C28 1_555 1_555
N1 C13 1_555 1_555
B1 O1 1_555 1_555
B1 O2 1_555 1_555
B2 O4 1_555 1_555
C17 N1 1_555 1_555
C21 N1 1_555 1_555
C25 N1 1_555 1_555

#END
