
#######################################################################
#
#                 Cambridge Crystallographic Data Centre
#                                CCDC 
#
#######################################################################
#
# If this CIF has been generated from an entry in the Cambridge 
# Structural Database, then it will include bibliographic, chemical, 
# crystal, experimental, refinement or atomic coordinate data resulting 
# from the CCDC's data processing and validation procedures.
#
#######################################################################

data_MUJROA
_chemical_formula_moiety         'C20 H17 Cl1 N2 O6'
_chemical_name_systematic        
'2-(4-Chlorophenyl)-1,3-dimethylcyclopent-3-en-1-yl 3,5-dinitrobenzoate'
_symmetry_cell_setting           triclinic
_symmetry_space_group_name_H-M   'P -1'
_symmetry_Int_Tables_number      2
_space_group_name_Hall           '-P 1'
loop_
_symmetry_equiv_pos_site_id
_symmetry_equiv_pos_as_xyz
1 x,y,z
2 -x,-y,-z
_cell_length_a                   10.3468(3)
_cell_length_b                   10.6074(3)
_cell_length_c                   11.2456(3)
_cell_angle_alpha                114.9690(10)
_cell_angle_beta                 91.9190(10)
_cell_angle_gamma                116.7230(10)
_cell_volume                     960.615
_exptl_crystal_colour            colorless
_exptl_crystal_description       Triclinic
_chemical_melting_point          '438-439 K'
_cell_formula_units_Z            2
_exptl_crystal_recrystallization_method 'petroleum ether/ethyl acetate'
loop_
_atom_site_label
_atom_site_type_symbol
_atom_site_fract_x
_atom_site_fract_y
_atom_site_fract_z
N1 N -0.91858(18) 0.9495(2) 0.17789(18)
N2 N -0.7713(2) 0.7908(2) -0.24731(16)
C1 C -0.71860(17) 0.88237(18) 0.16039(16)
H1 H -0.7089 0.9011 0.2497
C2 C -0.62765(17) 0.83800(18) 0.08595(15)
C3 C -0.84572(19) 0.8674(2) -0.03535(18)
H2 H -0.9196 0.8749 -0.0763
C4 C -0.45330(17) 0.61996(18) 0.24707(15)
H3 H -0.5021 0.5795 0.1522
C5 C -0.51121(18) 0.8162(2) 0.14384(16)
C6 C -0.6420(2) 0.81187(19) -0.04688(17)
H4 H -0.5788 0.7860 -0.0960
C7 C -0.31287(17) 0.60731(18) 0.25097(16)
C8 C -0.7520(2) 0.82518(19) -0.10442(16)
C9 C -0.82440(18) 0.89803(19) 0.09815(17)
C10 C -0.24787(19) 0.5946(2) 0.14361(17)
H5 H -0.2921 0.5923 0.0688
C11 C -0.05203(19) 0.5918(2) 0.2579(2)
C12 C -0.42065(18) 0.79678(19) 0.33513(15)
C13 C -0.5800(2) 0.6234(2) 0.41645(19)
H6 H -0.6450 0.5870 0.4648
C14 C -0.1182(2) 0.5853(2) 0.1455(2)
H7 H -0.0768 0.5748 0.0721
C15 C -0.56623(19) 0.5258(2) 0.30299(18)
C16 C -0.2613(2) 0.9352(2) 0.3752(2)
H8 H -0.2569 1.0362 0.4285
H9 H -0.2311 0.9313 0.2945
H10 H -0.1947 0.9258 0.4281
C17 C -0.4806(2) 0.7974(2) 0.45850(17)
H11 H -0.3985 0.8503 0.5386
H12 H -0.5368 0.8528 0.4786
C18 C -0.2440(2) 0.6119(2) 0.36229(18)
H13 H -0.2866 0.6192 0.4347
C19 C -0.1122(2) 0.6058(3) 0.3672(2)
H14 H -0.0657 0.6111 0.4428
C20 C -0.6469(3) 0.3448(3) 0.2338(3)
H15 H -0.7131 0.3074 0.2844
H16 H -0.5748 0.3106 0.2298
H17 H -0.7045 0.3003 0.1430
O1 O -1.0262(2) 0.9373(3) 0.1155(2)
O2 O -0.8850(2) 0.9994(2) 0.29951(16)
O3 O -0.8915(2) 0.7571(2) -0.30803(16)
O4 O -0.6654(2) 0.7987(2) -0.29537(15)
O5 O -0.41949(16) 0.79862(19) 0.08632(14)
O6 O -0.52573(13) 0.81643(14) 0.26085(11)
Cl1 Cl 0.11066(6) 0.58055(8) 0.26187(8)
loop_
_geom_bond_atom_site_label_1
_geom_bond_atom_site_label_2
_geom_bond_site_symmetry_1
_geom_bond_site_symmetry_2
N1 C9 1_555 1_555
N2 C8 1_555 1_555
C1 H1 1_555 1_555
C2 C1 1_555 1_555
C3 H2 1_555 1_555
C4 H3 1_555 1_555
C5 C2 1_555 1_555
C6 C2 1_555 1_555
H4 C6 1_555 1_555
C7 C4 1_555 1_555
C8 C3 1_555 1_555
C9 C1 1_555 1_555
C10 C7 1_555 1_555
H5 C10 1_555 1_555
C11 C14 1_555 1_555
C12 C4 1_555 1_555
C13 H6 1_555 1_555
C14 C10 1_555 1_555
H7 C14 1_555 1_555
C15 C4 1_555 1_555
C16 C12 1_555 1_555
H8 C16 1_555 1_555
H9 C16 1_555 1_555
H10 C16 1_555 1_555
C17 C12 1_555 1_555
H11 C17 1_555 1_555
H12 C17 1_555 1_555
C18 C7 1_555 1_555
H13 C18 1_555 1_555
C19 C11 1_555 1_555
H14 C19 1_555 1_555
C20 C15 1_555 1_555
H15 C20 1_555 1_555
H16 C20 1_555 1_555
H17 C20 1_555 1_555
O1 N1 1_555 1_555
O2 N1 1_555 1_555
O3 N2 1_555 1_555
O4 N2 1_555 1_555
O5 C5 1_555 1_555
O6 C5 1_555 1_555
Cl1 C11 1_555 1_555
C3 C9 1_555 1_555
C6 C8 1_555 1_555
C12 O6 1_555 1_555
C13 C15 1_555 1_555
C13 C17 1_555 1_555
C18 C19 1_555 1_555

#END
