
#######################################################################
#
#                 Cambridge Crystallographic Data Centre
#                                CCDC 
#
#######################################################################
#
# If this CIF has been generated from an entry in the Cambridge 
# Structural Database, then it will include bibliographic, chemical, 
# crystal, experimental, refinement or atomic coordinate data resulting 
# from the CCDC's data processing and validation procedures.
#
#######################################################################

data_MUKLUA
_chemical_formula_moiety         'C21 H13 Cl2 N3 O2,C3 H7 N1 O1'
_chemical_name_systematic        
'12-(2,4-Dichlorophenyl)-8,12-dihydrobenzo[f]pyrimido[4,5-b]quinoline-9,11(7H,10H)-dione N,N-dimethylformamide solvate'
_symmetry_cell_setting           monoclinic
_symmetry_space_group_name_H-M   'P 21/n'
_symmetry_Int_Tables_number      14
_space_group_name_Hall           '-P 2yn'
loop_
_symmetry_equiv_pos_site_id
_symmetry_equiv_pos_as_xyz
1 x,y,z
2 1/2-x,1/2+y,1/2-z
3 -x,-y,-z
4 1/2+x,1/2-y,1/2+z
_cell_length_a                   6.4798(16)
_cell_length_b                   20.595(5)
_cell_length_c                   16.723(4)
_cell_angle_alpha                90
_cell_angle_beta                 95.267(7)
_cell_angle_gamma                90
_cell_volume                     2222.29
_exptl_crystal_colour            colorless
_exptl_crystal_description       block
_chemical_melting_point          'above 573 K'
_cell_formula_units_Z            4
loop_
_atom_site_label
_atom_site_type_symbol
_atom_site_fract_x
_atom_site_fract_y
_atom_site_fract_z
Cl1 Cl 0.37663(10) 0.30010(3) 0.64829(4)
Cl2 Cl 0.89052(14) 0.11428(3) 0.76684(5)
O1 O 0.4162(3) 0.39162(10) 0.81283(11)
O2 O 0.7288(3) 0.53865(10) 0.98749(11)
N1 N 1.0500(3) 0.49099(10) 0.76401(12)
H1 H 1.1500 0.5146 0.7852
N2 N 0.5717(3) 0.46556(10) 0.89860(12)
H2 H 0.4703 0.4616 0.9280
N3 N 0.8836(3) 0.51164(10) 0.87704(12)
H3 H 0.9871 0.5363 0.8921
C1 C 1.0603(4) 0.46546(11) 0.68687(14)
C2 C 0.9056(4) 0.42578(11) 0.65285(13)
C3 C 0.7342(4) 0.40053(11) 0.70108(13)
H4 H 0.6010 0.4065 0.6692
C4 C 0.7297(4) 0.43825(11) 0.77889(13)
C5 C 0.8855(4) 0.47903(11) 0.80545(14)
C6 C 1.2319(4) 0.48329(12) 0.64555(16)
H5 H 1.3345 0.5100 0.6703
C7 C 1.2474(4) 0.46173(13) 0.57012(16)
H6 H 1.3634 0.4725 0.5441
C8 C 1.0906(4) 0.42314(12) 0.53017(15)
C9 C 1.0997(5) 0.40239(14) 0.44966(16)
H7 H 1.2153 0.4127 0.4230
C10 C 0.9437(5) 0.36787(15) 0.41095(17)
H8 H 0.9524 0.3549 0.3581
C11 C 0.7696(5) 0.35166(14) 0.44998(16)
H9 H 0.6614 0.3287 0.4226
C12 C 0.7569(4) 0.36931(12) 0.52841(15)
H10 H 0.6413 0.3572 0.5540
C13 C 0.9164(4) 0.40570(11) 0.57138(14)
C14 C 0.5618(4) 0.42879(12) 0.82789(14)
C15 C 0.7274(4) 0.50708(13) 0.92516(15)
C16 C 0.7654(3) 0.32764(11) 0.71812(13)
C17 C 0.6177(4) 0.28027(12) 0.69711(14)
C18 C 0.6544(4) 0.21494(12) 0.71265(15)
H11 H 0.5530 0.1841 0.6983
C19 C 0.8436(4) 0.19671(12) 0.74959(15)
C20 C 0.9948(4) 0.24182(12) 0.77141(15)
H12 H 1.1226 0.2288 0.7961
C21 C 0.9541(4) 0.30664(12) 0.75612(14)
H13 H 1.0555 0.3372 0.7716
O3 O 0.2895(4) 0.09636(11) 0.62230(15)
N4 N 0.1928(5) 0.16616(13) 0.52157(17)
C22 C 0.1637(6) 0.13137(16) 0.5865(2)
H14 H 0.0343 0.1343 0.6061
C23 C 0.3910(8) 0.1638(2) 0.4893(3)
H15 H 0.4794 0.1334 0.5196
H16 H 0.4534 0.2061 0.4925
H17 H 0.3725 0.1501 0.4342
C24 C 0.0378(10) 0.2081(2) 0.4858(3)
H18 H -0.0847 0.2044 0.5137
H19 H 0.0059 0.1962 0.4305
H20 H 0.0870 0.2520 0.4889
loop_
_geom_bond_atom_site_label_1
_geom_bond_atom_site_label_2
_geom_bond_site_symmetry_1
_geom_bond_site_symmetry_2
Cl1 C17 1_555 1_555
Cl2 C19 1_555 1_555
O1 C14 1_555 1_555
O2 C15 1_555 1_555
O3 C22 1_555 1_555
N1 H1 1_555 1_555
N2 H2 1_555 1_555
N3 H3 1_555 1_555
N4 C22 1_555 1_555
C1 N1 1_555 1_555
C2 C1 1_555 1_555
C3 C2 1_555 1_555
H4 C3 1_555 1_555
C4 C3 1_555 1_555
C5 N1 1_555 1_555
C6 C1 1_555 1_555
H5 C6 1_555 1_555
C7 C6 1_555 1_555
H6 C7 1_555 1_555
C8 C7 1_555 1_555
C9 C8 1_555 1_555
H7 C9 1_555 1_555
C10 C9 1_555 1_555
H8 C10 1_555 1_555
C11 C10 1_555 1_555
H9 C11 1_555 1_555
C12 C11 1_555 1_555
H10 C12 1_555 1_555
C13 C2 1_555 1_555
C14 N2 1_555 1_555
C15 N2 1_555 1_555
C16 C3 1_555 1_555
C17 C16 1_555 1_555
C18 C17 1_555 1_555
H11 C18 1_555 1_555
C19 C18 1_555 1_555
C20 C19 1_555 1_555
H12 C20 1_555 1_555
C21 C16 1_555 1_555
H13 C21 1_555 1_555
C22 H14 1_555 1_555
C23 N4 1_555 1_555
H15 C23 1_555 1_555
H16 C23 1_555 1_555
H17 C23 1_555 1_555
C24 N4 1_555 1_555
H18 C24 1_555 1_555
H19 C24 1_555 1_555
H20 C24 1_555 1_555
N3 C5 1_555 1_555
N3 C15 1_555 1_555
C4 C5 1_555 1_555
C4 C14 1_555 1_555
C8 C13 1_555 1_555
C12 C13 1_555 1_555
C20 C21 1_555 1_555

#END
