
#######################################################################
#
#                 Cambridge Crystallographic Data Centre
#                                CCDC 
#
#######################################################################
#
# If this CIF has been generated from an entry in the Cambridge 
# Structural Database, then it will include bibliographic, chemical, 
# crystal, experimental, refinement or atomic coordinate data resulting 
# from the CCDC's data processing and validation procedures.
#
#######################################################################

data_MUNTOG02
_chemical_formula_moiety         'C26 H22 Br2 N2 O4'
_chemical_name_systematic        
'dimethyl 1,3-bis(4-bromophenyl)-2-phenyl-1,2,3,6-tetrahydropyrimidine-4,5-dicarboxylate'
_symmetry_cell_setting           orthorhombic
_symmetry_space_group_name_H-M   'P b c a'
_symmetry_Int_Tables_number      61
_space_group_name_Hall           '-P 2ac 2ab'
loop_
_symmetry_equiv_pos_site_id
_symmetry_equiv_pos_as_xyz
1 x,y,z
2 1/2-x,-y,1/2+z
3 -x,1/2+y,1/2-z
4 1/2+x,1/2-y,-z
5 -x,-y,-z
6 1/2+x,y,1/2-z
7 x,1/2-y,1/2+z
8 1/2-x,1/2+y,z
_cell_length_a                   11.755(3)
_cell_length_b                   20.780(5)
_cell_length_c                   21.031(5)
_cell_angle_alpha                90
_cell_angle_beta                 90
_cell_angle_gamma                90
_cell_volume                     5137.22
_cell_formula_units_Z            8
loop_
_atom_site_label
_atom_site_type_symbol
_atom_site_fract_x
_atom_site_fract_y
_atom_site_fract_z
Br1 Br -0.42613(7) 0.11734(4) 0.26808(4)
Br2 Br -0.14587(8) 0.45547(4) 0.34843(5)
N1 N -0.0557(4) 0.1024(2) 0.4703(2)
C1 C -0.0305(5) 0.1659(2) 0.4984(3)
H1 H -0.1030 0.1884 0.5043
O1 O 0.3402(4) 0.1045(2) 0.4028(2)
N2 N 0.0386(4) 0.2042(2) 0.4541(2)
O2 O 0.2618(4) 0.2605(2) 0.4297(2)
C2 C -0.3326(6) 0.1265(3) 0.3920(4)
H2 H -0.4061 0.1382 0.4035
C3 C 0.0245(5) 0.1587(3) 0.5632(3)
C4 C 0.2186(5) 0.2188(3) 0.3986(3)
C5 C -0.0055(5) 0.2627(3) 0.4291(3)
C6 C -0.1396(6) 0.1054(3) 0.4215(3)
C7 C -0.2490(6) 0.1231(3) 0.4374(3)
H3 H -0.2664 0.1328 0.4795
C8 C 0.1292(5) 0.1729(3) 0.4255(2)
C9 C -0.0482(5) 0.3089(3) 0.4693(3)
H4 H -0.0488 0.3017 0.5129
C10 C -0.0182(6) 0.1133(3) 0.6055(3)
H5 H -0.0761 0.0856 0.5928
C11 C 0.0504(5) 0.0669(3) 0.4574(3)
H6 H 0.0342 0.0316 0.4286
H7 H 0.0787 0.0488 0.4968
C12 C -0.0479(6) 0.3314(3) 0.3400(3)
H8 H -0.0477 0.3389 0.2964
O3 O 0.2329(4) 0.0157(2) 0.3976(3)
C13 C -0.3088(6) 0.1128(3) 0.3304(3)
C14 C 0.1416(5) 0.1090(3) 0.4284(3)
C15 C -0.0075(5) 0.2737(3) 0.3644(3)
H9 H 0.0186 0.2421 0.3368
C16 C 0.3293(6) 0.2464(3) 0.3097(3)
H10 H 0.3144 0.2911 0.3176
H11 H 0.3328 0.2390 0.2647
H12 H 0.4006 0.2347 0.3288
C17 C 0.1518(6) 0.1974(4) 0.6447(4)
H13 H 0.2077 0.2260 0.6581
C18 C 0.2485(7) 0.0790(4) 0.4086(3)
C19 C -0.1162(6) 0.0906(3) 0.3584(3)
H14 H -0.0430 0.0784 0.3466
C20 C 0.1096(5) 0.2007(3) 0.5835(3)
H15 H 0.1383 0.2313 0.5555
C21 C 0.1105(7) 0.1516(4) 0.6854(4)
H16 H 0.1399 0.1489 0.7264
C22 C 0.0259(7) 0.1092(3) 0.6669(3)
H17 H -0.0013 0.0783 0.6951
C23 C -0.0904(6) 0.3660(3) 0.4451(4)
H18 H -0.1204 0.3969 0.4723
C24 C -0.0881(6) 0.3770(3) 0.3814(4)
C25 C -0.2020(7) 0.0942(3) 0.3127(3)
H19 H -0.1866 0.0839 0.2705
C26 C 0.3368(7) -0.0196(4) 0.3807(6)
H20 H 0.3558 -0.0112 0.3371
H21 H 0.3243 -0.0649 0.3864
H22 H 0.3981 -0.0059 0.4076
O4 O 0.2388(3) 0.20774(18) 0.3371(2)
loop_
_geom_bond_atom_site_label_1
_geom_bond_atom_site_label_2
_geom_bond_site_symmetry_1
_geom_bond_site_symmetry_2
Br1 C13 1_555 1_555
Br2 C24 1_555 1_555
N1 C1 1_555 1_555
C1 H1 1_555 1_555
O1 C18 1_555 1_555
N2 C1 1_555 1_555
O2 C4 1_555 1_555
C2 H2 1_555 1_555
C3 C1 1_555 1_555
C4 C8 1_555 1_555
C5 N2 1_555 1_555
C6 N1 1_555 1_555
C7 C2 1_555 1_555
H3 C7 1_555 1_555
C8 N2 1_555 1_555
C9 C5 1_555 1_555
H4 C9 1_555 1_555
C10 C3 1_555 1_555
H5 C10 1_555 1_555
C11 N1 1_555 1_555
H6 C11 1_555 1_555
H7 C11 1_555 1_555
C12 H8 1_555 1_555
O3 C18 1_555 1_555
C13 C2 1_555 1_555
C14 C8 1_555 1_555
C15 C5 1_555 1_555
H9 C15 1_555 1_555
C16 H10 1_555 1_555
H11 C16 1_555 1_555
H12 C16 1_555 1_555
C17 H13 1_555 1_555
C18 C14 1_555 1_555
C19 C6 1_555 1_555
H14 C19 1_555 1_555
C20 C3 1_555 1_555
H15 C20 1_555 1_555
C21 C17 1_555 1_555
H16 C21 1_555 1_555
C22 C10 1_555 1_555
H17 C22 1_555 1_555
C23 C9 1_555 1_555
H18 C23 1_555 1_555
C24 C12 1_555 1_555
C25 C13 1_555 1_555
H19 C25 1_555 1_555
C26 O3 1_555 1_555
H20 C26 1_555 1_555
H21 C26 1_555 1_555
H22 C26 1_555 1_555
O4 C4 1_555 1_555
C6 C7 1_555 1_555
C11 C14 1_555 1_555
C12 C15 1_555 1_555
C16 O4 1_555 1_555
C17 C20 1_555 1_555
C19 C25 1_555 1_555
C21 C22 1_555 1_555
C23 C24 1_555 1_555

#END
