
#######################################################################
#
#                 Cambridge Crystallographic Data Centre
#                                CCDC 
#
#######################################################################
#
# If this CIF has been generated from an entry in the Cambridge 
# Structural Database, then it will include bibliographic, chemical, 
# crystal, experimental, refinement or atomic coordinate data resulting 
# from the CCDC's data processing and validation procedures.
#
#######################################################################

data_MUNWAT
_chemical_formula_moiety         'C32 H24 N4 O3'
_chemical_name_systematic        
2,5-bis(o-((4'R)-4'-Phenyloxazolin-2'-yl)phenyl)-1,3,4-oxadiazole
_symmetry_cell_setting           monoclinic
_symmetry_space_group_name_H-M   'P 21'
_symmetry_Int_Tables_number      4
_space_group_name_Hall           'P 2yb'
loop_
_symmetry_equiv_pos_site_id
_symmetry_equiv_pos_as_xyz
1 x,y,z
2 -x,1/2+y,-z
_cell_length_a                   8.971(2)
_cell_length_b                   15.404(3)
_cell_length_c                   9.541(2)
_cell_angle_alpha                90
_cell_angle_beta                 95.86(3)
_cell_angle_gamma                90
_cell_volume                     1311.57
_cell_formula_units_Z            2
_exptl_crystal_recrystallization_method 'ethyl acetate/petroleum ether'
loop_
_atom_site_label
_atom_site_type_symbol
_atom_site_fract_x
_atom_site_fract_y
_atom_site_fract_z
O1 O 0.48390(18) 0.94566(10) 0.51836(13)
O2 O 0.40461(15) 0.66176(9) 1.02071(13)
O3 O 0.50489(14) 0.81693(9) 0.91955(12)
N1 N 0.54553(17) 0.97018(11) 0.75097(16)
N2 N 0.16983(19) 0.66429(12) 0.91225(17)
N3 N 0.73423(19) 0.83859(14) 1.01808(18)
N4 N 0.63309(19) 0.84935(14) 1.12172(17)
C1 C 0.2192(2) 0.93665(15) 0.7472(2)
H1 H 0.2611 0.8960 0.6907
C2 C 0.0894(3) 0.91578(18) 0.8063(2)
H2 H 0.0450 0.8617 0.7898
C3 C 0.0264(3) 0.9758(2) 0.8899(3)
H3 H -0.0611 0.9625 0.9300
C4 C 0.0932(3) 1.0545(2) 0.9135(2)
H4 H 0.0509 1.0948 0.9702
C5 C 0.2227(3) 1.07529(16) 0.8544(2)
H5 H 0.2664 1.1295 0.8716
C6 C 0.2882(2) 1.01640(14) 0.76975(19)
C7 C 0.4306(2) 1.03670(14) 0.70547(19)
H6 H 0.4669 1.0945 0.7350
C8 C 0.4174(3) 1.02955(17) 0.5442(2)
H7 H 0.3134 1.0315 0.5049
H8 H 0.4718 1.0761 0.5035
C9 C 0.5605(2) 0.92291(15) 0.6443(2)
C10 C 0.6527(2) 0.84430(14) 0.63983(19)
C11 C 0.6984(3) 0.81636(17) 0.5123(2)
H9 H 0.6634 0.8447 0.4293
C12 C 0.7961(3) 0.74629(19) 0.5081(3)
H10 H 0.8248 0.7275 0.4222
C13 C 0.8497(3) 0.70519(18) 0.6298(3)
H11 H 0.9183 0.6601 0.6269
C14 C 0.8028(2) 0.73006(16) 0.7565(3)
H12 H 0.8378 0.7004 0.8383
C15 C 0.7032(2) 0.79925(14) 0.7642(2)
C16 C 0.6536(2) 0.82054(14) 0.9021(2)
C17 C 0.5010(2) 0.83485(13) 1.05932(18)
C18 C 0.3560(2) 0.83906(13) 1.11702(18)
C19 C 0.3273(3) 0.90873(16) 1.2030(2)
H13 H 0.4020 0.9494 1.2277
C20 C 0.1890(3) 0.91795(17) 1.2517(2)
H14 H 0.1714 0.9646 1.3097
C21 C 0.0765(3) 0.85894(16) 1.2156(2)
H15 H -0.0174 0.8661 1.2473
C22 C 0.1042(2) 0.78926(14) 1.13212(19)
H16 H 0.0281 0.7494 1.1077
C23 C 0.2434(2) 0.77704(13) 1.08349(18)
C24 C 0.2674(2) 0.69898(13) 0.99930(18)
C25 C 0.4020(3) 0.58947(17) 0.9227(2)
H17 H 0.4224 0.5352 0.9725
H18 H 0.4757 0.5975 0.8562
C26 C 0.2444(3) 0.59008(15) 0.8480(2)
H19 H 0.1935 0.5360 0.8689
C27 C 0.2359(2) 0.60212(14) 0.69047(19)
C28 C 0.1753(2) 0.53814(15) 0.6003(2)
H20 H 0.1447 0.4859 0.6369
C29 C 0.1599(3) 0.5513(2) 0.4558(3)
H21 H 0.1180 0.5082 0.3958
C30 C 0.2062(4) 0.6273(2) 0.4020(3)
H22 H 0.1962 0.6359 0.3051
C31 C 0.2674(3) 0.6913(2) 0.4899(3)
H23 H 0.2990 0.7431 0.4525
C32 C 0.2820(3) 0.67865(16) 0.6333(2)
H24 H 0.3235 0.7222 0.6925
loop_
_geom_bond_atom_site_label_1
_geom_bond_atom_site_label_2
_geom_bond_site_symmetry_1
_geom_bond_site_symmetry_2
O1 C8 1_555 1_555
O2 C24 1_555 1_555
O3 C16 1_555 1_555
N1 C7 1_555 1_555
N2 C24 1_555 1_555
N3 N4 1_555 1_555
N4 C17 1_555 1_555
C1 H1 1_555 1_555
C2 C1 1_555 1_555
H2 C2 1_555 1_555
C3 C2 1_555 1_555
H3 C3 1_555 1_555
C4 C3 1_555 1_555
H4 C4 1_555 1_555
C5 C4 1_555 1_555
H5 C5 1_555 1_555
C6 C1 1_555 1_555
C7 C6 1_555 1_555
H6 C7 1_555 1_555
C8 C7 1_555 1_555
H7 C8 1_555 1_555
H8 C8 1_555 1_555
C9 O1 1_555 1_555
C10 C9 1_555 1_555
C11 C10 1_555 1_555
H9 C11 1_555 1_555
C12 C11 1_555 1_555
H10 C12 1_555 1_555
C13 C12 1_555 1_555
H11 C13 1_555 1_555
C14 C13 1_555 1_555
H12 C14 1_555 1_555
C15 C10 1_555 1_555
C16 N3 1_555 1_555
C17 O3 1_555 1_555
C18 C17 1_555 1_555
C19 C18 1_555 1_555
H13 C19 1_555 1_555
C20 C19 1_555 1_555
H14 C20 1_555 1_555
C21 C20 1_555 1_555
H15 C21 1_555 1_555
C22 C21 1_555 1_555
H16 C22 1_555 1_555
C23 C18 1_555 1_555
C24 C23 1_555 1_555
C25 O2 1_555 1_555
H17 C25 1_555 1_555
H18 C25 1_555 1_555
C26 N2 1_555 1_555
H19 C26 1_555 1_555
C27 C26 1_555 1_555
C28 C27 1_555 1_555
H20 C28 1_555 1_555
C29 C28 1_555 1_555
H21 C29 1_555 1_555
C30 C29 1_555 1_555
H22 C30 1_555 1_555
C31 C30 1_555 1_555
H23 C31 1_555 1_555
C32 C27 1_555 1_555
H24 C32 1_555 1_555
N1 C9 1_555 1_555
C5 C6 1_555 1_555
C14 C15 1_555 1_555
C15 C16 1_555 1_555
C22 C23 1_555 1_555
C25 C26 1_555 1_555
C31 C32 1_555 1_555

#END
