
#######################################################################
#
#                 Cambridge Crystallographic Data Centre
#                                CCDC 
#
#######################################################################
#
# If this CIF has been generated from an entry in the Cambridge 
# Structural Database, then it will include bibliographic, chemical, 
# crystal, experimental, refinement or atomic coordinate data resulting 
# from the CCDC's data processing and validation procedures.
#
#######################################################################

data_MUPSAT
_chemical_name_common            
(E)-2,2-difluoro-6-(2-(6-methoxynaphthalen-2-yl)vinyl)-4-(trifluoromethyl)-2H-1,3,2-dioxaborinin-1-ium-2-uide
_chemical_formula_moiety         'C17 H12 B1 F5 O3'
_chemical_name_systematic        
difluoro-(1,1,1-trifluoro-6-(6-methoxynaphthalen-2-yl)-4-oxohexa-2,5-dien-2-olato)-boron
_symmetry_cell_setting           monoclinic
_symmetry_space_group_name_H-M   'C 2/c'
_symmetry_Int_Tables_number      15
_space_group_name_Hall           '-C 2yn'
loop_
_symmetry_equiv_pos_site_id
_symmetry_equiv_pos_as_xyz
1 x,y,z
2 -x,y,1/2-z
3 1/2+x,1/2+y,z
4 1/2-x,1/2+y,1/2-z
5 -x,-y,-z
6 x,-y,1/2+z
7 1/2-x,1/2-y,-z
8 1/2+x,1/2-y,1/2+z
_cell_length_a                   22.4771(8)
_cell_length_b                   12.8997(8)
_cell_length_c                   15.6366(8)
_cell_angle_alpha                90
_cell_angle_beta                 132.732(5)
_cell_angle_gamma                90
_cell_volume                     3330.24
_exptl_crystal_colour            red
_exptl_crystal_description       prism
_chemical_melting_point          '479-481 K'
_cell_formula_units_Z            8
_exptl_crystal_recrystallization_method 
'Re-crystallisation from solvent: dichloromethane'
loop_
_atom_site_label
_atom_site_type_symbol
_atom_site_fract_x
_atom_site_fract_y
_atom_site_fract_z
C1 C 0.5758(3) -0.0856(4) 0.1816(5)
C2 C 0.6412(2) -0.0150(3) 0.2114(3)
C3 C 0.7119(2) -0.0520(3) 0.2525(3)
H1 H 0.7226 -0.1227 0.265
C4 C 0.7694(2) 0.0168(2) 0.2763(3)
C5 C 0.8443(2) -0.0209(3) 0.3149(3)
H2 H 0.8544 -0.0919 0.3256
C6 C 0.9000(2) 0.0421(3) 0.3358(3)
H3 H 0.8891 0.1128 0.3276
C7 C 0.97597(19) 0.0117(3) 0.3700(3)
C8 C 0.9991(2) -0.0932(3) 0.3840(3)
H4 H 0.966 -0.1452 0.3736
C9 C 1.0696(2) -0.1187(2) 0.4128(3)
H5 H 1.084 -0.1882 0.4217
C10 C 1.12148(19) -0.0417(2) 0.4293(3)
C11 C 1.1939(2) -0.0669(3) 0.4565(3)
H6 H 1.2097 -0.1358 0.4664
C12 C 1.2406(2) 0.0105(3) 0.4680(3)
C13 C 1.2167(2) 0.1148(3) 0.4514(3)
H7 H 1.248 0.1665 0.4567
C14 C 1.1485(2) 0.1403(3) 0.4279(3)
H8 H 1.1343 0.2097 0.4198
C15 C 1.09854(19) 0.0634(2) 0.4154(2)
C16 C 1.02627(19) 0.0871(3) 0.3875(2)
H9 H 1.0119 0.1563 0.3805
C17 C 1.3451(2) -0.1056(3) 0.5245(3)
H10 H 1.3529 -0.1297 0.5896
H11 H 1.3962 -0.104 0.5452
H12 H 1.3089 -0.1516 0.4597
B1 B 0.6776(3) 0.1623(3) 0.2178(4)
F1 F 0.64307(13) 0.21512(17) 0.11832(18)
F2 F 0.69534(13) 0.22666(16) 0.30111(19)
F3 F 0.5949(7) -0.1811(6) 0.2015(19)
F4 F 0.5098(8) -0.0759(12) 0.0803(8)
F5 F 0.5605(9) -0.0609(13) 0.2464(13)
O1 O 0.62139(13) 0.08157(18) 0.1942(2)
O2 O 0.75488(13) 0.11505(16) 0.26177(19)
O3 O 1.31117(14) -0.00364(19) 0.4930(2)
F6? F 0.5471(12) -0.145(2) 0.0860(18)
F7? F 0.5130(15) -0.0437(13) 0.140(4)
F8? F 0.5998(13) -0.149(2) 0.2536(15)
loop_
_geom_bond_atom_site_label_1
_geom_bond_atom_site_label_2
_geom_bond_site_symmetry_1
_geom_bond_site_symmetry_2
C1 C2 1_555 1_555
C2 C3 1_555 1_555
C3 H1 1_555 1_555
C4 C3 1_555 1_555
C5 C4 1_555 1_555
H2 C5 1_555 1_555
C6 C5 1_555 1_555
H3 C6 1_555 1_555
C7 C6 1_555 1_555
C8 C7 1_555 1_555
H4 C8 1_555 1_555
C9 C8 1_555 1_555
H5 C9 1_555 1_555
C10 C9 1_555 1_555
C11 C10 1_555 1_555
H6 C11 1_555 1_555
C12 C11 1_555 1_555
C13 C12 1_555 1_555
H7 C13 1_555 1_555
C14 C13 1_555 1_555
H8 C14 1_555 1_555
C15 C10 1_555 1_555
C16 C7 1_555 1_555
H9 C16 1_555 1_555
C17 H10 1_555 1_555
H11 C17 1_555 1_555
H12 C17 1_555 1_555
B1 F1 1_555 1_555
F2 B1 1_555 1_555
F3 C1 1_555 1_555
F4 C1 1_555 1_555
F5 C1 1_555 1_555
O1 C2 1_555 1_555
O2 C4 1_555 1_555
O3 C12 1_555 1_555
C14 C15 1_555 1_555
C15 C16 1_555 1_555
C17 O3 1_555 1_555
B1 O1 1_555 1_555
B1 O2 1_555 1_555

#END
