
#######################################################################
#
#                 Cambridge Crystallographic Data Centre
#                                CCDC 
#
#######################################################################
#
# If this CIF has been generated from an entry in the Cambridge 
# Structural Database, then it will include bibliographic, chemical, 
# crystal, experimental, refinement or atomic coordinate data resulting 
# from the CCDC's data processing and validation procedures.
#
#######################################################################

data_MUQBOR
_chemical_formula_moiety         'C19 H18 F3 N3 S1'
_chemical_name_systematic        
(S)-N-(1-Phenylethyl)-2-(trifluoromethyl)-5,6,7,8-tetrahydrobenzothieno[2,3-d]pyrimidin-4-amine
_symmetry_cell_setting           orthorhombic
_symmetry_space_group_name_H-M   'P 21 21 21'
_symmetry_Int_Tables_number      19
_space_group_name_Hall           'P 2ac 2ab'
loop_
_symmetry_equiv_pos_site_id
_symmetry_equiv_pos_as_xyz
1 x,y,z
2 1/2+x,1/2-y,-z
3 -x,1/2+y,1/2-z
4 1/2-x,-y,1/2+z
_cell_length_a                   7.8312(14)
_cell_length_b                   9.1526(16)
_cell_length_c                   26.446(5)
_cell_angle_alpha                90
_cell_angle_beta                 90
_cell_angle_gamma                90
_cell_volume                     1895.54
_exptl_crystal_colour            colorless
_exptl_crystal_description       block
_cell_formula_units_Z            4
loop_
_atom_site_label
_atom_site_type_symbol
_atom_site_fract_x
_atom_site_fract_y
_atom_site_fract_z
C1 C 0.9946(5) 0.6517(4) 1.03333(11)
C2 C 0.9956(7) 0.5645(5) 1.08144(13)
H1 H 0.9124 0.6043 1.1049
H2 H 1.1074 0.5702 1.0971
C3 C 0.952(2) 0.4045(14) 1.0700(5)
H3 H 0.8305 0.3946 1.0642
H4 H 0.9831 0.3438 1.0986
C4 C 1.0506(19) 0.3541(11) 1.0227(3)
H5 H 1.1713 0.3755 1.0265
H6 H 1.0375 0.2495 1.0182
C5 C 0.9785(7) 0.4354(4) 0.97678(14)
H7 H 1.0457 0.4124 0.9470
H8 H 0.8618 0.4047 0.9707
C6 C 0.9833(4) 0.5966(4) 0.98637(11)
C7 C 0.9820(4) 0.7102(3) 0.94852(10)
C8 C 0.9930(5) 0.8480(3) 0.97023(11)
C9 C 0.9797(5) 0.9571(3) 0.89575(12)
C10 C 0.9641(4) 0.7094(3) 0.89532(11)
C11 C 0.9811(7) 1.0923(4) 0.86424(14)
C12 C 0.8908(4) 0.5891(3) 0.81478(11)
H9 H 0.9565 0.6648 0.7972
C13 C 0.9319(5) 0.4427(4) 0.79031(13)
H10 H 1.0500 0.4197 0.7957
H11 H 0.9095 0.4481 0.7547
H12 H 0.8619 0.3679 0.8051
C14 C 0.7028(4) 0.6277(3) 0.81057(10)
C15 C 0.6524(5) 0.7473(6) 0.78272(16)
H13 H 0.7341 0.8028 0.7660
C16 C 0.4811(6) 0.7863(7) 0.7792(2)
H14 H 0.4493 0.8692 0.7612
C17 C 0.3630(6) 0.7045(7) 0.8018(2)
H15 H 0.2482 0.7275 0.7975
C18 C 0.4061(5) 0.5900(6) 0.83046(16)
H16 H 0.3222 0.5366 0.8472
C19 C 0.5782(5) 0.5509(5) 0.83519(13)
H17 H 0.6081 0.4717 0.8553
F1 F 0.9787(14) 1.2108(4) 0.88956(17)
F2 F 1.1228(7) 1.0965(6) 0.8349(2)
F3 F 0.8535(10) 1.0904(6) 0.8307(3)
N1 N 0.9926(5) 0.9764(3) 0.94476(11)
N2 N 0.9657(3) 0.8351(3) 0.86945(9)
N3 N 0.9465(3) 0.5861(3) 0.86807(9)
H18 H 0.9684 0.5034 0.8821
S1 S 1.00175(15) 0.84146(11) 1.03499(3)
H19? H 0.8845 0.5700 1.0976
H20? H 1.0799 0.6040 1.1046
C20? C 1.039(2) 0.4032(16) 1.0689(7)
H21? H 1.1584 0.3954 1.0593
H22? H 1.0206 0.3427 1.0985
C21? C 0.925(2) 0.3493(11) 1.0251(4)
H23? H 0.8061 0.3669 1.0329
H24? H 0.9414 0.2453 1.0199
F4? F 0.8591(18) 1.1967(13) 0.8811(5)
F5? F 1.1215(18) 1.1814(18) 0.8715(7)
F6? F 0.948(2) 1.0889(11) 0.8160(3)
loop_
_geom_bond_atom_site_label_1
_geom_bond_atom_site_label_2
_geom_bond_site_symmetry_1
_geom_bond_site_symmetry_2
C1 C2 1_555 1_555
C2 H1 1_555 1_555
H2 C2 1_555 1_555
C3 C2 1_555 1_555
H3 C3 1_555 1_555
H4 C3 1_555 1_555
C4 C3 1_555 1_555
H5 C4 1_555 1_555
H6 C4 1_555 1_555
C5 C4 1_555 1_555
H7 C5 1_555 1_555
H8 C5 1_555 1_555
C6 C1 1_555 1_555
C7 C6 1_555 1_555
C8 C7 1_555 1_555
C9 C11 1_555 1_555
C10 C7 1_555 1_555
C11 F1 1_555 1_555
C12 H9 1_555 1_555
C13 C12 1_555 1_555
H10 C13 1_555 1_555
H11 C13 1_555 1_555
H12 C13 1_555 1_555
C14 C12 1_555 1_555
C15 C14 1_555 1_555
H13 C15 1_555 1_555
C16 C15 1_555 1_555
H14 C16 1_555 1_555
C17 C16 1_555 1_555
H15 C17 1_555 1_555
C18 C17 1_555 1_555
H16 C18 1_555 1_555
C19 C14 1_555 1_555
H17 C19 1_555 1_555
F2 C11 1_555 1_555
F3 C11 1_555 1_555
N1 C8 1_555 1_555
N2 C9 1_555 1_555
N3 C10 1_555 1_555
H18 N3 1_555 1_555
S1 C1 1_555 1_555
C5 C6 1_555 1_555
C8 S1 1_555 1_555
C9 N1 1_555 1_555
C10 N2 1_555 1_555
C12 N3 1_555 1_555
C18 C19 1_555 1_555

#END
