
#######################################################################
#
#                 Cambridge Crystallographic Data Centre
#                                CCDC 
#
#######################################################################
#
# If this CIF has been generated from an entry in the Cambridge 
# Structural Database, then it will include bibliographic, chemical, 
# crystal, experimental, refinement or atomic coordinate data resulting 
# from the CCDC's data processing and validation procedures.
#
#######################################################################

data_MUQBAD
_chemical_formula_moiety         'C15 H18 F1 N1 O7'
_chemical_name_systematic        
'Diethyl 2-(4-methoxy-2-nitrobenzyl)-2-fluoromalonate'
_symmetry_cell_setting           monoclinic
_symmetry_space_group_name_H-M   'P 21/c'
_symmetry_Int_Tables_number      14
_space_group_name_Hall           '-P 2ybc'
loop_
_symmetry_equiv_pos_site_id
_symmetry_equiv_pos_as_xyz
1 x,y,z
2 -x,1/2+y,1/2-z
3 -x,-y,-z
4 x,1/2-y,1/2+z
_cell_length_a                   8.5269(7)
_cell_length_b                   11.8392(10)
_cell_length_c                   16.4098(14)
_cell_angle_alpha                90
_cell_angle_beta                 98.129(2)
_cell_angle_gamma                90
_cell_volume                     1639.95
_exptl_crystal_colour            colorless
_exptl_crystal_description       block
_cell_formula_units_Z            4
loop_
_atom_site_label
_atom_site_type_symbol
_atom_site_fract_x
_atom_site_fract_y
_atom_site_fract_z
F1 F 0.07432(10) 0.16035(7) 0.43037(5)
O1 O 0.33714(17) 0.08493(10) 0.32541(8)
O2 O 0.42726(14) 0.19503(11) 0.42623(7)
O3 O 0.28778(13) 0.37818(9) 0.10614(6)
O4 O -0.18959(13) 0.38685(10) 0.40262(6)
O5 O -0.15964(14) 0.23557(10) 0.32401(7)
O6 O -0.10170(13) 0.18350(9) 0.54822(6)
O7 O 0.01839(14) 0.35029(9) 0.58082(6)
N1 N 0.35146(16) 0.17776(11) 0.35828(8)
C1 C 0.19905(17) 0.35889(12) 0.35050(8)
C2 C 0.27867(17) 0.27564(12) 0.31200(9)
C3 C 0.30374(17) 0.28161(12) 0.23057(9)
C4 C 0.25354(17) 0.37720(12) 0.18466(9)
C5 C 0.17480(18) 0.46256(13) 0.22042(9)
C6 C 0.14646(18) 0.45096(12) 0.30155(9)
C7 C 0.16161(18) 0.35148(13) 0.43785(9)
C8 C 0.02702(17) 0.26933(11) 0.44659(8)
C9 C -0.11912(17) 0.29357(12) 0.38311(8)
C10 C -0.3257(2) 0.42197(19) 0.34286(12)
C11 C -0.4185(2) 0.50385(19) 0.38278(13)
C12 C -0.01761(17) 0.27347(12) 0.53424(9)
C13 C -0.1656(2) 0.18168(15) 0.62679(9)
C14 C -0.3202(2) 0.2434(2) 0.61792(13)
C15 C 0.2645(2) 0.48328(14) 0.06265(10)
H1 H 0.363(2) 0.2233(16) 0.2081(11)
H2 H 0.136(2) 0.5277(15) 0.1905(11)
H3 H 0.090(2) 0.5083(14) 0.3270(10)
H4 H 0.131(2) 0.4255(17) 0.4534(11)
H5 H 0.253(2) 0.3254(14) 0.4768(11)
H6 H -0.277(3) 0.4576(19) 0.3010(15)
H7 H -0.398(4) 0.349(3) 0.3245(18)
H8 H -0.454(3) 0.470(2) 0.4266(15)
H9 H -0.510(3) 0.5270(17) 0.3424(13)
H10 H -0.352(3) 0.571(2) 0.4019(16)
H11 H -0.176(2) 0.1016(16) 0.6375(11)
H12 H -0.090(2) 0.2172(15) 0.6662(11)
H13 H -0.390(3) 0.204(2) 0.5832(16)
H14 H -0.361(3) 0.2409(19) 0.6691(14)
H15 H -0.310(3) 0.327(2) 0.5969(16)
H16 H 0.155(2) 0.5019(14) 0.0532(10)
H17 H 0.306(2) 0.4711(16) 0.0099(12)
H18 H 0.322(2) 0.5444(16) 0.0942(11)
loop_
_geom_bond_atom_site_label_1
_geom_bond_atom_site_label_2
_geom_bond_site_symmetry_1
_geom_bond_site_symmetry_2
F1 C8 1_555 1_555
O1 N1 1_555 1_555
O2 N1 1_555 1_555
O3 C4 1_555 1_555
O4 C9 1_555 1_555
O5 C9 1_555 1_555
O6 C12 1_555 1_555
O7 C12 1_555 1_555
N1 C2 1_555 1_555
C1 C2 1_555 1_555
C2 C3 1_555 1_555
C3 C4 1_555 1_555
C4 C5 1_555 1_555
C5 C6 1_555 1_555
C6 C1 1_555 1_555
C7 C1 1_555 1_555
C8 C7 1_555 1_555
C9 C8 1_555 1_555
C10 O4 1_555 1_555
C11 C10 1_555 1_555
C12 C8 1_555 1_555
C13 O6 1_555 1_555
C14 C13 1_555 1_555
C15 O3 1_555 1_555
H1 C3 1_555 1_555
H2 C5 1_555 1_555
H3 C6 1_555 1_555
H4 C7 1_555 1_555
H5 C7 1_555 1_555
H6 C10 1_555 1_555
H7 C10 1_555 1_555
H8 C11 1_555 1_555
H9 C11 1_555 1_555
H10 C11 1_555 1_555
H11 C13 1_555 1_555
H12 C13 1_555 1_555
H13 C14 1_555 1_555
H14 C14 1_555 1_555
H15 C14 1_555 1_555
H16 C15 1_555 1_555
H17 C15 1_555 1_555
H18 C15 1_555 1_555

#END
