
#######################################################################
#
#                 Cambridge Crystallographic Data Centre
#                                CCDC 
#
#######################################################################
#
# If this CIF has been generated from an entry in the Cambridge 
# Structural Database, then it will include bibliographic, chemical, 
# crystal, experimental, refinement or atomic coordinate data resulting 
# from the CCDC's data processing and validation procedures.
#
#######################################################################

data_MUQNIX
_chemical_formula_moiety         'C36 H26 B2 N2 S2,2(C3 H6 O1)'
_chemical_name_systematic        
"7,15-dimethyl-6,14-diphenyl-5,6,13,14-tetrahydro[1,2]benzazaborinino[3'',4'':4',5']thieno[2',3':5,6][1]benzothieno[3,2-c][1,2]benzazaborinine acetone solvate"
_symmetry_cell_setting           monoclinic
_symmetry_space_group_name_H-M   'P 21/n'
_symmetry_Int_Tables_number      14
_space_group_name_Hall           '-P 2yn'
loop_
_symmetry_equiv_pos_site_id
_symmetry_equiv_pos_as_xyz
1 x,y,z
2 1/2-x,1/2+y,1/2-z
3 -x,-y,-z
4 1/2+x,1/2-y,1/2+z
_cell_length_a                   12.0682(4)
_cell_length_b                   10.3044(3)
_cell_length_c                   15.0172(5)
_cell_angle_alpha                90
_cell_angle_beta                 105.2880(10)
_cell_angle_gamma                90
_cell_volume                     1801.39
_exptl_crystal_colour            yellow
_exptl_crystal_description       block
_cell_formula_units_Z            2
loop_
_atom_site_label
_atom_site_type_symbol
_atom_site_fract_x
_atom_site_fract_y
_atom_site_fract_z
S1 S 0.81606(4) 0.64545(5) 0.07025(3)
N1 N 0.95092(15) 0.43974(17) 0.34154(12)
H1 H 0.9789 0.4020 0.3954
B1 B 1.0174(2) 0.4328(2) 0.27680(16)
C1 C 0.69775(19) 0.6383(2) 0.23242(16)
H2 H 0.6681 0.6870 0.1776
C2 C 0.6388(2) 0.6357(2) 0.29947(18)
H3 H 0.5683 0.6813 0.2904
C3 C 0.6827(2) 0.5661(2) 0.38064(17)
H4 H 0.6417 0.5645 0.4266
C4 C 0.7847(2) 0.4996(2) 0.39487(16)
H5 H 0.8140 0.4528 0.4506
C5 C 0.84555(17) 0.5008(2) 0.32727(14)
C6 C 0.80151(17) 0.56952(19) 0.24429(14)
C7 C 0.86260(16) 0.56102(19) 0.17380(14)
C8 C 0.95830(16) 0.48385(18) 0.17933(14)
C9 C 0.98790(16) 0.48152(18) 0.09121(13)
C10 C 0.92085(16) 0.57018(18) 0.02694(13)
C11 C 1.06792(16) 0.40440(18) 0.06136(13)
C12 C 1.13431(18) 0.2935(2) 0.11519(14)
H6 H 1.1843 0.2553 0.0803
H7 H 1.0807 0.2275 0.1257
H8 H 1.1813 0.3254 0.1747
C13 C 1.14686(18) 0.3907(2) 0.31425(14)
C14 C 1.1812(2) 0.2760(2) 0.36287(15)
H9 H 1.1247 0.2189 0.3742
C15 C 1.2967(2) 0.2436(2) 0.39517(17)
H10 H 1.3182 0.1638 0.4267
C16 C 1.3796(2) 0.3262(3) 0.38170(17)
H11 H 1.4585 0.3042 0.4042
C17 C 1.3482(2) 0.4416(2) 0.33534(18)
H12 H 1.4056 0.4996 0.3266
C18 C 1.23302(19) 0.4732(2) 0.30146(16)
H13 H 1.2125 0.5525 0.2690
S1B S 1.18394(4) 0.35455(5) -0.07025(3)
N1B N 1.04908(15) 0.56026(17) -0.34154(12)
H1B H 1.0211 0.5980 -0.3954
B1B B 0.9826(2) 0.5672(2) -0.27680(16)
C1B C 1.30225(19) 0.3617(2) -0.23242(16)
H2B H 1.3319 0.3130 -0.1776
C2B C 1.3612(2) 0.3643(2) -0.29947(18)
H3B H 1.4317 0.3187 -0.2904
C3B C 1.3173(2) 0.4339(2) -0.38064(17)
H4B H 1.3583 0.4355 -0.4266
C4B C 1.2153(2) 0.5004(2) -0.39487(16)
H5B H 1.1860 0.5472 -0.4506
C5B C 1.15445(17) 0.4992(2) -0.32727(14)
C6B C 1.19849(17) 0.43048(19) -0.24429(14)
C7B C 1.13740(16) 0.43898(19) -0.17380(14)
C8B C 1.04170(16) 0.51615(18) -0.17933(14)
C9B C 1.01210(16) 0.51848(18) -0.09121(13)
C10B C 1.07915(16) 0.42982(18) -0.02694(13)
C11B C 0.93208(16) 0.59560(18) -0.06136(13)
C12B C 0.86569(18) 0.7065(2) -0.11519(14)
H6B H 0.8157 0.7447 -0.0803
H7B H 0.9193 0.7725 -0.1257
H8B H 0.8187 0.6746 -0.1747
C13B C 0.85314(18) 0.6093(2) -0.31425(14)
C14B C 0.8188(2) 0.7240(2) -0.36287(15)
H9B H 0.8753 0.7811 -0.3742
C15B C 0.7033(2) 0.7564(2) -0.39517(17)
H10B H 0.6818 0.8362 -0.4267
C16B C 0.6204(2) 0.6738(3) -0.38170(17)
H11B H 0.5415 0.6958 -0.4042
C17B C 0.6518(2) 0.5584(2) -0.33534(18)
H12B H 0.5944 0.5004 -0.3266
C18B C 0.76698(19) 0.5268(2) -0.30146(16)
H13B H 0.7875 0.4475 -0.2690
O1 O 0.97424(17) 0.2847(2) 0.51413(15)
C19 C 1.1204(3) 0.1356(4) 0.5761(3)
H14 H 1.1431 0.1525 0.5191
H15 H 1.1038 0.0430 0.5799
H16 H 1.1830 0.1607 0.6294
C20 C 1.0167(2) 0.2119(2) 0.57568(17)
C21 C 0.9706(3) 0.1973(4) 0.6578(2)
H17 H 0.9030 0.2529 0.6506
H18 H 1.0296 0.2228 0.7134
H19 H 0.9490 0.1066 0.6633
loop_
_geom_bond_atom_site_label_1
_geom_bond_atom_site_label_2
_geom_bond_site_symmetry_1
_geom_bond_site_symmetry_2
S1 C7 1_555 1_555
N1 H1 1_555 1_555
B1 N1 1_555 1_555
C1 H2 1_555 1_555
C2 C1 1_555 1_555
H3 C2 1_555 1_555
C3 C2 1_555 1_555
H4 C3 1_555 1_555
C4 C3 1_555 1_555
H5 C4 1_555 1_555
C5 N1 1_555 1_555
C6 C1 1_555 1_555
C7 C6 1_555 1_555
C8 B1 1_555 1_555
C9 C8 1_555 1_555
C10 S1 1_555 1_555
C11 C9 1_555 1_555
C12 C11 1_555 1_555
H6 C12 1_555 1_555
H7 C12 1_555 1_555
H8 C12 1_555 1_555
C13 B1 1_555 1_555
C14 C13 1_555 1_555
H9 C14 1_555 1_555
C15 C14 1_555 1_555
H10 C15 1_555 1_555
C16 C15 1_555 1_555
H11 C16 1_555 1_555
C17 C16 1_555 1_555
H12 C17 1_555 1_555
C18 C13 1_555 1_555
H13 C18 1_555 1_555
O1 C20 1_555 1_555
C19 H14 1_555 1_555
H15 C19 1_555 1_555
H16 C19 1_555 1_555
C20 C19 1_555 1_555
C21 C20 1_555 1_555
H17 C21 1_555 1_555
H18 C21 1_555 1_555
H19 C21 1_555 1_555
S1B C7B 1_555 1_555
N1B H1B 1_555 1_555
B1B N1B 1_555 1_555
C1B H2B 1_555 1_555
C2B C1B 1_555 1_555
H3B C2B 1_555 1_555
C3B C2B 1_555 1_555
H4B C3B 1_555 1_555
C4B C3B 1_555 1_555
H5B C4B 1_555 1_555
C5B N1B 1_555 1_555
C6B C1B 1_555 1_555
C7B C6B 1_555 1_555
C8B B1B 1_555 1_555
C9B C8B 1_555 1_555
C10B C11 1_555 1_555
C11B C10 1_555 1_555
C12B C11B 1_555 1_555
H6B C12B 1_555 1_555
H7B C12B 1_555 1_555
H8B C12B 1_555 1_555
C13B B1B 1_555 1_555
C14B C13B 1_555 1_555
H9B C14B 1_555 1_555
C15B C14B 1_555 1_555
H10B C15B 1_555 1_555
C16B C15B 1_555 1_555
H11B C16B 1_555 1_555
C17B C16B 1_555 1_555
H12B C17B 1_555 1_555
C18B C13B 1_555 1_555
H13B C18B 1_555 1_555
C4 C5 1_555 1_555
C5 C6 1_555 1_555
C7 C8 1_555 1_555
C9 C10 1_555 1_555
C17 C18 1_555 1_555
S1B C10B 1_555 1_555
C4B C5B 1_555 1_555
C5B C6B 1_555 1_555
C7B C8B 1_555 1_555
C9B C10B 1_555 1_555
C9B C11B 1_555 1_555
C17B C18B 1_555 1_555

#END
