
#######################################################################
#
#                 Cambridge Crystallographic Data Centre
#                                CCDC 
#
#######################################################################
#
# If this CIF has been generated from an entry in the Cambridge 
# Structural Database, then it will include bibliographic, chemical, 
# crystal, experimental, refinement or atomic coordinate data resulting 
# from the CCDC's data processing and validation procedures.
#
#######################################################################

data_MURFOU
_chemical_formula_moiety         'C23 H42 N4 O7'
_chemical_name_systematic        
't-Butoxycarbonyl-\b-alanyl-\a-aminoisobutyryl-leucyl-\a-aminoisobutyric acid methyl ester'
_symmetry_cell_setting           orthorhombic
_symmetry_space_group_name_H-M   'P 21 21 21'
_symmetry_Int_Tables_number      19
_space_group_name_Hall           'P 2ac 2ab'
loop_
_symmetry_equiv_pos_site_id
_symmetry_equiv_pos_as_xyz
1 x,y,z
2 -x,1/2+y,1/2-z
3 1/2+x,1/2-y,-z
4 1/2-x,-y,1/2+z
_cell_length_a                   9.342(14)
_cell_length_b                   16.638(19)
_cell_length_c                   17.82(2)
_cell_angle_alpha                90
_cell_angle_beta                 90
_cell_angle_gamma                90
_cell_volume                     2769.8
_cell_formula_units_Z            4
_exptl_crystal_recrystallization_method 'ethyl acetate'
loop_
_atom_site_label
_atom_site_type_symbol
_atom_site_fract_x
_atom_site_fract_y
_atom_site_fract_z
N1 N 0.6316(8) 0.4289(4) 0.3022(4)
H1 H 0.6805 0.3878 0.3162
C1 C 0.6132(9) 0.4420(4) 0.2233(5)
H2 H 0.7048 0.4347 0.1985
H3 H 0.5837 0.4973 0.2153
C2 C 0.5040(10) 0.3865(5) 0.1871(5)
H4 H 0.5263 0.3812 0.1342
H5 H 0.5120 0.3337 0.2097
C3 C 0.3534(10) 0.4151(4) 0.1949(5)
O1 O 0.2990(6) 0.4600(3) 0.1470(3)
N2 N 0.2812(7) 0.3969(3) 0.2582(4)
H6 H 0.3267 0.3735 0.2940
C4 C 0.1298(9) 0.4149(4) 0.2688(4)
C5 C 0.0909(10) 0.3957(5) 0.3497(5)
H7 H 0.1077 0.3398 0.3593
H8 H -0.0083 0.4078 0.3580
H9 H 0.1487 0.4276 0.3829
C6 C 0.0390(10) 0.3655(5) 0.2166(5)
H10 H 0.0675 0.3754 0.1657
H11 H -0.0598 0.3799 0.2229
H12 H 0.0513 0.3095 0.2279
C7 C 0.0987(9) 0.5048(4) 0.2574(4)
O2 O -0.0152(7) 0.5278(3) 0.2348(4)
N3 N 0.2018(6) 0.5567(3) 0.2805(3)
H13 H 0.2821 0.5379 0.2963
C8 C 0.1806(9) 0.6422(4) 0.2794(4)
H14 H 0.0784 0.6523 0.2712
C9 C 0.2234(9) 0.6816(4) 0.3557(4)
H15 H 0.3250 0.6734 0.3638
H16 H 0.2068 0.7390 0.3526
C10 C 0.1435(13) 0.6491(6) 0.4211(5)
H17 H 0.1671 0.5919 0.4250
C11 C 0.1943(14) 0.6894(6) 0.4931(5)
H18 H 0.2959 0.6825 0.4981
H19 H 0.1469 0.6655 0.5353
H20 H 0.1722 0.7457 0.4912
C12 C -0.0154(14) 0.6553(9) 0.4139(8)
H21 H -0.0425 0.7108 0.4102
H22 H -0.0599 0.6317 0.4571
H23 H -0.0460 0.6273 0.3696
C13 C 0.2631(8) 0.6853(5) 0.2177(5)
O3 O 0.2902(7) 0.7578(3) 0.2219(3)
N4 N 0.3090(6) 0.6414(3) 0.1600(3)
H24 H 0.2800 0.5925 0.1560
C14 C 0.4066(9) 0.6731(5) 0.1031(5)
C15 C 0.3372(10) 0.7373(5) 0.0542(5)
H25 H 0.2571 0.7146 0.0280
H26 H 0.4058 0.7571 0.0186
H27 H 0.3049 0.7808 0.0853
C16 C 0.4604(10) 0.6038(5) 0.0544(5)
H28 H 0.4962 0.5616 0.0859
H29 H 0.5358 0.6227 0.0223
H30 H 0.3831 0.5837 0.0243
C17 C 0.5379(10) 0.7065(5) 0.1435(5)
O4 O 0.5971(7) 0.7696(3) 0.1294(3)
O5 O 0.5833(7) 0.6550(3) 0.1953(4)
C18 C 0.7123(11) 0.6747(6) 0.2372(6)
H31 H 0.7774 0.7034 0.2053
H32 H 0.7569 0.6260 0.2543
H33 H 0.6877 0.7075 0.2795
C19 C 0.5777(9) 0.4763(4) 0.3547(5)
O6 O 0.4985(7) 0.5317(3) 0.3441(3)
O7 O 0.6243(7) 0.4536(4) 0.4223(3)
C20 C 0.5680(10) 0.4885(6) 0.4916(5)
C21 C 0.4104(11) 0.4760(7) 0.4951(6)
H34 H 0.3644 0.5096 0.4586
H35 H 0.3764 0.4896 0.5443
H36 H 0.3889 0.4207 0.4847
C22 C 0.6469(15) 0.4450(9) 0.5512(6)
H37 H 0.6313 0.4711 0.5985
H38 H 0.7474 0.4451 0.5398
H39 H 0.6133 0.3905 0.5539
C23 C 0.6002(16) 0.5784(7) 0.4942(7)
H40 H 0.5484 0.6052 0.4550
H41 H 0.7010 0.5868 0.4873
H42 H 0.5715 0.5997 0.5419
loop_
_geom_bond_atom_site_label_1
_geom_bond_atom_site_label_2
_geom_bond_site_symmetry_1
_geom_bond_site_symmetry_2
N1 H1 1_555 1_555
C1 N1 1_555 1_555
H2 C1 1_555 1_555
H3 C1 1_555 1_555
C2 C1 1_555 1_555
H4 C2 1_555 1_555
H5 C2 1_555 1_555
C3 C2 1_555 1_555
O1 C3 1_555 1_555
N2 C3 1_555 1_555
H6 N2 1_555 1_555
C4 N2 1_555 1_555
C5 C4 1_555 1_555
H7 C5 1_555 1_555
H8 C5 1_555 1_555
H9 C5 1_555 1_555
C6 C4 1_555 1_555
H10 C6 1_555 1_555
H11 C6 1_555 1_555
H12 C6 1_555 1_555
C7 C4 1_555 1_555
O2 C7 1_555 1_555
N3 C7 1_555 1_555
H13 N3 1_555 1_555
C8 N3 1_555 1_555
H14 C8 1_555 1_555
C9 C8 1_555 1_555
H15 C9 1_555 1_555
H16 C9 1_555 1_555
C10 C9 1_555 1_555
H17 C10 1_555 1_555
C11 C10 1_555 1_555
H18 C11 1_555 1_555
H19 C11 1_555 1_555
H20 C11 1_555 1_555
C12 C10 1_555 1_555
H21 C12 1_555 1_555
H22 C12 1_555 1_555
H23 C12 1_555 1_555
C13 C8 1_555 1_555
O3 C13 1_555 1_555
N4 C13 1_555 1_555
H24 N4 1_555 1_555
C14 N4 1_555 1_555
C15 C14 1_555 1_555
H25 C15 1_555 1_555
H26 C15 1_555 1_555
H27 C15 1_555 1_555
C16 C14 1_555 1_555
H28 C16 1_555 1_555
H29 C16 1_555 1_555
H30 C16 1_555 1_555
C17 C14 1_555 1_555
O4 C17 1_555 1_555
O5 C17 1_555 1_555
C18 O5 1_555 1_555
H31 C18 1_555 1_555
H32 C18 1_555 1_555
H33 C18 1_555 1_555
C19 N1 1_555 1_555
O6 C19 1_555 1_555
O7 C19 1_555 1_555
C20 O7 1_555 1_555
C21 C20 1_555 1_555
H34 C21 1_555 1_555
H35 C21 1_555 1_555
H36 C21 1_555 1_555
C22 C20 1_555 1_555
H37 C22 1_555 1_555
H38 C22 1_555 1_555
H39 C22 1_555 1_555
C23 C20 1_555 1_555
H40 C23 1_555 1_555
H41 C23 1_555 1_555
H42 C23 1_555 1_555

#END
