
#######################################################################
#
#                 Cambridge Crystallographic Data Centre
#                                CCDC 
#
#######################################################################
#
# If this CIF has been generated from an entry in the Cambridge 
# Structural Database, then it will include bibliographic, chemical, 
# crystal, experimental, refinement or atomic coordinate data resulting 
# from the CCDC's data processing and validation procedures.
#
#######################################################################

data_MURWEB
_chemical_formula_moiety         'C18 H23 N3 O5'
_chemical_name_systematic        
'N-((3-(4,4-Dimethyl-2,5-dioxoimidazolidin-1-yl)phenyl)acetyl)-\a-aminoisobutyric acid methyl ester'
_symmetry_cell_setting           monoclinic
_symmetry_space_group_name_H-M   'P 21/n'
_symmetry_Int_Tables_number      14
_space_group_name_Hall           '-P 2yn'
loop_
_symmetry_equiv_pos_site_id
_symmetry_equiv_pos_as_xyz
1 x,y,z
2 1/2+x,1/2-y,1/2+z
3 -x,-y,-z
4 1/2-x,1/2+y,1/2-z
_cell_length_a                   8.1962(2)
_cell_length_b                   22.7263(9)
_cell_length_c                   10.4369(5)
_cell_angle_alpha                90
_cell_angle_beta                 91.041(2)
_cell_angle_gamma                90
_cell_volume                     1943.75
_cell_formula_units_Z            4
_exptl_crystal_recrystallization_method dichloromethane/hexane
loop_
_atom_site_label
_atom_site_type_symbol
_atom_site_fract_x
_atom_site_fract_y
_atom_site_fract_z
O1 O 0.1620(3) 0.07508(11) 0.54622(19)
O2 O -0.2497(3) 0.08843(11) 0.24691(18)
N1 N -0.0181(3) 0.07473(11) 0.3716(2)
N2 N 0.2581(3) -0.16088(12) -0.0044(2)
H1 H 0.2500 -0.1463 -0.0803
O3 O 0.1829(3) -0.15337(11) 0.20084(19)
N3 N -0.1014(3) 0.10974(13) 0.5564(2)
H2 H -0.0989 0.1235 0.6332
C1 C 0.0277(4) 0.08616(13) 0.5017(3)
C2 C 0.0373(3) -0.00151(14) 0.2167(2)
H3 H -0.0625 -0.0185 0.2360
C3 C -0.1771(3) 0.09079(14) 0.3495(3)
C4 C 0.0877(3) 0.04875(14) 0.2796(2)
C5 C -0.2469(3) 0.11026(15) 0.4759(3)
C6 C 0.1763(4) -0.13472(15) 0.0898(3)
O4 O 0.5427(3) -0.14694(14) 0.1196(2)
C7 C 0.3604(4) -0.21298(15) 0.0150(3)
C8 C 0.1348(4) -0.02699(15) 0.1247(3)
C9 C 0.0798(4) -0.08158(15) 0.0527(3)
H4 H -0.0345 -0.0887 0.0695
H5 H 0.0902 -0.0748 -0.0386
C10 C 0.4849(4) -0.2012(2) 0.1225(3)
C11 C -0.3234(5) 0.17113(17) 0.4656(3)
H6 H -0.3664 0.1822 0.5470
H7 H -0.4099 0.1705 0.4024
H8 H -0.2420 0.1991 0.4408
O5 O 0.5325(4) -0.23813(15) 0.1963(3)
C12 C 0.2369(4) 0.07383(17) 0.2542(3)
H9 H 0.2704 0.1078 0.2968
C13 C 0.2845(4) -0.00142(18) 0.1004(3)
H10 H 0.3514 -0.0181 0.0391
C14 C 0.3359(5) 0.04791(19) 0.1648(4)
H11 H 0.4377 0.0640 0.1482
C15 C -0.3692(4) 0.06446(19) 0.5211(3)
H12 H -0.4137 0.0767 0.6013
H13 H -0.3152 0.0273 0.5321
H14 H -0.4557 0.0606 0.4584
C16 C 0.4544(5) -0.22261(19) -0.1091(3)
H15 H 0.3786 -0.2301 -0.1784
H16 H 0.5264 -0.2557 -0.0987
H17 H 0.5170 -0.1881 -0.1278
C17 C 0.6625(6) -0.1318(3) 0.2169(5)
H18 H 0.6196 -0.1402 0.3000
H19 H 0.6880 -0.0907 0.2110
H20 H 0.7597 -0.1546 0.2046
C18 C 0.2577(6) -0.26640(19) 0.0461(4)
H21 H 0.2002 -0.2595 0.1240
H22 H 0.3271 -0.3001 0.0566
H23 H 0.1806 -0.2734 -0.0225
loop_
_geom_bond_atom_site_label_1
_geom_bond_atom_site_label_2
_geom_bond_site_symmetry_1
_geom_bond_site_symmetry_2
O1 C1 1_555 1_555
O2 C3 1_555 1_555
N1 C1 1_555 1_555
N2 H1 1_555 1_555
O3 C6 1_555 1_555
N3 H2 1_555 1_555
C1 N3 1_555 1_555
C2 H3 1_555 1_555
C3 N1 1_555 1_555
C4 N1 1_555 1_555
C5 N3 1_555 1_555
C6 N2 1_555 1_555
O4 C10 1_555 1_555
C7 N2 1_555 1_555
C8 C2 1_555 1_555
C9 C6 1_555 1_555
H4 C9 1_555 1_555
H5 C9 1_555 1_555
C10 C7 1_555 1_555
C11 C5 1_555 1_555
H6 C11 1_555 1_555
H7 C11 1_555 1_555
H8 C11 1_555 1_555
O5 C10 1_555 1_555
C12 C4 1_555 1_555
H9 C12 1_555 1_555
C13 C8 1_555 1_555
H10 C13 1_555 1_555
C14 C12 1_555 1_555
H11 C14 1_555 1_555
C15 C5 1_555 1_555
H12 C15 1_555 1_555
H13 C15 1_555 1_555
H14 C15 1_555 1_555
C16 C7 1_555 1_555
H15 C16 1_555 1_555
H16 C16 1_555 1_555
H17 C16 1_555 1_555
C17 O4 1_555 1_555
H18 C17 1_555 1_555
H19 C17 1_555 1_555
H20 C17 1_555 1_555
C18 C7 1_555 1_555
H21 C18 1_555 1_555
H22 C18 1_555 1_555
H23 C18 1_555 1_555
C2 C4 1_555 1_555
C3 C5 1_555 1_555
C8 C9 1_555 1_555
C13 C14 1_555 1_555

#END
