
#######################################################################
#
#                 Cambridge Crystallographic Data Centre
#                                CCDC 
#
#######################################################################
#
# If this CIF has been generated from an entry in the Cambridge 
# Structural Database, then it will include bibliographic, chemical, 
# crystal, experimental, refinement or atomic coordinate data resulting 
# from the CCDC's data processing and validation procedures.
#
#######################################################################

data_MUSCIO
_chemical_formula_moiety         'C26 H27 N1 O4'
_chemical_name_systematic        
't-butyl 4-(2-naphthyl)-2,7-dioxo-1,3a,4,5,5a,6,7,8b-octahydrocyclopenta[e]indole-3(2H)-carboxylate'
_symmetry_cell_setting           orthorhombic
_symmetry_space_group_name_H-M   'P 21 21 21'
_symmetry_Int_Tables_number      19
_space_group_name_Hall           'P 2ac 2ab'
loop_
_symmetry_equiv_pos_site_id
_symmetry_equiv_pos_as_xyz
1 x,y,z
2 1/2-x,-y,1/2+z
3 -x,1/2+y,1/2-z
4 1/2+x,1/2-y,-z
_cell_length_a                   6.560(3)
_cell_length_b                   15.009(7)
_cell_length_c                   22.380(10)
_cell_angle_alpha                90
_cell_angle_beta                 90
_cell_angle_gamma                90
_cell_volume                     2203.51
_exptl_crystal_colour            colorless
_exptl_crystal_description       prismatic
_cell_formula_units_Z            4
loop_
_atom_site_label
_atom_site_type_symbol
_atom_site_fract_x
_atom_site_fract_y
_atom_site_fract_z
N1 N 0.1647(4) 0.33221(15) 0.07110(11)
O1 O 0.9367(4) 0.6574(2) 0.01678(14)
O2 O -0.0410(4) 0.31201(18) -0.01227(12)
O3 O -0.0104(5) 0.20249(19) 0.08711(13)
O4 O 0.2409(4) 0.24586(13) 0.14955(10)
C1 C 0.1076(6) 0.4069(2) 0.28441(15)
C2 C 0.2086(8) 0.4008(3) 0.33995(17)
H1 H 0.3396 0.4235 0.3444
C3 C 0.1116(10) 0.3612(3) 0.3873(2)
H2 H 0.1786 0.3572 0.4238
C4 C -0.0853(10) 0.3267(3) 0.3820(2)
H3 H -0.1465 0.2990 0.4146
C5 C -0.1865(8) 0.3335(3) 0.3299(2)
H4 H -0.3182 0.3110 0.3268
C6 C -0.0932(6) 0.3752(2) 0.27886(18)
C7 C -0.1946(6) 0.3827(3) 0.22402(19)
H5 H -0.3287 0.3634 0.2204
C8 C -0.0960(6) 0.4185(2) 0.17580(17)
H6 H -0.1652 0.4235 0.1397
C9 C 0.1096(5) 0.44826(19) 0.17936(14)
C10 C 0.2056(5) 0.4436(2) 0.23270(15)
H7 H 0.3385 0.4646 0.2360
C11 C 0.2145(5) 0.47908(18) 0.12247(13)
H8 H 0.1071 0.5009 0.0958
C12 C 0.3676(5) 0.5560(2) 0.13023(14)
H9 H 0.4845 0.5353 0.1529
H10 H 0.3041 0.6041 0.1524
C13 C 0.4385(5) 0.59066(19) 0.06886(15)
H11 H 0.3209 0.6152 0.0474
C14 C 0.6104(6) 0.6602(2) 0.06923(18)
H12 H 0.5627 0.7166 0.0533
H13 H 0.6607 0.6696 0.1095
C15 C 0.7763(5) 0.6211(2) 0.02969(16)
C16 C 0.7100(5) 0.5312(2) 0.01183(15)
H14 H 0.7868 0.4921 -0.0113
C17 C 0.5247(4) 0.5133(2) 0.03341(13)
C18 C 0.4125(4) 0.42625(18) 0.02941(13)
H15 H 0.5083 0.3798 0.0168
C19 C 0.3189(4) 0.39922(17) 0.09000(12)
H16 H 0.4221 0.3718 0.1157
C20 C 0.2270(5) 0.4244(2) -0.01229(13)
H17 H 0.1542 0.4807 -0.0111
H18 H 0.2677 0.4122 -0.0531
C21 C 0.0968(5) 0.3493(2) 0.01256(15)
C22 C 0.1194(5) 0.2537(2) 0.10200(15)
C23 C 0.2385(6) 0.1627(2) 0.18552(15)
C24 C 0.4007(9) 0.1830(3) 0.2316(2)
H19 H 0.5279 0.1944 0.2118
H20 H 0.4157 0.1330 0.2579
H21 H 0.3614 0.2345 0.2542
C25 C 0.0323(8) 0.1502(3) 0.2145(2)
H22 H -0.0075 0.2044 0.2340
H23 H 0.0400 0.1030 0.2434
H24 H -0.0666 0.1352 0.1845
C26 C 0.2937(9) 0.0834(3) 0.1470(2)
H25 H 0.1851 0.0717 0.1194
H26 H 0.3145 0.0322 0.1719
H27 H 0.4166 0.0961 0.1253
loop_
_geom_bond_atom_site_label_1
_geom_bond_atom_site_label_2
_geom_bond_site_symmetry_1
_geom_bond_site_symmetry_2
N1 C19 1_555 1_555
O1 C15 1_555 1_555
O2 C21 1_555 1_555
O3 C22 1_555 1_555
O4 C22 1_555 1_555
C1 C2 1_555 1_555
C2 H1 1_555 1_555
C3 C2 1_555 1_555
H2 C3 1_555 1_555
C4 C3 1_555 1_555
H3 C4 1_555 1_555
C5 C4 1_555 1_555
H4 C5 1_555 1_555
C6 C1 1_555 1_555
C7 C6 1_555 1_555
H5 C7 1_555 1_555
C8 C7 1_555 1_555
H6 C8 1_555 1_555
C9 C8 1_555 1_555
C10 C1 1_555 1_555
H7 C10 1_555 1_555
C11 C9 1_555 1_555
H8 C11 1_555 1_555
C12 C11 1_555 1_555
H9 C12 1_555 1_555
H10 C12 1_555 1_555
C13 C12 1_555 1_555
H11 C13 1_555 1_555
C14 C13 1_555 1_555
H12 C14 1_555 1_555
H13 C14 1_555 1_555
C15 C14 1_555 1_555
C16 C15 1_555 1_555
H14 C16 1_555 1_555
C17 C13 1_555 1_555
C18 C17 1_555 1_555
H15 C18 1_555 1_555
C19 C11 1_555 1_555
H16 C19 1_555 1_555
C20 C18 1_555 1_555
H17 C20 1_555 1_555
H18 C20 1_555 1_555
C21 N1 1_555 1_555
C22 N1 1_555 1_555
C23 O4 1_555 1_555
C24 C23 1_555 1_555
H19 C24 1_555 1_555
H20 C24 1_555 1_555
H21 C24 1_555 1_555
C25 C23 1_555 1_555
H22 C25 1_555 1_555
H23 C25 1_555 1_555
H24 C25 1_555 1_555
C26 C23 1_555 1_555
H25 C26 1_555 1_555
H26 C26 1_555 1_555
H27 C26 1_555 1_555
C5 C6 1_555 1_555
C9 C10 1_555 1_555
C16 C17 1_555 1_555
C18 C19 1_555 1_555
C20 C21 1_555 1_555

#END
