
#######################################################################
#
#                 Cambridge Crystallographic Data Centre
#                                CCDC 
#
#######################################################################
#
# If this CIF has been generated from an entry in the Cambridge 
# Structural Database, then it will include bibliographic, chemical, 
# crystal, experimental, refinement or atomic coordinate data resulting 
# from the CCDC's data processing and validation procedures.
#
#######################################################################

data_MUSJIT
_chemical_name_common            
(S)-4'-Phenylspiro(adamantane-2,2'-(1,3)oxathiolane)
_chemical_formula_moiety         'C18 H22 O1 S1'
_chemical_name_systematic        
(S)-4'-Phenylspiro(tricyclo(3.3.1.1^3,7^)decane-2,2'-(1,3)oxathiolane)
_symmetry_cell_setting           orthorhombic
_symmetry_space_group_name_H-M   'P 21 21 21'
_symmetry_Int_Tables_number      19
_space_group_name_Hall           'P 2ac 2ab'
loop_
_symmetry_equiv_pos_site_id
_symmetry_equiv_pos_as_xyz
1 x,y,z
2 1/2-x,-y,1/2+z
3 1/2+x,1/2-y,-z
4 -x,1/2+y,1/2-z
_cell_length_a                   8.7970(3)
_cell_length_b                   10.6973(3)
_cell_length_c                   15.8944(6)
_cell_angle_alpha                90
_cell_angle_beta                 90
_cell_angle_gamma                90
_cell_volume                     1495.73
_exptl_crystal_colour            colorless
_exptl_crystal_description       needle
_chemical_melting_point          '44.3-46.6 deg.C'
_cell_formula_units_Z            4
_exptl_crystal_recrystallization_method dichloromethane/isopropanol
loop_
_atom_site_label
_atom_site_type_symbol
_atom_site_fract_x
_atom_site_fract_y
_atom_site_fract_z
S1 S 0.15818(4) 0.50663(4) 0.32944(2)
O1 O 0.0727(1) 0.5778(1) 0.48155(6)
C1 C 0.2049(2) 0.5217(2) 0.44358(8)
C2 C -0.0323(2) 0.5706(1) 0.34440(9)
C3 C -0.0615(2) 0.5444(1) 0.43692(9)
C4 C 0.2407(2) 0.3957(1) 0.4807(1)
C5 C 0.3830(2) 0.3434(2) 0.4400(1)
C6 C 0.5171(2) 0.4305(2) 0.4555(1)
C7 C 0.5446(2) 0.4436(2) 0.5497(1)
C8 C 0.4022(2) 0.4950(2) 0.59121(9)
C9 C 0.3642(2) 0.6226(2) 0.5544(1)
C10 C 0.3379(2) 0.6103(1) 0.45941(9)
C11 C 0.2673(2) 0.4081(2) 0.5755(1)
C12 C 0.4804(2) 0.5585(2) 0.4188(1)
C13 C -0.1518(2) 0.5163(1) 0.28681(8)
C14 C -0.2532(2) 0.5967(1) 0.24626(9)
C15 C -0.3706(2) 0.5491(2) 0.1976(1)
C16 C -0.3879(2) 0.4223(2) 0.1898(1)
C17 C -0.2874(2) 0.3422(2) 0.2294(1)
C18 C -0.1702(2) 0.3897(1) 0.27668(9)
H1 H -0.029 0.659 0.336
H2 H 0.158 0.340 0.471
H3 H 0.606 0.398 0.429
H4 H 0.419 0.503 0.650
H5 H 0.316 0.690 0.436
H6 H -0.242 0.685 0.252
H7 H -0.439 0.604 0.170
H8 H -0.469 0.389 0.157
H9 H -0.299 0.254 0.224
H10 H -0.101 0.334 0.303
H11 H -0.145 0.593 0.456
H12 H -0.083 0.458 0.445
H13 H 0.405 0.264 0.463
H14 H 0.367 0.335 0.381
H15 H 0.568 0.364 0.573
H16 H 0.627 0.499 0.559
H17 H 0.275 0.654 0.580
H18 H 0.446 0.678 0.564
H19 H 0.288 0.328 0.599
H20 H 0.179 0.442 0.601
H21 H 0.465 0.551 0.360
H22 H 0.563 0.614 0.429
loop_
_geom_bond_atom_site_label_1
_geom_bond_atom_site_label_2
_geom_bond_site_symmetry_1
_geom_bond_site_symmetry_2
S1 C1 1_555 1_555
O1 C1 1_555 1_555
C1 C4 1_555 1_555
C2 S1 1_555 1_555
C3 O1 1_555 1_555
C4 C5 1_555 1_555
C5 C6 1_555 1_555
C6 C7 1_555 1_555
C7 C8 1_555 1_555
C8 C9 1_555 1_555
C9 C10 1_555 1_555
C10 C1 1_555 1_555
C11 C4 1_555 1_555
C12 C6 1_555 1_555
C13 C2 1_555 1_555
C14 C13 1_555 1_555
C15 C14 1_555 1_555
C16 C15 1_555 1_555
C17 C16 1_555 1_555
C18 C13 1_555 1_555
H1 C2 1_555 1_555
H2 C4 1_555 1_555
H3 C6 1_555 1_555
H4 C8 1_555 1_555
H5 C10 1_555 1_555
H6 C14 1_555 1_555
H7 C15 1_555 1_555
H8 C16 1_555 1_555
H9 C17 1_555 1_555
H10 C18 1_555 1_555
H11 C3 1_555 1_555
H12 C3 1_555 1_555
H13 C5 1_555 1_555
H14 C5 1_555 1_555
H15 C7 1_555 1_555
H16 C7 1_555 1_555
H17 C9 1_555 1_555
H18 C9 1_555 1_555
H19 C11 1_555 1_555
H20 C11 1_555 1_555
H21 C12 1_555 1_555
H22 C12 1_555 1_555
C2 C3 1_555 1_555
C8 C11 1_555 1_555
C10 C12 1_555 1_555
C17 C18 1_555 1_555

#END
