
#######################################################################
#
#                 Cambridge Crystallographic Data Centre
#                                CCDC 
#
#######################################################################
#
# If this CIF has been generated from an entry in the Cambridge 
# Structural Database, then it will include bibliographic, chemical, 
# crystal, experimental, refinement or atomic coordinate data resulting 
# from the CCDC's data processing and validation procedures.
#
#######################################################################

data_MUSMAO
_chemical_formula_moiety         'C26 H25 N1 O3'
_chemical_name_systematic        
2-Benzyl-3-(1-(hydroxy-(4-methoxyphenyl)methyl)allyl)-2,3-dihydroisoindol-1-one
_symmetry_cell_setting           monoclinic
_symmetry_space_group_name_H-M   'P 21/n'
_symmetry_Int_Tables_number      14
_space_group_name_Hall           '-P 2yn'
loop_
_symmetry_equiv_pos_site_id
_symmetry_equiv_pos_as_xyz
1 x,y,z
2 1/2+x,1/2-y,1/2+z
3 -x,-y,-z
4 1/2-x,1/2+y,1/2-z
_cell_length_a                   12.72460(10)
_cell_length_b                   12.4241(2)
_cell_length_c                   13.3681(2)
_cell_angle_alpha                90
_cell_angle_beta                 95.1140(6)
_cell_angle_gamma                90
_cell_volume                     2104.97
_exptl_crystal_colour            colorless
_exptl_crystal_description       prism
_cell_formula_units_Z            4
loop_
_atom_site_label
_atom_site_type_symbol
_atom_site_fract_x
_atom_site_fract_y
_atom_site_fract_z
C1 C 0.22687(8) 0.83268(9) 0.41570(8)
H1 H 0.1956 0.8776 0.4676
C2 C 0.12354(8) 0.79837(9) 0.26262(8)
C3 C 0.11904(8) 0.70185(9) 0.32709(8)
C4 C 0.18015(8) 0.72067(9) 0.41704(8)
C5 C 0.18716(9) 0.64242(10) 0.49153(9)
H2 H 0.2277 0.6545 0.5537
C6 C 0.13335(9) 0.54581(10) 0.47295(9)
H3 H 0.1384 0.4911 0.5228
C7 C 0.07229(9) 0.52778(10) 0.38274(9)
H4 H 0.0361 0.4613 0.3719
C8 C 0.06390(9) 0.60617(10) 0.30865(9)
H5 H 0.0218 0.5949 0.2472
C9 C 0.34866(8) 0.84159(9) 0.43102(8)
H6 H 0.3671 0.9183 0.4184
C10 C 0.39190(8) 0.81510(9) 0.53998(8)
H7 H 0.3860 0.7358 0.5508
C11 C 0.33345(9) 0.87295(9) 0.61795(8)
C12 C 0.31819(10) 0.98439(10) 0.61380(9)
H8 H 0.3482 1.0252 0.5634
C13 C 0.26005(11) 1.03597(10) 0.68207(9)
H9 H 0.2497 1.1116 0.6777
C14 C 0.21649(9) 0.97771(10) 0.75737(9)
C15 C 0.23451(10) 0.86797(10) 0.76551(9)
H10 H 0.2075 0.8279 0.8181
C16 C 0.29287(9) 0.81696(10) 0.69548(9)
H11 H 0.3051 0.7417 0.7012
C17 C 0.09935(11) 0.97915(12) 0.88831(11)
H12 H 0.0604 1.0303 0.9268
H13 H 0.1486 0.9382 0.9343
H14 H 0.0496 0.9296 0.8519
C18 C 0.40027(9) 0.77439(10) 0.35570(9)
H15 H 0.3778 0.7018 0.3469
C19 C 0.47422(10) 0.80901(11) 0.30121(10)
H16 H 0.4986 0.8811 0.3080
H17 H 0.5034 0.7619 0.2550
C20 C 0.20237(9) 0.97984(9) 0.28120(8)
H18 H 0.1677 0.9885 0.2124
H19 H 0.2789 0.9924 0.2785
C21 C 0.15883(9) 1.06280(9) 0.34925(8)
C22 C 0.05354(10) 1.05959(10) 0.36945(11)
H20 H 0.0087 1.0044 0.3409
C23 C 0.01385(12) 1.13613(12) 0.43080(12)
H21 H -0.0582 1.1334 0.4440
C24 C 0.07833(14) 1.21697(12) 0.47321(11)
H22 H 0.0508 1.2693 0.5156
C25 C 0.18282(13) 1.22086(11) 0.45338(11)
H23 H 0.2274 1.2764 0.4818
C26 C 0.22289(10) 1.14374(10) 0.39194(9)
H24 H 0.2951 1.1465 0.3790
N1 N 0.18583(7) 0.87043(7) 0.31547(7)
O1 O 0.07963(7) 0.81335(7) 0.17730(6)
O2 O 0.50114(6) 0.84398(7) 0.54826(6)
H25 H 0.5351 0.8018 0.5882
O3 O 0.15671(8) 1.03626(7) 0.81850(7)
loop_
_geom_bond_atom_site_label_1
_geom_bond_atom_site_label_2
_geom_bond_site_symmetry_1
_geom_bond_site_symmetry_2
C1 H1 1_555 1_555
C2 C3 1_555 1_555
C3 C4 1_555 1_555
C4 C1 1_555 1_555
C5 C4 1_555 1_555
H2 C5 1_555 1_555
C6 C5 1_555 1_555
H3 C6 1_555 1_555
C7 C6 1_555 1_555
H4 C7 1_555 1_555
C8 C3 1_555 1_555
H5 C8 1_555 1_555
C9 C1 1_555 1_555
H6 C9 1_555 1_555
C10 C9 1_555 1_555
H7 C10 1_555 1_555
C11 C10 1_555 1_555
C12 C11 1_555 1_555
H8 C12 1_555 1_555
C13 C12 1_555 1_555
H9 C13 1_555 1_555
C14 C13 1_555 1_555
C15 C14 1_555 1_555
H10 C15 1_555 1_555
C16 C11 1_555 1_555
H11 C16 1_555 1_555
C17 H12 1_555 1_555
H13 C17 1_555 1_555
H14 C17 1_555 1_555
C18 C9 1_555 1_555
H15 C18 1_555 1_555
C19 C18 1_555 1_555
H16 C19 1_555 1_555
H17 C19 1_555 1_555
C20 H18 1_555 1_555
H19 C20 1_555 1_555
C21 C20 1_555 1_555
C22 C21 1_555 1_555
H20 C22 1_555 1_555
C23 C22 1_555 1_555
H21 C23 1_555 1_555
C24 C23 1_555 1_555
H22 C24 1_555 1_555
C25 C24 1_555 1_555
H23 C25 1_555 1_555
C26 C21 1_555 1_555
H24 C26 1_555 1_555
N1 C1 1_555 1_555
O1 C2 1_555 1_555
O2 C10 1_555 1_555
H25 O2 1_555 1_555
O3 C14 1_555 1_555
C2 N1 1_555 1_555
C7 C8 1_555 1_555
C15 C16 1_555 1_555
C17 O3 1_555 1_555
C20 N1 1_555 1_555
C25 C26 1_555 1_555

#END
