
#######################################################################
#
#                 Cambridge Crystallographic Data Centre
#                                CCDC 
#
#######################################################################
#
# If this CIF has been generated from an entry in the Cambridge 
# Structural Database, then it will include bibliographic, chemical, 
# crystal, experimental, refinement or atomic coordinate data resulting 
# from the CCDC's data processing and validation procedures.
#
#######################################################################

data_MUTMEU
_chemical_formula_moiety         
'C10 H12 N3 1+,0.5(C8 H4 O4 2-),C10 H11 N3,0.5(C8 H6 O4)'
_chemical_name_systematic        
'5,7-Dimethyl-1,8-naphthyridinio-2-amine hemikis(terephthalate) 5,7-dimethyl-1,8-naphthyridine-2-amine hemikis(terephthalic acid)'
_symmetry_cell_setting           triclinic
_symmetry_space_group_name_H-M   'P -1'
_symmetry_Int_Tables_number      2
_space_group_name_Hall           '-P 1'
loop_
_symmetry_equiv_pos_site_id
_symmetry_equiv_pos_as_xyz
1 x,y,z
2 -x,-y,-z
_cell_length_a                   7.7530(10)
_cell_length_b                   12.3651(13)
_cell_length_c                   13.5561(15)
_cell_angle_alpha                100.946(2)
_cell_angle_beta                 100.291(2)
_cell_angle_gamma                92.5200(10)
_cell_volume                     1251.32
_chemical_melting_point          196-198deg.C
_cell_formula_units_Z            2
loop_
_atom_site_label
_atom_site_type_symbol
_atom_site_fract_x
_atom_site_fract_y
_atom_site_fract_z
N1 N 0.0530(3) 0.5527(2) 0.8137(2)
H1 H 0.0294 0.4995 0.7611
N2 N 0.1948(3) 0.4320(2) 0.9039(2)
N3 N -0.0931(4) 0.6673(2) 0.7190(2)
H2 H -0.1179 0.6128 0.6676
H3 H -0.1284 0.7312 0.7134
C9 C 0.0000(5) 0.6527(3) 0.8074(3)
C10 C 0.0400(5) 0.7424(3) 0.8931(3)
H11 H 0.0056 0.8123 0.8868
C11 C 0.1269(5) 0.7256(3) 0.9823(3)
H12 H 0.1505 0.7839 1.0386
C12 C 0.1842(4) 0.6201(3) 0.9927(3)
C13 C 0.1451(4) 0.5354(3) 0.9045(2)
C14 C 0.2832(4) 0.4103(3) 0.9909(3)
C15 C 0.3223(4) 0.4902(3) 1.0803(3)
H13 H 0.3823 0.4713 1.1396
C16 C 0.2752(5) 0.5956(3) 1.0838(3)
C17 C 0.3357(5) 0.2949(3) 0.9879(3)
H14 H 0.2383 0.2486 0.9957
H15 H 0.4332 0.2948 1.0427
H16 H 0.3693 0.2672 0.9236
C18 C 0.3221(6) 0.6809(4) 1.1810(3)
H17 H 0.3665 0.6457 1.2367
H18 H 0.2193 0.7172 1.1944
H19 H 0.4105 0.7343 1.1742
N4 N 0.9509(3) 0.36488(19) 0.63261(19)
N5 N 0.8060(3) 0.4843(2) 0.5429(2)
N6 N 1.1062(4) 0.2538(2) 0.7273(2)
H4 H 1.1382 0.3102 0.7763
H5 H 1.1410 0.1901 0.7342
C19 C 1.0039(4) 0.2648(3) 0.6418(3)
C20 C 0.9528(4) 0.1729(3) 0.5589(3)
H20 H 0.9880 0.1033 0.5659
C21 C 0.8543(4) 0.1863(3) 0.4708(3)
H21 H 0.8223 0.1260 0.4168
C22 C 0.7982(4) 0.2921(3) 0.4594(2)
C23 C 0.8494(4) 0.3802(2) 0.5428(2)
C24 C 0.7104(4) 0.5041(3) 0.4566(3)
C25 C 0.6540(4) 0.4210(3) 0.3714(3)
H22 H 0.5864 0.4382 0.3133
C26 C 0.6950(4) 0.3138(3) 0.3701(2)
C27 C 0.6610(4) 0.6201(3) 0.4588(3)
H23 H 0.5527 0.6290 0.4834
H24 H 0.6465 0.6352 0.3910
H25 H 0.7522 0.6707 0.5035
C28 C 0.6300(5) 0.2240(3) 0.2778(3)
H26 H 0.5553 0.1696 0.2954
H27 H 0.7284 0.1900 0.2546
H28 H 0.5647 0.2551 0.2243
O1 O 0.0528(3) 0.0256(2) 0.87434(16)
O2 O 0.2277(3) 0.05044(18) 0.76592(16)
C1 C 0.2029(4) 0.0313(2) 0.8482(2)
C2 C 0.3561(4) 0.0143(2) 0.9274(2)
C3 C 0.5229(4) 0.0149(2) 0.9049(2)
H7 H 0.5392 0.0249 0.8408
C4 C 0.3338(4) -0.0006(2) 1.0229(2)
H8 H 0.2220 -0.0011 1.0388
O1A O 0.9472(3) -0.0256(2) 1.12566(16)
O2A O 0.7723(3) -0.05044(18) 1.23408(16)
C1A C 0.7971(4) -0.0313(2) 1.1518(2)
C2A C 0.6439(4) -0.0143(2) 1.0726(2)
C3A C 0.4771(4) -0.0149(2) 1.0951(2)
H7A H 0.4608 -0.0249 1.1592
C4A C 0.6662(4) 0.0006(2) 0.9771(2)
H8A H 0.7780 0.0011 0.9612
O3 O 0.8023(3) 0.04460(19) 0.74239(16)
H6 H 0.8757 0.0277 0.7872
O4 O 0.8197(3) -0.1280(2) 0.66528(19)
C5 C 0.7570(4) -0.0386(3) 0.6689(2)
C6 C 0.6232(4) -0.0183(2) 0.5822(2)
C7 C 0.5185(4) 0.0684(3) 0.5946(2)
H9 H 0.5293 0.1148 0.6584
C8 C 0.6027(4) -0.0870(2) 0.4873(2)
H10 H 0.6714 -0.1465 0.4783
O3A O 0.1977(3) -0.04460(19) 0.25761(16)
H6A H 0.1243 -0.0277 0.2128
O4A O 0.1803(3) 0.1280(2) 0.33472(19)
C5A C 0.2430(4) 0.0386(3) 0.3311(2)
C6A C 0.3768(4) 0.0183(2) 0.4178(2)
C7A C 0.4815(4) -0.0684(3) 0.4054(2)
H9A H 0.4707 -0.1148 0.3416
C8A C 0.3973(4) 0.0870(2) 0.5127(2)
H10A H 0.3286 0.1465 0.5217
H29? H 0.9806 0.4199 0.6832
loop_
_geom_bond_atom_site_label_1
_geom_bond_atom_site_label_2
_geom_bond_site_symmetry_1
_geom_bond_site_symmetry_2
N1 H1 1_555 1_555
N2 C13 1_555 1_555
N3 H2 1_555 1_555
H3 N3 1_555 1_555
N4 C19 1_555 1_555
N5 C23 1_555 1_555
N6 H4 1_555 1_555
H5 N6 1_555 1_555
O1 C1 1_555 1_555
O2 C1 1_555 1_555
O3 H6 1_555 1_555
O4 C5 1_555 1_555
C1 C2 1_555 1_555
C2 C3 1_555 1_555
C3 H7 1_555 1_555
C4 C2 1_555 1_555
H8 C4 1_555 1_555
C5 O3 1_555 1_555
C6 C5 1_555 1_555
C7 C6 1_555 1_555
H9 C7 1_555 1_555
C8 C6 1_555 1_555
H10 C8 1_555 1_555
C9 N1 1_555 1_555
C10 C9 1_555 1_555
H11 C10 1_555 1_555
C11 C10 1_555 1_555
H12 C11 1_555 1_555
C12 C11 1_555 1_555
C13 N1 1_555 1_555
C14 N2 1_555 1_555
C15 C14 1_555 1_555
H13 C15 1_555 1_555
C16 C12 1_555 1_555
C17 C14 1_555 1_555
H14 C17 1_555 1_555
H15 C17 1_555 1_555
H16 C17 1_555 1_555
C18 C16 1_555 1_555
H17 C18 1_555 1_555
H18 C18 1_555 1_555
H19 C18 1_555 1_555
C19 N6 1_555 1_555
C20 C19 1_555 1_555
H20 C20 1_555 1_555
C21 C20 1_555 1_555
H21 C21 1_555 1_555
C22 C21 1_555 1_555
C23 N4 1_555 1_555
C24 N5 1_555 1_555
C25 C24 1_555 1_555
H22 C25 1_555 1_555
C26 C22 1_555 1_555
C27 C24 1_555 1_555
H23 C27 1_555 1_555
H24 C27 1_555 1_555
H25 C27 1_555 1_555
C28 C26 1_555 1_555
H26 C28 1_555 1_555
H27 C28 1_555 1_555
H28 C28 1_555 1_555
O1A C1A 1_555 1_555
O2A C1A 1_555 1_555
O3A H6A 1_555 1_555
O4A C5A 1_555 1_555
C1A C2A 1_555 1_555
C2A C3A 1_555 1_555
C3A C4 1_555 1_555
H7A C3A 1_555 1_555
C4A C3 1_555 1_555
H8A C4A 1_555 1_555
C5A O3A 1_555 1_555
C6A C5A 1_555 1_555
C7A C8 1_555 1_555
H9A C7A 1_555 1_555
C8A C7 1_555 1_555
H10A C8A 1_555 1_555
N3 C9 1_555 1_555
C12 C13 1_555 1_555
C15 C16 1_555 1_555
C22 C23 1_555 1_555
C25 C26 1_555 1_555
C2A C4A 1_555 1_555
C6A C7A 1_555 1_555
C6A C8A 1_555 1_555

#END
