
#######################################################################
#
#                 Cambridge Crystallographic Data Centre
#                                CCDC 
#
#######################################################################
#
# If this CIF has been generated from an entry in the Cambridge 
# Structural Database, then it will include bibliographic, chemical, 
# crystal, experimental, refinement or atomic coordinate data resulting 
# from the CCDC's data processing and validation procedures.
#
#######################################################################

data_MUVDAK
_chemical_formula_moiety         'C25 H25 N3 O6'
_chemical_name_systematic        
5-methoxy-2,8-dimethyl-9b-(4-methylbenzoyl)-3a,3b,4,6a,6b,9a,9b,9c-octahydropyrrolo[3,4-a]pyrrolo[3',4':3,4]pyrrolo[2,1,5-cd]indolizine-1,3,7,9(2H,8H)-tetrone
_symmetry_cell_setting           triclinic
_symmetry_space_group_name_H-M   'P -1'
_symmetry_Int_Tables_number      2
_space_group_name_Hall           '-P 1'
loop_
_symmetry_equiv_pos_site_id
_symmetry_equiv_pos_as_xyz
1 x,y,z
2 -x,-y,-z
_cell_length_a                   9.2577(13)
_cell_length_b                   10.8590(16)
_cell_length_c                   12.9527(19)
_cell_angle_alpha                67.872(4)
_cell_angle_beta                 82.169(4)
_cell_angle_gamma                71.684(4)
_cell_volume                     1144.87
_exptl_crystal_colour            colorless
_exptl_crystal_description       block
_cell_formula_units_Z            2
loop_
_atom_site_label
_atom_site_type_symbol
_atom_site_fract_x
_atom_site_fract_y
_atom_site_fract_z
C1 C 0.1357(2) 0.8217(2) 0.50759(16)
H1 H 0.1465 0.7248 0.5469
H2 H 0.0299 0.8710 0.4946
H3 H 0.1763 0.8570 0.5514
C2 C 0.30697(18) 0.73329(18) 0.36884(15)
C3 C 0.37123(18) 0.79178(17) 0.25271(14)
H4 H 0.3295 0.7668 0.2003
C4 C 0.31642(19) 0.94973(17) 0.22371(14)
H5 H 0.2566 0.9947 0.1557
C5 C 0.2175(2) 0.96983(19) 0.32262(16)
C6 C 0.46556(19) 0.99643(17) 0.20466(13)
H6 H 0.4847 1.0322 0.1240
C7 C 0.4674(2) 1.10551(19) 0.24881(15)
H7 H 0.4008 1.1940 0.2196
C8 C 0.5618(2) 1.07933(19) 0.32856(15)
C9 C 0.4908(3) 1.3148(2) 0.3147(3)
H8 H 0.5194 1.3447 0.2371
H9 H 0.5120 1.3720 0.3485
H10 H 0.3840 1.3225 0.3222
C10 C 0.6674(2) 0.93927(19) 0.38650(15)
H11 H 0.6714 0.9233 0.4651
H12 H 0.7692 0.9332 0.3544
C11 C 0.60755(18) 0.83225(17) 0.37193(12)
H13 H 0.5071 0.8378 0.4086
C12 C 0.8680(2) 0.6478(2) 0.38204(18)
C13 C 0.6984(2) 0.67993(18) 0.40572(14)
H14 H 0.6781 0.6305 0.4844
C14 C 0.64096(18) 0.62425(16) 0.33111(13)
H15 H 0.5750 0.5666 0.3741
C15 C 0.78363(19) 0.53790(17) 0.29157(14)
C16 C 1.0637(2) 0.4959(3) 0.2939(2)
H16 H 1.1326 0.5173 0.3291
H17 H 1.0785 0.5318 0.2145
H18 H 1.0828 0.3971 0.3189
C17 C 0.54917(17) 0.75611(16) 0.23847(12)
C18 C 0.5942(2) 0.75188(18) 0.11892(14)
C19 C 0.7475(2) 0.75988(18) 0.06680(13)
C20 C 0.8026(2) 0.6929(2) -0.01015(15)
H19 H 0.7439 0.6468 -0.0259
C21 C 0.9418(3) 0.6939(2) -0.06309(17)
H20 H 0.9751 0.6488 -0.1141
C22 C 1.0332(3) 0.7605(2) -0.04196(18)
C23 C 1.1854(4) 0.7630(4) -0.1011(3)
H21 H 1.2134 0.8404 -0.0998
H22 H 1.1782 0.7718 -0.1769
H23 H 1.2612 0.6784 -0.0640
C24 C 0.9793(3) 0.8259(2) 0.03471(19)
H24 H 1.0392 0.8706 0.0510
C25 C 0.8388(2) 0.8267(2) 0.08807(16)
H25 H 0.8056 0.8726 0.1386
N1 N 0.21855(16) 0.84061(15) 0.40085(12)
N2 N 0.90688(16) 0.55923(16) 0.32304(13)
N3 N 0.58814(15) 0.86969(13) 0.25172(10)
O1 O 0.32670(15) 0.61188(13) 0.42607(13)
O2 O 0.14810(19) 1.07755(15) 0.33457(14)
O3 O 0.57484(17) 1.17476(15) 0.36830(13)
O4 O 0.95814(18) 0.6867(2) 0.41141(19)
O5 O 0.79186(16) 0.46234(13) 0.24146(11)
O6 O 0.50407(17) 0.7370(2) 0.06865(12)
loop_
_geom_bond_atom_site_label_1
_geom_bond_atom_site_label_2
_geom_bond_site_symmetry_1
_geom_bond_site_symmetry_2
C1 H1 1_555 1_555
H2 C1 1_555 1_555
H3 C1 1_555 1_555
C2 C3 1_555 1_555
C3 H4 1_555 1_555
C4 C3 1_555 1_555
H5 C4 1_555 1_555
C5 C4 1_555 1_555
C6 C4 1_555 1_555
H6 C6 1_555 1_555
C7 C6 1_555 1_555
H7 C7 1_555 1_555
C8 C7 1_555 1_555
C9 H8 1_555 1_555
H9 C9 1_555 1_555
H10 C9 1_555 1_555
C10 C8 1_555 1_555
H11 C10 1_555 1_555
H12 C10 1_555 1_555
C11 C10 1_555 1_555
H13 C11 1_555 1_555
C12 C13 1_555 1_555
C13 C11 1_555 1_555
H14 C13 1_555 1_555
C14 C13 1_555 1_555
H15 C14 1_555 1_555
C15 C14 1_555 1_555
C16 H16 1_555 1_555
H17 C16 1_555 1_555
H18 C16 1_555 1_555
C17 C3 1_555 1_555
C18 C17 1_555 1_555
C19 C18 1_555 1_555
C20 C19 1_555 1_555
H19 C20 1_555 1_555
C21 C20 1_555 1_555
H20 C21 1_555 1_555
C22 C21 1_555 1_555
C23 C22 1_555 1_555
H21 C23 1_555 1_555
H22 C23 1_555 1_555
H23 C23 1_555 1_555
C24 C22 1_555 1_555
H24 C24 1_555 1_555
C25 C19 1_555 1_555
H25 C25 1_555 1_555
N1 C1 1_555 1_555
N2 C12 1_555 1_555
N3 C6 1_555 1_555
O1 C2 1_555 1_555
O2 C5 1_555 1_555
O3 C8 1_555 1_555
O4 C12 1_555 1_555
O5 C15 1_555 1_555
O6 C18 1_555 1_555
C2 N1 1_555 1_555
C5 N1 1_555 1_555
C9 O3 1_555 1_555
C11 N3 1_555 1_555
C14 C17 1_555 1_555
C15 N2 1_555 1_555
C16 N2 1_555 1_555
C17 N3 1_555 1_555
C24 C25 1_555 1_555

#END
