
#######################################################################
#
#                 Cambridge Crystallographic Data Centre
#                                CCDC 
#
#######################################################################
#
# If this CIF has been generated from an entry in the Cambridge 
# Structural Database, then it will include bibliographic, chemical, 
# crystal, experimental, refinement or atomic coordinate data resulting 
# from the CCDC's data processing and validation procedures.
#
#######################################################################

data_MUVMIZ
_chemical_compound_source        'fungus Cladobotryum varium CL12284'
_chemical_name_common            'CJ-15696 hemiacetal'
_chemical_formula_moiety         'C20 H23 N1 O4'
_chemical_name_systematic        
3-(Hydroxy(methoxy)methyl)-3-methyl-2-(1-methylpropenyl)-5-phenyl-2,3-dihydrofuro(2,3-b)pyridin-4-ol
_chemical_properties_biological  
'antibacterial activity against several drug-resistant bacteria'
_symmetry_cell_setting           rhombohedral
_symmetry_space_group_name_H-M   'R 3'
_symmetry_Int_Tables_number      146
_space_group_name_Hall           'R 3'
loop_
_symmetry_equiv_pos_site_id
_symmetry_equiv_pos_as_xyz
1 x,y,z
2 -y,x-y,z
3 -x+y,-x,z
4 1/3+x,2/3+y,2/3+z
5 1/3-y,2/3+x-y,2/3+z
6 1/3-x+y,2/3-x,2/3+z
7 2/3+x,1/3+y,1/3+z
8 2/3-y,1/3+x-y,1/3+z
9 2/3-x+y,1/3-x,1/3+z
_cell_length_a                   19.893(1)
_cell_length_b                   19.893(1)
_cell_length_c                   13.177(1)
_cell_angle_alpha                90
_cell_angle_beta                 90
_cell_angle_gamma                120
_cell_volume                     4515.94
_exptl_crystal_colour            colorless
_exptl_crystal_description       needles
_chemical_melting_point          '198-199 deg.C'
_cell_formula_units_Z            9
_exptl_crystal_recrystallization_method n-hexane/methanol
loop_
_atom_site_label
_atom_site_type_symbol
_atom_site_fract_x
_atom_site_fract_y
_atom_site_fract_z
C1 C 0.9483(4) 0.4598(4) 0.5130(7)
C2 C 1.0200(5) 0.5283(4) 0.5012(7)
C3 C 1.0662(4) 0.5547(4) 0.5877(7)
N1 N 1.0496(4) 0.5200(4) 0.6804(6)
C4 C 0.9825(4) 0.4567(4) 0.6844(7)
C5 C 0.9303(4) 0.4216(4) 0.6064(7)
C6 C 0.8585(4) 0.3512(4) 0.6506(7)
C7 C 0.8935(4) 0.3399(4) 0.7514(7)
O1 O 0.9587(3) 0.4176(3) 0.7740(6)
C8 C 1.0472(4) 0.5697(4) 0.4053(7)
C9 C 1.0010(5) 0.5871(5) 0.3439(7)
C10 C 1.0283(6) 0.6287(5) 0.2555(8)
C11 C 1.1022(7) 0.6557(5) 0.2272(8)
C12 C 1.1504(6) 0.6413(5) 0.2832(9)
C13 C 1.1232(5) 0.5976(5) 0.3740(8)
O2 O 0.9009(3) 0.4323(3) 0.4322(6)
C14 C 0.7960(4) 0.3738(4) 0.6759(8)
C15 C 0.8228(4) 0.2768(4) 0.5859(7)
O3 O 0.8006(3) 0.2909(3) 0.4903(6)
O4 O 0.7584(3) 0.2214(3) 0.6407(6)
C16 C 0.7318(5) 0.1445(5) 0.6082(9)
C17 C 0.9221(4) 0.2824(5) 0.7510(7)
C18 C 0.9937(5) 0.3028(6) 0.6876(8)
C19 C 0.8877(5) 0.2199(4) 0.8064(7)
C20 C 0.9064(7) 0.1571(6) 0.8161(10)
H1 H 1.1145 0.6026 0.5818
H2 H 0.8524 0.3176 0.8005
H3 H 0.9484 0.5696 0.3643
H4 H 0.9946 0.6384 0.2135
H5 H 1.1213 0.6864 0.1667
H6 H 1.2027 0.6600 0.2607
H7 H 1.1576 0.5876 0.4140
H8 H 0.8547(21) 0.3855(21) 0.4444(22)
H9 H 0.7510 0.3296 0.7035
H10 H 0.7819 0.3906 0.6153
H11 H 0.8164 0.4152 0.7248
H12 H 0.8591 0.2593 0.5739
H13 H 0.8009(20) 0.2852(20) 0.4132(22)
H14 H 0.6877 0.1093 0.6480
H15 H 0.7724 0.1322 0.6162
H16 H 0.7171 0.1397 0.5380
H17 H 1.0098 0.3507 0.6523
H18 H 0.9819 0.2622 0.6393
H19 H 1.0348 0.3084 0.7314
H20 H 0.8442 0.2139 0.8454
H21 H 0.8708 0.1186 0.8626
H22 H 0.9584 0.1786 0.8416
H23 H 0.9027 0.1336 0.7512
loop_
_geom_bond_atom_site_label_1
_geom_bond_atom_site_label_2
_geom_bond_site_symmetry_1
_geom_bond_site_symmetry_2
C1 C2 1_555 1_555
C2 C3 1_555 1_555
C3 N1 1_555 1_555
N1 C4 1_555 1_555
C4 C5 1_555 1_555
C5 C1 1_555 1_555
C6 C5 1_555 1_555
C7 C6 1_555 1_555
O1 C4 1_555 1_555
C8 C2 1_555 1_555
C9 C8 1_555 1_555
C10 C9 1_555 1_555
C11 C10 1_555 1_555
C12 C11 1_555 1_555
C13 C8 1_555 1_555
O2 C1 1_555 1_555
C14 C6 1_555 1_555
C15 C6 1_555 1_555
O3 C15 1_555 1_555
O4 C15 1_555 1_555
C16 O4 1_555 1_555
C17 C7 1_555 1_555
C18 C17 1_555 1_555
C19 C17 1_555 1_555
C20 C19 1_555 1_555
H1 C3 1_555 1_555
H2 C7 1_555 1_555
H3 C9 1_555 1_555
H4 C10 1_555 1_555
H5 C11 1_555 1_555
H6 C12 1_555 1_555
H7 C13 1_555 1_555
H8 O2 1_555 1_555
H9 C14 1_555 1_555
H10 C14 1_555 1_555
H11 C14 1_555 1_555
H12 C15 1_555 1_555
H13 O3 1_555 1_555
H14 C16 1_555 1_555
H15 C16 1_555 1_555
H16 C16 1_555 1_555
H17 C18 1_555 1_555
H18 C18 1_555 1_555
H19 C18 1_555 1_555
H20 C19 1_555 1_555
H21 C20 1_555 1_555
H22 C20 1_555 1_555
H23 C20 1_555 1_555
C7 O1 1_555 1_555
C12 C13 1_555 1_555

#END
