
#######################################################################
#
#                 Cambridge Crystallographic Data Centre
#                                CCDC 
#
#######################################################################
#
# If this CIF has been generated from an entry in the Cambridge 
# Structural Database, then it will include bibliographic, chemical, 
# crystal, experimental, refinement or atomic coordinate data resulting 
# from the CCDC's data processing and validation procedures.
#
#######################################################################

data_MUVNIB01
_chemical_name_common            
'2,3,6,7,10,11,14,15,18,19,22,23,26,27,30,31-hexadecaethylcyclo[8]pyrrole dichloride dihydrate'
_chemical_formula_moiety         'C64 H88 N8 2+,2(H2 O1),2(Cl1 1-)'
_chemical_name_systematic        
'3,4,7,8,11,12,15,16,19,20,23,24,27,28,31,32-hexadecaethyl-35,36,37,38,39,40-hexaaza-33,34-diazonianonacyclo[28.2.1.1^2,5^.1^6,9^.1^10,13^.1^14,17^.1^18,21^.1^22,25^.1^26,29^]tetraconta-1(33),2,4,6,8,10,12,14,16,18,20,22,24,26(34),27,29,31-heptadecaene dichloride dihydrate'
_symmetry_cell_setting           monoclinic
_symmetry_space_group_name_H-M   'C 2/c'
_symmetry_Int_Tables_number      15
_space_group_name_Hall           '-C 2yn'
loop_
_symmetry_equiv_pos_site_id
_symmetry_equiv_pos_as_xyz
1 x,y,z
2 -x,y,1/2-z
3 1/2+x,1/2+y,z
4 1/2-x,1/2+y,1/2-z
5 -x,-y,-z
6 x,-y,1/2+z
7 1/2-x,1/2-y,-z
8 1/2+x,1/2-y,1/2+z
_cell_length_a                   12.8829(1)
_cell_length_b                   16.8157(2)
_cell_length_c                   27.9855(5)
_cell_angle_alpha                90
_cell_angle_beta                 101.464(1)
_cell_angle_gamma                90
_cell_volume                     5941.69
_exptl_crystal_colour            black
_exptl_crystal_description       prisms
_cell_formula_units_Z            4
_exptl_crystal_preparation       Luminescent
loop_
_atom_site_label
_atom_site_type_symbol
_atom_site_fract_x
_atom_site_fract_y
_atom_site_fract_z
Cl1 Cl 0.60649(5) 0.55274(4) 0.32809(3)
O1 O 0.61124(18) 0.49043(13) 0.22574(8)
H1 H 0.616(3) 0.514(2) 0.2622(16)
H2 H 0.548(4) 0.509(3) 0.2139(14)
N1 N 0.52878(18) 0.32753(13) 0.19883(8)
N2 N 0.55162(18) 0.43919(13) 0.12242(8)
N3 N 0.61132(17) 0.60213(13) 0.13664(8)
N4 N 0.53719(18) 0.71560(13) 0.20144(8)
C1 C 0.49338(18) 0.26628(15) 0.22401(9)
C2 C 0.4527(2) 0.20725(16) 0.19009(9)
C3 C 0.4689(2) 0.23200(15) 0.14419(9)
C4 C 0.5188(2) 0.30665(15) 0.15053(9)
C5 C 0.5618(2) 0.35835(15) 0.11848(9)
C6 C 0.6310(2) 0.34435(15) 0.08590(9)
C7 C 0.6606(2) 0.41879(15) 0.07030(9)
C8 C 0.6099(2) 0.47749(15) 0.09330(9)
C9 C 0.6153(2) 0.56251(15) 0.09430(9)
C10 C 0.61392(19) 0.61962(15) 0.05756(9)
C11 C 0.6083(2) 0.69473(15) 0.07893(9)
C12 C 0.6079(2) 0.68285(15) 0.12879(9)
C13 C 0.5956(2) 0.73709(15) 0.16695(9)
C14 C 0.6348(2) 0.81466(15) 0.17814(9)
C15 C 0.5960(2) 0.84059(15) 0.21854(9)
C16 C 0.5318(2) 0.77979(14) 0.23178(9)
C17 C 0.3933(2) 0.13347(16) 0.19945(10)
H3 H 0.4441 0.0921 0.2100
H4 H 0.3501 0.1168 0.1691
C18 C 0.3228(2) 0.14077(18) 0.23740(11)
H5 H 0.2887 0.0909 0.2408
H6 H 0.3653 0.1559 0.2683
H7 H 0.2702 0.1808 0.2268
C19 C 0.4329(2) 0.18978(17) 0.09669(10)
H8 H 0.4447 0.2237 0.0707
H9 H 0.3580 0.1809 0.0925
C20 C 0.4848(3) 0.10910(18) 0.09274(11)
H10 H 0.4574 0.0853 0.0616
H11 H 0.5596 0.1176 0.0962
H12 H 0.4720 0.0744 0.1182
C21 C 0.6779(2) 0.26585(16) 0.07632(10)
H13 H 0.7161 0.2723 0.0504
H14 H 0.6213 0.2289 0.0654
C22 C 0.7520(3) 0.23034(19) 0.12002(11)
H15 H 0.7790 0.1803 0.1113
H16 H 0.8098 0.2663 0.1307
H17 H 0.7140 0.2224 0.1459
C23 C 0.7430(2) 0.43373(17) 0.04000(10)
H18 H 0.8053 0.4039 0.0538
H19 H 0.7617 0.4891 0.0423
C24 C 0.7113(3) 0.41157(19) -0.01364(11)
H20 H 0.7684 0.4227 -0.0301
H21 H 0.6944 0.3560 -0.0165
H22 H 0.6503 0.4422 -0.0281
C25 C 0.6013(2) 0.60352(16) 0.00435(9)
H23 H 0.5400 0.6316 -0.0125
H24 H 0.5883 0.5477 -0.0010
C26 C 0.6963(2) 0.62679(18) -0.01832(10)
H25 H 0.6820 0.6145 -0.0525
H26 H 0.7089 0.6828 -0.0139
H27 H 0.7578 0.5980 -0.0023
C27 C 0.5849(2) 0.77045(16) 0.05049(10)
H28 H 0.5936 0.7619 0.0176
H29 H 0.6353 0.8100 0.0649
C28 C 0.4741(2) 0.80194(19) 0.05011(11)
H30 H 0.4623 0.8506 0.0319
H31 H 0.4237 0.7627 0.0352
H32 H 0.4657 0.8112 0.0830
C29 C 0.7141(2) 0.85828(16) 0.15475(10)
H33 H 0.7384 0.8235 0.1321
H34 H 0.7739 0.8726 0.1795
C30 C 0.6668(2) 0.93388(16) 0.12781(10)
H35 H 0.7195 0.9601 0.1135
H36 H 0.6077 0.9195 0.1027
H37 H 0.6435 0.9691 0.1505
C31 C 0.6302(2) 0.91690(15) 0.24571(10)
H38 H 0.5723 0.9538 0.2389
H39 H 0.6879 0.9392 0.2331
C32 C 0.6642(2) 0.90969(18) 0.30034(10)
H40 H 0.6842 0.9608 0.3145
H41 H 0.6064 0.8888 0.3135
H42 H 0.7234 0.8741 0.3077
H43 H 0.563(2) 0.3697(18) 0.2121(10)
H44 H 0.506(3) 0.4626(19) 0.1371(11)
H45 H 0.619(2) 0.5819(17) 0.1649(11)
H46 H 0.497(2) 0.6792(18) 0.1987(10)
N1A N 0.47122(18) 0.32753(13) 0.30117(8)
N2A N 0.44838(18) 0.43919(13) 0.37758(8)
N3A N 0.38868(17) 0.60213(13) 0.36336(8)
N4A N 0.46281(18) 0.71560(13) 0.29856(8)
C1A C 0.50662(18) 0.26628(15) 0.27599(9)
C2A C 0.5473(2) 0.20725(16) 0.30991(9)
C3A C 0.5311(2) 0.23200(15) 0.35581(9)
C4A C 0.4812(2) 0.30665(15) 0.34947(9)
C5A C 0.4382(2) 0.35835(15) 0.38152(9)
C6A C 0.3690(2) 0.34435(15) 0.41410(9)
C7A C 0.3394(2) 0.41879(15) 0.42970(9)
C8A C 0.3901(2) 0.47749(15) 0.40670(9)
C9A C 0.3847(2) 0.56251(15) 0.40570(9)
C10A C 0.38608(19) 0.61962(15) 0.44244(9)
C11A C 0.3917(2) 0.69473(15) 0.42107(9)
C12A C 0.3921(2) 0.68285(15) 0.37121(9)
C13A C 0.4044(2) 0.73709(15) 0.33305(9)
C14A C 0.3652(2) 0.81466(15) 0.32186(9)
C15A C 0.4040(2) 0.84059(15) 0.28146(9)
C16A C 0.4682(2) 0.77979(14) 0.26822(9)
C17A C 0.6067(2) 0.13347(16) 0.30055(10)
H3A H 0.5559 0.0921 0.2900
H4A H 0.6499 0.1168 0.3309
C18A C 0.6772(2) 0.14077(18) 0.26260(11)
H5A H 0.7113 0.0909 0.2592
H6A H 0.6347 0.1559 0.2317
H7A H 0.7298 0.1808 0.2732
C19A C 0.5671(2) 0.18978(17) 0.40331(10)
H8A H 0.5553 0.2237 0.4293
H9A H 0.6420 0.1809 0.4075
C20A C 0.5152(3) 0.10910(18) 0.40726(11)
H10A H 0.5426 0.0853 0.4384
H11A H 0.4404 0.1176 0.4038
H12A H 0.5280 0.0744 0.3818
C21A C 0.3221(2) 0.26585(16) 0.42368(10)
H13A H 0.2839 0.2723 0.4496
H14A H 0.3787 0.2289 0.4346
C22A C 0.2480(3) 0.23034(19) 0.37998(11)
H15A H 0.2210 0.1803 0.3887
H16A H 0.1902 0.2663 0.3693
H17A H 0.2860 0.2224 0.3541
C23A C 0.2570(2) 0.43373(17) 0.46000(10)
H18A H 0.1947 0.4039 0.4462
H19A H 0.2383 0.4891 0.4577
C24A C 0.2887(3) 0.41157(19) 0.51364(11)
H20A H 0.2316 0.4227 0.5301
H21A H 0.3056 0.3560 0.5165
H22A H 0.3497 0.4422 0.5281
C25A C 0.3987(2) 0.60352(16) 0.49565(9)
H23A H 0.4600 0.6316 0.5125
H24A H 0.4117 0.5477 0.5010
C26A C 0.3037(2) 0.62679(18) 0.51832(10)
H25A H 0.3180 0.6145 0.5525
H26A H 0.2911 0.6828 0.5139
H27A H 0.2422 0.5980 0.5023
C27A C 0.4151(2) 0.77045(16) 0.44951(10)
H28A H 0.4064 0.7619 0.4824
H29A H 0.3647 0.8100 0.4351
C28A C 0.5259(2) 0.80194(19) 0.44989(11)
H30A H 0.5377 0.8506 0.4681
H31A H 0.5763 0.7627 0.4648
H32A H 0.5343 0.8112 0.4170
C29A C 0.2859(2) 0.85828(16) 0.34525(10)
H33A H 0.2616 0.8235 0.3679
H34A H 0.2261 0.8726 0.3205
C30A C 0.3332(2) 0.93388(16) 0.37219(10)
H35A H 0.2805 0.9601 0.3865
H36A H 0.3923 0.9195 0.3973
H37A H 0.3565 0.9691 0.3495
C31A C 0.3698(2) 0.91690(15) 0.25429(10)
H38A H 0.4277 0.9538 0.2611
H39A H 0.3121 0.9392 0.2669
C32A C 0.3358(2) 0.90969(18) 0.19966(10)
H40A H 0.3158 0.9608 0.1855
H41A H 0.3936 0.8888 0.1865
H42A H 0.2766 0.8741 0.1923
H43A H 0.437(2) 0.3697(18) 0.2879(10)
H44A H 0.494(3) 0.4626(19) 0.3629(11)
H45A H 0.381(2) 0.5819(17) 0.3351(11)
H46A H 0.503(2) 0.6792(18) 0.3013(10)
loop_
_geom_bond_atom_site_label_1
_geom_bond_atom_site_label_2
_geom_bond_site_symmetry_1
_geom_bond_site_symmetry_2
O1 H1 1_555 1_555
H2 O1 1_555 1_555
N1 C1 1_555 1_555
N2 C5 1_555 1_555
N3 C9 1_555 1_555
N4 C13 1_555 1_555
C1 C2 1_555 1_555
C2 C3 1_555 1_555
C3 C4 1_555 1_555
C4 N1 1_555 1_555
C5 C4 1_555 1_555
C6 C5 1_555 1_555
C7 C6 1_555 1_555
C8 N2 1_555 1_555
C9 C8 1_555 1_555
C10 C9 1_555 1_555
C11 C10 1_555 1_555
C12 N3 1_555 1_555
C13 C12 1_555 1_555
C14 C13 1_555 1_555
C15 C14 1_555 1_555
C16 N4 1_555 1_555
C17 C2 1_555 1_555
H3 C17 1_555 1_555
H4 C17 1_555 1_555
C18 C17 1_555 1_555
H5 C18 1_555 1_555
H6 C18 1_555 1_555
H7 C18 1_555 1_555
C19 C3 1_555 1_555
H8 C19 1_555 1_555
H9 C19 1_555 1_555
C20 C19 1_555 1_555
H10 C20 1_555 1_555
H11 C20 1_555 1_555
H12 C20 1_555 1_555
C21 C6 1_555 1_555
H13 C21 1_555 1_555
H14 C21 1_555 1_555
C22 C21 1_555 1_555
H15 C22 1_555 1_555
H16 C22 1_555 1_555
H17 C22 1_555 1_555
C23 C7 1_555 1_555
H18 C23 1_555 1_555
H19 C23 1_555 1_555
C24 C23 1_555 1_555
H20 C24 1_555 1_555
H21 C24 1_555 1_555
H22 C24 1_555 1_555
C25 C10 1_555 1_555
H23 C25 1_555 1_555
H24 C25 1_555 1_555
C26 C25 1_555 1_555
H25 C26 1_555 1_555
H26 C26 1_555 1_555
H27 C26 1_555 1_555
C27 C11 1_555 1_555
H28 C27 1_555 1_555
H29 C27 1_555 1_555
C28 C27 1_555 1_555
H30 C28 1_555 1_555
H31 C28 1_555 1_555
H32 C28 1_555 1_555
C29 C14 1_555 1_555
H33 C29 1_555 1_555
H34 C29 1_555 1_555
C30 C29 1_555 1_555
H35 C30 1_555 1_555
H36 C30 1_555 1_555
H37 C30 1_555 1_555
C31 C15 1_555 1_555
H38 C31 1_555 1_555
H39 C31 1_555 1_555
C32 C31 1_555 1_555
H40 C32 1_555 1_555
H41 C32 1_555 1_555
H42 C32 1_555 1_555
H43 N1 1_555 1_555
H44 N2 1_555 1_555
H45 N3 1_555 1_555
H46 N4 1_555 1_555
N1A C1A 1_555 1_555
N2A C5A 1_555 1_555
N3A C9A 1_555 1_555
N4A C13A 1_555 1_555
C1A C1 1_555 1_555
C2A C1A 1_555 1_555
C3A C2A 1_555 1_555
C4A N1A 1_555 1_555
C5A C4A 1_555 1_555
C6A C5A 1_555 1_555
C7A C6A 1_555 1_555
C8A N2A 1_555 1_555
C9A C8A 1_555 1_555
C10A C9A 1_555 1_555
C11A C10A 1_555 1_555
C12A N3A 1_555 1_555
C13A C12A 1_555 1_555
C14A C13A 1_555 1_555
C15A C14A 1_555 1_555
C16A C16 1_555 1_555
C17A C2A 1_555 1_555
H3A C17A 1_555 1_555
H4A C17A 1_555 1_555
C18A C17A 1_555 1_555
H5A C18A 1_555 1_555
H6A C18A 1_555 1_555
H7A C18A 1_555 1_555
C19A C3A 1_555 1_555
H8A C19A 1_555 1_555
H9A C19A 1_555 1_555
C20A C19A 1_555 1_555
H10A C20A 1_555 1_555
H11A C20A 1_555 1_555
H12A C20A 1_555 1_555
C21A C6A 1_555 1_555
H13A C21A 1_555 1_555
H14A C21A 1_555 1_555
C22A C21A 1_555 1_555
H15A C22A 1_555 1_555
H16A C22A 1_555 1_555
H17A C22A 1_555 1_555
C23A C7A 1_555 1_555
H18A C23A 1_555 1_555
H19A C23A 1_555 1_555
C24A C23A 1_555 1_555
H20A C24A 1_555 1_555
H21A C24A 1_555 1_555
H22A C24A 1_555 1_555
C25A C10A 1_555 1_555
H23A C25A 1_555 1_555
H24A C25A 1_555 1_555
C26A C25A 1_555 1_555
H25A C26A 1_555 1_555
H26A C26A 1_555 1_555
H27A C26A 1_555 1_555
C27A C11A 1_555 1_555
H28A C27A 1_555 1_555
H29A C27A 1_555 1_555
C28A C27A 1_555 1_555
H30A C28A 1_555 1_555
H31A C28A 1_555 1_555
H32A C28A 1_555 1_555
C29A C14A 1_555 1_555
H33A C29A 1_555 1_555
H34A C29A 1_555 1_555
C30A C29A 1_555 1_555
H35A C30A 1_555 1_555
H36A C30A 1_555 1_555
H37A C30A 1_555 1_555
C31A C15A 1_555 1_555
H38A C31A 1_555 1_555
H39A C31A 1_555 1_555
C32A C31A 1_555 1_555
H40A C32A 1_555 1_555
H41A C32A 1_555 1_555
H42A C32A 1_555 1_555
H43A N1A 1_555 1_555
H44A N2A 1_555 1_555
H45A N3A 1_555 1_555
H46A N4A 1_555 1_555
C7 C8 1_555 1_555
C11 C12 1_555 1_555
C15 C16 1_555 1_555
N4A C16A 1_555 1_555
C3A C4A 1_555 1_555
C7A C8A 1_555 1_555
C11A C12A 1_555 1_555
C15A C16A 1_555 1_555

#END
