
#######################################################################
#
#                 Cambridge Crystallographic Data Centre
#                                CCDC 
#
#######################################################################
#
# If this CIF has been generated from an entry in the Cambridge 
# Structural Database, then it will include bibliographic, chemical, 
# crystal, experimental, refinement or atomic coordinate data resulting 
# from the CCDC's data processing and validation procedures.
#
#######################################################################

data_MUVNAS
_chemical_compound_source        'fungus Cladobotryum varium CL12284'
_chemical_name_common            CJ-16173
_chemical_formula_moiety         'C19 H19 N1 O4'
_chemical_name_systematic        
8-Ethylidene-4b-methyl-3-phenyl-4b,7,8,8a-tetrahydro-5H-6,9-dioxa-1-azafluorene-4,5-diol
_chemical_properties_biological  
'antibacterial activity against several drug-resistant bacteria'
_symmetry_cell_setting           triclinic
_symmetry_space_group_name_H-M   'P 1'
_symmetry_Int_Tables_number      1
_space_group_name_Hall           'P 1'
loop_
_symmetry_equiv_pos_site_id
_symmetry_equiv_pos_as_xyz
1 x,y,z
_cell_length_a                   6.858(1)
_cell_length_b                   7.690(1)
_cell_length_c                   7.976(1)
_cell_angle_alpha                82.87(1)
_cell_angle_beta                 85.66(1)
_cell_angle_gamma                78.42(1)
_cell_volume                     408.332
_exptl_crystal_colour            colorless
_exptl_crystal_description       needles
_chemical_melting_point          '234-235 deg.C'
_cell_formula_units_Z            1
_exptl_crystal_recrystallization_method n-hexane/methanol
loop_
_atom_site_label
_atom_site_type_symbol
_atom_site_fract_x
_atom_site_fract_y
_atom_site_fract_z
O1 O 0.9442 0.3751 0.0333
C1 C 1.1040(4) 0.3439(4) 0.1301(4)
N1 N 1.2239(4) 0.1872(3) 0.1384(3)
C2 C 1.3752(5) 0.1711(4) 0.2444(4)
C3 C 1.4085(4) 0.3004(4) 0.3372(4)
C4 C 1.2755(4) 0.4676(4) 0.3170(4)
O2 O 1.3099(4) 0.6038(3) 0.3963(3)
C5 C 1.1164(4) 0.4882(4) 0.2160(4)
C6 C 0.9396(4) 0.6360(4) 0.1801(4)
C7 C 0.8175(4) 0.5477(4) 0.0693(4)
C8 C 0.9995(5) 0.7982(4) 0.0751(4)
O3 O 1.1467(4) 0.8512(3) 0.1561(3)
O4 O 1.0842(3) 0.7498(3) -0.0863(3)
C9 C 0.9376(4) 0.7182(4) -0.1931(4)
C10 C 0.7640(4) 0.6598(4) -0.0929(4)
C11 C 0.5761(5) 0.7070(4) -0.1348(4)
C12 C 0.4973(5) 0.8246(5) -0.2877(5)
C13 C 1.5735(4) 0.2649(4) 0.4550(4)
C14 C 1.5387(5) 0.3091(4) 0.6194(5)
C15 C 1.6908(5) 0.2731(4) 0.7294(5)
C16 C 1.8792(5) 0.1946(5) 0.6773(5)
C17 C 1.9167(5) 0.1493(5) 0.5146(5)
C18 C 1.7633(5) 0.1848(4) 0.4046(4)
C19 C 0.8188(5) 0.6905(4) 0.3399(4)
H1 H 1.4667 0.0586 0.2555
H2 H 1.2392(8) 0.7135(8) 0.3262(8)
H3 H 0.6940 0.5332 0.1291
H4 H 0.8840 0.8917 0.0619
H5 H 1.1796(8) 0.9584(8) 0.1250(8)
H6 H 0.8900 0.8267 -0.2637
H7 H 0.9992 0.6269 -0.2626
H8 H 0.4794 0.6605 -0.0580
H9 H 0.3552 0.8362 -0.2856
H10 H 0.5561 0.7729 -0.3877
H11 H 0.5300 0.9403 -0.2883
H12 H 1.4073 0.3652 0.6568
H13 H 1.6647 0.3034 0.8432
H14 H 1.9849 0.1710 0.7541
H15 H 2.0484 0.0935 0.4779
H16 H 1.7898 0.1531 0.2913
H17 H 0.7822 0.5869 0.4044
H18 H 0.7006 0.7756 0.3095
H19 H 0.8974 0.7433 0.4064
loop_
_geom_bond_atom_site_label_1
_geom_bond_atom_site_label_2
_geom_bond_site_symmetry_1
_geom_bond_site_symmetry_2
O1 C1 1_555 1_555
C1 N1 1_555 1_555
N1 C2 1_555 1_555
C2 C3 1_555 1_555
C3 C4 1_555 1_555
C4 O2 1_555 1_555
O2 H2 1_555 1_555
C5 C1 1_555 1_555
C6 C5 1_555 1_555
C7 O1 1_555 1_555
C8 C6 1_555 1_555
O3 C8 1_555 1_555
O4 C8 1_555 1_555
C9 O4 1_555 1_555
C10 C7 1_555 1_555
C11 C10 1_555 1_555
C12 C11 1_555 1_555
C13 C3 1_555 1_555
C14 C13 1_555 1_555
C15 C14 1_555 1_555
C16 C15 1_555 1_555
C17 C16 1_555 1_555
C18 C13 1_555 1_555
C19 C6 1_555 1_555
H1 C2 1_555 1_555
H3 C7 1_555 1_555
H4 C8 1_555 1_555
H5 O3 1_555 1_555
H6 C9 1_555 1_555
H7 C9 1_555 1_555
H8 C11 1_555 1_555
H9 C12 1_555 1_555
H10 C12 1_555 1_555
H11 C12 1_555 1_555
H12 C14 1_555 1_555
H13 C15 1_555 1_555
H14 C16 1_555 1_555
H15 C17 1_555 1_555
H16 C18 1_555 1_555
H17 C19 1_555 1_555
H18 C19 1_555 1_555
H19 C19 1_555 1_555
C4 C5 1_555 1_555
C6 C7 1_555 1_555
C9 C10 1_555 1_555
C17 C18 1_555 1_555

#END
