
#######################################################################
#
#                 Cambridge Crystallographic Data Centre
#                                CCDC 
#
#######################################################################
#
# If this CIF has been generated from an entry in the Cambridge 
# Structural Database, then it will include bibliographic, chemical, 
# crystal, experimental, refinement or atomic coordinate data resulting 
# from the CCDC's data processing and validation procedures.
#
#######################################################################

data_MUVPAV
_chemical_formula_moiety         'C69 H75 N3 O9'
_chemical_name_systematic        
7,14,26,33,45,52-Hexaoxa-1,20,39-triazadecacyclo[37.18.7.2^3,6^.2^15,18^.2^22,25^.2^34,37^.2^41,44^.2^53,56^.1^20,61^.1^59,63^]octaheptaconta-3,5,15,17,22,24,34,36,41,43,53,55,59(65),60,62,67,69,71,73,75,77-henicosaene-58,64,66-trione
_symmetry_cell_setting           monoclinic
_symmetry_space_group_name_H-M   'P 21/a'
_symmetry_Int_Tables_number      14
_space_group_name_Hall           '-P 2yab'
loop_
_symmetry_equiv_pos_site_id
_symmetry_equiv_pos_as_xyz
1 x,y,z
2 1/2-x,1/2+y,-z
3 -x,-y,-z
4 1/2+x,1/2-y,z
_cell_length_a                   10.810(5)
_cell_length_b                   39.197(17)
_cell_length_c                   15.994(7)
_cell_angle_alpha                90
_cell_angle_beta                 92.382(4)
_cell_angle_gamma                90
_cell_volume                     6771.12
_exptl_crystal_colour            colorless
_exptl_crystal_description       prism
_chemical_melting_point          138-140deg.C
_cell_formula_units_Z            4
_exptl_crystal_recrystallization_method 'diethyl ether/chloroform'
loop_
_atom_site_label
_atom_site_type_symbol
_atom_site_fract_x
_atom_site_fract_y
_atom_site_fract_z
O1 O 0.52486(18) 0.18361(5) 0.80511(13)
O2 O 0.64899(19) 0.04118(5) 0.87103(12)
O3 O 0.41656(17) 0.09080(5) 0.51618(12)
O4 O 1.2331(2) 0.16015(6) 0.98879(14)
O5 O 1.28572(18) 0.05467(5) 1.01439(12)
O6 O 0.97671(17) -0.07278(4) 0.48653(12)
O7 O 0.65953(18) -0.04657(4) 0.30196(11)
O8 O 0.95171(19) 0.23080(5) 0.39427(14)
O9 O 0.71548(19) 0.30467(5) 0.48907(15)
N1 N 0.7264(2) 0.19020(6) 0.77245(15)
N2 N 0.7982(2) 0.02763(5) 0.78097(13)
N3 N 0.6104(2) 0.09966(5) 0.47076(13)
C1 C 0.6213(2) 0.13632(7) 0.74143(17)
C2 C 0.6591(2) 0.10784(7) 0.78716(17)
H1 H 0.6866 0.1103 0.8440
C3 C 0.6572(2) 0.07572(6) 0.75050(16)
C4 C 0.6150(2) 0.07183(6) 0.66719(16)
H2 H 0.6128 0.0499 0.6421
C5 C 0.5761(2) 0.10047(6) 0.62097(16)
C6 C 0.5783(2) 0.13248(7) 0.65832(16)
H3 H 0.5505 0.1519 0.6272
C7 C 0.6206(3) 0.17196(7) 0.77744(17)
C8 C 0.7000(3) 0.04624(7) 0.80529(17)
C9 C 0.5278(3) 0.09647(6) 0.53152(16)
C10 C 0.8435(3) 0.17715(7) 0.74206(19)
H4 H 0.8712 0.1923 0.6970
H5 H 0.8290 0.1542 0.7175
C11 C 0.9460(3) 0.17465(7) 0.80968(19)
C12 C 1.0667(3) 0.18235(7) 0.79012(19)
H6 H 1.0825 0.1908 0.7359
C13 C 1.1657(3) 0.17793(7) 0.8483(2)
H7 H 1.2478 0.1833 0.8338
C14 C 1.1424(3) 0.16570(8) 0.9271(2)
C15 C 1.0213(3) 0.15878(9) 0.9485(2)
H8 H 1.0052 0.1511 1.0034
C16 C 0.9246(3) 0.16306(8) 0.8901(2)
H9 H 0.8424 0.1580 0.9051
C17 C 1.3595(3) 0.16564(9) 0.9677(2)
H10 H 1.3712 0.1895 0.9495
H11 H 1.3814 0.1503 0.9213
C18 C 1.4409(3) 0.15821(9) 1.0445(2)
H12 H 1.4156 0.1732 1.0905
H13 H 1.5275 0.1640 1.0324
C19 C 1.4364(3) 0.12118(9) 1.0742(2)
H14 H 1.3486 0.1142 1.0764
H15 H 1.4730 0.1200 1.1319
C20 C 1.5037(3) 0.09572(9) 1.0198(2)
H16 H 1.5910 0.1029 1.0159
H17 H 1.4651 0.0960 0.9626
C21 C 1.5002(3) 0.05916(8) 1.0543(2)
H18 H 1.5822 0.0485 1.0475
H19 H 1.4859 0.0602 1.1149
C22 C 1.4026(3) 0.03676(8) 1.01300(19)
H20 H 1.4236 0.0318 0.9546
H21 H 1.3973 0.0149 1.0435
C23 C 1.1858(3) 0.04061(7) 0.97076(16)
C24 C 1.1797(3) 0.00710(7) 0.94342(17)
H22 H 1.2476 -0.0079 0.9539
C25 C 1.0723(3) -0.00450(7) 0.90010(16)
H23 H 1.0687 -0.0274 0.8808
C26 C 0.9713(3) 0.01670(7) 0.88474(16)
C27 C 0.9793(3) 0.05038(7) 0.91271(16)
H24 H 0.9112 0.0653 0.9027
C28 C 1.0849(3) 0.06233(7) 0.95480(17)
H25 H 1.0889 0.0854 0.9730
C29 C 0.8547(3) 0.00293(7) 0.84077(16)
H26 H 0.8751 -0.0182 0.8105
H27 H 0.7940 -0.0030 0.8831
C30 C 0.8766(2) 0.03542(6) 0.71060(16)
H28 H 0.9574 0.0441 0.7330
H29 H 0.8369 0.0538 0.6764
C31 C 0.8991(3) 0.00499(6) 0.65478(16)
C32 C 1.0180(2) -0.00114(7) 0.62807(16)
H30 H 1.0843 0.0130 0.6479
C33 C 1.0414(3) -0.02739(7) 0.57332(17)
H31 H 1.1229 -0.0308 0.5550
C34 C 0.9453(3) -0.04892(6) 0.54485(16)
C35 C 0.8272(3) -0.04394(7) 0.57328(17)
H32 H 0.7617 -0.0588 0.5560
C36 C 0.8052(3) -0.01699(7) 0.62733(17)
H33 H 0.7238 -0.0135 0.6459
C37 C 0.8985(3) -0.10261(7) 0.47620(18)
H34 H 0.8105 -0.0957 0.4692
H35 H 0.9079 -0.1176 0.5259
C38 C 0.9390(3) -0.12129(7) 0.39871(17)
H36 H 0.9098 -0.1452 0.4007
H37 H 1.0306 -0.1217 0.3989
C39 C 0.8890(3) -0.10475(7) 0.31720(18)
H38 H 0.8987 -0.0797 0.3217
H39 H 0.9389 -0.1127 0.2705
C40 C 0.7533(2) -0.11307(7) 0.29726(17)
H40 H 0.7046 -0.1065 0.3458
H41 H 0.7450 -0.1381 0.2901
C41 C 0.6971(3) -0.09563(7) 0.21920(17)
H42 H 0.7416 -0.1035 0.1700
H43 H 0.6097 -0.1029 0.2113
C42 C 0.7016(3) -0.05690(7) 0.22195(16)
H44 H 0.7872 -0.0488 0.2147
H45 H 0.6474 -0.0472 0.1765
C43 C 0.6410(3) -0.01254(6) 0.31598(16)
C44 C 0.6105(3) -0.00444(7) 0.39700(16)
H46 H 0.6055 -0.0219 0.4379
C45 C 0.5872(3) 0.02916(7) 0.41824(17)
H47 H 0.5648 0.0343 0.4736
C46 C 0.5958(2) 0.05549(6) 0.36043(16)
C47 C 0.6302(3) 0.04709(7) 0.28058(17)
H48 H 0.6390 0.0647 0.2406
C48 C 0.6525(3) 0.01332(7) 0.25722(17)
H49 H 0.6753 0.0081 0.2019
C49 C 0.5689(3) 0.09220(7) 0.38371(16)
H50 H 0.6115 0.1077 0.3454
H51 H 0.4787 0.0965 0.3768
C50 C 0.7460(2) 0.10334(6) 0.48519(17)
H52 H 0.7879 0.0848 0.4552
H53 H 0.7666 0.1005 0.5457
C51 C 0.7962(2) 0.13715(7) 0.45687(17)
C52 C 0.7808(3) 0.16683(7) 0.50400(18)
H54 H 0.7329 0.1659 0.5524
C53 C 0.8332(3) 0.19734(7) 0.48197(19)
H55 H 0.8219 0.2171 0.5153
C54 C 0.9031(3) 0.19925(7) 0.41067(19)
C55 C 0.9182(3) 0.17057(7) 0.36146(19)
H56 H 0.9637 0.1718 0.3120
C56 C 0.8649(3) 0.13968(7) 0.38596(18)
H57 H 0.8764 0.1199 0.3529
C57 C 1.0385(3) 0.23333(7) 0.3291(2)
H58 H 0.9953 0.2304 0.2737
H59 H 1.1023 0.2153 0.3359
C58 C 1.0988(3) 0.26826(8) 0.3345(3)
H60 H 1.1761 0.2676 0.3034
H61 H 1.1222 0.2730 0.3939
C59 C 1.0197(4) 0.29770(9) 0.3008(3)
H62 H 0.9964 0.2928 0.2414
H63 H 1.0714 0.3185 0.3019
C60 C 0.9009(3) 0.30554(8) 0.3463(2)
H64 H 0.8542 0.3234 0.3148
H65 H 0.8488 0.2847 0.3459
C61 C 0.9217(3) 0.31740(8) 0.4365(2)
H66 H 0.9532 0.2980 0.4709
H67 H 0.9858 0.3355 0.4386
C62 C 0.8053(3) 0.33109(8) 0.4739(2)
H68 H 0.8277 0.3427 0.5273
H69 H 0.7672 0.3482 0.4354
C63 C 0.7252(3) 0.28690(7) 0.5634(2)
C64 C 0.8167(3) 0.29180(8) 0.6260(2)
H70 H 0.8791 0.3085 0.6193
C65 C 0.8168(3) 0.27211(7) 0.6988(2)
H71 H 0.8801 0.2755 0.7410
C66 C 0.7268(3) 0.24793(7) 0.7106(2)
C67 C 0.6355(3) 0.24334(7) 0.6473(2)
H72 H 0.5732 0.2266 0.6544
C68 C 0.6333(3) 0.26245(7) 0.5747(2)
H73 H 0.5698 0.2590 0.5327
C69 C 0.7251(3) 0.22714(7) 0.7905(2)
H74 H 0.7983 0.2331 0.8268
H75 H 0.6500 0.2328 0.8209
loop_
_geom_bond_atom_site_label_1
_geom_bond_atom_site_label_2
_geom_bond_site_symmetry_1
_geom_bond_site_symmetry_2
O1 C7 1_555 1_555
O2 C8 1_555 1_555
O3 C9 1_555 1_555
O4 C14 1_555 1_555
O5 C22 1_555 1_555
O6 C34 1_555 1_555
O7 C42 1_555 1_555
O8 C54 1_555 1_555
O9 C62 1_555 1_555
N1 C7 1_555 1_555
N2 C8 1_555 1_555
N3 C9 1_555 1_555
C1 C2 1_555 1_555
C2 H1 1_555 1_555
C3 C2 1_555 1_555
C4 C3 1_555 1_555
H2 C4 1_555 1_555
C5 C4 1_555 1_555
C6 C1 1_555 1_555
H3 C6 1_555 1_555
C7 C1 1_555 1_555
C8 C3 1_555 1_555
C9 C5 1_555 1_555
C10 N1 1_555 1_555
H4 C10 1_555 1_555
H5 C10 1_555 1_555
C11 C10 1_555 1_555
C12 C11 1_555 1_555
H6 C12 1_555 1_555
C13 C12 1_555 1_555
H7 C13 1_555 1_555
C14 C13 1_555 1_555
C15 C14 1_555 1_555
H8 C15 1_555 1_555
C16 C11 1_555 1_555
H9 C16 1_555 1_555
C17 O4 1_555 1_555
H10 C17 1_555 1_555
H11 C17 1_555 1_555
C18 C17 1_555 1_555
H12 C18 1_555 1_555
H13 C18 1_555 1_555
C19 C18 1_555 1_555
H14 C19 1_555 1_555
H15 C19 1_555 1_555
C20 C19 1_555 1_555
H16 C20 1_555 1_555
H17 C20 1_555 1_555
C21 C20 1_555 1_555
H18 C21 1_555 1_555
H19 C21 1_555 1_555
C22 C21 1_555 1_555
H20 C22 1_555 1_555
H21 C22 1_555 1_555
C23 O5 1_555 1_555
C24 C23 1_555 1_555
H22 C24 1_555 1_555
C25 C24 1_555 1_555
H23 C25 1_555 1_555
C26 C25 1_555 1_555
C27 C26 1_555 1_555
H24 C27 1_555 1_555
C28 C23 1_555 1_555
H25 C28 1_555 1_555
C29 N2 1_555 1_555
H26 C29 1_555 1_555
H27 C29 1_555 1_555
C30 N2 1_555 1_555
H28 C30 1_555 1_555
H29 C30 1_555 1_555
C31 C30 1_555 1_555
C32 C31 1_555 1_555
H30 C32 1_555 1_555
C33 C32 1_555 1_555
H31 C33 1_555 1_555
C34 C33 1_555 1_555
C35 C34 1_555 1_555
H32 C35 1_555 1_555
C36 C31 1_555 1_555
H33 C36 1_555 1_555
C37 O6 1_555 1_555
H34 C37 1_555 1_555
H35 C37 1_555 1_555
C38 C37 1_555 1_555
H36 C38 1_555 1_555
H37 C38 1_555 1_555
C39 C38 1_555 1_555
H38 C39 1_555 1_555
H39 C39 1_555 1_555
C40 C39 1_555 1_555
H40 C40 1_555 1_555
H41 C40 1_555 1_555
C41 C40 1_555 1_555
H42 C41 1_555 1_555
H43 C41 1_555 1_555
C42 C41 1_555 1_555
H44 C42 1_555 1_555
H45 C42 1_555 1_555
C43 O7 1_555 1_555
C44 C43 1_555 1_555
H46 C44 1_555 1_555
C45 C44 1_555 1_555
H47 C45 1_555 1_555
C46 C45 1_555 1_555
C47 C46 1_555 1_555
H48 C47 1_555 1_555
C48 C43 1_555 1_555
H49 C48 1_555 1_555
C49 N3 1_555 1_555
H50 C49 1_555 1_555
H51 C49 1_555 1_555
C50 N3 1_555 1_555
H52 C50 1_555 1_555
H53 C50 1_555 1_555
C51 C50 1_555 1_555
C52 C51 1_555 1_555
H54 C52 1_555 1_555
C53 C52 1_555 1_555
H55 C53 1_555 1_555
C54 C53 1_555 1_555
C55 C54 1_555 1_555
H56 C55 1_555 1_555
C56 C51 1_555 1_555
H57 C56 1_555 1_555
C57 O8 1_555 1_555
H58 C57 1_555 1_555
H59 C57 1_555 1_555
C58 C57 1_555 1_555
H60 C58 1_555 1_555
H61 C58 1_555 1_555
C59 C58 1_555 1_555
H62 C59 1_555 1_555
H63 C59 1_555 1_555
C60 C59 1_555 1_555
H64 C60 1_555 1_555
H65 C60 1_555 1_555
C61 C60 1_555 1_555
H66 C61 1_555 1_555
H67 C61 1_555 1_555
C62 C61 1_555 1_555
H68 C62 1_555 1_555
H69 C62 1_555 1_555
C63 O9 1_555 1_555
C64 C63 1_555 1_555
H70 C64 1_555 1_555
C65 C64 1_555 1_555
H71 C65 1_555 1_555
C66 C65 1_555 1_555
C67 C66 1_555 1_555
H72 C67 1_555 1_555
C68 C63 1_555 1_555
H73 C68 1_555 1_555
C69 N1 1_555 1_555
H74 C69 1_555 1_555
H75 C69 1_555 1_555
C5 C6 1_555 1_555
C15 C16 1_555 1_555
C26 C29 1_555 1_555
C27 C28 1_555 1_555
C35 C36 1_555 1_555
C46 C49 1_555 1_555
C47 C48 1_555 1_555
C55 C56 1_555 1_555
C66 C69 1_555 1_555
C67 C68 1_555 1_555

#END
