
#######################################################################
#
#                 Cambridge Crystallographic Data Centre
#                                CCDC 
#
#######################################################################
#
# If this CIF has been generated from an entry in the Cambridge 
# Structural Database, then it will include bibliographic, chemical, 
# crystal, experimental, refinement or atomic coordinate data resulting 
# from the CCDC's data processing and validation procedures.
#
#######################################################################

data_MUVTUS
_chemical_formula_moiety         'C2 H2 N5 O2 1-,K1 1+'
_chemical_name_systematic        'Potassium 4-nitramino-1,2,4-triazolate'
_symmetry_cell_setting           monoclinic
_symmetry_space_group_name_H-M   'P 21/c'
_symmetry_Int_Tables_number      14
_space_group_name_Hall           '-P 2ybc'
loop_
_symmetry_equiv_pos_site_id
_symmetry_equiv_pos_as_xyz
1 x,y,z
2 x,1/2-y,1/2+z
3 -x,-y,-z
4 -x,1/2+y,1/2-z
_cell_length_a                   7.9671(6)
_cell_length_b                   4.8182(4)
_cell_length_c                   16.8120(10)
_cell_angle_alpha                90
_cell_angle_beta                 110.165(7)
_cell_angle_gamma                90
_cell_volume                     605.805
_exptl_crystal_colour            colorless
_cell_formula_units_Z            4
loop_
_atom_site_label
_atom_site_type_symbol
_atom_site_fract_x
_atom_site_fract_y
_atom_site_fract_z
K1 K -0.24012(6) 0.08386(11) 0.25514(3)
N1 N 0.2758(3) 0.5141(5) 0.62639(13)
N2 N 0.3902(3) 0.2865(5) 0.64968(12)
C1 C 0.4030(3) 0.1883(5) 0.58028(15)
H1 H 0.4716 0.0348 0.5775
N3 N 0.3037(2) 0.3378(4) 0.51240(12)
C2 C 0.2270(3) 0.5384(5) 0.54458(16)
H2 H 0.1503 0.6745 0.5127
N4 N 0.2994(3) 0.3078(5) 0.42839(12)
N5 N 0.1644(3) 0.1445(4) 0.38656(11)
O1 O 0.1502(3) 0.0975(4) 0.31070(10)
O2 O 0.0554(2) 0.0459(4) 0.41692(11)
loop_
_geom_bond_atom_site_label_1
_geom_bond_atom_site_label_2
_geom_bond_site_symmetry_1
_geom_bond_site_symmetry_2
N1 N2 1_555 1_555
N2 C1 1_555 1_555
C1 H1 1_555 1_555
N3 C1 1_555 1_555
C2 N1 1_555 1_555
H2 C2 1_555 1_555
N4 N3 1_555 1_555
N5 N4 1_555 1_555
O1 N5 1_555 1_555
O2 N5 1_555 1_555
N3 C2 1_555 1_555

#END
