
#######################################################################
#
#                 Cambridge Crystallographic Data Centre
#                                CCDC 
#
#######################################################################
#
# If this CIF has been generated from an entry in the Cambridge 
# Structural Database, then it will include bibliographic, chemical, 
# crystal, experimental, refinement or atomic coordinate data resulting 
# from the CCDC's data processing and validation procedures.
#
#######################################################################

data_MUVVOP
_chemical_formula_moiety         'C14 H13 Cl1 N2 O3 S1'
_chemical_name_systematic        
'(S)-Methyl 2-(4-(4-chlorobenzylidene)-5-oxo-2-thioxoimidazolidin-1-yl)propanoate'
_symmetry_cell_setting           orthorhombic
_symmetry_space_group_name_H-M   'P 21 21 21'
_symmetry_Int_Tables_number      19
_space_group_name_Hall           'P 2ac 2ab'
loop_
_symmetry_equiv_pos_site_id
_symmetry_equiv_pos_as_xyz
1 x,y,z
2 1/2-x,-y,1/2+z
3 -x,1/2+y,1/2-z
4 1/2+x,1/2-y,-z
_cell_length_a                   7.0847(4)
_cell_length_b                   6.6079(5)
_cell_length_c                   30.902(2)
_cell_angle_alpha                90
_cell_angle_beta                 90
_cell_angle_gamma                90
_cell_volume                     1446.68
_exptl_crystal_colour            colorless
_exptl_crystal_description       block
_cell_formula_units_Z            4
loop_
_atom_site_label
_atom_site_type_symbol
_atom_site_fract_x
_atom_site_fract_y
_atom_site_fract_z
Cl1 Cl 0.13452(15) 0.02033(15) -0.11675(3)
S1 S 0.14083(15) 0.41237(11) 0.17812(2)
O1 O 0.2385(3) 0.8873(4) 0.23894(6)
O2 O 0.4242(3) 0.8442(4) 0.18166(8)
O3 O 0.0843(3) 1.0051(3) 0.08042(7)
N1 N 0.1050(3) 0.7573(3) 0.13296(7)
N2 N 0.1296(4) 0.4858(3) 0.09246(7)
H1 H 0.1419 0.3614 0.0848
C1 C 0.3970(6) 0.8754(7) 0.26798(13)
H2 H 0.3750 0.7709 0.2890
H3 H 0.4125 1.0028 0.2825
H4 H 0.5092 0.8447 0.2518
C2 C 0.2728(4) 0.8655(4) 0.19703(9)
C3 C 0.0933(4) 0.8889(4) 0.17114(9)
H5 H 0.0957 1.0276 0.1599
C4 C -0.0920(5) 0.8688(6) 0.19468(12)
H6 H -0.1940 0.8896 0.1747
H7 H -0.0985 0.9682 0.2173
H8 H -0.1014 0.7359 0.2070
C5 C 0.1248(4) 0.5492(4) 0.13432(9)
C6 C 0.0968(4) 0.8277(5) 0.09118(9)
C7 C 0.1124(4) 0.6456(4) 0.06359(9)
C8 C 0.1080(4) 0.6549(5) 0.02017(9)
H9 H 0.0919 0.7847 0.0091
C9 C 0.1239(4) 0.4983(5) -0.01237(8)
C10 C 0.0623(4) 0.5415(5) -0.05463(10)
H10 H 0.0179 0.6706 -0.0610
C11 C 0.0659(5) 0.3983(6) -0.08672(9)
H11 H 0.0230 0.4290 -0.1144
C12 C 0.1347(4) 0.2070(5) -0.07719(9)
C13 C 0.2005(4) 0.1621(5) -0.03661(9)
H12 H 0.2488 0.0341 -0.0308
C14 C 0.1954(4) 0.3047(5) -0.00463(9)
H13 H 0.2404 0.2722 0.0228
loop_
_geom_bond_atom_site_label_1
_geom_bond_atom_site_label_2
_geom_bond_site_symmetry_1
_geom_bond_site_symmetry_2
Cl1 C12 1_555 1_555
S1 C5 1_555 1_555
O1 C1 1_555 1_555
O2 C2 1_555 1_555
O3 C6 1_555 1_555
N1 C3 1_555 1_555
N2 H1 1_555 1_555
C1 H2 1_555 1_555
H3 C1 1_555 1_555
H4 C1 1_555 1_555
C2 O1 1_555 1_555
C3 C2 1_555 1_555
H5 C3 1_555 1_555
C4 C3 1_555 1_555
H6 C4 1_555 1_555
H7 C4 1_555 1_555
H8 C4 1_555 1_555
C5 N1 1_555 1_555
C6 N1 1_555 1_555
C7 N2 1_555 1_555
C8 C7 1_555 1_555
H9 C8 1_555 1_555
C9 C8 1_555 1_555
C10 C9 1_555 1_555
H10 C10 1_555 1_555
C11 C10 1_555 1_555
H11 C11 1_555 1_555
C12 C11 1_555 1_555
C13 C12 1_555 1_555
H12 C13 1_555 1_555
C14 C9 1_555 1_555
H13 C14 1_555 1_555
N2 C5 1_555 1_555
C6 C7 1_555 1_555
C13 C14 1_555 1_555

#END
