
#######################################################################
#
#                 Cambridge Crystallographic Data Centre
#                                CCDC 
#
#######################################################################
#
# If this CIF has been generated from an entry in the Cambridge 
# Structural Database, then it will include bibliographic, chemical, 
# crystal, experimental, refinement or atomic coordinate data resulting 
# from the CCDC's data processing and validation procedures.
#
#######################################################################

data_MUWBUC
_chemical_formula_moiety         'C20 H20 O4'
_chemical_name_systematic        
'(E,E)-Ethyl 2-benzylidene-4-(2-hydroxy-5-methoxyphenyl)but-3-enoate'
_symmetry_cell_setting           monoclinic
_symmetry_space_group_name_H-M   'P 21/c'
_symmetry_Int_Tables_number      14
_space_group_name_Hall           '-P 2ybc'
loop_
_symmetry_equiv_pos_site_id
_symmetry_equiv_pos_as_xyz
1 x,y,z
2 -x,1/2+y,1/2-z
3 -x,-y,-z
4 x,1/2-y,1/2+z
_cell_length_a                   15.257(3)
_cell_length_b                   7.3998(15)
_cell_length_c                   15.245(3)
_cell_angle_alpha                90
_cell_angle_beta                 91.42(3)
_cell_angle_gamma                90
_cell_volume                     1720.61
_cell_formula_units_Z            4
loop_
_atom_site_label
_atom_site_type_symbol
_atom_site_fract_x
_atom_site_fract_y
_atom_site_fract_z
O1 O 0.18881(9) 0.05599(16) 1.03615(9)
O2 O 0.09979(9) 0.11999(18) 0.92040(9)
O3 O 0.01959(9) -0.16686(19) 0.67401(9)
H1 H -0.0184 -0.2203 0.6452
O4 O 0.30477(9) 0.00032(17) 0.47251(10)
C1 C 0.44370(14) -0.0479(3) 0.83518(14)
H2 H 0.4025 -0.1282 0.8117
C2 C 0.52922(14) -0.0509(3) 0.80578(15)
H3 H 0.5451 -0.1345 0.7635
C3 C 0.59086(14) 0.0698(3) 0.83904(14)
H4 H 0.6477 0.0689 0.8183
C4 C 0.56751(14) 0.1926(3) 0.90368(14)
H5 H 0.6086 0.2737 0.9265
C5 C 0.48210(14) 0.1927(3) 0.93377(13)
H6 H 0.4669 0.2734 0.9776
C6 C 0.41922(13) 0.0750(2) 0.89977(13)
C7 C 0.33105(13) 0.0805(3) 0.93678(13)
H7 H 0.3294 0.1056 0.9965
C8 C 0.25232(13) 0.0545(3) 0.89657(13)
C9 C 0.17214(13) 0.0793(3) 0.95007(14)
C10 C 0.11617(13) 0.0958(3) 1.09365(13)
H8 H 0.0664 0.0187 1.0796
H9 H 0.0981 0.2209 1.0873
C11 C 0.15024(14) 0.0597(3) 1.18621(13)
H10 H 0.1686 -0.0640 1.1911
H11 H 0.1046 0.0827 1.2269
H12 H 0.1991 0.1377 1.1992
C12 C 0.24073(13) 0.0264(2) 0.80181(13)
H13 H 0.2889 0.0552 0.7684
C13 C 0.17083(13) -0.0347(2) 0.75689(13)
H14 H 0.1218 -0.0657 0.7887
C14 C 0.16491(14) -0.0569(2) 0.66134(14)
C15 C 0.08821(13) -0.1231(3) 0.62054(14)
C16 C 0.08155(14) -0.1453(2) 0.53011(13)
H15 H 0.0296 -0.1879 0.5046
C17 C 0.15203(14) -0.1043(2) 0.47753(13)
H16 H 0.1475 -0.1187 0.4170
C18 C 0.22933(13) -0.0414(3) 0.51674(14)
C19 C 0.23536(13) -0.0157(2) 0.60668(13)
H17 H 0.2871 0.0298 0.6316
C20 C 0.30118(16) -0.0268(3) 0.37944(15)
H18 H 0.2878 -0.1511 0.3670
H19 H 0.3569 0.0034 0.3554
H20 H 0.2565 0.0490 0.3536
loop_
_geom_bond_atom_site_label_1
_geom_bond_atom_site_label_2
_geom_bond_site_symmetry_1
_geom_bond_site_symmetry_2
O1 C9 1_555 1_555
O2 C9 1_555 1_555
O3 H1 1_555 1_555
O4 C18 1_555 1_555
C1 H2 1_555 1_555
C2 C1 1_555 1_555
H3 C2 1_555 1_555
C3 C2 1_555 1_555
H4 C3 1_555 1_555
C4 C3 1_555 1_555
H5 C4 1_555 1_555
C5 C4 1_555 1_555
H6 C5 1_555 1_555
C6 C1 1_555 1_555
C7 C6 1_555 1_555
H7 C7 1_555 1_555
C8 C7 1_555 1_555
C9 C8 1_555 1_555
C10 O1 1_555 1_555
H8 C10 1_555 1_555
H9 C10 1_555 1_555
C11 C10 1_555 1_555
H10 C11 1_555 1_555
H11 C11 1_555 1_555
H12 C11 1_555 1_555
C12 C8 1_555 1_555
H13 C12 1_555 1_555
C13 C12 1_555 1_555
H14 C13 1_555 1_555
C14 C13 1_555 1_555
C15 O3 1_555 1_555
C16 C15 1_555 1_555
H15 C16 1_555 1_555
C17 C16 1_555 1_555
H16 C17 1_555 1_555
C18 C17 1_555 1_555
C19 C14 1_555 1_555
H17 C19 1_555 1_555
C20 O4 1_555 1_555
H18 C20 1_555 1_555
H19 C20 1_555 1_555
H20 C20 1_555 1_555
C5 C6 1_555 1_555
C14 C15 1_555 1_555
C18 C19 1_555 1_555

#END
