
#######################################################################
#
#                 Cambridge Crystallographic Data Centre
#                                CCDC 
#
#######################################################################
#
# If this CIF has been generated from an entry in the Cambridge 
# Structural Database, then it will include bibliographic, chemical, 
# crystal, experimental, refinement or atomic coordinate data resulting 
# from the CCDC's data processing and validation procedures.
#
#######################################################################

data_MUWHUI
_chemical_formula_moiety         'C27 H20 N2 O2'
_chemical_name_systematic        
2-(3,3'-Dimethyl-1',3'-dihydro-1H,2'H-2,3'-biindol-2'-ylidene)-1H-indene-1,3(2H)-dione
_symmetry_cell_setting           monoclinic
_symmetry_space_group_name_H-M   'C 2/c'
_symmetry_Int_Tables_number      15
_space_group_name_Hall           '-C 2yn'
loop_
_symmetry_equiv_pos_site_id
_symmetry_equiv_pos_as_xyz
1 x,y,z
2 -x,y,1/2-z
3 1/2+x,1/2+y,z
4 1/2-x,1/2+y,1/2-z
5 -x,-y,-z
6 x,-y,1/2+z
7 1/2-x,1/2-y,-z
8 1/2+x,1/2-y,1/2+z
_cell_length_a                   27.645(6)
_cell_length_b                   7.886(2)
_cell_length_c                   19.100(4)
_cell_angle_alpha                90
_cell_angle_beta                 91.82(3)
_cell_angle_gamma                90
_cell_volume                     4161.86
_exptl_crystal_colour            yellow
_exptl_crystal_description       block
_chemical_melting_point          284-286deg.C
_cell_formula_units_Z            8
loop_
_atom_site_label
_atom_site_type_symbol
_atom_site_fract_x
_atom_site_fract_y
_atom_site_fract_z
C1 C 0.47767(5) 0.37695(19) 0.64770(7)
O1 O 0.47793(4) 0.22370(14) 0.64222(7)
C2 C 0.51087(5) 0.4962(2) 0.61146(8)
C3 C 0.54629(6) 0.4612(3) 0.56386(9)
C4 C 0.57137(7) 0.5976(3) 0.53713(11)
C5 C 0.56126(8) 0.7624(3) 0.55631(12)
C6 C 0.52577(7) 0.7980(2) 0.60410(11)
C7 C 0.50123(5) 0.6624(2) 0.63124(8)
C8 C 0.46179(5) 0.66001(18) 0.68249(7)
O2 O 0.44452(4) 0.78529(13) 0.71082(6)
C9 C 0.44711(5) 0.48511(17) 0.69082(7)
C10 C 0.40739(5) 0.44254(17) 0.72893(7)
N1 N 0.38440(4) 0.55823(17) 0.76739(7)
C11 C 0.34148(5) 0.4945(2) 0.79450(7)
C12 C 0.30750(7) 0.5784(3) 0.83280(9)
C13 C 0.26676(7) 0.4875(3) 0.84998(10)
C14 C 0.26036(6) 0.3219(3) 0.82888(10)
C15 C 0.29534(6) 0.2391(2) 0.79053(8)
C16 C 0.33628(5) 0.32719(19) 0.77403(7)
C17 C 0.38096(5) 0.27300(17) 0.73462(7)
C18 C 0.36790(5) 0.19843(16) 0.66357(7)
N2 N 0.38227(4) 0.03790(15) 0.64578(6)
C19 C 0.36465(5) 0.00183(18) 0.57958(7)
C20 C 0.37002(6) -0.1429(2) 0.53874(9)
C21 C 0.34665(7) -0.1457(3) 0.47386(10)
C22 C 0.31857(7) -0.0086(3) 0.45050(9)
C23 C 0.31357(6) 0.1349(2) 0.49037(8)
C24 C 0.33722(5) 0.14241(18) 0.55620(7)
C25 C 0.33976(5) 0.26707(17) 0.61060(7)
C26 C 0.41169(6) 0.1518(2) 0.78146(8)
C27 C 0.31502(7) 0.4350(2) 0.60937(10)
H1 H 0.5512(7) 0.342(2) 0.5479(10)
H2 H 0.5958(9) 0.578(3) 0.5024(13)
H3 H 0.5804(9) 0.856(3) 0.5369(12)
H4 H 0.5160(8) 0.915(3) 0.6165(11)
H5 H 0.3962(6) 0.664(2) 0.7673(9)
H6 H 0.3133(7) 0.693(3) 0.8449(11)
H7 H 0.2428(8) 0.545(3) 0.8774(12)
H8 H 0.2317(8) 0.262(3) 0.8403(11)
H9 H 0.2916(7) 0.126(3) 0.7744(10)
H10 H 0.4059(7) -0.019(2) 0.6694(9)
H11 H 0.3890(8) -0.234(3) 0.5577(10)
H12 H 0.3489(7) -0.247(3) 0.4446(11)
H13 H 0.3028(8) -0.017(3) 0.4064(12)
H14 H 0.2949(7) 0.227(3) 0.4746(10)
H15 H 0.4197(7) 0.205(2) 0.8278(10)
H16 H 0.3927(7) 0.049(3) 0.7901(10)
H17 H 0.4418(7) 0.121(2) 0.7583(9)
H18 H 0.2864(12) 0.435(4) 0.6390(18)
H19 H 0.3035(9) 0.467(3) 0.5633(13)
H20 H 0.3324(12) 0.535(4) 0.6285(16)
loop_
_geom_bond_atom_site_label_1
_geom_bond_atom_site_label_2
_geom_bond_site_symmetry_1
_geom_bond_site_symmetry_2
C1 O1 1_555 1_555
C2 C1 1_555 1_555
C3 C2 1_555 1_555
C4 C3 1_555 1_555
C5 C4 1_555 1_555
C6 C5 1_555 1_555
C7 C2 1_555 1_555
C8 C7 1_555 1_555
O2 C8 1_555 1_555
C9 C1 1_555 1_555
C10 C9 1_555 1_555
N1 C10 1_555 1_555
C11 N1 1_555 1_555
C12 C11 1_555 1_555
C13 C12 1_555 1_555
C14 C13 1_555 1_555
C15 C14 1_555 1_555
C16 C11 1_555 1_555
C17 C10 1_555 1_555
C18 C17 1_555 1_555
N2 C18 1_555 1_555
C19 N2 1_555 1_555
C20 C19 1_555 1_555
C21 C20 1_555 1_555
C22 C21 1_555 1_555
C23 C22 1_555 1_555
C24 C19 1_555 1_555
C25 C18 1_555 1_555
C26 C17 1_555 1_555
C27 C25 1_555 1_555
H1 C3 1_555 1_555
H2 C4 1_555 1_555
H3 C5 1_555 1_555
H4 C6 1_555 1_555
H5 N1 1_555 1_555
H6 C12 1_555 1_555
H7 C13 1_555 1_555
H8 C14 1_555 1_555
H9 C15 1_555 1_555
H10 N2 1_555 1_555
H11 C20 1_555 1_555
H12 C21 1_555 1_555
H13 C22 1_555 1_555
H14 C23 1_555 1_555
H15 C26 1_555 1_555
H16 C26 1_555 1_555
H17 C26 1_555 1_555
H18 C27 1_555 1_555
H19 C27 1_555 1_555
H20 C27 1_555 1_555
C6 C7 1_555 1_555
C8 C9 1_555 1_555
C15 C16 1_555 1_555
C16 C17 1_555 1_555
C23 C24 1_555 1_555
C24 C25 1_555 1_555

#END
