
#######################################################################
#
#                 Cambridge Crystallographic Data Centre
#                                CCDC 
#
#######################################################################
#
# If this CIF has been generated from an entry in the Cambridge 
# Structural Database, then it will include bibliographic, chemical, 
# crystal, experimental, refinement or atomic coordinate data resulting 
# from the CCDC's data processing and validation procedures.
#
#######################################################################

data_MUWKUM
_chemical_formula_moiety         
'C56 H32 N4 O4,C28 H38 N2 O1 2+,2(F6 P1 1-),2(C1 H2 Cl2)'
_chemical_name_systematic        
"1-(3,5-di-t-butylbenzyl)-1'-(3-hydroxypropyl)-4,4'-bipyridinium bis(hexafluorophosphate) 2,20,28,46-tetraoxa-53,55,59,61-tetraazapentadecacyclo[45.5.3.3^21,27^.2^3,6^.2^29,32^.1^15,19^.1^41,45^.0^5,14^.0^7,16^.0^8,13^.0^24,60^.0^31,40^.0^33,42^.0^34,39^.0^50,54^]tetrahexaconta-1(53),3,5,8,10,12,15(62),16,18,21,23,25,27(59),29,31,34,36,38,41(56),42,44,47,49,51,54,57,60,63-octacosaene dichloromethane solvate"
_symmetry_cell_setting           monoclinic
_symmetry_space_group_name_H-M   'P 21/n'
_symmetry_Int_Tables_number      14
_space_group_name_Hall           '-P 2yn'
loop_
_symmetry_equiv_pos_site_id
_symmetry_equiv_pos_as_xyz
1 x,y,z
2 1/2-x,1/2+y,1/2-z
3 -x,-y,-z
4 1/2+x,1/2-y,1/2+z
_cell_length_a                   11.1928(19)
_cell_length_b                   21.893(4)
_cell_length_c                   32.961(6)
_cell_angle_alpha                90
_cell_angle_beta                 92.044(3)
_cell_angle_gamma                90
_cell_volume                     8071.76
_exptl_crystal_colour            'light yellow'
_exptl_crystal_description       block
_cell_formula_units_Z            4
loop_
_atom_site_label
_atom_site_type_symbol
_atom_site_fract_x
_atom_site_fract_y
_atom_site_fract_z
Cl1 Cl 0.3226(5) -0.00316(17) 0.4931(2)
Cl2 Cl 0.3425(3) -0.00919(15) 0.40491(19)
C1 C 0.3106(13) 0.0341(6) 0.4450(6)
H1 H 0.2297 0.0494 0.4411
H2 H 0.3638 0.0691 0.4456
Cl3 Cl 0.6514(4) 0.5566(2) 0.39549(16)
Cl4 Cl 0.4636(3) 0.47253(16) 0.38845(8)
C2 C 0.6123(9) 0.4810(5) 0.3963(3)
H3 H 0.6539 0.4593 0.3753
H4 H 0.6364 0.4634 0.4223
P1 P 0.17505(13) 0.27249(6) 0.71615(5)
F1 F 0.2403(4) 0.31565(16) 0.68507(13)
F2 F 0.2878(3) 0.22769(16) 0.71530(14)
F3 F 0.1098(4) 0.2288(2) 0.74641(12)
F4 F 0.0628(4) 0.31642(19) 0.71474(12)
F5 F 0.1172(3) 0.23463(16) 0.67859(10)
F6 F 0.2350(4) 0.30991(19) 0.75246(13)
P2 P 0.72821(13) 0.80355(6) 0.50021(4)
F7 F 0.8148(3) 0.75356(15) 0.52025(11)
F8 F 0.8130(3) 0.80601(15) 0.46197(9)
F9 F 0.8062(3) 0.85542(15) 0.52214(11)
F10 F 0.6436(3) 0.85360(19) 0.47949(11)
F11 F 0.6444(3) 0.80075(18) 0.53785(10)
F12 F 0.6509(3) 0.75163(18) 0.47791(11)
O1 O 1.112(2) 0.2969(9) 0.5780(4)
H5 H 1.0993 0.2621 0.5697
N1 N 0.8696(4) 0.34560(17) 0.62361(12)
N2 N 0.3585(4) 0.16271(17) 0.61419(11)
C3 C 1.0365(8) 0.3380(4) 0.5564(2)
H6 H 0.9603 0.3184 0.5501
H7 H 1.0724 0.3486 0.5310
C4 C 1.0161(6) 0.3949(3) 0.5803(2)
H8 H 0.9538 0.4187 0.5665
H9 H 1.0887 0.4191 0.5808
C5 C 0.9808(5) 0.3838(2) 0.6234(2)
H10 H 1.0451 0.3630 0.6382
H11 H 0.9668 0.4225 0.6367
C6 C 0.8762(5) 0.2857(2) 0.63350(15)
H12 H 0.9490 0.2691 0.6424
C7 C 0.7770(4) 0.2495(2) 0.63060(14)
H13 H 0.7825 0.2083 0.6373
C8 C 0.6679(4) 0.27416(19) 0.61762(13)
C9 C 0.6653(4) 0.3366(2) 0.60827(16)
H14 H 0.5936 0.3545 0.5996
C10 C 0.7654(4) 0.3711(2) 0.61158(17)
H15 H 0.7619 0.4126 0.6055
C11 C 0.5585(4) 0.23610(18) 0.61512(12)
C12 C 0.5662(5) 0.1741(2) 0.60657(13)
H16 H 0.6397 0.1566 0.6012
C13 C 0.4653(4) 0.1389(2) 0.60607(13)
H17 H 0.4709 0.0976 0.6000
C14 C 0.3480(5) 0.2229(2) 0.62190(15)
H18 H 0.2734 0.2393 0.6270
C15 C 0.4464(4) 0.2602(2) 0.62226(15)
H19 H 0.4381 0.3017 0.6273
C16 C 0.2505(5) 0.1218(2) 0.61475(16)
H20 H 0.1829 0.1447 0.6243
H21 H 0.2307 0.1080 0.5874
C17 C 0.2730(4) 0.0674(2) 0.64180(15)
C18 C 0.3056(4) 0.0114(2) 0.62485(15)
H22 H 0.3146 0.0085 0.5970
C19 C 0.3248(4) -0.0399(2) 0.64907(16)
C20 C 0.3118(5) -0.0329(2) 0.69061(17)
H23 H 0.3248 -0.0668 0.7072
C21 C 0.2804(5) 0.0219(2) 0.70867(15)
C22 C 0.2602(5) 0.0723(2) 0.68314(15)
H24 H 0.2379 0.1095 0.6942
C23 C 0.3581(5) -0.1018(2) 0.63117(19)
C24 C 0.3767(10) -0.0977(4) 0.5845(3)
H25 H 0.3042 -0.0839 0.5710
H26 H 0.3976 -0.1372 0.5744
H27 H 0.4399 -0.0693 0.5795
C25 C 0.2533(9) -0.1450(4) 0.6357(4)
H28 H 0.2336 -0.1474 0.6638
H29 H 0.2745 -0.1849 0.6262
H30 H 0.1855 -0.1301 0.6200
C26 C 0.4677(10) -0.1269(5) 0.6515(4)
H31 H 0.5336 -0.0999 0.6472
H32 H 0.4848 -0.1663 0.6403
H33 H 0.4556 -0.1308 0.6801
C27 C 0.2669(6) 0.0289(2) 0.75476(17)
C28 C 0.1402(6) 0.0475(4) 0.7636(2)
H34 H 0.1215 0.0854 0.7501
H35 H 0.1330 0.0525 0.7924
H36 H 0.0857 0.0165 0.7540
C29 C 0.3512(6) 0.0786(4) 0.7702(2)
H37 H 0.4319 0.0676 0.7645
H38 H 0.3438 0.0833 0.7990
H39 H 0.3311 0.1164 0.7569
C30 C 0.2983(11) -0.0307(4) 0.7773(2)
H40 H 0.2379 -0.0607 0.7712
H41 H 0.3025 -0.0232 0.8060
H42 H 0.3742 -0.0454 0.7688
O3 O 0.8134(4) 0.52990(15) 0.50715(10)
O4 O 0.8338(3) 0.50223(14) 0.71611(9)
O5 O 0.8362(4) 0.08013(17) 0.71441(11)
O6 O 0.9436(3) 0.13191(18) 0.51125(11)
N3 N 0.8155(4) 0.52082(16) 0.57696(11)
N4 N 0.8234(4) 0.51163(15) 0.64648(11)
N5 N 0.8712(4) 0.09867(17) 0.64690(12)
N6 N 0.9072(4) 0.11645(17) 0.57960(12)
C34 C 0.8172(5) 0.5560(2) 0.54486(14)
C35 C 0.8249(6) 0.6196(2) 0.54516(15)
H55 H 0.8208 0.6418 0.5211
C36 C 0.8386(6) 0.6480(2) 0.58153(15)
H56 H 0.8461 0.6903 0.5827
C37 C 0.8416(5) 0.61314(19) 0.61768(13)
C38 C 0.8554(5) 0.63753(19) 0.65688(13)
H57 H 0.8664 0.6793 0.6605
C39 C 0.8528(5) 0.6004(2) 0.68919(13)
H58 H 0.8628 0.6156 0.7154
C40 C 0.8346(4) 0.53770(19) 0.68219(13)
C41 C 0.8268(4) 0.54926(18) 0.61382(12)
C42 C 0.7650(5) 0.44817(19) 0.71672(13)
C43 C 0.8195(5) 0.3979(2) 0.73485(14)
H59 H 0.9007 0.3982 0.7420
C44 C 0.7498(4) 0.3470(2) 0.74206(14)
C45 C 0.6287(4) 0.34669(19) 0.73061(13)
C46 C 0.5772(5) 0.3962(2) 0.71128(13)
H60 H 0.4970 0.3953 0.7029
C47 C 0.6471(5) 0.4480(2) 0.70437(14)
H61 H 0.6135 0.4821 0.6915
C48 C 0.7060(5) 0.29369(19) 0.80348(14)
C49 C 0.5860(4) 0.29187(18) 0.79218(13)
C50 C 0.5000(5) 0.2931(2) 0.82108(15)
H62 H 0.4191 0.2907 0.8137
C51 C 0.5379(7) 0.2979(2) 0.86193(16)
H63 H 0.4812 0.2986 0.8819
C52 C 0.6563(7) 0.3015(2) 0.87304(16)
H64 H 0.6791 0.3061 0.9003
C53 C 0.7423(6) 0.2984(2) 0.84412(16)
H65 H 0.8231 0.2995 0.8517
C54 C 0.7889(5) 0.2913(2) 0.76712(15)
H66 H 0.8740 0.2916 0.7751
C55 C 0.7507(4) 0.2342(2) 0.74319(14)
C56 C 0.6281(4) 0.23383(19) 0.73194(13)
C57 C 0.5623(4) 0.28995(19) 0.74607(12)
H67 H 0.4770 0.2897 0.7382
C58 C 0.5784(5) 0.1842(2) 0.71207(13)
H68 H 0.4982 0.1845 0.7037
C59 C 0.6496(5) 0.1333(2) 0.70462(13)
H69 H 0.6169 0.0989 0.6919
C60 C 0.7692(5) 0.1346(2) 0.71644(15)
C61 C 0.8216(5) 0.1838(2) 0.73528(15)
H70 H 0.9026 0.1836 0.7426
C62 C 0.8788(5) 0.0621(2) 0.67835(16)
C63 C 0.9320(5) 0.0036(2) 0.67883(17)
H71 H 0.9316 -0.0208 0.7019
C64 C 0.9836(5) -0.0158(2) 0.64482(18)
H72 H 1.0203 -0.0539 0.6442
C65 C 0.9815(4) 0.0221(2) 0.61014(15)
C66 C 0.9208(4) 0.07826(19) 0.61230(14)
C67 C 1.0352(5) 0.0073(2) 0.57337(17)
H73 H 1.0766 -0.0293 0.5710
C68 C 1.0267(5) 0.0458(2) 0.54187(16)
H74 H 1.0655 0.0379 0.5179
C69 C 0.9567(5) 0.0991(2) 0.54624(15)
C70 C 0.8524(5) 0.1749(2) 0.50496(15)
C71 C 0.8834(5) 0.2257(2) 0.48237(15)
H75 H 0.9621 0.2322 0.4754
C72 C 0.7946(5) 0.2660(2) 0.47063(14)
C73 C 0.6766(4) 0.2563(2) 0.48194(13)
C74 C 0.6482(5) 0.2059(2) 0.50444(14)
H76 H 0.5698 0.1995 0.5119
C75 C 0.7365(5) 0.1646(2) 0.51588(14)
H77 H 0.7179 0.1301 0.5309
C76 C 0.7239(6) 0.3176(2) 0.40904(14)
C77 C 0.7518(7) 0.3222(2) 0.36877(17)
H78 H 0.8300 0.3291 0.3614
C78 C 0.6586(10) 0.3163(3) 0.33909(19)
H79 H 0.6760 0.3183 0.3118
C79 C 0.5442(9) 0.3079(3) 0.34976(19)
H80 H 0.4839 0.3056 0.3297
C80 C 0.5151(7) 0.3026(2) 0.39060(17)
H81 H 0.4366 0.2959 0.3978
C81 C 0.6056(6) 0.3077(2) 0.41982(15)
C82 C 0.5922(5) 0.3059(2) 0.46600(14)
H82 H 0.5094 0.2992 0.4736
C83 C 0.8116(5) 0.3234(2) 0.44542(15)
H83 H 0.8945 0.3302 0.4379
C84 C 0.7597(5) 0.3758(2) 0.47053(14)
C85 C 0.6425(5) 0.3656(2) 0.48184(14)
C86 C 0.5837(5) 0.4091(2) 0.50371(15)
H84 H 0.5059 0.4023 0.5116
C87 C 0.6425(6) 0.4636(2) 0.51385(15)
H85 H 0.6040 0.4933 0.5288
C88 C 0.7566(6) 0.4732(2) 0.50183(14)
C89 C 0.8200(5) 0.4296(2) 0.48039(14)
H86 H 0.8985 0.4362 0.4731
H43? H 0.9799 0.3061 0.5627
H44? H 1.0339 0.3456 0.5274
O2? O 1.1551(18) 0.3240(18) 0.5716(8)
H45? H 1.1644 0.3373 0.5947
C31? C 0.475(3) -0.0975(12) 0.6108(9)
H46? H 0.4664 -0.0719 0.5872
H47? H 0.5001 -0.1376 0.6028
H48? H 0.5343 -0.0803 0.6293
C32? C 0.378(3) -0.1516(11) 0.6651(8)
H49? H 0.4409 -0.1385 0.6838
H50? H 0.4008 -0.1895 0.6529
H51? H 0.3059 -0.1572 0.6794
C33? C 0.265(3) -0.1261(14) 0.6034(11)
H52? H 0.1920 -0.1300 0.6173
H53? H 0.2896 -0.1655 0.5937
H54? H 0.2539 -0.0988 0.5808
loop_
_geom_bond_atom_site_label_1
_geom_bond_atom_site_label_2
_geom_bond_site_symmetry_1
_geom_bond_site_symmetry_2
Cl1 C1 1_555 1_555
Cl2 C1 1_555 1_555
C1 H1 1_555 1_555
H2 C1 1_555 1_555
Cl3 C2 1_555 1_555
Cl4 C2 1_555 1_555
C2 H3 1_555 1_555
H4 C2 1_555 1_555
P1 F1 1_555 1_555
F2 P1 1_555 1_555
F3 P1 1_555 1_555
F4 P1 1_555 1_555
F5 P1 1_555 1_555
F6 P1 1_555 1_555
P2 F7 1_555 1_555
F8 P2 1_555 1_555
F9 P2 1_555 1_555
F10 P2 1_555 1_555
F11 P2 1_555 1_555
F12 P2 1_555 1_555
O1 H5 1_555 1_555
N1 C5 1_555 1_555
N2 C13 1_555 1_555
C3 O1 1_555 1_555
H6 C3 1_555 1_555
H7 C3 1_555 1_555
C4 C3 1_555 1_555
H8 C4 1_555 1_555
H9 C4 1_555 1_555
C5 C4 1_555 1_555
H10 C5 1_555 1_555
H11 C5 1_555 1_555
C6 N1 1_555 1_555
H12 C6 1_555 1_555
C7 C6 1_555 1_555
H13 C7 1_555 1_555
C8 C7 1_555 1_555
C9 C8 1_555 1_555
H14 C9 1_555 1_555
C10 N1 1_555 1_555
H15 C10 1_555 1_555
C11 C8 1_555 1_555
C12 C11 1_555 1_555
H16 C12 1_555 1_555
C13 C12 1_555 1_555
H17 C13 1_555 1_555
C14 N2 1_555 1_555
H18 C14 1_555 1_555
C15 C11 1_555 1_555
H19 C15 1_555 1_555
C16 N2 1_555 1_555
H20 C16 1_555 1_555
H21 C16 1_555 1_555
C17 C16 1_555 1_555
C18 C17 1_555 1_555
H22 C18 1_555 1_555
C19 C18 1_555 1_555
C20 C19 1_555 1_555
H23 C20 1_555 1_555
C21 C20 1_555 1_555
C22 C17 1_555 1_555
H24 C22 1_555 1_555
C23 C19 1_555 1_555
C24 C23 1_555 1_555
H25 C24 1_555 1_555
H26 C24 1_555 1_555
H27 C24 1_555 1_555
C25 C23 1_555 1_555
H28 C25 1_555 1_555
H29 C25 1_555 1_555
H30 C25 1_555 1_555
C26 C23 1_555 1_555
H31 C26 1_555 1_555
H32 C26 1_555 1_555
H33 C26 1_555 1_555
C27 C21 1_555 1_555
C28 C27 1_555 1_555
H34 C28 1_555 1_555
H35 C28 1_555 1_555
H36 C28 1_555 1_555
C29 C27 1_555 1_555
H37 C29 1_555 1_555
H38 C29 1_555 1_555
H39 C29 1_555 1_555
C30 C27 1_555 1_555
H40 C30 1_555 1_555
H41 C30 1_555 1_555
H42 C30 1_555 1_555
O3 C34 1_555 1_555
O4 C40 1_555 1_555
O5 C60 1_555 1_555
O6 C69 1_555 1_555
N3 C34 1_555 1_555
N4 C40 1_555 1_555
N5 C62 1_555 1_555
N6 C66 1_555 1_555
C34 C35 1_555 1_555
C35 H55 1_555 1_555
C36 C35 1_555 1_555
H56 C36 1_555 1_555
C37 C36 1_555 1_555
C38 C37 1_555 1_555
H57 C38 1_555 1_555
C39 C38 1_555 1_555
H58 C39 1_555 1_555
C40 C39 1_555 1_555
C41 N3 1_555 1_555
C42 O4 1_555 1_555
C43 C42 1_555 1_555
H59 C43 1_555 1_555
C44 C43 1_555 1_555
C45 C44 1_555 1_555
C46 C45 1_555 1_555
H60 C46 1_555 1_555
C47 C42 1_555 1_555
H61 C47 1_555 1_555
C48 C49 1_555 1_555
C49 C50 1_555 1_555
C50 H62 1_555 1_555
C51 C50 1_555 1_555
H63 C51 1_555 1_555
C52 C51 1_555 1_555
H64 C52 1_555 1_555
C53 C48 1_555 1_555
H65 C53 1_555 1_555
C54 C44 1_555 1_555
H66 C54 1_555 1_555
C55 C54 1_555 1_555
C56 C55 1_555 1_555
C57 C45 1_555 1_555
H67 C57 1_555 1_555
C58 C56 1_555 1_555
H68 C58 1_555 1_555
C59 C58 1_555 1_555
H69 C59 1_555 1_555
C60 C59 1_555 1_555
C61 C55 1_555 1_555
H70 C61 1_555 1_555
C62 O5 1_555 1_555
C63 C62 1_555 1_555
H71 C63 1_555 1_555
C64 C63 1_555 1_555
H72 C64 1_555 1_555
C65 C64 1_555 1_555
C66 N5 1_555 1_555
C67 C65 1_555 1_555
H73 C67 1_555 1_555
C68 C67 1_555 1_555
H74 C68 1_555 1_555
C69 N6 1_555 1_555
C70 O6 1_555 1_555
C71 C70 1_555 1_555
H75 C71 1_555 1_555
C72 C71 1_555 1_555
C73 C72 1_555 1_555
C74 C73 1_555 1_555
H76 C74 1_555 1_555
C75 C70 1_555 1_555
H77 C75 1_555 1_555
C76 C77 1_555 1_555
C77 H78 1_555 1_555
C78 C77 1_555 1_555
H79 C78 1_555 1_555
C79 C78 1_555 1_555
H80 C79 1_555 1_555
C80 C79 1_555 1_555
H81 C80 1_555 1_555
C81 C76 1_555 1_555
C82 C73 1_555 1_555
H82 C82 1_555 1_555
C83 C72 1_555 1_555
H83 C83 1_555 1_555
C84 C83 1_555 1_555
C85 C82 1_555 1_555
C86 C85 1_555 1_555
H84 C86 1_555 1_555
C87 C86 1_555 1_555
H85 C87 1_555 1_555
C88 O3 1_555 1_555
C89 C84 1_555 1_555
H86 C89 1_555 1_555
C9 C10 1_555 1_555
C14 C15 1_555 1_555
C21 C22 1_555 1_555
N4 C41 1_555 1_555
C37 C41 1_555 1_555
C46 C47 1_555 1_555
C48 C54 1_555 1_555
C49 C57 1_555 1_555
C52 C53 1_555 1_555
C56 C57 1_555 1_555
C60 C61 1_555 1_555
C65 C66 1_555 1_555
C68 C69 1_555 1_555
C74 C75 1_555 1_555
C76 C83 1_555 1_555
C80 C81 1_555 1_555
C81 C82 1_555 1_555
C84 C85 1_555 1_555
C87 C88 1_555 1_555
C88 C89 1_555 1_555

#END
