
#######################################################################
#
#                 Cambridge Crystallographic Data Centre
#                                CCDC 
#
#######################################################################
#
# If this CIF has been generated from an entry in the Cambridge 
# Structural Database, then it will include bibliographic, chemical, 
# crystal, experimental, refinement or atomic coordinate data resulting 
# from the CCDC's data processing and validation procedures.
#
#######################################################################

data_MUXLEY
_chemical_formula_moiety         'C11 H14 N4 S3,0.5(C1 H1 Cl3)'
_chemical_name_systematic        
'1-methyl-8-(1-methyl-4,5-dihydro-1H-imidazol-2-yl)-2,3-dihydroimidazo[1,2-c][1,3]thiazine-5,7(1H)-dithione chloroform solvate'
_symmetry_cell_setting           triclinic
_symmetry_space_group_name_H-M   'P -1'
_symmetry_Int_Tables_number      2
_space_group_name_Hall           '-P 1'
loop_
_symmetry_equiv_pos_site_id
_symmetry_equiv_pos_as_xyz
1 x,y,z
2 -x,-y,-z
_cell_length_a                   6.3810(4)
_cell_length_b                   9.6865(6)
_cell_length_c                   12.9845(9)
_cell_angle_alpha                83.448(5)
_cell_angle_beta                 75.993(5)
_cell_angle_gamma                86.625(4)
_cell_volume                     773.21
_exptl_crystal_colour            yellow
_exptl_crystal_description       plate
_cell_formula_units_Z            2
loop_
_atom_site_label
_atom_site_type_symbol
_atom_site_fract_x
_atom_site_fract_y
_atom_site_fract_z
S1 S 1.0515(3) 0.95207(17) 0.21906(15)
S2 S 1.2909(3) 0.74716(19) 0.32324(16)
S3 S 0.7764(3) 1.11791(17) 0.10217(17)
N1 N 0.7906(8) 0.8431(5) 0.1209(4)
N2 N 0.7525(9) 0.6212(5) 0.1072(5)
N3 N 0.9463(10) 0.4605(6) 0.3391(5)
N4 N 1.2129(9) 0.4561(6) 0.1893(5)
C1 C 1.1071(11) 0.7749(7) 0.2498(5)
C2 C 1.0032(10) 0.6734(7) 0.2127(5)
C3 C 0.8563(10) 0.7060(6) 0.1497(5)
C4 C 0.5999(10) 0.6924(7) 0.0503(6)
H1 H 0.4497 0.6673 0.0861
H2 H 0.6319 0.6691 -0.0243
C5 C 0.6331(11) 0.8454(7) 0.0542(6)
H3 H 0.6916 0.8922 -0.0181
H4 H 0.4961 0.8934 0.0871
C6 C 0.8615(10) 0.9628(7) 0.1437(5)
C7 C 0.7602(13) 0.4690(7) 0.1167(7)
H5 H 0.7140 0.4370 0.0570
H6 H 0.6636 0.4334 0.1841
H7 H 0.9083 0.4347 0.1153
C8 C 1.0610(10) 0.5258(6) 0.2446(5)
C9 C 1.2130(13) 0.3171(7) 0.2538(7)
H8 H 1.1365 0.2486 0.2264
H9 H 1.3627 0.2816 0.2513
C10 C 1.103(3) 0.3418(15) 0.3600(13)
H10 H 1.2036 0.3699 0.4005
H11 H 1.0254 0.2588 0.3991
C11 C 0.841(3) 0.5310(17) 0.4326(13)
H12 H 0.9413 0.5327 0.4790
H13 H 0.7119 0.4812 0.4720
H14 H 0.7996 0.6265 0.4098
C12? C 1.000(3) 0.3101(15) 0.3356(13)
H15? H 0.8908 0.2616 0.3115
H16? H 1.0163 0.2645 0.4055
C13? C 0.721(3) 0.5016(18) 0.3892(13)
H17? H 0.7067 0.6031 0.3867
H18? H 0.6835 0.4608 0.4637
H19? H 0.6231 0.4680 0.3505
C14? C 0.487(4) 0.019(3) 0.445(2)
H20? H 0.4580 -0.0154 0.3800
Cl1? Cl 0.6123(10) 0.1723(6) 0.4033(5)
Cl2? Cl 0.6451(14) -0.1117(8) 0.4975(7)
Cl3? Cl 0.2374(14) 0.0421(7) 0.5305(7)
loop_
_geom_bond_atom_site_label_1
_geom_bond_atom_site_label_2
_geom_bond_site_symmetry_1
_geom_bond_site_symmetry_2
S1 C1 1_555 1_555
S2 C1 1_555 1_555
S3 C6 1_555 1_555
N1 C3 1_555 1_555
N2 C3 1_555 1_555
N3 C8 1_555 1_555
N4 C8 1_555 1_555
C1 C2 1_555 1_555
C2 C3 1_555 1_555
C4 N2 1_555 1_555
H1 C4 1_555 1_555
H2 C4 1_555 1_555
C5 N1 1_555 1_555
H3 C5 1_555 1_555
H4 C5 1_555 1_555
C6 S1 1_555 1_555
C7 N2 1_555 1_555
H5 C7 1_555 1_555
H6 C7 1_555 1_555
H7 C7 1_555 1_555
C8 C2 1_555 1_555
C9 N4 1_555 1_555
H8 C9 1_555 1_555
H9 C9 1_555 1_555
C10 N3 1_555 1_555
H10 C10 1_555 1_555
H11 C10 1_555 1_555
C11 N3 1_555 1_555
H12 C11 1_555 1_555
H13 C11 1_555 1_555
H14 C11 1_555 1_555
N1 C6 1_555 1_555
C4 C5 1_555 1_555
C9 C10 1_555 1_555

#END
