
#######################################################################
#
#                 Cambridge Crystallographic Data Centre
#                                CCDC 
#
#######################################################################
#
# If this CIF has been generated from an entry in the Cambridge 
# Structural Database, then it will include bibliographic, chemical, 
# crystal, experimental, refinement or atomic coordinate data resulting 
# from the CCDC's data processing and validation procedures.
#
#######################################################################

data_MUXWEI
_chemical_formula_moiety         'C34 H42 N6 O6,C12 H8 N2'
_chemical_name_systematic        
'5,11,17,23-Tetra-t-butyl-2,8,14,20-tetraoxa-4,6,16,18,26,28-hexaazapentacyclo[19.3.1.1^3,7^.1^9,13^.1^15,19^]octacosa-1(25),3(28),4,6,9(27),10,12,15(26),16,18,21,23-dodecaene-25,27-diol 1,10-phenanthroline solvate'
_symmetry_cell_setting           monoclinic
_symmetry_space_group_name_H-M   'P 21/n'
_symmetry_Int_Tables_number      14
_space_group_name_Hall           '-P 2yn'
loop_
_symmetry_equiv_pos_site_id
_symmetry_equiv_pos_as_xyz
1 x,y,z
2 1/2-x,1/2+y,1/2-z
3 -x,-y,-z
4 1/2+x,1/2-y,1/2+z
_cell_length_a                   10.378(2)
_cell_length_b                   17.795(4)
_cell_length_c                   24.280(5)
_cell_angle_alpha                90
_cell_angle_beta                 102.18(3)
_cell_angle_gamma                90
_cell_volume                     4383.01
_exptl_crystal_colour            colorless
_exptl_crystal_description       block
_cell_formula_units_Z            4
loop_
_atom_site_label
_atom_site_type_symbol
_atom_site_fract_x
_atom_site_fract_y
_atom_site_fract_z
O1 O 0.14829(18) 0.81130(9) 0.21912(7)
O2 O -0.08435(18) 1.02213(10) 0.27179(8)
O3 O 0.21757(16) 1.17612(9) 0.21726(7)
O4 O 0.46032(16) 0.96431(9) 0.17082(7)
O5 O 0.01084(17) 0.94566(10) 0.18791(7)
H1 H 0.0769 0.9742 0.1752
O6 O 0.22268(16) 1.05260(10) 0.15108(7)
H2 H 0.2477 1.0275 0.1173
N1 N 0.4194(2) 0.85154(11) 0.12946(9)
N2 N 0.2578(2) 0.77220(11) 0.15498(8)
N3 N 0.30317(19) 0.89192(10) 0.19823(8)
N4 N -0.1463(2) 1.13569(12) 0.23695(9)
N5 N 0.0105(2) 1.21626(11) 0.20964(9)
N6 N 0.07509(19) 1.09464(11) 0.24617(8)
C1 C -0.3524(4) 1.2315(3) 0.2039(3)
H3 H -0.3704 1.1849 0.1822
H4 H -0.4190 1.2692 0.1883
H5 H -0.3554 1.2218 0.2433
C2 C -0.2196(6) 1.2829(4) 0.1388(2)
H6 H -0.1329 1.3015 0.1352
H7 H -0.2857 1.3223 0.1273
H8 H -0.2430 1.2388 0.1145
C3 C -0.1756(7) 1.3276(3) 0.2389(3)
H9 H -0.1698 1.3123 0.2782
H10 H -0.2416 1.3675 0.2292
H11 H -0.0897 1.3463 0.2344
C4 C 0.3146(16) 0.6527(3) 0.0954(5)
H12 H 0.3452 0.6380 0.1349
H13 H 0.3399 0.6140 0.0709
H14 H 0.2185 0.6580 0.0870
C5 C 0.5322(4) 1.0397(3) 0.39881(15)
H15 H 0.5168 0.9884 0.3841
H16 H 0.4478 1.0626 0.4014
H17 H 0.5902 1.0381 0.4363
C6 C 0.7340(3) 1.0557(3) 0.36059(15)
H18 H 0.7280 1.0024 0.3502
H19 H 0.7880 1.0612 0.3987
H20 H 0.7747 1.0837 0.3339
C7 C 0.1291(4) 0.9140(2) 0.46004(13)
H21 H 0.1611 0.9652 0.4561
H22 H 0.1608 0.8968 0.4989
H23 H 0.0325 0.9138 0.4510
C8 C 0.6116(4) 1.1670(2) 0.38244(16)
H24 H 0.6705 1.1670 0.4197
H25 H 0.5248 1.1861 0.3855
H26 H 0.6486 1.1993 0.3569
C9 C 0.3320(3) 0.8640(2) 0.43338(14)
H27 H 0.3619 0.9154 0.4286
H28 H 0.3655 0.8302 0.4078
H29 H 0.3653 0.8478 0.4724
C10 C 0.5259(3) 0.7254(2) 0.08635(15)
H30 H 0.5553 0.7746 0.0757
H31 H 0.5436 0.6872 0.0599
H32 H 0.5735 0.7127 0.1245
C11 C 0.1364(3) 0.78225(17) 0.42958(12)
H33 H 0.1707 0.7679 0.4689
H34 H 0.1703 0.7475 0.4047
H35 H 0.0399 0.7800 0.4214
C12 C 0.3053(3) 0.75191(19) 0.02607(12)
H36 H 0.2101 0.7469 0.0232
H37 H 0.3327 0.7197 -0.0022
H38 H 0.3265 0.8044 0.0195
C13 C 0.5974(3) 1.08627(16) 0.35903(12)
C14 C -0.2154(3) 1.26081(15) 0.20054(12)
C15 C 0.1803(3) 0.86180(15) 0.41991(11)
C16 C 0.3779(3) 0.72813(14) 0.08486(11)
C17 C 0.4026(3) 1.13039(13) 0.28435(11)
H39 H 0.3889 1.1694 0.3092
C18 C 0.5269(2) 1.02759(14) 0.26004(11)
H40 H 0.6023 0.9960 0.2679
C19 C -0.1104(3) 1.20034(14) 0.21648(10)
C20 C -0.0486(2) 1.08655(13) 0.25056(10)
C21 C 0.0503(2) 0.92559(13) 0.24360(10)
C22 C 0.5100(2) 1.08203(14) 0.29967(11)
C23 C 0.3506(3) 0.78722(13) 0.12590(10)
C24 C 0.0095(2) 0.96481(13) 0.28581(10)
C25 C 0.3162(2) 1.12147(12) 0.23303(11)
C26 C 0.2409(2) 0.82668(12) 0.18996(10)
C27 C 0.1305(2) 0.88424(13) 0.35826(10)
C28 C 0.0476(2) 0.94536(13) 0.34200(10)
H41 H 0.0170 0.9739 0.3697
C29 C 0.1257(2) 0.86182(12) 0.26028(10)
C30 C 0.4357(2) 1.01884(13) 0.20939(10)
C31 C 0.0971(2) 1.16088(13) 0.22484(10)
C32 C 0.3899(2) 0.89995(13) 0.16607(10)
C33 C 0.3241(2) 1.06341(13) 0.19554(10)
C34 C 0.1668(2) 0.84157(13) 0.31564(10)
H42 H 0.2203 0.7982 0.3251
N7 N -0.3010(2) 0.97405(12) -0.05595(9)
N8 N -0.1068(2) 1.07612(11) -0.06177(8)
C35 C -0.4328(3) 0.9061(2) -0.00329(16)
H43 H -0.5000 0.8698 -0.0032
C36 C -0.2067(3) 1.0326(2) 0.09367(12)
H44 H -0.2312 1.0234 0.1286
C37 C 0.0306(3) 1.14813(17) 0.03543(12)
H45 H 0.0780 1.1726 0.0683
C38 C -0.3726(3) 0.94080(19) 0.04540(15)
H46 H -0.3975 0.9289 0.0798
C39 C -0.1097(3) 1.08134(19) 0.09128(11)
H47 H -0.0654 1.1055 0.1249
C40 C -0.3942(3) 0.92474(17) -0.05304(14)
H48 H -0.4374 0.9006 -0.0868
C41 C -0.2732(3) 0.99444(17) 0.04443(12)
C42 C 0.0611(3) 1.16155(16) -0.01540(13)
H49 H 0.1297 1.1955 -0.0186
C43 C -0.0108(3) 1.12422(14) -0.06313(11)
H50 H 0.0110 1.1343 -0.0985
C44 C -0.2399(2) 1.00942(14) -0.00789(10)
C45 C -0.1365(2) 1.06274(13) -0.01086(10)
C46 C -0.0711(3) 1.09799(15) 0.03919(11)
C47? C -0.3410(11) 1.2245(7) 0.1685(7)
C48? C -0.1688(14) 1.3236(7) 0.1660(7)
C49? C -0.2334(15) 1.2959(8) 0.2563(4)
C50? C 0.373(3) 0.6485(4) 0.1082(7)
H51? H -0.3238 1.1998 0.1347
H52? H -0.4090 1.2630 0.1574
H53? H -0.3714 1.1871 0.1925
H54? H -0.0900 1.3475 0.1885
H55? H -0.2388 1.3611 0.1556
H56? H -0.1477 1.3022 0.1318
H57? H -0.2677 1.2579 0.2787
H58? H -0.2958 1.3378 0.2484
H59? H -0.1483 1.3143 0.2774
H60? H 0.4406 0.6433 0.1430
H61? H 0.3906 0.6120 0.0803
H62? H 0.2861 0.6390 0.1161
loop_
_geom_bond_atom_site_label_1
_geom_bond_atom_site_label_2
_geom_bond_site_symmetry_1
_geom_bond_site_symmetry_2
O1 C26 1_555 1_555
O2 C20 1_555 1_555
O3 C25 1_555 1_555
O4 C30 1_555 1_555
O5 H1 1_555 1_555
O6 H2 1_555 1_555
N1 C23 1_555 1_555
N2 C23 1_555 1_555
N3 C26 1_555 1_555
N4 C19 1_555 1_555
N5 C19 1_555 1_555
N6 C20 1_555 1_555
C1 H3 1_555 1_555
H4 C1 1_555 1_555
H5 C1 1_555 1_555
C2 H6 1_555 1_555
H7 C2 1_555 1_555
H8 C2 1_555 1_555
C3 H9 1_555 1_555
H10 C3 1_555 1_555
H11 C3 1_555 1_555
C4 H12 1_555 1_555
H13 C4 1_555 1_555
H14 C4 1_555 1_555
C5 H15 1_555 1_555
H16 C5 1_555 1_555
H17 C5 1_555 1_555
C6 H18 1_555 1_555
H19 C6 1_555 1_555
H20 C6 1_555 1_555
C7 H21 1_555 1_555
H22 C7 1_555 1_555
H23 C7 1_555 1_555
C8 H24 1_555 1_555
H25 C8 1_555 1_555
H26 C8 1_555 1_555
C9 H27 1_555 1_555
H28 C9 1_555 1_555
H29 C9 1_555 1_555
C10 H30 1_555 1_555
H31 C10 1_555 1_555
H32 C10 1_555 1_555
C11 H33 1_555 1_555
H34 C11 1_555 1_555
H35 C11 1_555 1_555
C12 H36 1_555 1_555
H37 C12 1_555 1_555
H38 C12 1_555 1_555
C13 C5 1_555 1_555
C14 C1 1_555 1_555
C15 C7 1_555 1_555
C16 C4 1_555 1_555
C17 H39 1_555 1_555
C18 H40 1_555 1_555
C19 C14 1_555 1_555
C20 N4 1_555 1_555
C21 O5 1_555 1_555
C22 C13 1_555 1_555
C23 C16 1_555 1_555
C24 O2 1_555 1_555
C25 C17 1_555 1_555
C26 N2 1_555 1_555
C27 C15 1_555 1_555
C28 C24 1_555 1_555
H41 C28 1_555 1_555
C29 O1 1_555 1_555
C30 C18 1_555 1_555
C31 O3 1_555 1_555
C32 O4 1_555 1_555
C33 O6 1_555 1_555
C34 C27 1_555 1_555
H42 C34 1_555 1_555
N7 C40 1_555 1_555
N8 C43 1_555 1_555
C35 H43 1_555 1_555
C36 H44 1_555 1_555
C37 H45 1_555 1_555
C38 C35 1_555 1_555
H46 C38 1_555 1_555
C39 C36 1_555 1_555
H47 C39 1_555 1_555
C40 C35 1_555 1_555
H48 C40 1_555 1_555
C41 C36 1_555 1_555
C42 C37 1_555 1_555
H49 C42 1_555 1_555
C43 C42 1_555 1_555
H50 C43 1_555 1_555
C44 N7 1_555 1_555
C45 N8 1_555 1_555
C46 C37 1_555 1_555
N1 C32 1_555 1_555
N3 C32 1_555 1_555
N5 C31 1_555 1_555
N6 C31 1_555 1_555
C2 C14 1_555 1_555
C3 C14 1_555 1_555
C6 C13 1_555 1_555
C8 C13 1_555 1_555
C9 C15 1_555 1_555
C10 C16 1_555 1_555
C11 C15 1_555 1_555
C12 C16 1_555 1_555
C17 C22 1_555 1_555
C18 C22 1_555 1_555
C21 C24 1_555 1_555
C21 C29 1_555 1_555
C25 C33 1_555 1_555
C27 C28 1_555 1_555
C29 C34 1_555 1_555
C30 C33 1_555 1_555
C38 C41 1_555 1_555
C39 C46 1_555 1_555
C41 C44 1_555 1_555
C44 C45 1_555 1_555
C45 C46 1_555 1_555

#END
