
#######################################################################
#
#                 Cambridge Crystallographic Data Centre
#                                CCDC 
#
#######################################################################
#
# If this CIF has been generated from an entry in the Cambridge 
# Structural Database, then it will include bibliographic, chemical, 
# crystal, experimental, refinement or atomic coordinate data resulting 
# from the CCDC's data processing and validation procedures.
#
#######################################################################

data_MUYBAK
_chemical_formula_moiety         'C6 H2 N3 O8 1-,C1 H9 N6 1+'
_chemical_name_systematic        
'(Dihydrazinomethylene)hydrazinium 3-hydroxy-2,4,6-trinitrophenolate'
_symmetry_cell_setting           triclinic
_symmetry_space_group_name_H-M   'P -1'
_symmetry_Int_Tables_number      2
_space_group_name_Hall           '-P 1'
loop_
_symmetry_equiv_pos_site_id
_symmetry_equiv_pos_as_xyz
1 x,y,z
2 -x,-y,-z
_cell_length_a                   7.5554(15)
_cell_length_b                   9.0816(18)
_cell_length_c                   10.264(2)
_cell_angle_alpha                101.61(3)
_cell_angle_beta                 91.96(3)
_cell_angle_gamma                107.74(3)
_cell_volume                     653.6
_exptl_crystal_colour            yellow
_exptl_crystal_description       block
_cell_formula_units_Z            2
loop_
_atom_site_label
_atom_site_type_symbol
_atom_site_fract_x
_atom_site_fract_y
_atom_site_fract_z
O1 O 0.31663(19) 0.05308(15) 0.58118(13)
O2 O 0.1448(2) 0.03373(15) 0.40225(13)
O3 O 0.07611(19) 0.46589(15) 0.25911(12)
O4 O 0.18197(18) 0.70612(14) 0.37935(12)
O5 O 0.35172(18) 0.76698(14) 0.61522(12)
H1 H 0.3124 0.7908 0.5496
O6 O 0.63323(17) 0.75353(15) 0.79835(13)
O7 O 0.4242(2) 0.63665(16) 0.91456(12)
O8 O 0.43248(19) 0.33324(15) 0.76305(12)
N1 N 0.2392(2) 0.11174(17) 0.50746(14)
N2 N 0.1557(2) 0.55964(17) 0.36348(15)
N3 N 0.4857(2) 0.65206(17) 0.80813(15)
C1 C 0.2641(2) 0.2810(2) 0.54431(17)
C2 C 0.1944(2) 0.3417(2) 0.45037(18)
H2 H 0.1280 0.2734 0.3720
C3 C 0.2206(2) 0.5033(2) 0.46938(17)
C4 C 0.3195(2) 0.6096(2) 0.59006(17)
C5 C 0.3813(2) 0.5443(2) 0.68457(17)
C6 C 0.3640(2) 0.3785(2) 0.67254(17)
N4 N 0.2255(2) 0.93160(18) -0.05764(15)
H3 H 0.3408 0.9879 -0.0359
N5 N 0.1275(2) 0.93715(19) -0.17555(15)
N6 N -0.0479(2) 0.76410(17) -0.01180(15)
H4 H -0.1124 0.7919 -0.0673
N7 N -0.1319(2) 0.6383(2) 0.05125(18)
N8 N 0.2217(2) 0.81960(18) 0.12605(15)
H5 H 0.1623 0.7548 0.1723
N9 N 0.4124(2) 0.90787(18) 0.16402(15)
C7 C 0.1354(2) 0.8376(2) 0.01855(17)
H6 H 0.184(3) 0.903(2) -0.2454(15)
H7 H 0.131(3) 1.0392(14) -0.168(2)
H8 H -0.240(2) 0.649(2) 0.0828(18)
H9 H -0.158(3) 0.5466(18) -0.0113(19)
H10 H 0.467(2) 0.8425(17) 0.1921(17)
H11 H 0.419(3) 0.9909(16) 0.2319(15)
loop_
_geom_bond_atom_site_label_1
_geom_bond_atom_site_label_2
_geom_bond_site_symmetry_1
_geom_bond_site_symmetry_2
O1 N1 1_555 1_555
O2 N1 1_555 1_555
O3 N2 1_555 1_555
O4 N2 1_555 1_555
O5 H1 1_555 1_555
O6 N3 1_555 1_555
O7 N3 1_555 1_555
O8 C6 1_555 1_555
N1 C1 1_555 1_555
N2 C3 1_555 1_555
N3 C5 1_555 1_555
C1 C2 1_555 1_555
C2 H2 1_555 1_555
C3 C2 1_555 1_555
C4 O5 1_555 1_555
C5 C4 1_555 1_555
C6 C1 1_555 1_555
N4 H3 1_555 1_555
N5 N4 1_555 1_555
N6 H4 1_555 1_555
N7 N6 1_555 1_555
N8 H5 1_555 1_555
N9 N8 1_555 1_555
C7 N4 1_555 1_555
H6 N5 1_555 1_555
H7 N5 1_555 1_555
H8 N7 1_555 1_555
H9 N7 1_555 1_555
H10 N9 1_555 1_555
H11 N9 1_555 1_555
C3 C4 1_555 1_555
C5 C6 1_555 1_555
N6 C7 1_555 1_555
N8 C7 1_555 1_555

#END
