
#######################################################################
#
#                 Cambridge Crystallographic Data Centre
#                                CCDC 
#
#######################################################################
#
# If this CIF has been generated from an entry in the Cambridge 
# Structural Database, then it will include bibliographic, chemical, 
# crystal, experimental, refinement or atomic coordinate data resulting 
# from the CCDC's data processing and validation procedures.
#
#######################################################################

data_MUYDER
_chemical_formula_moiety         'C15 H17 N1 O4 S1'
_chemical_name_systematic        
4-methyl-2-((4-methylphenyl)sulfonyl)-2,3,7,7a-tetrahydropyrano[3,4-c]pyrrol-6(1H)-one
_symmetry_cell_setting           monoclinic
_symmetry_space_group_name_H-M   'P 21'
_symmetry_Int_Tables_number      4
_space_group_name_Hall           'P 2yb'
loop_
_symmetry_equiv_pos_site_id
_symmetry_equiv_pos_as_xyz
1 x,y,z
2 -x,1/2+y,-z
_cell_length_a                   12.3765(10)
_cell_length_b                   7.7653(5)
_cell_length_c                   15.2165(13)
_cell_angle_alpha                90
_cell_angle_beta                 98.432(7)
_cell_angle_gamma                90
_cell_volume                     1446.61
_exptl_crystal_colour            colorless
_exptl_crystal_description       prism
_cell_formula_units_Z            4
loop_
_atom_site_label
_atom_site_type_symbol
_atom_site_fract_x
_atom_site_fract_y
_atom_site_fract_z
S1 S 0.51107(6) 0.55388(11) 0.27522(6)
O1 O 0.50211(19) 0.7248(3) 0.23755(17)
O2 O 0.61670(18) 0.4755(4) 0.29939(17)
O3 O 0.14445(19) 0.1129(3) 0.06175(17)
O4 O 0.1674(2) -0.1687(4) 0.07494(19)
N1 N 0.4407(2) 0.4251(4) 0.20368(19)
C1 C 0.3302(2) 0.4799(5) 0.1599(2)
H1 H 0.3353 0.5631 0.1114
H2 H 0.2873 0.5316 0.2032
C2 C 0.2814(3) 0.3103(4) 0.1243(2)
C3 C 0.1797(3) 0.2824(4) 0.0861(2)
C4 C 0.2017(3) -0.0279(5) 0.0976(2)
C5 C 0.3008(3) 0.0033(4) 0.1668(2)
H3 H 0.3501 -0.0975 0.1693
H4 H 0.2772 0.0163 0.2259
C6 C 0.3625(2) 0.1648(4) 0.1456(2)
H5 H 0.4019 0.1428 0.0938
C7 C 0.4425(3) 0.2376(5) 0.2246(2)
H6 H 0.4164 0.2150 0.2820
H7 H 0.5167 0.1887 0.2263
C8 C 0.0905(3) 0.4102(5) 0.0606(3)
H8 H 0.0357 0.3992 0.1006
H9 H 0.0563 0.3884 -0.0007
H10 H 0.1211 0.5268 0.0650
C9 C 0.4461(2) 0.5580(5) 0.3715(2)
C10 C 0.4875(3) 0.4609(5) 0.4464(2)
H11 H 0.5505 0.3914 0.4457
C11 C 0.4363(3) 0.4659(5) 0.5218(2)
H12 H 0.4650 0.3994 0.5722
C12 C 0.3435(3) 0.5668(5) 0.5250(2)
C13 C 0.3022(3) 0.6608(5) 0.4495(2)
H13 H 0.2378 0.7271 0.4499
C14 C 0.3525(3) 0.6604(5) 0.3734(2)
H14 H 0.3240 0.7283 0.3234
C15 C 0.2901(3) 0.5759(6) 0.6073(2)
H15 H 0.3051 0.6881 0.6359
H16 H 0.3192 0.4844 0.6485
H17 H 0.2110 0.5610 0.5913
S2 S 0.99549(7) -0.25370(11) 0.28383(6)
O5 O 0.9828(2) -0.4255(4) 0.24851(17)
O6 O 1.10215(19) -0.1749(4) 0.30227(16)
O7 O 0.62984(19) 0.1958(3) 0.07445(18)
O8 O 0.6681(2) 0.4724(4) 0.0649(2)
N2 N 0.9216(2) -0.1268(4) 0.2148(2)
C16 C 0.8072(3) -0.1776(6) 0.1761(3)
H18 H 0.7693 -0.2361 0.2206
H19 H 0.8068 -0.2534 0.1237
C17 C 0.7562(3) -0.0042(5) 0.1500(3)
C18 C 0.6649(3) 0.0246(5) 0.0958(2)
C19 C 0.7001(3) 0.3320(5) 0.0896(2)
C20 C 0.8161(3) 0.2915(5) 0.1310(3)
H20 H 0.8603 0.2688 0.0830
H21 H 0.8474 0.3940 0.1642
C21 C 0.8259(3) 0.1404(6) 0.1928(3)
H22 H 0.7980 0.1747 0.2486
C22 C 0.9381(3) 0.0621(6) 0.2171(3)
H23 H 0.9865 0.0971 0.1739
H24 H 0.9715 0.0998 0.2771
C23 C 0.5821(3) -0.1021(5) 0.0554(2)
H25 H 0.6145 -0.2175 0.0584
H26 H 0.5578 -0.0714 -0.0068
H27 H 0.5195 -0.1010 0.0881
C24 C 0.9384(2) -0.2564(5) 0.3845(2)
C25 C 0.9850(3) -0.1583(5) 0.4568(2)
H28 H 1.0472 -0.0889 0.4525
C26 C 0.9400(3) -0.1622(5) 0.5357(2)
H29 H 0.9736 -0.0987 0.5857
C27 C 0.8453(3) -0.2590(5) 0.5420(2)
C28 C 0.7993(3) -0.3533(6) 0.4673(3)
H30 H 0.7350 -0.4185 0.4701
C29 C 0.8449(3) -0.3539(5) 0.3901(2)
H31 H 0.8128 -0.4205 0.3408
C30 C 0.7965(3) -0.2632(6) 0.6274(3)
H32 H 0.7205 -0.2243 0.6158
H33 H 0.8383 -0.1870 0.6711
H34 H 0.7992 -0.3811 0.6505
loop_
_geom_bond_atom_site_label_1
_geom_bond_atom_site_label_2
_geom_bond_site_symmetry_1
_geom_bond_site_symmetry_2
S1 O1 1_555 1_555
O2 S1 1_555 1_555
O3 C3 1_555 1_555
O4 C4 1_555 1_555
N1 S1 1_555 1_555
C1 N1 1_555 1_555
H1 C1 1_555 1_555
H2 C1 1_555 1_555
C2 C1 1_555 1_555
C3 C2 1_555 1_555
C4 O3 1_555 1_555
C5 C4 1_555 1_555
H3 C5 1_555 1_555
H4 C5 1_555 1_555
C6 C2 1_555 1_555
H5 C6 1_555 1_555
C7 N1 1_555 1_555
H6 C7 1_555 1_555
H7 C7 1_555 1_555
C8 C3 1_555 1_555
H8 C8 1_555 1_555
H9 C8 1_555 1_555
H10 C8 1_555 1_555
C9 S1 1_555 1_555
C10 C9 1_555 1_555
H11 C10 1_555 1_555
C11 C10 1_555 1_555
H12 C11 1_555 1_555
C12 C11 1_555 1_555
C13 C12 1_555 1_555
H13 C13 1_555 1_555
C14 C9 1_555 1_555
H14 C14 1_555 1_555
C15 C12 1_555 1_555
H15 C15 1_555 1_555
H16 C15 1_555 1_555
H17 C15 1_555 1_555
S2 O5 1_555 1_555
O6 S2 1_555 1_555
O7 C18 1_555 1_555
O8 C19 1_555 1_555
N2 S2 1_555 1_555
C16 N2 1_555 1_555
H18 C16 1_555 1_555
H19 C16 1_555 1_555
C17 C16 1_555 1_555
C18 C17 1_555 1_555
C19 O7 1_555 1_555
C20 C19 1_555 1_555
H20 C20 1_555 1_555
H21 C20 1_555 1_555
C21 C17 1_555 1_555
H22 C21 1_555 1_555
C22 N2 1_555 1_555
H23 C22 1_555 1_555
H24 C22 1_555 1_555
C23 C18 1_555 1_555
H25 C23 1_555 1_555
H26 C23 1_555 1_555
H27 C23 1_555 1_555
C24 S2 1_555 1_555
C25 C24 1_555 1_555
H28 C25 1_555 1_555
C26 C25 1_555 1_555
H29 C26 1_555 1_555
C27 C26 1_555 1_555
C28 C27 1_555 1_555
H30 C28 1_555 1_555
C29 C24 1_555 1_555
H31 C29 1_555 1_555
C30 C27 1_555 1_555
H32 C30 1_555 1_555
H33 C30 1_555 1_555
H34 C30 1_555 1_555
C5 C6 1_555 1_555
C6 C7 1_555 1_555
C13 C14 1_555 1_555
C20 C21 1_555 1_555
C21 C22 1_555 1_555
C28 C29 1_555 1_555

#END
