
#######################################################################
#
#                 Cambridge Crystallographic Data Centre
#                                CCDC 
#
#######################################################################
#
# If this CIF has been generated from an entry in the Cambridge 
# Structural Database, then it will include bibliographic, chemical, 
# crystal, experimental, refinement or atomic coordinate data resulting 
# from the CCDC's data processing and validation procedures.
#
#######################################################################

data_NABNOW
_chemical_formula_moiety         'C15 H16 N3 O3 1+,N1 O3 1-'
_chemical_name_systematic        
'4-((2-(3-ethoxy-2-hydroxybenzylidene)hydrazino)carbonyl)pyridinium nitrate'
_symmetry_cell_setting           triclinic
_symmetry_space_group_name_H-M   'P -1'
_symmetry_Int_Tables_number      2
_space_group_name_Hall           '-P 1'
loop_
_symmetry_equiv_pos_site_id
_symmetry_equiv_pos_as_xyz
1 x,y,z
2 -x,-y,-z
_cell_length_a                   6.7534(6)
_cell_length_b                   6.9666(5)
_cell_length_c                   16.5537(16)
_cell_angle_alpha                81.186(5)
_cell_angle_beta                 81.253(5)
_cell_angle_gamma                81.675(4)
_cell_volume                     754.767
_exptl_crystal_colour            orange
_exptl_crystal_description       BLOCK
_cell_formula_units_Z            2
loop_
_atom_site_label
_atom_site_type_symbol
_atom_site_fract_x
_atom_site_fract_y
_atom_site_fract_z
O1 O 0.39524(17) -0.13216(16) 0.22591(7)
O2 O 0.81408(17) -0.01613(15) 0.33338(7)
H1 H 0.716(2) 0.011(2) 0.3044(10)
O3 O 1.12500(16) -0.02540(15) 0.40720(7)
N1 N -0.1868(2) 0.0647(2) 0.07089(9)
H2 H -0.291(2) 0.073(3) 0.0438(11)
N2 N 0.38769(19) 0.19883(19) 0.20337(8)
H3 H 0.349(3) 0.3108(17) 0.1766(10)
N3 N 0.54621(19) 0.18682(19) 0.24799(8)
C1 C 0.0897(2) 0.2103(2) 0.09286(10)
H4 H 0.1687 0.3159 0.0809
C2 C -0.0768(2) 0.2140(2) 0.05367(10)
H5 H -0.1135 0.3228 0.0144
C3 C -0.1422(2) -0.0927(3) 0.12571(11)
H6 H -0.2245 -0.1958 0.1366
C4 C 0.0240(2) -0.1037(2) 0.16605(10)
H7 H 0.0584 -0.2153 0.2044
C5 C 0.1407(2) 0.0496(2) 0.15026(10)
C6 C 0.3212(2) 0.0282(2) 0.19631(9)
C7 C 0.5935(2) 0.3468(2) 0.26485(9)
H8 H 0.5181 0.4686 0.2481
C8 C 0.7639(2) 0.3393(2) 0.30994(9)
C9 C 0.8682(2) 0.1598(2) 0.34051(9)
C10 C 1.0358(2) 0.1574(2) 0.38176(10)
C11 C 1.0945(2) 0.3326(2) 0.39352(10)
H9 H 1.2070 0.3311 0.4219
C12 C 0.9901(2) 0.5113(2) 0.36412(10)
H10 H 1.0312 0.6306 0.3726
C13 C 0.8269(2) 0.5141(2) 0.32261(10)
H11 H 0.7565 0.6360 0.3024
C14 C 1.3054(2) -0.0416(2) 0.44532(10)
H12 H 1.2742 0.0084 0.4993
H13 H 1.4060 0.0348 0.4097
C15 C 1.3857(2) -0.2557(2) 0.45666(11)
H14 H 1.5134 -0.2732 0.4798
H15 H 1.4086 -0.3048 0.4032
H16 H 1.2876 -0.3284 0.4944
O4 O 0.49167(17) 0.81280(15) 0.03116(7)
O5 O 0.32414(17) 0.57355(15) 0.09099(7)
O6 O 0.64633(17) 0.55183(16) 0.09443(7)
N4 N 0.4881(2) 0.64500(18) 0.07222(8)
loop_
_geom_bond_atom_site_label_1
_geom_bond_atom_site_label_2
_geom_bond_site_symmetry_1
_geom_bond_site_symmetry_2
O1 C6 1_555 1_555
O2 H1 1_555 1_555
O3 C10 1_555 1_555
N1 H2 1_555 1_555
N2 H3 1_555 1_555
N3 N2 1_555 1_555
C1 H4 1_555 1_555
C2 N1 1_555 1_555
H5 C2 1_555 1_555
C3 N1 1_555 1_555
H6 C3 1_555 1_555
C4 C3 1_555 1_555
H7 C4 1_555 1_555
C5 C1 1_555 1_555
C6 N2 1_555 1_555
C7 N3 1_555 1_555
H8 C7 1_555 1_555
C8 C7 1_555 1_555
C9 O2 1_555 1_555
C10 C9 1_555 1_555
C11 C10 1_555 1_555
H9 C11 1_555 1_555
C12 C11 1_555 1_555
H10 C12 1_555 1_555
C13 C8 1_555 1_555
H11 C13 1_555 1_555
C14 O3 1_555 1_555
H12 C14 1_555 1_555
H13 C14 1_555 1_555
C15 C14 1_555 1_555
H14 C15 1_555 1_555
H15 C15 1_555 1_555
H16 C15 1_555 1_555
O4 N4 1_555 1_555
O5 N4 1_555 1_555
O6 N4 1_555 1_555
C1 C2 1_555 1_555
C4 C5 1_555 1_555
C5 C6 1_555 1_555
C8 C9 1_555 1_555
C12 C13 1_555 1_555

#END
