
#######################################################################
#
#                 Cambridge Crystallographic Data Centre
#                                CCDC 
#
#######################################################################
#
# If this CIF has been generated from an entry in the Cambridge 
# Structural Database, then it will include bibliographic, chemical, 
# crystal, experimental, refinement or atomic coordinate data resulting 
# from the CCDC's data processing and validation procedures.
#
#######################################################################

data_NACGOQ
_chemical_formula_moiety         'C41 H21 F15'
_chemical_name_systematic        
1,2,3,4,5-pentakis(4-trifluoromethylphenyl)benzene
_symmetry_cell_setting           orthorhombic
_symmetry_space_group_name_H-M   'P 21 21 21'
_symmetry_Int_Tables_number      19
_space_group_name_Hall           'P 2ac 2ab'
loop_
_symmetry_equiv_pos_site_id
_symmetry_equiv_pos_as_xyz
1 x,y,z
2 1/2+x,1/2-y,-z
3 -x,1/2+y,1/2-z
4 1/2-x,-y,1/2+z
_cell_length_a                   9.2368(2)
_cell_length_b                   17.9332(3)
_cell_length_c                   21.6447(3)
_cell_angle_alpha                90
_cell_angle_beta                 90
_cell_angle_gamma                90
_cell_volume                     3585.34
_exptl_crystal_colour            colorless
_exptl_crystal_description       prism
_cell_formula_units_Z            4
loop_
_atom_site_label
_atom_site_type_symbol
_atom_site_fract_x
_atom_site_fract_y
_atom_site_fract_z
C1 C 0.9635(2) 0.39236(11) 1.02810(9)
H1 H 0.9887 0.3716 1.0670
C2 C 0.9737(2) 0.46927(11) 1.02015(10)
C3 C 0.9395(2) 0.49999(11) 0.96257(9)
C4 C 0.8989(2) 0.45253(12) 0.91371(9)
C5 C 0.8858(2) 0.37494(12) 0.92277(9)
C6 C 0.9180(2) 0.34487(11) 0.98128(9)
C7 C 1.0217(2) 0.51344(11) 1.07526(9)
C8 C 1.1437(2) 0.49023(12) 1.10767(10)
H2 H 1.1968 0.4482 1.0934
C9 C 1.1890(3) 0.52747(13) 1.16050(10)
H3 H 1.2727 0.5113 1.1822
C10 C 1.1107(3) 0.58842(13) 1.18126(10)
C11 C 0.9881(3) 0.61177(13) 1.15013(11)
H4 H 0.9343 0.6533 1.1649
C12 C 0.9440(3) 0.57432(13) 1.09717(11)
H5 H 0.8599 0.5905 1.0757
C13 C 1.1589(3) 0.62971(16) 1.23770(12)
C14 C 0.9462(2) 0.58260(11) 0.95283(9)
C15 C 1.0753(3) 0.62123(12) 0.96176(11)
H6 H 1.1598 0.5949 0.9740
C16 C 1.0816(3) 0.69785(13) 0.95295(12)
H7 H 1.1701 0.7238 0.9591
C17 C 0.9586(3) 0.73627(12) 0.93529(11)
C18 C 0.8286(3) 0.69877(13) 0.92666(12)
H8 H 0.7441 0.7254 0.9148
C19 C 0.8231(2) 0.62233(12) 0.93547(11)
H9 H 0.7342 0.5966 0.9296
C20 C 0.9671(2) 0.81855(14) 0.92471(10)
C21 C 0.8695(2) 0.48539(11) 0.85142(9)
C22 C 0.9791(2) 0.52429(12) 0.82078(10)
H10 H 1.0733 0.5268 0.8382
C23 C 0.9506(3) 0.55921(14) 0.76494(11)
H11 H 1.0252 0.5853 0.7439
C24 C 0.8130(3) 0.55585(14) 0.74009(10)
C25 C 0.7043(3) 0.51627(14) 0.76889(11)
H12 H 0.6106 0.5134 0.7510
C26 C 0.7334(2) 0.48063(13) 0.82438(10)
H13 H 0.6594 0.4526 0.8441
C27 C 0.7821(4) 0.59493(19) 0.68006(13)
C28 C 0.8343(2) 0.32514(11) 0.87173(9)
C29 C 0.9139(3) 0.31728(13) 0.81732(10)
H14 H 1.0020 0.3439 0.8123
C30 C 0.8651(3) 0.27069(13) 0.77051(10)
H15 H 0.9194 0.2656 0.7335
C31 C 0.7365(3) 0.23161(12) 0.77801(10)
C32 C 0.6569(3) 0.23888(13) 0.83210(10)
H16 H 0.5688 0.2122 0.8370
C33 C 0.7065(2) 0.28520(12) 0.87892(10)
H17 H 0.6527 0.2896 0.9161
C34 C 0.6819(2) 0.18174(11) 0.72737(10)
C35 C 0.9085(2) 0.26376(11) 0.99598(9)
C36 C 0.9733(2) 0.20952(12) 0.95905(10)
H18 H 1.0197 0.2236 0.9217
C37 C 0.9705(3) 0.13527(12) 0.97647(11)
H19 H 1.0155 0.0987 0.9512
C38 C 0.9021(2) 0.11425(12) 1.03067(10)
C39 C 0.8362(2) 0.16660(12) 1.06759(10)
H20 H 0.7882 0.1519 1.1044
C40 C 0.8404(2) 0.24142(12) 1.05043(9)
H21 H 0.7963 0.2778 1.0762
C41 C 0.9052(2) 0.03313(13) 1.04758(8)
F1 F 1.2620(3) 0.59573(13) 1.26869(10)
F2 F 1.0520(2) 0.64148(17) 1.27721(10)
F3 F 1.2092(4) 0.69715(13) 1.22509(11)
F4 F 0.8600(3) 0.65566(14) 0.67229(11)
F5 F 0.6428(2) 0.61200(14) 0.67291(10)
F6 F 0.8125(3) 0.55165(15) 0.63100(8)
F7 F 0.8514(2) -0.00955(9) 1.00362(9)
F8 F 0.8334(4) 0.01863(10) 1.09864(10)
F9 F 1.0383(2) 0.00811(10) 1.05488(13)
F10 F 1.0659(5) 0.85458(19) 0.9576(3)
F11 F 0.9903(6) 0.83554(15) 0.86568(14)
F12 F 0.8411(5) 0.8514(3) 0.9359(2)
F13 F 0.7710(4) 0.1795(2) 0.67915(13)
F14 F 0.5507(3) 0.2008(2) 0.7084(2)
F15 F 0.6767(5) 0.11157(12) 0.74678(16)
F16? F 0.9984(15) 0.8454(5) 0.9804(3)
F17? F 1.0865(9) 0.8387(4) 0.8951(6)
F18? F 0.8464(10) 0.8560(9) 0.9134(6)
F19? F 0.6953(12) 0.2120(4) 0.67169(18)
F20? F 0.5393(3) 0.1730(7) 0.7300(5)
F21? F 0.7233(13) 0.1111(2) 0.7259(4)
loop_
_geom_bond_atom_site_label_1
_geom_bond_atom_site_label_2
_geom_bond_site_symmetry_1
_geom_bond_site_symmetry_2
C1 H1 1_555 1_555
C2 C1 1_555 1_555
C3 C2 1_555 1_555
C4 C3 1_555 1_555
C5 C4 1_555 1_555
C6 C1 1_555 1_555
C7 C2 1_555 1_555
C8 C7 1_555 1_555
H2 C8 1_555 1_555
C9 C8 1_555 1_555
H3 C9 1_555 1_555
C10 C9 1_555 1_555
C11 C10 1_555 1_555
H4 C11 1_555 1_555
C12 C7 1_555 1_555
H5 C12 1_555 1_555
C13 C10 1_555 1_555
C14 C3 1_555 1_555
C15 C14 1_555 1_555
H6 C15 1_555 1_555
C16 C15 1_555 1_555
H7 C16 1_555 1_555
C17 C16 1_555 1_555
C18 C17 1_555 1_555
H8 C18 1_555 1_555
C19 C14 1_555 1_555
H9 C19 1_555 1_555
C20 C17 1_555 1_555
C21 C4 1_555 1_555
C22 C21 1_555 1_555
H10 C22 1_555 1_555
C23 C22 1_555 1_555
H11 C23 1_555 1_555
C24 C23 1_555 1_555
C25 C24 1_555 1_555
H12 C25 1_555 1_555
C26 C21 1_555 1_555
H13 C26 1_555 1_555
C27 C24 1_555 1_555
C28 C5 1_555 1_555
C29 C28 1_555 1_555
H14 C29 1_555 1_555
C30 C29 1_555 1_555
H15 C30 1_555 1_555
C31 C30 1_555 1_555
C32 C31 1_555 1_555
H16 C32 1_555 1_555
C33 C28 1_555 1_555
H17 C33 1_555 1_555
C34 C31 1_555 1_555
C35 C6 1_555 1_555
C36 C35 1_555 1_555
H18 C36 1_555 1_555
C37 C36 1_555 1_555
H19 C37 1_555 1_555
C38 C37 1_555 1_555
C39 C38 1_555 1_555
H20 C39 1_555 1_555
C40 C35 1_555 1_555
H21 C40 1_555 1_555
C41 C38 1_555 1_555
F1 C13 1_555 1_555
F2 C13 1_555 1_555
F3 C13 1_555 1_555
F4 C27 1_555 1_555
F5 C27 1_555 1_555
F6 C27 1_555 1_555
F7 C41 1_555 1_555
F8 C41 1_555 1_555
F9 C41 1_555 1_555
F10 C20 1_555 1_555
F11 C20 1_555 1_555
F12 C20 1_555 1_555
F13 C34 1_555 1_555
F14 C34 1_555 1_555
F15 C34 1_555 1_555
C5 C6 1_555 1_555
C11 C12 1_555 1_555
C18 C19 1_555 1_555
C25 C26 1_555 1_555
C32 C33 1_555 1_555
C39 C40 1_555 1_555

#END
