
#######################################################################
#
#                 Cambridge Crystallographic Data Centre
#                                CCDC 
#
#######################################################################
#
# If this CIF has been generated from an entry in the Cambridge 
# Structural Database, then it will include bibliographic, chemical, 
# crystal, experimental, refinement or atomic coordinate data resulting 
# from the CCDC's data processing and validation procedures.
#
#######################################################################

data_NACHIK
_chemical_formula_moiety         'C18 H20 N2 O5 S1'
_chemical_name_systematic        
'Methyl N-(methylsulfonyl)-4-nitro-2,3-diphenylbutanimidoate'
_symmetry_cell_setting           monoclinic
_symmetry_space_group_name_H-M   'P 21/n'
_symmetry_Int_Tables_number      14
_space_group_name_Hall           '-P 2yn'
loop_
_symmetry_equiv_pos_site_id
_symmetry_equiv_pos_as_xyz
1 x,y,z
2 1/2-x,1/2+y,1/2-z
3 -x,-y,-z
4 1/2+x,1/2-y,1/2+z
_cell_length_a                   8.7496(4)
_cell_length_b                   12.2920(7)
_cell_length_c                   17.7704(8)
_cell_angle_alpha                90
_cell_angle_beta                 98.0053(11)
_cell_angle_gamma                90
_cell_volume                     1892.58
_exptl_crystal_colour            colorless
_exptl_crystal_description       chunk
_cell_formula_units_Z            4
loop_
_atom_site_label
_atom_site_type_symbol
_atom_site_fract_x
_atom_site_fract_y
_atom_site_fract_z
S1 S 0.82643(5) 0.70115(4) 0.20575(3)
O1 O 0.3602(2) 0.41534(12) 0.35830(11)
O2 O 0.2427(2) 0.47748(17) 0.25274(11)
O3 O 0.85319(12) 0.54989(10) 0.39280(6)
O4 O 0.84283(18) 0.81321(12) 0.22735(9)
O5 O 0.68004(16) 0.66789(13) 0.16645(8)
N1 N 0.35311(19) 0.47341(13) 0.30262(11)
N2 N 0.87721(14) 0.62178(12) 0.27875(8)
C1 C 0.53576(17) 0.60965(12) 0.36793(9)
C2 C 0.67033(17) 0.68690(12) 0.35483(9)
C3 C 0.80709(17) 0.61951(12) 0.33700(9)
C4 C 0.4869(2) 0.54629(13) 0.29491(10)
C5 C 0.40106(17) 0.66912(12) 0.39430(9)
C6 C 0.3124(2) 0.74309(16) 0.34889(11)
C7 C 0.1868(2) 0.79276(18) 0.37412(13)
C8 C 0.1496(2) 0.77038(18) 0.44446(13)
C9 C 0.2367(2) 0.6981(2) 0.49037(12)
C10 C 0.3618(2) 0.64756(16) 0.46555(10)
C11 C 0.72061(17) 0.76334(12) 0.42105(9)
C12 C 0.7390(2) 0.87333(14) 0.40700(12)
C13 C 0.7872(2) 0.94424(17) 0.46599(13)
C14 C 0.8181(2) 0.90656(19) 0.53936(12)
C15 C 0.8011(2) 0.79781(18) 0.55414(11)
C16 C 0.75257(19) 0.72653(14) 0.49557(10)
C17 C 0.9851(2) 0.48172(17) 0.38420(12)
C18 C 0.9725(2) 0.6667(2) 0.15171(12)
H1 H 0.5755 0.5575 0.4076
H2 H 0.6350 0.7317 0.3101
H3 H 0.4575 0.5972 0.2537
H4 H 0.5730 0.5025 0.2836
H5 H 0.3371 0.7597 0.3010
H6 H 0.1272 0.8418 0.3428
H7 H 0.0653 0.8042 0.4611
H8 H 0.2119 0.6829 0.5385
H9 H 0.4204 0.5984 0.4972
H10 H 0.7186 0.8996 0.3575
H11 H 0.7988 1.0178 0.4560
H12 H 0.8505 0.9545 0.5789
H13 H 0.8222 0.7721 0.6037
H14 H 0.7412 0.6531 0.5061
H15 H 1.0727 0.5268 0.3791
H16 H 0.9616 0.4373 0.3397
H17 H 1.0082 0.4360 0.4281
H18 H 1.0712 0.6844 0.1797
H19 H 0.9581 0.7067 0.1049
H20 H 0.9681 0.5901 0.1410
loop_
_geom_bond_atom_site_label_1
_geom_bond_atom_site_label_2
_geom_bond_site_symmetry_1
_geom_bond_site_symmetry_2
S1 O4 1_555 1_555
O1 N1 1_555 1_555
O2 N1 1_555 1_555
O3 C3 1_555 1_555
O5 S1 1_555 1_555
N1 C4 1_555 1_555
N2 S1 1_555 1_555
C1 C2 1_555 1_555
C2 C3 1_555 1_555
C3 N2 1_555 1_555
C4 C1 1_555 1_555
C5 C1 1_555 1_555
C6 C5 1_555 1_555
C7 C6 1_555 1_555
C8 C7 1_555 1_555
C9 C8 1_555 1_555
C10 C5 1_555 1_555
C11 C2 1_555 1_555
C12 C11 1_555 1_555
C13 C12 1_555 1_555
C14 C13 1_555 1_555
C15 C14 1_555 1_555
C16 C11 1_555 1_555
C17 O3 1_555 1_555
C18 S1 1_555 1_555
H1 C1 1_555 1_555
H2 C2 1_555 1_555
H3 C4 1_555 1_555
H4 C4 1_555 1_555
H5 C6 1_555 1_555
H6 C7 1_555 1_555
H7 C8 1_555 1_555
H8 C9 1_555 1_555
H9 C10 1_555 1_555
H10 C12 1_555 1_555
H11 C13 1_555 1_555
H12 C14 1_555 1_555
H13 C15 1_555 1_555
H14 C16 1_555 1_555
H15 C17 1_555 1_555
H16 C17 1_555 1_555
H17 C17 1_555 1_555
H18 C18 1_555 1_555
H19 C18 1_555 1_555
H20 C18 1_555 1_555
C9 C10 1_555 1_555
C15 C16 1_555 1_555

#END
