
#######################################################################
#
#                 Cambridge Crystallographic Data Centre
#                                CCDC 
#
#######################################################################
#
# If this CIF has been generated from an entry in the Cambridge 
# Structural Database, then it will include bibliographic, chemical, 
# crystal, experimental, refinement or atomic coordinate data resulting 
# from the CCDC's data processing and validation procedures.
#
#######################################################################

data_NADNIP
_chemical_name_common            trans-1,2-Dihydroxy-1,2-dihydrobenzene
_chemical_formula_moiety         'C6 H8 O2'
_chemical_name_systematic        (S,S)-(+)-3,5-Cyclohexadiene-1,2-diol
_symmetry_cell_setting           orthorhombic
_symmetry_space_group_name_H-M   'P 21 21 21'
_symmetry_Int_Tables_number      19
_space_group_name_Hall           'P 2ac 2ab'
loop_
_symmetry_equiv_pos_site_id
_symmetry_equiv_pos_as_xyz
1 x,y,z
2 1/2-x,-y,1/2+z
3 1/2+x,1/2-y,-z
4 -x,1/2+y,1/2-z
_cell_length_a                   4.7850(10)
_cell_length_b                   5.4360(10)
_cell_length_c                   23.003(5)
_cell_angle_alpha                90
_cell_angle_beta                 90
_cell_angle_gamma                90
_cell_volume                     598.337
_exptl_crystal_colour            colorless
_chemical_melting_point          41-43deg.C
_cell_formula_units_Z            4
loop_
_atom_site_label
_atom_site_type_symbol
_atom_site_fract_x
_atom_site_fract_y
_atom_site_fract_z
O1 O -0.3440(5) 0.8984(5) 0.81561(11)
H1 H -0.264(11) 0.9497(96) 0.7801(20)
O2 O 0.1832(6) 0.6468(5) 0.78011(10)
H2 H 0.339(12) 0.7135(93) 0.7952(21)
C1 C -0.1309(8) 0.8082(7) 0.85269(15)
H3 H 0.020(11) 0.909(10) 0.8563(20)
C2 C 0.0071(8) 0.5794(7) 0.82809(14)
H4 H -0.1424(86) 0.4856(73) 0.8045(15)
C3 C 0.1565(11) 0.4356(9) 0.8742(2)
H5 H 0.318(10) 0.3718(85) 0.8605(17)
C4 C 0.0760(11) 0.4448(10) 0.9289(2)
H6 H 0.1802(97) 0.3592(86) 0.9596(20)
C5 C -0.1499(11) 0.5993(11) 0.9471(2)
H7 H -0.2233(96) 0.5873(80) 0.9921(19)
C6 C -0.2520(10) 0.7667(9) 0.9116(2)
H8 H -0.438(11) 0.8600(96) 0.9224(18)
loop_
_geom_bond_atom_site_label_1
_geom_bond_atom_site_label_2
_geom_bond_site_symmetry_1
_geom_bond_site_symmetry_2
O1 H1 1_555 1_555
O2 H2 1_555 1_555
C1 O1 1_555 1_555
H3 C1 1_555 1_555
C2 O2 1_555 1_555
H4 C2 1_555 1_555
C3 C2 1_555 1_555
H5 C3 1_555 1_555
C4 C3 1_555 1_555
H6 C4 1_555 1_555
C5 C4 1_555 1_555
H7 C5 1_555 1_555
C6 C1 1_555 1_555
H8 C6 1_555 1_555
C1 C2 1_555 1_555
C5 C6 1_555 1_555

#END
