
#######################################################################
#
#                 Cambridge Crystallographic Data Centre
#                                CCDC 
#
#######################################################################
#
# If this CIF has been generated from an entry in the Cambridge 
# Structural Database, then it will include bibliographic, chemical, 
# crystal, experimental, refinement or atomic coordinate data resulting 
# from the CCDC's data processing and validation procedures.
#
#######################################################################

data_NAFMOY
_chemical_formula_moiety         'C39 H30 N4 O3,C24 H20 P1 1+,Cl1 1-'
_chemical_name_systematic        
"Tetraphenylphosphonium chloride N,N',N''-(nitrilotri-2,1-phenylene)tribenzamide"
_symmetry_cell_setting           monoclinic
_symmetry_space_group_name_H-M   'P 21/n'
_symmetry_Int_Tables_number      14
_space_group_name_Hall           '-P 2yn'
loop_
_symmetry_equiv_pos_site_id
_symmetry_equiv_pos_as_xyz
1 x,y,z
2 1/2-x,1/2+y,1/2-z
3 -x,-y,-z
4 1/2+x,1/2-y,1/2+z
_cell_length_a                   12.4609(16)
_cell_length_b                   30.241(4)
_cell_length_c                   13.0681(16)
_cell_angle_alpha                90
_cell_angle_beta                 96.255(8)
_cell_angle_gamma                90
_cell_volume                     4895.14
_exptl_crystal_colour            colorless
_exptl_crystal_description       plate
_cell_formula_units_Z            4
loop_
_atom_site_label
_atom_site_type_symbol
_atom_site_fract_x
_atom_site_fract_y
_atom_site_fract_z
Cl1 Cl 0.67275(12) 0.20147(6) 0.60652(12)
P1 P 0.62039(12) -0.10764(5) 0.71577(12)
C40 C 0.5290(4) -0.15071(19) 0.7406(4)
C41 C 0.5151(5) -0.1616(2) 0.8416(4)
H28 H 0.5534 -0.1459 0.8971
C42 C 0.4452(5) -0.1953(2) 0.8609(5)
H29 H 0.4348 -0.2027 0.9298
C43 C 0.3903(5) -0.2182(2) 0.7799(5)
H30 H 0.3431 -0.2416 0.7935
C44 C 0.4036(5) -0.2074(2) 0.6803(5)
H31 H 0.3652 -0.2232 0.6251
C45 C 0.4727(5) -0.17357(19) 0.6600(4)
H32 H 0.4815 -0.1660 0.5908
C46 C 0.6042(4) -0.09350(19) 0.5827(4)
C47 C 0.5201(5) -0.0653(2) 0.5447(5)
H33 H 0.4726 -0.0535 0.5898
C48 C 0.5064(5) -0.0547(2) 0.4416(5)
H34 H 0.4487 -0.0360 0.4155
C49 C 0.5757(5) -0.0711(2) 0.3769(5)
H35 H 0.5663 -0.0631 0.3061
C50 C 0.6581(5) -0.0985(2) 0.4119(5)
H36 H 0.7058 -0.1097 0.3661
C51 C 0.6717(5) -0.11005(19) 0.5155(4)
H37 H 0.7284 -0.1296 0.5401
C52 C 0.7563(5) -0.1258(2) 0.7486(4)
C53 C 0.7769(5) -0.1672(2) 0.7919(5)
H38 H 0.7187 -0.1859 0.8052
C54 C 0.8821(6) -0.1811(3) 0.8157(5)
H39 H 0.8957 -0.2096 0.8446
C55 C 0.9666(6) -0.1547(3) 0.7986(5)
H40 H 1.0385 -0.1641 0.8184
C56 C 0.9474(6) -0.1139(3) 0.7522(5)
H41 H 1.0065 -0.0960 0.7377
C57 C 0.8425(5) -0.0990(2) 0.7265(4)
H42 H 0.8294 -0.0710 0.6946
C58 C 0.5888(5) -0.0598(2) 0.7877(4)
C59 C 0.6653(5) -0.0283(2) 0.8164(5)
H43 H 0.7385 -0.0331 0.8054
C60 C 0.6356(5) 0.0102(2) 0.8610(5)
H44 H 0.6887 0.0321 0.8801
C61 C 0.5312(5) 0.0178(2) 0.8786(4)
H45 H 0.5114 0.0446 0.9092
C62 C 0.4574(6) -0.0135(2) 0.8517(5)
H46 H 0.3845 -0.0085 0.8635
C63 C 0.4849(5) -0.0529(2) 0.8070(5)
H47 H 0.4316 -0.0749 0.7899
N1 N 0.9554(4) 0.09647(16) 0.7951(4)
N2 N 1.1748(4) 0.11111(19) 0.8747(4)
N3 N 0.9064(4) 0.18782(17) 0.7379(4)
N4 N 0.7509(4) 0.1041(2) 0.6633(4)
O1 O 1.3435(4) 0.08856(15) 0.8458(3)
O2 O 1.0356(3) 0.18494(14) 0.8730(3)
O3 O 0.7945(3) 0.03143(16) 0.6640(3)
C1 C 1.0214(5) 0.0617(2) 0.8416(5)
C2 C 0.9765(6) 0.0197(2) 0.8480(5)
H1 H 0.9034 0.0148 0.8214
C3 C 1.0369(6) -0.0144(2) 0.8923(5)
H2 H 1.0058 -0.0430 0.8964
C4 C 1.1431(6) -0.0073(2) 0.9310(5)
H3 H 1.1850 -0.0310 0.9615
C5 C 1.1887(5) 0.0343(2) 0.9255(5)
H4 H 1.2613 0.0390 0.9538
C6 C 1.1287(5) 0.0693(2) 0.8784(5)
C7 C 1.2805(6) 0.1185(2) 0.8619(5)
C8 C 1.3200(5) 0.1651(2) 0.8671(5)
C9 C 1.4019(5) 0.1760(2) 0.8089(5)
H5 H 1.4286 0.1543 0.7657
C10 C 1.4452(5) 0.2174(3) 0.8123(5)
H6 H 1.5027 0.2244 0.7731
C11 C 1.4042(5) 0.2488(3) 0.8734(5)
H7 H 1.4313 0.2782 0.8739
C12 C 1.3243(5) 0.2382(3) 0.9337(5)
H8 H 1.2997 0.2598 0.9784
C13 C 1.2795(5) 0.1965(2) 0.9302(5)
H9 H 1.2224 0.1894 0.9700
C14 C 0.9827(4) 0.1148(2) 0.7022(4)
C15 C 1.0333(5) 0.0879(2) 0.6346(5)
H10 H 1.0512 0.0582 0.6535
C16 C 1.0574(5) 0.1038(2) 0.5411(5)
H11 H 1.0904 0.0850 0.4955
C17 C 1.0337(5) 0.1471(2) 0.5133(5)
H12 H 1.0497 0.1580 0.4485
C18 C 0.9866(5) 0.1742(2) 0.5803(4)
H13 H 0.9716 0.2042 0.5618
C19 C 0.9608(4) 0.1586(2) 0.6739(5)
C20 C 0.9457(5) 0.1980(2) 0.8343(5)
C21 C 0.8788(5) 0.22609(19) 0.8961(5)
C22 C 0.9299(5) 0.2468(2) 0.9824(5)
H14 H 1.0053 0.2429 0.9997
C23 C 0.8733(6) 0.2728(2) 1.0435(5)
H15 H 0.9098 0.2876 1.1014
C24 C 0.7647(5) 0.2775(2) 1.0208(5)
H16 H 0.7250 0.2947 1.0647
C25 C 0.7120(5) 0.2577(2) 0.9351(5)
H17 H 0.6364 0.2617 0.9187
C26 C 0.7694(5) 0.2320(2) 0.8728(5)
H18 H 0.7331 0.2183 0.8134
C27 C 0.8551(5) 0.10517(19) 0.8347(5)
C28 C 0.8558(5) 0.11115(19) 0.9400(5)
H19 H 0.9218 0.1085 0.9834
C29 C 0.7612(6) 0.1210(2) 0.9830(5)
H20 H 0.7623 0.1241 1.0555
C30 C 0.6670(6) 0.1263(2) 0.9204(5)
H21 H 0.6027 0.1341 0.9489
C31 C 0.6653(5) 0.1202(2) 0.8157(5)
H22 H 0.5996 0.1242 0.7725
C32 C 0.7579(5) 0.1083(2) 0.7723(5)
C33 C 0.7740(5) 0.0661(3) 0.6149(5)
C34 C 0.7705(5) 0.0676(2) 0.5006(5)
C35 C 0.7659(5) 0.1071(2) 0.4458(5)
H23 H 0.7607 0.1345 0.4805
C36 C 0.7691(5) 0.1062(3) 0.3395(5)
H24 H 0.7644 0.1330 0.3013
C37 C 0.7788(5) 0.0669(3) 0.2905(5)
H25 H 0.7817 0.0665 0.2182
C38 C 0.7847(6) 0.0270(3) 0.3452(6)
H26 H 0.7919 -0.0002 0.3104
C39 C 0.7800(5) 0.0278(2) 0.4505(5)
H27 H 0.7833 0.0009 0.4884
H48 H 1.134(5) 0.1397(18) 0.876(5)
H49 H 0.834(4) 0.198(2) 0.707(5)
H50 H 0.714(6) 0.1315(19) 0.633(5)
loop_
_geom_bond_atom_site_label_1
_geom_bond_atom_site_label_2
_geom_bond_site_symmetry_1
_geom_bond_site_symmetry_2
P1 C40 1_555 1_555
N1 C1 1_555 1_555
N2 C6 1_555 1_555
N3 C19 1_555 1_555
N4 C32 1_555 1_555
O1 C7 1_555 1_555
O2 C20 1_555 1_555
O3 C33 1_555 1_555
C1 C2 1_555 1_555
C2 H1 1_555 1_555
C3 C2 1_555 1_555
H2 C3 1_555 1_555
C4 C3 1_555 1_555
H3 C4 1_555 1_555
C5 C4 1_555 1_555
H4 C5 1_555 1_555
C6 C1 1_555 1_555
C7 N2 1_555 1_555
C8 C7 1_555 1_555
C9 C8 1_555 1_555
H5 C9 1_555 1_555
C10 C9 1_555 1_555
H6 C10 1_555 1_555
C11 C10 1_555 1_555
H7 C11 1_555 1_555
C12 C11 1_555 1_555
H8 C12 1_555 1_555
C13 C8 1_555 1_555
H9 C13 1_555 1_555
C14 N1 1_555 1_555
C15 C14 1_555 1_555
H10 C15 1_555 1_555
C16 C15 1_555 1_555
H11 C16 1_555 1_555
C17 C16 1_555 1_555
H12 C17 1_555 1_555
C18 C17 1_555 1_555
H13 C18 1_555 1_555
C19 C14 1_555 1_555
C20 N3 1_555 1_555
C21 C20 1_555 1_555
C22 C21 1_555 1_555
H14 C22 1_555 1_555
C23 C22 1_555 1_555
H15 C23 1_555 1_555
C24 C23 1_555 1_555
H16 C24 1_555 1_555
C25 C24 1_555 1_555
H17 C25 1_555 1_555
C26 C21 1_555 1_555
H18 C26 1_555 1_555
C27 N1 1_555 1_555
C28 C27 1_555 1_555
H19 C28 1_555 1_555
C29 C28 1_555 1_555
H20 C29 1_555 1_555
C30 C29 1_555 1_555
H21 C30 1_555 1_555
C31 C30 1_555 1_555
H22 C31 1_555 1_555
C32 C27 1_555 1_555
C33 N4 1_555 1_555
C34 C33 1_555 1_555
C35 C34 1_555 1_555
H23 C35 1_555 1_555
C36 C35 1_555 1_555
H24 C36 1_555 1_555
C37 C36 1_555 1_555
H25 C37 1_555 1_555
C38 C37 1_555 1_555
H26 C38 1_555 1_555
C39 C34 1_555 1_555
H27 C39 1_555 1_555
C40 C41 1_555 1_555
C41 H28 1_555 1_555
C42 C41 1_555 1_555
H29 C42 1_555 1_555
C43 C42 1_555 1_555
H30 C43 1_555 1_555
C44 C43 1_555 1_555
H31 C44 1_555 1_555
C45 C40 1_555 1_555
H32 C45 1_555 1_555
C46 P1 1_555 1_555
C47 C46 1_555 1_555
H33 C47 1_555 1_555
C48 C47 1_555 1_555
H34 C48 1_555 1_555
C49 C48 1_555 1_555
H35 C49 1_555 1_555
C50 C49 1_555 1_555
H36 C50 1_555 1_555
C51 C46 1_555 1_555
H37 C51 1_555 1_555
C52 P1 1_555 1_555
C53 C52 1_555 1_555
H38 C53 1_555 1_555
C54 C53 1_555 1_555
H39 C54 1_555 1_555
C55 C54 1_555 1_555
H40 C55 1_555 1_555
C56 C55 1_555 1_555
H41 C56 1_555 1_555
C57 C52 1_555 1_555
H42 C57 1_555 1_555
C58 P1 1_555 1_555
C59 C58 1_555 1_555
H43 C59 1_555 1_555
C60 C59 1_555 1_555
H44 C60 1_555 1_555
C61 C60 1_555 1_555
H45 C61 1_555 1_555
C62 C61 1_555 1_555
H46 C62 1_555 1_555
C63 C58 1_555 1_555
H47 C63 1_555 1_555
H48 N2 1_555 1_555
H49 N3 1_555 1_555
H50 N4 1_555 1_555
C5 C6 1_555 1_555
C12 C13 1_555 1_555
C18 C19 1_555 1_555
C25 C26 1_555 1_555
C31 C32 1_555 1_555
C38 C39 1_555 1_555
C44 C45 1_555 1_555
C50 C51 1_555 1_555
C56 C57 1_555 1_555
C62 C63 1_555 1_555

#END
