
#######################################################################
#
#                 Cambridge Crystallographic Data Centre
#                                CCDC 
#
#######################################################################
#
# If this CIF has been generated from an entry in the Cambridge 
# Structural Database, then it will include bibliographic, chemical, 
# crystal, experimental, refinement or atomic coordinate data resulting 
# from the CCDC's data processing and validation procedures.
#
#######################################################################

data_NAFVEW
_chemical_formula_moiety         'C26 H19 Cl1 N4 O1 S1'
_chemical_name_systematic        
2-(4-methylbenzoyl)-3-(4-chlorophenyl)-4-(1,2,4-triazolyl)-5-anilinothiophene
_symmetry_cell_setting           triclinic
_symmetry_space_group_name_H-M   'P -1'
_symmetry_Int_Tables_number      2
_space_group_name_Hall           '-P 1'
loop_
_symmetry_equiv_pos_site_id
_symmetry_equiv_pos_as_xyz
1 x,y,z
2 -x,-y,-z
_cell_length_a                   8.0610(16)
_cell_length_b                   9.981(2)
_cell_length_c                   15.462(3)
_cell_angle_alpha                90.96(3)
_cell_angle_beta                 103.11(3)
_cell_angle_gamma                106.26(3)
_cell_volume                     1158.84
_chemical_melting_point          '254-256 deg.C'
_cell_formula_units_Z            2
_exptl_crystal_recrystallization_method alcohol
loop_
_atom_site_label
_atom_site_type_symbol
_atom_site_fract_x
_atom_site_fract_y
_atom_site_fract_z
Cl1 Cl 0.206(2) 0.7242(14) 0.4642(6)
S1 S 0.08325(14) 0.87470(10) -0.08061(6)
O1 O 0.3823(4) 1.0972(3) 0.02399(17)
N1 N -0.2070(4) 0.5963(3) 0.03838(18)
N2 N -0.2235(4) 0.4579(3) 0.0193(2)
N3 N -0.4085(5) 0.4808(4) 0.1040(2)
N4 N -0.2331(4) 0.6706(3) -0.14292(18)
H1 H -0.3233 0.6175 -0.1271
C1 C 0.1760(5) 0.8869(4) 0.0330(2)
C2 C 0.0681(5) 0.7872(3) 0.0737(2)
C3 C -0.0777(5) 0.7046(3) 0.0126(2)
C4 C -0.0918(5) 0.7360(4) -0.0734(2)
C5 C 0.3420(5) 0.9941(4) 0.0665(2)
C6 C 0.4580(5) 0.9785(4) 0.1499(2)
C7 C 0.5475(6) 1.0935(4) 0.2113(3)
H2 H 0.5374 1.1816 0.1973
C8 C 0.6513(6) 1.0789(5) 0.2927(3)
H3 H 0.7084 1.1571 0.3333
C9 C 0.6716(6) 0.9516(5) 0.3148(3)
C10 C 0.5922(6) 0.8382(5) 0.2535(3)
H4 H 0.6117 0.7524 0.2663
C11 C 0.4820(5) 0.8500(4) 0.1718(3)
H5 H 0.4245 0.7712 0.1319
C12 C 0.1002(5) 0.7711(4) 0.1706(2)
C13 C 0.0995(5) 0.6431(4) 0.2032(2)
H6 H 0.0801 0.5659 0.1637
C14 C 0.1268(7) 0.6277(5) 0.2928(3)
H7 H 0.1263 0.5410 0.3141
C15 C 0.1545(7) 0.7402(6) 0.3496(3)
C16 C 0.1596(6) 0.8691(5) 0.3202(3)
H8 H 0.1815 0.9459 0.3605
C17 C 0.1324(5) 0.8842(4) 0.2312(2)
H9 H 0.1355 0.9719 0.2109
C18 C -0.3148(5) 0.6056(4) 0.0887(2)
H10 H -0.3240 0.6897 0.1110
C19 C -0.3438(6) 0.3967(4) 0.0608(3)
H11 H -0.3831 0.2997 0.0606
C20 C -0.2555(5) 0.6753(4) -0.2336(2)
C21 C -0.4199(6) 0.6083(4) -0.2858(3)
H12 H -0.5095 0.5626 -0.2587
C22 C -0.4578(7) 0.6060(5) -0.3779(3)
H13 H -0.5714 0.5608 -0.4124
C23 C -0.3248(10) 0.6714(5) -0.4164(3)
H14 H -0.3471 0.6716 -0.4781
C24 C -0.1593(7) 0.7367(5) -0.3654(3)
H15 H -0.0683 0.7799 -0.3923
C25 C -0.1265(6) 0.7391(4) -0.2753(3)
H16 H -0.0130 0.7855 -0.2412
C26 C 0.7735(7) 0.9317(5) 0.4050(3)
H17 H 0.8204 1.0199 0.4404
H18 H 0.8696 0.8963 0.3988
H19 H 0.6956 0.8663 0.4336
Cl2? Cl 0.161(3) 0.7103(16) 0.4575(7)
loop_
_geom_bond_atom_site_label_1
_geom_bond_atom_site_label_2
_geom_bond_site_symmetry_1
_geom_bond_site_symmetry_2
Cl1 C15 1_555 1_555
S1 C1 1_555 1_555
O1 C5 1_555 1_555
N1 N2 1_555 1_555
N2 C19 1_555 1_555
N3 C18 1_555 1_555
N4 H1 1_555 1_555
C1 C2 1_555 1_555
C2 C3 1_555 1_555
C3 N1 1_555 1_555
C4 S1 1_555 1_555
C5 C1 1_555 1_555
C6 C5 1_555 1_555
C7 C6 1_555 1_555
H2 C7 1_555 1_555
C8 C7 1_555 1_555
H3 C8 1_555 1_555
C9 C8 1_555 1_555
C10 C9 1_555 1_555
H4 C10 1_555 1_555
C11 C6 1_555 1_555
H5 C11 1_555 1_555
C12 C2 1_555 1_555
C13 C12 1_555 1_555
H6 C13 1_555 1_555
C14 C13 1_555 1_555
H7 C14 1_555 1_555
C15 C14 1_555 1_555
C16 C15 1_555 1_555
H8 C16 1_555 1_555
C17 C12 1_555 1_555
H9 C17 1_555 1_555
C18 N1 1_555 1_555
H10 C18 1_555 1_555
C19 N3 1_555 1_555
H11 C19 1_555 1_555
C20 N4 1_555 1_555
C21 C20 1_555 1_555
H12 C21 1_555 1_555
C22 C21 1_555 1_555
H13 C22 1_555 1_555
C23 C22 1_555 1_555
H14 C23 1_555 1_555
C24 C23 1_555 1_555
H15 C24 1_555 1_555
C25 C20 1_555 1_555
H16 C25 1_555 1_555
C26 C9 1_555 1_555
H17 C26 1_555 1_555
H18 C26 1_555 1_555
H19 C26 1_555 1_555
N4 C4 1_555 1_555
C3 C4 1_555 1_555
C10 C11 1_555 1_555
C16 C17 1_555 1_555
C24 C25 1_555 1_555

#END
