
#######################################################################
#
#                 Cambridge Crystallographic Data Centre
#                                CCDC 
#
#######################################################################
#
# If this CIF has been generated from an entry in the Cambridge 
# Structural Database, then it will include bibliographic, chemical, 
# crystal, experimental, refinement or atomic coordinate data resulting 
# from the CCDC's data processing and validation procedures.
#
#######################################################################

data_NAHMUH01
_chemical_name_common            'vitamin D2 and D3'
_chemical_formula_moiety         'C28 H44 O1,C27 H44 O1'
_chemical_name_systematic        
'9,10-secocholesta-5,7,10-trien-3-ol 9,10-secoergosta-5,7,10,22-tetraen-3-ol'
_symmetry_cell_setting           monoclinic
_symmetry_space_group_name_H-M   'P 21'
_symmetry_Int_Tables_number      4
_space_group_name_Hall           'P 2yb'
loop_
_symmetry_equiv_pos_site_id
_symmetry_equiv_pos_as_xyz
1 x,y,z
2 -x,1/2+y,-z
_cell_length_a                   20.6101(6)
_cell_length_b                   7.2054(3)
_cell_length_c                   35.4080(10)
_cell_angle_alpha                90
_cell_angle_beta                 105.513(2)
_cell_angle_gamma                90
_cell_volume                     5066.67
_exptl_crystal_colour            colorless
_exptl_crystal_description       flake
_cell_formula_units_Z            4
loop_
_atom_site_label
_atom_site_type_symbol
_atom_site_fract_x
_atom_site_fract_y
_atom_site_fract_z
O1 O 0.26126(14) 0.4672(5) 0.54755(8)
H1 H 0.2797 0.5175 0.5324
C1 C 0.5092(3) 0.6755(12) 0.9047(2)
H2 H 0.4895 0.5819 0.9175
H3 H 0.5443 0.7381 0.9238
H4 H 0.5277 0.6186 0.8854
C2 C 0.4559(3) 0.8135(11) 0.88512(19)
H5 H 0.4753 0.9059 0.8710
C3 C 0.3919(3) 0.7256(9) 0.85673(15)
H6 H 0.3715 0.6447 0.8726
C4 C 0.4014(2) 0.6063(8) 0.82192(13)
C5 C 0.3277(2) 0.6056(7) 0.79604(13)
H7 H 0.3018 0.5368 0.8110
C6 C 0.3193(2) 0.4994(7) 0.75822(13)
C7 C 0.2942(2) 0.5798(8) 0.72293(13)
H8 H 0.2819 0.7039 0.7229
C8 C 0.2844(2) 0.4912(7) 0.68460(13)
H9 H 0.3016 0.3719 0.6845
C9 C 0.2531(2) 0.5643(7) 0.64947(13)
C10 C 0.2486(2) 0.4561(7) 0.61210(12)
H10 H 0.2024 0.4167 0.6008
H11 H 0.2765 0.3460 0.6181
C11 C 0.2718(2) 0.5758(6) 0.58246(12)
H12 H 0.3200 0.6019 0.5926
C12 C 0.2335(2) 0.7569(7) 0.57554(13)
H13 H 0.2484 0.8302 0.5565
H14 H 0.1858 0.7322 0.5651
C13 C 0.3382(3) 0.8715(9) 0.83746(14)
H15 H 0.3049 0.8830 0.8522
H16 H 0.3590 0.9918 0.8368
C14 C 0.3049(2) 0.8038(8) 0.79562(14)
H17 H 0.2562 0.8115 0.7897
H18 H 0.3200 0.8762 0.7765
C15 C 0.4491(2) 0.7058(8) 0.80130(15)
H19 H 0.4948 0.6716 0.8138
H20 H 0.4441 0.8377 0.8031
H21 H 0.4379 0.6699 0.7742
C16 C 0.4225(2) 0.4055(8) 0.83079(14)
H22 H 0.3955 0.3506 0.8465
H23 H 0.4692 0.4014 0.8459
C17 C 0.4139(2) 0.2918(8) 0.79322(13)
H24 H 0.4245 0.1630 0.8002
H25 H 0.4458 0.3360 0.7795
C18 C 0.3427(2) 0.3029(7) 0.76562(14)
H26 H 0.3422 0.2442 0.7409
H27 H 0.3119 0.2355 0.7770
C19 C 0.2245(2) 0.7508(7) 0.64424(13)
C20 C 0.2449(2) 0.8645(7) 0.61334(13)
H28 H 0.2188 0.9783 0.6086
H29 H 0.2921 0.8976 0.6227
C21 C 0.1822(2) 0.8168(8) 0.66428(15)
H30 H 0.1698 0.7421 0.6826
H31 H 0.1654 0.9369 0.6598
C22 C 0.4319(4) 0.9124(13) 0.9193(2)
H32 H 0.4024 0.8476 0.9303
C23 C 0.4248(2) 1.1608(7) 0.96396(17)
H33 H 0.4637 1.2157 0.9829
C24 C 0.4500(4) 1.0725(14) 0.9326(2)
H34 H 0.4804 1.1379 0.9224
C25 C 0.3746(5) 1.4257(15) 0.9853(2)
H35 H 0.3548 1.3560 1.0025
H36 H 0.3473 1.5325 0.9757
H37 H 0.4190 1.4650 0.9993
C26 C 0.3789(5) 1.3024(16) 0.9503(3)
H38 H 0.4022 1.3820 0.9357
C27 C 0.3897(4) 1.0318(12) 0.9869(2)
H39 H 0.3648 1.1048 1.0009
H40 H 0.4229 0.9592 1.0051
H41 H 0.3594 0.9507 0.9689
C28 C 0.3145(5) 1.2639(16) 0.9218(3)
H42 H 0.3219 1.1868 0.9013
H43 H 0.2941 1.3785 0.9109
H44 H 0.2852 1.2011 0.9347
O2 O 0.24863(13) 0.9769(5) 0.46344(7)
H45 H 0.2250 1.0294 0.4755
C29 C 0.0274(4) 0.6955(13) 0.10334(18)
H46 H -0.0054 0.7187 0.0789
H47 H 0.0051 0.6791 0.1237
H48 H 0.0523 0.5853 0.1011
C30 C 0.0761(3) 0.8619(12) 0.11353(17)
H49 H 0.0507 0.9657 0.1204
C31 C 0.1367(3) 0.8284(10) 0.14888(14)
H50 H 0.1652 0.7366 0.1406
C32 C 0.1259(2) 0.7565(9) 0.18788(13)
C33 C 0.1952(2) 0.7986(8) 0.21622(12)
H51 H 0.2271 0.7170 0.2081
C34 C 0.2008(2) 0.7505(8) 0.25777(13)
C35 C 0.2161(2) 0.8742(8) 0.28703(12)
H52 H 0.2218 0.9964 0.2801
C36 C 0.2247(2) 0.8382(7) 0.32827(12)
H53 H 0.2110 0.7227 0.3350
C37 C 0.2509(2) 0.9575(7) 0.35810(12)
C38 C 0.2575(2) 0.8981(7) 0.40028(11)
H54 H 0.2322 0.7844 0.4002
H55 H 0.3044 0.8720 0.4130
C39 C 0.2322(2) 1.0444(7) 0.42378(11)
H56 H 0.1832 1.0555 0.4138
C40 C 0.2644(2) 1.2315(7) 0.42119(12)
H57 H 0.3126 1.2240 0.4328
H58 H 0.2461 1.3236 0.4355
C41 C 0.0977(4) 0.9200(13) 0.07802(19)
H59 H 0.1357 0.8701 0.0724
C42 C 0.1786(3) 1.0000(10) 0.15957(14)
H60 H 0.1507 1.1097 0.1525
H61 H 0.2133 1.0033 0.1458
C43 C 0.2108(2) 0.9945(9) 0.20453(13)
H62 H 0.2589 1.0153 0.2107
H63 H 0.1908 1.0873 0.2178
C44 C 0.1126(3) 0.5493(9) 0.19146(14)
H64 H 0.1445 0.4786 0.1815
H65 H 0.0677 0.5201 0.1754
C45 C 0.1185(2) 0.4909(9) 0.23393(13)
H66 H 0.0820 0.5467 0.2424
H67 H 0.1138 0.3572 0.2349
C46 C 0.1853(3) 0.5477(8) 0.26215(14)
H68 H 0.1835 0.5245 0.2888
H69 H 0.2212 0.4723 0.2572
C47 C 0.0701(2) 0.8732(10) 0.19896(14)
H70 H 0.0755 0.8652 0.2267
H71 H 0.0266 0.8259 0.1853
H72 H 0.0737 1.0005 0.1918
C48 C 0.2737(2) 1.1449(7) 0.35404(12)
C49 C 0.3169(2) 1.1897(8) 0.33344(13)
H73 H 0.3344 1.0978 0.3205
H74 H 0.3296 1.3128 0.3320
C50 C 0.2502(2) 1.2886(8) 0.37807(12)
H75 H 0.2022 1.3080 0.3674
H76 H 0.2728 1.4052 0.3763
C51 C 0.05969(11) 1.0465(9) 0.05492(8)
H77 H 0.0219 1.0973 0.0606
C52 C 0.10797(17) 0.9607(2) -0.00038(9)
H78 H 0.0857 0.9587 -0.0279
H79 H 0.1006 0.8448 0.0112
H80 H 0.1554 0.9792 0.0033
C53 C 0.14349(15) 1.2359(2) 0.02317(8)
H81 H 0.1812 1.1918 0.0445
C54 C 0.0820(4) 1.1057(15) 0.0175(3)
H82 H 0.0435 1.1609 -0.0017
C55 C 0.1668(3) 1.2807(17) -0.01362(13)
H83 H 0.1292 1.3247 -0.0340
H84 H 0.1847 1.1707 -0.0224
H85 H 0.2010 1.3747 -0.0075
C56 C 0.1077(3) 1.3998(7) 0.0368(2)
H86 H 0.1023 1.4991 0.0181
H87 H 0.1341 1.4420 0.0619
H88 H 0.0643 1.3605 0.0388
O3 O 0.30901(12) 0.6608(5) 0.49590(8)
H89 H 0.2908 0.7573 0.4862
C57 C 0.6016(3) 0.1343(11) 0.83727(16)
H90 H 0.6016 0.0014 0.8416
H91 H 0.5562 0.1724 0.8237
C58 C 0.6469(3) 0.1800(10) 0.81436(16)
H92 H 0.6913 0.1329 0.8276
H93 H 0.6502 0.3141 0.8131
C59 C 0.6270(3) 0.1042(8) 0.77280(15)
H94 H 0.6631 0.1401 0.7610
C60 C 0.5617(2) 0.1934(7) 0.74712(12)
H95 H 0.5258 0.1608 0.7593
C61 C 0.5367(2) 0.1346(6) 0.70349(12)
C62 C 0.4820(2) 0.2896(6) 0.68839(12)
H96 H 0.4463 0.2653 0.7013
C63 C 0.4498(2) 0.2720(7) 0.64533(12)
C64 C 0.4561(2) 0.3937(7) 0.61875(12)
H97 H 0.4804 0.5009 0.6279
C65 C 0.4290(2) 0.3774(7) 0.57638(12)
H98 H 0.4026 0.2734 0.5675
C66 C 0.4376(2) 0.4948(7) 0.54887(12)
C67 C 0.4033(2) 0.4621(7) 0.50532(12)
H99 H 0.4367 0.4179 0.4927
H100 H 0.3698 0.3650 0.5031
C68 C 0.36929(19) 0.6317(7) 0.48352(12)
H101 H 0.3570 0.6064 0.4553
C69 C 0.4142(2) 0.8016(7) 0.49192(12)
H102 H 0.3891 0.9090 0.4794
H103 H 0.4520 0.7841 0.4808
C70 C 0.4406(2) 0.8375(7) 0.53587(12)
H104 H 0.4705 0.9438 0.5402
H105 H 0.4031 0.8659 0.5466
C71 C 0.47755(19) 0.6720(7) 0.55641(11)
C72 C 0.54068(19) 0.6790(8) 0.57805(11)
H106 H 0.5642 0.7906 0.5810
H107 H 0.5616 0.5722 0.5903
C73 C 0.4140(2) 0.0887(7) 0.63663(14)
H108 H 0.3953 0.0759 0.6085
H109 H 0.3771 0.0852 0.6488
C74 C 0.4622(3) -0.0741(7) 0.65199(14)
H110 H 0.4365 -0.1885 0.6489
H111 H 0.4940 -0.0842 0.6363
C75 C 0.5008(2) -0.0518(7) 0.69477(13)
H112 H 0.5339 -0.1506 0.7019
H113 H 0.4698 -0.0646 0.7109
C76 C 0.5160(2) 0.4648(6) 0.70651(12)
H114 H 0.4832 0.5535 0.7108
H115 H 0.5410 0.5213 0.6899
C77 C 0.5635(2) 0.4026(7) 0.74558(13)
H116 H 0.6090 0.4449 0.7475
H117 H 0.5492 0.4550 0.7673
C78 C 0.5932(2) 0.1557(7) 0.68286(13)
H118 H 0.6255 0.0578 0.6911
H119 H 0.6150 0.2735 0.6896
H120 H 0.5744 0.1488 0.6550
C79 C 0.6270(3) -0.1024(8) 0.77380(16)
H121 H 0.6675 -0.1455 0.7920
H122 H 0.6248 -0.1498 0.7482
H123 H 0.5886 -0.1451 0.7818
C80 C 0.6893(4) 0.1923(13) 0.9071(2)
H124 H 0.7274 0.2286 0.8971
C81 C 0.6270(3) 0.2438(13) 0.87917(17)
H125 H 0.6304 0.3743 0.8733
H126 H 0.5916 0.2326 0.8923
C82 C 0.6977(4) 0.2779(16) 0.9479(2)
H127 H 0.7042 0.4094 0.9466
H128 H 0.7361 0.2236 0.9661
H129 H 0.6580 0.2540 0.9565
C83 C 0.6875(5) -0.0160(16) 0.9106(3)
H130 H 0.6494 -0.0515 0.9197
H131 H 0.7282 -0.0579 0.9289
H132 H 0.6839 -0.0711 0.8855
O4 O 1.19372(12) 0.1691(5) 0.51176(8)
H133 H 1.2151 0.2572 0.5235
C84 C 0.8625(3) -0.1662(11) 0.22412(16)
H134 H 0.8309 -0.0868 0.2330
C85 C 0.9342(3) -0.1497(9) 0.25212(14)
H135 H 0.9643 -0.2165 0.2397
C86 C 0.9495(2) -0.2226(8) 0.29497(13)
C87 C 1.0182(2) -0.1292(8) 0.31313(12)
H136 H 1.0501 -0.1855 0.3004
C88 C 1.0443(2) -0.1684(8) 0.35548(12)
C89 C 1.0485(2) -0.0431(8) 0.38418(12)
H137 H 1.0359 0.0778 0.3763
C90 C 1.0705(2) -0.0767(7) 0.42631(12)
H138 H 1.0910 -0.1904 0.4343
C91 C 1.0643(2) 0.0384(7) 0.45460(12)
C92 C 1.0928(2) -0.0077(7) 0.49738(11)
H139 H 1.1235 -0.1117 0.4996
H140 H 1.0563 -0.0464 0.5081
C93 C 1.13025(19) 0.1536(7) 0.52189(12)
H141 H 1.1393 0.1217 0.5497
C94 C 1.0910(2) 0.3294(7) 0.51450(11)
H142 H 1.1182 0.4291 0.5290
H143 H 1.0513 0.3166 0.5241
C95 C 0.8378(3) -0.3670(12) 0.21991(18)
H144 H 0.7974 -0.3755 0.1989
H145 H 0.8287 -0.4065 0.2439
H146 H 0.8718 -0.4451 0.2144
C96 C 0.8961(3) -0.1562(10) 0.31416(14)
H147 H 0.8551 -0.2238 0.3036
H148 H 0.8881 -0.0261 0.3091
H149 H 0.9112 -0.1767 0.3419
C97 C 0.9602(3) -0.4293(9) 0.30059(15)
H150 H 0.9907 -0.4717 0.2858
H151 H 0.9176 -0.4930 0.2906
C98 C 0.9894(3) -0.4779(9) 0.34390(15)
H152 H 0.9983 -0.6102 0.3464
H153 H 0.9565 -0.4488 0.3581
C99 C 1.0555(3) -0.3705(8) 0.36243(14)
H154 H 1.0699 -0.3947 0.3904
H155 H 1.0907 -0.4126 0.3509
C100 C 1.0075(3) 0.0662(9) 0.29829(15)
H156 H 1.0498 0.1217 0.2971
H157 H 0.9880 0.1412 0.3152
C101 C 0.9594(3) 0.0511(9) 0.25757(15)
H158 H 0.9825 0.0826 0.2379
H159 H 0.9219 0.1357 0.2550
C102 C 1.0307(2) 0.2217(7) 0.44762(11)
C103 C 0.9680(2) 0.2448(8) 0.42405(11)
H160 H 0.9440 0.1431 0.4114
H161 H 0.9487 0.3625 0.4205
C104 C 1.0692(2) 0.3810(7) 0.47106(12)
H162 H 1.0409 0.4908 0.4674
H163 H 1.1085 0.4088 0.4620
C105 C 0.86788(17) -0.1060(3) 0.18522(13)
H164 H 0.8505 -0.2065 0.1671
H165 H 0.9155 -0.0957 0.1870
C106 C 0.83431(16) 0.0735(3) 0.16587(6)
H166 H 0.8535 0.1775 0.1825
H167 H 0.7867 0.0683 0.1646
C107 C 0.8606(4) 0.3136(13) 0.1276(2)
H168 H 0.8343 0.3707 0.1439
C108 C 0.8415(3) 0.1109(14) 0.12435(9)
H169 H 0.8766 0.0351 0.1186
H170 H 0.7995 0.0901 0.1045
C109 C 0.9292(4) 0.3338(18) 0.1487(3)
H171 H 0.9572 0.3087 0.1316
H172 H 0.9397 0.2481 0.1702
H173 H 0.9370 0.4583 0.1585
C110 C 0.8387(6) 0.398(2) 0.0903(3)
H174 H 0.7918 0.3719 0.0792
H175 H 0.8643 0.3501 0.0735
H176 H 0.8452 0.5300 0.0930
loop_
_geom_bond_atom_site_label_1
_geom_bond_atom_site_label_2
_geom_bond_site_symmetry_1
_geom_bond_site_symmetry_2
O1 H1 1_555 1_555
C1 H2 1_555 1_555
H3 C1 1_555 1_555
H4 C1 1_555 1_555
C2 C1 1_555 1_555
H5 C2 1_555 1_555
C3 C2 1_555 1_555
H6 C3 1_555 1_555
C4 C3 1_555 1_555
C5 C4 1_555 1_555
H7 C5 1_555 1_555
C6 C5 1_555 1_555
C7 C6 1_555 1_555
H8 C7 1_555 1_555
C8 C7 1_555 1_555
H9 C8 1_555 1_555
C9 C8 1_555 1_555
C10 C9 1_555 1_555
H10 C10 1_555 1_555
H11 C10 1_555 1_555
C11 O1 1_555 1_555
H12 C11 1_555 1_555
C12 C11 1_555 1_555
H13 C12 1_555 1_555
H14 C12 1_555 1_555
C13 C3 1_555 1_555
H15 C13 1_555 1_555
H16 C13 1_555 1_555
C14 C5 1_555 1_555
H17 C14 1_555 1_555
H18 C14 1_555 1_555
C15 C4 1_555 1_555
H19 C15 1_555 1_555
H20 C15 1_555 1_555
H21 C15 1_555 1_555
C16 C4 1_555 1_555
H22 C16 1_555 1_555
H23 C16 1_555 1_555
C17 C16 1_555 1_555
H24 C17 1_555 1_555
H25 C17 1_555 1_555
C18 C6 1_555 1_555
H26 C18 1_555 1_555
H27 C18 1_555 1_555
C19 C9 1_555 1_555
C20 C12 1_555 1_555
H28 C20 1_555 1_555
H29 C20 1_555 1_555
C21 C19 1_555 1_555
H30 C21 1_555 1_555
H31 C21 1_555 1_555
C22 C2 1_555 1_555
H32 C22 1_555 1_555
C23 H33 1_555 1_555
C24 C22 1_555 1_555
H34 C24 1_555 1_555
C25 H35 1_555 1_555
H36 C25 1_555 1_555
H37 C25 1_555 1_555
C26 C23 1_555 1_555
H38 C26 1_555 1_555
C27 C23 1_555 1_555
H39 C27 1_555 1_555
H40 C27 1_555 1_555
H41 C27 1_555 1_555
C28 C26 1_555 1_555
H42 C28 1_555 1_555
H43 C28 1_555 1_555
H44 C28 1_555 1_555
O2 H45 1_555 1_555
C29 H46 1_555 1_555
H47 C29 1_555 1_555
H48 C29 1_555 1_555
C30 C29 1_555 1_555
H49 C30 1_555 1_555
C31 C30 1_555 1_555
H50 C31 1_555 1_555
C32 C31 1_555 1_555
C33 C32 1_555 1_555
H51 C33 1_555 1_555
C34 C33 1_555 1_555
C35 C34 1_555 1_555
H52 C35 1_555 1_555
C36 C35 1_555 1_555
H53 C36 1_555 1_555
C37 C36 1_555 1_555
C38 C37 1_555 1_555
H54 C38 1_555 1_555
H55 C38 1_555 1_555
C39 O2 1_555 1_555
H56 C39 1_555 1_555
C40 C39 1_555 1_555
H57 C40 1_555 1_555
H58 C40 1_555 1_555
C41 C30 1_555 1_555
H59 C41 1_555 1_555
C42 C31 1_555 1_555
H60 C42 1_555 1_555
H61 C42 1_555 1_555
C43 C33 1_555 1_555
H62 C43 1_555 1_555
H63 C43 1_555 1_555
C44 C32 1_555 1_555
H64 C44 1_555 1_555
H65 C44 1_555 1_555
C45 C44 1_555 1_555
H66 C45 1_555 1_555
H67 C45 1_555 1_555
C46 C34 1_555 1_555
H68 C46 1_555 1_555
H69 C46 1_555 1_555
C47 C32 1_555 1_555
H70 C47 1_555 1_555
H71 C47 1_555 1_555
H72 C47 1_555 1_555
C48 C37 1_555 1_555
C49 C48 1_555 1_555
H73 C49 1_555 1_555
H74 C49 1_555 1_555
C50 C40 1_555 1_555
H75 C50 1_555 1_555
H76 C50 1_555 1_555
C51 C41 1_555 1_555
H77 C51 1_555 1_555
C52 H78 1_555 1_555
H79 C52 1_555 1_555
H80 C52 1_555 1_555
C53 H81 1_555 1_555
C54 C51 1_555 1_555
H82 C54 1_555 1_555
C55 C53 1_555 1_555
H83 C55 1_555 1_555
H84 C55 1_555 1_555
H85 C55 1_555 1_555
C56 C53 1_555 1_555
H86 C56 1_555 1_555
H87 C56 1_555 1_555
H88 C56 1_555 1_555
O3 H89 1_555 1_555
C57 H90 1_555 1_555
H91 C57 1_555 1_555
C58 C57 1_555 1_555
H92 C58 1_555 1_555
H93 C58 1_555 1_555
C59 C58 1_555 1_555
H94 C59 1_555 1_555
C60 C59 1_555 1_555
H95 C60 1_555 1_555
C61 C60 1_555 1_555
C62 C61 1_555 1_555
H96 C62 1_555 1_555
C63 C62 1_555 1_555
C64 C63 1_555 1_555
H97 C64 1_555 1_555
C65 C64 1_555 1_555
H98 C65 1_555 1_555
C66 C65 1_555 1_555
C67 C66 1_555 1_555
H99 C67 1_555 1_555
H100 C67 1_555 1_555
C68 O3 1_555 1_555
H101 C68 1_555 1_555
C69 C68 1_555 1_555
H102 C69 1_555 1_555
H103 C69 1_555 1_555
C70 C69 1_555 1_555
H104 C70 1_555 1_555
H105 C70 1_555 1_555
C71 C66 1_555 1_555
C72 C71 1_555 1_555
H106 C72 1_555 1_555
H107 C72 1_555 1_555
C73 C63 1_555 1_555
H108 C73 1_555 1_555
H109 C73 1_555 1_555
C74 C73 1_555 1_555
H110 C74 1_555 1_555
H111 C74 1_555 1_555
C75 C61 1_555 1_555
H112 C75 1_555 1_555
H113 C75 1_555 1_555
C76 C62 1_555 1_555
H114 C76 1_555 1_555
H115 C76 1_555 1_555
C77 C60 1_555 1_555
H116 C77 1_555 1_555
H117 C77 1_555 1_555
C78 C61 1_555 1_555
H118 C78 1_555 1_555
H119 C78 1_555 1_555
H120 C78 1_555 1_555
C79 C59 1_555 1_555
H121 C79 1_555 1_555
H122 C79 1_555 1_555
H123 C79 1_555 1_555
C80 H124 1_555 1_555
C81 C57 1_555 1_555
H125 C81 1_555 1_555
H126 C81 1_555 1_555
C82 C80 1_555 1_555
H127 C82 1_555 1_555
H128 C82 1_555 1_555
H129 C82 1_555 1_555
C83 C80 1_555 1_555
H130 C83 1_555 1_555
H131 C83 1_555 1_555
H132 C83 1_555 1_555
O4 H133 1_555 1_555
C84 H134 1_555 1_555
C85 C84 1_555 1_555
H135 C85 1_555 1_555
C86 C85 1_555 1_555
C87 C86 1_555 1_555
H136 C87 1_555 1_555
C88 C87 1_555 1_555
C89 C88 1_555 1_555
H137 C89 1_555 1_555
C90 C89 1_555 1_555
H138 C90 1_555 1_555
C91 C90 1_555 1_555
C92 C91 1_555 1_555
H139 C92 1_555 1_555
H140 C92 1_555 1_555
C93 O4 1_555 1_555
H141 C93 1_555 1_555
C94 C93 1_555 1_555
H142 C94 1_555 1_555
H143 C94 1_555 1_555
C95 C84 1_555 1_555
H144 C95 1_555 1_555
H145 C95 1_555 1_555
H146 C95 1_555 1_555
C96 C86 1_555 1_555
H147 C96 1_555 1_555
H148 C96 1_555 1_555
H149 C96 1_555 1_555
C97 C86 1_555 1_555
H150 C97 1_555 1_555
H151 C97 1_555 1_555
C98 C97 1_555 1_555
H152 C98 1_555 1_555
H153 C98 1_555 1_555
C99 C88 1_555 1_555
H154 C99 1_555 1_555
H155 C99 1_555 1_555
C100 C87 1_555 1_555
H156 C100 1_555 1_555
H157 C100 1_555 1_555
C101 C85 1_555 1_555
H158 C101 1_555 1_555
H159 C101 1_555 1_555
C102 C91 1_555 1_555
C103 C102 1_555 1_555
H160 C103 1_555 1_555
H161 C103 1_555 1_555
C104 C94 1_555 1_555
H162 C104 1_555 1_555
H163 C104 1_555 1_555
C105 C84 1_555 1_555
H164 C105 1_555 1_555
H165 C105 1_555 1_555
C106 C105 1_555 1_555
H166 C106 1_555 1_555
H167 C106 1_555 1_555
C107 H168 1_555 1_555
C108 C106 1_555 1_555
H169 C108 1_555 1_555
H170 C108 1_555 1_555
C109 C107 1_555 1_555
H171 C109 1_555 1_555
H172 C109 1_555 1_555
H173 C109 1_555 1_555
C110 C107 1_555 1_555
H174 C110 1_555 1_555
H175 C110 1_555 1_555
H176 C110 1_555 1_555
C10 C11 1_555 1_555
C13 C14 1_555 1_555
C17 C18 1_555 1_555
C19 C20 1_555 1_555
C23 C24 1_555 1_555
C25 C26 1_555 1_555
C38 C39 1_555 1_555
C42 C43 1_555 1_555
C45 C46 1_555 1_555
C48 C50 1_555 1_555
C52 C54 1_555 1_555
C53 C54 1_555 1_555
C67 C68 1_555 1_555
C70 C71 1_555 1_555
C74 C75 1_555 1_555
C76 C77 1_555 1_555
C80 C81 1_555 1_555
C92 C93 1_555 1_555
C98 C99 1_555 1_555
C100 C101 1_555 1_555
C102 C104 1_555 1_555
C107 C108 1_555 1_555

#END
