
#######################################################################
#
#                 Cambridge Crystallographic Data Centre
#                                CCDC 
#
#######################################################################
#
# If this CIF has been generated from an entry in the Cambridge 
# Structural Database, then it will include bibliographic, chemical, 
# crystal, experimental, refinement or atomic coordinate data resulting 
# from the CCDC's data processing and validation procedures.
#
#######################################################################

data_NAJBIJ
_chemical_formula_moiety         'C26 H36 N2 O4 S2'
_chemical_name_systematic        
bis(2-(N,N-Dipropylcarbamoyl)phenyl)thiosulfinate
_symmetry_cell_setting           orthorhombic
_symmetry_space_group_name_H-M   'P n a 21'
_symmetry_Int_Tables_number      33
_space_group_name_Hall           'P 2c -2n'
loop_
_symmetry_equiv_pos_site_id
_symmetry_equiv_pos_as_xyz
1 x,y,z
2 -x,-y,1/2+z
3 1/2-x,1/2+y,1/2+z
4 1/2+x,1/2-y,z
_cell_length_a                   8.7750(20)
_cell_length_b                   37.127(7)
_cell_length_c                   8.4830(20)
_cell_angle_alpha                90
_cell_angle_beta                 90
_cell_angle_gamma                90
_cell_volume                     2763.67
_cell_formula_units_Z            4
loop_
_atom_site_label
_atom_site_type_symbol
_atom_site_fract_x
_atom_site_fract_y
_atom_site_fract_z
S1 S 0.39337(23) 0.38987(5) 0.67390
S2 S 0.20878(23) 0.42413(5) 0.6399(4)
O1 O 0.2454(8) 0.43774(17) 0.4863(10)
O2 O 0.1912(7) 0.44787(14) 0.7700(10)
O3 O 0.4999(6) 0.30470(13) 0.7179(11)
O4 O 0.0208(6) 0.39068(14) 1.0039(9)
N1 N 0.2491(7) 0.29495(14) 0.7599(10)
N2 N -0.1091(7) 0.44101(17) 0.9402(9)
C1 C 0.3852(8) 0.37698(20) 0.8765(12)
C2 C 0.3820(9) 0.34082(20) 0.9073(13)
C3 C 0.3910(10) 0.33043(22) 1.0664(16)
C4 C 0.3983(10) 0.3552(3) 1.1890(14)
C5 C 0.4002(10) 0.39137(24) 1.1538(14)
C6 C 0.3935(9) 0.40241(19) 0.9980(14)
C7 C 0.3797(10) 0.31222(18) 0.7851(12)
C8 C 0.1018(8) 0.30678(18) 0.8254(11)
C9 C 0.0431(12) 0.28195(22) 0.9520(12)
C10 C -0.1104(12) 0.2950(3) 1.0115(14)
C11 C 0.2478(8) 0.26478(16) 0.6485(13)
C12 C 0.1946(12) 0.27500(23) 0.4835(13)
C13 C 0.1832(14) 0.2425(3) 0.3807(13)
C14 C 0.0438(8) 0.39629(16) 0.6220(11)
C15 C -0.0613(9) 0.39399(17) 0.7414(11)
C16 C -0.1904(9) 0.37293(21) 0.7122(13)
C17 C -0.2099(10) 0.35517(22) 0.5725(14)
C18 C -0.1042(12) 0.35814(23) 0.4551(13)
C19 C 0.0267(11) 0.37884(21) 0.4790(12)
C20 C -0.0441(9) 0.40915(21) 0.9049(11)
C21 C -0.0945(10) 0.45466(21) 1.1003(12)
C22 C -0.2178(11) 0.4391(3) 1.2029(13)
C23 C -0.2102(14) 0.4555(3) 1.3661(14)
C24 C -0.1652(9) 0.46696(21) 0.8196(12)
C25 C -0.3308(10) 0.4739(3) 0.8338(14)
C26 C -0.3852(12) 0.50125(24) 0.7143(14)
H1 H 0.394 0.302 1.091
H2 H 0.401 0.346 1.310
H3 H 0.407 0.412 1.245
H4 H 0.395 0.431 0.967
H5 H 0.019 0.308 0.731
H6 H 0.117 0.333 0.877
H7 H 0.122 0.282 1.050
H8 H 0.033 0.255 0.904
H9 H -0.194 0.293 0.919
H10 H -0.103 0.323 1.049
H11 H -0.138 0.277 1.109
H12 H 0.171 0.245 0.693
H13 H 0.361 0.254 0.641
H14 H 0.088 0.289 0.491
H15 H 0.279 0.292 0.431
H16 H 0.072 0.230 0.394
H17 H 0.203 0.249 0.258
H18 H 0.271 0.225 0.424
H19 H -0.279 0.371 0.801
H20 H -0.309 0.338 0.554
H21 H -0.121 0.344 0.346
H22 H 0.113 0.381 0.389
H23 H -0.102 0.484 1.101
H24 H 0.014 0.446 1.148
H25 H -0.208 0.410 1.207
H26 H -0.327 0.446 1.153
H27 H -0.097 0.452 1.414
H28 H -0.292 0.442 1.440
H29 H -0.237 0.484 1.352
H30 H -0.146 0.455 0.706
H31 H -0.102 0.492 0.826
H32 H -0.394 0.449 0.822
H33 H -0.350 0.485 0.949
H34 H -0.294 0.517 0.667
H35 H -0.444 0.488 0.619
H36 H -0.463 0.518 0.780
loop_
_geom_bond_atom_site_label_1
_geom_bond_atom_site_label_2
_geom_bond_site_symmetry_1
_geom_bond_site_symmetry_2
S1 S2 1_555 1_555
S2 O1 1_555 1_555
O2 S2 1_555 1_555
O3 C7 1_555 1_555
O4 C20 1_555 1_555
N1 C7 1_555 1_555
N2 C20 1_555 1_555
C1 S1 1_555 1_555
C2 C1 1_555 1_555
C3 C2 1_555 1_555
C4 C3 1_555 1_555
C5 C4 1_555 1_555
C6 C1 1_555 1_555
C7 C2 1_555 1_555
C8 N1 1_555 1_555
C9 C8 1_555 1_555
C10 C9 1_555 1_555
C11 N1 1_555 1_555
C12 C11 1_555 1_555
C13 C12 1_555 1_555
C14 S2 1_555 1_555
C15 C14 1_555 1_555
C16 C15 1_555 1_555
C17 C16 1_555 1_555
C18 C17 1_555 1_555
C19 C14 1_555 1_555
C20 C15 1_555 1_555
C21 N2 1_555 1_555
C22 C21 1_555 1_555
C23 C22 1_555 1_555
C24 N2 1_555 1_555
C25 C24 1_555 1_555
C26 C25 1_555 1_555
H1 C3 1_555 1_555
H2 C4 1_555 1_555
H3 C5 1_555 1_555
H4 C6 1_555 1_555
H5 C8 1_555 1_555
H6 C8 1_555 1_555
H7 C9 1_555 1_555
H8 C9 1_555 1_555
H9 C10 1_555 1_555
H10 C10 1_555 1_555
H11 C10 1_555 1_555
H12 C11 1_555 1_555
H13 C11 1_555 1_555
H14 C12 1_555 1_555
H15 C12 1_555 1_555
H16 C13 1_555 1_555
H17 C13 1_555 1_555
H18 C13 1_555 1_555
H19 C16 1_555 1_555
H20 C17 1_555 1_555
H21 C18 1_555 1_555
H22 C19 1_555 1_555
H23 C21 1_555 1_555
H24 C21 1_555 1_555
H25 C22 1_555 1_555
H26 C22 1_555 1_555
H27 C23 1_555 1_555
H28 C23 1_555 1_555
H29 C23 1_555 1_555
H30 C24 1_555 1_555
H31 C24 1_555 1_555
H32 C25 1_555 1_555
H33 C25 1_555 1_555
H34 C26 1_555 1_555
H35 C26 1_555 1_555
H36 C26 1_555 1_555
C5 C6 1_555 1_555
C18 C19 1_555 1_555

#END
