
#######################################################################
#
#                 Cambridge Crystallographic Data Centre
#                                CCDC 
#
#######################################################################
#
# If this CIF has been generated from an entry in the Cambridge 
# Structural Database, then it will include bibliographic, chemical, 
# crystal, experimental, refinement or atomic coordinate data resulting 
# from the CCDC's data processing and validation procedures.
#
#######################################################################

data_NAJPUM
_chemical_formula_moiety         'C27 H26 N2 O4 S1'
_chemical_name_systematic        
4-methyl-N-(1-(5-methyl-2-(4-methylphenyl)-3-oxo-2,3-dihydro-1,2-oxazol-4-yl)-3-phenylprop-2-en-1-yl)benzenesulfonamide
_symmetry_cell_setting           monoclinic
_symmetry_space_group_name_H-M   'P 21/n'
_symmetry_Int_Tables_number      14
_space_group_name_Hall           '-P 2yn'
loop_
_symmetry_equiv_pos_site_id
_symmetry_equiv_pos_as_xyz
1 x,y,z
2 1/2-x,1/2+y,1/2-z
3 -x,-y,-z
4 1/2+x,1/2-y,1/2+z
_cell_length_a                   10.6197(8)
_cell_length_b                   20.5483(16)
_cell_length_c                   11.7583(9)
_cell_angle_alpha                90
_cell_angle_beta                 108.7468(12)
_cell_angle_gamma                90
_cell_volume                     2429.73
_exptl_crystal_colour            'light colorless'
_exptl_crystal_description       block
_cell_formula_units_Z            4
_exptl_crystal_recrystallization_method 'petroleum ether/ethyl acetate'
loop_
_atom_site_label
_atom_site_type_symbol
_atom_site_fract_x
_atom_site_fract_y
_atom_site_fract_z
S1 S 0.68364(4) 0.41830(2) -0.08281(4)
O1 O 0.71067(13) 0.39931(6) -0.18954(11)
O2 O 0.54941(13) 0.41852(6) -0.08103(13)
N1 N 0.74011(15) 0.49188(7) -0.05265(14)
O3 O 1.02191(13) 0.52189(7) 0.13286(12)
O4 O 0.89606(13) 0.46948(7) 0.35502(12)
N2 N 1.00186(16) 0.48631(8) 0.31349(14)
C1 C 0.77703(18) 0.36694(8) 0.03481(16)
C2 C 0.7905(2) 0.29188(10) 0.19287(19)
H1 H 0.7489 0.2680 0.2378
C3 C 0.95309(18) 0.50774(8) 0.19558(17)
C4 C 1.12488(19) 0.45595(9) 0.37485(17)
C5 C 0.9134(2) 0.36257(9) 0.05834(18)
H2 H 0.9548 0.3863 0.0130
C6 C 1.2385(2) 0.47975(10) 0.35619(17)
H3 H 1.2345 0.5161 0.3081
C7 C 0.9869(2) 0.32250(10) 0.15016(19)
H4 H 1.0784 0.3196 0.1665
C8 C 1.5003(2) 0.36100(13) 0.5408(2)
H5 H 1.5331 0.3710 0.6250
H6 H 1.5630 0.3757 0.5031
H7 H 1.4886 0.3148 0.5304
C9 C 0.71538(18) 0.52778(8) 0.04655(16)
H8 H 0.6264 0.5152 0.0466
C10 C 0.7145(2) 0.33212(9) 0.10176(18)
H9 H 0.6231 0.3356 0.0861
C11 C 0.78303(18) 0.48523(9) 0.26339(17)
C12 C 0.6062(3) 0.82829(13) -0.1665(3)
H10 H 0.5850 0.8717 -0.1856
C13 C 0.71049(18) 0.60009(9) 0.02256(17)
H11 H 0.7214 0.6275 0.0880
C14 C 0.6585(2) 0.47246(11) 0.2908(2)
H12 H 0.6490 0.4265 0.3002
H13 H 0.5841 0.4883 0.2262
H14 H 0.6618 0.4943 0.3639
C15 C 1.3689(2) 0.39464(11) 0.48430(18)
C16 C 1.1321(2) 0.40337(11) 0.45037(19)
H15 H 1.0561 0.3881 0.4646
C17 C 0.9269(2) 0.28648(10) 0.21838(19)
C18 C 0.81048(18) 0.50909(8) 0.16784(16)
C19 C 1.2539(2) 0.37376(11) 0.5044(2)
H16 H 1.2586 0.3388 0.5558
C20 C 0.6679(2) 0.69781(10) -0.10881(19)
C21 C 0.6923(2) 0.62787(9) -0.08195(18)
H17 H 0.6950 0.6011 -0.1449
C22 C 0.6097(3) 0.71749(13) -0.2266(2)
H18 H 0.5909 0.6868 -0.2879
C23 C 1.3587(2) 0.44832(11) 0.41053(18)
H19 H 1.4349 0.4638 0.3970
C24 C 1.0092(3) 0.24232(12) 0.3177(2)
H20 H 1.0163 0.2612 0.3943
H21 H 1.0964 0.2373 0.3110
H22 H 0.9670 0.2005 0.3109
C25 C 0.6652(3) 0.81004(12) -0.0497(3)
H23 H 0.6838 0.8411 0.0110
C26 C 0.5788(4) 0.78273(15) -0.2545(3)
H24 H 0.5391 0.7951 -0.3341
C27 C 0.6976(2) 0.74531(10) -0.0212(2)
H25 H 0.7401 0.7337 0.0584
H26 H 0.813(3) 0.4966(12) -0.065(2)
loop_
_geom_bond_atom_site_label_1
_geom_bond_atom_site_label_2
_geom_bond_site_symmetry_1
_geom_bond_site_symmetry_2
S1 O1 1_555 1_555
O2 S1 1_555 1_555
N1 S1 1_555 1_555
O3 C3 1_555 1_555
O4 N2 1_555 1_555
N2 C3 1_555 1_555
C1 S1 1_555 1_555
C2 H1 1_555 1_555
C3 C18 1_555 1_555
C4 N2 1_555 1_555
C5 C1 1_555 1_555
H2 C5 1_555 1_555
C6 C4 1_555 1_555
H3 C6 1_555 1_555
C7 C5 1_555 1_555
H4 C7 1_555 1_555
C8 H5 1_555 1_555
H6 C8 1_555 1_555
H7 C8 1_555 1_555
C9 N1 1_555 1_555
H8 C9 1_555 1_555
C10 C1 1_555 1_555
H9 C10 1_555 1_555
C11 O4 1_555 1_555
C12 H10 1_555 1_555
C13 C9 1_555 1_555
H11 C13 1_555 1_555
C14 C11 1_555 1_555
H12 C14 1_555 1_555
H13 C14 1_555 1_555
H14 C14 1_555 1_555
C15 C8 1_555 1_555
C16 C4 1_555 1_555
H15 C16 1_555 1_555
C17 C2 1_555 1_555
C18 C9 1_555 1_555
C19 C15 1_555 1_555
H16 C19 1_555 1_555
C20 C21 1_555 1_555
C21 C13 1_555 1_555
H17 C21 1_555 1_555
C22 C20 1_555 1_555
H18 C22 1_555 1_555
C23 C6 1_555 1_555
H19 C23 1_555 1_555
C24 C17 1_555 1_555
H20 C24 1_555 1_555
H21 C24 1_555 1_555
H22 C24 1_555 1_555
C25 C12 1_555 1_555
H23 C25 1_555 1_555
C26 C12 1_555 1_555
H24 C26 1_555 1_555
C27 C20 1_555 1_555
H25 C27 1_555 1_555
H26 N1 1_555 1_555
C2 C10 1_555 1_555
C7 C17 1_555 1_555
C11 C18 1_555 1_555
C15 C23 1_555 1_555
C16 C19 1_555 1_555
C22 C26 1_555 1_555
C25 C27 1_555 1_555

#END
