
#######################################################################
#
#                 Cambridge Crystallographic Data Centre
#                                CCDC 
#
#######################################################################
#
# If this CIF has been generated from an entry in the Cambridge 
# Structural Database, then it will include bibliographic, chemical, 
# crystal, experimental, refinement or atomic coordinate data resulting 
# from the CCDC's data processing and validation procedures.
#
#######################################################################

data_NAKNEV01
_chemical_formula_moiety         'C6 H14 N2 2+,2(Cl1 O4 1-),H2 O1'
_chemical_name_systematic        
'1,4-diazoniabicyclo[2.2.2]octane diperchlorate monohydrate'
_symmetry_cell_setting           orthorhombic
_symmetry_space_group_name_H-M   'P c a 21'
_symmetry_Int_Tables_number      29
_space_group_name_Hall           'P 2c -2ac'
loop_
_symmetry_equiv_pos_site_id
_symmetry_equiv_pos_as_xyz
1 x,y,z
2 -x,-y,1/2+z
3 1/2-x,y,1/2+z
4 1/2+x,-y,z
_cell_length_a                   13.296(10)
_cell_length_b                   8.069(6)
_cell_length_c                   11.772(9)
_cell_angle_alpha                90
_cell_angle_beta                 90
_cell_angle_gamma                90
_cell_volume                     1262.96
_exptl_crystal_colour            colorless
_exptl_crystal_description       block
_cell_formula_units_Z            4
loop_
_atom_site_label
_atom_site_type_symbol
_atom_site_fract_x
_atom_site_fract_y
_atom_site_fract_z
C1 C 0.6051(7) 0.8537(10) 0.6857(6)
H1 H 0.6618 0.8217 0.7327
H2 H 0.5606 0.9225 0.7307
C2 C 0.6418(6) 0.9495(8) 0.5829(6)
H3 H 0.6133 1.0601 0.5832
H4 H 0.7145 0.9595 0.5853
C3 C 0.6178(8) 0.5959(10) 0.5773(8)
H5 H 0.5815 0.4978 0.5530
H6 H 0.6741 0.5606 0.6236
C4 C 0.6559(5) 0.6870(8) 0.4756(7)
H7 H 0.6362 0.6296 0.4066
H8 H 0.7287 0.6934 0.4777
C5 C 0.4641(6) 0.7573(11) 0.5758(7)
H9 H 0.4215 0.8299 0.6205
H10 H 0.4246 0.6616 0.5535
C6 C 0.4994(5) 0.8467(9) 0.4723(7)
H11 H 0.4793 0.7865 0.4047
H12 H 0.4696 0.9564 0.4694
N1 N 0.6108(4) 0.8599(6) 0.4774(5)
H13 H 0.6319 0.9179 0.4155
N2 N 0.5504(5) 0.7028(7) 0.6454(5)
H14 H 0.5287 0.6445 0.7069
Cl1 Cl 0.77285(11) 0.22100(17) 0.84186(13)
O1 O 0.8795(4) 0.1998(7) 0.8548(6)
O2 O 0.7393(5) 0.3586(6) 0.9103(6)
O3 O 0.7483(5) 0.2497(7) 0.7256(6)
O4 O 0.7235(4) 0.0729(6) 0.8812(5)
Cl2 Cl 0.91119(11) 0.74147(17) 0.65756(15)
O5 O 0.8654(7) 0.8631(9) 0.7242(6)
O6 O 0.9042(5) 0.7884(7) 0.5425(5)
O7 O 0.8694(7) 0.5840(8) 0.6713(7)
O8 O 1.0144(6) 0.7333(11) 0.6902(7)
H15 H 0.608(4) 0.483(7) 0.875(6)
H16 H 0.561(6) 0.627(7) 0.908(5)
O9 O 0.5648(5) 0.5547(6) 0.8570(5)
loop_
_geom_bond_atom_site_label_1
_geom_bond_atom_site_label_2
_geom_bond_site_symmetry_1
_geom_bond_site_symmetry_2
C1 H1 1_555 1_555
H2 C1 1_555 1_555
C2 C1 1_555 1_555
H3 C2 1_555 1_555
H4 C2 1_555 1_555
C3 H5 1_555 1_555
H6 C3 1_555 1_555
C4 C3 1_555 1_555
H7 C4 1_555 1_555
H8 C4 1_555 1_555
C5 H9 1_555 1_555
H10 C5 1_555 1_555
C6 C5 1_555 1_555
H11 C6 1_555 1_555
H12 C6 1_555 1_555
N1 C2 1_555 1_555
H13 N1 1_555 1_555
N2 C1 1_555 1_555
H14 N2 1_555 1_555
Cl1 O1 1_555 1_555
O2 Cl1 1_555 1_555
O3 Cl1 1_555 1_555
O4 Cl1 1_555 1_555
Cl2 O5 1_555 1_555
O6 Cl2 1_555 1_555
O7 Cl2 1_555 1_555
O8 Cl2 1_555 1_555
H15 O9 1_555 1_555
H16 O9 1_555 1_555
C3 N2 1_555 1_555
C4 N1 1_555 1_555
C5 N2 1_555 1_555
C6 N1 1_555 1_555

#END
