
#######################################################################
#
#                 Cambridge Crystallographic Data Centre
#                                CCDC 
#
#######################################################################
#
# If this CIF has been generated from an entry in the Cambridge 
# Structural Database, then it will include bibliographic, chemical, 
# crystal, experimental, refinement or atomic coordinate data resulting 
# from the CCDC's data processing and validation procedures.
#
#######################################################################

data_NAKZAB
_chemical_formula_moiety         'C34 H32 N4 Se2'
_chemical_name_systematic        
13,14,29,30-Tetrahydro-12H,28H-tetrabenzo(b,k,n,w)(1,3,5,9,17,21)diselenatetra-azacyclotetracosine
_symmetry_cell_setting           triclinic
_symmetry_space_group_name_H-M   'P -1'
_symmetry_Int_Tables_number      2
_space_group_name_Hall           '-P 1'
loop_
_symmetry_equiv_pos_site_id
_symmetry_equiv_pos_as_xyz
1 x,y,z
2 -x,-y,-z
_cell_length_a                   7.200(3)
_cell_length_b                   9.137(3)
_cell_length_c                   12.780(6)
_cell_angle_alpha                72.78(3)
_cell_angle_beta                 76.40(4)
_cell_angle_gamma                69.00(3)
_cell_volume                     741.832
_cell_formula_units_Z            1
loop_
_atom_site_label
_atom_site_type_symbol
_atom_site_fract_x
_atom_site_fract_y
_atom_site_fract_z
Se1 Se 0.42077(16) 0.00746(12) 0.78096(8)
N1 N 0.1679(12) 0.3074(9) 1.0348(6)
N2 N 0.2641(12) -0.1609(9) 0.6946(6)
C1 C 0.5400(14) 0.1400(11) 0.8184(7)
C2 C 0.7298(16) 0.1531(13) 0.7567(9)
H1 H 0.7902 0.0986 0.7003
C3 C 0.8235(16) 0.2445(14) 0.7794(9)
H2 H 0.9449 0.2541 0.7375
C4 C 0.7360(16) 0.3233(14) 0.8658(9)
H3 H 0.7986 0.3859 0.8815
C5 C 0.5579(16) 0.3079(12) 0.9271(8)
H4 H 0.5046 0.3567 0.9866
C6 C 0.4521(13) 0.2209(10) 0.9036(7)
C7 C 0.2620(13) 0.2091(10) 0.9733(7)
H5 H 0.2104 0.1296 0.9725
C8 C -0.0256(15) 0.2931(12) 1.1016(7)
H6 H -0.1368 0.3700 1.0642
H7 H -0.0323 0.1855 1.1118
C9 C -0.0382(16) 0.3258(12) 1.2101(7)
H8 H -0.0230 0.4309 1.1985
H9 H 0.0713 0.2460 1.2476
C10 C 0.3425(12) 0.1483(10) 0.6425(7)
C11 C 0.3460(14) 0.3071(11) 0.6097(8)
H10 H 0.3830 0.3488 0.6569
C12 C 0.2959(15) 0.4025(11) 0.5095(8)
H11 H 0.3041 0.5067 0.4884
C13 C 0.2324(16) 0.3460(12) 0.4381(9)
H12 H 0.1957 0.4128 0.3706
C14 C 0.2251(14) 0.1912(12) 0.4686(8)
H13 H 0.1866 0.1522 0.4204
C15 C 0.2741(13) 0.0910(10) 0.5705(7)
C16 C 0.2595(13) -0.0728(11) 0.5994(7)
H14 H 0.2461 -0.1129 0.5435
C17 C -0.2414(15) 0.3214(11) 1.2847(8)
H15 H -0.3515 0.4026 1.2485
H16 H -0.2456 0.3452 1.3544
Se1A Se -0.42077(16) -0.00746(12) 1.21904(8)
N1A N -0.1679(12) -0.3074(9) 0.9652(6)
N2A N -0.2641(12) 0.1609(9) 1.3054(6)
C1A C -0.5400(14) -0.1400(11) 1.1816(7)
C2A C -0.7298(16) -0.1531(13) 1.2433(9)
H1A H -0.7902 -0.0986 1.2997
C3A C -0.8235(16) -0.2445(14) 1.2206(9)
H2A H -0.9449 -0.2541 1.2625
C4A C -0.7360(16) -0.3233(14) 1.1342(9)
H3A H -0.7986 -0.3859 1.1185
C5A C -0.5579(16) -0.3079(12) 1.0729(8)
H4A H -0.5046 -0.3567 1.0134
C6A C -0.4521(13) -0.2209(10) 1.0964(7)
C7A C -0.2620(13) -0.2091(10) 1.0267(7)
H5A H -0.2104 -0.1296 1.0275
C8A C 0.0256(15) -0.2931(12) 0.8984(7)
H6A H 0.1368 -0.3700 0.9358
H7A H 0.0323 -0.1855 0.8882
C9A C 0.0382(16) -0.3258(12) 0.7899(7)
H8A H 0.0230 -0.4309 0.8015
H9A H -0.0713 -0.2460 0.7524
C10A C -0.3425(12) -0.1483(10) 1.3575(7)
C11A C -0.3460(14) -0.3071(11) 1.3903(8)
H10A H -0.3830 -0.3488 1.3431
C12A C -0.2959(15) -0.4025(11) 1.4905(8)
H11A H -0.3041 -0.5067 1.5116
C13A C -0.2324(16) -0.3460(12) 1.5619(9)
H12A H -0.1957 -0.4128 1.6294
C14A C -0.2251(14) -0.1912(12) 1.5314(8)
H13A H -0.1866 -0.1522 1.5796
C15A C -0.2741(13) -0.0910(10) 1.4295(7)
C16A C -0.2595(13) 0.0728(11) 1.4006(7)
H14A H -0.2461 0.1129 1.4565
C17A C 0.2414(15) -0.3214(11) 0.7153(8)
H15A H 0.3515 -0.4026 0.7515
H16A H 0.2456 -0.3452 0.6456
loop_
_geom_bond_atom_site_label_1
_geom_bond_atom_site_label_2
_geom_bond_site_symmetry_1
_geom_bond_site_symmetry_2
Se1 C1 1_555 1_555
N1 C7 1_555 1_555
N2 C16 1_555 1_555
C1 C2 1_555 1_555
C2 H1 1_555 1_555
C3 C2 1_555 1_555
H2 C3 1_555 1_555
C4 C3 1_555 1_555
H3 C4 1_555 1_555
C5 C4 1_555 1_555
H4 C5 1_555 1_555
C6 C1 1_555 1_555
C7 C6 1_555 1_555
H5 C7 1_555 1_555
C8 N1 1_555 1_555
H6 C8 1_555 1_555
H7 C8 1_555 1_555
C9 C8 1_555 1_555
H8 C9 1_555 1_555
H9 C9 1_555 1_555
C10 Se1 1_555 1_555
C11 C10 1_555 1_555
H10 C11 1_555 1_555
C12 C11 1_555 1_555
H11 C12 1_555 1_555
C13 C12 1_555 1_555
H12 C13 1_555 1_555
C14 C13 1_555 1_555
H13 C14 1_555 1_555
C15 C10 1_555 1_555
C16 C15 1_555 1_555
H14 C16 1_555 1_555
C17 C9 1_555 1_555
H15 C17 1_555 1_555
H16 C17 1_555 1_555
Se1A C1A 1_555 1_555
N1A C7A 1_555 1_555
N2A C17 1_555 1_555
C1A C2A 1_555 1_555
C2A H1A 1_555 1_555
C3A C2A 1_555 1_555
H2A C3A 1_555 1_555
C4A C3A 1_555 1_555
H3A C4A 1_555 1_555
C5A C4A 1_555 1_555
H4A C5A 1_555 1_555
C6A C1A 1_555 1_555
C7A C6A 1_555 1_555
H5A C7A 1_555 1_555
C8A N1A 1_555 1_555
H6A C8A 1_555 1_555
H7A C8A 1_555 1_555
C9A C8A 1_555 1_555
H8A C9A 1_555 1_555
H9A C9A 1_555 1_555
C10A Se1A 1_555 1_555
C11A C10A 1_555 1_555
H10A C11A 1_555 1_555
C12A C11A 1_555 1_555
H11A C12A 1_555 1_555
C13A C12A 1_555 1_555
H12A C13A 1_555 1_555
C14A C13A 1_555 1_555
H13A C14A 1_555 1_555
C15A C10A 1_555 1_555
C16A N2A 1_555 1_555
H14A C16A 1_555 1_555
C17A N2 1_555 1_555
H15A C17A 1_555 1_555
H16A C17A 1_555 1_555
C5 C6 1_555 1_555
C14 C15 1_555 1_555
C5A C6A 1_555 1_555
C9A C17A 1_555 1_555
C14A C15A 1_555 1_555
C15A C16A 1_555 1_555

#END
