
#######################################################################
#
#                 Cambridge Crystallographic Data Centre
#                                CCDC 
#
#######################################################################
#
# If this CIF has been generated from an entry in the Cambridge 
# Structural Database, then it will include bibliographic, chemical, 
# crystal, experimental, refinement or atomic coordinate data resulting 
# from the CCDC's data processing and validation procedures.
#
#######################################################################

data_NALLIV
_chemical_formula_moiety         'C36 H64 N24 Na4 O22 4+,2(O4 S1 2-),13(H2 O1)'
_chemical_name_systematic        
'(\m~4~-Cucurbituril)-deca-aqua-tetra-sodium disulfate clathrate tridecahydrate'
_symmetry_cell_setting           monoclinic
_symmetry_space_group_name_H-M   'P 21/c'
_symmetry_Int_Tables_number      14
_space_group_name_Hall           '-P 2ybc'
loop_
_symmetry_equiv_pos_site_id
_symmetry_equiv_pos_as_xyz
1 x,y,z
2 -x,1/2+y,1/2-z
3 -x,-y,-z
4 x,1/2-y,1/2+z
_cell_length_a                   12.566(4)
_cell_length_b                   14.312(2)
_cell_length_c                   19.365(5)
_cell_angle_alpha                90
_cell_angle_beta                 102.64(1)
_cell_angle_gamma                90
_cell_volume                     3398.28
_exptl_crystal_colour            colorless
_cell_formula_units_Z            2
loop_
_atom_site_label
_atom_site_type_symbol
_atom_site_fract_x
_atom_site_fract_y
_atom_site_fract_z
Na1 Na 0.8236(3) 0.2439(2) 0.0580(2)
Na2 Na 0.5126(2) 0.3403(2) 0.03077(12)
O1 O 0.7699(3) 0.1554(2) 0.1474(2)
O2 O 0.8695(3) 0.0947(2) 0.0121(2)
O3 O 0.6778(3) 0.1262(2) -0.1566(2)
O4 O 0.4178(3) 0.2294(2) -0.1823(2)
O5 O 0.3402(3) 0.2858(3) -0.0278(2)
O6 O 0.5074(3) 0.2572(2) 0.1299(2)
N1 N 0.6881(3) 0.0678(3) 0.2205(2)
N2 N 0.8179(3) 0.0028(3) 0.1764(2)
N3 N 0.8967(3) -0.0408(3) 0.0770(2)
N4 N 0.8453(3) -0.0511(3) -0.0393(2)
N5 N 0.7205(3) -0.0302(3) -0.1521(2)
N6 N 0.5651(3) 0.0166(3) -0.2207(2)
N7 N 0.3860(3) 0.0866(3) -0.2372(2)
N8 N 0.2555(3) 0.1513(3) -0.1927(2)
N9 N 0.2022(3) 0.1872(3) -0.0827(2)
N10 N 0.2294(3) 0.2075(3) 0.0330(2)
N11 N 0.3507(3) 0.1879(3) 0.1477(2)
N12 N 0.5097(3) 0.1380(3) 0.2090(2)
C1 C 0.7595(4) 0.0823(3) 0.1784(2)
C2 C 0.8690(4) 0.0099(3) 0.0164(3)
C3 C 0.6561(4) 0.0453(3) -0.1742(3)
C4 C 0.3589(4) 0.1619(3) -0.2012(2)
C5 C 0.2651(4) 0.2324(3) -0.0258(3)
C6 C 0.4602(4) 0.1992(3) 0.1591(2)
C7 C 0.9142(4) -0.0001(3) 0.1463(3)
H1 H 0.9410(4) 0.0632(3) 0.1440(3)
H2 H 0.9706(4) -0.0353(3) 0.1779(3)
C8 C 0.8318(4) -0.0218(4) -0.1119(2)
H3 H 0.8789(4) -0.0592(4) -0.1344(2)
H4 H 0.8547(4) 0.0429(4) -0.1129(2)
C9 C 0.4861(4) 0.0804(3) -0.2607(3)
H5 H 0.5185(4) 0.1421(3) -0.2585(3)
H6 H 0.4698(4) 0.0609(3) -0.3099(3)
C10 C 0.2022(4) 0.2168(3) -0.1543(2)
H7 H 0.1274(4) 0.2253(3) -0.1800(2)
H8 H 0.2387(4) 0.2768(3) -0.1525(2)
C11 C 0.2731(4) 0.2470(3) 0.1017(3)
H9 H 0.2133(4) 0.2604(3) 0.1245(3)
H10 H 0.3083(4) 0.3059(3) 0.0956(3)
C12 C 0.6243(4) 0.1427(3) 0.2414(3)
H11 H 0.6329(4) 0.1411(3) 0.2924(3)
H12 H 0.6528(4) 0.2019(3) 0.2292(3)
C13 C 0.7044(4) -0.0210(3) 0.2564(2)
H13 H 0.7272(4) -0.0133(3) 0.3078(2)
C14 C 0.7950(4) -0.0664(3) 0.2250(2)
H14 H 0.8598(4) -0.0801(3) 0.2620(2)
C15 C 0.8902(4) -0.1414(3) 0.0642(2)
H15 H 0.9588(4) -0.1728(3) 0.0855(2)
C16 C 0.8650(4) -0.1478(3) -0.0172(2)
H16 H 0.9263(4) -0.1746(3) -0.0343(2)
C17 C 0.6790(4) -0.1139(3) -0.1905(2)
H17 H 0.7281(4) -0.1363(3) -0.2199(2)
C18 C 0.5677(4) -0.0818(3) -0.2362(2)
H18 H 0.5629(4) -0.0932(3) -0.2867(2)
O7 O 0.7622(4) 0.2760(3) -0.0662(3)
O8 O 0.5503(3) 0.3407(3) -0.0824(2)
O9 O 0.9869(5) 0.3281(4) 0.0501(4)
O10 O 0.7037(4) 0.3714(4) 0.0718(3)
O11 O 0.4214(4) 0.4670(3) 0.0623(3)
H19 H 0.7434(59) 0.2258(35) -0.0932(33)
H20 H 0.7996(54) 0.3171(41) -0.0849(37)
H21 H 0.6121(38) 0.3093(47) -0.0692(38)
H22 H 0.5058(48) 0.3052(44) -0.1123(31)
H23 H 0.9789(65) 0.3605(50) 0.0112(25)
H24 H 0.9708(69) 0.3582(54) 0.0855(31)
H25 H 0.7079(61) 0.4215(35) 0.0989(34)
H26 H 0.6745(64) 0.3320(48) 0.0981(38)
H27 H 0.4503(57) 0.5211(31) 0.0559(40)
H28 H 0.3516(26) 0.4745(53) 0.0463(38)
N8B N 0.7445(3) -0.1513(3) 0.1927(2)
C4B C 0.6411(4) -0.1619(3) 0.2012(2)
O4B O 0.5822(3) -0.2294(2) 0.1823(2)
N7B N 0.6140(3) -0.0866(3) 0.2372(2)
C9B C 0.5139(4) -0.0804(3) 0.2607(3)
N6B N 0.4349(3) -0.0166(3) 0.2207(2)
C3B C 0.3439(4) -0.0453(3) 0.1742(3)
O3B O 0.3222(3) -0.1262(2) 0.1566(2)
N5B N 0.2795(3) 0.0302(3) 0.1521(2)
C8B C 0.1682(4) 0.0218(4) 0.1119(2)
N4B N 0.1547(3) 0.0511(3) 0.0393(2)
C2B C 0.1310(4) -0.0099(3) -0.0164(3)
O2B O 0.1305(3) -0.0947(2) -0.0121(2)
Na1B Na 0.1764(3) -0.2439(2) -0.0580(2)
O1B O 0.2301(3) -0.1554(2) -0.1474(2)
C1B C 0.2405(4) -0.0823(3) -0.1784(2)
N1B N 0.3119(3) -0.0678(3) -0.2205(2)
C12B C 0.3757(4) -0.1427(3) -0.2414(3)
N12B N 0.4903(3) -0.1380(3) -0.2090(2)
C6B C 0.5398(4) -0.1992(3) -0.1591(2)
O6B O 0.4926(3) -0.2572(2) -0.1299(2)
Na2B Na 0.4874(2) -0.3403(2) -0.03077(12)
O5B O 0.6598(3) -0.2858(3) 0.0278(2)
C5B C 0.7349(4) -0.2324(3) 0.0258(3)
N9B N 0.7978(3) -0.1872(3) 0.0827(2)
C10B C 0.7978(4) -0.2168(3) 0.1543(2)
H7B H 0.8726(4) -0.2253(3) 0.1800(2)
H8B H 0.7613(4) -0.2768(3) 0.1525(2)
N10B N 0.7706(3) -0.2075(3) -0.0330(2)
C11B C 0.7269(4) -0.2470(3) -0.1017(3)
N11B N 0.6493(3) -0.1879(3) -0.1477(2)
H9B H 0.7867(4) -0.2604(3) -0.1245(3)
H10B H 0.6917(4) -0.3059(3) -0.0956(3)
O8B O 0.4497(3) -0.3407(3) 0.0824(2)
H21B H 0.3879(38) -0.3093(47) 0.0692(38)
H22B H 0.4942(48) -0.3052(44) 0.1123(31)
O10B O 0.2963(4) -0.3714(4) -0.0718(3)
O7B O 0.2378(4) -0.2760(3) 0.0662(3)
H19B H 0.2566(59) -0.2258(35) 0.0932(33)
H20B H 0.2004(54) -0.3171(41) 0.0849(37)
O9B O 0.0131(5) -0.3281(4) -0.0501(4)
H23B H 0.0211(65) -0.3605(50) -0.0112(25)
H24B H 0.0292(69) -0.3582(54) -0.0855(31)
H25B H 0.2921(61) -0.4215(35) -0.0989(34)
H26B H 0.3255(64) -0.3320(48) -0.0981(38)
O11B O 0.5786(4) -0.4670(3) -0.0623(3)
H27B H 0.5497(57) -0.5211(31) -0.0559(40)
H28B H 0.6484(26) -0.4745(53) -0.0463(38)
H11B H 0.3671(4) -0.1411(3) -0.2924(3)
H12B H 0.3472(4) -0.2019(3) -0.2292(3)
C13B C 0.2956(4) 0.0210(3) -0.2564(2)
H13B H 0.2728(4) 0.0133(3) -0.3078(2)
C14B C 0.2050(4) 0.0664(3) -0.2250(2)
N2B N 0.1821(3) -0.0028(3) -0.1764(2)
C7B C 0.0858(4) 0.0001(3) -0.1463(3)
N3B N 0.1033(3) 0.0408(3) -0.0770(2)
C15B C 0.1098(4) 0.1414(3) -0.0642(2)
H15B H 0.0412(4) 0.1728(3) -0.0855(2)
C16B C 0.1350(4) 0.1478(3) 0.0172(2)
C17B C 0.3210(4) 0.1139(3) 0.1905(2)
H17B H 0.2719(4) 0.1363(3) 0.2199(2)
C18B C 0.4323(4) 0.0818(3) 0.2362(2)
H18B H 0.4371(4) 0.0932(3) 0.2867(2)
H16B H 0.0737(4) 0.1746(3) 0.0343(2)
H1B H 0.0590(4) -0.0632(3) -0.1440(3)
H2B H 0.0294(4) 0.0353(3) -0.1779(3)
H14B H 0.1402(4) 0.0801(3) -0.2620(2)
H3B H 0.1211(4) 0.0592(4) 0.1344(2)
H4B H 0.1453(4) -0.0429(4) 0.1129(2)
H5B H 0.4815(4) -0.1421(3) 0.2585(3)
H6B H 0.5302(4) -0.0609(3) 0.3099(3)
O12 O 0.2008(4) 0.0164(4) 0.5171(3)
H29 H 0.1861(69) 0.0492(51) 0.5525(32)
H30 H 0.1575(52) 0.0567(43) 0.4902(34)
O13 O 0.0658(4) 0.1970(4) 0.1928(3)
H31 H 0.0307(56) 0.2401(42) 0.1643(34)
H32 H 0.0517(61) 0.1703(51) 0.2319(27)
O14 O 0.8773(5) 0.3182(4) 0.2990(3)
H33 H 0.8040(24) 0.3198(55) 0.2896(41)
H34 H 0.8891(63) 0.3030(55) 0.2541(23)
O15 O 0.2763(8) 0.0431(6) 0.3574(6)
O17 O 0.9266(8) 0.3505(7) 0.1752(5)
S1 S 0.98048(11) 0.08831(10) 0.36511(8)
O18 O 1.0383(8) 0.0691(8) 0.3097(6)
O19 O 0.9385(9) -0.0034(6) 0.3857(5)
O20 O 0.8856(7) 0.1432(7) 0.3413(5)
O24 O 1.0554(4) 0.1322(3) 0.4225(3)
O25 O 0.5892(10) 0.1380(12) 0.0008(6)
O16? O 0.2024(12) -0.0314(10) 0.2955(7)
O21? O 0.9656(8) 0.1463(7) 0.2989(5)
O22? O 0.8722(8) 0.0864(8) 0.3821(6)
O23? O 1.0113(12) -0.0032(7) 0.3499(8)
O26? O 0.4367(28) 0.0289(23) -0.0331(18)
loop_
_geom_bond_atom_site_label_1
_geom_bond_atom_site_label_2
_geom_bond_site_symmetry_1
_geom_bond_site_symmetry_2
Na1 O1 1_555 1_555
Na2 O5 1_555 1_555
O1 C1 1_555 1_555
O2 Na1 1_555 1_555
O3 C3 1_555 1_555
O4 C4 1_555 1_555
O5 C5 1_555 1_555
O6 Na2 1_555 1_555
N1 C1 1_555 1_555
N2 C1 1_555 1_555
N3 C2 1_555 1_555
N4 C2 1_555 1_555
N5 C3 1_555 1_555
N6 C3 1_555 1_555
N7 C4 1_555 1_555
N8 C4 1_555 1_555
N9 C5 1_555 1_555
N10 C5 1_555 1_555
N11 C6 1_555 1_555
N12 C6 1_555 1_555
C2 O2 1_555 1_555
C6 O6 1_555 1_555
C7 N2 1_555 1_555
H1 C7 1_555 1_555
H2 C7 1_555 1_555
C8 N4 1_555 1_555
H3 C8 1_555 1_555
H4 C8 1_555 1_555
C9 N6 1_555 1_555
H5 C9 1_555 1_555
H6 C9 1_555 1_555
C10 N8 1_555 1_555
H7 C10 1_555 1_555
H8 C10 1_555 1_555
C11 N10 1_555 1_555
H9 C11 1_555 1_555
H10 C11 1_555 1_555
C12 N1 1_555 1_555
H11 C12 1_555 1_555
H12 C12 1_555 1_555
C13 N1 1_555 1_555
H13 C13 1_555 1_555
C14 N2 1_555 1_555
H14 C14 1_555 1_555
C15 N3 1_555 1_555
H15 C15 1_555 1_555
C16 N4 1_555 1_555
H16 C16 1_555 1_555
C17 N5 1_555 1_555
H17 C17 1_555 1_555
C18 N6 1_555 1_555
H18 C18 1_555 1_555
O7 Na1 1_555 1_555
O8 Na2 1_555 1_555
O9 Na1 1_555 1_555
O10 Na1 1_555 1_555
O11 Na2 1_555 1_555
O12 H29 1_555 1_555
O13 H31 1_555 1_555
O14 H33 1_555 1_555
H19 O7 1_555 1_555
H20 O7 1_555 1_555
H21 O8 1_555 1_555
H22 O8 1_555 1_555
H23 O9 1_555 1_555
H24 O9 1_555 1_555
H25 O10 1_555 1_555
H26 O10 1_555 1_555
H27 O11 1_555 1_555
H28 O11 1_555 1_555
H30 O12 1_555 1_555
H32 O13 1_555 1_555
H34 O14 1_555 1_555
S1 O18 1_555 1_555
O19 S1 1_555 1_555
O20 S1 1_555 1_555
O24 S1 1_555 1_555
N8B C14 1_555 1_555
C4B N8B 1_555 1_555
O4B C4B 1_555 1_555
N7B C13 1_555 1_555
C9B N7B 1_555 1_555
N6B C9B 1_555 1_555
C3B N6B 1_555 1_555
O3B C3B 1_555 1_555
N5B C3B 1_555 1_555
C8B N5B 1_555 1_555
N4B C8B 1_555 1_555
C2B N4B 1_555 1_555
O2B C2B 1_555 1_555
Na1B O2B 1_555 1_555
O1B Na1B 1_555 1_555
C1B O1B 1_555 1_555
N1B C1B 1_555 1_555
C12B N1B 1_555 1_555
N12B C18 1_555 1_555
C6B N12B 1_555 1_555
O6B C6B 1_555 1_555
Na2B O6B 1_555 1_555
O5B Na2B 1_555 1_555
C5B O5B 1_555 1_555
N9B C15 1_555 1_555
C10B N8B 1_555 1_555
H7B C10B 1_555 1_555
H8B C10B 1_555 1_555
N10B C16 1_555 1_555
C11B N10B 1_555 1_555
N11B C17 1_555 1_555
H9B C11B 1_555 1_555
H10B C11B 1_555 1_555
O8B Na2B 1_555 1_555
H21B O8B 1_555 1_555
H22B O8B 1_555 1_555
O10B Na1B 1_555 1_555
O7B Na1B 1_555 1_555
H19B O7B 1_555 1_555
H20B O7B 1_555 1_555
O9B Na1B 1_555 1_555
H23B O9B 1_555 1_555
H24B O9B 1_555 1_555
H25B O10B 1_555 1_555
H26B O10B 1_555 1_555
O11B Na2B 1_555 1_555
H27B O11B 1_555 1_555
H28B O11B 1_555 1_555
H11B C12B 1_555 1_555
H12B C12B 1_555 1_555
C13B N7 1_555 1_555
H13B C13B 1_555 1_555
C14B N8 1_555 1_555
N2B C1B 1_555 1_555
C7B N2B 1_555 1_555
N3B C2B 1_555 1_555
C15B N9 1_555 1_555
H15B C15B 1_555 1_555
C16B N10 1_555 1_555
C17B N11 1_555 1_555
H17B C17B 1_555 1_555
C18B N12 1_555 1_555
H18B C18B 1_555 1_555
H16B C16B 1_555 1_555
H1B C7B 1_555 1_555
H2B C7B 1_555 1_555
H14B C14B 1_555 1_555
H3B C8B 1_555 1_555
H4B C8B 1_555 1_555
H5B C9B 1_555 1_555
H6B C9B 1_555 1_555
Na2 O10 1_555 1_555
N3 C7 1_555 1_555
N5 C8 1_555 1_555
N7 C9 1_555 1_555
N9 C10 1_555 1_555
N11 C11 1_555 1_555
N12 C12 1_555 1_555
C13 C14 1_555 1_555
C15 C16 1_555 1_555
C17 C18 1_555 1_555
C4B N7B 1_555 1_555
N6B C18B 1_555 1_555
N5B C17B 1_555 1_555
N4B C16B 1_555 1_555
N1B C13B 1_555 1_555
C12B N12B 1_555 1_555
C6B N11B 1_555 1_555
Na2B O10B 1_555 1_555
C5B N9B 1_555 1_555
C5B N10B 1_555 1_555
N9B C10B 1_555 1_555
C11B N11B 1_555 1_555
C13B C14B 1_555 1_555
C14B N2B 1_555 1_555
C7B N3B 1_555 1_555
N3B C15B 1_555 1_555
C15B C16B 1_555 1_555
C17B C18B 1_555 1_555

#END
