
#######################################################################
#
#                 Cambridge Crystallographic Data Centre
#                                CCDC 
#
#######################################################################
#
# If this CIF has been generated from an entry in the Cambridge 
# Structural Database, then it will include bibliographic, chemical, 
# crystal, experimental, refinement or atomic coordinate data resulting 
# from the CCDC's data processing and validation procedures.
#
#######################################################################

data_NALTID
_chemical_formula_moiety         'C6 H3 I1 S4 1+,H1 O4 S1 1-'
_chemical_name_systematic        '4-Iodotetrathiafulvalenium hydrogen sulfate'
_symmetry_cell_setting           triclinic
_symmetry_space_group_name_H-M   'P -1'
_symmetry_Int_Tables_number      2
_space_group_name_Hall           '-P 1'
loop_
_symmetry_equiv_pos_site_id
_symmetry_equiv_pos_as_xyz
1 x,y,z
2 -x,-y,-z
_cell_length_a                   8.1446(9)
_cell_length_b                   8.2417(9)
_cell_length_c                   9.9156(11)
_cell_angle_alpha                99.169(5)
_cell_angle_beta                 100.978(5)
_cell_angle_gamma                104.752(4)
_cell_volume                     616.541
_exptl_crystal_colour            black
_cell_formula_units_Z            2
loop_
_atom_site_label
_atom_site_type_symbol
_atom_site_fract_x
_atom_site_fract_y
_atom_site_fract_z
I1 I 0.84540(4) 0.08685(4) 0.31589(3)
S1 S 0.7319(1) 0.3400(2) 0.5461(1)
S2 S 0.3531(1) 0.1818(1) 0.4467(1)
S3 S 0.6796(2) 0.5926(2) 0.8009(1)
S4 S 0.3016(2) 0.4333(2) 0.7197(1)
C1 C 0.5257(6) 0.3348(6) 0.5700(5)
C2 C 0.6575(6) 0.1710(6) 0.3990(5)
C3 C 0.4837(6) 0.0986(6) 0.3530(5)
C4 C 0.5024(6) 0.4404(6) 0.6847(5)
C5 C 0.5572(7) 0.6767(7) 0.9012(5)
C6 C 0.3839(7) 0.6042(6) 0.8648(5)
H1 H 0.4159(68) 0.0061(68) 0.2734(56)
H2 H 0.6244(65) 0.7709(65) 0.9833(54)
H3 H 0.3051(71) 0.6389(68) 0.9139(56)
S5 S 0.0798(2) -0.2069(2) 0.1168(1)
O1 O 0.2496(5) -0.1894(5) 0.0876(4)
O2 O -0.0394(5) -0.1599(5) 0.0016(4)
O3 O -0.0127(5) -0.3946(4) 0.1091(4)
O4 O 0.0859(4) -0.1063(4) 0.2519(4)
H4 H 0.0301(78) -0.069(14) -0.005(18)
H5? H 0.0000 -0.5000 0.0000
loop_
_geom_bond_atom_site_label_1
_geom_bond_atom_site_label_2
_geom_bond_site_symmetry_1
_geom_bond_site_symmetry_2
I1 C2 1_555 1_555
S1 C1 1_555 1_555
S2 C1 1_555 1_555
S3 C4 1_555 1_555
S4 C4 1_555 1_555
C1 C4 1_555 1_555
C2 S1 1_555 1_555
C3 S2 1_555 1_555
C5 S3 1_555 1_555
C6 S4 1_555 1_555
S5 O1 1_555 1_555
O2 S5 1_555 1_555
O3 S5 1_555 1_555
O4 S5 1_555 1_555
H1 C3 1_555 1_555
H2 C5 1_555 1_555
H3 C6 1_555 1_555
H4 O2 1_555 1_555
C2 C3 1_555 1_555
C5 C6 1_555 1_555

#END
