
#######################################################################
#
#                 Cambridge Crystallographic Data Centre
#                                CCDC 
#
#######################################################################
#
# If this CIF has been generated from an entry in the Cambridge 
# Structural Database, then it will include bibliographic, chemical, 
# crystal, experimental, refinement or atomic coordinate data resulting 
# from the CCDC's data processing and validation procedures.
#
#######################################################################

data_NANKUI
_chemical_formula_moiety         'C21 H25 F3 N2 O3 S1'
_chemical_name_systematic        
(3S,4S,5R)-4-(2-((1S)-1-(Dimethylamino)ethyl)phenylsulfonyl)-2-methyl-3-phenyl-5-(trifluoromethyl)isoxazolidine
_symmetry_cell_setting           monoclinic
_symmetry_space_group_name_H-M   'P 21'
_symmetry_Int_Tables_number      4
_space_group_name_Hall           'P 2yb'
loop_
_symmetry_equiv_pos_site_id
_symmetry_equiv_pos_as_xyz
1 x,y,z
2 -x,1/2+y,-z
_cell_length_a                   9.028(2)
_cell_length_b                   9.801(1)
_cell_length_c                   12.574(2)
_cell_angle_alpha                90
_cell_angle_beta                 97.55(1)
_cell_angle_gamma                90
_cell_volume                     1102.95
_exptl_crystal_description       tablet
_chemical_melting_point          101-103deg.C
_cell_formula_units_Z            2
_exptl_crystal_recrystallization_method 'diethyl ether'
loop_
_atom_site_label
_atom_site_type_symbol
_atom_site_fract_x
_atom_site_fract_y
_atom_site_fract_z
S1 S 0.8073(1) 0.375 0.70132(7)
F1 F 0.9725(3) 0.6303(3) 0.9905(2)
F2 F 1.1086(3) 0.4689(4) 0.9421(2)
F3 F 1.0030(3) 0.4487(3) 1.0849(2)
O1 O 0.7472(3) 0.4412(3) 0.6037(2)
O2 O 0.7319(3) 0.2549(3) 0.7329(2)
O3 O 0.7229(3) 0.4344(3) 0.9704(2)
N1 N 0.6520(4) 0.5635(4) 0.9326(3)
N2 N 1.0400(4) 0.6556(3) 0.6840(3)
C1 C 0.6523(4) 0.5531(4) 0.8151(3)
C2 C 0.8102(4) 0.4964(4) 0.8088(3)
C3 C 0.8524(4) 0.4284(4) 0.9187(3)
C4 C 0.9838(5) 0.4958(5) 0.9844(3)
C5 C 0.5015(6) 0.5560(8) 0.9632(4)
C6 C 0.6205(4) 0.6904(4) 0.7615(3)
C7 C 0.5548(4) 0.6957(5) 0.6554(3)
C8 C 0.5269(5) 0.8205(7) 0.6051(4)
C9 C 0.5658(6) 0.9385(6) 0.6597(5)
C10 C 0.6323(6) 0.9349(5) 0.7657(5)
C11 C 0.6587(5) 0.8111(5) 0.8164(4)
C12 C 0.9993(4) 0.3332(4) 0.6988(3)
C13 C 1.1015(4) 0.4172(4) 0.6543(3)
C14 C 1.2466(5) 0.3675(6) 0.6609(4)
C15 C 1.2902(6) 0.2456(6) 0.7077(5)
C16 C 1.1886(7) 0.1646(5) 0.7502(5)
C17 C 1.0414(5) 0.2078(5) 0.7457(3)
C18 C 1.0595(4) 0.5541(4) 0.6002(3)
C19 C 1.1645(5) 0.5983(5) 0.5213(3)
C20 C 0.9608(6) 0.7768(5) 0.6392(4)
C21 C 1.1774(5) 0.6947(5) 0.7505(4)
loop_
_geom_bond_atom_site_label_1
_geom_bond_atom_site_label_2
_geom_bond_site_symmetry_1
_geom_bond_site_symmetry_2
S1 O1 1_555 1_555
F1 C4 1_555 1_555
F2 C4 1_555 1_555
F3 C4 1_555 1_555
O2 S1 1_555 1_555
O3 N1 1_555 1_555
N1 C1 1_555 1_555
N2 C18 1_555 1_555
C1 C2 1_555 1_555
C2 S1 1_555 1_555
C3 O3 1_555 1_555
C4 C3 1_555 1_555
C5 N1 1_555 1_555
C6 C1 1_555 1_555
C7 C6 1_555 1_555
C8 C7 1_555 1_555
C9 C8 1_555 1_555
C10 C9 1_555 1_555
C11 C6 1_555 1_555
C12 S1 1_555 1_555
C13 C12 1_555 1_555
C14 C13 1_555 1_555
C15 C14 1_555 1_555
C16 C15 1_555 1_555
C17 C12 1_555 1_555
C18 C13 1_555 1_555
C19 C18 1_555 1_555
C20 N2 1_555 1_555
C21 N2 1_555 1_555
C2 C3 1_555 1_555
C10 C11 1_555 1_555
C16 C17 1_555 1_555

#END
