
#######################################################################
#
#                 Cambridge Crystallographic Data Centre
#                                CCDC 
#
#######################################################################
#
# If this CIF has been generated from an entry in the Cambridge 
# Structural Database, then it will include bibliographic, chemical, 
# crystal, experimental, refinement or atomic coordinate data resulting 
# from the CCDC's data processing and validation procedures.
#
#######################################################################

data_NAPMUN
_chemical_formula_moiety         'C40 H69 N3 O8,0.5(C1 H2 Cl2)'
_chemical_name_systematic        
'Methyl 3\a,7\a,12\a-tris(N-t-butyloxycarbonylamino)cholanoate dichloromethane solvate'
_symmetry_cell_setting           orthorhombic
_symmetry_space_group_name_H-M   'C 2 2 21'
_symmetry_Int_Tables_number      20
_space_group_name_Hall           'C 2n 2'
loop_
_symmetry_equiv_pos_site_id
_symmetry_equiv_pos_as_xyz
1 x,y,z
2 -x,-y,1/2+z
3 x,-y,-z
4 -x,y,1/2-z
5 1/2+x,1/2+y,z
6 1/2-x,1/2-y,1/2+z
7 1/2+x,1/2-y,-z
8 1/2-x,1/2+y,1/2-z
_cell_length_a                   14.9131(4)
_cell_length_b                   20.2510(10)
_cell_length_c                   32.2990(10)
_cell_angle_alpha                90
_cell_angle_beta                 90
_cell_angle_gamma                90
_cell_volume                     9754.47
_exptl_crystal_colour            colorless
_exptl_crystal_description       block
_cell_formula_units_Z            8
loop_
_atom_site_label
_atom_site_type_symbol
_atom_site_fract_x
_atom_site_fract_y
_atom_site_fract_z
C1 C -0.7838(4) -0.3676(3) -0.58749(18)
H1 H -0.7833 -0.4156 -0.5932
H2 H -0.8345 -0.3587 -0.5685
C2 C -0.8011(4) -0.3314(3) -0.62809(17)
H3 H -0.8581 -0.3470 -0.6403
H4 H -0.8068 -0.2834 -0.6227
C3 C -0.7267(4) -0.3431(3) -0.65756(19)
H5 H -0.7234 -0.3916 -0.6632
C4 C -0.6369(4) -0.3215(3) -0.63802(17)
H6 H -0.5874 -0.3309 -0.6576
H7 H -0.6381 -0.2733 -0.6330
C5 C -0.6191(4) -0.3574(3) -0.59705(18)
H8 H -0.6156 -0.4056 -0.6038
C6 C -0.5279(3) -0.3387(3) -0.57778(19)
H9 H -0.5123 -0.3720 -0.5565
H10 H -0.4814 -0.3408 -0.5996
C7 C -0.5245(3) -0.2710(3) -0.55806(16)
H11 H -0.4695 -0.2704 -0.5404
C8 C -0.6044(3) -0.2592(2) -0.52870(16)
H12 H -0.5962 -0.2895 -0.5046
C9 C -0.6958(3) -0.2778(3) -0.54925(15)
H13 H -0.7031 -0.2486 -0.5740
C10 C -0.6963(3) -0.3497(3) -0.56511(17)
C11 C -0.7744(3) -0.2630(3) -0.52016(16)
H14 H -0.7721 -0.2940 -0.4965
H15 H -0.8312 -0.2710 -0.5352
C12 C -0.7751(3) -0.1917(3) -0.50325(15)
H16 H -0.8236 -0.1889 -0.4820
C13 C -0.6845(3) -0.1754(2) -0.48114(14)
C14 C -0.6081(3) -0.1899(2) -0.51159(15)
H17 H -0.6170 -0.1598 -0.5358
C15 C -0.5254(3) -0.1648(3) -0.48835(17)
H18 H -0.4768 -0.1527 -0.5078
H19 H -0.5028 -0.1984 -0.4687
C16 C -0.5612(3) -0.1034(3) -0.46532(18)
H20 H -0.5363 -0.0627 -0.4778
H21 H -0.5433 -0.1050 -0.4358
C17 C -0.6644(3) -0.1038(3) -0.46911(15)
H22 H -0.6805 -0.0754 -0.4933
C18 C -0.6844(4) -0.4005(3) -0.53073(18)
H23 H -0.6805 -0.4447 -0.5429
H24 H -0.7359 -0.3985 -0.5119
H25 H -0.6293 -0.3909 -0.5153
C19 C -0.6794(3) -0.2204(3) -0.44222(15)
H26 H -0.6285 -0.2069 -0.4250
H27 H -0.6715 -0.2664 -0.4509
H28 H -0.7351 -0.2163 -0.4263
C20 C -0.7119(3) -0.0745(3) -0.43057(16)
H29 H -0.6964 -0.1034 -0.4065
C21 C -0.8130(4) -0.0753(4) -0.4348(2)
H30 H -0.8300 -0.0573 -0.4619
H31 H -0.8397 -0.0482 -0.4129
H32 H -0.8349 -0.1208 -0.4324
C22 C -0.6799(4) -0.0056(3) -0.42033(16)
H33 H -0.7082 0.0261 -0.4397
H34 H -0.6142 -0.0033 -0.4245
C23 C -0.7020(4) 0.0146(3) -0.37584(16)
H35 H -0.7677 0.0116 -0.3719
H36 H -0.6738 -0.0176 -0.3568
C24 C -0.6727(3) 0.0818(3) -0.36369(17)
C25 C -0.6173(8) 0.1469(4) -0.3091(2)
H37 H -0.6688 0.1769 -0.3079
H38 H -0.5715 0.1653 -0.3276
H39 H -0.5921 0.1415 -0.2813
C26 C -0.6958(6) -0.3237(4) -0.7313(2)
C27 C -0.6862(6) -0.2917(5) -0.8037(2)
C28 C -0.7514(8) -0.2490(7) -0.8300(3)
H40 H -0.7642 -0.2076 -0.8155
H41 H -0.8075 -0.2733 -0.8344
H42 H -0.7238 -0.2393 -0.8569
C29 C -0.6804(9) -0.3618(5) -0.8205(3)
H43 H -0.7375 -0.3845 -0.8157
H44 H -0.6321 -0.3855 -0.8064
H45 H -0.6681 -0.3603 -0.8503
C30 C -0.5928(6) -0.2588(5) -0.7997(3)
H46 H -0.5585 -0.2808 -0.7778
H47 H -0.6002 -0.2120 -0.7927
H48 H -0.5606 -0.2628 -0.8260
C31 C -0.4392(4) -0.1822(3) -0.58974(17)
C32 C -0.3862(4) -0.0702(3) -0.6093(2)
C33 C -0.3867(6) -0.0488(4) -0.5627(2)
H49 H -0.4487 -0.0456 -0.5529
H50 H -0.3573 -0.0057 -0.5599
H51 H -0.3543 -0.0816 -0.5461
C34 C -0.2950(5) -0.0874(5) -0.6249(3)
H52 H -0.2588 -0.0472 -0.6271
H53 H -0.3001 -0.1082 -0.6522
H54 H -0.2662 -0.1182 -0.6056
C35 C -0.4298(5) -0.0182(3) -0.6360(2)
H55 H -0.4415 -0.0363 -0.6636
H56 H -0.3898 0.0200 -0.6383
H57 H -0.4866 -0.0044 -0.6233
C36 C -0.8822(3) -0.1341(3) -0.54624(16)
C37 C -0.9768(4) -0.0938(3) -0.6032(2)
C38 C -1.0174(5) -0.1613(4) -0.6121(3)
H58 H -1.0375 -0.1814 -0.5861
H59 H -0.9722 -0.1896 -0.6250
H60 H -1.0687 -0.1563 -0.6308
C39 C -0.9547(5) -0.0593(4) -0.6425(2)
H61 H -0.9140 -0.0867 -0.6589
H62 H -0.9258 -0.0170 -0.6363
H63 H -1.0099 -0.0514 -0.6582
C40 C -1.0385(4) -0.0506(4) -0.5776(3)
H64 H -1.0869 -0.0337 -0.5951
H65 H -1.0044 -0.0136 -0.5661
H66 H -1.0641 -0.0767 -0.5549
N1 N -0.7423(3) -0.3099(3) -0.69613(15)
H67 H -0.7840 -0.2792 -0.6971
N2 N -0.5147(3) -0.2162(2) -0.58771(13)
H68 H -0.5595 -0.2061 -0.6042
N3 N -0.7974(2) -0.1449(2) -0.53636(12)
H69 H -0.7544 -0.1240 -0.5496
O1 O -0.6714(2) 0.13033(19) -0.38585(12)
O2 O -0.6455(3) 0.0841(2) -0.32450(12)
O3 O -0.6300(4) -0.3618(3) -0.73237(17)
O4 O -0.7296(3) -0.2902(3) -0.76313(14)
O5 O -0.3675(2) -0.1976(2) -0.57341(13)
O6 O -0.4500(2) -0.12712(19) -0.61295(13)
O7 O -0.9463(2) -0.1498(2) -0.52513(12)
O8 O -0.8885(2) -0.10167(19) -0.58297(11)
Cl1 Cl -0.7110(4) -0.0070(3) -0.23475(17)
C41 C -0.7996(14) 0.0176(9) -0.2539(5)
H70 H -0.8466 -0.0153 -0.2473
H71 H -0.7922 0.0175 -0.2844
Cl2 Cl -0.8398(6) 0.0954(4) -0.2395(2)
loop_
_geom_bond_atom_site_label_1
_geom_bond_atom_site_label_2
_geom_bond_site_symmetry_1
_geom_bond_site_symmetry_2
C1 H1 1_555 1_555
H2 C1 1_555 1_555
C2 C1 1_555 1_555
H3 C2 1_555 1_555
H4 C2 1_555 1_555
C3 C2 1_555 1_555
H5 C3 1_555 1_555
C4 C3 1_555 1_555
H6 C4 1_555 1_555
H7 C4 1_555 1_555
C5 C4 1_555 1_555
H8 C5 1_555 1_555
C6 C5 1_555 1_555
H9 C6 1_555 1_555
H10 C6 1_555 1_555
C7 C6 1_555 1_555
H11 C7 1_555 1_555
C8 C7 1_555 1_555
H12 C8 1_555 1_555
C9 C8 1_555 1_555
H13 C9 1_555 1_555
C10 C1 1_555 1_555
C11 C9 1_555 1_555
H14 C11 1_555 1_555
H15 C11 1_555 1_555
C12 C11 1_555 1_555
H16 C12 1_555 1_555
C13 C12 1_555 1_555
C14 C8 1_555 1_555
H17 C14 1_555 1_555
C15 C14 1_555 1_555
H18 C15 1_555 1_555
H19 C15 1_555 1_555
C16 C15 1_555 1_555
H20 C16 1_555 1_555
H21 C16 1_555 1_555
C17 C13 1_555 1_555
H22 C17 1_555 1_555
C18 C10 1_555 1_555
H23 C18 1_555 1_555
H24 C18 1_555 1_555
H25 C18 1_555 1_555
C19 C13 1_555 1_555
H26 C19 1_555 1_555
H27 C19 1_555 1_555
H28 C19 1_555 1_555
C20 C17 1_555 1_555
H29 C20 1_555 1_555
C21 C20 1_555 1_555
H30 C21 1_555 1_555
H31 C21 1_555 1_555
H32 C21 1_555 1_555
C22 C20 1_555 1_555
H33 C22 1_555 1_555
H34 C22 1_555 1_555
C23 C22 1_555 1_555
H35 C23 1_555 1_555
H36 C23 1_555 1_555
C24 C23 1_555 1_555
C25 H37 1_555 1_555
H38 C25 1_555 1_555
H39 C25 1_555 1_555
C26 N1 1_555 1_555
C27 C28 1_555 1_555
C28 H40 1_555 1_555
H41 C28 1_555 1_555
H42 C28 1_555 1_555
C29 C27 1_555 1_555
H43 C29 1_555 1_555
H44 C29 1_555 1_555
H45 C29 1_555 1_555
C30 C27 1_555 1_555
H46 C30 1_555 1_555
H47 C30 1_555 1_555
H48 C30 1_555 1_555
C31 N2 1_555 1_555
C32 C33 1_555 1_555
C33 H49 1_555 1_555
H50 C33 1_555 1_555
H51 C33 1_555 1_555
C34 C32 1_555 1_555
H52 C34 1_555 1_555
H53 C34 1_555 1_555
H54 C34 1_555 1_555
C35 C32 1_555 1_555
H55 C35 1_555 1_555
H56 C35 1_555 1_555
H57 C35 1_555 1_555
C36 N3 1_555 1_555
C37 C38 1_555 1_555
C38 H58 1_555 1_555
H59 C38 1_555 1_555
H60 C38 1_555 1_555
C39 C37 1_555 1_555
H61 C39 1_555 1_555
H62 C39 1_555 1_555
H63 C39 1_555 1_555
C40 C37 1_555 1_555
H64 C40 1_555 1_555
H65 C40 1_555 1_555
H66 C40 1_555 1_555
N1 C3 1_555 1_555
H67 N1 1_555 1_555
N2 C7 1_555 1_555
H68 N2 1_555 1_555
N3 C12 1_555 1_555
H69 N3 1_555 1_555
O1 C24 1_555 1_555
O2 C24 1_555 1_555
O3 C26 1_555 1_555
O4 C26 1_555 1_555
O5 C31 1_555 1_555
O6 C31 1_555 1_555
O7 C36 1_555 1_555
O8 C36 1_555 1_555
Cl1 C41 1_555 1_555
C41 H70 1_555 1_555
H71 C41 1_555 1_555
Cl2 C41 1_555 1_555
C5 C10 1_555 1_555
C9 C10 1_555 1_555
C13 C14 1_555 1_555
C16 C17 1_555 1_555
C25 O2 1_555 1_555
C27 O4 1_555 1_555
C32 O6 1_555 1_555
C37 O8 1_555 1_555

#END
