
#######################################################################
#
#                 Cambridge Crystallographic Data Centre
#                                CCDC 
#
#######################################################################
#
# If this CIF has been generated from an entry in the Cambridge 
# Structural Database, then it will include bibliographic, chemical, 
# crystal, experimental, refinement or atomic coordinate data resulting 
# from the CCDC's data processing and validation procedures.
#
#######################################################################

data_NAQHOE
_chemical_formula_moiety         'C21 H31 N1 O5 S1'
_chemical_name_systematic        
N-(1-(6-(Benzyloxy)-2,2-dimethyltetrahydrofuro[2,3-d][1,3]dioxol-5-yl)prop-2-en-1-yl)-2-methylpropane-2-sulfinamide
_symmetry_cell_setting           orthorhombic
_symmetry_space_group_name_H-M   'P 21 21 21'
_symmetry_Int_Tables_number      19
_space_group_name_Hall           'P 2ac 2ab'
loop_
_symmetry_equiv_pos_site_id
_symmetry_equiv_pos_as_xyz
1 x,y,z
2 1/2-x,-y,1/2+z
3 -x,1/2+y,1/2-z
4 1/2+x,1/2-y,-z
_cell_length_a                   9.2962(2)
_cell_length_b                   13.6583(3)
_cell_length_c                   17.7033(4)
_cell_angle_alpha                90
_cell_angle_beta                 90
_cell_angle_gamma                90
_cell_volume                     2247.79
_exptl_crystal_colour            colorless
_exptl_crystal_description       block
_cell_formula_units_Z            4
loop_
_atom_site_label
_atom_site_type_symbol
_atom_site_fract_x
_atom_site_fract_y
_atom_site_fract_z
S1 S 0.66648(4) 0.66684(3) 0.97125(2)
O1 O 0.54402(14) 0.83483(9) 0.73398(7)
O2 O 0.69411(12) 0.64772(8) 0.77197(7)
N1 N 0.53887(13) 0.72405(10) 0.92353(8)
H1 H 0.4493 0.7141 0.9329
O3 O 0.72899(13) 0.72876(9) 1.03252(8)
C1 C 0.55308(17) 0.57619(12) 1.02045(10)
C2 C 0.58510(16) 0.79233(11) 0.86472(10)
H2 H 0.6877 0.7807 0.8558
C3 C 0.50594(17) 0.76538(11) 0.79247(10)
H3 H 0.4019 0.7677 0.8013
C4 C 0.88734(19) 0.53284(13) 0.78584(10)
C5 C 0.5195(2) 0.68062(14) 0.67392(11)
H4 H 0.5943 0.6500 0.6428
C6 C 0.56814(19) 0.89883(13) 0.88585(12)
H5 H 0.5775 0.9445 0.8472
O4 O 0.38019(16) 0.64944(9) 0.65342(9)
O5 O 0.37212(19) 0.81230(10) 0.64149(10)
C7 C 0.54644(16) 0.66607(13) 0.75831(10)
H6 H 0.4861 0.6135 0.7787
C8 C 0.72878(19) 0.54723(13) 0.77155(12)
H7 H 0.7034 0.5191 0.7230
H8 H 0.6738 0.5137 0.8103
C9 C 0.5161(2) 0.79288(14) 0.66445(12)
H9 H 0.5854 0.8147 0.6263
C10 C 1.1767(2) 0.49801(19) 0.81345(14)
H10 H 1.2739 0.4866 0.8221
C11 C 0.4591(2) 0.62788(17) 1.07792(12)
H11 H 0.4001 0.5807 1.1035
H12 H 0.3989 0.6747 1.0526
H13 H 0.5188 0.6610 1.1140
C12 C 0.6613(3) 0.50967(15) 1.06042(14)
H14 H 0.6106 0.4596 1.0877
H15 H 0.7178 0.5478 1.0950
H16 H 0.7233 0.4798 1.0237
C13 C 0.9493(2) 0.44441(17) 0.76832(14)
H17 H 0.8932 0.3951 0.7471
C14 C 0.9716(2) 0.60342(17) 0.81846(15)
H18 H 0.9313 0.6635 0.8313
C15 C 0.5417(2) 0.93251(15) 0.95294(15)
H19 H 0.5316 0.8896 0.9933
H20 H 0.5330 0.9996 0.9606
C16 C 0.4643(3) 0.52000(18) 0.96320(15)
H21 H 0.4055 0.4728 0.9889
H22 H 0.5273 0.4869 0.9286
H23 H 0.4040 0.5647 0.9358
C17 C 0.3122(3) 0.72542(16) 0.61213(13)
C18 C 1.1169(2) 0.5863(2) 0.83271(17)
H24 H 1.1731 0.6345 0.8552
C19 C 0.3389(4) 0.7144(2) 0.52868(15)
H25 H 0.4405 0.7170 0.5190
H26 H 0.2918 0.7665 0.5020
H27 H 0.3015 0.6527 0.5118
C20 C 0.1542(3) 0.7217(3) 0.6316(2)
H28 H 0.1423 0.7292 0.6851
H29 H 0.1150 0.6599 0.6160
H30 H 0.1047 0.7737 0.6059
C21 C 1.0944(3) 0.4275(2) 0.78183(15)
H31 H 1.1350 0.3675 0.7691
loop_
_geom_bond_atom_site_label_1
_geom_bond_atom_site_label_2
_geom_bond_site_symmetry_1
_geom_bond_site_symmetry_2
S1 N1 1_555 1_555
O1 C3 1_555 1_555
O2 C7 1_555 1_555
N1 H1 1_555 1_555
O3 S1 1_555 1_555
C1 S1 1_555 1_555
C2 N1 1_555 1_555
H2 C2 1_555 1_555
C3 C2 1_555 1_555
H3 C3 1_555 1_555
C4 C8 1_555 1_555
C5 H4 1_555 1_555
C6 C2 1_555 1_555
H5 C6 1_555 1_555
O4 C5 1_555 1_555
O5 C9 1_555 1_555
C7 C3 1_555 1_555
H6 C7 1_555 1_555
C8 O2 1_555 1_555
H7 C8 1_555 1_555
H8 C8 1_555 1_555
C9 O1 1_555 1_555
H9 C9 1_555 1_555
C10 H10 1_555 1_555
C11 C1 1_555 1_555
H11 C11 1_555 1_555
H12 C11 1_555 1_555
H13 C11 1_555 1_555
C12 C1 1_555 1_555
H14 C12 1_555 1_555
H15 C12 1_555 1_555
H16 C12 1_555 1_555
C13 C4 1_555 1_555
H17 C13 1_555 1_555
C14 C4 1_555 1_555
H18 C14 1_555 1_555
C15 C6 1_555 1_555
H19 C15 1_555 1_555
H20 C15 1_555 1_555
C16 C1 1_555 1_555
H21 C16 1_555 1_555
H22 C16 1_555 1_555
H23 C16 1_555 1_555
C17 O4 1_555 1_555
C18 C10 1_555 1_555
H24 C18 1_555 1_555
C19 C17 1_555 1_555
H25 C19 1_555 1_555
H26 C19 1_555 1_555
H27 C19 1_555 1_555
C20 C17 1_555 1_555
H28 C20 1_555 1_555
H29 C20 1_555 1_555
H30 C20 1_555 1_555
C21 C10 1_555 1_555
H31 C21 1_555 1_555
C5 C7 1_555 1_555
C5 C9 1_555 1_555
O5 C17 1_555 1_555
C13 C21 1_555 1_555
C14 C18 1_555 1_555

#END
