
#######################################################################
#
#                 Cambridge Crystallographic Data Centre
#                                CCDC 
#
#######################################################################
#
# If this CIF has been generated from an entry in the Cambridge 
# Structural Database, then it will include bibliographic, chemical, 
# crystal, experimental, refinement or atomic coordinate data resulting 
# from the CCDC's data processing and validation procedures.
#
#######################################################################

data_NAQHUK
_chemical_formula_moiety         'C25 H33 N1 O5 S1'
_chemical_name_systematic        
N-((6-(Benzyloxy)-2,2-dimethyltetrahydrofuro[2,3-d][1,3]dioxol-5-yl)(phenyl)methyl)-2-methylpropane-2-sulfinamide
_symmetry_cell_setting           orthorhombic
_symmetry_space_group_name_H-M   'P 21 21 21'
_symmetry_Int_Tables_number      19
_space_group_name_Hall           'P 2ac 2ab'
loop_
_symmetry_equiv_pos_site_id
_symmetry_equiv_pos_as_xyz
1 x,y,z
2 1/2-x,-y,1/2+z
3 -x,1/2+y,1/2-z
4 1/2+x,1/2-y,-z
_cell_length_a                   10.9936(3)
_cell_length_b                   11.7047(3)
_cell_length_c                   20.2178(5)
_cell_angle_alpha                90
_cell_angle_beta                 90
_cell_angle_gamma                90
_cell_volume                     2601.56
_exptl_crystal_colour            colorless
_exptl_crystal_description       block
_cell_formula_units_Z            4
loop_
_atom_site_label
_atom_site_type_symbol
_atom_site_fract_x
_atom_site_fract_y
_atom_site_fract_z
S1 S 0.12016(5) 0.27792(4) 0.15981(2)
O1 O 0.01032(16) 0.12271(12) -0.07528(6)
O2 O -0.14494(10) 0.09811(10) 0.04149(6)
O3 O -0.14519(11) -0.14241(10) -0.03672(6)
O4 O -0.27300(11) -0.05935(11) 0.03542(7)
O5 O 0.0985(2) 0.38996(14) 0.12957(9)
N1 N 0.03146(14) 0.17684(13) 0.12670(7)
H1 H -0.0424(15) 0.2013(18) 0.1231(10)
C1 C 0.0539(4) 0.2130(3) -0.24402(13)
H2 H 0.0171 0.1518 -0.2654
C2 C 0.0899(4) 0.3067(3) -0.27979(12)
H3 H 0.0779 0.3086 -0.3253
C3 C 0.1424(3) 0.3957(2) -0.24918(12)
H4 H 0.1694 0.4579 -0.2738
C4 C 0.1563(3) 0.3957(2) -0.18305(12)
H5 H 0.1910 0.4584 -0.1620
C5 C 0.1195(3) 0.3036(2) -0.14681(10)
H6 H 0.1270 0.3049 -0.1010
C6 C 0.0717(3) 0.2091(2) -0.17729(11)
C7 C 0.0490(5) 0.0997(3) -0.13984(12)
H7 H -0.0126 0.0552 -0.1626
H8 H 0.1232 0.0549 -0.1385
C8 C -0.01391(17) 0.02213(14) -0.03831(8)
H9 H 0.0484 -0.0364 -0.0457
C9 C -0.14063(17) -0.02346(15) -0.05230(8)
H10 H -0.1678 -0.0072 -0.0975
C10 C -0.22121(17) 0.03336(15) 0.00014(9)
H11 H -0.2841 0.0811 -0.0203
C11 C -0.02357(14) 0.05412(13) 0.03466(7)
H12 H -0.0157 -0.0152 0.0615
C12 C -0.25503(17) -0.16222(16) -0.00159(10)
C13 C -0.3600(2) -0.1811(2) -0.04953(14)
H13 H -0.3675 -0.1160 -0.0781
H14 H -0.4342 -0.1910 -0.0251
H15 H -0.3446 -0.2481 -0.0756
C14 C -0.2358(3) -0.2592(2) 0.04524(13)
H16 H -0.2301 -0.3293 0.0208
H17 H -0.3030 -0.2634 0.0755
H18 H -0.1618 -0.2472 0.0696
C15 C 0.06773(15) 0.14252(14) 0.05889(8)
H19 H 0.0658 0.2093 0.0297
C16 C 0.2274(2) 0.0130(2) 0.10626(12)
H20 H 0.1723 -0.0080 0.1390
C17 C 0.19378(16) 0.09177(15) 0.05886(9)
C18 C 0.2766(2) 0.1204(2) 0.01038(14)
H21 H 0.2558 0.1732 -0.0221
C19 C 0.3919(3) 0.0700(3) 0.0102(2)
H22 H 0.4473 0.0883 -0.0229
C20 C 0.4231(3) -0.0059(3) 0.0582(2)
H23 H 0.5005 -0.0380 0.0585
C21 C 0.3422(3) -0.0347(3) 0.10546(19)
H24 H 0.3639 -0.0874 0.1378
C22 C 0.0478(3) 0.2826(2) 0.24230(11)
C23 C 0.0704(7) 0.1661(3) 0.27312(15)
H25 H 0.1513 0.1411 0.2625
H26 H 0.0125 0.1122 0.2560
H27 H 0.0617 0.1713 0.3203
C24 C 0.1197(4) 0.3745(2) 0.27870(13)
H28 H 0.0908 0.3804 0.3234
H29 H 0.1092 0.4465 0.2567
H30 H 0.2044 0.3544 0.2789
C25 C -0.0846(3) 0.3180(4) 0.2352(2)
H31 H -0.1128 0.3498 0.2762
H32 H -0.1328 0.2524 0.2241
H33 H -0.0917 0.3741 0.2008
loop_
_geom_bond_atom_site_label_1
_geom_bond_atom_site_label_2
_geom_bond_site_symmetry_1
_geom_bond_site_symmetry_2
S1 O5 1_555 1_555
O1 C7 1_555 1_555
O2 C10 1_555 1_555
O3 C9 1_555 1_555
O4 C10 1_555 1_555
N1 S1 1_555 1_555
H1 N1 1_555 1_555
C1 H2 1_555 1_555
C2 C1 1_555 1_555
H3 C2 1_555 1_555
C3 C2 1_555 1_555
H4 C3 1_555 1_555
C4 C3 1_555 1_555
H5 C4 1_555 1_555
C5 C4 1_555 1_555
H6 C5 1_555 1_555
C6 C1 1_555 1_555
C7 C6 1_555 1_555
H7 C7 1_555 1_555
H8 C7 1_555 1_555
C8 O1 1_555 1_555
H9 C8 1_555 1_555
C9 C8 1_555 1_555
H10 C9 1_555 1_555
C10 C9 1_555 1_555
H11 C10 1_555 1_555
C11 O2 1_555 1_555
H12 C11 1_555 1_555
C12 O3 1_555 1_555
C13 C12 1_555 1_555
H13 C13 1_555 1_555
H14 C13 1_555 1_555
H15 C13 1_555 1_555
C14 C12 1_555 1_555
H16 C14 1_555 1_555
H17 C14 1_555 1_555
H18 C14 1_555 1_555
C15 N1 1_555 1_555
H19 C15 1_555 1_555
C16 H20 1_555 1_555
C17 C15 1_555 1_555
C18 C17 1_555 1_555
H21 C18 1_555 1_555
C19 C18 1_555 1_555
H22 C19 1_555 1_555
C20 C19 1_555 1_555
H23 C20 1_555 1_555
C21 C16 1_555 1_555
H24 C21 1_555 1_555
C22 S1 1_555 1_555
C23 C22 1_555 1_555
H25 C23 1_555 1_555
H26 C23 1_555 1_555
H27 C23 1_555 1_555
C24 C22 1_555 1_555
H28 C24 1_555 1_555
H29 C24 1_555 1_555
H30 C24 1_555 1_555
C25 C22 1_555 1_555
H31 C25 1_555 1_555
H32 C25 1_555 1_555
H33 C25 1_555 1_555
O4 C12 1_555 1_555
C5 C6 1_555 1_555
C8 C11 1_555 1_555
C11 C15 1_555 1_555
C16 C17 1_555 1_555
C20 C21 1_555 1_555

#END
