
#######################################################################
#
#                 Cambridge Crystallographic Data Centre
#                                CCDC 
#
#######################################################################
#
# If this CIF has been generated from an entry in the Cambridge 
# Structural Database, then it will include bibliographic, chemical, 
# crystal, experimental, refinement or atomic coordinate data resulting 
# from the CCDC's data processing and validation procedures.
#
#######################################################################

data_NAQMIC
_chemical_name_common            
'Calix(4)imidazolium(2)pyridine tetrachloride pentahydrate'
_chemical_formula_moiety         'C28 H30 N10 4+,4(Cl1 1-),5(H2 O1)'
_chemical_name_systematic        
'5,11(2,6)-Dipyridina-1,3,7,9(1,3)-tetraimidazolacyclododecaphane-1^1^,3^1^,7^1^,9^1^-tetraium tetrachloride pentahydrate'
_symmetry_cell_setting           triclinic
_symmetry_space_group_name_H-M   'P -1'
_symmetry_Int_Tables_number      2
_space_group_name_Hall           '-P 1'
loop_
_symmetry_equiv_pos_site_id
_symmetry_equiv_pos_as_xyz
1 x,y,z
2 -x,-y,-z
_cell_length_a                   7.2194(7)
_cell_length_b                   10.5474(10)
_cell_length_c                   11.8052(10)
_cell_angle_alpha                100.637(2)
_cell_angle_beta                 93.709(2)
_cell_angle_gamma                101.095(2)
_cell_volume                     862.266
_exptl_crystal_colour            colorless
_exptl_crystal_description       plate
_cell_formula_units_Z            1
loop_
_atom_site_label
_atom_site_type_symbol
_atom_site_fract_x
_atom_site_fract_y
_atom_site_fract_z
Cl1 Cl 0.26696(6) 0.88052(4) 0.80639(4)
Cl2 Cl 0.17905(7) 0.28705(5) 0.58971(4)
N1 N 0.33468(19) 0.21863(13) 0.33145(11)
N2 N 0.20553(19) 0.36395(13) 0.06270(12)
N3 N 0.04475(19) 0.14007(13) -0.14656(11)
N4 N -0.19643(19) 0.00526(12) -0.24701(11)
N5 N 0.26196(19) 0.39889(13) 0.30207(11)
C1 C -0.0240(2) 0.07443(15) -0.25190(14)
H1 H 0.0386 0.0764 -0.3191
C2 C 0.2387(2) 0.35672(16) -0.04820(14)
C3 C 0.2470(2) 0.59777(16) 0.08374(15)
H2 H 0.2517 0.6802 0.1319
C4 C 0.2079(2) 0.48338(16) 0.12671(14)
C5 C -0.0875(2) 0.11040(16) -0.07068(15)
H3 H -0.0739 0.1426 0.0098
C6 C 0.2387(2) 0.22065(17) -0.11530(15)
H4 H 0.3001 0.2280 -0.1861
H5 H 0.3127 0.1764 -0.0686
C7 C 0.2731(2) 0.46612(17) -0.09872(15)
H6 H 0.2924 0.4572 -0.1776
C8 C 0.1959(2) 0.27067(16) 0.29281(14)
H7 H 0.0720 0.2247 0.2639
C9 C -0.2389(3) 0.02689(16) -0.13341(15)
H8 H -0.3519 -0.0098 -0.1055
C10 C 0.1627(3) 0.48598(17) 0.25033(15)
H9 H 0.2016 0.5762 0.2956
H10 H 0.0255 0.4573 0.2516
C11 C 0.4482(2) 0.42930(17) 0.34925(14)
H11 H 0.5285 0.5133 0.3653
C12 C 0.4941(2) 0.31729(17) 0.36811(14)
H12 H 0.6121 0.3077 0.4001
C13 C 0.3178(3) 0.08164(16) 0.34482(15)
H13 H 0.4437 0.0597 0.3483
H14 H 0.2635 0.0702 0.4171
C14 C 0.2788(3) 0.58883(17) -0.03111(16)
H15 H 0.3039 0.6650 -0.0629
N1A N -0.33468(19) -0.21863(13) -0.33145(11)
N2A N -0.20553(19) -0.36395(13) -0.06270(12)
N3A N -0.04475(19) -0.14007(13) 0.14656(11)
N4A N 0.19643(19) -0.00526(12) 0.24701(11)
N5A N -0.26196(19) -0.39889(13) -0.30207(11)
C1A C 0.0240(2) -0.07443(15) 0.25190(14)
H1A H -0.0386 -0.0764 0.3191
C2A C -0.2387(2) -0.35672(16) 0.04820(14)
C3A C -0.2470(2) -0.59777(16) -0.08374(15)
H2A H -0.2517 -0.6802 -0.1319
C4A C -0.2079(2) -0.48338(16) -0.12671(14)
C5A C 0.0875(2) -0.11040(16) 0.07068(15)
H3A H 0.0739 -0.1426 -0.0098
C6A C -0.2387(2) -0.22065(17) 0.11530(15)
H4A H -0.3001 -0.2280 0.1861
H5A H -0.3127 -0.1764 0.0686
C7A C -0.2731(2) -0.46612(17) 0.09872(15)
H6A H -0.2924 -0.4572 0.1776
C8A C -0.1959(2) -0.27067(16) -0.29281(14)
H7A H -0.0720 -0.2247 -0.2639
C9A C 0.2389(3) -0.02689(16) 0.13341(15)
H8A H 0.3519 0.0098 0.1055
C10A C -0.1627(3) -0.48598(17) -0.25033(15)
H9A H -0.2016 -0.5762 -0.2956
H10A H -0.0255 -0.4573 -0.2516
C11A C -0.4482(2) -0.42930(17) -0.34925(14)
H11A H -0.5285 -0.5133 -0.3653
C12A C -0.4941(2) -0.31729(17) -0.36811(14)
H12A H -0.6121 -0.3077 -0.4001
C13A C -0.3178(3) -0.08164(16) -0.34482(15)
H13A H -0.4437 -0.0597 -0.3483
H14A H -0.2635 -0.0702 -0.4171
C14A C -0.2788(3) -0.58883(17) 0.03111(16)
H15A H -0.3039 -0.6650 0.0629
O1 O 0.2020(2) 0.89018(17) 0.53894(16)
H16 H 0.095(4) 0.835(3) 0.510(2)
H17 H 0.213(4) 0.888(3) 0.609(3)
O2 O 0.4211(3) 0.80137(17) 0.35484(15)
H18 H 0.530(4) 0.788(3) 0.376(2)
H19 H 0.370(4) 0.821(3) 0.414(3)
O3? O 0.0929(5) 0.5585(4) 0.5318(3)
H20? H 0.057(7) 0.448(5) 0.522(4)
loop_
_geom_bond_atom_site_label_1
_geom_bond_atom_site_label_2
_geom_bond_site_symmetry_1
_geom_bond_site_symmetry_2
N1 C8 1_555 1_555
N2 C2 1_555 1_555
N3 C1 1_555 1_555
N4 C1 1_555 1_555
N5 C8 1_555 1_555
C1 H1 1_555 1_555
C2 C6 1_555 1_555
C3 H2 1_555 1_555
C4 N2 1_555 1_555
C5 N3 1_555 1_555
H3 C5 1_555 1_555
C6 N3 1_555 1_555
H4 C6 1_555 1_555
H5 C6 1_555 1_555
C7 C2 1_555 1_555
H6 C7 1_555 1_555
C8 H7 1_555 1_555
C9 N4 1_555 1_555
H8 C9 1_555 1_555
C10 N5 1_555 1_555
H9 C10 1_555 1_555
H10 C10 1_555 1_555
C11 N5 1_555 1_555
H11 C11 1_555 1_555
C12 N1 1_555 1_555
H12 C12 1_555 1_555
C13 N1 1_555 1_555
H13 C13 1_555 1_555
H14 C13 1_555 1_555
C14 C3 1_555 1_555
H15 C14 1_555 1_555
O1 H16 1_555 1_555
H17 O1 1_555 1_555
O2 H18 1_555 1_555
H19 O2 1_555 1_555
N1A C8A 1_555 1_555
N2A C2A 1_555 1_555
N3A C1A 1_555 1_555
N4A C13 1_555 1_555
N5A C8A 1_555 1_555
C1A N4A 1_555 1_555
H1A C1A 1_555 1_555
C2A C6A 1_555 1_555
C3A H2A 1_555 1_555
C4A N2A 1_555 1_555
C5A N3A 1_555 1_555
H3A C5A 1_555 1_555
C6A N3A 1_555 1_555
H4A C6A 1_555 1_555
H5A C6A 1_555 1_555
C7A C2A 1_555 1_555
H6A C7A 1_555 1_555
C8A H7A 1_555 1_555
C9A N4A 1_555 1_555
H8A C9A 1_555 1_555
C10A N5A 1_555 1_555
H9A C10A 1_555 1_555
H10A C10A 1_555 1_555
C11A N5A 1_555 1_555
H11A C11A 1_555 1_555
C12A N1A 1_555 1_555
H12A C12A 1_555 1_555
C13A N4 1_555 1_555
H13A C13A 1_555 1_555
H14A C13A 1_555 1_555
C14A C3A 1_555 1_555
H15A C14A 1_555 1_555
C3 C4 1_555 1_555
C4 C10 1_555 1_555
C5 C9 1_555 1_555
C7 C14 1_555 1_555
C11 C12 1_555 1_555
N1A C13A 1_555 1_555
C3A C4A 1_555 1_555
C4A C10A 1_555 1_555
C5A C9A 1_555 1_555
C7A C14A 1_555 1_555
C11A C12A 1_555 1_555

#END
