
#######################################################################
#
#                 Cambridge Crystallographic Data Centre
#                                CCDC 
#
#######################################################################
#
# If this CIF has been generated from an entry in the Cambridge 
# Structural Database, then it will include bibliographic, chemical, 
# crystal, experimental, refinement or atomic coordinate data resulting 
# from the CCDC's data processing and validation procedures.
#
#######################################################################

data_NAQREF
_chemical_formula_moiety         'C14 H8 Br2'
_chemical_name_systematic        4,5-dibromophenanthrene
_symmetry_cell_setting           monoclinic
_symmetry_space_group_name_H-M   'C 2/c'
_symmetry_Int_Tables_number      15
_space_group_name_Hall           '-C 2yn'
loop_
_symmetry_equiv_pos_site_id
_symmetry_equiv_pos_as_xyz
1 x,y,z
2 -x,y,1/2-z
3 1/2+x,1/2+y,z
4 1/2-x,1/2+y,1/2-z
5 -x,-y,-z
6 x,-y,1/2+z
7 1/2-x,1/2-y,-z
8 1/2+x,1/2-y,1/2+z
_cell_length_a                   16.840(3)
_cell_length_b                   8.6112(16)
_cell_length_c                   8.1418(15)
_cell_angle_alpha                90
_cell_angle_beta                 103.735(2)
_cell_angle_gamma                90
_cell_volume                     1146.9
_exptl_crystal_colour            colorless
_exptl_crystal_description       block
_cell_formula_units_Z            4
loop_
_atom_site_label
_atom_site_type_symbol
_atom_site_fract_x
_atom_site_fract_y
_atom_site_fract_z
Br1 Br 0.41183(2) 0.94243(3) 0.60761(4)
C1 C 0.35716(18) 0.4938(4) 0.8748(4)
H1 H 0.34 0.3985 0.914
C2 C 0.31143(18) 0.6255(4) 0.8762(4)
H2 H 0.2652 0.6234 0.9242
C3 C 0.33332(16) 0.7628(4) 0.8065(4)
H3 H 0.2992 0.8517 0.7974
C4 C 0.45980(15) 0.6426(3) 0.7686(3)
C5 C 0.40447(15) 0.7692(3) 0.7508(3)
C6 C 0.42910(17) 0.4984(3) 0.8160(3)
C7 C 0.46876(18) 0.3558(3) 0.7880(4)
H4 H 0.4503 0.2602 0.8239
Br1A Br 0.58817(2) 0.94243(3) 0.89239(4)
C1A C 0.64284(18) 0.4938(4) 0.6252(4)
H1A H 0.66 0.3985 0.586
C2A C 0.68857(18) 0.6255(4) 0.6238(4)
H2A H 0.7348 0.6234 0.5758
C3A C 0.66668(16) 0.7628(4) 0.6935(4)
H3A H 0.7008 0.8517 0.7026
C4A C 0.54020(15) 0.6426(3) 0.7314(3)
C5A C 0.59553(15) 0.7692(3) 0.7492(3)
C6A C 0.57090(17) 0.4984(3) 0.6840(3)
C7A C 0.53124(18) 0.3558(3) 0.7120(4)
H4A H 0.5497 0.2602 0.6761
loop_
_geom_bond_atom_site_label_1
_geom_bond_atom_site_label_2
_geom_bond_site_symmetry_1
_geom_bond_site_symmetry_2
Br1 C5 1_555 1_555
C1 H1 1_555 1_555
C2 C1 1_555 1_555
H2 C2 1_555 1_555
C3 C2 1_555 1_555
H3 C3 1_555 1_555
C4 C5 1_555 1_555
C5 C3 1_555 1_555
C6 C1 1_555 1_555
C7 C6 1_555 1_555
H4 C7 1_555 1_555
Br1A C5A 1_555 1_555
C1A H1A 1_555 1_555
C2A C1A 1_555 1_555
H2A C2A 1_555 1_555
C3A C2A 1_555 1_555
H3A C3A 1_555 1_555
C4A C4 1_555 1_555
C5A C3A 1_555 1_555
C6A C1A 1_555 1_555
C7A C7 1_555 1_555
H4A C7A 1_555 1_555
C4 C6 1_555 1_555
C4A C5A 1_555 1_555
C4A C6A 1_555 1_555
C6A C7A 1_555 1_555

#END
