
#######################################################################
#
#                 Cambridge Crystallographic Data Centre
#                                CCDC 
#
#######################################################################
#
# If this CIF has been generated from an entry in the Cambridge 
# Structural Database, then it will include bibliographic, chemical, 
# crystal, experimental, refinement or atomic coordinate data resulting 
# from the CCDC's data processing and validation procedures.
#
#######################################################################

data_NAQZOW
_chemical_formula_moiety         'C26 H58 Mg2 N6 Si4,C7 H8'
_chemical_name_systematic        
'bis(\m~2~-2-(Dimethylaminomethyl)pyrrolide)-bis(bis(trimethylsilyl)amide)-di-magnesium toluene solvate'
_symmetry_cell_setting           monoclinic
_symmetry_space_group_name_H-M   'P 21/c'
_symmetry_Int_Tables_number      14
_space_group_name_Hall           '-P 2ybc'
loop_
_symmetry_equiv_pos_site_id
_symmetry_equiv_pos_as_xyz
1 x,y,z
2 -x,1/2+y,1/2-z
3 -x,-y,-z
4 x,1/2-y,1/2+z
_cell_length_a                   22.4035(4)
_cell_length_b                   15.6037(3)
_cell_length_c                   12.7094(2)
_cell_angle_alpha                90
_cell_angle_beta                 103.2730(10)
_cell_angle_gamma                90
_cell_volume                     4324.24
_exptl_crystal_colour            colorless
_exptl_crystal_description       block
_cell_formula_units_Z            4
loop_
_atom_site_label
_atom_site_type_symbol
_atom_site_fract_x
_atom_site_fract_y
_atom_site_fract_z
C1 C 0.22071(8) 0.33400(12) 0.18702(16)
H1 H 0.2198 0.3083 0.2544
C2 C 0.20800(9) 0.29165(13) 0.09049(16)
H2 H 0.1973 0.2329 0.0790
C3 C 0.21381(9) 0.35227(13) 0.01125(16)
H3 H 0.2074 0.3421 -0.0642
C4 C 0.23022(8) 0.42818(12) 0.06271(15)
C5 C 0.23713(9) 0.51495(12) 0.01814(15)
H4 H 0.2320 0.5112 -0.0612
H5 H 0.2788 0.5373 0.0497
C6 C 0.12862(9) 0.55109(15) -0.02129(17)
H6 H 0.0978 0.5904 -0.0050
H7 H 0.1189 0.4923 -0.0038
H8 H 0.1285 0.5548 -0.0983
C7 C 0.20411(10) 0.66260(13) 0.01072(16)
H9 H 0.2035 0.6628 -0.0666
H10 H 0.2448 0.6799 0.0521
H11 H 0.1733 0.7028 0.0248
C8 C 0.29422(8) 0.66630(12) 0.29185(16)
H12 H 0.2956 0.6901 0.2236
C9 C 0.30885(9) 0.71007(13) 0.38730(17)
H13 H 0.3215 0.7682 0.3971
C10 C 0.30155(9) 0.65230(13) 0.46816(17)
H14 H 0.3087 0.6641 0.5434
C11 C 0.28224(8) 0.57619(12) 0.41907(15)
C12 C 0.27326(9) 0.49097(12) 0.46548(16)
H15 H 0.2311 0.4703 0.4345
H16 H 0.2786 0.4960 0.5447
C13 C 0.38102(9) 0.44964(15) 0.50525(16)
H17 H 0.3816 0.4448 0.5824
H18 H 0.3914 0.5084 0.4890
H19 H 0.4111 0.4100 0.4872
C14 C 0.30284(9) 0.34186(13) 0.47466(16)
H20 H 0.3314 0.2994 0.4574
H21 H 0.2609 0.3274 0.4363
H22 H 0.3056 0.3418 0.5527
C15 C 0.13774(10) 0.71574(14) 0.25407(18)
H23 H 0.1788 0.7074 0.3002
H24 H 0.1221 0.7721 0.2687
H25 H 0.1398 0.7125 0.1780
C16 C 0.08243(13) 0.64475(17) 0.4287(2)
H26 H 0.0541 0.6029 0.4479
H27 H 0.0683 0.7028 0.4394
H28 H 0.1235 0.6362 0.4748
C17 C 0.00835(10) 0.65913(16) 0.1969(2)
H29 H 0.0090 0.6516 0.1206
H30 H -0.0010 0.7190 0.2099
H31 H -0.0231 0.6219 0.2148
C18 C 0.11630(9) 0.36579(15) 0.37272(18)
H32 H 0.1549 0.3488 0.3549
H33 H 0.0916 0.3146 0.3772
H34 H 0.1250 0.3957 0.4424
C19 C -0.00323(10) 0.45223(15) 0.3013(2)
H35 H 0.0025 0.4824 0.3706
H36 H -0.0213 0.3958 0.3073
H37 H -0.0307 0.4856 0.2449
C20 C 0.05578(10) 0.37980(15) 0.13370(18)
H38 H 0.0292 0.4151 0.0783
H39 H 0.0349 0.3258 0.1419
H40 H 0.0941 0.3676 0.1120
C21 C 0.39763(10) 0.61982(14) 0.10043(18)
H41 H 0.3896 0.5863 0.0335
H42 H 0.4227 0.6699 0.0926
H43 H 0.3587 0.6389 0.1151
C22 C 0.45537(10) 0.61527(14) 0.34378(17)
H44 H 0.4165 0.6322 0.3606
H45 H 0.4789 0.6667 0.3351
H46 H 0.4790 0.5802 0.4029
C23 C 0.51682(9) 0.53490(15) 0.18352(19)
H47 H 0.5438 0.5045 0.2435
H48 H 0.5349 0.5906 0.1732
H49 H 0.5119 0.5009 0.1172
C24 C 0.50579(10) 0.33754(16) 0.2984(2)
H50 H 0.5372 0.3679 0.2705
H51 H 0.5136 0.2757 0.2985
H52 H 0.5071 0.3567 0.3723
C25 C 0.43015(12) 0.34058(16) 0.06592(19)
H53 H 0.3894 0.3507 0.0194
H54 H 0.4423 0.2810 0.0579
H55 H 0.4599 0.3792 0.0449
C26 C 0.37753(10) 0.27560(14) 0.24572(18)
H56 H 0.3788 0.2783 0.3232
H57 H 0.3920 0.2193 0.2281
H58 H 0.3353 0.2844 0.2045
Mg1 Mg 0.19076(3) 0.53707(4) 0.21031(5)
Mg2 Mg 0.32078(3) 0.46272(4) 0.27407(5)
N1 N 0.27708(7) 0.58231(10) 0.30717(12)
N2 N 0.23520(7) 0.41971(10) 0.17418(12)
N3 N 0.19004(7) 0.57485(10) 0.04396(12)
N4 N 0.31895(7) 0.42802(10) 0.44058(12)
N5 N 0.40029(7) 0.46013(10) 0.22991(13)
N6 N 0.11190(7) 0.53196(10) 0.25684(13)
Si1 Si 0.08513(2) 0.63017(4) 0.28348(5)
Si2 Si 0.07300(2) 0.43873(4) 0.26520(5)
Si3 Si 0.43964(2) 0.55175(4) 0.21545(5)
Si4 Si 0.42800(2) 0.36104(4) 0.21003(5)
C27 C 0.19953(10) 0.45210(15) 0.72018(16)
C28 C 0.25705(9) 0.41558(14) 0.75791(15)
H59 H 0.2606 0.3553 0.7677
C29 C 0.30919(10) 0.46605(15) 0.78143(17)
H60 H 0.3482 0.4404 0.8078
C30 C 0.30465(11) 0.55378(16) 0.76660(18)
H61 H 0.3404 0.5885 0.7831
C31 C 0.24772(12) 0.59078(15) 0.72762(18)
H62 H 0.2444 0.6510 0.7167
C32 C 0.19576(11) 0.54012(15) 0.70458(17)
H63 H 0.1569 0.5660 0.6776
C33 C 0.14221(10) 0.39822(17) 0.7012(2)
H64 H 0.1207 0.4089 0.7589
H65 H 0.1533 0.3375 0.7012
H66 H 0.1154 0.4133 0.6313
loop_
_geom_bond_atom_site_label_1
_geom_bond_atom_site_label_2
_geom_bond_site_symmetry_1
_geom_bond_site_symmetry_2
C1 H1 1_555 1_555
C2 C1 1_555 1_555
H2 C2 1_555 1_555
C3 C2 1_555 1_555
H3 C3 1_555 1_555
C4 C3 1_555 1_555
C5 C4 1_555 1_555
H4 C5 1_555 1_555
H5 C5 1_555 1_555
C6 H6 1_555 1_555
H7 C6 1_555 1_555
H8 C6 1_555 1_555
C7 H9 1_555 1_555
H10 C7 1_555 1_555
H11 C7 1_555 1_555
C8 H12 1_555 1_555
C9 C8 1_555 1_555
H13 C9 1_555 1_555
C10 C9 1_555 1_555
H14 C10 1_555 1_555
C11 C10 1_555 1_555
C12 C11 1_555 1_555
H15 C12 1_555 1_555
H16 C12 1_555 1_555
C13 H17 1_555 1_555
H18 C13 1_555 1_555
H19 C13 1_555 1_555
C14 H20 1_555 1_555
H21 C14 1_555 1_555
H22 C14 1_555 1_555
C15 H23 1_555 1_555
H24 C15 1_555 1_555
H25 C15 1_555 1_555
C16 H26 1_555 1_555
H27 C16 1_555 1_555
H28 C16 1_555 1_555
C17 H29 1_555 1_555
H30 C17 1_555 1_555
H31 C17 1_555 1_555
C18 H32 1_555 1_555
H33 C18 1_555 1_555
H34 C18 1_555 1_555
C19 H35 1_555 1_555
H36 C19 1_555 1_555
H37 C19 1_555 1_555
C20 H38 1_555 1_555
H39 C20 1_555 1_555
H40 C20 1_555 1_555
C21 H41 1_555 1_555
H42 C21 1_555 1_555
H43 C21 1_555 1_555
C22 H44 1_555 1_555
H45 C22 1_555 1_555
H46 C22 1_555 1_555
C23 H47 1_555 1_555
H48 C23 1_555 1_555
H49 C23 1_555 1_555
C24 H50 1_555 1_555
H51 C24 1_555 1_555
H52 C24 1_555 1_555
C25 H53 1_555 1_555
H54 C25 1_555 1_555
H55 C25 1_555 1_555
C26 H56 1_555 1_555
H57 C26 1_555 1_555
H58 C26 1_555 1_555
C27 C28 1_555 1_555
C28 H59 1_555 1_555
C29 C28 1_555 1_555
H60 C29 1_555 1_555
C30 C29 1_555 1_555
H61 C30 1_555 1_555
C31 C30 1_555 1_555
H62 C31 1_555 1_555
C32 C27 1_555 1_555
H63 C32 1_555 1_555
C33 C27 1_555 1_555
H64 C33 1_555 1_555
H65 C33 1_555 1_555
H66 C33 1_555 1_555
Mg1 N1 1_555 1_555
Mg2 N1 1_555 1_555
N1 C8 1_555 1_555
N2 C1 1_555 1_555
N3 C5 1_555 1_555
N4 C12 1_555 1_555
N5 Mg2 1_555 1_555
N6 Mg1 1_555 1_555
Si1 C15 1_555 1_555
Si2 C18 1_555 1_555
Si3 C21 1_555 1_555
Si4 C24 1_555 1_555
C4 N2 1_555 1_555
C6 N3 1_555 1_555
C7 N3 1_555 1_555
C11 N1 1_555 1_555
C13 N4 1_555 1_555
C14 N4 1_555 1_555
C16 Si1 1_555 1_555
C17 Si1 1_555 1_555
C19 Si2 1_555 1_555
C20 Si2 1_555 1_555
C22 Si3 1_555 1_555
C23 Si3 1_555 1_555
C25 Si4 1_555 1_555
C26 Si4 1_555 1_555
C31 C32 1_555 1_555
Mg1 N2 1_555 1_555
Mg1 N3 1_555 1_555
Mg2 N2 1_555 1_555
Mg2 N4 1_555 1_555
N5 Si3 1_555 1_555
N5 Si4 1_555 1_555
N6 Si1 1_555 1_555
N6 Si2 1_555 1_555

#END
