
#######################################################################
#
#                 Cambridge Crystallographic Data Centre
#                                CCDC 
#
#######################################################################
#
# If this CIF has been generated from an entry in the Cambridge 
# Structural Database, then it will include bibliographic, chemical, 
# crystal, experimental, refinement or atomic coordinate data resulting 
# from the CCDC's data processing and validation procedures.
#
#######################################################################

data_NARCUH
_chemical_formula_moiety         'C36 H42 O1 Si1'
_chemical_name_systematic        
4-(2-(2,5-diethyl-4-(2-(4-((trimethylsilyl)ethynyl)phenyl)vinyl)phenyl)vinyl)-2,5-diethylbenzaldehyde
_symmetry_cell_setting           monoclinic
_symmetry_space_group_name_H-M   'P 21/n'
_symmetry_Int_Tables_number      14
_space_group_name_Hall           '-P 2yn'
loop_
_symmetry_equiv_pos_site_id
_symmetry_equiv_pos_as_xyz
1 x,y,z
2 1/2-x,1/2+y,1/2-z
3 -x,-y,-z
4 1/2+x,1/2-y,1/2+z
_cell_length_a                   10.0117(3)
_cell_length_b                   21.5818(6)
_cell_length_c                   14.6788(5)
_cell_angle_alpha                90
_cell_angle_beta                 104.806(3)
_cell_angle_gamma                90
_cell_volume                     3066.35
_exptl_crystal_colour            yellow
_exptl_crystal_description       rectangle
_cell_formula_units_Z            4
loop_
_atom_site_label
_atom_site_type_symbol
_atom_site_fract_x
_atom_site_fract_y
_atom_site_fract_z
C1 C 0.3087(2) 0.83155(10) 0.82692(16)
H1 H 0.3496 0.8698 0.8231
C2 C 0.40072(19) 0.77683(9) 0.83787(14)
C3 C 0.35758(19) 0.71564(10) 0.84574(13)
C4 C 0.45669(19) 0.66933(9) 0.85391(14)
H2 H 0.4305 0.6285 0.8598
C5 C 0.59469(19) 0.68149(9) 0.85370(13)
C6 C 0.63632(19) 0.74305(9) 0.84500(13)
C7 C 0.5378(2) 0.78929(9) 0.83791(13)
H3 H 0.5640 0.8302 0.8330
C8 C 0.2124(2) 0.69760(11) 0.84799(17)
H4 H 0.1976 0.6542 0.8311
H5 H 0.1468 0.7218 0.8015
C9 C 0.1855(2) 0.70793(14) 0.94463(19)
H6 H 0.2496 0.6838 0.9909
H7 H 0.0928 0.6955 0.9429
H8 H 0.1972 0.7510 0.9609
C10 C 0.7813(2) 0.76027(10) 0.84164(16)
H9 H 0.8463 0.7410 0.8946
H10 H 0.7921 0.8048 0.8488
C11 C 0.8175(2) 0.74090(12) 0.75093(18)
H11 H 0.7507 0.7578 0.6978
H12 H 0.8170 0.6965 0.7466
H13 H 0.9077 0.7562 0.7513
C12 C 0.69522(18) 0.63057(9) 0.86497(13)
H14 H 0.7872 0.6406 0.8919
C13 C 0.66769(18) 0.57145(9) 0.84047(13)
H15 H 0.5757 0.5609 0.8146
C14 C 0.77112(17) 0.52144(9) 0.85099(12)
C15 C 0.73280(17) 0.45868(9) 0.84084(13)
C16 C 0.83648(18) 0.41391(9) 0.85502(13)
H16 H 0.8109 0.3724 0.8496
C17 C 0.97763(17) 0.42856(9) 0.87711(12)
C18 C 1.01521(17) 0.49171(9) 0.88359(12)
C19 C 0.91182(18) 0.53619(9) 0.87068(12)
H17 H 0.9372 0.5777 0.8753
C20 C 0.58363(19) 0.43769(10) 0.81815(17)
H18 H 0.5767 0.3963 0.7916
H19 H 0.5280 0.4651 0.7712
C21 C 0.5269(2) 0.43736(13) 0.9052(2)
H20 H 0.4312 0.4256 0.8875
H21 H 0.5356 0.4780 0.9326
H22 H 0.5780 0.4083 0.9503
C22 C 1.16276(17) 0.51354(9) 0.89894(14)
H23 H 1.2238 0.4859 0.9426
H24 H 1.1721 0.5547 0.9265
C23 C 1.2049(2) 0.51511(10) 0.80594(15)
H25 H 1.1443 0.5424 0.7626
H26 H 1.1985 0.4742 0.7797
H27 H 1.2982 0.5298 0.8171
C24 C 1.08368(17) 0.38016(9) 0.89025(13)
H28 H 1.1742 0.3937 0.8986
C25 C 1.06509(17) 0.31897(9) 0.89158(13)
H29 H 0.9754 0.3050 0.8858
C26 C 1.17319(18) 0.27166(9) 0.90132(13)
C27 C 1.13776(19) 0.20915(10) 0.90073(15)
H30 H 1.0460 0.1983 0.8945
C28 C 1.2362(2) 0.16267(10) 0.90922(16)
H31 H 1.2100 0.1213 0.9088
C29 C 1.37441(19) 0.17795(9) 0.91843(13)
C30 C 1.41062(18) 0.24032(10) 0.91809(14)
H32 H 1.5021 0.2512 0.9232
C31 C 1.31184(19) 0.28622(9) 0.91030(15)
H33 H 1.3383 0.3276 0.9111
C32 C 1.4794(2) 0.13112(10) 0.92924(15)
C33 C 1.5719(2) 0.09372(10) 0.94016(15)
C34 C 1.6642(3) -0.03118(11) 0.88731(16)
H34 H 1.6291 -0.0202 0.8222
H35 H 1.5932 -0.0517 0.9092
H36 H 1.7419 -0.0584 0.8940
C35 C 1.7748(2) 0.01971(10) 1.08487(15)
H37 H 1.8031 0.0565 1.1214
H38 H 1.8508 -0.0088 1.0951
H39 H 1.6993 0.0008 1.1037
C36 C 1.8606(3) 0.08166(15) 0.9230(2)
H40 H 1.8296 0.0940 0.8581
H41 H 1.9390 0.0547 0.9308
H42 H 1.8863 0.1177 0.9617
O1 O 0.18648(17) 0.83210(9) 0.82238(15)
Si1 Si 1.71921(5) 0.04021(3) 0.95828(4)
loop_
_geom_bond_atom_site_label_1
_geom_bond_atom_site_label_2
_geom_bond_site_symmetry_1
_geom_bond_site_symmetry_2
C1 H1 1_555 1_555
C2 C1 1_555 1_555
C3 C2 1_555 1_555
C4 C3 1_555 1_555
H2 C4 1_555 1_555
C5 C4 1_555 1_555
C6 C5 1_555 1_555
C7 C2 1_555 1_555
H3 C7 1_555 1_555
C8 C3 1_555 1_555
H4 C8 1_555 1_555
H5 C8 1_555 1_555
C9 C8 1_555 1_555
H6 C9 1_555 1_555
H7 C9 1_555 1_555
H8 C9 1_555 1_555
C10 C6 1_555 1_555
H9 C10 1_555 1_555
H10 C10 1_555 1_555
C11 C10 1_555 1_555
H11 C11 1_555 1_555
H12 C11 1_555 1_555
H13 C11 1_555 1_555
C12 C5 1_555 1_555
H14 C12 1_555 1_555
C13 C12 1_555 1_555
H15 C13 1_555 1_555
C14 C13 1_555 1_555
C15 C14 1_555 1_555
C16 C15 1_555 1_555
H16 C16 1_555 1_555
C17 C16 1_555 1_555
C18 C17 1_555 1_555
C19 C14 1_555 1_555
H17 C19 1_555 1_555
C20 C15 1_555 1_555
H18 C20 1_555 1_555
H19 C20 1_555 1_555
C21 C20 1_555 1_555
H20 C21 1_555 1_555
H21 C21 1_555 1_555
H22 C21 1_555 1_555
C22 C18 1_555 1_555
H23 C22 1_555 1_555
H24 C22 1_555 1_555
C23 C22 1_555 1_555
H25 C23 1_555 1_555
H26 C23 1_555 1_555
H27 C23 1_555 1_555
C24 C17 1_555 1_555
H28 C24 1_555 1_555
C25 C24 1_555 1_555
H29 C25 1_555 1_555
C26 C25 1_555 1_555
C27 C26 1_555 1_555
H30 C27 1_555 1_555
C28 C27 1_555 1_555
H31 C28 1_555 1_555
C29 C28 1_555 1_555
C30 C29 1_555 1_555
H32 C30 1_555 1_555
C31 C26 1_555 1_555
H33 C31 1_555 1_555
C32 C29 1_555 1_555
C33 C32 1_555 1_555
C34 H34 1_555 1_555
H35 C34 1_555 1_555
H36 C34 1_555 1_555
C35 H37 1_555 1_555
H38 C35 1_555 1_555
H39 C35 1_555 1_555
C36 H40 1_555 1_555
H41 C36 1_555 1_555
H42 C36 1_555 1_555
O1 C1 1_555 1_555
Si1 C33 1_555 1_555
C6 C7 1_555 1_555
C18 C19 1_555 1_555
C30 C31 1_555 1_555
C34 Si1 1_555 1_555
C35 Si1 1_555 1_555
C36 Si1 1_555 1_555

#END
