
#######################################################################
#
#                 Cambridge Crystallographic Data Centre
#                                CCDC 
#
#######################################################################
#
# If this CIF has been generated from an entry in the Cambridge 
# Structural Database, then it will include bibliographic, chemical, 
# crystal, experimental, refinement or atomic coordinate data resulting 
# from the CCDC's data processing and validation procedures.
#
#######################################################################

data_NARVOT
_chemical_formula_moiety         'C32 H47 N5 O2'
_chemical_name_systematic        
'16-(1H-Benzotriazol-1-yl)-3-(4-methylpiperazin-1-yl)androstan-17-yl acetate'
_symmetry_cell_setting           orthorhombic
_symmetry_space_group_name_H-M   'P 21 21 21'
_symmetry_Int_Tables_number      19
_space_group_name_Hall           'P 2ac 2ab'
loop_
_symmetry_equiv_pos_site_id
_symmetry_equiv_pos_as_xyz
1 x,y,z
2 1/2-x,-y,1/2+z
3 -x,1/2+y,1/2-z
4 1/2+x,1/2-y,-z
_cell_length_a                   6.2747(3)
_cell_length_b                   12.3958(5)
_cell_length_c                   39.6920(16)
_cell_angle_alpha                90
_cell_angle_beta                 90
_cell_angle_gamma                90
_cell_volume                     3087.24
_exptl_crystal_colour            black
_exptl_crystal_description       block
_cell_formula_units_Z            4
loop_
_atom_site_label
_atom_site_type_symbol
_atom_site_fract_x
_atom_site_fract_y
_atom_site_fract_z
C1 C 0.8464(7) 0.5401(3) 0.79720(10)
H1 H 0.7532 0.4789 0.7933
H2 H 0.9828 0.5240 0.7868
C2 C 0.8786(8) 0.5533(3) 0.83475(10)
H3 H 0.9440 0.4885 0.8438
H4 H 0.7412 0.5624 0.8456
C3 C 1.0190(7) 0.6500(3) 0.84283(10)
H5 H 1.1540 0.6375 0.8310
C4 C 0.9220(7) 0.7511(3) 0.82678(10)
H6 H 0.7859 0.7663 0.8373
H7 H 1.0152 0.8121 0.8308
C5 C 0.8896(7) 0.7373(3) 0.78901(9)
H8 H 1.0307 0.7215 0.7796
C6 C 0.8152(8) 0.8401(3) 0.77201(11)
H9 H 0.9100 0.8988 0.7781
H10 H 0.6735 0.8581 0.7800
C7 C 0.8107(7) 0.8284(3) 0.73339(11)
H11 H 0.7506 0.8932 0.7235
H12 H 0.9552 0.8205 0.7251
C8 C 0.6798(6) 0.7316(3) 0.72260(9)
H13 H 0.5312 0.7449 0.7289
C9 C 0.7547(6) 0.6284(3) 0.74068(9)
H14 H 0.9055 0.6201 0.7348
C10 C 0.7487(6) 0.6418(3) 0.77959(9)
C11 C 0.6439(7) 0.5271(3) 0.72728(9)
H15 H 0.4971 0.5272 0.7349
H16 H 0.7129 0.4641 0.7369
C12 C 0.6463(7) 0.5169(3) 0.68884(9)
H17 H 0.7913 0.5050 0.6812
H18 H 0.5615 0.4551 0.6822
C13 C 0.5583(6) 0.6174(3) 0.67229(9)
C14 C 0.6879(6) 0.7142(3) 0.68473(9)
H19 H 0.8370 0.6981 0.6793
C15 C 0.6216(8) 0.8064(3) 0.66122(10)
H20 H 0.7263 0.8640 0.6613
H21 H 0.4838 0.8355 0.6675
C16 C 0.6120(7) 0.7504(3) 0.62674(9)
H22 H 0.7476 0.7643 0.6153
C17 C 0.6009(7) 0.6272(3) 0.63410(10)
H23 H 0.7388 0.5942 0.6288
C18 C 0.3195(6) 0.6281(4) 0.67961(10)
H24 H 0.2642 0.6902 0.6681
H25 H 0.2980 0.6361 0.7034
H26 H 0.2467 0.5646 0.6719
C19 C 0.5201(6) 0.6556(4) 0.79211(10)
H27 H 0.4443 0.5889 0.7895
H28 H 0.4506 0.7110 0.7793
H29 H 0.5216 0.6756 0.8155
C20 C 1.2370(10) 0.5887(5) 0.89033(12)
H30 H 1.3537 0.5846 0.8744
H31 H 1.1737 0.5175 0.8923
C21 C 1.3219(11) 0.6257(6) 0.92519(16)
H32 H 1.4281 0.5749 0.9332
H33 H 1.3892 0.6958 0.9230
C22 C 1.0027(14) 0.7119(7) 0.93574(15)
H34 H 1.0658 0.7828 0.9329
H35 H 0.8900 0.7168 0.9524
C23 C 0.9141(10) 0.6693(5) 0.90175(13)
H36 H 0.8566 0.5974 0.9048
H37 H 0.8000 0.7159 0.8940
C24 C 1.2542(14) 0.6738(7) 0.98001(15)
H38 H 1.3201 0.7429 0.9765
H39 H 1.3575 0.6241 0.9888
H40 H 1.1388 0.6812 0.9957
C25 C 0.4486(8) 0.8202(4) 0.57243(11)
C26 C 0.6137(9) 0.8186(4) 0.54842(11)
H41 H 0.7498 0.7937 0.5535
C27 C 0.5602(11) 0.8563(5) 0.51695(13)
H42 H 0.6625 0.8553 0.5000
C28 C 0.3537(11) 0.8965(5) 0.50952(14)
H43 H 0.3245 0.9234 0.4881
C29 C 0.2017(10) 0.8962(5) 0.53286(15)
H44 H 0.0661 0.9220 0.5279
C30 C 0.2492(9) 0.8564(4) 0.56480(11)
C31 C 0.4869(14) 0.5398(5) 0.58455(16)
C32 C 0.3022(17) 0.4862(6) 0.56743(16)
H45 H 0.3498 0.4533 0.5469
H46 H 0.1949 0.5390 0.5625
H47 H 0.2437 0.4319 0.5820
N1 N 1.0747(7) 0.6670(3) 0.87816(9)
N2 N 1.1686(10) 0.6314(5) 0.94651(14)
N3 N 0.4417(6) 0.7922(3) 0.60512(8)
N4 N 0.2416(7) 0.8067(3) 0.61691(9)
N5 N 0.1249(7) 0.8452(3) 0.59286(11)
O1 O 0.4377(6) 0.5740(3) 0.61549(7)
O2 O 0.6537(11) 0.5558(4) 0.57238(11)
loop_
_geom_bond_atom_site_label_1
_geom_bond_atom_site_label_2
_geom_bond_site_symmetry_1
_geom_bond_site_symmetry_2
C1 H1 1_555 1_555
H2 C1 1_555 1_555
C2 C1 1_555 1_555
H3 C2 1_555 1_555
H4 C2 1_555 1_555
C3 C2 1_555 1_555
H5 C3 1_555 1_555
C4 C3 1_555 1_555
H6 C4 1_555 1_555
H7 C4 1_555 1_555
C5 C4 1_555 1_555
H8 C5 1_555 1_555
C6 C5 1_555 1_555
H9 C6 1_555 1_555
H10 C6 1_555 1_555
C7 C6 1_555 1_555
H11 C7 1_555 1_555
H12 C7 1_555 1_555
C8 C7 1_555 1_555
H13 C8 1_555 1_555
C9 C8 1_555 1_555
H14 C9 1_555 1_555
C10 C1 1_555 1_555
C11 C9 1_555 1_555
H15 C11 1_555 1_555
H16 C11 1_555 1_555
C12 C11 1_555 1_555
H17 C12 1_555 1_555
H18 C12 1_555 1_555
C13 C12 1_555 1_555
C14 C8 1_555 1_555
H19 C14 1_555 1_555
C15 C14 1_555 1_555
H20 C15 1_555 1_555
H21 C15 1_555 1_555
C16 C15 1_555 1_555
H22 C16 1_555 1_555
C17 C13 1_555 1_555
H23 C17 1_555 1_555
C18 C13 1_555 1_555
H24 C18 1_555 1_555
H25 C18 1_555 1_555
H26 C18 1_555 1_555
C19 C10 1_555 1_555
H27 C19 1_555 1_555
H28 C19 1_555 1_555
H29 C19 1_555 1_555
C20 H30 1_555 1_555
H31 C20 1_555 1_555
C21 C20 1_555 1_555
H32 C21 1_555 1_555
H33 C21 1_555 1_555
C22 H34 1_555 1_555
H35 C22 1_555 1_555
C23 C22 1_555 1_555
H36 C23 1_555 1_555
H37 C23 1_555 1_555
C24 H38 1_555 1_555
H39 C24 1_555 1_555
H40 C24 1_555 1_555
C25 C26 1_555 1_555
C26 H41 1_555 1_555
C27 C26 1_555 1_555
H42 C27 1_555 1_555
C28 C27 1_555 1_555
H43 C28 1_555 1_555
C29 C28 1_555 1_555
H44 C29 1_555 1_555
C30 C25 1_555 1_555
C31 C32 1_555 1_555
C32 H45 1_555 1_555
H46 C32 1_555 1_555
H47 C32 1_555 1_555
N1 C3 1_555 1_555
N2 C21 1_555 1_555
N3 C16 1_555 1_555
N4 N3 1_555 1_555
N5 C30 1_555 1_555
O1 C17 1_555 1_555
O2 C31 1_555 1_555
C5 C10 1_555 1_555
C9 C10 1_555 1_555
C13 C14 1_555 1_555
C16 C17 1_555 1_555
C20 N1 1_555 1_555
C22 N2 1_555 1_555
C23 N1 1_555 1_555
C24 N2 1_555 1_555
C25 N3 1_555 1_555
C29 C30 1_555 1_555
C31 O1 1_555 1_555
N4 N5 1_555 1_555

#END
