
#######################################################################
#
#                 Cambridge Crystallographic Data Centre
#                                CCDC 
#
#######################################################################
#
# If this CIF has been generated from an entry in the Cambridge 
# Structural Database, then it will include bibliographic, chemical, 
# crystal, experimental, refinement or atomic coordinate data resulting 
# from the CCDC's data processing and validation procedures.
#
#######################################################################

data_NASLOL
_chemical_formula_moiety         'C31 H22 N2'
_chemical_name_systematic        
5,14-dimethyl-9H,18H-9,18-methanocycloocta[1,2,3-gh:5,6,7-g'h']diphenanthridine
_symmetry_cell_setting           tetragonal
_symmetry_space_group_name_H-M   'P 43 21 2'
_symmetry_Int_Tables_number      96
_space_group_name_Hall           'P 4nw 2abw'
loop_
_symmetry_equiv_pos_site_id
_symmetry_equiv_pos_as_xyz
1 x,y,z
2 -x,-y,1/2+z
3 1/2+x,1/2-y,1/4-z
4 1/2-x,1/2+y,3/4-z
5 -y,-x,1/2-z
6 y,x,-z
7 1/2+y,1/2-x,1/4+z
8 1/2-y,1/2+x,3/4+z
_cell_length_a                   9.665(5)
_cell_length_b                   9.665(5)
_cell_length_c                   23.059(5)
_cell_angle_alpha                90
_cell_angle_beta                 90
_cell_angle_gamma                90
_cell_volume                     2153.99
_exptl_crystal_description       block
_cell_formula_units_Z            4
loop_
_atom_site_label
_atom_site_type_symbol
_atom_site_fract_x
_atom_site_fract_y
_atom_site_fract_z
N1 N 0.76381(16) 0.83743(15) 0.21522(6)
C1 C 0.71410(19) 0.97150(18) 0.12672(7)
C2 C 0.88753(18) 0.89065(17) 0.21664(7)
C3 C 0.93841(18) 0.98992(17) 0.17503(6)
C4 C 1.13520(19) 0.86480(19) 0.2500
C5 C 1.07108(18) 1.04920(18) 0.18077(7)
C6 C 0.6152(2) 1.0096(2) 0.08484(7)
H1 H 0.6412 1.0690 0.0550
C7 C 0.85338(19) 1.02640(18) 0.12773(7)
C8 C 1.1193(2) 1.1372(2) 0.13866(8)
H2 H 1.2070 1.1759 0.1421
C9 C 0.67491(18) 0.87946(19) 0.17116(7)
C10 C 0.3784(2) 1.0107(3) 0.04195(9)
H3 H 0.4163 0.9980 0.0038
H4 H 0.3587 1.1069 0.0481
H5 H 0.2945 0.9581 0.0455
C11 C 0.98249(19) 0.84450(17) 0.26580(7)
H6 H 0.9658 0.7465 0.2741
C12 C 0.5384(2) 0.8278(2) 0.17162(8)
H7 H 0.5118 0.7649 0.2000
C13 C 0.9070(2) 1.1159(2) 0.08494(7)
H8 H 0.8535 1.1389 0.0528
C14 C 0.4447(2) 0.8697(2) 0.13059(8)
H9 H 0.3547 0.8358 0.1321
C15 C 0.4813(2) 0.9618(2) 0.08662(8)
C16 C 1.0370(2) 1.1687(2) 0.09052(8)
H10 H 1.0716 1.2268 0.0618
H11 H 1.193(2) 0.838(2) 0.2836(8)
N1D N 1.16257(15) 1.23619(16) 0.28478(6)
C1D C 1.02850(18) 1.28590(19) 0.37328(7)
C2D C 1.10935(17) 1.11247(18) 0.28336(7)
C3D C 1.01008(17) 1.06159(18) 0.32497(6)
C5D C 0.95080(18) 0.92892(18) 0.31923(7)
C6D C 0.9904(2) 1.3848(2) 0.41516(7)
H1D H 0.9310 1.3588 0.4450
C7D C 0.97360(18) 1.14662(19) 0.37227(7)
C8D C 0.8628(2) 0.8807(2) 0.36134(8)
H2D H 0.8241 0.7930 0.3579
C9D C 1.12054(19) 1.32509(18) 0.32884(7)
C10D C 0.9893(3) 1.6216(2) 0.45805(9)
H3D H 1.0020 1.5837 0.4962
H4D H 0.8931 1.6413 0.4519
H5D H 1.0419 1.7055 0.4545
C11D C 1.15550(17) 1.01751(19) 0.23420(7)
H6D H 1.2535 1.0342 0.2259
C12D C 1.1722(2) 1.4616(2) 0.32838(8)
H7D H 1.2351 1.4882 0.3000
C13D C 0.8841(2) 1.0930(2) 0.41506(7)
H8D H 0.8611 1.1465 0.4472
C14D C 1.1303(2) 1.5553(2) 0.36941(8)
H9D H 1.1642 1.6453 0.3679
C15D C 1.0382(2) 1.5187(2) 0.41338(8)
C16D C 0.8313(2) 0.9630(2) 0.40948(8)
H10D H 0.7732 0.9284 0.4382
H11D H 1.162(2) 0.807(2) 0.2164(8)
loop_
_geom_bond_atom_site_label_1
_geom_bond_atom_site_label_2
_geom_bond_site_symmetry_1
_geom_bond_site_symmetry_2
N1 C2 1_555 1_555
C1 C6 1_555 1_555
C2 C3 1_555 1_555
C3 C5 1_555 1_555
C4 C11 1_555 1_555
C5 C8 1_555 1_555
C6 H1 1_555 1_555
C7 C1 1_555 1_555
C8 H2 1_555 1_555
C9 N1 1_555 1_555
C10 H3 1_555 1_555
H4 C10 1_555 1_555
H5 C10 1_555 1_555
C11 C2 1_555 1_555
H6 C11 1_555 1_555
C12 C9 1_555 1_555
H7 C12 1_555 1_555
C13 C7 1_555 1_555
H8 C13 1_555 1_555
C14 C12 1_555 1_555
H9 C14 1_555 1_555
C15 C6 1_555 1_555
C16 C8 1_555 1_555
H10 C16 1_555 1_555
H11 C4 1_555 1_555
N1D C2D 1_555 1_555
C1D C6D 1_555 1_555
C2D C3D 1_555 1_555
C3D C5D 1_555 1_555
C5D C11 1_555 1_555
C6D H1D 1_555 1_555
C7D C1D 1_555 1_555
C8D C5D 1_555 1_555
H2D C8D 1_555 1_555
C9D N1D 1_555 1_555
C10D H3D 1_555 1_555
H4D C10D 1_555 1_555
H5D C10D 1_555 1_555
C11D C4 1_555 1_555
H6D C11D 1_555 1_555
C12D C9D 1_555 1_555
H7D C12D 1_555 1_555
C13D C7D 1_555 1_555
H8D C13D 1_555 1_555
C14D C12D 1_555 1_555
H9D C14D 1_555 1_555
C15D C6D 1_555 1_555
C16D C8D 1_555 1_555
H10D C16D 1_555 1_555
H11D C4 1_555 1_555
C1 C9 1_555 1_555
C3 C7 1_555 1_555
C5 C11D 1_555 1_555
C10 C15 1_555 1_555
C13 C16 1_555 1_555
C14 C15 1_555 1_555
C1D C9D 1_555 1_555
C2D C11D 1_555 1_555
C3D C7D 1_555 1_555
C10D C15D 1_555 1_555
C13D C16D 1_555 1_555
C14D C15D 1_555 1_555

#END
