
#######################################################################
#
#                 Cambridge Crystallographic Data Centre
#                                CCDC 
#
#######################################################################
#
# If this CIF has been generated from an entry in the Cambridge 
# Structural Database, then it will include bibliographic, chemical, 
# crystal, experimental, refinement or atomic coordinate data resulting 
# from the CCDC's data processing and validation procedures.
#
#######################################################################

data_NATCUH
_chemical_formula_moiety         'C21 H17 Cl2 N1 O3'
_chemical_name_systematic        
2-(5-Benzyloxy-2,4-dichlorophenyl)-4,5,6,7-tetrahydroisoindole-1,3-dione
_symmetry_cell_setting           monoclinic
_symmetry_space_group_name_H-M   'P 21/c'
_symmetry_Int_Tables_number      14
_space_group_name_Hall           '-P 2ybc'
loop_
_symmetry_equiv_pos_site_id
_symmetry_equiv_pos_as_xyz
1 x,y,z
2 -x,1/2+y,1/2-z
3 -x,-y,-z
4 x,1/2-y,1/2+z
_cell_length_a                   12.1705(17)
_cell_length_b                   11.0375(15)
_cell_length_c                   15.078(2)
_cell_angle_alpha                90
_cell_angle_beta                 107.232(3)
_cell_angle_gamma                90
_cell_volume                     1934.54
_exptl_crystal_colour            colorless
_exptl_crystal_description       plate
_cell_formula_units_Z            4
_exptl_crystal_recrystallization_method ethanol
loop_
_atom_site_label
_atom_site_type_symbol
_atom_site_fract_x
_atom_site_fract_y
_atom_site_fract_z
C1 C 0.6454(3) 0.3843(3) -0.1096(2)
H1 H 0.5864 0.3360 -0.1458
C2 C 0.7282(4) 0.4262(4) -0.1466(3)
H2 H 0.7250 0.4055 -0.2071
C3 C 0.8142(4) 0.4970(3) -0.0965(4)
H3 H 0.8702 0.5250 -0.1221
C4 C 0.8185(3) 0.5270(4) -0.0086(4)
H4 H 0.8779 0.5758 0.0264
C5 C 0.7348(3) 0.4856(3) 0.0300(3)
H5 H 0.7376 0.5078 0.0901
C6 C 0.6477(2) 0.4117(2) -0.0209(2)
C7 C 0.5602(3) 0.3606(3) 0.0202(2)
H6 H 0.5550 0.4097 0.0721
H7 H 0.4851 0.3584 -0.0259
C8 C 0.5297(2) 0.1709(2) 0.08693(19)
C9 C 0.5662(2) 0.0514(3) 0.10922(19)
C10 C 0.5046(2) -0.0265(3) 0.1473(2)
H8 H 0.5303 -0.1053 0.1622
C11 C 0.4046(2) 0.0128(3) 0.1632(2)
C12 C 0.3668(2) 0.1306(3) 0.14141(19)
C13 C 0.4296(2) 0.2085(2) 0.10410(19)
H9 H 0.4043 0.2877 0.0902
C14 C 0.1526(3) 0.1600(3) 0.0951(2)
C15 C 0.2569(3) 0.2062(2) 0.2451(2)
C16 C 0.0727(2) 0.1994(3) 0.1479(2)
C17 C -0.0540(3) 0.2081(4) 0.1114(2)
H10 H -0.0844 0.1358 0.0760
H11 H -0.0750 0.2774 0.0703
C18 C -0.1047(9) 0.2214(12) 0.1908(7)
H14 H -0.1844 0.2465 0.1668
H15 H -0.1029 0.1436 0.2211
C19 C -0.0398(6) 0.3127(11) 0.2605(8)
H16 H -0.0780 0.3240 0.3079
H17 H -0.0391 0.3900 0.2300
C22 C 0.0840(3) 0.2705(3) 0.3058(2)
H22 H 0.1296 0.3372 0.3396
H23 H 0.0847 0.2059 0.3496
C23 C 0.1338(2) 0.2271(3) 0.2349(2)
Cl1 Cl 0.69019(6) 0.00164(7) 0.08764(6)
Cl2 Cl 0.32666(8) -0.08528(7) 0.21096(7)
N1 N 0.26349(18) 0.1708(2) 0.15839(16)
O1 O 0.59801(16) 0.23995(16) 0.05071(15)
O2 O 0.33881(18) 0.21413(19) 0.31394(15)
O3 O 0.13170(19) 0.1262(3) 0.01700(17)
H12? H -0.0868 0.1279 0.0961
H13? H -0.0745 0.2564 0.0551
C20? C -0.1003(14) 0.2764(14) 0.1809(8)
H18? H -0.0920 0.3627 0.1725
H19? H -0.1819 0.2593 0.1673
C21? C -0.0410(8) 0.2446(16) 0.2818(8)
H20? H -0.0745 0.2914 0.3217
H21? H -0.0525 0.1593 0.2920
H24? H 0.0934 0.3577 0.3114
H25? H 0.1243 0.2348 0.3654
loop_
_geom_bond_atom_site_label_1
_geom_bond_atom_site_label_2
_geom_bond_site_symmetry_1
_geom_bond_site_symmetry_2
C1 H1 1_555 1_555
C2 C1 1_555 1_555
H2 C2 1_555 1_555
C3 C2 1_555 1_555
H3 C3 1_555 1_555
C4 C3 1_555 1_555
H4 C4 1_555 1_555
C5 C4 1_555 1_555
H5 C5 1_555 1_555
C6 C1 1_555 1_555
C7 C6 1_555 1_555
H6 C7 1_555 1_555
H7 C7 1_555 1_555
C8 C9 1_555 1_555
C9 C10 1_555 1_555
C10 H8 1_555 1_555
C11 C10 1_555 1_555
C12 C11 1_555 1_555
C13 C8 1_555 1_555
H9 C13 1_555 1_555
C14 C16 1_555 1_555
C15 C23 1_555 1_555
C16 C17 1_555 1_555
C17 H10 1_555 1_555
H11 C17 1_555 1_555
C18 C17 1_555 1_555
H14 C18 1_555 1_555
H15 C18 1_555 1_555
C19 C18 1_555 1_555
H16 C19 1_555 1_555
H17 C19 1_555 1_555
C22 C19 1_555 1_555
H22 C22 1_555 1_555
H23 C22 1_555 1_555
C23 C16 1_555 1_555
Cl1 C9 1_555 1_555
Cl2 C11 1_555 1_555
N1 C12 1_555 1_555
O1 C7 1_555 1_555
O2 C15 1_555 1_555
O3 C14 1_555 1_555
C5 C6 1_555 1_555
C8 O1 1_555 1_555
C12 C13 1_555 1_555
C14 N1 1_555 1_555
C15 N1 1_555 1_555
C22 C23 1_555 1_555

#END
