
#######################################################################
#
#                 Cambridge Crystallographic Data Centre
#                                CCDC 
#
#######################################################################
#
# If this CIF has been generated from an entry in the Cambridge 
# Structural Database, then it will include bibliographic, chemical, 
# crystal, experimental, refinement or atomic coordinate data resulting 
# from the CCDC's data processing and validation procedures.
#
#######################################################################

data_NATGUL
_chemical_formula_moiety         'C14 H19 N3 O1'
_chemical_name_systematic        
(E)-3-Isopropyl-5,5-dimethyl-2-(phenylimino)imidazolidin-4-one
_symmetry_cell_setting           orthorhombic
_symmetry_space_group_name_H-M   'P 21 21 21'
_symmetry_Int_Tables_number      19
_space_group_name_Hall           'P 2ac 2ab'
loop_
_symmetry_equiv_pos_site_id
_symmetry_equiv_pos_as_xyz
1 x,y,z
2 1/2-x,-y,1/2+z
3 -x,1/2+y,1/2-z
4 1/2+x,1/2-y,-z
_cell_length_a                   10.2783(11)
_cell_length_b                   11.4013(11)
_cell_length_c                   11.5930(12)
_cell_angle_alpha                90
_cell_angle_beta                 90
_cell_angle_gamma                90
_cell_volume                     1358.54
_exptl_crystal_colour            colorless
_exptl_crystal_description       block
_chemical_melting_point          '442 K'
_cell_formula_units_Z            4
_exptl_crystal_recrystallization_method 'petroleum ether'
loop_
_atom_site_label
_atom_site_type_symbol
_atom_site_fract_x
_atom_site_fract_y
_atom_site_fract_z
C1 C 0.6646(2) 0.5652(2) -0.0969(2)
H1 H 0.6030 0.5266 -0.1417
C2 C 0.7795(3) 0.6032(2) -0.1469(2)
H2 H 0.7945 0.5895 -0.2248
C3 C 0.8714(3) 0.6608(2) -0.0822(3)
H3 H 0.9483 0.6862 -0.1162
C4 C 0.8492(3) 0.6807(2) 0.0325(3)
H4 H 0.9114 0.7196 0.0765
C5 C 0.7347(2) 0.6432(2) 0.0833(2)
H5 H 0.7203 0.6575 0.1613
C6 C 0.6407(2) 0.58434(16) 0.0191(2)
C7 C 0.46911(19) 0.45581(17) 0.06060(16)
C8 C 0.42016(19) 0.25966(17) 0.02323(17)
C9 C 0.4882(2) 0.1711(2) 0.1020(2)
H6 H 0.5604 0.1367 0.0619
H7 H 0.4278 0.1107 0.1236
H8 H 0.5190 0.2103 0.1700
C10 C 0.3696(2) 0.2014(2) -0.08570(19)
H9 H 0.3198 0.2570 -0.1295
H10 H 0.3154 0.1360 -0.0653
H11 H 0.4417 0.1743 -0.1312
C11 C 0.31129(19) 0.31808(17) 0.09114(17)
C12 C 0.2797(2) 0.51475(18) 0.18787(17)
H12 H 0.3387 0.5811 0.2001
C13 C 0.2513(3) 0.4632(2) 0.3049(2)
H13 H 0.1861 0.4035 0.2976
H14 H 0.2204 0.5238 0.3554
H15 H 0.3294 0.4296 0.3361
C14 C 0.1602(3) 0.5625(2) 0.1286(2)
H16 H 0.1841 0.5941 0.0548
H17 H 0.1225 0.6233 0.1751
H18 H 0.0981 0.5005 0.1180
N1 N 0.50252(17) 0.35963(13) -0.00149(16)
H19 H 0.5656 0.3582 -0.0502
N2 N 0.34933(16) 0.42970(14) 0.11434(14)
N3 N 0.52320(17) 0.55533(15) 0.07566(16)
O1 O 0.21018(15) 0.27146(13) 0.12095(13)
loop_
_geom_bond_atom_site_label_1
_geom_bond_atom_site_label_2
_geom_bond_site_symmetry_1
_geom_bond_site_symmetry_2
C1 H1 1_555 1_555
C2 C1 1_555 1_555
H2 C2 1_555 1_555
C3 C2 1_555 1_555
H3 C3 1_555 1_555
C4 C3 1_555 1_555
H4 C4 1_555 1_555
C5 C4 1_555 1_555
H5 C5 1_555 1_555
C6 C1 1_555 1_555
C7 N1 1_555 1_555
C8 C9 1_555 1_555
C9 H6 1_555 1_555
H7 C9 1_555 1_555
H8 C9 1_555 1_555
C10 C8 1_555 1_555
H9 C10 1_555 1_555
H10 C10 1_555 1_555
H11 C10 1_555 1_555
C11 C8 1_555 1_555
C12 H12 1_555 1_555
C13 C12 1_555 1_555
H13 C13 1_555 1_555
H14 C13 1_555 1_555
H15 C13 1_555 1_555
C14 C12 1_555 1_555
H16 C14 1_555 1_555
H17 C14 1_555 1_555
H18 C14 1_555 1_555
N1 C8 1_555 1_555
H19 N1 1_555 1_555
N2 C7 1_555 1_555
N3 C6 1_555 1_555
O1 C11 1_555 1_555
C5 C6 1_555 1_555
C7 N3 1_555 1_555
C11 N2 1_555 1_555
C12 N2 1_555 1_555

#END
