
#######################################################################
#
#                 Cambridge Crystallographic Data Centre
#                                CCDC 
#
#######################################################################
#
# If this CIF has been generated from an entry in the Cambridge 
# Structural Database, then it will include bibliographic, chemical, 
# crystal, experimental, refinement or atomic coordinate data resulting 
# from the CCDC's data processing and validation procedures.
#
#######################################################################

data_NATJUN
_chemical_formula_moiety         'C58 H84 K2 N8 P2 Si2'
_chemical_name_systematic        
bis((\m~2~-\h^3^-3-(Trimethylsilylimino(diphenyl)phosphanyl)-2-phenyl-1-aza-allyl)-(tetramethylethylenediamine)-potassium)
_symmetry_cell_setting           triclinic
_symmetry_space_group_name_H-M   'P 1'
_symmetry_Int_Tables_number      1
_space_group_name_Hall           'P 1'
loop_
_symmetry_equiv_pos_site_id
_symmetry_equiv_pos_as_xyz
1 x,y,z
_cell_length_a                   11.310(3)
_cell_length_b                   11.856(5)
_cell_length_c                   13.263(4)
_cell_angle_alpha                70.51(3)
_cell_angle_beta                 70.83(3)
_cell_angle_gamma                83.59(3)
_cell_volume                     1583.58
_exptl_crystal_colour            colorless
_chemical_melting_point          111-113deg.C
_cell_formula_units_Z            1
loop_
_atom_site_label
_atom_site_type_symbol
_atom_site_fract_x
_atom_site_fract_y
_atom_site_fract_z
P1 P 0.3055(2) 0.3285(2) 1.1336(2)
P2 P 0.6925(2) 0.7613(2) 0.6348(2)
Si1 Si 0.5778(3) 0.6233(3) 0.5372(2)
Si2 Si 0.4384(3) 0.4498(2) 1.2327(2)
K1 K 0.4573(2) 0.5820(2) 0.8855(2)
K2 K 0.6403(2) 0.3116(2) 1.0039(2)
N1 N 0.4073(7) 0.4086(7) 1.1328(6)
N2 N 0.4586(7) 0.3377(7) 0.8904(6)
N3 N 0.5992(7) 0.6694(7) 0.6359(6)
N4 N 0.7322(7) 0.5195(6) 0.8348(6)
N5 N 0.2964(10) 0.7954(10) 0.9022(9)
N6 N 0.1552(17) 0.8894(18) 0.6675(15)
N7 N 0.8390(10) 0.1505(11) 1.0868(10)
N8 N 0.7645(10) 0.1431(11) 0.8923(10)
C1 C 0.2601(9) 0.3662(9) 1.0154(7)
C2 C 0.3376(8) 0.3489(8) 0.9133(7)
C3 C 0.2730(9) 0.3494(9) 0.8297(7)
C4 C 0.3044(10) 0.2654(10) 0.7748(8)
C5 C 0.2446(13) 0.2636(13) 0.6987(10)
C6 C 0.1522(11) 0.3415(13) 0.6814(9)
C7 C 0.1178(11) 0.4261(13) 0.7364(10)
C8 C 0.1793(10) 0.4289(11) 0.8116(9)
C9 C 0.1574(9) 0.3271(10) 1.2433(9)
C10 C 0.0982(12) 0.2206(12) 1.3191(12)
C11 C -0.0185(16) 0.2239(20) 1.3963(16)
C12 C -0.0702(14) 0.3319(18) 1.4057(15)
C13 C 0.1007(10) 0.4318(11) 1.2517(9)
C14 C -0.0133(13) 0.4340(13) 1.3350(11)
C15 C 0.3546(9) 0.1719(9) 1.1673(8)
C16 C 0.3166(11) 0.0932(10) 1.1273(9)
C17 C 0.3464(14) -0.0246(12) 1.1584(11)
C18 C 0.4145(13) -0.0692(10) 1.2315(12)
C19 C 0.4572(14) 0.0069(10) 1.2709(12)
C20 C 0.4273(12) 0.1285(11) 1.2373(10)
C21 C 0.3366(11) 0.3804(13) 1.3810(9)
C22 C 0.4239(13) 0.6148(10) 1.2019(11)
C23 C 0.6020(10) 0.4124(11) 1.2329(10)
C24 C 0.7143(9) 0.7371(8) 0.7644(8)
C25 C 0.7398(8) 0.6295(8) 0.8343(7)
C26 C 0.7810(9) 0.6352(9) 0.9301(7)
C27 C 0.7338(10) 0.7193(9) 0.9861(8)
C28 C 0.7755(13) 0.7229(11) 1.0709(9)
C29 C 0.8655(12) 0.6467(14) 1.1007(10)
C30 C 0.9154(11) 0.5647(12) 1.0463(9)
C31 C 0.8716(10) 0.5599(12) 0.9637(9)
C32 C 0.8462(9) 0.7599(9) 0.5322(8)
C33 C 0.9183(10) 0.6568(11) 0.5448(10)
C34 C 1.0350(12) 0.6523(13) 0.4702(11)
C35 C 1.0851(12) 0.7494(14) 0.3817(12)
C36 C 1.0173(13) 0.8547(15) 0.3660(11)
C37 C 0.8996(12) 0.8613(11) 0.4418(10)
C38 C 0.6428(10) 0.9176(8) 0.5937(8)
C39 C 0.5486(11) 0.9469(10) 0.5498(9)
C40 C 0.5037(13) 1.0608(12) 0.5216(10)
C41 C 0.5549(12) 1.1510(11) 0.5353(10)
C42 C 0.6532(12) 1.1251(9) 0.5781(9)
C43 C 0.6961(10) 1.0094(10) 0.6069(10)
C44 C 0.6233(15) 0.4624(11) 0.5616(12)
C45 C 0.4089(12) 0.6339(14) 0.5446(12)
C46 C 0.6691(12) 0.7075(12) 0.3869(9)
C47 C 0.2453(24) 0.8276(38) 0.8109(19)
C48 C 0.1844(21) 0.8643(26) 0.7583(21)
C49 C 0.1992(16) 0.7728(19) 1.0073(13)
C50 C 0.3810(15) 0.8868(15) 0.8841(13)
C51 C 0.0715(27) 0.8007(28) 0.6753(24)
C52 C 0.1221(31) 0.9878(27) 0.6103(30)
C53 C 0.8816(26) 0.0698(25) 1.0209(25)
C54 C 0.8652(18) 0.0796(19) 0.9298(16)
C55 C 0.9378(17) 0.2263(18) 1.0705(19)
C56 C 0.8005(19) 0.0940(23) 1.2038(16)
C57 C 0.6725(19) 0.0656(15) 0.9058(16)
C58 C 0.8073(15) 0.2209(17) 0.7778(14)
loop_
_geom_bond_atom_site_label_1
_geom_bond_atom_site_label_2
_geom_bond_site_symmetry_1
_geom_bond_site_symmetry_2
P1 N1 1_555 1_555
P2 N3 1_555 1_555
Si1 N3 1_555 1_555
Si2 N1 1_555 1_555
K1 N1 1_555 1_555
K2 N1 1_555 1_555
N2 K1 1_555 1_555
N3 K1 1_555 1_555
N4 K1 1_555 1_555
N5 K1 1_555 1_555
N6 C48 1_555 1_555
N7 K2 1_555 1_555
N8 K2 1_555 1_555
C1 P1 1_555 1_555
C2 K1 1_555 1_555
C3 C2 1_555 1_555
C4 C3 1_555 1_555
C5 C4 1_555 1_555
C6 C5 1_555 1_555
C7 C6 1_555 1_555
C8 C3 1_555 1_555
C9 P1 1_555 1_555
C10 C9 1_555 1_555
C11 C10 1_555 1_555
C12 C11 1_555 1_555
C13 C9 1_555 1_555
C14 C12 1_555 1_555
C15 P1 1_555 1_555
C16 C15 1_555 1_555
C17 C16 1_555 1_555
C18 C17 1_555 1_555
C19 C18 1_555 1_555
C20 C15 1_555 1_555
C21 Si2 1_555 1_555
C22 Si2 1_555 1_555
C23 Si2 1_555 1_555
C24 P2 1_555 1_555
C25 K1 1_555 1_555
C26 C25 1_555 1_555
C27 C26 1_555 1_555
C28 C27 1_555 1_555
C29 C28 1_555 1_555
C30 C29 1_555 1_555
C31 C26 1_555 1_555
C32 P2 1_555 1_555
C33 C32 1_555 1_555
C34 C33 1_555 1_555
C35 C34 1_555 1_555
C36 C35 1_555 1_555
C37 C32 1_555 1_555
C38 P2 1_555 1_555
C39 C38 1_555 1_555
C40 C39 1_555 1_555
C41 C40 1_555 1_555
C42 C41 1_555 1_555
C43 C38 1_555 1_555
C44 Si1 1_555 1_555
C45 Si1 1_555 1_555
C46 Si1 1_555 1_555
C47 N5 1_555 1_555
C48 C47 1_555 1_555
C49 N5 1_555 1_555
C50 N5 1_555 1_555
C51 N6 1_555 1_555
C52 N6 1_555 1_555
C53 N7 1_555 1_555
C54 N8 1_555 1_555
C55 N7 1_555 1_555
C56 N7 1_555 1_555
C57 N8 1_555 1_555
C58 N8 1_555 1_555
K1 C1 1_555 1_555
K1 C24 1_555 1_555
K2 N2 1_555 1_555
K2 N4 1_555 1_555
N2 C2 1_555 1_555
N4 C25 1_555 1_555
C1 C2 1_555 1_555
C7 C8 1_555 1_555
C13 C14 1_555 1_555
C19 C20 1_555 1_555
C24 C25 1_555 1_555
C30 C31 1_555 1_555
C36 C37 1_555 1_555
C42 C43 1_555 1_555
C53 C54 1_555 1_555

#END
