
#######################################################################
#
#                 Cambridge Crystallographic Data Centre
#                                CCDC 
#
#######################################################################
#
# If this CIF has been generated from an entry in the Cambridge 
# Structural Database, then it will include bibliographic, chemical, 
# crystal, experimental, refinement or atomic coordinate data resulting 
# from the CCDC's data processing and validation procedures.
#
#######################################################################

data_NATPII
_chemical_formula_moiety         'C26 H24 N4 O2,4(H2 O1)'
_chemical_name_systematic        
'a,a-1,4-Dihydroxy-e,e,e,e-1,2,4,5-tetrakis(4-pyridyl)cyclohexane tetrahydrate'
_symmetry_cell_setting           monoclinic
_symmetry_space_group_name_H-M   'C 2/c'
_symmetry_Int_Tables_number      15
_space_group_name_Hall           '-C 2yn'
loop_
_symmetry_equiv_pos_site_id
_symmetry_equiv_pos_as_xyz
1 x,y,z
2 1/2+x,1/2+y,z
3 -x,y,1/2-z
4 1/2-x,1/2+y,1/2-z
5 -x,-y,-z
6 1/2-x,1/2-y,-z
7 x,-y,1/2+z
8 1/2+x,1/2-y,1/2+z
_cell_length_a                   15.5954(13)
_cell_length_b                   11.3662(9)
_cell_length_c                   14.0070(11)
_cell_angle_alpha                90
_cell_angle_beta                 91.097(2)
_cell_angle_gamma                90
_cell_volume                     2482.43
_exptl_crystal_colour            colorless
_exptl_crystal_description       polyhedral
_cell_formula_units_Z            4
loop_
_atom_site_label
_atom_site_type_symbol
_atom_site_fract_x
_atom_site_fract_y
_atom_site_fract_z
O1 O 0.2009(3) 0.1307(5) -0.1170(4)
H1 H 0.1511 0.1536 -0.1313
N1 N 0.48369(17) -0.0919(2) -0.13701(18)
N2 N 0.35359(19) 0.3221(3) -0.3837(2)
C1 C 0.51488(19) 0.0173(3) -0.1299(2)
H2 H 0.5727 0.0306 -0.1471
C2 C 0.46729(19) 0.1119(3) -0.0989(2)
H3 H 0.4925 0.1879 -0.0947
C3 C 0.38230(18) 0.0954(3) -0.07369(19)
C4 C 0.3487(2) -0.0169(3) -0.0846(2)
H4 H 0.2903 -0.0320 -0.0712
C5 C 0.4017(2) -0.1068(3) -0.1154(2)
H5 H 0.3780 -0.1835 -0.1214
C6 C 0.33002(18) 0.1962(3) -0.0355(2)
H6 H 0.3688 0.2658 -0.0274
C7 C 0.20620(19) 0.3345(3) -0.0627(2)
H7 H 0.2446 0.4035 -0.0562
H8 H 0.1584 0.3560 -0.1069
C8 C 0.25637(18) 0.2310(3) -0.1050(2)
C9 C 0.29108(19) 0.2636(3) -0.2021(2)
C10 C 0.2703(2) 0.1971(3) -0.2824(2)
H9 H 0.2343 0.1301 -0.2773
C11 C 0.3027(2) 0.2293(3) -0.3701(2)
H10 H 0.2877 0.1825 -0.4240
C12 C 0.3740(2) 0.3854(3) -0.3059(3)
H11 H 0.4107 0.4514 -0.3132
C13 C 0.3446(2) 0.3602(3) -0.2154(2)
H12 H 0.3609 0.4084 -0.1627
O1E O 0.2991(3) 0.3693(5) 0.1170(4)
H1E H 0.3489 0.3464 0.1313
N1E N 0.01631(17) 0.5919(2) 0.13701(18)
N2E N 0.14641(19) 0.1779(3) 0.3837(2)
C1E C -0.01488(19) 0.4827(3) 0.1299(2)
H2E H -0.0727 0.4694 0.1471
C2E C 0.03271(19) 0.3881(3) 0.0989(2)
H3E H 0.0075 0.3121 0.0947
C3E C 0.11770(18) 0.4046(3) 0.07369(19)
C4E C 0.1513(2) 0.5169(3) 0.0846(2)
H4E H 0.2097 0.5320 0.0712
C5E C 0.0983(2) 0.6068(3) 0.1154(2)
H5E H 0.1220 0.6835 0.1214
C6E C 0.16998(18) 0.3038(3) 0.0355(2)
H6E H 0.1312 0.2342 0.0274
C7E C 0.29380(19) 0.1655(3) 0.0627(2)
H7E H 0.2554 0.0965 0.0562
H8E H 0.3416 0.1440 0.1069
C8E C 0.24363(18) 0.2690(3) 0.1050(2)
C9E C 0.20892(19) 0.2364(3) 0.2021(2)
C10E C 0.2297(2) 0.3029(3) 0.2824(2)
H9E H 0.2657 0.3699 0.2773
C11E C 0.1973(2) 0.2707(3) 0.3701(2)
H10E H 0.2123 0.3175 0.4240
C12E C 0.1260(2) 0.1146(3) 0.3059(3)
H11E H 0.0893 0.0486 0.3132
C13E C 0.1554(2) 0.1398(3) 0.2154(2)
H12E H 0.1391 0.0916 0.1627
O2 O -0.03682(19) 0.8224(3) 0.1631(2)
H13 H -0.017(2) 0.870(3) 0.121(3)
H14 H -0.027(4) 0.747(5) 0.151(4)
O3 O 0.4289(3) 0.4406(3) -0.5431(2)
H15 H 0.414(4) 0.385(5) -0.484(4)
H16 H 0.370(3) 0.439(4) -0.540(3)
loop_
_geom_bond_atom_site_label_1
_geom_bond_atom_site_label_2
_geom_bond_site_symmetry_1
_geom_bond_site_symmetry_2
O1 H1 1_555 1_555
N1 C1 1_555 1_555
N2 C11 1_555 1_555
C1 H2 1_555 1_555
C2 C1 1_555 1_555
H3 C2 1_555 1_555
C3 C2 1_555 1_555
C4 C3 1_555 1_555
H4 C4 1_555 1_555
C5 N1 1_555 1_555
H5 C5 1_555 1_555
C6 C3 1_555 1_555
H6 C6 1_555 1_555
C7 H7 1_555 1_555
H8 C7 1_555 1_555
C8 O1 1_555 1_555
C9 C8 1_555 1_555
C10 C9 1_555 1_555
H9 C10 1_555 1_555
C11 C10 1_555 1_555
H10 C11 1_555 1_555
C12 N2 1_555 1_555
H11 C12 1_555 1_555
C13 C9 1_555 1_555
H12 C13 1_555 1_555
O2 H13 1_555 1_555
H14 O2 1_555 1_555
O3 H15 1_555 1_555
H16 O3 1_555 1_555
O1E H1E 1_555 1_555
N1E C1E 1_555 1_555
N2E C11E 1_555 1_555
C1E H2E 1_555 1_555
C2E C1E 1_555 1_555
H3E C2E 1_555 1_555
C3E C2E 1_555 1_555
C4E C3E 1_555 1_555
H4E C4E 1_555 1_555
C5E N1E 1_555 1_555
H5E C5E 1_555 1_555
C6E C7 1_555 1_555
H6E C6E 1_555 1_555
C7E C6 1_555 1_555
H7E C7E 1_555 1_555
H8E C7E 1_555 1_555
C8E O1E 1_555 1_555
C9E C8E 1_555 1_555
C10E C9E 1_555 1_555
H9E C10E 1_555 1_555
C11E C10E 1_555 1_555
H10E C11E 1_555 1_555
C12E N2E 1_555 1_555
H11E C12E 1_555 1_555
C13E C9E 1_555 1_555
H12E C13E 1_555 1_555
C4 C5 1_555 1_555
C6 C8 1_555 1_555
C7 C8 1_555 1_555
C12 C13 1_555 1_555
C3E C6E 1_555 1_555
C4E C5E 1_555 1_555
C6E C8E 1_555 1_555
C7E C8E 1_555 1_555
C12E C13E 1_555 1_555

#END
