
#######################################################################
#
#                 Cambridge Crystallographic Data Centre
#                                CCDC 
#
#######################################################################
#
# If this CIF has been generated from an entry in the Cambridge 
# Structural Database, then it will include bibliographic, chemical, 
# crystal, experimental, refinement or atomic coordinate data resulting 
# from the CCDC's data processing and validation procedures.
#
#######################################################################

data_NATPOP
_chemical_formula_moiety         'C18 H20 N2 O2'
_chemical_name_systematic        
6,11-Dioxa-1,16-diazatricyclo[14.2.2.2^7,10^]docosa-7,9,21-triene-3,13-diyne
_symmetry_cell_setting           monoclinic
_symmetry_space_group_name_H-M   'C c'
_symmetry_Int_Tables_number      9
_space_group_name_Hall           'C -2yc'
loop_
_symmetry_equiv_pos_site_id
_symmetry_equiv_pos_as_xyz
1 x,y,z
2 x,-y,1/2+z
3 1/2+x,1/2+y,z
4 1/2+x,1/2-y,1/2+z
_cell_length_a                   17.6508(17)
_cell_length_b                   10.4452(10)
_cell_length_c                   18.9547(18)
_cell_angle_alpha                90
_cell_angle_beta                 117.458(2)
_cell_angle_gamma                90
_cell_volume                     3100.93
_exptl_crystal_colour            colorless
_exptl_crystal_description       block
_cell_formula_units_Z            8
loop_
_atom_site_label
_atom_site_type_symbol
_atom_site_fract_x
_atom_site_fract_y
_atom_site_fract_z
C1 C 0.9443(4) 0.7199(7) 0.5388(3)
C2 C 0.9573(4) 0.6303(7) 0.5974(3)
H1 H 1.0121 0.6012 0.6310
C3 C 0.8883(5) 0.5849(6) 0.6051(3)
H2 H 0.8969 0.5248 0.6444
C4 C 0.8065(4) 0.6269(5) 0.5557(3)
C5 C 0.7946(4) 0.7123(5) 0.4971(3)
H3 H 0.7398 0.7398 0.4623
C6 C 0.8632(4) 0.7576(6) 0.4893(3)
H4 H 0.8540 0.8158 0.4489
C7 C 1.0303(6) 0.7820(12) 0.4815(5)
H5 H 1.0809 0.7323 0.4925
H6 H 1.0469 0.8713 0.4856
C8 C 0.9697(4) 0.7594(6) 0.3973(4)
C9 C 0.9167(5) 0.7437(6) 0.3319(4)
C10 C 0.8426(5) 0.7192(6) 0.2555(3)
H7 H 0.8590 0.6661 0.2228
H8 H 0.8203 0.7993 0.2278
C11 C 0.7957(4) 0.5179(5) 0.2874(3)
H9 H 0.8548 0.5083 0.3271
H10 H 0.7878 0.4726 0.2399
C12 C 0.7385(4) 0.4620(5) 0.3180(3)
H11 H 0.7496 0.3710 0.3268
H12 H 0.7511 0.5012 0.3686
C13 C 0.6306(4) 0.6131(6) 0.2380(3)
H13 H 0.6365 0.6643 0.2830
H14 H 0.5719 0.6205 0.1968
C14 C 0.6899(4) 0.6663(6) 0.2067(3)
H15 H 0.6827 0.6189 0.1599
H16 H 0.6770 0.7556 0.1922
C15 C 0.5930(4) 0.4315(6) 0.2958(4)
H17 H 0.6014 0.3397 0.3035
H18 H 0.5336 0.4464 0.2584
C16 C 0.6127(4) 0.4942(6) 0.3745(3)
C17 C 0.6309(4) 0.5436(6) 0.4356(3)
C18 C 0.6583(4) 0.6011(7) 0.5140(3)
H19 H 0.6519 0.6933 0.5081
H20 H 0.6211 0.5712 0.5355
N1 N 0.7762(3) 0.6530(4) 0.2693(2)
N2 N 0.6481(3) 0.4821(4) 0.2622(3)
O1 O 1.0145(4) 0.7624(8) 0.5339(3)
O2 O 0.7437(3) 0.5724(4) 0.5688(2)
C19 C 0.2601(4) 0.6147(5) 0.2527(3)
C20 C 0.2672(4) 0.5205(5) 0.3063(3)
H21 H 0.3192 0.4791 0.3353
C21 C 0.1968(4) 0.4868(5) 0.3171(3)
H22 H 0.2017 0.4234 0.3534
C22 C 0.1205(4) 0.5475(5) 0.2739(3)
C23 C 0.1120(4) 0.6357(5) 0.2176(3)
H23 H 0.0591 0.6732 0.1864
C24 C 0.1808(4) 0.6691(5) 0.2068(3)
H24 H 0.1742 0.7292 0.1682
C25 C 0.4102(4) 0.6281(6) 0.2938(3)
H25 H 0.4484 0.6563 0.2731
H26 H 0.4170 0.5363 0.3018
C26 C 0.4348(4) 0.6908(6) 0.3710(3)
C27 C 0.4523(4) 0.7413(6) 0.4319(3)
C28 C 0.4679(4) 0.8002(6) 0.5082(3)
H27 H 0.5277 0.7899 0.5457
H28 H 0.4565 0.8913 0.5000
C29 C 0.4346(4) 0.6129(5) 0.5648(3)
H29 H 0.4941 0.6031 0.6033
H30 H 0.4248 0.5637 0.5179
C30 C 0.3803(4) 0.5619(6) 0.5987(3)
H31 H 0.3942 0.4728 0.6133
H32 H 0.3904 0.6096 0.6462
C31 C 0.2699(4) 0.7077(6) 0.5219(3)
H33 H 0.2777 0.7535 0.5693
H34 H 0.2107 0.7158 0.4823
C32 C 0.3287(5) 0.7630(5) 0.4901(3)
H35 H 0.3160 0.7215 0.4401
H36 H 0.3164 0.8535 0.4795
C33 C 0.2298(4) 0.5088(6) 0.5596(3)
H37 H 0.2144 0.5638 0.5921
H38 H 0.2538 0.4302 0.5885
C34 C 0.1538(4) 0.4807(6) 0.4830(3)
C35 C 0.1025(4) 0.4612(6) 0.4170(3)
C36 C 0.0460(4) 0.4331(6) 0.3329(3)
H39 H 0.0636 0.3528 0.3192
H40 H -0.0117 0.4222 0.3255
N3 N 0.4170(3) 0.7477(4) 0.5431(2)
N4 N 0.2922(3) 0.5734(4) 0.5404(2)
O3 O 0.3245(3) 0.6547(4) 0.23652(19)
O4 O 0.0460(2) 0.5282(4) 0.2807(2)
loop_
_geom_bond_atom_site_label_1
_geom_bond_atom_site_label_2
_geom_bond_site_symmetry_1
_geom_bond_site_symmetry_2
C1 C2 1_555 1_555
C2 H1 1_555 1_555
C3 C2 1_555 1_555
H2 C3 1_555 1_555
C4 C3 1_555 1_555
C5 C4 1_555 1_555
H3 C5 1_555 1_555
C6 C1 1_555 1_555
H4 C6 1_555 1_555
C7 H5 1_555 1_555
H6 C7 1_555 1_555
C8 C7 1_555 1_555
C9 C8 1_555 1_555
C10 C9 1_555 1_555
H7 C10 1_555 1_555
H8 C10 1_555 1_555
C11 H9 1_555 1_555
H10 C11 1_555 1_555
C12 C11 1_555 1_555
H11 C12 1_555 1_555
H12 C12 1_555 1_555
C13 H13 1_555 1_555
H14 C13 1_555 1_555
C14 C13 1_555 1_555
H15 C14 1_555 1_555
H16 C14 1_555 1_555
C15 H17 1_555 1_555
H18 C15 1_555 1_555
C16 C15 1_555 1_555
C17 C16 1_555 1_555
C18 C17 1_555 1_555
H19 C18 1_555 1_555
H20 C18 1_555 1_555
N1 C10 1_555 1_555
N2 C12 1_555 1_555
O1 C1 1_555 1_555
O2 C4 1_555 1_555
C19 C20 1_555 1_555
C20 H21 1_555 1_555
C21 C20 1_555 1_555
H22 C21 1_555 1_555
C22 C21 1_555 1_555
C23 C22 1_555 1_555
H23 C23 1_555 1_555
C24 C19 1_555 1_555
H24 C24 1_555 1_555
C25 H25 1_555 1_555
H26 C25 1_555 1_555
C26 C25 1_555 1_555
C27 C26 1_555 1_555
C28 C27 1_555 1_555
H27 C28 1_555 1_555
H28 C28 1_555 1_555
C29 H29 1_555 1_555
H30 C29 1_555 1_555
C30 C29 1_555 1_555
H31 C30 1_555 1_555
H32 C30 1_555 1_555
C31 H33 1_555 1_555
H34 C31 1_555 1_555
C32 C31 1_555 1_555
H35 C32 1_555 1_555
H36 C32 1_555 1_555
C33 H37 1_555 1_555
H38 C33 1_555 1_555
C34 C33 1_555 1_555
C35 C34 1_555 1_555
C36 C35 1_555 1_555
H39 C36 1_555 1_555
H40 C36 1_555 1_555
N3 C28 1_555 1_555
N4 C30 1_555 1_555
O3 C19 1_555 1_555
O4 C22 1_555 1_555
C5 C6 1_555 1_555
C7 O1 1_555 1_555
C11 N1 1_555 1_555
C13 N2 1_555 1_555
C14 N1 1_555 1_555
C15 N2 1_555 1_555
C18 O2 1_555 1_555
C23 C24 1_555 1_555
C25 O3 1_555 1_555
C29 N3 1_555 1_555
C31 N4 1_555 1_555
C32 N3 1_555 1_555
C33 N4 1_555 1_555
C36 O4 1_555 1_555

#END
