
#######################################################################
#
#                 Cambridge Crystallographic Data Centre
#                                CCDC 
#
#######################################################################
#
# If this CIF has been generated from an entry in the Cambridge 
# Structural Database, then it will include bibliographic, chemical, 
# crystal, experimental, refinement or atomic coordinate data resulting 
# from the CCDC's data processing and validation procedures.
#
#######################################################################

data_NAVFOI
_chemical_formula_moiety         'C44 H61 N4 O8 1+,Br1 1-'
_chemical_name_systematic        
'1,4,7,10-tetrakis(2-(4-methoxyphenoxy)ethyl)-4,7,10-triaza-1-azoniacyclododecane bromide'
_symmetry_cell_setting           orthorhombic
_symmetry_space_group_name_H-M   'P b c n'
_symmetry_Int_Tables_number      60
_space_group_name_Hall           '-P 2n 2ab'
loop_
_symmetry_equiv_pos_site_id
_symmetry_equiv_pos_as_xyz
1 x,y,z
2 1/2-x,1/2-y,1/2+z
3 -x,y,1/2-z
4 1/2+x,1/2-y,-z
5 -x,-y,-z
6 1/2+x,1/2+y,1/2-z
7 x,-y,1/2+z
8 1/2-x,1/2+y,z
_cell_length_a                   17.3174(15)
_cell_length_b                   12.9891(11)
_cell_length_c                   19.3379(17)
_cell_angle_alpha                90
_cell_angle_beta                 90
_cell_angle_gamma                90
_cell_volume                     4349.82
_exptl_crystal_colour            colorless
_exptl_crystal_description       block
_cell_formula_units_Z            4
loop_
_atom_site_label
_atom_site_type_symbol
_atom_site_fract_x
_atom_site_fract_y
_atom_site_fract_z
C1 C 0.13900(14) 0.7747(2) 0.19525(13)
H1 H 0.1637 0.7202 0.1690
H2 H 0.1766 0.8292 0.2018
C2 C 0.10445(15) 0.81767(19) 0.31393(13)
H3 H 0.0766 0.8734 0.2918
H4 H 0.1544 0.8440 0.3282
C3 C 0.06020(15) 0.7829(2) 0.37716(13)
H5 H 0.0911 0.7331 0.4023
H6 H 0.0520 0.8416 0.4072
C4 C -0.07179(14) 0.81602(17) 0.34561(13)
H7 H -0.0475 0.8712 0.3197
H8 H -0.0907 0.8447 0.3887
C5 C 0.17288(18) 0.6586(2) 0.29041(15)
H9 H 0.1718 0.6601 0.3405
H10 H 0.2241 0.6796 0.2758
C6 C 0.1590(2) 0.5505(2) 0.26677(13)
H11 H 0.1865 0.5031 0.2967
H12 H 0.1044 0.5349 0.2696
C7 C 0.13952(10) 0.26377(10) 0.16746(8)
H13 H 0.1177 0.2070 0.1893
C8 C 0.16592(11) 0.25546(10) 0.09981(8)
C9 C 0.19848(11) 0.34029(12) 0.06711(7)
H14 H 0.2161 0.3347 0.0218
C10 C 0.20465(11) 0.43344(10) 0.10206(8)
H15 H 0.2264 0.4902 0.0802
C11 C 0.17826(10) 0.44176(10) 0.16971(8)
C12 C 0.14569(10) 0.35693(12) 0.20241(6)
H16 H 0.1280 0.3625 0.2477
C13 C -0.04180(18) 0.6673(2) 0.41545(15)
H17 H -0.0977 0.6714 0.4180
H18 H -0.0212 0.6901 0.4595
C14 C -0.01871(15) 0.5567(2) 0.40380(17)
H19 H -0.0488 0.5122 0.4337
H20 H -0.0293 0.5376 0.3563
C15 C 0.08879(8) 0.44507(9) 0.41387(8)
C16 C 0.16306(8) 0.43073(10) 0.43935(8)
H21 H 0.1903 0.4862 0.4575
C17 C 0.19661(7) 0.33355(11) 0.43765(8)
H22 H 0.2463 0.3240 0.4547
C18 C 0.15588(8) 0.25070(9) 0.41047(9)
C19 C 0.08160(8) 0.26502(9) 0.38499(9)
H23 H 0.0543 0.2096 0.3668
C20 C 0.04805(7) 0.36221(11) 0.38668(8)
H24 H -0.0016 0.3718 0.3696
C21 C 0.1508(2) 0.0715(2) 0.3918(2)
H25 H 0.1824 0.0111 0.3957
H26 H 0.1059 0.0640 0.4205
H27 H 0.1351 0.0801 0.3445
C22 C 0.1178(2) 0.0868(3) 0.0870(2)
H28 H 0.1188 0.0303 0.0551
H29 H 0.1392 0.0653 0.1305
H30 H 0.0654 0.1088 0.0937
N1 N 0.11588(12) 0.73392(16) 0.26369(10)
N2 N -0.01435(11) 0.73674(15) 0.36070(10)
O1 O 0.18464(12) 0.53787(14) 0.19790(9)
O2 O 0.16152(15) 0.16867(16) 0.06044(11)
O3 O 0.06072(10) 0.54351(13) 0.41789(10)
O4 O 0.19320(11) 0.15829(14) 0.41313(11)
C1B C -0.13900(14) 0.7747(2) 0.30475(13)
H1B H -0.1637 0.7202 0.3310
H2B H -0.1766 0.8292 0.2982
C2B C -0.10445(15) 0.81767(19) 0.18607(13)
H3B H -0.0766 0.8734 0.2082
H4B H -0.1544 0.8440 0.1718
C3B C -0.06020(15) 0.7829(2) 0.12284(13)
H5B H -0.0911 0.7331 0.0977
H6B H -0.0520 0.8416 0.0928
C4B C 0.07179(14) 0.81602(17) 0.15439(13)
H7B H 0.0475 0.8712 0.1803
H8B H 0.0907 0.8447 0.1113
C5B C -0.17288(18) 0.6586(2) 0.20959(15)
H9B H -0.1718 0.6601 0.1595
H10B H -0.2241 0.6796 0.2242
C6B C -0.1590(2) 0.5505(2) 0.23323(13)
H11B H -0.1865 0.5031 0.2033
H12B H -0.1044 0.5349 0.2304
C7B C -0.13952(10) 0.26377(10) 0.33254(8)
H13B H -0.1177 0.2070 0.3107
C8B C -0.16592(11) 0.25546(10) 0.40019(8)
C9B C -0.19848(11) 0.34029(12) 0.43289(7)
H14B H -0.2161 0.3347 0.4782
C10B C -0.20465(11) 0.43344(10) 0.39794(8)
H15B H -0.2264 0.4902 0.4198
C11B C -0.17826(10) 0.44176(10) 0.33029(8)
C12B C -0.14569(10) 0.35693(12) 0.29759(6)
H16B H -0.1280 0.3625 0.2523
C13B C 0.04180(18) 0.6673(2) 0.08455(15)
H17B H 0.0977 0.6714 0.0820
H18B H 0.0212 0.6901 0.0405
C14B C 0.01871(15) 0.5567(2) 0.09620(17)
H19B H 0.0488 0.5122 0.0663
H20B H 0.0293 0.5376 0.1437
C15B C -0.08879(8) 0.44507(9) 0.08613(8)
C16B C -0.16306(8) 0.43073(10) 0.06065(8)
H21B H -0.1903 0.4862 0.0425
C17B C -0.19661(7) 0.33355(11) 0.06235(8)
H22B H -0.2463 0.3240 0.0453
C18B C -0.15588(8) 0.25070(9) 0.08953(9)
C19B C -0.08160(8) 0.26502(9) 0.11501(9)
H23B H -0.0543 0.2096 0.1332
C20B C -0.04805(7) 0.36221(11) 0.11332(8)
H24B H 0.0016 0.3718 0.1304
C21B C -0.1508(2) 0.0715(2) 0.1082(2)
H25B H -0.1824 0.0111 0.1043
H26B H -0.1059 0.0640 0.0795
H27B H -0.1351 0.0801 0.1555
C22B C -0.1178(2) 0.0868(3) 0.4130(2)
H28B H -0.1188 0.0303 0.4449
H29B H -0.1392 0.0653 0.3695
H30B H -0.0654 0.1088 0.4063
N1B N -0.11588(12) 0.73392(16) 0.23631(10)
N2B N 0.01435(11) 0.73674(15) 0.13930(10)
O1B O -0.18464(12) 0.53787(14) 0.30210(9)
O2B O -0.16152(15) 0.16867(16) 0.43956(11)
O3B O -0.06072(10) 0.54351(13) 0.08211(10)
O4B O -0.19320(11) 0.15829(14) 0.08687(11)
Br1 Br 0.0000 0.06361(3) 0.2500
H31? H 0.0665 0.6981 0.2581
loop_
_geom_bond_atom_site_label_1
_geom_bond_atom_site_label_2
_geom_bond_site_symmetry_1
_geom_bond_site_symmetry_2
C1 H1 1_555 1_555
H2 C1 1_555 1_555
C2 H3 1_555 1_555
H4 C2 1_555 1_555
C3 C2 1_555 1_555
H5 C3 1_555 1_555
H6 C3 1_555 1_555
C4 H7 1_555 1_555
H8 C4 1_555 1_555
C5 H9 1_555 1_555
H10 C5 1_555 1_555
C6 C5 1_555 1_555
H11 C6 1_555 1_555
H12 C6 1_555 1_555
C7 H13 1_555 1_555
C8 C7 1_555 1_555
C9 C8 1_555 1_555
H14 C9 1_555 1_555
C10 C9 1_555 1_555
H15 C10 1_555 1_555
C11 C10 1_555 1_555
C12 C7 1_555 1_555
H16 C12 1_555 1_555
C13 H17 1_555 1_555
H18 C13 1_555 1_555
C14 C13 1_555 1_555
H19 C14 1_555 1_555
H20 C14 1_555 1_555
C15 C16 1_555 1_555
C16 H21 1_555 1_555
C17 C16 1_555 1_555
H22 C17 1_555 1_555
C18 C17 1_555 1_555
C19 C18 1_555 1_555
H23 C19 1_555 1_555
C20 C15 1_555 1_555
H24 C20 1_555 1_555
C21 H25 1_555 1_555
H26 C21 1_555 1_555
H27 C21 1_555 1_555
C22 H28 1_555 1_555
H29 C22 1_555 1_555
H30 C22 1_555 1_555
N1 C1 1_555 1_555
N2 C3 1_555 1_555
O1 C6 1_555 1_555
O2 C8 1_555 1_555
O3 C14 1_555 1_555
O4 C18 1_555 1_555
C1B C4 1_555 1_555
H1B C1B 1_555 1_555
H2B C1B 1_555 1_555
C2B H3B 1_555 1_555
H4B C2B 1_555 1_555
C3B C2B 1_555 1_555
H5B C3B 1_555 1_555
H6B C3B 1_555 1_555
C4B C1 1_555 1_555
H7B C4B 1_555 1_555
H8B C4B 1_555 1_555
C5B H9B 1_555 1_555
H10B C5B 1_555 1_555
C6B C5B 1_555 1_555
H11B C6B 1_555 1_555
H12B C6B 1_555 1_555
C7B H13B 1_555 1_555
C8B C7B 1_555 1_555
C9B C8B 1_555 1_555
H14B C9B 1_555 1_555
C10B C9B 1_555 1_555
H15B C10B 1_555 1_555
C11B C10B 1_555 1_555
C12B C7B 1_555 1_555
H16B C12B 1_555 1_555
C13B H17B 1_555 1_555
H18B C13B 1_555 1_555
C14B C13B 1_555 1_555
H19B C14B 1_555 1_555
H20B C14B 1_555 1_555
C15B C16B 1_555 1_555
C16B H21B 1_555 1_555
C17B C16B 1_555 1_555
H22B C17B 1_555 1_555
C18B C17B 1_555 1_555
C19B C18B 1_555 1_555
H23B C19B 1_555 1_555
C20B C15B 1_555 1_555
H24B C20B 1_555 1_555
C21B H25B 1_555 1_555
H26B C21B 1_555 1_555
H27B C21B 1_555 1_555
C22B H28B 1_555 1_555
H29B C22B 1_555 1_555
H30B C22B 1_555 1_555
N1B C1B 1_555 1_555
N2B C3B 1_555 1_555
O1B C6B 1_555 1_555
O2B C8B 1_555 1_555
O3B C14B 1_555 1_555
O4B C18B 1_555 1_555
C2 N1 1_555 1_555
C4 N2 1_555 1_555
C5 N1 1_555 1_555
C11 C12 1_555 1_555
C11 O1 1_555 1_555
C13 N2 1_555 1_555
C15 O3 1_555 1_555
C19 C20 1_555 1_555
C21 O4 1_555 1_555
C22 O2 1_555 1_555
C2B N1B 1_555 1_555
C4B N2B 1_555 1_555
C5B N1B 1_555 1_555
C11B C12B 1_555 1_555
C11B O1B 1_555 1_555
C13B N2B 1_555 1_555
C15B O3B 1_555 1_555
C19B C20B 1_555 1_555
C21B O4B 1_555 1_555
C22B O2B 1_555 1_555

#END
