
#######################################################################
#
#                 Cambridge Crystallographic Data Centre
#                                CCDC 
#
#######################################################################
#
# If this CIF has been generated from an entry in the Cambridge 
# Structural Database, then it will include bibliographic, chemical, 
# crystal, experimental, refinement or atomic coordinate data resulting 
# from the CCDC's data processing and validation procedures.
#
#######################################################################

data_NAVZOC
_chemical_formula_moiety         'C26 H11 N3 O6,3.38(C5 H12)'
_chemical_name_systematic        
'6,16,25-triazaoctacyclo[9.9.9.0^2,10^.0^4,8^.0^12,20^.0^14,18^.0^21,29^.0^23,27^]nonacosa-2(10),3,8,12(20),13,18,21(29),22,27-nonaene-5,7,15,17,24,26-hexone pentane solvate'
_symmetry_cell_setting           orthorhombic
_symmetry_space_group_name_H-M   'P n n a'
_symmetry_Int_Tables_number      52
_space_group_name_Hall           '-P 2a 2bc'
loop_
_symmetry_equiv_pos_site_id
_symmetry_equiv_pos_as_xyz
1 x,y,z
2 1/2-x,-y,z
3 1/2-x,1/2+y,1/2-z
4 x,1/2-y,1/2-z
5 -x,-y,-z
6 1/2+x,y,-z
7 1/2+x,1/2-y,1/2+z
8 -x,1/2+y,1/2+z
_cell_length_a                   14.5119(10)
_cell_length_b                   11.5733(8)
_cell_length_c                   22.7766(16)
_cell_angle_alpha                90
_cell_angle_beta                 90
_cell_angle_gamma                90
_cell_volume                     3825.34
_exptl_crystal_colour            colorless
_exptl_crystal_description       block
_cell_formula_units_Z            4
loop_
_atom_site_label
_atom_site_type_symbol
_atom_site_fract_x
_atom_site_fract_y
_atom_site_fract_z
O1 O 0.39707(6) 0.68789(8) 0.49326(5)
O2 O 0.62403(6) 0.96118(7) 0.48215(4)
O3 O 0.86368(7) 0.63743(8) 0.14322(4)
N1 N 0.7500 0.5000 0.12806(6)
H1 H 0.7500 0.5000 0.0899
N2 N 0.49632(8) 0.84417(9) 0.49510(6)
H2 H 0.4588 0.8956 0.5094
C1 C 0.81545(6) 0.57659(8) 0.38921(4)
H3 H 0.8653 0.6350 0.3893
C2 C 0.78516(6) 0.54181(8) 0.32747(4)
C3 C 0.82146(7) 0.58525(9) 0.27565(5)
H4 H 0.8684 0.6412 0.2755
C4 C 0.78447(7) 0.54144(9) 0.22400(5)
C5 C 0.80768(9) 0.56937(10) 0.16179(5)
C6 C 0.72749(6) 0.61882(8) 0.41851(4)
C7 C 0.71404(7) 0.72988(8) 0.44005(4)
H5 H 0.7618 0.7847 0.4409
C8 C 0.62637(8) 0.75516(9) 0.46025(5)
C9 C 0.55666(7) 0.67332(9) 0.46113(5)
C10 C 0.56985(7) 0.56179(9) 0.44064(5)
H6 H 0.5225 0.5064 0.4415
C11 C 0.65701(7) 0.53637(8) 0.41867(4)
C12 C 0.58691(9) 0.86705(9) 0.48039(5)
C13 C 0.47177(9) 0.72931(10) 0.48447(6)
O1A O 1.10293(6) 0.31211(8) 0.49326(5)
O2A O 0.87597(6) 0.03882(7) 0.48215(4)
O3A O 0.63632(7) 0.36257(8) 0.14322(4)
N2A N 1.00368(8) 0.15583(9) 0.49510(6)
H2A H 1.0412 0.1044 0.5094
C1A C 0.68455(6) 0.42341(8) 0.38921(4)
H3A H 0.6347 0.3650 0.3893
C2A C 0.71484(6) 0.45819(8) 0.32747(4)
C3A C 0.67854(7) 0.41475(9) 0.27565(5)
H4A H 0.6316 0.3588 0.2755
C4A C 0.71553(7) 0.45856(9) 0.22400(5)
C5A C 0.69232(9) 0.43063(10) 0.16179(5)
C6A C 0.77251(6) 0.38118(8) 0.41851(4)
C7A C 0.78596(7) 0.27012(8) 0.44005(4)
H5A H 0.7382 0.2153 0.4409
C8A C 0.87363(8) 0.24484(9) 0.46025(5)
C9A C 0.94334(7) 0.32668(9) 0.46113(5)
C10A C 0.93015(7) 0.43821(9) 0.44064(5)
H6A H 0.9775 0.4936 0.4415
C11A C 0.84299(7) 0.46363(8) 0.41867(4)
C12A C 0.91309(9) 0.13295(9) 0.48039(5)
C13A C 1.02823(9) 0.27069(10) 0.48447(6)
loop_
_geom_bond_atom_site_label_1
_geom_bond_atom_site_label_2
_geom_bond_site_symmetry_1
_geom_bond_site_symmetry_2
O1 C13 1_555 1_555
O2 C12 1_555 1_555
O3 C5 1_555 1_555
N1 H1 1_555 1_555
N2 H2 1_555 1_555
C1 H3 1_555 1_555
C2 C1 1_555 1_555
C3 C2 1_555 1_555
H4 C3 1_555 1_555
C4 C3 1_555 1_555
C5 N1 1_555 1_555
C6 C1 1_555 1_555
C7 C6 1_555 1_555
H5 C7 1_555 1_555
C8 C7 1_555 1_555
C9 C8 1_555 1_555
C10 C9 1_555 1_555
H6 C10 1_555 1_555
C11 C6 1_555 1_555
C12 N2 1_555 1_555
C13 N2 1_555 1_555
O1A C13A 1_555 1_555
O2A C12A 1_555 1_555
O3A C5A 1_555 1_555
N2A H2A 1_555 1_555
C1A C11 1_555 1_555
H3A C1A 1_555 1_555
C2A C2 1_555 1_555
C3A C2A 1_555 1_555
H4A C3A 1_555 1_555
C4A C4 1_555 1_555
C5A N1 1_555 1_555
C6A C1A 1_555 1_555
C7A C6A 1_555 1_555
H5A C7A 1_555 1_555
C8A C7A 1_555 1_555
C9A C8A 1_555 1_555
C10A C9A 1_555 1_555
H6A C10A 1_555 1_555
C11A C1 1_555 1_555
C12A N2A 1_555 1_555
C13A N2A 1_555 1_555
C4 C5 1_555 1_555
C8 C12 1_555 1_555
C9 C13 1_555 1_555
C10 C11 1_555 1_555
C1A C2A 1_555 1_555
C3A C4A 1_555 1_555
C4A C5A 1_555 1_555
C6A C11A 1_555 1_555
C8A C12A 1_555 1_555
C9A C13A 1_555 1_555
C10A C11A 1_555 1_555

#END
