
#######################################################################
#
#                 Cambridge Crystallographic Data Centre
#                                CCDC 
#
#######################################################################
#
# If this CIF has been generated from an entry in the Cambridge 
# Structural Database, then it will include bibliographic, chemical, 
# crystal, experimental, refinement or atomic coordinate data resulting 
# from the CCDC's data processing and validation procedures.
#
#######################################################################

data_NAWJUQ
_chemical_formula_moiety         'C17 H17 N3 O5,H2 O1'
_chemical_name_systematic        
'2-(4-bis(2-Hydroxyethyl)aminophenyl)-6-nitrobenzoxazole monohydrate'
_symmetry_cell_setting           orthorhombic
_symmetry_space_group_name_H-M   'P b c a'
_symmetry_Int_Tables_number      61
_space_group_name_Hall           '-P 2ac 2ab'
loop_
_symmetry_equiv_pos_site_id
_symmetry_equiv_pos_as_xyz
1 x,y,z
2 1/2-x,-y,1/2+z
3 1/2+x,1/2-y,-z
4 -x,1/2+y,1/2-z
5 -x,-y,-z
6 1/2+x,y,1/2-z
7 1/2-x,1/2+y,z
8 x,1/2-y,1/2+z
_cell_length_a                   39.789(5)
_cell_length_b                   7.198(7)
_cell_length_c                   11.841(6)
_cell_angle_alpha                90
_cell_angle_beta                 90
_cell_angle_gamma                90
_cell_volume                     3391.28
_exptl_crystal_colour            orange
_exptl_crystal_description       platelet
_cell_formula_units_Z            8
_exptl_crystal_recrystallization_method methanol/water
loop_
_atom_site_label
_atom_site_type_symbol
_atom_site_fract_x
_atom_site_fract_y
_atom_site_fract_z
O1 O 0.85468(7) 0.1175(5) 0.0446(2)
O2 O 0.87473(6) 0.0527(5) 0.2083(3)
O3 O 0.72868(6) 0.1065(4) 0.1208(2)
O4 O 0.54020(7) -0.2407(4) -0.0746(2)
O5 O 0.51959(6) 0.2927(4) 0.1760(3)
N1 N 0.85121(7) 0.0890(5) 0.1452(3)
N2 N 0.72030(7) 0.0965(5) 0.3097(2)
N3 N 0.57002(7) 0.0328(4) 0.0886(2)
C1 C 0.81712(8) 0.0941(6) 0.1941(3)
C2 C 0.81391(9) 0.0922(6) 0.3104(3)
C3 C 0.78234(9) 0.0941(6) 0.3586(3)
C4 C 0.75458(9) 0.0967(6) 0.2871(3)
C5 C 0.75959(8) 0.1039(6) 0.1713(3)
C6 C 0.79042(8) 0.0989(6) 0.1192(3)
C7 C 0.70613(8) 0.1003(5) 0.2107(3)
C8 C 0.67117(8) 0.0956(6) 0.1813(3)
C9 C 0.64686(8) 0.0471(5) 0.2609(3)
C10 C 0.61386(8) 0.0279(5) 0.2319(3)
C11 C 0.60300(8) 0.0573(5) 0.1190(3)
C12 C 0.62764(8) 0.1117(6) 0.0403(3)
C13 C 0.66049(8) 0.1286(6) 0.0701(3)
C14 C 0.55896(9) 0.0663(6) -0.0271(3)
C15 C 0.56282(9) -0.0966(6) -0.1036(3)
C16 C 0.54433(8) -0.0190(5) 0.1705(3)
C17 C 0.5326(1) 0.1424(6) 0.2407(3)
H1 H 0.548 -0.317 -0.012
H2 H 0.504 0.233 0.124
H3 H 0.833 0.091 0.357
H4 H 0.780 0.093 0.438
H5 H 0.793 0.100 0.040
H6 H 0.653 0.028 0.337
H7 H 0.598 -0.006 0.288
H8 H 0.621 0.136 -0.036
H9 H 0.676 0.165 0.015
H10 H 0.572 0.167 -0.057
H11 H 0.536 0.099 -0.026
H12 H 0.558 -0.059 -0.179
H13 H 0.585 -0.140 -0.098
H14 H 0.553 -0.112 0.219
H15 H 0.526 -0.068 0.131
H16 H 0.515 0.100 0.290
H17 H 0.551 0.186 0.284
O6 O 0.06467(7) 0.5089(5) 0.4328(3)
H18 H 0.067 0.498 0.514
H19 H 0.058 0.375 0.416
loop_
_geom_bond_atom_site_label_1
_geom_bond_atom_site_label_2
_geom_bond_site_symmetry_1
_geom_bond_site_symmetry_2
O1 N1 1_555 1_555
O2 N1 1_555 1_555
O3 C5 1_555 1_555
O4 C15 1_555 1_555
O5 C17 1_555 1_555
N1 C1 1_555 1_555
N2 C4 1_555 1_555
N3 C11 1_555 1_555
C1 C2 1_555 1_555
C2 C3 1_555 1_555
C3 C4 1_555 1_555
C4 C5 1_555 1_555
C5 C6 1_555 1_555
C6 C1 1_555 1_555
C7 O3 1_555 1_555
C8 C7 1_555 1_555
C9 C8 1_555 1_555
C10 C9 1_555 1_555
C11 C10 1_555 1_555
C12 C11 1_555 1_555
C13 C8 1_555 1_555
C14 N3 1_555 1_555
C15 C14 1_555 1_555
C16 N3 1_555 1_555
C17 C16 1_555 1_555
H1 O4 1_555 1_555
H2 O5 1_555 1_555
H3 C2 1_555 1_555
H4 C3 1_555 1_555
H5 C6 1_555 1_555
H6 C9 1_555 1_555
H7 C10 1_555 1_555
H8 C12 1_555 1_555
H9 C13 1_555 1_555
H10 C14 1_555 1_555
H11 C14 1_555 1_555
H12 C15 1_555 1_555
H13 C15 1_555 1_555
H14 C16 1_555 1_555
H15 C16 1_555 1_555
H16 C17 1_555 1_555
H17 C17 1_555 1_555
O6 H18 1_555 1_555
H19 O6 1_555 1_555
N2 C7 1_555 1_555
C12 C13 1_555 1_555

#END
