
#######################################################################
#
#                 Cambridge Crystallographic Data Centre
#                                CCDC 
#
#######################################################################
#
# If this CIF has been generated from an entry in the Cambridge 
# Structural Database, then it will include bibliographic, chemical, 
# crystal, experimental, refinement or atomic coordinate data resulting 
# from the CCDC's data processing and validation procedures.
#
#######################################################################

data_NAXCUM
_chemical_formula_moiety         'C30 H40 O6'
_chemical_name_systematic        
2-(8-Hydroxy-4a,8-dimethyl-3-oxodecahydronaphthalen-2-yl)-2,3a,6-trimethyl-5-(prop-1-en-2-yl)-6-vinyl-3a,6,7,8a-tetrahydrofuro[2,3-b][1]benzofuran-3,4(2H,5H)-dione
_symmetry_cell_setting           monoclinic
_symmetry_space_group_name_H-M   'P 21'
_symmetry_Int_Tables_number      4
_space_group_name_Hall           'P 2yb'
loop_
_symmetry_equiv_pos_site_id
_symmetry_equiv_pos_as_xyz
1 x,y,z
2 -x,1/2+y,-z
_cell_length_a                   12.260(3)
_cell_length_b                   8.2080(17)
_cell_length_c                   13.842(3)
_cell_angle_alpha                90
_cell_angle_beta                 98.404(4)
_cell_angle_gamma                90
_cell_volume                     1377.96
_exptl_crystal_colour            colorless
_exptl_crystal_description       prismatic
_cell_formula_units_Z            2
loop_
_atom_site_label
_atom_site_type_symbol
_atom_site_fract_x
_atom_site_fract_y
_atom_site_fract_z
O1 O 0.6768(2) 0.2524(5) -0.2296(2)
O2 O 0.95358(19) 0.4662(4) -0.00580(19)
O3 O 0.8179(2) 0.5694(4) 0.07438(18)
O4 O 0.5816(2) 0.3527(4) -0.0199(2)
O5 O 0.7226(3) 0.3504(4) 0.1958(2)
O6 O 0.7182(2) 1.0365(4) 0.3190(2)
H1 H 0.7231 1.1100 0.2797
C1 C 0.8333(4) 0.6679(6) -0.2738(4)
H2 H 0.8839 0.7519 -0.2482
C2 C 0.7458(4) 0.7378(6) -0.2884(4)
H3 H 0.7327 0.8268 -0.2501
H4 H 0.6914 0.7028 -0.3380
C3 C 0.9500(4) 0.1221(6) -0.2598(4)
H5 H 0.9832 0.0285 -0.2797
H6 H 0.9600 0.1512 -0.1942
C4 C 0.8876(5) 0.2152(9) -0.3258(4)
C5 C 0.8288(4) 0.3678(7) -0.2957(3)
H7 H 0.7741 0.3967 -0.3520
C6 C 0.7635(3) 0.3260(6) -0.2134(3)
C7 C 0.8142(3) 0.3686(5) -0.1169(3)
C8 C 0.9114(3) 0.4451(6) -0.0999(3)
C9 C 0.9784(4) 0.4989(7) -0.1760(3)
H8 H 1.0353 0.4189 -0.1818
H9 H 1.0141 0.6017 -0.1566
C10 C 0.9048(4) 0.5192(7) -0.2749(3)
C11 C 0.7796(3) 0.3247(5) -0.0174(3)
C12 C 0.8647(3) 0.4247(5) 0.0479(3)
H10 H 0.8934 0.3622 0.1064
C13 C 0.7763(4) 0.1419(6) -0.0008(3)
H11 H 0.8433 0.0936 -0.0154
H12 H 0.7146 0.0958 -0.0425
H13 H 0.7690 0.1207 0.0662
C14 C 0.8701(8) 0.1734(14) -0.4291(5)
H14 H 0.9357 0.1969 -0.4568
H15 H 0.8099 0.2363 -0.4621
H16 H 0.8532 0.0595 -0.4365
C15 C 0.9798(5) 0.5459(10) -0.3531(4)
H17 H 0.9354 0.5658 -0.4150
H18 H 1.0242 0.4506 -0.3576
H19 H 1.0268 0.6380 -0.3355
C16 C 0.6062(5) 0.6940(6) 0.4404(3)
H20 H 0.5289 0.6644 0.4262
H21 H 0.6410 0.6214 0.4911
C17 C 0.6152(5) 0.8668(7) 0.4780(3)
H22 H 0.5795 0.8755 0.5359
H23 H 0.6922 0.8954 0.4960
C18 C 0.5617(4) 0.9827(7) 0.4012(3)
H24 H 0.5713 1.0930 0.4261
H25 H 0.4832 0.9605 0.3891
C19 C 0.6075(3) 0.9728(6) 0.3044(3)
C20 C 0.6088(3) 0.7958(5) 0.2707(3)
H26 H 0.5312 0.7645 0.2541
C21 C 0.6587(3) 0.7747(5) 0.1766(3)
H27 H 0.7370 0.7986 0.1895
H28 H 0.6249 0.8521 0.1283
C22 C 0.6423(3) 0.6011(5) 0.1348(3)
H29 H 0.5631 0.5893 0.1124
C23 C 0.6721(3) 0.4711(5) 0.2119(3)
C24 C 0.6320(4) 0.4999(6) 0.3072(3)
H30 H 0.6646 0.4193 0.3540
H31 H 0.5526 0.4851 0.2986
C25 C 0.6599(4) 0.6703(6) 0.3485(3)
C26 C 0.7001(3) 0.5709(5) 0.0447(3)
C27 C 0.6733(3) 0.4066(5) 0.0002(2)
C28 C 0.6712(4) 0.7037(5) -0.0320(3)
H32 H 0.7067 0.8036 -0.0092
H33 H 0.5928 0.7195 -0.0431
H34 H 0.6959 0.6715 -0.0918
C29 C 0.5348(3) 1.0746(6) 0.2291(3)
H35 H 0.5222 1.1792 0.2565
H36 H 0.4656 1.0202 0.2106
H37 H 0.5708 1.0889 0.1725
C30 C 0.7842(4) 0.6846(7) 0.3735(3)
H38 H 0.8036 0.7953 0.3904
H39 H 0.8180 0.6526 0.3181
H40 H 0.8097 0.6148 0.4278
C31? C 0.8151(4) 0.7862(6) -0.2233(4)
H41? H 0.7854 0.6724 -0.3324
H42? H 0.7474 0.8394 -0.2351
H43? H 0.8690 0.8221 -0.1736
loop_
_geom_bond_atom_site_label_1
_geom_bond_atom_site_label_2
_geom_bond_site_symmetry_1
_geom_bond_site_symmetry_2
O1 C6 1_555 1_555
O2 C8 1_555 1_555
O3 C12 1_555 1_555
O4 C27 1_555 1_555
O5 C23 1_555 1_555
O6 H1 1_555 1_555
C1 H2 1_555 1_555
C2 C1 1_555 1_555
H3 C2 1_555 1_555
H4 C2 1_555 1_555
C3 H5 1_555 1_555
H6 C3 1_555 1_555
C4 C3 1_555 1_555
C5 C4 1_555 1_555
H7 C5 1_555 1_555
C6 C5 1_555 1_555
C7 C6 1_555 1_555
C8 C7 1_555 1_555
C9 C8 1_555 1_555
H8 C9 1_555 1_555
H9 C9 1_555 1_555
C10 C1 1_555 1_555
C11 C7 1_555 1_555
C12 O2 1_555 1_555
H10 C12 1_555 1_555
C13 C11 1_555 1_555
H11 C13 1_555 1_555
H12 C13 1_555 1_555
H13 C13 1_555 1_555
C14 C4 1_555 1_555
H14 C14 1_555 1_555
H15 C14 1_555 1_555
H16 C14 1_555 1_555
C15 C10 1_555 1_555
H17 C15 1_555 1_555
H18 C15 1_555 1_555
H19 C15 1_555 1_555
C16 H20 1_555 1_555
H21 C16 1_555 1_555
C17 C16 1_555 1_555
H22 C17 1_555 1_555
H23 C17 1_555 1_555
C18 C17 1_555 1_555
H24 C18 1_555 1_555
H25 C18 1_555 1_555
C19 O6 1_555 1_555
C20 C19 1_555 1_555
H26 C20 1_555 1_555
C21 C20 1_555 1_555
H27 C21 1_555 1_555
H28 C21 1_555 1_555
C22 C21 1_555 1_555
H29 C22 1_555 1_555
C23 C22 1_555 1_555
C24 C23 1_555 1_555
H30 C24 1_555 1_555
H31 C24 1_555 1_555
C25 C16 1_555 1_555
C26 O3 1_555 1_555
C27 C11 1_555 1_555
C28 C26 1_555 1_555
H32 C28 1_555 1_555
H33 C28 1_555 1_555
H34 C28 1_555 1_555
C29 C19 1_555 1_555
H35 C29 1_555 1_555
H36 C29 1_555 1_555
H37 C29 1_555 1_555
C30 C25 1_555 1_555
H38 C30 1_555 1_555
H39 C30 1_555 1_555
H40 C30 1_555 1_555
C5 C10 1_555 1_555
C9 C10 1_555 1_555
C11 C12 1_555 1_555
C18 C19 1_555 1_555
C20 C25 1_555 1_555
C22 C26 1_555 1_555
C24 C25 1_555 1_555
C26 C27 1_555 1_555

#END
