
#######################################################################
#
#                 Cambridge Crystallographic Data Centre
#                                CCDC 
#
#######################################################################
#
# If this CIF has been generated from an entry in the Cambridge 
# Structural Database, then it will include bibliographic, chemical, 
# crystal, experimental, refinement or atomic coordinate data resulting 
# from the CCDC's data processing and validation procedures.
#
#######################################################################

data_NAXYES
_chemical_name_common            C20H20NO2S
_chemical_formula_moiety         'C20 H21 N1 O2 S1'
_chemical_name_systematic        10-Hexyl-10H-phenothiazine-3,7-dicarbaldehyde
_symmetry_cell_setting           monoclinic
_symmetry_space_group_name_H-M   'P 21/c'
_symmetry_Int_Tables_number      14
_space_group_name_Hall           '-P 2ybc'
loop_
_symmetry_equiv_pos_site_id
_symmetry_equiv_pos_as_xyz
1 x,y,z
2 -x,1/2+y,1/2-z
3 -x,-y,-z
4 x,1/2-y,1/2+z
_cell_length_a                   11.2291(19)
_cell_length_b                   21.114(4)
_cell_length_c                   23.004(4)
_cell_angle_alpha                90
_cell_angle_beta                 97.736(3)
_cell_angle_gamma                90
_cell_volume                     5404.41
_exptl_crystal_colour            yellow
_exptl_crystal_description       block
_cell_formula_units_Z            12
loop_
_atom_site_label
_atom_site_type_symbol
_atom_site_fract_x
_atom_site_fract_y
_atom_site_fract_z
C1 C 0.5253(3) 0.19702(12) 0.18748(12)
C2 C 0.5836(3) 0.14160(14) 0.20592(13)
H1 H 0.5380 0.1039 0.2077
C3 C 0.7073(3) 0.13961(17) 0.22187(14)
C4 C 0.7713(3) 0.19479(19) 0.21955(15)
H2 H 0.8560 0.1944 0.2305
C5 C 0.7142(3) 0.25134(15) 0.20140(14)
H3 H 0.7604 0.2889 0.2002
C6 C 0.5908(2) 0.25347(13) 0.18500(12)
C7 C 0.4124(2) 0.32250(12) 0.17111(11)
C8 C 0.3310(2) 0.27239(11) 0.17655(11)
C9 C 0.2161(3) 0.28500(13) 0.18697(11)
H4 H 0.1640 0.2507 0.1924
C10 C 0.1739(3) 0.34641(13) 0.18974(12)
C11 C 0.2508(3) 0.39508(13) 0.18098(12)
H5 H 0.2227 0.4375 0.1811
C12 C 0.3672(3) 0.38374(12) 0.17213(11)
H6 H 0.4182 0.4185 0.1666
C13 C 0.7695(4) 0.0804(2) 0.23954(18)
H7 H 0.8527 0.0832 0.2540
C14 C 0.0502(3) 0.35893(18) 0.20073(13)
H8 H 0.0292 0.4019 0.2060
C15 C 0.6092(3) 0.36492(12) 0.15545(12)
H9 H 0.5628 0.3936 0.1268
H10 H 0.6793 0.3495 0.1376
C16 C 0.6550(3) 0.40277(12) 0.21040(12)
H11 H 0.5862 0.4240 0.2250
H12 H 0.6915 0.3733 0.2413
C17 C 0.7456(3) 0.45137(14) 0.19961(14)
H13 H 0.7127 0.4779 0.1657
H14 H 0.8186 0.4300 0.1896
C18 C 0.7805(3) 0.49499(16) 0.25489(15)
H15 H 0.7092 0.5204 0.2611
H16 H 0.8006 0.4675 0.2897
C19 C 0.8795(3) 0.53747(18) 0.25155(19)
H17 H 0.8624 0.5637 0.2157
H18 H 0.9529 0.5125 0.2484
C20 C 0.9018(4) 0.58015(17) 0.30423(17)
H19 H 0.8261 0.5999 0.3112
H20 H 0.9595 0.6131 0.2971
H21 H 0.9344 0.5552 0.3387
N1 N 0.5330(2) 0.31035(10) 0.16549(9)
O1 O 0.7258(3) 0.02942(15) 0.23749(16)
O2 O -0.0269(2) 0.32006(13) 0.20375(13)
S1 S 0.37069(7) 0.19417(3) 0.16305(4)
C21 C 0.3227(2) 0.20278(13) 0.33863(12)
C22 C 0.3818(3) 0.14570(14) 0.34461(13)
H22 H 0.3363 0.1079 0.3458
C23 C 0.5055(3) 0.14173(16) 0.34889(13)
C24 C 0.5694(3) 0.19701(18) 0.34849(13)
H23 H 0.6544 0.1953 0.3507
C25 C 0.5125(3) 0.25537(16) 0.34493(12)
H24 H 0.5593 0.2929 0.3461
C26 C 0.3875(2) 0.25985(13) 0.33962(11)
C27 C 0.2115(2) 0.32802(13) 0.34542(11)
C28 C 0.1686(3) 0.38805(14) 0.35666(13)
H25 H 0.2219 0.4231 0.3581
C29 C 0.0519(3) 0.39812(16) 0.36571(14)
H26 H 0.0256 0.4399 0.3727
C30 C -0.0272(3) 0.34876(17) 0.36480(13)
C31 C 0.0126(3) 0.28837(14) 0.35435(12)
H27 H -0.0414 0.2537 0.3542
C32 C 0.1285(2) 0.27745(12) 0.34415(11)
C33 C 0.5668(4) 0.0806(2) 0.35372(17)
H28 H 0.6518 0.0804 0.3553
C34 C -0.1526(4) 0.3644(2) 0.37611(17)
H29 H -0.1709 0.4071 0.3845
C35 C 0.4029(3) 0.37531(13) 0.32706(12)
H30 H 0.3508 0.4081 0.3060
H31 H 0.4649 0.3638 0.3021
C36 C 0.4651(3) 0.40362(14) 0.38432(13)
H32 H 0.4043 0.4124 0.4107
H33 H 0.5229 0.3725 0.4040
C37 C 0.5296(3) 0.46300(14) 0.37416(14)
H34 H 0.4704 0.4943 0.3559
H35 H 0.5863 0.4542 0.3457
C38 C 0.5990(3) 0.49246(14) 0.42848(14)
H36 H 0.5414 0.5018 0.4564
H37 H 0.6561 0.4604 0.4471
C39 C 0.6648(5) 0.5487(2) 0.42103(19)
H38 H 0.6067 0.5807 0.4031
H39 H 0.7198 0.5393 0.3920
C40 C 0.7362(4) 0.57865(19) 0.47147(19)
H40 H 0.6834 0.6034 0.4934
H41 H 0.7962 0.6067 0.4578
H42 H 0.7770 0.5459 0.4971
N2 N 0.3292(2) 0.31864(10) 0.33480(9)
O3 O 0.5166(3) 0.03015(15) 0.35580(16)
O4 O -0.2255(3) 0.32804(16) 0.37509(15)
S2 S 0.16565(7) 0.20077(3) 0.32488(4)
C41 C 0.2788(3) 0.16188(15) 0.50459(11)
C42 C 0.3197(3) 0.22394(15) 0.50372(14)
H43 H 0.2643 0.2579 0.5043
C43 C 0.4402(4) 0.23710(17) 0.50202(14)
H44 H 0.4653 0.2800 0.5010
C44 C 0.5247(3) 0.18980(16) 0.50172(14)
C45 C 0.4834(3) 0.12753(15) 0.50169(12)
H45 H 0.5395 0.0939 0.5016
C46 C 0.3651(3) 0.11353(13) 0.50180(11)
C47 C 0.1245(3) 0.09041(14) 0.53274(11)
C48 C 0.0167(3) 0.08540(16) 0.55689(12)
H46 H -0.0359 0.1207 0.5561
C49 C -0.0128(3) 0.02926(18) 0.58174(13)
H47 H -0.0877 0.0262 0.5964
C50 C 0.0624(3) -0.02281(16) 0.58613(12)
C51 C 0.1669(3) -0.01788(14) 0.56063(12)
H48 H 0.2192 -0.0534 0.5620
C52 C 0.1976(2) 0.03650(14) 0.53334(12)
C53 C 0.6522(4) 0.2043(2) 0.50182(17)
H49 H 0.6737 0.2476 0.4988
C54 C 0.0306(4) -0.08075(19) 0.61498(15)
H50 H -0.0473 -0.0828 0.6268
C55 C 0.0675(3) 0.19740(14) 0.49422(13)
H51 H -0.0103 0.1772 0.4795
H52 H 0.0910 0.2237 0.4620
C56 C 0.0479(3) 0.24128(14) 0.54497(13)
H53 H 0.0149 0.2168 0.5758
H54 H 0.1256 0.2598 0.5623
C57 C -0.0385(3) 0.29358(14) 0.52291(15)
H55 H 0.0015 0.3214 0.4968
H56 H -0.1089 0.2742 0.4989
C58 C -0.0819(4) 0.33313(17) 0.56800(18)
H57 H -0.0131 0.3552 0.5908
H58 H -0.1201 0.3060 0.5953
C59 C -0.1740(12) 0.3827(5) 0.5398(5)
H59 H -0.1377 0.4077 0.5103
H60 H -0.2455 0.3606 0.5194
C60 C -0.2113(9) 0.4258(4) 0.5852(4)
H61 H -0.2801 0.4075 0.6012
H62 H -0.2339 0.4671 0.5675
H63 H -0.1443 0.4313 0.6168
N3 N 0.1579(2) 0.14700(11) 0.50721(10)
O5 O 0.7318(2) 0.16612(15) 0.50538(14)
O6 O 0.0943(3) -0.12582(13) 0.62502(12)
S3 S 0.31769(7) 0.03470(4) 0.49217(4)
C61? C -0.1323(14) 0.3989(6) 0.5515(11)
C62? C -0.2652(13) 0.3932(10) 0.5610(8)
H64? H -0.0129 0.3540 0.5918
H65? H -0.1233 0.3064 0.5944
H66? H -0.1250 0.4091 0.5101
H67? H -0.0905 0.4319 0.5771
H68? H -0.3089 0.3681 0.5291
H69? H -0.3008 0.4355 0.5612
H70? H -0.2703 0.3722 0.5986
loop_
_geom_bond_atom_site_label_1
_geom_bond_atom_site_label_2
_geom_bond_site_symmetry_1
_geom_bond_site_symmetry_2
C1 C2 1_555 1_555
C2 H1 1_555 1_555
C3 C2 1_555 1_555
C4 C3 1_555 1_555
H2 C4 1_555 1_555
C5 C4 1_555 1_555
H3 C5 1_555 1_555
C6 C1 1_555 1_555
C7 C8 1_555 1_555
C8 C9 1_555 1_555
C9 H4 1_555 1_555
C10 C9 1_555 1_555
C11 C10 1_555 1_555
H5 C11 1_555 1_555
C12 C7 1_555 1_555
H6 C12 1_555 1_555
C13 C3 1_555 1_555
H7 C13 1_555 1_555
C14 C10 1_555 1_555
H8 C14 1_555 1_555
C15 H9 1_555 1_555
H10 C15 1_555 1_555
C16 C15 1_555 1_555
H11 C16 1_555 1_555
H12 C16 1_555 1_555
C17 C16 1_555 1_555
H13 C17 1_555 1_555
H14 C17 1_555 1_555
C18 C17 1_555 1_555
H15 C18 1_555 1_555
H16 C18 1_555 1_555
C19 C18 1_555 1_555
H17 C19 1_555 1_555
H18 C19 1_555 1_555
C20 C19 1_555 1_555
H19 C20 1_555 1_555
H20 C20 1_555 1_555
H21 C20 1_555 1_555
C21 C22 1_555 1_555
C22 H22 1_555 1_555
C23 C22 1_555 1_555
C24 C23 1_555 1_555
H23 C24 1_555 1_555
C25 C24 1_555 1_555
H24 C25 1_555 1_555
C26 C21 1_555 1_555
C27 C28 1_555 1_555
C28 H25 1_555 1_555
C29 C28 1_555 1_555
H26 C29 1_555 1_555
C30 C29 1_555 1_555
C31 C30 1_555 1_555
H27 C31 1_555 1_555
C32 C27 1_555 1_555
C33 C23 1_555 1_555
H28 C33 1_555 1_555
C34 C30 1_555 1_555
H29 C34 1_555 1_555
C35 H30 1_555 1_555
H31 C35 1_555 1_555
C36 C35 1_555 1_555
H32 C36 1_555 1_555
H33 C36 1_555 1_555
C37 C36 1_555 1_555
H34 C37 1_555 1_555
H35 C37 1_555 1_555
C38 C37 1_555 1_555
H36 C38 1_555 1_555
H37 C38 1_555 1_555
C39 C38 1_555 1_555
H38 C39 1_555 1_555
H39 C39 1_555 1_555
C40 C39 1_555 1_555
H40 C40 1_555 1_555
H41 C40 1_555 1_555
H42 C40 1_555 1_555
C41 C42 1_555 1_555
C42 H43 1_555 1_555
C43 C42 1_555 1_555
H44 C43 1_555 1_555
C44 C43 1_555 1_555
C45 C44 1_555 1_555
H45 C45 1_555 1_555
C46 C41 1_555 1_555
C47 C48 1_555 1_555
C48 H46 1_555 1_555
C49 C48 1_555 1_555
H47 C49 1_555 1_555
C50 C49 1_555 1_555
C51 C50 1_555 1_555
H48 C51 1_555 1_555
C52 C47 1_555 1_555
C53 C44 1_555 1_555
H49 C53 1_555 1_555
C54 C50 1_555 1_555
H50 C54 1_555 1_555
C55 H51 1_555 1_555
H52 C55 1_555 1_555
C56 C55 1_555 1_555
H53 C56 1_555 1_555
H54 C56 1_555 1_555
C57 C56 1_555 1_555
H55 C57 1_555 1_555
H56 C57 1_555 1_555
C58 C57 1_555 1_555
H57 C58 1_555 1_555
H58 C58 1_555 1_555
C59 C58 1_555 1_555
H59 C59 1_555 1_555
H60 C59 1_555 1_555
C60 C59 1_555 1_555
H61 C60 1_555 1_555
H62 C60 1_555 1_555
H63 C60 1_555 1_555
N1 C6 1_555 1_555
N2 C26 1_555 1_555
N3 C41 1_555 1_555
O1 C13 1_555 1_555
O2 C14 1_555 1_555
O3 C33 1_555 1_555
O4 C34 1_555 1_555
O5 C53 1_555 1_555
O6 C54 1_555 1_555
S1 C1 1_555 1_555
S2 C21 1_555 1_555
S3 C46 1_555 1_555
C5 C6 1_555 1_555
C7 N1 1_555 1_555
C8 S1 1_555 1_555
C11 C12 1_555 1_555
C15 N1 1_555 1_555
C25 C26 1_555 1_555
C27 N2 1_555 1_555
C31 C32 1_555 1_555
C32 S2 1_555 1_555
C35 N2 1_555 1_555
C45 C46 1_555 1_555
C47 N3 1_555 1_555
C51 C52 1_555 1_555
C52 S3 1_555 1_555
C55 N3 1_555 1_555

#END
