
#######################################################################
#
#                 Cambridge Crystallographic Data Centre
#                                CCDC 
#
#######################################################################
#
# If this CIF has been generated from an entry in the Cambridge 
# Structural Database, then it will include bibliographic, chemical, 
# crystal, experimental, refinement or atomic coordinate data resulting 
# from the CCDC's data processing and validation procedures.
#
#######################################################################

data_NAYWIW
_chemical_formula_moiety         'C36 H46 S4 Si2'
_chemical_name_systematic        
"[thieno[3,2-b]thieno[2',3':4,5]thieno[2,3-f][1]benzothiene-5,10-diylbis(ethyne-2,1-diyl)]bis[tris(propan-2-yl)silane]"
_symmetry_cell_setting           triclinic
_symmetry_space_group_name_H-M   'P -1'
_symmetry_Int_Tables_number      2
_space_group_name_Hall           '-P 1'
loop_
_symmetry_equiv_pos_site_id
_symmetry_equiv_pos_as_xyz
1 x,y,z
2 -x,-y,-z
_cell_length_a                   8.132(2)
_cell_length_b                   10.605(3)
_cell_length_c                   11.156(3)
_cell_angle_alpha                71.057(9)
_cell_angle_beta                 81.281(9)
_cell_angle_gamma                86.518(11)
_cell_volume                     899.402
_exptl_crystal_colour            yellow
_exptl_crystal_description       block
_cell_formula_units_Z            1
loop_
_atom_site_label
_atom_site_type_symbol
_atom_site_fract_x
_atom_site_fract_y
_atom_site_fract_z
S1 S 0.91046(7) 0.44292(5) 0.21414(5)
S2 S 0.76070(7) 0.28831(5) -0.05170(5)
Si1 Si 0.61187(7) 0.78503(5) 0.35552(5)
C1 C 1.0610(3) 0.3308(2) 0.1854(2)
H1 H 1.1564 0.3116 0.2249
C2 C 1.0277(3) 0.2729(2) 0.0998(2)
H2 H 1.0961 0.2105 0.0736
C3 C 0.8735(3) 0.3210(2) 0.05571(19)
C4 C 0.7962(3) 0.41416(19) 0.10778(18)
C5 C 0.6436(2) 0.46685(18) 0.06015(17)
C6 C 0.6081(2) 0.40437(18) -0.02766(18)
C7 C 0.5345(2) 0.56472(18) 0.08815(17)
C8 C 0.5677(2) 0.63070(19) 0.17539(19)
C9 C 0.5916(3) 0.6881(2) 0.2479(2)
C10 C 0.8182(3) 0.8737(2) 0.3029(2)
H3 H 0.9002 0.8099 0.3455
C11 C 0.8799(4) 0.9110(3) 0.1606(2)
H4 H 0.8840 0.8329 0.1345
H5 H 0.9891 0.9479 0.1432
H6 H 0.8054 0.9757 0.1139
C12 C 0.8196(3) 0.9929(2) 0.3511(2)
H7 H 0.7419 1.0595 0.3113
H8 H 0.9292 1.0297 0.3299
H9 H 0.7885 0.9644 0.4422
C13 C 0.6042(3) 0.6638(2) 0.5227(2)
H10 H 0.5091 0.6057 0.5366
C14 C 0.7587(3) 0.5736(2) 0.5412(2)
H11 H 0.7747 0.5284 0.4783
H12 H 0.7439 0.5091 0.6253
H13 H 0.8543 0.6266 0.5316
C15 C 0.5727(3) 0.7338(2) 0.6248(2)
H14 H 0.6612 0.7947 0.6122
H15 H 0.5682 0.6685 0.7083
H16 H 0.4688 0.7820 0.6180
C16 C 0.4267(3) 0.9009(2) 0.3446(2)
H17 H 0.4361 0.9543 0.4003
C17 C 0.2633(3) 0.8238(3) 0.3951(3)
H18 H 0.2491 0.7711 0.3420
H19 H 0.1718 0.8857 0.3937
H20 H 0.2667 0.7665 0.4813
C18 C 0.4201(4) 0.9988(3) 0.2091(3)
H21 H 0.5169 1.0538 0.1827
H22 H 0.3220 1.0540 0.2092
H23 H 0.4171 0.9497 0.1507
S1A S 0.08954(7) 0.55708(5) -0.21414(5)
S2A S 0.23930(7) 0.71169(5) 0.05170(5)
Si1A Si 0.38813(7) 0.21497(5) -0.35552(5)
C1A C -0.0610(3) 0.6692(2) -0.1854(2)
H1A H -0.1564 0.6884 -0.2249
C2A C -0.0277(3) 0.7271(2) -0.0998(2)
H2A H -0.0961 0.7895 -0.0736
C3A C 0.1265(3) 0.6790(2) -0.05571(19)
C4A C 0.2038(3) 0.58584(19) -0.10778(18)
C5A C 0.3564(2) 0.53315(18) -0.06015(17)
C6A C 0.3919(2) 0.59563(18) 0.02766(18)
C7A C 0.4655(2) 0.43528(18) -0.08815(17)
C8A C 0.4323(2) 0.36930(19) -0.17539(19)
C9A C 0.4084(3) 0.3119(2) -0.2479(2)
C10A C 0.1818(3) 0.1263(2) -0.3029(2)
H3A H 0.0998 0.1901 -0.3455
C11A C 0.1201(4) 0.0890(3) -0.1606(2)
H4A H 0.1160 0.1671 -0.1345
H5A H 0.0109 0.0521 -0.1432
H6A H 0.1946 0.0243 -0.1139
C12A C 0.1804(3) 0.0071(2) -0.3511(2)
H7A H 0.2581 -0.0595 -0.3113
H8A H 0.0708 -0.0297 -0.3299
H9A H 0.2115 0.0356 -0.4422
C13A C 0.3958(3) 0.3362(2) -0.5227(2)
H10A H 0.4909 0.3943 -0.5366
C14A C 0.2413(3) 0.4264(2) -0.5412(2)
H11A H 0.2253 0.4716 -0.4783
H12A H 0.2561 0.4909 -0.6253
H13A H 0.1457 0.3734 -0.5316
C15A C 0.4273(3) 0.2662(2) -0.6248(2)
H14A H 0.3388 0.2053 -0.6122
H15A H 0.4318 0.3315 -0.7083
H16A H 0.5312 0.2180 -0.6180
C16A C 0.5733(3) 0.0991(2) -0.3446(2)
H17A H 0.5639 0.0457 -0.4003
C17A C 0.7367(3) 0.1762(3) -0.3951(3)
H18A H 0.7509 0.2289 -0.3420
H19A H 0.8282 0.1143 -0.3937
H20A H 0.7333 0.2335 -0.4813
C18A C 0.5799(4) 0.0012(3) -0.2091(3)
H21A H 0.4831 -0.0538 -0.1827
H22A H 0.6780 -0.0540 -0.2092
H23A H 0.5829 0.0503 -0.1507
loop_
_geom_bond_atom_site_label_1
_geom_bond_atom_site_label_2
_geom_bond_site_symmetry_1
_geom_bond_site_symmetry_2
S1 C1 1_555 1_555
S2 C3 1_555 1_555
Si1 C9 1_555 1_555
C1 H1 1_555 1_555
C2 C1 1_555 1_555
H2 C2 1_555 1_555
C3 C2 1_555 1_555
C4 S1 1_555 1_555
C5 C4 1_555 1_555
C6 S2 1_555 1_555
C7 C5 1_555 1_555
C8 C7 1_555 1_555
C9 C8 1_555 1_555
C10 Si1 1_555 1_555
H3 C10 1_555 1_555
C11 C10 1_555 1_555
H4 C11 1_555 1_555
H5 C11 1_555 1_555
H6 C11 1_555 1_555
C12 C10 1_555 1_555
H7 C12 1_555 1_555
H8 C12 1_555 1_555
H9 C12 1_555 1_555
C13 Si1 1_555 1_555
H10 C13 1_555 1_555
C14 C13 1_555 1_555
H11 C14 1_555 1_555
H12 C14 1_555 1_555
H13 C14 1_555 1_555
C15 C13 1_555 1_555
H14 C15 1_555 1_555
H15 C15 1_555 1_555
H16 C15 1_555 1_555
C16 Si1 1_555 1_555
H17 C16 1_555 1_555
C17 C16 1_555 1_555
H18 C17 1_555 1_555
H19 C17 1_555 1_555
H20 C17 1_555 1_555
C18 C16 1_555 1_555
H21 C18 1_555 1_555
H22 C18 1_555 1_555
H23 C18 1_555 1_555
S1A C1A 1_555 1_555
S2A C3A 1_555 1_555
Si1A C9A 1_555 1_555
C1A H1A 1_555 1_555
C2A C1A 1_555 1_555
H2A C2A 1_555 1_555
C3A C2A 1_555 1_555
C4A S1A 1_555 1_555
C5A C4A 1_555 1_555
C6A C7 1_555 1_555
C7A C6 1_555 1_555
C8A C7A 1_555 1_555
C9A C8A 1_555 1_555
C10A Si1A 1_555 1_555
H3A C10A 1_555 1_555
C11A C10A 1_555 1_555
H4A C11A 1_555 1_555
H5A C11A 1_555 1_555
H6A C11A 1_555 1_555
C12A C10A 1_555 1_555
H7A C12A 1_555 1_555
H8A C12A 1_555 1_555
H9A C12A 1_555 1_555
C13A Si1A 1_555 1_555
H10A C13A 1_555 1_555
C14A C13A 1_555 1_555
H11A C14A 1_555 1_555
H12A C14A 1_555 1_555
H13A C14A 1_555 1_555
C15A C13A 1_555 1_555
H14A C15A 1_555 1_555
H15A C15A 1_555 1_555
H16A C15A 1_555 1_555
C16A Si1A 1_555 1_555
H17A C16A 1_555 1_555
C17A C16A 1_555 1_555
H18A C17A 1_555 1_555
H19A C17A 1_555 1_555
H20A C17A 1_555 1_555
C18A C16A 1_555 1_555
H21A C18A 1_555 1_555
H22A C18A 1_555 1_555
H23A C18A 1_555 1_555
C3 C4 1_555 1_555
C5 C6 1_555 1_555
S2A C6A 1_555 1_555
C3A C4A 1_555 1_555
C5A C6A 1_555 1_555
C5A C7A 1_555 1_555

#END
