
#######################################################################
#
#                 Cambridge Crystallographic Data Centre
#                                CCDC 
#
#######################################################################
#
# If this CIF has been generated from an entry in the Cambridge 
# Structural Database, then it will include bibliographic, chemical, 
# crystal, experimental, refinement or atomic coordinate data resulting 
# from the CCDC's data processing and validation procedures.
#
#######################################################################

data_NAZBUL
_chemical_formula_moiety         'C23 H47 N1 O7 Si2'
_chemical_name_systematic        
'Methyl 2-amino-2-deoxy-3,4-di-t-butyldimethylsilyl-6,7-O-isopropylidene-\b-D-gluco-2-heptulofuranosonate'
_symmetry_cell_setting           monoclinic
_symmetry_space_group_name_H-M   'P 21'
_symmetry_Int_Tables_number      4
_space_group_name_Hall           'P 2yb'
loop_
_symmetry_equiv_pos_site_id
_symmetry_equiv_pos_as_xyz
1 x,y,z
2 -x,1/2+y,-z
_cell_length_a                   7.151(2)
_cell_length_b                   12.028(4)
_cell_length_c                   17.227(6)
_cell_angle_alpha                90
_cell_angle_beta                 90.00
_cell_angle_gamma                90
_cell_volume                     1481.73
_exptl_crystal_colour            white
_chemical_melting_point          76-78deg.C
_cell_formula_units_Z            2
loop_
_atom_site_label
_atom_site_type_symbol
_atom_site_fract_x
_atom_site_fract_y
_atom_site_fract_z
Si1 Si 0.51755(7) -0.28424(5) 0.68326(3)
Si2 Si 0.31391(6) -0.01938(5) 0.93424(2)
O1 O 0.4301(2) 0.01494(1) 0.85585(7)
O2 O 0.5416(2) -0.1469(1) 0.68649(7)
O3 O 0.1497(2) 0.1902(1) 0.7366(1)
O4 O 0.6260(2) 0.0984(1) 0.71274(9)
O5 O 0.8452(2) 0.0172(1) 0.60917(9)
O6 O 0.2550(2) 0.3643(1) 0.7093(2)
O7 O 0.9830(2) -0.1032(2) 0.6879(1)
N1 N 0.8371(2) 0.0271(2) 0.8071(1)
C1 C 0.4088(2) -0.0158(2) 0.77810(9)
C2 C 0.4282(2) 0.0822(1) 0.72183(9)
C3 C 0.5787(2) -0.0867(1) 0.75485(9)
C4 C 0.3493(2) 0.1917(1) 0.7485(1)
C5 C 0.0901(3) 0.3021(2) 0.7207(1)
C6 C 0.7288(2) 0.0038(1) 0.7383(1)
C7 C 0.8656(2) -0.0341(2) 0.6758(1)
C8 C 0.5083(3) -0.3184(2) 0.5767(1)
C9 C 0.4978(3) -0.0380(2) 1.0128(1)
C10 C -0.0323(4) 0.2995(3) 0.6499(2)
C11 C 0.6485(4) -0.1206(2) 0.9860(2)
C12 C 0.4078(3) 0.2910(2) 0.7005(1)
C13 C 0.5933(4) 0.0718(2) 1.0305(1)
C14 C 0.1814(3) -0.1492(2) 0.9157(1)
C15 C 0.3006(4) -0.3272(2) 0.7334(2)
C16 C 0.7186(5) -0.3517(3) 0.7323(2)
C17 C 0.4983(5) -0.4436(3) 0.5651(2)
C18 C 0.1481(3) 0.0930(2) 0.9618(1)
C19 C -0.0076(5) 0.3490(3) 0.7904(2)
C20 C 0.9797(4) -0.0108(3) 0.5505(2)
C21 C 0.3373(5) -0.2646(3) 0.5391(2)
C22 C 0.4083(5) -0.0833(3) 1.0860(2)
C23 C 0.6830(5) -0.2717(4) 0.5364(2)
loop_
_geom_bond_atom_site_label_1
_geom_bond_atom_site_label_2
_geom_bond_site_symmetry_1
_geom_bond_site_symmetry_2
Si1 O2 1_555 1_555
Si2 O1 1_555 1_555
O1 C1 1_555 1_555
O2 C3 1_555 1_555
O3 C4 1_555 1_555
O4 C2 1_555 1_555
O5 C7 1_555 1_555
O6 C5 1_555 1_555
O7 C7 1_555 1_555
N1 C6 1_555 1_555
C1 C2 1_555 1_555
C2 C4 1_555 1_555
C3 C1 1_555 1_555
C4 C12 1_555 1_555
C5 O3 1_555 1_555
C6 O4 1_555 1_555
C7 C6 1_555 1_555
C8 Si1 1_555 1_555
C9 Si2 1_555 1_555
C10 C5 1_555 1_555
C11 C9 1_555 1_555
C12 O6 1_555 1_555
C13 C9 1_555 1_555
C14 Si2 1_555 1_555
C15 Si1 1_555 1_555
C16 Si1 1_555 1_555
C17 C8 1_555 1_555
C18 Si2 1_555 1_555
C19 C5 1_555 1_555
C20 O5 1_555 1_555
C21 C8 1_555 1_555
C22 C9 1_555 1_555
C23 C8 1_555 1_555
C3 C6 1_555 1_555

#END
