
#######################################################################
#
#                 Cambridge Crystallographic Data Centre
#                                CCDC 
#
#######################################################################
#
# If this CIF has been generated from an entry in the Cambridge 
# Structural Database, then it will include bibliographic, chemical, 
# crystal, experimental, refinement or atomic coordinate data resulting 
# from the CCDC's data processing and validation procedures.
#
#######################################################################

data_NAZFUR
_chemical_formula_moiety         'C29 H34 O9'
_chemical_name_systematic        
2,3,4,6-Tetra-O-acetyl-\b-D-glucopyranosyl-1-C-(4'-ethyldiphenylmethane-3-yl)
_symmetry_cell_setting           orthorhombic
_symmetry_space_group_name_H-M   'P 21 21 21'
_symmetry_Int_Tables_number      19
_space_group_name_Hall           'P 2ac 2ab'
loop_
_symmetry_equiv_pos_site_id
_symmetry_equiv_pos_as_xyz
1 x,y,z
2 1/2-x,-y,1/2+z
3 -x,1/2+y,1/2-z
4 1/2+x,1/2-y,-z
_cell_length_a                   10.3040
_cell_length_b                   47.3250
_cell_length_c                   5.6989
_cell_angle_alpha                90
_cell_angle_beta                 90
_cell_angle_gamma                90
_cell_volume                     2778.99
_cell_formula_units_Z            4
loop_
_atom_site_label
_atom_site_type_symbol
_atom_site_fract_x
_atom_site_fract_y
_atom_site_fract_z
O1 O 0.694900 0.125877 1.160685
O2 O 0.818200 0.047587 0.972522
O3 O 0.546722 0.058251 1.017949
O4 O 0.827186 0.161303 1.487342
O5 O 0.953156 0.079981 1.362409
O6 O 1.095220 0.068402 1.080069
O7 O 0.513522 0.060696 0.628160
O8 O 0.869889 0.016946 1.258682
C1 C 0.590390 0.105949 1.134276
C2 C 0.485011 0.119596 0.991645
C3 C 0.761810 0.067528 1.136261
C4 C 0.645489 0.079711 1.010885
O9 O 0.958740 0.153299 1.787105
C5 C 1.067780 0.070028 1.285706
C6 C 0.793937 0.115403 1.311848
C7 C 0.860771 0.090542 1.194662
C8 C 0.869449 0.023448 1.055282
C9 C 0.874212 0.166599 1.703517
C10 C 0.889534 0.139258 1.354099
C11 C 0.417654 0.148791 0.662798
C12 C 0.515100 0.136496 0.800104
C13 C 0.485782 0.050699 0.814167
C14 C 0.930996 0.006800 0.861299
C15 C 0.453388 0.167403 0.455297
C16 C 0.383860 0.029710 0.862563
C17 C 0.356388 0.114480 1.045173
C18 C 0.486611 0.197623 0.517241
C19 C 0.290193 0.143585 0.719265
C20 C 0.439008 0.210889 0.715062
C21 C 1.153100 0.061190 1.483023
C22 C 0.258644 0.126540 0.909741
C23 C 0.544718 0.254911 0.605355
C24 C 0.468842 0.239328 0.757301
C25 C 0.804727 0.191131 1.816536
C26 C 0.565039 0.212955 0.368325
C27 C 0.594879 0.240905 0.413093
C28 C 0.574542 0.286113 0.652469
C29 C 0.669360 0.289343 0.840561
H1 H 0.553100 0.100100 1.306200
H2 H 0.728200 0.056300 1.291900
H3 H 0.669100 0.085300 0.828400
H4 H 0.751000 0.108100 1.475600
H5 H 0.913100 0.097100 1.038000
H6 H 0.972900 0.131300 1.451300
H7 H 0.922900 0.147400 1.187200
H8 H 0.617600 0.140300 0.756100
H9 H 0.930100 -0.015400 0.900200
H10 H 1.032500 0.013600 0.839900
H11 H 0.881300 0.010600 0.696900
H12 H 0.373200 0.167400 0.331200
H13 H 0.537600 0.158000 0.367200
H14 H 0.350600 0.020400 0.698300
H15 H 0.301500 0.039500 0.948900
H16 H 0.421000 0.012900 0.973500
H17 H 0.331600 0.101200 1.197100
H18 H 0.214300 0.153100 0.609300
H19 H 0.381100 0.198900 0.841600
H20 H 0.157700 0.122600 0.954700
H21 H 0.428700 0.250100 0.911800
H22 H 0.606500 0.202500 0.215800
H23 H 0.660500 0.252900 0.297400
H24 H 1.251800 0.058800 1.422800
H25 H 1.119400 0.041100 1.552700
H26 H 1.149500 0.076900 1.620500
H27 H 0.813000 0.189900 2.005300
H28 H 0.703300 0.191100 1.767900
H29 H 0.848000 0.211000 1.757800
H30 H 0.483400 0.297000 0.700800
H31 H 0.611400 0.296200 0.495400
H32 H 0.684100 0.311900 0.872300
H33 H 0.755500 0.279300 0.793900
H34 H 0.627500 0.280200 0.999200
loop_
_geom_bond_atom_site_label_1
_geom_bond_atom_site_label_2
_geom_bond_site_symmetry_1
_geom_bond_site_symmetry_2
O1 C1 1_555 1_555
O2 C3 1_555 1_555
O3 C4 1_555 1_555
O4 C9 1_555 1_555
O5 C5 1_555 1_555
O6 C5 1_555 1_555
O7 C13 1_555 1_555
O8 C8 1_555 1_555
C1 C2 1_555 1_555
C2 C12 1_555 1_555
C3 C4 1_555 1_555
C4 C1 1_555 1_555
O9 C9 1_555 1_555
C5 C21 1_555 1_555
C6 O1 1_555 1_555
C7 O5 1_555 1_555
C8 O2 1_555 1_555
C9 C25 1_555 1_555
C10 O4 1_555 1_555
C11 C12 1_555 1_555
C12 H8 1_555 1_555
C13 O3 1_555 1_555
C14 C8 1_555 1_555
C15 C11 1_555 1_555
C16 C13 1_555 1_555
C17 C2 1_555 1_555
C18 C15 1_555 1_555
C19 C11 1_555 1_555
C20 C18 1_555 1_555
C21 H24 1_555 1_555
C22 C17 1_555 1_555
C23 C24 1_555 1_555
C24 C20 1_555 1_555
C25 H27 1_555 1_555
C26 C18 1_555 1_555
C27 C23 1_555 1_555
C28 C23 1_555 1_555
C29 C28 1_555 1_555
H1 C1 1_555 1_555
H2 C3 1_555 1_555
H3 C4 1_555 1_555
H4 C6 1_555 1_555
H5 C7 1_555 1_555
H6 C10 1_555 1_555
H7 C10 1_555 1_555
H9 C14 1_555 1_555
H10 C14 1_555 1_555
H11 C14 1_555 1_555
H12 C15 1_555 1_555
H13 C15 1_555 1_555
H14 C16 1_555 1_555
H15 C16 1_555 1_555
H16 C16 1_555 1_555
H17 C17 1_555 1_555
H18 C19 1_555 1_555
H19 C20 1_555 1_555
H20 C22 1_555 1_555
H21 C24 1_555 1_555
H22 C26 1_555 1_555
H23 C27 1_555 1_555
H25 C21 1_555 1_555
H26 C21 1_555 1_555
H28 C25 1_555 1_555
H29 C25 1_555 1_555
H30 C28 1_555 1_555
H31 C28 1_555 1_555
H32 C29 1_555 1_555
H33 C29 1_555 1_555
H34 C29 1_555 1_555
C3 C7 1_555 1_555
C6 C7 1_555 1_555
C6 C10 1_555 1_555
C19 C22 1_555 1_555
C26 C27 1_555 1_555

#END
