
#######################################################################
#
#                 Cambridge Crystallographic Data Centre
#                                CCDC 
#
#######################################################################
#
# If this CIF has been generated from an entry in the Cambridge 
# Structural Database, then it will include bibliographic, chemical, 
# crystal, experimental, refinement or atomic coordinate data resulting 
# from the CCDC's data processing and validation procedures.
#
#######################################################################

data_NAZHAZ
_chemical_formula_moiety         'C21 H26 O5,C5 H9 N1 O2,C5 H9 N1 O2'
_chemical_name_systematic        
'(2S,3R,4R,5S,6R)-2-(3-(4-Ethylbenzyl)-phenyl)-6-hydroxymethyl-tetrahydro-2H-pyran-3,4,5-triol bis(L-proline)'
_symmetry_cell_setting           triclinic
_symmetry_space_group_name_H-M   'P 1'
_symmetry_Int_Tables_number      1
_space_group_name_Hall           'P 1'
loop_
_symmetry_equiv_pos_site_id
_symmetry_equiv_pos_as_xyz
1 x,y,z
_cell_length_a                   10.0640
_cell_length_b                   5.7120
_cell_length_c                   26.8280
_cell_angle_alpha                91.140
_cell_angle_beta                 98.030
_cell_angle_gamma                90.570
_cell_volume                     1526.67
_cell_formula_units_Z            2
loop_
_atom_site_label
_atom_site_type_symbol
_atom_site_fract_x
_atom_site_fract_y
_atom_site_fract_z
C1 C -0.18211 0.11108 0.26842
C2 C -0.04602 0.41954 0.32042
O1 O 0.01202 0.64543 0.32044
O2 O -0.09995 0.46465 0.40768
C3 C -0.22401 0.17056 0.35441
C4 C -0.34169 0.15428 0.38538
O3 O -0.43965 0.32340 0.37325
C5 C -0.24208 -0.20448 0.14417
C6 C -0.35257 -0.09605 0.11995
C7 C -0.41023 0.09367 0.14371
C8 C -0.18453 -0.41830 0.11832
C9 C -0.04448 -0.36572 0.09681
C10 C 0.02373 -0.16967 0.11038
C11 C 0.13074 -0.13327 0.08438
C12 C 0.17958 -0.30857 0.05642
C13 C 0.10409 -0.50521 0.04686
C14 C -0.01522 -0.52596 0.06561
C15 C 0.40494 -0.47286 0.03308
C16 C -0.10960 0.34860 0.26990
O4 O -0.01741 0.34718 0.23461
C17 C -0.15864 0.42431 0.35702
O5 O -0.28711 0.13191 0.30258
C18 C -0.24907 0.04410 0.21683
C19 C -0.19798 -0.15384 0.19141
C20 C -0.36219 0.15650 0.19029
C21 C 0.30776 -0.25467 0.03030
H1 H -0.22650 0.56570 0.34530
H2 H -0.11560 -0.02390 0.27770
H3 H -0.39170 -0.01630 0.37960
H4 H -0.30930 0.17930 0.42580
H5 H -0.14100 0.05170 0.37280
H6 H 0.27140 -0.23300 -0.01030
H7 H 0.36150 -0.10930 0.04530
H8 H -0.04870 0.63670 0.41150
H9 H 0.03150 0.29430 0.33240
H10 H -0.12240 -0.26210 0.21340
H11 H -0.40270 0.30170 0.21430
H12 H -0.50150 0.20510 0.12890
H13 H -0.40180 -0.14050 0.08020
H14 H -0.00590 -0.04610 0.13660
H15 H 0.18040 0.04190 0.08760
H16 H -0.08130 -0.67820 0.05410
H17 H 0.13350 -0.64640 0.02090
H18 H -0.18360 0.48240 0.25640
H19 H -0.17540 -0.56150 0.14460
H20 H -0.26350 -0.47850 0.08630
H21 H 0.06870 0.42850 0.25080
H22 H 0.08900 0.66390 0.35430
H23 H -0.51780 0.24440 0.35000
H24 H 0.47570 -0.46300 0.00590
H25 H 0.46540 -0.47860 0.07090
H26 H 0.35030 -0.63810 0.02700
N1 N 0.25223 0.56965 0.26554
C22 C 0.33925 0.75462 0.29042
C23 C 0.39854 0.70493 0.20950
C24 C 0.27511 0.54107 0.21157
C25 C 0.27750 0.99979 0.28540
O6 O 0.32806 1.15952 0.31058
C26 C 0.46279 0.74045 0.26240
O7 O 0.16388 1.00015 0.25771
H27 H 0.51940 0.90380 0.26740
H28 H 0.52570 0.59780 0.27470
H29 H 0.29810 0.35970 0.20100
H30 H 0.19050 0.59520 0.18370
H31 H 0.47370 0.62750 0.18800
H32 H 0.37140 0.87330 0.19310
H33 H 0.26710 0.40680 0.28490
H34 H 0.12520 1.16170 0.25820
H35 H 0.36280 0.71480 0.33120
N2 N 0.16976 1.31029 0.44778
C27 C 0.36158 1.09746 0.46848
C28 C 0.31404 1.14327 0.51454
C29 C 0.22218 1.34315 0.50310
O8 O 0.04241 0.89033 0.43320
O9 O 0.21612 0.71585 0.40767
C30 C 0.23401 1.11185 0.43054
C31 C 0.16690 0.89797 0.42651
H36 H 0.26010 1.13580 0.39300
H37 H 0.27460 1.50940 0.51070
H38 H 0.14220 1.33160 0.52570
H39 H 0.06310 1.28120 0.44190
H40 H 0.19360 1.45440 0.42920
H41 H 0.26460 0.99250 0.52700
H42 H 0.39760 1.19360 0.54480
H43 H 0.43710 1.23260 0.46320
H44 H 0.40920 0.92980 0.46920
C32 C 0.20423 0.56718 0.73473
C33 C 0.13368 0.79931 0.73663
O10 O 0.03049 0.77640 0.77041
C34 C 0.06933 0.85508 0.68395
C35 C 0.17842 0.88583 0.65169
O11 O 0.12511 0.90490 0.60036
O12 O 0.31316 0.61389 0.70451
C36 C 0.38769 0.69409 0.62453
O13 O 0.46284 0.48712 0.62568
C37 C 0.26597 0.50249 0.78541
C38 C 0.20810 0.31748 0.81130
C39 C 0.25574 0.26091 0.85775
C40 C 0.37010 0.37642 0.88492
C41 C 0.42601 0.56240 0.86219
C42 C 0.19942 0.05678 0.88387
C43 C 0.07158 0.11589 0.90545
C44 C 0.00495 0.32228 0.89631
C45 C -0.12410 0.34697 0.91421
C46 C -0.16871 0.19129 0.94706
C47 C 0.01819 -0.04247 0.93707
C48 C -0.29772 0.22295 0.96821
C49 C -0.37814 0.02267 0.97196
O14 O 0.00021 1.07321 0.68595
C50 C 0.26169 0.65205 0.65468
C51 C 0.37182 0.60929 0.81159
C52 C -0.09670 -0.01024 0.96027
H45 H 0.45090 0.84050 0.64130
H46 H 0.35100 0.74140 0.58550
H47 H 0.23330 1.04470 0.66330
H48 H 0.13590 0.43540 0.71660
H49 H 0.00430 0.70120 0.66690
H50 H 0.20700 0.93340 0.75260
H51 H 0.03880 0.78650 0.59260
H52 H 0.17960 -0.09260 0.85800
H53 H 0.27560 -0.00190 0.91530
H54 H -0.05230 0.86170 0.75520
H55 H 0.12170 0.22150 0.79140
H56 H 0.41850 0.31370 0.92090
H57 H 0.50190 0.67800 0.88260
H58 H 0.42540 0.74260 0.79290
H59 H -0.18780 0.49660 0.90290
H60 H 0.04590 0.46000 0.87560
H61 H 0.07570 -0.20120 0.94420
H62 H -0.13040 -0.13840 0.98590
H63 H 0.19550 0.50690 0.64070
H64 H 0.54770 0.50400 0.65110
H65 H -0.06920 1.08510 0.65400
H66 H -0.26980 0.30690 1.00690
H67 H -0.35540 0.36050 0.94630
H68 H -0.41060 -0.05570 0.93410
H69 H -0.32550 -0.10990 0.99470
H70 H -0.47040 0.06430 0.98770
N3 N -0.22900 0.99440 0.74277
C53 C -0.38244 1.13898 0.79680
C54 C -0.26517 0.98022 0.79642
O15 O -0.14710 1.42795 0.74957
O16 O -0.31184 1.56410 0.69684
C55 C -0.32450 1.15839 0.71329
C56 C -0.44369 1.16504 0.74358
C57 C -0.25335 1.40384 0.71927
H71 H -0.51410 1.02490 0.73230
H72 H -0.49390 1.33140 0.73890
H73 H -0.29130 0.80000 0.80450
H74 H -0.18030 1.03610 0.82360
H75 H -0.45420 1.06650 0.81730
H76 H -0.34770 1.30850 0.81150
H77 H -0.23730 0.83460 0.72640
H78 H -0.10720 1.58760 0.74620
H79 H -0.35500 1.08780 0.67520
N4 N -0.13850 0.71943 0.55892
C58 C -0.22419 0.53525 0.57902
C59 C -0.18254 0.75095 0.50218
O17 O -0.01897 0.32550 0.57689
O18 O -0.19530 0.14375 0.60204
C60 C -0.34571 0.48773 0.53337
C61 C -0.32622 0.68804 0.49998
C62 C -0.14567 0.31161 0.58720
H80 H -0.15950 0.93310 0.49110
H81 H -0.12690 0.63530 0.47990
H82 H -0.14670 0.87400 0.57620
H83 H -0.26610 0.60010 0.61190
H84 H 0.03910 0.17620 0.59450
H85 H -0.33950 0.31900 0.51350
H86 H -0.44690 0.48880 0.54580
H87 H -0.37840 0.84810 0.51210
H88 H -0.37010 0.65520 0.46050
loop_
_geom_bond_atom_site_label_1
_geom_bond_atom_site_label_2
_geom_bond_site_symmetry_1
_geom_bond_site_symmetry_2
C1 C16 1_555 1_555
C2 O1 1_555 1_555
O1 H22 1_555 1_555
O2 C17 1_555 1_555
C3 C4 1_555 1_555
C4 O3 1_555 1_555
O3 H23 1_555 1_555
C5 C6 1_555 1_555
C6 C7 1_555 1_555
C7 C20 1_555 1_555
C8 C5 1_555 1_555
C9 C8 1_555 1_555
C10 C9 1_555 1_555
C11 C10 1_555 1_555
C12 C11 1_555 1_555
C13 C12 1_555 1_555
C14 C9 1_555 1_555
C15 C21 1_555 1_555
C16 C2 1_555 1_555
O4 C16 1_555 1_555
C17 C2 1_555 1_555
O5 C1 1_555 1_555
C18 C1 1_555 1_555
C19 C5 1_555 1_555
C20 C18 1_555 1_555
C21 C12 1_555 1_555
H1 C17 1_555 1_555
H2 C1 1_555 1_555
H3 C4 1_555 1_555
H4 C4 1_555 1_555
H5 C3 1_555 1_555
H6 C21 1_555 1_555
H7 C21 1_555 1_555
H8 O2 1_555 1_555
H9 C2 1_555 1_555
H10 C19 1_555 1_555
H11 C20 1_555 1_555
H12 C7 1_555 1_555
H13 C6 1_555 1_555
H14 C10 1_555 1_555
H15 C11 1_555 1_555
H16 C14 1_555 1_555
H17 C13 1_555 1_555
H18 C16 1_555 1_555
H19 C8 1_555 1_555
H20 C8 1_555 1_555
H21 O4 1_555 1_555
H24 C15 1_555 1_555
H25 C15 1_555 1_555
H26 C15 1_555 1_555
N1 C22 1_555 1_555
C22 C25 1_555 1_555
C23 C24 1_555 1_555
C24 N1 1_555 1_555
C25 O6 1_555 1_555
C26 C22 1_555 1_555
O7 C25 1_555 1_555
H27 C26 1_555 1_555
H28 C26 1_555 1_555
H29 C24 1_555 1_555
H30 C24 1_555 1_555
H31 C23 1_555 1_555
H32 C23 1_555 1_555
H33 N1 1_555 1_555
H34 O7 1_555 1_555
H35 C22 1_555 1_555
N2 C29 1_555 1_555
C27 C28 1_555 1_555
C28 C29 1_555 1_555
C29 H37 1_555 1_555
O8 C31 1_555 1_555
O9 C31 1_555 1_555
C30 N2 1_555 1_555
C31 C30 1_555 1_555
H36 C30 1_555 1_555
H38 C29 1_555 1_555
H39 N2 1_555 1_555
H40 N2 1_555 1_555
H41 C28 1_555 1_555
H42 C28 1_555 1_555
H43 C27 1_555 1_555
H44 C27 1_555 1_555
C32 C33 1_555 1_555
C33 O10 1_555 1_555
O10 H54 1_555 1_555
C34 C33 1_555 1_555
C35 C34 1_555 1_555
O11 C35 1_555 1_555
O12 C32 1_555 1_555
C36 O13 1_555 1_555
O13 H64 1_555 1_555
C37 C32 1_555 1_555
C38 C37 1_555 1_555
C39 C38 1_555 1_555
C40 C39 1_555 1_555
C41 C40 1_555 1_555
C42 C39 1_555 1_555
C43 C42 1_555 1_555
C44 C43 1_555 1_555
C45 C44 1_555 1_555
C46 C45 1_555 1_555
C47 C43 1_555 1_555
C48 C46 1_555 1_555
C49 C48 1_555 1_555
O14 C34 1_555 1_555
C50 C35 1_555 1_555
C51 C37 1_555 1_555
C52 C46 1_555 1_555
H45 C36 1_555 1_555
H46 C36 1_555 1_555
H47 C35 1_555 1_555
H48 C32 1_555 1_555
H49 C34 1_555 1_555
H50 C33 1_555 1_555
H51 O11 1_555 1_555
H52 C42 1_555 1_555
H53 C42 1_555 1_555
H55 C38 1_555 1_555
H56 C40 1_555 1_555
H57 C41 1_555 1_555
H58 C51 1_555 1_555
H59 C45 1_555 1_555
H60 C44 1_555 1_555
H61 C47 1_555 1_555
H62 C52 1_555 1_555
H63 C50 1_555 1_555
H65 O14 1_555 1_555
H66 C48 1_555 1_555
H67 C48 1_555 1_555
H68 C49 1_555 1_555
H69 C49 1_555 1_555
H70 C49 1_555 1_555
N3 C54 1_555 1_555
C53 C54 1_555 1_555
C54 H73 1_555 1_555
O15 C57 1_555 1_555
O16 C57 1_555 1_555
C55 N3 1_555 1_555
C56 C53 1_555 1_555
C57 C55 1_555 1_555
H71 C56 1_555 1_555
H72 C56 1_555 1_555
H74 C54 1_555 1_555
H75 C53 1_555 1_555
H76 C53 1_555 1_555
H77 N3 1_555 1_555
H78 O15 1_555 1_555
H79 C55 1_555 1_555
N4 C58 1_555 1_555
C58 C60 1_555 1_555
C59 N4 1_555 1_555
O17 C62 1_555 1_555
O18 C62 1_555 1_555
C60 C61 1_555 1_555
C61 C59 1_555 1_555
C62 C58 1_555 1_555
H80 C59 1_555 1_555
H81 C59 1_555 1_555
H82 N4 1_555 1_555
H83 C58 1_555 1_555
H84 O17 1_555 1_555
H85 C60 1_555 1_555
H86 C60 1_555 1_555
H87 C61 1_555 1_555
H88 C61 1_555 1_555
C3 C17 1_555 1_555
C3 O5 1_555 1_555
C13 C14 1_555 1_555
C18 C19 1_555 1_555
C23 C26 1_555 1_555
C27 C30 1_555 1_555
O12 C50 1_555 1_555
C36 C50 1_555 1_555
C41 C51 1_555 1_555
C47 C52 1_555 1_555
C55 C56 1_555 1_555

#END
