
#######################################################################
#
#                 Cambridge Crystallographic Data Centre
#                                CCDC 
#
#######################################################################
#
# If this CIF has been generated from an entry in the Cambridge 
# Structural Database, then it will include bibliographic, chemical, 
# crystal, experimental, refinement or atomic coordinate data resulting 
# from the CCDC's data processing and validation procedures.
#
#######################################################################

data_NAZXES
_chemical_formula_moiety         'C28 H37 N3'
_chemical_name_systematic        
2-(4-(3,5-Dimethyl-1-(2-(n-propyl)heptyl)-1H-pyridin-4-ylidene)-3,5-dimethylcyclohexa-2,5-dienylidene)malonitrile
_symmetry_cell_setting           orthorhombic
_symmetry_space_group_name_H-M   'P b c a'
_symmetry_Int_Tables_number      61
_space_group_name_Hall           '-P 2ac 2ab'
loop_
_symmetry_equiv_pos_site_id
_symmetry_equiv_pos_as_xyz
1 x,y,z
2 1/2-x,-y,1/2+z
3 -x,1/2+y,1/2-z
4 1/2+x,1/2-y,-z
5 -x,-y,-z
6 1/2+x,y,1/2-z
7 x,1/2-y,1/2+z
8 1/2-x,1/2+y,z
_cell_length_a                   15.6106(16)
_cell_length_b                   16.1279(17)
_cell_length_c                   19.714(2)
_cell_angle_alpha                90
_cell_angle_beta                 90
_cell_angle_gamma                90
_cell_volume                     4963.32
_exptl_crystal_colour            yellow
_exptl_crystal_description       Plate
_chemical_melting_point          276-278deg.C
_cell_formula_units_Z            8
_exptl_crystal_recrystallization_method acetonitrile
loop_
_atom_site_label
_atom_site_type_symbol
_atom_site_fract_x
_atom_site_fract_y
_atom_site_fract_z
N1 N -0.1239(2) 0.4498(2) 0.41434(19)
N2 N -0.1355(2) 0.1923(2) 0.49152(18)
N3 N 0.11646(18) 0.12531(17) 0.02510(15)
C1 C -0.1192(2) 0.3790(2) 0.40445(19)
C2 C -0.1093(2) 0.2936(2) 0.39330(19)
C3 C -0.1237(2) 0.2394(2) 0.4477(2)
C4 C -0.07492(19) 0.2629(2) 0.32901(18)
C5 C -0.0522(2) 0.1793(2) 0.32107(18)
H1 H -0.0627 0.1417 0.3572
C6 C -0.0147(2) 0.15018(19) 0.26174(17)
C7 C 0.0000(2) 0.20503(19) 0.20801(17)
C8 C -0.0251(2) 0.2884(2) 0.21369(18)
C9 C -0.0616(2) 0.3156(2) 0.27403(18)
H2 H -0.0780 0.3721 0.2779
C10 C 0.0108(2) 0.0602(2) 0.2567(2)
H3 H -0.0027 0.0393 0.2113
H4 H -0.0208 0.0279 0.2907
H5 H 0.0724 0.0549 0.2650
C11 C -0.0124(3) 0.3475(2) 0.1554(2)
H6 H 0.0490 0.3543 0.1467
H7 H -0.0377 0.4013 0.1668
H8 H -0.0403 0.3252 0.1147
C12 C 0.0411(2) 0.17545(19) 0.14434(17)
C13 C 0.1310(2) 0.1785(2) 0.13666(18)
C14 C 0.1658(2) 0.1528(2) 0.07625(19)
H9 H 0.2262 0.1545 0.0705
C15 C 0.0311(2) 0.1198(2) 0.03258(17)
H10 H -0.0025 0.0982 -0.0035
C16 C -0.0086(2) 0.14479(19) 0.09103(17)
C17 C 0.1889(2) 0.2089(3) 0.1922(2)
H11 H 0.2487 0.2044 0.1775
H12 H 0.1802 0.1752 0.2330
H13 H 0.1756 0.2670 0.2023
C18 C -0.1047(2) 0.1397(2) 0.09720(19)
H14 H -0.1286 0.1958 0.1000
H15 H -0.1198 0.1087 0.1382
H16 H -0.1283 0.1114 0.0574
C19 C 0.1560(3) 0.0990(2) -0.03961(18)
H17 H 0.1403 0.0406 -0.0489
H18 H 0.2191 0.1018 -0.0353
C20 C 0.1286(5) 0.1515(4) -0.0977(3)
H19 H 0.0647 0.1513 -0.0934
C21 C 0.1435(4) 0.1005(4) -0.1630(3)
H20 H 0.1128 0.0472 -0.1584
H21 H 0.1173 0.1308 -0.2014
C22 C 0.2334(5) 0.0826(4) -0.1804(3)
H22 H 0.2584 0.0444 -0.1465
H23 H 0.2672 0.1346 -0.1803
C23 C 0.2363(5) 0.0408(5) -0.2548(3)
H24 H 0.1998 -0.0086 -0.2554
H25 H 0.2954 0.0250 -0.2656
H26 H 0.2156 0.0807 -0.2885
C24 C 0.1472(4) 0.2350(5) -0.1048(4)
H27 H 0.1159 0.2539 -0.1456
H28 H 0.2089 0.2381 -0.1162
C25 C 0.1323(4) 0.2985(4) -0.0525(3)
H29 H 0.1687 0.2847 -0.0129
H30 H 0.0720 0.2938 -0.0376
C26 C 0.1492(4) 0.3905(4) -0.0713(3)
H31 H 0.2120 0.3985 -0.0732
H32 H 0.1269 0.3995 -0.1177
C27 C 0.1165(5) 0.4506(4) -0.0313(3)
H33 H 0.0538 0.4418 -0.0288
H34 H 0.1257 0.5041 -0.0548
C36 C 0.1497(4) 0.4612(4) 0.0432(3)
H51 H 0.1797 0.4106 0.0573
H52 H 0.1010 0.4711 0.0735
H53 H 0.1892 0.5084 0.0454
C28? C 0.1880(11) 0.1634(9) -0.0864(7)
H35? H 0.2412 0.1741 -0.0595
C29? C 0.2355(9) 0.1299(10) -0.1465(7)
H36? H 0.2843 0.0967 -0.1296
H37? H 0.2596 0.1775 -0.1719
C30? C 0.1824(11) 0.0734(9) -0.1993(8)
H38? H 0.1415 0.0376 -0.1745
H39? H 0.1495 0.1091 -0.2308
C31? C 0.2444(12) 0.0213(10) -0.2382(8)
H40? H 0.2268 0.0188 -0.2859
H41? H 0.2454 -0.0348 -0.2192
H42? H 0.3018 0.0458 -0.2350
C32? C 0.1764(10) 0.2414(12) -0.1019(10)
H43? H 0.1683 0.2308 -0.1509
H44? H 0.2379 0.2559 -0.0987
C33? C 0.1502(10) 0.3194(9) -0.1051(7)
H45? H 0.0947 0.3230 -0.1293
H46? H 0.1927 0.3538 -0.1295
C34? C 0.1403(10) 0.3497(10) -0.0308(7)
H47? H 0.1980 0.3465 -0.0103
H48? H 0.1049 0.3075 -0.0074
C35? C 0.0960(11) 0.4515(10) -0.0056(8)
H49? H 0.1017 0.4941 -0.0414
H50? H 0.0359 0.4481 0.0102
loop_
_geom_bond_atom_site_label_1
_geom_bond_atom_site_label_2
_geom_bond_site_symmetry_1
_geom_bond_site_symmetry_2
N1 C1 1_555 1_555
N2 C3 1_555 1_555
N3 C14 1_555 1_555
C1 C2 1_555 1_555
C2 C3 1_555 1_555
C4 C2 1_555 1_555
C5 C4 1_555 1_555
H1 C5 1_555 1_555
C6 C5 1_555 1_555
C7 C6 1_555 1_555
C8 C7 1_555 1_555
C9 C4 1_555 1_555
H2 C9 1_555 1_555
C10 C6 1_555 1_555
H3 C10 1_555 1_555
H4 C10 1_555 1_555
H5 C10 1_555 1_555
C11 C8 1_555 1_555
H6 C11 1_555 1_555
H7 C11 1_555 1_555
H8 C11 1_555 1_555
C12 C7 1_555 1_555
C13 C12 1_555 1_555
C14 C13 1_555 1_555
H9 C14 1_555 1_555
C15 N3 1_555 1_555
H10 C15 1_555 1_555
C16 C12 1_555 1_555
C17 C13 1_555 1_555
H11 C17 1_555 1_555
H12 C17 1_555 1_555
H13 C17 1_555 1_555
C18 C16 1_555 1_555
H14 C18 1_555 1_555
H15 C18 1_555 1_555
H16 C18 1_555 1_555
C19 N3 1_555 1_555
H17 C19 1_555 1_555
H18 C19 1_555 1_555
C20 C19 1_555 1_555
H19 C20 1_555 1_555
C21 C20 1_555 1_555
H20 C21 1_555 1_555
H21 C21 1_555 1_555
C22 C21 1_555 1_555
H22 C22 1_555 1_555
H23 C22 1_555 1_555
C23 C22 1_555 1_555
H24 C23 1_555 1_555
H25 C23 1_555 1_555
H26 C23 1_555 1_555
C24 C20 1_555 1_555
H27 C24 1_555 1_555
H28 C24 1_555 1_555
C25 C24 1_555 1_555
H29 C25 1_555 1_555
H30 C25 1_555 1_555
C26 C25 1_555 1_555
H31 C26 1_555 1_555
H32 C26 1_555 1_555
C27 C26 1_555 1_555
H33 C27 1_555 1_555
H34 C27 1_555 1_555
C36 C27 1_555 1_555
H51 C36 1_555 1_555
H52 C36 1_555 1_555
H53 C36 1_555 1_555
C8 C9 1_555 1_555
C15 C16 1_555 1_555

#END
