
#######################################################################
#
#                 Cambridge Crystallographic Data Centre
#                                CCDC 
#
#######################################################################
#
# If this CIF has been generated from an entry in the Cambridge 
# Structural Database, then it will include bibliographic, chemical, 
# crystal, experimental, refinement or atomic coordinate data resulting 
# from the CCDC's data processing and validation procedures.
#
#######################################################################

data_NAZXIW
_chemical_formula_moiety         'C56 H52 N4,C16 H36 N1 1+,Cl1 1-'
_chemical_name_systematic        
'13,20,35,42-Tetra-t-butyl-2,9,24,31-tetra-azaundecacyclo(38.4.0.0^3,8^.0^4,44^.0^7,11^.0^10,15^.0^18,23^.0^22,26^.0^25,30^.0^29,33^.0^32,37^)tetratetraconta-1(44),3,5,7,10,12,14,18,20,22,25,27,29,32,34,36,40,42-octadecaene-16,38-diyne tetra-n-butylammonium chloride'
_symmetry_cell_setting           monoclinic
_symmetry_space_group_name_H-M   'P 21/c'
_symmetry_Int_Tables_number      14
_space_group_name_Hall           '-P 2ybc'
loop_
_symmetry_equiv_pos_site_id
_symmetry_equiv_pos_as_xyz
1 x,y,z
2 -x,1/2+y,1/2-z
3 -x,-y,-z
4 x,1/2-y,1/2+z
_cell_length_a                   15.6636(18)
_cell_length_b                   19.343(2)
_cell_length_c                   20.201(2)
_cell_angle_alpha                90
_cell_angle_beta                 92.752(2)
_cell_angle_gamma                90
_cell_volume                     6113.46
_exptl_crystal_colour            orange
_exptl_crystal_description       box
_cell_formula_units_Z            4
loop_
_atom_site_label
_atom_site_type_symbol
_atom_site_fract_x
_atom_site_fract_y
_atom_site_fract_z
Cl1 Cl 0.46445(3) 0.40714(3) 0.58318(3)
C1 C 0.16705(13) 0.42801(10) 0.61704(10)
C2 C 0.22722(12) 0.45071(10) 0.66602(10)
N1 N 0.31126(11) 0.43107(9) 0.67509(9)
C3 C 0.34573(12) 0.46532(10) 0.73025(10)
C4 C 0.42906(13) 0.46547(10) 0.75712(10)
N2 N 0.50016(11) 0.43087(9) 0.73630(9)
C5 C 0.56955(12) 0.45196(10) 0.77577(10)
C6 C 0.65459(13) 0.43236(10) 0.77167(10)
C7 C 0.71305(14) 0.46153(11) 0.81801(11)
C8 C 0.68930(13) 0.50763(10) 0.86725(10)
C9 C 0.60322(13) 0.52558(10) 0.87010(10)
C10 C 0.54262(12) 0.49811(10) 0.82451(10)
C11 C 0.45081(13) 0.50656(10) 0.81273(10)
C12 C 0.38711(13) 0.54610(11) 0.84254(11)
C13 C 0.30460(14) 0.54586(11) 0.81613(10)
C14 C 0.28281(12) 0.50599(10) 0.75874(10)
C15 C 0.20604(12) 0.49679(10) 0.71646(10)
C16 C 0.12262(13) 0.52252(11) 0.71735(11)
C17 C 0.06158(13) 0.50242(11) 0.66907(11)
C18 C 0.08502(14) 0.45516(11) 0.62014(11)
C19 C 0.71885(13) 0.28815(10) 0.63613(10)
C20 C 0.65484(12) 0.25512(10) 0.59670(10)
N3 N 0.56895(11) 0.26920(9) 0.59290(9)
C21 C 0.53121(12) 0.22685(10) 0.54456(10)
C22 C 0.44769(12) 0.22603(10) 0.51811(10)
N4 N 0.37953(10) 0.26809(9) 0.53201(9)
C23 C 0.31193(12) 0.25099(10) 0.48933(10)
C24 C 0.22995(12) 0.27973(10) 0.48539(10)
C25 C 0.17230(13) 0.25187(11) 0.43758(11)
C26 C 0.19380(13) 0.19744(11) 0.39556(10)
C27 C 0.27554(13) 0.16949(11) 0.40177(11)
C28 C 0.33524(12) 0.19560(10) 0.44829(10)
C29 C 0.42388(12) 0.17917(10) 0.46743(10)
C30 C 0.48441(13) 0.13203(10) 0.44449(11)
C31 C 0.56733(14) 0.13304(11) 0.47008(11)
C32 C 0.59221(12) 0.18151(10) 0.51984(10)
C33 C 0.67324(12) 0.20075(10) 0.55350(10)
C34 C 0.75813(13) 0.18010(11) 0.54824(11)
C35 C 0.82354(13) 0.21275(11) 0.58505(11)
C36 C 0.80238(14) 0.26594(12) 0.62872(12)
C37 C 0.18904(12) 0.37749(11) 0.56842(10)
C38 C 0.20710(12) 0.33407(11) 0.52996(10)
C39 C 0.69782(12) 0.34169(11) 0.68225(11)
C40 C 0.67935(12) 0.38365(11) 0.72218(11)
C41 C -0.03114(14) 0.52797(13) 0.66783(12)
C42 C -0.0451(2) 0.5801(2) 0.72355(19)
C43 C -0.09036(18) 0.46594(18) 0.67836(18)
C44 C -0.0529(2) 0.56339(18) 0.60141(16)
C45 C 0.75501(14) 0.53919(11) 0.91730(11)
C46 C 0.7588(2) 0.61741(14) 0.90573(16)
C47 C 0.84450(17) 0.50924(18) 0.91037(18)
C48 C 0.72832(19) 0.52493(15) 0.98787(13)
C49 C 0.91770(14) 0.19324(14) 0.57769(13)
C50 C 0.9597(5) 0.1778(5) 0.6399(4)
H1 H 1.0180 0.1653 0.6333
H2 H 0.9311 0.1399 0.6602
H3 H 0.9583 0.2176 0.6681
C51 C 0.9302(3) 0.1386(3) 0.5249(3)
H4 H 0.9048 0.1542 0.4833
H5 H 0.9035 0.0963 0.5376
H6 H 0.9902 0.1309 0.5204
C52 C 0.9632(3) 0.2622(3) 0.5474(3)
H7 H 1.0224 0.2527 0.5411
H8 H 0.9587 0.3000 0.5779
H9 H 0.9351 0.2741 0.5057
C56 C 0.12892(13) 0.16798(12) 0.34361(11)
C57 C 0.11125(19) 0.09206(15) 0.35992(15)
C58 C 0.04412(18) 0.20695(19) 0.34160(17)
C59 C 0.16512(18) 0.17271(16) 0.27491(13)
H91 H 0.3405(12) 0.4102(10) 0.6469(13)
H92 H 0.5046(15) 0.4129(12) 0.6978(13)
H93 H 0.7682(15) 0.4483(11) 0.8152(11)
H94 H 0.5846(12) 0.5574(10) 0.9032(10)
H95 H 0.4061(13) 0.5735(11) 0.8808(11)
H96 H 0.2610(13) 0.5751(11) 0.8362(11)
H97 H 0.1079(12) 0.5541(11) 0.7508(11)
H98 H 0.0426(13) 0.4401(11) 0.5863(11)
H99 H 0.5478(15) 0.3081(13) 0.6041(12)
H100 H 0.3839(15) 0.3084(13) 0.5525(12)
H101 H 0.1155(12) 0.2712(10) 0.4339(10)
H102 H 0.2911(12) 0.1312(10) 0.3731(10)
H103 H 0.4646(12) 0.0999(11) 0.4109(10)
H104 H 0.6103(14) 0.1028(12) 0.4535(12)
H105 H 0.7712(13) 0.1436(11) 0.5203(11)
H106 H 0.8465(13) 0.2888(11) 0.6569(11)
H107 H -0.0073(18) 0.6205(15) 0.7126(14)
H108 H -0.0321(19) 0.5575(16) 0.7665(17)
H109 H -0.1488(18) 0.4827(13) 0.6788(13)
H110 H -0.0856(15) 0.4295(13) 0.6426(13)
H111 H -0.0526(17) 0.5299(15) 0.5628(15)
H112 H 0.7770(16) 0.6277(14) 0.8590(15)
H113 H 0.7021(18) 0.6412(14) 0.9116(14)
H114 H 0.8004(16) 0.6381(13) 0.9358(13)
H115 H 0.8651(16) 0.5220(14) 0.8675(15)
H116 H 0.8454(16) 0.4544(15) 0.9194(14)
H117 H 0.8806(16) 0.5281(13) 0.9448(14)
H118 H 0.7270(16) 0.4763(15) 0.9965(13)
H119 H 0.6692(16) 0.5440(12) 0.9958(12)
H120 H 0.7710(15) 0.5447(12) 1.0173(12)
H121 H 0.1708(17) 0.0641(14) 0.3570(13)
H122 H 0.0673(18) 0.0731(14) 0.3293(15)
H123 H 0.0798(17) 0.0865(14) 0.4011(15)
H124 H 0.0573(16) 0.2599(15) 0.3305(13)
H125 H 0.0060(17) 0.1862(14) 0.3061(14)
H126 H 0.0172(18) 0.2004(15) 0.3877(16)
H127 H 0.2202(15) 0.1462(12) 0.2734(11)
H128 H 0.1761(16) 0.2240(15) 0.2630(13)
H129 H 0.1209(16) 0.1539(13) 0.2408(13)
H130 H -0.0084(19) 0.6059(16) 0.5927(15)
H131 H -0.103(2) 0.5956(16) 0.7226(15)
H132 H -0.0738(18) 0.4377(15) 0.7215(16)
H133 H -0.1160(19) 0.5793(14) 0.5991(15)
N5 N 0.56250(11) 0.35504(9) 0.37042(9)
C60 C 0.6122(2) 0.29161(19) 0.3865(2)
H19 H 0.5755 0.2515 0.3808
H20 H 0.6333 0.2932 0.4324
C61 C 0.69088(16) 0.28499(15) 0.33928(15)
H21 H 0.7262 0.3262 0.3409
H22 H 0.6719 0.2757 0.2938
C62 C 0.7412(3) 0.2182(2) 0.3734(2)
H23 H 0.7540 0.2270 0.4201
H24 H 0.7055 0.1773 0.3693
C63 C 0.8230(3) 0.2072(3) 0.3381(3)
H25 H 0.8097 0.1998 0.2918
H26 H 0.8524 0.1676 0.3565
H27 H 0.8587 0.2474 0.3437
C64 C 0.6203(3) 0.4208(2) 0.3818(2)
H28 H 0.6652 0.4194 0.3505
H29 H 0.5857 0.4614 0.3715
C65 C 0.6609(4) 0.4299(3) 0.4496(3)
H30 H 0.6216 0.4124 0.4813
H31 H 0.6674 0.4791 0.4577
C66 C 0.7486(2) 0.39524(18) 0.46426(19)
H32 H 0.7397 0.3479 0.4783
H33 H 0.7797 0.3940 0.4239
C67 C 0.7994(2) 0.43142(17) 0.51534(18)
H34 H 0.7994 0.4800 0.5057
H35 H 0.8569 0.4143 0.5165
H36 H 0.7753 0.4239 0.5576
C68 C 0.4862(2) 0.3619(2) 0.4100(2)
H37 H 0.5048 0.3568 0.4562
H38 H 0.4492 0.3229 0.3990
C69 C 0.43208(16) 0.42616(13) 0.40452(14)
H39 H 0.4520 0.4575 0.4394
H40 H 0.4432 0.4482 0.3627
C70 C 0.3411(3) 0.4195(3) 0.4082(3)
H41 H 0.3166 0.4654 0.4109
H42 H 0.3293 0.3954 0.4489
C71 C 0.2964(4) 0.3819(3) 0.3513(3)
H43 H 0.3079 0.4048 0.3105
H44 H 0.2359 0.3819 0.3571
H45 H 0.3168 0.3352 0.3500
C72 C 0.5376(3) 0.3566(2) 0.2950(2)
H46 H 0.5886 0.3586 0.2697
H47 H 0.5029 0.3970 0.2844
C73 C 0.48459(17) 0.28719(13) 0.27697(13)
H48 H 0.5230 0.2491 0.2690
H49 H 0.4485 0.2746 0.3128
C74 C 0.4298(3) 0.3046(2) 0.2134(2)
H50 H 0.3958 0.3457 0.2201
H51 H 0.4660 0.3126 0.1766
C75 C 0.37132(18) 0.24143(14) 0.19955(14)
H52 H 0.4052 0.2029 0.1863
H53 H 0.3297 0.2525 0.1648
H54 H 0.3428 0.2296 0.2390
C53? C 0.9789(6) 0.2226(6) 0.6319(6)
H10? H 1.0354 0.2048 0.6264
H11? H 0.9600 0.2093 0.6746
H12? H 0.9799 0.2721 0.6287
C54? C 0.9227(4) 0.1081(3) 0.5928(4)
H13? H 0.8884 0.0838 0.5598
H14? H 0.9017 0.0988 0.6358
H15? H 0.9810 0.0929 0.5916
C55? C 0.9431(4) 0.2018(5) 0.5132(4)
H16? H 0.9438 0.2501 0.5025
H17? H 0.9037 0.1783 0.4831
H18? H 0.9993 0.1829 0.5094
C76? C 0.6347(3) 0.3578(2) 0.3285(2)
H55? H 0.6703 0.3974 0.3402
H56? H 0.6150 0.3623 0.2825
C77? C 0.69088(16) 0.28499(15) 0.33928(15)
H57? H 0.6611 0.2450 0.3206
H58? H 0.7074 0.2766 0.3855
C78? C 0.7739(3) 0.3086(3) 0.2951(3)
H59? H 0.7568 0.3129 0.2485
H60? H 0.7972 0.3525 0.3107
C79? C 0.8384(4) 0.2515(4) 0.3058(3)
H61? H 0.8519 0.2462 0.3524
H62? H 0.8894 0.2628 0.2836
H63? H 0.8151 0.2091 0.2882
C80? C 0.5889(3) 0.3479(3) 0.4456(2)
H64? H 0.5376 0.3481 0.4706
H65? H 0.6165 0.3034 0.4527
C81? C 0.6479(4) 0.4032(3) 0.4729(3)
H66? H 0.6390 0.4073 0.5199
H67? H 0.6301 0.4466 0.4525
C82? C 0.7486(2) 0.39524(18) 0.46426(19)
H68? H 0.7634 0.3466 0.4655
H69? H 0.7624 0.4131 0.4212
C83? C 0.7994(2) 0.43142(17) 0.51534(18)
H70? H 0.7952 0.4804 0.5079
H71? H 0.8580 0.4173 0.5139
H72? H 0.7785 0.4205 0.5580
C84? C 0.5031(3) 0.4161(2) 0.3615(3)
H73? H 0.5381 0.4574 0.3649
H74? H 0.4791 0.4143 0.3164
C85? C 0.43208(16) 0.42616(13) 0.40452(14)
H75? H 0.4514 0.4555 0.4412
H76? H 0.4172 0.3817 0.4229
C86? C 0.3535(4) 0.4572(3) 0.3729(3)
H77? H 0.3687 0.5014 0.3540
H78? H 0.3140 0.4665 0.4073
C87? C 0.3072(5) 0.4156(4) 0.3196(4)
H79? H 0.3427 0.4108 0.2825
H80? H 0.2551 0.4387 0.3057
H81? H 0.2941 0.3706 0.3366
C88? C 0.5088(3) 0.2879(3) 0.3562(3)
H82? H 0.4574 0.2884 0.3811
H83? H 0.5420 0.2472 0.3689
C89? C 0.48459(17) 0.28719(13) 0.27697(13)
H84? H 0.4708 0.3332 0.2607
H85? H 0.5309 0.2685 0.2523
C90? C 0.4024(4) 0.2376(3) 0.2722(3)
H86? H 0.4177 0.1906 0.2845
H87? H 0.3587 0.2539 0.3008
C91? C 0.37132(18) 0.24143(14) 0.19955(14)
H88? H 0.3833 0.2865 0.1824
H89? H 0.3109 0.2331 0.1959
H90? H 0.4003 0.2071 0.1746
loop_
_geom_bond_atom_site_label_1
_geom_bond_atom_site_label_2
_geom_bond_site_symmetry_1
_geom_bond_site_symmetry_2
C1 C2 1_555 1_555
C2 N1 1_555 1_555
N1 C3 1_555 1_555
C3 C4 1_555 1_555
C4 N2 1_555 1_555
N2 C5 1_555 1_555
C5 C6 1_555 1_555
C6 C7 1_555 1_555
C7 C8 1_555 1_555
C8 C9 1_555 1_555
C9 C10 1_555 1_555
C10 C5 1_555 1_555
C11 C4 1_555 1_555
C12 C11 1_555 1_555
C13 C12 1_555 1_555
C14 C3 1_555 1_555
C15 C2 1_555 1_555
C16 C15 1_555 1_555
C17 C16 1_555 1_555
C18 C1 1_555 1_555
C19 C20 1_555 1_555
C20 N3 1_555 1_555
N3 C21 1_555 1_555
C21 C22 1_555 1_555
C22 N4 1_555 1_555
N4 C23 1_555 1_555
C23 C24 1_555 1_555
C24 C25 1_555 1_555
C25 C26 1_555 1_555
C26 C27 1_555 1_555
C27 C28 1_555 1_555
C28 C23 1_555 1_555
C29 C22 1_555 1_555
C30 C29 1_555 1_555
C31 C30 1_555 1_555
C32 C21 1_555 1_555
C33 C20 1_555 1_555
C34 C33 1_555 1_555
C35 C34 1_555 1_555
C36 C19 1_555 1_555
C37 C1 1_555 1_555
C38 C24 1_555 1_555
C39 C19 1_555 1_555
C40 C6 1_555 1_555
C41 C17 1_555 1_555
C42 C41 1_555 1_555
C43 C41 1_555 1_555
C44 C41 1_555 1_555
C45 C8 1_555 1_555
C46 C45 1_555 1_555
C47 C45 1_555 1_555
C48 C45 1_555 1_555
C49 C35 1_555 1_555
C50 C49 1_555 1_555
H1 C50 1_555 1_555
H2 C50 1_555 1_555
H3 C50 1_555 1_555
C51 C49 1_555 1_555
H4 C51 1_555 1_555
H5 C51 1_555 1_555
H6 C51 1_555 1_555
C52 C49 1_555 1_555
H7 C52 1_555 1_555
H8 C52 1_555 1_555
H9 C52 1_555 1_555
C56 C26 1_555 1_555
C57 C56 1_555 1_555
C58 C56 1_555 1_555
C59 C56 1_555 1_555
N5 C60 1_555 1_555
C60 H19 1_555 1_555
H20 C60 1_555 1_555
C61 C60 1_555 1_555
H21 C61 1_555 1_555
H22 C61 1_555 1_555
C62 C61 1_555 1_555
H23 C62 1_555 1_555
H24 C62 1_555 1_555
C63 C62 1_555 1_555
H25 C63 1_555 1_555
H26 C63 1_555 1_555
H27 C63 1_555 1_555
C64 N5 1_555 1_555
H28 C64 1_555 1_555
H29 C64 1_555 1_555
C65 C64 1_555 1_555
H30 C65 1_555 1_555
H31 C65 1_555 1_555
C66 C65 1_555 1_555
H32 C66 1_555 1_555
H33 C66 1_555 1_555
C67 C66 1_555 1_555
H34 C67 1_555 1_555
H35 C67 1_555 1_555
H36 C67 1_555 1_555
C68 N5 1_555 1_555
H37 C68 1_555 1_555
H38 C68 1_555 1_555
C69 C68 1_555 1_555
H39 C69 1_555 1_555
H40 C69 1_555 1_555
C70 C69 1_555 1_555
H41 C70 1_555 1_555
H42 C70 1_555 1_555
C71 C70 1_555 1_555
H43 C71 1_555 1_555
H44 C71 1_555 1_555
H45 C71 1_555 1_555
C72 N5 1_555 1_555
H46 C72 1_555 1_555
H47 C72 1_555 1_555
C73 C72 1_555 1_555
H48 C73 1_555 1_555
H49 C73 1_555 1_555
C74 C73 1_555 1_555
H50 C74 1_555 1_555
H51 C74 1_555 1_555
C75 C74 1_555 1_555
H52 C75 1_555 1_555
H53 C75 1_555 1_555
H54 C75 1_555 1_555
H91 N1 1_555 1_555
H92 N2 1_555 1_555
H93 C7 1_555 1_555
H94 C9 1_555 1_555
H95 C12 1_555 1_555
H96 C13 1_555 1_555
H97 C16 1_555 1_555
H98 C18 1_555 1_555
H99 N3 1_555 1_555
H100 N4 1_555 1_555
H101 C25 1_555 1_555
H102 C27 1_555 1_555
H103 C30 1_555 1_555
H104 C31 1_555 1_555
H105 C34 1_555 1_555
H106 C36 1_555 1_555
H107 C42 1_555 1_555
H108 C42 1_555 1_555
H109 C43 1_555 1_555
H110 C43 1_555 1_555
H111 C44 1_555 1_555
H112 C46 1_555 1_555
H113 C46 1_555 1_555
H114 C46 1_555 1_555
H115 C47 1_555 1_555
H116 C47 1_555 1_555
H117 C47 1_555 1_555
H118 C48 1_555 1_555
H119 C48 1_555 1_555
H120 C48 1_555 1_555
H121 C57 1_555 1_555
H122 C57 1_555 1_555
H123 C57 1_555 1_555
H124 C58 1_555 1_555
H125 C58 1_555 1_555
H126 C58 1_555 1_555
H127 C59 1_555 1_555
H128 C59 1_555 1_555
H129 C59 1_555 1_555
H130 C44 1_555 1_555
H131 C42 1_555 1_555
H132 C43 1_555 1_555
H133 C44 1_555 1_555
C10 C11 1_555 1_555
C13 C14 1_555 1_555
C14 C15 1_555 1_555
C17 C18 1_555 1_555
C28 C29 1_555 1_555
C31 C32 1_555 1_555
C32 C33 1_555 1_555
C35 C36 1_555 1_555
C37 C38 1_555 1_555
C39 C40 1_555 1_555

#END
