
#######################################################################
#
#                 Cambridge Crystallographic Data Centre
#                                CCDC 
#
#######################################################################
#
# If this CIF has been generated from an entry in the Cambridge 
# Structural Database, then it will include bibliographic, chemical, 
# crystal, experimental, refinement or atomic coordinate data resulting 
# from the CCDC's data processing and validation procedures.
#
#######################################################################

data_NBAMTI18
_chemical_formula_moiety         'C16 H36 N1 1+,I3 1-'
_chemical_name_systematic        'tetra-n-butylammonium triiodide'
_symmetry_cell_setting           triclinic
_symmetry_space_group_name_H-M   'P -1'
_symmetry_Int_Tables_number      2
_space_group_name_Hall           '-P 1'
loop_
_symmetry_equiv_pos_site_id
_symmetry_equiv_pos_as_xyz
1 x,y,z
2 -x,-y,-z
_cell_length_a                   9.5694(5)
_cell_length_b                   15.7461(8)
_cell_length_c                   15.9713(9)
_cell_angle_alpha                83.461(4)
_cell_angle_beta                 74.393(4)
_cell_angle_gamma                78.693(4)
_cell_volume                     2268.08
_exptl_crystal_colour            black
_exptl_crystal_description       block
_cell_formula_units_Z            4
loop_
_atom_site_label
_atom_site_type_symbol
_atom_site_fract_x
_atom_site_fract_y
_atom_site_fract_z
I1 I 0.81012(6) 0.24585(4) 0.49741(3)
I2 I 1.11142(7) 0.26635(4) 0.48306(4)
I3 I 0.50152(7) 0.24101(4) 0.50499(4)
I4 I 0.99835(7) 0.74888(4) 0.00511(3)
I5 I 0.67925(7) 0.78358(5) 0.01687(4)
I6 I 1.31016(8) 0.71959(5) -0.00531(5)
N1 N 0.4207(7) 0.0320(4) 0.2650(4)
C1 C 0.3462(9) 0.1228(5) 0.2434(5)
H1 H 0.3387 0.1261 0.1837
H2 H 0.2467 0.1320 0.2805
C2 C 0.4193(9) 0.1950(6) 0.2529(5)
H3 H 0.5181 0.1874 0.2149
H4 H 0.4276 0.1924 0.3124
C3 C 0.3362(10) 0.2839(6) 0.2312(6)
H5 H 0.3290 0.2868 0.1714
H6 H 0.2369 0.2912 0.2687
C4 C 0.4086(13) 0.3565(7) 0.2419(6)
H7 H 0.3524 0.4109 0.2270
H8 H 0.5065 0.3502 0.2043
H9 H 0.4135 0.3550 0.3013
C5 C 0.5813(8) 0.0177(6) 0.2137(5)
H10 H 0.6305 0.0584 0.2313
H11 H 0.6272 -0.0403 0.2294
C6 C 0.6067(9) 0.0281(6) 0.1152(5)
H12 H 0.5593 0.0854 0.0986
H13 H 0.5627 -0.0144 0.0963
C7 C 0.7710(9) 0.0159(7) 0.0704(5)
H14 H 0.8137 0.0599 0.0878
H15 H 0.8187 -0.0404 0.0895
C8 C 0.8003(12) 0.0218(7) -0.0267(6)
H16 H 0.9047 0.0137 -0.0520
H17 H 0.7552 0.0779 -0.0460
H18 H 0.7600 -0.0224 -0.0443
C9 C 0.3392(9) -0.0312(5) 0.2412(5)
H19 H 0.3386 -0.0190 0.1804
H20 H 0.2378 -0.0205 0.2753
C10 C 0.4014(10) -0.1273(6) 0.2548(6)
H21 H 0.4987 -0.1404 0.2156
H22 H 0.4117 -0.1392 0.3140
C11 C 0.3046(11) -0.1855(6) 0.2389(7)
H23 H 0.2869 -0.1699 0.1816
H24 H 0.2103 -0.1762 0.2816
C12 C 0.3730(14) -0.2811(7) 0.2443(6)
H25 H 0.3082 -0.3155 0.2333
H26 H 0.3881 -0.2973 0.3014
H27 H 0.4659 -0.2908 0.2016
C13 C 0.4179(9) 0.0189(5) 0.3610(4)
H28 H 0.4810 -0.0357 0.3702
H29 H 0.4604 0.0647 0.3754
C14 C 0.2700(9) 0.0182(6) 0.4232(4)
H30 H 0.2320 -0.0322 0.4149
H31 H 0.2025 0.0696 0.4107
C15 C 0.2770(10) 0.0157(6) 0.5187(5)
H32 H 0.3454 -0.0355 0.5307
H33 H 0.3152 0.0661 0.5266
C16 C 0.1334(12) 0.0144(7) 0.5823(6)
H34 H 0.1453 0.0135 0.6402
H35 H 0.0962 -0.0364 0.5765
H36 H 0.0651 0.0653 0.5716
N2 N 0.8160(6) 0.4975(4) 0.2693(4)
C17 C 0.9134(9) 0.4090(5) 0.2551(5)
H37 H 0.9640 0.3950 0.3014
H38 H 0.9879 0.4132 0.2007
C18 C 0.8355(9) 0.3339(6) 0.2525(5)
H39 H 0.7561 0.3310 0.3048
H40 H 0.7932 0.3436 0.2027
C19 C 0.9439(10) 0.2487(6) 0.2459(5)
H41 H 0.9858 0.2390 0.2958
H42 H 1.0235 0.2520 0.1938
C20 C 0.8678(13) 0.1726(7) 0.2426(6)
H43 H 0.9383 0.1197 0.2383
H44 H 0.8274 0.1818 0.1928
H45 H 0.7901 0.1687 0.2947
C21 C 0.7131(8) 0.5170(6) 0.2096(5)
H46 H 0.6525 0.5735 0.2216
H47 H 0.6480 0.4745 0.2238
C22 C 0.7875(9) 0.5169(6) 0.1125(5)
H48 H 0.8449 0.5632 0.0956
H49 H 0.8537 0.4622 0.0996
C23 C 0.6719(11) 0.5295(7) 0.0615(5)
H50 H 0.6150 0.4829 0.0789
H51 H 0.6051 0.5837 0.0758
C24 C 0.7369(13) 0.5310(7) -0.0355(6)
H52 H 0.6592 0.5394 -0.0646
H53 H 0.8011 0.4768 -0.0503
H54 H 0.7919 0.5776 -0.0533
C25 C 0.7198(8) 0.5009(6) 0.3621(4)
H55 H 0.6641 0.4538 0.3730
H56 H 0.6495 0.5548 0.3660
C26 C 0.7981(9) 0.4952(6) 0.4345(4)
H57 H 0.8737 0.4437 0.4293
H58 H 0.8458 0.5453 0.4282
C27 C 0.6923(10) 0.4915(6) 0.5228(5)
H59 H 0.6392 0.4439 0.5272
H60 H 0.6209 0.5449 0.5294
C28 C 0.7698(11) 0.4791(6) 0.5964(5)
H61 H 0.6982 0.4774 0.6515
H62 H 0.8212 0.5265 0.5929
H63 H 0.8388 0.4255 0.5911
C29 C 0.9175(9) 0.5646(5) 0.2527(5)
H64 H 0.9798 0.5506 0.2930
H65 H 0.9812 0.5593 0.1942
C30 C 0.8415(10) 0.6581(6) 0.2616(6)
H66 H 0.7690 0.6634 0.3172
H67 H 0.7907 0.6760 0.2158
C31 C 0.9529(10) 0.7169(6) 0.2555(5)
H68 H 0.9976 0.7024 0.3042
H69 H 1.0303 0.7079 0.2022
C32 C 0.8794(13) 0.8105(7) 0.2563(7)
H70 H 0.9510 0.8468 0.2525
H71 H 0.8036 0.8196 0.3094
H72 H 0.8366 0.8251 0.2075
loop_
_geom_bond_atom_site_label_1
_geom_bond_atom_site_label_2
_geom_bond_site_symmetry_1
_geom_bond_site_symmetry_2
I1 I2 1_555 1_555
I3 I1 1_555 1_555
I4 I5 1_555 1_555
I6 I4 1_555 1_555
N1 C1 1_555 1_555
C1 H1 1_555 1_555
H2 C1 1_555 1_555
C2 C1 1_555 1_555
H3 C2 1_555 1_555
H4 C2 1_555 1_555
C3 C2 1_555 1_555
H5 C3 1_555 1_555
H6 C3 1_555 1_555
C4 C3 1_555 1_555
H7 C4 1_555 1_555
H8 C4 1_555 1_555
H9 C4 1_555 1_555
C5 N1 1_555 1_555
H10 C5 1_555 1_555
H11 C5 1_555 1_555
C6 C5 1_555 1_555
H12 C6 1_555 1_555
H13 C6 1_555 1_555
C7 C6 1_555 1_555
H14 C7 1_555 1_555
H15 C7 1_555 1_555
C8 C7 1_555 1_555
H16 C8 1_555 1_555
H17 C8 1_555 1_555
H18 C8 1_555 1_555
C9 N1 1_555 1_555
H19 C9 1_555 1_555
H20 C9 1_555 1_555
C10 C9 1_555 1_555
H21 C10 1_555 1_555
H22 C10 1_555 1_555
C11 C10 1_555 1_555
H23 C11 1_555 1_555
H24 C11 1_555 1_555
C12 C11 1_555 1_555
H25 C12 1_555 1_555
H26 C12 1_555 1_555
H27 C12 1_555 1_555
C13 N1 1_555 1_555
H28 C13 1_555 1_555
H29 C13 1_555 1_555
C14 C13 1_555 1_555
H30 C14 1_555 1_555
H31 C14 1_555 1_555
C15 C14 1_555 1_555
H32 C15 1_555 1_555
H33 C15 1_555 1_555
C16 C15 1_555 1_555
H34 C16 1_555 1_555
H35 C16 1_555 1_555
H36 C16 1_555 1_555
N2 C17 1_555 1_555
C17 H37 1_555 1_555
H38 C17 1_555 1_555
C18 C17 1_555 1_555
H39 C18 1_555 1_555
H40 C18 1_555 1_555
C19 C18 1_555 1_555
H41 C19 1_555 1_555
H42 C19 1_555 1_555
C20 C19 1_555 1_555
H43 C20 1_555 1_555
H44 C20 1_555 1_555
H45 C20 1_555 1_555
C21 N2 1_555 1_555
H46 C21 1_555 1_555
H47 C21 1_555 1_555
C22 C21 1_555 1_555
H48 C22 1_555 1_555
H49 C22 1_555 1_555
C23 C22 1_555 1_555
H50 C23 1_555 1_555
H51 C23 1_555 1_555
C24 C23 1_555 1_555
H52 C24 1_555 1_555
H53 C24 1_555 1_555
H54 C24 1_555 1_555
C25 N2 1_555 1_555
H55 C25 1_555 1_555
H56 C25 1_555 1_555
C26 C25 1_555 1_555
H57 C26 1_555 1_555
H58 C26 1_555 1_555
C27 C26 1_555 1_555
H59 C27 1_555 1_555
H60 C27 1_555 1_555
C28 C27 1_555 1_555
H61 C28 1_555 1_555
H62 C28 1_555 1_555
H63 C28 1_555 1_555
C29 N2 1_555 1_555
H64 C29 1_555 1_555
H65 C29 1_555 1_555
C30 C29 1_555 1_555
H66 C30 1_555 1_555
H67 C30 1_555 1_555
C31 C30 1_555 1_555
H68 C31 1_555 1_555
H69 C31 1_555 1_555
C32 C31 1_555 1_555
H70 C32 1_555 1_555
H71 C32 1_555 1_555
H72 C32 1_555 1_555

#END
