
#######################################################################
#
#                 Cambridge Crystallographic Data Centre
#                                CCDC 
#
#######################################################################
#
# If this CIF has been generated from an entry in the Cambridge 
# Structural Database, then it will include bibliographic, chemical, 
# crystal, experimental, refinement or atomic coordinate data resulting 
# from the CCDC's data processing and validation procedures.
#
#######################################################################

data_NCONPX
_chemical_formula_moiety         'C20 H34 O4'
_chemical_name_systematic        'Neoconcinndiol hydroperoxide'
_symmetry_cell_setting           monoclinic
_symmetry_space_group_name_H-M   'P 21'
_symmetry_Int_Tables_number      4
_space_group_name_Hall           'P 2yb'
loop_
_symmetry_equiv_pos_site_id
_symmetry_equiv_pos_as_xyz
1 x,y,z
2 -x,1/2+y,-z
_cell_length_a                   6.797(2)
_cell_length_b                   13.550(4)
_cell_length_c                   10.677(3)
_cell_angle_alpha                90
_cell_angle_beta                 96.81(3)
_cell_angle_gamma                90
_cell_volume                     976.407
_cell_formula_units_Z            2
loop_
_atom_site_label
_atom_site_type_symbol
_atom_site_fract_x
_atom_site_fract_y
_atom_site_fract_z
C1 C -0.49610 -0.16630 0.30260
C2 C -0.51870 -0.06310 0.34950
C3 C -0.38520 -0.00330 0.30880
C4 C -0.37620 0.10870 0.32370
C5 C -0.25790 -0.05880 0.22510
C6 C -0.04770 -0.03480 0.20470
C7 C 0.00740 -0.09930 0.09910
C8 C -0.02950 -0.21080 0.11550
C9 C -0.24320 -0.23440 0.15100
C10 C -0.28270 -0.16870 0.26290
C11 C -0.25620 -0.34660 0.17710
C12 C -0.44320 -0.38620 0.21400
C13 C -0.47710 -0.49770 0.19670
C14 C -0.30700 -0.55490 0.27010
C15 C -0.2083 -0.5476 0.3579
C16 C -0.67540 -0.52740 0.24210
C17 C -0.14640 -0.19360 0.38430
C18 C -0.18780 0.14000 0.40530
C19 C -0.55700 0.14970 0.37740
C20 C 0.02150 -0.26590 0.00130
O1 O -0.38850 -0.20740 0.04650
O2 O -0.48270 -0.51560 0.06580
O3 O -0.35690 0.15200 0.20270
O4 O -0.53650 0.12940 0.11830
H1 H -0.58200 -0.17500 0.23800
H2 H -0.49700 -0.21500 0.37800
H3 H -0.63200 -0.04400 0.40600
H4 H -0.31200 -0.05500 0.15100
H5 H -0.04600 0.03700 0.18800
H6 H 0.03300 -0.04400 0.30300
H7 H -0.05600 -0.07800 0.00700
H8 H 0.14400 -0.08600 0.07900
H9 H 0.06100 -0.23500 0.18300
H10 H -0.20300 -0.37600 0.10500
H11 H -0.14900 -0.37100 0.26000
H12 H -0.45300 -0.37400 0.31900
H13 H -0.54100 -0.36200 0.17400
H14 H -0.67700 -0.49700 0.33900
H15 H -0.68200 -0.58700 0.21800
H16 H -0.78000 -0.49100 0.19100
H17 H -0.14900 -0.14400 0.45000
H18 H -0.04100 -0.18800 0.37900
H19 H -0.15800 -0.27800 0.42200
H20 H -0.18500 0.11000 0.48300
H21 H -0.20100 0.21700 0.39800
H22 H -0.09200 0.14500 0.36000
H23 H -0.66100 0.13100 0.32100
H24 H -0.55300 0.21700 0.37500
H25 H -0.56800 0.11800 0.47000
H26 H 0.02500 -0.33100 -0.00500
H27 H 0.13500 -0.26200 -0.04900
H28 H -0.05400 -0.25900 -0.07500
H29 H -0.37400 -0.21500 -0.01900
H30 H -0.51300 -0.56400 0.06100
H31 H -0.53200 0.08700 0.06700
loop_
_geom_bond_atom_site_label_1
_geom_bond_atom_site_label_2
_geom_bond_site_symmetry_1
_geom_bond_site_symmetry_2
C1 C2 1_555 1_555
C2 C3 1_555 1_555
C3 C4 1_555 1_555
C4 C18 1_555 1_555
C5 C3 1_555 1_555
C6 C5 1_555 1_555
C7 C6 1_555 1_555
C8 C7 1_555 1_555
C9 C8 1_555 1_555
C10 C1 1_555 1_555
C11 C9 1_555 1_555
C12 C11 1_555 1_555
C13 C12 1_555 1_555
C14 C13 1_555 1_555
C15 C14 1_555 1_555
C16 C13 1_555 1_555
C17 C10 1_555 1_555
C18 H20 1_555 1_555
C19 C4 1_555 1_555
C20 C8 1_555 1_555
O1 C9 1_555 1_555
O2 C13 1_555 1_555
O3 C4 1_555 1_555
O4 O3 1_555 1_555
H1 C1 1_555 1_555
H2 C1 1_555 1_555
H3 C2 1_555 1_555
H4 C5 1_555 1_555
H5 C6 1_555 1_555
H6 C6 1_555 1_555
H7 C7 1_555 1_555
H8 C7 1_555 1_555
H9 C8 1_555 1_555
H10 C11 1_555 1_555
H11 C11 1_555 1_555
H12 C12 1_555 1_555
H13 C12 1_555 1_555
H14 C16 1_555 1_555
H15 C16 1_555 1_555
H16 C16 1_555 1_555
H17 C17 1_555 1_555
H18 C17 1_555 1_555
H19 C17 1_555 1_555
H21 C18 1_555 1_555
H22 C18 1_555 1_555
H23 C19 1_555 1_555
H24 C19 1_555 1_555
H25 C19 1_555 1_555
H26 C20 1_555 1_555
H27 C20 1_555 1_555
H28 C20 1_555 1_555
H29 O1 1_555 1_555
H30 O2 1_555 1_555
H31 O4 1_555 1_555
C5 C10 1_555 1_555
C9 C10 1_555 1_555

#END
