
#######################################################################
#
#                 Cambridge Crystallographic Data Centre
#                                CCDC 
#
#######################################################################
#
# If this CIF has been generated from an entry in the Cambridge 
# Structural Database, then it will include bibliographic, chemical, 
# crystal, experimental, refinement or atomic coordinate data resulting 
# from the CCDC's data processing and validation procedures.
#
#######################################################################

data_NECFEJ
_chemical_formula_moiety         'C19 H18 Br1 N1 O3 S1'
_chemical_name_systematic        
2-({[5-(4-bromophenyl)-3,4-dihydro-2H-pyrrol-2-yl]methyl}sulfonyl)-1-phenylethan-1-one
_symmetry_cell_setting           monoclinic
_symmetry_space_group_name_H-M   'P 21'
_symmetry_Int_Tables_number      4
_space_group_name_Hall           'P 2yb'
loop_
_symmetry_equiv_pos_site_id
_symmetry_equiv_pos_as_xyz
1 x,y,z
2 -x,1/2+y,-z
_cell_length_a                   5.8680(14)
_cell_length_b                   19.876(4)
_cell_length_c                   7.5288(17)
_cell_angle_alpha                90
_cell_angle_beta                 92.133(4)
_cell_angle_gamma                90
_cell_volume                     877.493
_exptl_crystal_colour            colorless
_exptl_crystal_description       prism
_cell_formula_units_Z            2
loop_
_atom_site_label
_atom_site_type_symbol
_atom_site_fract_x
_atom_site_fract_y
_atom_site_fract_z
Br1 Br -0.07642(14) 0.37740(4) 0.63951(11)
S1 S 0.9540(3) 0.69590(10) 0.0796(3)
N1 N 0.6290(11) 0.6375(3) 0.4056(10)
O1 O 0.5688(13) 0.6064(3) -0.0375(10)
O2 O 1.1634(11) 0.7161(3) 0.1713(10)
O3 O 0.9258(14) 0.7150(4) -0.1048(9)
C1 C 0.6999(15) 0.4998(4) 0.0569(9)
C2 C 0.4972(17) 0.4694(5) -0.0057(13)
H1 H 0.3826 0.4957 -0.0586
C3 C 0.466(2) 0.4021(5) 0.0099(16)
H2 H 0.3306 0.3827 -0.0334
C4 C 0.633(2) 0.3620(5) 0.0897(15)
H3 H 0.6089 0.3161 0.1025
C5 C 0.837(2) 0.3904(4) 0.1503(12)
H4 H 0.9513 0.3634 0.2013
C6 C 0.8716(17) 0.4602(4) 0.1345(11)
H5 H 1.0078 0.4796 0.1756
C7 C 0.7211(16) 0.5741(4) 0.0325(10)
C8 C 0.9430(14) 0.6062(4) 0.0975(11)
H6 H 1.0659 0.5874 0.0307
H7 H 0.9706 0.5941 0.2212
C9 C 0.7245(13) 0.7281(4) 0.1992(10)
H8 H 0.7304 0.7768 0.1954
H9 H 0.5828 0.7142 0.1396
C10 C 0.7205(14) 0.7063(4) 0.3903(10)
H10 H 0.8768 0.7070 0.4409
C11 C 0.5674(18) 0.7523(4) 0.5071(15)
H11 H 0.6589 0.7765 0.5961
H12 H 0.4816 0.7844 0.4343
C12 C 0.4136(14) 0.7033(4) 0.5910(10)
H13 H 0.2552 0.7155 0.5676
H14 H 0.4430 0.7019 0.7186
C13 C 0.4644(13) 0.6371(4) 0.5094(10)
C14 C 0.3322(13) 0.5753(4) 0.5406(9)
C15 C 0.4133(15) 0.5132(4) 0.4845(11)
H15 H 0.5518 0.5114 0.4284
C16 C 0.2941(15) 0.4540(4) 0.5097(10)
H16 H 0.3500 0.4130 0.4713
C17 C 0.0878(13) 0.4581(4) 0.5946(10)
C18 C -0.0011(14) 0.5184(4) 0.6485(10)
H17 H -0.1417 0.5200 0.7014
C19 C 0.1233(13) 0.5774(4) 0.6224(10)
H18 H 0.0659 0.6184 0.6600
loop_
_geom_bond_atom_site_label_1
_geom_bond_atom_site_label_2
_geom_bond_site_symmetry_1
_geom_bond_site_symmetry_2
Br1 C17 1_555 1_555
S1 O2 1_555 1_555
N1 C10 1_555 1_555
O1 C7 1_555 1_555
O3 S1 1_555 1_555
C1 C2 1_555 1_555
C2 H1 1_555 1_555
C3 C2 1_555 1_555
H2 C3 1_555 1_555
C4 C3 1_555 1_555
H3 C4 1_555 1_555
C5 C4 1_555 1_555
H4 C5 1_555 1_555
C6 C1 1_555 1_555
H5 C6 1_555 1_555
C7 C1 1_555 1_555
C8 S1 1_555 1_555
H6 C8 1_555 1_555
H7 C8 1_555 1_555
C9 S1 1_555 1_555
H8 C9 1_555 1_555
H9 C9 1_555 1_555
C10 C9 1_555 1_555
H10 C10 1_555 1_555
C11 C10 1_555 1_555
H11 C11 1_555 1_555
H12 C11 1_555 1_555
C12 C11 1_555 1_555
H13 C12 1_555 1_555
H14 C12 1_555 1_555
C13 N1 1_555 1_555
C14 C13 1_555 1_555
C15 C14 1_555 1_555
H15 C15 1_555 1_555
C16 C15 1_555 1_555
H16 C16 1_555 1_555
C17 C16 1_555 1_555
C18 C17 1_555 1_555
H17 C18 1_555 1_555
C19 C14 1_555 1_555
H18 C19 1_555 1_555
C5 C6 1_555 1_555
C7 C8 1_555 1_555
C12 C13 1_555 1_555
C18 C19 1_555 1_555

#END
