
#######################################################################
#
#                 Cambridge Crystallographic Data Centre
#                                CCDC 
#
#######################################################################
#
# If this CIF has been generated from an entry in the Cambridge 
# Structural Database, then it will include bibliographic, chemical, 
# crystal, experimental, refinement or atomic coordinate data resulting 
# from the CCDC's data processing and validation procedures.
#
#######################################################################

data_NECFOT
_chemical_formula_moiety         'C22 H16 O2 S2'
_chemical_name_systematic        
5-phenyl-3,3-bis(phenylsulfanyl)furan-2(3H)-one
_symmetry_cell_setting           monoclinic
_symmetry_space_group_name_H-M   'P 21/n'
_symmetry_Int_Tables_number      14
_space_group_name_Hall           '-P 2yn'
loop_
_symmetry_equiv_pos_site_id
_symmetry_equiv_pos_as_xyz
1 x,y,z
2 1/2-x,1/2+y,1/2-z
3 -x,-y,-z
4 1/2+x,1/2-y,1/2+z
_cell_length_a                   10.9907(7)
_cell_length_b                   6.4997(5)
_cell_length_c                   26.5655(15)
_cell_angle_alpha                90
_cell_angle_beta                 95.997(5)
_cell_angle_gamma                90
_cell_volume                     1887.35
_exptl_crystal_description       block
_cell_formula_units_Z            4
loop_
_atom_site_label
_atom_site_type_symbol
_atom_site_fract_x
_atom_site_fract_y
_atom_site_fract_z
S1 S 0.14630(7) 0.13745(11) 0.00841(2)
S2 S 0.34791(6) 0.06263(11) 0.09066(3)
O1 O 0.05096(16) 0.3026(2) 0.12475(6)
O2 O 0.20049(18) 0.4980(3) 0.09903(7)
C1 C 0.0219(2) 0.0901(4) 0.12256(9)
C2 C -0.0861(2) 0.0331(4) 0.14678(9)
C3 C 0.1870(2) 0.1285(4) 0.07731(9)
C4 C 0.2465(2) 0.3180(4) -0.01552(9)
C5 C 0.0982(2) -0.0150(4) 0.09695(9)
H1 H 0.0965 -0.1566 0.0920
C6 C -0.1318(3) -0.1673(4) 0.14163(9)
H2 H -0.0913 -0.2648 0.1239
C7 C 0.3669(2) 0.0778(4) 0.15762(10)
C8 C 0.1538(2) 0.3326(4) 0.10032(9)
C9 C 0.3429(3) -0.0908(5) 0.18684(12)
H3 H 0.3120 -0.2107 0.1713
C10 C 0.2054(3) 0.5193(5) -0.02522(10)
H4 H 0.1306 0.5618 -0.0154
C11 C 0.4130(2) 0.2556(4) 0.18148(11)
H5 H 0.4291 0.3705 0.1624
C12 C 0.3577(3) 0.2573(5) -0.03019(10)
H6 H 0.3852 0.1234 -0.0241
C13 C -0.1467(3) 0.1740(5) 0.17408(10)
H7 H -0.1168 0.3074 0.1783
C14 C 0.4349(3) 0.2616(5) 0.23356(12)
H8 H 0.4665 0.3805 0.2494
C15 C 0.4106(3) 0.0941(6) 0.26202(12)
H9 H 0.4252 0.0999 0.2971
C16 C 0.3866(4) 0.5915(6) -0.06350(12)
H10 H 0.4340 0.6836 -0.0798
C17 C -0.2513(3) 0.1176(6) 0.19521(12)
H11 H -0.2910 0.2133 0.2137
C18 C 0.2763(4) 0.6540(5) -0.04940(11)
H12 H 0.2493 0.7877 -0.0562
C19 C 0.3647(3) -0.0821(6) 0.23898(13)
H13 H 0.3483 -0.1958 0.2584
C20 C -0.2972(3) -0.0772(6) 0.18923(12)
H14 H -0.3688 -0.1131 0.2029
C21 C -0.2363(3) -0.2205(5) 0.16274(11)
H15 H -0.2663 -0.3541 0.1592
C22 C 0.4283(3) 0.3951(6) -0.05392(11)
H16 H 0.5039 0.3550 -0.0634
loop_
_geom_bond_atom_site_label_1
_geom_bond_atom_site_label_2
_geom_bond_site_symmetry_1
_geom_bond_site_symmetry_2
S1 C3 1_555 1_555
S2 C3 1_555 1_555
O1 C1 1_555 1_555
O2 C8 1_555 1_555
C1 C2 1_555 1_555
C2 C6 1_555 1_555
C3 C5 1_555 1_555
C4 S1 1_555 1_555
C5 C1 1_555 1_555
H1 C5 1_555 1_555
C6 H2 1_555 1_555
C7 S2 1_555 1_555
C8 O1 1_555 1_555
C9 C7 1_555 1_555
H3 C9 1_555 1_555
C10 C4 1_555 1_555
H4 C10 1_555 1_555
C11 C7 1_555 1_555
H5 C11 1_555 1_555
C12 C4 1_555 1_555
H6 C12 1_555 1_555
C13 C2 1_555 1_555
H7 C13 1_555 1_555
C14 C11 1_555 1_555
H8 C14 1_555 1_555
C15 C14 1_555 1_555
H9 C15 1_555 1_555
C16 H10 1_555 1_555
C17 C13 1_555 1_555
H11 C17 1_555 1_555
C18 C10 1_555 1_555
H12 C18 1_555 1_555
C19 C9 1_555 1_555
H13 C19 1_555 1_555
C20 C17 1_555 1_555
H14 C20 1_555 1_555
C21 C6 1_555 1_555
H15 C21 1_555 1_555
C22 C12 1_555 1_555
H16 C22 1_555 1_555
C3 C8 1_555 1_555
C15 C19 1_555 1_555
C16 C18 1_555 1_555
C16 C22 1_555 1_555
C20 C21 1_555 1_555

#END
