
#######################################################################
#
#                 Cambridge Crystallographic Data Centre
#                                CCDC 
#
#######################################################################
#
# If this CIF has been generated from an entry in the Cambridge 
# Structural Database, then it will include bibliographic, chemical, 
# crystal, experimental, refinement or atomic coordinate data resulting 
# from the CCDC's data processing and validation procedures.
#
#######################################################################

data_NEDHOW
_chemical_formula_moiety         'C4 H12 N2 2+,O3 S1 2-,H2 O1'
_chemical_name_systematic        'piperazine-1,4-diium sulfite monohydrate'
_symmetry_cell_setting           monoclinic
_symmetry_space_group_name_H-M   'P 21/c'
_symmetry_Int_Tables_number      14
_space_group_name_Hall           '-P 2ybc'
loop_
_symmetry_equiv_pos_site_id
_symmetry_equiv_pos_as_xyz
1 x,y,z
2 -x,1/2+y,1/2-z
3 -x,-y,-z
4 x,1/2-y,1/2+z
_cell_length_a                   11.789(4)
_cell_length_b                   6.395(3)
_cell_length_c                   10.672(5)
_cell_angle_alpha                90
_cell_angle_beta                 92.666(6)
_cell_angle_gamma                90
_cell_volume                     803.698
_exptl_crystal_colour            colorless
_exptl_crystal_description       block
_cell_formula_units_Z            4
_chemical_properties_physical    
Air-sensitive,Moisture-sensitive,Hygroscopic,Efflorescent,Deliquescent,Oxygen-sensitive
_exptl_crystal_recrystallization_method ethanol
loop_
_atom_site_label
_atom_site_type_symbol
_atom_site_fract_x
_atom_site_fract_y
_atom_site_fract_z
S1 S 0.74612(4) 0.47609(8) 0.72001(5)
O1 O 0.81017(14) 0.6835(3) 0.71549(15)
O2 O 0.62058(13) 0.5365(3) 0.72607(15)
O3 O 0.77615(14) 0.3858(2) 0.85046(15)
N1 N 0.51658(16) 0.8614(3) 0.60531(17)
C1 C 0.46651(19) 0.7836(3) 0.4833(2)
H1 H 0.4138 0.6707 0.4982
H2 H 0.5262 0.7295 0.4328
C2 C 0.59515(19) 1.0402(3) 0.5861(2)
H3 H 0.6585 0.9936 0.5383
H4 H 0.6251 1.0904 0.6668
H5 H 0.458(3) 0.919(6) 0.659(3)
H6 H 0.557(3) 0.767(5) 0.645(3)
N1B N 0.48342(16) 1.1386(3) 0.39469(17)
C1B C 0.53349(19) 1.2164(3) 0.5167(2)
H1B H 0.5862 1.3293 0.5018
H2B H 0.4738 1.2705 0.5672
C2B C 0.40485(19) 0.9598(3) 0.4139(2)
H3B H 0.3415 1.0064 0.4617
H4B H 0.3749 0.9096 0.3332
H5B H 0.542(3) 1.081(6) 0.341(3)
H6B H 0.443(3) 1.233(5) 0.355(3)
N2 N 0.89769(15) 0.8890(3) 0.52405(18)
C3 C 0.93995(18) 1.0598(4) 0.6089(2)
H7 H 0.9876 1.0012 0.6766
H8 H 0.8762 1.1292 0.6453
C4 C 0.99266(18) 0.7832(3) 0.4632(2)
H9 H 0.9628 0.6760 0.4065
H10 H 1.0419 0.7162 0.5266
H11 H 0.850(3) 0.945(5) 0.462(3)
H12 H 0.859(3) 0.798(6) 0.571(3)
N2B N 1.10231(15) 1.1110(3) 0.47595(18)
C3B C 1.06005(18) 0.9402(4) 0.3911(2)
H7B H 1.0124 0.9988 0.3234
H8B H 1.1238 0.8708 0.3547
C4B C 1.00734(18) 1.2168(3) 0.5368(2)
H9B H 1.0372 1.3240 0.5935
H10B H 0.9581 1.2838 0.4734
H11B H 1.150(3) 1.055(5) 0.538(3)
H12B H 1.141(3) 1.202(6) 0.429(3)
O4 O 0.7359(2) 0.9559(3) 0.90181(19)
H13 H 0.749(3) 0.888(6) 0.839(3)
H14 H 0.751(3) 1.076(7) 0.885(4)
loop_
_geom_bond_atom_site_label_1
_geom_bond_atom_site_label_2
_geom_bond_site_symmetry_1
_geom_bond_site_symmetry_2
S1 O1 1_555 1_555
O2 S1 1_555 1_555
O3 S1 1_555 1_555
N1 C1 1_555 1_555
C1 H1 1_555 1_555
H2 C1 1_555 1_555
C2 N1 1_555 1_555
H3 C2 1_555 1_555
H4 C2 1_555 1_555
H5 N1 1_555 1_555
H6 N1 1_555 1_555
N2 C3 1_555 1_555
C3 H7 1_555 1_555
H8 C3 1_555 1_555
C4 N2 1_555 1_555
H9 C4 1_555 1_555
H10 C4 1_555 1_555
H11 N2 1_555 1_555
H12 N2 1_555 1_555
O4 H13 1_555 1_555
H14 O4 1_555 1_555
N1B C1B 1_555 1_555
C1B C2 1_555 1_555
H1B C1B 1_555 1_555
H2B C1B 1_555 1_555
C2B C1 1_555 1_555
H3B C2B 1_555 1_555
H4B C2B 1_555 1_555
H5B N1B 1_555 1_555
H6B N1B 1_555 1_555
N2B C3B 1_555 1_555
C3B C4 1_555 1_555
H7B C3B 1_555 1_555
H8B C3B 1_555 1_555
C4B C3 1_555 1_555
H9B C4B 1_555 1_555
H10B C4B 1_555 1_555
H11B N2B 1_555 1_555
H12B N2B 1_555 1_555
N1B C2B 1_555 1_555
N2B C4B 1_555 1_555

#END
