
#######################################################################
#
#                 Cambridge Crystallographic Data Centre
#                                CCDC 
#
#######################################################################
#
# If this CIF has been generated from an entry in the Cambridge 
# Structural Database, then it will include bibliographic, chemical, 
# crystal, experimental, refinement or atomic coordinate data resulting 
# from the CCDC's data processing and validation procedures.
#
#######################################################################

data_NEDMUF
_chemical_formula_moiety         'C14 H13 N1 O3'
_chemical_name_systematic        N-(2-Oxyphenyl)-3-methoxysalicylaldimine
_symmetry_cell_setting           orthorhombic
_symmetry_space_group_name_H-M   'P b c n'
_symmetry_Int_Tables_number      60
_space_group_name_Hall           '-P 2n 2ab'
loop_
_symmetry_equiv_pos_site_id
_symmetry_equiv_pos_as_xyz
1 x,y,z
2 1/2-x,1/2-y,1/2+z
3 1/2+x,1/2-y,-z
4 -x,y,1/2-z
5 -x,-y,-z
6 1/2+x,1/2+y,1/2-z
7 1/2-x,1/2+y,z
8 x,-y,1/2+z
_cell_length_a                   8.9786(14)
_cell_length_b                   12.628(5)
_cell_length_c                   20.085(3)
_cell_angle_alpha                90
_cell_angle_beta                 90
_cell_angle_gamma                90
_cell_volume                     2277.27
_chemical_melting_point          104deg.C
_cell_formula_units_Z            8
_exptl_crystal_recrystallization_method methanol
loop_
_atom_site_label
_atom_site_type_symbol
_atom_site_fract_x
_atom_site_fract_y
_atom_site_fract_z
O1 O 0.89912(13) 0.20872(10) -0.04437(6)
O2 O 0.59044(12) 0.13938(9) 0.06658(6)
O3 O 0.39777(12) 0.14809(9) 0.16634(6)
N1 N 0.76991(14) 0.02670(11) -0.00911(7)
C1 C 0.94007(17) 0.12128(13) -0.07870(9)
C2 C 1.04259(18) 0.12439(13) -0.13033(9)
C3 C 1.08586(19) 0.03218(14) -0.16137(9)
C4 C 1.02860(18) -0.06441(14) -0.14141(9)
C5 C 0.92338(18) -0.06779(13) -0.09118(8)
C6 C 0.87826(17) 0.02447(13) -0.06022(8)
C7 C 0.70995(17) -0.05512(13) 0.02022(8)
C8 C 0.60209(17) -0.04856(13) 0.07077(8)
C9 C 0.55113(19) -0.14372(14) 0.09984(9)
C10 C 0.4506(2) -0.14095(14) 0.15011(10)
C11 C 0.39648(19) -0.04366(14) 0.17384(9)
C12 C 0.44256(18) 0.04940(13) 0.14663(9)
C13 C 0.54824(17) 0.05143(13) 0.09280(8)
C14 C 0.30983(19) 0.15516(15) 0.22555(9)
H1 H 1.08300 0.19030 -0.14430
H2 H 1.15570 0.03490 -0.19680
H3 H 1.06130 -0.12800 -0.16210
H4 H 0.88200 -0.13370 -0.07790
H5 H 0.74130 -0.12360 0.00650
H6 H 0.58740 -0.20980 0.08410
H7 H 0.41650 -0.20520 0.16940
H8 H 0.32670 -0.04280 0.20940
H9 H 0.7339(19) 0.0889(16) 0.0056(9)
H10 H 0.959(3) 0.266(2) -0.0558(13)
H11 H 0.21280 0.12180 0.21790
H12 H 0.29530 0.22980 0.23730
H13 H 0.36110 0.11880 0.26210
loop_
_geom_bond_atom_site_label_1
_geom_bond_atom_site_label_2
_geom_bond_site_symmetry_1
_geom_bond_site_symmetry_2
O1 C1 1_555 1_555
O2 C13 1_555 1_555
O3 C12 1_555 1_555
N1 C6 1_555 1_555
C1 C2 1_555 1_555
C2 C3 1_555 1_555
C3 C4 1_555 1_555
C4 C5 1_555 1_555
C5 C6 1_555 1_555
C6 C1 1_555 1_555
C7 N1 1_555 1_555
C8 C7 1_555 1_555
C9 C8 1_555 1_555
C10 C9 1_555 1_555
C11 C10 1_555 1_555
C12 C11 1_555 1_555
C13 C8 1_555 1_555
C14 O3 1_555 1_555
H1 C2 1_555 1_555
H2 C3 1_555 1_555
H3 C4 1_555 1_555
H4 C5 1_555 1_555
H5 C7 1_555 1_555
H6 C9 1_555 1_555
H7 C10 1_555 1_555
H8 C11 1_555 1_555
H9 N1 1_555 1_555
H10 O1 1_555 1_555
H11 C14 1_555 1_555
H12 C14 1_555 1_555
H13 C14 1_555 1_555
C12 C13 1_555 1_555

#END
