
#######################################################################
#
#                 Cambridge Crystallographic Data Centre
#                                CCDC 
#
#######################################################################
#
# If this CIF has been generated from an entry in the Cambridge 
# Structural Database, then it will include bibliographic, chemical, 
# crystal, experimental, refinement or atomic coordinate data resulting 
# from the CCDC's data processing and validation procedures.
#
#######################################################################

data_NEDPIX
_chemical_formula_moiety         'C78 H108 O12'
_chemical_name_systematic        
'4,9,14,19,24,29,31,33,35,37,39,41-Dodecapropoxyheptacyclo[26.2.2.2^3,6^.2^8,11^.2^13,16^.2^18,21^.2^23,26^]dotetraconta-1(30),3,5,8,10,13,15,18,20,23,25,28,31,33,35,37,39,41-octadecaene unknown solvate'
_symmetry_cell_setting           triclinic
_symmetry_space_group_name_H-M   'P -1'
_symmetry_Int_Tables_number      2
_space_group_name_Hall           '-P 1'
loop_
_symmetry_equiv_pos_site_id
_symmetry_equiv_pos_as_xyz
1 x,y,z
2 -x,-y,-z
_cell_length_a                   13.2244(10)
_cell_length_b                   13.7845(10)
_cell_length_c                   23.3051(12)
_cell_angle_alpha                89.203(5)
_cell_angle_beta                 79.553(5)
_cell_angle_gamma                76.373(6)
_cell_volume                     4058.45
_exptl_crystal_colour            yellow
_exptl_crystal_description       block
_cell_formula_units_Z            2
loop_
_atom_site_label
_atom_site_type_symbol
_atom_site_fract_x
_atom_site_fract_y
_atom_site_fract_z
O1 O 0.3362(3) 0.4361(3) 0.49928(15)
O2 O 0.6890(4) 0.4424(4) 0.33315(19)
O3 O 0.3208(4) 0.6528(3) 0.32841(15)
O4 O 0.6452(4) 0.5638(3) 0.13399(16)
O5 O 0.2562(3) 0.5284(3) 0.13266(18)
O6 O 0.6189(2) 0.2855(2) 0.00461(14)
O7 O 0.2423(2) 0.1764(2) 0.06090(13)
O8 O 0.6117(2) -0.0786(2) 0.10141(13)
O9 O 0.2385(3) -0.0653(3) 0.22507(14)
O10 O 0.6071(3) -0.1526(3) 0.31587(15)
O11 O 0.2706(5) 0.0899(4) 0.4157(2)
O12 O 0.6642(4) 0.0962(4) 0.45814(18)
C1 C 0.5071(6) 0.2693(4) 0.4903(2)
H1 H 0.4547 0.2890 0.5256
H2 H 0.5757 0.2490 0.5019
C2 C 0.5066(5) 0.3588(5) 0.4536(2)
C3 C 0.4218(5) 0.4407(4) 0.4581(2)
C4 C 0.4306(5) 0.5227(4) 0.4254(2)
H3 H 0.3749 0.5792 0.4315
C5 C 0.5197(5) 0.5248(4) 0.3833(2)
C6 C 0.6015(5) 0.4410(5) 0.3750(2)
C7 C 0.5969(5) 0.3563(4) 0.4097(2)
H4 H 0.6525 0.2997 0.4038
C8 C 0.2480(6) 0.5188(5) 0.5087(3)
H5 H 0.2237 0.5368 0.4723
H6 H 0.2674 0.5758 0.5237
C9 C 0.1616(6) 0.4901(7) 0.5521(3)
H7 H 0.1033 0.5485 0.5611
H8 H 0.1884 0.4721 0.5879
C10 C 0.1184(8) 0.4053(9) 0.5339(4)
H9 H 0.0902 0.4222 0.4989
H10 H 0.0634 0.3942 0.5644
H11 H 0.1743 0.3457 0.5267
C11 C 0.7737(6) 0.3641(8) 0.3212(3)
H12 H 0.7509 0.3075 0.3082
H13 H 0.8008 0.3460 0.3568
C12 C 0.8600(8) 0.3837(10) 0.2762(4)
H14 H 0.8332 0.3990 0.2403
H15 H 0.8799 0.4424 0.2885
C13 C 0.9543(11) 0.3027(14) 0.2641(6)
H16 H 0.9411 0.2509 0.2414
H17 H 0.9725 0.2762 0.3002
H18 H 1.0117 0.3273 0.2426
C14 C 0.5271(6) 0.6169(4) 0.3489(2)
H19 H 0.5979 0.6273 0.3459
H20 H 0.4779 0.6742 0.3699
C15 C 0.5030(6) 0.6107(4) 0.2875(2)
C16 C 0.4036(6) 0.6320(4) 0.2777(2)
C17 C 0.3845(6) 0.6275(4) 0.2228(2)
H21 H 0.3147 0.6404 0.2175
C18 C 0.4647(7) 0.6045(4) 0.1744(2)
C19 C 0.5678(6) 0.5871(4) 0.1831(2)
C20 C 0.5899(6) 0.5880(4) 0.2388(2)
H22 H 0.6594 0.5741 0.2448
C21 C 0.2161(5) 0.6999(5) 0.3203(3)
H23 H 0.1901 0.6570 0.2967
H24 H 0.2155 0.7625 0.3008
C22 C 0.1468(6) 0.7182(6) 0.3810(3)
H25 H 0.0742 0.7477 0.3771
H26 H 0.1485 0.6548 0.3998
C23 C 0.1830(6) 0.7865(7) 0.4189(3)
H27 H 0.1866 0.8475 0.3991
H28 H 0.2517 0.7543 0.4265
H29 H 0.1337 0.8011 0.4551
C24 C 0.7332(9) 0.5904(11) 0.1329(4)
H30 H 0.7739 0.5492 0.1588
H31 H 0.7181 0.6594 0.1466
C25 C 0.7973(6) 0.5794(7) 0.0715(4)
H32 H 0.7512 0.5965 0.0431
H33 H 0.8463 0.6227 0.0668
C26 C 0.8534(16) 0.4770(14) 0.0643(15)
H34 H 0.8932 0.4596 0.0951
H35 H 0.9008 0.4668 0.0273
H36 H 0.8039 0.4356 0.0657
C27 C 0.4383(6) 0.6034(4) 0.1142(2)
H37 H 0.3692 0.6475 0.1145
H38 H 0.4896 0.6295 0.0871
C28 C 0.4378(4) 0.5020(3) 0.09291(18)
C29 C 0.3469(4) 0.4658(3) 0.1003(2)
C30 C 0.3454(3) 0.3761(3) 0.07397(18)
H39 H 0.2824 0.3555 0.0785
C31 C 0.4368(3) 0.3171(3) 0.04094(16)
C32 C 0.5299(3) 0.3486(3) 0.03646(16)
C33 C 0.5298(4) 0.4398(3) 0.06104(19)
H40 H 0.5929 0.4603 0.0562
C34 C 0.1566(7) 0.4866(8) 0.1459(5)
H41 H 0.1332 0.4746 0.1101
H42 H 0.1705 0.4245 0.1663
C35 C 0.0748(10) 0.5650(9) 0.1834(6)
H43 H 0.0136 0.5382 0.1975
H44 H 0.1031 0.5791 0.2171
C36 C 0.043(2) 0.6492(18) 0.1580(12)
H45 H 0.0893 0.6500 0.1212
H46 H 0.0451 0.7040 0.1825
H47 H -0.0277 0.6553 0.1518
C37 C 0.7171(4) 0.3136(4) 0.0011(2)
H48 H 0.7354 0.3142 0.0395
H49 H 0.7119 0.3799 -0.0145
C38 C 0.7994(5) 0.2387(6) -0.0383(3)
H50 H 0.8671 0.2558 -0.0410
H51 H 0.7820 0.2424 -0.0771
C39 C 0.8095(5) 0.1338(6) -0.0182(4)
H52 H 0.8711 0.0910 -0.0411
H53 H 0.7477 0.1116 -0.0227
H54 H 0.8162 0.1314 0.0222
C40 C 0.4324(3) 0.2239(3) 0.01019(16)
H55 H 0.3703 0.2385 -0.0080
H56 H 0.4939 0.2062 -0.0208
C41 C 0.4287(3) 0.1351(3) 0.04745(15)
C42 C 0.3330(3) 0.1098(3) 0.07175(16)
C43 C 0.3341(4) 0.0225(3) 0.10255(16)
H57 H 0.2701 0.0061 0.1170
C44 C 0.4256(3) -0.0400(3) 0.11232(15)
C45 C 0.5210(3) -0.0132(3) 0.08950(16)
C46 C 0.5214(3) 0.0716(3) 0.05833(15)
H58 H 0.5858 0.0873 0.0439
C47 C 0.1443(4) 0.1605(5) 0.0894(2)
H59 H 0.1429 0.1559 0.1311
H60 H 0.1338 0.0985 0.0751
C48 C 0.0584(4) 0.2468(6) 0.0772(3)
H61 H 0.0635 0.2545 0.0354
H62 H 0.0660 0.3080 0.0941
C49 C -0.0495(6) 0.2266(10) 0.1039(4)
H63 H -0.0591 0.1693 0.0846
H64 H -0.1048 0.2836 0.0992
H65 H -0.0519 0.2141 0.1447
C50 C 0.7076(4) -0.0522(3) 0.08076(19)
H66 H 0.7050 0.0134 0.0963
H67 H 0.7192 -0.0497 0.0385
C51 C 0.7972(5) -0.1283(6) 0.0994(3)
H68 H 0.8016 -0.1931 0.0821
H69 H 0.7828 -0.1336 0.1415
C52 C 0.9018(5) -0.0999(7) 0.0811(3)
H70 H 0.9099 -0.0821 0.0408
H71 H 0.9585 -0.1555 0.0861
H72 H 0.9034 -0.0440 0.1048
C53 C 0.4250(4) -0.1339(4) 0.14614(18)
H73 H 0.3629 -0.1571 0.1418
H74 H 0.4868 -0.1853 0.1295
C54 C 0.4246(4) -0.1204(3) 0.21000(17)
C55 C 0.3300(4) -0.0841(4) 0.24934(19)
C56 C 0.3298(4) -0.0712(4) 0.3070(2)
H75 H 0.2657 -0.0462 0.3320
C57 C 0.4217(4) -0.0939(3) 0.32960(18)
C58 C 0.5171(4) -0.1308(3) 0.29085(19)
C59 C 0.5172(4) -0.1422(3) 0.23211(18)
H76 H 0.5813 -0.1651 0.2068
C60 C 0.1399(5) -0.0165(6) 0.2604(3)
H77 H 0.1419 0.0505 0.2714
H78 H 0.1267 -0.0531 0.2957
C61 C 0.0533(6) -0.0124(7) 0.2256(3)
H79 H -0.0136 0.0261 0.2470
H80 H 0.0695 0.0190 0.1887
C62 C 0.0469(10) -0.1134(10) 0.2157(6)
H81 H 0.1147 -0.1518 0.1965
H82 H -0.0048 -0.1134 0.1916
H83 H 0.0265 -0.1424 0.2524
C63 C 0.7047(5) -0.1992(5) 0.2802(3)
H84 H 0.7233 -0.1557 0.2490
H85 H 0.6995 -0.2610 0.2629
C64 C 0.7857(8) -0.2195(8) 0.3176(6)
H86 H 0.8107 -0.1594 0.3210
H87 H 0.7526 -0.2340 0.3564
C65 C 0.8765(9) -0.3014(10) 0.2973(6)
H88 H 0.8532 -0.3550 0.2822
H89 H 0.9118 -0.3244 0.3292
H90 H 0.9246 -0.2787 0.2671
C66 C 0.4216(5) -0.0854(4) 0.3942(2)
H91 H 0.3515 -0.0864 0.4152
H92 H 0.4704 -0.1441 0.4049
C67 C 0.4508(5) 0.0052(4) 0.4148(2)
C68 C 0.3708(7) 0.0924(5) 0.4269(3)
C69 C 0.3880(7) 0.1787(5) 0.4513(3)
H93 H 0.3326 0.2352 0.4594
C70 C 0.4853(6) 0.1807(5) 0.4633(2)
C71 C 0.5709(6) 0.0938(5) 0.4475(2)
C72 C 0.5470(5) 0.0043(5) 0.4257(2)
H94 H 0.5997 -0.0545 0.4193
C73 C 0.1859(9) 0.1786(9) 0.4291(5)
H95 H 0.2054 0.2346 0.4079
H96 H 0.1721 0.1951 0.4705
C74 C 0.0922(9) 0.1589(10) 0.4119(6)
H97 H 0.1072 0.1421 0.3705
H98 H 0.0745 0.1020 0.4328
C75 C 0.0035(9) 0.2430(10) 0.4240(5)
H99 H -0.0388 0.2464 0.3943
H100 H 0.0281 0.3030 0.4246
H101 H -0.0385 0.2358 0.4613
C76 C 0.7463(6) 0.0119(6) 0.4417(3)
H102 H 0.7517 -0.0054 0.4008
H103 H 0.7327 -0.0444 0.4647
C77 C 0.8463(8) 0.0350(8) 0.4514(4)
H104 H 0.8437 0.0456 0.4928
H105 H 0.8563 0.0952 0.4315
C78 C 0.9351(9) -0.0514(9) 0.4280(5)
H106 H 0.9363 -0.0618 0.3872
H107 H 0.9252 -0.1102 0.4486
H108 H 1.0009 -0.0378 0.4332
C79? C 0.9087(14) 0.563(2) 0.0801(18)
C80? C 0.805(3) -0.295(3) 0.3604(16)
H109? H 0.7872 0.5230 0.0507
H110? H 0.7775 0.6394 0.0499
H111? H 0.9445 0.4943 0.0708
H112? H 0.9097 0.5782 0.1200
H113? H 0.9438 0.6053 0.0549
H114? H 0.7766 -0.1568 0.3385
H115? H 0.8526 -0.2288 0.2907
H116? H 0.7385 -0.3027 0.3821
H117? H 0.8437 -0.3569 0.3411
H118? H 0.8451 -0.2747 0.3865
loop_
_geom_bond_atom_site_label_1
_geom_bond_atom_site_label_2
_geom_bond_site_symmetry_1
_geom_bond_site_symmetry_2
O1 C3 1_555 1_555
O2 C6 1_555 1_555
O3 C16 1_555 1_555
O4 C19 1_555 1_555
O5 C29 1_555 1_555
O6 C32 1_555 1_555
O7 C42 1_555 1_555
O8 C45 1_555 1_555
O9 C55 1_555 1_555
O10 C58 1_555 1_555
O11 C68 1_555 1_555
O12 C71 1_555 1_555
C1 H1 1_555 1_555
H2 C1 1_555 1_555
C2 C1 1_555 1_555
C3 C2 1_555 1_555
C4 C3 1_555 1_555
H3 C4 1_555 1_555
C5 C4 1_555 1_555
C6 C5 1_555 1_555
C7 C2 1_555 1_555
H4 C7 1_555 1_555
C8 O1 1_555 1_555
H5 C8 1_555 1_555
H6 C8 1_555 1_555
C9 C8 1_555 1_555
H7 C9 1_555 1_555
H8 C9 1_555 1_555
C10 C9 1_555 1_555
H9 C10 1_555 1_555
H10 C10 1_555 1_555
H11 C10 1_555 1_555
C11 O2 1_555 1_555
H12 C11 1_555 1_555
H13 C11 1_555 1_555
C12 C11 1_555 1_555
H14 C12 1_555 1_555
H15 C12 1_555 1_555
C13 C12 1_555 1_555
H16 C13 1_555 1_555
H17 C13 1_555 1_555
H18 C13 1_555 1_555
C14 C5 1_555 1_555
H19 C14 1_555 1_555
H20 C14 1_555 1_555
C15 C14 1_555 1_555
C16 C15 1_555 1_555
C17 C16 1_555 1_555
H21 C17 1_555 1_555
C18 C17 1_555 1_555
C19 C18 1_555 1_555
C20 C15 1_555 1_555
H22 C20 1_555 1_555
C21 O3 1_555 1_555
H23 C21 1_555 1_555
H24 C21 1_555 1_555
C22 C21 1_555 1_555
H25 C22 1_555 1_555
H26 C22 1_555 1_555
C23 C22 1_555 1_555
H27 C23 1_555 1_555
H28 C23 1_555 1_555
H29 C23 1_555 1_555
C24 O4 1_555 1_555
H30 C24 1_555 1_555
H31 C24 1_555 1_555
C25 C24 1_555 1_555
H32 C25 1_555 1_555
H33 C25 1_555 1_555
C26 C25 1_555 1_555
H34 C26 1_555 1_555
H35 C26 1_555 1_555
H36 C26 1_555 1_555
C27 C18 1_555 1_555
H37 C27 1_555 1_555
H38 C27 1_555 1_555
C28 C27 1_555 1_555
C29 C28 1_555 1_555
C30 C29 1_555 1_555
H39 C30 1_555 1_555
C31 C30 1_555 1_555
C32 C31 1_555 1_555
C33 C28 1_555 1_555
H40 C33 1_555 1_555
C34 O5 1_555 1_555
H41 C34 1_555 1_555
H42 C34 1_555 1_555
C35 C34 1_555 1_555
H43 C35 1_555 1_555
H44 C35 1_555 1_555
C36 C35 1_555 1_555
H45 C36 1_555 1_555
H46 C36 1_555 1_555
H47 C36 1_555 1_555
C37 O6 1_555 1_555
H48 C37 1_555 1_555
H49 C37 1_555 1_555
C38 C37 1_555 1_555
H50 C38 1_555 1_555
H51 C38 1_555 1_555
C39 C38 1_555 1_555
H52 C39 1_555 1_555
H53 C39 1_555 1_555
H54 C39 1_555 1_555
C40 C31 1_555 1_555
H55 C40 1_555 1_555
H56 C40 1_555 1_555
C41 C40 1_555 1_555
C42 C41 1_555 1_555
C43 C42 1_555 1_555
H57 C43 1_555 1_555
C44 C43 1_555 1_555
C45 C44 1_555 1_555
C46 C41 1_555 1_555
H58 C46 1_555 1_555
C47 O7 1_555 1_555
H59 C47 1_555 1_555
H60 C47 1_555 1_555
C48 C47 1_555 1_555
H61 C48 1_555 1_555
H62 C48 1_555 1_555
C49 C48 1_555 1_555
H63 C49 1_555 1_555
H64 C49 1_555 1_555
H65 C49 1_555 1_555
C50 O8 1_555 1_555
H66 C50 1_555 1_555
H67 C50 1_555 1_555
C51 C50 1_555 1_555
H68 C51 1_555 1_555
H69 C51 1_555 1_555
C52 C51 1_555 1_555
H70 C52 1_555 1_555
H71 C52 1_555 1_555
H72 C52 1_555 1_555
C53 C44 1_555 1_555
H73 C53 1_555 1_555
H74 C53 1_555 1_555
C54 C53 1_555 1_555
C55 C54 1_555 1_555
C56 C55 1_555 1_555
H75 C56 1_555 1_555
C57 C56 1_555 1_555
C58 C57 1_555 1_555
C59 C54 1_555 1_555
H76 C59 1_555 1_555
C60 O9 1_555 1_555
H77 C60 1_555 1_555
H78 C60 1_555 1_555
C61 C60 1_555 1_555
H79 C61 1_555 1_555
H80 C61 1_555 1_555
C62 C61 1_555 1_555
H81 C62 1_555 1_555
H82 C62 1_555 1_555
H83 C62 1_555 1_555
C63 O10 1_555 1_555
H84 C63 1_555 1_555
H85 C63 1_555 1_555
C64 C63 1_555 1_555
H86 C64 1_555 1_555
H87 C64 1_555 1_555
C65 C64 1_555 1_555
H88 C65 1_555 1_555
H89 C65 1_555 1_555
H90 C65 1_555 1_555
C66 C57 1_555 1_555
H91 C66 1_555 1_555
H92 C66 1_555 1_555
C67 C66 1_555 1_555
C68 C67 1_555 1_555
C69 C68 1_555 1_555
H93 C69 1_555 1_555
C70 C1 1_555 1_555
C71 C70 1_555 1_555
C72 C67 1_555 1_555
H94 C72 1_555 1_555
C73 O11 1_555 1_555
H95 C73 1_555 1_555
H96 C73 1_555 1_555
C74 C73 1_555 1_555
H97 C74 1_555 1_555
H98 C74 1_555 1_555
C75 C74 1_555 1_555
H99 C75 1_555 1_555
H100 C75 1_555 1_555
H101 C75 1_555 1_555
C76 O12 1_555 1_555
H102 C76 1_555 1_555
H103 C76 1_555 1_555
C77 C76 1_555 1_555
H104 C77 1_555 1_555
H105 C77 1_555 1_555
C78 C77 1_555 1_555
H106 C78 1_555 1_555
H107 C78 1_555 1_555
H108 C78 1_555 1_555
C6 C7 1_555 1_555
C19 C20 1_555 1_555
C32 C33 1_555 1_555
C45 C46 1_555 1_555
C58 C59 1_555 1_555
C69 C70 1_555 1_555
C71 C72 1_555 1_555

#END
