
#######################################################################
#
#                 Cambridge Crystallographic Data Centre
#                                CCDC 
#
#######################################################################
#
# If this CIF has been generated from an entry in the Cambridge 
# Structural Database, then it will include bibliographic, chemical, 
# crystal, experimental, refinement or atomic coordinate data resulting 
# from the CCDC's data processing and validation procedures.
#
#######################################################################

data_NEDQIZ
_chemical_formula_moiety         'C27 H18 N2 O3'
_chemical_name_systematic        
2-[3-(10b-methyl-6-oxo-10b,11-dihydro-6H-isoindolo[2,1-a]indol-11-yl)prop-2-yn-1-yl]-1H-isoindole-1,3(2H)-dione
_symmetry_cell_setting           orthorhombic
_symmetry_space_group_name_H-M   'P 21 21 21'
_symmetry_Int_Tables_number      19
_space_group_name_Hall           'P 2ac 2ab'
loop_
_symmetry_equiv_pos_site_id
_symmetry_equiv_pos_as_xyz
1 x,y,z
2 1/2-x,-y,1/2+z
3 -x,1/2+y,1/2-z
4 1/2+x,1/2-y,-z
_cell_length_a                   9.2523(4)
_cell_length_b                   10.9400(6)
_cell_length_c                   21.3803(11)
_cell_angle_alpha                90
_cell_angle_beta                 90
_cell_angle_gamma                90
_cell_volume                     2164.12
_exptl_crystal_colour            colorless
_exptl_crystal_description       block
_cell_formula_units_Z            4
loop_
_atom_site_label
_atom_site_type_symbol
_atom_site_fract_x
_atom_site_fract_y
_atom_site_fract_z
O1 O 0.35996(19) 1.04402(17) 1.05754(8)
O2 O 0.21604(16) 0.69178(15) 0.99806(7)
O3 O 0.1039(2) 0.44495(16) 1.16254(8)
N1 N 0.19316(19) 1.05404(14) 1.13771(7)
N2 N 0.12325(16) 0.57185(14) 1.07680(7)
C1 C -0.0844(4) 1.2276(2) 1.04709(15)
H1 H -0.0968 1.2892 1.0176
C2 C -0.2037(4) 1.1682(3) 1.07026(15)
H2 H -0.2951 1.1894 1.0558
C3 C -0.1900(3) 1.0781(3) 1.11437(12)
H3 H -0.2714 1.0389 1.1301
C4 C -0.0550(2) 1.04647(19) 1.13508(9)
C5 C 0.0662(3) 1.10432(18) 1.11101(10)
C6 C 0.0553(4) 1.1978(2) 1.06688(13)
H4 H 0.1363 1.2381 1.0515
C7 C -0.0085(2) 0.9444(2) 1.17823(8)
H5 H -0.0672 0.9436 1.2164
C8 C 0.1513(2) 0.98108(19) 1.19313(8)
C9 C 0.1563(3) 1.0609(3) 1.25152(10)
H6 H 0.2546 1.0833 1.2602
H7 H 0.1177 1.0162 1.2864
H8 H 0.0998 1.1333 1.2448
C10 C 0.3114(2) 1.00815(19) 1.10695(9)
C11 C 0.36115(19) 0.90359(19) 1.14565(9)
C12 C 0.2657(2) 0.88399(19) 1.19364(8)
C13 C 0.2853(2) 0.7865(2) 1.23432(10)
H9 H 0.2205 0.7711 1.2666
C14 C 0.4053(3) 0.7131(3) 1.22488(12)
H10 H 0.4211 0.6472 1.2515
C15 C 0.5016(3) 0.7349(3) 1.17730(12)
H11 H 0.5820 0.6846 1.1729
C16 C 0.4815(3) 0.8282(2) 1.13665(11)
H12 H 0.5456 0.8418 1.1039
C17 C -0.01921(19) 0.82754(18) 1.14515(8)
C18 C -0.02435(18) 0.73601(19) 1.11522(9)
C19 C -0.0203(2) 0.62406(19) 1.07830(10)
H13 H -0.0871 0.5651 1.0960
H14 H -0.0515 0.6417 1.0359
C20 C 0.1751(2) 0.49063(18) 1.12124(9)
C21 C 0.2321(2) 0.61465(18) 1.03759(8)
C22 C 0.36527(19) 0.54885(18) 1.05659(8)
C23 C 0.3304(2) 0.47478(18) 1.10696(9)
C24 C 0.4334(3) 0.4035(2) 1.13570(11)
H15 H 0.4106 0.3528 1.1692
C25 C 0.5732(3) 0.4110(3) 1.11208(12)
H16 H 0.6462 0.3659 1.1312
C26 C 0.6067(3) 0.4822(3) 1.06192(11)
H17 H 0.7009 0.4831 1.0468
C27 C 0.5026(2) 0.5534(2) 1.03298(10)
H18 H 0.5251 0.6024 0.9988
loop_
_geom_bond_atom_site_label_1
_geom_bond_atom_site_label_2
_geom_bond_site_symmetry_1
_geom_bond_site_symmetry_2
O1 C10 1_555 1_555
O2 C21 1_555 1_555
O3 C20 1_555 1_555
N1 C5 1_555 1_555
N2 C19 1_555 1_555
C1 H1 1_555 1_555
C2 C1 1_555 1_555
H2 C2 1_555 1_555
C3 C2 1_555 1_555
H3 C3 1_555 1_555
C4 C3 1_555 1_555
C5 C4 1_555 1_555
C6 C1 1_555 1_555
H4 C6 1_555 1_555
C7 C4 1_555 1_555
H5 C7 1_555 1_555
C8 N1 1_555 1_555
C9 C8 1_555 1_555
H6 C9 1_555 1_555
H7 C9 1_555 1_555
H8 C9 1_555 1_555
C10 N1 1_555 1_555
C11 C10 1_555 1_555
C12 C8 1_555 1_555
C13 C12 1_555 1_555
H9 C13 1_555 1_555
C14 C13 1_555 1_555
H10 C14 1_555 1_555
C15 C14 1_555 1_555
H11 C15 1_555 1_555
C16 C11 1_555 1_555
H12 C16 1_555 1_555
C17 C7 1_555 1_555
C18 C17 1_555 1_555
C19 C18 1_555 1_555
H13 C19 1_555 1_555
H14 C19 1_555 1_555
C20 N2 1_555 1_555
C21 N2 1_555 1_555
C22 C21 1_555 1_555
C23 C20 1_555 1_555
C24 C23 1_555 1_555
H15 C24 1_555 1_555
C25 C24 1_555 1_555
H16 C25 1_555 1_555
C26 C25 1_555 1_555
H17 C26 1_555 1_555
C27 C22 1_555 1_555
H18 C27 1_555 1_555
C5 C6 1_555 1_555
C7 C8 1_555 1_555
C11 C12 1_555 1_555
C15 C16 1_555 1_555
C22 C23 1_555 1_555
C26 C27 1_555 1_555

#END
