
#######################################################################
#
#                 Cambridge Crystallographic Data Centre
#                                CCDC 
#
#######################################################################
#
# If this CIF has been generated from an entry in the Cambridge 
# Structural Database, then it will include bibliographic, chemical, 
# crystal, experimental, refinement or atomic coordinate data resulting 
# from the CCDC's data processing and validation procedures.
#
#######################################################################

data_NEFSEZ
_chemical_formula_moiety         'C12 H13 O6 P1'
_chemical_name_systematic        
'dimethyl (7-hydroxy-4-methyl-2-oxo-2H-1-benzopyran-3-yl)phosphonate'
_symmetry_cell_setting           monoclinic
_symmetry_space_group_name_H-M   'P 21/c'
_symmetry_Int_Tables_number      14
_space_group_name_Hall           '-P 2ybc'
loop_
_symmetry_equiv_pos_site_id
_symmetry_equiv_pos_as_xyz
1 x,y,z
2 -x,1/2+y,1/2-z
3 -x,-y,-z
4 x,1/2-y,1/2+z
_cell_length_a                   9.9684(7)
_cell_length_b                   7.8695(6)
_cell_length_c                   16.6927(10)
_cell_angle_alpha                90
_cell_angle_beta                 106.097(7)
_cell_angle_gamma                90
_cell_volume                     1258.14
_exptl_crystal_colour            colorless
_exptl_crystal_description       prism
_cell_formula_units_Z            4
_exptl_crystal_recrystallization_method 'dichloromethane/diethyl ether'
loop_
_atom_site_label
_atom_site_type_symbol
_atom_site_fract_x
_atom_site_fract_y
_atom_site_fract_z
C1 C 0.4062(3) 0.3873(5) 0.6581(2)
C2 C 0.2791(3) 0.3234(4) 0.6012(2)
C3 C 0.2797(3) 0.2579(5) 0.5251(2)
C4 C 0.4104(3) 0.2502(4) 0.5029(2)
C5 C 0.5316(3) 0.3061(4) 0.56004(19)
C6 C 0.6615(3) 0.3005(5) 0.5456(2)
H1 H 0.7404 0.3383 0.5858
C7 C 0.6715(4) 0.2381(5) 0.4706(2)
C8 C 0.5532(4) 0.1831(5) 0.4109(2)
H2 H 0.5604 0.1421 0.3600
C9 C 0.4261(4) 0.1891(5) 0.4269(2)
H3 H 0.3476 0.1516 0.3862
C10 C 0.1510(3) 0.1924(6) 0.4629(2)
H4 H 0.0967 0.2863 0.4345
H5 H 0.0965 0.1275 0.4912
H6 H 0.1774 0.1213 0.4230
C11 C 0.209(3) 0.077(3) 0.733(2)
H7 H 0.1408 0.0093 0.6941
H8 H 0.2170 0.0382 0.7888
H9 H 0.2979 0.0652 0.7215
C12 C 0.151(5) 0.598(2) 0.738(2)
H10 H 0.2501 0.6123 0.7468
H11 H 0.1341 0.5309 0.7816
H12 H 0.1082 0.7076 0.7366
O1 O 0.4182(3) 0.4547(4) 0.72427(15)
O2 O 0.5290(2) 0.3705(3) 0.63588(13)
O3 O 0.7946(3) 0.2292(4) 0.45079(16)
H13 H 0.8580 0.2619 0.4905
O4 O 0.0015(5) 0.2510(8) 0.5818(3)
O5 O 0.1688(5) 0.2446(7) 0.7256(3)
O6 O 0.0938(5) 0.5143(6) 0.6592(3)
P1 P 0.12560(9) 0.32787(13) 0.63845(6)
C13? C 0.209(4) 0.036(4) 0.723(2)
H14? H 0.2358 -0.0589 0.6947
H15? H 0.1707 -0.0036 0.7660
H16? H 0.2893 0.1057 0.7466
C14? C 0.153(6) 0.609(3) 0.727(3)
H17? H 0.1767 0.6525 0.6793
H18? H 0.2202 0.6479 0.7770
H19? H 0.0618 0.6493 0.7272
O7? O 0.0032(6) 0.3910(9) 0.5761(4)
O8? O 0.1013(5) 0.1394(7) 0.6613(3)
O9? O 0.1527(6) 0.4150(8) 0.7252(3)
loop_
_geom_bond_atom_site_label_1
_geom_bond_atom_site_label_2
_geom_bond_site_symmetry_1
_geom_bond_site_symmetry_2
C1 C2 1_555 1_555
C2 C3 1_555 1_555
C3 C4 1_555 1_555
C4 C5 1_555 1_555
C5 C6 1_555 1_555
C6 H1 1_555 1_555
C7 C6 1_555 1_555
C8 C7 1_555 1_555
H2 C8 1_555 1_555
C9 C4 1_555 1_555
H3 C9 1_555 1_555
C10 C3 1_555 1_555
H4 C10 1_555 1_555
H5 C10 1_555 1_555
H6 C10 1_555 1_555
C11 H7 1_555 1_555
H8 C11 1_555 1_555
H9 C11 1_555 1_555
C12 H10 1_555 1_555
H11 C12 1_555 1_555
H12 C12 1_555 1_555
O1 C1 1_555 1_555
O2 C1 1_555 1_555
O3 C7 1_555 1_555
H13 O3 1_555 1_555
O4 P1 1_555 1_555
O5 C11 1_555 1_555
O6 C12 1_555 1_555
P1 C2 1_555 1_555
C5 O2 1_555 1_555
C8 C9 1_555 1_555
O5 P1 1_555 1_555
O6 P1 1_555 1_555

#END
