
#######################################################################
#
#                 Cambridge Crystallographic Data Centre
#                                CCDC 
#
#######################################################################
#
# If this CIF has been generated from an entry in the Cambridge 
# Structural Database, then it will include bibliographic, chemical, 
# crystal, experimental, refinement or atomic coordinate data resulting 
# from the CCDC's data processing and validation procedures.
#
#######################################################################

data_NEGKEQ
_chemical_formula_moiety         'C18 H21 Br1 Cl1 N1 O5'
_chemical_name_systematic        
"4'-Bromo-5'-chloro-2',7'-dimethyl-6',8'-dioxo-4,4',5,6',7',8'-hexahydro-2'H,3H-spiro(furan-2,3'-isoquinolin)-7'-yl propanoate"
_symmetry_cell_setting           triclinic
_symmetry_space_group_name_H-M   'P -1'
_symmetry_Int_Tables_number      2
_space_group_name_Hall           '-P 1'
loop_
_symmetry_equiv_pos_site_id
_symmetry_equiv_pos_as_xyz
1 x,y,z
2 -x,-y,-z
_cell_length_a                   7.1651(8)
_cell_length_b                   9.8576(10)
_cell_length_c                   14.7853(17)
_cell_angle_alpha                90.307(3)
_cell_angle_beta                 103.539(2)
_cell_angle_gamma                108.819(2)
_cell_volume                     957.283
_exptl_crystal_colour            yellow
_exptl_crystal_description       prismatic
_cell_formula_units_Z            2
loop_
_atom_site_label
_atom_site_type_symbol
_atom_site_fract_x
_atom_site_fract_y
_atom_site_fract_z
Br1 Br 1.18873(9) 0.46328(6) 0.15031(4)
Cl1 Cl 0.6859(3) 0.15903(15) 0.05023(9)
O1 O 0.7191(5) 0.6100(4) 0.1634(3)
O2 O 0.5162(7) -0.0196(4) 0.1887(3)
O3 O 0.8258(7) 0.3134(4) 0.4462(2)
O4 O 0.5726(5) 0.0467(3) 0.3748(2)
O5 O 0.8693(6) 0.0321(4) 0.3616(3)
N1 N 1.0159(6) 0.6424(4) 0.2798(3)
C1 C 0.6761(12) 0.7121(9) 0.1004(6)
H1 H 0.5878 0.7563 0.1203
H2 H 0.6107 0.6661 0.0377
C2 C 0.8816(13) 0.8232(7) 0.1037(5)
H3 H 0.9193 0.8983 0.1538
H4 H 0.8825 0.8664 0.0449
C3 C 1.0240(9) 0.7333(6) 0.1217(4)
H5 H 1.0328 0.6926 0.0636
H6 H 1.1597 0.7907 0.1570
C4 C 0.9223(7) 0.6161(5) 0.1782(3)
C5 C 0.9130(7) 0.4658(5) 0.1442(3)
C6 C 0.8154(7) 0.3513(5) 0.2013(3)
C7 C 0.8521(7) 0.3952(5) 0.2979(3)
C8 C 0.9632(7) 0.5360(5) 0.3324(3)
H7 H 1.0035 0.5570 0.3969
C9 C 0.7078(8) 0.2147(5) 0.1649(3)
C10 C 0.6053(8) 0.1049(5) 0.2182(3)
C11 C 0.5964(7) 0.1594(5) 0.3136(3)
C12 C 0.7745(8) 0.2931(5) 0.3611(3)
C13 C 0.4028(9) 0.1988(6) 0.2978(4)
H8 H 0.2889 0.1192 0.2641
H9 H 0.4166 0.2812 0.2624
H10 H 0.3809 0.2207 0.3570
C14 C 1.1199(9) 0.7894(5) 0.3229(4)
H11 H 1.0323 0.8457 0.3050
H12 H 1.2424 0.8307 0.3025
H13 H 1.1536 0.7883 0.3896
C15 C 0.7270(8) -0.0078(5) 0.3951(4)
C16 C 0.6924(10) -0.1176(7) 0.4630(5)
H14 H 0.7738 -0.0709 0.5240
H15 H 0.5509 -0.1431 0.4650
C17 C 0.730(2) -0.2445(14) 0.4524(9)
H16 H 0.8649 -0.2264 0.4422
H17 H 0.7198 -0.2981 0.5069
C18 C 0.5872(16) -0.3148(12) 0.3781(7)
H18 H 0.4954 -0.2619 0.3584
H19 H 0.5134 -0.4081 0.3933
H20 H 0.6488 -0.3253 0.3285
H21 H 0.842(10) 0.462(8) 0.072(2)
loop_
_geom_bond_atom_site_label_1
_geom_bond_atom_site_label_2
_geom_bond_site_symmetry_1
_geom_bond_site_symmetry_2
Br1 C5 1_555 1_555
Cl1 C9 1_555 1_555
O1 C1 1_555 1_555
O2 C10 1_555 1_555
O3 C12 1_555 1_555
O4 C11 1_555 1_555
O5 C15 1_555 1_555
N1 C4 1_555 1_555
C1 H1 1_555 1_555
H2 C1 1_555 1_555
C2 C1 1_555 1_555
H3 C2 1_555 1_555
H4 C2 1_555 1_555
C3 C2 1_555 1_555
H5 C3 1_555 1_555
H6 C3 1_555 1_555
C4 O1 1_555 1_555
C5 C4 1_555 1_555
C6 C5 1_555 1_555
C7 C6 1_555 1_555
C8 N1 1_555 1_555
H7 C8 1_555 1_555
C9 C6 1_555 1_555
C10 C9 1_555 1_555
C11 C10 1_555 1_555
C12 C7 1_555 1_555
C13 C11 1_555 1_555
H8 C13 1_555 1_555
H9 C13 1_555 1_555
H10 C13 1_555 1_555
C14 N1 1_555 1_555
H11 C14 1_555 1_555
H12 C14 1_555 1_555
H13 C14 1_555 1_555
C15 O4 1_555 1_555
C16 C15 1_555 1_555
H14 C16 1_555 1_555
H15 C16 1_555 1_555
C17 C16 1_555 1_555
H16 C17 1_555 1_555
H17 C17 1_555 1_555
C18 C17 1_555 1_555
H18 C18 1_555 1_555
H19 C18 1_555 1_555
H20 C18 1_555 1_555
H21 C5 1_555 1_555
C3 C4 1_555 1_555
C7 C8 1_555 1_555
C11 C12 1_555 1_555

#END
