
#######################################################################
#
#                 Cambridge Crystallographic Data Centre
#                                CCDC 
#
#######################################################################
#
# If this CIF has been generated from an entry in the Cambridge 
# Structural Database, then it will include bibliographic, chemical, 
# crystal, experimental, refinement or atomic coordinate data resulting 
# from the CCDC's data processing and validation procedures.
#
#######################################################################

data_NEGZIL
_chemical_formula_moiety         'C16 H10,C6 Br2 F4'
_chemical_name_systematic        
'1,2-dibromo-3,4,5,6-tetrafluorobenzene fluoranthene'
_symmetry_cell_setting           triclinic
_symmetry_space_group_name_H-M   'P -1'
_symmetry_Int_Tables_number      2
_space_group_name_Hall           '-P 1'
loop_
_symmetry_equiv_pos_site_id
_symmetry_equiv_pos_as_xyz
1 x,y,z
2 -x,-y,-z
_cell_length_a                   7.4059(8)
_cell_length_b                   8.0966(9)
_cell_length_c                   29.6317(13)
_cell_angle_alpha                88.510(6)
_cell_angle_beta                 88.482(6)
_cell_angle_gamma                88.186(9)
_cell_volume                     1774.72
_exptl_crystal_colour            orange
_exptl_crystal_description       block
_cell_formula_units_Z            4
loop_
_atom_site_label
_atom_site_type_symbol
_atom_site_fract_x
_atom_site_fract_y
_atom_site_fract_z
Br1 Br -0.14511(19) 0.3472(2) 0.72234(4)
Br2 Br 0.00153(19) -0.01147(18) 0.67459(5)
C1 C -0.0637(17) 0.3368(17) 0.6621(4)
C2 C 0.0059(18) 0.1928(17) 0.6434(4)
C3 C 0.0779(18) 0.1959(18) 0.5996(5)
C4 C 0.0747(18) 0.343(2) 0.5742(5)
C5 C 0.000(2) 0.4864(19) 0.5924(5)
C6 C -0.0648(19) 0.4827(18) 0.6367(5)
F1 F 0.1456(12) 0.0598(12) 0.5809(3)
F2 F 0.1423(12) 0.3443(13) 0.5324(3)
F3 F -0.0041(13) 0.6261(13) 0.5678(3)
F4 F -0.1330(12) 0.6247(11) 0.6539(3)
Br3 Br 0.00804(19) 1.10510(18) 0.93882(4)
Br4 Br 0.13818(18) 1.15824(18) 0.82912(5)
C7 C 0.0030(17) 0.9340(16) 0.8976(4)
C8 C 0.0624(18) 0.9532(17) 0.8523(4)
C9 C 0.0597(17) 0.8205(18) 0.8248(4)
C10 C 0.0000(18) 0.6686(18) 0.8392(5)
C11 C -0.0659(19) 0.6523(19) 0.8838(5)
C12 C -0.0606(17) 0.7824(17) 0.9122(4)
F5 F 0.1219(12) 0.8371(12) 0.7813(3)
F6 F 0.0023(14) 0.5430(12) 0.8131(3)
F7 F -0.1250(13) 0.5070(11) 0.8985(3)
F8 F -0.1240(11) 0.7623(12) 0.9549(3)
C13 C 0.5981(19) 0.1604(18) 0.5961(5)
C14 C 0.6722(18) 0.0147(18) 0.5789(4)
H1 H 0.6750 -0.0831 0.5961
C15 C 0.744(2) 0.0211(19) 0.5338(5)
H2 H 0.7959 -0.0738 0.5213
C16 C 0.7366(19) 0.1694(19) 0.5081(4)
H3 H 0.7798 0.1694 0.4783
C17 C 0.6678(19) 0.3147(18) 0.5256(4)
H4 H 0.6700 0.4133 0.5088
C18 C 0.5944(18) 0.3090(17) 0.5696(4)
C19 C 0.5083(17) 0.4423(17) 0.5982(4)
C20 C 0.4703(18) 0.6075(18) 0.5916(5)
H5 H 0.4998 0.6613 0.5644
C21 C 0.3830(18) 0.6945(19) 0.6281(5)
H6 H 0.3527 0.8061 0.6240
C22 C 0.3427(17) 0.6192(18) 0.6689(4)
H7 H 0.2895 0.6804 0.6921
C23 C 0.3818(18) 0.4492(17) 0.6758(4)
C24 C 0.4662(17) 0.3657(17) 0.6400(4)
C25 C 0.5154(17) 0.1950(17) 0.6412(4)
C26 C 0.4796(18) 0.1020(18) 0.6789(4)
H8 H 0.5102 -0.0103 0.6805
C27 C 0.3920(18) 0.1853(18) 0.7164(5)
H9 H 0.3643 0.1235 0.7424
C28 C 0.3483(17) 0.3476(17) 0.7156(4)
H10 H 0.2956 0.3952 0.7412
C29 C 0.4174(18) 0.7861(17) 0.9250(4)
C30 C 0.3581(17) 0.7784(18) 0.9706(4)
H11 H 0.3658 0.8700 0.9887
C31 C 0.289(2) 0.6337(19) 0.9882(5)
H12 H 0.2486 0.6283 1.0182
C32 C 0.2773(19) 0.4947(18) 0.9614(4)
H13 H 0.2307 0.3977 0.9738
C33 C 0.3367(19) 0.5009(19) 0.9155(5)
H14 H 0.3277 0.4103 0.8971
C34 C 0.4072(17) 0.6443(17) 0.8993(4)
C35 C 0.4842(17) 0.6896(17) 0.8535(4)
C36 C 0.5113(18) 0.6090(19) 0.8136(5)
H15 H 0.4799 0.4993 0.8111
C37 C 0.5886(19) 0.6977(19) 0.7762(5)
H16 H 0.6081 0.6434 0.7491
C38 C 0.6353(18) 0.8591(19) 0.7782(4)
H17 H 0.6851 0.9122 0.7528
C39 C 0.6081(18) 0.9466(18) 0.8192(5)
C40 C 0.5305(16) 0.8555(16) 0.8551(4)
C41 C 0.4966(17) 0.9214(17) 0.8987(4)
C42 C 0.5355(18) 1.0827(17) 0.9057(4)
H18 H 0.5118 1.1296 0.9336
C43 C 0.6130(18) 1.1773(18) 0.8694(5)
H19 H 0.6409 1.2866 0.8741
C44 C 0.6474(19) 1.1129(19) 0.8281(5)
H20 H 0.6976 1.1790 0.8052
loop_
_geom_bond_atom_site_label_1
_geom_bond_atom_site_label_2
_geom_bond_site_symmetry_1
_geom_bond_site_symmetry_2
Br1 C1 1_555 1_555
Br2 C2 1_555 1_555
C1 C2 1_555 1_555
C2 C3 1_555 1_555
C3 C4 1_555 1_555
C4 C5 1_555 1_555
C5 C6 1_555 1_555
C6 C1 1_555 1_555
F1 C3 1_555 1_555
F2 C4 1_555 1_555
F3 C5 1_555 1_555
F4 C6 1_555 1_555
Br3 C7 1_555 1_555
Br4 C8 1_555 1_555
C7 C8 1_555 1_555
C8 C9 1_555 1_555
C9 C10 1_555 1_555
C10 C11 1_555 1_555
C11 C12 1_555 1_555
C12 C7 1_555 1_555
F5 C9 1_555 1_555
F6 C10 1_555 1_555
F7 C11 1_555 1_555
F8 C12 1_555 1_555
C13 C14 1_555 1_555
C14 H1 1_555 1_555
C15 C14 1_555 1_555
H2 C15 1_555 1_555
C16 C15 1_555 1_555
H3 C16 1_555 1_555
C17 C16 1_555 1_555
H4 C17 1_555 1_555
C18 C13 1_555 1_555
C19 C18 1_555 1_555
C20 C19 1_555 1_555
H5 C20 1_555 1_555
C21 C20 1_555 1_555
H6 C21 1_555 1_555
C22 C21 1_555 1_555
H7 C22 1_555 1_555
C23 C22 1_555 1_555
C24 C19 1_555 1_555
C25 C13 1_555 1_555
C26 C25 1_555 1_555
H8 C26 1_555 1_555
C27 C26 1_555 1_555
H9 C27 1_555 1_555
C28 C23 1_555 1_555
H10 C28 1_555 1_555
C29 C30 1_555 1_555
C30 H11 1_555 1_555
C31 C30 1_555 1_555
H12 C31 1_555 1_555
C32 C31 1_555 1_555
H13 C32 1_555 1_555
C33 C32 1_555 1_555
H14 C33 1_555 1_555
C34 C29 1_555 1_555
C35 C34 1_555 1_555
C36 C35 1_555 1_555
H15 C36 1_555 1_555
C37 C36 1_555 1_555
H16 C37 1_555 1_555
C38 C37 1_555 1_555
H17 C38 1_555 1_555
C39 C38 1_555 1_555
C40 C35 1_555 1_555
C41 C29 1_555 1_555
C42 C41 1_555 1_555
H18 C42 1_555 1_555
C43 C42 1_555 1_555
H19 C43 1_555 1_555
C44 C39 1_555 1_555
H20 C44 1_555 1_555
C17 C18 1_555 1_555
C23 C24 1_555 1_555
C24 C25 1_555 1_555
C27 C28 1_555 1_555
C33 C34 1_555 1_555
C39 C40 1_555 1_555
C40 C41 1_555 1_555
C43 C44 1_555 1_555

#END
