
#######################################################################
#
#                 Cambridge Crystallographic Data Centre
#                                CCDC 
#
#######################################################################
#
# If this CIF has been generated from an entry in the Cambridge 
# Structural Database, then it will include bibliographic, chemical, 
# crystal, experimental, refinement or atomic coordinate data resulting 
# from the CCDC's data processing and validation procedures.
#
#######################################################################

data_NEHCOV
_chemical_formula_moiety         '2(C16 H10),C6 F3 I3'
_chemical_name_systematic        
'bis(fluoranthene) 1,3,5-trifluoro-2,4,6-triiodobenzene'
_symmetry_cell_setting           orthorhombic
_symmetry_space_group_name_H-M   'P n m a'
_symmetry_Int_Tables_number      62
_space_group_name_Hall           '-P 2ac 2n'
loop_
_symmetry_equiv_pos_site_id
_symmetry_equiv_pos_as_xyz
1 x,y,z
2 1/2-x,-y,1/2+z
3 -x,1/2+y,-z
4 1/2+x,1/2-y,1/2-z
5 -x,-y,-z
6 1/2+x,y,1/2-z
7 x,1/2-y,z
8 1/2-x,1/2+y,1/2+z
_cell_length_a                   17.2928(9)
_cell_length_b                   23.1876(10)
_cell_length_c                   7.7431(4)
_cell_angle_alpha                90
_cell_angle_beta                 90
_cell_angle_gamma                90
_cell_volume                     3104.82
_exptl_crystal_colour            green
_exptl_crystal_description       cube
_cell_formula_units_Z            4
loop_
_atom_site_label
_atom_site_type_symbol
_atom_site_fract_x
_atom_site_fract_y
_atom_site_fract_z
C1 C 0.6842(3) 0.7500 0.0496(7)
C2 C 0.6472(2) 0.69923(16) 0.0898(5)
C3 C 0.5755(2) 0.69788(15) 0.1693(5)
C4 C 0.5412(3) 0.7500 0.2083(7)
F1 F 0.68020(16) 0.64898(11) 0.0476(3)
F2 F 0.47185(19) 0.7500 0.2845(5)
I1 I 0.79389(2) 0.7500 -0.06138(5)
I2 I 0.52070(2) 0.62088(2) 0.22803(4)
C2F C 0.6472(2) 0.80077(16) 0.0898(5)
C3F C 0.5755(2) 0.80212(15) 0.1693(5)
F1F F 0.68020(16) 0.85102(11) 0.0476(3)
I2F I 0.52070(2) 0.87912(2) 0.22803(4)
C5 C 0.6875(3) 0.64732(19) 0.5340(6)
H1 H 0.6625 0.6134 0.5650
C6 C 0.7602(3) 0.6457(2) 0.4494(6)
H2 H 0.7823 0.6102 0.4243
C7 C 0.7987(3) 0.6950(2) 0.4034(6)
H3 H 0.8462 0.6923 0.3476
C8 C 0.7674(3) 0.7500 0.4395(7)
C9 C 0.6956(3) 0.7500 0.5218(7)
C10 C 0.6550(2) 0.69970(17) 0.5692(5)
C11 C 0.5831(2) 0.71906(18) 0.6500(5)
C12 C 0.5208(3) 0.6891(2) 0.7181(6)
H4 H 0.5196 0.6490 0.7170
C13 C 0.4601(3) 0.7208(3) 0.7885(6)
H5 H 0.4183 0.7014 0.8368
C5F C 0.6875(3) 0.85268(19) 0.5340(6)
H1F H 0.6625 0.8866 0.5650
C6F C 0.7602(3) 0.8543(2) 0.4494(6)
H2F H 0.7823 0.8898 0.4243
C7F C 0.7987(3) 0.8050(2) 0.4034(6)
H3F H 0.8462 0.8077 0.3476
C10F C 0.6550(2) 0.80030(17) 0.5692(5)
C11F C 0.5831(2) 0.78094(18) 0.6500(5)
C12F C 0.5208(3) 0.8109(2) 0.7181(6)
H4F H 0.5196 0.8510 0.7170
C13F C 0.4601(3) 0.7792(3) 0.7885(6)
H5F H 0.4183 0.7986 0.8368
C14? C 0.4304(4) 0.5087(3) 0.4349(9)
C15? C 0.3577(4) 0.5192(3) 0.3651(8)
H6? H 0.3460 0.5065 0.2542
C16? C 0.3024(3) 0.5486(3) 0.4611(11)
H7? H 0.2537 0.5556 0.4143
C17? C 0.3198(4) 0.5676(4) 0.6268(10)
H8? H 0.2828 0.5873 0.6910
C18? C 0.3925(4) 0.5571(3) 0.6967(8)
H9? H 0.4042 0.5698 0.8076
C19? C 0.4478(3) 0.5277(3) 0.6007(9)
C20? C 0.5256(7) 0.5132(5) 0.6505(15)
C21? C 0.5773(6) 0.5179(3) 0.7882(13)
H10? H 0.5610 0.5357 0.8895
C22? C 0.6522(5) 0.4967(3) 0.7782(11)
H11? H 0.6853 0.5006 0.8721
C23? C 0.6782(7) 0.4694(5) 0.6260(16)
H12? H 0.7287 0.4556 0.6224
C24? C 0.6299(4) 0.4619(3) 0.4762(9)
C25? C 0.6481(4) 0.4363(4) 0.3190(12)
H13? H 0.6971 0.4209 0.3012
C26? C 0.5930(5) 0.4337(4) 0.1886(9)
H14? H 0.6051 0.4165 0.0834
C27? C 0.5197(5) 0.4567(3) 0.2153(9)
H15? H 0.4829 0.4549 0.1280
C28? C 0.5016(4) 0.4823(4) 0.3724(10)
C29? C 0.5567(4) 0.4849(3) 0.5029(8)
loop_
_geom_bond_atom_site_label_1
_geom_bond_atom_site_label_2
_geom_bond_site_symmetry_1
_geom_bond_site_symmetry_2
C1 C2 1_555 1_555
C2 C3 1_555 1_555
C3 C4 1_555 1_555
C4 F2 1_555 1_555
F1 C2 1_555 1_555
I1 C1 1_555 1_555
I2 C3 1_555 1_555
C5 H1 1_555 1_555
C6 C5 1_555 1_555
H2 C6 1_555 1_555
C7 C6 1_555 1_555
H3 C7 1_555 1_555
C8 C7 1_555 1_555
C9 C8 1_555 1_555
C10 C5 1_555 1_555
C11 C10 1_555 1_555
C12 C11 1_555 1_555
H4 C12 1_555 1_555
C13 C12 1_555 1_555
H5 C13 1_555 1_555
C2F C1 1_555 1_555
C3F C4 1_555 1_555
F1F C2F 1_555 1_555
I2F C3F 1_555 1_555
C5F H1F 1_555 1_555
C6F C5F 1_555 1_555
H2F C6F 1_555 1_555
C7F C8 1_555 1_555
H3F C7F 1_555 1_555
C10F C9 1_555 1_555
C11F C11 1_555 1_555
C12F C11F 1_555 1_555
H4F C12F 1_555 1_555
C13F C13 1_555 1_555
H5F C13F 1_555 1_555
C9 C10 1_555 1_555
C2F C3F 1_555 1_555
C5F C10F 1_555 1_555
C6F C7F 1_555 1_555
C10F C11F 1_555 1_555
C12F C13F 1_555 1_555

#END
