
#######################################################################
#
#                 Cambridge Crystallographic Data Centre
#                                CCDC 
#
#######################################################################
#
# If this CIF has been generated from an entry in the Cambridge 
# Structural Database, then it will include bibliographic, chemical, 
# crystal, experimental, refinement or atomic coordinate data resulting 
# from the CCDC's data processing and validation procedures.
#
#######################################################################

data_NEHJAN
_chemical_formula_moiety         'C54 H68 N4 O4,C1 H4 O1,C1 H1 Cl3'
_chemical_name_systematic        
'1,6,14,22,27,35-Hexamethyl-11,17,32,38-tetraoxa-47,49,55,56-tetraaza nonacyclo[25.15.4.4^6,22^.1^2,5^.1^12,16^.1^23,26^.1^33,37^.1^43,46^.1^50,53^]hexapentaconta-2,4,12(54),13,15,23,25,33(48),34,36,43,45,50,52-tetradecaene chloroform methanol solvate'
_symmetry_cell_setting           triclinic
_symmetry_space_group_name_H-M   'P -1'
_symmetry_Int_Tables_number      2
_space_group_name_Hall           '-P 1'
loop_
_symmetry_equiv_pos_site_id
_symmetry_equiv_pos_as_xyz
1 x,y,z
2 -x,-y,-z
_cell_length_a                   11.7904(6)
_cell_length_b                   12.5321(6)
_cell_length_c                   19.6483(10)
_cell_angle_alpha                72.935(3)
_cell_angle_beta                 78.389(3)
_cell_angle_gamma                68.038(3)
_cell_volume                     2560.23
_exptl_crystal_colour            colorless
_exptl_crystal_description       prism
_cell_formula_units_Z            2
loop_
_atom_site_label
_atom_site_type_symbol
_atom_site_fract_x
_atom_site_fract_y
_atom_site_fract_z
Cl1 Cl -0.2428(3) -0.0155(2) 0.55185(15)
Cl2 Cl -0.4853(3) 0.1241(3) 0.50871(17)
C1 C -0.3653(10) 0.1191(9) 0.5502(6)
Cl3 Cl -0.3125(3) 0.2410(2) 0.49760(16)
O1 O 0.3331(6) 0.5519(5) -0.2895(3)
O2 O -0.0349(6) 0.1906(5) 0.2713(3)
O3 O 0.2653(6) 0.3570(5) 0.2562(3)
O4 O 0.0311(6) 0.3701(5) -0.2814(4)
C2 C 0.1817(9) 0.4579(7) -0.2794(5)
H1 H 0.1568 0.4607 -0.2307
N1 N 0.4414(7) 0.1906(6) 0.1592(4)
H2 H 0.3730 0.2174 0.1863
C3 C 0.0183(9) 0.2359(8) 0.3060(5)
N2 N 0.1345(7) 0.0162(6) 0.1680(4)
H3 H 0.1105 0.0723 0.1914
N3 N 0.2240(8) 0.2334(6) 0.0504(4)
H4 H 0.2817 0.1719 0.0375
C4 C 0.1146(9) 0.2731(8) 0.2674(5)
H5 H 0.1419 0.2646 0.2198
C5 C 0.1705(9) 0.3229(7) 0.2995(6)
C6 C 0.0627(9) 0.2623(8) -0.1573(5)
H6 H 0.1500 0.2572 -0.1677
H7 H 0.0567 0.1902 -0.1652
C7 C 0.2721(10) 0.4995(8) -0.3173(6)
N4 N 0.3721(8) -0.0453(7) 0.2658(4)
H8 H 0.3185 0.0262 0.2529
C8 C 0.3301(9) 0.4599(8) -0.0863(5)
H9 H 0.3348 0.5347 -0.0818
H10 H 0.2438 0.4621 -0.0727
C9 C 0.2471(10) 0.3308(8) 0.0598(5)
C10 C 0.3708(9) 0.3408(7) 0.0446(5)
C11 C 0.2204(10) -0.1505(8) 0.2752(5)
C12 C 0.0823(8) 0.1503(7) -0.0273(5)
H11 H 0.1723 0.1261 -0.0408
H12 H 0.0544 0.0880 -0.0326
C13 C 0.1224(8) 0.0344(8) 0.0970(5)
C14 C 0.1212(9) -0.0764(8) 0.3236(5)
H13 H 0.1426 -0.1107 0.3735
H14 H 0.1249 0.0050 0.3092
C15 C 0.5195(9) 0.2174(8) 0.3022(5)
H15 H 0.5414 0.2482 0.2507
H16 H 0.5953 0.1869 0.3264
C16 C 0.1637(10) 0.4053(8) -0.3831(5)
H17 H 0.1248 0.3723 -0.4054
C17 C 0.0042(10) 0.3030(9) 0.4867(5)
H18 H 0.0673 0.2435 0.5167
H19 H -0.0745 0.2895 0.5034
H20 H -0.0042 0.3823 0.4899
C18 C 0.0419(10) 0.2934(8) 0.4089(6)
C19 C -0.0185(9) 0.2432(8) 0.3779(5)
H21 H -0.0824 0.2150 0.4050
C20 C 0.4509(9) -0.2388(9) 0.2993(5)
H22 H 0.4613 -0.3209 0.3130
C21 C 0.4631(10) 0.2363(8) 0.0861(6)
C22 C 0.3447(10) -0.1496(9) 0.2802(5)
C23 C -0.0117(9) 0.3684(8) -0.2075(5)
H23 H -0.0981 0.3707 -0.1988
H24 H -0.0099 0.4406 -0.1973
C24 C 0.0571(9) 0.1539(8) 0.0541(5)
C25 C 0.0210(8) 0.2663(8) -0.0808(5)
H25 H -0.0692 0.2844 -0.0726
H26 H 0.0388 0.3316 -0.0713
C26 C 0.3304(9) 0.4076(8) 0.2845(5)
H27 H 0.2700 0.4641 0.3114
H28 H 0.3712 0.4535 0.2439
C27 C 0.3650(9) 0.4525(7) 0.0678(5)
H29 H 0.3009 0.5223 0.0443
H30 H 0.4446 0.4649 0.0538
H31 H 0.3460 0.4399 0.1198
C28 C 0.3688(9) 0.4497(8) -0.1647(5)
H32 H 0.4581 0.4357 -0.1760
H33 H 0.3529 0.3809 -0.1706
C29 C 0.2990(10) 0.5614(8) -0.2168(5)
H34 H 0.2096 0.5761 -0.2050
H35 H 0.3159 0.6300 -0.2114
C30 C 0.3108(10) 0.4936(8) -0.3880(5)
H36 H 0.3751 0.5228 -0.4131
C31 C 0.6807(8) -0.0303(8) 0.2790(5)
H37 H 0.6831 -0.0632 0.3307
H38 H 0.7216 0.0294 0.2632
H39 H 0.7232 -0.0939 0.2540
C32 C 0.5453(10) 0.0954(9) 0.1828(6)
C33 C -0.0813(9) 0.1877(8) 0.0775(5)
H40 H -0.1089 0.1223 0.0790
H41 H -0.1254 0.2589 0.0432
H42 H -0.0980 0.2035 0.1251
C34 C 0.2233(10) -0.2823(7) 0.3011(5)
H43 H 0.2910 -0.3312 0.2736
H44 H 0.1453 -0.2862 0.2938
H45 H 0.2354 -0.3117 0.3520
C35 C 0.1353(10) 0.4043(8) 0.0789(5)
H46 H 0.1193 0.4784 0.0893
C36 C 0.0431(9) 0.3514(8) 0.0811(5)
H47 H -0.0430 0.3849 0.0928
C37 C 0.4892(10) -0.0669(9) 0.2740(5)
C38 C 0.5450(10) 0.0282(8) 0.2617(5)
C39 C 0.6330(9) 0.0830(8) 0.1258(6)
H48 H 0.7141 0.0271 0.1266
C40 C 0.1264(10) 0.4111(8) -0.3138(6)
C41 C -0.1007(10) 0.0294(9) 0.3578(5)
H49 H -0.0626 0.0326 0.3973
H50 H -0.1756 0.0087 0.3789
C42 C 0.1337(9) 0.3329(8) 0.3697(6)
H51 H 0.1730 0.3676 0.3905
C43 C 0.2117(9) -0.1607(9) 0.1445(5)
H52 H 0.2469 -0.2437 0.1489
C44 C 0.5803(10) 0.1691(9) 0.0652(6)
H53 H 0.6197 0.1788 0.0177
C45 C 0.2993(10) 0.4445(9) -0.4986(5)
H54 H 0.3771 0.4605 -0.5122
H55 H 0.2371 0.5054 -0.5287
H56 H 0.3113 0.3665 -0.5054
C46 C 0.1026(9) 0.2455(8) 0.0635(5)
C47 C 0.4259(9) 0.3207(9) 0.3328(5)
H57 H 0.3833 0.2873 0.3782
H58 H 0.4714 0.3643 0.3444
C48 C 0.2575(10) 0.4464(8) -0.4221(6)
C49 C 0.4740(9) 0.1145(8) 0.3105(5)
H59 H 0.3866 0.1479 0.3011
H60 H 0.4774 0.0684 0.3609
C50 C -0.0114(9) -0.0677(8) 0.3226(5)
H61 H -0.0289 -0.0503 0.2725
H62 H -0.0224 -0.1445 0.3484
C51 C 0.5456(10) -0.1890(8) 0.2952(5)
H63 H 0.6286 -0.2309 0.3050
C52 C 0.1903(9) -0.1039(8) 0.1975(6)
C53 C 0.4130(10) 0.3553(8) -0.0356(5)
H64 H 0.4956 0.3630 -0.0442
H65 H 0.4220 0.2816 -0.0484
C54 C 0.1717(8) -0.0729(8) 0.0816(5)
H66 H 0.1786 -0.0873 0.0359
C55 C -0.1383(10) 0.1530(8) 0.3061(5)
H67 H -0.1837 0.1520 0.2691
H68 H -0.1947 0.2114 0.3330
C56 C 0.5428(17) 0.0562(17) -0.0933(7)
H69 H 0.5707 0.1242 -0.1031
H70 H 0.5275 0.0475 -0.1383
H71 H 0.6062 -0.0159 -0.0711
O5 O 0.4298(14) 0.0751(15) -0.0450(14)
H72 H 0.3818 0.0504 -0.0574
loop_
_geom_bond_atom_site_label_1
_geom_bond_atom_site_label_2
_geom_bond_site_symmetry_1
_geom_bond_site_symmetry_2
Cl1 C1 1_555 1_555
Cl2 C1 1_555 1_555
C1 Cl3 1_555 1_555
O1 C7 1_555 1_555
O2 C3 1_555 1_555
O3 C5 1_555 1_555
O4 C23 1_555 1_555
C2 H1 1_555 1_555
N1 H2 1_555 1_555
C3 C4 1_555 1_555
N2 H3 1_555 1_555
N3 H4 1_555 1_555
C4 H5 1_555 1_555
C5 C4 1_555 1_555
C6 H6 1_555 1_555
H7 C6 1_555 1_555
C7 C2 1_555 1_555
N4 H8 1_555 1_555
C8 H9 1_555 1_555
H10 C8 1_555 1_555
C9 N3 1_555 1_555
C10 C9 1_555 1_555
C11 C14 1_555 1_555
C12 H11 1_555 1_555
H12 C12 1_555 1_555
C13 N2 1_555 1_555
C14 H13 1_555 1_555
H14 C14 1_555 1_555
C15 H15 1_555 1_555
H16 C15 1_555 1_555
C16 H17 1_555 1_555
C17 H18 1_555 1_555
H19 C17 1_555 1_555
H20 C17 1_555 1_555
C18 C17 1_555 1_555
C19 C3 1_555 1_555
H21 C19 1_555 1_555
C20 H22 1_555 1_555
C21 N1 1_555 1_555
C22 N4 1_555 1_555
C23 C6 1_555 1_555
H23 C23 1_555 1_555
H24 C23 1_555 1_555
C24 C12 1_555 1_555
C25 C6 1_555 1_555
H25 C25 1_555 1_555
H26 C25 1_555 1_555
C26 O3 1_555 1_555
H27 C26 1_555 1_555
H28 C26 1_555 1_555
C27 C10 1_555 1_555
H29 C27 1_555 1_555
H30 C27 1_555 1_555
H31 C27 1_555 1_555
C28 C8 1_555 1_555
H32 C28 1_555 1_555
H33 C28 1_555 1_555
C29 O1 1_555 1_555
H34 C29 1_555 1_555
H35 C29 1_555 1_555
C30 C7 1_555 1_555
H36 C30 1_555 1_555
C31 H37 1_555 1_555
H38 C31 1_555 1_555
H39 C31 1_555 1_555
C32 N1 1_555 1_555
C33 C24 1_555 1_555
H40 C33 1_555 1_555
H41 C33 1_555 1_555
H42 C33 1_555 1_555
C34 C11 1_555 1_555
H43 C34 1_555 1_555
H44 C34 1_555 1_555
H45 C34 1_555 1_555
C35 C9 1_555 1_555
H46 C35 1_555 1_555
C36 C35 1_555 1_555
H47 C36 1_555 1_555
C37 N4 1_555 1_555
C38 C31 1_555 1_555
C39 C32 1_555 1_555
H48 C39 1_555 1_555
C40 O4 1_555 1_555
C41 H49 1_555 1_555
H50 C41 1_555 1_555
C42 C5 1_555 1_555
H51 C42 1_555 1_555
C43 H52 1_555 1_555
C44 C21 1_555 1_555
H53 C44 1_555 1_555
C45 H54 1_555 1_555
H55 C45 1_555 1_555
H56 C45 1_555 1_555
C46 N3 1_555 1_555
C47 C15 1_555 1_555
H57 C47 1_555 1_555
H58 C47 1_555 1_555
C48 C16 1_555 1_555
C49 C15 1_555 1_555
H59 C49 1_555 1_555
H60 C49 1_555 1_555
C50 C14 1_555 1_555
H61 C50 1_555 1_555
H62 C50 1_555 1_555
C51 C20 1_555 1_555
H63 C51 1_555 1_555
C52 N2 1_555 1_555
C53 C8 1_555 1_555
H64 C53 1_555 1_555
H65 C53 1_555 1_555
C54 C13 1_555 1_555
H66 C54 1_555 1_555
C55 O2 1_555 1_555
H67 C55 1_555 1_555
H68 C55 1_555 1_555
C56 H69 1_555 1_555
H70 C56 1_555 1_555
H71 C56 1_555 1_555
O5 C56 1_555 1_555
H72 O5 1_555 1_555
C2 C40 1_555 1_555
C10 C21 1_555 1_555
C10 C53 1_555 1_555
C11 C22 1_555 1_555
C11 C52 1_555 1_555
C12 C25 1_555 1_555
C13 C24 1_555 1_555
C16 C40 1_555 1_555
C18 C19 1_555 1_555
C18 C42 1_555 1_555
C20 C22 1_555 1_555
C24 C46 1_555 1_555
C26 C47 1_555 1_555
C28 C29 1_555 1_555
C30 C48 1_555 1_555
C32 C38 1_555 1_555
C36 C46 1_555 1_555
C37 C38 1_555 1_555
C37 C51 1_555 1_555
C38 C49 1_555 1_555
C39 C44 1_555 1_555
C41 C50 1_555 1_555
C41 C55 1_555 1_555
C43 C52 1_555 1_555
C43 C54 1_555 1_555
C45 C48 1_555 1_555

#END
