
#######################################################################
#
#                 Cambridge Crystallographic Data Centre
#                                CCDC 
#
#######################################################################
#
# If this CIF has been generated from an entry in the Cambridge 
# Structural Database, then it will include bibliographic, chemical, 
# crystal, experimental, refinement or atomic coordinate data resulting 
# from the CCDC's data processing and validation procedures.
#
#######################################################################

data_NEHKAP
_chemical_formula_moiety         'C62 H52 N24,2(C4 H8 O2)'
_chemical_name_systematic        
"N^6^,N^6'^,N^6''^,N^6'''^-[ethene-1,1,2,2-tetrayltetrakis(4,1-phenylene)]tetrakis[N^2^,N^4^-bis(prop-2-yn-1-yl)-1,3,5-triazine-2,4,6-triamine] 1,4-dioxane solvate"
_symmetry_cell_setting           monoclinic
_symmetry_space_group_name_H-M   'C 2/m'
_symmetry_Int_Tables_number      12
_space_group_name_Hall           '-C 2y'
loop_
_symmetry_equiv_pos_site_id
_symmetry_equiv_pos_as_xyz
1 x,y,z
2 -x,y,-z
3 1/2+x,1/2+y,z
4 1/2-x,1/2+y,-z
5 -x,-y,-z
6 x,-y,z
7 1/2-x,1/2-y,-z
8 1/2+x,1/2-y,z
_cell_length_a                   11.945(2)
_cell_length_b                   26.364(5)
_cell_length_c                   15.094(3)
_cell_angle_alpha                90
_cell_angle_beta                 98.517(3)
_cell_angle_gamma                90
_cell_volume                     4700.95
_exptl_crystal_colour            colorless
_exptl_crystal_description       block
_cell_formula_units_Z            2
loop_
_atom_site_label
_atom_site_type_symbol
_atom_site_fract_x
_atom_site_fract_y
_atom_site_fract_z
O1 O 0.5620(3) 0.15179(14) 0.9289(3)
C1 C 0.5437(7) 0.1979(2) 0.9768(5)
H1 H 0.6135 0.2053 1.0190
H2 H 0.5327 0.2260 0.9330
C2 C 0.5500(8) 0.1076(3) 0.9802(7)
H3 H 0.5499 0.0774 0.9411
H4 H 0.6161 0.1047 1.0280
O1A O 0.4380(3) 0.15179(14) 1.0711(3)
C1A C 0.4563(7) 0.1979(2) 1.0232(5)
H1A H 0.3865 0.2053 0.9810
H2A H 0.4673 0.2260 1.0670
C2A C 0.4500(8) 0.1076(3) 1.0198(7)
H3A H 0.4501 0.0774 1.0589
H4A H 0.3839 0.1047 0.9720
N1 N 0.4165(2) 0.18324(11) 0.7258(2)
H5 H 0.4805 0.1991 0.7445
N2 N 0.3402(2) 0.25171(11) 0.7872(2)
N3 N 0.1394(2) 0.25745(11) 0.7804(2)
N4 N 0.2215(2) 0.18508(11) 0.7185(2)
N5 N 0.2553(3) 0.31789(12) 0.8511(3)
H6 H 0.1941 0.3360 0.8541
N6 N 0.0305(3) 0.19329(12) 0.7153(3)
H7 H -0.0257 0.2060 0.7399
C3 C 0.4836(4) 0.0000 0.5409(3)
C4 C 0.4669(3) 0.04789(12) 0.5908(3)
C5 C 0.3687(6) 0.0568(3) 0.6270(7)
H8 H 0.3123 0.0311 0.6199
C6 C 0.3472(7) 0.0995(3) 0.6721(6)
H9 H 0.2784 0.1032 0.6960
C7 C 0.4268(3) 0.13709(13) 0.6821(3)
C8 C 0.5318(6) 0.1290(3) 0.6537(7)
H10 H 0.5903 0.1535 0.6665
C9 C 0.5502(6) 0.0852(3) 0.6067(6)
H11 H 0.6204 0.0806 0.5852
C10 C 0.3213(3) 0.20682(13) 0.7433(2)
C11 C 0.2444(3) 0.27379(13) 0.8041(3)
C12 C 0.1331(3) 0.21223(14) 0.7387(3)
C13 C 0.3635(4) 0.33686(19) 0.8969(4)
H12 H 0.4224 0.3107 0.8946
H13 H 0.3855 0.3673 0.8652
C14 C 0.3587(5) 0.3494(2) 0.9870(5)
C15 C 0.3456(6) 0.3579(3) 1.0653(5)
H14 H 0.3356 0.3644 1.1256
C16 C 0.0061(7) 0.1514(3) 0.6490(7)
H15 H 0.0445 0.1590 0.5968
H16 H 0.0396 0.1197 0.6766
C17 C -0.1067(11) 0.1428(6) 0.6189(11)
C18 C -0.2067(13) 0.1332(7) 0.6325(13)
H17 H -0.2817 0.1260 0.6426
N1A N 0.5835(2) 0.18324(11) 0.2742(2)
H5A H 0.5195 0.1991 0.2555
N2A N 0.6598(2) 0.25171(11) 0.2128(2)
N3A N 0.8606(2) 0.25745(11) 0.2196(2)
N4A N 0.7785(2) 0.18508(11) 0.2815(2)
N5A N 0.7447(3) 0.31789(12) 0.1489(3)
H6A H 0.8059 0.3360 0.1459
N6A N 0.9695(3) 0.19329(12) 0.2847(3)
H7A H 1.0257 0.2060 0.2601
C3A C 0.5164(4) 0.0000 0.4591(3)
C4A C 0.5331(3) 0.04789(12) 0.4092(3)
C5A C 0.6313(6) 0.0568(3) 0.3730(7)
H8A H 0.6877 0.0311 0.3801
C6A C 0.6528(7) 0.0995(3) 0.3279(6)
H9A H 0.7216 0.1032 0.3040
C7A C 0.5732(3) 0.13709(13) 0.3179(3)
C8A C 0.4682(6) 0.1290(3) 0.3463(7)
H10A H 0.4097 0.1535 0.3335
C9A C 0.4498(6) 0.0852(3) 0.3933(6)
H11A H 0.3796 0.0806 0.4148
C10A C 0.6787(3) 0.20682(13) 0.2567(2)
C11A C 0.7556(3) 0.27379(13) 0.1959(3)
C12A C 0.8669(3) 0.21223(14) 0.2613(3)
C13A C 0.6365(4) 0.33686(19) 0.1031(4)
H12A H 0.5776 0.3107 0.1054
H13A H 0.6145 0.3673 0.1348
C14A C 0.6413(5) 0.3494(2) 0.0130(5)
C15A C 0.6544(6) 0.3579(3) -0.0653(5)
H14A H 0.6644 0.3644 -0.1256
C16A C 0.9939(7) 0.1514(3) 0.3510(7)
H15A H 0.9555 0.1590 0.4032
H16A H 0.9604 0.1197 0.3234
C17A C 1.1067(11) 0.1428(6) 0.3811(11)
C18A C 1.2067(13) 0.1332(7) 0.3675(13)
H17A H 1.2817 0.1260 0.3574
N1D N 0.5835(2) -0.18324(11) 0.2742(2)
H5D H 0.5195 -0.1991 0.2555
N2D N 0.6598(2) -0.25171(11) 0.2128(2)
N3D N 0.8606(2) -0.25745(11) 0.2196(2)
N4D N 0.7785(2) -0.18508(11) 0.2815(2)
N5D N 0.7447(3) -0.31789(12) 0.1489(3)
H6D H 0.8059 -0.3360 0.1459
N6D N 0.9695(3) -0.19329(12) 0.2847(3)
H7D H 1.0257 -0.2060 0.2601
C4D C 0.5331(3) -0.04789(12) 0.4092(3)
C5D C 0.6313(6) -0.0568(3) 0.3730(7)
H8D H 0.6877 -0.0311 0.3801
C6D C 0.6528(7) -0.0995(3) 0.3279(6)
H9D H 0.7216 -0.1032 0.3040
C7D C 0.5732(3) -0.13709(13) 0.3179(3)
C8D C 0.4682(6) -0.1290(3) 0.3463(7)
H10D H 0.4097 -0.1535 0.3335
C9D C 0.4498(6) -0.0852(3) 0.3933(6)
H11D H 0.3796 -0.0806 0.4148
C10D C 0.6787(3) -0.20682(13) 0.2567(2)
C11D C 0.7556(3) -0.27379(13) 0.1959(3)
C12D C 0.8669(3) -0.21223(14) 0.2613(3)
C13D C 0.6365(4) -0.33686(19) 0.1031(4)
H12D H 0.5776 -0.3107 0.1054
H13D H 0.6145 -0.3673 0.1348
C14D C 0.6413(5) -0.3494(2) 0.0130(5)
C15D C 0.6544(6) -0.3579(3) -0.0653(5)
H14D H 0.6644 -0.3644 -0.1256
C16D C 0.9939(7) -0.1514(3) 0.3510(7)
H15D H 0.9555 -0.1590 0.4032
H16D H 0.9604 -0.1197 0.3234
C17D C 1.1067(11) -0.1428(6) 0.3811(11)
C18D C 1.2067(13) -0.1332(7) 0.3675(13)
H17D H 1.2817 -0.1260 0.3574
N1E N 0.4165(2) -0.18324(11) 0.7258(2)
H5E H 0.4805 -0.1991 0.7445
N2E N 0.3402(2) -0.25171(11) 0.7872(2)
N3E N 0.1394(2) -0.25745(11) 0.7804(2)
N4E N 0.2215(2) -0.18508(11) 0.7185(2)
N5E N 0.2553(3) -0.31789(12) 0.8511(3)
H6E H 0.1941 -0.3360 0.8541
N6E N 0.0305(3) -0.19329(12) 0.7153(3)
H7E H -0.0257 -0.2060 0.7399
C4E C 0.4669(3) -0.04789(12) 0.5908(3)
C5E C 0.3687(6) -0.0568(3) 0.6270(7)
H8E H 0.3123 -0.0311 0.6199
C6E C 0.3472(7) -0.0995(3) 0.6721(6)
H9E H 0.2784 -0.1032 0.6960
C7E C 0.4268(3) -0.13709(13) 0.6821(3)
C8E C 0.5318(6) -0.1290(3) 0.6537(7)
H10E H 0.5903 -0.1535 0.6665
C9E C 0.5502(6) -0.0852(3) 0.6067(6)
H11E H 0.6204 -0.0806 0.5852
C10E C 0.3213(3) -0.20682(13) 0.7433(2)
C11E C 0.2444(3) -0.27379(13) 0.8041(3)
C12E C 0.1331(3) -0.21223(14) 0.7387(3)
C13E C 0.3635(4) -0.33686(19) 0.8969(4)
H12E H 0.4224 -0.3107 0.8946
H13E H 0.3855 -0.3673 0.8652
C14E C 0.3587(5) -0.3494(2) 0.9870(5)
C15E C 0.3456(6) -0.3579(3) 1.0653(5)
H14E H 0.3356 -0.3644 1.1256
C16E C 0.0061(7) -0.1514(3) 0.6490(7)
H15E H 0.0445 -0.1590 0.5968
H16E H 0.0396 -0.1197 0.6766
C17E C -0.1067(11) -0.1428(6) 0.6189(11)
C18E C -0.2067(13) -0.1332(7) 0.6325(13)
H17E H -0.2817 -0.1260 0.6426
H18? H -0.0288 0.2124 0.7199
C19? C 0.3695(6) 0.0768(3) 0.5600(7)
H19? H 0.3185 0.0677 0.5080
C20? C 0.3530(7) 0.1200(4) 0.6114(9)
H20? H 0.2849 0.1386 0.5954
C21? C 0.5160(8) 0.1058(4) 0.7083(8)
H21? H 0.5678 0.1146 0.7600
C22? C 0.5343(7) 0.0624(3) 0.6634(8)
H22? H 0.5979 0.0419 0.6853
C23? C 0.0138(8) 0.1427(4) 0.6828(8)
H23? H 0.0358 0.1414 0.6221
H24? H 0.0664 0.1203 0.7218
C24? C -0.0928(10) 0.1229(6) 0.6779(10)
C25? C -0.173(2) 0.0991(11) 0.704(2)
H25? H -0.2334 0.0811 0.7231
loop_
_geom_bond_atom_site_label_1
_geom_bond_atom_site_label_2
_geom_bond_site_symmetry_1
_geom_bond_site_symmetry_2
O1 C1 1_555 1_555
C1 H1 1_555 1_555
H2 C1 1_555 1_555
C2 O1 1_555 1_555
H3 C2 1_555 1_555
H4 C2 1_555 1_555
N1 H5 1_555 1_555
N2 C10 1_555 1_555
N3 C11 1_555 1_555
N4 C10 1_555 1_555
N5 H6 1_555 1_555
N6 H7 1_555 1_555
C3 C4 1_555 1_555
C4 C5 1_555 1_555
C5 H8 1_555 1_555
C6 C5 1_555 1_555
H9 C6 1_555 1_555
C7 N1 1_555 1_555
C8 C7 1_555 1_555
H10 C8 1_555 1_555
C9 C4 1_555 1_555
H11 C9 1_555 1_555
C10 N1 1_555 1_555
C11 N2 1_555 1_555
C12 N3 1_555 1_555
C13 N5 1_555 1_555
H12 C13 1_555 1_555
H13 C13 1_555 1_555
C14 C13 1_555 1_555
C15 C14 1_555 1_555
H14 C15 1_555 1_555
C16 N6 1_555 1_555
H15 C16 1_555 1_555
H16 C16 1_555 1_555
C17 C16 1_555 1_555
C18 C17 1_555 1_555
H17 C18 1_555 1_555
O1A C1A 1_555 1_555
C1A C1 1_555 1_555
H1A C1A 1_555 1_555
H2A C1A 1_555 1_555
C2A C2 1_555 1_555
H3A C2A 1_555 1_555
H4A C2A 1_555 1_555
N1A H5A 1_555 1_555
N2A C10A 1_555 1_555
N3A C11A 1_555 1_555
N4A C10A 1_555 1_555
N5A H6A 1_555 1_555
N6A H7A 1_555 1_555
C3A C3 1_555 1_555
C4A C3A 1_555 1_555
C5A C4A 1_555 1_555
H8A C5A 1_555 1_555
C6A C5A 1_555 1_555
H9A C6A 1_555 1_555
C7A N1A 1_555 1_555
C8A C7A 1_555 1_555
H10A C8A 1_555 1_555
C9A C4A 1_555 1_555
H11A C9A 1_555 1_555
C10A N1A 1_555 1_555
C11A N2A 1_555 1_555
C12A N3A 1_555 1_555
C13A N5A 1_555 1_555
H12A C13A 1_555 1_555
H13A C13A 1_555 1_555
C14A C13A 1_555 1_555
C15A C14A 1_555 1_555
H14A C15A 1_555 1_555
C16A N6A 1_555 1_555
H15A C16A 1_555 1_555
H16A C16A 1_555 1_555
C17A C16A 1_555 1_555
C18A C17A 1_555 1_555
H17A C18A 1_555 1_555
N1D H5D 1_555 1_555
N2D C10D 1_555 1_555
N3D C11D 1_555 1_555
N4D C10D 1_555 1_555
N5D H6D 1_555 1_555
N6D H7D 1_555 1_555
C4D C3A 1_555 1_555
C5D C4D 1_555 1_555
H8D C5D 1_555 1_555
C6D C5D 1_555 1_555
H9D C6D 1_555 1_555
C7D N1D 1_555 1_555
C8D C7D 1_555 1_555
H10D C8D 1_555 1_555
C9D C4D 1_555 1_555
H11D C9D 1_555 1_555
C10D N1D 1_555 1_555
C11D N2D 1_555 1_555
C12D N3D 1_555 1_555
C13D N5D 1_555 1_555
H12D C13D 1_555 1_555
H13D C13D 1_555 1_555
C14D C13D 1_555 1_555
C15D C14D 1_555 1_555
H14D C15D 1_555 1_555
C16D N6D 1_555 1_555
H15D C16D 1_555 1_555
H16D C16D 1_555 1_555
C17D C16D 1_555 1_555
C18D C17D 1_555 1_555
H17D C18D 1_555 1_555
N1E H5E 1_555 1_555
N2E C10E 1_555 1_555
N3E C11E 1_555 1_555
N4E C10E 1_555 1_555
N5E H6E 1_555 1_555
N6E H7E 1_555 1_555
C4E C3 1_555 1_555
C5E C4E 1_555 1_555
H8E C5E 1_555 1_555
C6E C5E 1_555 1_555
H9E C6E 1_555 1_555
C7E N1E 1_555 1_555
C8E C7E 1_555 1_555
H10E C8E 1_555 1_555
C9E C4E 1_555 1_555
H11E C9E 1_555 1_555
C10E N1E 1_555 1_555
C11E N2E 1_555 1_555
C12E N3E 1_555 1_555
C13E N5E 1_555 1_555
H12E C13E 1_555 1_555
H13E C13E 1_555 1_555
C14E C13E 1_555 1_555
C15E C14E 1_555 1_555
H14E C15E 1_555 1_555
C16E N6E 1_555 1_555
H15E C16E 1_555 1_555
H16E C16E 1_555 1_555
C17E C16E 1_555 1_555
C18E C17E 1_555 1_555
H17E C18E 1_555 1_555
N4 C12 1_555 1_555
N5 C11 1_555 1_555
N6 C12 1_555 1_555
C6 C7 1_555 1_555
C8 C9 1_555 1_555
O1A C2A 1_555 1_555
N4A C12A 1_555 1_555
N5A C11A 1_555 1_555
N6A C12A 1_555 1_555
C6A C7A 1_555 1_555
C8A C9A 1_555 1_555
N4D C12D 1_555 1_555
N5D C11D 1_555 1_555
N6D C12D 1_555 1_555
C6D C7D 1_555 1_555
C8D C9D 1_555 1_555
N4E C12E 1_555 1_555
N5E C11E 1_555 1_555
N6E C12E 1_555 1_555
C6E C7E 1_555 1_555
C8E C9E 1_555 1_555

#END
