
#######################################################################
#
#                 Cambridge Crystallographic Data Centre
#                                CCDC 
#
#######################################################################
#
# If this CIF has been generated from an entry in the Cambridge 
# Structural Database, then it will include bibliographic, chemical, 
# crystal, experimental, refinement or atomic coordinate data resulting 
# from the CCDC's data processing and validation procedures.
#
#######################################################################

data_NEHSAW
_chemical_formula_moiety         'C19 H17 F3 N2 O5'
_chemical_name_systematic        
'Diethyl 1-(4-methylphenyl)-3-(trifluoromethyl)-1H-furo[2,3-c]pyrazole-4,5-dicarboxylate'
_symmetry_cell_setting           monoclinic
_symmetry_space_group_name_H-M   'P 21/c'
_symmetry_Int_Tables_number      14
_space_group_name_Hall           '-P 2ybc'
loop_
_symmetry_equiv_pos_site_id
_symmetry_equiv_pos_as_xyz
1 x,y,z
2 -x,1/2+y,1/2-z
3 -x,-y,-z
4 x,1/2-y,1/2+z
_cell_length_a                   12.4388(10)
_cell_length_b                   9.1367(7)
_cell_length_c                   16.7373(13)
_cell_angle_alpha                90
_cell_angle_beta                 92.5330(10)
_cell_angle_gamma                90
_cell_volume                     1900.33
_exptl_crystal_colour            colorless
_exptl_crystal_description       prismatic
_cell_formula_units_Z            4
loop_
_atom_site_label
_atom_site_type_symbol
_atom_site_fract_x
_atom_site_fract_y
_atom_site_fract_z
F1 F 0.8438(3) 0.2902(7) -0.1025(3)
F2 F 0.7688(3) 0.1311(4) -0.1760(2)
F3 F 0.7409(3) 0.3489(6) -0.2061(3)
N1 N 0.50034(11) 0.31775(15) -0.05680(7)
N2 N 0.57538(12) 0.34410(17) -0.11248(8)
O1 O 0.50746(9) 0.15906(12) 0.06303(6)
O2 O 0.82534(12) -0.04387(19) -0.00777(9)
O3 O 0.83708(10) 0.03902(17) 0.11704(7)
O4 O 0.48738(10) -0.00003(15) 0.19437(7)
O5 O 0.65194(9) -0.09572(13) 0.18560(7)
C1 C 0.59520(12) 0.07466(17) 0.09087(9)
C2 C 0.67950(13) 0.08587(18) 0.04157(9)
C3 C 0.64344(13) 0.18147(18) -0.02197(9)
C4 C 0.54244(13) 0.22031(18) -0.00380(8)
C5 C 0.66028(14) 0.26398(19) -0.09169(9)
C6 C 0.75462(18) 0.2663(3) -0.14235(12)
C7 C 0.78781(14) 0.01682(19) 0.04722(10)
C8 C 0.94370(17) -0.0240(3) 0.12860(14)
H1 H 0.9891 0.0068 0.0860
H2 H 0.9394 -0.1300 0.1281
C9 C 0.9885(2) 0.0270(4) 0.20571(17)
H3 H 1.0034 0.1299 0.2027
H4 H 1.0539 -0.0250 0.2190
H5 H 0.9376 0.0096 0.2462
C10 C 0.57116(13) -0.00964(18) 0.16295(9)
C11 C 0.63583(16) -0.1823(2) 0.25729(10)
H6 H 0.5799 -0.2547 0.2468
H7 H 0.6141 -0.1195 0.3005
C12 C 0.7394(2) -0.2555(3) 0.27971(13)
H8 H 0.7631 -0.3108 0.2350
H9 H 0.7296 -0.3201 0.3240
H10 H 0.7924 -0.1830 0.2946
C13 C 0.39821(13) 0.38728(18) -0.06194(9)
C14 C 0.31930(15) 0.3429(2) -0.01240(11)
H11 H 0.3331 0.2701 0.0255
C15 C 0.21949(17) 0.4079(2) -0.01961(12)
H12 H 0.1660 0.3776 0.0138
C16 C 0.19650(15) 0.5165(2) -0.07477(11)
C17 C 0.27726(16) 0.5591(2) -0.12302(11)
H13 H 0.2636 0.6328 -0.1604
C18 C 0.37781(15) 0.4962(2) -0.11774(10)
H14 H 0.4312 0.5265 -0.1512
C19 C 0.08647(19) 0.5853(3) -0.08272(15)
H15 H 0.0830 0.6496 -0.1281
H16 H 0.0732 0.6402 -0.0352
H17 H 0.0330 0.5101 -0.0898
F4? F 0.8416(10) 0.2324(17) -0.1021(9)
F5? F 0.7565(9) 0.199(2) -0.1992(6)
F6? F 0.7821(8) 0.4131(7) -0.1544(9)
loop_
_geom_bond_atom_site_label_1
_geom_bond_atom_site_label_2
_geom_bond_site_symmetry_1
_geom_bond_site_symmetry_2
F1 C6 1_555 1_555
F2 C6 1_555 1_555
F3 C6 1_555 1_555
N1 N2 1_555 1_555
N2 C5 1_555 1_555
O1 C1 1_555 1_555
O2 C7 1_555 1_555
O3 C7 1_555 1_555
O4 C10 1_555 1_555
O5 C10 1_555 1_555
C1 C2 1_555 1_555
C2 C3 1_555 1_555
C3 C4 1_555 1_555
C4 N1 1_555 1_555
C5 C3 1_555 1_555
C6 C5 1_555 1_555
C7 C2 1_555 1_555
C8 O3 1_555 1_555
H1 C8 1_555 1_555
H2 C8 1_555 1_555
C9 C8 1_555 1_555
H3 C9 1_555 1_555
H4 C9 1_555 1_555
H5 C9 1_555 1_555
C10 C1 1_555 1_555
C11 O5 1_555 1_555
H6 C11 1_555 1_555
H7 C11 1_555 1_555
C12 C11 1_555 1_555
H8 C12 1_555 1_555
H9 C12 1_555 1_555
H10 C12 1_555 1_555
C13 N1 1_555 1_555
C14 C13 1_555 1_555
H11 C14 1_555 1_555
C15 C14 1_555 1_555
H12 C15 1_555 1_555
C16 C15 1_555 1_555
C17 C16 1_555 1_555
H13 C17 1_555 1_555
C18 C13 1_555 1_555
H14 C18 1_555 1_555
C19 C16 1_555 1_555
H15 C19 1_555 1_555
H16 C19 1_555 1_555
H17 C19 1_555 1_555
O1 C4 1_555 1_555
C17 C18 1_555 1_555

#END
