
#######################################################################
#
#                 Cambridge Crystallographic Data Centre
#                                CCDC 
#
#######################################################################
#
# If this CIF has been generated from an entry in the Cambridge 
# Structural Database, then it will include bibliographic, chemical, 
# crystal, experimental, refinement or atomic coordinate data resulting 
# from the CCDC's data processing and validation procedures.
#
#######################################################################

data_NEHZUW
_chemical_formula_moiety         'C19 H18 Br2 O4'
_chemical_name_systematic        
3,6-dibromo-2-methoxy-7-isopropoxyisoflavanone
_symmetry_cell_setting           monoclinic
_symmetry_space_group_name_H-M   'P 21/c'
_symmetry_Int_Tables_number      14
_space_group_name_Hall           '-P 2ybc'
loop_
_symmetry_equiv_pos_site_id
_symmetry_equiv_pos_as_xyz
1 x,y,z
2 -x,1/2+y,1/2-z
3 -x,-y,-z
4 x,1/2-y,1/2+z
_cell_length_a                   13.854(17)
_cell_length_b                   11.215(14)
_cell_length_c                   13.038(17)
_cell_angle_alpha                90
_cell_angle_beta                 103.71(2)
_cell_angle_gamma                90
_cell_volume                     1968.03
_exptl_crystal_colour            colorless
_exptl_crystal_description       prism
_chemical_melting_point          '427-429 K'
_cell_formula_units_Z            4
_exptl_crystal_recrystallization_method ethanol
loop_
_atom_site_label
_atom_site_type_symbol
_atom_site_fract_x
_atom_site_fract_y
_atom_site_fract_z
Br1 Br 0.14305(3) 0.23092(4) 0.45049(3)
Br2 Br -0.17705(3) 0.11468(4) -0.06434(3)
O1 O 0.04522(17) 0.4248(2) 0.29069(19)
O2 O 0.18279(18) 0.1209(2) 0.2212(2)
O3 O 0.18323(18) 0.4637(2) 0.2237(2)
O4 O -0.24668(18) 0.3377(2) 0.0242(2)
C1 C 0.1508(3) 0.4219(3) 0.3109(3)
H1 H 0.1790 0.4719 0.3724
C2 C 0.1935(3) 0.2953(3) 0.3306(3)
C3 C 0.1425(3) 0.2122(3) 0.2404(3)
C4 C 0.0425(3) 0.2480(3) 0.1839(3)
C5 C -0.0131(3) 0.1790(3) 0.1011(3)
H2 H 0.0148 0.1103 0.0806
C6 C -0.1080(3) 0.2107(3) 0.0494(3)
C7 C -0.1538(3) 0.3129(3) 0.0795(3)
C8 C -0.0995(3) 0.3819(3) 0.1622(3)
H3 H -0.1282 0.4492 0.1842
C9 C -0.0026(3) 0.3508(3) 0.2120(3)
C10 C 0.3058(3) 0.2991(3) 0.3578(4)
C11 C 0.3574(3) 0.2779(4) 0.2815(4)
H4 H 0.3236 0.2538 0.2144
C12 C 0.4593(4) 0.2923(5) 0.3043(6)
H5 H 0.4930 0.2783 0.2517
C13 C 0.5113(4) 0.3261(6) 0.4013(7)
H6 H 0.5801 0.3331 0.4158
C14 C 0.4614(4) 0.3500(5) 0.4779(6)
H7 H 0.4959 0.3762 0.5441
C15 C 0.3584(4) 0.3349(4) 0.4564(4)
H8 H 0.3249 0.3492 0.5092
C16 C 0.1646(4) 0.5871(4) 0.2030(4)
H9 H 0.1885 0.6100 0.1425
H10 H 0.1983 0.6328 0.2631
H11 H 0.0945 0.6019 0.1894
C17 C -0.2990(3) 0.4416(4) 0.0525(3)
H12 H -0.2506 0.5052 0.0776
C18 C -0.3482(3) 0.4077(4) 0.1406(4)
H13 H -0.2984 0.3828 0.2014
H14 H -0.3941 0.3435 0.1176
H15 H -0.3833 0.4753 0.1588
C19 C -0.3703(3) 0.4823(4) -0.0474(4)
H16 H -0.3340 0.5021 -0.0993
H17 H -0.4058 0.5513 -0.0327
H18 H -0.4166 0.4195 -0.0739
loop_
_geom_bond_atom_site_label_1
_geom_bond_atom_site_label_2
_geom_bond_site_symmetry_1
_geom_bond_site_symmetry_2
Br1 C2 1_555 1_555
Br2 C6 1_555 1_555
O1 C1 1_555 1_555
O2 C3 1_555 1_555
O3 C1 1_555 1_555
O4 C7 1_555 1_555
C1 H1 1_555 1_555
C2 C1 1_555 1_555
C3 C2 1_555 1_555
C4 C3 1_555 1_555
C5 C4 1_555 1_555
H2 C5 1_555 1_555
C6 C5 1_555 1_555
C7 C6 1_555 1_555
C8 C7 1_555 1_555
H3 C8 1_555 1_555
C9 O1 1_555 1_555
C10 C2 1_555 1_555
C11 C10 1_555 1_555
H4 C11 1_555 1_555
C12 C11 1_555 1_555
H5 C12 1_555 1_555
C13 C12 1_555 1_555
H6 C13 1_555 1_555
C14 C13 1_555 1_555
H7 C14 1_555 1_555
C15 C10 1_555 1_555
H8 C15 1_555 1_555
C16 O3 1_555 1_555
H9 C16 1_555 1_555
H10 C16 1_555 1_555
H11 C16 1_555 1_555
C17 O4 1_555 1_555
H12 C17 1_555 1_555
C18 C17 1_555 1_555
H13 C18 1_555 1_555
H14 C18 1_555 1_555
H15 C18 1_555 1_555
C19 C17 1_555 1_555
H16 C19 1_555 1_555
H17 C19 1_555 1_555
H18 C19 1_555 1_555
C4 C9 1_555 1_555
C8 C9 1_555 1_555
C14 C15 1_555 1_555

#END
