
#######################################################################
#
#                 Cambridge Crystallographic Data Centre
#                                CCDC 
#
#######################################################################
#
# If this CIF has been generated from an entry in the Cambridge 
# Structural Database, then it will include bibliographic, chemical, 
# crystal, experimental, refinement or atomic coordinate data resulting 
# from the CCDC's data processing and validation procedures.
#
#######################################################################

data_NEJBAG
_chemical_formula_moiety         'C19 H18 Br2 O4'
_chemical_name_systematic        
'3, 8-dibromo-2-methoxy-7-isopropoxyisoflavanone'
_symmetry_cell_setting           monoclinic
_symmetry_space_group_name_H-M   'P 21/n'
_symmetry_Int_Tables_number      14
_space_group_name_Hall           '-P 2yn'
loop_
_symmetry_equiv_pos_site_id
_symmetry_equiv_pos_as_xyz
1 x,y,z
2 1/2-x,1/2+y,1/2-z
3 -x,-y,-z
4 1/2+x,1/2-y,1/2+z
_cell_length_a                   13.569(3)
_cell_length_b                   6.706(1)
_cell_length_c                   20.704(4)
_cell_angle_alpha                90
_cell_angle_beta                 97.50(2)
_cell_angle_gamma                90
_cell_volume                     1867.82
_exptl_crystal_colour            colorless
_exptl_crystal_description       block
_chemical_melting_point          '429-431 K'
_cell_formula_units_Z            4
_exptl_crystal_recrystallization_method ethanol
loop_
_atom_site_label
_atom_site_type_symbol
_atom_site_fract_x
_atom_site_fract_y
_atom_site_fract_z
Br1 Br 0.50407(5) -0.02003(9) 0.28652(3)
Br2 Br 0.61201(4) 0.56394(9) 0.11168(3)
O1 O 0.6031(2) 0.3535(5) 0.23767(15)
O2 O 0.3878(2) 0.3545(5) 0.35940(16)
O3 O 0.6537(2) 0.4918(5) 0.33914(15)
O4 O 0.4200(3) 0.7701(5) 0.08653(16)
C1 C 0.5776(4) 0.3236(8) 0.4537(3)
H1 H 0.5575 0.4513 0.4404
C2 C 0.6092(4) 0.2857(11) 0.5198(3)
H2 H 0.6103 0.3877 0.5503
C3 C 0.6386(4) 0.0941(12) 0.5392(3)
H3 H 0.6582 0.0663 0.5830
C4 C 0.6387(4) -0.0515(11) 0.4942(3)
H4 H 0.6602 -0.1786 0.5075
C5 C 0.6076(4) -0.0160(8) 0.4288(3)
H5 H 0.6077 -0.1187 0.3986
C6 C 0.5763(4) 0.1738(8) 0.4085(2)
C7 C 0.6290(4) 0.3152(7) 0.3059(2)
H6 H 0.6865 0.2255 0.3119
C8 C 0.5448(4) 0.2222(7) 0.3373(2)
C9 C 0.4513(4) 0.3520(7) 0.3226(2)
C10 C 0.4414(4) 0.4618(7) 0.2609(2)
C11 C 0.5177(3) 0.4606(6) 0.2216(2)
C12 C 0.5074(3) 0.5653(7) 0.1640(2)
C13 C 0.4220(4) 0.6742(7) 0.1435(2)
C14 C 0.3452(4) 0.6738(7) 0.1824(3)
H7 H 0.2872 0.7454 0.1695
C15 C 0.3555(4) 0.5671(7) 0.2397(3)
H8 H 0.3034 0.5657 0.2648
C16 C 0.7392(4) 0.5866(9) 0.3206(3)
H9 H 0.7928 0.4925 0.3229
H10 H 0.7579 0.6960 0.3495
H11 H 0.7246 0.6354 0.2768
C17 C 0.3479(4) 0.9263(8) 0.0686(2)
H12 H 0.2822 0.8826 0.0777
C18 C 0.3767(5) 1.1114(8) 0.1056(3)
H13 H 0.3663 1.0941 0.1502
H14 H 0.3368 1.2204 0.0870
H15 H 0.4455 1.1396 0.1035
C19 C 0.3468(4) 0.9538(9) -0.0037(3)
H16 H 0.4104 1.0026 -0.0123
H17 H 0.2961 1.0481 -0.0196
H18 H 0.3333 0.8283 -0.0254
loop_
_geom_bond_atom_site_label_1
_geom_bond_atom_site_label_2
_geom_bond_site_symmetry_1
_geom_bond_site_symmetry_2
Br1 C8 1_555 1_555
Br2 C12 1_555 1_555
O1 C7 1_555 1_555
O2 C9 1_555 1_555
O3 C7 1_555 1_555
O4 C13 1_555 1_555
C1 H1 1_555 1_555
C2 C1 1_555 1_555
H2 C2 1_555 1_555
C3 C2 1_555 1_555
H3 C3 1_555 1_555
C4 C3 1_555 1_555
H4 C4 1_555 1_555
C5 C4 1_555 1_555
H5 C5 1_555 1_555
C6 C1 1_555 1_555
C7 H6 1_555 1_555
C8 C6 1_555 1_555
C9 C8 1_555 1_555
C10 C9 1_555 1_555
C11 O1 1_555 1_555
C12 C11 1_555 1_555
C13 C12 1_555 1_555
C14 C13 1_555 1_555
H7 C14 1_555 1_555
C15 C10 1_555 1_555
H8 C15 1_555 1_555
C16 O3 1_555 1_555
H9 C16 1_555 1_555
H10 C16 1_555 1_555
H11 C16 1_555 1_555
C17 O4 1_555 1_555
H12 C17 1_555 1_555
C18 C17 1_555 1_555
H13 C18 1_555 1_555
H14 C18 1_555 1_555
H15 C18 1_555 1_555
C19 C17 1_555 1_555
H16 C19 1_555 1_555
H17 C19 1_555 1_555
H18 C19 1_555 1_555
C5 C6 1_555 1_555
C7 C8 1_555 1_555
C10 C11 1_555 1_555
C14 C15 1_555 1_555

#END
