
#######################################################################
#
#                 Cambridge Crystallographic Data Centre
#                                CCDC 
#
#######################################################################
#
# If this CIF has been generated from an entry in the Cambridge 
# Structural Database, then it will include bibliographic, chemical, 
# crystal, experimental, refinement or atomic coordinate data resulting 
# from the CCDC's data processing and validation procedures.
#
#######################################################################

data_NEJBOU
_chemical_formula_moiety         'C18 H19 N5 O3 S1'
_chemical_name_systematic        
'ethyl 5-amino-1-((5-methyl-1-phenyl-1H-pyrazol-4-yl)carbonyl)-3-methylsulfanyl-1H-pyrazole-4-carboxylate'
_symmetry_cell_setting           triclinic
_symmetry_space_group_name_H-M   'P -1'
_symmetry_Int_Tables_number      2
_space_group_name_Hall           '-P 1'
loop_
_symmetry_equiv_pos_site_id
_symmetry_equiv_pos_as_xyz
1 x,y,z
2 -x,-y,-z
_cell_length_a                   11.482(9)
_cell_length_b                   12.460(9)
_cell_length_c                   15.024(11)
_cell_angle_alpha                71.392(12)
_cell_angle_beta                 89.557(12)
_cell_angle_gamma                64.988(11)
_cell_volume                     1825.67
_cell_formula_units_Z            4
loop_
_atom_site_label
_atom_site_type_symbol
_atom_site_fract_x
_atom_site_fract_y
_atom_site_fract_z
S1 S 0.11575(8) 0.14486(9) 0.38461(7)
N1 N 0.3522(2) 0.1320(2) 0.39818(18)
N2 N 0.4218(2) 0.1740(2) 0.44218(18)
N3 N 0.3895(3) 0.2935(3) 0.5444(2)
H1 H 0.4682 0.2841 0.5447
H2 H 0.3388 0.3357 0.5762
N4 N 0.7533(2) 0.0046(2) 0.27768(19)
N5 N 0.6540(2) -0.0243(3) 0.2635(2)
O1 O 0.6038(2) 0.1923(2) 0.46910(17)
O2 O 0.1228(2) 0.3648(2) 0.57934(17)
O3 O 0.0189(2) 0.2809(2) 0.51788(18)
C1 C 0.2369(3) 0.1746(3) 0.4241(2)
C2 C 0.2260(3) 0.2444(3) 0.4851(2)
C3 C 0.3465(3) 0.2430(3) 0.4950(2)
C4 C 0.5493(3) 0.1517(3) 0.4281(2)
C5 C 0.6104(3) 0.0841(3) 0.3640(2)
C6 C 0.7303(3) 0.0686(3) 0.3388(2)
C7 C 0.5691(3) 0.0240(3) 0.3145(2)
H5 H 0.4902 0.0196 0.3181
C8 C 0.8607(3) -0.0347(3) 0.2271(2)
C9 C 0.9155(3) 0.0440(3) 0.1855(2)
H6 H 0.8848 0.1238 0.1901
C10 C 1.0182(3) 0.0019(4) 0.1362(3)
H7 H 1.0582 0.0533 0.1094
C11 C 1.0615(4) -0.1123(4) 0.1260(3)
H8 H 1.1303 -0.1389 0.0926
C12 C 1.0024(3) -0.1885(4) 0.1657(3)
H9 H 1.0309 -0.2668 0.1588
C13 C 0.9023(3) -0.1497(3) 0.2152(2)
H10 H 0.8619 -0.2010 0.2411
C14 C 0.8278(3) 0.1027(4) 0.3715(3)
H11 H 0.9133 0.0461 0.3655
H12 H 0.8238 0.0963 0.4367
H13 H 0.8093 0.1878 0.3332
C15 C 0.2037(4) 0.0530(4) 0.3130(3)
H14 H 0.2292 0.1040 0.2618
H15 H 0.1489 0.0260 0.2875
H16 H 0.2797 -0.0196 0.3516
C16 C 0.1205(3) 0.3029(3) 0.5320(2)
C17 C -0.0965(3) 0.3405(3) 0.5564(3)
H17 H -0.1456 0.4283 0.5163
H18 H -0.0735 0.3373 0.6195
C18 C -0.1745(4) 0.2713(5) 0.5605(4)
H19 H -0.1970 0.2754 0.4977
H20 H -0.2523 0.3087 0.5862
H21 H -0.1249 0.1846 0.6004
S2 S -0.35415(8) 0.38817(9) 0.10713(7)
N6 N -0.1191(2) 0.3816(2) 0.11287(18)
N7 N -0.0447(2) 0.4156(2) 0.16174(19)
N8 N -0.0642(3) 0.5041(3) 0.2837(2)
H3 H 0.0114 0.5021 0.2794
H4 H -0.1095 0.5327 0.3239
N9 N 0.2909(2) 0.2480(3) -0.00093(19)
N10 N 0.1809(2) 0.2474(3) -0.0351(2)
O4 O 0.1356(2) 0.4340(3) 0.18994(19)
O5 O -0.3129(2) 0.5395(2) 0.34237(17)
O6 O -0.4321(2) 0.4872(3) 0.26240(18)
C19 C -0.2275(3) 0.4100(3) 0.1483(2)
C20 C -0.2291(3) 0.4591(3) 0.2218(2)
C21 C -0.1105(3) 0.4633(3) 0.2285(2)
C22 C 0.0804(3) 0.3973(3) 0.1455(2)
C23 C 0.1409(3) 0.3355(3) 0.0791(2)
C24 C 0.2711(3) 0.3002(3) 0.0671(2)
C25 C 0.0926(3) 0.2991(3) 0.0127(2)
H22 H 0.0073 0.3110 0.0043
C26 C 0.4061(3) 0.1949(3) -0.0406(2)
C27 C 0.5260(3) 0.1213(3) 0.0161(3)
H23 H 0.5333 0.1059 0.0810
C28 C 0.6339(3) 0.0714(3) -0.0249(3)
H24 H 0.7151 0.0240 0.0126
C29 C 0.6241(4) 0.0903(4) -0.1200(3)
H25 H 0.6980 0.0553 -0.1467
C30 C 0.5044(3) 0.1612(3) -0.1759(3)
H26 H 0.4968 0.1734 -0.2404
C31 C 0.3958(3) 0.2140(3) -0.1357(2)
H27 H 0.3149 0.2630 -0.1735
C32 C 0.3715(3) 0.3209(4) 0.1113(3)
H28 H 0.4111 0.2550 0.1718
H29 H 0.3317 0.4012 0.1200
H30 H 0.4366 0.3200 0.0707
C33 C -0.2916(3) 0.3376(4) 0.0095(3)
H31 H -0.2594 0.3937 -0.0294
H32 H -0.3598 0.3387 -0.0279
H33 H -0.2223 0.2534 0.0338
C34 C -0.3252(3) 0.4989(3) 0.2817(2)
C35 C -0.5336(3) 0.5244(4) 0.3196(3)
H34 H -0.5614 0.6117 0.3139
H35 H -0.5023 0.4717 0.3859
C36 C -0.6431(4) 0.5085(5) 0.2838(3)
H36 H -0.6790 0.5675 0.2203
H37 H -0.7090 0.5239 0.3242
H38 H -0.6123 0.4239 0.2837
loop_
_geom_bond_atom_site_label_1
_geom_bond_atom_site_label_2
_geom_bond_site_symmetry_1
_geom_bond_site_symmetry_2
S1 C1 1_555 1_555
S2 C19 1_555 1_555
N1 N2 1_555 1_555
N2 C3 1_555 1_555
N3 H1 1_555 1_555
H2 N3 1_555 1_555
N4 N5 1_555 1_555
N5 C7 1_555 1_555
N6 N7 1_555 1_555
N7 C21 1_555 1_555
N8 H3 1_555 1_555
H4 N8 1_555 1_555
N9 N10 1_555 1_555
N10 C25 1_555 1_555
O1 C4 1_555 1_555
O2 C16 1_555 1_555
O3 C16 1_555 1_555
O4 C22 1_555 1_555
O5 C34 1_555 1_555
O6 C34 1_555 1_555
C1 N1 1_555 1_555
C2 C1 1_555 1_555
C3 N3 1_555 1_555
C4 N2 1_555 1_555
C5 C4 1_555 1_555
C6 N4 1_555 1_555
C7 C5 1_555 1_555
H5 C7 1_555 1_555
C8 N4 1_555 1_555
C9 C8 1_555 1_555
H6 C9 1_555 1_555
C10 C9 1_555 1_555
H7 C10 1_555 1_555
C11 C10 1_555 1_555
H8 C11 1_555 1_555
C12 C11 1_555 1_555
H9 C12 1_555 1_555
C13 C8 1_555 1_555
H10 C13 1_555 1_555
C14 C6 1_555 1_555
H11 C14 1_555 1_555
H12 C14 1_555 1_555
H13 C14 1_555 1_555
C15 S1 1_555 1_555
H14 C15 1_555 1_555
H15 C15 1_555 1_555
H16 C15 1_555 1_555
C16 C2 1_555 1_555
C17 O3 1_555 1_555
H17 C17 1_555 1_555
H18 C17 1_555 1_555
C18 C17 1_555 1_555
H19 C18 1_555 1_555
H20 C18 1_555 1_555
H21 C18 1_555 1_555
C19 N6 1_555 1_555
C20 C19 1_555 1_555
C21 N8 1_555 1_555
C22 N7 1_555 1_555
C23 C22 1_555 1_555
C24 N9 1_555 1_555
C25 C23 1_555 1_555
H22 C25 1_555 1_555
C26 N9 1_555 1_555
C27 C26 1_555 1_555
H23 C27 1_555 1_555
C28 C27 1_555 1_555
H24 C28 1_555 1_555
C29 C28 1_555 1_555
H25 C29 1_555 1_555
C30 C29 1_555 1_555
H26 C30 1_555 1_555
C31 C26 1_555 1_555
H27 C31 1_555 1_555
C32 C24 1_555 1_555
H28 C32 1_555 1_555
H29 C32 1_555 1_555
H30 C32 1_555 1_555
C33 S2 1_555 1_555
H31 C33 1_555 1_555
H32 C33 1_555 1_555
H33 C33 1_555 1_555
C34 C20 1_555 1_555
C35 O6 1_555 1_555
H34 C35 1_555 1_555
H35 C35 1_555 1_555
C36 C35 1_555 1_555
H36 C36 1_555 1_555
H37 C36 1_555 1_555
H38 C36 1_555 1_555
C2 C3 1_555 1_555
C5 C6 1_555 1_555
C12 C13 1_555 1_555
C20 C21 1_555 1_555
C23 C24 1_555 1_555
C30 C31 1_555 1_555

#END
