
#######################################################################
#
#                 Cambridge Crystallographic Data Centre
#                                CCDC 
#
#######################################################################
#
# If this CIF has been generated from an entry in the Cambridge 
# Structural Database, then it will include bibliographic, chemical, 
# crystal, experimental, refinement or atomic coordinate data resulting 
# from the CCDC's data processing and validation procedures.
#
#######################################################################

data_NEJJOD
_chemical_formula_moiety         'C18 H16 N2 O2'
_chemical_name_systematic        'Methyl N-(3-phenylisoquinolin-1-yl)glycinate'
_symmetry_cell_setting           monoclinic
_symmetry_space_group_name_H-M   'P 21/c'
_symmetry_Int_Tables_number      14
_space_group_name_Hall           '-P 2ybc'
loop_
_symmetry_equiv_pos_site_id
_symmetry_equiv_pos_as_xyz
1 x,y,z
2 -x,1/2+y,1/2-z
3 -x,-y,-z
4 x,1/2-y,1/2+z
_cell_length_a                   12.492(3)
_cell_length_b                   4.9170(10)
_cell_length_c                   24.871(5)
_cell_angle_alpha                90
_cell_angle_beta                 99.54(3)
_cell_angle_gamma                90
_cell_volume                     1506.53
_cell_formula_units_Z            4
loop_
_atom_site_label
_atom_site_type_symbol
_atom_site_fract_x
_atom_site_fract_y
_atom_site_fract_z
N1 N 0.77630(18) 0.2328(5) 0.31784(10)
O1 O 1.0046(2) 0.4698(6) 0.39963(15)
C1 C 0.7500(3) 0.1544(8) 0.42438(16)
H1 H 0.8021 0.2749 0.4159
O2 O 1.04109(17) 0.2109(4) 0.33136(9)
N2 N 0.8695(2) 0.4757(5) 0.26309(13)
H2 H 0.8841 0.5182 0.2315
C2 C 0.7351(3) 0.1274(9) 0.47738(16)
H3 H 0.7766 0.2323 0.5042
C3 C 0.6625(3) -0.0455(8) 0.49163(17)
H4 H 0.6521 -0.0572 0.5277
C4 C 0.6061(3) -0.1983(10) 0.45436(17)
H5 H 0.5579 -0.3253 0.4644
C5 C 0.6172(3) -0.1737(9) 0.39875(15)
H6 H 0.5749 -0.2818 0.3728
C6 C 0.6879(2) 0.0032(6) 0.38281(14)
C7 C 0.7004(2) 0.0401(6) 0.32535(13)
C8 C 0.6403(2) -0.0971(6) 0.28307(13)
H7 H 0.5895 -0.2258 0.2897
C9 C 0.6555(2) -0.0427(6) 0.22942(14)
C10 C 0.7320(2) 0.1561(6) 0.22014(15)
C11 C 0.7909(2) 0.2842(6) 0.26789(15)
C12 C 0.5952(3) -0.1788(7) 0.18437(14)
H8 H 0.5446 -0.3097 0.1901
C13 C 0.6103(3) -0.1208(8) 0.13304(15)
H9 H 0.5695 -0.2105 0.1036
C14 C 0.6871(3) 0.0739(8) 0.12408(16)
H10 H 0.6983 0.1100 0.0887
C15 C 0.7455(3) 0.2107(7) 0.16668(17)
H11 H 0.7951 0.3425 0.1600
C16 C 0.9268(3) 0.6034(7) 0.31146(17)
H12 H 0.8749 0.6836 0.3318
H13 H 0.9721 0.7483 0.3012
C17 C 0.9964(3) 0.4034(7) 0.34702(19)
C18 C 1.0688(4) 0.2865(11) 0.43717(18)
H14 H 1.0707 0.3504 0.4738
H15 H 1.1413 0.2787 0.4292
H16 H 1.0371 0.1082 0.4335
loop_
_geom_bond_atom_site_label_1
_geom_bond_atom_site_label_2
_geom_bond_site_symmetry_1
_geom_bond_site_symmetry_2
N1 C7 1_555 1_555
O1 C17 1_555 1_555
C1 H1 1_555 1_555
O2 C17 1_555 1_555
N2 H2 1_555 1_555
C2 C1 1_555 1_555
H3 C2 1_555 1_555
C3 C2 1_555 1_555
H4 C3 1_555 1_555
C4 C3 1_555 1_555
H5 C4 1_555 1_555
C5 C4 1_555 1_555
H6 C5 1_555 1_555
C6 C1 1_555 1_555
C7 C6 1_555 1_555
C8 C7 1_555 1_555
H7 C8 1_555 1_555
C9 C8 1_555 1_555
C10 C9 1_555 1_555
C11 N1 1_555 1_555
C12 C9 1_555 1_555
H8 C12 1_555 1_555
C13 C12 1_555 1_555
H9 C13 1_555 1_555
C14 C13 1_555 1_555
H10 C14 1_555 1_555
C15 C10 1_555 1_555
H11 C15 1_555 1_555
C16 N2 1_555 1_555
H12 C16 1_555 1_555
H13 C16 1_555 1_555
C17 C16 1_555 1_555
C18 O1 1_555 1_555
H14 C18 1_555 1_555
H15 C18 1_555 1_555
H16 C18 1_555 1_555
N2 C11 1_555 1_555
C5 C6 1_555 1_555
C10 C11 1_555 1_555
C14 C15 1_555 1_555

#END
