
#######################################################################
#
#                 Cambridge Crystallographic Data Centre
#                                CCDC 
#
#######################################################################
#
# If this CIF has been generated from an entry in the Cambridge 
# Structural Database, then it will include bibliographic, chemical, 
# crystal, experimental, refinement or atomic coordinate data resulting 
# from the CCDC's data processing and validation procedures.
#
#######################################################################

data_NEJJET
_chemical_formula_moiety         'C22 H24 N2 O5'
_chemical_name_systematic        
2-(4-(3,4-Dimethoxyphenyl)-7,7-dimethyl-5-oxo-3,4,5,6,7,8-hexahydro-2H-1,3-benzoxazin-2-ylidene)-3-oxobutanenitrile
_symmetry_cell_setting           monoclinic
_symmetry_space_group_name_H-M   'P 21/n'
_symmetry_Int_Tables_number      14
_space_group_name_Hall           '-P 2yn'
loop_
_symmetry_equiv_pos_site_id
_symmetry_equiv_pos_as_xyz
1 x,y,z
2 1/2-x,1/2+y,1/2-z
3 -x,-y,-z
4 1/2+x,1/2-y,1/2+z
_cell_length_a                   16.282(4)
_cell_length_b                   7.4117(18)
_cell_length_c                   17.256(5)
_cell_angle_alpha                90
_cell_angle_beta                 103.193(4)
_cell_angle_gamma                90
_cell_volume                     2027.45
_exptl_crystal_colour            colorless
_exptl_crystal_description       block
_cell_formula_units_Z            4
loop_
_atom_site_label
_atom_site_type_symbol
_atom_site_fract_x
_atom_site_fract_y
_atom_site_fract_z
O1 O 0.63123(14) 0.2246(3) 0.44087(12)
O2 O 0.64245(12) 0.7051(2) 0.26566(10)
O3 O 0.61915(14) 0.4195(3) 0.05393(11)
O4 O 0.36998(12) -0.0580(2) 0.14432(11)
O5 O 0.25865(11) 0.1603(2) 0.17837(11)
N1 N 0.63056(13) 0.4192(3) 0.21047(12)
H1 H 0.6398 0.3489 0.1722
N2 N 0.66104(16) 1.0268(3) 0.14015(15)
C1 C 0.64140(17) 0.3851(3) 0.43027(16)
C2 C 0.6679(2) 0.5153(4) 0.49850(16)
H2 H 0.7300 0.5092 0.5172
H3 H 0.6431 0.4746 0.5429
C3 C 0.64283(18) 0.7126(4) 0.48019(15)
C4 C 0.67039(17) 0.7679(3) 0.40440(15)
H4 H 0.6439 0.8847 0.3852
H5 H 0.7323 0.7846 0.4169
C5 C 0.64641(16) 0.6308(3) 0.34071(15)
C6 C 0.63874(16) 0.5937(3) 0.20250(15)
C7 C 0.60683(16) 0.3323(3) 0.27964(14)
H6 H 0.6397 0.2179 0.2921
C8 C 0.63152(16) 0.4572(3) 0.34973(15)
C9 C 0.54739(19) 0.7359(4) 0.46874(18)
H7 H 0.5320 0.8613 0.4543
H8 H 0.5309 0.7058 0.5184
H9 H 0.5182 0.6555 0.4262
C10 C 0.6871(2) 0.8332(4) 0.54921(17)
H10 H 0.6716 0.9594 0.5367
H11 H 0.7484 0.8195 0.5573
H12 H 0.6698 0.7978 0.5978
C11 C 0.64270(17) 0.6821(3) 0.13175(15)
C12 C 0.65356(17) 0.8728(4) 0.13570(15)
C13 C 0.62776(18) 0.5857(4) 0.05690(16)
C14 C 0.6216(3) 0.6911(4) -0.01872(18)
H13 H 0.6014 0.6119 -0.0646
H14 H 0.6774 0.7386 -0.0204
H15 H 0.5821 0.7915 -0.0204
C15 C 0.51304(16) 0.2858(3) 0.25839(14)
C16 C 0.48671(16) 0.1269(3) 0.21633(14)
H16 H 0.5276 0.0444 0.2061
C17 C 0.40192(16) 0.0883(3) 0.18954(14)
C18 C 0.34117(16) 0.2068(3) 0.20745(14)
C19 C 0.36764(17) 0.3611(4) 0.25059(15)
H17 H 0.3272 0.4409 0.2637
C20 C 0.45309(17) 0.4008(3) 0.27496(16)
H18 H 0.4703 0.5091 0.3035
C21 C 0.4300(2) -0.1741(4) 0.1205(2)
H19 H 0.4003 -0.2682 0.0851
H20 H 0.4660 -0.2300 0.1677
H21 H 0.4650 -0.1034 0.0924
C22 C 0.19662(17) 0.2869(4) 0.19132(17)
H22 H 0.1403 0.2450 0.1641
H23 H 0.2075 0.4050 0.1702
H24 H 0.1996 0.2972 0.2485
loop_
_geom_bond_atom_site_label_1
_geom_bond_atom_site_label_2
_geom_bond_site_symmetry_1
_geom_bond_site_symmetry_2
O1 C1 1_555 1_555
O2 C5 1_555 1_555
O3 C13 1_555 1_555
O4 C17 1_555 1_555
O5 C18 1_555 1_555
N1 H1 1_555 1_555
N2 C12 1_555 1_555
C1 C2 1_555 1_555
C2 H2 1_555 1_555
H3 C2 1_555 1_555
C3 C2 1_555 1_555
C4 C3 1_555 1_555
H4 C4 1_555 1_555
H5 C4 1_555 1_555
C5 C4 1_555 1_555
C6 O2 1_555 1_555
C7 N1 1_555 1_555
H6 C7 1_555 1_555
C8 C1 1_555 1_555
C9 C3 1_555 1_555
H7 C9 1_555 1_555
H8 C9 1_555 1_555
H9 C9 1_555 1_555
C10 C3 1_555 1_555
H10 C10 1_555 1_555
H11 C10 1_555 1_555
H12 C10 1_555 1_555
C11 C6 1_555 1_555
C12 C11 1_555 1_555
C13 C11 1_555 1_555
C14 C13 1_555 1_555
H13 C14 1_555 1_555
H14 C14 1_555 1_555
H15 C14 1_555 1_555
C15 C7 1_555 1_555
C16 C15 1_555 1_555
H16 C16 1_555 1_555
C17 C16 1_555 1_555
C18 C17 1_555 1_555
C19 C18 1_555 1_555
H17 C19 1_555 1_555
C20 C15 1_555 1_555
H18 C20 1_555 1_555
C21 O4 1_555 1_555
H19 C21 1_555 1_555
H20 C21 1_555 1_555
H21 C21 1_555 1_555
C22 O5 1_555 1_555
H22 C22 1_555 1_555
H23 C22 1_555 1_555
H24 C22 1_555 1_555
N1 C6 1_555 1_555
C5 C8 1_555 1_555
C7 C8 1_555 1_555
C19 C20 1_555 1_555

#END
