
#######################################################################
#
#                 Cambridge Crystallographic Data Centre
#                                CCDC 
#
#######################################################################
#
# If this CIF has been generated from an entry in the Cambridge 
# Structural Database, then it will include bibliographic, chemical, 
# crystal, experimental, refinement or atomic coordinate data resulting 
# from the CCDC's data processing and validation procedures.
#
#######################################################################

data_NEJMAS
_chemical_formula_moiety         'C27 H27 F1 N2 O6'
_chemical_name_systematic        
"Diethyl 5-fluoro-1,1'',5''-trimethyl-2,2''-dioxo-1,1'',2,2''-tetrahydrodispiro[indole-3,1'-cyclobutane-2',3''-indole]-3',4'-dicarboxylate"
_symmetry_cell_setting           orthorhombic
_symmetry_space_group_name_H-M   'P b c a'
_symmetry_Int_Tables_number      61
_space_group_name_Hall           '-P 2ac 2ab'
loop_
_symmetry_equiv_pos_site_id
_symmetry_equiv_pos_as_xyz
1 x,y,z
2 1/2+x,1/2-y,-z
3 -x,1/2+y,1/2-z
4 1/2-x,-y,1/2+z
5 -x,-y,-z
6 1/2-x,1/2+y,z
7 x,1/2-y,1/2+z
8 1/2+x,y,1/2-z
_cell_length_a                   16.4638(14)
_cell_length_b                   16.1193(14)
_cell_length_c                   18.6779(16)
_cell_angle_alpha                90
_cell_angle_beta                 90
_cell_angle_gamma                90
_cell_volume                     4956.83
_exptl_crystal_description       bar
_cell_formula_units_Z            8
loop_
_atom_site_label
_atom_site_type_symbol
_atom_site_fract_x
_atom_site_fract_y
_atom_site_fract_z
C1 C 0.90333(17) 0.64383(13) 0.17803(15)
H1 H 0.9301 0.6226 0.1349
H2 H 0.8601 0.6055 0.1925
H3 H 0.9432 0.6487 0.2167
C2 C 0.90176(10) 0.79754(11) 0.18628(9)
C3 C 0.85040(10) 0.86890(10) 0.15608(8)
C4 C 0.79203(10) 0.82417(11) 0.10717(9)
C5 C 0.80585(11) 0.73919(11) 0.11414(9)
C6 C 0.76315(13) 0.68120(12) 0.07465(11)
H4 H 0.7738 0.6236 0.0795
C7 C 0.70417(13) 0.70981(14) 0.02767(11)
H5 H 0.6730 0.6712 0.0008
C8 C 0.69048(12) 0.79321(13) 0.01961(10)
C9 C 0.73437(11) 0.85181(12) 0.05866(9)
H6 H 0.7249 0.9095 0.0521
C10 C 0.81388(10) 0.93617(10) 0.21098(9)
C11 C 0.72165(10) 0.94147(11) 0.22075(10)
C12 C 0.77674(10) 0.94149(11) 0.33249(9)
C13 C 0.84409(10) 0.93783(10) 0.28737(9)
C14 C 0.92085(11) 0.94083(12) 0.31639(9)
H7 H 0.9674 0.9393 0.2864
C15 C 0.92914(11) 0.94622(14) 0.39057(10)
C16 C 0.86149(12) 0.94976(14) 0.43420(10)
H8 H 0.8684 0.9533 0.4846
C17 C 0.78393(11) 0.94821(12) 0.40582(10)
H9 H 0.7374 0.9516 0.4357
C18 C 0.62325(12) 0.94798(16) 0.32071(12)
H10 H 0.6145 1.0047 0.3379
H11 H 0.6163 0.9090 0.3605
H12 H 0.5837 0.9353 0.2830
C19 C 0.84740(10) 1.00433(10) 0.15904(8)
H13 H 0.8040 1.0219 0.1248
C20 C 0.90276(10) 0.94058(10) 0.12396(8)
H14 H 0.9575 0.9415 0.1472
C21 C 0.91194(11) 0.94093(10) 0.04397(9)
C22 C 0.9733(3) 0.8548(4) -0.0492(3)
H15 H 1.0249 0.8232 -0.0504
H16 H 0.9803 0.9069 -0.0765
C23 C 0.9046(3) 0.8041(4) -0.0789(3)
H17 H 0.9000 0.7521 -0.0519
H18 H 0.9151 0.7916 -0.1294
H19 H 0.8538 0.8354 -0.0747
C24 C 0.88415(12) 1.07897(11) 0.19455(9)
C25 C 0.85205(18) 1.19414(15) 0.26912(13)
H20 H 0.8714 1.2388 0.2370
H21 H 0.8969 1.1786 0.3018
C26 C 0.78006(17) 1.22258(16) 0.31080(13)
H22 H 0.7367 1.2390 0.2778
H23 H 0.7953 1.2701 0.3406
H24 H 0.7608 1.1773 0.3414
F1 F 1.0073(5) 0.9519(12) 0.4191(8)
C27 C 0.6268(9) 0.8225(12) -0.0329(8)
H25 H 0.6076 0.7753 -0.0613
H26 H 0.6505 0.8643 -0.0647
H27 H 0.5811 0.8468 -0.0067
N1 N 0.86857(10) 0.72478(9) 0.16316(8)
N2 N 0.70510(9) 0.94049(10) 0.29205(8)
O1 O 0.96343(8) 0.80442(9) 0.22170(7)
O2 O 0.67137(8) 0.95052(9) 0.17358(7)
O3 O 0.88852(8) 0.99544(8) 0.00516(6)
O4 O 0.94889(10) 0.87154(8) 0.02344(7)
O5 O 0.95534(9) 1.09508(10) 0.19562(7)
O6 O 0.82571(9) 1.12230(8) 0.22749(7)
C28? C 0.9372(4) 0.8622(4) -0.0581(3)
C29? C 0.9455(4) 0.7716(3) -0.0747(3)
C30? C 1.0141(10) 0.951(3) 0.4230(17)
F2? F 0.6343(5) 0.8230(7) -0.0274(4)
H28? H 0.8829 0.8825 -0.0725
H29? H 0.9789 0.8945 -0.0842
H30? H 0.9984 0.7517 -0.0579
H31? H 0.9413 0.7632 -0.1266
H32? H 0.9021 0.7408 -0.0506
H33? H 1.0103 0.9465 0.4752
H34? H 1.0392 1.0040 0.4102
H35? H 1.0473 0.9053 0.4044
loop_
_geom_bond_atom_site_label_1
_geom_bond_atom_site_label_2
_geom_bond_site_symmetry_1
_geom_bond_site_symmetry_2
C1 H1 1_555 1_555
H2 C1 1_555 1_555
H3 C1 1_555 1_555
C2 C3 1_555 1_555
C3 C4 1_555 1_555
C4 C5 1_555 1_555
C5 C6 1_555 1_555
C6 H4 1_555 1_555
C7 C6 1_555 1_555
H5 C7 1_555 1_555
C8 C7 1_555 1_555
C9 C4 1_555 1_555
H6 C9 1_555 1_555
C10 C3 1_555 1_555
C11 C10 1_555 1_555
C12 C13 1_555 1_555
C13 C10 1_555 1_555
C14 C13 1_555 1_555
H7 C14 1_555 1_555
C15 C14 1_555 1_555
C16 C15 1_555 1_555
H8 C16 1_555 1_555
C17 C12 1_555 1_555
H9 C17 1_555 1_555
C18 H10 1_555 1_555
H11 C18 1_555 1_555
H12 C18 1_555 1_555
C19 C10 1_555 1_555
H13 C19 1_555 1_555
C20 C3 1_555 1_555
H14 C20 1_555 1_555
C21 C20 1_555 1_555
C22 H15 1_555 1_555
H16 C22 1_555 1_555
C23 C22 1_555 1_555
H17 C23 1_555 1_555
H18 C23 1_555 1_555
H19 C23 1_555 1_555
C24 C19 1_555 1_555
C25 H20 1_555 1_555
H21 C25 1_555 1_555
C26 C25 1_555 1_555
H22 C26 1_555 1_555
H23 C26 1_555 1_555
H24 C26 1_555 1_555
F1 C15 1_555 1_555
C27 C8 1_555 1_555
H25 C27 1_555 1_555
H26 C27 1_555 1_555
H27 C27 1_555 1_555
N1 C1 1_555 1_555
N2 C11 1_555 1_555
O1 C2 1_555 1_555
O2 C11 1_555 1_555
O3 C21 1_555 1_555
O4 C21 1_555 1_555
O5 C24 1_555 1_555
O6 C24 1_555 1_555
C2 N1 1_555 1_555
C5 N1 1_555 1_555
C8 C9 1_555 1_555
C12 N2 1_555 1_555
C16 C17 1_555 1_555
C18 N2 1_555 1_555
C19 C20 1_555 1_555
C22 O4 1_555 1_555
C25 O6 1_555 1_555

#END
