
#######################################################################
#
#                 Cambridge Crystallographic Data Centre
#                                CCDC 
#
#######################################################################
#
# If this CIF has been generated from an entry in the Cambridge 
# Structural Database, then it will include bibliographic, chemical, 
# crystal, experimental, refinement or atomic coordinate data resulting 
# from the CCDC's data processing and validation procedures.
#
#######################################################################

data_NEJPID
_chemical_formula_moiety         'C22 H29 O4 P1'
_chemical_name_systematic        
'2-Isopropyl-5-methylcyclohexyl (2,5-dihydroxyphenyl)phenylphosphinate'
_symmetry_cell_setting           orthorhombic
_symmetry_space_group_name_H-M   'P 21 21 21'
_symmetry_Int_Tables_number      19
_space_group_name_Hall           'P 2ac 2ab'
loop_
_symmetry_equiv_pos_site_id
_symmetry_equiv_pos_as_xyz
1 x,y,z
2 1/2+x,1/2-y,-z
3 -x,1/2+y,1/2-z
4 1/2-x,-y,1/2+z
_cell_length_a                   12.739(4)
_cell_length_b                   16.494(5)
_cell_length_c                   31.430(9)
_cell_angle_alpha                90
_cell_angle_beta                 90
_cell_angle_gamma                90
_cell_volume                     6603.98
_exptl_crystal_colour            colorless
_exptl_crystal_description       rectangular
_cell_formula_units_Z            12
loop_
_atom_site_label
_atom_site_type_symbol
_atom_site_fract_x
_atom_site_fract_y
_atom_site_fract_z
C1 C 0.8186(2) 0.85506(16) 0.13696(9)
H1 H 0.8115 0.8206 0.1109
C2 C 0.9323(2) 0.87543(19) 0.14469(11)
H2 H 0.9731 0.8244 0.1463
H3 H 0.9386 0.9031 0.1725
C3 C 0.9802(3) 0.9298(2) 0.11015(13)
H4 H 0.9799 0.8987 0.0829
C4 C 0.9126(3) 1.0043(2) 0.10400(12)
H5 H 0.9393 1.0355 0.0794
H6 H 0.9182 1.0391 0.1295
C5 C 0.7988(3) 0.9833(2) 0.09653(13)
H7 H 0.7925 0.9532 0.0694
H8 H 0.7578 1.0340 0.0938
C6 C 0.7525(3) 0.9319(2) 0.13257(12)
H9 H 0.7641 0.9636 0.1593
C7 C 1.0916(3) 0.9510(3) 0.1203(2)
H10 H 1.1329 0.9011 0.1232
H11 H 1.0941 0.9814 0.1471
H12 H 1.1208 0.9842 0.0973
C8 C 0.6348(3) 0.9185(3) 0.12955(16)
H13 H 0.6167 0.8750 0.1504
C9 C 0.5741(4) 0.9978(3) 0.14395(19)
H14 H 0.4983 0.9876 0.1433
H15 H 0.5911 1.0424 0.1245
H16 H 0.5953 1.0124 0.1729
C10 C 0.6004(4) 0.8901(4) 0.08751(16)
H17 H 0.6498 0.8493 0.0769
H18 H 0.5981 0.9359 0.0677
H19 H 0.5303 0.8660 0.0899
C11 C 0.7100(2) 0.70089(16) 0.22778(9)
C12 C 0.7385(3) 0.6436(2) 0.25780(11)
H20 H 0.8051 0.6179 0.2561
C13 C 0.6694(4) 0.6238(2) 0.29044(12)
H21 H 0.6888 0.5846 0.3111
C14 C 0.5725(4) 0.6611(2) 0.29287(12)
H22 H 0.5255 0.6476 0.3152
C15 C 0.5444(3) 0.7172(2) 0.26317(12)
H23 H 0.4776 0.7426 0.2649
C16 C 0.6123(3) 0.73744(18) 0.23063(10)
H24 H 0.5920 0.7766 0.2101
C17 C 0.7620(2) 0.66145(16) 0.14002(9)
C18 C 0.8280(2) 0.60357(18) 0.12175(11)
C19 C 0.7936(3) 0.55946(19) 0.08707(11)
H25 H 0.8392 0.5208 0.0744
C20 C 0.6944(3) 0.57063(19) 0.07058(11)
H26 H 0.6718 0.5395 0.0469
C21 C 0.6280(2) 0.62724(19) 0.08860(9)
C22 C 0.6613(2) 0.67282(17) 0.12266(9)
H27 H 0.6158 0.7124 0.1346
O1 O 0.77593(15) 0.81206(10) 0.17452(6)
O2 O 0.91010(15) 0.70086(11) 0.19720(6)
O3 O 0.9260(2) 0.58715(15) 0.13682(10)
H82 H 0.936(3) 0.622(3) 0.1564(13)
O4 O 0.52989(17) 0.63604(16) 0.07084(7)
H83 H 0.4956 0.6706 0.0847
P1 P 0.79942(6) 0.72049(4) 0.18507(2)
C23 C 0.6808(2) 0.08656(16) 0.31736(9)
H28 H 0.6625 0.1276 0.2952
C24 C 0.5815(3) 0.0489(2) 0.33456(11)
H29 H 0.5344 0.0927 0.3446
H30 H 0.5995 0.0147 0.3594
C25 C 0.5230(3) -0.0026(2) 0.30198(11)
H31 H 0.4971 0.0338 0.2788
C26 C 0.5983(3) -0.0640(2) 0.28262(12)
H32 H 0.6186 -0.1041 0.3046
H33 H 0.5622 -0.0935 0.2594
C27 C 0.6963(3) -0.0240(2) 0.26509(12)
H34 H 0.6764 0.0124 0.2414
H35 H 0.7435 -0.0663 0.2535
C28 C 0.7555(3) 0.02484(17) 0.29873(10)
H36 H 0.7740 -0.0136 0.3221
C29 C 0.4292(4) -0.0424(3) 0.32284(15)
H37 H 0.4523 -0.0723 0.3481
H38 H 0.3962 -0.0799 0.3027
H39 H 0.3785 -0.0006 0.3312
C30 C 0.8600(3) 0.06197(19) 0.28243(12)
H40 H 0.8847 0.1008 0.3047
C31 C 0.9449(4) -0.0025(3) 0.2778(2)
H41 H 1.0103 0.0229 0.2683
H42 H 0.9226 -0.0429 0.2568
H43 H 0.9563 -0.0291 0.3053
C32 C 0.8471(3) 0.1102(2) 0.24155(12)
H44 H 0.7879 0.1477 0.2445
H45 H 0.8336 0.0730 0.2179
H46 H 0.9114 0.1410 0.2359
C33 C 0.7431(2) 0.28088(16) 0.32452(9)
C34 C 0.6778(2) 0.34163(19) 0.30848(11)
C35 C 0.7138(3) 0.39273(19) 0.27655(11)
H47 H 0.6697 0.4347 0.2661
C36 C 0.8127(3) 0.38313(18) 0.25992(11)
H48 H 0.8360 0.4180 0.2378
C37 C 0.8786(2) 0.32302(16) 0.27515(9)
C38 C 0.8435(2) 0.27361(16) 0.30743(8)
H49 H 0.8893 0.2332 0.3184
C39 C 0.7917(3) 0.2310(2) 0.41074(10)
C40 C 0.7598(5) 0.2818(4) 0.44361(14)
H50 H 0.6913 0.3045 0.4437
C41 C 0.8297(7) 0.2987(5) 0.47643(18)
H51 H 0.8092 0.3348 0.4985
C42 C 0.9280(7) 0.2642(5) 0.47746(18)
H52 H 0.9740 0.2750 0.5006
C43 C 0.9586(4) 0.2152(3) 0.44584(13)
H53 H 1.0270 0.1923 0.4464
C44 C 0.8912(3) 0.1974(2) 0.41209(10)
H54 H 0.9137 0.1621 0.3900
O5 O 0.59347(18) 0.23154(14) 0.37828(7)
O6 O 0.73379(15) 0.12711(11) 0.35321(6)
O7 O 0.57716(19) 0.35409(16) 0.32263(9)
H84 H 0.5670 0.3268 0.3448
O8 O 0.97557(16) 0.31593(13) 0.25740(6)
H85 H 1.0090 0.2789 0.2698
P2 P 0.70569(7) 0.21594(5) 0.36697(2)
C45 C 0.9416(2) 0.25278(16) 0.07772(8)
H55 H 0.9325 0.3084 0.0656
C46 C 1.0576(2) 0.2352(2) 0.08278(9)
H56 H 1.0933 0.2436 0.0552
H57 H 1.0670 0.1777 0.0910
C47 C 1.1089(2) 0.2895(2) 0.11652(10)
H58 H 1.1035 0.3471 0.1069
C48 C 1.0495(2) 0.2808(3) 0.15832(9)
H59 H 1.0562 0.2245 0.1688
H60 H 1.0806 0.3175 0.1799
C49 C 0.9339(2) 0.3015(2) 0.15236(9)
H61 H 0.9274 0.3587 0.1432
H62 H 0.8971 0.2956 0.1799
C50 C 0.8813(2) 0.24698(17) 0.11943(8)
H63 H 0.8896 0.1900 0.1298
C51 C 1.2246(3) 0.2682(3) 0.12154(12)
H64 H 1.2318 0.2097 0.1263
H65 H 1.2537 0.2976 0.1459
H66 H 1.2626 0.2835 0.0957
C52 C 0.7629(2) 0.26181(18) 0.11446(9)
H67 H 0.7387 0.2281 0.0899
C53 C 0.7020(3) 0.2328(2) 0.15377(11)
H68 H 0.6266 0.2396 0.1489
H69 H 0.7232 0.2648 0.1786
H70 H 0.7175 0.1754 0.1589
C54 C 0.7356(3) 0.3490(2) 0.10420(11)
H71 H 0.7782 0.3676 0.0801
H72 H 0.7498 0.3832 0.1291
H73 H 0.6610 0.3528 0.0968
C55 C 0.8722(2) 0.28717(18) -0.02162(8)
C56 C 0.7781(2) 0.32442(17) -0.00889(9)
H74 H 0.7341 0.2977 0.0111
C57 C 0.7480(3) 0.39851(19) -0.02465(10)
C58 C 0.8129(3) 0.4374(2) -0.05325(14)
H75 H 0.7944 0.4896 -0.0636
C59 C 0.9034(3) 0.4016(3) -0.06682(15)
H76 H 0.9460 0.4286 -0.0872
C60 C 0.9344(2) 0.3269(3) -0.05157(11)
C61 C 0.8139(3) 0.11557(19) -0.01482(9)
C62 C 0.7123(3) 0.11624(18) 0.00106(10)
H77 H 0.6924 0.1568 0.0209
C63 C 0.6396(4) 0.0589(2) -0.01150(12)
H78 H 0.5698 0.0608 -0.0010
C64 C 0.6691(5) -0.0003(3) -0.03908(17)
H79 H 0.6196 -0.0401 -0.0478
C65 C 0.7691(6) -0.0031(4) -0.0543(2)
H80 H 0.7891 -0.0452 -0.0733
C66 C 0.8412(4) 0.0543(3) -0.04252(14)
H81 H 0.9105 0.0519 -0.0535
O9 O 1.01488(17) 0.16905(15) -0.01704(7)
O10 O 0.89388(15) 0.19314(11) 0.04865(5)
O11 O 1.02704(18) 0.2964(2) -0.06673(10)
H86 H 1.0352 0.2488 -0.0578
O12 O 0.65712(19) 0.43692(13) -0.01323(8)
H87 H 0.618(3) 0.404(2) 0.0003(12)
P3 P 0.90810(6) 0.19027(5) -0.00086(2)
loop_
_geom_bond_atom_site_label_1
_geom_bond_atom_site_label_2
_geom_bond_site_symmetry_1
_geom_bond_site_symmetry_2
C1 H1 1_555 1_555
C2 C1 1_555 1_555
H2 C2 1_555 1_555
H3 C2 1_555 1_555
C3 C2 1_555 1_555
H4 C3 1_555 1_555
C4 C3 1_555 1_555
H5 C4 1_555 1_555
H6 C4 1_555 1_555
C5 C4 1_555 1_555
H7 C5 1_555 1_555
H8 C5 1_555 1_555
C6 C1 1_555 1_555
H9 C6 1_555 1_555
C7 C3 1_555 1_555
H10 C7 1_555 1_555
H11 C7 1_555 1_555
H12 C7 1_555 1_555
C8 C6 1_555 1_555
H13 C8 1_555 1_555
C9 C8 1_555 1_555
H14 C9 1_555 1_555
H15 C9 1_555 1_555
H16 C9 1_555 1_555
C10 C8 1_555 1_555
H17 C10 1_555 1_555
H18 C10 1_555 1_555
H19 C10 1_555 1_555
C11 C12 1_555 1_555
C12 H20 1_555 1_555
C13 C12 1_555 1_555
H21 C13 1_555 1_555
C14 C13 1_555 1_555
H22 C14 1_555 1_555
C15 C14 1_555 1_555
H23 C15 1_555 1_555
C16 C11 1_555 1_555
H24 C16 1_555 1_555
C17 C18 1_555 1_555
C18 C19 1_555 1_555
C19 H25 1_555 1_555
C20 C19 1_555 1_555
H26 C20 1_555 1_555
C21 C20 1_555 1_555
C22 C17 1_555 1_555
H27 C22 1_555 1_555
C23 H28 1_555 1_555
C24 C23 1_555 1_555
H29 C24 1_555 1_555
H30 C24 1_555 1_555
C25 C24 1_555 1_555
H31 C25 1_555 1_555
C26 C25 1_555 1_555
H32 C26 1_555 1_555
H33 C26 1_555 1_555
C27 C26 1_555 1_555
H34 C27 1_555 1_555
H35 C27 1_555 1_555
C28 C23 1_555 1_555
H36 C28 1_555 1_555
C29 C25 1_555 1_555
H37 C29 1_555 1_555
H38 C29 1_555 1_555
H39 C29 1_555 1_555
C30 C28 1_555 1_555
H40 C30 1_555 1_555
C31 C30 1_555 1_555
H41 C31 1_555 1_555
H42 C31 1_555 1_555
H43 C31 1_555 1_555
C32 C30 1_555 1_555
H44 C32 1_555 1_555
H45 C32 1_555 1_555
H46 C32 1_555 1_555
C33 C34 1_555 1_555
C34 C35 1_555 1_555
C35 H47 1_555 1_555
C36 C35 1_555 1_555
H48 C36 1_555 1_555
C37 C36 1_555 1_555
C38 C33 1_555 1_555
H49 C38 1_555 1_555
C39 C40 1_555 1_555
C40 H50 1_555 1_555
C41 C40 1_555 1_555
H51 C41 1_555 1_555
C42 C41 1_555 1_555
H52 C42 1_555 1_555
C43 C42 1_555 1_555
H53 C43 1_555 1_555
C44 C39 1_555 1_555
H54 C44 1_555 1_555
C45 H55 1_555 1_555
C46 C45 1_555 1_555
H56 C46 1_555 1_555
H57 C46 1_555 1_555
C47 C46 1_555 1_555
H58 C47 1_555 1_555
C48 C47 1_555 1_555
H59 C48 1_555 1_555
H60 C48 1_555 1_555
C49 C48 1_555 1_555
H61 C49 1_555 1_555
H62 C49 1_555 1_555
C50 C45 1_555 1_555
H63 C50 1_555 1_555
C51 C47 1_555 1_555
H64 C51 1_555 1_555
H65 C51 1_555 1_555
H66 C51 1_555 1_555
C52 C50 1_555 1_555
H67 C52 1_555 1_555
C53 C52 1_555 1_555
H68 C53 1_555 1_555
H69 C53 1_555 1_555
H70 C53 1_555 1_555
C54 C52 1_555 1_555
H71 C54 1_555 1_555
H72 C54 1_555 1_555
H73 C54 1_555 1_555
C55 C56 1_555 1_555
C56 H74 1_555 1_555
C57 C56 1_555 1_555
C58 C57 1_555 1_555
H75 C58 1_555 1_555
C59 C58 1_555 1_555
H76 C59 1_555 1_555
C60 C55 1_555 1_555
C61 C62 1_555 1_555
C62 H77 1_555 1_555
C63 C62 1_555 1_555
H78 C63 1_555 1_555
C64 C63 1_555 1_555
H79 C64 1_555 1_555
C65 C64 1_555 1_555
H80 C65 1_555 1_555
C66 C61 1_555 1_555
H81 C66 1_555 1_555
O1 C1 1_555 1_555
O2 P1 1_555 1_555
O3 C18 1_555 1_555
H82 O3 1_555 1_555
O4 C21 1_555 1_555
H83 O4 1_555 1_555
O5 P2 1_555 1_555
O6 C23 1_555 1_555
O7 C34 1_555 1_555
H84 O7 1_555 1_555
O8 C37 1_555 1_555
H85 O8 1_555 1_555
O9 P3 1_555 1_555
O10 C45 1_555 1_555
O11 C60 1_555 1_555
H86 O11 1_555 1_555
O12 C57 1_555 1_555
H87 O12 1_555 1_555
P1 C11 1_555 1_555
P2 C33 1_555 1_555
P3 C55 1_555 1_555
C5 C6 1_555 1_555
C15 C16 1_555 1_555
C17 P1 1_555 1_555
C21 C22 1_555 1_555
C27 C28 1_555 1_555
C37 C38 1_555 1_555
C39 P2 1_555 1_555
C43 C44 1_555 1_555
C49 C50 1_555 1_555
C59 C60 1_555 1_555
C61 P3 1_555 1_555
C65 C66 1_555 1_555
O1 P1 1_555 1_555
O6 P2 1_555 1_555
O10 P3 1_555 1_555

#END
