
#######################################################################
#
#                 Cambridge Crystallographic Data Centre
#                                CCDC 
#
#######################################################################
#
# If this CIF has been generated from an entry in the Cambridge 
# Structural Database, then it will include bibliographic, chemical, 
# crystal, experimental, refinement or atomic coordinate data resulting 
# from the CCDC's data processing and validation procedures.
#
#######################################################################

data_NEKHOD
_chemical_formula_moiety         'C18 H21 N1 O3 S1'
_chemical_name_systematic        
1-[5-methyl-1-(methylsulfonyl)-2-phenyl-2,3-dihydro-1H-indol-3-yl]ethan-1-ol
_symmetry_cell_setting           triclinic
_symmetry_space_group_name_H-M   'P -1'
_symmetry_Int_Tables_number      2
_space_group_name_Hall           '-P 1'
loop_
_symmetry_equiv_pos_site_id
_symmetry_equiv_pos_as_xyz
1 x,y,z
2 -x,-y,-z
_cell_length_a                   7.8615(16)
_cell_length_b                   9.807(2)
_cell_length_c                   11.457(2)
_cell_angle_alpha                95.818(3)
_cell_angle_beta                 94.360(3)
_cell_angle_gamma                99.019(3)
_cell_volume                     864.088
_exptl_crystal_colour            colorless
_exptl_crystal_description       block
_cell_formula_units_Z            2
loop_
_atom_site_label
_atom_site_type_symbol
_atom_site_fract_x
_atom_site_fract_y
_atom_site_fract_z
S1 S 0.35573(5) 0.21919(5) 0.13296(3)
N1 N 0.27738(18) 0.12567(16) 0.23335(12)
O1 O -0.14868(18) 0.12210(17) 0.16926(12)
O2 O 0.3810(2) 0.36097(15) 0.18363(13)
O3 O 0.50152(17) 0.16190(18) 0.09393(12)
C1 C 0.1668(2) 0.18686(18) 0.31977(14)
H1 H 0.1161 0.2622 0.2861
C2 C 0.0203(2) 0.06423(18) 0.33316(15)
H2 H 0.0192 0.0512 0.4177
C3 C 0.0763(2) -0.06091(19) 0.26864(15)
C4 C 0.0059(3) -0.1997(2) 0.26405(17)
H3 H -0.0892 -0.2267 0.3064
C5 C 0.0766(3) -0.3007(2) 0.19598(19)
C6 C 0.2162(3) -0.2563(2) 0.13356(18)
H4 H 0.2607 -0.3230 0.0853
C7 C 0.2924(3) -0.1179(2) 0.13959(16)
H5 H 0.3893 -0.0909 0.0989
C8 C 0.2197(2) -0.02039(19) 0.20847(14)
C9 C 0.1969(3) 0.1942(2) 0.01289(17)
H6 H 0.2372 0.2507 -0.0474
H7 H 0.0911 0.2210 0.0390
H8 H 0.1748 0.0970 -0.0192
C10 C 0.2721(2) 0.24379(18) 0.43541(14)
C11 C 0.2669(3) 0.3775(2) 0.48651(17)
H9 H 0.1993 0.4338 0.4484
C12 C 0.3616(3) 0.4285(2) 0.5943(2)
H10 H 0.3583 0.5193 0.6283
C13 C 0.4599(3) 0.3463(2) 0.65086(17)
H11 H 0.5231 0.3808 0.7236
C14 C 0.4658(3) 0.2134(2) 0.60099(17)
H12 H 0.5336 0.1576 0.6396
C15 C 0.3719(3) 0.1619(2) 0.49391(16)
H13 H 0.3756 0.0709 0.4606
C16 C -0.1595(2) 0.0894(2) 0.28707(17)
H14 H -0.2432 0.0024 0.2861
C17 C -0.2200(3) 0.2044(3) 0.3646(2)
H15 H -0.1371 0.2894 0.3682
H16 H -0.2293 0.1776 0.4434
H17 H -0.3320 0.2194 0.3317
C18 C 0.0014(4) -0.4524(2) 0.1891(3)
H18 H -0.0965 -0.4741 0.1296
H19 H -0.0366 -0.4730 0.2649
H20 H 0.0887 -0.5079 0.1683
H21 H -0.243(5) 0.158(3) 0.146(3)
loop_
_geom_bond_atom_site_label_1
_geom_bond_atom_site_label_2
_geom_bond_site_symmetry_1
_geom_bond_site_symmetry_2
S1 N1 1_555 1_555
N1 C1 1_555 1_555
O1 C16 1_555 1_555
O2 S1 1_555 1_555
O3 S1 1_555 1_555
C1 H1 1_555 1_555
C2 C1 1_555 1_555
H2 C2 1_555 1_555
C3 C2 1_555 1_555
C4 C3 1_555 1_555
H3 C4 1_555 1_555
C5 C4 1_555 1_555
C6 C5 1_555 1_555
H4 C6 1_555 1_555
C7 C6 1_555 1_555
H5 C7 1_555 1_555
C8 N1 1_555 1_555
C9 S1 1_555 1_555
H6 C9 1_555 1_555
H7 C9 1_555 1_555
H8 C9 1_555 1_555
C10 C1 1_555 1_555
C11 C10 1_555 1_555
H9 C11 1_555 1_555
C12 C11 1_555 1_555
H10 C12 1_555 1_555
C13 C12 1_555 1_555
H11 C13 1_555 1_555
C14 C13 1_555 1_555
H12 C14 1_555 1_555
C15 C10 1_555 1_555
H13 C15 1_555 1_555
C16 C2 1_555 1_555
H14 C16 1_555 1_555
C17 C16 1_555 1_555
H15 C17 1_555 1_555
H16 C17 1_555 1_555
H17 C17 1_555 1_555
C18 C5 1_555 1_555
H18 C18 1_555 1_555
H19 C18 1_555 1_555
H20 C18 1_555 1_555
H21 O1 1_555 1_555
C3 C8 1_555 1_555
C7 C8 1_555 1_555
C14 C15 1_555 1_555

#END
