
#######################################################################
#
#                 Cambridge Crystallographic Data Centre
#                                CCDC 
#
#######################################################################
#
# If this CIF has been generated from an entry in the Cambridge 
# Structural Database, then it will include bibliographic, chemical, 
# crystal, experimental, refinement or atomic coordinate data resulting 
# from the CCDC's data processing and validation procedures.
#
#######################################################################

data_NEKYUA
_chemical_formula_moiety         'C36 H28 Cl1 N1 O5 S1'
_chemical_name_systematic        
1a-(4-chlorophenyl)-10-[(4-methylphenyl)sulfonyl]-4-(naphthalen-2-yl)-1a,2,4,10,11,11a-hexahydro[1]benzofuro[2,3-c]oxireno[g][1,5]oxazonine
_symmetry_cell_setting           monoclinic
_symmetry_space_group_name_H-M   'P 21'
_symmetry_Int_Tables_number      4
_space_group_name_Hall           'P 2yb'
loop_
_symmetry_equiv_pos_site_id
_symmetry_equiv_pos_as_xyz
1 x,y,z
2 -x,1/2+y,-z
_cell_length_a                   11.5856(5)
_cell_length_b                   9.1759(4)
_cell_length_c                   14.3288(6)
_cell_angle_alpha                90
_cell_angle_beta                 101.8790(10)
_cell_angle_gamma                90
_cell_volume                     1490.65
_exptl_crystal_colour            'light yellow'
_exptl_crystal_description       prism
_cell_formula_units_Z            2
loop_
_atom_site_label
_atom_site_type_symbol
_atom_site_fract_x
_atom_site_fract_y
_atom_site_fract_z
S1 S 0.52721(4) 0.36633(5) 0.28772(3)
Cl1 Cl 0.91141(5) -0.23118(6) 0.02713(4)
N1 N 0.57791(13) 0.47371(18) 0.21377(10)
O1 O 0.55490(12) 0.38181(19) -0.04206(9)
O2 O 0.85480(11) 0.42350(15) 0.11241(9)
O3 O 0.86662(11) 0.63767(16) 0.27724(9)
O4 O 0.62323(12) 0.34369(18) 0.36736(10)
O5 O 0.47300(13) 0.24601(16) 0.23157(11)
C1 C 0.51386(16) 0.4823(2) 0.11350(13)
H1 H 0.5339 0.5749 0.0851
H2 H 0.4279 0.4819 0.1113
C2 C 0.54520(15) 0.3553(2) 0.05563(12)
H3 H 0.5066 0.2610 0.0662
C3 C 0.66043(15) 0.3403(2) 0.02743(11)
C4 C 0.75140(16) 0.4614(2) 0.04347(13)
H4 H 0.7741 0.4847 -0.0178
H5 H 0.7157 0.5499 0.0652
C5 C 0.83105(15) 0.3920(2) 0.20542(12)
H6 H 0.7652 0.3195 0.1964
C6 C 0.78916(16) 0.5261(2) 0.24646(12)
C7 C 0.79812(17) 0.7520(2) 0.29847(12)
C8 C 0.8395(2) 0.8890(2) 0.32902(14)
H7 H 0.9210 0.9130 0.3401
C9 C 0.7544(2) 0.9895(2) 0.34245(15)
H8 H 0.7784 1.0849 0.3637
C10 C 0.6347(2) 0.9538(3) 0.32564(16)
H9 H 0.5792 1.0254 0.3357
C11 C 0.59540(19) 0.8161(2) 0.29465(15)
H10 H 0.5139 0.7923 0.2831
C12 C 0.67953(17) 0.7130(2) 0.28080(13)
C13 C 0.67648(16) 0.5648(2) 0.24694(12)
C14 C 0.41573(16) 0.4634(2) 0.32735(13)
C15 C 0.44586(17) 0.5545(3) 0.40637(13)
H11 H 0.5256 0.5625 0.4393
C16 C 0.35817(19) 0.6331(3) 0.43639(14)
H12 H 0.3779 0.6943 0.4908
C17 C 0.24126(18) 0.6235(2) 0.38749(15)
C18 C 0.21382(17) 0.5330(3) 0.30792(14)
H13 H 0.1345 0.5270 0.2737
C19 C 0.29982(17) 0.4521(2) 0.27782(14)
H14 H 0.2799 0.3896 0.2240
C20 C 0.71157(15) 0.1923(2) 0.01943(12)
C21 C 0.78922(17) 0.1687(2) -0.04231(13)
H15 H 0.8012 0.2438 -0.0849
C22 C 0.84867(17) 0.0378(2) -0.04223(14)
H16 H 0.9013 0.0227 -0.0842
C23 C 0.82987(17) -0.0707(2) 0.02039(14)
C24 C 0.75045(17) -0.0527(2) 0.07971(13)
H17 H 0.7358 -0.1298 0.1200
C25 C 0.69263(16) 0.0796(2) 0.07943(12)
H18 H 0.6392 0.0934 0.1208
C26 C 0.93963(15) 0.3182(2) 0.26302(13)
C27 C 1.00449(16) 0.2278(2) 0.21811(13)
H19 H 0.9821 0.2148 0.1510
C28 C 1.10454(16) 0.1532(2) 0.26964(13)
C29 C 1.17392(19) 0.0620(3) 0.22358(15)
H20 H 1.1510 0.0459 0.1568
C30 C 1.2736(2) -0.0036(3) 0.27397(19)
H21 H 1.3204 -0.0626 0.2419
C31 C 1.3069(2) 0.0165(3) 0.37340(19)
H22 H 1.3759 -0.0298 0.4080
C32 C 1.2406(2) 0.1019(3) 0.42061(16)
H23 H 1.2640 0.1141 0.4877
C33 C 1.13726(17) 0.1725(2) 0.37018(13)
C34 C 1.06648(17) 0.2633(3) 0.41518(13)
H24 H 1.0861 0.2752 0.4824
C35 C 0.97028(16) 0.3343(2) 0.36372(13)
H25 H 0.9238 0.3946 0.3954
C36 C 0.1456(2) 0.7082(3) 0.4205(2)
H26 H 0.1062 0.7725 0.3691
H27 H 0.1805 0.7669 0.4764
H28 H 0.0879 0.6404 0.4375
loop_
_geom_bond_atom_site_label_1
_geom_bond_atom_site_label_2
_geom_bond_site_symmetry_1
_geom_bond_site_symmetry_2
S1 N1 1_555 1_555
Cl1 C23 1_555 1_555
N1 C1 1_555 1_555
O1 C2 1_555 1_555
O2 C4 1_555 1_555
O3 C6 1_555 1_555
O4 S1 1_555 1_555
O5 S1 1_555 1_555
C1 H1 1_555 1_555
H2 C1 1_555 1_555
C2 C1 1_555 1_555
H3 C2 1_555 1_555
C3 O1 1_555 1_555
C4 C3 1_555 1_555
H4 C4 1_555 1_555
H5 C4 1_555 1_555
C5 O2 1_555 1_555
H6 C5 1_555 1_555
C6 C5 1_555 1_555
C7 O3 1_555 1_555
C8 C7 1_555 1_555
H7 C8 1_555 1_555
C9 C8 1_555 1_555
H8 C9 1_555 1_555
C10 C9 1_555 1_555
H9 C10 1_555 1_555
C11 C10 1_555 1_555
H10 C11 1_555 1_555
C12 C7 1_555 1_555
C13 N1 1_555 1_555
C14 S1 1_555 1_555
C15 C14 1_555 1_555
H11 C15 1_555 1_555
C16 C15 1_555 1_555
H12 C16 1_555 1_555
C17 C16 1_555 1_555
C18 C17 1_555 1_555
H13 C18 1_555 1_555
C19 C14 1_555 1_555
H14 C19 1_555 1_555
C20 C3 1_555 1_555
C21 C20 1_555 1_555
H15 C21 1_555 1_555
C22 C21 1_555 1_555
H16 C22 1_555 1_555
C23 C22 1_555 1_555
C24 C23 1_555 1_555
H17 C24 1_555 1_555
C25 C20 1_555 1_555
H18 C25 1_555 1_555
C26 C5 1_555 1_555
C27 C26 1_555 1_555
H19 C27 1_555 1_555
C28 C27 1_555 1_555
C29 C28 1_555 1_555
H20 C29 1_555 1_555
C30 C29 1_555 1_555
H21 C30 1_555 1_555
C31 C30 1_555 1_555
H22 C31 1_555 1_555
C32 C31 1_555 1_555
H23 C32 1_555 1_555
C33 C28 1_555 1_555
C34 C33 1_555 1_555
H24 C34 1_555 1_555
C35 C26 1_555 1_555
H25 C35 1_555 1_555
C36 C17 1_555 1_555
H26 C36 1_555 1_555
H27 C36 1_555 1_555
H28 C36 1_555 1_555
C2 C3 1_555 1_555
C6 C13 1_555 1_555
C11 C12 1_555 1_555
C12 C13 1_555 1_555
C18 C19 1_555 1_555
C24 C25 1_555 1_555
C32 C33 1_555 1_555
C34 C35 1_555 1_555

#END
