
#######################################################################
#
#                 Cambridge Crystallographic Data Centre
#                                CCDC 
#
#######################################################################
#
# If this CIF has been generated from an entry in the Cambridge 
# Structural Database, then it will include bibliographic, chemical, 
# crystal, experimental, refinement or atomic coordinate data resulting 
# from the CCDC's data processing and validation procedures.
#
#######################################################################

data_NEKZOV
_chemical_formula_moiety         'C36 H28 Cl1 N1 O4 S1'
_chemical_name_systematic        
4-(4-chlorophenyl)-1-[(4-methylphenyl)sulfonyl]-7-(naphthalen-2-yl)-1,2,5,7-tetrahydro[1]benzofuro[2,3-c][1,5]oxazonine
_symmetry_cell_setting           orthorhombic
_symmetry_space_group_name_H-M   'P 21 21 21'
_symmetry_Int_Tables_number      19
_space_group_name_Hall           'P 2ac 2ab'
loop_
_symmetry_equiv_pos_site_id
_symmetry_equiv_pos_as_xyz
1 x,y,z
2 1/2-x,-y,1/2+z
3 -x,1/2+y,1/2-z
4 1/2+x,1/2-y,-z
_cell_length_a                   9.7883(11)
_cell_length_b                   10.7643(11)
_cell_length_c                   27.458(3)
_cell_angle_alpha                90
_cell_angle_beta                 90
_cell_angle_gamma                90
_cell_volume                     2893.09
_exptl_crystal_colour            colorless
_exptl_crystal_description       Rod
_cell_formula_units_Z            4
loop_
_atom_site_label
_atom_site_type_symbol
_atom_site_fract_x
_atom_site_fract_y
_atom_site_fract_z
Cl1 Cl 0.01193(9) 0.86037(7) 0.31744(3)
S1 S 0.51809(8) 0.10593(7) 0.29475(3)
O1 O 0.2331(2) 0.03115(19) 0.43081(8)
O2 O 0.0750(2) 0.24877(19) 0.38825(8)
O3 O 0.5217(2) 0.1429(2) 0.24464(7)
O4 O 0.5902(2) -0.00376(19) 0.30998(8)
N1 N 0.3561(3) 0.0889(2) 0.30812(9)
C1 C 0.2694(3) -0.0880(3) 0.41662(12)
C2 C 0.2525(4) -0.1938(3) 0.44400(12)
H1 H 0.2165 -0.1915 0.4761
C3 C 0.2914(4) -0.3045(3) 0.42174(13)
H2 H 0.2821 -0.3804 0.4391
C4 C 0.3437(3) -0.3062(3) 0.37433(12)
H3 H 0.3675 -0.3835 0.3600
C5 C 0.3618(3) -0.1983(3) 0.34790(11)
H4 H 0.3992 -0.2002 0.3160
C6 C 0.3232(3) -0.0862(3) 0.36966(11)
C7 C 0.3196(3) 0.0422(3) 0.35502(11)
C8 C 0.2650(3) 0.1079(3) 0.39226(11)
C9 C 0.2190(3) 0.2400(3) 0.39635(12)
H5 H 0.2657 0.2885 0.3701
C10 C 0.0334(3) 0.2282(3) 0.33852(10)
H6 H -0.0652 0.2467 0.3353
H7 H 0.0474 0.1396 0.3301
C11 C 0.1129(3) 0.3083(3) 0.30334(11)
C12 C 0.2090(3) 0.2594(3) 0.27436(11)
H8 H 0.2566 0.3150 0.2535
C13 C 0.2484(3) 0.1240(3) 0.27190(11)
H9 H 0.1662 0.0726 0.2777
H10 H 0.2822 0.1051 0.2387
C14 C 0.2490(3) 0.3038(3) 0.44459(11)
C15 C 0.1548(3) 0.3826(3) 0.46519(11)
H11 H 0.0658 0.3879 0.4516
C16 C 0.1878(3) 0.4561(3) 0.50625(11)
C17 C 0.0932(4) 0.5408(3) 0.52665(12)
H12 H 0.0037 0.5465 0.5135
C18 C 0.1294(3) 0.6146(3) 0.56505(11)
H13 H 0.0652 0.6716 0.5782
C19 C 0.2614(4) 0.6062(3) 0.58517(12)
H14 H 0.2854 0.6574 0.6120
C20 C 0.3556(4) 0.5252(3) 0.56651(12)
H15 H 0.4442 0.5204 0.5805
C21 C 0.3214(3) 0.4483(3) 0.52631(11)
C22 C 0.4154(3) 0.3626(3) 0.50554(11)
H16 H 0.5042 0.3543 0.5192
C23 C 0.3793(3) 0.2921(3) 0.46619(11)
H17 H 0.4429 0.2343 0.4532
C24 C 0.5777(3) 0.2299(3) 0.33089(11)
C25 C 0.5551(3) 0.3523(3) 0.31607(12)
H18 H 0.5128 0.3696 0.2857
C26 C 0.5957(4) 0.4481(3) 0.34658(13)
H19 H 0.5807 0.5316 0.3367
C27 C 0.6578(3) 0.4252(3) 0.39127(12)
C28 C 0.6843(4) 0.3016(3) 0.40435(12)
H20 H 0.7300 0.2841 0.4341
C29 C 0.6443(3) 0.2046(3) 0.37427(12)
H21 H 0.6626 0.1211 0.3834
C30 C 0.6918(4) 0.5287(3) 0.42594(14)
H22 H 0.6891 0.6082 0.4086
H23 H 0.7834 0.5156 0.4394
H24 H 0.6249 0.5299 0.4525
C31 C 0.0852(3) 0.4451(3) 0.30537(11)
C32 C 0.0003(4) 0.4950(3) 0.34141(12)
H25 H -0.0426 0.4406 0.3640
C33 C -0.0229(4) 0.6214(3) 0.34510(11)
H26 H -0.0805 0.6535 0.3700
C34 C 0.0386(3) 0.7001(3) 0.31225(11)
C35 C 0.1214(3) 0.6553(3) 0.27564(11)
H27 H 0.1619 0.7106 0.2528
C36 C 0.1447(3) 0.5286(3) 0.27255(12)
H28 H 0.2026 0.4977 0.2476
loop_
_geom_bond_atom_site_label_1
_geom_bond_atom_site_label_2
_geom_bond_site_symmetry_1
_geom_bond_site_symmetry_2
Cl1 C34 1_555 1_555
S1 O3 1_555 1_555
O1 C1 1_555 1_555
O2 C9 1_555 1_555
O4 S1 1_555 1_555
N1 S1 1_555 1_555
C1 C2 1_555 1_555
C2 H1 1_555 1_555
C3 C2 1_555 1_555
H2 C3 1_555 1_555
C4 C3 1_555 1_555
H3 C4 1_555 1_555
C5 C4 1_555 1_555
H4 C5 1_555 1_555
C6 C1 1_555 1_555
C7 N1 1_555 1_555
C8 O1 1_555 1_555
C9 C8 1_555 1_555
H5 C9 1_555 1_555
C10 O2 1_555 1_555
H6 C10 1_555 1_555
H7 C10 1_555 1_555
C11 C10 1_555 1_555
C12 C11 1_555 1_555
H8 C12 1_555 1_555
C13 N1 1_555 1_555
H9 C13 1_555 1_555
H10 C13 1_555 1_555
C14 C9 1_555 1_555
C15 C14 1_555 1_555
H11 C15 1_555 1_555
C16 C15 1_555 1_555
C17 C16 1_555 1_555
H12 C17 1_555 1_555
C18 C17 1_555 1_555
H13 C18 1_555 1_555
C19 C18 1_555 1_555
H14 C19 1_555 1_555
C20 C19 1_555 1_555
H15 C20 1_555 1_555
C21 C16 1_555 1_555
C22 C21 1_555 1_555
H16 C22 1_555 1_555
C23 C14 1_555 1_555
H17 C23 1_555 1_555
C24 S1 1_555 1_555
C25 C24 1_555 1_555
H18 C25 1_555 1_555
C26 C25 1_555 1_555
H19 C26 1_555 1_555
C27 C26 1_555 1_555
C28 C27 1_555 1_555
H20 C28 1_555 1_555
C29 C24 1_555 1_555
H21 C29 1_555 1_555
C30 C27 1_555 1_555
H22 C30 1_555 1_555
H23 C30 1_555 1_555
H24 C30 1_555 1_555
C31 C11 1_555 1_555
C32 C31 1_555 1_555
H25 C32 1_555 1_555
C33 C32 1_555 1_555
H26 C33 1_555 1_555
C34 C33 1_555 1_555
C35 C34 1_555 1_555
H27 C35 1_555 1_555
C36 C31 1_555 1_555
H28 C36 1_555 1_555
C5 C6 1_555 1_555
C6 C7 1_555 1_555
C7 C8 1_555 1_555
C12 C13 1_555 1_555
C20 C21 1_555 1_555
C22 C23 1_555 1_555
C28 C29 1_555 1_555
C35 C36 1_555 1_555

#END
