
#######################################################################
#
#                 Cambridge Crystallographic Data Centre
#                                CCDC 
#
#######################################################################
#
# If this CIF has been generated from an entry in the Cambridge 
# Structural Database, then it will include bibliographic, chemical, 
# crystal, experimental, refinement or atomic coordinate data resulting 
# from the CCDC's data processing and validation procedures.
#
#######################################################################

data_NELPIG
_chemical_formula_moiety         'C18 H17 N1 O5 S1'
_chemical_name_systematic        
'2-methyl-9a-phenyl-8a,9a,10,11a-tetrahydro-8H-benzo[5,6][1,2,3]oxathiazino[4,3-b]oxireno[2,3-e][1,3]oxazepine 6,6-dioxide'
_symmetry_cell_setting           triclinic
_symmetry_space_group_name_H-M   'P -1'
_symmetry_Int_Tables_number      2
_space_group_name_Hall           '-P 1'
loop_
_symmetry_equiv_pos_site_id
_symmetry_equiv_pos_as_xyz
1 x,y,z
2 -x,-y,-z
_cell_length_a                   6.1967(2)
_cell_length_b                   11.1950(3)
_cell_length_c                   12.7835(3)
_cell_angle_alpha                110.691(2)
_cell_angle_beta                 92.738(2)
_cell_angle_gamma                93.838(2)
_cell_volume                     825.33
_exptl_crystal_colour            colorless
_exptl_crystal_description       block
_chemical_melting_point          '153-155 deg.C'
_cell_formula_units_Z            2
loop_
_atom_site_label
_atom_site_type_symbol
_atom_site_fract_x
_atom_site_fract_y
_atom_site_fract_z
S1 S 0.16670(8) 0.31694(5) 0.77657(4)
O1 O 0.0404(2) 0.35603(15) 0.69980(13)
O2 O 0.0871(3) 0.20726(14) 0.79916(13)
O3 O 0.1950(2) 0.43162(13) 0.89347(12)
O4 O 0.4686(2) 0.43791(12) 0.63205(10)
O5 O 0.4746(2) 0.10373(13) 0.45737(11)
N1 N 0.4191(3) 0.30474(15) 0.74686(13)
C1 C 0.3316(3) 0.54246(18) 0.90240(16)
C2 C 0.4939(3) 0.53782(18) 0.83081(15)
C3 C 0.5303(3) 0.41811(18) 0.73322(15)
H1 H 0.686262 0.408189 0.734519
C4 C 0.5356(3) 0.34240(18) 0.53291(15)
H2 H 0.675525 0.316955 0.550255
H3 H 0.552699 0.379391 0.475356
C5 C 0.3729(3) 0.22388(17) 0.48768(15)
C6 C 0.3512(3) 0.14009(18) 0.55429(15)
H4 H 0.209181 0.091924 0.544969
C7 C 0.4708(3) 0.17739(18) 0.66919(16)
H5 H 0.432298 0.112960 0.701272
H6 H 0.625751 0.179283 0.661191
C8 C 0.1844(3) 0.22506(18) 0.41063(15)
C9 C 0.1104(3) 0.34054(19) 0.41114(16)
H7 H 0.182833 0.417898 0.457822
C10 C -0.0704(3) 0.3409(2) 0.34260(17)
H8 H -0.117062 0.418246 0.342841
C11 C -0.1813(4) 0.2260(2) 0.27384(17)
H9 H -0.303197 0.226156 0.228527
C12 C -0.1097(4) 0.1111(2) 0.27298(17)
H10 H -0.184145 0.034049 0.226947
C13 C 0.0721(4) 0.10974(19) 0.34010(16)
H11 H 0.119504 0.031999 0.338273
C14 C 0.2993(4) 0.6531(2) 0.99089(17)
H12 H 0.187225 0.654181 1.036952
C15 C 0.4377(4) 0.7623(2) 1.00930(16)
H13 H 0.417707 0.837019 1.068598
C16 C 0.6066(3) 0.7625(2) 0.94078(16)
C17 C 0.6302(3) 0.64927(19) 0.85181(16)
H14 H 0.740751 0.648068 0.804833
C18 C 0.7594(4) 0.8805(2) 0.9618(2)
H15 H 0.694898 0.954661 1.008387
H16 H 0.787448 0.889488 0.891618
H17 H 0.893221 0.872488 0.998780
loop_
_geom_bond_atom_site_label_1
_geom_bond_atom_site_label_2
_geom_bond_site_symmetry_1
_geom_bond_site_symmetry_2
S1 O1 1_555 1_555
O2 S1 1_555 1_555
O3 S1 1_555 1_555
O4 C3 1_555 1_555
O5 C5 1_555 1_555
N1 S1 1_555 1_555
C1 O3 1_555 1_555
C2 C1 1_555 1_555
C3 N1 1_555 1_555
H1 C3 1_555 1_555
C4 O4 1_555 1_555
H2 C4 1_555 1_555
H3 C4 1_555 1_555
C5 C4 1_555 1_555
C6 O5 1_555 1_555
H4 C6 1_555 1_555
C7 N1 1_555 1_555
H5 C7 1_555 1_555
H6 C7 1_555 1_555
C8 C5 1_555 1_555
C9 C8 1_555 1_555
H7 C9 1_555 1_555
C10 C9 1_555 1_555
H8 C10 1_555 1_555
C11 C10 1_555 1_555
H9 C11 1_555 1_555
C12 C11 1_555 1_555
H10 C12 1_555 1_555
C13 C8 1_555 1_555
H11 C13 1_555 1_555
C14 C1 1_555 1_555
H12 C14 1_555 1_555
C15 C14 1_555 1_555
H13 C15 1_555 1_555
C16 C15 1_555 1_555
C17 C2 1_555 1_555
H14 C17 1_555 1_555
C18 C16 1_555 1_555
H15 C18 1_555 1_555
H16 C18 1_555 1_555
H17 C18 1_555 1_555
C2 C3 1_555 1_555
C5 C6 1_555 1_555
C6 C7 1_555 1_555
C12 C13 1_555 1_555
C16 C17 1_555 1_555

#END
