
#######################################################################
#
#                 Cambridge Crystallographic Data Centre
#                                CCDC 
#
#######################################################################
#
# If this CIF has been generated from an entry in the Cambridge 
# Structural Database, then it will include bibliographic, chemical, 
# crystal, experimental, refinement or atomic coordinate data resulting 
# from the CCDC's data processing and validation procedures.
#
#######################################################################

data_NELPAY
_chemical_formula_moiety         'C18 H17 N1 O4 S1'
_chemical_name_systematic        
'11-methyl-3-phenyl-5,12b-dihydro-2H-benzo[5,6][1,2,3]oxathiazino[4,3-b][1,3]oxazepine 7,7-dioxide'
_symmetry_cell_setting           monoclinic
_symmetry_space_group_name_H-M   'C c'
_symmetry_Int_Tables_number      9
_space_group_name_Hall           'C -2yc'
loop_
_symmetry_equiv_pos_site_id
_symmetry_equiv_pos_as_xyz
1 x,y,z
2 x,-y,1/2+z
3 1/2+x,1/2+y,z
4 1/2+x,1/2-y,1/2+z
_cell_length_a                   13.726(3)
_cell_length_b                   15.964(3)
_cell_length_c                   7.7194(15)
_cell_angle_alpha                90
_cell_angle_beta                 111.03(3)
_cell_angle_gamma                90
_cell_volume                     1578.82
_exptl_crystal_colour            colorless
_exptl_crystal_description       block
_chemical_melting_point          '135-137 deg.C'
_cell_formula_units_Z            4
loop_
_atom_site_label
_atom_site_type_symbol
_atom_site_fract_x
_atom_site_fract_y
_atom_site_fract_z
S1 S 0.59119(5) 0.26287(4) 0.96748(8)
O1 O 0.71075(15) 0.28440(13) 1.0062(3)
O2 O 0.56419(17) 0.29584(15) 1.1155(3)
O3 O 0.58189(17) 0.17600(13) 0.9266(3)
O4 O 0.50642(14) 0.45463(12) 0.6626(2)
N1 N 0.53059(17) 0.31797(14) 0.7829(3)
C1 C 0.7338(2) 0.37105(18) 1.0122(4)
C2 C 0.8376(2) 0.3923(2) 1.1081(4)
H1 H 0.886946 0.351118 1.162755
C3 C 0.8658(2) 0.4755(2) 1.1206(4)
H2 H 0.934805 0.490159 1.186592
C4 C 0.7937(2) 0.5382(2) 1.0370(4)
C5 C 0.6911(2) 0.51516(19) 0.9381(4)
H3 H 0.642580 0.556344 0.879331
C6 C 0.6591(2) 0.43156(18) 0.9249(4)
C7 C 0.8244(3) 0.6295(2) 1.0573(5)
H4 H 0.832618 0.648311 1.179909
H5 H 0.771082 0.661986 0.967403
H6 H 0.889177 0.636388 1.037606
C8 C 0.5451(2) 0.40952(16) 0.8282(4)
H7 H 0.506154 0.424825 0.907929
C9 C 0.3996(2) 0.43595(17) 0.5524(4)
H8 H 0.364924 0.486574 0.491418
H9 H 0.363858 0.416003 0.632382
C10 C 0.3934(2) 0.37003(17) 0.4079(4)
C11 C 0.4638(2) 0.30906(17) 0.4397(4)
H10 H 0.455697 0.271763 0.342931
C12 C 0.5551(2) 0.29451(18) 0.6165(4)
H11 H 0.574705 0.235847 0.624678
H12 H 0.614167 0.327256 0.614125
C13 C 0.3064(2) 0.37819(15) 0.2257(4)
C14 C 0.2127(2) 0.41708(17) 0.2119(4)
H13 H 0.204256 0.438143 0.317940
C15 C 0.1318(2) 0.42458(19) 0.0404(4)
H14 H 0.069889 0.450754 0.032917
C16 C 0.1429(2) 0.39338(19) -0.1188(4)
H15 H 0.088540 0.397880 -0.232771
C17 C 0.2358(2) 0.35542(19) -0.1067(4)
H16 H 0.244055 0.334854 -0.213314
C18 C 0.3165(2) 0.34784(18) 0.0631(4)
H17 H 0.378392 0.322135 0.069079
loop_
_geom_bond_atom_site_label_1
_geom_bond_atom_site_label_2
_geom_bond_site_symmetry_1
_geom_bond_site_symmetry_2
S1 O1 1_555 1_555
O1 C1 1_555 1_555
O2 S1 1_555 1_555
O3 S1 1_555 1_555
O4 C8 1_555 1_555
N1 S1 1_555 1_555
C1 C2 1_555 1_555
C2 H1 1_555 1_555
C3 C2 1_555 1_555
H2 C3 1_555 1_555
C4 C3 1_555 1_555
C5 C4 1_555 1_555
H3 C5 1_555 1_555
C6 C1 1_555 1_555
C7 C4 1_555 1_555
H4 C7 1_555 1_555
H5 C7 1_555 1_555
H6 C7 1_555 1_555
C8 N1 1_555 1_555
H7 C8 1_555 1_555
C9 O4 1_555 1_555
H8 C9 1_555 1_555
H9 C9 1_555 1_555
C10 C9 1_555 1_555
C11 C10 1_555 1_555
H10 C11 1_555 1_555
C12 N1 1_555 1_555
H11 C12 1_555 1_555
H12 C12 1_555 1_555
C13 C10 1_555 1_555
C14 C13 1_555 1_555
H13 C14 1_555 1_555
C15 C14 1_555 1_555
H14 C15 1_555 1_555
C16 C15 1_555 1_555
H15 C16 1_555 1_555
C17 C16 1_555 1_555
H16 C17 1_555 1_555
C18 C13 1_555 1_555
H17 C18 1_555 1_555
C5 C6 1_555 1_555
C6 C8 1_555 1_555
C11 C12 1_555 1_555
C17 C18 1_555 1_555

#END
