
#######################################################################
#
#                 Cambridge Crystallographic Data Centre
#                                CCDC 
#
#######################################################################
#
# If this CIF has been generated from an entry in the Cambridge 
# Structural Database, then it will include bibliographic, chemical, 
# crystal, experimental, refinement or atomic coordinate data resulting 
# from the CCDC's data processing and validation procedures.
#
#######################################################################

data_NELREB
_chemical_compound_source        'Rabdosia var lophanthoides Hara'
_chemical_name_common            
Octahydro-5'-hydroxy-7a-methyl-8'-methylenespiro(isobenzofuran-4(1H),4'(3'H)-(1H-7,9a)methanocyclohepta(c)pyran)-1',3,9'(3aH,4'aH)-trione
_chemical_formula_moiety         'C20 H24 O6'
_chemical_name_systematic        Ludongnin
_symmetry_cell_setting           monoclinic
_symmetry_space_group_name_H-M   'P 21'
_symmetry_Int_Tables_number      4
_space_group_name_Hall           'P 2yb'
loop_
_symmetry_equiv_pos_site_id
_symmetry_equiv_pos_as_xyz
1 x,y,z
2 -x,1/2+y,-z
_cell_length_a                   7.2397(13)
_cell_length_b                   36.724(8)
_cell_length_c                   7.304(2)
_cell_angle_alpha                90
_cell_angle_beta                 115.69(2)
_cell_angle_gamma                90
_cell_volume                     1749.97
_exptl_crystal_colour            colorless
_exptl_crystal_description       prism
_chemical_melting_point          538-540K
_cell_formula_units_Z            4
_exptl_crystal_recrystallization_method aqueous/chloroform/methanol
loop_
_atom_site_label
_atom_site_type_symbol
_atom_site_fract_x
_atom_site_fract_y
_atom_site_fract_z
O1 O 0.3281(4) 0.21845(8) 0.3993(4)
H1 H 0.3138 0.2270 0.2902
O2 O 0.6199(4) 0.25371(7) 1.1879(3)
O3 O 0.1614(4) 0.24262(8) 0.9923(4)
O4 O 0.0682(3) 0.26942(7) 0.7008(4)
O5 O 0.3429(5) 0.38238(7) 0.8393(5)
O6 O 0.0656(4) 0.35278(8) 0.6352(5)
C1 C 0.3685(5) 0.30797(10) 0.4311(5)
H2 H 0.3496 0.2888 0.3333
H3 H 0.2632 0.3262 0.3653
C2 C 0.5779(6) 0.32529(10) 0.4931(5)
H4 H 0.6835 0.3070 0.5546
H5 H 0.5878 0.3346 0.3734
C3 C 0.6129(6) 0.35612(10) 0.6426(6)
H6 H 0.5105 0.3749 0.5790
H7 H 0.7467 0.3668 0.6781
C4 C 0.6011(5) 0.34284(9) 0.8365(5)
C5 C 0.4000(5) 0.32149(9) 0.7821(5)
H8 H 0.4122 0.3093 0.9061
C6 C 0.2460(7) 0.35231(10) 0.7390(7)
C7 C 0.2028(5) 0.24993(10) 0.8529(5)
C8 C 0.3906(5) 0.23568(9) 0.8393(4)
C9 C 0.4739(5) 0.25749(9) 0.7041(4)
H9 H 0.6088 0.2666 0.7991
C10 C 0.3422(5) 0.29189(9) 0.6134(5)
C11 C 0.5155(6) 0.23190(9) 0.5589(5)
H10 H 0.5906 0.2455 0.4972
C12 C 0.6456(6) 0.19966(10) 0.6745(5)
H11 H 0.7875 0.2074 0.7439
H12 H 0.6374 0.1808 0.5781
C13 C 0.5798(5) 0.18343(9) 0.8314(5)
H13 H 0.5937 0.1569 0.8375
C14 C 0.3601(5) 0.19488(9) 0.7802(5)
H14 H 0.3053 0.1815 0.8602
H15 H 0.2707 0.1916 0.6369
C15 C 0.5757(5) 0.23262(9) 1.0485(5)
C16 C 0.6929(5) 0.20013(10) 1.0379(5)
C17 C 0.8627(6) 0.18976(12) 1.1911(7)
H16 H 0.9138 0.2029 1.3119
H17 H 0.9321 0.1693 1.1790
C18 C 0.8024(6) 0.32473(11) 0.9816(6)
H18 H 0.9047 0.3431 1.0455
H19 H 0.8477 0.3084 0.9066
H20 H 0.7809 0.3113 1.0836
C19 C 0.5605(7) 0.37542(11) 0.9432(7)
H21 H 0.6004 0.3699 1.0853
H22 H 0.6373 0.3965 0.9347
C20 C 0.1186(5) 0.27993(10) 0.5349(5)
H23 H 0.0298 0.2997 0.4590
H24 H 0.0939 0.2595 0.4433
O7 O -0.3955(3) 0.58886(7) 0.1686(4)
H25 H -0.5010 0.5770 0.1377
O8 O 0.3896(3) 0.54835(7) 0.4384(3)
O9 O 0.1919(4) 0.56283(8) -0.0129(4)
O10 O -0.1052(3) 0.53694(7) -0.1068(3)
O11 O 0.0239(5) 0.42278(7) 0.1509(4)
O12 O -0.1798(5) 0.45366(8) -0.1190(4)
C21 C -0.3756(5) 0.49813(10) 0.1919(5)
H26 H -0.4719 0.5176 0.1758
H27 H -0.4449 0.4803 0.0861
C22 C -0.3138(5) 0.48014(9) 0.3990(5)
H28 H -0.2480 0.4979 0.5059
H29 H -0.4350 0.4712 0.4092
C23 C -0.1683(5) 0.44896(9) 0.4252(5)
H30 H -0.2368 0.4310 0.3203
H31 H -0.1330 0.4375 0.5558
C24 C 0.0288(5) 0.46125(9) 0.4137(5)
C25 C -0.0268(5) 0.48378(9) 0.2165(5)
H32 H 0.0991 0.4958 0.2294
C26 C -0.0730(6) 0.45338(10) 0.0600(6)
C27 C 0.0517(5) 0.55599(9) 0.0281(5)
C28 C 0.0432(4) 0.56942(9) 0.2179(4)
C29 C -0.0943(4) 0.54763(8) 0.3002(5)
H33 H 0.0014 0.5378 0.4321
C30 C -0.1931(5) 0.51372(8) 0.1640(5)
C31 C -0.2352(5) 0.57350(9) 0.3464(5)
H34 H -0.2980 0.5598 0.4200
C32 C -0.1095(5) 0.60452(9) 0.4824(6)
H35 H -0.0376 0.5956 0.6205
H36 H -0.2021 0.6236 0.4825
C33 C 0.0478(5) 0.62090(9) 0.4159(5)
H37 H 0.0567 0.6474 0.4337
C34 C -0.0106(5) 0.61039(9) 0.1943(5)
H38 H 0.0700 0.6237 0.1396
H39 H -0.1552 0.6144 0.1088
C35 C 0.2536(5) 0.57060(9) 0.3983(5)
C36 C 0.2567(5) 0.60343(10) 0.5193(5)
C37 C 0.4243(6) 0.61465(11) 0.6755(6)
H40 H 0.5464 0.6019 0.7136
H41 H 0.4202 0.6353 0.7474
C38 C 0.1781(6) 0.47852(11) 0.6149(5)
H42 H 0.2360 0.4599 0.7160
H43 H 0.1060 0.4958 0.6587
H44 H 0.2857 0.4907 0.5958
C39 C 0.1308(6) 0.42868(11) 0.3676(6)
H45 H 0.2747 0.4336 0.4071
H46 H 0.1200 0.4074 0.4408
C40 C -0.2718(5) 0.52686(10) -0.0559(5)
H47 H -0.3524 0.5077 -0.1468
H48 H -0.3607 0.5477 -0.0760
loop_
_geom_bond_atom_site_label_1
_geom_bond_atom_site_label_2
_geom_bond_site_symmetry_1
_geom_bond_site_symmetry_2
O1 H1 1_555 1_555
O2 C15 1_555 1_555
O3 C7 1_555 1_555
O4 C7 1_555 1_555
O5 C6 1_555 1_555
O6 C6 1_555 1_555
C1 H2 1_555 1_555
H3 C1 1_555 1_555
C2 C1 1_555 1_555
H4 C2 1_555 1_555
H5 C2 1_555 1_555
C3 C2 1_555 1_555
H6 C3 1_555 1_555
H7 C3 1_555 1_555
C4 C3 1_555 1_555
C5 C4 1_555 1_555
H8 C5 1_555 1_555
C6 C5 1_555 1_555
C7 C8 1_555 1_555
C8 C9 1_555 1_555
C9 H9 1_555 1_555
C10 C1 1_555 1_555
C11 O1 1_555 1_555
H10 C11 1_555 1_555
C12 C11 1_555 1_555
H11 C12 1_555 1_555
H12 C12 1_555 1_555
C13 C12 1_555 1_555
H13 C13 1_555 1_555
C14 C8 1_555 1_555
H14 C14 1_555 1_555
H15 C14 1_555 1_555
C15 C8 1_555 1_555
C16 C13 1_555 1_555
C17 C16 1_555 1_555
H16 C17 1_555 1_555
H17 C17 1_555 1_555
C18 C4 1_555 1_555
H18 C18 1_555 1_555
H19 C18 1_555 1_555
H20 C18 1_555 1_555
C19 O5 1_555 1_555
H21 C19 1_555 1_555
H22 C19 1_555 1_555
C20 O4 1_555 1_555
H23 C20 1_555 1_555
H24 C20 1_555 1_555
O7 H25 1_555 1_555
O8 C35 1_555 1_555
O9 C27 1_555 1_555
O10 C27 1_555 1_555
O11 C26 1_555 1_555
O12 C26 1_555 1_555
C21 H26 1_555 1_555
H27 C21 1_555 1_555
C22 C21 1_555 1_555
H28 C22 1_555 1_555
H29 C22 1_555 1_555
C23 C22 1_555 1_555
H30 C23 1_555 1_555
H31 C23 1_555 1_555
C24 C23 1_555 1_555
C25 C24 1_555 1_555
H32 C25 1_555 1_555
C26 C25 1_555 1_555
C27 C28 1_555 1_555
C28 C29 1_555 1_555
C29 H33 1_555 1_555
C30 C21 1_555 1_555
C31 O7 1_555 1_555
H34 C31 1_555 1_555
C32 C31 1_555 1_555
H35 C32 1_555 1_555
H36 C32 1_555 1_555
C33 C32 1_555 1_555
H37 C33 1_555 1_555
C34 C28 1_555 1_555
H38 C34 1_555 1_555
H39 C34 1_555 1_555
C35 C28 1_555 1_555
C36 C33 1_555 1_555
C37 C36 1_555 1_555
H40 C37 1_555 1_555
H41 C37 1_555 1_555
C38 C24 1_555 1_555
H42 C38 1_555 1_555
H43 C38 1_555 1_555
H44 C38 1_555 1_555
C39 O11 1_555 1_555
H45 C39 1_555 1_555
H46 C39 1_555 1_555
C40 O10 1_555 1_555
H47 C40 1_555 1_555
H48 C40 1_555 1_555
C4 C19 1_555 1_555
C5 C10 1_555 1_555
C9 C11 1_555 1_555
C9 C10 1_555 1_555
C10 C20 1_555 1_555
C13 C14 1_555 1_555
C15 C16 1_555 1_555
C24 C39 1_555 1_555
C25 C30 1_555 1_555
C29 C31 1_555 1_555
C29 C30 1_555 1_555
C30 C40 1_555 1_555
C33 C34 1_555 1_555
C35 C36 1_555 1_555

#END
