
#######################################################################
#
#                 Cambridge Crystallographic Data Centre
#                                CCDC 
#
#######################################################################
#
# If this CIF has been generated from an entry in the Cambridge 
# Structural Database, then it will include bibliographic, chemical, 
# crystal, experimental, refinement or atomic coordinate data resulting 
# from the CCDC's data processing and validation procedures.
#
#######################################################################

data_NEMGAQ
_chemical_formula_moiety         'C58 H32 F12'
_chemical_name_systematic        
'9-{bis[4-(trifluoromethyl)phenyl]methylidene}-10-[10-{bis[4-(trifluoromethyl)phenyl]methylidene}anthracen-9(10H)-ylidene]-9,10-dihydroanthracene unknown solvate'
_symmetry_cell_setting           monoclinic
_symmetry_space_group_name_H-M   'P 21/c'
_symmetry_Int_Tables_number      14
_space_group_name_Hall           '-P 2ybc'
loop_
_symmetry_equiv_pos_site_id
_symmetry_equiv_pos_as_xyz
1 x,y,z
2 -x,1/2+y,1/2-z
3 -x,-y,-z
4 x,1/2-y,1/2+z
_cell_length_a                   13.8363(3)
_cell_length_b                   19.0251(4)
_cell_length_c                   10.7855(2)
_cell_angle_alpha                90
_cell_angle_beta                 97.886(2)
_cell_angle_gamma                90
_cell_volume                     2812.29
_exptl_crystal_colour            colorless
_exptl_crystal_description       prismatic
_cell_formula_units_Z            2
loop_
_atom_site_label
_atom_site_type_symbol
_atom_site_fract_x
_atom_site_fract_y
_atom_site_fract_z
C1 C 0.4749(2) 0.58585(17) 0.2285(3)
C2 C 0.4834(3) 0.64992(17) 0.2920(3)
H1 H 0.4534 0.6559 0.3654
C3 C 0.5350(3) 0.70464(18) 0.2488(3)
H2 H 0.5410 0.7479 0.2932
C4 C 0.5782(3) 0.69678(19) 0.1405(3)
H3 H 0.6135 0.7346 0.1107
C5 C 0.5697(3) 0.63343(18) 0.0761(3)
H4 H 0.5993 0.6278 0.0023
C6 C 0.5178(2) 0.57815(16) 0.1200(3)
C7 C 0.5111(2) 0.50626(16) 0.0613(3)
C8 C 0.5320(2) 0.45159(17) 0.1599(3)
C9 C 0.5980(2) 0.39626(18) 0.1495(3)
H5 H 0.6287 0.3918 0.0763
C10 C 0.6180(3) 0.34862(18) 0.2458(3)
H6 H 0.6621 0.3111 0.2382
C11 C 0.5746(3) 0.35496(17) 0.3534(3)
H7 H 0.5886 0.3217 0.4191
C12 C 0.5113(2) 0.40945(17) 0.3653(3)
H8 H 0.4818 0.4136 0.4395
C13 C 0.4897(2) 0.45886(16) 0.2695(3)
C14 C 0.4279(2) 0.52245(17) 0.2781(3)
C15 C 0.3414(2) 0.52455(17) 0.3225(3)
C16 C 0.3013(2) 0.46134(18) 0.3815(3)
C17 C 0.2509(3) 0.4097(2) 0.3081(3)
H9 H 0.2421 0.4141 0.2195
C18 C 0.2131(3) 0.3516(2) 0.3632(4)
H10 H 0.1780 0.3166 0.3127
C19 C 0.2270(3) 0.3452(2) 0.4920(4)
C20 C 0.2766(3) 0.3956(2) 0.5654(4)
H11 H 0.2857 0.3908 0.6539
C21 C 0.3135(3) 0.4535(2) 0.5108(3)
H12 H 0.3477 0.4884 0.5622
C22 C 0.1904(4) 0.2812(3) 0.5516(5)
C23 C 0.2764(2) 0.58663(18) 0.3107(3)
C24 C 0.2312(3) 0.61057(19) 0.4101(3)
H13 H 0.2410 0.5861 0.4876
C25 C 0.1720(3) 0.6697(2) 0.3975(3)
H14 H 0.1423 0.6858 0.4667
C26 C 0.1560(3) 0.70543(19) 0.2854(3)
C27 C 0.1972(3) 0.6813(2) 0.1851(3)
H15 H 0.1852 0.7054 0.1073
C28 C 0.2565(3) 0.6220(2) 0.1959(3)
H16 H 0.2837 0.6054 0.1252
C29 C 0.0952(3) 0.7707(2) 0.2750(4)
F1 F 0.2610(4) 0.2302(2) 0.5768(5)
F2 F 0.1216(9) 0.2453(6) 0.4803(11)
F3 F 0.1866(5) 0.2917(3) 0.6773(5)
F4 F 0.0018(5) 0.7522(4) 0.2194(10)
F5 F 0.0807(11) 0.7993(8) 0.1677(10)
F6 F 0.1505(8) 0.8249(4) 0.3526(10)
C1B C 0.5251(2) 0.41415(17) -0.2285(3)
C2B C 0.5166(3) 0.35008(17) -0.2920(3)
H1B H 0.5466 0.3441 -0.3654
C3B C 0.4650(3) 0.29536(18) -0.2488(3)
H2B H 0.4590 0.2521 -0.2932
C4B C 0.4218(3) 0.30322(19) -0.1405(3)
H3B H 0.3865 0.2654 -0.1107
C5B C 0.4303(3) 0.36657(18) -0.0761(3)
H4B H 0.4007 0.3722 -0.0023
C6B C 0.4822(2) 0.42185(16) -0.1200(3)
C7B C 0.4889(2) 0.49374(16) -0.0613(3)
C8B C 0.4680(2) 0.54841(17) -0.1599(3)
C9B C 0.4020(2) 0.60374(18) -0.1495(3)
H5B H 0.3713 0.6082 -0.0763
C10B C 0.3820(3) 0.65138(18) -0.2458(3)
H6B H 0.3379 0.6889 -0.2382
C11B C 0.4254(3) 0.64504(17) -0.3534(3)
H7B H 0.4114 0.6783 -0.4191
C12B C 0.4887(2) 0.59055(17) -0.3653(3)
H8B H 0.5182 0.5864 -0.4395
C13B C 0.5103(2) 0.54114(16) -0.2695(3)
C14B C 0.5721(2) 0.47755(17) -0.2781(3)
C15B C 0.6586(2) 0.47545(17) -0.3225(3)
C16B C 0.6987(2) 0.53866(18) -0.3815(3)
C17B C 0.7491(3) 0.5903(2) -0.3081(3)
H9B H 0.7579 0.5859 -0.2195
C18B C 0.7869(3) 0.6484(2) -0.3632(4)
H10B H 0.8220 0.6834 -0.3127
C19B C 0.7730(3) 0.6548(2) -0.4920(4)
C20B C 0.7234(3) 0.6044(2) -0.5654(4)
H11B H 0.7143 0.6092 -0.6539
C21B C 0.6865(3) 0.5465(2) -0.5108(3)
H12B H 0.6523 0.5116 -0.5622
C22B C 0.8096(4) 0.7188(3) -0.5516(5)
C23B C 0.7236(2) 0.41337(18) -0.3107(3)
C24B C 0.7688(3) 0.38943(19) -0.4101(3)
H13B H 0.7590 0.4139 -0.4876
C25B C 0.8280(3) 0.3303(2) -0.3975(3)
H14B H 0.8577 0.3142 -0.4667
C26B C 0.8440(3) 0.29457(19) -0.2854(3)
C27B C 0.8028(3) 0.3187(2) -0.1851(3)
H15B H 0.8148 0.2946 -0.1073
C28B C 0.7435(3) 0.3780(2) -0.1959(3)
H16B H 0.7163 0.3946 -0.1252
C29B C 0.9048(3) 0.2293(2) -0.2750(4)
F1B F 0.7390(4) 0.7698(2) -0.5768(5)
F2B F 0.8784(9) 0.7547(6) -0.4803(11)
F3B F 0.8134(5) 0.7083(3) -0.6773(5)
F4B F 0.9982(5) 0.2478(4) -0.2194(10)
F5B F 0.9193(11) 0.2007(8) -0.1677(10)
F6B F 0.8495(8) 0.1751(4) -0.3526(10)
F7? F 0.1999(18) 0.2266(8) 0.495(2)
F8? F 0.0917(9) 0.2791(7) 0.5224(13)
F9? F 0.1397(13) 0.2904(10) 0.6325(17)
F10? F 0.1276(8) 0.8177(6) 0.2098(11)
F11? F 0.0235(8) 0.7747(6) 0.3295(14)
F12? F 0.0797(8) 0.7960(5) 0.3793(6)
loop_
_geom_bond_atom_site_label_1
_geom_bond_atom_site_label_2
_geom_bond_site_symmetry_1
_geom_bond_site_symmetry_2
C1 C2 1_555 1_555
C2 H1 1_555 1_555
C3 C2 1_555 1_555
H2 C3 1_555 1_555
C4 C3 1_555 1_555
H3 C4 1_555 1_555
C5 C4 1_555 1_555
H4 C5 1_555 1_555
C6 C1 1_555 1_555
C7 C6 1_555 1_555
C8 C7 1_555 1_555
C9 C8 1_555 1_555
H5 C9 1_555 1_555
C10 C9 1_555 1_555
H6 C10 1_555 1_555
C11 C10 1_555 1_555
H7 C11 1_555 1_555
C12 C11 1_555 1_555
H8 C12 1_555 1_555
C13 C8 1_555 1_555
C14 C1 1_555 1_555
C15 C14 1_555 1_555
C16 C15 1_555 1_555
C17 C16 1_555 1_555
H9 C17 1_555 1_555
C18 C17 1_555 1_555
H10 C18 1_555 1_555
C19 C18 1_555 1_555
C20 C19 1_555 1_555
H11 C20 1_555 1_555
C21 C16 1_555 1_555
H12 C21 1_555 1_555
C22 C19 1_555 1_555
C23 C15 1_555 1_555
C24 C23 1_555 1_555
H13 C24 1_555 1_555
C25 C24 1_555 1_555
H14 C25 1_555 1_555
C26 C25 1_555 1_555
C27 C26 1_555 1_555
H15 C27 1_555 1_555
C28 C23 1_555 1_555
H16 C28 1_555 1_555
C29 C26 1_555 1_555
F1 C22 1_555 1_555
F2 C22 1_555 1_555
F3 C22 1_555 1_555
F4 C29 1_555 1_555
F5 C29 1_555 1_555
F6 C29 1_555 1_555
C1B C2B 1_555 1_555
C2B H1B 1_555 1_555
C3B C2B 1_555 1_555
H2B C3B 1_555 1_555
C4B C3B 1_555 1_555
H3B C4B 1_555 1_555
C5B C4B 1_555 1_555
H4B C5B 1_555 1_555
C6B C1B 1_555 1_555
C7B C7 1_555 1_555
C8B C7B 1_555 1_555
C9B C8B 1_555 1_555
H5B C9B 1_555 1_555
C10B C9B 1_555 1_555
H6B C10B 1_555 1_555
C11B C10B 1_555 1_555
H7B C11B 1_555 1_555
C12B C11B 1_555 1_555
H8B C12B 1_555 1_555
C13B C8B 1_555 1_555
C14B C1B 1_555 1_555
C15B C14B 1_555 1_555
C16B C15B 1_555 1_555
C17B C16B 1_555 1_555
H9B C17B 1_555 1_555
C18B C17B 1_555 1_555
H10B C18B 1_555 1_555
C19B C18B 1_555 1_555
C20B C19B 1_555 1_555
H11B C20B 1_555 1_555
C21B C16B 1_555 1_555
H12B C21B 1_555 1_555
C22B C19B 1_555 1_555
C23B C15B 1_555 1_555
C24B C23B 1_555 1_555
H13B C24B 1_555 1_555
C25B C24B 1_555 1_555
H14B C25B 1_555 1_555
C26B C25B 1_555 1_555
C27B C26B 1_555 1_555
H15B C27B 1_555 1_555
C28B C23B 1_555 1_555
H16B C28B 1_555 1_555
C29B C26B 1_555 1_555
F1B C22B 1_555 1_555
F2B C22B 1_555 1_555
F3B C22B 1_555 1_555
F4B C29B 1_555 1_555
F5B C29B 1_555 1_555
F6B C29B 1_555 1_555
C5 C6 1_555 1_555
C12 C13 1_555 1_555
C13 C14 1_555 1_555
C20 C21 1_555 1_555
C27 C28 1_555 1_555
C5B C6B 1_555 1_555
C6B C7B 1_555 1_555
C12B C13B 1_555 1_555
C13B C14B 1_555 1_555
C20B C21B 1_555 1_555
C27B C28B 1_555 1_555

#END
