
#######################################################################
#
#                 Cambridge Crystallographic Data Centre
#                                CCDC 
#
#######################################################################
#
# If this CIF has been generated from an entry in the Cambridge 
# Structural Database, then it will include bibliographic, chemical, 
# crystal, experimental, refinement or atomic coordinate data resulting 
# from the CCDC's data processing and validation procedures.
#
#######################################################################

data_NEMHIZ
_chemical_formula_moiety         'C23 H17 F3 O2 S1'
_chemical_name_systematic        
2-[6-(1-benzothiophen-2-yl)-4-(trifluoromethyl)-3,4-dihydro-2H-pyran-2-ylidene]-1-phenylpropan-1-one
_symmetry_cell_setting           orthorhombic
_symmetry_space_group_name_H-M   'P 21 21 21'
_symmetry_Int_Tables_number      19
_space_group_name_Hall           'P 2ac 2ab'
loop_
_symmetry_equiv_pos_site_id
_symmetry_equiv_pos_as_xyz
1 x,y,z
2 1/2-x,-y,1/2+z
3 -x,1/2+y,1/2-z
4 1/2+x,1/2-y,-z
_cell_length_a                   5.6737(8)
_cell_length_b                   8.5236(11)
_cell_length_c                   42.974(6)
_cell_angle_alpha                90
_cell_angle_beta                 90
_cell_angle_gamma                90
_cell_volume                     2078.24
_exptl_crystal_colour            colorless
_exptl_crystal_description       block
_cell_formula_units_Z            4
loop_
_atom_site_label
_atom_site_type_symbol
_atom_site_fract_x
_atom_site_fract_y
_atom_site_fract_z
S1 S 0.31011(17) 0.85084(11) 0.97248(2)
F1 F 0.2010(6) 0.4708(3) 0.83776(6)
F2 F 0.4529(5) 0.4874(3) 0.87468(7)
F3 F 0.1012(5) 0.4243(3) 0.88448(6)
O1 O -0.4789(7) 0.8347(4) 0.81568(6)
O2 O -0.1259(5) 0.9126(3) 0.90181(5)
C1 C 0.1952(6) 0.9588(3) 1.00272(7)
C2 C 0.2896(7) 0.9770(4) 1.03246(8)
H1 H 0.4302 0.9281 1.0379
C3 C 0.1707(8) 1.0686(5) 1.05355(8)
H2 H 0.2307 1.0808 1.0735
C4 C -0.0360(7) 1.1427(5) 1.04547(8)
H3 H -0.1124 1.2054 1.0600
C5 C -0.1309(6) 1.1259(4) 1.01647(7)
H4 H -0.2717 1.1757 1.0115
C6 C -0.0159(5) 1.0338(3) 0.99435(7)
C7 C -0.0797(6) 1.0041(4) 0.96253(6)
H5 H -0.2114 1.0461 0.9527
C8 C 0.0787(6) 0.9058(3) 0.94863(7)
C9 C 0.0646(6) 0.8457(4) 0.91674(7)
C10 C 0.2064(7) 0.7434(4) 0.90332(8)
H6 H 0.3337 0.7041 0.9145
C11 C 0.1682(7) 0.6884(4) 0.87044(8)
H7 H 0.2701 0.7496 0.8566
C12 C -0.0866(7) 0.7159(4) 0.86114(8)
H8 H -0.1018 0.7056 0.8388
H9 H -0.1856 0.6369 0.8708
C13 C -0.1681(7) 0.8750(4) 0.87085(7)
C14 C -0.2886(8) 0.9803(4) 0.85468(8)
C15 C -0.3565(8) 0.9470(5) 0.82185(8)
C16 C -0.2654(7) 1.0477(4) 0.79683(8)
C17 C -0.3779(9) 1.0452(4) 0.76836(8)
H10 H -0.5113 0.9835 0.7654
C18 C -0.2898(13) 1.1359(6) 0.74411(10)
H11 H -0.3652 1.1361 0.7249
C19 C -0.0940(14) 1.2241(7) 0.74856(13)
H12 H -0.0336 1.2822 0.7321
C20 C 0.0156(11) 1.2292(7) 0.77649(15)
H13 H 0.1463 1.2935 0.7793
C21 C -0.0666(8) 1.1389(5) 0.80081(10)
H14 H 0.0117 1.1395 0.8198
C22 C 0.2287(8) 0.5191(5) 0.86705(10)
C23 C -0.3711(10) 1.1341(5) 0.86805(10)
H15 H -0.3183 1.1430 0.8892
H16 H -0.5401 1.1383 0.8675
H17 H -0.3075 1.2189 0.8560
loop_
_geom_bond_atom_site_label_1
_geom_bond_atom_site_label_2
_geom_bond_site_symmetry_1
_geom_bond_site_symmetry_2
S1 C1 1_555 1_555
F1 C22 1_555 1_555
F2 C22 1_555 1_555
F3 C22 1_555 1_555
O1 C15 1_555 1_555
O2 C9 1_555 1_555
C1 C2 1_555 1_555
C2 H1 1_555 1_555
C3 C2 1_555 1_555
H2 C3 1_555 1_555
C4 C3 1_555 1_555
H3 C4 1_555 1_555
C5 C4 1_555 1_555
H4 C5 1_555 1_555
C6 C1 1_555 1_555
C7 C6 1_555 1_555
H5 C7 1_555 1_555
C8 S1 1_555 1_555
C9 C8 1_555 1_555
C10 C9 1_555 1_555
H6 C10 1_555 1_555
C11 C10 1_555 1_555
H7 C11 1_555 1_555
C12 C11 1_555 1_555
H8 C12 1_555 1_555
H9 C12 1_555 1_555
C13 O2 1_555 1_555
C14 C13 1_555 1_555
C15 C14 1_555 1_555
C16 C15 1_555 1_555
C17 C16 1_555 1_555
H10 C17 1_555 1_555
C18 C17 1_555 1_555
H11 C18 1_555 1_555
C19 C18 1_555 1_555
H12 C19 1_555 1_555
C20 C19 1_555 1_555
H13 C20 1_555 1_555
C21 C16 1_555 1_555
H14 C21 1_555 1_555
C22 C11 1_555 1_555
C23 C14 1_555 1_555
H15 C23 1_555 1_555
H16 C23 1_555 1_555
H17 C23 1_555 1_555
C5 C6 1_555 1_555
C7 C8 1_555 1_555
C12 C13 1_555 1_555
C20 C21 1_555 1_555

#END
