
#######################################################################
#
#                 Cambridge Crystallographic Data Centre
#                                CCDC 
#
#######################################################################
#
# If this CIF has been generated from an entry in the Cambridge 
# Structural Database, then it will include bibliographic, chemical, 
# crystal, experimental, refinement or atomic coordinate data resulting 
# from the CCDC's data processing and validation procedures.
#
#######################################################################

data_NEMJOH
_chemical_formula_moiety         'C39 H36 Si1'
_chemical_name_systematic        
(-)-(M)-[(15-ethynylhexahelicen-2-yl)ethynyl]tris(propan-2-yl)silane
_symmetry_cell_setting           monoclinic
_symmetry_space_group_name_H-M   'P 21'
_symmetry_Int_Tables_number      4
_space_group_name_Hall           'P 2yb'
loop_
_symmetry_equiv_pos_site_id
_symmetry_equiv_pos_as_xyz
1 x,y,z
2 -x,1/2+y,-z
_cell_length_a                   9.45440(10)
_cell_length_b                   13.6991(2)
_cell_length_c                   12.42610(10)
_cell_angle_alpha                90
_cell_angle_beta                 107.6450(10)
_cell_angle_gamma                90
_cell_volume                     1533.67
_exptl_crystal_colour            'light yellow'
_exptl_crystal_description       plate
_cell_formula_units_Z            2
_exptl_crystal_recrystallization_method 'Vapour deposition'
loop_
_atom_site_label
_atom_site_type_symbol
_atom_site_fract_x
_atom_site_fract_y
_atom_site_fract_z
Si1 Si 0.75095(8) 0.53371(6) 0.36169(6)
C1 C 0.6115(3) 0.4100(2) 0.7198(2)
H1 H 0.5340 0.4483 0.6762
C2 C 0.6056(3) 0.3753(2) 0.8248(2)
C3 C 0.7193(3) 0.3093(2) 0.8858(2)
C4 C 0.9408(3) 0.5850(2) 0.9902(2)
C5 C 0.8179(3) 0.6201(2) 0.8988(2)
C6 C 0.3809(3) 0.4780(2) 0.8302(2)
C7 C 0.5542(3) 0.6093(2) 0.7939(2)
C8 C 0.4867(3) 0.3996(2) 0.8721(2)
C9 C 0.7374(3) 0.4298(2) 0.5749(2)
C10 C 0.7297(3) 0.3888(2) 0.6794(2)
C11 C 0.2392(3) 0.4677(2) 0.8465(2)
C12 C 0.4079(3) 0.5660(2) 0.7754(2)
C13 C 0.7071(3) 0.2633(2) 0.9850(2)
H2 H 0.7847 0.2248 1.0280
C14 C 0.5723(3) 0.6882(2) 0.7252(2)
C15 C 0.3333(3) 0.3426(2) 0.9871(2)
H3 H 0.3235 0.3058 1.0474
C16 C 0.3074(3) 0.6985(2) 0.6405(2)
H4 H 0.2252 0.7295 0.5919
C17 C 0.2188(3) 0.3986(3) 0.9263(2)
H5 H 0.1259 0.3919 0.9366
C18 C 0.7159(3) 0.7274(2) 0.7411(2)
H6 H 0.7282 0.7772 0.6938
C19 C 0.4684(3) 0.3400(2) 0.9593(2)
C20 C 0.8365(3) 0.6940(2) 0.8241(2)
H7 H 0.9302 0.7193 0.8316
C21 C 0.4449(3) 0.7298(2) 0.6447(2)
H8 H 0.4563 0.7781 0.5954
C22 C 0.1393(3) 0.5961(3) 0.7109(2)
H9 H 0.0577 0.6280 0.6626
C23 C 0.8391(3) 0.2896(2) 0.8431(2)
H10 H 0.9154 0.2490 0.8838
C24 C 0.6785(3) 0.5803(2) 0.8829(2)
H11 H 0.6667 0.5327 0.9329
C25 C 0.1187(3) 0.5273(3) 0.7840(2)
H12 H 0.0254 0.5192 0.7931
C26 C 0.8454(3) 0.3286(2) 0.7438(3)
H13 H 0.9264 0.3155 0.7184
C27 C 1.0404(3) 0.5544(2) 1.0655(2)
H14 H 1.1186 0.5304 1.1246
C28 C 0.2848(3) 0.6196(2) 0.7082(2)
C29 C 0.5848(3) 0.2745(2) 1.0176(2)
H15 H 0.5757 0.2393 1.0791
C30 C 0.7485(3) 0.4655(2) 0.4890(2)
C31 C 0.5785(3) 0.4969(3) 0.2459(2)
H16 H 0.5954 0.4301 0.2243
C32 C 0.7616(4) 0.6667(2) 0.4037(3)
H17 H 0.8423 0.6720 0.4748
C33 C 0.4359(3) 0.4941(3) 0.2800(3)
H18 H 0.4538 0.4590 0.3497
H19 H 0.3591 0.4620 0.2220
H20 H 0.4055 0.5595 0.2896
C34 C 0.9223(3) 0.5001(3) 0.3214(3)
H21 H 0.9187 0.5384 0.2540
C35 C 0.6215(4) 0.7037(3) 0.4279(3)
H22 H 0.5420 0.7084 0.3584
H23 H 0.6403 0.7669 0.4627
H24 H 0.5943 0.6590 0.4778
C36 C 0.8018(4) 0.7355(3) 0.3197(3)
H25 H 0.8885 0.7113 0.3035
H26 H 0.8216 0.7996 0.3521
H27 H 0.7205 0.7386 0.2512
C37 C 0.9280(4) 0.3931(3) 0.2893(4)
H28 H 0.9327 0.3528 0.3535
H29 H 1.0143 0.3820 0.2656
H30 H 0.8405 0.3772 0.2287
C38 C 0.5562(5) 0.5599(3) 0.1402(3)
H31 H 0.5319 0.6254 0.1557
H32 H 0.4769 0.5334 0.0794
H33 H 0.6460 0.5604 0.1193
C39 C 1.0651(3) 0.5287(4) 0.4118(3)
H34 H 1.0651 0.5977 0.4250
H35 H 1.1487 0.5119 0.3869
H36 H 1.0715 0.4944 0.4805
loop_
_geom_bond_atom_site_label_1
_geom_bond_atom_site_label_2
_geom_bond_site_symmetry_1
_geom_bond_site_symmetry_2
Si1 C30 1_555 1_555
C1 H1 1_555 1_555
C2 C1 1_555 1_555
C3 C2 1_555 1_555
C4 C5 1_555 1_555
C5 C20 1_555 1_555
C6 C8 1_555 1_555
C7 C12 1_555 1_555
C8 C2 1_555 1_555
C9 C10 1_555 1_555
C10 C1 1_555 1_555
C11 C6 1_555 1_555
C12 C6 1_555 1_555
C13 C3 1_555 1_555
H2 C13 1_555 1_555
C14 C7 1_555 1_555
C15 H3 1_555 1_555
C16 H4 1_555 1_555
C17 C11 1_555 1_555
H5 C17 1_555 1_555
C18 C14 1_555 1_555
H6 C18 1_555 1_555
C19 C8 1_555 1_555
C20 C18 1_555 1_555
H7 C20 1_555 1_555
C21 C14 1_555 1_555
H8 C21 1_555 1_555
C22 H9 1_555 1_555
C23 C3 1_555 1_555
H10 C23 1_555 1_555
C24 C5 1_555 1_555
H11 C24 1_555 1_555
C25 C11 1_555 1_555
H12 C25 1_555 1_555
C26 C10 1_555 1_555
H13 C26 1_555 1_555
C27 C4 1_555 1_555
H14 C27 1_555 1_555
C28 C12 1_555 1_555
C29 C13 1_555 1_555
H15 C29 1_555 1_555
C30 C9 1_555 1_555
C31 Si1 1_555 1_555
H16 C31 1_555 1_555
C32 Si1 1_555 1_555
H17 C32 1_555 1_555
C33 C31 1_555 1_555
H18 C33 1_555 1_555
H19 C33 1_555 1_555
H20 C33 1_555 1_555
C34 Si1 1_555 1_555
H21 C34 1_555 1_555
C35 C32 1_555 1_555
H22 C35 1_555 1_555
H23 C35 1_555 1_555
H24 C35 1_555 1_555
C36 C32 1_555 1_555
H25 C36 1_555 1_555
H26 C36 1_555 1_555
H27 C36 1_555 1_555
C37 C34 1_555 1_555
H28 C37 1_555 1_555
H29 C37 1_555 1_555
H30 C37 1_555 1_555
C38 C31 1_555 1_555
H31 C38 1_555 1_555
H32 C38 1_555 1_555
H33 C38 1_555 1_555
C39 C34 1_555 1_555
H34 C39 1_555 1_555
H35 C39 1_555 1_555
H36 C39 1_555 1_555
C7 C24 1_555 1_555
C15 C17 1_555 1_555
C15 C19 1_555 1_555
C16 C21 1_555 1_555
C16 C28 1_555 1_555
C19 C29 1_555 1_555
C22 C25 1_555 1_555
C22 C28 1_555 1_555
C23 C26 1_555 1_555

#END
