
#######################################################################
#
#                 Cambridge Crystallographic Data Centre
#                                CCDC 
#
#######################################################################
#
# If this CIF has been generated from an entry in the Cambridge 
# Structural Database, then it will include bibliographic, chemical, 
# crystal, experimental, refinement or atomic coordinate data resulting 
# from the CCDC's data processing and validation procedures.
#
#######################################################################

data_NEMKEX
_chemical_formula_moiety         'C14 H13 F1 O4'
_chemical_name_systematic        
'Dimethyl 4-fluoro-6,6a-dihydrocyclopropa[a]indene-1,1(1aH)-dicarboxylate'
_symmetry_cell_setting           orthorhombic
_symmetry_space_group_name_H-M   'P 21 21 21'
_symmetry_Int_Tables_number      19
_space_group_name_Hall           'P 2ac 2ab'
loop_
_symmetry_equiv_pos_site_id
_symmetry_equiv_pos_as_xyz
1 x,y,z
2 1/2+x,1/2-y,-z
3 -x,1/2+y,1/2-z
4 1/2-x,-y,1/2+z
_cell_length_a                   7.8225(2)
_cell_length_b                   10.6924(2)
_cell_length_c                   15.1138(3)
_cell_angle_alpha                90
_cell_angle_beta                 90
_cell_angle_gamma                90
_cell_volume                     1264.14
_exptl_crystal_colour            colorless
_exptl_crystal_description       prism
_cell_formula_units_Z            4
loop_
_atom_site_label
_atom_site_type_symbol
_atom_site_fract_x
_atom_site_fract_y
_atom_site_fract_z
F1 F 1.00244(12) 1.11094(9) 0.40845(7)
O1 O 0.08399(13) 0.99392(9) 0.68957(7)
O2 O 0.18690(11) 0.79875(9) 0.67758(6)
O3 O 0.60681(12) 0.83423(9) 0.68506(6)
O4 O 0.47618(11) 0.79439(8) 0.55586(5)
C1 C 0.37042(16) 0.96210(11) 0.63975(8)
C2 C 0.42500(17) 1.09290(11) 0.66770(8)
H1 H 0.3483 1.1415 0.7079
C3 C 0.36875(16) 1.07157(12) 0.57310(8)
H2 H 0.2579 1.1067 0.5514
C4 C 0.52570(17) 1.08199(11) 0.51836(8)
C5 C 0.54406(19) 1.06921(12) 0.42701(8)
H3 H 0.4473 1.0531 0.3907
C6 C 0.7062(2) 1.08040(13) 0.38968(10)
H4 H 0.7220 1.0732 0.3276
C7 C 0.84290(19) 1.10214(12) 0.44499(10)
C8 C 0.82956(18) 1.11593(12) 0.53550(10)
H5 H 0.9271 1.1311 0.5714
C9 C 0.66742(17) 1.10668(11) 0.57163(9)
C10 C 0.61476(18) 1.12296(12) 0.66730(9)
H6 H 0.6354 1.2098 0.6874
H7 H 0.6785 1.0648 0.7061
C11 C 0.19798(16) 0.92310(12) 0.67190(8)
C12 C 0.02281(19) 0.74896(14) 0.70476(10)
H8 H 0.0040 0.7674 0.7675
H9 H 0.0215 0.6582 0.6957
H10 H -0.0681 0.7876 0.6695
C13 C 0.49903(16) 0.85870(11) 0.63074(7)
C14 C 0.5820(2) 0.68492(13) 0.54582(10)
H11 H 0.6991 0.7105 0.5317
H12 H 0.5370 0.6328 0.4978
H13 H 0.5817 0.6370 0.6011
loop_
_geom_bond_atom_site_label_1
_geom_bond_atom_site_label_2
_geom_bond_site_symmetry_1
_geom_bond_site_symmetry_2
F1 C7 1_555 1_555
O1 C11 1_555 1_555
O2 C11 1_555 1_555
O3 C13 1_555 1_555
O4 C13 1_555 1_555
C1 C2 1_555 1_555
C2 H1 1_555 1_555
C3 C1 1_555 1_555
H2 C3 1_555 1_555
C4 C3 1_555 1_555
C5 C4 1_555 1_555
H3 C5 1_555 1_555
C6 C5 1_555 1_555
H4 C6 1_555 1_555
C7 C6 1_555 1_555
C8 C7 1_555 1_555
H5 C8 1_555 1_555
C9 C4 1_555 1_555
C10 C2 1_555 1_555
H6 C10 1_555 1_555
H7 C10 1_555 1_555
C11 C1 1_555 1_555
C12 O2 1_555 1_555
H8 C12 1_555 1_555
H9 C12 1_555 1_555
H10 C12 1_555 1_555
C13 C1 1_555 1_555
C14 O4 1_555 1_555
H11 C14 1_555 1_555
H12 C14 1_555 1_555
H13 C14 1_555 1_555
C2 C3 1_555 1_555
C8 C9 1_555 1_555
C9 C10 1_555 1_555

#END
