
#######################################################################
#
#                 Cambridge Crystallographic Data Centre
#                                CCDC 
#
#######################################################################
#
# If this CIF has been generated from an entry in the Cambridge 
# Structural Database, then it will include bibliographic, chemical, 
# crystal, experimental, refinement or atomic coordinate data resulting 
# from the CCDC's data processing and validation procedures.
#
#######################################################################

data_NENDAO
_chemical_formula_moiety         'C60 H66 N3 P1'
_chemical_name_systematic        
"2,5,8,11,17,20-hexa-t-butyl-13,14,15-(buta[1,3]diene[1,1,4]triyl)-13b,13d,18d-triaza-13c-phosphafluoreno[1',9',8':4,5,6,7]indeno[7',1':8,9,10]heptaleno[3,2,1-jk]fluorene unknown solvate"
_symmetry_cell_setting           monoclinic
_symmetry_space_group_name_H-M   'P 21/c'
_symmetry_Int_Tables_number      14
_space_group_name_Hall           '-P 2ybc'
loop_
_symmetry_equiv_pos_site_id
_symmetry_equiv_pos_as_xyz
1 x,y,z
2 -x,1/2+y,1/2-z
3 -x,-y,-z
4 x,1/2-y,1/2+z
_cell_length_a                   12.425
_cell_length_b                   16.771
_cell_length_c                   26.999
_cell_angle_alpha                90
_cell_angle_beta                 95.95
_cell_angle_gamma                90
_cell_volume                     5595.73
_exptl_crystal_colour            colorless
_exptl_crystal_description       block
_cell_formula_units_Z            4
_exptl_crystal_recrystallization_method CH2Cl2/CH3CN
loop_
_atom_site_label
_atom_site_type_symbol
_atom_site_fract_x
_atom_site_fract_y
_atom_site_fract_z
P1 P 0.16795(6) 0.08820(4) 0.09996(3)
N1 N 0.26108(17) 0.12801(14) 0.14734(8)
N2 N 0.06006(18) 0.06272(15) 0.13358(9)
N3 N 0.11552(18) 0.17477(14) 0.07142(8)
C1 C -0.0791(2) 0.04309(17) 0.05659(10)
C2 C 0.0257(2) 0.16852(17) 0.03376(10)
C3 C 0.4789(2) 0.00200(18) 0.20574(11)
H1 H 0.5528 -0.0021 0.2033
C4 C -0.1973(2) -0.04049(19) 0.12573(12)
H2 H -0.2388 -0.0626 0.1490
C5 C 0.4171(2) 0.05760(17) 0.17725(10)
C6 C -0.1708(2) -0.00437(17) 0.04297(11)
H3 H -0.1944 -0.0076 0.0092
C7 C 0.3547(2) 0.16067(17) 0.12722(10)
C8 C 0.2219(2) 0.40417(17) 0.03382(12)
C9 C 0.0999(2) 0.29265(17) 0.02753(11)
C10 C 0.5498(2) 0.13958(17) 0.13098(10)
H4 H 0.6109 0.1105 0.1428
C11 C 0.5582(2) 0.20454(16) 0.09998(11)
C12 C -0.0548(2) 0.24846(18) -0.03614(11)
H5 H -0.0616 0.2972 -0.0526
C13 C -0.0483(2) 0.10601(17) 0.02212(10)
C14 C 0.2697(2) 0.27849(16) 0.07876(10)
C15 C 0.4482(2) 0.11866(17) 0.14404(10)
C16 C 0.2558(2) 0.02162(18) 0.21501(10)
C17 C 0.3061(2) 0.06614(17) 0.18049(10)
C18 C -0.3260(2) -0.0990(2) 0.05518(13)
C19 C 0.2909(2) 0.35727(17) 0.06528(10)
H6 H 0.3561 0.3797 0.0784
C20 C 0.1655(2) 0.24929(16) 0.06376(10)
C21 C -0.2293(2) -0.04691(18) 0.07534(12)
C22 C 0.3199(2) -0.03467(19) 0.24190(11)
H7 H 0.2871 -0.0663 0.2643
C23 C -0.0388(2) 0.03640(17) 0.10762(11)
C24 C -0.1015(2) -0.00022(18) 0.14098(11)
C25 C -0.1118(2) 0.11584(18) -0.02400(10)
H8 H -0.1548 0.0730 -0.0356
C26 C 0.0578(2) 0.03729(19) 0.18358(11)
C27 C 0.3610(2) 0.22862(16) 0.09798(10)
C28 C 0.4296(2) -0.04747(19) 0.23786(11)
C29 C 0.4637(2) 0.24613(17) 0.08425(11)
H9 H 0.4695 0.2890 0.0629
C30 C 0.6662(2) 0.23039(18) 0.08176(12)
C31 C 0.1260(2) 0.36936(18) 0.01278(12)
H10 H 0.0801 0.3969 -0.0107
C32 C -0.1160(2) 0.18377(19) -0.05369(11)
C33 C 0.0169(2) 0.23984(18) 0.00649(11)
C34 C -0.1865(3) 0.1871(2) -0.10391(11)
C35 C -0.0731(2) -0.0167(2) 0.23658(12)
H11 H -0.1423 -0.0356 0.2399
C36 C 0.2570(3) 0.48643(19) 0.01665(14)
C37 C 0.4923(3) -0.1103(2) 0.27023(14)
C38 C 0.1401(2) 0.02786(19) 0.22247(11)
C39 C 0.1082(2) 0.0077(2) 0.26965(11)
H12 H 0.1607 0.0073 0.2968
C40 C -0.0448(2) 0.00673(19) 0.18989(12)
C41 C 0.7619(3) 0.1867(2) 0.10907(15)
H13 H 0.8276 0.2046 0.0969
H14 H 0.7537 0.1304 0.1035
H15 H 0.7647 0.1976 0.1441
C42 C 0.0026(3) -0.0115(2) 0.27762(12)
C43 C 0.1630(3) 0.5428(2) 0.00706(15)
H16 H 0.1884 0.5934 -0.0036
H17 H 0.1289 0.5497 0.0371
H18 H 0.1117 0.5212 -0.0185
C44 C 0.4281(3) -0.1887(2) 0.26938(16)
H19 H 0.4691 -0.2279 0.2892
H20 H 0.4147 -0.2074 0.2357
H21 H 0.3605 -0.1797 0.2827
C45 C 0.6843(3) 0.3196(2) 0.09046(17)
H22 H 0.6246 0.3488 0.0738
H23 H 0.7501 0.3355 0.0775
H24 H 0.6894 0.3306 0.1255
C46 C -0.0243(3) -0.0295(3) 0.33101(14)
C47 C 0.6618(3) 0.2120(3) 0.02636(14)
H25 H 0.6018 0.2396 0.0088
H26 H 0.6531 0.1557 0.0212
H27 H 0.7278 0.2292 0.0141
C48 C 0.3432(4) 0.5244(3) 0.0529(2)
H28 H 0.4028 0.4882 0.0595
H29 H 0.3134 0.5365 0.0834
H30 H 0.3682 0.5727 0.0388
C49 C 0.6014(3) -0.1282(3) 0.2512(2)
H31 H 0.6386 -0.1684 0.2717
H32 H 0.6443 -0.0804 0.2525
H33 H 0.5900 -0.1469 0.2174
C50 C -0.2856(3) 0.1343(3) -0.10502(14)
H34 H -0.2636 0.0804 -0.0974
H35 H -0.3249 0.1362 -0.1376
H36 H -0.3312 0.1528 -0.0808
C51 C 0.5096(4) -0.0807(3) 0.32318(16)
H37 H 0.5492 -0.1198 0.3436
H38 H 0.4407 -0.0716 0.3354
H39 H 0.5498 -0.0317 0.3243
C52 C -0.2257(5) 0.2717(3) -0.1158(2)
H40 H -0.1645 0.3068 -0.1154
H41 H -0.2714 0.2889 -0.0913
H42 H -0.2658 0.2728 -0.1481
C53 C -0.1175(3) 0.1575(4) -0.14301(14)
H43 H -0.0542 0.1904 -0.1429
H44 H -0.1583 0.1600 -0.1752
H45 H -0.0961 0.1034 -0.1358
C54 C -0.4144(4) -0.0958(4) 0.08897(19)
H46 H -0.4384 -0.0417 0.0917
H47 H -0.3875 -0.1153 0.1213
H48 H -0.4739 -0.1284 0.0755
C55 C 0.3029(5) 0.4725(3) -0.0347(2)
H49 H 0.3636 0.4369 -0.0302
H50 H 0.3257 0.5226 -0.0474
H51 H 0.2476 0.4497 -0.0579
C56 C -0.3740(4) -0.0734(4) 0.00389(19)
H52 H -0.3190 -0.0748 -0.0186
H53 H -0.4018 -0.0201 0.0054
H54 H -0.4317 -0.1090 -0.0077
C57 C 0.0476(5) -0.0927(4) 0.35423(19)
H55 H 0.1217 -0.0775 0.3530
H56 H 0.0338 -0.1418 0.3364
H57 H 0.0338 -0.0998 0.3883
C58 C -0.2857(4) -0.1820(3) 0.0493(3)
H58 H -0.2295 -0.1817 0.0275
H59 H -0.3442 -0.2152 0.0355
H60 H -0.2575 -0.2025 0.0813
C59 C -0.1413(4) -0.0470(5) 0.33270(16)
H61 H -0.1838 -0.0050 0.3164
H62 H -0.1566 -0.0508 0.3668
H63 H -0.1590 -0.0966 0.3161
C60 C 0.0007(5) 0.0467(4) 0.36324(18)
H64 H -0.0441 0.0898 0.3498
H65 H 0.0754 0.0608 0.3629
H66 H -0.0141 0.0364 0.3969
loop_
_geom_bond_atom_site_label_1
_geom_bond_atom_site_label_2
_geom_bond_site_symmetry_1
_geom_bond_site_symmetry_2
P1 N1 1_555 1_555
N1 C7 1_555 1_555
N2 P1 1_555 1_555
N3 P1 1_555 1_555
C1 C6 1_555 1_555
C2 N3 1_555 1_555
C3 H1 1_555 1_555
C4 H2 1_555 1_555
C5 C3 1_555 1_555
C6 H3 1_555 1_555
C7 C15 1_555 1_555
C8 C19 1_555 1_555
C9 C20 1_555 1_555
C10 H4 1_555 1_555
C11 C10 1_555 1_555
C12 H5 1_555 1_555
C13 C1 1_555 1_555
C14 C19 1_555 1_555
C15 C5 1_555 1_555
C16 C17 1_555 1_555
C17 N1 1_555 1_555
C18 C21 1_555 1_555
C19 H6 1_555 1_555
C20 N3 1_555 1_555
C21 C4 1_555 1_555
C22 C16 1_555 1_555
H7 C22 1_555 1_555
C23 N2 1_555 1_555
C24 C4 1_555 1_555
C25 C13 1_555 1_555
H8 C25 1_555 1_555
C26 N2 1_555 1_555
C27 C7 1_555 1_555
C28 C3 1_555 1_555
C29 C11 1_555 1_555
H9 C29 1_555 1_555
C30 C11 1_555 1_555
C31 C8 1_555 1_555
H10 C31 1_555 1_555
C32 C12 1_555 1_555
C33 C2 1_555 1_555
C34 C32 1_555 1_555
C35 H11 1_555 1_555
C36 C8 1_555 1_555
C37 C28 1_555 1_555
C38 C16 1_555 1_555
C39 C38 1_555 1_555
H12 C39 1_555 1_555
C40 C24 1_555 1_555
C41 C30 1_555 1_555
H13 C41 1_555 1_555
H14 C41 1_555 1_555
H15 C41 1_555 1_555
C42 C35 1_555 1_555
C43 C36 1_555 1_555
H16 C43 1_555 1_555
H17 C43 1_555 1_555
H18 C43 1_555 1_555
C44 C37 1_555 1_555
H19 C44 1_555 1_555
H20 C44 1_555 1_555
H21 C44 1_555 1_555
C45 C30 1_555 1_555
H22 C45 1_555 1_555
H23 C45 1_555 1_555
H24 C45 1_555 1_555
C46 C42 1_555 1_555
C47 C30 1_555 1_555
H25 C47 1_555 1_555
H26 C47 1_555 1_555
H27 C47 1_555 1_555
C48 C36 1_555 1_555
H28 C48 1_555 1_555
H29 C48 1_555 1_555
H30 C48 1_555 1_555
C49 C37 1_555 1_555
H31 C49 1_555 1_555
H32 C49 1_555 1_555
H33 C49 1_555 1_555
C50 C34 1_555 1_555
H34 C50 1_555 1_555
H35 C50 1_555 1_555
H36 C50 1_555 1_555
C51 C37 1_555 1_555
H37 C51 1_555 1_555
H38 C51 1_555 1_555
H39 C51 1_555 1_555
C52 C34 1_555 1_555
H40 C52 1_555 1_555
H41 C52 1_555 1_555
H42 C52 1_555 1_555
C53 C34 1_555 1_555
H43 C53 1_555 1_555
H44 C53 1_555 1_555
H45 C53 1_555 1_555
C54 C18 1_555 1_555
H46 C54 1_555 1_555
H47 C54 1_555 1_555
H48 C54 1_555 1_555
C55 C36 1_555 1_555
H49 C55 1_555 1_555
H50 C55 1_555 1_555
H51 C55 1_555 1_555
C56 C18 1_555 1_555
H52 C56 1_555 1_555
H53 C56 1_555 1_555
H54 C56 1_555 1_555
C57 C46 1_555 1_555
H55 C57 1_555 1_555
H56 C57 1_555 1_555
H57 C57 1_555 1_555
C58 C18 1_555 1_555
H58 C58 1_555 1_555
H59 C58 1_555 1_555
H60 C58 1_555 1_555
C59 C46 1_555 1_555
H61 C59 1_555 1_555
H62 C59 1_555 1_555
H63 C59 1_555 1_555
C60 C46 1_555 1_555
H64 C60 1_555 1_555
H65 C60 1_555 1_555
H66 C60 1_555 1_555
C1 C23 1_555 1_555
C2 C13 1_555 1_555
C5 C17 1_555 1_555
C6 C21 1_555 1_555
C9 C31 1_555 1_555
C9 C33 1_555 1_555
C10 C15 1_555 1_555
C12 C33 1_555 1_555
C14 C20 1_555 1_555
C14 C27 1_555 1_555
C22 C28 1_555 1_555
C23 C24 1_555 1_555
C25 C32 1_555 1_555
C26 C38 1_555 1_555
C26 C40 1_555 1_555
C27 C29 1_555 1_555
C35 C40 1_555 1_555
C39 C42 1_555 1_555

#END
