
#######################################################################
#
#                 Cambridge Crystallographic Data Centre
#                                CCDC 
#
#######################################################################
#
# If this CIF has been generated from an entry in the Cambridge 
# Structural Database, then it will include bibliographic, chemical, 
# crystal, experimental, refinement or atomic coordinate data resulting 
# from the CCDC's data processing and validation procedures.
#
#######################################################################

data_NENLOI
_chemical_formula_moiety         'C23 H22 O2'
_chemical_name_systematic        
1-(4-t-Butylphenyl)-3-hydroxy-3-(2-naphthyl)prop-2-en-1-one
_symmetry_cell_setting           monoclinic
_symmetry_space_group_name_H-M   'C 2/c'
_symmetry_Int_Tables_number      15
_space_group_name_Hall           '-C 2yn'
loop_
_symmetry_equiv_pos_site_id
_symmetry_equiv_pos_as_xyz
1 x,y,z
2 1/2+x,1/2+y,z
3 -x,y,1/2-z
4 1/2-x,1/2+y,1/2-z
5 -x,-y,-z
6 1/2-x,1/2-y,-z
7 x,-y,1/2+z
8 1/2+x,1/2-y,1/2+z
_cell_length_a                   32.490(4)
_cell_length_b                   6.2231(8)
_cell_length_c                   22.533(3)
_cell_angle_alpha                90
_cell_angle_beta                 128.605(2)
_cell_angle_gamma                90
_cell_volume                     3560.29
_exptl_crystal_colour            colorless
_exptl_crystal_description       block
_chemical_melting_point          '340 K'
_cell_formula_units_Z            8
_exptl_crystal_recrystallization_method dichloromethane/ethanol
loop_
_atom_site_label
_atom_site_type_symbol
_atom_site_fract_x
_atom_site_fract_y
_atom_site_fract_z
C1 C 0.52312(7) 0.4576(3) 1.10587(10)
H1 H 0.5044 0.3595 1.0638
H2 H 0.5466 0.3787 1.1523
H3 H 0.5430 0.5559 1.0998
C2 C 0.51384(10) 0.7495(3) 1.17197(11)
H4 H 0.5337 0.8401 1.1637
H5 H 0.5374 0.6774 1.2199
H6 H 0.4894 0.8354 1.1723
C3 C 0.45729(8) 0.4263(4) 1.12740(11)
H7 H 0.4314 0.5008 1.1273
H8 H 0.4833 0.3649 1.1766
H9 H 0.4405 0.3140 1.0900
C4 C 0.48372(6) 0.5837(2) 1.10864(8)
C5 C 0.44385(5) 0.6886(2) 1.03080(8)
C6 C 0.45241(6) 0.8920(3) 1.01503(9)
H10 H 0.4822 0.9680 1.0535
C7 C 0.41851(7) 0.9846(3) 0.94476(10)
H11 H 0.4256 1.1218 0.9368
C8 C 0.37382(6) 0.8770(2) 0.88524(8)
C9 C 0.36475(6) 0.6735(2) 0.90011(9)
H12 H 0.3352 0.5970 0.8613
C10 C 0.39852(6) 0.5827(2) 0.97099(9)
H13 H 0.3909 0.4471 0.9793
C11 C 0.33878(6) 0.9834(2) 0.81039(9)
C12 C 0.29937(6) 0.8765(2) 0.74332(8)
H14 H 0.2915 0.7342 0.7453
C13 C 0.27165(6) 0.9808(2) 0.67346(9)
C14 C 0.23474(6) 0.8707(2) 0.59985(8)
C15 C 0.22066(6) 0.9705(2) 0.53512(9)
H15 H 0.2334 1.1078 0.5388
C16 C 0.18753(5) 0.8710(2) 0.46341(9)
C17 C 0.17393(6) 0.9710(3) 0.39697(9)
H16 H 0.1870 1.1071 0.4000
C18 C 0.14204(7) 0.8701(3) 0.32876(10)
H17 H 0.1334 0.9374 0.2854
C19 C 0.12221(7) 0.6662(3) 0.32332(11)
H18 H 0.1004 0.5990 0.2762
C20 C 0.13420(7) 0.5642(3) 0.38552(10)
H19 H 0.1205 0.4282 0.3807
C21 C 0.16757(6) 0.6639(2) 0.45815(9)
C22 C 0.18168(6) 0.5647(2) 0.52489(10)
H20 H 0.1684 0.4293 0.5219
C23 C 0.21432(6) 0.6635(3) 0.59342(9)
H21 H 0.2234 0.5941 0.6367
O1 O 0.34739(6) 1.18445(18) 0.80858(7)
H22 H 0.3119(10) 1.224(4) 0.7329(14)
O2 O 0.27924(5) 1.18291(17) 0.67066(7)
loop_
_geom_bond_atom_site_label_1
_geom_bond_atom_site_label_2
_geom_bond_site_symmetry_1
_geom_bond_site_symmetry_2
C1 H1 1_555 1_555
H2 C1 1_555 1_555
H3 C1 1_555 1_555
C2 H4 1_555 1_555
H5 C2 1_555 1_555
H6 C2 1_555 1_555
C3 H7 1_555 1_555
H8 C3 1_555 1_555
H9 C3 1_555 1_555
C4 C1 1_555 1_555
C5 C4 1_555 1_555
C6 C5 1_555 1_555
H10 C6 1_555 1_555
C7 C6 1_555 1_555
H11 C7 1_555 1_555
C8 C7 1_555 1_555
C9 C8 1_555 1_555
H12 C9 1_555 1_555
C10 C5 1_555 1_555
H13 C10 1_555 1_555
C11 C8 1_555 1_555
C12 C11 1_555 1_555
H14 C12 1_555 1_555
C13 C12 1_555 1_555
C14 C13 1_555 1_555
C15 C14 1_555 1_555
H15 C15 1_555 1_555
C16 C15 1_555 1_555
C17 C16 1_555 1_555
H16 C17 1_555 1_555
C18 C17 1_555 1_555
H17 C18 1_555 1_555
C19 C18 1_555 1_555
H18 C19 1_555 1_555
C20 C19 1_555 1_555
H19 C20 1_555 1_555
C21 C16 1_555 1_555
C22 C21 1_555 1_555
H20 C22 1_555 1_555
C23 C14 1_555 1_555
H21 C23 1_555 1_555
O1 C11 1_555 1_555
H22 O2 1_555 1_555
O2 C13 1_555 1_555
C2 C4 1_555 1_555
C3 C4 1_555 1_555
C9 C10 1_555 1_555
C20 C21 1_555 1_555
C22 C23 1_555 1_555

#END
