
#######################################################################
#
#                 Cambridge Crystallographic Data Centre
#                                CCDC 
#
#######################################################################
#
# If this CIF has been generated from an entry in the Cambridge 
# Structural Database, then it will include bibliographic, chemical, 
# crystal, experimental, refinement or atomic coordinate data resulting 
# from the CCDC's data processing and validation procedures.
#
#######################################################################

data_NEQFIA
_chemical_formula_moiety         'C26 H27 N3 O2'
_chemical_name_systematic        
1-(2-(Benzyloxy)-2-(4-(morpholin-4-yl)phenyl)ethyl)-1H-benzimidazole
_symmetry_cell_setting           triclinic
_symmetry_space_group_name_H-M   'P -1'
_symmetry_Int_Tables_number      2
_space_group_name_Hall           '-P 1'
loop_
_symmetry_equiv_pos_site_id
_symmetry_equiv_pos_as_xyz
1 x,y,z
2 -x,-y,-z
_cell_length_a                   9.4719(3)
_cell_length_b                   10.5057(3)
_cell_length_c                   11.8110(4)
_cell_angle_alpha                96.824(3)
_cell_angle_beta                 108.953(4)
_cell_angle_gamma                98.312(3)
_cell_volume                     1082.51
_exptl_crystal_colour            colorless
_exptl_crystal_description       prism
_cell_formula_units_Z            2
_exptl_crystal_recrystallization_method 'dimethyl sulfoxide/water'
loop_
_atom_site_label
_atom_site_type_symbol
_atom_site_fract_x
_atom_site_fract_y
_atom_site_fract_z
O1 O 0.28084(13) 0.57424(10) 0.27381(10)
O2 O -0.08746(15) -0.09871(11) -0.38295(11)
N1 N 0.18512(16) 0.52783(12) 0.47120(12)
N2 N 0.28757(19) 0.70971(13) 0.61301(13)
N3 N 0.03315(15) 0.10262(12) -0.17348(11)
C1 C 0.24066(19) 0.44368(15) 0.28999(14)
H1 H 0.3308 0.4185 0.3444
C2 C 0.12280(19) 0.44506(15) 0.35127(14)
H2 H 0.0368 0.4768 0.3008
H3 H 0.0864 0.3566 0.3593
C3 C 0.2357(2) 0.65983(15) 0.49714(15)
H4 H 0.2334 0.7103 0.4372
C4 C 0.20304(18) 0.48813(15) 0.58148(13)
C5 C 0.16909(19) 0.36691(15) 0.61283(14)
H5 H 0.1268 0.2914 0.5544
C6 C 0.2014(2) 0.36446(16) 0.73509(15)
H6 H 0.1793 0.2854 0.7596
C7 C 0.2668(2) 0.47816(17) 0.82337(15)
H7 H 0.2874 0.4726 0.9050
C8 C 0.3011(2) 0.59754(16) 0.79188(15)
H8 H 0.3452 0.6724 0.8509
C9 C 0.26797(19) 0.60318(15) 0.66909(15)
C10 C 0.4207(2) 0.59640(17) 0.25038(18)
H9 H 0.4128 0.5376 0.1778
H10 H 0.5034 0.5810 0.3182
C11 C 0.45016(18) 0.73490(16) 0.23337(15)
C12 C 0.5176(2) 0.83670(17) 0.33221(16)
H11 H 0.5461 0.8184 0.4108
C13 C 0.5426(2) 0.96468(17) 0.31489(16)
H12 H 0.5868 1.0319 0.3817
C14 C 0.5024(2) 0.99292(17) 0.19901(16)
H13 H 0.5206 1.0789 0.1874
C15 C 0.4350(2) 0.89280(18) 0.10032(16)
H14 H 0.4065 0.9114 0.0219
C16 C 0.4096(2) 0.76504(17) 0.11782(16)
H15 H 0.3645 0.6982 0.0507
C17 C 0.18236(19) 0.34981(15) 0.17011(14)
C18 C 0.0535(2) 0.36116(17) 0.07608(16)
H16 H -0.0005 0.4254 0.0888
C19 C 0.0033(2) 0.27977(17) -0.03558(15)
H17 H -0.0826 0.2910 -0.0968
C20 C 0.07978(18) 0.18079(14) -0.05807(13)
C21 C 0.2087(2) 0.16989(17) 0.03657(16)
H18 H 0.2625 0.1051 0.0250
C22 C 0.2586(2) 0.25367(17) 0.14774(15)
H19 H 0.3459 0.2444 0.2087
C23 C -0.1301(2) 0.06684(18) -0.24194(16)
H20 H -0.1756 0.1436 -0.2386
H21 H -0.1772 0.0031 -0.2055
C24 C -0.1588(2) 0.0102(2) -0.37283(17)
H22 H -0.2675 -0.0169 -0.4157
H23 H -0.1206 0.0772 -0.4112
C25 C 0.0716(2) -0.05690(18) -0.32175(16)
H24 H 0.1098 0.0112 -0.3590
H25 H 0.1220 -0.1297 -0.3305
C26 C 0.1096(2) -0.00560(17) -0.18839(15)
H26 H 0.0774 -0.0750 -0.1495
H27 H 0.2187 0.0238 -0.1497
loop_
_geom_bond_atom_site_label_1
_geom_bond_atom_site_label_2
_geom_bond_site_symmetry_1
_geom_bond_site_symmetry_2
O1 C1 1_555 1_555
O2 C24 1_555 1_555
N1 C2 1_555 1_555
N2 C3 1_555 1_555
N3 C20 1_555 1_555
C1 H1 1_555 1_555
C2 C1 1_555 1_555
H2 C2 1_555 1_555
H3 C2 1_555 1_555
C3 N1 1_555 1_555
H4 C3 1_555 1_555
C4 N1 1_555 1_555
C5 C4 1_555 1_555
H5 C5 1_555 1_555
C6 C5 1_555 1_555
H6 C6 1_555 1_555
C7 C6 1_555 1_555
H7 C7 1_555 1_555
C8 C7 1_555 1_555
H8 C8 1_555 1_555
C9 N2 1_555 1_555
C10 O1 1_555 1_555
H9 C10 1_555 1_555
H10 C10 1_555 1_555
C11 C10 1_555 1_555
C12 C11 1_555 1_555
H11 C12 1_555 1_555
C13 C12 1_555 1_555
H12 C13 1_555 1_555
C14 C13 1_555 1_555
H13 C14 1_555 1_555
C15 C14 1_555 1_555
H14 C15 1_555 1_555
C16 C11 1_555 1_555
H15 C16 1_555 1_555
C17 C1 1_555 1_555
C18 C17 1_555 1_555
H16 C18 1_555 1_555
C19 C18 1_555 1_555
H17 C19 1_555 1_555
C20 C19 1_555 1_555
C21 C20 1_555 1_555
H18 C21 1_555 1_555
C22 C17 1_555 1_555
H19 C22 1_555 1_555
C23 N3 1_555 1_555
H20 C23 1_555 1_555
H21 C23 1_555 1_555
C24 C23 1_555 1_555
H22 C24 1_555 1_555
H23 C24 1_555 1_555
C25 O2 1_555 1_555
H24 C25 1_555 1_555
H25 C25 1_555 1_555
C26 N3 1_555 1_555
H26 C26 1_555 1_555
H27 C26 1_555 1_555
C4 C9 1_555 1_555
C8 C9 1_555 1_555
C15 C16 1_555 1_555
C21 C22 1_555 1_555
C25 C26 1_555 1_555

#END
