
#######################################################################
#
#                 Cambridge Crystallographic Data Centre
#                                CCDC 
#
#######################################################################
#
# If this CIF has been generated from an entry in the Cambridge 
# Structural Database, then it will include bibliographic, chemical, 
# crystal, experimental, refinement or atomic coordinate data resulting 
# from the CCDC's data processing and validation procedures.
#
#######################################################################

data_NEQRIM
_chemical_formula_moiety         'C11 H10 O3'
_chemical_name_systematic        6-Phenyldihydro-2H-pyran-2,4(3H)-dione
_symmetry_cell_setting           orthorhombic
_symmetry_space_group_name_H-M   'P b c a'
_symmetry_Int_Tables_number      61
_space_group_name_Hall           '-P 2ac 2ab'
loop_
_symmetry_equiv_pos_site_id
_symmetry_equiv_pos_as_xyz
1 x,y,z
2 1/2-x,-y,1/2+z
3 1/2+x,1/2-y,-z
4 -x,1/2+y,1/2-z
5 -x,-y,-z
6 1/2+x,y,1/2-z
7 1/2-x,1/2+y,z
8 x,1/2-y,1/2+z
_cell_length_a                   16.9888(6)
_cell_length_b                   5.4501(2)
_cell_length_c                   19.7350(8)
_cell_angle_alpha                90
_cell_angle_beta                 90
_cell_angle_gamma                90
_cell_volume                     1827.28
_exptl_crystal_colour            colorless
_exptl_crystal_description       prism
_cell_formula_units_Z            8
loop_
_atom_site_label
_atom_site_type_symbol
_atom_site_fract_x
_atom_site_fract_y
_atom_site_fract_z
C1 C 0.15992(11) 0.2655(4) 0.22819(11)
C2 C 0.13487(12) 0.0646(4) 0.27556(11)
H1 H 0.1203 0.1376 0.3198
H2 H 0.1799 -0.0474 0.2833
C3 C 0.06630(12) -0.0808(4) 0.24883(12)
C4 C 0.06699(12) -0.1241(4) 0.17377(11)
H3 H 0.0222 -0.0357 0.1529
H4 H 0.0598 -0.3015 0.1649
C5 C 0.14301(12) -0.0391(4) 0.14093(11)
H5 H 0.1869 -0.1489 0.1557
C6 C 0.13875(12) -0.0384(4) 0.06490(11)
C7 C 0.17318(12) -0.2284(4) 0.02863(12)
H6 H 0.2002 -0.3554 0.052
C8 C 0.16830(13) -0.2336(4) -0.04141(12)
H7 H 0.1921 -0.364 -0.0659
C9 C 0.12897(13) -0.0501(4) -0.07580(12)
H8 H 0.1257 -0.0542 -0.1238
C10 C 0.09416(13) 0.1406(4) -0.03986(12)
H9 H 0.0672 0.2673 -0.0634
C11 C 0.09869(12) 0.1464(4) 0.03021(11)
H10 H 0.0745 0.2763 0.0546
O1 O 0.17979(9) 0.4702(3) 0.24675(8)
O2 O 0.01417(8) -0.1540(3) 0.28609(8)
O3 O 0.16073(8) 0.2144(3) 0.16170(7)
loop_
_geom_bond_atom_site_label_1
_geom_bond_atom_site_label_2
_geom_bond_site_symmetry_1
_geom_bond_site_symmetry_2
C1 C2 1_555 1_555
C2 H1 1_555 1_555
H2 C2 1_555 1_555
C3 C2 1_555 1_555
C4 C3 1_555 1_555
H3 C4 1_555 1_555
H4 C4 1_555 1_555
C5 C4 1_555 1_555
H5 C5 1_555 1_555
C6 C5 1_555 1_555
C7 C6 1_555 1_555
H6 C7 1_555 1_555
C8 C7 1_555 1_555
H7 C8 1_555 1_555
C9 C8 1_555 1_555
H8 C9 1_555 1_555
C10 C9 1_555 1_555
H9 C10 1_555 1_555
C11 C6 1_555 1_555
H10 C11 1_555 1_555
O1 C1 1_555 1_555
O2 C3 1_555 1_555
O3 C1 1_555 1_555
C5 O3 1_555 1_555
C10 C11 1_555 1_555

#END
