
#######################################################################
#
#                 Cambridge Crystallographic Data Centre
#                                CCDC 
#
#######################################################################
#
# If this CIF has been generated from an entry in the Cambridge 
# Structural Database, then it will include bibliographic, chemical, 
# crystal, experimental, refinement or atomic coordinate data resulting 
# from the CCDC's data processing and validation procedures.
#
#######################################################################

data_NEQTEK
_chemical_formula_moiety         'C18 H12 O2'
_chemical_name_systematic        1-Methoxy-11H-benzo[b]fluoren-11-one
_symmetry_cell_setting           monoclinic
_symmetry_space_group_name_H-M   'P 21/c'
_symmetry_Int_Tables_number      14
_space_group_name_Hall           '-P 2ybc'
loop_
_symmetry_equiv_pos_site_id
_symmetry_equiv_pos_as_xyz
1 x,y,z
2 -x,1/2+y,1/2-z
3 -x,-y,-z
4 x,1/2-y,1/2+z
_cell_length_a                   7.7202(3)
_cell_length_b                   9.2462(4)
_cell_length_c                   18.0294(8)
_cell_angle_alpha                90
_cell_angle_beta                 99.935(2)
_cell_angle_gamma                90
_cell_volume                     1267.68
_exptl_crystal_colour            yellow
_exptl_crystal_description       parallelepiped
_cell_formula_units_Z            4
loop_
_atom_site_label
_atom_site_type_symbol
_atom_site_fract_x
_atom_site_fract_y
_atom_site_fract_z
O1 O 1.2838(3) 0.3051(3) 0.92283(15)
O2 O 1.3420(3) 0.0972(3) 1.04942(14)
C1 C 1.0841(4) 0.2264(3) 1.00540(17)
C2 C 1.1419(4) 0.3058(4) 0.94252(18)
C3 C 0.9836(4) 0.3911(3) 0.90635(17)
C4 C 0.9640(4) 0.4820(4) 0.84656(18)
H1 H 1.0571 0.4978 0.8209
C5 C 0.8006(4) 0.5531(3) 0.82323(17)
C6 C 0.7726(5) 0.6517(4) 0.7623(2)
H2 H 0.8634 0.6712 0.7360
C7 C 0.6147(6) 0.7183(4) 0.7419(2)
H3 H 0.5990 0.7835 0.7020
C8 C 0.4773(6) 0.6901(4) 0.7796(2)
H4 H 0.3696 0.7359 0.7646
C9 C 0.4978(5) 0.5959(4) 0.8385(2)
H5 H 0.4038 0.5780 0.8633
C10 C 0.6602(4) 0.5249(3) 0.86266(19)
C11 C 0.6857(4) 0.4280(3) 0.92502(19)
H6 H 0.5937 0.4089 0.9508
C12 C 0.8438(4) 0.3637(3) 0.94670(17)
C13 C 0.9079(4) 0.2608(3) 1.00807(17)
C14 C 0.8220(4) 0.2001(4) 1.0611(2)
H7 H 0.7052 0.2224 1.0625
C15 C 0.9155(5) 0.1040(4) 1.1126(2)
H8 H 0.8600 0.0626 1.1493
C16 C 1.0877(5) 0.0687(4) 1.1106(2)
H9 H 1.1465 0.0040 1.1458
C17 C 1.1749(4) 0.1289(4) 1.05646(18)
C18 C 1.4337(5) -0.0107(4) 1.0985(2)
H10 H 1.4545 0.0248 1.1493
H11 H 1.5440 -0.0321 1.0832
H12 H 1.3638 -0.0971 1.0958
loop_
_geom_bond_atom_site_label_1
_geom_bond_atom_site_label_2
_geom_bond_site_symmetry_1
_geom_bond_site_symmetry_2
O1 C2 1_555 1_555
O2 C17 1_555 1_555
C1 C2 1_555 1_555
C2 C3 1_555 1_555
C3 C4 1_555 1_555
C4 H1 1_555 1_555
C5 C4 1_555 1_555
C6 C5 1_555 1_555
H2 C6 1_555 1_555
C7 C6 1_555 1_555
H3 C7 1_555 1_555
C8 C7 1_555 1_555
H4 C8 1_555 1_555
C9 C8 1_555 1_555
H5 C9 1_555 1_555
C10 C5 1_555 1_555
C11 C10 1_555 1_555
H6 C11 1_555 1_555
C12 C3 1_555 1_555
C13 C1 1_555 1_555
C14 C13 1_555 1_555
H7 C14 1_555 1_555
C15 C14 1_555 1_555
H8 C15 1_555 1_555
C16 C15 1_555 1_555
H9 C16 1_555 1_555
C17 C1 1_555 1_555
C18 O2 1_555 1_555
H10 C18 1_555 1_555
H11 C18 1_555 1_555
H12 C18 1_555 1_555
C9 C10 1_555 1_555
C11 C12 1_555 1_555
C12 C13 1_555 1_555
C16 C17 1_555 1_555

#END
