
#######################################################################
#
#                 Cambridge Crystallographic Data Centre
#                                CCDC 
#
#######################################################################
#
# If this CIF has been generated from an entry in the Cambridge 
# Structural Database, then it will include bibliographic, chemical, 
# crystal, experimental, refinement or atomic coordinate data resulting 
# from the CCDC's data processing and validation procedures.
#
#######################################################################

data_NERFAU
_chemical_name_common            
"1,1'-Dibenzyl-3,3'-bis(2-methylnaphthalen-1-yl)-[6,6'-biindolylidene]-2,2'(1H,1'H)-dione diradicaloid"
_chemical_formula_moiety         'C52 H38 N2 O2'
_chemical_name_systematic        
'1-benzyl-6-[1-benzyl-3-(2-methylnaphthalen-1-yl)-2-oxo-1,2-dihydro-6H-indol-6-ylidene]-3-(2-methylnaphthalen-1-yl)-1,6-dihydro-2H-indol-2-one diradicaloid'
_symmetry_cell_setting           tetragonal
_symmetry_space_group_name_H-M   'I 41/a'
_symmetry_Int_Tables_number      88
_space_group_name_Hall           '-I 4ad'
loop_
_symmetry_equiv_pos_site_id
_symmetry_equiv_pos_as_xyz
1 x,y,z
2 3/4-y,1/4+x,1/4+z
3 1/2-x,-y,1/2+z
4 3/4+y,3/4-x,3/4+z
5 1/2+x,1/2+y,1/2+z
6 1/4-y,3/4+x,3/4+z
7 -x,1/2-y,z
8 1/4+y,1/4-x,1/4+z
9 -x,-y,-z
10 1/4+y,3/4-x,3/4-z
11 1/2+x,y,1/2-z
12 1/4-y,1/4+x,1/4-z
13 1/2-x,1/2-y,1/2-z
14 3/4+y,1/4-x,1/4-z
15 x,1/2+y,-z
16 3/4-y,3/4+x,3/4-z
_cell_length_a                   22.8998(8)
_cell_length_b                   22.8998(8)
_cell_length_c                   20.4540(8)
_cell_angle_alpha                90
_cell_angle_beta                 90
_cell_angle_gamma                90
_cell_volume                     10726.1
_exptl_crystal_colour            black
_exptl_crystal_description       'prism fragment'
_cell_formula_units_Z            8
loop_
_atom_site_label
_atom_site_type_symbol
_atom_site_fract_x
_atom_site_fract_y
_atom_site_fract_z
O1 O -0.23876(8) -0.39010(10) -0.11653(11)
N1 N -0.17078(9) -0.43098(9) -0.04676(11)
C1 C -0.19087(11) -0.41297(12) -0.10736(14)
C2 C -0.14427(12) -0.42587(12) -0.15507(14)
C3 C -0.09926(11) -0.45021(11) -0.12095(14)
C4 C -0.04255(12) -0.47110(13) -0.13918(14)
H1 H -0.0312 -0.4715 -0.1839
C5 C -0.00543(12) -0.49014(13) -0.09296(14)
H2 H 0.0320 -0.5038 -0.1060
C6 C -0.02021(11) -0.49075(12) -0.02344(13)
C7 C -0.07775(10) -0.47169(11) -0.00564(13)
H3 H -0.0899 -0.4724 0.0388
C8 C -0.11443(11) -0.45276(11) -0.05280(14)
C9 C -0.20072(12) -0.42069(12) 0.01465(14)
H4 H -0.1962 -0.4555 0.0428
H5 H -0.2429 -0.4154 0.0059
C10 C -0.17819(14) -0.36783(13) 0.05092(16)
C11 C -0.1597(2) -0.37104(16) 0.11502(18)
H6 H -0.1609 -0.4076 0.1370
C12 C -0.1396(3) -0.32240(18) 0.1479(2)
H7 H -0.1271 -0.3255 0.1921
C13 C -0.1376(2) -0.26944(18) 0.1164(2)
H8 H -0.1236 -0.2358 0.1386
C14 C -0.1555(2) -0.26530(17) 0.0541(2)
H9 H -0.1555 -0.2284 0.0329
C15 C -0.17415(19) -0.31472(16) 0.0200(2)
H10 H -0.1841 -0.3116 -0.0249
C16 C -0.14595(11) -0.40983(13) -0.22512(15)
C17 C -0.12772(12) -0.35267(14) -0.24332(15)
C18 C -0.10744(15) -0.31121(15) -0.19717(18)
H11 H -0.1074 -0.3215 -0.1522
C19 C -0.0883(2) -0.25768(18) -0.2145(3)
H12 H -0.0749 -0.2311 -0.1821
C20 C -0.0882(2) -0.2416(2) -0.2803(3)
H13 H -0.0742 -0.2042 -0.2929
C21 C -0.10825(19) -0.2796(2) -0.3264(2)
H14 H -0.1092 -0.2673 -0.3708
C22 C -0.12768(13) -0.33672(16) -0.31067(17)
C23 C -0.14542(16) -0.37803(18) -0.35632(17)
H15 H -0.1461 -0.3677 -0.4013
C24 C -0.16184(17) -0.43284(18) -0.33834(19)
H16 H -0.1728 -0.4601 -0.3711
C25 C -0.16295(13) -0.45013(15) -0.27202(16)
C26 C -0.18138(18) -0.51048(15) -0.2551(2)
H17 H -0.2054 -0.5096 -0.2155
H18 H -0.1467 -0.5347 -0.2475
H19 H -0.2042 -0.5269 -0.2912
O1H O 0.23876(8) -0.60990(10) 0.11653(11)
N1H N 0.17078(9) -0.56902(9) 0.04676(11)
C1H C 0.19087(11) -0.58703(12) 0.10736(14)
C2H C 0.14427(12) -0.57413(12) 0.15507(14)
C3H C 0.09926(11) -0.54979(11) 0.12095(14)
C4H C 0.04255(12) -0.52890(13) 0.13918(14)
H1H H 0.0312 -0.5285 0.1839
C5H C 0.00543(12) -0.50986(13) 0.09296(14)
H2H H -0.0320 -0.4962 0.1060
C6H C 0.02021(11) -0.50925(12) 0.02344(13)
C7H C 0.07775(10) -0.52831(11) 0.00564(13)
H3H H 0.0899 -0.5276 -0.0388
C8H C 0.11443(11) -0.54724(11) 0.05280(14)
C9H C 0.20072(12) -0.57931(12) -0.01465(14)
H4H H 0.1962 -0.5445 -0.0428
H5H H 0.2429 -0.5846 -0.0059
C10H C 0.17819(14) -0.63217(13) -0.05092(16)
C11H C 0.1597(2) -0.62896(16) -0.11502(18)
H6H H 0.1609 -0.5924 -0.1370
C12H C 0.1396(3) -0.67760(18) -0.1479(2)
H7H H 0.1271 -0.6745 -0.1921
C13H C 0.1376(2) -0.73056(18) -0.1164(2)
H8H H 0.1236 -0.7642 -0.1386
C14H C 0.1555(2) -0.73470(17) -0.0541(2)
H9H H 0.1555 -0.7716 -0.0329
C15H C 0.17415(19) -0.68528(16) -0.0200(2)
H10H H 0.1841 -0.6884 0.0249
C16H C 0.14595(11) -0.59017(13) 0.22512(15)
C17H C 0.12772(12) -0.64733(14) 0.24332(15)
C18H C 0.10744(15) -0.68879(15) 0.19717(18)
H11H H 0.1074 -0.6785 0.1522
C19H C 0.0883(2) -0.74232(18) 0.2145(3)
H12H H 0.0749 -0.7689 0.1821
C20H C 0.0882(2) -0.7584(2) 0.2803(3)
H13H H 0.0742 -0.7958 0.2929
C21H C 0.10825(19) -0.7204(2) 0.3264(2)
H14H H 0.1092 -0.7327 0.3708
C22H C 0.12768(13) -0.66328(16) 0.31067(17)
C23H C 0.14542(16) -0.62197(18) 0.35632(17)
H15H H 0.1461 -0.6323 0.4013
C24H C 0.16184(17) -0.56716(18) 0.33834(19)
H16H H 0.1728 -0.5399 0.3711
C25H C 0.16295(13) -0.54987(15) 0.27202(16)
C26H C 0.18138(18) -0.48952(15) 0.2551(2)
H17H H 0.2054 -0.4904 0.2155
H18H H 0.1467 -0.4653 0.2475
H19H H 0.2042 -0.4731 0.2912
loop_
_geom_bond_atom_site_label_1
_geom_bond_atom_site_label_2
_geom_bond_site_symmetry_1
_geom_bond_site_symmetry_2
O1 C1 1_555 1_555
N1 C1 1_555 1_555
C1 C2 1_555 1_555
C2 C3 1_555 1_555
C3 C4 1_555 1_555
C4 H1 1_555 1_555
C5 C4 1_555 1_555
H2 C5 1_555 1_555
C6 C5 1_555 1_555
C7 C6 1_555 1_555
H3 C7 1_555 1_555
C8 N1 1_555 1_555
C9 N1 1_555 1_555
H4 C9 1_555 1_555
H5 C9 1_555 1_555
C10 C9 1_555 1_555
C11 C10 1_555 1_555
H6 C11 1_555 1_555
C12 C11 1_555 1_555
H7 C12 1_555 1_555
C13 C12 1_555 1_555
H8 C13 1_555 1_555
C14 C13 1_555 1_555
H9 C14 1_555 1_555
C15 C10 1_555 1_555
H10 C15 1_555 1_555
C16 C2 1_555 1_555
C17 C16 1_555 1_555
C18 C17 1_555 1_555
H11 C18 1_555 1_555
C19 C18 1_555 1_555
H12 C19 1_555 1_555
C20 C19 1_555 1_555
H13 C20 1_555 1_555
C21 C20 1_555 1_555
H14 C21 1_555 1_555
C22 C17 1_555 1_555
C23 C22 1_555 1_555
H15 C23 1_555 1_555
C24 C23 1_555 1_555
H16 C24 1_555 1_555
C25 C16 1_555 1_555
C26 C25 1_555 1_555
H17 C26 1_555 1_555
H18 C26 1_555 1_555
H19 C26 1_555 1_555
O1H C1H 1_555 1_555
N1H C1H 1_555 1_555
C1H C2H 1_555 1_555
C2H C3H 1_555 1_555
C3H C4H 1_555 1_555
C4H H1H 1_555 1_555
C5H C4H 1_555 1_555
H2H C5H 1_555 1_555
C6H C6 1_555 1_555
C7H C6H 1_555 1_555
H3H C7H 1_555 1_555
C8H N1H 1_555 1_555
C9H N1H 1_555 1_555
H4H C9H 1_555 1_555
H5H C9H 1_555 1_555
C10H C9H 1_555 1_555
C11H C10H 1_555 1_555
H6H C11H 1_555 1_555
C12H C11H 1_555 1_555
H7H C12H 1_555 1_555
C13H C12H 1_555 1_555
H8H C13H 1_555 1_555
C14H C13H 1_555 1_555
H9H C14H 1_555 1_555
C15H C10H 1_555 1_555
H10H C15H 1_555 1_555
C16H C2H 1_555 1_555
C17H C16H 1_555 1_555
C18H C17H 1_555 1_555
H11H C18H 1_555 1_555
C19H C18H 1_555 1_555
H12H C19H 1_555 1_555
C20H C19H 1_555 1_555
H13H C20H 1_555 1_555
C21H C20H 1_555 1_555
H14H C21H 1_555 1_555
C22H C17H 1_555 1_555
C23H C22H 1_555 1_555
H15H C23H 1_555 1_555
C24H C23H 1_555 1_555
H16H C24H 1_555 1_555
C25H C16H 1_555 1_555
C26H C25H 1_555 1_555
H17H C26H 1_555 1_555
H18H C26H 1_555 1_555
H19H C26H 1_555 1_555
C3 C8 1_555 1_555
C7 C8 1_555 1_555
C14 C15 1_555 1_555
C21 C22 1_555 1_555
C24 C25 1_555 1_555
C3H C8H 1_555 1_555
C5H C6H 1_555 1_555
C7H C8H 1_555 1_555
C14H C15H 1_555 1_555
C21H C22H 1_555 1_555
C24H C25H 1_555 1_555

#END
