
#######################################################################
#
#                 Cambridge Crystallographic Data Centre
#                                CCDC 
#
#######################################################################
#
# If this CIF has been generated from an entry in the Cambridge 
# Structural Database, then it will include bibliographic, chemical, 
# crystal, experimental, refinement or atomic coordinate data resulting 
# from the CCDC's data processing and validation procedures.
#
#######################################################################

data_NERPOQ
_chemical_formula_moiety         'C10 H24 N2 O2'
_chemical_name_systematic        
(R,S)-2,2'-(Ethane-1,2-diyldiamino)dibutan-1-ol
_symmetry_cell_setting           monoclinic
_symmetry_space_group_name_H-M   'P 21/n'
_symmetry_Int_Tables_number      14
_space_group_name_Hall           '-P 2yn'
loop_
_symmetry_equiv_pos_site_id
_symmetry_equiv_pos_as_xyz
1 x,y,z
2 1/2-x,1/2+y,1/2-z
3 -x,-y,-z
4 1/2+x,1/2-y,1/2+z
_cell_length_a                   4.6334(13)
_cell_length_b                   5.4777(14)
_cell_length_c                   23.161(2)
_cell_angle_alpha                90
_cell_angle_beta                 95.336(6)
_cell_angle_gamma                90
_cell_volume                     585.287
_exptl_crystal_colour            colorless
_exptl_crystal_description       block
_cell_formula_units_Z            2
_exptl_crystal_recrystallization_method methanol
loop_
_atom_site_label
_atom_site_type_symbol
_atom_site_fract_x
_atom_site_fract_y
_atom_site_fract_z
O1 O 0.7120(3) 0.4794(2) 0.06698(5)
N1 N 0.1924(3) 0.7782(3) 0.05198(6)
C1 C 0.1077(4) 1.0171(3) 0.02653(7)
H1 H 0.2817 1.1034 0.0153
H2 H 0.0190 1.1181 0.0556
C2 C 0.4039(3) 0.7978(3) 0.10352(7)
H3 H 0.5534 0.9226 0.0960
C3 C 0.2536(4) 0.8748(3) 0.15662(7)
H4 H 0.1376 0.7357 0.1690
H5 H 0.1179 1.0099 0.1454
C4 C 0.4613(4) 0.9575(4) 0.20809(8)
H6 H 0.3501 1.0022 0.2405
H7 H 0.5722 1.0992 0.1967
H8 H 0.5947 0.8241 0.2200
C5 C 0.5502(4) 0.5510(3) 0.11319(8)
H9 H 0.6813 0.5572 0.1494
H10 H 0.4004 0.4260 0.1183
H11 H 0.275(4) 0.688(4) 0.0254(9)
H12 H 0.857(5) 0.578(4) 0.0655(9)
O1B O -0.7120(3) 1.5206(2) -0.06698(5)
N1B N -0.1924(3) 1.2218(3) -0.05198(6)
C1B C -0.1077(4) 0.9829(3) -0.02653(7)
H1B H -0.2817 0.8966 -0.0153
H2B H -0.0190 0.8819 -0.0556
C2B C -0.4039(3) 1.2022(3) -0.10352(7)
H3B H -0.5534 1.0774 -0.0960
C3B C -0.2536(4) 1.1252(3) -0.15662(7)
H4B H -0.1376 1.2643 -0.1690
H5B H -0.1179 0.9901 -0.1454
C4B C -0.4613(4) 1.0425(4) -0.20809(8)
H6B H -0.3501 0.9978 -0.2405
H7B H -0.5722 0.9008 -0.1967
H8B H -0.5947 1.1759 -0.2200
C5B C -0.5502(4) 1.4490(3) -0.11319(8)
H9B H -0.6813 1.4428 -0.1494
H10B H -0.4004 1.5740 -0.1183
H11B H -0.275(4) 1.312(4) -0.0254(9)
H12B H -0.857(5) 1.422(4) -0.0655(9)
loop_
_geom_bond_atom_site_label_1
_geom_bond_atom_site_label_2
_geom_bond_site_symmetry_1
_geom_bond_site_symmetry_2
O1 C5 1_555 1_555
N1 C1 1_555 1_555
C1 H1 1_555 1_555
H2 C1 1_555 1_555
C2 N1 1_555 1_555
H3 C2 1_555 1_555
C3 C2 1_555 1_555
H4 C3 1_555 1_555
H5 C3 1_555 1_555
C4 C3 1_555 1_555
H6 C4 1_555 1_555
H7 C4 1_555 1_555
H8 C4 1_555 1_555
C5 C2 1_555 1_555
H9 C5 1_555 1_555
H10 C5 1_555 1_555
H11 N1 1_555 1_555
H12 O1 1_555 1_555
O1B C5B 1_555 1_555
N1B C1B 1_555 1_555
C1B C1 1_555 1_555
H1B C1B 1_555 1_555
H2B C1B 1_555 1_555
C2B N1B 1_555 1_555
H3B C2B 1_555 1_555
C3B C2B 1_555 1_555
H4B C3B 1_555 1_555
H5B C3B 1_555 1_555
C4B C3B 1_555 1_555
H6B C4B 1_555 1_555
H7B C4B 1_555 1_555
H8B C4B 1_555 1_555
C5B C2B 1_555 1_555
H9B C5B 1_555 1_555
H10B C5B 1_555 1_555
H11B N1B 1_555 1_555
H12B O1B 1_555 1_555

#END
