
#######################################################################
#
#                 Cambridge Crystallographic Data Centre
#                                CCDC 
#
#######################################################################
#
# If this CIF has been generated from an entry in the Cambridge 
# Structural Database, then it will include bibliographic, chemical, 
# crystal, experimental, refinement or atomic coordinate data resulting 
# from the CCDC's data processing and validation procedures.
#
#######################################################################

data_NESCUM
_chemical_formula_moiety         'C17 H18 O2 S1'
_chemical_name_systematic        
1-{2-hydroxy-4,6-dimethyl-3-[(4-methylphenyl)sulfanyl]phenyl}ethan-1-one
_symmetry_cell_setting           triclinic
_symmetry_space_group_name_H-M   'P -1'
_symmetry_Int_Tables_number      2
_space_group_name_Hall           '-P 1'
loop_
_symmetry_equiv_pos_site_id
_symmetry_equiv_pos_as_xyz
1 x,y,z
2 -x,-y,-z
_cell_length_a                   7.6936(13)
_cell_length_b                   7.8268(14)
_cell_length_c                   13.667(2)
_cell_angle_alpha                93.177(5)
_cell_angle_beta                 94.183(4)
_cell_angle_gamma                119.259(4)
_cell_volume                     712.134
_cell_formula_units_Z            2
loop_
_atom_site_label
_atom_site_type_symbol
_atom_site_fract_x
_atom_site_fract_y
_atom_site_fract_z
C1 C 0.0756(4) 0.2929(4) 1.04147(18)
H1 H 0.1536 0.2563 1.0844
H2 H -0.0270 0.1781 1.0012
H3 H 0.0147 0.3506 1.0803
C2 C 0.2101(3) 0.4404(3) 0.97622(16)
C3 C 0.1875(3) 0.3951(3) 0.87443(16)
H4 H 0.0882 0.2709 0.8464
C4 C 0.3093(3) 0.5304(3) 0.81373(15)
H5 H 0.2935 0.4957 0.7462
C5 C 0.4551(3) 0.7181(3) 0.85456(15)
C6 C 0.4807(3) 0.7659(3) 0.95646(15)
H6 H 0.5789 0.8905 0.9845
C7 C 0.3599(3) 0.6276(3) 1.01572(15)
H7 H 0.3793 0.6606 1.0836
C8 C 0.4581(3) 0.8497(3) 0.66980(15)
C9 C 0.2902(3) 0.8761(3) 0.66717(15)
C10 C 0.1709(3) 0.8319(3) 0.57726(15)
H8 H 0.0598 0.8498 0.5758
C11 C 0.2081(3) 0.7631(3) 0.49012(15)
C12 C 0.3799(3) 0.7384(3) 0.49110(14)
C13 C 0.5071(3) 0.7895(3) 0.58207(15)
C14 C 0.2366(4) 0.9530(4) 0.75695(17)
H9 H 0.1200 0.9646 0.7391
H10 H 0.3467 1.0799 0.7824
H11 H 0.2088 0.8635 0.8065
C15 C 0.0626(3) 0.7246(3) 0.40005(16)
H12 H -0.0172 0.5854 0.3816
H13 H 0.1359 0.7870 0.3466
H14 H -0.0232 0.7772 0.4148
C16 C 0.4369(3) 0.6636(3) 0.40395(15)
C17 C 0.3037(4) 0.5717(4) 0.30812(16)
H15 H 0.2990 0.6724 0.2729
H16 H 0.1709 0.4784 0.3213
H17 H 0.3562 0.5056 0.2690
O1 O 0.6030(2) 0.6710(2) 0.40856(11)
O2 O 0.6781(2) 0.7821(2) 0.58735(11)
H18 H 0.6921 0.7446 0.5328
S1 S 0.61868(8) 0.90050(9) 0.78143(4)
loop_
_geom_bond_atom_site_label_1
_geom_bond_atom_site_label_2
_geom_bond_site_symmetry_1
_geom_bond_site_symmetry_2
C1 H1 1_555 1_555
H2 C1 1_555 1_555
H3 C1 1_555 1_555
C2 C1 1_555 1_555
C3 C2 1_555 1_555
H4 C3 1_555 1_555
C4 C3 1_555 1_555
H5 C4 1_555 1_555
C5 C4 1_555 1_555
C6 C5 1_555 1_555
H6 C6 1_555 1_555
C7 C2 1_555 1_555
H7 C7 1_555 1_555
C8 C9 1_555 1_555
C9 C10 1_555 1_555
C10 H8 1_555 1_555
C11 C10 1_555 1_555
C12 C11 1_555 1_555
C13 C8 1_555 1_555
C14 C9 1_555 1_555
H9 C14 1_555 1_555
H10 C14 1_555 1_555
H11 C14 1_555 1_555
C15 C11 1_555 1_555
H12 C15 1_555 1_555
H13 C15 1_555 1_555
H14 C15 1_555 1_555
C16 C12 1_555 1_555
C17 C16 1_555 1_555
H15 C17 1_555 1_555
H16 C17 1_555 1_555
H17 C17 1_555 1_555
O1 C16 1_555 1_555
O2 C13 1_555 1_555
H18 O2 1_555 1_555
S1 C5 1_555 1_555
C6 C7 1_555 1_555
C8 S1 1_555 1_555
C12 C13 1_555 1_555

#END
