
#######################################################################
#
#                 Cambridge Crystallographic Data Centre
#                                CCDC 
#
#######################################################################
#
# If this CIF has been generated from an entry in the Cambridge 
# Structural Database, then it will include bibliographic, chemical, 
# crystal, experimental, refinement or atomic coordinate data resulting 
# from the CCDC's data processing and validation procedures.
#
#######################################################################

data_NESFUP
_chemical_formula_moiety         'C12 H12 B1 N1 O1'
_chemical_name_systematic        
8-methyl-8,9-dihydro-7H-3a-aza-9b-boraphenalen-7-one
_symmetry_cell_setting           orthorhombic
_symmetry_space_group_name_H-M   'P b c a'
_symmetry_Int_Tables_number      61
_space_group_name_Hall           '-P 2ac 2ab'
loop_
_symmetry_equiv_pos_site_id
_symmetry_equiv_pos_as_xyz
1 x,y,z
2 1/2-x,-y,1/2+z
3 -x,1/2+y,1/2-z
4 1/2+x,1/2-y,-z
5 -x,-y,-z
6 1/2+x,y,1/2-z
7 x,1/2-y,1/2+z
8 1/2-x,1/2+y,z
_cell_length_a                   13.9639(18)
_cell_length_b                   9.1183(11)
_cell_length_c                   16.431(2)
_cell_angle_alpha                90
_cell_angle_beta                 90
_cell_angle_gamma                90
_cell_volume                     2092.11
_exptl_crystal_colour            colorless
_exptl_crystal_description       sheet
_cell_formula_units_Z            8
loop_
_atom_site_label
_atom_site_type_symbol
_atom_site_fract_x
_atom_site_fract_y
_atom_site_fract_z
O1 O 0.41999(19) 0.4480(2) 0.76840(12)
N1 N 0.38324(14) 0.2853(2) 0.48687(13)
C1 C 0.4025(2) 0.1433(3) 0.5088(2)
H1 H 0.4034 0.0709 0.4690
C2 C 0.4201(2) 0.1060(3) 0.5870(2)
H2 H 0.4339 0.0085 0.5988
C3 C 0.41850(18) 0.2084(3) 0.65155(17)
H3 H 0.4314 0.1781 0.7045
C4 C 0.39798(15) 0.3514(2) 0.63583(14)
C5 C 0.36048(16) 0.5527(3) 0.52417(15)
C6 C 0.3467(2) 0.5802(3) 0.44421(17)
H4 H 0.3348 0.6755 0.4268
C7 C 0.3504(2) 0.4640(4) 0.38678(18)
H5 H 0.3401 0.4863 0.3322
C8 C 0.3679(2) 0.3244(4) 0.40667(17)
H6 H 0.3697 0.2531 0.3662
C9 C 0.39210(17) 0.4660(3) 0.69909(14)
C10 C 0.3381(2) 0.6049(3) 0.67499(17)
H7 H 0.2705 0.5763 0.6732
C11 C 0.3601(2) 0.6651(3) 0.59086(17)
H8 H 0.3130 0.7397 0.5777
H9 H 0.4223 0.7123 0.5924
C12 C 0.3440(2) 0.7242(4) 0.7402(2)
H10 H 0.3376 0.6805 0.7930
H11 H 0.2935 0.7940 0.7320
H12 H 0.4048 0.7730 0.7364
B1 B 0.38048(18) 0.3965(3) 0.54911(16)
loop_
_geom_bond_atom_site_label_1
_geom_bond_atom_site_label_2
_geom_bond_site_symmetry_1
_geom_bond_site_symmetry_2
O1 C9 1_555 1_555
N1 C1 1_555 1_555
C1 H1 1_555 1_555
C2 C1 1_555 1_555
H2 C2 1_555 1_555
C3 C2 1_555 1_555
H3 C3 1_555 1_555
C4 C3 1_555 1_555
C5 C6 1_555 1_555
C6 H4 1_555 1_555
C7 C6 1_555 1_555
H5 C7 1_555 1_555
C8 N1 1_555 1_555
H6 C8 1_555 1_555
C9 C4 1_555 1_555
C10 C9 1_555 1_555
H7 C10 1_555 1_555
C11 C5 1_555 1_555
H8 C11 1_555 1_555
H9 C11 1_555 1_555
C12 C10 1_555 1_555
H10 C12 1_555 1_555
H11 C12 1_555 1_555
H12 C12 1_555 1_555
B1 N1 1_555 1_555
C4 B1 1_555 1_555
C5 B1 1_555 1_555
C7 C8 1_555 1_555
C10 C11 1_555 1_555

#END
