
#######################################################################
#
#                 Cambridge Crystallographic Data Centre
#                                CCDC 
#
#######################################################################
#
# If this CIF has been generated from an entry in the Cambridge 
# Structural Database, then it will include bibliographic, chemical, 
# crystal, experimental, refinement or atomic coordinate data resulting 
# from the CCDC's data processing and validation procedures.
#
#######################################################################

data_NESFOJ
_chemical_formula_moiety         'C18 H24 B1 N1 O1'
_chemical_name_systematic        
2-methyl-1-[1-methyl-2-(2,4,6-trimethylphenyl)-1,2-dihydro-1,2-azaborinin-5-yl]propan-1-one
_symmetry_cell_setting           monoclinic
_symmetry_space_group_name_H-M   'P 21/c'
_symmetry_Int_Tables_number      14
_space_group_name_Hall           '-P 2ybc'
loop_
_symmetry_equiv_pos_site_id
_symmetry_equiv_pos_as_xyz
1 x,y,z
2 -x,1/2+y,1/2-z
3 -x,-y,-z
4 x,1/2-y,1/2+z
_cell_length_a                   7.6993(11)
_cell_length_b                   16.097(2)
_cell_length_c                   13.712(2)
_cell_angle_alpha                90
_cell_angle_beta                 94.426(8)
_cell_angle_gamma                90
_cell_volume                     1694.34
_exptl_crystal_colour            colorless
_exptl_crystal_description       block
_cell_formula_units_Z            4
loop_
_atom_site_label
_atom_site_type_symbol
_atom_site_fract_x
_atom_site_fract_y
_atom_site_fract_z
O1 O 0.2966(2) 0.45048(9) 0.53353(12)
N1 N 0.3768(2) 0.69877(9) 0.59356(11)
C1 C 0.0815(3) 0.70390(13) 0.65509(17)
H1 H -0.0112 0.7329 0.6784
B1 B 0.2416(3) 0.75027(13) 0.62896(16)
C2 C 0.0717(3) 0.61998(12) 0.64475(16)
H2 H -0.0263 0.5920 0.6631
C3 C 0.2096(2) 0.57440(11) 0.60627(14)
C4 C 0.3554(2) 0.61551(11) 0.58223(13)
H3 H 0.4442 0.5851 0.5569
C5 C 0.2059(3) 0.48265(12) 0.59148(15)
C6 C 0.0920(3) 0.43044(12) 0.65336(16)
H4 H -0.0274 0.4517 0.6439
C7 C 0.1528(4) 0.43924(16) 0.76177(17)
H5 H 0.2700 0.4190 0.7727
H6 H 0.0777 0.4075 0.8003
H7 H 0.1489 0.4967 0.7803
C8 C 0.0902(3) 0.33971(13) 0.62213(19)
H8 H 0.0514 0.3357 0.5540
H9 H 0.0125 0.3090 0.6601
H10 H 0.2055 0.3171 0.6325
C9 C 0.5457(3) 0.73352(13) 0.56923(18)
H11 H 0.6204 0.6893 0.5512
H12 H 0.5992 0.7622 0.6251
H13 H 0.5271 0.7716 0.5156
C10 C 0.2698(2) 0.84760(11) 0.63916(14)
C11 C 0.3308(2) 0.88306(12) 0.72862(15)
C12 C 0.3495(3) 0.96881(13) 0.73673(17)
H14 H 0.3878 0.9915 0.7969
C13 C 0.3128(3) 1.02118(13) 0.65821(19)
C14 C 0.2530(3) 0.98594(14) 0.57008(18)
H15 H 0.2273 1.0203 0.5164
C15 C 0.2300(3) 0.90044(13) 0.55905(16)
C16 C 0.3774(3) 0.82915(15) 0.81668(17)
H16 H 0.2890 0.7876 0.8218
H17 H 0.3854 0.8629 0.8746
H18 H 0.4874 0.8026 0.8097
C17 C 0.3370(5) 1.11421(15) 0.6693(2)
H19 H 0.3118 1.1406 0.6070
H20 H 0.4551 1.1259 0.6928
H21 H 0.2593 1.1351 0.7150
C18 C 0.1613(5) 0.86572(17) 0.46101(18)
H22 H 0.1063 0.9093 0.4221
H23 H 0.0779 0.8228 0.4708
H24 H 0.2560 0.8431 0.4280
loop_
_geom_bond_atom_site_label_1
_geom_bond_atom_site_label_2
_geom_bond_site_symmetry_1
_geom_bond_site_symmetry_2
O1 C5 1_555 1_555
N1 B1 1_555 1_555
C1 H1 1_555 1_555
B1 C1 1_555 1_555
C2 C1 1_555 1_555
H2 C2 1_555 1_555
C3 C2 1_555 1_555
C4 N1 1_555 1_555
H3 C4 1_555 1_555
C5 C3 1_555 1_555
C6 C5 1_555 1_555
H4 C6 1_555 1_555
C7 C6 1_555 1_555
H5 C7 1_555 1_555
H6 C7 1_555 1_555
H7 C7 1_555 1_555
C8 C6 1_555 1_555
H8 C8 1_555 1_555
H9 C8 1_555 1_555
H10 C8 1_555 1_555
C9 N1 1_555 1_555
H11 C9 1_555 1_555
H12 C9 1_555 1_555
H13 C9 1_555 1_555
C10 B1 1_555 1_555
C11 C10 1_555 1_555
C12 C11 1_555 1_555
H14 C12 1_555 1_555
C13 C12 1_555 1_555
C14 C13 1_555 1_555
H15 C14 1_555 1_555
C15 C10 1_555 1_555
C16 C11 1_555 1_555
H16 C16 1_555 1_555
H17 C16 1_555 1_555
H18 C16 1_555 1_555
C17 C13 1_555 1_555
H19 C17 1_555 1_555
H20 C17 1_555 1_555
H21 C17 1_555 1_555
C18 C15 1_555 1_555
H22 C18 1_555 1_555
H23 C18 1_555 1_555
H24 C18 1_555 1_555
C3 C4 1_555 1_555
C14 C15 1_555 1_555

#END
