
#######################################################################
#
#                 Cambridge Crystallographic Data Centre
#                                CCDC 
#
#######################################################################
#
# If this CIF has been generated from an entry in the Cambridge 
# Structural Database, then it will include bibliographic, chemical, 
# crystal, experimental, refinement or atomic coordinate data resulting 
# from the CCDC's data processing and validation procedures.
#
#######################################################################

data_NESJAZ
_chemical_formula_moiety         'C24 H38 B1 N3 O2 S1'
_chemical_name_systematic        
1-[(4-methylphenyl)sulfonyl]-3,5-bis(propan-2-yl)-4-(4-(dimethylamino)pyridine)-1,4-azaborinane
_symmetry_cell_setting           monoclinic
_symmetry_space_group_name_H-M   'P 21/n'
_symmetry_Int_Tables_number      14
_space_group_name_Hall           '-P 2yn'
loop_
_symmetry_equiv_pos_site_id
_symmetry_equiv_pos_as_xyz
1 x,y,z
2 1/2-x,1/2+y,1/2-z
3 -x,-y,-z
4 1/2+x,1/2-y,1/2+z
_cell_length_a                   10.8079(6)
_cell_length_b                   15.5573(9)
_cell_length_c                   14.4369(9)
_cell_angle_alpha                90
_cell_angle_beta                 94.8280(10)
_cell_angle_gamma                90
_cell_volume                     2418.83
_exptl_crystal_colour            colorless
_exptl_crystal_description       block
_cell_formula_units_Z            4
loop_
_atom_site_label
_atom_site_type_symbol
_atom_site_fract_x
_atom_site_fract_y
_atom_site_fract_z
S1 S 0.33715(4) 0.18360(3) 0.39915(3)
O1 O 0.31552(13) 0.09952(10) 0.36019(13)
O2 O 0.32610(14) 0.19670(13) 0.49644(11)
N1 N 0.47646(13) 0.21311(11) 0.37855(11)
N2 N 0.80817(13) 0.18659(10) 0.42206(10)
N3 N 1.01046(14) 0.05524(11) 0.63697(11)
B1 B 0.73042(18) 0.24660(14) 0.34718(14)
H1 H 0.804(2) 0.2784(16) 0.3084(17)
C1 C 0.52722(19) 0.28788(16) 0.42988(15)
H2 H 0.5370 0.2737 0.4970
H3 H 0.4672 0.3359 0.4214
C2 C 0.65124(18) 0.31727(13) 0.39987(16)
H4 H 0.6288 0.3615 0.3511
C3 C 0.64060(17) 0.18748(15) 0.27474(13)
H5 H 0.6514 0.1271 0.2978
C4 C 0.50570(18) 0.20769(16) 0.28018(14)
H6 H 0.4856 0.2630 0.2486
H7 H 0.4543 0.1623 0.2479
C5 C 0.7253(2) 0.36736(16) 0.47667(17)
H8 H 0.7568 0.3250 0.5252
C6 C 0.6463(3) 0.43441(19) 0.5246(2)
H9 H 0.6986 0.4645 0.5730
H10 H 0.5783 0.4052 0.5527
H11 H 0.6119 0.4760 0.4784
C7 C 0.8365(2) 0.41296(16) 0.4434(2)
H12 H 0.8948 0.3705 0.4220
H13 H 0.8776 0.4465 0.4945
H14 H 0.8094 0.4515 0.3919
C8 C 0.6769(2) 0.18566(16) 0.17363(15)
H15 H 0.6834 0.2467 0.1528
C9 C 0.5816(2) 0.14217(16) 0.10728(15)
H16 H 0.6138 0.1372 0.0461
H17 H 0.5051 0.1763 0.1019
H18 H 0.5638 0.0847 0.1307
C10 C 0.8039(2) 0.14440(18) 0.16803(16)
H19 H 0.8001 0.0838 0.1859
H20 H 0.8653 0.1743 0.2103
H21 H 0.8280 0.1486 0.1042
C11 C 0.75193(16) 0.13656(12) 0.48253(12)
H22 H 0.6640 0.1323 0.4754
C12 C 0.81432(16) 0.09175(12) 0.55329(13)
H23 H 0.7697 0.0578 0.5938
C13 C 0.94573(16) 0.09598(11) 0.56616(12)
C14 C 1.00392(16) 0.14583(12) 0.50051(13)
H24 H 1.0919 0.1494 0.5037
C15 C 0.93345(16) 0.18898(12) 0.43224(13)
H25 H 0.9752 0.2225 0.3895
C16 C 0.94632(19) 0.01079(15) 0.70755(14)
H26 H 0.8851 0.0495 0.7317
H27 H 1.0066 -0.0071 0.7584
H28 H 0.9040 -0.0400 0.6801
C17 C 1.14540(16) 0.05430(13) 0.64622(14)
H29 H 1.1764 0.0531 0.5844
H30 H 1.1747 0.0031 0.6811
H31 H 1.1762 0.1060 0.6795
C18 C 0.23292(16) 0.25395(13) 0.33700(13)
C19 C 0.21014(18) 0.33510(15) 0.37271(15)
H32 H 0.2493 0.3522 0.4312
C20 C 0.13020(18) 0.39069(15) 0.32258(17)
H33 H 0.1158 0.4462 0.3469
C21 C 0.07054(17) 0.36697(14) 0.23742(15)
C22 C 0.09461(18) 0.28611(14) 0.20314(13)
H34 H 0.0543 0.2689 0.1451
C23 C 0.17556(18) 0.22977(13) 0.25102(13)
H35 H 0.1919 0.1751 0.2255
C24 C -0.0182(2) 0.42746(16) 0.18480(19)
H36 H 0.0270 0.4784 0.1662
H37 H -0.0829 0.4449 0.2246
H38 H -0.0565 0.3985 0.1293
loop_
_geom_bond_atom_site_label_1
_geom_bond_atom_site_label_2
_geom_bond_site_symmetry_1
_geom_bond_site_symmetry_2
S1 O1 1_555 1_555
O2 S1 1_555 1_555
N1 S1 1_555 1_555
N2 B1 1_555 1_555
N3 C13 1_555 1_555
B1 H1 1_555 1_555
C1 N1 1_555 1_555
H2 C1 1_555 1_555
H3 C1 1_555 1_555
C2 B1 1_555 1_555
H4 C2 1_555 1_555
C3 B1 1_555 1_555
H5 C3 1_555 1_555
C4 N1 1_555 1_555
H6 C4 1_555 1_555
H7 C4 1_555 1_555
C5 C2 1_555 1_555
H8 C5 1_555 1_555
C6 C5 1_555 1_555
H9 C6 1_555 1_555
H10 C6 1_555 1_555
H11 C6 1_555 1_555
C7 C5 1_555 1_555
H12 C7 1_555 1_555
H13 C7 1_555 1_555
H14 C7 1_555 1_555
C8 C3 1_555 1_555
H15 C8 1_555 1_555
C9 C8 1_555 1_555
H16 C9 1_555 1_555
H17 C9 1_555 1_555
H18 C9 1_555 1_555
C10 C8 1_555 1_555
H19 C10 1_555 1_555
H20 C10 1_555 1_555
H21 C10 1_555 1_555
C11 N2 1_555 1_555
H22 C11 1_555 1_555
C12 C11 1_555 1_555
H23 C12 1_555 1_555
C13 C12 1_555 1_555
C14 C13 1_555 1_555
H24 C14 1_555 1_555
C15 N2 1_555 1_555
H25 C15 1_555 1_555
C16 N3 1_555 1_555
H26 C16 1_555 1_555
H27 C16 1_555 1_555
H28 C16 1_555 1_555
C17 N3 1_555 1_555
H29 C17 1_555 1_555
H30 C17 1_555 1_555
H31 C17 1_555 1_555
C18 S1 1_555 1_555
C19 C18 1_555 1_555
H32 C19 1_555 1_555
C20 C19 1_555 1_555
H33 C20 1_555 1_555
C21 C20 1_555 1_555
C22 C21 1_555 1_555
H34 C22 1_555 1_555
C23 C18 1_555 1_555
H35 C23 1_555 1_555
C24 C21 1_555 1_555
H36 C24 1_555 1_555
H37 C24 1_555 1_555
H38 C24 1_555 1_555
C1 C2 1_555 1_555
C3 C4 1_555 1_555
C14 C15 1_555 1_555
C22 C23 1_555 1_555

#END
