
#######################################################################
#
#                 Cambridge Crystallographic Data Centre
#                                CCDC 
#
#######################################################################
#
# If this CIF has been generated from an entry in the Cambridge 
# Structural Database, then it will include bibliographic, chemical, 
# crystal, experimental, refinement or atomic coordinate data resulting 
# from the CCDC's data processing and validation procedures.
#
#######################################################################

data_NESTEM
_chemical_formula_moiety         
'C36 H32 N4 4+,C36 H32 N4 3+,7(F6 P1 1-),6(C2 H3 N1)'
_chemical_name_systematic        
'bis(5,12,19,26-Tetraazoniaheptacyclo[24.2.2.2^2,5^.2^7,10^.2^12,15^.2^16,19^.2^21,24^]tetraconta-1(28),2,4,7,9,12,14,16,18,21,23,26,29,31,33,35,37,39-octadecaene) monoradical heptakis(hexafluorophosphate) acetonitrile solvate'
_symmetry_cell_setting           monoclinic
_symmetry_space_group_name_H-M   'C 2/c'
_symmetry_Int_Tables_number      15
_space_group_name_Hall           '-C 2yn'
loop_
_symmetry_equiv_pos_site_id
_symmetry_equiv_pos_as_xyz
1 x,y,z
2 -x,y,1/2-z
3 1/2+x,1/2+y,z
4 1/2-x,1/2+y,1/2-z
5 -x,-y,-z
6 x,-y,1/2+z
7 1/2-x,1/2-y,-z
8 1/2+x,1/2-y,1/2+z
_cell_length_a                   25.978(2)
_cell_length_b                   19.6399(18)
_cell_length_c                   18.9216(17)
_cell_angle_alpha                90
_cell_angle_beta                 100.204(4)
_cell_angle_gamma                90
_cell_volume                     9501.21
_exptl_crystal_colour            red
_exptl_crystal_description       tabular
_cell_formula_units_Z            4
loop_
_atom_site_label
_atom_site_type_symbol
_atom_site_fract_x
_atom_site_fract_y
_atom_site_fract_z
P2 P 0.63314(5) 0.90769(8) 0.22314(7)
F7 F 0.62074(19) 0.83231(19) 0.2354(2)
F8 F 0.64508(16) 0.98992(19) 0.2138(2)
F9 F 0.68501(16) 0.8902(3) 0.1975(3)
F10 F 0.6636(2) 0.9149(2) 0.3050(3)
F11 F 0.57909(17) 0.9322(3) 0.2494(2)
F12 F 0.60189(19) 0.9082(3) 0.1445(2)
P3 P 0.68002(6) 0.16751(8) 0.01238(11)
F13 F 0.7134(3) 0.1036(6) -0.0039(9)
F14 F 0.6542(3) 0.2287(3) 0.0377(4)
F15 F 0.6283(2) 0.1319(4) -0.0189(3)
F16 F 0.6759(4) 0.1300(7) 0.0871(7)
F17 F 0.7366(2) 0.1968(3) 0.0561(3)
F18 F 0.6885(6) 0.1956(11) -0.0543(6)
N1 N 0.5041(3) 0.2453(4) 0.9428(5)
C1 C 0.5217(4) 0.2261(4) 0.8983(4)
C2 C 0.5462(5) 0.1988(6) 0.8425(5)
H1 H 0.5833 0.1902 0.8613
H2 H 0.5431 0.2314 0.8028
H3 H 0.5290 0.1560 0.8251
N2 N 0.3295(3) 0.2326(3) 0.9248(4)
C3 C 0.3511(2) 0.2704(3) 0.8952(3)
C4 C 0.3763(3) 0.3166(4) 0.8534(4)
H4 H 0.4083 0.2956 0.8427
H5 H 0.3851 0.3587 0.8805
H6 H 0.3526 0.3269 0.8084
N3 N 0.7944(2) 0.0629(3) 0.2268(3)
C5 C 0.8140(2) 0.0871(3) 0.1835(3)
C6 C 0.8392(3) 0.1169(4) 0.1282(4)
H7 H 0.8159 0.1507 0.1012
H8 H 0.8469 0.0811 0.0955
H9 H 0.8719 0.1390 0.1506
N4 N 0.31639(13) 0.90816(17) 0.5877(2)
N5 N 0.28207(12) 0.63443(17) 0.80836(17)
N6 N 0.56913(12) 0.87558(16) 0.65394(17)
N7 N 0.53751(13) 0.6232(2) 0.9035(3)
C7 C 0.30999(16) 0.9198(2) 0.6554(3)
H10 H 0.3140 0.9648 0.6740
C8 C 0.29774(15) 0.8679(2) 0.6986(3)
H11 H 0.2930 0.8771 0.7463
C9 C 0.29235(13) 0.80191(18) 0.6715(2)
C10 C 0.29718(15) 0.7920(2) 0.6004(2)
H12 H 0.2920 0.7479 0.5797
C11 C 0.30943(16) 0.8456(2) 0.5598(3)
H13 H 0.3130 0.8382 0.5113
C12 C 0.28473(13) 0.74351(18) 0.7177(2)
C13 C 0.26741(16) 0.7500(2) 0.7835(2)
H14 H 0.2560 0.7931 0.7975
C14 C 0.26663(16) 0.6956(2) 0.8276(2)
H15 H 0.2551 0.7010 0.8722
C15 C 0.29547(16) 0.62398(19) 0.7444(2)
H16 H 0.3037 0.5793 0.7305
C16 C 0.29738(16) 0.67754(19) 0.6987(2)
H17 H 0.3074 0.6699 0.6534
C17 C 0.29095(16) 0.5776(2) 0.8619(2)
H18 H 0.2782 0.5340 0.8389
H19 H 0.2719 0.5866 0.9019
C18 C 0.34906(15) 0.5739(2) 0.8896(2)
C19 C 0.37300(17) 0.6176(2) 0.9420(2)
H20 H 0.3526 0.6487 0.9638
C20 C 0.42705(18) 0.6165(2) 0.9633(3)
H21 H 0.4432 0.6468 0.9998
C21 C 0.45771(17) 0.5718(2) 0.9318(3)
C22 C 0.43360(19) 0.5267(2) 0.8807(3)
H22 H 0.4541 0.4951 0.8597
C23 C 0.37947(17) 0.5272(2) 0.8597(3)
H23 H 0.3632 0.4955 0.8249
C24 C 0.51652(19) 0.5737(3) 0.9516(4)
H24 H 0.5270 0.5879 1.0023
H25 H 0.5311 0.5278 0.9461
C25 C 0.54837(16) 0.6051(2) 0.8401(3)
H26 H 0.5478 0.5582 0.8280
C26 C 0.56028(14) 0.65162(19) 0.7916(3)
H27 H 0.5680 0.6369 0.7469
C27 C 0.56094(13) 0.72189(18) 0.8088(2)
C28 C 0.55286(15) 0.7384(2) 0.8780(2)
H28 H 0.5557 0.7845 0.8933
C29 C 0.54111(17) 0.6900(3) 0.9234(3)
H29 H 0.5353 0.7027 0.9698
C30 C 0.56770(13) 0.77426(17) 0.7564(2)
C31 C 0.57340(15) 0.75890(19) 0.6856(2)
H30 H 0.5769 0.7128 0.6719
C32 C 0.57388(16) 0.8091(2) 0.6366(2)
H31 H 0.5776 0.7975 0.5890
C33 C 0.56613(14) 0.89218(18) 0.7220(2)
H32 H 0.5646 0.9389 0.7345
C34 C 0.56515(13) 0.84429(17) 0.7731(2)
H33 H 0.5627 0.8578 0.8206
C35 C 0.56057(17) 0.9290(2) 0.5968(2)
H34 H 0.5738 0.9130 0.5537
H35 H 0.5796 0.9712 0.6143
C36 C 0.50276(16) 0.9431(2) 0.5782(2)
C37 C 0.4708(2) 0.9035(2) 0.5273(2)
H36 H 0.4860 0.8705 0.5006
C38 C 0.4169(2) 0.9115(3) 0.5152(2)
H37 H 0.3956 0.8842 0.4802
C39 C 0.39387(18) 0.9587(2) 0.5535(2)
C40 C 0.42559(16) 1.0004(2) 0.6018(2)
H38 H 0.4103 1.0348 0.6267
C41 C 0.47982(16) 0.9925(2) 0.6142(2)
H39 H 0.5011 1.0214 0.6476
C42 C 0.33508(19) 0.9637(3) 0.5441(3)
H40 H 0.3248 1.0087 0.5606
H41 H 0.3193 0.9584 0.4928
P1 P 0.32068(4) 0.42942(6) 0.02932(6)
F1 F 0.26767(9) 0.40126(16) 0.05060(14)
F2 F 0.37400(10) 0.45639(16) 0.00984(17)
F3 F 0.30116(11) 0.4071(2) -0.05196(15)
F4 F 0.34668(10) 0.35582(12) 0.04786(13)
F5 F 0.34044(10) 0.45073(13) 0.11122(15)
F6 F 0.29416(12) 0.50133(17) 0.01112(19)
P4? P 0.5094(2) 0.39930(12) 0.7457(5)
F19? F 0.4986(5) 0.3885(5) 0.6631(7)
F20? F 0.5212(4) 0.4127(5) 0.8318(6)
F21? F 0.4539(4) 0.3706(7) 0.7530(6)
F22? F 0.5354(5) 0.3270(4) 0.7578(7)
F23? F 0.5656(3) 0.4305(5) 0.7418(5)
F24? F 0.4858(3) 0.4738(3) 0.7347(4)
F25? F 0.680(3) 0.925(3) 0.275(3)
F26? F 0.597(2) 0.863(3) 0.2715(17)
F27? F 0.5908(7) 0.8617(19) 0.1566(15)
F28? F 0.7272(5) 0.1466(7) -0.0069(7)
F29? F 0.6181(6) 0.2196(6) -0.0006(8)
F30? F 0.6406(10) 0.1131(8) -0.0138(15)
F31? F 0.6753(5) 0.1539(8) 0.0864(5)
F32? F 0.6988(5) 0.2476(6) 0.0191(8)
F33? F 0.6732(6) 0.2049(5) -0.0795(7)
F34? F 0.6663(13) 0.8252(15) 0.219(2)
F35? F 0.6055(12) 0.9601(15) 0.233(2)
F36? F 0.6680(14) 0.9070(15) 0.1551(15)
loop_
_geom_bond_atom_site_label_1
_geom_bond_atom_site_label_2
_geom_bond_site_symmetry_1
_geom_bond_site_symmetry_2
P1 F1 1_555 1_555
F2 P1 1_555 1_555
F3 P1 1_555 1_555
F4 P1 1_555 1_555
F5 P1 1_555 1_555
F6 P1 1_555 1_555
P2 F7 1_555 1_555
F8 P2 1_555 1_555
F9 P2 1_555 1_555
F10 P2 1_555 1_555
F11 P2 1_555 1_555
F12 P2 1_555 1_555
P3 F13 1_555 1_555
F14 P3 1_555 1_555
F15 P3 1_555 1_555
F16 P3 1_555 1_555
F17 P3 1_555 1_555
F18 P3 1_555 1_555
N1 C1 1_555 1_555
C1 C2 1_555 1_555
C2 H1 1_555 1_555
H2 C2 1_555 1_555
H3 C2 1_555 1_555
N2 C3 1_555 1_555
C3 C4 1_555 1_555
C4 H4 1_555 1_555
H5 C4 1_555 1_555
H6 C4 1_555 1_555
N3 C5 1_555 1_555
C5 C6 1_555 1_555
C6 H7 1_555 1_555
H8 C6 1_555 1_555
H9 C6 1_555 1_555
N4 C7 1_555 1_555
N5 C14 1_555 1_555
N6 C32 1_555 1_555
N7 C24 1_555 1_555
C7 H10 1_555 1_555
C8 C7 1_555 1_555
H11 C8 1_555 1_555
C9 C8 1_555 1_555
C10 C9 1_555 1_555
H12 C10 1_555 1_555
C11 N4 1_555 1_555
H13 C11 1_555 1_555
C12 C9 1_555 1_555
C13 C12 1_555 1_555
H14 C13 1_555 1_555
C14 C13 1_555 1_555
H15 C14 1_555 1_555
C15 N5 1_555 1_555
H16 C15 1_555 1_555
C16 C12 1_555 1_555
H17 C16 1_555 1_555
C17 N5 1_555 1_555
H18 C17 1_555 1_555
H19 C17 1_555 1_555
C18 C17 1_555 1_555
C19 C18 1_555 1_555
H20 C19 1_555 1_555
C20 C19 1_555 1_555
H21 C20 1_555 1_555
C21 C20 1_555 1_555
C22 C21 1_555 1_555
H22 C22 1_555 1_555
C23 C18 1_555 1_555
H23 C23 1_555 1_555
C24 C21 1_555 1_555
H24 C24 1_555 1_555
H25 C24 1_555 1_555
C25 N7 1_555 1_555
H26 C25 1_555 1_555
C26 C25 1_555 1_555
H27 C26 1_555 1_555
C27 C26 1_555 1_555
C28 C27 1_555 1_555
H28 C28 1_555 1_555
C29 N7 1_555 1_555
H29 C29 1_555 1_555
C30 C27 1_555 1_555
C31 C30 1_555 1_555
H30 C31 1_555 1_555
C32 C31 1_555 1_555
H31 C32 1_555 1_555
C33 N6 1_555 1_555
H32 C33 1_555 1_555
C34 C30 1_555 1_555
H33 C34 1_555 1_555
C35 N6 1_555 1_555
H34 C35 1_555 1_555
H35 C35 1_555 1_555
C36 C35 1_555 1_555
C37 C36 1_555 1_555
H36 C37 1_555 1_555
C38 C37 1_555 1_555
H37 C38 1_555 1_555
C39 C38 1_555 1_555
C40 C39 1_555 1_555
H38 C40 1_555 1_555
C41 C36 1_555 1_555
H39 C41 1_555 1_555
C42 N4 1_555 1_555
H40 C42 1_555 1_555
H41 C42 1_555 1_555
C10 C11 1_555 1_555
C15 C16 1_555 1_555
C22 C23 1_555 1_555
C28 C29 1_555 1_555
C33 C34 1_555 1_555
C39 C42 1_555 1_555
C40 C41 1_555 1_555

#END
