
#######################################################################
#
#                 Cambridge Crystallographic Data Centre
#                                CCDC 
#
#######################################################################
#
# If this CIF has been generated from an entry in the Cambridge 
# Structural Database, then it will include bibliographic, chemical, 
# crystal, experimental, refinement or atomic coordinate data resulting 
# from the CCDC's data processing and validation procedures.
#
#######################################################################

data_NETPEJ
_chemical_formula_moiety         '2(C8 H16 N1 O2 1+),C12 H4 N4,2(C12 H4 N4 1-)'
_chemical_name_systematic        
'bis(N,N-dimethyl-D-proline methyl ester) tris(tetracyanoquinodimethanide)'
_symmetry_cell_setting           monoclinic
_symmetry_space_group_name_H-M   'P 21/c'
_symmetry_Int_Tables_number      14
_space_group_name_Hall           '-P 2ybc'
loop_
_symmetry_equiv_pos_site_id
_symmetry_equiv_pos_as_xyz
1 x,y,z
2 -x,1/2+y,1/2-z
3 -x,-y,-z
4 x,1/2-y,1/2+z
_cell_length_a                   7.2910(15)
_cell_length_b                   29.534(6)
_cell_length_c                   12.701(4)
_cell_angle_alpha                90
_cell_angle_beta                 122.37(2)
_cell_angle_gamma                90
_cell_volume                     2309.95
_exptl_crystal_colour            'dark purple'
_exptl_crystal_description       'thin plate'
_cell_formula_units_Z            2
loop_
_atom_site_label
_atom_site_type_symbol
_atom_site_fract_x
_atom_site_fract_y
_atom_site_fract_z
O1 O 0.0513(5) 0.28671(12) 0.3416(3)
O2 O -0.2890(5) 0.27485(11) 0.1841(3)
N1 N 0.1994(6) 0.20858(11) 0.2711(3)
C1 C 0.1807(9) 0.16417(17) 0.2077(5)
H1 H 0.1607 0.1389 0.2518
H2 H 0.3127 0.1583 0.2059
C2 C -0.0161(8) 0.16905(15) 0.0769(4)
H3 H -0.1011 0.1406 0.0499
H4 H 0.0289 0.1763 0.0178
C3 C -0.1524(8) 0.20797(15) 0.0813(4)
H5 H -0.3045 0.1984 0.0466
H6 H -0.1513 0.2347 0.0347
C4 C -0.0354(8) 0.21830(15) 0.2231(5)
H7 H -0.0851 0.1953 0.2603
C5 C -0.0790(7) 0.26451(14) 0.2559(4)
C6 C -0.3492(7) 0.31574(15) 0.2186(4)
H8 H -0.3124 0.3133 0.3048
H9 H -0.5058 0.3206 0.1629
H10 H -0.2705 0.3413 0.2118
C7 C 0.2993(9) 0.24333(17) 0.2319(6)
H11 H 0.3068 0.2723 0.2715
H12 H 0.2108 0.2468 0.1411
H13 H 0.4462 0.2337 0.2573
C8 C 0.3311(9) 0.2038(2) 0.4090(5)
H14 H 0.2683 0.1801 0.4342
H15 H 0.3317 0.2326 0.4475
H16 H 0.4804 0.1956 0.4361
N2 N 0.4002(6) 0.15006(12) 0.8602(4)
N3 N -0.1492(5) 0.08225(11) 0.8431(3)
C9 C 0.3725(6) 0.03936(12) 0.9496(3)
C10 C 0.5948(6) 0.03851(12) 0.9825(3)
H17 H 0.6559 0.0647 0.9695
C11 C 0.2832(6) -0.00109(12) 0.9688(3)
H18 H 0.1365 -0.0013 0.9467
C12 C 0.2472(6) 0.07805(13) 0.9005(3)
C13 C 0.3317(6) 0.11832(13) 0.8784(4)
C14 C 0.0266(6) 0.08003(12) 0.8684(4)
N2B N 0.5998(6) -0.15006(12) 1.1398(4)
N3B N 1.1492(5) -0.08225(11) 1.1569(3)
C9B C 0.6275(6) -0.03936(12) 1.0504(3)
C10B C 0.4052(6) -0.03851(12) 1.0175(3)
H17B H 0.3441 -0.0647 1.0305
C11B C 0.7168(6) 0.00109(12) 1.0312(3)
H18B H 0.8635 0.0013 1.0533
C12B C 0.7528(6) -0.07805(13) 1.0995(3)
C13B C 0.6683(6) -0.11832(13) 1.1216(4)
C14B C 0.9734(6) -0.08003(12) 1.1316(4)
N4 N 0.8093(6) -0.05279(12) 0.8155(3)
N5 N 0.2908(6) -0.12833(12) 0.7938(4)
N6 N -0.0376(8) 0.17629(13) 0.5025(4)
N7 N -0.5532(6) 0.09498(13) 0.4805(4)
C15 C -0.0148(6) 0.06091(12) 0.5891(3)
C16 C 0.2058(6) 0.06327(12) 0.6239(3)
H19 H 0.2598 0.0909 0.6123
C17 C 0.3418(6) 0.02690(12) 0.6735(3)
H20 H 0.4885 0.0297 0.6965
C18 C 0.0461(6) -0.01772(13) 0.6572(3)
H21 H -0.0080 -0.0453 0.6688
C19 C -0.0898(6) 0.01892(12) 0.6081(3)
H22 H -0.2360 0.0163 0.5864
C20 C 0.2660(6) -0.01533(12) 0.6913(3)
C21 C -0.1566(7) 0.09845(13) 0.5372(4)
C22 C -0.0879(7) 0.14124(14) 0.5186(4)
C23 C -0.3761(7) 0.09628(13) 0.5056(4)
C24 C 0.4052(6) -0.05302(12) 0.7431(3)
C25 C 0.6275(6) -0.05188(12) 0.7813(4)
C26 C 0.3376(6) -0.09433(13) 0.7692(4)
loop_
_geom_bond_atom_site_label_1
_geom_bond_atom_site_label_2
_geom_bond_site_symmetry_1
_geom_bond_site_symmetry_2
O1 C5 1_555 1_555
O2 C5 1_555 1_555
N1 C1 1_555 1_555
C1 H1 1_555 1_555
H2 C1 1_555 1_555
C2 C1 1_555 1_555
H3 C2 1_555 1_555
H4 C2 1_555 1_555
C3 C2 1_555 1_555
H5 C3 1_555 1_555
H6 C3 1_555 1_555
C4 N1 1_555 1_555
H7 C4 1_555 1_555
C5 C4 1_555 1_555
C6 O2 1_555 1_555
H8 C6 1_555 1_555
H9 C6 1_555 1_555
H10 C6 1_555 1_555
C7 N1 1_555 1_555
H11 C7 1_555 1_555
H12 C7 1_555 1_555
H13 C7 1_555 1_555
C8 N1 1_555 1_555
H14 C8 1_555 1_555
H15 C8 1_555 1_555
H16 C8 1_555 1_555
N2 C13 1_555 1_555
N3 C14 1_555 1_555
C9 C10 1_555 1_555
C10 H17 1_555 1_555
C11 C9 1_555 1_555
H18 C11 1_555 1_555
C12 C9 1_555 1_555
C13 C12 1_555 1_555
C14 C12 1_555 1_555
N4 C25 1_555 1_555
N5 C26 1_555 1_555
N6 C22 1_555 1_555
N7 C23 1_555 1_555
C15 C16 1_555 1_555
C16 H19 1_555 1_555
C17 C16 1_555 1_555
H20 C17 1_555 1_555
C18 H21 1_555 1_555
C19 C15 1_555 1_555
H22 C19 1_555 1_555
C20 C17 1_555 1_555
C21 C15 1_555 1_555
C22 C21 1_555 1_555
C23 C21 1_555 1_555
C24 C20 1_555 1_555
C25 C24 1_555 1_555
C26 C24 1_555 1_555
N2B C13B 1_555 1_555
N3B C14B 1_555 1_555
C9B C10B 1_555 1_555
C10B C11 1_555 1_555
H17B C10B 1_555 1_555
C11B C10 1_555 1_555
H18B C11B 1_555 1_555
C12B C9B 1_555 1_555
C13B C12B 1_555 1_555
C14B C12B 1_555 1_555
C3 C4 1_555 1_555
C18 C19 1_555 1_555
C18 C20 1_555 1_555
C9B C11B 1_555 1_555

#END
