
#######################################################################
#
#                 Cambridge Crystallographic Data Centre
#                                CCDC 
#
#######################################################################
#
# If this CIF has been generated from an entry in the Cambridge 
# Structural Database, then it will include bibliographic, chemical, 
# crystal, experimental, refinement or atomic coordinate data resulting 
# from the CCDC's data processing and validation procedures.
#
#######################################################################

data_NEVKEG
_chemical_formula_moiety         'C17 H16 O3'
_chemical_name_systematic        
'Ethyl 3-phenyl-2,3-dihydro-1-benzofuran-2-carboxylate'
_symmetry_cell_setting           monoclinic
_symmetry_space_group_name_H-M   'P 21/n'
_symmetry_Int_Tables_number      14
_space_group_name_Hall           '-P 2yn'
loop_
_symmetry_equiv_pos_site_id
_symmetry_equiv_pos_as_xyz
1 x,y,z
2 1/2-x,1/2+y,1/2-z
3 -x,-y,-z
4 1/2+x,1/2-y,1/2+z
_cell_length_a                   9.7194(11)
_cell_length_b                   8.3104(10)
_cell_length_c                   17.6639(19)
_cell_angle_alpha                90
_cell_angle_beta                 97.935(2)
_cell_angle_gamma                90
_cell_volume                     1413.09
_exptl_crystal_colour            colorless
_exptl_crystal_description       prismatic
_cell_formula_units_Z            4
loop_
_atom_site_label
_atom_site_type_symbol
_atom_site_fract_x
_atom_site_fract_y
_atom_site_fract_z
O1 O 0.51059(13) 0.5945(2) 0.08084(7)
O2 O 0.41870(15) 0.8102(3) -0.02815(10)
O3 O 0.61920(15) 0.8013(3) -0.07416(9)
C1 C 0.55282(18) 0.6242(3) 0.15671(10)
C2 C 0.48436(19) 0.5680(3) 0.21428(12)
H1 H 0.4039 0.5066 0.2040
C3 C 0.5404(2) 0.6067(3) 0.28814(12)
H2 H 0.4971 0.5705 0.3287
C4 C 0.6589(2) 0.6978(3) 0.30266(11)
H3 H 0.6955 0.7212 0.3529
C5 C 0.7246(2) 0.7549(3) 0.24360(11)
H4 H 0.8041 0.8179 0.2537
C6 C 0.67076(17) 0.7172(2) 0.16949(10)
C7 C 0.71829(16) 0.7594(2) 0.09446(10)
H5 H 0.7041 0.8748 0.0848
C8 C 0.61124(17) 0.6625(3) 0.03785(10)
H6 H 0.6596 0.5756 0.0149
C9 C 0.53561(19) 0.7654(3) -0.02452(11)
C10 C 0.5658(10) 0.9409(11) -0.1273(4)
H7 H 0.4735 0.9191 -0.1538
H8 H 0.5645 1.0413 -0.0993
C11 C 0.6709(11) 0.9447(13) -0.1811(5)
H9 H 0.7584 0.9806 -0.1545
H10 H 0.6407 1.0173 -0.2224
H11 H 0.6814 0.8387 -0.2012
C12 C 0.86736(17) 0.7165(2) 0.08675(10)
C13 C 0.9382(2) 0.8024(3) 0.03816(13)
H12 H 0.8953 0.8889 0.0110
C14 C 1.0727(3) 0.7615(4) 0.02923(15)
H13 H 1.1194 0.8206 -0.0040
C15 C 1.1375(2) 0.6364(4) 0.06825(15)
H14 H 1.2289 0.6108 0.0629
C16 C 1.0676(2) 0.5489(4) 0.11513(15)
H15 H 1.1105 0.4611 0.1412
C17 C 0.9325(2) 0.5890(3) 0.12473(13)
H16 H 0.8860 0.5282 0.1574
C18? C 0.5691(13) 0.8767(13) -0.1451(6)
H17? H 0.4758 0.9171 -0.1440
H18? H 0.5663 0.7994 -0.1864
C19? C 0.6609(14) 1.0078(12) -0.1573(7)
H19? H 0.6669 1.0808 -0.1149
H20? H 0.6252 1.0635 -0.2034
H21? H 0.7516 0.9661 -0.1617
loop_
_geom_bond_atom_site_label_1
_geom_bond_atom_site_label_2
_geom_bond_site_symmetry_1
_geom_bond_site_symmetry_2
O1 C1 1_555 1_555
O2 C9 1_555 1_555
O3 C9 1_555 1_555
C1 C2 1_555 1_555
C2 H1 1_555 1_555
C3 C2 1_555 1_555
H2 C3 1_555 1_555
C4 C3 1_555 1_555
H3 C4 1_555 1_555
C5 C4 1_555 1_555
H4 C5 1_555 1_555
C6 C1 1_555 1_555
C7 C6 1_555 1_555
H5 C7 1_555 1_555
C8 O1 1_555 1_555
H6 C8 1_555 1_555
C9 C8 1_555 1_555
C10 O3 1_555 1_555
H7 C10 1_555 1_555
H8 C10 1_555 1_555
C11 C10 1_555 1_555
H9 C11 1_555 1_555
H10 C11 1_555 1_555
H11 C11 1_555 1_555
C12 C7 1_555 1_555
C13 C12 1_555 1_555
H12 C13 1_555 1_555
C14 C13 1_555 1_555
H13 C14 1_555 1_555
C15 C14 1_555 1_555
H14 C15 1_555 1_555
C16 C15 1_555 1_555
H15 C16 1_555 1_555
C17 C12 1_555 1_555
H16 C17 1_555 1_555
C5 C6 1_555 1_555
C7 C8 1_555 1_555
C16 C17 1_555 1_555

#END
