
#######################################################################
#
#                 Cambridge Crystallographic Data Centre
#                                CCDC 
#
#######################################################################
#
# If this CIF has been generated from an entry in the Cambridge 
# Structural Database, then it will include bibliographic, chemical, 
# crystal, experimental, refinement or atomic coordinate data resulting 
# from the CCDC's data processing and validation procedures.
#
#######################################################################

data_NEVNIN
_chemical_formula_moiety         'C28 H36 O6 Te1'
_chemical_name_systematic        
1,1'-(bis((cyclohexylcarbonyl)oxy)-\l^4^-tellanediyl)bis(4-methoxybenzene)
_symmetry_cell_setting           monoclinic
_symmetry_space_group_name_H-M   'C 2/c'
_symmetry_Int_Tables_number      15
_space_group_name_Hall           '-C 2yn'
loop_
_symmetry_equiv_pos_site_id
_symmetry_equiv_pos_as_xyz
1 x,y,z
2 -x,y,1/2-z
3 1/2+x,1/2+y,z
4 1/2-x,1/2+y,1/2-z
5 -x,-y,-z
6 x,-y,1/2+z
7 1/2-x,1/2-y,-z
8 1/2+x,1/2-y,1/2+z
_cell_length_a                   26.612
_cell_length_b                   15.094
_cell_length_c                   17.275
_cell_angle_alpha                90
_cell_angle_beta                 127.08
_cell_angle_gamma                90
_cell_volume                     5535.93
_cell_formula_units_Z            8
loop_
_atom_site_label
_atom_site_type_symbol
_atom_site_fract_x
_atom_site_fract_y
_atom_site_fract_z
C1 C 0.3138(4) 0.0980(5) 0.7595(6)
C2 C 0.2873(4) 0.0487(6) 0.7959(7)
H1 H 0.2439 0.0410 0.7571
C3 C 0.3232(4) 0.0122(6) 0.8858(7)
H2 H 0.3044 -0.0207 0.9074
C4 C 0.3874(4) 0.0236(6) 0.9450(8)
C5 C 0.4155(4) 0.0730(7) 0.9117(9)
H3 H 0.4591 0.0795 0.9505
C6 C 0.3781(5) 0.1126(7) 0.8202(8)
H4 H 0.3964 0.1489 0.8000
C7 C 0.3982(5) -0.0546(9) 1.0722(9)
H5 H 0.3587 -0.0274 1.0483
H6 H 0.4256 -0.0529 1.1418
H7 H 0.3912 -0.1150 1.0507
C8 C 0.1895(4) 0.2119(5) 0.6255(6)
C9 C 0.1262(5) 0.2104(7) 0.5489(6)
H8 H 0.1132 0.1791 0.4932
C10 C 0.0828(5) 0.2525(7) 0.5515(7)
H9 H 0.0407 0.2499 0.4974
C11 C 0.0988(5) 0.2997(6) 0.6325(6)
C12 C 0.1619(4) 0.3013(7) 0.7110(6)
H10 H 0.1747 0.3321 0.7668
C13 C 0.2059(4) 0.2580(6) 0.7077(6)
H11 H 0.2479 0.2595 0.7619
C14 C 0.0673(5) 0.3947(7) 0.7075(7)
H12 H 0.0831 0.3580 0.7632
H13 H 0.0302 0.4251 0.6901
H14 H 0.0989 0.4372 0.7224
C15 C 0.3448(5) 0.2990(8) 0.6659(8)
C16 C 0.3806(5) 0.3861(6) 0.7116(8)
H15 H 0.3913 0.4090 0.6701
C17 C 0.4402(7) 0.3695(9) 0.8073(11)
H16 H 0.4306 0.3447 0.8488
H17 H 0.4633 0.3249 0.7999
C18 C 0.4819(7) 0.4462(10) 0.8574(11)
H18 H 0.5189 0.4298 0.9214
H19 H 0.4953 0.4706 0.8205
C19 C 0.4434(10) 0.5091(13) 0.8639(13)
H20 H 0.4338 0.4841 0.9053
H21 H 0.4680 0.5624 0.8953
C20 C 0.3853(8) 0.5338(10) 0.7732(16)
H22 H 0.3945 0.5663 0.7346
H23 H 0.3618 0.5726 0.7855
C21 C 0.3445(6) 0.4521(8) 0.7153(12)
H24 H 0.3265 0.4281 0.7456
H25 H 0.3102 0.4701 0.6498
C22 C 0.2188(5) -0.0325(7) 0.5622(7)
C23 C 0.1764(5) -0.1117(8) 0.5314(11)
H26 H 0.1909 -0.1360 0.5944
C24 C 0.1945(6) -0.1825(10) 0.4947(14)
H27 H 0.2392 -0.1948 0.5413
H28 H 0.1864 -0.1641 0.4344
C25 C 0.1550(7) -0.2691(10) 0.4773(16)
H29 H 0.1632 -0.3133 0.4454
H30 H 0.1693 -0.2930 0.5396
C26 C 0.0928(7) -0.2546(10) 0.4234(12)
H31 H 0.0714 -0.3095 0.4160
H32 H 0.0777 -0.2346 0.3593
C27 C 0.0789(8) -0.1909(9) 0.4665(13)
H33 H 0.0905 -0.2140 0.5276
H34 H 0.0338 -0.1806 0.4248
C28 C 0.1119(7) -0.1045(9) 0.4848(15)
H35 H 0.0928 -0.0747 0.4231
H36 H 0.1053 -0.0674 0.5238
O1 O 0.4264(3) -0.0083(5) 1.0366(5)
O2 O 0.0524(3) 0.3409(5) 0.6285(6)
O3 O 0.3099(4) 0.2706(4) 0.6880(5)
O4 O 0.3544(6) 0.2519(7) 0.6182(9)
O5 O 0.1968(3) 0.0403(4) 0.5738(4)
O6 O 0.2686(4) -0.0325(5) 0.5747(6)
Te1 Te 0.25732(3) 0.15224(4) 0.61891(4)
loop_
_geom_bond_atom_site_label_1
_geom_bond_atom_site_label_2
_geom_bond_site_symmetry_1
_geom_bond_site_symmetry_2
C1 C2 1_555 1_555
C2 H1 1_555 1_555
C3 C2 1_555 1_555
H2 C3 1_555 1_555
C4 C3 1_555 1_555
C5 C4 1_555 1_555
H3 C5 1_555 1_555
C6 C1 1_555 1_555
H4 C6 1_555 1_555
C7 H5 1_555 1_555
H6 C7 1_555 1_555
H7 C7 1_555 1_555
C8 C9 1_555 1_555
C9 H8 1_555 1_555
C10 C9 1_555 1_555
H9 C10 1_555 1_555
C11 C10 1_555 1_555
C12 C11 1_555 1_555
H10 C12 1_555 1_555
C13 C8 1_555 1_555
H11 C13 1_555 1_555
C14 H12 1_555 1_555
H13 C14 1_555 1_555
H14 C14 1_555 1_555
C15 C16 1_555 1_555
C16 H15 1_555 1_555
C17 C16 1_555 1_555
H16 C17 1_555 1_555
H17 C17 1_555 1_555
C18 C17 1_555 1_555
H18 C18 1_555 1_555
H19 C18 1_555 1_555
C19 C18 1_555 1_555
H20 C19 1_555 1_555
H21 C19 1_555 1_555
C20 C19 1_555 1_555
H22 C20 1_555 1_555
H23 C20 1_555 1_555
C21 C16 1_555 1_555
H24 C21 1_555 1_555
H25 C21 1_555 1_555
C22 C23 1_555 1_555
C23 H26 1_555 1_555
C24 C23 1_555 1_555
H27 C24 1_555 1_555
H28 C24 1_555 1_555
C25 C24 1_555 1_555
H29 C25 1_555 1_555
H30 C25 1_555 1_555
C26 C25 1_555 1_555
H31 C26 1_555 1_555
H32 C26 1_555 1_555
C27 C26 1_555 1_555
H33 C27 1_555 1_555
H34 C27 1_555 1_555
C28 C23 1_555 1_555
H35 C28 1_555 1_555
H36 C28 1_555 1_555
O1 C4 1_555 1_555
O2 C11 1_555 1_555
O3 C15 1_555 1_555
O4 C15 1_555 1_555
O5 C22 1_555 1_555
O6 C22 1_555 1_555
Te1 C1 1_555 1_555
C5 C6 1_555 1_555
C7 O1 1_555 1_555
C8 Te1 1_555 1_555
C12 C13 1_555 1_555
C14 O2 1_555 1_555
C20 C21 1_555 1_555
C27 C28 1_555 1_555
O3 Te1 1_555 1_555
O5 Te1 1_555 1_555

#END
