
#######################################################################
#
#                 Cambridge Crystallographic Data Centre
#                                CCDC 
#
#######################################################################
#
# If this CIF has been generated from an entry in the Cambridge 
# Structural Database, then it will include bibliographic, chemical, 
# crystal, experimental, refinement or atomic coordinate data resulting 
# from the CCDC's data processing and validation procedures.
#
#######################################################################

data_NEWBAV
_chemical_formula_moiety         'C21 H27 N1 O2'
_chemical_name_systematic        
8,10b-dimethyl-1,3,4,4a,5,7,8,9,10,10a,10b,11,12,12a-tetradecahydro-2H-9,10c-methanocyclopenta[1,8]azuleno[4,5-a]indolizine-2,13-dione
_symmetry_cell_setting           monoclinic
_symmetry_space_group_name_H-M   'P 21/n'
_symmetry_Int_Tables_number      14
_space_group_name_Hall           '-P 2yn'
loop_
_symmetry_equiv_pos_site_id
_symmetry_equiv_pos_as_xyz
1 x,y,z
2 1/2-x,1/2+y,1/2-z
3 -x,-y,-z
4 1/2+x,1/2-y,1/2+z
_cell_length_a                   7.1931(3)
_cell_length_b                   12.4603(5)
_cell_length_c                   18.5510(8)
_cell_angle_alpha                90
_cell_angle_beta                 92.526(2)
_cell_angle_gamma                90
_cell_volume                     1661.08
_exptl_crystal_colour            colorless
_exptl_crystal_description       block
_cell_formula_units_Z            4
loop_
_atom_site_label
_atom_site_type_symbol
_atom_site_fract_x
_atom_site_fract_y
_atom_site_fract_z
O1 O 0.86860(14) 0.44948(8) 0.23746(6)
C1 C 0.5261(3) 0.38116(14) 0.07630(8)
H1 H 0.4856 0.4507 0.0551
H2 H 0.5012 0.3252 0.0393
N1 N 0.4131(2) 0.35847(11) 0.13773(7)
O2 O 0.68242(16) 0.56636(9) 0.49168(6)
C2 C 0.7371(3) 0.38614(13) 0.09305(8)
H3 H 0.7700 0.4605 0.1094
C3 C 0.6461(2) 0.21439(11) 0.15309(8)
H4 H 0.6298 0.1863 0.1033
H5 H 0.6907 0.1553 0.1851
C4 C 0.7853(2) 0.30732(12) 0.15581(8)
H6 H 0.9130 0.2780 0.1497
C5 C 0.4630(2) 0.25894(12) 0.17837(8)
H7 H 0.3631 0.2043 0.1689
C6 C 0.46663(19) 0.29047(11) 0.26000(7)
C7 C 0.67390(19) 0.31354(10) 0.28762(7)
C8 C 0.78238(19) 0.36632(11) 0.22792(8)
C9 C 0.3870(2) 0.44685(12) 0.18798(8)
H8 H 0.2860 0.4954 0.1702
H9 H 0.5029 0.4888 0.1959
C10 C 0.33548(19) 0.39012(11) 0.25584(8)
H10 H 0.2105 0.3587 0.2430
C11 C 0.3007(2) 0.45963(12) 0.32171(8)
H11 H 0.1920 0.5062 0.3098
H12 H 0.2660 0.4117 0.3615
C12 C 0.4606(2) 0.53098(11) 0.34955(8)
H13 H 0.5070 0.5739 0.3092
H14 H 0.4149 0.5813 0.3861
C13 C 0.61604(19) 0.46562(11) 0.38233(7)
C14 C 0.69847(19) 0.37931(11) 0.35549(7)
C15 C 0.8497(2) 0.33299(13) 0.40521(8)
H15 H 0.9733 0.3561 0.3881
C16 C 0.8266(2) 0.21374(13) 0.39171(8)
H16 H 0.7208 0.1845 0.4178
H17 H 0.9411 0.1739 0.4066
C17 C 0.7889(2) 0.20804(11) 0.30992(8)
H18 H 0.7160 0.1429 0.2969
H19 H 0.9074 0.2057 0.2848
C18 C 0.8173(2) 0.38751(13) 0.47704(8)
H20 H 0.9367 0.4088 0.5016
H21 H 0.7490 0.3397 0.5093
C19 C 0.7011(2) 0.48578(12) 0.45560(8)
C20 C 0.8455(4) 0.36036(17) 0.02591(10)
H22 H 0.8206 0.2861 0.0110
H23 H 0.9791 0.3693 0.0371
H24 H 0.8064 0.4091 -0.0133
C21 C 0.3811(2) 0.20374(12) 0.30650(9)
H25 H 0.2494 0.1947 0.2919
H26 H 0.3922 0.2251 0.3573
H27 H 0.4469 0.1358 0.3000
loop_
_geom_bond_atom_site_label_1
_geom_bond_atom_site_label_2
_geom_bond_site_symmetry_1
_geom_bond_site_symmetry_2
O1 C8 1_555 1_555
C1 H1 1_555 1_555
H2 C1 1_555 1_555
N1 C1 1_555 1_555
O2 C19 1_555 1_555
C2 C1 1_555 1_555
H3 C2 1_555 1_555
C3 H4 1_555 1_555
H5 C3 1_555 1_555
C4 C2 1_555 1_555
H6 C4 1_555 1_555
C5 N1 1_555 1_555
H7 C5 1_555 1_555
C6 C5 1_555 1_555
C7 C6 1_555 1_555
C8 C4 1_555 1_555
C9 N1 1_555 1_555
H8 C9 1_555 1_555
H9 C9 1_555 1_555
C10 C6 1_555 1_555
H10 C10 1_555 1_555
C11 C10 1_555 1_555
H11 C11 1_555 1_555
H12 C11 1_555 1_555
C12 C11 1_555 1_555
H13 C12 1_555 1_555
H14 C12 1_555 1_555
C13 C12 1_555 1_555
C14 C7 1_555 1_555
C15 C14 1_555 1_555
H15 C15 1_555 1_555
C16 C15 1_555 1_555
H16 C16 1_555 1_555
H17 C16 1_555 1_555
C17 C7 1_555 1_555
H18 C17 1_555 1_555
H19 C17 1_555 1_555
C18 C15 1_555 1_555
H20 C18 1_555 1_555
H21 C18 1_555 1_555
C19 C13 1_555 1_555
C20 C2 1_555 1_555
H22 C20 1_555 1_555
H23 C20 1_555 1_555
H24 C20 1_555 1_555
C21 C6 1_555 1_555
H25 C21 1_555 1_555
H26 C21 1_555 1_555
H27 C21 1_555 1_555
C3 C4 1_555 1_555
C3 C5 1_555 1_555
C7 C8 1_555 1_555
C9 C10 1_555 1_555
C13 C14 1_555 1_555
C16 C17 1_555 1_555
C18 C19 1_555 1_555

#END
