
#######################################################################
#
#                 Cambridge Crystallographic Data Centre
#                                CCDC 
#
#######################################################################
#
# If this CIF has been generated from an entry in the Cambridge 
# Structural Database, then it will include bibliographic, chemical, 
# crystal, experimental, refinement or atomic coordinate data resulting 
# from the CCDC's data processing and validation procedures.
#
#######################################################################

data_NEWBEZ
_chemical_formula_moiety         'C16 H23 N1 O2'
_chemical_name_systematic        
3,11a-dimethyldodecahydro-6H-2,11-methanocyclohepta[a]indolizine-6,12-dione
_symmetry_cell_setting           orthorhombic
_symmetry_space_group_name_H-M   'P 21 21 21'
_symmetry_Int_Tables_number      19
_space_group_name_Hall           'P 2ac 2ab'
loop_
_symmetry_equiv_pos_site_id
_symmetry_equiv_pos_as_xyz
1 x,y,z
2 1/2-x,-y,1/2+z
3 -x,1/2+y,1/2-z
4 1/2+x,1/2-y,-z
_cell_length_a                   6.4947(11)
_cell_length_b                   11.5754(18)
_cell_length_c                   18.929(3)
_cell_angle_alpha                90
_cell_angle_beta                 90
_cell_angle_gamma                90
_cell_volume                     1423.06
_exptl_crystal_colour            colorless
_exptl_crystal_description       block
_cell_formula_units_Z            4
loop_
_atom_site_label
_atom_site_type_symbol
_atom_site_fract_x
_atom_site_fract_y
_atom_site_fract_z
O1 O 0.4765(4) 0.72160(19) 0.61410(11)
N1 N 0.6848(3) 0.64002(14) 0.52991(10)
C1 C 0.5407(4) 0.63173(18) 0.47170(13)
H1 H 0.6032 0.6636 0.4295
H2 H 0.4189 0.6770 0.4825
O2 O 0.6663(4) 0.24715(14) 0.53198(12)
C2 C 0.4778(3) 0.5058(2) 0.45781(12)
H3 H 0.3737 0.4843 0.4929
C3 C 0.6634(4) 0.42144(18) 0.46578(13)
H4 H 0.6628 0.3678 0.4257
C4 C 0.6673(4) 0.35189(19) 0.53357(14)
C5 C 0.6794(4) 0.4188(2) 0.60256(13)
H5 H 0.5522 0.4642 0.6049
C6 C 0.8583(3) 0.50907(19) 0.60238(13)
C7 C 0.8688(3) 0.56663(18) 0.52894(13)
H6 H 0.9914 0.6159 0.5268
C8 C 0.8665(4) 0.4880(2) 0.46533(14)
H7 H 0.9815 0.4347 0.4674
H8 H 0.8781 0.5332 0.4223
C9 C 0.6721(6) 0.3376(3) 0.66612(16)
H9 H 0.7880 0.2851 0.6629
H10 H 0.5476 0.2916 0.6628
C10 C 0.6767(7) 0.3955(4) 0.73953(18)
H11 H 0.6032 0.3462 0.7724
H12 H 0.8188 0.3992 0.7552
C11 C 0.5858(6) 0.5160(4) 0.74411(17)
H13 H 0.4650 0.5198 0.7141
H14 H 0.5415 0.5300 0.7923
C12 C 0.7332(5) 0.6102(3) 0.72252(15)
H15 H 0.8578 0.6011 0.7502
H16 H 0.6725 0.6836 0.7357
C13 C 0.7951(4) 0.6178(2) 0.64536(14)
H17 H 0.9125 0.6708 0.6433
C14 C 0.6309(4) 0.6680(2) 0.59670(14)
C15 C 0.3796(4) 0.4981(2) 0.38504(13)
H18 H 0.4818 0.5131 0.3495
H19 H 0.2713 0.5542 0.3813
H20 H 0.3238 0.4221 0.3783
C16 C 1.0656(4) 0.4571(3) 0.62283(17)
H21 H 1.0952 0.3925 0.5927
H22 H 1.0607 0.4317 0.6711
H23 H 1.1714 0.5144 0.6176
loop_
_geom_bond_atom_site_label_1
_geom_bond_atom_site_label_2
_geom_bond_site_symmetry_1
_geom_bond_site_symmetry_2
O1 C14 1_555 1_555
N1 C1 1_555 1_555
C1 H1 1_555 1_555
H2 C1 1_555 1_555
O2 C4 1_555 1_555
C2 C1 1_555 1_555
H3 C2 1_555 1_555
C3 C2 1_555 1_555
H4 C3 1_555 1_555
C4 C3 1_555 1_555
C5 C4 1_555 1_555
H5 C5 1_555 1_555
C6 C5 1_555 1_555
C7 N1 1_555 1_555
H6 C7 1_555 1_555
C8 C3 1_555 1_555
H7 C8 1_555 1_555
H8 C8 1_555 1_555
C9 C5 1_555 1_555
H9 C9 1_555 1_555
H10 C9 1_555 1_555
C10 C9 1_555 1_555
H11 C10 1_555 1_555
H12 C10 1_555 1_555
C11 C10 1_555 1_555
H13 C11 1_555 1_555
H14 C11 1_555 1_555
C12 C11 1_555 1_555
H15 C12 1_555 1_555
H16 C12 1_555 1_555
C13 C6 1_555 1_555
H17 C13 1_555 1_555
C14 N1 1_555 1_555
C15 C2 1_555 1_555
H18 C15 1_555 1_555
H19 C15 1_555 1_555
H20 C15 1_555 1_555
C16 C6 1_555 1_555
H21 C16 1_555 1_555
H22 C16 1_555 1_555
H23 C16 1_555 1_555
C6 C7 1_555 1_555
C7 C8 1_555 1_555
C12 C13 1_555 1_555
C13 C14 1_555 1_555

#END
