
#######################################################################
#
#                 Cambridge Crystallographic Data Centre
#                                CCDC 
#
#######################################################################
#
# If this CIF has been generated from an entry in the Cambridge 
# Structural Database, then it will include bibliographic, chemical, 
# crystal, experimental, refinement or atomic coordinate data resulting 
# from the CCDC's data processing and validation procedures.
#
#######################################################################

data_NEWFUS
_chemical_formula_moiety         'C80 H136 Li4 N2 O10'
_chemical_name_systematic        
"bis(\m~2~-2,2'-((t-Butylimino)bis(methylene))bis(4,6-di-tert-butylphenolato))-(\m~2~-1,2-dimethoxyethane)-bis(1,2-dimethoxyethane)-tetra-lithium(i) unknown solvate"
_symmetry_cell_setting           triclinic
_symmetry_space_group_name_H-M   'P -1'
_symmetry_Int_Tables_number      2
_space_group_name_Hall           '-P 1'
loop_
_symmetry_equiv_pos_site_id
_symmetry_equiv_pos_as_xyz
1 x,y,z
2 -x,-y,-z
_cell_length_a                   9.676(2)
_cell_length_b                   14.796(4)
_cell_length_c                   16.670(3)
_cell_angle_alpha                79.263(9)
_cell_angle_beta                 74.243(8)
_cell_angle_gamma                82.123(9)
_cell_volume                     2247.23
_exptl_crystal_colour            colorless
_exptl_crystal_description       prism
_cell_formula_units_Z            1
loop_
_atom_site_label
_atom_site_type_symbol
_atom_site_fract_x
_atom_site_fract_y
_atom_site_fract_z
C1 C -0.0429(4) 0.2197(2) 0.52800(19)
C2 C -0.0079(4) 0.2126(2) 0.6077(2)
C3 C 0.1432(4) 0.1741(3) 0.6188(2)
C4 C 0.1756(4) 0.0754(3) 0.5973(2)
H1 H 0.2721 0.0507 0.6033
H2 H 0.1713 0.0766 0.5390
H3 H 0.1040 0.0361 0.6357
C5 C 0.2579(4) 0.2355(3) 0.5606(3)
H4 H 0.3532 0.2103 0.5685
H5 H 0.2368 0.2983 0.5745
H6 H 0.2570 0.2371 0.5017
C6 C 0.1545(4) 0.1690(3) 0.7095(2)
H7 H 0.2526 0.1453 0.7132
H8 H 0.0858 0.1276 0.7478
H9 H 0.1324 0.2309 0.7255
C7 C -0.1168(4) 0.2371(2) 0.6757(2)
H10 H -0.0929 0.2335 0.7280
C8 C -0.2595(4) 0.2668(2) 0.67280(19)
C9 C -0.3731(4) 0.2893(2) 0.7525(2)
C10 C -0.3183(5) 0.3536(3) 0.7959(2)
H11 H -0.2287 0.3249 0.8100
H12 H -0.3909 0.3651 0.8477
H13 H -0.3000 0.4122 0.7580
C11 C -0.4036(6) 0.2004(3) 0.8144(3)
H14 H -0.3137 0.1706 0.8274
H15 H -0.4438 0.1587 0.7892
H16 H -0.4729 0.2148 0.8664
C12 C -0.5109(5) 0.3356(4) 0.7320(3)
H17 H -0.5813 0.3486 0.7841
H18 H -0.5498 0.2947 0.7053
H19 H -0.4911 0.3936 0.6933
C13 C -0.2901(3) 0.2711(2) 0.59494(19)
H20 H -0.3856 0.2903 0.5900
C14 C -0.1859(3) 0.2484(2) 0.52491(18)
C15 C -0.2297(3) 0.2424(2) 0.44559(19)
H21 H -0.2110 0.1773 0.4360
H22 H -0.3350 0.2590 0.4557
C16 C -0.2432(3) 0.3914(2) 0.3441(2)
C17 C -0.3086(4) 0.4353(2) 0.4231(2)
H23 H -0.3738 0.3940 0.4644
H24 H -0.3625 0.4944 0.4085
H25 H -0.2315 0.4458 0.4472
C18 C -0.3658(4) 0.3790(3) 0.3057(2)
H26 H -0.3254 0.3505 0.2547
H27 H -0.4163 0.4394 0.2911
H28 H -0.4337 0.3391 0.3468
C19 C -0.1423(4) 0.4581(2) 0.2821(2)
H29 H -0.0982 0.4317 0.2303
H30 H -0.0667 0.4683 0.3075
H31 H -0.1974 0.5171 0.2686
C20 C -0.1147(3) 0.2407(2) 0.29868(19)
H32 H -0.0705 0.1810 0.3225
H33 H -0.2047 0.2280 0.2871
C21 C -0.0138(3) 0.2742(2) 0.21533(19)
C22 C -0.0598(4) 0.2835(2) 0.14175(19)
H34 H -0.1574 0.2752 0.1463
C23 C 0.0307(4) 0.3042(2) 0.0628(2)
C24 C -0.0251(4) 0.3176(3) -0.0169(2)
C25 C -0.1325(5) 0.4027(3) -0.0173(3)
H35 H -0.1682 0.4117 -0.0682
H36 H -0.0851 0.4570 -0.0169
H37 H -0.2135 0.3943 0.0328
C26 C -0.1002(5) 0.2321(3) -0.0168(3)
H38 H -0.0308 0.1773 -0.0169
H39 H -0.1371 0.2411 -0.0672
H40 H -0.1804 0.2238 0.0338
C27 C 0.0964(5) 0.3302(4) -0.0978(2)
H41 H 0.1662 0.2755 -0.0986
H42 H 0.1448 0.3849 -0.0997
H43 H 0.0560 0.3383 -0.1469
C28 C 0.1723(4) 0.3150(2) 0.0607(2)
H44 H 0.2376 0.3288 0.0070
C29 C 0.2254(3) 0.3072(2) 0.13177(19)
C30 C 0.3831(4) 0.3210(3) 0.1225(2)
C31 C 0.4679(4) 0.3391(3) 0.0291(2)
H45 H 0.4655 0.2863 0.0018
H46 H 0.5681 0.3475 0.0257
H47 H 0.4239 0.3949 0.0004
C32 C 0.4606(4) 0.2380(3) 0.1648(3)
H48 H 0.4557 0.1833 0.1407
H49 H 0.4146 0.2279 0.2255
H50 H 0.5617 0.2489 0.1558
C33 C 0.3893(4) 0.4065(3) 0.1599(2)
H51 H 0.4901 0.4157 0.1541
H52 H 0.3379 0.3979 0.2197
H53 H 0.3439 0.4606 0.1298
C34 C 0.1295(3) 0.2859(2) 0.21211(19)
C35 C 0.1778(5) 0.0426(3) 0.2323(3)
H54 H 0.1283 0.0950 0.2026
H55 H 0.1442 -0.0151 0.2269
H56 H 0.2820 0.0418 0.2075
C36 C 0.2174(5) -0.0212(3) 0.3675(3)
H57 H 0.2190 -0.0803 0.3475
H58 H 0.1630 -0.0275 0.4275
C37 C 0.3690(5) -0.0015(3) 0.3597(3)
H59 H 0.4122 -0.0469 0.3999
H60 H 0.4290 -0.0054 0.3018
C38 C 0.4961(4) 0.1150(3) 0.3787(3)
H61 H 0.4839 0.1778 0.3920
H62 H 0.5629 0.1129 0.3230
H63 H 0.5350 0.0722 0.4214
C39 C 0.2419(4) 0.4386(3) 0.4004(2)
H64 H 0.2858 0.4164 0.3465
H65 H 0.2950 0.4083 0.4420
H66 H 0.2456 0.5056 0.3927
C40 C 0.0220(4) 0.4492(2) 0.5087(2)
H67 H 0.0870 0.4377 0.5470
H68 H -0.0642 0.4153 0.5364
N1 N -0.1563(3) 0.30185(18) 0.36627(15)
O1 O 0.0548(2) 0.20075(15) 0.45950(13)
O2 O 0.1694(2) 0.27629(14) 0.28449(12)
O3 O 0.1470(3) 0.05125(17) 0.31917(16)
O4 O 0.3613(3) 0.08897(16) 0.37840(15)
O5 O 0.0954(2) 0.41748(16) 0.42955(14)
Li1 Li 0.1742(6) 0.1643(4) 0.3620(3)
Li2 Li 0.0435(6) 0.3152(4) 0.3814(3)
C39A C -0.2419(4) 0.5614(3) 0.5996(2)
H64A H -0.2858 0.5836 0.6535
H65A H -0.2950 0.5917 0.5580
H66A H -0.2456 0.4944 0.6073
C40A C -0.0220(4) 0.5508(2) 0.4913(2)
H67A H -0.0870 0.5623 0.4530
H68A H 0.0642 0.5847 0.4636
O5A O -0.0954(2) 0.58252(16) 0.57045(14)
C1A C 0.0429(4) 0.7803(2) 0.47200(19)
C2A C 0.0079(4) 0.7874(2) 0.3923(2)
C3A C -0.1432(4) 0.8259(3) 0.3812(2)
C4A C -0.1756(4) 0.9246(3) 0.4027(2)
H1A H -0.2721 0.9493 0.3967
H2A H -0.1713 0.9234 0.4610
H3A H -0.1040 0.9639 0.3643
C5A C -0.2579(4) 0.7645(3) 0.4394(3)
H4A H -0.3532 0.7897 0.4315
H5A H -0.2368 0.7017 0.4255
H6A H -0.2570 0.7629 0.4983
C6A C -0.1545(4) 0.8310(3) 0.2905(2)
H7A H -0.2526 0.8547 0.2868
H8A H -0.0858 0.8724 0.2522
H9A H -0.1324 0.7691 0.2745
C7A C 0.1168(4) 0.7629(2) 0.3243(2)
H10A H 0.0929 0.7665 0.2720
C8A C 0.2595(4) 0.7332(2) 0.32720(19)
C9A C 0.3731(4) 0.7107(2) 0.2475(2)
C10A C 0.3183(5) 0.6464(3) 0.2041(2)
H11A H 0.2287 0.6751 0.1900
H12A H 0.3909 0.6349 0.1523
H13A H 0.3000 0.5878 0.2420
C11A C 0.4036(6) 0.7996(3) 0.1856(3)
H14A H 0.3137 0.8294 0.1726
H15A H 0.4438 0.8413 0.2108
H16A H 0.4729 0.7852 0.1336
C12A C 0.5109(5) 0.6644(4) 0.2680(3)
H17A H 0.5813 0.6514 0.2159
H18A H 0.5498 0.7053 0.2947
H19A H 0.4911 0.6064 0.3067
C13A C 0.2901(3) 0.7289(2) 0.40506(19)
H20A H 0.3856 0.7097 0.4100
C14A C 0.1859(3) 0.7516(2) 0.47509(18)
C15A C 0.2297(3) 0.7576(2) 0.55441(19)
H21A H 0.2110 0.8227 0.5640
H22A H 0.3350 0.7410 0.5443
C16A C 0.2432(3) 0.6086(2) 0.6559(2)
C17A C 0.3086(4) 0.5647(2) 0.5769(2)
H23A H 0.3738 0.6060 0.5356
H24A H 0.3625 0.5056 0.5915
H25A H 0.2315 0.5542 0.5528
C18A C 0.3658(4) 0.6210(3) 0.6943(2)
H26A H 0.3254 0.6495 0.7453
H27A H 0.4163 0.5606 0.7089
H28A H 0.4337 0.6609 0.6532
C19A C 0.1423(4) 0.5419(2) 0.7179(2)
H29A H 0.0982 0.5683 0.7697
H30A H 0.0667 0.5317 0.6925
H31A H 0.1974 0.4829 0.7314
C20A C 0.1147(3) 0.7593(2) 0.70132(19)
H32A H 0.0705 0.8190 0.6775
H33A H 0.2047 0.7720 0.7129
C21A C 0.0138(3) 0.7258(2) 0.78467(19)
C22A C 0.0598(4) 0.7165(2) 0.85825(19)
H34A H 0.1574 0.7248 0.8537
C23A C -0.0307(4) 0.6958(2) 0.9372(2)
C24A C 0.0251(4) 0.6824(3) 1.0169(2)
C25A C 0.1325(5) 0.5973(3) 1.0173(3)
H35A H 0.1682 0.5883 1.0682
H36A H 0.0851 0.5430 1.0169
H37A H 0.2135 0.6057 0.9672
C26A C 0.1002(5) 0.7679(3) 1.0168(3)
H38A H 0.0308 0.8227 1.0169
H39A H 0.1371 0.7589 1.0672
H40A H 0.1804 0.7762 0.9662
C27A C -0.0964(5) 0.6698(4) 1.0978(2)
H41A H -0.1662 0.7245 1.0986
H42A H -0.1448 0.6151 1.0997
H43A H -0.0560 0.6617 1.1469
C28A C -0.1723(4) 0.6850(2) 0.9393(2)
H44A H -0.2376 0.6712 0.9930
C29A C -0.2254(3) 0.6928(2) 0.86823(19)
C30A C -0.3831(4) 0.6790(3) 0.8775(2)
C31A C -0.4679(4) 0.6609(3) 0.9709(2)
H45A H -0.4655 0.7137 0.9982
H46A H -0.5681 0.6525 0.9743
H47A H -0.4239 0.6051 0.9996
C32A C -0.4606(4) 0.7620(3) 0.8352(3)
H48A H -0.4557 0.8167 0.8593
H49A H -0.4146 0.7721 0.7745
H50A H -0.5617 0.7511 0.8442
C33A C -0.3893(4) 0.5935(3) 0.8401(2)
H51A H -0.4901 0.5843 0.8459
H52A H -0.3379 0.6021 0.7803
H53A H -0.3439 0.5394 0.8702
C34A C -0.1295(3) 0.7141(2) 0.78789(19)
C35A C -0.1778(5) 0.9574(3) 0.7677(3)
H54A H -0.1283 0.9050 0.7974
H55A H -0.1442 1.0151 0.7731
H56A H -0.2820 0.9582 0.7925
C36A C -0.2174(5) 1.0212(3) 0.6325(3)
H57A H -0.2190 1.0803 0.6525
H58A H -0.1630 1.0275 0.5725
C37A C -0.3690(5) 1.0015(3) 0.6403(3)
H59A H -0.4122 1.0469 0.6001
H60A H -0.4290 1.0054 0.6982
C38A C -0.4961(4) 0.8850(3) 0.6213(3)
H61A H -0.4839 0.8222 0.6080
H62A H -0.5629 0.8871 0.6770
H63A H -0.5350 0.9278 0.5786
N1A N 0.1563(3) 0.69815(18) 0.63373(15)
O1A O -0.0548(2) 0.79925(15) 0.54050(13)
O2A O -0.1694(2) 0.72371(14) 0.71551(12)
O3A O -0.1470(3) 0.94875(17) 0.68083(16)
O4A O -0.3613(3) 0.91103(16) 0.62160(15)
Li1A Li -0.1742(6) 0.8357(4) 0.6380(3)
Li2A Li -0.0435(6) 0.6848(4) 0.6186(3)
loop_
_geom_bond_atom_site_label_1
_geom_bond_atom_site_label_2
_geom_bond_site_symmetry_1
_geom_bond_site_symmetry_2
C1 C2 1_555 1_555
C2 C3 1_555 1_555
C3 C4 1_555 1_555
C4 H1 1_555 1_555
H2 C4 1_555 1_555
H3 C4 1_555 1_555
C5 C3 1_555 1_555
H4 C5 1_555 1_555
H5 C5 1_555 1_555
H6 C5 1_555 1_555
C6 C3 1_555 1_555
H7 C6 1_555 1_555
H8 C6 1_555 1_555
H9 C6 1_555 1_555
C7 C2 1_555 1_555
H10 C7 1_555 1_555
C8 C7 1_555 1_555
C9 C8 1_555 1_555
C10 C9 1_555 1_555
H11 C10 1_555 1_555
H12 C10 1_555 1_555
H13 C10 1_555 1_555
C11 C9 1_555 1_555
H14 C11 1_555 1_555
H15 C11 1_555 1_555
H16 C11 1_555 1_555
C12 C9 1_555 1_555
H17 C12 1_555 1_555
H18 C12 1_555 1_555
H19 C12 1_555 1_555
C13 C8 1_555 1_555
H20 C13 1_555 1_555
C14 C1 1_555 1_555
C15 C14 1_555 1_555
H21 C15 1_555 1_555
H22 C15 1_555 1_555
C16 C17 1_555 1_555
C17 H23 1_555 1_555
H24 C17 1_555 1_555
H25 C17 1_555 1_555
C18 C16 1_555 1_555
H26 C18 1_555 1_555
H27 C18 1_555 1_555
H28 C18 1_555 1_555
C19 C16 1_555 1_555
H29 C19 1_555 1_555
H30 C19 1_555 1_555
H31 C19 1_555 1_555
C20 H32 1_555 1_555
H33 C20 1_555 1_555
C21 C20 1_555 1_555
C22 C21 1_555 1_555
H34 C22 1_555 1_555
C23 C22 1_555 1_555
C24 C23 1_555 1_555
C25 C24 1_555 1_555
H35 C25 1_555 1_555
H36 C25 1_555 1_555
H37 C25 1_555 1_555
C26 C24 1_555 1_555
H38 C26 1_555 1_555
H39 C26 1_555 1_555
H40 C26 1_555 1_555
C27 C24 1_555 1_555
H41 C27 1_555 1_555
H42 C27 1_555 1_555
H43 C27 1_555 1_555
C28 C23 1_555 1_555
H44 C28 1_555 1_555
C29 C28 1_555 1_555
C30 C29 1_555 1_555
C31 C30 1_555 1_555
H45 C31 1_555 1_555
H46 C31 1_555 1_555
H47 C31 1_555 1_555
C32 C30 1_555 1_555
H48 C32 1_555 1_555
H49 C32 1_555 1_555
H50 C32 1_555 1_555
C33 C30 1_555 1_555
H51 C33 1_555 1_555
H52 C33 1_555 1_555
H53 C33 1_555 1_555
C34 C21 1_555 1_555
C35 H54 1_555 1_555
H55 C35 1_555 1_555
H56 C35 1_555 1_555
C36 H57 1_555 1_555
H58 C36 1_555 1_555
C37 C36 1_555 1_555
H59 C37 1_555 1_555
H60 C37 1_555 1_555
C38 H61 1_555 1_555
H62 C38 1_555 1_555
H63 C38 1_555 1_555
C39 H64 1_555 1_555
H65 C39 1_555 1_555
H66 C39 1_555 1_555
C40 H67 1_555 1_555
H68 C40 1_555 1_555
N1 C15 1_555 1_555
O1 C1 1_555 1_555
O2 C34 1_555 1_555
O3 C35 1_555 1_555
O4 C37 1_555 1_555
O5 C39 1_555 1_555
Li1 O1 1_555 1_555
Li2 N1 1_555 1_555
C39A H64A 1_555 1_555
H65A C39A 1_555 1_555
H66A C39A 1_555 1_555
C40A C40 1_555 1_555
H67A C40A 1_555 1_555
H68A C40A 1_555 1_555
O5A C39A 1_555 1_555
C1A C2A 1_555 1_555
C2A C3A 1_555 1_555
C3A C4A 1_555 1_555
C4A H1A 1_555 1_555
H2A C4A 1_555 1_555
H3A C4A 1_555 1_555
C5A C3A 1_555 1_555
H4A C5A 1_555 1_555
H5A C5A 1_555 1_555
H6A C5A 1_555 1_555
C6A C3A 1_555 1_555
H7A C6A 1_555 1_555
H8A C6A 1_555 1_555
H9A C6A 1_555 1_555
C7A C2A 1_555 1_555
H10A C7A 1_555 1_555
C8A C7A 1_555 1_555
C9A C8A 1_555 1_555
C10A C9A 1_555 1_555
H11A C10A 1_555 1_555
H12A C10A 1_555 1_555
H13A C10A 1_555 1_555
C11A C9A 1_555 1_555
H14A C11A 1_555 1_555
H15A C11A 1_555 1_555
H16A C11A 1_555 1_555
C12A C9A 1_555 1_555
H17A C12A 1_555 1_555
H18A C12A 1_555 1_555
H19A C12A 1_555 1_555
C13A C8A 1_555 1_555
H20A C13A 1_555 1_555
C14A C1A 1_555 1_555
C15A C14A 1_555 1_555
H21A C15A 1_555 1_555
H22A C15A 1_555 1_555
C16A C17A 1_555 1_555
C17A H23A 1_555 1_555
H24A C17A 1_555 1_555
H25A C17A 1_555 1_555
C18A C16A 1_555 1_555
H26A C18A 1_555 1_555
H27A C18A 1_555 1_555
H28A C18A 1_555 1_555
C19A C16A 1_555 1_555
H29A C19A 1_555 1_555
H30A C19A 1_555 1_555
H31A C19A 1_555 1_555
C20A H32A 1_555 1_555
H33A C20A 1_555 1_555
C21A C20A 1_555 1_555
C22A C21A 1_555 1_555
H34A C22A 1_555 1_555
C23A C22A 1_555 1_555
C24A C23A 1_555 1_555
C25A C24A 1_555 1_555
H35A C25A 1_555 1_555
H36A C25A 1_555 1_555
H37A C25A 1_555 1_555
C26A C24A 1_555 1_555
H38A C26A 1_555 1_555
H39A C26A 1_555 1_555
H40A C26A 1_555 1_555
C27A C24A 1_555 1_555
H41A C27A 1_555 1_555
H42A C27A 1_555 1_555
H43A C27A 1_555 1_555
C28A C23A 1_555 1_555
H44A C28A 1_555 1_555
C29A C28A 1_555 1_555
C30A C29A 1_555 1_555
C31A C30A 1_555 1_555
H45A C31A 1_555 1_555
H46A C31A 1_555 1_555
H47A C31A 1_555 1_555
C32A C30A 1_555 1_555
H48A C32A 1_555 1_555
H49A C32A 1_555 1_555
H50A C32A 1_555 1_555
C33A C30A 1_555 1_555
H51A C33A 1_555 1_555
H52A C33A 1_555 1_555
H53A C33A 1_555 1_555
C34A C21A 1_555 1_555
C35A H54A 1_555 1_555
H55A C35A 1_555 1_555
H56A C35A 1_555 1_555
C36A H57A 1_555 1_555
H58A C36A 1_555 1_555
C37A C36A 1_555 1_555
H59A C37A 1_555 1_555
H60A C37A 1_555 1_555
C38A H61A 1_555 1_555
H62A C38A 1_555 1_555
H63A C38A 1_555 1_555
N1A C15A 1_555 1_555
O1A C1A 1_555 1_555
O2A C34A 1_555 1_555
O3A C35A 1_555 1_555
O4A C37A 1_555 1_555
Li1A O1A 1_555 1_555
Li2A O5A 1_555 1_555
C13 C14 1_555 1_555
C16 N1 1_555 1_555
C20 N1 1_555 1_555
C29 C34 1_555 1_555
C36 O3 1_555 1_555
C38 O4 1_555 1_555
C40 O5 1_555 1_555
O1 Li2 1_555 1_555
O2 Li1 1_555 1_555
O2 Li2 1_555 1_555
O3 Li1 1_555 1_555
O4 Li1 1_555 1_555
O5 Li2 1_555 1_555
C40A O5A 1_555 1_555
C13A C14A 1_555 1_555
C16A N1A 1_555 1_555
C20A N1A 1_555 1_555
C29A C34A 1_555 1_555
C36A O3A 1_555 1_555
C38A O4A 1_555 1_555
N1A Li2A 1_555 1_555
O1A Li2A 1_555 1_555
O2A Li1A 1_555 1_555
O2A Li2A 1_555 1_555
O3A Li1A 1_555 1_555
O4A Li1A 1_555 1_555

#END
