
#######################################################################
#
#                 Cambridge Crystallographic Data Centre
#                                CCDC 
#
#######################################################################
#
# If this CIF has been generated from an entry in the Cambridge 
# Structural Database, then it will include bibliographic, chemical, 
# crystal, experimental, refinement or atomic coordinate data resulting 
# from the CCDC's data processing and validation procedures.
#
#######################################################################

data_NEWLEG
_chemical_compound_source        'soft coral Pieterfaurea unilobata'
_chemical_formula_moiety         'C23 H34 O3'
_chemical_name_systematic        'Pregna-5,20-dien-3\a,7\a-diol 3\a-acetate'
_symmetry_cell_setting           monoclinic
_symmetry_space_group_name_H-M   'C 2'
_symmetry_Int_Tables_number      5
_space_group_name_Hall           'C 2y'
loop_
_symmetry_equiv_pos_site_id
_symmetry_equiv_pos_as_xyz
1 x,y,z
2 -x,y,-z
3 1/2+x,1/2+y,z
4 1/2-x,1/2+y,-z
_cell_length_a                   14.989(1)
_cell_length_b                   6.211(1)
_cell_length_c                   21.715(1)
_cell_angle_alpha                90
_cell_angle_beta                 95.26(1)
_cell_angle_gamma                90
_cell_volume                     2013.08
_exptl_crystal_colour            colorless
_exptl_crystal_description       prisms
_chemical_melting_point          156-159deg.C
_cell_formula_units_Z            4
_exptl_crystal_recrystallization_method 'n-hexane ethyl acetate'
loop_
_atom_site_label
_atom_site_type_symbol
_atom_site_fract_x
_atom_site_fract_y
_atom_site_fract_z
O1 O 0.6096(1) 0.4376(5) 0.0364(1)
O2 O 0.3278(1) 0.4659(5) 0.1733(1)
O3 O 0.6999(2) 0.4987(6) -0.0383(1)
C1 C 0.6477(2) 0.3452(7) 0.1690(2)
C2 C 0.7110(2) 0.4561(8) 0.1280(2)
C3 C 0.6600(2) 0.5885(7) 0.0779(2)
C4 C 0.5947(2) 0.7433(7) 0.1044(2)
C5 C 0.5390(2) 0.6470(6) 0.1525(2)
C6 C 0.4526(2) 0.6936(7) 0.1516(2)
C7 C 0.3917(2) 0.6222(7) 0.1986(2)
C8 C 0.4446(2) 0.5271(7) 0.2559(2)
C9 C 0.5191(2) 0.3765(7) 0.2363(2)
C10 C 0.5879(2) 0.5039(7) 0.2019(2)
C11 C 0.5635(2) 0.2409(8) 0.2908(2)
C12 C 0.4962(3) 0.1377(9) 0.3302(2)
C13 C 0.4341(2) 0.3054(8) 0.3538(2)
C14 C 0.3844(2) 0.4117(7) 0.2973(2)
C15 C 0.3091(2) 0.5390(8) 0.3235(2)
C16 C 0.2844(3) 0.4024(10) 0.3790(2)
C17 C 0.3536(3) 0.2168(9) 0.3859(2)
C18 C 0.6483(2) 0.6479(8) 0.2463(2)
C19 C 0.4869(3) 0.4682(10) 0.3968(2)
C20 C 0.3723(3) 0.1369(13) 0.4515(2)
C21 C 0.3516(5) -0.0210(22) 0.4766(4)
C22 C 0.6408(2) 0.3976(7) -0.0179(2)
C23 C 0.5947(2) 0.2105(8) -0.0503(2)
H1 H 0.3361(1) 0.4426(5) 0.1366(1)
H2 H 0.6831(2) 0.2598(7) 0.2003(2)
H3 H 0.6091(2) 0.2459(7) 0.1436(2)
H4 H 0.7520(2) 0.5500(8) 0.1535(2)
H5 H 0.7470(2) 0.3473(8) 0.1089(2)
H6 H 0.7027(2) 0.6703(7) 0.0547(2)
H7 H 0.6287(2) 0.8653(7) 0.1231(2)
H8 H 0.5540(2) 0.7996(7) 0.0703(2)
H9 H 0.4274(2) 0.7785(7) 0.1186(2)
H10 H 0.3584(2) 0.7495(7) 0.2117(2)
H11 H 0.4738(2) 0.6476(7) 0.2798(2)
H12 H 0.4898(2) 0.2732(7) 0.2061(2)
H13 H 0.5998(2) 0.1274(8) 0.2742(2)
H14 H 0.6037(2) 0.3337(8) 0.3171(2)
H15 H 0.4607(3) 0.0305(9) 0.3055(2)
H16 H 0.5283(3) 0.0634(9) 0.3654(2)
H17 H 0.3552(2) 0.2939(7) 0.2722(2)
H18 H 0.2575(2) 0.5542(8) 0.2926(2)
H19 H 0.3297(2) 0.6826(8) 0.3370(2)
H20 H 0.2236(3) 0.3450(10) 0.3712(2)
H21 H 0.2877(3) 0.4899(10) 0.4167(2)
H22 H 0.3283(3) 0.0947(9) 0.3607(2)
H23 H 0.6894(11) 0.5582(8) 0.2722(8)
H24 H 0.6114(3) 0.7301(32) 0.2722(9)
H25 H 0.6821(13) 0.7457(29) 0.2225(2)
H26 H 0.5203(15) 0.3916(10) 0.4303(7)
H27 H 0.4455(3) 0.5675(30) 0.4136(11)
H28 H 0.5281(14) 0.5478(33) 0.3734(3)
H29 H 0.4074(3) 0.2316(13) 0.4773(2)
H30 H 0.3164(5) -0.1257(22) 0.4546(4)
H31 H 0.3702(5) -0.0423(22) 0.5187(4)
H32 H 0.5308(3) 0.2384(19) -0.0564(11)
H33 H 0.6053(14) 0.0817(11) -0.0255(6)
H34 H 0.6180(13) 0.1900(27) -0.0901(5)
loop_
_geom_bond_atom_site_label_1
_geom_bond_atom_site_label_2
_geom_bond_site_symmetry_1
_geom_bond_site_symmetry_2
O1 C3 1_555 1_555
O2 C7 1_555 1_555
O3 C22 1_555 1_555
C1 C2 1_555 1_555
C2 C3 1_555 1_555
C3 C4 1_555 1_555
C4 C5 1_555 1_555
C5 C6 1_555 1_555
C6 C7 1_555 1_555
C7 C8 1_555 1_555
C8 C9 1_555 1_555
C9 C10 1_555 1_555
C10 C1 1_555 1_555
C11 C9 1_555 1_555
C12 C11 1_555 1_555
C13 C12 1_555 1_555
C14 C8 1_555 1_555
C15 C14 1_555 1_555
C16 C15 1_555 1_555
C17 C13 1_555 1_555
C18 C10 1_555 1_555
C19 C13 1_555 1_555
C20 C17 1_555 1_555
C21 C20 1_555 1_555
C22 O1 1_555 1_555
C23 C22 1_555 1_555
H1 O2 1_555 1_555
H2 C1 1_555 1_555
H3 C1 1_555 1_555
H4 C2 1_555 1_555
H5 C2 1_555 1_555
H6 C3 1_555 1_555
H7 C4 1_555 1_555
H8 C4 1_555 1_555
H9 C6 1_555 1_555
H10 C7 1_555 1_555
H11 C8 1_555 1_555
H12 C9 1_555 1_555
H13 C11 1_555 1_555
H14 C11 1_555 1_555
H15 C12 1_555 1_555
H16 C12 1_555 1_555
H17 C14 1_555 1_555
H18 C15 1_555 1_555
H19 C15 1_555 1_555
H20 C16 1_555 1_555
H21 C16 1_555 1_555
H22 C17 1_555 1_555
H23 C18 1_555 1_555
H24 C18 1_555 1_555
H25 C18 1_555 1_555
H26 C19 1_555 1_555
H27 C19 1_555 1_555
H28 C19 1_555 1_555
H29 C20 1_555 1_555
H30 C21 1_555 1_555
H31 C21 1_555 1_555
H32 C23 1_555 1_555
H33 C23 1_555 1_555
H34 C23 1_555 1_555
C5 C10 1_555 1_555
C13 C14 1_555 1_555
C16 C17 1_555 1_555

#END
