
#######################################################################
#
#                 Cambridge Crystallographic Data Centre
#                                CCDC 
#
#######################################################################
#
# If this CIF has been generated from an entry in the Cambridge 
# Structural Database, then it will include bibliographic, chemical, 
# crystal, experimental, refinement or atomic coordinate data resulting 
# from the CCDC's data processing and validation procedures.
#
#######################################################################

data_NEWNEI
_chemical_compound_source        'Axinyssa aplysinoides'
_chemical_formula_moiety         'C16 H27 N1 O1'
_chemical_name_systematic        2-(Formylamino)trachyopsane
_symmetry_cell_setting           triclinic
_symmetry_space_group_name_H-M   'P 1'
_symmetry_Int_Tables_number      1
_space_group_name_Hall           'P 1'
loop_
_symmetry_equiv_pos_site_id
_symmetry_equiv_pos_as_xyz
1 x,y,z
_cell_length_a                   9.141(2)
_cell_length_b                   9.387(2)
_cell_length_c                   9.535(2)
_cell_angle_alpha                68.95(3)
_cell_angle_beta                 83.57(3)
_cell_angle_gamma                86.63(3)
_cell_volume                     758.612
_exptl_crystal_colour            colorless
_exptl_crystal_description       prisms
_cell_formula_units_Z            2
_exptl_crystal_recrystallization_method 'ethyl acetate'
loop_
_atom_site_label
_atom_site_type_symbol
_atom_site_fract_x
_atom_site_fract_y
_atom_site_fract_z
O1 O 0.9093(1) 0.1173(2) 0.9474(2)
N1 N 0.6982(2) 0.2555(2) 0.9547(2)
C1 C 0.6213(2) 0.4801(2) 1.0119(2)
C2 C 0.7484(2) 0.3646(2) 1.0181(2)
C3 C 0.8698(2) 0.4676(2) 0.9037(2)
C4 C 0.9899(2) 0.5158(2) 0.9765(2)
C5 C 0.9333(2) 0.6089(2) 1.0763(2)
C6 C 0.7889(2) 0.6921(2) 1.0210(2)
C7 C 0.8040(2) 0.7461(2) 0.8492(2)
C8 C 0.7854(2) 0.6100(2) 0.7999(2)
C9 C 0.6227(2) 0.5661(2) 0.8429(2)
C10 C 0.6504(2) 0.5947(3) 1.0873(3)
C11 C 0.7781(2) 0.1443(2) 0.9298(2)
C12 C 0.7903(2) 0.2713(2) 1.1758(2)
C13 C 1.0476(2) 0.7188(2) 1.0851(2)
C14 C 1.2009(2) 0.6469(3) 1.1049(3)
C15 C 1.0018(3) 0.7794(3) 1.2120(3)
C16 C 0.8350(4) 0.6473(3) 0.6338(3)
H1 H 0.6115(23) 0.2583(21) 0.9423(21)
H2 H 0.5281(22) 0.4287(21) 1.0570(20)
H3 H 0.9163(19) 0.4094(21) 0.8433(20)
H4 H 1.0597(24) 0.5765(23) 0.8942(24)
H5 H 1.0504(20) 0.4251(21) 1.0364(20)
H6 H 0.9151(19) 0.5384(22) 1.1766(22)
H7 H 0.7742(19) 0.7854(22) 1.0492(20)
H8 H 0.8971(25) 0.7914(25) 0.8093(22)
H9 H 0.7274(27) 0.8226(29) 0.8068(26)
H10 H 0.5596(24) 0.6558(26) 0.8179(23)
H11 H 0.5981(23) 0.4986(24) 0.7938(23)
H12 H 0.5730(24) 0.6672(24) 1.0724(22)
H13 H 0.6603(21) 0.5394(23) 1.1960(25)
H14 H 0.7192(21) 0.0780(22) 0.8916(21)
H15 H 0.7015(27) 0.2078(28) 1.2298(27)
H16 H 0.8154(22) 0.3376(24) 1.2297(23)
H17 H 0.8742(28) 0.2013(29) 1.1675(27)
H18 H 1.0503(21) 0.8017(25) 0.9981(24)
H19 H 1.2425(25) 0.6147(26) 1.0156(28)
H20 H 1.2045(29) 0.5454(31) 1.2012(31)
H21 H 1.2731(28) 0.7240(29) 1.1165(27)
H22 H 1.0674(38) 0.8502(39) 1.2152(36)
H23 H 1.0006(32) 0.6952(37) 1.3115(38)
H24 H 0.9071(35) 0.8332(33) 1.1993(32)
H25 H 0.7861(34) 0.7381(37) 0.5649(37)
H26 H 0.8160(28) 0.5595(30) 0.6028(28)
H27 H 0.9359(33) 0.6701(32) 0.6117(30)
O2 O 0.3892(1) 0.2454(2) 0.9383(2)
N2 N 0.2152(2) 0.1301(2) 0.8641(2)
C17 C 0.3374(2) 0.2507(2) 0.6070(2)
C18 C 0.2980(2) 0.0981(2) 0.7355(2)
C19 C 0.1856(2) 0.0338(2) 0.6628(2)
C20 C 0.2471(2) -0.0910(2) 0.6043(2)
C21 C 0.3746(9) -0.0407(2) 0.4786(2)
C22 C 0.3586(3) 0.1338(2) 0.3942(2)
C23 C 0.1965(3) 0.1743(3) 0.3821(2)
C24 C 0.1245(2) 0.1746(2) 0.5355(2)
C25 C 0.1852(3) 0.3109(2) 0.5605(2)
C26 C 0.4290(3) 0.2293(3) 0.4699(3)
C27 C 0.2653(2) 0.1978(2) 0.9493(2)
C28 C 0.4261(2) -0.0074(3) 0.7984(2)
C29 C 0.3835(2) -0.1331(2) 0.3726(2)
C30 C 0.3814(4) -0.3037(3) 0.4609(3)
C31 C 0.5194(3) -0.0951(3) 0.2597(3)
C32 C -0.0435(3) 0.1772(4) 0.5413(3)
H28 H 0.1220(25) 0.1110(23) 0.8777(22)
H29 H 0.3877(26) 0.3151(28) 0.6449(26)
H30 H 0.1034(24) -0.0091(25) 0.7448(25)
H31 H 0.1678(24) -0.1196(23) 0.5643(22)
H32 H 0.2774(23) -0.1843(26) 0.6887(26)
H33 H 0.4672(25) -0.0600(23) 0.5208(23)
H34 H 0.4023(22) 0.1576(23) 0.2916(25)
H35 H 0.1521(25) 0.0955(27) 0.3504(26)
H36 H 0.1746(24) 0.2749(28) 0.3116(27)
H37 H 0.1857(28) 0.4007(31) 0.4646(30)
H38 H 0.1308(25) 0.3385(26) 0.6379(28)
H39 H 0.5201(24) 0.1858(22) 0.5010(21)
H40 H 0.4425(25) 0.3331(29) 0.3992(27)
H41 H 0.1884(22) 0.2115(22) 1.0269(23)
H42 H 0.4795(30) 0.0424(30) 0.8496(31)
H43 H 0.4909(27) -0.0237(28) 0.7093(28)
H44 H 0.3871(29) -0.0990(35) 0.8674(31)
H45 H 0.2995(22) -0.1076(21) 0.3162(22)
H46 H 0.2789(36) -0.3313(34) 0.5219(35)
H47 H 0.4692(34) -0.3277(33) 0.5114(34)
H48 H 0.3915(28) -0.3578(33) 0.3885(32)
H49 H 0.5320(32) -0.1614(37) 0.2019(34)
H50 H 0.6106(41) -0.1292(37) 0.3119(38)
H51 H 0.5217(35) 0.0159(41) 0.1966(37)
H52 H -0.0835(40) 0.2718(42) 0.4694(41)
H53 H -0.1003(30) 0.1852(32) 0.6464(34)
H54 H -0.0761(36) 0.0748(38) 0.5266(36)
loop_
_geom_bond_atom_site_label_1
_geom_bond_atom_site_label_2
_geom_bond_site_symmetry_1
_geom_bond_site_symmetry_2
O1 C11 1_555 1_555
N1 C2 1_555 1_555
C1 C2 1_555 1_555
C2 C3 1_555 1_555
C3 C4 1_555 1_555
C4 C5 1_555 1_555
C5 C6 1_555 1_555
C6 C7 1_555 1_555
C7 C8 1_555 1_555
C8 C3 1_555 1_555
C9 C1 1_555 1_555
C10 C1 1_555 1_555
C11 N1 1_555 1_555
C12 C2 1_555 1_555
C13 C5 1_555 1_555
C14 C13 1_555 1_555
C15 C13 1_555 1_555
C16 C8 1_555 1_555
O2 C27 1_555 1_555
N2 C18 1_555 1_555
C17 C18 1_555 1_555
C18 C19 1_555 1_555
C19 C20 1_555 1_555
C20 C21 1_555 1_555
C21 C22 1_555 1_555
C22 C23 1_555 1_555
C23 C24 1_555 1_555
C24 C19 1_555 1_555
C25 C17 1_555 1_555
C26 C17 1_555 1_555
C27 N2 1_555 1_555
C28 C18 1_555 1_555
C29 C21 1_555 1_555
C30 C29 1_555 1_555
C31 C29 1_555 1_555
C32 C24 1_555 1_555
H1 N1 1_555 1_555
H2 C1 1_555 1_555
H3 C3 1_555 1_555
H4 C4 1_555 1_555
H5 C4 1_555 1_555
H6 C5 1_555 1_555
H7 C6 1_555 1_555
H8 C7 1_555 1_555
H9 C7 1_555 1_555
H10 C9 1_555 1_555
H11 C9 1_555 1_555
H12 C10 1_555 1_555
H13 C10 1_555 1_555
H14 C11 1_555 1_555
H15 C12 1_555 1_555
H16 C12 1_555 1_555
H17 C12 1_555 1_555
H18 C13 1_555 1_555
H19 C14 1_555 1_555
H20 C14 1_555 1_555
H21 C14 1_555 1_555
H22 C15 1_555 1_555
H23 C15 1_555 1_555
H24 C15 1_555 1_555
H25 C16 1_555 1_555
H26 C16 1_555 1_555
H27 C16 1_555 1_555
H28 N2 1_555 1_555
H29 C17 1_555 1_555
H30 C19 1_555 1_555
H31 C20 1_555 1_555
H32 C20 1_555 1_555
H33 C21 1_555 1_555
H34 C22 1_555 1_555
H35 C23 1_555 1_555
H36 C23 1_555 1_555
H37 C25 1_555 1_555
H38 C25 1_555 1_555
H39 C26 1_555 1_555
H40 C26 1_555 1_555
H41 C27 1_555 1_555
H42 C28 1_555 1_555
H43 C28 1_555 1_555
H44 C28 1_555 1_555
H45 C29 1_555 1_555
H46 C30 1_555 1_555
H47 C30 1_555 1_555
H48 C30 1_555 1_555
H49 C31 1_555 1_555
H50 C31 1_555 1_555
H51 C31 1_555 1_555
H52 C32 1_555 1_555
H53 C32 1_555 1_555
H54 C32 1_555 1_555
C6 C10 1_555 1_555
C8 C9 1_555 1_555
C22 C26 1_555 1_555
C24 C25 1_555 1_555

#END
