
#######################################################################
#
#                 Cambridge Crystallographic Data Centre
#                                CCDC 
#
#######################################################################
#
# If this CIF has been generated from an entry in the Cambridge 
# Structural Database, then it will include bibliographic, chemical, 
# crystal, experimental, refinement or atomic coordinate data resulting 
# from the CCDC's data processing and validation procedures.
#
#######################################################################

data_NEWPIP
_chemical_name_common            '18-Crown-6 thionicotinamide clathrate'
_chemical_formula_moiety         'C12 H24 O6,C6 H6 N2 S1'
_chemical_name_systematic        
'1,4,7,10,13,16-Hexaoxacyclo-octadecane 3-thioamidopyridine clathrate'
_symmetry_cell_setting           monoclinic
_symmetry_space_group_name_H-M   'C c'
_symmetry_Int_Tables_number      9
_space_group_name_Hall           'C -2yc'
loop_
_symmetry_equiv_pos_site_id
_symmetry_equiv_pos_as_xyz
1 x,y,z
2 x,-y,1/2+z
3 1/2+x,1/2+y,z
4 1/2+x,1/2-y,1/2+z
_cell_length_a                   17.2275(15)
_cell_length_b                   8.5251(7)
_cell_length_c                   14.8656(13)
_cell_angle_alpha                90
_cell_angle_beta                 102.752(2)
_cell_angle_gamma                90
_cell_volume                     2129.4
_exptl_crystal_colour            'light yellow'
_exptl_crystal_description       cubic
_chemical_melting_point          '120-122 deg.C'
_cell_formula_units_Z            4
loop_
_atom_site_label
_atom_site_type_symbol
_atom_site_fract_x
_atom_site_fract_y
_atom_site_fract_z
S1 S 0.24926(6) 0.21687(13) 0.59752(7)
N1 N 0.53396(18) 0.2394(4) 0.5641(2)
N2 N 0.3666(2) 0.3204(4) 0.7266(2)
H1 H 0.3332(16) 0.315(3) 0.765(2)
H2 H 0.4150(19) 0.374(3) 0.739(2)
C1 C 0.5123(3) 0.2929(4) 0.4807(3)
H3 H 0.5508 0.2978 0.4457
C2 C 0.4374(3) 0.3426(4) 0.4400(3)
H4 H 0.4254 0.3797 0.3797
C3 C 0.3801(2) 0.3358(4) 0.4919(2)
H5 H 0.3280 0.3651 0.4657
C4 C 0.39952(19) 0.2863(3) 0.5817(2)
C5 C 0.47700(19) 0.2383(4) 0.6147(2)
H6 H 0.4913 0.2030 0.6753
C6 C 0.34097(19) 0.2792(3) 0.6396(2)
O1 O 0.42010(15) 0.2183(3) 0.93560(15)
O2 O 0.26027(14) 0.3117(3) 0.86119(16)
O3 O 0.24527(13) 0.6079(3) 0.77656(16)
O4 O 0.37753(16) 0.7051(3) 0.69075(16)
O5 O 0.53628(14) 0.6070(3) 0.76459(16)
O6 O 0.55098(13) 0.3131(3) 0.84890(15)
C7 C 0.3516(3) 0.1258(4) 0.9360(2)
H7 H 0.3622 0.0542 0.9879
H8 H 0.3378 0.0645 0.8797
C8 C 0.2844(3) 0.2316(5) 0.9429(3)
H9 H 0.2405 0.1706 0.9555
H10 H 0.3014 0.3053 0.9931
C9 C 0.1952(2) 0.4162(5) 0.8590(3)
H11 H 0.2073 0.4865 0.9115
H12 H 0.1479 0.3570 0.8624
C10 C 0.1809(2) 0.5078(6) 0.7724(3)
H13 H 0.1757 0.4380 0.7199
H14 H 0.1322 0.5679 0.7656
C11 C 0.2414(2) 0.6917(5) 0.6914(3)
H15 H 0.1936 0.7553 0.6775
H16 H 0.2391 0.6176 0.6414
C12 C 0.3117(3) 0.7926(5) 0.6993(3)
H17 H 0.3012 0.8722 0.6515
H18 H 0.3226 0.8452 0.7586
C13 C 0.4469(3) 0.7966(5) 0.6911(3)
H19 H 0.4611 0.8563 0.7479
H20 H 0.4366 0.8697 0.6398
C14 C 0.5129(3) 0.6909(6) 0.6831(3)
H21 H 0.4958 0.6193 0.6319
H22 H 0.5574 0.7516 0.6717
C15 C 0.6022(2) 0.5076(5) 0.7657(3)
H23 H 0.6491 0.5697 0.7642
H24 H 0.5916 0.4394 0.7121
C16 C 0.6158(2) 0.4122(6) 0.8518(3)
H25 H 0.6640 0.3505 0.8574
H26 H 0.6224 0.4808 0.9050
C17 C 0.5567(2) 0.2331(6) 0.9338(3)
H27 H 0.5604 0.3089 0.9833
H28 H 0.6046 0.1696 0.9468
C18 C 0.4863(3) 0.1317(5) 0.9299(3)
H29 H 0.4756 0.0732 0.8725
H30 H 0.4976 0.0570 0.9803
loop_
_geom_bond_atom_site_label_1
_geom_bond_atom_site_label_2
_geom_bond_site_symmetry_1
_geom_bond_site_symmetry_2
S1 C6 1_555 1_555
O1 C7 1_555 1_555
O2 C8 1_555 1_555
O3 C10 1_555 1_555
O4 C12 1_555 1_555
O5 C14 1_555 1_555
O6 C16 1_555 1_555
N1 C1 1_555 1_555
N2 H1 1_555 1_555
H2 N2 1_555 1_555
C1 H3 1_555 1_555
C2 C1 1_555 1_555
H4 C2 1_555 1_555
C3 C2 1_555 1_555
H5 C3 1_555 1_555
C4 C3 1_555 1_555
C5 N1 1_555 1_555
H6 C5 1_555 1_555
C6 N2 1_555 1_555
C7 H7 1_555 1_555
H8 C7 1_555 1_555
C8 C7 1_555 1_555
H9 C8 1_555 1_555
H10 C8 1_555 1_555
C9 O2 1_555 1_555
H11 C9 1_555 1_555
H12 C9 1_555 1_555
C10 C9 1_555 1_555
H13 C10 1_555 1_555
H14 C10 1_555 1_555
C11 O3 1_555 1_555
H15 C11 1_555 1_555
H16 C11 1_555 1_555
C12 C11 1_555 1_555
H17 C12 1_555 1_555
H18 C12 1_555 1_555
C13 O4 1_555 1_555
H19 C13 1_555 1_555
H20 C13 1_555 1_555
C14 C13 1_555 1_555
H21 C14 1_555 1_555
H22 C14 1_555 1_555
C15 O5 1_555 1_555
H23 C15 1_555 1_555
H24 C15 1_555 1_555
C16 C15 1_555 1_555
H25 C16 1_555 1_555
H26 C16 1_555 1_555
C17 O6 1_555 1_555
H27 C17 1_555 1_555
H28 C17 1_555 1_555
C18 O1 1_555 1_555
H29 C18 1_555 1_555
H30 C18 1_555 1_555
C4 C5 1_555 1_555
C4 C6 1_555 1_555
C17 C18 1_555 1_555

#END
