
#######################################################################
#
#                 Cambridge Crystallographic Data Centre
#                                CCDC 
#
#######################################################################
#
# If this CIF has been generated from an entry in the Cambridge 
# Structural Database, then it will include bibliographic, chemical, 
# crystal, experimental, refinement or atomic coordinate data resulting 
# from the CCDC's data processing and validation procedures.
#
#######################################################################

data_NEWXAR
_chemical_formula_moiety         'C11 H8 F3 N1 O2'
_chemical_name_systematic        
1-methyl-3'-(trifluoromethyl)spiro[indole-3,2'-oxiran]-2(1H)-one
_symmetry_cell_setting           triclinic
_symmetry_space_group_name_H-M   'P -1'
_symmetry_Int_Tables_number      2
_space_group_name_Hall           '-P 1'
loop_
_symmetry_equiv_pos_site_id
_symmetry_equiv_pos_as_xyz
1 x,y,z
2 -x,-y,-z
_cell_length_a                   7.4267(18)
_cell_length_b                   8.6492(19)
_cell_length_c                   9.7530(17)
_cell_angle_alpha                87.306(16)
_cell_angle_beta                 68.08(2)
_cell_angle_gamma                67.56(2)
_cell_volume                     533.843
_exptl_crystal_colour            'light colorless'
_exptl_crystal_description       block
_cell_formula_units_Z            2
loop_
_atom_site_label
_atom_site_type_symbol
_atom_site_fract_x
_atom_site_fract_y
_atom_site_fract_z
F1 F -0.4454(3) 0.3453(3) 0.3130(3)
F2 F -0.4260(3) 0.1317(3) 0.4319(2)
F3 F -0.3278(3) 0.3106(3) 0.4832(2)
O1 O 0.0569(3) 0.0782(2) 0.3049(2)
O2 O 0.2611(3) -0.0211(2) -0.0177(2)
N1 N 0.2757(3) 0.2405(3) -0.0266(2)
C1 C 0.1917(4) 0.3832(3) 0.0754(3)
C2 C 0.2287(5) 0.5289(4) 0.0511(4)
H1 H 0.3150 0.5437 -0.0417
C3 C 0.1314(6) 0.6523(4) 0.1710(6)
H2 H 0.1535 0.7517 0.1579
C4 C 0.0053(6) 0.6322(4) 0.3066(5)
H3 H -0.0560 0.7169 0.3848
C5 C -0.0333(5) 0.4868(3) 0.3297(4)
H4 H -0.1204 0.4734 0.4228
C6 C 0.0595(4) 0.3618(3) 0.2126(3)
C7 C 0.0541(4) 0.1947(3) 0.1951(3)
C8 C 0.2097(4) 0.1190(3) 0.0388(3)
C9 C 0.4233(4) 0.2179(5) -0.1793(3)
H5 H 0.5522 0.2202 -0.1808
H6 H 0.3632 0.3070 -0.2315
H7 H 0.4522 0.1116 -0.2268
C10 C -0.1151(4) 0.1324(3) 0.2580(3)
H8 H -0.1105 0.0484 0.1912
C11 C -0.3285(6) 0.2308(4) 0.3713(4)
loop_
_geom_bond_atom_site_label_1
_geom_bond_atom_site_label_2
_geom_bond_site_symmetry_1
_geom_bond_site_symmetry_2
F1 C11 1_555 1_555
F2 C11 1_555 1_555
F3 C11 1_555 1_555
O1 C7 1_555 1_555
O2 C8 1_555 1_555
N1 C1 1_555 1_555
C1 C2 1_555 1_555
C2 H1 1_555 1_555
C3 C2 1_555 1_555
H2 C3 1_555 1_555
C4 C3 1_555 1_555
H3 C4 1_555 1_555
C5 C4 1_555 1_555
H4 C5 1_555 1_555
C6 C1 1_555 1_555
C7 C6 1_555 1_555
C8 N1 1_555 1_555
C9 N1 1_555 1_555
H5 C9 1_555 1_555
H6 C9 1_555 1_555
H7 C9 1_555 1_555
C10 O1 1_555 1_555
H8 C10 1_555 1_555
C11 C10 1_555 1_555
C5 C6 1_555 1_555
C7 C8 1_555 1_555
C7 C10 1_555 1_555

#END
