
#######################################################################
#
#                 Cambridge Crystallographic Data Centre
#                                CCDC 
#
#######################################################################
#
# If this CIF has been generated from an entry in the Cambridge 
# Structural Database, then it will include bibliographic, chemical, 
# crystal, experimental, refinement or atomic coordinate data resulting 
# from the CCDC's data processing and validation procedures.
#
#######################################################################

data_NEWXIZ
_chemical_formula_moiety         'C14 H14 F3 N1 O2'
_chemical_name_systematic        
1-methyl-3-(prop-2-en-1-yl)-3-(2,2,2-trifluoro-1-hydroxyethyl)-1,3-dihydro-2H-indol-2-one
_symmetry_cell_setting           orthorhombic
_symmetry_space_group_name_H-M   'P b c a'
_symmetry_Int_Tables_number      61
_space_group_name_Hall           '-P 2ac 2ab'
loop_
_symmetry_equiv_pos_site_id
_symmetry_equiv_pos_as_xyz
1 x,y,z
2 1/2-x,-y,1/2+z
3 -x,1/2+y,1/2-z
4 1/2+x,1/2-y,-z
5 -x,-y,-z
6 1/2+x,y,1/2-z
7 x,1/2-y,1/2+z
8 1/2-x,1/2+y,z
_cell_length_a                   8.7429(4)
_cell_length_b                   13.5554(6)
_cell_length_c                   21.9361(9)
_cell_angle_alpha                90
_cell_angle_beta                 90
_cell_angle_gamma                90
_cell_volume                     2599.72
_exptl_crystal_colour            'light colorless'
_exptl_crystal_description       block
_cell_formula_units_Z            8
loop_
_atom_site_label
_atom_site_type_symbol
_atom_site_fract_x
_atom_site_fract_y
_atom_site_fract_z
F1 F 0.39105(12) 0.10630(8) 0.61652(5)
C1 C 0.70559(16) 0.34110(11) 0.58389(7)
H1 H 0.7852 0.3298 0.6125
N1 N 0.29538(13) 0.32896(9) 0.58475(5)
O1 O 0.68882(12) 0.20414(8) 0.70663(5)
H2 H 0.6921 0.2228 0.7431
F2 F 0.55108(13) 0.02637(7) 0.67165(4)
C2 C 0.73860(17) 0.37248(11) 0.52472(7)
H3 H 0.8420 0.3823 0.5129
O2 O 0.20395(11) 0.27543(8) 0.67693(5)
F3 F 0.63151(13) 0.11646(7) 0.59883(4)
C3 C 0.62246(17) 0.38943(11) 0.48307(7)
H4 H 0.6476 0.4105 0.4430
C4 C 0.43937(15) 0.34565(10) 0.55756(6)
C5 C 0.48127(16) 0.29785(11) 0.65950(6)
C6 C 0.55440(16) 0.32691(11) 0.59980(6)
C7 C 0.43293(19) 0.47716(12) 0.69033(7)
H5 H 0.3246 0.4828 0.6910
C8 C 0.50209(17) 0.37994(12) 0.70859(7)
H6 H 0.4544 0.3578 0.7472
H7 H 0.6127 0.3894 0.7163
C9 C 0.31061(16) 0.29691(10) 0.64291(6)
C10 C 0.5121(2) 0.55437(14) 0.67359(8)
H8 H 0.6206 0.5512 0.6724
H9 H 0.4612 0.6137 0.6626
C11 C 0.14954(16) 0.35308(12) 0.55664(7)
H10 H 0.0661 0.3341 0.5841
H11 H 0.1395 0.3172 0.5180
H12 H 0.1447 0.4242 0.5489
C12 C 0.53543(16) 0.19912(11) 0.68735(6)
H13 H 0.4699 0.1839 0.7235
C13 C 0.52778(18) 0.11229(12) 0.64344(7)
C14 C 0.46939(17) 0.37623(11) 0.49883(7)
H14 H 0.3894 0.3878 0.4704
loop_
_geom_bond_atom_site_label_1
_geom_bond_atom_site_label_2
_geom_bond_site_symmetry_1
_geom_bond_site_symmetry_2
F1 C13 1_555 1_555
C1 H1 1_555 1_555
N1 C4 1_555 1_555
O1 H2 1_555 1_555
F2 C13 1_555 1_555
C2 C1 1_555 1_555
H3 C2 1_555 1_555
O2 C9 1_555 1_555
F3 C13 1_555 1_555
C3 C2 1_555 1_555
H4 C3 1_555 1_555
C4 C6 1_555 1_555
C5 C6 1_555 1_555
C6 C1 1_555 1_555
C7 H5 1_555 1_555
C8 C5 1_555 1_555
H6 C8 1_555 1_555
H7 C8 1_555 1_555
C9 N1 1_555 1_555
C10 C7 1_555 1_555
H8 C10 1_555 1_555
H9 C10 1_555 1_555
C11 N1 1_555 1_555
H10 C11 1_555 1_555
H11 C11 1_555 1_555
H12 C11 1_555 1_555
C12 O1 1_555 1_555
H13 C12 1_555 1_555
C13 C12 1_555 1_555
C14 C3 1_555 1_555
H14 C14 1_555 1_555
C4 C14 1_555 1_555
C5 C9 1_555 1_555
C5 C12 1_555 1_555
C7 C8 1_555 1_555

#END
