
#######################################################################
#
#                 Cambridge Crystallographic Data Centre
#                                CCDC 
#
#######################################################################
#
# If this CIF has been generated from an entry in the Cambridge 
# Structural Database, then it will include bibliographic, chemical, 
# crystal, experimental, refinement or atomic coordinate data resulting 
# from the CCDC's data processing and validation procedures.
#
#######################################################################

data_NEXFII
_chemical_formula_moiety         'C19 H17 N1 O1'
_chemical_name_systematic        
2-phenyl-1,2,3,4-tetrahydro-6H-pyrido[1,2-b]isoquinolin-6-one
_symmetry_cell_setting           monoclinic
_symmetry_space_group_name_H-M   'P 21'
_symmetry_Int_Tables_number      4
_space_group_name_Hall           'P 2yb'
loop_
_symmetry_equiv_pos_site_id
_symmetry_equiv_pos_as_xyz
1 x,y,z
2 -x,1/2+y,-z
_cell_length_a                   12.3598(5)
_cell_length_b                   8.1021(3)
_cell_length_c                   14.4042(5)
_cell_angle_alpha                90
_cell_angle_beta                 104.805(4)
_cell_angle_gamma                90
_cell_volume                     1394.55
_exptl_crystal_colour            colorless
_exptl_crystal_description       prism
_cell_formula_units_Z            4
loop_
_atom_site_label
_atom_site_type_symbol
_atom_site_fract_x
_atom_site_fract_y
_atom_site_fract_z
O1 O 0.50296(18) 0.2403(3) 0.57489(15)
N1 N 0.58912(18) 0.3668(3) 0.47186(16)
C1 C 0.5785(2) 0.3316(4) 0.5631(2)
C2 C 0.6606(2) 0.4088(4) 0.6432(2)
C3 C 0.6508(3) 0.3856(5) 0.7371(2)
H1 H 0.591330 0.320790 0.748302
C4 C 0.7272(3) 0.4567(5) 0.8132(2)
H2 H 0.720403 0.440829 0.876867
C5 C 0.8148(3) 0.5522(5) 0.7969(2)
H3 H 0.866841 0.601939 0.849550
C6 C 0.8263(3) 0.5749(4) 0.7051(2)
H4 H 0.886659 0.638739 0.694968
C7 C 0.7483(2) 0.5033(4) 0.6258(2)
C8 C 0.7548(2) 0.5258(4) 0.5288(2)
H5 H 0.815204 0.586516 0.516205
C9 C 0.6756(2) 0.4615(4) 0.4550(2)
C10 C 0.6759(2) 0.5055(4) 0.3532(2)
H6 H 0.753146 0.492149 0.346496
H7 H 0.656327 0.623833 0.343070
C11 C 0.5970(2) 0.4065(4) 0.27243(19)
H8 H 0.630848 0.295099 0.269639
C12 C 0.4870(2) 0.3834(4) 0.29893(19)
H9 H 0.433849 0.322953 0.246990
H10 H 0.454131 0.492559 0.306251
C13 C 0.5054(2) 0.2874(4) 0.3923(2)
H11 H 0.433428 0.278168 0.410168
H12 H 0.530828 0.174391 0.382434
C14 C 0.5895(3) 0.4931(4) 0.1773(2)
C15 C 0.6850(3) 0.5014(5) 0.1422(2)
H13 H 0.752203 0.450556 0.177535
C16 C 0.6837(3) 0.5822(5) 0.0570(2)
H14 H 0.749820 0.587714 0.035047
C17 C 0.5861(3) 0.6545(5) 0.0040(2)
H15 H 0.584500 0.707754 -0.055086
C18 C 0.4905(3) 0.6489(5) 0.0376(2)
H16 H 0.423496 0.700032 0.002117
C19 C 0.4928(3) 0.5682(5) 0.1234(2)
H17 H 0.426773 0.564495 0.145539
O2 O 0.00031(18) 0.7562(3) 0.56235(16)
N2 N 0.09604(18) 0.6416(3) 0.46297(16)
C20 C 0.0808(2) 0.6740(4) 0.5534(2)
C21 C 0.1642(2) 0.6044(4) 0.6351(2)
C22 C 0.1520(2) 0.6278(4) 0.7283(2)
H18 H 0.090124 0.688777 0.737891
C23 C 0.2294(3) 0.5630(5) 0.8064(2)
H19 H 0.220995 0.579856 0.869417
C24 C 0.3206(3) 0.4720(4) 0.7923(2)
H20 H 0.373959 0.427399 0.846001
C25 C 0.3329(3) 0.4472(4) 0.7016(2)
H21 H 0.395232 0.386101 0.693042
C26 C 0.2542(2) 0.5113(4) 0.6202(2)
C27 C 0.2614(2) 0.4829(4) 0.5244(2)
H22 H 0.321636 0.419571 0.513504
C28 C 0.1836(2) 0.5450(4) 0.4487(2)
C29 C 0.1907(2) 0.5152(4) 0.34728(19)
H23 H 0.229319 0.408926 0.344568
H24 H 0.236181 0.603651 0.328543
C30 C 0.0763(2) 0.5107(4) 0.27567(19)
H25 H 0.030600 0.423865 0.297172
C31 C 0.0220(3) 0.6772(4) 0.2831(2)
H26 H 0.070307 0.766309 0.269019
H27 H -0.050951 0.683125 0.234798
C32 C 0.0043(3) 0.7036(5) 0.3829(2)
H28 H -0.005269 0.823190 0.392362
H29 H -0.066134 0.648110 0.385900
C33 C 0.0811(2) 0.4693(4) 0.17410(19)
C34 C 0.1762(2) 0.4912(5) 0.1414(2)
H30 H 0.241376 0.537333 0.183143
C35 C 0.1779(3) 0.4468(5) 0.0486(2)
H31 H 0.244020 0.463221 0.027653
C36 C 0.0841(3) 0.3786(5) -0.0137(2)
H32 H 0.085556 0.347375 -0.076890
C37 C -0.0117(3) 0.3570(5) 0.0179(2)
H33 H -0.076821 0.311379 -0.024072
C38 C -0.0131(2) 0.4014(4) 0.1104(2)
H34 H -0.079436 0.385368 0.131029
loop_
_geom_bond_atom_site_label_1
_geom_bond_atom_site_label_2
_geom_bond_site_symmetry_1
_geom_bond_site_symmetry_2
O1 C1 1_555 1_555
N1 C1 1_555 1_555
C1 C2 1_555 1_555
C2 C3 1_555 1_555
C3 H1 1_555 1_555
C4 C3 1_555 1_555
H2 C4 1_555 1_555
C5 C4 1_555 1_555
H3 C5 1_555 1_555
C6 C5 1_555 1_555
H4 C6 1_555 1_555
C7 C2 1_555 1_555
C8 C7 1_555 1_555
H5 C8 1_555 1_555
C9 N1 1_555 1_555
C10 C9 1_555 1_555
H6 C10 1_555 1_555
H7 C10 1_555 1_555
C11 C10 1_555 1_555
H8 C11 1_555 1_555
C12 C11 1_555 1_555
H9 C12 1_555 1_555
H10 C12 1_555 1_555
C13 N1 1_555 1_555
H11 C13 1_555 1_555
H12 C13 1_555 1_555
C14 C11 1_555 1_555
C15 C14 1_555 1_555
H13 C15 1_555 1_555
C16 C15 1_555 1_555
H14 C16 1_555 1_555
C17 C16 1_555 1_555
H15 C17 1_555 1_555
C18 C17 1_555 1_555
H16 C18 1_555 1_555
C19 C14 1_555 1_555
H17 C19 1_555 1_555
O2 C20 1_555 1_555
N2 C20 1_555 1_555
C20 C21 1_555 1_555
C21 C22 1_555 1_555
C22 H18 1_555 1_555
C23 C22 1_555 1_555
H19 C23 1_555 1_555
C24 C23 1_555 1_555
H20 C24 1_555 1_555
C25 C24 1_555 1_555
H21 C25 1_555 1_555
C26 C21 1_555 1_555
C27 C26 1_555 1_555
H22 C27 1_555 1_555
C28 N2 1_555 1_555
C29 C28 1_555 1_555
H23 C29 1_555 1_555
H24 C29 1_555 1_555
C30 C29 1_555 1_555
H25 C30 1_555 1_555
C31 C30 1_555 1_555
H26 C31 1_555 1_555
H27 C31 1_555 1_555
C32 N2 1_555 1_555
H28 C32 1_555 1_555
H29 C32 1_555 1_555
C33 C30 1_555 1_555
C34 C33 1_555 1_555
H30 C34 1_555 1_555
C35 C34 1_555 1_555
H31 C35 1_555 1_555
C36 C35 1_555 1_555
H32 C36 1_555 1_555
C37 C36 1_555 1_555
H33 C37 1_555 1_555
C38 C33 1_555 1_555
H34 C38 1_555 1_555
C6 C7 1_555 1_555
C8 C9 1_555 1_555
C12 C13 1_555 1_555
C18 C19 1_555 1_555
C25 C26 1_555 1_555
C27 C28 1_555 1_555
C31 C32 1_555 1_555
C37 C38 1_555 1_555

#END
