
#######################################################################
#
#                 Cambridge Crystallographic Data Centre
#                                CCDC 
#
#######################################################################
#
# If this CIF has been generated from an entry in the Cambridge 
# Structural Database, then it will include bibliographic, chemical, 
# crystal, experimental, refinement or atomic coordinate data resulting 
# from the CCDC's data processing and validation procedures.
#
#######################################################################

data_NEXMAH
_chemical_formula_moiety         'C5 H10 N10 2+,2(N5 1-)'
_chemical_name_systematic        
"2,6,7,10-tetrahydro-5H-bis[1,2,4]triazolo[4,3-e:3',4'-g][1,2,4,5]tetrazepine-3,9-diiminium bispentazolide"
_symmetry_cell_setting           monoclinic
_symmetry_space_group_name_H-M   'C 2/c'
_symmetry_Int_Tables_number      15
_space_group_name_Hall           '-C 2yn'
loop_
_symmetry_equiv_pos_site_id
_symmetry_equiv_pos_as_xyz
1 x,y,z
2 -x,y,1/2-z
3 1/2+x,1/2+y,z
4 1/2-x,1/2+y,1/2-z
5 -x,-y,-z
6 x,-y,1/2+z
7 1/2-x,1/2-y,-z
8 1/2+x,1/2-y,1/2+z
_cell_length_a                   9.728(5)
_cell_length_b                   10.219(6)
_cell_length_c                   14.345(7)
_cell_angle_alpha                90
_cell_angle_beta                 100.519(16)
_cell_angle_gamma                90
_cell_volume                     1402.08
_exptl_crystal_colour            colorless
_exptl_crystal_description       block
_cell_formula_units_Z            4
loop_
_atom_site_label
_atom_site_type_symbol
_atom_site_fract_x
_atom_site_fract_y
_atom_site_fract_z
N1 N 0.62415(13) 0.73478(12) 0.70923(8)
N2 N 0.63050(14) 0.84831(12) 0.76376(9)
N3 N 0.58318(15) 0.52839(13) 0.66563(10)
N4 N 0.68407(15) 0.58441(13) 0.62149(10)
H1 H 0.7253 0.5430 0.5804
N5 N 0.80106(16) 0.79094(14) 0.62256(11)
H2 H 0.8535 0.7668 0.5816
H3 H 0.8085 0.8706 0.6463
C1 C 0.55121(16) 0.62137(14) 0.71876(10)
C2 C 0.5000 0.9228(2) 0.7500
H4 H 0.5023 0.9802 0.8058
C3 C 0.71179(16) 0.70806(15) 0.64827(11)
H5 H 0.658(2) 0.8266(19) 0.8239(11)
H4A H 0.4977 0.9802 0.6942
N1A N 0.37585(13) 0.73478(12) 0.79077(8)
N2A N 0.36950(14) 0.84831(12) 0.73624(9)
N3A N 0.41682(15) 0.52839(13) 0.83437(10)
N4A N 0.31593(15) 0.58441(13) 0.87851(10)
H1A H 0.2747 0.5430 0.9196
N5A N 0.19894(16) 0.79094(14) 0.87744(11)
H2A H 0.1465 0.7668 0.9184
H3A H 0.1915 0.8706 0.8537
C1A C 0.44879(16) 0.62137(14) 0.78124(10)
C3A C 0.28821(16) 0.70806(15) 0.85173(11)
H5A H 0.342(2) 0.8266(19) 0.6761(11)
N6 N 0.80609(16) 0.42149(15) 0.49966(11)
N7 N 0.86343(17) 0.34206(15) 0.37588(10)
N8 N 0.95852(17) 0.30811(16) 0.44884(11)
N9 N 0.92367(19) 0.35738(16) 0.52519(11)
N10 N 0.76940(17) 0.41221(17) 0.40677(11)
H6? H 0.5023 0.9802 0.8058
loop_
_geom_bond_atom_site_label_1
_geom_bond_atom_site_label_2
_geom_bond_site_symmetry_1
_geom_bond_site_symmetry_2
N1 N2 1_555 1_555
N2 C2 1_555 1_555
N3 N4 1_555 1_555
N4 H1 1_555 1_555
N5 H2 1_555 1_555
H3 N5 1_555 1_555
C1 N1 1_555 1_555
C2 H4 1_555 1_555
C3 N1 1_555 1_555
H5 N2 1_555 1_555
N6 N9 1_555 1_555
N7 N8 1_555 1_555
N8 N9 1_555 1_555
N10 N6 1_555 1_555
H4A C2 1_555 1_555
N1A N2A 1_555 1_555
N2A C2 1_555 1_555
N3A N4A 1_555 1_555
N4A H1A 1_555 1_555
N5A H2A 1_555 1_555
H3A N5A 1_555 1_555
C1A C1 1_555 1_555
C3A N1A 1_555 1_555
H5A N2A 1_555 1_555
N3 C1 1_555 1_555
N4 C3 1_555 1_555
N5 C3 1_555 1_555
N7 N10 1_555 1_555
N1A C1A 1_555 1_555
N3A C1A 1_555 1_555
N4A C3A 1_555 1_555
N5A C3A 1_555 1_555

#END
