
#######################################################################
#
#                 Cambridge Crystallographic Data Centre
#                                CCDC 
#
#######################################################################
#
# If this CIF has been generated from an entry in the Cambridge 
# Structural Database, then it will include bibliographic, chemical, 
# crystal, experimental, refinement or atomic coordinate data resulting 
# from the CCDC's data processing and validation procedures.
#
#######################################################################

data_NEXMIP
_chemical_formula_moiety         'N5 1-,C2 H7 N4 O2 1+'
_chemical_name_systematic        
'2-[hydrazinyl(oxo)acetyl]hydrazinium pentazolide'
_symmetry_cell_setting           monoclinic
_symmetry_space_group_name_H-M   'P 21/c'
_symmetry_Int_Tables_number      14
_space_group_name_Hall           '-P 2ybc'
loop_
_symmetry_equiv_pos_site_id
_symmetry_equiv_pos_as_xyz
1 x,y,z
2 -x,1/2+y,1/2-z
3 -x,-y,-z
4 x,1/2-y,1/2+z
_cell_length_a                   12.138(4)
_cell_length_b                   10.025(3)
_cell_length_c                   14.091(3)
_cell_angle_alpha                90
_cell_angle_beta                 119.324(19)
_cell_angle_gamma                90
_cell_volume                     1494.93
_exptl_crystal_colour            colorless
_exptl_crystal_description       block
_cell_formula_units_Z            8
loop_
_atom_site_label
_atom_site_type_symbol
_atom_site_fract_x
_atom_site_fract_y
_atom_site_fract_z
N1 N 0.3042(4) 0.6124(4) 0.2308(3)
N2 N 0.3201(3) 0.7051(3) 0.3020(3)
N3 N 0.2185(3) 0.7127(4) 0.3116(3)
N4 N 0.1390(3) 0.6247(3) 0.2472(3)
N5 N 0.1891(3) 0.5608(3) 0.1966(3)
N6 N 0.8025(4) 0.8644(4) 0.7289(3)
N7 N 0.6901(3) 0.8087(3) 0.6976(3)
N8 N 0.6390(3) 0.8719(3) 0.7488(3)
N9 N 0.7174(3) 0.9632(3) 0.8120(3)
N10 N 0.8170(3) 0.9579(3) 0.8000(3)
O1 O 0.8666(3) 0.8308(3) 0.5016(2)
O2 O 1.1340(3) 0.6981(3) 0.4997(2)
N11 N 0.9785(3) 0.6420(3) 0.5828(2)
H1 H 1.0358 0.5852 0.5865
N12 N 0.9166(3) 0.6173(4) 0.6426(3)
H2 H 0.8592 0.6737 0.6393
H3 H 0.9349 0.5455 0.6835
N13 N 1.0123(3) 0.8776(3) 0.4123(2)
H4 H 0.9457 0.9251 0.4002
N14 N 1.0852(3) 0.9155(3) 0.3640(2)
H5 H 1.0515 0.9902 0.3232
H6 H 1.1658 0.9325 0.4169
H7 H 1.0853 0.8483 0.3207
C1 C 0.9525(3) 0.7495(3) 0.5206(3)
C2 C 1.0437(3) 0.7692(3) 0.4769(3)
O3 O 0.6434(2) 0.5469(3) 0.5079(2)
C3 C 0.5472(3) 0.4832(3) 0.4809(3)
N15 N 0.5117(3) 0.3752(3) 0.4164(2)
H8 H 0.4461 0.3273 0.4064
N16 N 0.5833(16) 0.3403(14) 0.3647(12)
H9 H 0.6487 0.3891 0.3754
H10 H 0.5621 0.2699 0.3219
O3B O 0.3566(2) 0.4531(3) 0.4921(2)
C3B C 0.4528(3) 0.5168(3) 0.5191(3)
N15B N 0.4883(3) 0.6248(3) 0.5836(2)
H8B H 0.5539 0.6727 0.5936
N16B N 0.4167(16) 0.6597(14) 0.6353(12)
H9B H 0.3513 0.6109 0.6246
H10B H 0.4379 0.7301 0.6781
C4 C 0.5437(3) 0.9972(3) 0.4749(3)
O4 O 0.6248(2) 1.0842(3) 0.4936(2)
N18 N 0.5216(3) 0.8925(3) 0.4117(2)
H14 H 0.4735 0.8263 0.4107
N19 N 0.5807(12) 0.8917(10) 0.3435(9)
H15 H 0.6285 0.9590 0.3459
H16 H 0.5687 0.8238 0.2999
C4B C 0.4563(3) 1.0028(3) 0.5251(3)
O4B O 0.3752(2) 0.9158(3) 0.5064(2)
N18B N 0.4784(3) 1.1075(3) 0.5883(2)
H14B H 0.5265 1.1737 0.5893
N19B N 0.4193(12) 1.1083(10) 0.6565(9)
H15B H 0.3715 1.0410 0.6541
H16B H 0.4313 1.1762 0.7001
N17? N 0.5887(16) 0.3222(13) 0.3771(12)
H11? H 0.5518 0.2495 0.3363
H12? H 0.5947 0.3862 0.3350
H13? H 0.6664 0.3008 0.4308
N20? N 0.5855(13) 0.8629(10) 0.3551(9)
H17? H 0.5774 0.7756 0.3379
H18? H 0.5475 0.9118 0.2937
H19? H 0.6680 0.8843 0.3925
loop_
_geom_bond_atom_site_label_1
_geom_bond_atom_site_label_2
_geom_bond_site_symmetry_1
_geom_bond_site_symmetry_2
N1 N2 1_555 1_555
N2 N3 1_555 1_555
N3 N4 1_555 1_555
N4 N5 1_555 1_555
N5 N1 1_555 1_555
N6 N7 1_555 1_555
N7 N8 1_555 1_555
N8 N9 1_555 1_555
N9 N10 1_555 1_555
N10 N6 1_555 1_555
O1 C1 1_555 1_555
O2 C2 1_555 1_555
N11 H1 1_555 1_555
N12 N11 1_555 1_555
H2 N12 1_555 1_555
H3 N12 1_555 1_555
N13 H4 1_555 1_555
N14 N13 1_555 1_555
H5 N14 1_555 1_555
H6 N14 1_555 1_555
H7 N14 1_555 1_555
C1 N11 1_555 1_555
C2 N13 1_555 1_555
O3 C3 1_555 1_555
C3 N15 1_555 1_555
N15 H8 1_555 1_555
N16 N15 1_555 1_555
H9 N16 1_555 1_555
H10 N16 1_555 1_555
C4 O4 1_555 1_555
N18 C4 1_555 1_555
H14 N18 1_555 1_555
N19 N18 1_555 1_555
H15 N19 1_555 1_555
H16 N19 1_555 1_555
O3B C3B 1_555 1_555
C3B C3 1_555 1_555
N15B C3B 1_555 1_555
H8B N15B 1_555 1_555
N16B N15B 1_555 1_555
H9B N16B 1_555 1_555
H10B N16B 1_555 1_555
C4B C4 1_555 1_555
O4B C4B 1_555 1_555
N18B C4B 1_555 1_555
H14B N18B 1_555 1_555
N19B N18B 1_555 1_555
H15B N19B 1_555 1_555
H16B N19B 1_555 1_555
C1 C2 1_555 1_555

#END
