
#######################################################################
#
#                 Cambridge Crystallographic Data Centre
#                                CCDC 
#
#######################################################################
#
# If this CIF has been generated from an entry in the Cambridge 
# Structural Database, then it will include bibliographic, chemical, 
# crystal, experimental, refinement or atomic coordinate data resulting 
# from the CCDC's data processing and validation procedures.
#
#######################################################################

data_NEYPOZ
_chemical_compound_source        'marine Streptomyces seoulensis'
_chemical_name_common            streptoseomycin
_chemical_formula_moiety         'C31 H37 N1 O11'
_chemical_name_systematic        
1,11-dihydroxy-8-methoxy-25-methyl-1,3,4,4a,6a,7,8,11,12,19,20,23,23a,25b-tetradecahydro-10aH-3,25a-epoxynaphtho[1'',2'':6',7']oxecino[3',2':3,4][1,7]dioxacyclotetradecino[10,11-c]pyrrole-9,16,18,21(2H,17H)-tetrone
_chemical_properties_biological  'activity against microaerophilic bacteria'
_symmetry_cell_setting           monoclinic
_symmetry_space_group_name_H-M   'P 21'
_symmetry_Int_Tables_number      4
_space_group_name_Hall           'P 2yb'
loop_
_symmetry_equiv_pos_site_id
_symmetry_equiv_pos_as_xyz
1 x,y,z
2 -x,1/2+y,-z
_cell_length_a                   12.7346(2)
_cell_length_b                   9.05120(10)
_cell_length_c                   13.6804(2)
_cell_angle_alpha                90
_cell_angle_beta                 114.8930(10)
_cell_angle_gamma                90
_cell_volume                     1430.35
_exptl_crystal_colour            colorless
_exptl_crystal_description       plate
_cell_formula_units_Z            2
loop_
_atom_site_label
_atom_site_type_symbol
_atom_site_fract_x
_atom_site_fract_y
_atom_site_fract_z
O1 O 0.28534(17) 0.6156(3) 0.47593(17)
O2 O 0.2272(2) 0.7435(3) 0.3197(2)
O3 O 0.47390(18) 0.5175(3) 0.44544(19)
O4 O -0.14964(18) 0.2487(3) 0.19703(18)
H1 H -0.2044 0.2923 0.1473
O5 O 0.16801(18) 0.1956(3) 0.28452(17)
O6 O 0.28466(17) 0.4101(3) 0.64542(16)
O7 O 0.26312(19) 0.2665(3) 0.76896(18)
O8 O 0.6864(2) 0.3813(3) 1.00710(19)
O9 O 0.5713(2) 0.8598(3) 0.99246(19)
O10 O 0.3256(2) 0.9640(3) 0.6804(2)
O11 O 0.09733(19) 0.8014(3) 0.57868(19)
H2 H 0.1009 0.8022 0.6414
N1 N 0.6402(2) 0.6223(4) 1.0303(2)
H3 H 0.6770 0.6288 1.1008
C1 C 0.2882(3) 0.6521(4) 0.3815(3)
C2 C 0.3723(3) 0.5593(4) 0.3539(3)
H4 H 0.3944 0.6148 0.3022
C3 C 0.3143(2) 0.4141(4) 0.3026(3)
H5 H 0.3056 0.3541 0.3592
H6 H 0.3679 0.3602 0.2799
C4 C 0.1932(2) 0.4210(4) 0.2035(2)
H7 H 0.1659 0.5258 0.1941
C5 C 0.2012(3) 0.3727(4) 0.1010(3)
H8 H 0.2554 0.4219 0.0815
C6 C 0.1380(3) 0.2669(5) 0.0367(3)
H9 H 0.1477 0.2457 -0.0270
C7 C 0.0515(3) 0.1785(5) 0.0603(3)
H10 H -0.0134 0.1488 -0.0093
C8 C 0.1071(3) 0.0365(5) 0.1270(3)
H11 H 0.0595 -0.0512 0.0924
H12 H 0.1857 0.0214 0.1307
C9 C 0.1134(3) 0.0573(4) 0.2399(3)
H13 H 0.1593 -0.0253 0.2871
C10 C -0.0080(3) 0.0575(4) 0.2364(3)
H14 H -0.0042 0.0831 0.3082
H15 H -0.0434 -0.0416 0.2162
C11 C -0.0808(3) 0.1719(4) 0.1529(3)
H16 H -0.1335 0.1192 0.0860
C12 C 0.0020(2) 0.2719(4) 0.1260(2)
H17 H -0.0413 0.3587 0.0825
C13 C 0.1053(2) 0.3253(4) 0.2288(2)
C14 C 0.0696(2) 0.4201(4) 0.3024(2)
C15 C 0.1231(2) 0.4023(4) 0.4081(2)
H18 H 0.1683 0.3155 0.4339
C16 C 0.1179(2) 0.5089(4) 0.4913(2)
H19 H 0.0343 0.5330 0.4688
C17 C 0.1782(2) 0.6549(4) 0.4855(2)
H20 H 0.1266 0.7093 0.4189
C18 C 0.2059(3) 0.7564(4) 0.5823(2)
H21 H 0.2499 0.7000 0.6503
C19 C 0.2764(3) 0.8907(4) 0.5779(3)
H22 H 0.3391 0.8588 0.5578
H23 H 0.2259 0.9603 0.5221
C20 C -0.0144(3) 0.5450(4) 0.2491(2)
H24 H 0.0277 0.6290 0.2377
H25 H -0.0518 0.5752 0.2955
H26 H -0.0734 0.5114 0.1795
C21 C 0.1601(2) 0.4379(4) 0.6016(2)
H27 H 0.1431 0.5039 0.6509
H28 H 0.1186 0.3436 0.5960
C22 C 0.5447(3) 0.6410(5) 0.4999(3)
H29 H 0.5703 0.6926 0.4508
H30 H 0.6124 0.6061 0.5629
H31 H 0.4998 0.7089 0.5233
C23 C 0.3247(3) 0.3225(4) 0.7319(2)
C24 C 0.4534(3) 0.2925(4) 0.7745(2)
H32 H 0.4641 0.2070 0.7345
H33 H 0.4813 0.2621 0.8509
C25 C 0.5321(3) 0.4179(4) 0.7689(2)
H34 H 0.6056 0.3747 0.7738
H35 H 0.4940 0.4675 0.6981
C26 C 0.5592(3) 0.5313(4) 0.8561(2)
C27 C 0.6359(2) 0.4966(4) 0.9714(3)
C28 C 0.5791(3) 0.7362(4) 0.9637(3)
C29 C 0.5261(3) 0.6731(4) 0.8505(2)
C30 C 0.4521(2) 0.7562(4) 0.7573(2)
H36 H 0.4350 0.7161 0.6881
C31 C 0.4058(3) 0.8880(4) 0.7631(3)
H37 H 0.4324 0.9319 0.8324
loop_
_geom_bond_atom_site_label_1
_geom_bond_atom_site_label_2
_geom_bond_site_symmetry_1
_geom_bond_site_symmetry_2
O1 C1 1_555 1_555
O2 C1 1_555 1_555
O3 C2 1_555 1_555
O4 H1 1_555 1_555
O5 C9 1_555 1_555
O6 C21 1_555 1_555
O7 C23 1_555 1_555
O8 C27 1_555 1_555
O9 C28 1_555 1_555
O10 C19 1_555 1_555
O11 H2 1_555 1_555
N1 H3 1_555 1_555
C1 C2 1_555 1_555
C2 H4 1_555 1_555
C3 C2 1_555 1_555
H5 C3 1_555 1_555
H6 C3 1_555 1_555
C4 C3 1_555 1_555
H7 C4 1_555 1_555
C5 C4 1_555 1_555
H8 C5 1_555 1_555
C6 C5 1_555 1_555
H9 C6 1_555 1_555
C7 C6 1_555 1_555
H10 C7 1_555 1_555
C8 C7 1_555 1_555
H11 C8 1_555 1_555
H12 C8 1_555 1_555
C9 C8 1_555 1_555
H13 C9 1_555 1_555
C10 C9 1_555 1_555
H14 C10 1_555 1_555
H15 C10 1_555 1_555
C11 O4 1_555 1_555
H16 C11 1_555 1_555
C12 C7 1_555 1_555
H17 C12 1_555 1_555
C13 O5 1_555 1_555
C14 C13 1_555 1_555
C15 C14 1_555 1_555
H18 C15 1_555 1_555
C16 C15 1_555 1_555
H19 C16 1_555 1_555
C17 O1 1_555 1_555
H20 C17 1_555 1_555
C18 O11 1_555 1_555
H21 C18 1_555 1_555
C19 C18 1_555 1_555
H22 C19 1_555 1_555
H23 C19 1_555 1_555
C20 C14 1_555 1_555
H24 C20 1_555 1_555
H25 C20 1_555 1_555
H26 C20 1_555 1_555
C21 C16 1_555 1_555
H27 C21 1_555 1_555
H28 C21 1_555 1_555
C22 O3 1_555 1_555
H29 C22 1_555 1_555
H30 C22 1_555 1_555
H31 C22 1_555 1_555
C23 O6 1_555 1_555
C24 C23 1_555 1_555
H32 C24 1_555 1_555
H33 C24 1_555 1_555
C25 C24 1_555 1_555
H34 C25 1_555 1_555
H35 C25 1_555 1_555
C26 C25 1_555 1_555
C27 N1 1_555 1_555
C28 N1 1_555 1_555
C29 C26 1_555 1_555
C30 C29 1_555 1_555
H36 C30 1_555 1_555
C31 O10 1_555 1_555
H37 C31 1_555 1_555
C4 C13 1_555 1_555
C10 C11 1_555 1_555
C11 C12 1_555 1_555
C12 C13 1_555 1_555
C16 C17 1_555 1_555
C17 C18 1_555 1_555
C26 C27 1_555 1_555
C28 C29 1_555 1_555
C30 C31 1_555 1_555

#END
