
#######################################################################
#
#                 Cambridge Crystallographic Data Centre
#                                CCDC 
#
#######################################################################
#
# If this CIF has been generated from an entry in the Cambridge 
# Structural Database, then it will include bibliographic, chemical, 
# crystal, experimental, refinement or atomic coordinate data resulting 
# from the CCDC's data processing and validation procedures.
#
#######################################################################

data_NEYPAK
_chemical_formula_moiety         'C26 H21 N3 O1'
_chemical_name_systematic        
(4Z)-4-((1-Methyl-1H-indol-3-yl)methylene)-3-phenyl-1-p-tolyl-1H-pyrazol-5-one
_symmetry_cell_setting           monoclinic
_symmetry_space_group_name_H-M   'P 21'
_symmetry_Int_Tables_number      4
_space_group_name_Hall           'P 2yb'
loop_
_symmetry_equiv_pos_site_id
_symmetry_equiv_pos_as_xyz
1 x,y,z
2 -x,1/2+y,-z
_cell_length_a                   13.8705(6)
_cell_length_b                   14.5185(7)
_cell_length_c                   15.2310(8)
_cell_angle_alpha                90
_cell_angle_beta                 93.711(4)
_cell_angle_gamma                90
_cell_volume                     3060.77
_exptl_crystal_colour            colorless
_exptl_crystal_description       block
_chemical_melting_point          '206-208 K'
_cell_formula_units_Z            6
loop_
_atom_site_label
_atom_site_type_symbol
_atom_site_fract_x
_atom_site_fract_y
_atom_site_fract_z
O1 O 0.50998(14) 0.69313(16) 0.24677(16)
N1 N 0.47940(15) 0.58373(17) 0.13876(16)
N2 N 0.53142(16) 0.52460(17) 0.08675(16)
N3 N 0.73435(18) 0.81833(19) 0.38467(17)
C1 C 0.1789(2) 0.5485(3) 0.1449(2)
C2 C 0.2363(2) 0.4795(2) 0.1158(2)
H1 H 0.2082 0.4241 0.0973
C3 C 0.3353(2) 0.4907(2) 0.1132(2)
H2 H 0.3728 0.4429 0.0935
C4 C 0.37817(19) 0.5724(2) 0.13980(19)
C5 C 0.3204(2) 0.6425(2) 0.1685(2)
H3 H 0.3478 0.6984 0.1865
C6 C 0.2224(2) 0.6292(3) 0.1705(2)
H4 H 0.1845 0.6769 0.1901
C7 C 0.0708(2) 0.5342(3) 0.1488(2)
H5 H 0.0538 0.4738 0.1272
H6 H 0.0368 0.5797 0.1131
H7 H 0.0535 0.5399 0.2085
C8 C 0.5388(2) 0.6378(2) 0.1935(2)
C9 C 0.63696(19) 0.6118(2) 0.17282(19)
C10 C 0.62304(19) 0.5414(2) 0.10619(19)
C11 C 0.69310(19) 0.4849(2) 0.06086(19)
C12 C 0.6663(2) 0.3970(2) 0.03347(19)
H8 H 0.6049 0.3755 0.0440
C13 C 0.7281(2) 0.3407(2) -0.0089(2)
H9 H 0.7084 0.2819 -0.0265
C14 C 0.8188(2) 0.3710(3) -0.0254(2)
H10 H 0.8610 0.3333 -0.0540
C15 C 0.8465(2) 0.4581(3) 0.0011(2)
H11 H 0.9080 0.4789 -0.0099
C16 C 0.7854(2) 0.5156(2) 0.0436(2)
H12 H 0.8055 0.5745 0.0606
C17 C 0.7219(2) 0.6456(2) 0.2118(2)
H13 H 0.7767 0.6189 0.1904
C18 C 0.7431(2) 0.7123(2) 0.2774(2)
C19 C 0.6830(2) 0.7626(2) 0.3291(2)
H14 H 0.6160 0.7583 0.3256
C20 C 0.8398(2) 0.7434(2) 0.3052(2)
C21 C 0.8317(2) 0.8088(2) 0.3711(2)
C22 C 0.9108(2) 0.8531(3) 0.4134(2)
H15 H 0.9034 0.8964 0.4574
C23 C 1.0002(2) 0.8296(3) 0.3868(3)
H16 H 1.0548 0.8577 0.4134
C24 C 1.0110(2) 0.7653(3) 0.3214(3)
H17 H 1.0727 0.7508 0.3052
C25 C 0.9318(2) 0.7219(3) 0.2793(2)
H18 H 0.9399 0.6793 0.2348
C26 C 0.6941(2) 0.8791(3) 0.4484(2)
H19 H 0.6280 0.8926 0.4303
H20 H 0.7306 0.9353 0.4522
H21 H 0.6971 0.8496 0.5050
O2 O -0.04114(14) 0.01383(16) 0.60294(15)
N4 N -0.07185(16) 0.12858(17) 0.49996(16)
N5 N -0.02033(17) 0.18036(16) 0.44160(16)
N6 N 0.18283(18) -0.12554(17) 0.72394(16)
C27 C -0.3707(2) 0.1780(2) 0.5107(2)
C28 C -0.3214(2) 0.1231(3) 0.5720(3)
H22 H -0.3548 0.0969 0.6168
C29 C -0.2235(2) 0.1055(2) 0.5690(2)
H23 H -0.1926 0.0668 0.6106
C30 C -0.1725(2) 0.1448(2) 0.50517(19)
C31 C -0.2197(2) 0.2016(3) 0.4459(2)
H24 H -0.1857 0.2303 0.4029
C32 C -0.3176(2) 0.2171(3) 0.4489(2)
H25 H -0.3483 0.2556 0.4071
C33 C -0.4770(2) 0.1972(3) 0.5154(3)
H26 H -0.4929 0.2541 0.4858
H27 H -0.4921 0.2016 0.5758
H28 H -0.5136 0.1480 0.4874
C34 C -0.0129(2) 0.0684(2) 0.5487(2)
C35 C 0.08439(19) 0.0861(2) 0.52103(19)
C36 C 0.0699(2) 0.1560(2) 0.45370(19)
C37 C 0.14053(19) 0.2031(2) 0.40019(17)
C38 C 0.2253(2) 0.1621(2) 0.37696(19)
H29 H 0.2395 0.1021 0.3947
C39 C 0.2889(2) 0.2096(3) 0.3277(2)
H30 H 0.3468 0.1821 0.3144
C40 C 0.2678(2) 0.2969(3) 0.2981(2)
H31 H 0.3104 0.3280 0.2638
C41 C 0.1838(2) 0.3382(2) 0.3193(2)
H32 H 0.1689 0.3972 0.2989
C42 C 0.1211(2) 0.2923(2) 0.37096(19)
H33 H 0.0649 0.3215 0.3864
C43 C 0.1703(2) 0.0523(2) 0.55672(19)
H34 H 0.2242 0.0783 0.5334
C44 C 0.1929(2) -0.0148(2) 0.62232(19)
C45 C 0.1320(2) -0.0684(2) 0.6698(2)
H35 H 0.0650 -0.0650 0.6647
C46 C 0.2895(2) -0.0424(2) 0.65243(19)
C47 C 0.3824(2) -0.0154(2) 0.6325(2)
H36 H 0.3912 0.0311 0.5918
C48 C 0.4606(2) -0.0592(3) 0.6747(2)
H37 H 0.5227 -0.0417 0.6622
C49 C 0.4486(3) -0.1291(3) 0.7355(2)
H38 H 0.5028 -0.1578 0.7623
C50 C 0.3589(2) -0.1562(2) 0.7565(2)
H39 H 0.3506 -0.2029 0.7971
C51 C 0.2808(2) -0.1115(2) 0.71486(19)
C52 C 0.1417(2) -0.1926(2) 0.7813(2)
H40 H 0.1552 -0.2535 0.7610
H41 H 0.0731 -0.1837 0.7807
H42 H 0.1696 -0.1848 0.8401
O3 O 0.59115(13) 0.18566(14) 0.07577(14)
N7 N 0.62233(14) 0.08361(16) 0.18956(15)
N8 N 0.57217(15) 0.02898(16) 0.24724(15)
N9 N 0.36045(16) 0.30869(16) -0.05548(15)
C53 C 0.92564(19) 0.0574(2) 0.2018(2)
C54 C 0.8749(2) 0.0809(2) 0.1246(2)
H43 H 0.9084 0.0907 0.0745
C55 C 0.7754(2) 0.0903(2) 0.1189(2)
H44 H 0.7428 0.1061 0.0658
C56 C 0.72509(18) 0.07615(19) 0.19267(19)
C57 C 0.77353(19) 0.0521(2) 0.2706(2)
H45 H 0.7396 0.0422 0.3205
C58 C 0.8733(2) 0.0427(2) 0.2750(2)
H46 H 0.9056 0.0261 0.3280
C59 C 1.0343(2) 0.0457(3) 0.2092(2)
H47 H 1.0598 0.0593 0.1535
H48 H 1.0500 -0.0167 0.2256
H49 H 1.0621 0.0869 0.2531
C60 C 0.56200(19) 0.1320(2) 0.13102(19)
C61 C 0.46493(19) 0.10727(19) 0.15419(18)
C62 C 0.48003(19) 0.0420(2) 0.22519(18)
C63 C 0.40862(18) -0.0118(2) 0.27095(18)
C64 C 0.4228(2) -0.0292(2) 0.3603(2)
H50 H 0.4760 -0.0039 0.3919
C65 C 0.3592(2) -0.0831(2) 0.4027(2)
H51 H 0.3693 -0.0939 0.4628
C66 C 0.2801(2) -0.1217(3) 0.3564(3)
H52 H 0.2376 -0.1592 0.3847
C67 C 0.2652(2) -0.1038(2) 0.2686(2)
H53 H 0.2114 -0.1285 0.2374
C68 C 0.3287(2) -0.0498(2) 0.2254(2)
H54 H 0.3178 -0.0388 0.1654
C69 C 0.3781(2) 0.1432(2) 0.12282(18)
H55 H 0.3251 0.1199 0.1500
C70 C 0.35422(19) 0.2092(2) 0.05679(18)
C71 C 0.4134(2) 0.2547(2) 0.0003(2)
H56 H 0.4802 0.2484 0.0012
C72 C 0.2575(2) 0.2410(2) 0.0317(2)
C73 C 0.2638(2) 0.3013(2) -0.03927(19)
C74 C 0.4006(2) 0.3705(2) -0.1192(2)
H57 H 0.3536 0.3810 -0.1672
H58 H 0.4573 0.3432 -0.1411
H59 H 0.4175 0.4281 -0.0912
C75 C 0.1667(2) 0.2237(2) 0.0627(2)
H60 H 0.1600 0.1854 0.1109
C76 C 0.0871(2) 0.2649(3) 0.0199(3)
H61 H 0.0260 0.2534 0.0393
C77 C 0.0963(2) 0.3228(3) -0.0510(2)
H62 H 0.0411 0.3493 -0.0783
C78 C 0.1843(2) 0.3422(2) -0.0824(2)
H63 H 0.1903 0.3811 -0.1303
loop_
_geom_bond_atom_site_label_1
_geom_bond_atom_site_label_2
_geom_bond_site_symmetry_1
_geom_bond_site_symmetry_2
O1 C8 1_555 1_555
N1 N2 1_555 1_555
N2 C10 1_555 1_555
N3 C19 1_555 1_555
C1 C2 1_555 1_555
C2 H1 1_555 1_555
C3 C2 1_555 1_555
H2 C3 1_555 1_555
C4 N1 1_555 1_555
C5 C4 1_555 1_555
H3 C5 1_555 1_555
C6 C1 1_555 1_555
H4 C6 1_555 1_555
C7 C1 1_555 1_555
H5 C7 1_555 1_555
H6 C7 1_555 1_555
H7 C7 1_555 1_555
C8 N1 1_555 1_555
C9 C8 1_555 1_555
C10 C9 1_555 1_555
C11 C10 1_555 1_555
C12 C11 1_555 1_555
H8 C12 1_555 1_555
C13 C12 1_555 1_555
H9 C13 1_555 1_555
C14 C13 1_555 1_555
H10 C14 1_555 1_555
C15 C14 1_555 1_555
H11 C15 1_555 1_555
C16 C11 1_555 1_555
H12 C16 1_555 1_555
C17 C9 1_555 1_555
H13 C17 1_555 1_555
C18 C17 1_555 1_555
C19 C18 1_555 1_555
H14 C19 1_555 1_555
C20 C18 1_555 1_555
C21 N3 1_555 1_555
C22 C21 1_555 1_555
H15 C22 1_555 1_555
C23 C22 1_555 1_555
H16 C23 1_555 1_555
C24 C23 1_555 1_555
H17 C24 1_555 1_555
C25 C20 1_555 1_555
H18 C25 1_555 1_555
C26 N3 1_555 1_555
H19 C26 1_555 1_555
H20 C26 1_555 1_555
H21 C26 1_555 1_555
O2 C34 1_555 1_555
N4 N5 1_555 1_555
N5 C36 1_555 1_555
N6 C45 1_555 1_555
C27 C28 1_555 1_555
C28 H22 1_555 1_555
C29 C28 1_555 1_555
H23 C29 1_555 1_555
C30 N4 1_555 1_555
C31 C30 1_555 1_555
H24 C31 1_555 1_555
C32 C27 1_555 1_555
H25 C32 1_555 1_555
C33 C27 1_555 1_555
H26 C33 1_555 1_555
H27 C33 1_555 1_555
H28 C33 1_555 1_555
C34 N4 1_555 1_555
C35 C34 1_555 1_555
C36 C35 1_555 1_555
C37 C36 1_555 1_555
C38 C37 1_555 1_555
H29 C38 1_555 1_555
C39 C38 1_555 1_555
H30 C39 1_555 1_555
C40 C39 1_555 1_555
H31 C40 1_555 1_555
C41 C40 1_555 1_555
H32 C41 1_555 1_555
C42 C37 1_555 1_555
H33 C42 1_555 1_555
C43 C35 1_555 1_555
H34 C43 1_555 1_555
C44 C43 1_555 1_555
C45 C44 1_555 1_555
H35 C45 1_555 1_555
C46 C44 1_555 1_555
C47 C46 1_555 1_555
H36 C47 1_555 1_555
C48 C47 1_555 1_555
H37 C48 1_555 1_555
C49 C48 1_555 1_555
H38 C49 1_555 1_555
C50 C49 1_555 1_555
H39 C50 1_555 1_555
C51 N6 1_555 1_555
C52 N6 1_555 1_555
H40 C52 1_555 1_555
H41 C52 1_555 1_555
H42 C52 1_555 1_555
O3 C60 1_555 1_555
N7 N8 1_555 1_555
N8 C62 1_555 1_555
N9 C71 1_555 1_555
C53 C54 1_555 1_555
C54 H43 1_555 1_555
C55 C54 1_555 1_555
H44 C55 1_555 1_555
C56 N7 1_555 1_555
C57 C56 1_555 1_555
H45 C57 1_555 1_555
C58 C53 1_555 1_555
H46 C58 1_555 1_555
C59 C53 1_555 1_555
H47 C59 1_555 1_555
H48 C59 1_555 1_555
H49 C59 1_555 1_555
C60 N7 1_555 1_555
C61 C60 1_555 1_555
C62 C61 1_555 1_555
C63 C62 1_555 1_555
C64 C63 1_555 1_555
H50 C64 1_555 1_555
C65 C64 1_555 1_555
H51 C65 1_555 1_555
C66 C65 1_555 1_555
H52 C66 1_555 1_555
C67 C66 1_555 1_555
H53 C67 1_555 1_555
C68 C63 1_555 1_555
H54 C68 1_555 1_555
C69 C61 1_555 1_555
H55 C69 1_555 1_555
C70 C69 1_555 1_555
C71 C70 1_555 1_555
H56 C71 1_555 1_555
C72 C70 1_555 1_555
C73 N9 1_555 1_555
C74 N9 1_555 1_555
H57 C74 1_555 1_555
H58 C74 1_555 1_555
H59 C74 1_555 1_555
C75 C72 1_555 1_555
H60 C75 1_555 1_555
C76 C75 1_555 1_555
H61 C76 1_555 1_555
C77 C76 1_555 1_555
H62 C77 1_555 1_555
C78 C73 1_555 1_555
H63 C78 1_555 1_555
C3 C4 1_555 1_555
C5 C6 1_555 1_555
C15 C16 1_555 1_555
C20 C21 1_555 1_555
C24 C25 1_555 1_555
C29 C30 1_555 1_555
C31 C32 1_555 1_555
C41 C42 1_555 1_555
C46 C51 1_555 1_555
C50 C51 1_555 1_555
C55 C56 1_555 1_555
C57 C58 1_555 1_555
C67 C68 1_555 1_555
C72 C73 1_555 1_555
C77 C78 1_555 1_555

#END
