
#######################################################################
#
#                 Cambridge Crystallographic Data Centre
#                                CCDC 
#
#######################################################################
#
# If this CIF has been generated from an entry in the Cambridge 
# Structural Database, then it will include bibliographic, chemical, 
# crystal, experimental, refinement or atomic coordinate data resulting 
# from the CCDC's data processing and validation procedures.
#
#######################################################################

data_NEYZEY
_chemical_formula_moiety         'C17 H14 N5 O2 1+,Cl1 1-'
_chemical_name_systematic        
'[(Pyridin-2-ium)pyridin-2-yl ketone 3-nitrophenylhydrazone] chloride'
_symmetry_cell_setting           monoclinic
_symmetry_space_group_name_H-M   'P 21/c'
_symmetry_Int_Tables_number      14
_space_group_name_Hall           '-P 2ybc'
loop_
_symmetry_equiv_pos_site_id
_symmetry_equiv_pos_as_xyz
1 x,y,z
2 -x,1/2+y,1/2-z
3 -x,-y,-z
4 x,1/2-y,1/2+z
_cell_length_a                   14.4210(4)
_cell_length_b                   9.1543(3)
_cell_length_c                   12.3365(3)
_cell_angle_alpha                90
_cell_angle_beta                 104.583(2)
_cell_angle_gamma                90
_cell_volume                     1576.13
_exptl_crystal_colour            orange
_exptl_crystal_description       block
_cell_formula_units_Z            4
loop_
_atom_site_label
_atom_site_type_symbol
_atom_site_fract_x
_atom_site_fract_y
_atom_site_fract_z
O1 O -0.03964(14) 0.3414(2) -0.24338(16)
O2 O -0.05601(15) 0.1296(2) -0.17132(18)
N1 N 0.18720(12) 0.6226(2) 0.05921(15)
H1 H 0.1775 0.6832 0.0021
N2 N 0.23955(12) 0.66023(19) 0.16109(14)
N3 N -0.02235(15) 0.2541(3) -0.1650(2)
N4 N 0.21076(13) 0.8953(2) -0.00114(15)
N5 N 0.38416(12) 0.69769(19) 0.34985(14)
H2 H 0.3879 0.6190 0.3101
C1 C 0.14781(19) 0.4783(5) 0.0482(3)
C2 C 0.08523(19) 0.4368(3) -0.0526(2)
H3 H 0.0720 0.5005 -0.1154
C3 C 0.04273(18) 0.3000(4) -0.0589(3)
C4 C 0.0585(2) 0.2043(3) 0.0314(3)
H4 H 0.0251 0.1140 0.0260
C5 C 0.1243(2) 0.2442(3) 0.1292(3)
H5 H 0.1381 0.1789 0.1910
C6 C 0.1705(2) 0.3781(3) 0.1384(3)
H6 H 0.2173 0.4025 0.2051
C7 C 0.27675(14) 0.7910(2) 0.18065(17)
C8 C 0.27241(15) 0.9120(2) 0.10053(17)
C9 C 0.20802(17) 1.0007(3) -0.07732(19)
H7 H 0.1651 0.9895 -0.1491
C10 C 0.26438(17) 1.1250(3) -0.05704(19)
H8 H 0.2599 1.1974 -0.1134
C11 C 0.32707(16) 1.1414(3) 0.04656(19)
H9 H 0.3664 1.2258 0.0629
C12 C 0.33241(15) 1.0338(2) 0.12679(18)
H10 H 0.3760 1.0425 0.1984
C13 C 0.32947(14) 0.8100(2) 0.29957(17)
C14 C 0.43328(15) 0.7006(2) 0.45798(18)
H11 H 0.4710 0.6187 0.4895
C15 C 0.42952(15) 0.8204(2) 0.52328(18)
H12 H 0.4650 0.8233 0.5994
C16 C 0.37272(15) 0.9372(2) 0.47554(18)
H13 H 0.3679 1.0208 0.5194
C17 C 0.32298(15) 0.9322(2) 0.36410(18)
H14 H 0.2842 1.0125 0.3315
Cl1 Cl 0.43463(4) 0.40942(6) 0.25733(4)
O1B O 0.03964(14) -0.3414(2) 0.24338(16)
O2B O 0.05601(15) -0.1296(2) 0.17132(18)
N1B N -0.18720(12) -0.6226(2) -0.05921(15)
H1B H -0.1775 -0.6832 -0.0021
N2B N -0.23955(12) -0.66023(19) -0.16109(14)
N3B N 0.02235(15) -0.2541(3) 0.1650(2)
N4B N -0.21076(13) -0.8953(2) 0.00114(15)
N5B N -0.38416(12) -0.69769(19) -0.34985(14)
H2B H -0.3879 -0.6190 -0.3101
C1B C -0.14781(19) -0.4783(5) -0.0482(3)
C2B C -0.08523(19) -0.4368(3) 0.0526(2)
H3B H -0.0720 -0.5005 0.1154
C3B C -0.04273(18) -0.3000(4) 0.0589(3)
C4B C -0.0585(2) -0.2043(3) -0.0314(3)
H4B H -0.0251 -0.1140 -0.0260
C5B C -0.1243(2) -0.2442(3) -0.1292(3)
H5B H -0.1381 -0.1789 -0.1910
C6B C -0.1705(2) -0.3781(3) -0.1384(3)
H6B H -0.2173 -0.4025 -0.2051
C7B C -0.27675(14) -0.7910(2) -0.18065(17)
C8B C -0.27241(15) -0.9120(2) -0.10053(17)
C9B C -0.20802(17) -1.0007(3) 0.07732(19)
H7B H -0.1651 -0.9895 0.1491
C10B C -0.26438(17) -1.1250(3) 0.05704(19)
H8B H -0.2599 -1.1974 0.1134
C11B C -0.32707(16) -1.1414(3) -0.04656(19)
H9B H -0.3664 -1.2258 -0.0629
C12B C -0.33241(15) -1.0338(2) -0.12679(18)
H10B H -0.3760 -1.0425 -0.1984
C13B C -0.32947(14) -0.8100(2) -0.29957(17)
C14B C -0.43328(15) -0.7006(2) -0.45798(18)
H11B H -0.4710 -0.6187 -0.4895
C15B C -0.42952(15) -0.8204(2) -0.52328(18)
H12B H -0.4650 -0.8233 -0.5994
C16B C -0.37272(15) -0.9372(2) -0.47554(18)
H13B H -0.3679 -1.0208 -0.5194
C17B C -0.32298(15) -0.9322(2) -0.36410(18)
H14B H -0.2842 -1.0125 -0.3315
O3? O 0.0773(7) 0.0354(11) 0.1325(8)
O4? O 0.1633(6) 0.1793(10) 0.2534(7)
N6? N 0.1165(7) 0.1550(13) 0.1594(9)
C18? C 0.1450(8) 0.5109(10) 0.0250(9)
C19? C 0.1545(7) 0.4021(12) 0.1057(7)
H15? H 0.1950 0.4171 0.1785
C20? C 0.1049(7) 0.2714(10) 0.0798(8)
C21? C 0.0457(6) 0.2494(9) -0.0268(9)
H16? H 0.0117 0.1601 -0.0445
C22? C 0.0361(6) 0.3582(12) -0.1074(7)
H17? H -0.0044 0.3432 -0.1803
C23? C 0.0858(8) 0.4890(10) -0.0815(8)
H18? H 0.0792 0.5634 -0.1367
loop_
_geom_bond_atom_site_label_1
_geom_bond_atom_site_label_2
_geom_bond_site_symmetry_1
_geom_bond_site_symmetry_2
O1 N3 1_555 1_555
O2 N3 1_555 1_555
N1 H1 1_555 1_555
N2 N1 1_555 1_555
N3 C3 1_555 1_555
N4 C8 1_555 1_555
N5 H2 1_555 1_555
C1 N1 1_555 1_555
C2 C1 1_555 1_555
H3 C2 1_555 1_555
C3 C2 1_555 1_555
C4 C3 1_555 1_555
H4 C4 1_555 1_555
C5 C4 1_555 1_555
H5 C5 1_555 1_555
C6 C1 1_555 1_555
H6 C6 1_555 1_555
C7 N2 1_555 1_555
C8 C7 1_555 1_555
C9 N4 1_555 1_555
H7 C9 1_555 1_555
C10 C9 1_555 1_555
H8 C10 1_555 1_555
C11 C10 1_555 1_555
H9 C11 1_555 1_555
C12 C8 1_555 1_555
H10 C12 1_555 1_555
C13 N5 1_555 1_555
C14 N5 1_555 1_555
H11 C14 1_555 1_555
C15 C14 1_555 1_555
H12 C15 1_555 1_555
C16 C15 1_555 1_555
H13 C16 1_555 1_555
C17 C13 1_555 1_555
H14 C17 1_555 1_555
O1B N3B 1_555 1_555
O2B N3B 1_555 1_555
N1B H1B 1_555 1_555
N2B N1B 1_555 1_555
N3B C3B 1_555 1_555
N4B C8B 1_555 1_555
N5B H2B 1_555 1_555
C1B N1B 1_555 1_555
C2B C1B 1_555 1_555
H3B C2B 1_555 1_555
C3B C2B 1_555 1_555
C4B C3B 1_555 1_555
H4B C4B 1_555 1_555
C5B C4B 1_555 1_555
H5B C5B 1_555 1_555
C6B C1B 1_555 1_555
H6B C6B 1_555 1_555
C7B N2B 1_555 1_555
C8B C7B 1_555 1_555
C9B N4B 1_555 1_555
H7B C9B 1_555 1_555
C10B C9B 1_555 1_555
H8B C10B 1_555 1_555
C11B C10B 1_555 1_555
H9B C11B 1_555 1_555
C12B C8B 1_555 1_555
H10B C12B 1_555 1_555
C13B N5B 1_555 1_555
C14B N5B 1_555 1_555
H11B C14B 1_555 1_555
C15B C14B 1_555 1_555
H12B C15B 1_555 1_555
C16B C15B 1_555 1_555
H13B C16B 1_555 1_555
C17B C13B 1_555 1_555
H14B C17B 1_555 1_555
C5 C6 1_555 1_555
C7 C13 1_555 1_555
C11 C12 1_555 1_555
C16 C17 1_555 1_555
C5B C6B 1_555 1_555
C7B C13B 1_555 1_555
C11B C12B 1_555 1_555
C16B C17B 1_555 1_555

#END
