
#######################################################################
#
#                 Cambridge Crystallographic Data Centre
#                                CCDC 
#
#######################################################################
#
# If this CIF has been generated from an entry in the Cambridge 
# Structural Database, then it will include bibliographic, chemical, 
# crystal, experimental, refinement or atomic coordinate data resulting 
# from the CCDC's data processing and validation procedures.
#
#######################################################################

data_NEZWUM
_chemical_formula_moiety         'C70 H58 N4 S3'
_chemical_name_systematic        
6,11,21,26-Tetramesityl-35,37,40-trithia-36,38,39,41-tetraazanonacyclo[14.14.4.1^2,5^.1^7,10^.1^12,15^.1^17,20^.1^22,25^.1^27,30^.1^31,34^]hentetraconta-1,3,5(41),6,8,10,12(39),13,15,17(38),18,20,22,24,26,28,30(36),31,33-nonadecaene
_symmetry_cell_setting           monoclinic
_symmetry_space_group_name_H-M   'P 21/n'
_symmetry_Int_Tables_number      14
_space_group_name_Hall           '-P 2yn'
loop_
_symmetry_equiv_pos_site_id
_symmetry_equiv_pos_as_xyz
1 x,y,z
2 1/2-x,1/2+y,1/2-z
3 -x,-y,-z
4 1/2+x,1/2-y,1/2+z
_cell_length_a                   13.9067(4)
_cell_length_b                   15.8085(4)
_cell_length_c                   15.0187(4)
_cell_angle_alpha                90
_cell_angle_beta                 111.7020(10)
_cell_angle_gamma                90
_cell_volume                     3067.74
_exptl_crystal_colour            green
_exptl_crystal_description       plate
_cell_formula_units_Z            2
loop_
_atom_site_label
_atom_site_type_symbol
_atom_site_fract_x
_atom_site_fract_y
_atom_site_fract_z
S1 S 0.12290(4) 0.21260(3) 0.60808(3)
C1 C 0.15849(16) 0.21216(14) 0.80439(14)
C2 C 0.12242(16) 0.12892(14) 0.80231(14)
C3 C 0.14471(16) 0.31488(14) 0.46374(15)
C4 C 0.16088(16) 0.30247(14) 0.56230(14)
C5 C 0.12016(18) 0.30908(14) 0.92000(15)
C6 C 0.16636(16) 0.25441(14) 0.72396(14)
C7 C 0.18985(17) 0.25577(14) 0.89965(14)
C8 C 0.06094(16) 0.00495(13) 0.74464(14)
C9 C 0.20654(16) 0.36207(15) 0.63629(15)
H1 H 0.2333 0.4150 0.6261
C10 C 0.05748(18) 0.26709(15) 0.28760(15)
H2 H 0.0692 0.3149 0.2546
C11 C 0.18786(16) 0.39198(14) 0.43346(14)
C12 C 0.01172(18) 0.14000(13) 0.32714(14)
C13 C 0.09083(16) 0.25677(13) 0.39125(14)
C14 C 0.12680(17) 0.46358(15) 0.39808(15)
C15 C 0.20846(17) 0.33583(15) 0.72487(15)
H3 H 0.2356 0.3695 0.7811
C16 C 0.07163(17) 0.00432(15) 0.84472(15)
H4 H 0.0553 -0.0410 0.8782
C17 C 0.28993(17) 0.38870(15) 0.43490(15)
C18 C 0.00678(18) 0.19547(15) 0.24777(15)
H5 H -0.0257 0.1835 0.1813
C19 C 0.32886(19) 0.45861(16) 0.40335(16)
H6 H 0.3978 0.4569 0.4052
C20 C 0.35390(19) 0.30991(17) 0.46622(18)
H7 H 0.3524 0.2909 0.5278
H8 H 0.4255 0.3219 0.4732
H9 H 0.3255 0.2655 0.4181
C21 C 0.1468(2) 0.34176(15) 1.01281(17)
H10 H 0.0995 0.3779 1.0266
C22 C 0.10973(19) 0.08143(16) 0.88065(16)
H11 H 0.1251 0.1007 0.9443
C23 C 0.0214(3) -0.05665(15) 0.67101(16)
C24 C 0.1697(2) 0.53211(16) 0.36677(17)
H12 H 0.1286 0.5811 0.3430
C25 C 0.2703(2) 0.53067(17) 0.36934(17)
C26 C 0.01708(19) 0.33107(19) 0.84407(19)
H13 H -0.0230 0.3653 0.8724
H14 H -0.0209 0.2790 0.8175
H15 H 0.0280 0.3632 0.7928
C27 C 0.01573(19) 0.46683(16) 0.38962(19)
H16 H -0.0256 0.4283 0.3387
H17 H -0.0106 0.5246 0.3740
H18 H 0.0110 0.4497 0.4506
C28 C 0.3152(3) 0.6055(2) 0.3358(2)
H19 H 0.3631 0.6358 0.3915
H20 H 0.2592 0.6436 0.2985
H21 H 0.3525 0.5857 0.2957
C29 C 0.2677(4) 0.3566(3) 1.1854(2)
H22 H 0.2709 0.3098 1.2292
H23 H 0.2148 0.3972 1.1862
H24 H 0.3351 0.3849 1.2058
C30 C 0.2858(2) 0.23638(18) 0.97130(18)
C31 C 0.2403(3) 0.3225(2) 1.08472(19)
C32 C 0.3608(2) 0.1786(2) 0.9509(2)
H25 H 0.4277 0.1805 1.0045
H26 H 0.3697 0.1969 0.8921
H27 H 0.3340 0.1206 0.9427
C33 C 0.3089(3) 0.2702(2) 1.0627(2)
H28 H 0.3737 0.2572 1.1115
N1 N 0.09318(15) 0.07987(12) 0.72228(12)
N2 N 0.06184(16) 0.17974(12) 0.41188(12)
C34 C -0.0281(3) -0.0142(2) 0.5770(3)
C35 C -0.0903(3) 0.0935(3) 0.4666(3)
H29 H -0.0908 0.1557 0.4544
C36 C -0.0773(3) 0.0645(3) 0.5568(3)
H30 H -0.0668 0.1059 0.6100
C37 C 0.0498(3) -0.0384(2) 0.5825(3)
S2 S 0.00441(10) 0.05209(7) 0.51876(7)
S1B S -0.12290(4) -0.21260(3) 0.39192(3)
C1B C -0.15849(16) -0.21216(14) 0.19561(14)
C2B C -0.12242(16) -0.12892(14) 0.19769(14)
C3B C -0.14471(16) -0.31488(14) 0.53626(15)
C4B C -0.16088(16) -0.30247(14) 0.43770(14)
C5B C -0.12016(18) -0.30908(14) 0.08000(15)
C6B C -0.16636(16) -0.25441(14) 0.27604(14)
C7B C -0.18985(17) -0.25577(14) 0.10035(14)
C8B C -0.06094(16) -0.00495(13) 0.25536(14)
C9B C -0.20654(16) -0.36207(15) 0.36371(15)
H1B H -0.2333 -0.4150 0.3739
C10B C -0.05748(18) -0.26709(15) 0.71240(15)
H2B H -0.0692 -0.3149 0.7454
C11B C -0.18786(16) -0.39198(14) 0.56654(14)
C12B C -0.01172(18) -0.14000(13) 0.67286(14)
C13B C -0.09083(16) -0.25677(13) 0.60875(14)
C14B C -0.12680(17) -0.46358(15) 0.60192(15)
C15B C -0.20846(17) -0.33583(15) 0.27513(15)
H3B H -0.2356 -0.3695 0.2189
C16B C -0.07163(17) -0.00432(15) 0.15528(15)
H4B H -0.0553 0.0410 0.1218
C17B C -0.28993(17) -0.38870(15) 0.56510(15)
C18B C -0.00678(18) -0.19547(15) 0.75223(15)
H5B H 0.0257 -0.1835 0.8187
C19B C -0.32886(19) -0.45861(16) 0.59665(16)
H6B H -0.3978 -0.4569 0.5948
C20B C -0.35390(19) -0.30991(17) 0.53378(18)
H7B H -0.3524 -0.2909 0.4722
H8B H -0.4255 -0.3219 0.5268
H9B H -0.3255 -0.2655 0.5819
C21B C -0.1468(2) -0.34176(15) -0.01281(17)
H10B H -0.0995 -0.3779 -0.0266
C22B C -0.10973(19) -0.08143(16) 0.11935(16)
H11B H -0.1251 -0.1007 0.0557
C23B C -0.0214(3) 0.05665(15) 0.32899(16)
C24B C -0.1697(2) -0.53211(16) 0.63323(17)
H12B H -0.1286 -0.5811 0.6570
C25B C -0.2703(2) -0.53067(17) 0.63066(17)
C26B C -0.01708(19) -0.33107(19) 0.15593(19)
H13B H 0.0230 -0.3653 0.1276
H14B H 0.0209 -0.2790 0.1825
H15B H -0.0280 -0.3632 0.2072
C27B C -0.01573(19) -0.46683(16) 0.61038(19)
H16B H 0.0256 -0.4283 0.6613
H17B H 0.0106 -0.5246 0.6260
H18B H -0.0110 -0.4497 0.5494
C28B C -0.3152(3) -0.6055(2) 0.6642(2)
H19B H -0.3631 -0.6358 0.6085
H20B H -0.2592 -0.6436 0.7015
H21B H -0.3525 -0.5857 0.7043
C29B C -0.2677(4) -0.3566(3) -0.1854(2)
H22B H -0.2709 -0.3098 -0.2292
H23B H -0.2148 -0.3972 -0.1862
H24B H -0.3351 -0.3849 -0.2058
C30B C -0.2858(2) -0.23638(18) 0.02870(18)
C31B C -0.2403(3) -0.3225(2) -0.08472(19)
C32B C -0.3608(2) -0.1786(2) 0.0491(2)
H25B H -0.4277 -0.1805 -0.0045
H26B H -0.3697 -0.1969 0.1079
H27B H -0.3340 -0.1206 0.0573
C33B C -0.3089(3) -0.2702(2) -0.0627(2)
H28B H -0.3737 -0.2572 -0.1115
N1B N -0.09318(15) -0.07987(12) 0.27772(12)
N2B N -0.06184(16) -0.17974(12) 0.58812(12)
C34B C 0.0281(3) 0.0142(2) 0.4230(3)
C35B C 0.0903(3) -0.0935(3) 0.5334(3)
H29B H 0.0908 -0.1557 0.5456
C36B C 0.0773(3) -0.0645(3) 0.4432(3)
H30B H 0.0668 -0.1059 0.3900
C37B C -0.0498(3) 0.0384(2) 0.4175(3)
S2B S -0.00441(10) -0.05209(7) 0.48124(7)
loop_
_geom_bond_atom_site_label_1
_geom_bond_atom_site_label_2
_geom_bond_site_symmetry_1
_geom_bond_site_symmetry_2
S1 C4 1_555 1_555
C1 C2 1_555 1_555
C2 C22 1_555 1_555
C3 C4 1_555 1_555
C4 C9 1_555 1_555
C5 C7 1_555 1_555
C6 S1 1_555 1_555
C7 C1 1_555 1_555
C8 C16 1_555 1_555
C9 H1 1_555 1_555
C10 H2 1_555 1_555
C11 C3 1_555 1_555
C12 C18 1_555 1_555
C13 C3 1_555 1_555
C14 C11 1_555 1_555
C15 C6 1_555 1_555
H3 C15 1_555 1_555
C16 H4 1_555 1_555
C17 C11 1_555 1_555
C18 C10 1_555 1_555
H5 C18 1_555 1_555
C19 C17 1_555 1_555
H6 C19 1_555 1_555
C20 C17 1_555 1_555
H7 C20 1_555 1_555
H8 C20 1_555 1_555
H9 C20 1_555 1_555
C21 C5 1_555 1_555
H10 C21 1_555 1_555
C22 C16 1_555 1_555
H11 C22 1_555 1_555
C23 C8 1_555 1_555
C24 C14 1_555 1_555
H12 C24 1_555 1_555
C25 C19 1_555 1_555
C26 C5 1_555 1_555
H13 C26 1_555 1_555
H14 C26 1_555 1_555
H15 C26 1_555 1_555
C27 C14 1_555 1_555
H16 C27 1_555 1_555
H17 C27 1_555 1_555
H18 C27 1_555 1_555
C28 C25 1_555 1_555
H19 C28 1_555 1_555
H20 C28 1_555 1_555
H21 C28 1_555 1_555
C29 H22 1_555 1_555
H23 C29 1_555 1_555
H24 C29 1_555 1_555
C30 C7 1_555 1_555
C31 C21 1_555 1_555
C32 C30 1_555 1_555
H25 C32 1_555 1_555
H26 C32 1_555 1_555
H27 C32 1_555 1_555
C33 C30 1_555 1_555
H28 C33 1_555 1_555
N1 C2 1_555 1_555
N2 C12 1_555 1_555
C34 C23 1_555 1_555
C35 H29 1_555 1_555
C36 C34 1_555 1_555
H30 C36 1_555 1_555
C37 C23 1_555 1_555
S2 C34 1_555 1_555
S1B C4B 1_555 1_555
C1B C2B 1_555 1_555
C2B C22B 1_555 1_555
C3B C4B 1_555 1_555
C4B C9B 1_555 1_555
C5B C7B 1_555 1_555
C6B S1B 1_555 1_555
C7B C1B 1_555 1_555
C8B C16B 1_555 1_555
C9B H1B 1_555 1_555
C10B H2B 1_555 1_555
C11B C3B 1_555 1_555
C12B C23 1_555 1_555
C13B C3B 1_555 1_555
C14B C11B 1_555 1_555
C15B C6B 1_555 1_555
H3B C15B 1_555 1_555
C16B H4B 1_555 1_555
C17B C11B 1_555 1_555
C18B C10B 1_555 1_555
H5B C18B 1_555 1_555
C19B C17B 1_555 1_555
H6B C19B 1_555 1_555
C20B C17B 1_555 1_555
H7B C20B 1_555 1_555
H8B C20B 1_555 1_555
H9B C20B 1_555 1_555
C21B C5B 1_555 1_555
H10B C21B 1_555 1_555
C22B C16B 1_555 1_555
H11B C22B 1_555 1_555
C23B C12 1_555 1_555
C24B C14B 1_555 1_555
H12B C24B 1_555 1_555
C25B C19B 1_555 1_555
C26B C5B 1_555 1_555
H13B C26B 1_555 1_555
H14B C26B 1_555 1_555
H15B C26B 1_555 1_555
C27B C14B 1_555 1_555
H16B C27B 1_555 1_555
H17B C27B 1_555 1_555
H18B C27B 1_555 1_555
C28B C25B 1_555 1_555
H19B C28B 1_555 1_555
H20B C28B 1_555 1_555
H21B C28B 1_555 1_555
C29B H22B 1_555 1_555
H23B C29B 1_555 1_555
H24B C29B 1_555 1_555
C30B C7B 1_555 1_555
C31B C21B 1_555 1_555
C32B C30B 1_555 1_555
H25B C32B 1_555 1_555
H26B C32B 1_555 1_555
H27B C32B 1_555 1_555
C33B C30B 1_555 1_555
H28B C33B 1_555 1_555
N1B C2B 1_555 1_555
N2B C12B 1_555 1_555
C34B S2 1_555 1_555
C35B C37 1_555 1_555
H29B C35B 1_555 1_555
C36B C34B 1_555 1_555
H30B C36B 1_555 1_555
C37B C35 1_555 1_555
S2B C34 1_555 1_555
C1 C6 1_555 1_555
C8 N1 1_555 1_555
C9 C15 1_555 1_555
C10 C13 1_555 1_555
C13 N2 1_555 1_555
C24 C25 1_555 1_555
C29 C31 1_555 1_555
C31 C33 1_555 1_555
C34 C37 1_555 1_555
C35 C36 1_555 1_555
C35 S2 1_555 1_555
C36 S2 1_555 1_555
C37 S2 1_555 1_555
C37 S2B 1_555 1_555
S2 C37B 1_555 1_555
S2 S2B 1_555 1_555
C1B C6B 1_555 1_555
C8B C23B 1_555 1_555
C8B N1B 1_555 1_555
C9B C15B 1_555 1_555
C10B C13B 1_555 1_555
C12B C18B 1_555 1_555
C13B N2B 1_555 1_555
C23B C34B 1_555 1_555
C23B C37B 1_555 1_555
C24B C25B 1_555 1_555
C29B C31B 1_555 1_555
C31B C33B 1_555 1_555
C34B C37B 1_555 1_555
C34B S2B 1_555 1_555
C35B C36B 1_555 1_555
C35B S2B 1_555 1_555
C36B S2B 1_555 1_555
C37B S2B 1_555 1_555

#END
