
#######################################################################
#
#                 Cambridge Crystallographic Data Centre
#                                CCDC 
#
#######################################################################
#
# If this CIF has been generated from an entry in the Cambridge 
# Structural Database, then it will include bibliographic, chemical, 
# crystal, experimental, refinement or atomic coordinate data resulting 
# from the CCDC's data processing and validation procedures.
#
#######################################################################

data_NIBGUD
_chemical_formula_moiety         
'C32 H56 B11 Br1 N4 Si2 1-,C8 H16 Na1 O2 1+,C7 H8,0.5(C4 H8 O1)'
_chemical_name_systematic        
"tetrakis(tetrahydrofuran)-di-sodium 1,10-(bis((N,N'-di-t-butylbenzenecarboximidamido)silylene)(bromoboron radical))-1,10-dicarba-nido-dodecaborane(10) toluene tetrahydrofuran solvate"
_symmetry_cell_setting           monoclinic
_symmetry_space_group_name_H-M   'P 21/n'
_symmetry_Int_Tables_number      14
_space_group_name_Hall           '-P 2yn'
loop_
_symmetry_equiv_pos_site_id
_symmetry_equiv_pos_as_xyz
1 x,y,z
2 1/2-x,1/2+y,1/2-z
3 -x,-y,-z
4 1/2+x,1/2-y,1/2+z
_cell_length_a                   13.0602(3)
_cell_length_b                   33.6570(8)
_cell_length_c                   15.0150(4)
_cell_angle_alpha                90
_cell_angle_beta                 113.2998(12)
_cell_angle_gamma                90
_cell_volume                     6061.85
_exptl_crystal_colour            orange
_exptl_crystal_description       block
_cell_formula_units_Z            4
loop_
_atom_site_label
_atom_site_type_symbol
_atom_site_fract_x
_atom_site_fract_y
_atom_site_fract_z
Br1 Br 0.39809(6) 0.673370(18) 0.53155(4)
Si1 Si 0.33609(8) 0.65148(3) 0.29366(7)
Si2 Si 0.24143(8) 0.59222(3) 0.42452(7)
C1 C 0.2602(3) 0.61719(11) 0.1992(3)
C2 C 0.2036(3) 0.56285(11) 0.3169(2)
C3 C 0.2354(3) 0.73447(12) 0.2199(3)
C4 C 0.2729(4) 0.77705(14) 0.2245(5)
H1 H 0.2091 0.7939 0.1955
H2 H 0.3206 0.7797 0.1899
H3 H 0.3131 0.7846 0.2910
C5 C 0.1694(5) 0.72273(16) 0.1153(4)
H4 H 0.1097 0.7413 0.0858
H5 H 0.1392 0.6966 0.1130
H6 H 0.2175 0.7229 0.0807
C6 C 0.1604(5) 0.73026(16) 0.2770(4)
H7 H 0.0997 0.7488 0.2523
H8 H 0.2034 0.7357 0.3444
H9 H 0.1315 0.7037 0.2700
C7 C 0.4352(3) 0.70625(11) 0.2836(3)
C8 C 0.5036(3) 0.74169(11) 0.2858(3)
C9 C 0.5427(4) 0.74786(14) 0.2134(4)
H10 H 0.5262 0.7298 0.1627
C10 C 0.6069(5) 0.78139(17) 0.2177(5)
H11 H 0.6336 0.7857 0.1696
C11 C 0.6309(5) 0.80786(16) 0.2918(5)
H12 H 0.6741 0.8301 0.2939
C12 C 0.5925(4) 0.80213(14) 0.3630(4)
H13 H 0.6086 0.8206 0.4128
C13 C 0.5291(4) 0.76873(13) 0.3609(3)
H14 H 0.5038 0.7645 0.4100
C14 C 0.5898(3) 0.65382(11) 0.3495(3)
C15 C 0.6446(4) 0.65713(17) 0.2778(4)
H15 H 0.7196 0.6472 0.3069
H16 H 0.6459 0.6845 0.2600
H17 H 0.6032 0.6418 0.2209
C16 C 0.6565(4) 0.67604(14) 0.4436(4)
H18 H 0.7311 0.6658 0.4712
H19 H 0.6217 0.6724 0.4886
H20 H 0.6585 0.7038 0.4300
C17 C 0.5805(4) 0.61041(12) 0.3746(4)
H21 H 0.6537 0.5990 0.4037
H22 H 0.5374 0.5961 0.3165
H23 H 0.5446 0.6088 0.4192
C18 C 0.0328(3) 0.61915(13) 0.4598(3)
C19 C 0.0065(4) 0.64258(15) 0.3671(3)
H24 H -0.0597 0.6581 0.3537
H25 H -0.0052 0.6246 0.3144
H26 H 0.0677 0.6599 0.3746
C20 C 0.0516(5) 0.64762(19) 0.5421(4)
H27 H -0.0157 0.6622 0.5302
H28 H 0.1103 0.6657 0.5471
H29 H 0.0720 0.6330 0.6016
C21 C -0.0650(4) 0.59150(18) 0.4470(5)
H30 H -0.1304 0.6071 0.4366
H31 H -0.0474 0.5756 0.5042
H32 H -0.0787 0.5745 0.3921
C22 C 0.1974(3) 0.57396(11) 0.5524(3)
C23 C 0.1659(3) 0.56072(11) 0.6329(3)
C24 C 0.1020(3) 0.52671(13) 0.6195(3)
H33 H 0.0815 0.5124 0.5621
C25 C 0.0690(4) 0.51412(14) 0.6911(3)
H34 H 0.0247 0.4916 0.6815
C26 C 0.1015(4) 0.53474(15) 0.7769(3)
H35 H 0.0787 0.5262 0.8251
C27 C 0.1671(4) 0.56776(15) 0.7915(3)
H36 H 0.1905 0.5812 0.8504
C28 C 0.1988(3) 0.58132(12) 0.7190(3)
H37 H 0.2420 0.6041 0.7285
C29 C 0.3799(3) 0.53593(12) 0.5911(3)
C30 C 0.4779(3) 0.54715(13) 0.5660(3)
H38 H 0.5383 0.5290 0.5971
H39 H 0.5014 0.5737 0.5880
H40 H 0.4558 0.5458 0.4970
C31 C 0.4174(4) 0.53742(19) 0.7007(3)
H41 H 0.4748 0.5180 0.7301
H42 H 0.3551 0.5318 0.7174
H43 H 0.4459 0.5634 0.7238
C32 C 0.3379(4) 0.49479(13) 0.5525(4)
H44 H 0.3947 0.4755 0.5847
H45 H 0.3198 0.4940 0.4840
H46 H 0.2724 0.4889 0.5644
N1 N 0.3267(3) 0.70501(9) 0.2625(2)
N2 N 0.1353(2) 0.59606(9) 0.4761(2)
N3 N 0.2910(2) 0.56522(9) 0.5406(2)
N4 N 0.4733(3) 0.66915(9) 0.3050(2)
B1 B 0.1377(4) 0.61571(13) 0.1890(3)
B2 B 0.1830(4) 0.60761(13) 0.0889(3)
B3 B 0.2983(3) 0.57534(13) 0.1668(3)
B4 B 0.3007(4) 0.55212(12) 0.2874(3)
B5 B 0.0851(4) 0.56571(13) 0.2231(3)
B6 B 0.0664(4) 0.58120(13) 0.1001(3)
B7 B 0.1689(4) 0.55491(13) 0.0733(3)
B8 B 0.2454(4) 0.52573(13) 0.1779(3)
B9 B 0.1752(3) 0.52126(13) 0.2611(3)
B10 B 0.0976(4) 0.53092(13) 0.1351(3)
B11 B 0.3236(4) 0.63955(14) 0.4163(3)
H47 H 0.159(3) 0.4931(10) 0.287(2)
H48 H 0.031(3) 0.5084(11) 0.089(3)
H49 H -0.017(3) 0.5880(11) 0.051(3)
H50 H 0.390(3) 0.5479(11) 0.341(3)
H51 H 0.002(3) 0.5651(11) 0.234(3)
H52 H 0.384(3) 0.5753(11) 0.157(3)
H53 H 0.172(3) 0.6251(11) 0.023(3)
H54 H 0.283(3) 0.4978(12) 0.159(3)
H55 H 0.155(3) 0.5422(12) -0.005(3)
H56 H 0.095(3) 0.6435(13) 0.203(3)
Na1 Na 0.13475(13) 0.46320(5) 0.03908(12)
O1 O 0.2556(3) 0.45493(12) -0.0335(3)
C33 C 0.2556(5) 0.4248(2) -0.0983(6)
H57 H 0.2968 0.4018 -0.0634
H58 H 0.1801 0.4167 -0.1386
C34 C 0.3106(7) 0.4428(3) -0.1576(5)
H59 H 0.2561 0.4549 -0.2157
H60 H 0.3525 0.4231 -0.1762
C35 C 0.3856(6) 0.4731(2) -0.0945(5)
H61 H 0.3783 0.4979 -0.1294
H62 H 0.4625 0.4644 -0.0715
C36 C 0.3519(5) 0.4784(2) -0.0134(4)
H63 H 0.3357 0.5061 -0.0071
H64 H 0.4111 0.4698 0.0466
C37 C 0.2750(4) 0.4088(2) 0.2347(4)
H65 H 0.3189 0.3887 0.2193
H66 H 0.3170 0.4334 0.2501
C38 C 0.2499(5) 0.39569(19) 0.3183(4)
H67 H 0.2942 0.3726 0.3493
H68 H 0.2654 0.4168 0.3658
C39 C 0.1279(5) 0.38561(18) 0.2763(4)
H69 H 0.0860 0.4043 0.2979
H70 H 0.1156 0.3590 0.2948
C40 C 0.0947(4) 0.38843(17) 0.1693(4)
H71 H 0.0194 0.3987 0.1382
H72 H 0.0975 0.3624 0.1424
O2 O 0.1711(2) 0.41449(10) 0.1542(2)
O3 O 0.7000(13) 0.6885(7) 0.0520(14)
C41 C 0.7521(13) 0.6778(4) -0.0126(10)
H73 H 0.7080 0.6864 -0.0784
H74 H 0.7645 0.6494 -0.0122
C42 C 0.8592(10) 0.7000(6) 0.0297(11)
H75 H 0.8542 0.7263 0.0019
H76 H 0.9207 0.6854 0.0244
C43 C 0.8660(14) 0.7012(8) 0.1316(10)
H77 H 0.8849 0.6751 0.1611
H78 H 0.9233 0.7198 0.1699
C44 C 0.7552(15) 0.7140(5) 0.1286(11)
H79 H 0.7441 0.7076 0.1871
H80 H 0.7390 0.7419 0.1120
C45 C 0.4033(9) 0.7033(3) 0.9333(9)
C46 C 0.4335(9) 0.6915(3) 0.8612(10)
H81 H 0.4420 0.7109 0.8206
C47 C 0.4520(7) 0.6534(4) 0.8443(6)
H82 H 0.4708 0.6467 0.7926
C48 C 0.4422(6) 0.6253(3) 0.9047(6)
H83 H 0.4567 0.5989 0.8954
C49 C 0.4116(5) 0.6349(2) 0.9792(5)
H84 H 0.4036 0.6154 1.0198
C50 C 0.3930(6) 0.6742(3) 0.9925(7)
H85 H 0.3729 0.6812 1.0432
C51 C 0.3950(10) 0.7476(3) 0.9152(12)
H86 H 0.3733 0.7604 0.9621
H87 H 0.3404 0.7528 0.8512
H88 H 0.4662 0.7576 0.9209
loop_
_geom_bond_atom_site_label_1
_geom_bond_atom_site_label_2
_geom_bond_site_symmetry_1
_geom_bond_site_symmetry_2
Br1 B11 1_555 1_555
Si1 C1 1_555 1_555
Si2 C2 1_555 1_555
C1 B1 1_555 1_555
C2 B4 1_555 1_555
C3 C4 1_555 1_555
C4 H1 1_555 1_555
H2 C4 1_555 1_555
H3 C4 1_555 1_555
C5 C3 1_555 1_555
H4 C5 1_555 1_555
H5 C5 1_555 1_555
H6 C5 1_555 1_555
C6 C3 1_555 1_555
H7 C6 1_555 1_555
H8 C6 1_555 1_555
H9 C6 1_555 1_555
C7 C8 1_555 1_555
C8 C9 1_555 1_555
C9 H10 1_555 1_555
C10 C9 1_555 1_555
H11 C10 1_555 1_555
C11 C10 1_555 1_555
H12 C11 1_555 1_555
C12 C11 1_555 1_555
H13 C12 1_555 1_555
C13 C8 1_555 1_555
H14 C13 1_555 1_555
C14 C15 1_555 1_555
C15 H15 1_555 1_555
H16 C15 1_555 1_555
H17 C15 1_555 1_555
C16 C14 1_555 1_555
H18 C16 1_555 1_555
H19 C16 1_555 1_555
H20 C16 1_555 1_555
C17 C14 1_555 1_555
H21 C17 1_555 1_555
H22 C17 1_555 1_555
H23 C17 1_555 1_555
C18 C19 1_555 1_555
C19 H24 1_555 1_555
H25 C19 1_555 1_555
H26 C19 1_555 1_555
C20 C18 1_555 1_555
H27 C20 1_555 1_555
H28 C20 1_555 1_555
H29 C20 1_555 1_555
C21 C18 1_555 1_555
H30 C21 1_555 1_555
H31 C21 1_555 1_555
H32 C21 1_555 1_555
C22 C23 1_555 1_555
C23 C24 1_555 1_555
C24 H33 1_555 1_555
C25 C24 1_555 1_555
H34 C25 1_555 1_555
C26 C25 1_555 1_555
H35 C26 1_555 1_555
C27 C26 1_555 1_555
H36 C27 1_555 1_555
C28 C23 1_555 1_555
H37 C28 1_555 1_555
C29 C30 1_555 1_555
C30 H38 1_555 1_555
H39 C30 1_555 1_555
H40 C30 1_555 1_555
C31 C29 1_555 1_555
H41 C31 1_555 1_555
H42 C31 1_555 1_555
H43 C31 1_555 1_555
C32 C29 1_555 1_555
H44 C32 1_555 1_555
H45 C32 1_555 1_555
H46 C32 1_555 1_555
N1 Si1 1_555 1_555
N2 Si2 1_555 1_555
N3 Si2 1_555 1_555
N4 Si1 1_555 1_555
B1 B2 1_555 1_555
B2 C1 1_555 1_555
B3 C1 1_555 1_555
B4 B3 1_555 1_555
B5 C2 1_555 1_555
B6 B1 1_555 1_555
B7 B2 1_555 1_555
B8 B3 1_555 1_555
B9 C2 1_555 1_555
B10 B5 1_555 1_555
B11 Si1 1_555 1_555
H47 B9 1_555 1_555
H48 B10 1_555 1_555
H49 B6 1_555 1_555
H50 B4 1_555 1_555
H51 B5 1_555 1_555
H52 B3 1_555 1_555
H53 B2 1_555 1_555
H54 B8 1_555 1_555
H55 B7 1_555 1_555
H56 B1 1_555 1_555
Na1 O1 1_555 1_555
O1 C33 1_555 1_555
C33 H57 1_555 1_555
H58 C33 1_555 1_555
C34 C33 1_555 1_555
H59 C34 1_555 1_555
H60 C34 1_555 1_555
C35 C34 1_555 1_555
H61 C35 1_555 1_555
H62 C35 1_555 1_555
C36 O1 1_555 1_555
H63 C36 1_555 1_555
H64 C36 1_555 1_555
C37 H65 1_555 1_555
H66 C37 1_555 1_555
C38 C37 1_555 1_555
H67 C38 1_555 1_555
H68 C38 1_555 1_555
C39 C38 1_555 1_555
H69 C39 1_555 1_555
H70 C39 1_555 1_555
C40 C39 1_555 1_555
H71 C40 1_555 1_555
H72 C40 1_555 1_555
O2 Na1 1_555 1_555
O3 C41 1_555 1_555
C41 H73 1_555 1_555
H74 C41 1_555 1_555
C42 C41 1_555 1_555
H75 C42 1_555 1_555
H76 C42 1_555 1_555
C43 C42 1_555 1_555
H77 C43 1_555 1_555
H78 C43 1_555 1_555
C44 O3 1_555 1_555
H79 C44 1_555 1_555
H80 C44 1_555 1_555
C45 C46 1_555 1_555
C46 H81 1_555 1_555
C47 C46 1_555 1_555
H82 C47 1_555 1_555
C48 C47 1_555 1_555
H83 C48 1_555 1_555
C49 C48 1_555 1_555
H84 C49 1_555 1_555
C50 C45 1_555 1_555
H85 C50 1_555 1_555
C51 C45 1_555 1_555
H86 C51 1_555 1_555
H87 C51 1_555 1_555
H88 C51 1_555 1_555
Si2 B11 1_555 1_555
C3 N1 1_555 1_555
C7 N1 1_555 1_555
C7 N4 1_555 1_555
C12 C13 1_555 1_555
C14 N4 1_555 1_555
C18 N2 1_555 1_555
C22 N2 1_555 1_555
C22 N3 1_555 1_555
C27 C28 1_555 1_555
C29 N3 1_555 1_555
B1 B5 1_555 1_555
B2 B3 1_555 1_555
B2 B6 1_555 1_555
B3 B7 1_555 1_555
B4 B8 1_555 1_555
B4 B9 1_555 1_555
B5 B6 1_555 1_555
B5 B9 1_555 1_555
B6 B7 1_555 1_555
B6 B10 1_555 1_555
B7 B8 1_555 1_555
B7 B10 1_555 1_555
B8 B9 1_555 1_555
B8 B10 1_555 1_555
B9 B10 1_555 1_555
C35 C36 1_555 1_555
C37 O2 1_555 1_555
C40 O2 1_555 1_555
C43 C44 1_555 1_555
C49 C50 1_555 1_555

#END
