
#######################################################################
#
#                 Cambridge Crystallographic Data Centre
#                                CCDC 
#
#######################################################################
#
# If this CIF has been generated from an entry in the Cambridge 
# Structural Database, then it will include bibliographic, chemical, 
# crystal, experimental, refinement or atomic coordinate data resulting 
# from the CCDC's data processing and validation procedures.
#
#######################################################################

data_NICRAV
_chemical_name_common            'cephanolide B'
_chemical_formula_moiety         'C18 H20 O3'
_chemical_name_systematic        
6-hydroxy-1,5-dimethyl-1,2,3,3a,4,8,9,9b-octahydro-3,9a-(epoxymethano)cyclopenta[def]phenanthren-10-one
_symmetry_cell_setting           monoclinic
_symmetry_space_group_name_H-M   'P 21/c'
_symmetry_Int_Tables_number      14
_space_group_name_Hall           '-P 2ybc'
loop_
_symmetry_equiv_pos_site_id
_symmetry_equiv_pos_as_xyz
1 x,y,z
2 -x,1/2+y,1/2-z
3 -x,-y,-z
4 x,1/2-y,1/2+z
_cell_length_a                   7.5021(5)
_cell_length_b                   18.2651(11)
_cell_length_c                   10.4008(6)
_cell_angle_alpha                90
_cell_angle_beta                 99.019(2)
_cell_angle_gamma                90
_cell_volume                     1407.57
_exptl_crystal_colour            'light colorless'
_exptl_crystal_description       block
_cell_formula_units_Z            4
loop_
_atom_site_label
_atom_site_type_symbol
_atom_site_fract_x
_atom_site_fract_y
_atom_site_fract_z
O1 O 0.85310(14) 0.48564(5) 0.38743(11)
O2 O 0.77032(15) 0.06182(6) 0.24866(11)
H1 H 0.6693 0.0452 0.2151
O3 O 0.57026(15) 0.52141(6) 0.37062(12)
C1 C 0.71625(19) 0.27051(8) 0.38041(14)
C2 C 0.6750(2) 0.47267(8) 0.35738(14)
C3 C 0.5882(2) 0.17013(8) 0.25506(15)
H2 H 0.4894 0.1470 0.2022
C4 C 0.72207(19) 0.34759(8) 0.42730(14)
H3 H 0.6538 0.3525 0.5021
C5 C 0.8826(2) 0.23644(8) 0.40510(14)
C6 C 0.9048(2) 0.16563(8) 0.35968(15)
C7 C 0.7505(2) 0.13279(8) 0.28821(15)
C8 C 0.92311(19) 0.36446(8) 0.47151(15)
H4 H 0.9399 0.3858 0.5611
C9 C 0.56993(19) 0.24137(8) 0.29903(15)
C10 C 0.7329(2) 0.38606(8) 0.19144(14)
H5 H 0.7138 0.3347 0.1591
C11 C 0.9721(2) 0.42176(8) 0.37595(16)
H6 H 1.1014 0.4364 0.4005
C12 C 0.63493(19) 0.39551(8) 0.31202(14)
C13 C 0.4359(2) 0.37297(8) 0.28607(17)
H7 H 0.3708 0.4041 0.2160
H8 H 0.3815 0.3812 0.3657
C14 C 1.0218(2) 0.28942(8) 0.47506(16)
H9 H 1.1283 0.2926 0.4298
H10 H 1.0621 0.2735 0.5660
C15 C 0.4128(2) 0.29093(8) 0.24530(17)
H11 H 0.3022 0.2719 0.2744
H12 H 0.3944 0.2881 0.1491
C16 C 0.9367(2) 0.39787(9) 0.23496(16)
H13 H 1.0024 0.3518 0.2245
H14 H 0.9812 0.4357 0.1797
C17 C 1.0813(2) 0.12509(9) 0.38342(18)
H15 H 1.1768 0.1581 0.4242
H16 H 1.1109 0.1074 0.3004
H17 H 1.0713 0.0834 0.4411
C18 C 0.6547(2) 0.43787(9) 0.08199(16)
H18 H 0.5295 0.4241 0.0496
H19 H 0.7262 0.4346 0.0110
H20 H 0.6583 0.4882 0.1151
loop_
_geom_bond_atom_site_label_1
_geom_bond_atom_site_label_2
_geom_bond_site_symmetry_1
_geom_bond_site_symmetry_2
O1 C2 1_555 1_555
O2 H1 1_555 1_555
O3 C2 1_555 1_555
C1 C4 1_555 1_555
C2 C12 1_555 1_555
C3 H2 1_555 1_555
C4 H3 1_555 1_555
C5 C1 1_555 1_555
C6 C5 1_555 1_555
C7 O2 1_555 1_555
C8 C4 1_555 1_555
H4 C8 1_555 1_555
C9 C1 1_555 1_555
C10 H5 1_555 1_555
C11 O1 1_555 1_555
H6 C11 1_555 1_555
C12 C4 1_555 1_555
C13 C12 1_555 1_555
H7 C13 1_555 1_555
H8 C13 1_555 1_555
C14 C5 1_555 1_555
H9 C14 1_555 1_555
H10 C14 1_555 1_555
C15 C9 1_555 1_555
H11 C15 1_555 1_555
H12 C15 1_555 1_555
C16 C10 1_555 1_555
H13 C16 1_555 1_555
H14 C16 1_555 1_555
C17 C6 1_555 1_555
H15 C17 1_555 1_555
H16 C17 1_555 1_555
H17 C17 1_555 1_555
C18 C10 1_555 1_555
H18 C18 1_555 1_555
H19 C18 1_555 1_555
H20 C18 1_555 1_555
C3 C7 1_555 1_555
C3 C9 1_555 1_555
C6 C7 1_555 1_555
C8 C11 1_555 1_555
C8 C14 1_555 1_555
C10 C12 1_555 1_555
C11 C16 1_555 1_555
C13 C15 1_555 1_555

#END
