
#######################################################################
#
#                 Cambridge Crystallographic Data Centre
#                                CCDC 
#
#######################################################################
#
# If this CIF has been generated from an entry in the Cambridge 
# Structural Database, then it will include bibliographic, chemical, 
# crystal, experimental, refinement or atomic coordinate data resulting 
# from the CCDC's data processing and validation procedures.
#
#######################################################################

data_NICSAL
_chemical_formula_moiety         'C10 H15 N2 1+,C7 H5 O3 1-'
_chemical_name_systematic        'Nicotinyl salicylate'
_chemical_properties_biological  'parasiticidal agent'
_symmetry_cell_setting           monoclinic
_symmetry_space_group_name_H-M   'P 21'
_symmetry_Int_Tables_number      4
_space_group_name_Hall           'P 2yb'
loop_
_symmetry_equiv_pos_site_id
_symmetry_equiv_pos_as_xyz
1 x,y,z
2 -x,1/2+y,-z
_cell_length_a                   7.673(2)
_cell_length_b                   11.355(6)
_cell_length_c                   9.580(2)
_cell_angle_alpha                90
_cell_angle_beta                 109.34(8)
_cell_angle_gamma                90
_cell_volume                     787.575
_chemical_melting_point          117deg.C
_cell_formula_units_Z            2
loop_
_atom_site_label
_atom_site_type_symbol
_atom_site_fract_x
_atom_site_fract_y
_atom_site_fract_z
C1 C 0.19430 -0.37700 -0.42370
C2 C -0.27890 -0.54970 -0.47850
C3 C 0.06060 -0.38280 -0.35600
C4 C 0.11940 -0.41950 -0.20950
C5 C 0.30410 -0.44640 -0.14200
C6 C 0.42340 -0.43790 -0.21930
C7 C -0.13710 -0.34830 -0.43320
C8 C -0.17130 -0.23770 -0.52840
C9 C -0.36750 -0.24770 -0.62550
C10 C -0.41540 -0.37660 -0.64130
H1 H 0.15500 -0.35100 -0.51700
H2 H -0.36000 -0.54100 -0.42400
H3 H -0.16600 -0.59900 -0.38200
H4 H -0.34000 -0.59400 -0.57400
H5 H 0.04300 -0.42800 -0.17100
H6 H 0.34800 -0.47500 -0.05100
H7 H 0.58200 -0.44700 -0.18400
H8 H -0.19100 -0.34400 -0.35000
H9 H -0.13100 -0.16500 -0.47000
H10 H -0.18100 -0.46400 -0.59600
H11 H -0.10600 -0.23200 -0.58700
H12 H -0.39400 -0.20800 -0.71000
H13 H -0.46000 -0.23000 -0.55000
H14 H -0.45100 -0.41000 -0.74600
H15 H -0.51300 -0.40900 -0.59900
N1 N 0.37160 -0.40390 -0.35820
N2 N -0.24400 -0.43920 -0.54520
C11 C -0.02480 0.37400 0.10010
C12 C -0.11280 0.30540 -0.02480
C13 C -0.01220 0.23710 -0.09040
C14 C 0.17560 0.23850 -0.03520
C15 C 0.26820 0.30700 0.08730
C16 C 0.16810 0.37370 0.15410
C17 C -0.13280 0.44030 0.17760
H16 H -0.06100 0.18400 -0.17000
H17 H 0.25200 0.19900 -0.08900
H18 H 0.41100 0.31300 0.13900
H19 H 0.24400 0.42900 0.24900
H20 H -0.36000 0.36000 -0.01500
O1 O -0.04490 0.49800 0.29070
O2 O -0.30610 0.43670 0.12680
O3 O -0.29450 0.30130 -0.08170
loop_
_geom_bond_atom_site_label_1
_geom_bond_atom_site_label_2
_geom_bond_site_symmetry_1
_geom_bond_site_symmetry_2
C1 C3 1_555 1_555
C2 H2 1_555 1_555
C3 C4 1_555 1_555
C4 C5 1_555 1_555
C5 C6 1_555 1_555
C6 H7 1_555 1_555
C7 C3 1_555 1_555
C8 C7 1_555 1_555
C9 C8 1_555 1_555
C10 C9 1_555 1_555
H1 C1 1_555 1_555
H3 C2 1_555 1_555
H4 C2 1_555 1_555
H5 C4 1_555 1_555
H6 C5 1_555 1_555
H8 C7 1_555 1_555
H9 C8 1_555 1_555
H10 N2 1_555 1_555
H11 C8 1_555 1_555
H12 C9 1_555 1_555
H13 C9 1_555 1_555
H14 C10 1_555 1_555
H15 C10 1_555 1_555
N1 C1 1_555 1_555
N2 C2 1_555 1_555
C11 C12 1_555 1_555
C12 C13 1_555 1_555
C13 C14 1_555 1_555
C14 C15 1_555 1_555
C15 C16 1_555 1_555
C16 C11 1_555 1_555
C17 C11 1_555 1_555
H16 C13 1_555 1_555
H17 C14 1_555 1_555
H18 C15 1_555 1_555
H19 C16 1_555 1_555
H20 O3 1_555 1_555
O1 C17 1_555 1_555
O2 C17 1_555 1_555
O3 C12 1_555 1_555
C6 N1 1_555 1_555
C7 N2 1_555 1_555
C10 N2 1_555 1_555

#END
