
#######################################################################
#
#                 Cambridge Crystallographic Data Centre
#                                CCDC 
#
#######################################################################
#
# If this CIF has been generated from an entry in the Cambridge 
# Structural Database, then it will include bibliographic, chemical, 
# crystal, experimental, refinement or atomic coordinate data resulting 
# from the CCDC's data processing and validation procedures.
#
#######################################################################

data_NICVUT
_chemical_formula_moiety         'C20 H19 N1 O1'
_chemical_name_systematic        
2,3-dimethyl-9a-phenyl-9,9a-dihydro-1H-cyclopenta[b]quinolin-9-ol
_symmetry_cell_setting           monoclinic
_symmetry_space_group_name_H-M   'P 21/c'
_symmetry_Int_Tables_number      14
_space_group_name_Hall           '-P 2ybc'
loop_
_symmetry_equiv_pos_site_id
_symmetry_equiv_pos_as_xyz
1 x,y,z
2 -x,1/2+y,1/2-z
3 -x,-y,-z
4 x,1/2-y,1/2+z
_cell_length_a                   9.5578(12)
_cell_length_b                   20.653(2)
_cell_length_c                   8.4644(10)
_cell_angle_alpha                90
_cell_angle_beta                 108.514(6)
_cell_angle_gamma                90
_cell_volume                     1584.38
_exptl_crystal_colour            yellow
_exptl_crystal_description       prism
_cell_formula_units_Z            4
loop_
_atom_site_label
_atom_site_type_symbol
_atom_site_fract_x
_atom_site_fract_y
_atom_site_fract_z
C1 C 0.1904(3) 0.51912(13) 0.4632(4)
H1 H 0.0819 0.5173 0.4455
C2 C 0.2152(3) 0.50112(13) 0.3025(3)
C3 C 0.1218(3) 0.46089(14) 0.1866(4)
H2 H 0.0361 0.4448 0.2074
C4 C 0.1478(4) 0.44317(17) 0.0418(4)
H3 H 0.0817 0.4151 -0.0358
C5 C 0.2726(4) 0.46706(18) 0.0110(4)
H4 H 0.2916 0.4556 -0.0889
C6 C 0.3678(4) 0.50677(17) 0.1230(4)
H5 H 0.4535 0.5223 0.1013
C7 C 0.3404(3) 0.52518(14) 0.2715(4)
C8 C 0.3975(3) 0.59545(13) 0.4948(4)
C9 C 0.4825(4) 0.63737(15) 0.6264(5)
C10 C 0.6289(4) 0.66333(17) 0.6327(6)
H6 H 0.7027 0.6288 0.6652
H7 H 0.6565 0.6985 0.7143
H8 H 0.6241 0.6799 0.5225
C11 C 0.4077(4) 0.64557(15) 0.7389(4)
C12 C 0.4600(5) 0.6821(2) 0.8961(6)
H9 H 0.5522 0.7044 0.9026
H10 H 0.4774 0.6522 0.9903
H11 H 0.3854 0.7140 0.9000
C13 C 0.2641(4) 0.61071(16) 0.6863(4)
H12 H 0.1832 0.6397 0.6917
H13 H 0.2674 0.5727 0.7587
C14 C 0.2416(3) 0.58925(13) 0.5049(3)
C15 C 0.1346(3) 0.63468(13) 0.3783(4)
C16 C 0.1756(3) 0.67138(14) 0.2635(4)
H14 H 0.2728 0.6673 0.2575
C17 C 0.0784(3) 0.71380(15) 0.1576(4)
H15 H 0.1097 0.7390 0.0811
C18 C -0.0639(4) 0.71973(16) 0.1624(4)
H16 H -0.1305 0.7493 0.0906
C19 C -0.1085(3) 0.68249(15) 0.2720(4)
H17 H -0.2068 0.6859 0.2746
C20 C -0.0110(3) 0.63994(14) 0.3787(4)
H18 H -0.0436 0.6141 0.4531
N1 N 0.4436(2) 0.56618(11) 0.3868(3)
O1 O 0.2626(2) 0.47565(9) 0.5970(2)
H19 H 0.3476 0.4653 0.5817
loop_
_geom_bond_atom_site_label_1
_geom_bond_atom_site_label_2
_geom_bond_site_symmetry_1
_geom_bond_site_symmetry_2
C1 H1 1_555 1_555
C2 C1 1_555 1_555
C3 C2 1_555 1_555
H2 C3 1_555 1_555
C4 C3 1_555 1_555
H3 C4 1_555 1_555
C5 C4 1_555 1_555
H4 C5 1_555 1_555
C6 C5 1_555 1_555
H5 C6 1_555 1_555
C7 C2 1_555 1_555
C8 C9 1_555 1_555
C9 C10 1_555 1_555
C10 H6 1_555 1_555
H7 C10 1_555 1_555
H8 C10 1_555 1_555
C11 C9 1_555 1_555
C12 C11 1_555 1_555
H9 C12 1_555 1_555
H10 C12 1_555 1_555
H11 C12 1_555 1_555
C13 C11 1_555 1_555
H12 C13 1_555 1_555
H13 C13 1_555 1_555
C14 C1 1_555 1_555
C15 C14 1_555 1_555
C16 C15 1_555 1_555
H14 C16 1_555 1_555
C17 C16 1_555 1_555
H15 C17 1_555 1_555
C18 C17 1_555 1_555
H16 C18 1_555 1_555
C19 C18 1_555 1_555
H17 C19 1_555 1_555
C20 C15 1_555 1_555
H18 C20 1_555 1_555
N1 C7 1_555 1_555
O1 C1 1_555 1_555
H19 O1 1_555 1_555
C6 C7 1_555 1_555
C8 C14 1_555 1_555
C8 N1 1_555 1_555
C13 C14 1_555 1_555
C19 C20 1_555 1_555

#END
