
#######################################################################
#
#                 Cambridge Crystallographic Data Centre
#                                CCDC 
#
#######################################################################
#
# If this CIF has been generated from an entry in the Cambridge 
# Structural Database, then it will include bibliographic, chemical, 
# crystal, experimental, refinement or atomic coordinate data resulting 
# from the CCDC's data processing and validation procedures.
#
#######################################################################

data_NICXUV
_chemical_name_common            
'2,6,8,12-tetraoxa-1,7(1,4)-tetrazina-4,10(1,3)-dibenzenacyclododecaphane tetrahomocorona[2]arene[2]tetrazine'
_chemical_formula_moiety         'C20 H16 N8 O4'
_chemical_name_systematic        
2,10,15,23-tetraoxa-12,13,25,26,27,28,30,31-octaazapentacyclo[22.2.2.2^11,14^.1^4,8^.1^17,21^]dotriaconta-1(26),4(32),5,7,11,13,17(29),18,20,24,27,30-dodecaene
_symmetry_cell_setting           monoclinic
_symmetry_space_group_name_H-M   'P 21/c'
_symmetry_Int_Tables_number      14
_space_group_name_Hall           '-P 2ybc'
loop_
_symmetry_equiv_pos_site_id
_symmetry_equiv_pos_as_xyz
1 x,y,z
2 -x,1/2+y,1/2-z
3 -x,-y,-z
4 x,1/2-y,1/2+z
_cell_length_a                   8.760(3)
_cell_length_b                   14.954(5)
_cell_length_c                   7.912(3)
_cell_angle_alpha                90
_cell_angle_beta                 111.352(4)
_cell_angle_gamma                90
_cell_volume                     965.308
_exptl_crystal_colour            red
_exptl_crystal_description       block
_cell_formula_units_Z            2
loop_
_atom_site_label
_atom_site_type_symbol
_atom_site_fract_x
_atom_site_fract_y
_atom_site_fract_z
O1 O 0.80473(12) 0.67003(6) 0.53399(13)
O2 O 0.82953(12) 0.33587(6) 0.72281(13)
N1 N 0.81702(15) 0.52124(8) 0.45908(15)
N2 N 0.82332(14) 0.43661(8) 0.51233(15)
N3 N 0.83571(15) 0.48491(8) 0.80411(16)
N4 N 0.82983(15) 0.56940(8) 0.75105(15)
C1 C 0.63369(16) 0.66435(9) 0.20656(18)
C2 C 0.48452(16) 0.68448(9) 0.22329(18)
H1 H 0.483081 0.713718 0.329298
C3 C 0.33766(16) 0.66197(9) 0.08546(18)
C4 C 0.34058(18) 0.61955(9) -0.06966(18)
H2 H 0.240673 0.603881 -0.164027
C5 C 0.48872(19) 0.60007(10) -0.08699(19)
H3 H 0.490138 0.571817 -0.193950
C6 C 0.63460(18) 0.62160(9) 0.05092(19)
H4 H 0.735900 0.607123 0.039256
C7 C 0.79244(17) 0.69289(10) 0.35035(18)
H5 H 0.884239 0.664316 0.325893
H6 H 0.804287 0.758440 0.342537
C8 C 0.81605(15) 0.58380(9) 0.57930(17)
C9 C 0.82775(15) 0.42236(9) 0.68096(17)
C10 C 0.82346(17) 0.31349(9) 0.89978(18)
H7 H 0.912869 0.345295 0.995325
H8 H 0.842051 0.248473 0.921070
O1B O 0.19527(12) 0.32997(6) 0.46601(13)
O2B O 0.17047(12) 0.66413(6) 0.27719(13)
N1B N 0.18298(15) 0.47876(8) 0.54092(15)
N2B N 0.17668(14) 0.56339(8) 0.48767(15)
N3B N 0.16429(15) 0.51509(8) 0.19589(16)
N4B N 0.17017(15) 0.43060(8) 0.24895(15)
C1B C 0.36631(16) 0.33565(9) 0.79344(18)
C2B C 0.51548(16) 0.31552(9) 0.77671(18)
H1B H 0.516919 0.286282 0.670702
C3B C 0.66234(16) 0.33803(9) 0.91454(18)
C4B C 0.65942(18) 0.38045(9) 1.06966(18)
H2B H 0.759327 0.396119 1.164027
C5B C 0.51128(19) 0.39993(10) 1.08699(19)
H3B H 0.509862 0.428183 1.193950
C6B C 0.36540(18) 0.37840(9) 0.94908(19)
H4B H 0.264100 0.392877 0.960744
C7B C 0.20756(17) 0.30711(10) 0.64965(18)
H5B H 0.115761 0.335684 0.674107
H6B H 0.195713 0.241560 0.657463
C8B C 0.18395(15) 0.41620(9) 0.42070(17)
C9B C 0.17225(15) 0.57764(9) 0.31904(17)
C10B C 0.17654(17) 0.68651(9) 0.10022(18)
H7B H 0.087131 0.654705 0.004675
H8B H 0.157949 0.751527 0.078930
loop_
_geom_bond_atom_site_label_1
_geom_bond_atom_site_label_2
_geom_bond_site_symmetry_1
_geom_bond_site_symmetry_2
O1 C7 1_555 1_555
O2 C9 1_555 1_555
N1 N2 1_555 1_555
N2 C9 1_555 1_555
N3 N4 1_555 1_555
N4 C8 1_555 1_555
C1 C2 1_555 1_555
C2 H1 1_555 1_555
C3 C2 1_555 1_555
C4 C3 1_555 1_555
H2 C4 1_555 1_555
C5 C4 1_555 1_555
H3 C5 1_555 1_555
C6 C1 1_555 1_555
H4 C6 1_555 1_555
C7 C1 1_555 1_555
H5 C7 1_555 1_555
H6 C7 1_555 1_555
C8 O1 1_555 1_555
C9 N3 1_555 1_555
C10 O2 1_555 1_555
H7 C10 1_555 1_555
H8 C10 1_555 1_555
O1B C7B 1_555 1_555
O2B C9B 1_555 1_555
N1B N2B 1_555 1_555
N2B C9B 1_555 1_555
N3B N4B 1_555 1_555
N4B C8B 1_555 1_555
C1B C2B 1_555 1_555
C2B H1B 1_555 1_555
C3B C10 1_555 1_555
C4B C3B 1_555 1_555
H2B C4B 1_555 1_555
C5B C4B 1_555 1_555
H3B C5B 1_555 1_555
C6B C1B 1_555 1_555
H4B C6B 1_555 1_555
C7B C1B 1_555 1_555
H5B C7B 1_555 1_555
H6B C7B 1_555 1_555
C8B O1B 1_555 1_555
C9B N3B 1_555 1_555
C10B C3 1_555 1_555
H7B C10B 1_555 1_555
H8B C10B 1_555 1_555
N1 C8 1_555 1_555
C5 C6 1_555 1_555
O2B C10B 1_555 1_555
N1B C8B 1_555 1_555
C2B C3B 1_555 1_555
C5B C6B 1_555 1_555

#END
