
#######################################################################
#
#                 Cambridge Crystallographic Data Centre
#                                CCDC 
#
#######################################################################
#
# If this CIF has been generated from an entry in the Cambridge 
# Structural Database, then it will include bibliographic, chemical, 
# crystal, experimental, refinement or atomic coordinate data resulting 
# from the CCDC's data processing and validation procedures.
#
#######################################################################

data_NIDBEK
_chemical_formula_moiety         'C62 H59 N3'
_chemical_name_systematic        
2,9,16,19,20-pentabutyl-9H-dibenzo[5,6:9,10]phenanthro[2',1',10',9',8',7':15,16,17,18]heptapheno[7,8-d][1,2,3]triazole
_symmetry_cell_setting           monoclinic
_symmetry_space_group_name_H-M   'P 21/n'
_symmetry_Int_Tables_number      14
_space_group_name_Hall           '-P 2yn'
loop_
_symmetry_equiv_pos_site_id
_symmetry_equiv_pos_as_xyz
1 x,y,z
2 1/2-x,1/2+y,1/2-z
3 -x,-y,-z
4 1/2+x,1/2-y,1/2+z
_cell_length_a                   28.6594(8)
_cell_length_b                   4.86370(10)
_cell_length_c                   31.9917(7)
_cell_angle_alpha                90
_cell_angle_beta                 91.815(2)
_cell_angle_gamma                90
_cell_volume                     4457.11
_exptl_crystal_colour            orange
_exptl_crystal_description       lath
_cell_formula_units_Z            4
loop_
_atom_site_label
_atom_site_type_symbol
_atom_site_fract_x
_atom_site_fract_y
_atom_site_fract_z
C1 C 0.51606(7) 0.6692(4) 0.38885(5)
C2 C 0.54888(7) 0.8843(4) 0.38510(6)
C3 C 0.56248(6) 0.9887(4) 0.34548(5)
C4 C 0.59828(6) 1.1978(4) 0.34071(6)
C5 C 0.61801(7) 1.3421(4) 0.37502(6)
H1 H 0.6080 1.3037 0.4024
C6 C 0.65196(7) 1.5399(4) 0.36912(6)
H2 H 0.6645 1.6385 0.3925
C7 C 0.66785(7) 1.5958(4) 0.32946(6)
H3 H 0.6911 1.7328 0.3261
C8 C 0.65015(7) 1.4529(4) 0.29437(6)
C9 C 0.66827(6) 1.4979(4) 0.25268(6)
C10 C 0.70247(7) 1.6987(4) 0.24492(6)
H4 H 0.7123 1.8194 0.2668
C11 C 0.72204(7) 1.7240(4) 0.20626(6)
H5 H 0.7452 1.8599 0.2020
C12 C 0.70798(7) 1.5506(4) 0.17303(6)
C13 C 0.67313(7) 1.3621(4) 0.18004(6)
H6 H 0.6625 1.2488 0.1575
C14 C 0.65263(6) 1.3303(4) 0.21908(6)
C15 C 0.61491(6) 1.1355(4) 0.22522(6)
C16 C 0.59835(6) 0.9630(4) 0.19316(5)
H7 H 0.6155 0.9527 0.1683
C17 C 0.55822(6) 0.8063(4) 0.19566(5)
C18 C 0.53321(7) 0.8154(4) 0.23320(6)
C19 C 0.48714(7) 0.6902(4) 0.23796(5)
C20 C 0.45145(7) 0.6894(4) 0.20629(5)
C21 C 0.41253(7) 0.5263(4) 0.21164(5)
H8 H 0.3887 0.5265 0.1903
C22 C 0.40661(6) 0.3615(4) 0.24681(5)
C23 C 0.36920(6) 0.1584(4) 0.24891(6)
C24 C 0.33880(7) 0.1061(4) 0.21412(6)
H9 H 0.3427 0.2083 0.1892
C25 C 0.30362(7) -0.0882(4) 0.21507(6)
C26 C 0.29997(7) -0.2460(4) 0.25146(6)
H10 H 0.2771 -0.3870 0.2524
C27 C 0.32907(7) -0.1999(4) 0.28589(6)
H11 H 0.3259 -0.3104 0.3101
C28 C 0.36343(7) 0.0079(4) 0.28586(6)
C29 C 0.39270(7) 0.0701(4) 0.32308(6)
C30 C 0.38574(7) -0.0590(4) 0.36156(6)
H12 H 0.3618 -0.1926 0.3638
C31 C 0.41345(7) 0.0064(4) 0.39634(6)
H13 H 0.4085 -0.0847 0.4221
C32 C 0.44825(7) 0.2025(4) 0.39418(6)
H14 H 0.4667 0.2450 0.4185
C33 C 0.45661(7) 0.3395(4) 0.35655(6)
C34 C 0.49211(6) 0.5510(4) 0.35327(5)
C35 C 0.50380(6) 0.6594(4) 0.31454(5)
C36 C 0.53981(6) 0.8686(4) 0.31045(6)
C37 C 0.55513(6) 0.9360(4) 0.26916(6)
C38 C 0.59459(6) 1.1105(4) 0.26463(6)
C39 C 0.61430(6) 1.2556(4) 0.30017(5)
C40 C 0.47674(6) 0.5786(4) 0.27747(5)
C41 C 0.43748(7) 0.4020(4) 0.28149(5)
C42 C 0.42886(7) 0.2685(4) 0.32053(5)
C43 C 0.55019(7) 0.7775(4) 0.49363(5)
H15 H 0.5221 0.7093 0.5076
H16 H 0.5572 0.9642 0.5044
C44 C 0.59136(8) 0.5878(4) 0.50414(6)
H17 H 0.5899 0.5313 0.5338
H18 H 0.5883 0.4198 0.4868
C45 C 0.63868(8) 0.7168(5) 0.49718(7)
H19 H 0.6421 0.8834 0.5148
H20 H 0.6404 0.7742 0.4676
C46 C 0.67856(10) 0.5202(6) 0.50767(9)
H21 H 0.6769 0.4621 0.5369
H22 H 0.7084 0.6130 0.5034
H23 H 0.6761 0.3587 0.4894
C47 C 0.72986(7) 1.5749(4) 0.13079(6)
H24 H 0.7375 1.3885 0.1206
H25 H 0.7594 1.6790 0.1340
C48 C 0.69840(8) 1.7176(5) 0.09814(7)
H26 H 0.6702 1.6039 0.0929
H27 H 0.6882 1.8965 0.1095
C49 C 0.72197(9) 1.7665(6) 0.05679(7)
H28 H 0.7497 1.8844 0.0618
H29 H 0.7328 1.5882 0.0458
C50 C 0.69001(11) 1.9020(8) 0.02427(8)
H30 H 0.6638 1.7793 0.0173
H31 H 0.7074 1.9393 -0.0010
H32 H 0.6781 2.0752 0.0354
C51 C 0.54758(7) 0.6080(4) 0.15984(5)
H33 H 0.5155 0.5362 0.1627
H34 H 0.5693 0.4501 0.1624
C52 C 0.55147(7) 0.7324(4) 0.11597(6)
H35 H 0.5272 0.8755 0.1120
H36 H 0.5823 0.8227 0.1140
C53 C 0.54596(8) 0.5205(5) 0.08099(6)
H37 H 0.5154 0.4270 0.0831
H38 H 0.5708 0.3798 0.0843
C54 C 0.54891(10) 0.6548(6) 0.03798(7)
H39 H 0.5241 0.7926 0.0345
H40 H 0.5451 0.5141 0.0162
H41 H 0.5794 0.7438 0.0356
C55 C 0.45010(7) 0.8909(4) 0.16983(5)
H42 H 0.4822 0.9590 0.1658
H43 H 0.4308 1.0507 0.1776
C56 C 0.43101(7) 0.7777(4) 0.12804(6)
H44 H 0.4532 0.6400 0.1174
H45 H 0.4010 0.6834 0.1326
C57 C 0.42347(8) 1.0029(5) 0.09521(6)
H46 H 0.4009 1.1388 0.1056
H47 H 0.4534 1.0993 0.0910
C58 C 0.40534(10) 0.8886(7) 0.05361(7)
H48 H 0.4281 0.7588 0.0427
H49 H 0.4006 1.0397 0.0337
H50 H 0.3756 0.7937 0.0576
C59 C 0.26954(7) -0.1290(4) 0.17845(6)
H51 H 0.2589 0.0539 0.1685
H52 H 0.2419 -0.2279 0.1885
C60 C 0.28854(8) -0.2873(5) 0.14143(7)
H53 H 0.3141 -0.1801 0.1292
H54 H 0.3017 -0.4643 0.1515
C61 C 0.25109(9) -0.3438(5) 0.10766(7)
H55 H 0.2251 -0.4463 0.1201
H56 H 0.2385 -0.1665 0.0971
C62 C 0.26949(11) -0.5082(6) 0.07126(8)
H57 H 0.2930 -0.3995 0.0570
H58 H 0.2437 -0.5519 0.0516
H59 H 0.2837 -0.6790 0.0818
N1 N 0.51132(6) 0.6143(3) 0.43004(5)
N2 N 0.54044(6) 0.7921(3) 0.44855(5)
N3 N 0.56423(6) 0.9571(3) 0.42396(5)
loop_
_geom_bond_atom_site_label_1
_geom_bond_atom_site_label_2
_geom_bond_site_symmetry_1
_geom_bond_site_symmetry_2
C1 C2 1_555 1_555
C2 C3 1_555 1_555
C3 C4 1_555 1_555
C4 C5 1_555 1_555
C5 H1 1_555 1_555
C6 C5 1_555 1_555
H2 C6 1_555 1_555
C7 C6 1_555 1_555
H3 C7 1_555 1_555
C8 C7 1_555 1_555
C9 C8 1_555 1_555
C10 C9 1_555 1_555
H4 C10 1_555 1_555
C11 C10 1_555 1_555
H5 C11 1_555 1_555
C12 C11 1_555 1_555
C13 C12 1_555 1_555
H6 C13 1_555 1_555
C14 C9 1_555 1_555
C15 C14 1_555 1_555
C16 C15 1_555 1_555
H7 C16 1_555 1_555
C17 C16 1_555 1_555
C18 C17 1_555 1_555
C19 C18 1_555 1_555
C20 C19 1_555 1_555
C21 C20 1_555 1_555
H8 C21 1_555 1_555
C22 C21 1_555 1_555
C23 C22 1_555 1_555
C24 C23 1_555 1_555
H9 C24 1_555 1_555
C25 C24 1_555 1_555
C26 C25 1_555 1_555
H10 C26 1_555 1_555
C27 C26 1_555 1_555
H11 C27 1_555 1_555
C28 C23 1_555 1_555
C29 C28 1_555 1_555
C30 C29 1_555 1_555
H12 C30 1_555 1_555
C31 C30 1_555 1_555
H13 C31 1_555 1_555
C32 C31 1_555 1_555
H14 C32 1_555 1_555
C33 C32 1_555 1_555
C34 C1 1_555 1_555
C35 C34 1_555 1_555
C36 C3 1_555 1_555
C37 C18 1_555 1_555
C38 C15 1_555 1_555
C39 C4 1_555 1_555
C40 C19 1_555 1_555
C41 C22 1_555 1_555
C42 C29 1_555 1_555
C43 H15 1_555 1_555
H16 C43 1_555 1_555
C44 C43 1_555 1_555
H17 C44 1_555 1_555
H18 C44 1_555 1_555
C45 C44 1_555 1_555
H19 C45 1_555 1_555
H20 C45 1_555 1_555
C46 C45 1_555 1_555
H21 C46 1_555 1_555
H22 C46 1_555 1_555
H23 C46 1_555 1_555
C47 C12 1_555 1_555
H24 C47 1_555 1_555
H25 C47 1_555 1_555
C48 C47 1_555 1_555
H26 C48 1_555 1_555
H27 C48 1_555 1_555
C49 C48 1_555 1_555
H28 C49 1_555 1_555
H29 C49 1_555 1_555
C50 C49 1_555 1_555
H30 C50 1_555 1_555
H31 C50 1_555 1_555
H32 C50 1_555 1_555
C51 C17 1_555 1_555
H33 C51 1_555 1_555
H34 C51 1_555 1_555
C52 C51 1_555 1_555
H35 C52 1_555 1_555
H36 C52 1_555 1_555
C53 C52 1_555 1_555
H37 C53 1_555 1_555
H38 C53 1_555 1_555
C54 C53 1_555 1_555
H39 C54 1_555 1_555
H40 C54 1_555 1_555
H41 C54 1_555 1_555
C55 C20 1_555 1_555
H42 C55 1_555 1_555
H43 C55 1_555 1_555
C56 C55 1_555 1_555
H44 C56 1_555 1_555
H45 C56 1_555 1_555
C57 C56 1_555 1_555
H46 C57 1_555 1_555
H47 C57 1_555 1_555
C58 C57 1_555 1_555
H48 C58 1_555 1_555
H49 C58 1_555 1_555
H50 C58 1_555 1_555
C59 C25 1_555 1_555
H51 C59 1_555 1_555
H52 C59 1_555 1_555
C60 C59 1_555 1_555
H53 C60 1_555 1_555
H54 C60 1_555 1_555
C61 C60 1_555 1_555
H55 C61 1_555 1_555
H56 C61 1_555 1_555
C62 C61 1_555 1_555
H57 C62 1_555 1_555
H58 C62 1_555 1_555
H59 C62 1_555 1_555
N1 C1 1_555 1_555
N2 C43 1_555 1_555
N3 C2 1_555 1_555
C8 C39 1_555 1_555
C13 C14 1_555 1_555
C27 C28 1_555 1_555
C33 C34 1_555 1_555
C33 C42 1_555 1_555
C35 C36 1_555 1_555
C35 C40 1_555 1_555
C36 C37 1_555 1_555
C37 C38 1_555 1_555
C38 C39 1_555 1_555
C40 C41 1_555 1_555
C41 C42 1_555 1_555
N1 N2 1_555 1_555
N2 N3 1_555 1_555

#END
