
#######################################################################
#
#                 Cambridge Crystallographic Data Centre
#                                CCDC 
#
#######################################################################
#
# If this CIF has been generated from an entry in the Cambridge 
# Structural Database, then it will include bibliographic, chemical, 
# crystal, experimental, refinement or atomic coordinate data resulting 
# from the CCDC's data processing and validation procedures.
#
#######################################################################

data_NIFRAV
_chemical_formula_moiety         'C17 H22 O4 S1'
_chemical_name_systematic        
((2-exo-Hydroxy-10-bornyl)methyl)(2-carboxyphenyl)sulfoxide
_symmetry_cell_setting           orthorhombic
_symmetry_space_group_name_H-M   'P 21 21 21'
_symmetry_Int_Tables_number      19
_space_group_name_Hall           'P 2ac 2ab'
loop_
_symmetry_equiv_pos_site_id
_symmetry_equiv_pos_as_xyz
1 x,y,z
2 1/2-x,-y,1/2+z
3 1/2+x,1/2-y,-z
4 -x,1/2+y,1/2-z
_cell_length_a                   13.124(3)
_cell_length_b                   14.720(3)
_cell_length_c                   8.659(2)
_cell_angle_alpha                90
_cell_angle_beta                 90
_cell_angle_gamma                90
_cell_volume                     1672.79
_exptl_crystal_colour            colorless
_exptl_crystal_description       prismatic
_cell_formula_units_Z            4
loop_
_atom_site_label
_atom_site_type_symbol
_atom_site_fract_x
_atom_site_fract_y
_atom_site_fract_z
S1 S -0.51499(9) -0.11299(10) -0.3476(1)
O1 O -0.3193(3) -0.3358(2) -0.5334(4)
O2 O -0.4548(3) -0.2896(2) -0.4010(5)
O3 O -0.5999(4) 0.0112(2) -0.0429(6)
O4 O -0.5469(3) -0.0145(2) -0.3346(5)
C1 C -0.3816(3) -0.1072(3) -0.4039(5)
C2 C -0.3377(5) -0.0221(3) -0.3986(7)
C3 C -0.2365(5) -0.0117(4) -0.4409(9)
C4 C -0.1803(4) -0.0845(4) -0.4901(7)
C5 C -0.2253(4) -0.1685(3) -0.5006(6)
C6 C -0.3264(3) -0.1819(3) -0.4577(5)
C7 C -0.3736(4) -0.2738(3) -0.4605(5)
C8 C -0.4921(3) -0.1486(3) -0.1483(5)
C9 C -0.5887(3) -0.1580(3) -0.0546(5)
C10 C -0.6612(5) -0.2347(4) -0.1044(7)
C11 C -0.7281(5) -0.2489(5) 0.0422(9)
C12 C -0.6856(4) -0.1811(4) 0.1567(7)
C13 C -0.7174(5) -0.0863(5) 0.1046(8)
C14 C -0.6565(4) -0.0715(4) -0.0473(7)
C15 C -0.5710(4) -0.1828(4) 0.1208(6)
C16 C -0.5095(6) -0.1138(8) 0.2094(6)
C17 C -0.5232(5) -0.2780(6) 0.1451(8)
H1 H -0.3765 0.0289 -0.3665
H2 H -0.2059 0.0467 -0.4356
H3 H -0.1107 -0.0770 -0.5170
H4 H -0.1866 -0.2185 -0.5376
H5 H -0.4497 -0.1047 -0.0999
H6 H -0.4584 -0.2056 -0.1496
H7 H -0.6245 -0.2883 -0.1294
H8 H -0.7015 -0.2168 -0.1903
H9 H -0.7978 -0.2362 0.0206
H10 H -0.7219 -0.3090 0.0800
H11 H -0.7017 -0.1943 0.2614
H12 H -0.6995 -0.0421 0.1799
H13 H -0.7887 -0.0838 0.0861
H14 H -0.7020 -0.0707 -0.1329
H15 H -0.5381 -0.0549 0.1947
H16 H -0.4412 -0.1138 0.1732
H17 H -0.5105 -0.1282 0.3163
H18 H -0.5236 -0.2927 0.2519
H19 H -0.5615 -0.3221 0.0897
H20 H -0.4549 -0.2779 0.1083
loop_
_geom_bond_atom_site_label_1
_geom_bond_atom_site_label_2
_geom_bond_site_symmetry_1
_geom_bond_site_symmetry_2
S1 O4 1_555 1_555
O1 C7 1_555 1_555
O2 C7 1_555 1_555
O3 C14 1_555 1_555
C1 S1 1_555 1_555
C2 C1 1_555 1_555
C3 C2 1_555 1_555
C4 C3 1_555 1_555
C5 C4 1_555 1_555
C6 C1 1_555 1_555
C7 C6 1_555 1_555
C8 S1 1_555 1_555
C9 C8 1_555 1_555
C10 C9 1_555 1_555
C11 C10 1_555 1_555
C12 C11 1_555 1_555
C13 C12 1_555 1_555
C14 C9 1_555 1_555
C15 C9 1_555 1_555
C16 C15 1_555 1_555
C17 C15 1_555 1_555
H1 C2 1_555 1_555
H2 C3 1_555 1_555
H3 C4 1_555 1_555
H4 C5 1_555 1_555
H5 C8 1_555 1_555
H6 C8 1_555 1_555
H7 C10 1_555 1_555
H8 C10 1_555 1_555
H9 C11 1_555 1_555
H10 C11 1_555 1_555
H11 C12 1_555 1_555
H12 C13 1_555 1_555
H13 C13 1_555 1_555
H14 C14 1_555 1_555
H15 C16 1_555 1_555
H16 C16 1_555 1_555
H17 C16 1_555 1_555
H18 C17 1_555 1_555
H19 C17 1_555 1_555
H20 C17 1_555 1_555
C5 C6 1_555 1_555
C12 C15 1_555 1_555
C13 C14 1_555 1_555

#END
