
#######################################################################
#
#                 Cambridge Crystallographic Data Centre
#                                CCDC 
#
#######################################################################
#
# If this CIF has been generated from an entry in the Cambridge 
# Structural Database, then it will include bibliographic, chemical, 
# crystal, experimental, refinement or atomic coordinate data resulting 
# from the CCDC's data processing and validation procedures.
#
#######################################################################

data_NIFYUZ
_chemical_formula_moiety         'C21 H16 N4 O5 S1,C2 H6 O1 S1'
_chemical_name_systematic        
'N-(2-(((4-nitrophenyl)sulfonyl)amino)phenyl)-1H-indole-2-carboxamide dimethyl sulfoxide solvate'
_symmetry_cell_setting           triclinic
_symmetry_space_group_name_H-M   'P -1'
_symmetry_Int_Tables_number      2
_space_group_name_Hall           '-P 1'
loop_
_symmetry_equiv_pos_site_id
_symmetry_equiv_pos_as_xyz
1 x,y,z
2 -x,-y,-z
_cell_length_a                   7.567(2)
_cell_length_b                   12.628(4)
_cell_length_c                   12.890(4)
_cell_angle_alpha                106.657(6)
_cell_angle_beta                 91.327(7)
_cell_angle_gamma                92.275(7)
_cell_volume                     1178.33
_exptl_crystal_colour            colorless
_exptl_crystal_description       block
_cell_formula_units_Z            2
_exptl_crystal_recrystallization_method 'dimethyl sulfoxide'
loop_
_atom_site_label
_atom_site_type_symbol
_atom_site_fract_x
_atom_site_fract_y
_atom_site_fract_z
S1 S 0.01982(8) 0.20355(5) 0.64780(5)
O1 O 0.4808(2) 0.36197(14) 0.94330(14)
O2 O -0.1240(2) 0.17518(14) 0.70677(15)
O3 O 0.3578(3) 0.72177(15) 0.84116(15)
O4 O -0.0058(2) 0.20133(14) 0.53628(15)
O5 O 0.1864(2) 0.71168(15) 0.97165(15)
N1 N 0.6558(3) 0.51537(15) 0.86126(16)
H1 H 0.636419 0.540409 0.929208
N2 N 0.4780(3) 0.22958(16) 0.78056(16)
H2 H 0.515360 0.211874 0.715609
N3 N 0.1787(3) 0.12113(16) 0.65031(16)
H3 H 0.234650 0.092256 0.592455
N4 N 0.2553(3) 0.67076(17) 0.88449(17)
C1 C 0.6144(3) 0.40864(18) 0.79707(19)
C2 C 0.0999(3) 0.34021(19) 0.7199(2)
C3 C 0.7420(3) 0.50285(19) 0.69194(19)
C4 C 0.2086(3) 0.55302(19) 0.8269(2)
C5 C 0.7328(3) 0.57463(19) 0.79902(19)
C6 C 0.3733(3) 0.15004(18) 0.81360(19)
C7 C 0.5216(3) 0.33206(19) 0.84680(19)
C8 C 0.1902(3) 0.4041(2) 0.6648(2)
H4 H 0.213439 0.374283 0.591987
C9 C 0.6665(3) 0.39801(19) 0.69326(19)
H5 H 0.654767 0.334378 0.634849
C10 C 0.2253(3) 0.09663(18) 0.74952(19)
C11 C 0.4150(3) 0.12398(19) 0.9093(2)
H6 H 0.514202 0.157911 0.951467
C12 C 0.0712(3) 0.3809(2) 0.8305(2)
H7 H 0.015664 0.336192 0.867351
C13 C 0.8204(3) 0.5442(2) 0.6119(2)
H8 H 0.828154 0.498905 0.541303
C14 C 0.8738(3) 0.7221(2) 0.7477(2)
H9 H 0.918802 0.794838 0.764696
C15 C 0.7984(3) 0.6847(2) 0.8272(2)
H10 H 0.791048 0.730929 0.897417
C16 C 0.2457(3) 0.5124(2) 0.7185(2)
H11 H 0.305903 0.556379 0.682749
C17 C 0.1218(3) 0.0185(2) 0.7816(2)
H12 H 0.025325 -0.017863 0.738122
C18 C 0.8849(3) 0.6524(2) 0.6402(2)
H13 H 0.936493 0.680331 0.588125
C19 C 0.1269(3) 0.4892(2) 0.8845(2)
H14 H 0.109401 0.518266 0.958175
C20 C 0.3095(4) 0.0479(2) 0.9418(2)
H15 H 0.336890 0.032198 1.006376
C21 C 0.1613(3) -0.0055(2) 0.8777(2)
H16 H 0.090376 -0.056554 0.899484
S2 S 0.55764(8) 0.10819(5) 0.43289(5)
O6 O 0.4881(2) 0.15115(15) 0.54568(14)
C22 C 0.6178(4) 0.2279(2) 0.3920(2)
H17 H 0.519206 0.274772 0.399865
H18 H 0.650398 0.205723 0.317597
H19 H 0.716259 0.267626 0.436569
C23 C 0.3647(4) 0.0633(2) 0.3463(2)
H20 H 0.315001 -0.004051 0.356413
H21 H 0.396246 0.050522 0.272190
H22 H 0.279131 0.119288 0.363887
loop_
_geom_bond_atom_site_label_1
_geom_bond_atom_site_label_2
_geom_bond_site_symmetry_1
_geom_bond_site_symmetry_2
S1 O2 1_555 1_555
O1 C7 1_555 1_555
O3 N4 1_555 1_555
O4 S1 1_555 1_555
O5 N4 1_555 1_555
N1 H1 1_555 1_555
N2 H2 1_555 1_555
N3 S1 1_555 1_555
H3 N3 1_555 1_555
N4 C4 1_555 1_555
C1 N1 1_555 1_555
C2 S1 1_555 1_555
C3 C5 1_555 1_555
C4 C16 1_555 1_555
C5 N1 1_555 1_555
C6 N2 1_555 1_555
C7 N2 1_555 1_555
C8 C2 1_555 1_555
H4 C8 1_555 1_555
C9 C1 1_555 1_555
H5 C9 1_555 1_555
C10 N3 1_555 1_555
C11 C6 1_555 1_555
H6 C11 1_555 1_555
C12 C2 1_555 1_555
H7 C12 1_555 1_555
C13 C3 1_555 1_555
H8 C13 1_555 1_555
C14 H9 1_555 1_555
C15 C5 1_555 1_555
H10 C15 1_555 1_555
C16 C8 1_555 1_555
H11 C16 1_555 1_555
C17 C10 1_555 1_555
H12 C17 1_555 1_555
C18 C13 1_555 1_555
H13 C18 1_555 1_555
C19 C4 1_555 1_555
H14 C19 1_555 1_555
C20 C11 1_555 1_555
H15 C20 1_555 1_555
C21 C17 1_555 1_555
H16 C21 1_555 1_555
S2 O6 1_555 1_555
C22 S2 1_555 1_555
H17 C22 1_555 1_555
H18 C22 1_555 1_555
H19 C22 1_555 1_555
C23 S2 1_555 1_555
H20 C23 1_555 1_555
H21 C23 1_555 1_555
H22 C23 1_555 1_555
C1 C7 1_555 1_555
C3 C9 1_555 1_555
C6 C10 1_555 1_555
C12 C19 1_555 1_555
C14 C15 1_555 1_555
C14 C18 1_555 1_555
C20 C21 1_555 1_555

#END
