
#######################################################################
#
#                 Cambridge Crystallographic Data Centre
#                                CCDC 
#
#######################################################################
#
# If this CIF has been generated from an entry in the Cambridge 
# Structural Database, then it will include bibliographic, chemical, 
# crystal, experimental, refinement or atomic coordinate data resulting 
# from the CCDC's data processing and validation procedures.
#
#######################################################################

data_NIGHAO
_chemical_formula_moiety         'C8 H11 O4 1-,C7 H7 N2 1+'
_chemical_name_systematic        
'benzimidazolium 4-carboxycyclohexane-1-carboxylate'
_symmetry_cell_setting           orthorhombic
_symmetry_space_group_name_H-M   'P 21 21 21'
_symmetry_Int_Tables_number      19
_space_group_name_Hall           'P 2ac 2ab'
loop_
_symmetry_equiv_pos_site_id
_symmetry_equiv_pos_as_xyz
1 x,y,z
2 1/2-x,-y,1/2+z
3 -x,1/2+y,1/2-z
4 1/2+x,1/2-y,-z
_cell_length_a                   5.3285(2)
_cell_length_b                   15.8581(5)
_cell_length_c                   16.3215(6)
_cell_angle_alpha                90
_cell_angle_beta                 90
_cell_angle_gamma                90
_cell_volume                     1379.16
_exptl_crystal_colour            colorless
_exptl_crystal_description       block
_cell_formula_units_Z            4
loop_
_atom_site_label
_atom_site_type_symbol
_atom_site_fract_x
_atom_site_fract_y
_atom_site_fract_z
N1 N 0.6634(3) 0.33663(8) 0.21502(8)
H1 H 0.7125 0.3880 0.2094
N2 N 0.6428(3) 0.20749(9) 0.25922(8)
H2 H 0.6768 0.1626 0.2867
C1 C 0.7638(4) 0.27995(10) 0.26436(10)
H3 H 0.9012 0.2897 0.2982
C2 C 0.4519(3) 0.21585(9) 0.20217(10)
C3 C 0.4645(3) 0.29883(10) 0.17372(9)
C4 C 0.3001(4) 0.32844(11) 0.11451(10)
H4 H 0.3075 0.3837 0.0956
C5 C 0.1261(4) 0.27237(11) 0.08518(12)
H5 H 0.0159 0.2898 0.0444
C6 C 0.1095(4) 0.18991(12) 0.11469(11)
H6 H -0.0138 0.1543 0.0940
C7 C 0.2711(4) 0.16025(10) 0.17364(10)
H7 H 0.2597 0.1054 0.1935
O1 O 0.2942(3) 0.48949(8) 0.31338(8)
H8 H 0.1782 0.4811 0.2814
O2 O 0.1929(3) 0.36131(9) 0.35604(8)
O3 O 0.5719(2) 0.51732(7) 0.70649(7)
O4 O 0.3785(3) 0.40644(8) 0.65356(7)
C8 C 0.3219(3) 0.42328(11) 0.36132(9)
C9 C 0.5541(3) 0.45798(10) 0.65436(9)
C10 C 0.5328(3) 0.43348(10) 0.42239(9)
H9 H 0.6894 0.4391 0.3914
C11 C 0.5599(4) 0.35735(10) 0.47854(10)
H10 H 0.5967 0.3079 0.4457
H11 H 0.4021 0.3476 0.5066
C12 C 0.7689(4) 0.36946(10) 0.54234(10)
H12 H 0.7604 0.3235 0.5815
H13 H 0.9298 0.3658 0.5148
C13 C 0.7578(3) 0.45284(9) 0.58917(9)
H14 H 0.9196 0.4602 0.6168
C14 C 0.7263(3) 0.52654(9) 0.52911(9)
H15 H 0.7058 0.5785 0.5597
H16 H 0.8766 0.5317 0.4960
C15 C 0.4999(3) 0.51394(10) 0.47320(9)
H17 H 0.4826 0.5621 0.4370
H18 H 0.3486 0.5097 0.5060
loop_
_geom_bond_atom_site_label_1
_geom_bond_atom_site_label_2
_geom_bond_site_symmetry_1
_geom_bond_site_symmetry_2
N1 H1 1_555 1_555
N2 H2 1_555 1_555
C1 N1 1_555 1_555
H3 C1 1_555 1_555
C2 N2 1_555 1_555
C3 N1 1_555 1_555
C4 C3 1_555 1_555
H4 C4 1_555 1_555
C5 C4 1_555 1_555
H5 C5 1_555 1_555
C6 C5 1_555 1_555
H6 C6 1_555 1_555
C7 C2 1_555 1_555
H7 C7 1_555 1_555
O1 H8 1_555 1_555
O2 C8 1_555 1_555
O3 C9 1_555 1_555
O4 C9 1_555 1_555
C8 O1 1_555 1_555
C9 C13 1_555 1_555
C10 C8 1_555 1_555
H9 C10 1_555 1_555
C11 C10 1_555 1_555
H10 C11 1_555 1_555
H11 C11 1_555 1_555
C12 C11 1_555 1_555
H12 C12 1_555 1_555
H13 C12 1_555 1_555
C13 C12 1_555 1_555
H14 C13 1_555 1_555
C14 C13 1_555 1_555
H15 C14 1_555 1_555
H16 C14 1_555 1_555
C15 C10 1_555 1_555
H17 C15 1_555 1_555
H18 C15 1_555 1_555
N2 C1 1_555 1_555
C2 C3 1_555 1_555
C6 C7 1_555 1_555
C14 C15 1_555 1_555

#END
