
#######################################################################
#
#                 Cambridge Crystallographic Data Centre
#                                CCDC 
#
#######################################################################
#
# If this CIF has been generated from an entry in the Cambridge 
# Structural Database, then it will include bibliographic, chemical, 
# crystal, experimental, refinement or atomic coordinate data resulting 
# from the CCDC's data processing and validation procedures.
#
#######################################################################

data_NIGJUJ
_chemical_formula_moiety         'C14 H14 O2 S6 1+,C14 H14 O2 S6,F6 P1 1-'
_chemical_name_systematic        
"bis(\b''-(1,2-Cyclohexylene-1,2-dithio)ethylenedioxytetrathiafulvalene) hexafluorophosphate"
_symmetry_cell_setting           triclinic
_symmetry_space_group_name_H-M   'P -1'
_symmetry_Int_Tables_number      2
_space_group_name_Hall           '-P 1'
loop_
_symmetry_equiv_pos_site_id
_symmetry_equiv_pos_as_xyz
1 x,y,z
2 -x,-y,-z
_cell_length_a                   9.011(4)
_cell_length_b                   16.088(7)
_cell_length_c                   6.809(2)
_cell_angle_alpha                93.88(4)
_cell_angle_beta                 106.33(3)
_cell_angle_gamma                73.82(3)
_cell_volume                     909.691
_exptl_crystal_colour            black
_exptl_crystal_description       plate
_cell_formula_units_Z            1
_exptl_crystal_recrystallization_method chlorobenzene
loop_
_atom_site_label
_atom_site_type_symbol
_atom_site_fract_x
_atom_site_fract_y
_atom_site_fract_z
P1 P 0.0000 0.0000 0.0000
F1 F 0.0724(5) -0.0846(3) 0.1417(8)
F2 F -0.0915(6) -0.0523(3) -0.1608(8)
F3 F 0.1446(5) -0.0280(3) -0.0961(8)
F1A F -0.0724(5) 0.0846(3) -0.1417(8)
F2A F 0.0915(6) 0.0523(3) 0.1608(8)
F3A F -0.1446(5) 0.0280(3) 0.0961(8)
S1 S 0.3794(1) 0.59629(7) 0.3271(2)
S2 S 0.1495(1) 0.55330(6) 0.5128(2)
S3 S 0.3476(1) 0.44367(7) 0.0083(1)
S4 S 0.1125(1) 0.40135(7) 0.1788(2)
S5 S 0.3270(1) 0.31797(7) -0.3221(2)
S6 S 0.0537(1) 0.26278(7) -0.1151(2)
O1 O 0.3851(3) 0.7311(2) 0.5763(4)
O2 O 0.1668(3) 0.6855(2) 0.7621(4)
C1 C 0.2798(6) 0.7950(3) 0.6758(8)
C2 C 0.2486(7) 0.7518(3) 0.8450(7)
C3 C 0.3266(5) 0.6604(2) 0.5262(6)
C4 C 0.2234(4) 0.6417(2) 0.6106(6)
C5 C 0.2539(4) 0.5312(2) 0.3269(5)
C6 C 0.2374(4) 0.4678(2) 0.1874(5)
C7 C 0.2581(4) 0.3640(2) -0.1145(5)
C8 C 0.1497(4) 0.3442(2) -0.0367(5)
C9 C 0.2197(6) 0.2345(3) -0.4147(6)
C10 C 0.1944(5) 0.1885(2) -0.2385(6)
C11 C 0.3470(6) 0.1411(3) -0.0900(7)
C12 C 0.4499(8) 0.0724(3) -0.207(1)
C13 C 0.4848(7) 0.1163(4) -0.3781(9)
C14 C 0.3312(7) 0.1678(3) -0.5217(8)
H1 H 0.339(5) 0.845(3) 0.715(6)
H2 H 0.177(5) 0.822(3) 0.550(6)
H3 H 0.156(5) 0.793(3) 0.878(6)
H4 H 0.358(5) 0.714(3) 0.948(6)
H5 H 0.110(5) 0.278(3) -0.482(6)
H6 H 0.134(5) 0.144(3) -0.307(6)
H7 H 0.415(5) 0.182(3) -0.009(6)
H8 H 0.306(5) 0.112(3) 0.000(6)
H9 H 0.367(5) 0.037(3) -0.294(6)
H10 H 0.558(5) 0.046(3) -0.094(6)
H11 H 0.549(5) 0.155(3) -0.321(6)
H12 H 0.531(5) 0.075(3) -0.464(6)
H13 H 0.363(5) 0.186(3) -0.620(6)
H14 H 0.254(5) 0.138(3) -0.609(6)
loop_
_geom_bond_atom_site_label_1
_geom_bond_atom_site_label_2
_geom_bond_site_symmetry_1
_geom_bond_site_symmetry_2
S1 C3 1_555 1_555
S2 C4 1_555 1_555
S3 C6 1_555 1_555
S4 C6 1_555 1_555
S5 C7 1_555 1_555
S6 C8 1_555 1_555
P1 F1 1_555 1_555
F2 P1 1_555 1_555
F3 P1 1_555 1_555
O1 C1 1_555 1_555
O2 C2 1_555 1_555
C1 C2 1_555 1_555
C2 H3 1_555 1_555
C3 O1 1_555 1_555
C4 O2 1_555 1_555
C5 S1 1_555 1_555
C6 C5 1_555 1_555
C7 S3 1_555 1_555
C8 S4 1_555 1_555
C9 S5 1_555 1_555
C10 S6 1_555 1_555
C11 C10 1_555 1_555
C12 C11 1_555 1_555
C13 C12 1_555 1_555
C14 C9 1_555 1_555
H1 C1 1_555 1_555
H2 C1 1_555 1_555
H4 C2 1_555 1_555
H5 C9 1_555 1_555
H6 C10 1_555 1_555
H7 C11 1_555 1_555
H8 C11 1_555 1_555
H9 C12 1_555 1_555
H10 C12 1_555 1_555
H11 C13 1_555 1_555
H12 C13 1_555 1_555
H13 C14 1_555 1_555
H14 C14 1_555 1_555
F1A P1 1_555 1_555
F2A P1 1_555 1_555
F3A P1 1_555 1_555
S2 C5 1_555 1_555
C3 C4 1_555 1_555
C7 C8 1_555 1_555
C9 C10 1_555 1_555
C13 C14 1_555 1_555

#END
