
#######################################################################
#
#                 Cambridge Crystallographic Data Centre
#                                CCDC 
#
#######################################################################
#
# If this CIF has been generated from an entry in the Cambridge 
# Structural Database, then it will include bibliographic, chemical, 
# crystal, experimental, refinement or atomic coordinate data resulting 
# from the CCDC's data processing and validation procedures.
#
#######################################################################

data_NIGMOI
_chemical_formula_moiety         'C28 H19 N1 O4 S1'
_chemical_name_systematic        
'methyl 7-(4-methoxyphenyl)-8-oxo-5,8-dihydroindeno[2,1-c]phenothiazine-6-carboxylate'
_symmetry_cell_setting           orthorhombic
_symmetry_space_group_name_H-M   'P c a 21'
_symmetry_Int_Tables_number      29
_space_group_name_Hall           'P 2c -2ac'
loop_
_symmetry_equiv_pos_site_id
_symmetry_equiv_pos_as_xyz
1 x,y,z
2 -x,-y,1/2+z
3 1/2-x,y,1/2+z
4 1/2+x,-y,z
_cell_length_a                   9.2077(15)
_cell_length_b                   25.248(4)
_cell_length_c                   19.013(3)
_cell_angle_alpha                90
_cell_angle_beta                 90
_cell_angle_gamma                90
_cell_volume                     4420.07
_exptl_crystal_colour            red
_exptl_crystal_description       block
_cell_formula_units_Z            8
loop_
_atom_site_label
_atom_site_type_symbol
_atom_site_fract_x
_atom_site_fract_y
_atom_site_fract_z
C1 C -0.0890(6) -0.0854(2) 0.1686(3)
C2 C -0.1403(7) -0.1072(2) 0.2307(3)
H1 H -0.1904 -0.0863 0.2629
C3 C -0.1163(8) -0.1603(3) 0.2442(4)
H2 H -0.1489 -0.1750 0.2862
C4 C -0.0451(7) -0.1916(3) 0.1965(4)
H3 H -0.0323 -0.2275 0.2054
C5 C 0.0072(6) -0.1696(2) 0.1356(3)
H4 H 0.0583 -0.1907 0.1040
C6 C -0.0151(6) -0.1167(2) 0.1205(3)
C7 C 0.0526(6) -0.02288(19) 0.0572(3)
C8 C -0.0342(6) -0.00010(19) 0.1105(3)
C9 C -0.0367(6) 0.05518(19) 0.1194(3)
C10 C -0.1169(7) 0.0764(2) 0.1816(3)
C11 C -0.1230(9) 0.1419(3) 0.2694(3)
H5 H -0.2154 0.1534 0.2517
H6 H -0.0681 0.1722 0.2847
H7 H -0.1377 0.1184 0.3084
C12 C 0.1379(6) 0.1811(2) 0.0811(3)
H8 H 0.2311 0.1672 0.0770
C13 C 0.1191(7) 0.2349(2) 0.0910(3)
H9 H 0.1998 0.2569 0.0943
C14 C -0.0175(7) 0.2560(2) 0.0961(3)
C15 C -0.1611(8) 0.3310(2) 0.1244(4)
H10 H -0.2263 0.3261 0.0855
H11 H -0.1512 0.3681 0.1342
H12 H -0.1990 0.3132 0.1651
C16 C -0.1374(6) 0.2237(2) 0.0909(3)
H13 H -0.2305 0.2379 0.0936
C17 C -0.1171(6) 0.1700(2) 0.0817(3)
H14 H -0.1981 0.1481 0.0783
C18 C 0.0187(6) 0.1477(2) 0.0773(3)
C19 C 0.0373(6) 0.0890(2) 0.0727(3)
C20 C 0.1983(5) 0.0892(2) -0.0400(3)
C21 C 0.1202(6) 0.06546(19) 0.0203(3)
C22 C 0.1333(6) 0.00964(18) 0.0144(3)
C23 C 0.2313(6) -0.0029(2) -0.0446(3)
C24 C 0.2855(6) -0.0498(2) -0.0709(3)
H15 H 0.2593 -0.0821 -0.0510
C25 C 0.3802(7) -0.0478(3) -0.1278(3)
H16 H 0.4178 -0.0792 -0.1457
C26 C 0.4198(6) -0.0008(3) -0.1584(3)
H17 H 0.4832 -0.0006 -0.1965
C27 C 0.3653(6) 0.0462(2) -0.1325(3)
H18 H 0.3910 0.0784 -0.1529
C28 C 0.2725(6) 0.04470(19) -0.0761(3)
N1 N -0.1163(5) -0.03197(17) 0.1534(2)
H19 H -0.1914 -0.0179 0.1727
O1 O -0.2308(5) 0.05932(16) 0.2025(2)
O2 O -0.0448(4) 0.11484(15) 0.2147(2)
O3 O -0.0238(5) 0.30960(13) 0.1072(2)
O4 O 0.2011(4) 0.13527(15) -0.05998(19)
S1 S 0.03998(16) -0.09110(5) 0.03938(8)
C29 C 0.6635(7) 0.4011(3) 0.3816(4)
C30 C 0.7610(9) 0.3933(3) 0.3260(4)
H20 H 0.7360 0.3717 0.2883
C31 C 0.8950(10) 0.4181(3) 0.3278(5)
H21 H 0.9615 0.4124 0.2918
C32 C 0.9297(10) 0.4508(3) 0.3819(6)
H22 H 1.0189 0.4681 0.3821
C33 C 0.8334(8) 0.4587(2) 0.4370(5)
H23 H 0.8592 0.4804 0.4744
C34 C 0.7004(7) 0.4345(2) 0.4362(4)
C35 C 0.4351(7) 0.4044(2) 0.4911(3)
C36 C 0.4250(7) 0.3732(2) 0.4293(3)
C37 C 0.3025(6) 0.3414(2) 0.4179(3)
C38 C 0.2878(9) 0.3151(2) 0.3479(4)
C39 C 0.1280(9) 0.2905(3) 0.2575(4)
H24 H 0.1655 0.3107 0.2188
H25 H 0.0251 0.2859 0.2519
H26 H 0.1743 0.2564 0.2585
C40 C -0.0665(7) 0.3128(2) 0.4585(3)
H27 H -0.0889 0.3480 0.4678
C41 C -0.1777(6) 0.2780(2) 0.4435(3)
H28 H -0.2734 0.2898 0.4420
C42 C -0.1448(7) 0.2254(2) 0.4308(3)
C43 C -0.3919(8) 0.2049(3) 0.4023(4)
H29 H -0.4295 0.2222 0.4434
H30 H -0.4515 0.1749 0.3911
H31 H -0.3922 0.2292 0.3635
C44 C -0.0035(7) 0.2087(2) 0.4347(3)
H32 H 0.0187 0.1732 0.4276
C45 C 0.1045(6) 0.2440(2) 0.4489(3)
H33 H 0.1999 0.2320 0.4512
C46 C 0.0759(7) 0.2972(2) 0.4601(3)
C47 C 0.1950(6) 0.3355(2) 0.4697(3)
C48 C 0.1235(8) 0.3645(3) 0.5954(4)
C49 C 0.2091(6) 0.3658(2) 0.5298(3)
C50 C 0.3272(7) 0.4011(2) 0.5394(4)
C51 C 0.3098(7) 0.4266(2) 0.6094(3)
C52 C 0.3860(7) 0.4662(3) 0.6440(4)
H34 H 0.4658 0.4822 0.6229
C53 C 0.3411(9) 0.4814(3) 0.7103(5)
H35 H 0.3913 0.5081 0.7336
C54 C 0.2245(10) 0.4580(3) 0.7426(4)
H36 H 0.1971 0.4685 0.7875
C55 C 0.1482(8) 0.4189(3) 0.7083(4)
H37 H 0.0691 0.4026 0.7297
C56 C 0.1904(7) 0.4046(2) 0.6427(3)
N2 N 0.5319(6) 0.3737(2) 0.3795(3)
H38 H 0.5164 0.3549 0.3425
O5 O 0.3862(6) 0.2943(2) 0.3164(3)
O6 O 0.1568(5) 0.31820(17) 0.3228(2)
O7 O -0.2473(5) 0.18776(14) 0.4155(2)
O8 O 0.0203(6) 0.3364(2) 0.6108(3)
S2 S 0.58621(19) 0.44579(7) 0.50772(11)
loop_
_geom_bond_atom_site_label_1
_geom_bond_atom_site_label_2
_geom_bond_site_symmetry_1
_geom_bond_site_symmetry_2
C1 C2 1_555 1_555
C2 H1 1_555 1_555
C3 C2 1_555 1_555
H2 C3 1_555 1_555
C4 C3 1_555 1_555
H3 C4 1_555 1_555
C5 C4 1_555 1_555
H4 C5 1_555 1_555
C6 C1 1_555 1_555
C7 C8 1_555 1_555
C8 C9 1_555 1_555
C9 C10 1_555 1_555
C10 O1 1_555 1_555
C11 H5 1_555 1_555
H6 C11 1_555 1_555
H7 C11 1_555 1_555
C12 H8 1_555 1_555
C13 C12 1_555 1_555
H9 C13 1_555 1_555
C14 C13 1_555 1_555
C15 H10 1_555 1_555
H11 C15 1_555 1_555
H12 C15 1_555 1_555
C16 C14 1_555 1_555
H13 C16 1_555 1_555
C17 C16 1_555 1_555
H14 C17 1_555 1_555
C18 C12 1_555 1_555
C19 C9 1_555 1_555
C20 C21 1_555 1_555
C21 C19 1_555 1_555
C22 C7 1_555 1_555
C23 C22 1_555 1_555
C24 C23 1_555 1_555
H15 C24 1_555 1_555
C25 C24 1_555 1_555
H16 C25 1_555 1_555
C26 C25 1_555 1_555
H17 C26 1_555 1_555
C27 C26 1_555 1_555
H18 C27 1_555 1_555
C28 C20 1_555 1_555
N1 C1 1_555 1_555
H19 N1 1_555 1_555
O2 C10 1_555 1_555
O3 C14 1_555 1_555
O4 C20 1_555 1_555
S1 C6 1_555 1_555
C29 C30 1_555 1_555
C30 H20 1_555 1_555
C31 C30 1_555 1_555
H21 C31 1_555 1_555
C32 C31 1_555 1_555
H22 C32 1_555 1_555
C33 C32 1_555 1_555
H23 C33 1_555 1_555
C34 C29 1_555 1_555
C35 C36 1_555 1_555
C36 C37 1_555 1_555
C37 C38 1_555 1_555
C38 O5 1_555 1_555
C39 H24 1_555 1_555
H25 C39 1_555 1_555
H26 C39 1_555 1_555
C40 H27 1_555 1_555
C41 C40 1_555 1_555
H28 C41 1_555 1_555
C42 C41 1_555 1_555
C43 H29 1_555 1_555
H30 C43 1_555 1_555
H31 C43 1_555 1_555
C44 C42 1_555 1_555
H32 C44 1_555 1_555
C45 C44 1_555 1_555
H33 C45 1_555 1_555
C46 C40 1_555 1_555
C47 C37 1_555 1_555
C48 C49 1_555 1_555
C49 C47 1_555 1_555
C50 C35 1_555 1_555
C51 C50 1_555 1_555
C52 C51 1_555 1_555
H34 C52 1_555 1_555
C53 C52 1_555 1_555
H35 C53 1_555 1_555
C54 C53 1_555 1_555
H36 C54 1_555 1_555
C55 C54 1_555 1_555
H37 C55 1_555 1_555
C56 C48 1_555 1_555
N2 C29 1_555 1_555
H38 N2 1_555 1_555
O6 C38 1_555 1_555
O7 C42 1_555 1_555
O8 C48 1_555 1_555
S2 C34 1_555 1_555
C5 C6 1_555 1_555
C7 S1 1_555 1_555
C8 N1 1_555 1_555
C11 O2 1_555 1_555
C15 O3 1_555 1_555
C17 C18 1_555 1_555
C18 C19 1_555 1_555
C21 C22 1_555 1_555
C23 C28 1_555 1_555
C27 C28 1_555 1_555
C33 C34 1_555 1_555
C35 S2 1_555 1_555
C36 N2 1_555 1_555
C39 O6 1_555 1_555
C43 O7 1_555 1_555
C45 C46 1_555 1_555
C46 C47 1_555 1_555
C49 C50 1_555 1_555
C51 C56 1_555 1_555
C55 C56 1_555 1_555

#END
