
#######################################################################
#
#                 Cambridge Crystallographic Data Centre
#                                CCDC 
#
#######################################################################
#
# If this CIF has been generated from an entry in the Cambridge 
# Structural Database, then it will include bibliographic, chemical, 
# crystal, experimental, refinement or atomic coordinate data resulting 
# from the CCDC's data processing and validation procedures.
#
#######################################################################

data_NIGROK
_chemical_formula_moiety         'C32 H22 N4 S2,0.5(C7 H8)'
_chemical_name_systematic        
"2,2'-bis(6-(2,2'-Bipyridyl))diphenyldisulfide toluene solvate"
_symmetry_cell_setting           triclinic
_symmetry_space_group_name_H-M   'P -1'
_symmetry_Int_Tables_number      2
_space_group_name_Hall           '-P 1'
loop_
_symmetry_equiv_pos_site_id
_symmetry_equiv_pos_as_xyz
1 x,y,z
2 -x,-y,-z
_cell_length_a                   10.775(2)
_cell_length_b                   11.1679(10)
_cell_length_c                   12.041(2)
_cell_angle_alpha                83.535(9)
_cell_angle_beta                 85.320(11)
_cell_angle_gamma                79.904(10)
_cell_volume                     1414.6
_cell_formula_units_Z            2
loop_
_atom_site_label
_atom_site_type_symbol
_atom_site_fract_x
_atom_site_fract_y
_atom_site_fract_z
C33 C -0.5661(4) 0.5821(5) 0.3673(4)
C34 C -0.4735(4) 0.6724(3) 0.4084(3)
C35 C -0.4304(5) 0.6165(5) 0.5041(6)
C36 C -0.5681(3) 0.4839(3) 0.4308(2)
C37 C -0.4761(4) 0.5690(4) 0.4762(4)
C36A C -0.4319(3) 0.5161(3) 0.5692(2)
C33A C -0.4339(4) 0.4179(5) 0.6327(4)
C34A C -0.5265(4) 0.3276(3) 0.5916(3)
C35A C -0.5696(5) 0.3835(5) 0.4959(6)
C37A C -0.5239(4) 0.4310(4) 0.5238(4)
S1 S 0.2145(1) 0.2269(1) 0.3240(1)
S2 S 0.3211(1) 0.2483(1) 0.1752(1)
N1 N 0.1339(1) -0.0827(1) 0.7039(1)
N2 N 0.0629(1) 0.1913(1) 0.5158(1)
N3 N 0.4820(1) 0.2473(1) -0.0144(1)
N4 N 0.7786(1) 0.3552(1) -0.0235(1)
C1 C 0.1559(1) 0.0118(1) 0.6304(1)
C2 C 0.2775(1) 0.0289(1) 0.5903(1)
C3 C 0.3793(2) -0.0565(2) 0.6269(1)
C4 C 0.3576(2) -0.1552(2) 0.7012(1)
C5 C 0.2337(2) -0.1642(2) 0.7374(1)
C6 C -0.0366(1) 0.2696(1) 0.4765(1)
C7 C -0.1610(1) 0.2554(1) 0.5112(1)
C8 C -0.1810(1) 0.1599(2) 0.5898(1)
C9 C -0.0786(1) 0.0794(1) 0.6322(1)
C10 C 0.0422(1) 0.0975(1) 0.5916(1)
C11 C 0.1039(1) 0.3680(1) 0.3268(1)
C12 C 0.1278(2) 0.4725(1) 0.2594(1)
C13 C 0.0427(2) 0.5814(1) 0.2592(1)
C14 C -0.0679(2) 0.5873(1) 0.3264(1)
C15 C -0.0923(1) 0.4846(1) 0.3945(1)
C16 C -0.0080(1) 0.3736(1) 0.3969(1)
C17 C 0.2324(1) 0.2002(1) 0.0736(1)
C18 C 0.1045(1) 0.1933(1) 0.0968(1)
C19 C 0.0360(1) 0.1528(2) 0.0201(1)
C20 C 0.0933(2) 0.1203(2) -0.0820(1)
C21 C 0.2201(1) 0.1269(1) -0.1055(1)
C22 C 0.2927(1) 0.1650(1) -0.0293(1)
C23 C 0.4288(1) 0.1655(1) -0.0588(1)
C24 C 0.4984(1) 0.0828(1) -0.1296(1)
C25 C 0.6246(1) 0.0889(1) -0.1560(1)
C26 C 0.6791(1) 0.1750(1) -0.1125(1)
C27 C 0.6048(1) 0.2522(1) -0.0406(1)
C28 C 0.6593(1) 0.3447(1) 0.0114(1)
C29 C 0.5905(2) 0.4137(1) 0.0918(1)
C30 C 0.6489(2) 0.4953(2) 0.1389(1)
C31 C 0.7722(2) 0.5064(2) 0.1039(2)
C32 C 0.8321(2) 0.4349(2) 0.0232(2)
H1 H 0.2903(1) 0.0975(1) 0.5391(1)
H2 H 0.4631(2) -0.0471(2) 0.6010(1)
H3 H 0.4257(2) -0.2154(2) 0.7268(1)
H4 H 0.2189(2) -0.2319(2) 0.7889(1)
H5 H -0.2304(1) 0.3106(1) 0.4810(1)
H6 H -0.2646(1) 0.1491(2) 0.6149(1)
H7 H -0.0906(1) 0.0139(1) 0.6873(1)
H8 H 0.2036(2) 0.4692(1) 0.2129(1)
H9 H 0.0606(2) 0.6517(1) 0.2128(1)
H10 H -0.1268(2) 0.6613(1) 0.3260(1)
H11 H -0.1684(1) 0.4895(1) 0.4408(1)
H12 H 0.0639(1) 0.2167(1) 0.1659(1)
H13 H -0.0505(1) 0.1474(2) 0.0376(1)
H14 H 0.0462(2) 0.0938(2) -0.1351(1)
H15 H 0.2589(1) 0.1049(1) -0.1757(1)
H16 H 0.4596(1) 0.0239(1) -0.1586(1)
H17 H 0.6736(1) 0.0341(1) -0.2040(1)
H18 H 0.7653(1) 0.1815(1) -0.1309(1)
H19 H 0.5056(2) 0.4052(1) 0.1140(1)
H20 H 0.6046(2) 0.5432(2) 0.1946(1)
H21 H 0.8142(2) 0.5618(2) 0.1347(2)
H22 H 0.9168(2) 0.4426(2) -0.0009(2)
loop_
_geom_bond_atom_site_label_1
_geom_bond_atom_site_label_2
_geom_bond_site_symmetry_1
_geom_bond_site_symmetry_2
S1 S2 1_555 1_555
S2 C17 1_555 1_555
N1 C1 1_555 1_555
N2 C6 1_555 1_555
N3 C23 1_555 1_555
N4 C28 1_555 1_555
C1 C2 1_555 1_555
C2 C3 1_555 1_555
C3 C4 1_555 1_555
C4 C5 1_555 1_555
C5 N1 1_555 1_555
C6 C7 1_555 1_555
C7 C8 1_555 1_555
C8 C9 1_555 1_555
C9 C10 1_555 1_555
C10 N2 1_555 1_555
C11 S1 1_555 1_555
C12 C11 1_555 1_555
C13 C12 1_555 1_555
C14 C13 1_555 1_555
C15 C14 1_555 1_555
C16 C6 1_555 1_555
C17 C18 1_555 1_555
C18 C19 1_555 1_555
C19 C20 1_555 1_555
C20 C21 1_555 1_555
C21 C22 1_555 1_555
C22 C17 1_555 1_555
C23 C22 1_555 1_555
C24 C23 1_555 1_555
C25 C24 1_555 1_555
C26 C25 1_555 1_555
C27 N3 1_555 1_555
C28 C27 1_555 1_555
C29 C28 1_555 1_555
C30 C29 1_555 1_555
C31 C30 1_555 1_555
C32 N4 1_555 1_555
C33 C34 1_555 1_555
C34 C35 1_555 1_555
C35 C37 1_555 1_555
C36 C33 1_555 1_555
C37 C33 1_555 1_555
H1 C2 1_555 1_555
H2 C3 1_555 1_555
H3 C4 1_555 1_555
H4 C5 1_555 1_555
H5 C7 1_555 1_555
H6 C8 1_555 1_555
H7 C9 1_555 1_555
H8 C12 1_555 1_555
H9 C13 1_555 1_555
H10 C14 1_555 1_555
H11 C15 1_555 1_555
H12 C18 1_555 1_555
H13 C19 1_555 1_555
H14 C20 1_555 1_555
H15 C21 1_555 1_555
H16 C24 1_555 1_555
H17 C25 1_555 1_555
H18 C26 1_555 1_555
H19 C29 1_555 1_555
H20 C30 1_555 1_555
H21 C31 1_555 1_555
H22 C32 1_555 1_555
C36A C35 1_555 1_555
C33A C36A 1_555 1_555
C34A C33A 1_555 1_555
C35A C36 1_555 1_555
C37A C36 1_555 1_555
C1 C10 1_555 1_555
C11 C16 1_555 1_555
C15 C16 1_555 1_555
C26 C27 1_555 1_555
C31 C32 1_555 1_555
C34 C37 1_555 1_555
C36 C37 1_555 1_555
C37 C36A 1_555 1_555
C37 C37A 1_555 1_555
C36A C37A 1_555 1_555
C33A C37A 1_555 1_555
C34A C35A 1_555 1_555
C34A C37A 1_555 1_555
C35A C37A 1_555 1_555

#END
