
#######################################################################
#
#                 Cambridge Crystallographic Data Centre
#                                CCDC 
#
#######################################################################
#
# If this CIF has been generated from an entry in the Cambridge 
# Structural Database, then it will include bibliographic, chemical, 
# crystal, experimental, refinement or atomic coordinate data resulting 
# from the CCDC's data processing and validation procedures.
#
#######################################################################

data_NIGWOQ
_chemical_formula_moiety         'C16 H18 N2 O2'
_chemical_name_systematic        
'Methyl 1-benzyl-4,5,6,7-tetrahydro-1H-benzimidazole-7-carboxylate'
_symmetry_cell_setting           monoclinic
_symmetry_space_group_name_H-M   'P 21/n'
_symmetry_Int_Tables_number      14
_space_group_name_Hall           '-P 2yn'
loop_
_symmetry_equiv_pos_site_id
_symmetry_equiv_pos_as_xyz
1 x,y,z
2 1/2-x,1/2+y,1/2-z
3 -x,-y,-z
4 1/2+x,1/2-y,1/2+z
_cell_length_a                   7.8332(4)
_cell_length_b                   19.6684(9)
_cell_length_c                   9.8075(5)
_cell_angle_alpha                90
_cell_angle_beta                 113.350(1)
_cell_angle_gamma                90
_cell_volume                     1387.26
_exptl_crystal_colour            colorless
_exptl_crystal_description       blocks
_cell_formula_units_Z            4
loop_
_atom_site_label
_atom_site_type_symbol
_atom_site_fract_x
_atom_site_fract_y
_atom_site_fract_z
N1 N 0.24900(11) 0.27762(4) 0.91510(9)
N2 N 0.19068(11) 0.36955(4) 0.77030(9)
O1 O -0.27450(11) 0.23407(4) 0.90825(9)
O2 O -0.01573(10) 0.17671(4) 1.04682(8)
C1 C 0.29447(13) 0.31457(5) 0.81717(10)
H1 H 0.3905 0.3022 0.7859
C2 C 0.07021(13) 0.36776(5) 0.84199(10)
C3 C -0.07016(15) 0.42133(5) 0.83125(12)
H2 H -0.1438 0.4326 0.7257
H3 H -0.0062 0.4631 0.8826
C4 C -0.19911(15) 0.39506(6) 0.90304(13)
H4 H -0.2892 0.3626 0.8346
H5 H -0.2702 0.4337 0.9190
C5 C -0.09149(16) 0.35974(6) 1.05188(12)
H6 H -0.1798 0.3468 1.0968
H7 H -0.0015 0.3924 1.1198
C6 C 0.01478(13) 0.29556(5) 1.03836(10)
H8 H 0.1154 0.2857 1.1378
C7 C 0.10327(12) 0.31173(5) 0.93151(10)
C8 C 0.33313(13) 0.21288(5) 0.97909(10)
H9 H 0.3174 0.2058 1.0734
H10 H 0.4682 0.2150 1.0027
C9 C 0.25130(13) 0.15255(5) 0.87827(10)
C10 C 0.35096(14) 0.09178(5) 0.91174(11)
H11 H 0.4666 0.0896 0.9950
C11 C 0.28273(15) 0.03440(5) 0.82451(11)
H12 H 0.3519 -0.0067 0.8482
C12 C 0.11354(15) 0.03702(5) 0.70270(11)
H13 H 0.0666 -0.0023 0.6433
C13 C 0.01334(14) 0.09731(5) 0.66808(11)
H14 H -0.1022 0.0993 0.5847
C14 C 0.08218(13) 0.15501(5) 0.75561(11)
H15 H 0.0133 0.1962 0.7314
C15 C -0.11149(14) 0.23347(5) 0.98872(11)
C16 C -0.11577(17) 0.11294(6) 1.00411(14)
H16 H -0.1963 0.1072 1.0584
H17 H -0.0268 0.0753 1.0280
H18 H -0.1918 0.1133 0.8971
loop_
_geom_bond_atom_site_label_1
_geom_bond_atom_site_label_2
_geom_bond_site_symmetry_1
_geom_bond_site_symmetry_2
N1 C1 1_555 1_555
N2 C1 1_555 1_555
O1 C15 1_555 1_555
O2 C15 1_555 1_555
C1 H1 1_555 1_555
C2 N2 1_555 1_555
C3 C2 1_555 1_555
H2 C3 1_555 1_555
H3 C3 1_555 1_555
C4 C3 1_555 1_555
H4 C4 1_555 1_555
H5 C4 1_555 1_555
C5 C4 1_555 1_555
H6 C5 1_555 1_555
H7 C5 1_555 1_555
C6 C5 1_555 1_555
H8 C6 1_555 1_555
C7 N1 1_555 1_555
C8 N1 1_555 1_555
H9 C8 1_555 1_555
H10 C8 1_555 1_555
C9 C8 1_555 1_555
C10 C9 1_555 1_555
H11 C10 1_555 1_555
C11 C10 1_555 1_555
H12 C11 1_555 1_555
C12 C11 1_555 1_555
H13 C12 1_555 1_555
C13 C12 1_555 1_555
H14 C13 1_555 1_555
C14 C9 1_555 1_555
H15 C14 1_555 1_555
C15 C6 1_555 1_555
C16 O2 1_555 1_555
H16 C16 1_555 1_555
H17 C16 1_555 1_555
H18 C16 1_555 1_555
C2 C7 1_555 1_555
C6 C7 1_555 1_555
C13 C14 1_555 1_555

#END
