
#######################################################################
#
#                 Cambridge Crystallographic Data Centre
#                                CCDC 
#
#######################################################################
#
# If this CIF has been generated from an entry in the Cambridge 
# Structural Database, then it will include bibliographic, chemical, 
# crystal, experimental, refinement or atomic coordinate data resulting 
# from the CCDC's data processing and validation procedures.
#
#######################################################################

data_NIHBUC03
_chemical_name_common            'Ergosterol peroxide'
_chemical_formula_moiety         'C28 H44 O3'
_chemical_name_systematic        
5-(5,6-dimethylhept-3-en-2-yl)-6,10-dimethyl-16,17-dioxapentacyclo[13.2.2.0^1,9^.0^2,6^.0^10,15^]nonadec-18-en-13-ol
_symmetry_cell_setting           monoclinic
_symmetry_space_group_name_H-M   'P 21'
_symmetry_Int_Tables_number      4
_space_group_name_Hall           'P 2yb'
loop_
_symmetry_equiv_pos_site_id
_symmetry_equiv_pos_as_xyz
1 x,y,z
2 -x,1/2+y,-z
_cell_length_a                   15.56188(8)
_cell_length_b                   10.68884(8)
_cell_length_c                   15.76411(9)
_cell_angle_alpha                90
_cell_angle_beta                 102.0983(5)
_cell_angle_gamma                90
_cell_volume                     2563.94
_exptl_crystal_colour            colorless
_exptl_crystal_description       prism
_cell_formula_units_Z            4
_exptl_crystal_preparation       Fiber
loop_
_atom_site_label
_atom_site_type_symbol
_atom_site_fract_x
_atom_site_fract_y
_atom_site_fract_z
O1 O 0.68246(8) 0.62127(13) 0.50191(9)
O2 O 0.89395(7) 0.67745(12) 0.38811(8)
O3 O 0.98170(7) 0.68378(12) 0.36480(9)
C1 C 0.91234(10) 0.49426(18) 0.52628(9)
H1 H 0.9430 0.4280 0.5650
H2 H 0.9461 0.5727 0.5403
C2 C 0.81995(11) 0.51269(19) 0.54492(10)
H3 H 0.7879 0.4321 0.5378
H4 H 0.8250 0.5408 0.6056
C3 C 0.76901(10) 0.60885(17) 0.48370(11)
H5 H 0.7999 0.6912 0.4943
C4 C 0.76305(10) 0.57189(18) 0.38968(10)
H6 H 0.7314 0.6378 0.3513
H7 H 0.7292 0.4932 0.3774
C5 C 0.85415(10) 0.55367(17) 0.37025(10)
C6 C 0.85440(11) 0.5243(2) 0.27719(10)
H8 H 0.8027 0.5048 0.2354
C7 C 0.93356(11) 0.5282(2) 0.25888(10)
H9 H 0.9442 0.5121 0.2027
C8 C 1.00480(10) 0.56074(16) 0.33578(10)
C9 C 1.00706(9) 0.47142(15) 0.41308(9)
H10 H 1.0427 0.5150 0.4648
C10 C 0.91196(9) 0.45826(15) 0.43147(9)
C11 C 1.05602(11) 0.34977(17) 0.40366(11)
H11 H 1.0211 0.2999 0.3556
H12 H 1.0618 0.3003 0.4577
C12 C 1.14818(11) 0.37358(18) 0.38535(11)
H13 H 1.1853 0.4151 0.4362
H14 H 1.1758 0.2925 0.3767
C13 C 1.14415(10) 0.45550(16) 0.30502(9)
C14 C 1.09746(10) 0.57882(17) 0.32050(11)
H15 H 1.1325 0.6144 0.3757
C15 C 1.11237(13) 0.6666(2) 0.24855(14)
H16 H 1.1102 0.7553 0.2662
H17 H 1.0679 0.6528 0.1945
C16 C 1.20545(12) 0.6307(2) 0.23645(12)
H18 H 1.2473 0.6997 0.2562
H19 H 1.2046 0.6137 0.1745
C17 C 1.23315(10) 0.51131(17) 0.29180(10)
H20 H 1.2667 0.5392 0.3499
C18 C 1.29450(11) 0.42690(19) 0.25190(11)
H21 H 1.2599 0.3930 0.1960
C19 C 1.33018(14) 0.3158(2) 0.31002(15)
H22 H 1.3549 0.3458 0.3688
H23 H 1.3761 0.2736 0.2866
H24 H 1.2824 0.2569 0.3118
C20 C 0.87433(12) 0.32605(18) 0.41420(14)
H25 H 0.9121 0.2664 0.4520
H26 H 0.8718 0.3038 0.3534
H27 H 0.8150 0.3234 0.4261
C21 C 1.09937(11) 0.3834(2) 0.22359(11)
H28 H 1.1350 0.3103 0.2160
H29 H 1.0935 0.4380 0.1728
H30 H 1.0410 0.3558 0.2300
C22 C 1.37094(11) 0.50035(19) 0.23202(11)
H31 H 1.4070 0.5453 0.2781
C23 C 1.39083(11) 0.5060(2) 0.15475(12)
H32 H 1.3527 0.4627 0.1093
C24 C 1.46702(13) 0.5733(2) 0.13070(14)
H33 H 1.5029 0.6122 0.1843
C25 C 1.4317(2) 0.6774(3) 0.06668(19)
H34 H 1.3965 0.6408 0.0136
H35 H 1.4809 0.7243 0.0525
H36 H 1.3949 0.7339 0.0928
C26 C 1.52555(17) 0.4802(3) 0.0941(2)
H37 H 1.4887 0.4387 0.0422
C27 C 1.6014(3) 0.5463(6) 0.0656(4)
H38 H 1.5782 0.6021 0.0168
H39 H 1.6402 0.4840 0.0475
H40 H 1.6347 0.5953 0.1140
C28 C 1.5608(2) 0.3809(5) 0.1589(3)
H41 H 1.5908 0.4200 0.2133
H42 H 1.6024 0.3283 0.1362
H43 H 1.5122 0.3292 0.1697
H44 H 0.6635(16) 0.6931(15) 0.4854(16)
O4 O 0.59512(9) 0.38992(14) 0.46950(10)
O5 O 0.35630(7) 0.39162(12) 0.54913(7)
O6 O 0.28071(7) 0.38186(12) 0.59302(7)
C29 C 0.51383(11) 0.31729(18) 0.67506(12)
H45 H 0.5458 0.2914 0.7335
H46 H 0.4718 0.2499 0.6519
C30 C 0.58002(11) 0.3315(2) 0.61587(13)
H47 H 0.6255 0.3932 0.6415
H48 H 0.6095 0.2503 0.6118
C31 C 0.53484(11) 0.37433(18) 0.52540(12)
H49 H 0.4918 0.3081 0.4997
C32 C 0.48370(11) 0.49460(18) 0.53013(12)
H50 H 0.4504 0.5158 0.4713
H51 H 0.5258 0.5634 0.5497
C33 C 0.41986(10) 0.48596(17) 0.59126(11)
C34 C 0.37008(12) 0.60453(17) 0.59715(12)
H52 H 0.3828 0.6815 0.5722
C35 C 0.30631(10) 0.59082(17) 0.64089(11)
H53 H 0.2701 0.6578 0.6519
C36 C 0.29709(9) 0.45977(15) 0.67108(9)
C37 C 0.38304(9) 0.40922(16) 0.72889(10)
H54 H 0.3770 0.3161 0.7292
C38 C 0.46203(9) 0.43794(17) 0.68347(11)
C39 C 0.39277(10) 0.4514(2) 0.82338(11)
H55 H 0.4033 0.5428 0.8269
H56 H 0.4446 0.4097 0.8594
C40 C 0.31101(10) 0.4210(2) 0.86027(10)
H57 H 0.3029 0.3292 0.8611
H58 H 0.3201 0.4517 0.9207
C41 C 0.22797(9) 0.48191(16) 0.80567(9)
C42 C 0.21907(9) 0.43181(15) 0.71194(9)
H59 H 0.2168 0.3386 0.7166
C43 C 0.12780(9) 0.47169(17) 0.66385(10)
H60 H 0.1049 0.4146 0.6149
H61 H 0.1284 0.5582 0.6416
C44 C 0.07271(9) 0.46280(18) 0.73445(10)
H62 H 0.0292 0.3942 0.7208
H63 H 0.0408 0.5421 0.7378
C45 C 0.13755(9) 0.43671(17) 0.82191(9)
H64 H 0.1412 0.3439 0.8300
C46 C 0.10212(10) 0.49175(19) 0.89811(10)
H65 H 0.0947 0.5840 0.8886
C47 C 0.16284(13) 0.4709(3) 0.98689(11)
H66 H 0.1766 0.3817 0.9947
H67 H 0.1334 0.4994 1.0326
H68 H 0.2173 0.5184 0.9901
C48 C 0.52491(11) 0.5369(2) 0.73239(14)
H69 H 0.5529 0.5045 0.7897
H70 H 0.4919 0.6129 0.7393
H71 H 0.5701 0.5564 0.6995
C49 C 0.23346(11) 0.62500(18) 0.81345(12)
H72 H 0.2358 0.6494 0.8738
H73 H 0.1815 0.6624 0.7761
H74 H 0.2865 0.6545 0.7954
C50 C 0.01279(11) 0.4363(2) 0.89754(11)
H75 H 0.0097 0.3480 0.9033
C51 C -0.06143(12) 0.4994(2) 0.88977(11)
H76 H -0.0581 0.5880 0.8862
C52 C -0.15100(11) 0.4432(2) 0.88602(11)
H77 H -0.1458 0.3515 0.8756
C53 C -0.21658(16) 0.4950(4) 0.80938(18)
H78 H -0.2244 0.5848 0.8177
H79 H -0.2731 0.4521 0.8047
H80 H -0.1948 0.4814 0.7561
C54 C -0.18286(15) 0.4573(2) 0.97199(15)
H81 H -0.2459 0.4311 0.9607
C55 C -0.1780(2) 0.5907(3) 1.0060(2)
H82 H -0.1165 0.6181 1.0197
H83 H -0.2022 0.5940 1.0586
H84 H -0.2120 0.6458 0.9618
C56 C -0.1320(2) 0.3698(4) 1.04020(16)
H85 H -0.1371 0.2839 1.0180
H86 H -0.1561 0.3745 1.0928
H87 H -0.0700 0.3945 1.0539
H88 H 0.6189(17) 0.4623(16) 0.4821(17)
loop_
_geom_bond_atom_site_label_1
_geom_bond_atom_site_label_2
_geom_bond_site_symmetry_1
_geom_bond_site_symmetry_2
O1 C3 1_555 1_555
O2 O3 1_555 1_555
O3 C8 1_555 1_555
C1 H1 1_555 1_555
H2 C1 1_555 1_555
C2 C1 1_555 1_555
H3 C2 1_555 1_555
H4 C2 1_555 1_555
C3 C2 1_555 1_555
H5 C3 1_555 1_555
C4 C3 1_555 1_555
H6 C4 1_555 1_555
H7 C4 1_555 1_555
C5 O2 1_555 1_555
C6 C5 1_555 1_555
H8 C6 1_555 1_555
C7 C6 1_555 1_555
H9 C7 1_555 1_555
C8 C7 1_555 1_555
C9 C8 1_555 1_555
H10 C9 1_555 1_555
C10 C1 1_555 1_555
C11 C9 1_555 1_555
H11 C11 1_555 1_555
H12 C11 1_555 1_555
C12 C11 1_555 1_555
H13 C12 1_555 1_555
H14 C12 1_555 1_555
C13 C12 1_555 1_555
C14 C8 1_555 1_555
H15 C14 1_555 1_555
C15 C14 1_555 1_555
H16 C15 1_555 1_555
H17 C15 1_555 1_555
C16 C15 1_555 1_555
H18 C16 1_555 1_555
H19 C16 1_555 1_555
C17 C13 1_555 1_555
H20 C17 1_555 1_555
C18 C17 1_555 1_555
H21 C18 1_555 1_555
C19 C18 1_555 1_555
H22 C19 1_555 1_555
H23 C19 1_555 1_555
H24 C19 1_555 1_555
C20 C10 1_555 1_555
H25 C20 1_555 1_555
H26 C20 1_555 1_555
H27 C20 1_555 1_555
C21 C13 1_555 1_555
H28 C21 1_555 1_555
H29 C21 1_555 1_555
H30 C21 1_555 1_555
C22 C18 1_555 1_555
H31 C22 1_555 1_555
C23 C22 1_555 1_555
H32 C23 1_555 1_555
C24 C23 1_555 1_555
H33 C24 1_555 1_555
C25 C24 1_555 1_555
H34 C25 1_555 1_555
H35 C25 1_555 1_555
H36 C25 1_555 1_555
C26 C24 1_555 1_555
H37 C26 1_555 1_555
C27 C26 1_555 1_555
H38 C27 1_555 1_555
H39 C27 1_555 1_555
H40 C27 1_555 1_555
C28 C26 1_555 1_555
H41 C28 1_555 1_555
H42 C28 1_555 1_555
H43 C28 1_555 1_555
H44 O1 1_555 1_555
O4 C31 1_555 1_555
O5 O6 1_555 1_555
O6 C36 1_555 1_555
C29 H45 1_555 1_555
H46 C29 1_555 1_555
C30 C29 1_555 1_555
H47 C30 1_555 1_555
H48 C30 1_555 1_555
C31 C30 1_555 1_555
H49 C31 1_555 1_555
C32 C31 1_555 1_555
H50 C32 1_555 1_555
H51 C32 1_555 1_555
C33 O5 1_555 1_555
C34 C33 1_555 1_555
H52 C34 1_555 1_555
C35 C34 1_555 1_555
H53 C35 1_555 1_555
C36 C35 1_555 1_555
C37 C36 1_555 1_555
H54 C37 1_555 1_555
C38 C29 1_555 1_555
C39 C37 1_555 1_555
H55 C39 1_555 1_555
H56 C39 1_555 1_555
C40 C39 1_555 1_555
H57 C40 1_555 1_555
H58 C40 1_555 1_555
C41 C40 1_555 1_555
C42 C36 1_555 1_555
H59 C42 1_555 1_555
C43 C42 1_555 1_555
H60 C43 1_555 1_555
H61 C43 1_555 1_555
C44 C43 1_555 1_555
H62 C44 1_555 1_555
H63 C44 1_555 1_555
C45 C41 1_555 1_555
H64 C45 1_555 1_555
C46 C45 1_555 1_555
H65 C46 1_555 1_555
C47 C46 1_555 1_555
H66 C47 1_555 1_555
H67 C47 1_555 1_555
H68 C47 1_555 1_555
C48 C38 1_555 1_555
H69 C48 1_555 1_555
H70 C48 1_555 1_555
H71 C48 1_555 1_555
C49 C41 1_555 1_555
H72 C49 1_555 1_555
H73 C49 1_555 1_555
H74 C49 1_555 1_555
C50 C46 1_555 1_555
H75 C50 1_555 1_555
C51 C50 1_555 1_555
H76 C51 1_555 1_555
C52 C51 1_555 1_555
H77 C52 1_555 1_555
C53 C52 1_555 1_555
H78 C53 1_555 1_555
H79 C53 1_555 1_555
H80 C53 1_555 1_555
C54 C52 1_555 1_555
H81 C54 1_555 1_555
C55 C54 1_555 1_555
H82 C55 1_555 1_555
H83 C55 1_555 1_555
H84 C55 1_555 1_555
C56 C54 1_555 1_555
H85 C56 1_555 1_555
H86 C56 1_555 1_555
H87 C56 1_555 1_555
H88 O4 1_555 1_555
C4 C5 1_555 1_555
C5 C10 1_555 1_555
C9 C10 1_555 1_555
C13 C14 1_555 1_555
C16 C17 1_555 1_555
C32 C33 1_555 1_555
C33 C38 1_555 1_555
C37 C38 1_555 1_555
C41 C42 1_555 1_555
C44 C45 1_555 1_555

#END
