
#######################################################################
#
#                 Cambridge Crystallographic Data Centre
#                                CCDC 
#
#######################################################################
#
# If this CIF has been generated from an entry in the Cambridge 
# Structural Database, then it will include bibliographic, chemical, 
# crystal, experimental, refinement or atomic coordinate data resulting 
# from the CCDC's data processing and validation procedures.
#
#######################################################################

data_NIHROM
_chemical_formula_moiety         'C34 H23 Cl2 N5 O2,C16 H36 N1 1+,C2 H3 O2 1-'
_chemical_name_systematic        
'Tetra-n-butylammonium 1,8-bis(1-naphthalenyl)ureayl-3,6-dichloro-carbazole acetate'
_symmetry_cell_setting           monoclinic
_symmetry_space_group_name_H-M   'P 21/c'
_symmetry_Int_Tables_number      14
_space_group_name_Hall           '-P 2ybc'
loop_
_symmetry_equiv_pos_site_id
_symmetry_equiv_pos_as_xyz
1 x,y,z
2 -x,1/2+y,1/2-z
3 -x,-y,-z
4 x,1/2-y,1/2+z
_cell_length_a                   11.5481(13)
_cell_length_b                   26.263(3)
_cell_length_c                   32.445(4)
_cell_angle_alpha                90
_cell_angle_beta                 96.146(3)
_cell_angle_gamma                90
_cell_volume                     9783.61
_exptl_crystal_colour            colorless
_exptl_crystal_description       plate
_cell_formula_units_Z            8
_exptl_crystal_recrystallization_method dmso/acetonitrile
loop_
_atom_site_label
_atom_site_type_symbol
_atom_site_fract_x
_atom_site_fract_y
_atom_site_fract_z
Cl1 Cl 0.85861(17) 0.40384(6) -0.09287(5)
Cl2 Cl 0.83632(17) 0.56605(6) 0.13000(5)
N1 N 0.9649(3) 0.18897(15) 0.02737(12)
H1 H 0.9938 0.1938 0.0526
N2 N 0.9716(3) 0.27505(15) 0.02456(12)
H2 H 1.0080 0.2723 0.0490
N3 N 0.9384(3) 0.35802(13) 0.08365(11)
H3 H 0.9560 0.3308 0.0977
N4 N 0.9518(3) 0.38361(14) 0.17257(12)
H4 H 0.9818 0.3557 0.1649
O1 O 0.9168(3) 0.22981(12) -0.03444(10)
O2 O 0.8931(3) 0.42438(13) 0.22847(10)
C1 C 0.9266(4) 0.36162(18) 0.04075(15)
C2 C 0.9391(4) 0.32444(19) 0.01031(16)
C3 C 0.9188(4) 0.33922(19) -0.03056(15)
H5 H 0.9273 0.3160 -0.0516
C4 C 0.8855(5) 0.3890(2) -0.04017(15)
C5 C 0.8729(5) 0.42556(19) -0.01181(17)
H6 H 0.8516 0.4586 -0.0197
C6 C 0.8934(4) 0.41162(18) 0.02988(15)
C7 C 0.8892(4) 0.43922(19) 0.06750(15)
C8 C 0.8627(5) 0.4896(2) 0.07612(17)
H7 H 0.8412 0.5127 0.0550
C9 C 0.8693(5) 0.50373(18) 0.11694(19)
C10 C 0.8983(4) 0.4705(2) 0.14953(16)
H8 H 0.9019 0.4821 0.1767
C11 C 0.9218(4) 0.41977(19) 0.14160(16)
C12 C 0.9174(4) 0.40495(17) 0.10014(15)
C13 C 0.9495(4) 0.2314(2) 0.00231(17)
C14 C 0.9376(4) 0.1387(2) 0.01540(17)
C15 C 0.9465(5) 0.1222(2) -0.02397(18)
H9 H 0.9723 0.1443 -0.0435
C16 C 0.9167(6) 0.0717(2) -0.03508(19)
H10 H 0.9181 0.0611 -0.0624
C17 C 0.8863(6) 0.0389(2) -0.0065(2)
H11 H 0.8707 0.0052 -0.0142
C18 C 0.8773(5) 0.0534(2) 0.0344(2)
C19 C 0.8457(7) 0.0198(2) 0.0649(3)
H12 H 0.8297 -0.0139 0.0577
C20 C 0.8379(6) 0.0339(3) 0.1033(2)
H13 H 0.8189 0.0102 0.1228
C21 C 0.8580(5) 0.0844(3) 0.11483(19)
H14 H 0.8488 0.0947 0.1417
C22 C 0.8910(5) 0.1187(2) 0.08694(19)
H15 H 0.9057 0.1522 0.0952
C23 C 0.9033(4) 0.1045(2) 0.04604(18)
C24 C 0.9382(4) 0.3880(2) 0.21389(17)
C25 C 0.9698(4) 0.3383(2) 0.27853(16)
C26 C 0.9780(4) 0.3772(2) 0.30620(17)
H16 H 0.9896 0.4104 0.2974
C27 C 0.9689(5) 0.3670(3) 0.34852(19)
H17 H 0.9729 0.3938 0.3674
C28 C 0.9545(5) 0.3193(3) 0.3619(2)
H18 H 0.9498 0.3134 0.3899
C29 C 0.9465(5) 0.2786(3) 0.33439(19)
C30 C 0.9303(6) 0.2279(3) 0.3476(2)
H19 H 0.9231 0.2216 0.3754
C31 C 0.9250(8) 0.1889(3) 0.3207(2)
H20 H 0.9189 0.1557 0.3301
C32 C 0.9288(7) 0.1985(3) 0.2787(2)
H21 H 0.9202 0.1718 0.2598
C33 C 0.9449(5) 0.2464(2) 0.26503(19)
H22 H 0.9500 0.2518 0.2370
C34 C 0.9539(5) 0.2875(2) 0.29179(18)
N5 N 0.9798(3) 0.34652(15) 0.23583(12)
H23 H 1.0147 0.3236 0.2229
Cl3 Cl 0.19666(15) 0.41828(6) 0.01239(5)
Cl4 Cl 0.12805(17) 0.56917(6) 0.23810(5)
N6 N 0.3323(3) 0.20206(16) 0.12871(12)
H24 H 0.3546 0.2073 0.1545
N7 N 0.2983(3) 0.28670(15) 0.12801(12)
H25 H 0.3173 0.2827 0.1542
N8 N 0.2611(3) 0.36679(13) 0.18793(12)
H26 H 0.2823 0.3394 0.2012
N9 N 0.2566(3) 0.38721(14) 0.27746(12)
H27 H 0.2678 0.3569 0.2686
N10 N 0.2756(3) 0.34827(15) 0.34025(13)
H28 H 0.2907 0.3221 0.3259
O3 O 0.2884(3) 0.24259(13) 0.06672(11)
O4 O 0.2657(4) 0.43464(13) 0.33669(10)
C35 C 0.2487(4) 0.37242(18) 0.14514(15)
C36 C 0.2652(4) 0.33585(19) 0.11501(16)
C37 C 0.2474(4) 0.35125(18) 0.07408(16)
H29 H 0.2567 0.3283 0.0529
C38 C 0.2155(4) 0.4014(2) 0.06481(15)
C39 C 0.1982(4) 0.43737(18) 0.09407(16)
H30 H 0.1758 0.4705 0.0868
C40 C 0.2159(4) 0.42163(17) 0.13545(16)
C41 C 0.2062(4) 0.44794(18) 0.17385(16)
C42 C 0.1738(4) 0.49730(18) 0.18332(17)
H31 H 0.1556 0.5215 0.1627
C43 C 0.1701(5) 0.50840(18) 0.22406(19)
C44 C 0.1969(4) 0.47421(19) 0.25607(16)
H32 H 0.1923 0.4842 0.2833
C45 C 0.2306(4) 0.42505(18) 0.24743(15)
C46 C 0.2338(4) 0.41240(17) 0.20556(16)
C47 C 0.3041(5) 0.2443(2) 0.10400(18)
C48 C 0.3270(5) 0.1507(2) 0.11479(18)
C49 C 0.2390(5) 0.1353(2) 0.08632(17)
H33 H 0.1840 0.1586 0.0749
C50 C 0.2318(6) 0.0839(3) 0.0743(2)
H34 H 0.1721 0.0733 0.0547
C51 C 0.3119(8) 0.0493(3) 0.0911(2)
H35 H 0.3055 0.0153 0.0831
C52 C 0.4031(7) 0.0645(3) 0.1202(2)
C53 C 0.4886(8) 0.0291(3) 0.1368(3)
H36 H 0.4851 -0.0048 0.1284
C54 C 0.5763(7) 0.0457(4) 0.1653(3)
H37 H 0.6316 0.0224 0.1764
C55 C 0.5863(6) 0.0967(3) 0.1784(2)
H38 H 0.6474 0.1070 0.1976
C56 C 0.5043(6) 0.1311(2) 0.16226(19)
H39 H 0.5100 0.1648 0.1709
C57 C 0.4115(5) 0.1165(2) 0.13284(18)
C58 C 0.2661(4) 0.3940(2) 0.31963(18)
C59 C 0.2632(5) 0.3397(2) 0.38250(18)
C60 C 0.2651(5) 0.3784(2) 0.41022(18)
H40 H 0.2792 0.4116 0.4022
C61 C 0.2451(5) 0.3671(3) 0.45223(19)
H41 H 0.2457 0.3934 0.4715
C62 C 0.2256(5) 0.3191(3) 0.46405(19)
H42 H 0.2111 0.3130 0.4913
C63 C 0.2264(5) 0.2780(3) 0.43677(19)
C64 C 0.2058(5) 0.2283(3) 0.4492(2)
H43 H 0.1913 0.2220 0.4764
C65 C 0.2066(6) 0.1897(3) 0.4226(2)
H44 H 0.1924 0.1567 0.4313
C66 C 0.2287(6) 0.1986(2) 0.3818(2)
H45 H 0.2302 0.1713 0.3636
C67 C 0.2482(5) 0.2464(2) 0.36825(19)
H46 H 0.2628 0.2515 0.3409
C68 C 0.2463(5) 0.2879(2) 0.39525(18)
N11 N 0.5870(5) 0.4938(2) 0.21836(19)
C69 C 0.4933(5) 0.5338(3) 0.2127(2)
H47 H 0.4214 0.5172 0.2018
H48 H 0.4817 0.5470 0.2399
C70 C 0.5120(7) 0.5785(3) 0.1852(3)
H49 H 0.5822 0.5965 0.1958
H50 H 0.5215 0.5666 0.1575
C71 C 0.4101(8) 0.6136(4) 0.1838(3)
H51 H 0.3392 0.5946 0.1757
H52 H 0.4048 0.6275 0.2112
C72 C 0.4205(7) 0.6555(4) 0.1543(3)
H53 H 0.4973 0.6698 0.1587
H54 H 0.3641 0.6814 0.1584
H55 H 0.4068 0.6427 0.1265
C73 C 0.7012(5) 0.5167(2) 0.23795(19)
H56 H 0.7592 0.4899 0.2413
H57 H 0.7275 0.5415 0.2189
C74 C 0.6958(6) 0.5421(3) 0.2795(2)
H58 H 0.6671 0.5181 0.2987
H59 H 0.6422 0.5706 0.2764
C75 C 0.8176(7) 0.5612(3) 0.2970(2)
H60 H 0.8535 0.5786 0.2753
H61 H 0.8096 0.5854 0.3191
C76 C 0.8906(8) 0.5208(3) 0.3126(3)
H62 H 0.9345 0.5311 0.3380
H63 H 0.9430 0.5121 0.2926
H64 H 0.8438 0.4917 0.3176
C77 C 0.5439(6) 0.4525(3) 0.2448(2)
H65 H 0.4697 0.4404 0.2315
H66 H 0.5298 0.4672 0.2712
C78 C 0.6237(7) 0.4078(3) 0.2528(3)
H67 H 0.6493 0.3962 0.2269
H68 H 0.6919 0.4179 0.2711
C79 C 0.5635(8) 0.3658(4) 0.2722(3)
H69 H 0.4890 0.3600 0.2561
H70 H 0.5482 0.3763 0.2997
C80 C 0.6297(8) 0.3168(4) 0.2755(3)
H71 H 0.6443 0.3057 0.2483
H72 H 0.5848 0.2915 0.2880
H73 H 0.7024 0.3218 0.2923
C81 C 0.6129(5) 0.4729(2) 0.1765(2)
H74 H 0.6758 0.4483 0.1810
H75 H 0.6397 0.5006 0.1602
C82 C 0.5087(6) 0.4473(3) 0.1518(2)
H76 H 0.4324 0.4414 0.1615
C83 C 0.5392(19) 0.4540(7) 0.0947(7)
H77 H 0.4724 0.4537 0.0739
H78 H 0.6005 0.4773 0.0889
C84 C 0.570(2) 0.4122(7) 0.1112(7)
H79 H 0.6530 0.4061 0.1155
H80 H 0.5259 0.3826 0.1006
N12 N 0.4152(6) 0.7331(4) 0.4893(2)
C85 C 0.3255(6) 0.7447(3) 0.4531(3)
H81 H 0.2824 0.7748 0.4596
H82 H 0.2708 0.7166 0.4497
C86 C 0.3763(6) 0.7534(3) 0.4118(3)
H83 H 0.4286 0.7824 0.4145
H84 H 0.4209 0.7237 0.4052
C87 C 0.2836(8) 0.7627(4) 0.3783(3)
H85 H 0.2378 0.7915 0.3858
H86 H 0.2327 0.7333 0.3758
C88 C 0.3233(8) 0.7729(4) 0.3375(3)
H87 H 0.3879 0.7961 0.3406
H88 H 0.2608 0.7877 0.3195
H89 H 0.3471 0.7416 0.3257
C89 C 0.4958(7) 0.7777(4) 0.4972(2)
H90 H 0.5363 0.7828 0.4728
H91 H 0.5539 0.7691 0.5200
C90 C 0.4390(8) 0.8283(5) 0.5075(3)
H92 H 0.3859 0.8388 0.4839
H93 H 0.3935 0.8229 0.5306
C91 C 0.5212(10) 0.8692(5) 0.5182(4)
H94 H 0.5653 0.8750 0.4948
H95 H 0.5757 0.8581 0.5412
C92 C 0.4702(10) 0.9180(4) 0.5293(4)
H96 H 0.4218 0.9312 0.5059
H97 H 0.5313 0.9418 0.5376
H98 H 0.4240 0.9127 0.5519
C93 C 0.3474(6) 0.7262(3) 0.5269(3)
H99 H 0.2995 0.6959 0.5228
H100 H 0.2956 0.7550 0.5285
C94 C 0.4246(7) 0.7212(3) 0.5687(3)
H101 H 0.4657 0.7531 0.5741
H102 H 0.4826 0.6952 0.5657
C95 C 0.3616(14) 0.7079(6) 0.6074(5)
H103 H 0.2874 0.7254 0.6067
H104 H 0.4093 0.7166 0.6329
C96 C 0.3447(12) 0.6488(6) 0.6030(4)
H105 H 0.4157 0.6335 0.5963
H106 H 0.2833 0.6417 0.5814
H107 H 0.3245 0.6350 0.6288
C97 C 0.4885(6) 0.6873(4) 0.4812(2)
H108 H 0.5404 0.6804 0.5061
H109 H 0.5366 0.6961 0.4595
C98 C 0.4203(8) 0.6364(5) 0.4680(3)
H110 H 0.3906 0.6411 0.4392
H111 H 0.3528 0.6363 0.4834
C99 C 0.4703(16) 0.5784(9) 0.4711(4)
H112 H 0.4174 0.5537 0.4571
H113 H 0.5474 0.5752 0.4621
C100 C 0.4707(14) 0.5780(7) 0.5096(5)
H114 H 0.3923 0.5810 0.5166
H115 H 0.5164 0.6060 0.5214
H116 H 0.5037 0.5465 0.5205
C101 C 0.0283(4) 0.2455(2) 0.14320(18)
C102 C 0.0547(5) 0.19733(18) 0.16837(15)
H117 H -0.0169 0.1822 0.1747
H118 H 0.1019 0.2056 0.1936
H119 H 0.0958 0.1738 0.1526
O5 O 0.0110(3) 0.24177(12) 0.10508(11)
O6 O 0.0238(3) 0.28559(13) 0.16272(11)
C103 C 0.3104(6) 0.2505(2) 0.2436(2)
C104 C 0.3140(7) 0.1978(2) 0.26173(19)
H120 H 0.2481 0.1929 0.2770
H121 H 0.3845 0.1935 0.2800
H122 H 0.3117 0.1732 0.2398
O7 O 0.3424(4) 0.25497(14) 0.20876(13)
O8 O 0.2735(4) 0.28467(14) 0.26387(13)
loop_
_geom_bond_atom_site_label_1
_geom_bond_atom_site_label_2
_geom_bond_site_symmetry_1
_geom_bond_site_symmetry_2
Cl1 C4 1_555 1_555
Cl2 C9 1_555 1_555
N1 H1 1_555 1_555
N2 H2 1_555 1_555
N3 H3 1_555 1_555
N4 H4 1_555 1_555
O1 C13 1_555 1_555
O2 C24 1_555 1_555
C1 N3 1_555 1_555
C2 N2 1_555 1_555
C3 C2 1_555 1_555
H5 C3 1_555 1_555
C4 C3 1_555 1_555
C5 C4 1_555 1_555
H6 C5 1_555 1_555
C6 C1 1_555 1_555
C7 C6 1_555 1_555
C8 C7 1_555 1_555
H7 C8 1_555 1_555
C9 C8 1_555 1_555
C10 C9 1_555 1_555
H8 C10 1_555 1_555
C11 N4 1_555 1_555
C12 N3 1_555 1_555
C13 N1 1_555 1_555
C14 N1 1_555 1_555
C15 C14 1_555 1_555
H9 C15 1_555 1_555
C16 C15 1_555 1_555
H10 C16 1_555 1_555
C17 C16 1_555 1_555
H11 C17 1_555 1_555
C18 C17 1_555 1_555
C19 C18 1_555 1_555
H12 C19 1_555 1_555
C20 C19 1_555 1_555
H13 C20 1_555 1_555
C21 C20 1_555 1_555
H14 C21 1_555 1_555
C22 C21 1_555 1_555
H15 C22 1_555 1_555
C23 C14 1_555 1_555
C24 N4 1_555 1_555
C25 C26 1_555 1_555
C26 H16 1_555 1_555
C27 C26 1_555 1_555
H17 C27 1_555 1_555
C28 C27 1_555 1_555
H18 C28 1_555 1_555
C29 C28 1_555 1_555
C30 C29 1_555 1_555
H19 C30 1_555 1_555
C31 C30 1_555 1_555
H20 C31 1_555 1_555
C32 C31 1_555 1_555
H21 C32 1_555 1_555
C33 C32 1_555 1_555
H22 C33 1_555 1_555
C34 C25 1_555 1_555
Cl3 C38 1_555 1_555
Cl4 C43 1_555 1_555
N5 C24 1_555 1_555
H23 N5 1_555 1_555
N6 H24 1_555 1_555
N7 H25 1_555 1_555
N8 H26 1_555 1_555
N9 H27 1_555 1_555
N10 H28 1_555 1_555
O3 C47 1_555 1_555
O4 C58 1_555 1_555
C35 N8 1_555 1_555
C36 N7 1_555 1_555
C37 C36 1_555 1_555
H29 C37 1_555 1_555
C38 C37 1_555 1_555
C39 C38 1_555 1_555
H30 C39 1_555 1_555
C40 C35 1_555 1_555
C41 C40 1_555 1_555
C42 C41 1_555 1_555
H31 C42 1_555 1_555
C43 C42 1_555 1_555
C44 C43 1_555 1_555
H32 C44 1_555 1_555
C45 N9 1_555 1_555
C46 N8 1_555 1_555
C47 N6 1_555 1_555
C48 N6 1_555 1_555
C49 C48 1_555 1_555
H33 C49 1_555 1_555
C50 C49 1_555 1_555
H34 C50 1_555 1_555
C51 C50 1_555 1_555
H35 C51 1_555 1_555
C52 C51 1_555 1_555
C53 C52 1_555 1_555
H36 C53 1_555 1_555
C54 C53 1_555 1_555
H37 C54 1_555 1_555
C55 C54 1_555 1_555
H38 C55 1_555 1_555
C56 C55 1_555 1_555
H39 C56 1_555 1_555
C57 C48 1_555 1_555
C58 N9 1_555 1_555
C59 N10 1_555 1_555
C60 C59 1_555 1_555
H40 C60 1_555 1_555
C61 C60 1_555 1_555
H41 C61 1_555 1_555
C62 C61 1_555 1_555
H42 C62 1_555 1_555
C63 C62 1_555 1_555
C64 C63 1_555 1_555
H43 C64 1_555 1_555
C65 C64 1_555 1_555
H44 C65 1_555 1_555
C66 C65 1_555 1_555
H45 C66 1_555 1_555
C67 C66 1_555 1_555
H46 C67 1_555 1_555
C68 C59 1_555 1_555
N11 C69 1_555 1_555
C69 H47 1_555 1_555
H48 C69 1_555 1_555
C70 C69 1_555 1_555
H49 C70 1_555 1_555
H50 C70 1_555 1_555
C71 C70 1_555 1_555
H51 C71 1_555 1_555
H52 C71 1_555 1_555
C72 C71 1_555 1_555
H53 C72 1_555 1_555
H54 C72 1_555 1_555
H55 C72 1_555 1_555
C73 N11 1_555 1_555
H56 C73 1_555 1_555
H57 C73 1_555 1_555
C74 C73 1_555 1_555
H58 C74 1_555 1_555
H59 C74 1_555 1_555
C75 C74 1_555 1_555
H60 C75 1_555 1_555
H61 C75 1_555 1_555
C76 C75 1_555 1_555
H62 C76 1_555 1_555
H63 C76 1_555 1_555
H64 C76 1_555 1_555
C77 N11 1_555 1_555
H65 C77 1_555 1_555
H66 C77 1_555 1_555
C78 C77 1_555 1_555
H67 C78 1_555 1_555
H68 C78 1_555 1_555
C79 C78 1_555 1_555
H69 C79 1_555 1_555
H70 C79 1_555 1_555
C80 C79 1_555 1_555
H71 C80 1_555 1_555
H72 C80 1_555 1_555
H73 C80 1_555 1_555
C81 N11 1_555 1_555
H74 C81 1_555 1_555
H75 C81 1_555 1_555
C82 C81 1_555 1_555
H76 C82 1_555 1_555
C83 H77 1_555 1_555
H78 C83 1_555 1_555
C84 C82 1_555 1_555
H79 C84 1_555 1_555
H80 C84 1_555 1_555
N12 C85 1_555 1_555
C85 H81 1_555 1_555
H82 C85 1_555 1_555
C86 C85 1_555 1_555
H83 C86 1_555 1_555
H84 C86 1_555 1_555
C87 C86 1_555 1_555
H85 C87 1_555 1_555
H86 C87 1_555 1_555
C88 C87 1_555 1_555
H87 C88 1_555 1_555
H88 C88 1_555 1_555
H89 C88 1_555 1_555
C89 N12 1_555 1_555
H90 C89 1_555 1_555
H91 C89 1_555 1_555
C90 C89 1_555 1_555
H92 C90 1_555 1_555
H93 C90 1_555 1_555
C91 C90 1_555 1_555
H94 C91 1_555 1_555
H95 C91 1_555 1_555
C92 C91 1_555 1_555
H96 C92 1_555 1_555
H97 C92 1_555 1_555
H98 C92 1_555 1_555
C93 N12 1_555 1_555
H99 C93 1_555 1_555
H100 C93 1_555 1_555
C94 C93 1_555 1_555
H101 C94 1_555 1_555
H102 C94 1_555 1_555
C95 C94 1_555 1_555
H103 C95 1_555 1_555
H104 C95 1_555 1_555
C96 C95 1_555 1_555
H105 C96 1_555 1_555
H106 C96 1_555 1_555
H107 C96 1_555 1_555
C97 N12 1_555 1_555
H108 C97 1_555 1_555
H109 C97 1_555 1_555
C98 C97 1_555 1_555
H110 C98 1_555 1_555
H111 C98 1_555 1_555
C99 C98 1_555 1_555
H112 C99 1_555 1_555
H113 C99 1_555 1_555
C100 C99 1_555 1_555
H114 C100 1_555 1_555
H115 C100 1_555 1_555
H116 C100 1_555 1_555
C101 C102 1_555 1_555
C102 H117 1_555 1_555
H118 C102 1_555 1_555
H119 C102 1_555 1_555
O5 C101 1_555 1_555
O6 C101 1_555 1_555
C103 C104 1_555 1_555
C104 H120 1_555 1_555
H121 C104 1_555 1_555
H122 C104 1_555 1_555
O7 C103 1_555 1_555
O8 C103 1_555 1_555
N2 C13 1_555 1_555
C1 C2 1_555 1_555
C5 C6 1_555 1_555
C7 C12 1_555 1_555
C10 C11 1_555 1_555
C11 C12 1_555 1_555
C18 C23 1_555 1_555
C22 C23 1_555 1_555
C25 N5 1_555 1_555
C29 C34 1_555 1_555
C33 C34 1_555 1_555
N7 C47 1_555 1_555
N10 C58 1_555 1_555
C35 C36 1_555 1_555
C39 C40 1_555 1_555
C41 C46 1_555 1_555
C44 C45 1_555 1_555
C45 C46 1_555 1_555
C52 C57 1_555 1_555
C56 C57 1_555 1_555
C63 C68 1_555 1_555
C67 C68 1_555 1_555
C83 C84 1_555 1_555

#END
