
#######################################################################
#
#                 Cambridge Crystallographic Data Centre
#                                CCDC 
#
#######################################################################
#
# If this CIF has been generated from an entry in the Cambridge 
# Structural Database, then it will include bibliographic, chemical, 
# crystal, experimental, refinement or atomic coordinate data resulting 
# from the CCDC's data processing and validation procedures.
#
#######################################################################

data_NIHWAE
_chemical_formula_moiety         'C19 H13 N3 O1'
_chemical_name_systematic        
4-(1,3-Benzoxazol-2-yl)-N-(pyridin-4-ylmethylene)aniline
_symmetry_cell_setting           orthorhombic
_symmetry_space_group_name_H-M   'P b c a'
_symmetry_Int_Tables_number      61
_space_group_name_Hall           '-P 2ac 2ab'
loop_
_symmetry_equiv_pos_site_id
_symmetry_equiv_pos_as_xyz
1 x,y,z
2 1/2-x,-y,1/2+z
3 1/2+x,1/2-y,-z
4 -x,1/2+y,1/2-z
5 -x,-y,-z
6 1/2+x,y,1/2-z
7 1/2-x,1/2+y,z
8 x,1/2-y,1/2+z
_cell_length_a                   10.969(5)
_cell_length_b                   7.342(5)
_cell_length_c                   36.533(5)
_cell_angle_alpha                90
_cell_angle_beta                 90
_cell_angle_gamma                90
_cell_volume                     2942.16
_exptl_crystal_colour            yellow
_exptl_crystal_description       needle
_cell_formula_units_Z            8
loop_
_atom_site_label
_atom_site_type_symbol
_atom_site_fract_x
_atom_site_fract_y
_atom_site_fract_z
O1 O 0.47650(10) 0.19273(16) 0.55973(3)
N1 N 0.35148(12) 0.29581(18) 0.38928(3)
C1 C 0.38145(12) 0.16082(19) 0.50050(4)
N2 N 0.29187(11) 0.05981(17) 0.55888(3)
C2 C 0.37090(13) 0.2412(2) 0.42593(4)
C3 C 0.47585(14) 0.2562(2) 0.48358(4)
H1 H 0.5427 0.2935 0.4973
C4 C 0.27810(14) 0.1427(2) 0.44270(4)
H2 H 0.2111 0.1056 0.4290
C5 C 0.37942(13) 0.1319(2) 0.53988(4)
C6 C 0.44473(14) 0.1554(2) 0.59541(4)
C7 C 0.47113(14) 0.2956(2) 0.44674(4)
H3 H 0.5349 0.3586 0.4357
C8 C 0.43771(15) 0.2995(2) 0.36645(4)
H4 H 0.5146 0.2584 0.3732
C9 C 0.33095(14) 0.0736(2) 0.59519(4)
C10 C 0.28418(13) 0.0997(2) 0.47923(4)
H5 H 0.2231 0.0295 0.4898
C11 C 0.50289(18) 0.3418(3) 0.30201(5)
H6 H 0.5754 0.2813 0.3071
C12 C 0.41726(15) 0.3688(2) 0.32906(4)
N3 N 0.37884(18) 0.4958(3) 0.25768(4)
C13 C 0.27554(16) 0.0240(2) 0.62785(4)
H7 H 0.1998 -0.0328 0.6283
C14 C 0.50954(17) 0.1916(2) 0.62695(4)
H8 H 0.5866 0.2444 0.6265
C15 C 0.31200(16) 0.4628(2) 0.31964(4)
H9 H 0.2520 0.4849 0.3371
C16 C 0.45218(18) 0.1440(3) 0.65929(4)
H10 H 0.4913 0.1671 0.6814
C17 C 0.29766(19) 0.5226(3) 0.28433(5)
H11 H 0.2267 0.5858 0.2786
C18 C 0.33808(17) 0.0630(3) 0.65967(4)
H12 H 0.3026 0.0339 0.6820
C19 C 0.4793(2) 0.4062(3) 0.26712(5)
H13 H 0.5375 0.3853 0.2491
loop_
_geom_bond_atom_site_label_1
_geom_bond_atom_site_label_2
_geom_bond_site_symmetry_1
_geom_bond_site_symmetry_2
O1 C5 1_555 1_555
N1 C2 1_555 1_555
C1 C3 1_555 1_555
N2 C5 1_555 1_555
C2 C4 1_555 1_555
C3 H1 1_555 1_555
C4 H2 1_555 1_555
C5 C1 1_555 1_555
C6 O1 1_555 1_555
C7 C2 1_555 1_555
H3 C7 1_555 1_555
C8 N1 1_555 1_555
H4 C8 1_555 1_555
C9 N2 1_555 1_555
C10 C1 1_555 1_555
H5 C10 1_555 1_555
C11 H6 1_555 1_555
C12 C8 1_555 1_555
N3 C17 1_555 1_555
C13 C9 1_555 1_555
H7 C13 1_555 1_555
C14 C6 1_555 1_555
H8 C14 1_555 1_555
C15 C12 1_555 1_555
H9 C15 1_555 1_555
C16 C14 1_555 1_555
H10 C16 1_555 1_555
C17 C15 1_555 1_555
H11 C17 1_555 1_555
C18 C13 1_555 1_555
H12 C18 1_555 1_555
C19 C11 1_555 1_555
H13 C19 1_555 1_555
C3 C7 1_555 1_555
C4 C10 1_555 1_555
C6 C9 1_555 1_555
C11 C12 1_555 1_555
N3 C19 1_555 1_555
C16 C18 1_555 1_555

#END
