
#######################################################################
#
#                 Cambridge Crystallographic Data Centre
#                                CCDC 
#
#######################################################################
#
# If this CIF has been generated from an entry in the Cambridge 
# Structural Database, then it will include bibliographic, chemical, 
# crystal, experimental, refinement or atomic coordinate data resulting 
# from the CCDC's data processing and validation procedures.
#
#######################################################################

data_NIJGIW
_chemical_formula_moiety         'C20 H28 O6'
_chemical_name_systematic        
7-(Ethoxycarbonyl)-2-methyl-1,7-bis(methoxycarbonyl)tricyclo(6.3.1.0^5,12^)dodec-3-ene
_symmetry_cell_setting           monoclinic
_symmetry_space_group_name_H-M   'C 2'
_symmetry_Int_Tables_number      5
_space_group_name_Hall           'C 2y'
loop_
_symmetry_equiv_pos_site_id
_symmetry_equiv_pos_as_xyz
1 x,y,z
2 -x,y,-z
3 1/2+x,1/2+y,z
4 1/2-x,1/2+y,-z
_cell_length_a                   11.301(2)
_cell_length_b                   11.863(3)
_cell_length_c                   29.59(1)
_cell_angle_alpha                90
_cell_angle_beta                 101.02(5)
_cell_angle_gamma                90
_cell_volume                     3893.8
_exptl_crystal_colour            white
_chemical_melting_point          159-161deg.C
_cell_formula_units_Z            8
loop_
_atom_site_label
_atom_site_type_symbol
_atom_site_fract_x
_atom_site_fract_y
_atom_site_fract_z
O1 O 0.0505(5) -0.4500 0.3147(2)
O3 O 0.3292(5) 0.1222(7) 0.4086(2)
O5 O 0.1967(6) 0.0314(8) 0.3542(2)
O6 O 0.3278(7) -0.5111(8) 0.3806(2)
O7 O 0.3074(5) -0.4312(7) 0.3103(2)
O12 O 0.0424(6) -0.2618(8) 0.3045(2)
C2 C 0.2157(7) -0.1694(9) 0.4046(2)
C4 C 0.0892(8) -0.3424(10) 0.3231(3)
C5 C 0.2787(7) -0.0641(9) 0.4265(3)
C7 C 0.2218(8) -0.0264(10) 0.4684(3)
C10 C 0.2677(7) -0.2271(9) 0.3656(3)
C14 C 0.2021(7) -0.3455(9) 0.3618(3)
C15 C 0.2855(8) -0.4395(10) 0.3531(3)
C16 C 0.4155(7) -0.0880(9) 0.4411(3)
C19 C 0.1707(9) -0.2307(11) 0.4805(3)
C21 C 0.2190(7) -0.2676(9) 0.4393(3)
C23 C -0.0553(9) -0.4633(12) 0.2779(3)
C24 C 0.4078(8) -0.2391(9) 0.3790(3)
C26 C 0.1154(9) 0.0573(11) 0.4558(3)
C28 C 0.4685(8) -0.1289(10) 0.3998(3)
C29 C 0.3121(10) 0.2240(10) 0.3809(3)
C30 C 0.2621(8) 0.0328(10) 0.3913(3)
C33 C 0.1555(8) -0.3627(10) 0.4087(3)
C35 C 0.1786(10) -0.1249(12) 0.4944(3)
C38 C 0.3904(10) -0.5170(12) 0.2980(4)
C40 C 0.3919(16) -0.5045(15) 0.2474(6)
O2 O 0.4969(5) -0.1809(7) 0.1897(2)
O4 O 0.2359(6) -0.1998(8) 0.1852(2)
O8 O 0.4472(7) -0.2611(8) 0.1193(2)
O9 O 0.3430(6) 0.2814(8) 0.1458(2)
O10 O 0.4201(5) 0.3721(7) 0.0913(2)
C1 C 0.3525(7) 0.1854(9) 0.0733(3)
O11 O 0.2385(6) -0.0119(8) 0.1955(2)
C3 C 0.2666(8) -0.0926(11) 0.1768(3)
C6 C 0.3401(7) -0.0951(9) 0.1383(3)
C8 C 0.3110(7) 0.0806(9) 0.0953(2)
C9 C 0.2530(8) 0.2244(10) 0.0315(3)
C11 C 0.2468(7) -0.1128(9) 0.0913(3)
C12 C 0.1898(9) 0.0196(10) 0.0193(3)
C13 C 0.4022(7) 0.0229(9) 0.1342(3)
C17 C 0.3707(8) 0.2832(9) 0.1087(3)
C18 C 0.4748(8) 0.1622(9) 0.0588(3)
C20 C 0.4319(8) -0.1901(10) 0.1473(3)
C22 C 0.1667(9) -0.2145(11) 0.2220(3)
C25 C 0.5292(8) 0.0117(10) 0.1210(3)
C27 C 0.2801(7) -0.0174(9) 0.0608(3)
C31 C 0.1600(9) 0.3074(11) 0.0440(3)
C32 C 0.5684(8) 0.1213(10) 0.1000(3)
C34 C 0.1841(9) 0.1257(12) 0.0057(3)
C36 C 0.4309(10) 0.4748(10) 0.1191(4)
C37 C 0.5921(9) -0.2682(12) 0.2016(4)
C39 C 0.6341(13) -0.2552(15) 0.2526(6)
loop_
_geom_bond_atom_site_label_1
_geom_bond_atom_site_label_2
_geom_bond_site_symmetry_1
_geom_bond_site_symmetry_2
O1 C4 1_555 1_555
O2 C20 1_555 1_555
O3 C29 1_555 1_555
O4 C3 1_555 1_555
O5 C30 1_555 1_555
O6 C15 1_555 1_555
O7 C15 1_555 1_555
O8 C20 1_555 1_555
O9 C17 1_555 1_555
O10 C17 1_555 1_555
C1 C8 1_555 1_555
O11 C3 1_555 1_555
O12 C4 1_555 1_555
C2 C5 1_555 1_555
C3 C6 1_555 1_555
C4 C14 1_555 1_555
C5 C7 1_555 1_555
C6 C11 1_555 1_555
C7 C26 1_555 1_555
C8 C13 1_555 1_555
C9 C1 1_555 1_555
C10 C2 1_555 1_555
C11 C27 1_555 1_555
C12 C27 1_555 1_555
C13 C6 1_555 1_555
C14 C10 1_555 1_555
C15 C14 1_555 1_555
C16 C5 1_555 1_555
C17 C1 1_555 1_555
C18 C1 1_555 1_555
C19 C21 1_555 1_555
C20 C6 1_555 1_555
C21 C2 1_555 1_555
C22 O4 1_555 1_555
C23 O1 1_555 1_555
C24 C10 1_555 1_555
C25 C13 1_555 1_555
C27 C8 1_555 1_555
C28 C16 1_555 1_555
C30 O3 1_555 1_555
C31 C9 1_555 1_555
C32 C18 1_555 1_555
C33 C14 1_555 1_555
C34 C9 1_555 1_555
C35 C7 1_555 1_555
C36 O10 1_555 1_555
C37 O2 1_555 1_555
C38 O7 1_555 1_555
C39 C37 1_555 1_555
C40 C38 1_555 1_555
C5 C30 1_555 1_555
C12 C34 1_555 1_555
C19 C35 1_555 1_555
C21 C33 1_555 1_555
C24 C28 1_555 1_555
C25 C32 1_555 1_555

#END
