
#######################################################################
#
#                 Cambridge Crystallographic Data Centre
#                                CCDC 
#
#######################################################################
#
# If this CIF has been generated from an entry in the Cambridge 
# Structural Database, then it will include bibliographic, chemical, 
# crystal, experimental, refinement or atomic coordinate data resulting 
# from the CCDC's data processing and validation procedures.
#
#######################################################################

data_NIJKUN
_chemical_formula_moiety         'C22 H14 N4 S2'
_chemical_name_systematic        5,5'-bis(1-(7-Azaindolyl))-2,2'-bithiophene
_symmetry_cell_setting           monoclinic
_symmetry_space_group_name_H-M   'P 21/c'
_symmetry_Int_Tables_number      14
_space_group_name_Hall           '-P 2ybc'
loop_
_symmetry_equiv_pos_site_id
_symmetry_equiv_pos_as_xyz
1 x,y,z
2 -x,1/2+y,1/2-z
3 -x,-y,-z
4 x,1/2-y,1/2+z
_cell_length_a                   10.8458(9)
_cell_length_b                   6.1379(5)
_cell_length_c                   13.4651(11)
_cell_angle_alpha                90
_cell_angle_beta                 91.511(2)
_cell_angle_gamma                90
_cell_volume                     896.066
_exptl_crystal_colour            'pale yellow'
_exptl_crystal_description       plate
_cell_formula_units_Z            2
_exptl_crystal_recrystallization_method hexane/dichloromethane
loop_
_atom_site_label
_atom_site_type_symbol
_atom_site_fract_x
_atom_site_fract_y
_atom_site_fract_z
S1 S 0.36414(4) 0.10524(7) 0.60794(3)
N1 N 0.28140(13) -0.0737(2) 0.78090(10)
N2 N 0.17227(13) 0.2558(2) 0.73844(11)
C1 C 0.09188(18) 0.3998(3) 0.77426(14)
H1 H 0.0672 0.5149 0.7335
C2 C 0.04277(19) 0.3879(3) 0.86925(14)
H2 H -0.0145 0.4910 0.8890
C3 C 0.07899(18) 0.2236(3) 0.93376(14)
H3 H 0.0489 0.2165 0.9977
C4 C 0.16202(16) 0.0691(3) 0.89999(12)
C5 C 0.22030(17) -0.1230(3) 0.93803(13)
H4 H 0.2117 -0.1812 1.0012
C6 C 0.29027(17) -0.2045(3) 0.86529(13)
H5 H 0.3377 -0.3304 0.8708
C7 C 0.20252(15) 0.0967(3) 0.80146(12)
C8 C 0.35177(15) -0.1014(3) 0.69544(12)
C9 C 0.42435(16) -0.2751(3) 0.67504(12)
H6 H 0.4276 -0.4013 0.7132
C10 C 0.49449(16) -0.2424(3) 0.58904(12)
H7 H 0.5495 -0.3449 0.5652
C11 C 0.47334(15) -0.0453(3) 0.54456(11)
S1B S 0.63586(4) -0.10524(7) 0.39206(3)
N1B N 0.71860(13) 0.0737(2) 0.21910(10)
N2B N 0.82773(13) -0.2558(2) 0.26156(11)
C1B C 0.90812(18) -0.3998(3) 0.22574(14)
H1B H 0.9328 -0.5149 0.2665
C2B C 0.95723(19) -0.3879(3) 0.13075(14)
H2B H 1.0145 -0.4910 0.1110
C3B C 0.92101(18) -0.2236(3) 0.06624(14)
H3B H 0.9511 -0.2165 0.0023
C4B C 0.83798(16) -0.0691(3) 0.10001(12)
C5B C 0.77970(17) 0.1230(3) 0.06197(13)
H4B H 0.7883 0.1812 -0.0012
C6B C 0.70973(17) 0.2045(3) 0.13471(13)
H5B H 0.6623 0.3304 0.1292
C7B C 0.79748(15) -0.0967(3) 0.19854(12)
C8B C 0.64823(15) 0.1014(3) 0.30456(12)
C9B C 0.57565(16) 0.2751(3) 0.32496(12)
H6B H 0.5724 0.4013 0.2868
C10B C 0.50551(16) 0.2424(3) 0.41096(12)
H7B H 0.4505 0.3449 0.4348
C11B C 0.52666(15) 0.0453(3) 0.45544(11)
loop_
_geom_bond_atom_site_label_1
_geom_bond_atom_site_label_2
_geom_bond_site_symmetry_1
_geom_bond_site_symmetry_2
S1 C8 1_555 1_555
N1 C6 1_555 1_555
N2 C1 1_555 1_555
C1 H1 1_555 1_555
C2 C1 1_555 1_555
H2 C2 1_555 1_555
C3 C2 1_555 1_555
H3 C3 1_555 1_555
C4 C3 1_555 1_555
C5 C4 1_555 1_555
H4 C5 1_555 1_555
C6 C5 1_555 1_555
H5 C6 1_555 1_555
C7 N1 1_555 1_555
C8 N1 1_555 1_555
C9 C8 1_555 1_555
H6 C9 1_555 1_555
C10 C9 1_555 1_555
H7 C10 1_555 1_555
C11 S1 1_555 1_555
S1B C8B 1_555 1_555
N1B C6B 1_555 1_555
N2B C1B 1_555 1_555
C1B H1B 1_555 1_555
C2B C1B 1_555 1_555
H2B C2B 1_555 1_555
C3B C2B 1_555 1_555
H3B C3B 1_555 1_555
C4B C3B 1_555 1_555
C5B C4B 1_555 1_555
H4B C5B 1_555 1_555
C6B C5B 1_555 1_555
H5B C6B 1_555 1_555
C7B N1B 1_555 1_555
C8B N1B 1_555 1_555
C9B C8B 1_555 1_555
H6B C9B 1_555 1_555
C10B C9B 1_555 1_555
H7B C10B 1_555 1_555
C11B C11 1_555 1_555
N2 C7 1_555 1_555
C4 C7 1_555 1_555
C10 C11 1_555 1_555
S1B C11B 1_555 1_555
N2B C7B 1_555 1_555
C4B C7B 1_555 1_555
C10B C11B 1_555 1_555

#END
