
#######################################################################
#
#                 Cambridge Crystallographic Data Centre
#                                CCDC 
#
#######################################################################
#
# If this CIF has been generated from an entry in the Cambridge 
# Structural Database, then it will include bibliographic, chemical, 
# crystal, experimental, refinement or atomic coordinate data resulting 
# from the CCDC's data processing and validation procedures.
#
#######################################################################

data_NIJYIQ
_chemical_formula_moiety         'C16 H10 N4 O4,0.5(H2 O1)'
_chemical_name_systematic        
"1',4-Dihydroxy-5,5'-biphthalazine-1,4'(2H,3'H)-dione hemihydrate"
_symmetry_cell_setting           monoclinic
_symmetry_space_group_name_H-M   'P 21/c'
_symmetry_Int_Tables_number      14
_space_group_name_Hall           '-P 2ybc'
loop_
_symmetry_equiv_pos_site_id
_symmetry_equiv_pos_as_xyz
1 x,y,z
2 -x,1/2+y,1/2-z
3 -x,-y,-z
4 x,1/2-y,1/2+z
_cell_length_a                   5.8217(5)
_cell_length_b                   15.0795(9)
_cell_length_c                   16.8686(12)
_cell_angle_alpha                90
_cell_angle_beta                 95.602(5)
_cell_angle_gamma                90
_cell_volume                     1473.79
_exptl_crystal_colour            yellow
_exptl_crystal_description       columnar
_cell_formula_units_Z            4
loop_
_atom_site_label
_atom_site_type_symbol
_atom_site_fract_x
_atom_site_fract_y
_atom_site_fract_z
C1 C 0.6161(7) 0.4753(2) 0.7795(2)
H1 H 0.6223 0.5095 0.8255
C2 C 0.7777(7) 0.4124(3) 0.7714(2)
H2 H 0.9013 0.4062 0.8104
C3 C 0.7601(7) 0.3568(3) 0.7052(2)
H3 H 0.8696 0.3124 0.7017
C4 C 0.5854(6) 0.3657(2) 0.6451(2)
C5 C 0.4260(6) 0.4365(2) 0.64977(18)
C6 C 0.4397(6) 0.4889(2) 0.7184(2)
C7 C 0.2647(7) 0.5566(2) 0.7286(2)
C8 C 0.2477(6) 0.4578(2) 0.5860(2)
C9 C 0.7314(7) 0.3038(2) 0.5236(2)
H4 H 0.8403 0.3491 0.5278
C10 C 0.7344(7) 0.2424(3) 0.4613(2)
H5 H 0.8423 0.2478 0.4244
C11 C 0.5765(7) 0.1740(3) 0.4550(2)
H6 H 0.5759 0.1334 0.4136
C12 C 0.4176(6) 0.1663(2) 0.5114(2)
C13 C 0.4151(6) 0.2277(2) 0.57355(19)
C14 C 0.5730(6) 0.2992(2) 0.57874(19)
C15 C 0.2511(6) 0.2135(2) 0.6330(2)
C16 C 0.2451(7) 0.0964(2) 0.5060(2)
N1 N 0.0955(5) 0.52019(19) 0.59627(18)
N2 N 0.1062(6) 0.5672(2) 0.66673(17)
H7 H 0.0015 0.6066 0.6711
N3 N 0.0951(6) 0.08678(18) 0.55649(17)
N4 N 0.1010(5) 0.14627(18) 0.61829(17)
H8 H -0.0022 0.1399 0.6510
O1 O 0.2386(5) 0.41845(16) 0.51783(14)
H9 H 0.1291 0.4378 0.4886
O2 O 0.2611(5) 0.60217(18) 0.78994(16)
O3 O 0.2436(5) 0.25909(16) 0.69387(16)
O4 O 0.2475(5) 0.04087(17) 0.44463(15)
H10 H 0.1456 0.0037 0.4468
O5 O 0.2231(9) 0.1984(3) 0.8430(2)
loop_
_geom_bond_atom_site_label_1
_geom_bond_atom_site_label_2
_geom_bond_site_symmetry_1
_geom_bond_site_symmetry_2
C1 H1 1_555 1_555
C2 C1 1_555 1_555
H2 C2 1_555 1_555
C3 C2 1_555 1_555
H3 C3 1_555 1_555
C4 C3 1_555 1_555
C5 C4 1_555 1_555
C6 C1 1_555 1_555
C7 C6 1_555 1_555
C8 C5 1_555 1_555
C9 H4 1_555 1_555
C10 C9 1_555 1_555
H5 C10 1_555 1_555
C11 C10 1_555 1_555
H6 C11 1_555 1_555
C12 C11 1_555 1_555
C13 C12 1_555 1_555
C14 C4 1_555 1_555
C15 C13 1_555 1_555
C16 C12 1_555 1_555
N1 C8 1_555 1_555
N2 C7 1_555 1_555
H7 N2 1_555 1_555
N3 C16 1_555 1_555
N4 C15 1_555 1_555
H8 N4 1_555 1_555
O1 C8 1_555 1_555
H9 O1 1_555 1_555
O2 C7 1_555 1_555
O3 C15 1_555 1_555
O4 C16 1_555 1_555
H10 O4 1_555 1_555
C5 C6 1_555 1_555
C9 C14 1_555 1_555
C13 C14 1_555 1_555
N1 N2 1_555 1_555
N3 N4 1_555 1_555

#END
