
#######################################################################
#
#                 Cambridge Crystallographic Data Centre
#                                CCDC 
#
#######################################################################
#
# If this CIF has been generated from an entry in the Cambridge 
# Structural Database, then it will include bibliographic, chemical, 
# crystal, experimental, refinement or atomic coordinate data resulting 
# from the CCDC's data processing and validation procedures.
#
#######################################################################

data_NIKFUL
_chemical_formula_moiety         'C99 H66 O6,C1 H1 Cl3'
_chemical_name_systematic        
'(rac)-Hexaphenyl-2,6-helic[6]arene chloroform unknown solvate'
_symmetry_cell_setting           monoclinic
_symmetry_space_group_name_H-M   'P 21/c'
_symmetry_Int_Tables_number      14
_space_group_name_Hall           '-P 2ybc'
loop_
_symmetry_equiv_pos_site_id
_symmetry_equiv_pos_as_xyz
1 x,y,z
2 -x,1/2+y,1/2-z
3 -x,-y,-z
4 x,1/2-y,1/2+z
_cell_length_a                   24.8710(8)
_cell_length_b                   16.1571(4)
_cell_length_c                   22.4581(7)
_cell_angle_alpha                90
_cell_angle_beta                 108.057(3)
_cell_angle_gamma                90
_cell_volume                     8580.16
_exptl_crystal_colour            colorless
_exptl_crystal_description       block
_cell_formula_units_Z            4
loop_
_atom_site_label
_atom_site_type_symbol
_atom_site_fract_x
_atom_site_fract_y
_atom_site_fract_z
Cl1 Cl 0.27032(6) 0.43848(9) 0.78926(6)
Cl2 Cl 0.22507(6) 0.49120(10) 0.66255(7)
Cl3 Cl 0.33514(5) 0.54324(7) 0.73502(6)
C1 C 0.28475(16) 0.4645(2) 0.72130(18)
H1 H 0.300886 0.415588 0.707458
O1 O 0.43319(11) 0.46607(14) 0.96285(10)
H2 H 0.443182 0.511219 0.953315
O2 O 0.26877(11) 0.22999(13) 0.90717(12)
H3 H 0.239472 0.205854 0.888157
O3 O 0.16046(11) 0.72917(14) 0.73475(11)
H4 H 0.191987 0.749659 0.749385
O4 O 0.04976(10) 0.46496(15) 0.64476(11)
H5 H 0.041667 0.419673 0.627902
O5 O 0.27400(9) 0.29485(14) 0.54589(10)
H6 H 0.285047 0.282245 0.516304
O6 O 0.36666(8) 0.58897(15) 0.57979(11)
H7 H 0.369734 0.629273 0.602819
C2 C 0.42212(14) 0.41370(18) 0.91249(12)
C3 C 0.38911(14) 0.3446(2) 0.91307(16)
C4 C 0.37908(14) 0.2876(2) 0.86488(16)
H8 H 0.356847 0.241344 0.864970
C5 C 0.40181(14) 0.2988(2) 0.81679(16)
C6 C 0.43500(14) 0.3684(2) 0.81577(15)
C7 C 0.44574(14) 0.4276(2) 0.86361(16)
C8 C 0.48306(14) 0.5010(2) 0.86646(15)
C9 C 0.46276(17) 0.5802(2) 0.86871(17)
H9 H 0.425292 0.587983 0.867100
C10 C 0.49796(19) 0.6480(2) 0.87335(17)
H10 H 0.484285 0.701111 0.875702
C11 C 0.55321(19) 0.6369(3) 0.87446(17)
H11 H 0.576697 0.682394 0.876929
C12 C 0.57359(18) 0.5577(3) 0.87190(18)
H12 H 0.610887 0.549859 0.872819
C13 C 0.53894(15) 0.4911(2) 0.86803(16)
H13 H 0.553007 0.438060 0.866412
C14 C 0.45891(14) 0.3664(2) 0.76044(15)
H14 H 0.481871 0.415187 0.759052
C15 C 0.49253(14) 0.2866(2) 0.76891(15)
C16 C 0.54908(15) 0.2779(2) 0.77559(16)
H15 H 0.570974 0.323960 0.773898
C17 C 0.57324(16) 0.1991(2) 0.78495(17)
H16 H 0.611497 0.192772 0.789653
C18 C 0.54099(16) 0.1309(2) 0.78727(17)
H17 H 0.557704 0.078809 0.793697
C19 C 0.48366(15) 0.1388(2) 0.78011(16)
H18 H 0.461955 0.092481 0.781672
C20 C 0.45951(14) 0.2164(2) 0.77069(15)
C21 C 0.39789(14) 0.2379(2) 0.76342(15)
H19 H 0.374860 0.189085 0.764721
C22 C 0.37583(14) 0.28641(19) 0.70287(15)
C23 C 0.41003(13) 0.35470(19) 0.70029(16)
C24 C 0.39948(14) 0.3995(2) 0.64609(16)
H20 H 0.422579 0.444319 0.644763
C25 C 0.35481(14) 0.3794(2) 0.59285(16)
C26 C 0.31958(11) 0.3130(2) 0.59690(13)
C27 C 0.32940(14) 0.2661(2) 0.65176(16)
C28 C 0.28835(15) 0.2000(2) 0.65418(16)
C29 C 0.21735(19) 0.1483(3) 0.6971(2)
H21 H 0.197406 0.153504 0.725766
C30 C 0.2056(2) 0.0837(3) 0.6553(2)
H22 H 0.177962 0.045093 0.655638
C31 C 0.23550(19) 0.0765(2) 0.6125(2)
H23 H 0.228237 0.032544 0.584425
C32 C 0.27603(16) 0.1347(2) 0.61176(18)
H24 H 0.295318 0.130176 0.582438
C33 C 0.25839(16) 0.2054(2) 0.69696(19)
H25 H 0.266177 0.248382 0.725961
C34 C 0.34305(14) 0.4289(2) 0.53250(16)
H26 H 0.377545 0.456237 0.531725
H27 H 0.331577 0.391366 0.497082
C35 C 0.29723(14) 0.4933(2) 0.52597(15)
C36 C 0.24050(15) 0.4742(2) 0.49733(16)
H28 H 0.230646 0.422234 0.479568
C37 C 0.19893(14) 0.5310(2) 0.49492(16)
C38 C 0.21269(14) 0.6104(2) 0.51919(15)
C39 C 0.26882(14) 0.6316(2) 0.54844(16)
C40 C 0.31049(9) 0.5723(2) 0.55132(15)
C41 C 0.28495(15) 0.7145(2) 0.57935(17)
C42 C 0.31561(15) 0.7716(2) 0.5564(2)
H29 H 0.326095 0.758081 0.521288
C43 C 0.33078(16) 0.8476(2) 0.5845(2)
H30 H 0.350693 0.885505 0.568283
C44 C 0.31559(18) 0.8663(3) 0.6377(2)
H31 H 0.325881 0.917080 0.657409
C45 C 0.28547(18) 0.8106(3) 0.6618(2)
H32 H 0.275915 0.823679 0.697532
C46 C 0.26968(16) 0.7353(2) 0.63231(18)
H33 H 0.248731 0.698252 0.647854
C47 C 0.16089(14) 0.6634(2) 0.51332(15)
H34 H 0.170627 0.719763 0.528998
C48 C 0.12368(14) 0.6615(2) 0.44569(17)
C49 C 0.10984(14) 0.5808(2) 0.42314(16)
C50 C 0.13549(14) 0.5156(2) 0.47208(16)
H35 H 0.125906 0.459179 0.456344
C51 C 0.07529(15) 0.5685(2) 0.36276(18)
H36 H 0.065603 0.515148 0.347704
C52 C 0.05475(17) 0.6373(3) 0.3240(2)
H37 H 0.031958 0.629407 0.282958
C53 C 0.06812(17) 0.7158(3) 0.34651(19)
H38 H 0.053714 0.760899 0.320759
C54 C 0.10282(15) 0.7290(2) 0.40713(18)
H39 H 0.112101 0.782526 0.421915
C55 C 0.12829(14) 0.6165(2) 0.54963(16)
C56 C 0.11572(14) 0.5350(2) 0.52843(16)
C57 C 0.08896(14) 0.4814(2) 0.55954(16)
C58 C 0.07453(13) 0.5129(2) 0.61023(15)
C59 C 0.08479(14) 0.5956(2) 0.63022(16)
C60 C 0.11259(13) 0.6457(2) 0.59879(16)
H40 H 0.120643 0.700340 0.611544
C61 C 0.08026(15) 0.3912(2) 0.54464(16)
C62 C 0.02660(17) 0.3586(2) 0.5210(2)
H41 H -0.004496 0.393836 0.510777
C63 C 0.0184(2) 0.2746(3) 0.5121(3)
H42 H -0.018141 0.253533 0.496697
C64 C 0.0632(3) 0.2225(3) 0.5259(3)
H43 H 0.057396 0.165868 0.519939
C65 C 0.1179(2) 0.2536(3) 0.5488(2)
H44 H 0.148738 0.218007 0.558171
C66 C 0.12593(18) 0.3378(2) 0.5575(2)
H45 H 0.162476 0.358839 0.572254
C67 C 0.06658(15) 0.6281(2) 0.68370(16)
H46 H 0.060357 0.687249 0.678214
H47 H 0.030719 0.602788 0.681796
C68 C 0.10754(14) 0.6129(2) 0.74725(17)
C69 C 0.10053(15) 0.5473(2) 0.78403(17)
H48 H 0.070395 0.511096 0.768319
C70 C 0.13721(15) 0.5349(2) 0.84320(16)
C71 C 0.18268(15) 0.5882(2) 0.86793(16)
C72 C 0.19263(14) 0.6531(2) 0.83228(16)
C73 C 0.15424(15) 0.66509(17) 0.77210(15)
C74 C 0.24271(15) 0.7091(2) 0.85453(14)
C75 C 0.2346(4) 0.7906(4) 0.8711(2)
H49 H 0.197918 0.809067 0.865434
C76 C 0.2791(3) 0.8446(5) 0.8955(3)
H50 H 0.272843 0.898536 0.906165
C77 C 0.3338(3) 0.8152(4) 0.90352(19)
H51 H 0.364660 0.849947 0.919854
C78 C 0.342270 0.734539 0.887300
H52 H 0.378753 0.715402 0.892771
C79 C 0.2968(3) 0.6828(4) 0.86312(15)
H53 H 0.302965 0.628814 0.852414
C80 C 0.21704(15) 0.5654(2) 0.93490(16)
H54 H 0.248609 0.603357 0.952981
C81 C 0.23611(15) 0.4758(2) 0.93289(16)
C82 C 0.19153(14) 0.4225(2) 0.90588(16)
C83 C 0.13381(15) 0.4658(2) 0.88848(17)
H55 H 0.102189 0.427832 0.870637
C84 C 0.13027(16) 0.5085(2) 0.94623(17)
C85 C 0.08838(18) 0.4996(2) 0.9750(2)
H56 H 0.058582 0.463053 0.958414
C86 C 0.0909(2) 0.5445(3) 1.0277(2)
H57 H 0.062474 0.539039 1.046304
C87 C 0.1355(2) 0.5978(3) 1.05308(19)
H58 H 0.137459 0.627115 1.089346
C88 C 0.17759(18) 0.6081(2) 1.02481(17)
H59 H 0.207211 0.644902 1.041491
C89 C 0.17479(16) 0.5631(2) 0.97165(17)
C90 C 0.20059(15) 0.3402(2) 0.89550(16)
C91 C 0.25692(15) 0.31117(14) 0.91577(16)
C92 C 0.30185(15) 0.3631(2) 0.94558(15)
C93 C 0.29081(15) 0.4470(2) 0.95337(15)
H60 H 0.320390 0.482944 0.972309
C94 C 0.15366(15) 0.2857(2) 0.85872(18)
C95 C 0.1344(2) 0.2902(3) 0.7940(2)
H61 H 0.151453 0.327129 0.773589
C96 C 0.0906(2) 0.2411(3) 0.7592(2)
H62 H 0.078566 0.244055 0.715708
C97 C 0.06493(18) 0.1881(3) 0.7893(2)
H63 H 0.035556 0.154420 0.766192
C98 C 0.08232(19) 0.1844(3) 0.8537(2)
H64 H 0.063618 0.150118 0.874139
C99 C 0.12753(17) 0.2315(2) 0.8878(2)
H65 H 0.140502 0.226551 0.931192
C100 C 0.36264(15) 0.3320(2) 0.96498(16)
H66 H 0.384702 0.361446 1.002194
H67 H 0.363340 0.273639 0.975193
C101? C 0.2867(3) 0.6959(4) 0.8265(3)
H68? H 0.283709 0.652507 0.798453
C102? C 0.3334(3) 0.7472(3) 0.8408(3)
H69? H 0.361368 0.737524 0.822098
C103? C 0.3398(4) 0.8120(4) 0.8817(3)
H70? H 0.371242 0.846482 0.891358
C104? C 0.2966(4) 0.8233(6) 0.9082(4)
H71? H 0.299789 0.866856 0.936179
C105? C 0.2485(4) 0.7729(4) 0.8951(3)
H72? H 0.220793 0.783211 0.914013
loop_
_geom_bond_atom_site_label_1
_geom_bond_atom_site_label_2
_geom_bond_site_symmetry_1
_geom_bond_site_symmetry_2
Cl1 C1 1_555 1_555
Cl2 C1 1_555 1_555
Cl3 C1 1_555 1_555
C1 H1 1_555 1_555
O1 H2 1_555 1_555
O2 H3 1_555 1_555
O3 H4 1_555 1_555
O4 H5 1_555 1_555
O5 H6 1_555 1_555
O6 H7 1_555 1_555
C2 O1 1_555 1_555
C3 C2 1_555 1_555
C4 C3 1_555 1_555
H8 C4 1_555 1_555
C5 C4 1_555 1_555
C6 C5 1_555 1_555
C7 C2 1_555 1_555
C8 C7 1_555 1_555
C9 C8 1_555 1_555
H9 C9 1_555 1_555
C10 C9 1_555 1_555
H10 C10 1_555 1_555
C11 C10 1_555 1_555
H11 C11 1_555 1_555
C12 C11 1_555 1_555
H12 C12 1_555 1_555
C13 C8 1_555 1_555
H13 C13 1_555 1_555
C14 C6 1_555 1_555
H14 C14 1_555 1_555
C15 C14 1_555 1_555
C16 C15 1_555 1_555
H15 C16 1_555 1_555
C17 C16 1_555 1_555
H16 C17 1_555 1_555
C18 C17 1_555 1_555
H17 C18 1_555 1_555
C19 C18 1_555 1_555
H18 C19 1_555 1_555
C20 C15 1_555 1_555
C21 C5 1_555 1_555
H19 C21 1_555 1_555
C22 C21 1_555 1_555
C23 C14 1_555 1_555
C24 C23 1_555 1_555
H20 C24 1_555 1_555
C25 C24 1_555 1_555
C26 O5 1_555 1_555
C27 C22 1_555 1_555
C28 C27 1_555 1_555
C29 H21 1_555 1_555
C30 C29 1_555 1_555
H22 C30 1_555 1_555
C31 C30 1_555 1_555
H23 C31 1_555 1_555
C32 C28 1_555 1_555
H24 C32 1_555 1_555
C33 C28 1_555 1_555
H25 C33 1_555 1_555
C34 C25 1_555 1_555
H26 C34 1_555 1_555
H27 C34 1_555 1_555
C35 C34 1_555 1_555
C36 C35 1_555 1_555
H28 C36 1_555 1_555
C37 C36 1_555 1_555
C38 C37 1_555 1_555
C39 C38 1_555 1_555
C40 O6 1_555 1_555
C41 C39 1_555 1_555
C42 C41 1_555 1_555
H29 C42 1_555 1_555
C43 C42 1_555 1_555
H30 C43 1_555 1_555
C44 C43 1_555 1_555
H31 C44 1_555 1_555
C45 C44 1_555 1_555
H32 C45 1_555 1_555
C46 C41 1_555 1_555
H33 C46 1_555 1_555
C47 C38 1_555 1_555
H34 C47 1_555 1_555
C48 C47 1_555 1_555
C49 C48 1_555 1_555
C50 C37 1_555 1_555
H35 C50 1_555 1_555
C51 C49 1_555 1_555
H36 C51 1_555 1_555
C52 C51 1_555 1_555
H37 C52 1_555 1_555
C53 C52 1_555 1_555
H38 C53 1_555 1_555
C54 C48 1_555 1_555
H39 C54 1_555 1_555
C55 C47 1_555 1_555
C56 C50 1_555 1_555
C57 C56 1_555 1_555
C58 O4 1_555 1_555
C59 C58 1_555 1_555
C60 C55 1_555 1_555
H40 C60 1_555 1_555
C61 C57 1_555 1_555
C62 C61 1_555 1_555
H41 C62 1_555 1_555
C63 C62 1_555 1_555
H42 C63 1_555 1_555
C64 C63 1_555 1_555
H43 C64 1_555 1_555
C65 C64 1_555 1_555
H44 C65 1_555 1_555
C66 C61 1_555 1_555
H45 C66 1_555 1_555
C67 C59 1_555 1_555
H46 C67 1_555 1_555
H47 C67 1_555 1_555
C68 C67 1_555 1_555
C69 C68 1_555 1_555
H48 C69 1_555 1_555
C70 C69 1_555 1_555
C71 C70 1_555 1_555
C72 C71 1_555 1_555
C73 O3 1_555 1_555
C74 C72 1_555 1_555
C75 C74 1_555 1_555
H49 C75 1_555 1_555
C76 C75 1_555 1_555
H50 C76 1_555 1_555
C77 C76 1_555 1_555
H51 C77 1_555 1_555
C78 C77 1_555 1_555
H52 C78 1_555 1_555
C79 C74 1_555 1_555
H53 C79 1_555 1_555
C80 C71 1_555 1_555
H54 C80 1_555 1_555
C81 C80 1_555 1_555
C82 C81 1_555 1_555
C83 C70 1_555 1_555
H55 C83 1_555 1_555
C84 C83 1_555 1_555
C85 C84 1_555 1_555
H56 C85 1_555 1_555
C86 C85 1_555 1_555
H57 C86 1_555 1_555
C87 C86 1_555 1_555
H58 C87 1_555 1_555
C88 C87 1_555 1_555
H59 C88 1_555 1_555
C89 C80 1_555 1_555
C90 C82 1_555 1_555
C91 O2 1_555 1_555
C92 C91 1_555 1_555
C93 C81 1_555 1_555
H60 C93 1_555 1_555
C94 C90 1_555 1_555
C95 C94 1_555 1_555
H61 C95 1_555 1_555
C96 C95 1_555 1_555
H62 C96 1_555 1_555
C97 C96 1_555 1_555
H63 C97 1_555 1_555
C98 C97 1_555 1_555
H64 C98 1_555 1_555
C99 C94 1_555 1_555
H65 C99 1_555 1_555
C100 C3 1_555 1_555
H66 C100 1_555 1_555
H67 C100 1_555 1_555
C6 C7 1_555 1_555
C12 C13 1_555 1_555
C19 C20 1_555 1_555
C20 C21 1_555 1_555
C22 C23 1_555 1_555
C25 C26 1_555 1_555
C26 C27 1_555 1_555
C29 C33 1_555 1_555
C31 C32 1_555 1_555
C35 C40 1_555 1_555
C39 C40 1_555 1_555
C45 C46 1_555 1_555
C49 C50 1_555 1_555
C53 C54 1_555 1_555
C55 C56 1_555 1_555
C57 C58 1_555 1_555
C59 C60 1_555 1_555
C65 C66 1_555 1_555
C68 C73 1_555 1_555
C72 C73 1_555 1_555
C78 C79 1_555 1_555
C82 C83 1_555 1_555
C84 C89 1_555 1_555
C88 C89 1_555 1_555
C90 C91 1_555 1_555
C92 C93 1_555 1_555
C92 C100 1_555 1_555
C98 C99 1_555 1_555

#END
