
#######################################################################
#
#                 Cambridge Crystallographic Data Centre
#                                CCDC 
#
#######################################################################
#
# If this CIF has been generated from an entry in the Cambridge 
# Structural Database, then it will include bibliographic, chemical, 
# crystal, experimental, refinement or atomic coordinate data resulting 
# from the CCDC's data processing and validation procedures.
#
#######################################################################

data_NIKHAT
_chemical_formula_moiety         'C22 H17 N1 O1'
_chemical_name_systematic        2,3,5-triphenyl-2H-pyrrol-2-ol
_symmetry_cell_setting           orthorhombic
_symmetry_space_group_name_H-M   'P b c a'
_symmetry_Int_Tables_number      61
_space_group_name_Hall           '-P 2ac 2ab'
loop_
_symmetry_equiv_pos_site_id
_symmetry_equiv_pos_as_xyz
1 x,y,z
2 1/2-x,-y,1/2+z
3 1/2+x,1/2-y,-z
4 -x,1/2+y,1/2-z
5 -x,-y,-z
6 1/2+x,y,1/2-z
7 1/2-x,1/2+y,z
8 x,1/2-y,1/2+z
_cell_length_a                   12.6335(3)
_cell_length_b                   14.8587(4)
_cell_length_c                   18.1304(4)
_cell_angle_alpha                90
_cell_angle_beta                 90
_cell_angle_gamma                90
_cell_volume                     3403.39
_cell_formula_units_Z            8
loop_
_atom_site_label
_atom_site_type_symbol
_atom_site_fract_x
_atom_site_fract_y
_atom_site_fract_z
O1 O 0.54245(10) 0.57821(8) 0.92205(7)
H1 H 0.5544(16) 0.5667(15) 0.9725(13)
N1 N 0.43057(10) 0.44957(9) 0.92693(7)
C1 C 0.24824(15) 0.33324(13) 0.96177(10)
H2 H 0.3033 0.3327 0.9958
C2 C 0.15971(16) 0.28123(15) 0.97408(12)
H3 H 0.1559 0.2454 1.0161
C3 C 0.07698(16) 0.28168(15) 0.92498(13)
H4 H 0.0177 0.2460 0.9333
C4 C 0.08266(17) 0.3349(2) 0.86403(14)
H5 H 0.0263 0.3364 0.8310
C5 C 0.17122(16) 0.38667(17) 0.85083(12)
H6 H 0.1741 0.4224 0.8088
C6 C 0.25604(13) 0.38614(11) 0.89940(9)
C7 C 0.35276(13) 0.43783(12) 0.88189(9)
C8 C 0.37240(14) 0.47845(13) 0.80954(9)
H7 H 0.3262 0.4773 0.7696
C9 C 0.46778(14) 0.51755(12) 0.81048(9)
C10 C 0.51578(13) 0.49780(11) 0.88644(8)
C11 C 0.60985(13) 0.43243(11) 0.87955(8)
C12 C 0.70738(14) 0.45275(13) 0.90983(11)
H8 H 0.7166 0.5065 0.9353
C13 C 0.79200(16) 0.39332(16) 0.90249(13)
H9 H 0.8571 0.4075 0.9234
C14 C 0.77999(17) 0.31449(16) 0.86479(13)
H10 H 0.8371 0.2756 0.8589
C15 C 0.68303(18) 0.29308(16) 0.83571(13)
H11 H 0.6742 0.2389 0.8107
C16 C 0.59831(16) 0.35129(13) 0.84324(10)
H12 H 0.5328 0.3356 0.8236
C17 C 0.52118(15) 0.56433(12) 0.74994(9)
C18 C 0.47379(19) 0.56709(17) 0.68040(11)
H13 H 0.4073 0.5416 0.6738
C19 C 0.5241(2) 0.6070(2) 0.62154(13)
H14 H 0.4917 0.6076 0.5755
C20 C 0.6216(2) 0.64591(19) 0.63050(14)
H15 H 0.6554 0.6726 0.5906
C21 C 0.6691(2) 0.64539(18) 0.69851(13)
H16 H 0.7350 0.6722 0.7046
C22 C 0.61948(18) 0.60527(14) 0.75807(11)
H17 H 0.6522 0.6057 0.8040
loop_
_geom_bond_atom_site_label_1
_geom_bond_atom_site_label_2
_geom_bond_site_symmetry_1
_geom_bond_site_symmetry_2
O1 H1 1_555 1_555
N1 C7 1_555 1_555
C1 H2 1_555 1_555
C2 C1 1_555 1_555
H3 C2 1_555 1_555
C3 C2 1_555 1_555
H4 C3 1_555 1_555
C4 C3 1_555 1_555
H5 C4 1_555 1_555
C5 C4 1_555 1_555
H6 C5 1_555 1_555
C6 C1 1_555 1_555
C7 C6 1_555 1_555
C8 C7 1_555 1_555
H7 C8 1_555 1_555
C9 C8 1_555 1_555
C10 O1 1_555 1_555
C11 C10 1_555 1_555
C12 C11 1_555 1_555
H8 C12 1_555 1_555
C13 C12 1_555 1_555
H9 C13 1_555 1_555
C14 C13 1_555 1_555
H10 C14 1_555 1_555
C15 C14 1_555 1_555
H11 C15 1_555 1_555
C16 C11 1_555 1_555
H12 C16 1_555 1_555
C17 C9 1_555 1_555
C18 C17 1_555 1_555
H13 C18 1_555 1_555
C19 C18 1_555 1_555
H14 C19 1_555 1_555
C20 C19 1_555 1_555
H15 C20 1_555 1_555
C21 C20 1_555 1_555
H16 C21 1_555 1_555
C22 C17 1_555 1_555
H17 C22 1_555 1_555
N1 C10 1_555 1_555
C5 C6 1_555 1_555
C9 C10 1_555 1_555
C15 C16 1_555 1_555
C21 C22 1_555 1_555

#END
