
#######################################################################
#
#                 Cambridge Crystallographic Data Centre
#                                CCDC 
#
#######################################################################
#
# If this CIF has been generated from an entry in the Cambridge 
# Structural Database, then it will include bibliographic, chemical, 
# crystal, experimental, refinement or atomic coordinate data resulting 
# from the CCDC's data processing and validation procedures.
#
#######################################################################

data_NIKHEX
_chemical_formula_moiety         'C22 H17 N1 O1'
_chemical_name_systematic        3,3,5-triphenyl-1,3-dihydro-2H-pyrrol-2-one
_symmetry_cell_setting           triclinic
_symmetry_space_group_name_H-M   'P -1'
_symmetry_Int_Tables_number      2
_space_group_name_Hall           '-P 1'
loop_
_symmetry_equiv_pos_site_id
_symmetry_equiv_pos_as_xyz
1 x,y,z
2 -x,-y,-z
_cell_length_a                   8.4725(5)
_cell_length_b                   9.7722(7)
_cell_length_c                   11.4699(9)
_cell_angle_alpha                103.160(6)
_cell_angle_beta                 110.756(7)
_cell_angle_gamma                94.229(5)
_cell_volume                     852.168
_cell_formula_units_Z            2
loop_
_atom_site_label
_atom_site_type_symbol
_atom_site_fract_x
_atom_site_fract_y
_atom_site_fract_z
O1 O 0.65813(14) 0.48833(11) 0.15357(10)
N1 N 0.64165(16) 0.67336(13) 0.05981(12)
H1 H 0.552(2) 0.6333(18) -0.0051(17)
C1 C 0.71196(18) 0.60749(14) 0.15213(13)
C2 C 0.87227(18) 0.71007(15) 0.25639(14)
C3 C 0.87031(19) 0.83468(16) 0.19918(15)
H2 H 0.9501 0.9185 0.2378
C4 C 0.73914(18) 0.80864(15) 0.08593(14)
C5 C 0.69075(19) 0.89385(16) -0.00785(15)
C6 C 0.7918(3) 1.0230(2) 0.0156(2)
H3 H 0.8899 1.0554 0.0909
C7 C 0.7481(3) 1.1041(2) -0.0720(2)
H4 H 0.8176 1.1903 -0.0551
C8 C 0.6044(3) 1.0589(2) -0.1826(2)
H5 H 0.5748 1.1143 -0.2407
C9 C 0.5049(3) 0.9321(2) -0.20699(19)
H6 H 0.4073 0.9004 -0.2827
C10 C 0.5468(2) 0.84931(19) -0.12074(16)
H7 H 0.4771 0.7628 -0.1392
C11 C 0.84553(18) 0.74059(15) 0.38425(14)
C12 C 0.7977(2) 0.86573(16) 0.43431(16)
H8 H 0.7841 0.9363 0.3908
C13 C 0.7698(2) 0.88744(19) 0.54880(18)
H9 H 0.7348 0.9713 0.5800
C14 C 0.7933(3) 0.7875(2) 0.61590(18)
H10 H 0.7785 0.8039 0.6942
C15 C 0.8391(3) 0.6618(2) 0.5665(2)
H11 H 0.8538 0.5922 0.6110
C16 C 0.8635(3) 0.6381(2) 0.45121(18)
H12 H 0.8924 0.5518 0.4182
C17 C 1.0361(2) 0.64819(19) 0.26660(17)
C18 C 1.1826(11) 0.7201(9) 0.3923(7)
H13 H 1.1688 0.7885 0.4574
C19 C 1.3406(8) 0.6783(7) 0.4058(6)
H14 H 1.4351 0.7166 0.4828
C20 C 1.3565(9) 0.5804(8) 0.3054(7)
H15 H 1.4633 0.5564 0.3136
C21 C 1.2197(11) 0.5186(11) 0.1951(8)
H16 H 1.2307 0.4493 0.1292
C22 C 1.0601(14) 0.5603(11) 0.1810(11)
H17 H 0.9678 0.5196 0.1031
C23? C 1.1893(14) 0.6957(11) 0.3443(9)
H18? H 1.2059 0.7766 0.4112
C24? C 1.3356(11) 0.6421(9) 0.3422(9)
H19? H 1.4426 0.6887 0.4035
C25? C 1.3217(12) 0.5197(9) 0.2489(9)
H20? H 1.4184 0.4817 0.2468
C26? C 1.1611(13) 0.4550(15) 0.1588(10)
H21? H 1.1505 0.3721 0.0957
C27? C 1.0176(19) 0.5085(14) 0.1593(14)
H22? H 0.9105 0.4633 0.0973
loop_
_geom_bond_atom_site_label_1
_geom_bond_atom_site_label_2
_geom_bond_site_symmetry_1
_geom_bond_site_symmetry_2
O1 C1 1_555 1_555
N1 H1 1_555 1_555
C1 N1 1_555 1_555
C2 C1 1_555 1_555
C3 C2 1_555 1_555
H2 C3 1_555 1_555
C4 N1 1_555 1_555
C5 C4 1_555 1_555
C6 C5 1_555 1_555
H3 C6 1_555 1_555
C7 C6 1_555 1_555
H4 C7 1_555 1_555
C8 C7 1_555 1_555
H5 C8 1_555 1_555
C9 C8 1_555 1_555
H6 C9 1_555 1_555
C10 C5 1_555 1_555
H7 C10 1_555 1_555
C11 C2 1_555 1_555
C12 C11 1_555 1_555
H8 C12 1_555 1_555
C13 C12 1_555 1_555
H9 C13 1_555 1_555
C14 C13 1_555 1_555
H10 C14 1_555 1_555
C15 C14 1_555 1_555
H11 C15 1_555 1_555
C16 C11 1_555 1_555
H12 C16 1_555 1_555
C17 C2 1_555 1_555
C18 C17 1_555 1_555
H13 C18 1_555 1_555
C19 C18 1_555 1_555
H14 C19 1_555 1_555
C20 C19 1_555 1_555
H15 C20 1_555 1_555
C21 C20 1_555 1_555
H16 C21 1_555 1_555
C22 C17 1_555 1_555
H17 C22 1_555 1_555
C3 C4 1_555 1_555
C9 C10 1_555 1_555
C15 C16 1_555 1_555
C21 C22 1_555 1_555

#END
