
#######################################################################
#
#                 Cambridge Crystallographic Data Centre
#                                CCDC 
#
#######################################################################
#
# If this CIF has been generated from an entry in the Cambridge 
# Structural Database, then it will include bibliographic, chemical, 
# crystal, experimental, refinement or atomic coordinate data resulting 
# from the CCDC's data processing and validation procedures.
#
#######################################################################

data_NIKYUE
_chemical_formula_moiety         'C18 H18 O5 S1'
_chemical_name_systematic        
'methyl 5-[3-(benzyloxy)-3-oxoprop-1-en-1-yl]-2-methyl-4-(methylsulfanyl)furan-3-carboxylate'
_symmetry_cell_setting           monoclinic
_symmetry_space_group_name_H-M   'P 21/c'
_symmetry_Int_Tables_number      14
_space_group_name_Hall           '-P 2ybc'
loop_
_symmetry_equiv_pos_site_id
_symmetry_equiv_pos_as_xyz
1 x,y,z
2 -x,1/2+y,1/2-z
3 -x,-y,-z
4 x,1/2-y,1/2+z
_cell_length_a                   18.2680(14)
_cell_length_b                   8.0504(6)
_cell_length_c                   11.7056(8)
_cell_angle_alpha                90
_cell_angle_beta                 97.173(7)
_cell_angle_gamma                90
_cell_volume                     1708.01
_exptl_crystal_colour            colorless
_exptl_crystal_description       prismatic
_cell_formula_units_Z            4
loop_
_atom_site_label
_atom_site_type_symbol
_atom_site_fract_x
_atom_site_fract_y
_atom_site_fract_z
S1 S 0.31351(3) 0.71216(7) 0.60011(4)
O1 O 0.32964(6) 0.22636(15) 0.58828(10)
O2 O 0.42572(9) 0.6686(2) 0.40962(14)
O3 O 0.44319(8) 0.41900(19) 0.33623(11)
O4 O 0.17252(8) 0.36675(18) 0.90515(11)
O5 O 0.15524(7) 0.09480(16) 0.87539(12)
C1 C 0.37186(9) 0.2635(2) 0.50398(14)
C2 C 0.37418(9) 0.4314(2) 0.48914(14)
C3 C 0.33008(9) 0.5033(2) 0.57004(14)
C4 C 0.30366(9) 0.3734(2) 0.62734(14)
C5 C 0.25660(9) 0.3660(2) 0.71612(14)
H1 H 0.2414 0.4670 0.7436
C6 C 0.23248(9) 0.2303(2) 0.76317(15)
H2 H 0.2461 0.1264 0.7382
C7 C 0.18457(9) 0.2423(2) 0.85426(15)
C8 C 0.10378(10) 0.0952(3) 0.96070(18)
H3 H 0.1232 0.1648 1.0251
H4 H 0.0990 -0.0168 0.9894
C9 C 0.02906(9) 0.1582(2) 0.91182(15)
C10 C -0.00611(11) 0.2784(2) 0.96839(17)
H5 H 0.0176 0.3240 1.0361
C11 C -0.07581(12) 0.3321(3) 0.9265(2)
H6 H -0.0989 0.4128 0.9661
C12 C -0.11099(12) 0.2673(3) 0.8272(2)
H7 H -0.1580 0.3041 0.7986
C13 C -0.07704(12) 0.1482(3) 0.76959(18)
H8 H -0.1010 0.1043 0.7015
C14 C -0.00744(11) 0.0925(3) 0.81162(17)
H9 H 0.0150 0.0103 0.7722
C15 C 0.41602(10) 0.5210(3) 0.40970(15)
C16 C 0.48596(12) 0.4953(3) 0.25421(17)
H10 H 0.4548 0.5678 0.2043
H11 H 0.5057 0.4105 0.2092
H12 H 0.5257 0.5583 0.2947
C17 C 0.40611(11) 0.1199(3) 0.45251(17)
H13 H 0.3959 0.0204 0.4929
H14 H 0.4585 0.1362 0.4583
H15 H 0.3862 0.1098 0.3729
C18 C 0.26267(13) 0.7763(3) 0.4660(2)
H16 H 0.2939 0.7697 0.4061
H17 H 0.2461 0.8886 0.4727
H18 H 0.2208 0.7047 0.4477
loop_
_geom_bond_atom_site_label_1
_geom_bond_atom_site_label_2
_geom_bond_site_symmetry_1
_geom_bond_site_symmetry_2
S1 C3 1_555 1_555
O1 C1 1_555 1_555
O2 C15 1_555 1_555
O3 C15 1_555 1_555
O4 C7 1_555 1_555
O5 C7 1_555 1_555
C1 C2 1_555 1_555
C2 C3 1_555 1_555
C3 C4 1_555 1_555
C4 O1 1_555 1_555
C5 C4 1_555 1_555
H1 C5 1_555 1_555
C6 C5 1_555 1_555
H2 C6 1_555 1_555
C7 C6 1_555 1_555
C8 O5 1_555 1_555
H3 C8 1_555 1_555
H4 C8 1_555 1_555
C9 C8 1_555 1_555
C10 C9 1_555 1_555
H5 C10 1_555 1_555
C11 C10 1_555 1_555
H6 C11 1_555 1_555
C12 C11 1_555 1_555
H7 C12 1_555 1_555
C13 C12 1_555 1_555
H8 C13 1_555 1_555
C14 C9 1_555 1_555
H9 C14 1_555 1_555
C15 C2 1_555 1_555
C16 O3 1_555 1_555
H10 C16 1_555 1_555
H11 C16 1_555 1_555
H12 C16 1_555 1_555
C17 C1 1_555 1_555
H13 C17 1_555 1_555
H14 C17 1_555 1_555
H15 C17 1_555 1_555
C18 S1 1_555 1_555
H16 C18 1_555 1_555
H17 C18 1_555 1_555
H18 C18 1_555 1_555
C13 C14 1_555 1_555

#END
