
#######################################################################
#
#                 Cambridge Crystallographic Data Centre
#                                CCDC 
#
#######################################################################
#
# If this CIF has been generated from an entry in the Cambridge 
# Structural Database, then it will include bibliographic, chemical, 
# crystal, experimental, refinement or atomic coordinate data resulting 
# from the CCDC's data processing and validation procedures.
#
#######################################################################

data_NIKYAK
_chemical_formula_moiety         'C15 H10 O6,1.5(C10 H8 N2)'
_chemical_name_systematic        
"3,5,7-trihydroxy-2-(4-hydroxyphenyl)-4H-1-benzopyran-4-one sesquikis(4,4'-bipyridine)"
_symmetry_cell_setting           triclinic
_symmetry_space_group_name_H-M   'P -1'
_symmetry_Int_Tables_number      2
_space_group_name_Hall           '-P 1'
loop_
_symmetry_equiv_pos_site_id
_symmetry_equiv_pos_as_xyz
1 x,y,z
2 -x,-y,-z
_cell_length_a                   10.242(5)
_cell_length_b                   11.232(5)
_cell_length_c                   12.615(5)
_cell_angle_alpha                65.815(5)
_cell_angle_beta                 86.062(5)
_cell_angle_gamma                80.360(5)
_cell_volume                     1305.14
_exptl_crystal_colour            yellow
_exptl_crystal_description       block
_cell_formula_units_Z            2
loop_
_atom_site_label
_atom_site_type_symbol
_atom_site_fract_x
_atom_site_fract_y
_atom_site_fract_z
O1 O -0.30988(5) 0.04922(5) -0.07324(4)
H1 H -0.3781 0.0163 -0.0552
O2 O -0.49082(5) -0.01168(5) 0.33551(4)
H2 H -0.5053 -0.0268 0.2794
O3 O -0.45331(5) -0.01197(5) 0.12669(4)
O4 O -0.18003(5) 0.15940(5) 0.46810(4)
H3 H -0.1116 0.1919 0.4489
C1 C -0.33504(7) 0.07539(7) 0.40070(6)
H4 H -0.3824 0.0602 0.4694
C2 C 0.02308(7) 0.17749(7) -0.27525(6)
H5 H 0.0183 0.1592 -0.3403
C3 C 0.03720(7) 0.23141(7) -0.08272(6)
H6 H 0.0428 0.2503 -0.0181
O5 O -0.12161(4) 0.15097(4) 0.09758(4)
O6 O 0.21096(5) 0.27690(6) -0.35596(4)
H7 H 0.2652 0.3144 -0.3418
C4 C -0.27060(7) 0.07250(7) 0.01624(6)
C5 C -0.30864(6) 0.06796(6) 0.21069(6)
C6 C -0.15871(6) 0.12655(6) 0.00710(5)
C7 C -0.14688(7) 0.15673(7) 0.27926(6)
H8 H -0.0697 0.1940 0.2671
C8 C -0.35032(6) 0.03898(6) 0.11965(6)
C9 C -0.19404(6) 0.12481(6) 0.19651(5)
C10 C -0.06421(6) 0.16587(6) -0.08901(5)
C11 C 0.12242(7) 0.24226(7) -0.26713(6)
C12 C -0.37880(6) 0.04316(7) 0.31674(6)
C13 C 0.12960(7) 0.26884(7) -0.17069(6)
H9 H 0.1968 0.3121 -0.1647
C14 C -0.06940(7) 0.13950(7) -0.18765(6)
H10 H -0.1359 0.0959 -0.1943
C15 C -0.21867(7) 0.13130(7) 0.38221(6)
N1 N 0.03631(6) 0.28118(6) 0.40533(6)
C16 C 0.27090(8) 0.26838(8) 0.38371(7)
H11 H 0.3523 0.2168 0.3846
C17 C 0.03041(8) 0.40849(8) 0.38459(8)
H12 H -0.0522 0.4572 0.3857
C18 C 0.50024(8) 0.39169(8) 0.40833(8)
H13 H 0.5049 0.3024 0.4562
C19 C 0.13902(8) 0.47120(8) 0.36189(8)
H14 H 0.1290 0.5608 0.3457
C20 C 0.38435(8) 0.46248(7) 0.34738(6)
N2 N 0.60794(7) 0.58234(7) 0.32928(6)
C21 C 0.26462(7) 0.40052(7) 0.36311(6)
C22 C 0.15631(8) 0.21441(8) 0.40268(7)
H15 H 0.1626 0.1263 0.4144
C23 C 0.49944(9) 0.64748(9) 0.27018(9)
H16 H 0.4988 0.7359 0.2208
C24 C 0.60767(8) 0.45457(9) 0.39740(8)
H17 H 0.6839 0.4059 0.4394
C25 C 0.38689(9) 0.59382(8) 0.27637(8)
H18 H 0.3126 0.6456 0.2330
N3 N 0.18994(18) 0.36927(13) 0.06116(14)
C26 C 0.2980(2) 0.29355(19) 0.09092(16)
H19 H 0.2964 0.2031 0.1270
C27 C 0.4169(2) 0.33615(15) 0.07349(15)
H20 H 0.4913 0.2731 0.1034
C28 C 0.3155(2) 0.54791(19) -0.0154(3)
H21 H 0.3101 0.6392 -0.0516
C29 C 0.1975(3) 0.4928(2) 0.0090(3)
H22 H 0.1185 0.5508 -0.0145
C30 C 0.43730(15) 0.47232(12) 0.01191(11)
N3A N 0.81006(18) 0.63073(13) -0.06116(14)
C26A C 0.7020(2) 0.70645(19) -0.09092(16)
H19A H 0.7036 0.7969 -0.1270
C27A C 0.5831(2) 0.66385(15) -0.07349(15)
H20A H 0.5087 0.7269 -0.1034
C28A C 0.6845(2) 0.45209(19) 0.0154(3)
H21A H 0.6899 0.3608 0.0516
C29A C 0.8025(3) 0.5072(2) -0.0090(3)
H22A H 0.8815 0.4492 0.0145
C30A C 0.56270(15) 0.52768(12) -0.01191(11)
loop_
_geom_bond_atom_site_label_1
_geom_bond_atom_site_label_2
_geom_bond_site_symmetry_1
_geom_bond_site_symmetry_2
O1 H1 1_555 1_555
O2 H2 1_555 1_555
O3 C8 1_555 1_555
O4 H3 1_555 1_555
C1 H4 1_555 1_555
C2 H5 1_555 1_555
C3 H6 1_555 1_555
O5 C6 1_555 1_555
O6 H7 1_555 1_555
C4 O1 1_555 1_555
C5 C8 1_555 1_555
C6 C4 1_555 1_555
C7 H8 1_555 1_555
C8 C4 1_555 1_555
C9 O5 1_555 1_555
C10 C3 1_555 1_555
C11 C2 1_555 1_555
C12 O2 1_555 1_555
C13 C3 1_555 1_555
H9 C13 1_555 1_555
C14 C2 1_555 1_555
H10 C14 1_555 1_555
C15 O4 1_555 1_555
N1 C17 1_555 1_555
C16 H11 1_555 1_555
C17 H12 1_555 1_555
C18 H13 1_555 1_555
C19 C17 1_555 1_555
H14 C19 1_555 1_555
C20 C18 1_555 1_555
N2 C23 1_555 1_555
C21 C16 1_555 1_555
C22 N1 1_555 1_555
H15 C22 1_555 1_555
C23 H16 1_555 1_555
C24 C18 1_555 1_555
H17 C24 1_555 1_555
C25 C20 1_555 1_555
H18 C25 1_555 1_555
N3 C26 1_555 1_555
C26 H19 1_555 1_555
C27 C26 1_555 1_555
H20 C27 1_555 1_555
C28 H21 1_555 1_555
C29 N3 1_555 1_555
H22 C29 1_555 1_555
C30 C27 1_555 1_555
N3A C26A 1_555 1_555
C26A H19A 1_555 1_555
C27A C26A 1_555 1_555
H20A C27A 1_555 1_555
C28A H21A 1_555 1_555
C29A N3A 1_555 1_555
H22A C29A 1_555 1_555
C30A C30 1_555 1_555
C1 C12 1_555 1_555
C1 C15 1_555 1_555
O6 C11 1_555 1_555
C5 C9 1_555 1_555
C5 C12 1_555 1_555
C6 C10 1_555 1_555
C7 C9 1_555 1_555
C7 C15 1_555 1_555
C10 C14 1_555 1_555
C11 C13 1_555 1_555
C16 C22 1_555 1_555
C19 C21 1_555 1_555
C20 C21 1_555 1_555
N2 C24 1_555 1_555
C23 C25 1_555 1_555
C28 C29 1_555 1_555
C28 C30 1_555 1_555
C27A C30A 1_555 1_555
C28A C29A 1_555 1_555
C28A C30A 1_555 1_555

#END
