
#######################################################################
#
#                 Cambridge Crystallographic Data Centre
#                                CCDC 
#
#######################################################################
#
# If this CIF has been generated from an entry in the Cambridge 
# Structural Database, then it will include bibliographic, chemical, 
# crystal, experimental, refinement or atomic coordinate data resulting 
# from the CCDC's data processing and validation procedures.
#
#######################################################################

data_NILCUJ
_chemical_formula_moiety         'C58 H56 B2 2-,2(C20 H40 K1 O8 1+),2(C4 H8 O1)'
_chemical_name_systematic        
'bis((18-crown-6)-bis(tetrahydrofuran)-potassium) 1,1-bis(2,4,6-trimethylphenyl)-2-[1,1-bis(2,4,6-trimethylphenyl)naphtho[1,8-bc]borol-1-id-2(1H)-ylidene]-1,2-dihydronaphtho[1,8-bc]borol-1-ide tetrahydrofuran solvate'
_symmetry_cell_setting           monoclinic
_symmetry_space_group_name_H-M   'C 2/c'
_symmetry_Int_Tables_number      15
_space_group_name_Hall           '-C 2yn'
loop_
_symmetry_equiv_pos_site_id
_symmetry_equiv_pos_as_xyz
1 x,y,z
2 -x,y,1/2-z
3 1/2+x,1/2+y,z
4 1/2-x,1/2+y,1/2-z
5 -x,-y,-z
6 x,-y,1/2+z
7 1/2-x,1/2-y,-z
8 1/2+x,1/2-y,1/2+z
_cell_length_a                   39.599(8)
_cell_length_b                   20.6351(15)
_cell_length_c                   24.893(6)
_cell_angle_alpha                90
_cell_angle_beta                 138.58(4)
_cell_angle_gamma                90
_cell_volume                     13456.9
_exptl_crystal_colour            yellow
_exptl_crystal_description       block
_cell_formula_units_Z            4
loop_
_atom_site_label
_atom_site_type_symbol
_atom_site_fract_x
_atom_site_fract_y
_atom_site_fract_z
K1 K -0.27716(4) -0.01241(6) -0.24249(9)
O1 O -0.37079(14) -0.0193(2) -0.2985(3)
O2 O -0.18105(14) 0.0007(2) -0.1785(3)
O3 O -0.36291(14) 0.0537(2) -0.3804(3)
O4 O -0.27748(15) -0.05569(19) -0.1365(3)
O5 O -0.27283(14) 0.04697(19) -0.3364(3)
O6 O -0.19053(14) -0.0733(2) -0.0989(3)
C1 C -0.2402(2) -0.1044(3) -0.0832(4)
H1 H -0.2492 -0.1433 -0.1137
H2 H -0.2388 -0.1152 -0.0436
C2 C -0.3102(2) 0.0963(3) -0.3854(4)
H3 H -0.3101 0.1138 -0.4215
H4 H -0.3024 0.1312 -0.3513
O7 O -0.3024(2) -0.1365(3) -0.2984(4)
C3 C -0.3611(2) 0.0691(3) -0.4336(4)
H5 H -0.3874 0.1005 -0.4737
H6 H -0.3670 0.0304 -0.4620
C4 C -0.1893(2) -0.0801(3) -0.0407(4)
H7 H -0.1820 -0.0386 -0.0154
H8 H -0.1627 -0.1104 0.0012
C5 C -0.3266(2) -0.0785(3) -0.1797(4)
H9 H -0.3264 -0.0901 -0.1417
H10 H -0.3353 -0.1168 -0.2107
C6 C -0.2235(2) 0.0694(3) -0.2908(4)
H11 H -0.2139 0.1046 -0.2555
H12 H -0.2231 0.0856 -0.3269
C7 C -0.1860(2) 0.0141(4) -0.2404(5)
H13 H -0.1985 -0.0239 -0.2742
H14 H -0.1532 0.0261 -0.2164
C8 C -0.3649(2) -0.0268(4) -0.2351(5)
H15 H -0.3973 -0.0387 -0.2576
H16 H -0.3536 0.0136 -0.2057
C9 C -0.4105(2) 0.0307(4) -0.4195(5)
H17 H -0.4174 -0.0114 -0.4436
H18 H -0.4372 0.0603 -0.4625
C10 C -0.1474(2) -0.0520(4) -0.1283(5)
H19 H -0.1144 -0.0435 -0.1052
H20 H -0.1611 -0.0915 -0.1601
C11 C -0.4098(2) 0.0253(4) -0.3596(5)
H21 H -0.4031 0.0673 -0.3356
H22 H -0.4427 0.0101 -0.3859
O8 O -0.2499(3) 0.1134(3) -0.1826(5)
C12 C -0.1419(2) -0.0590(4) -0.0638(5)
H23 H -0.1182 -0.0937 -0.0274
H24 H -0.1287 -0.0192 -0.0326
C13 C -0.2043(5) 0.1186(6) -0.0993(8)
H25 H -0.1859 0.1573 -0.0885
H26 H -0.1828 0.0813 -0.0807
C14 C -0.2678(3) -0.1879(6) -0.2610(6)
H27 H -0.2585 -0.1949 -0.2873
H28 H -0.2370 -0.1778 -0.2043
C15 C -0.3521(4) -0.1642(7) -0.3595(7)
H29 H -0.3669 -0.1605 -0.4127
H30 H -0.3746 -0.1436 -0.3606
C16 C -0.2872(4) 0.1488(6) -0.1988(9)
H31 H -0.3211 0.1316 -0.2457
H32 H -0.2865 0.1942 -0.2079
C17 C -0.2160(10) 0.1221(10) -0.0580(15)
H33 H -0.1954 0.1549 -0.0158
H34 H -0.2100 0.0807 -0.0334
C18 C -0.2716(9) 0.1396(9) -0.1218(16)
H35 H -0.2766 0.1793 -0.1075
H36 H -0.2913 0.1052 -0.1286
C19 C -0.3425(8) -0.2346(9) -0.3334(15)
H37 H -0.3587 -0.2449 -0.3187
H38 H -0.3563 -0.2630 -0.3773
C20 C -0.2903(7) -0.2424(7) -0.2672(9)
H39 H -0.2804 -0.2483 -0.2182
H40 H -0.2796 -0.2803 -0.2746
C21 C 0.45440(19) 0.7956(2) 0.5838(4)
C22 C 0.32036(19) 0.8212(2) 0.5294(3)
C23 C 0.41081(17) 0.7082(2) 0.6545(3)
C24 C 0.2816(2) 0.8674(3) 0.4895(3)
H41 H 0.2479 0.8539 0.4521
C25 C 0.3704(2) 0.7544(3) 0.4758(4)
H42 H 0.3401 0.7399 0.4550
C26 C 0.4948(2) 0.8099(2) 0.6673(4)
C27 C 0.48185(17) 0.7999(2) 0.7088(3)
C28 C 0.38234(19) 0.9037(3) 0.6007(3)
C29 C 0.41033(19) 0.7727(2) 0.5565(4)
C30 C 0.42632(19) 0.5902(3) 0.6721(3)
H43 H 0.4399 0.5548 0.6701
C31 C 0.4596(2) 0.8004(3) 0.5337(4)
C32 C 0.3437(2) 0.9489(3) 0.5604(4)
H44 H 0.3524 0.9926 0.5709
C33 C 0.38301(18) 0.6335(3) 0.6935(3)
H45 H 0.3666 0.6282 0.7067
C34 C 0.3744(2) 0.7572(3) 0.4244(4)
H46 H 0.3473 0.7430 0.3709
C35 C 0.38748(18) 0.6970(3) 0.6775(3)
C36 C 0.37227(18) 0.8361(2) 0.5887(3)
C37 C 0.46316(19) 0.6514(2) 0.6415(3)
H47 H 0.4412 0.6606 0.5854
H48 H 0.4785 0.6096 0.6551
H49 H 0.4894 0.6838 0.6748
C38 C 0.4019(2) 0.5792(3) 0.6904(4)
C39 C 0.2927(2) 0.9322(3) 0.5049(4)
C40 C 0.43215(17) 0.6519(3) 0.6561(3)
C41 C 0.5057(2) 0.8256(3) 0.5679(5)
H50 H 0.5113 0.8267 0.5377
C42 C 0.29904(19) 0.7533(3) 0.4996(4)
H51 H 0.2856 0.7401 0.5178
H52 H 0.3257 0.7241 0.5207
H53 H 0.2722 0.7525 0.4413
C43 C 0.2509(2) 0.9842(3) 0.4636(4)
H54 H 0.2183 0.9635 0.4282
H55 H 0.2503 1.0130 0.4325
H56 H 0.2582 1.0085 0.5043
C44 C 0.43486(19) 0.9319(3) 0.6561(4)
H57 H 0.4486 0.9180 0.6387
H58 H 0.4566 0.9173 0.7106
H59 H 0.4329 0.9783 0.6543
B1 B 0.4166(2) 0.7789(3) 0.6297(4)
C45 C 0.5379(2) 0.8386(3) 0.6976(4)
H60 H 0.5644 0.8517 0.7516
C46 C 0.4174(2) 0.7802(3) 0.4514(4)
H61 H 0.4191 0.7828 0.4163
C47 C 0.36518(19) 0.7479(3) 0.6863(4)
H62 H 0.3845 0.7505 0.7420
H63 H 0.3304 0.7371 0.6530
H64 H 0.3663 0.7890 0.6695
C48 C 0.5415(2) 0.8480(3) 0.6447(5)
H65 H 0.5694 0.8702 0.6642
C49 C 0.3968(2) 0.5129(3) 0.7086(5)
H66 H 0.3735 0.4875 0.6597
H67 H 0.3840 0.5166 0.7294
H68 H 0.4295 0.4921 0.7482
C21A C 0.54560(19) 0.7956(2) 0.9162(4)
C22A C 0.67964(19) 0.8212(2) 0.9706(3)
C23A C 0.58919(17) 0.7082(2) 0.8455(3)
C24A C 0.7184(2) 0.8674(3) 1.0105(3)
H41A H 0.7521 0.8539 1.0479
C25A C 0.6296(2) 0.7544(3) 1.0242(4)
H42A H 0.6599 0.7399 1.0450
C26A C 0.5052(2) 0.8099(2) 0.8327(4)
C27A C 0.51815(17) 0.7999(2) 0.7912(3)
C28A C 0.61766(19) 0.9037(3) 0.8993(3)
C29A C 0.58967(19) 0.7727(2) 0.9435(4)
C30A C 0.57368(19) 0.5902(3) 0.8279(3)
H43A H 0.5601 0.5548 0.8299
C31A C 0.5404(2) 0.8004(3) 0.9663(4)
C32A C 0.6563(2) 0.9489(3) 0.9396(4)
H44A H 0.6476 0.9926 0.9291
C33A C 0.61699(18) 0.6335(3) 0.8065(3)
H45A H 0.6334 0.6282 0.7933
C34A C 0.6256(2) 0.7572(3) 1.0756(4)
H46A H 0.6527 0.7430 1.1291
C35A C 0.61252(18) 0.6970(3) 0.8225(3)
C36A C 0.62773(18) 0.8361(2) 0.9113(3)
C37A C 0.53684(19) 0.6514(2) 0.8585(3)
H47A H 0.5588 0.6606 0.9146
H48A H 0.5215 0.6096 0.8449
H49A H 0.5106 0.6838 0.8252
C38A C 0.5981(2) 0.5792(3) 0.8096(4)
C39A C 0.7073(2) 0.9322(3) 0.9951(4)
C40A C 0.56785(17) 0.6519(3) 0.8439(3)
C41A C 0.4943(2) 0.8256(3) 0.9321(5)
H50A H 0.4887 0.8267 0.9623
C42A C 0.70096(19) 0.7533(3) 1.0004(4)
H51A H 0.7144 0.7401 0.9822
H52A H 0.6743 0.7241 0.9793
H53A H 0.7278 0.7525 1.0587
C43A C 0.7491(2) 0.9842(3) 1.0364(4)
H54A H 0.7817 0.9635 1.0718
H55A H 0.7497 1.0130 1.0675
H56A H 0.7418 1.0085 0.9957
C44A C 0.56514(19) 0.9319(3) 0.8439(4)
H57A H 0.5514 0.9180 0.8613
H58A H 0.5434 0.9173 0.7894
H59A H 0.5671 0.9783 0.8457
B1A B 0.5834(2) 0.7789(3) 0.8703(4)
C45A C 0.4621(2) 0.8386(3) 0.8024(4)
H60A H 0.4356 0.8517 0.7484
C46A C 0.5826(2) 0.7802(3) 1.0486(4)
H61A H 0.5809 0.7828 1.0837
C47A C 0.63482(19) 0.7479(3) 0.8137(4)
H62A H 0.6155 0.7505 0.7580
H63A H 0.6696 0.7371 0.8470
H64A H 0.6337 0.7890 0.8305
C48A C 0.4585(2) 0.8480(3) 0.8553(5)
H65A H 0.4306 0.8702 0.8358
C49A C 0.6032(2) 0.5129(3) 0.7914(5)
H66A H 0.6265 0.4875 0.8403
H67A H 0.6160 0.5166 0.7706
H68A H 0.5705 0.4921 0.7518
C50 C 0.0599(3) -0.0589(6) 0.0962(7)
H69 H 0.0544 -0.0260 0.0625
H70 H 0.0876 -0.0448 0.1523
O9 O 0.0144(5) -0.0665(7) 0.0734(9)
C51 C -0.0064(6) -0.1259(10) 0.0300(13)
H71 H -0.0226 -0.1494 0.0398
H72 H -0.0314 -0.1183 -0.0279
C52 C 0.0728(5) -0.1170(9) 0.0872(12)
H73 H 0.1065 -0.1311 0.1385
H74 H 0.0724 -0.1128 0.0478
C53 C 0.0354(7) -0.1604(7) 0.0599(13)
H75 H 0.0492 -0.1881 0.1043
H76 H 0.0247 -0.1876 0.0174
loop_
_geom_bond_atom_site_label_1
_geom_bond_atom_site_label_2
_geom_bond_site_symmetry_1
_geom_bond_site_symmetry_2
K1 O1 1_555 1_555
O1 C8 1_555 1_555
O2 K1 1_555 1_555
O3 K1 1_555 1_555
O4 K1 1_555 1_555
O5 K1 1_555 1_555
O6 K1 1_555 1_555
C1 O4 1_555 1_555
H1 C1 1_555 1_555
H2 C1 1_555 1_555
C2 O5 1_555 1_555
H3 C2 1_555 1_555
H4 C2 1_555 1_555
O7 K1 1_555 1_555
C3 O3 1_555 1_555
H5 C3 1_555 1_555
H6 C3 1_555 1_555
C4 O6 1_555 1_555
H7 C4 1_555 1_555
H8 C4 1_555 1_555
C5 O4 1_555 1_555
H9 C5 1_555 1_555
H10 C5 1_555 1_555
C6 O5 1_555 1_555
H11 C6 1_555 1_555
H12 C6 1_555 1_555
C7 O2 1_555 1_555
H13 C7 1_555 1_555
H14 C7 1_555 1_555
C8 C5 1_555 1_555
H15 C8 1_555 1_555
H16 C8 1_555 1_555
C9 O3 1_555 1_555
H17 C9 1_555 1_555
H18 C9 1_555 1_555
C10 O2 1_555 1_555
H19 C10 1_555 1_555
H20 C10 1_555 1_555
C11 O1 1_555 1_555
H21 C11 1_555 1_555
H22 C11 1_555 1_555
O8 K1 1_555 1_555
C12 O6 1_555 1_555
H23 C12 1_555 1_555
H24 C12 1_555 1_555
C13 O8 1_555 1_555
H25 C13 1_555 1_555
H26 C13 1_555 1_555
C14 O7 1_555 1_555
H27 C14 1_555 1_555
H28 C14 1_555 1_555
C15 O7 1_555 1_555
H29 C15 1_555 1_555
H30 C15 1_555 1_555
C16 O8 1_555 1_555
H31 C16 1_555 1_555
H32 C16 1_555 1_555
C17 C13 1_555 1_555
H33 C17 1_555 1_555
H34 C17 1_555 1_555
C18 C16 1_555 1_555
H35 C18 1_555 1_555
H36 C18 1_555 1_555
C19 C15 1_555 1_555
H37 C19 1_555 1_555
H38 C19 1_555 1_555
C20 C14 1_555 1_555
H39 C20 1_555 1_555
H40 C20 1_555 1_555
C21 C26 1_555 1_555
C22 C24 1_555 1_555
C23 C35 1_555 1_555
C24 H41 1_555 1_555
C25 H42 1_555 1_555
C26 C27 1_555 1_555
C27 B1 1_555 1_555
C28 C32 1_555 1_555
C29 C21 1_555 1_555
C30 H43 1_555 1_555
C31 C21 1_555 1_555
C32 H44 1_555 1_555
C33 H45 1_555 1_555
C34 C25 1_555 1_555
H46 C34 1_555 1_555
C35 C33 1_555 1_555
C36 C22 1_555 1_555
C37 H47 1_555 1_555
H48 C37 1_555 1_555
H49 C37 1_555 1_555
C38 C30 1_555 1_555
C39 C24 1_555 1_555
C40 C23 1_555 1_555
C41 C31 1_555 1_555
H50 C41 1_555 1_555
C42 C22 1_555 1_555
H51 C42 1_555 1_555
H52 C42 1_555 1_555
H53 C42 1_555 1_555
C43 C39 1_555 1_555
H54 C43 1_555 1_555
H55 C43 1_555 1_555
H56 C43 1_555 1_555
C44 C28 1_555 1_555
H57 C44 1_555 1_555
H58 C44 1_555 1_555
H59 C44 1_555 1_555
B1 C23 1_555 1_555
C45 C26 1_555 1_555
H60 C45 1_555 1_555
C46 C31 1_555 1_555
H61 C46 1_555 1_555
C47 C35 1_555 1_555
H62 C47 1_555 1_555
H63 C47 1_555 1_555
H64 C47 1_555 1_555
C48 C41 1_555 1_555
H65 C48 1_555 1_555
C49 C38 1_555 1_555
H66 C49 1_555 1_555
H67 C49 1_555 1_555
H68 C49 1_555 1_555
C50 H69 1_555 1_555
H70 C50 1_555 1_555
O9 C50 1_555 1_555
C51 O9 1_555 1_555
H71 C51 1_555 1_555
H72 C51 1_555 1_555
C52 C50 1_555 1_555
H73 C52 1_555 1_555
H74 C52 1_555 1_555
C53 C51 1_555 1_555
H75 C53 1_555 1_555
H76 C53 1_555 1_555
C21A C26A 1_555 1_555
C22A C24A 1_555 1_555
C23A C35A 1_555 1_555
C24A H41A 1_555 1_555
C25A H42A 1_555 1_555
C26A C27A 1_555 1_555
C27A C27 1_555 1_555
C28A C32A 1_555 1_555
C29A C21A 1_555 1_555
C30A H43A 1_555 1_555
C31A C21A 1_555 1_555
C32A H44A 1_555 1_555
C33A H45A 1_555 1_555
C34A C25A 1_555 1_555
H46A C34A 1_555 1_555
C35A C33A 1_555 1_555
C36A C22A 1_555 1_555
C37A H47A 1_555 1_555
H48A C37A 1_555 1_555
H49A C37A 1_555 1_555
C38A C30A 1_555 1_555
C39A C24A 1_555 1_555
C40A C23A 1_555 1_555
C41A C31A 1_555 1_555
H50A C41A 1_555 1_555
C42A C22A 1_555 1_555
H51A C42A 1_555 1_555
H52A C42A 1_555 1_555
H53A C42A 1_555 1_555
C43A C39A 1_555 1_555
H54A C43A 1_555 1_555
H55A C43A 1_555 1_555
H56A C43A 1_555 1_555
C44A C28A 1_555 1_555
H57A C44A 1_555 1_555
H58A C44A 1_555 1_555
H59A C44A 1_555 1_555
B1A C23A 1_555 1_555
C45A C26A 1_555 1_555
H60A C45A 1_555 1_555
C46A C31A 1_555 1_555
H61A C46A 1_555 1_555
C47A C35A 1_555 1_555
H62A C47A 1_555 1_555
H63A C47A 1_555 1_555
H64A C47A 1_555 1_555
C48A C41A 1_555 1_555
H65A C48A 1_555 1_555
C49A C38A 1_555 1_555
H66A C49A 1_555 1_555
H67A C49A 1_555 1_555
H68A C49A 1_555 1_555
C1 C4 1_555 1_555
C2 C3 1_555 1_555
C6 C7 1_555 1_555
C9 C11 1_555 1_555
C10 C12 1_555 1_555
C17 C18 1_555 1_555
C19 C20 1_555 1_555
C25 C29 1_555 1_555
C28 C36 1_555 1_555
C29 B1 1_555 1_555
C30 C40 1_555 1_555
C32 C39 1_555 1_555
C33 C38 1_555 1_555
C34 C46 1_555 1_555
C36 B1 1_555 1_555
C37 C40 1_555 1_555
C45 C48 1_555 1_555
C52 C53 1_555 1_555
C25A C29A 1_555 1_555
C27A B1A 1_555 1_555
C28A C36A 1_555 1_555
C29A B1A 1_555 1_555
C30A C40A 1_555 1_555
C32A C39A 1_555 1_555
C33A C38A 1_555 1_555
C34A C46A 1_555 1_555
C36A B1A 1_555 1_555
C37A C40A 1_555 1_555
C45A C48A 1_555 1_555

#END
