
#######################################################################
#
#                 Cambridge Crystallographic Data Centre
#                                CCDC 
#
#######################################################################
#
# If this CIF has been generated from an entry in the Cambridge 
# Structural Database, then it will include bibliographic, chemical, 
# crystal, experimental, refinement or atomic coordinate data resulting 
# from the CCDC's data processing and validation procedures.
#
#######################################################################

data_NILDAQ
_chemical_formula_moiety         'C50 H52 B2'
_chemical_name_systematic        
'[ethyne-1,2-diylbis(2,1-phenylene)]bis[bis(2,4,6-trimethylphenyl)borane]'
_symmetry_cell_setting           triclinic
_symmetry_space_group_name_H-M   'P -1'
_symmetry_Int_Tables_number      2
_space_group_name_Hall           '-P 1'
loop_
_symmetry_equiv_pos_site_id
_symmetry_equiv_pos_as_xyz
1 x,y,z
2 -x,-y,-z
_cell_length_a                   8.2684(17)
_cell_length_b                   10.812(2)
_cell_length_c                   12.554(3)
_cell_angle_alpha                65.52(2)
_cell_angle_beta                 80.973(19)
_cell_angle_gamma                75.585(18)
_cell_volume                     987.417
_exptl_crystal_colour            colorless
_exptl_crystal_description       block
_cell_formula_units_Z            1
loop_
_atom_site_label
_atom_site_type_symbol
_atom_site_fract_x
_atom_site_fract_y
_atom_site_fract_z
C1 C 0.5007(4) 0.5104(4) 0.0427(3)
C2 C 0.4739(4) 0.5509(4) 0.1403(3)
C3 C 0.3517(4) 0.6705(4) 0.1298(3)
H1 H 0.2941 0.7209 0.0597
C4 C 0.3144(4) 0.7157(4) 0.2203(3)
H2 H 0.2295 0.7957 0.2131
C5 C 0.3998(4) 0.6453(4) 0.3208(3)
H3 H 0.3740 0.6761 0.3834
C6 C 0.5645(4) 0.4770(3) 0.2417(3)
C7 C 0.5227(4) 0.5300(4) 0.3302(3)
H4 H 0.5825 0.4838 0.3995
C8 C 0.8423(4) 0.3225(3) 0.3484(3)
C9 C 0.8589(4) 0.2123(3) 0.4598(3)
C10 C 0.9777(4) 0.2024(4) 0.5318(3)
H5 H 0.9883 0.1279 0.6066
C11 C 1.0812(4) 0.2971(4) 0.4986(3)
C12 C 1.0641(4) 0.4034(4) 0.3903(3)
H6 H 1.1335 0.4696 0.3659
C13 C 0.9477(4) 0.4173(3) 0.3149(3)
C14 C 0.9457(5) 0.5341(4) 0.1944(3)
H7 H 1.0342 0.5056 0.1425
H8 H 0.9646 0.6168 0.2006
H9 H 0.8369 0.5556 0.1621
C15 C 0.7477(5) 0.1082(4) 0.5039(3)
H10 H 0.6308 0.1559 0.5078
H11 H 0.7785 0.0399 0.5822
H12 H 0.7612 0.0608 0.4503
C16 C 1.2102(5) 0.2809(5) 0.5786(4)
H13 H 1.2760 0.1857 0.6056
H14 H 1.1539 0.3004 0.6464
H15 H 1.2844 0.3461 0.5359
C17 C 0.7031(4) 0.2268(3) 0.2192(3)
C18 C 0.5571(4) 0.1764(3) 0.2284(3)
C19 C 0.5603(4) 0.0736(4) 0.1893(3)
H16 H 0.4605 0.0413 0.1971
C20 C 0.7045(5) 0.0158(3) 0.1391(3)
C21 C 0.8474(4) 0.0628(4) 0.1313(3)
H17 H 0.9473 0.0242 0.0975
C22 C 0.8521(4) 0.1644(4) 0.1707(3)
C23 C 1.0163(4) 0.2086(4) 0.1558(4)
H18 H 1.0035 0.3075 0.1049
H19 H 1.1022 0.1542 0.1203
H20 H 1.0498 0.1930 0.2326
C24 C 0.7017(5) -0.0914(4) 0.0923(4)
H21 H 0.6279 -0.1532 0.1440
H22 H 0.8152 -0.1457 0.0890
H23 H 0.6602 -0.0448 0.0133
C25 C 0.3943(4) 0.2289(4) 0.2846(4)
H24 H 0.4175 0.2438 0.3521
H25 H 0.3231 0.1603 0.3108
H26 H 0.3369 0.3167 0.2274
B1 B 0.7034(5) 0.3412(4) 0.2656(3)
C1A C 0.4993(4) 0.4896(4) -0.0427(3)
C2A C 0.5261(4) 0.4491(4) -0.1403(3)
C3A C 0.6483(4) 0.3295(4) -0.1298(3)
H1A H 0.7059 0.2791 -0.0597
C4A C 0.6856(4) 0.2843(4) -0.2203(3)
H2A H 0.7705 0.2043 -0.2131
C5A C 0.6002(4) 0.3547(4) -0.3208(3)
H3A H 0.6260 0.3239 -0.3834
C6A C 0.4355(4) 0.5230(3) -0.2417(3)
C7A C 0.4773(4) 0.4700(4) -0.3302(3)
H4A H 0.4175 0.5162 -0.3995
C8A C 0.1577(4) 0.6775(3) -0.3484(3)
C9A C 0.1411(4) 0.7877(3) -0.4598(3)
C10A C 0.0223(4) 0.7976(4) -0.5318(3)
H5A H 0.0117 0.8721 -0.6066
C11A C -0.0812(4) 0.7029(4) -0.4986(3)
C12A C -0.0641(4) 0.5966(4) -0.3903(3)
H6A H -0.1335 0.5304 -0.3659
C13A C 0.0523(4) 0.5827(3) -0.3149(3)
C14A C 0.0543(5) 0.4659(4) -0.1944(3)
H7A H -0.0342 0.4944 -0.1425
H8A H 0.0354 0.3832 -0.2006
H9A H 0.1631 0.4444 -0.1621
C15A C 0.2523(5) 0.8918(4) -0.5039(3)
H10A H 0.3692 0.8441 -0.5078
H11A H 0.2215 0.9601 -0.5822
H12A H 0.2388 0.9392 -0.4503
C16A C -0.2102(5) 0.7191(5) -0.5786(4)
H13A H -0.2760 0.8143 -0.6056
H14A H -0.1539 0.6996 -0.6464
H15A H -0.2844 0.6539 -0.5359
C17A C 0.2969(4) 0.7732(3) -0.2192(3)
C18A C 0.4429(4) 0.8236(3) -0.2284(3)
C19A C 0.4397(4) 0.9264(4) -0.1893(3)
H16A H 0.5395 0.9587 -0.1971
C20A C 0.2955(5) 0.9842(3) -0.1391(3)
C21A C 0.1526(4) 0.9372(4) -0.1313(3)
H17A H 0.0527 0.9758 -0.0975
C22A C 0.1479(4) 0.8356(4) -0.1707(3)
C23A C -0.0163(4) 0.7914(4) -0.1558(4)
H18A H -0.0035 0.6925 -0.1049
H19A H -0.1022 0.8458 -0.1203
H20A H -0.0498 0.8070 -0.2326
C24A C 0.2983(5) 1.0914(4) -0.0923(4)
H21A H 0.3721 1.1532 -0.1440
H22A H 0.1848 1.1457 -0.0890
H23A H 0.3398 1.0448 -0.0133
C25A C 0.6057(4) 0.7711(4) -0.2846(4)
H24A H 0.5825 0.7562 -0.3521
H25A H 0.6769 0.8397 -0.3108
H26A H 0.6631 0.6833 -0.2274
B1A B 0.2966(5) 0.6588(4) -0.2656(3)
loop_
_geom_bond_atom_site_label_1
_geom_bond_atom_site_label_2
_geom_bond_site_symmetry_1
_geom_bond_site_symmetry_2
C1 C2 1_555 1_555
C2 C3 1_555 1_555
C3 H1 1_555 1_555
C4 C3 1_555 1_555
H2 C4 1_555 1_555
C5 C4 1_555 1_555
H3 C5 1_555 1_555
C6 C2 1_555 1_555
C7 C5 1_555 1_555
H4 C7 1_555 1_555
C8 C9 1_555 1_555
C9 C10 1_555 1_555
C10 H5 1_555 1_555
C11 C10 1_555 1_555
C12 C11 1_555 1_555
H6 C12 1_555 1_555
C13 C8 1_555 1_555
C14 C13 1_555 1_555
H7 C14 1_555 1_555
H8 C14 1_555 1_555
H9 C14 1_555 1_555
C15 C9 1_555 1_555
H10 C15 1_555 1_555
H11 C15 1_555 1_555
H12 C15 1_555 1_555
C16 C11 1_555 1_555
H13 C16 1_555 1_555
H14 C16 1_555 1_555
H15 C16 1_555 1_555
C17 C18 1_555 1_555
C18 C19 1_555 1_555
C19 H16 1_555 1_555
C20 C19 1_555 1_555
C21 C20 1_555 1_555
H17 C21 1_555 1_555
C22 C17 1_555 1_555
C23 C22 1_555 1_555
H18 C23 1_555 1_555
H19 C23 1_555 1_555
H20 C23 1_555 1_555
C24 C20 1_555 1_555
H21 C24 1_555 1_555
H22 C24 1_555 1_555
H23 C24 1_555 1_555
C25 C18 1_555 1_555
H24 C25 1_555 1_555
H25 C25 1_555 1_555
H26 C25 1_555 1_555
B1 C6 1_555 1_555
C1A C1 1_555 1_555
C2A C1A 1_555 1_555
C3A C2A 1_555 1_555
H1A C3A 1_555 1_555
C4A C3A 1_555 1_555
H2A C4A 1_555 1_555
C5A C4A 1_555 1_555
H3A C5A 1_555 1_555
C6A C2A 1_555 1_555
C7A C5A 1_555 1_555
H4A C7A 1_555 1_555
C8A C9A 1_555 1_555
C9A C10A 1_555 1_555
C10A H5A 1_555 1_555
C11A C10A 1_555 1_555
C12A C11A 1_555 1_555
H6A C12A 1_555 1_555
C13A C8A 1_555 1_555
C14A C13A 1_555 1_555
H7A C14A 1_555 1_555
H8A C14A 1_555 1_555
H9A C14A 1_555 1_555
C15A C9A 1_555 1_555
H10A C15A 1_555 1_555
H11A C15A 1_555 1_555
H12A C15A 1_555 1_555
C16A C11A 1_555 1_555
H13A C16A 1_555 1_555
H14A C16A 1_555 1_555
H15A C16A 1_555 1_555
C17A C18A 1_555 1_555
C18A C19A 1_555 1_555
C19A H16A 1_555 1_555
C20A C19A 1_555 1_555
C21A C20A 1_555 1_555
H17A C21A 1_555 1_555
C22A C17A 1_555 1_555
C23A C22A 1_555 1_555
H18A C23A 1_555 1_555
H19A C23A 1_555 1_555
H20A C23A 1_555 1_555
C24A C20A 1_555 1_555
H21A C24A 1_555 1_555
H22A C24A 1_555 1_555
H23A C24A 1_555 1_555
C25A C18A 1_555 1_555
H24A C25A 1_555 1_555
H25A C25A 1_555 1_555
H26A C25A 1_555 1_555
B1A C6A 1_555 1_555
C6 C7 1_555 1_555
C8 B1 1_555 1_555
C12 C13 1_555 1_555
C17 B1 1_555 1_555
C21 C22 1_555 1_555
C6A C7A 1_555 1_555
C8A B1A 1_555 1_555
C12A C13A 1_555 1_555
C17A B1A 1_555 1_555
C21A C22A 1_555 1_555

#END
