
#######################################################################
#
#                 Cambridge Crystallographic Data Centre
#                                CCDC 
#
#######################################################################
#
# If this CIF has been generated from an entry in the Cambridge 
# Structural Database, then it will include bibliographic, chemical, 
# crystal, experimental, refinement or atomic coordinate data resulting 
# from the CCDC's data processing and validation procedures.
#
#######################################################################

data_NILQUV
_chemical_formula_moiety         'C42 H70 O35,C7 H5 N1 O4,14.25(H2 O1)'
_chemical_name_systematic        
'\b-Cyclodextrin 4-nitrobenzoic acid clathrate hydrate'
_symmetry_cell_setting           triclinic
_symmetry_space_group_name_H-M   'P 1'
_symmetry_Int_Tables_number      1
_space_group_name_Hall           'P 1'
loop_
_symmetry_equiv_pos_site_id
_symmetry_equiv_pos_as_xyz
1 x,y,z
_cell_length_a                   15.260(2)
_cell_length_b                   15.4342(19)
_cell_length_c                   17.950(2)
_cell_angle_alpha                99.2040(10)
_cell_angle_beta                 113.150(2)
_cell_angle_gamma                103.272(2)
_cell_volume                     3632.57
_exptl_crystal_colour            colorless
_exptl_crystal_description       prism
_cell_formula_units_Z            2
_exptl_crystal_recrystallization_method water
loop_
_atom_site_label
_atom_site_type_symbol
_atom_site_fract_x
_atom_site_fract_y
_atom_site_fract_z
C1 C 0.7451(4) 0.5245(3) 0.6466(3)
H1 H 0.8195 0.5465 0.6659
C2 C 0.6956(4) 0.4479(3) 0.5641(3)
H2 H 0.7278 0.3985 0.5739
C3 C 0.5845(4) 0.4045(3) 0.5367(3)
H3 H 0.5502 0.4522 0.5245
C4 C 0.5710(4) 0.3715(3) 0.6074(3)
H4 H 0.6030 0.3223 0.6186
C5 C 0.6202(4) 0.4531(3) 0.6867(3)
H5 H 0.5871 0.5017 0.6756
C6 C 0.6148(4) 0.4254(4) 0.7609(3)
H6 H 0.6494 0.4802 0.8108
H7 H 0.5434 0.4018 0.7496
C7 C 0.4282(3) 0.2419(3) 0.5835(3)
H8 H 0.4809 0.2116 0.5890
C8 C 0.3364(4) 0.1921(3) 0.4998(3)
H9 H 0.3081 0.1268 0.4996
C9 C 0.2578(4) 0.2404(3) 0.4914(3)
H10 H 0.2834 0.3055 0.4897
C10 C 0.2338(4) 0.2400(3) 0.5664(3)
H11 H 0.1966 0.1754 0.5619
C11 C 0.3283(4) 0.2804(3) 0.6505(3)
H12 H 0.3563 0.3488 0.6605
C12 C 0.3062(4) 0.2621(3) 0.7234(3)
H13 H 0.3697 0.2861 0.7764
H14 H 0.2604 0.2958 0.7296
C13 C 0.0805(4) 0.2628(3) 0.5672(3)
H15 H 0.0696 0.1966 0.5680
C14 C -0.0052(4) 0.2675(3) 0.4893(3)
H16 H -0.0700 0.2403 0.4914
C15 C 0.0078(4) 0.3688(3) 0.4900(3)
H17 H 0.0712 0.3961 0.4858
C16 C 0.0138(4) 0.4229(3) 0.5701(3)
H18 H -0.0516 0.4003 0.5726
C17 C 0.0999(4) 0.4111(4) 0.6463(3)
H19 H 0.1661 0.4397 0.6469
C18 C 0.1016(5) 0.4553(4) 0.7297(3)
H20 H 0.1060 0.5210 0.7342
H21 H 0.0384 0.4229 0.7310
C19 C -0.0322(4) 0.5628(3) 0.5805(3)
H22 H -0.0926 0.5155 0.5759
C20 C -0.0650(4) 0.6078(3) 0.5084(3)
H23 H -0.1118 0.6408 0.5152
C21 C 0.0266(3) 0.6790(3) 0.5160(3)
H24 H 0.0755 0.6475 0.5116
C22 C 0.0756(4) 0.7504(3) 0.6021(3)
H25 H 0.0288 0.7854 0.6052
C23 C 0.1007(4) 0.7042(3) 0.6733(3)
H26 H 0.1556 0.6779 0.6762
C24 C 0.1323(4) 0.7709(4) 0.7586(3)
H27 H 0.1436 0.7366 0.8018
H28 H 0.1968 0.8193 0.7747
C25 C 0.1781(4) 0.9107(3) 0.6289(3)
H29 H 0.1150 0.9192 0.6287
C26 C 0.1954(4) 0.9470(3) 0.5599(3)
H30 H 0.1992 1.0137 0.5702
C27 C 0.2956(4) 0.9400(3) 0.5637(3)
H31 H 0.2923 0.8735 0.5533
C28 C 0.3778(4) 0.9930(3) 0.6493(3)
H32 H 0.3842 1.0603 0.6588
C29 C 0.3572(4) 0.9582(4) 0.7177(3)
H33 H 0.3607 0.8938 0.7133
C30 C 0.4297(4) 1.0200(4) 0.8065(4)
H34 H 0.4156 0.9921 0.8482
H35 H 0.4997 1.0251 0.8172
C31 C 0.5541(4) 1.0608(3) 0.6792(3)
H36 H 0.5347 1.1176 0.6895
C32 C 0.5860(4) 1.0583(3) 0.6082(3)
H37 H 0.6473 1.1134 0.6281
C33 C 0.6157(4) 0.9730(3) 0.5926(3)
H38 H 0.5563 0.9165 0.5739
C34 C 0.6999(4) 0.9725(3) 0.6734(3)
H39 H 0.7628 1.0242 0.6892
C35 C 0.6676(4) 0.9814(3) 0.7448(3)
H40 H 0.6121 0.9242 0.7331
C36 C 0.7555(4) 0.9982(4) 0.8302(3)
H41 H 0.7856 0.9479 0.8287
H42 H 0.8080 1.0578 0.8441
C37 C 0.8158(4) 0.8832(3) 0.6809(3)
H43 H 0.8611 0.9480 0.6960
C38 C 0.8104(4) 0.8253(3) 0.6004(3)
H44 H 0.8794 0.8223 0.6130
C39 C 0.7412(4) 0.7274(3) 0.5776(3)
H45 H 0.6718 0.7289 0.5650
C40 C 0.7797(4) 0.6886(3) 0.6530(3)
H46 H 0.8459 0.6806 0.6616
C41 C 0.7926(4) 0.7509(3) 0.7335(3)
H47 H 0.7247 0.7503 0.7281
C42 C 0.8457(4) 0.7204(4) 0.8106(3)
H48 H 0.8572 0.7657 0.8620
H49 H 0.8030 0.6594 0.8067
O1 O 0.7074(3) 0.5991(2) 0.6318(2)
O2 O 0.7160(3) 0.4838(2) 0.5027(2)
H99 H 0.7009 0.5327 0.5010
O3 O 0.5404(3) 0.3278(3) 0.4621(2)
H100 H 0.5040 0.2825 0.4683
O4 O 0.7255(3) 0.4917(2) 0.7098(2)
O5 O 0.6604(4) 0.3555(4) 0.7782(3)
H101 H 0.6254 0.3159 0.7912
O6 O 0.4648(3) 0.3343(2) 0.5826(2)
O7 O 0.3627(3) 0.1904(2) 0.4319(2)
H102 H 0.3355 0.1369 0.3982
O8 O 0.1662(3) 0.1889(3) 0.4158(2)
H103 H 0.1662 0.2106 0.3757
O9 O 0.4035(3) 0.2376(2) 0.6509(2)
O10 O 0.2612(3) 0.1659(3) 0.7102(2)
H104 H 0.2961 0.1491 0.7510
O11 O 0.1716(3) 0.2972(2) 0.5615(2)
O12 O -0.0091(3) 0.2160(3) 0.4145(2)
H105 H 0.0483 0.2126 0.4239
O13 O -0.0764(3) 0.3745(3) 0.4194(2)
H106 H -0.0719 0.3563 0.3747
O14 O 0.0836(3) 0.3138(2) 0.6403(2)
O15 O 0.1864(4) 0.4496(4) 0.8000(3)
H107 H 0.1663 0.4250 0.8313
O16 O 0.0361(3) 0.5181(2) 0.5719(2)
O17 O -0.1172(3) 0.5403(2) 0.4288(2)
H108 H -0.0764 0.5189 0.4178
O18 O -0.0035(3) 0.7211(3) 0.4485(2)
H109 H -0.0394 0.7527 0.4551
O19 O 0.0129(3) 0.6311(2) 0.6596(2)
O20 O 0.0596(3) 0.8140(3) 0.7581(2)
H110 H 0.0876 0.8717 0.7781
O21 O 0.1668(3) 0.8136(2) 0.6107(2)
O22 O 0.1147(3) 0.8970(3) 0.4813(2)
H111 H 0.0903 0.9339 0.4567
O23 O 0.3145(3) 0.9757(3) 0.5013(2)
H112 H 0.2627 0.9534 0.4548
O24 O 0.2594(3) 0.9585(3) 0.7087(2)
O25 O 0.4189(3) 1.1108(3) 0.8161(3)
H113 H 0.4035 1.1229 0.8557
O26 O 0.4701(3) 0.9807(2) 0.6528(2)
O27 O 0.5114(3) 1.0653(3) 0.5337(2)
H114 H 0.4541 1.0394 0.5294
O28 O 0.6515(3) 0.9705(3) 0.5297(2)
H115 H 0.6038 0.9632 0.4826
O29 O 0.6346(3) 1.0618(2) 0.7528(2)
O30 O 0.7189(3) 1.0006(3) 0.8930(2)
H116 H 0.6943 1.0440 0.8945
O31 O 0.7166(3) 0.8841(2) 0.6610(2)
O32 O 0.7813(3) 0.8676(3) 0.5344(2)
H117 H 0.7208 0.8647 0.5184
O33 O 0.7384(3) 0.6716(3) 0.5057(2)
H118 H 0.6783 0.6415 0.4712
O34 O 0.8523(3) 0.8453(2) 0.7486(2)
O35 O 0.9398(3) 0.7140(3) 0.8161(2)
H119 H 0.9513 0.6695 0.8355
C43 C 0.5993(4) 0.5012(4) 0.1940(3)
H50 H 0.6279 0.4498 0.1879
C44 C 0.6689(4) 0.5730(3) 0.2787(3)
H51 H 0.7358 0.5999 0.2799
C45 C 0.6243(4) 0.6510(4) 0.2891(3)
H52 H 0.5587 0.6256 0.2905
C46 C 0.6072(4) 0.6905(3) 0.2136(3)
H53 H 0.6736 0.7248 0.2174
C47 C 0.5457(4) 0.6166(4) 0.1294(3)
H54 H 0.4753 0.5903 0.1214
C48 C 0.5436(4) 0.6542(4) 0.0557(3)
H55 H 0.5081 0.6027 0.0030
H56 H 0.5060 0.6992 0.0498
C49 C 0.5885(4) 0.8423(4) 0.2125(3)
H57 H 0.6545 0.8506 0.2106
C50 C 0.6037(4) 0.9131(4) 0.2891(4)
H58 H 0.6294 0.9761 0.2833
C51 C 0.5042(4) 0.9042(3) 0.2918(3)
H59 H 0.4768 0.8419 0.2981
C52 C 0.4306(4) 0.9149(4) 0.2085(3)
H60 H 0.4546 0.9787 0.2034
C53 C 0.4196(4) 0.8416(4) 0.1340(4)
H61 H 0.3918 0.7783 0.1384
C54 C 0.3538(5) 0.8508(6) 0.0494(4)
H62 H 0.3466 0.8000 0.0039
H63 H 0.2859 0.8459 0.0449
C55 C 0.2911(4) 0.9703(3) 0.2018(3)
H64 H 0.3417 1.0278 0.2066
C56 C 0.2642(3) 0.9874(3) 0.2748(3)
H65 H 0.2324 1.0375 0.2707
C57 C 0.1890(4) 0.8998(3) 0.2687(3)
H66 H 0.2197 0.8491 0.2729
C58 C 0.0974(3) 0.8728(3) 0.1830(3)
H67 H 0.0618 0.9199 0.1807
C59 C 0.1268(4) 0.8618(3) 0.1098(3)
H68 H 0.1527 0.8080 0.1073
C60 C 0.0399(4) 0.8480(3) 0.0257(3)
H69 H 0.0647 0.8491 -0.0176
H70 H -0.0104 0.7863 0.0092
C61 C -0.0705(4) 0.7756(3) 0.1533(3)
H71 H -0.0799 0.8375 0.1524
C62 C -0.0922(4) 0.7431(4) 0.2231(3)
H72 H -0.1628 0.7394 0.2116
C63 C -0.0821(4) 0.6479(4) 0.2218(3)
H73 H -0.0118 0.6502 0.2334
C64 C -0.1557(4) 0.5816(3) 0.1359(3)
H74 H -0.2261 0.5765 0.1259
C65 C -0.1350(4) 0.6172(4) 0.0672(3)
H75 H -0.0679 0.6143 0.0729
C66 C -0.2157(4) 0.5625(4) -0.0214(3)
H76 H -0.1963 0.5844 -0.0633
H77 H -0.2216 0.4960 -0.0300
C67 C -0.2294(4) 0.4144(3) 0.1086(3)
H78 H -0.2892 0.4356 0.0984
C68 C -0.2108(4) 0.3673(3) 0.1805(3)
H79 H -0.2711 0.3117 0.1622
C69 C -0.1209(4) 0.3348(3) 0.1952(3)
H80 H -0.0596 0.3891 0.2130
C70 C -0.1418(4) 0.2679(4) 0.1130(3)
H81 H -0.1995 0.2113 0.0987
C71 C -0.1685(4) 0.3127(4) 0.0404(3)
H82 H -0.1073 0.3629 0.0502
C72 C -0.2059(5) 0.2419(5) -0.0438(4)
H83 H -0.2218 0.2722 -0.0899
H84 H -0.1532 0.2142 -0.0432
C73 C -0.0656(4) 0.1461(4) 0.1023(3)
H85 H -0.1354 0.1078 0.0883
C74 C 0.0099(4) 0.1299(3) 0.1800(3)
H86 H 0.0067 0.0635 0.1670
C75 C 0.1139(4) 0.1908(3) 0.2005(3)
H87 H 0.1182 0.2574 0.2148
C76 C 0.1352(4) 0.1688(3) 0.1254(3)
H88 H 0.1407 0.1051 0.1161
C77 C 0.0532(4) 0.1758(3) 0.0451(3)
H89 H 0.0571 0.2423 0.0514
C78 C 0.0611(4) 0.1399(4) -0.0329(3)
H90 H 0.0033 0.1423 -0.0825
H91 H 0.1237 0.1794 -0.0308
C79 C 0.3008(4) 0.2031(4) 0.1287(3)
H92 H 0.2747 0.1339 0.1089
C80 C 0.3979(4) 0.2336(4) 0.2105(3)
H93 H 0.4462 0.2057 0.1994
C81 C 0.4448(4) 0.3371(3) 0.2389(3)
H94 H 0.3982 0.3665 0.2512
C82 C 0.4611(4) 0.3669(3) 0.1673(3)
H95 H 0.5073 0.3374 0.1545
C83 C 0.3606(5) 0.3383(5) 0.0890(4)
H96 H 0.3143 0.3678 0.1016
C84 C 0.3706(6) 0.3616(6) 0.0133(4)
H97 H 0.3050 0.3330 -0.0375
H98 H 0.3901 0.4296 0.0226
O36 O 0.5052(3) 0.4655(3) 0.1936(2)
O37 O 0.6825(3) 0.5316(3) 0.3458(2)
H120 H 0.6261 0.5031 0.3416
O38 O 0.6902(3) 0.7240(3) 0.3629(2)
H121 H 0.7362 0.7065 0.3942
O39 O 0.5900(3) 0.5427(2) 0.1273(2)
O40 O 0.6443(3) 0.6991(3) 0.0682(3)
H122 H 0.6843 0.6763 0.0996
O41 O 0.5538(3) 0.7538(3) 0.2210(2)
O42 O 0.6770(3) 0.9050(3) 0.3637(2)
H123 H 0.6492 0.8657 0.3818
O43 O 0.5206(3) 0.9754(3) 0.3623(2)
H124 H 0.4823 0.9551 0.3832
O44 O 0.5182(3) 0.8533(3) 0.1370(2)
O45 O 0.3959(6) 0.9353(8) 0.0402(6)
H125 H 0.4408 0.9702 0.0874
O46 O 0.3345(3) 0.8978(2) 0.2092(2)
O47 O 0.3513(3) 1.0163(3) 0.3532(2)
H126 H 0.3865 0.9819 0.3524
O48 O 0.1634(3) 0.9175(3) 0.3356(2)
H127 H 0.1149 0.8726 0.3283
O49 O 0.2045(3) 0.9456(2) 0.1241(2)
O50 O -0.0080(3) 0.9186(3) 0.0277(2)
H128 H 0.0272 0.9676 0.0252
O51 O 0.0313(3) 0.7829(2) 0.1734(2)
O52 O -0.0257(3) 0.8086(3) 0.3014(2)
H129 H -0.0588 0.8324 0.3216
O53 O -0.1069(3) 0.6143(3) 0.2834(2)
H130 H -0.0658 0.6491 0.3319
O54 O -0.1358(3) 0.7108(2) 0.0741(2)
O55 O -0.3105(3) 0.5733(3) -0.0337(2)
H131 H -0.3224 0.6111 -0.0623
O56 O -0.1423(3) 0.4929(3) 0.1335(2)
O57 O -0.1980(3) 0.4276(3) 0.2549(2)
H132 H -0.1686 0.4823 0.2585
O58 O -0.1056(3) 0.2874(3) 0.2590(2)
H133 H -0.0595 0.2646 0.2634
O59 O -0.2471(3) 0.3516(3) 0.0341(2)
O60 O -0.2942(4) 0.1714(3) -0.0571(3)
H134 H -0.2900 0.1190 -0.0732
O61 O -0.0556(3) 0.2415(2) 0.1236(2)
O62 O -0.0122(3) 0.1502(3) 0.2492(2)
H135 H 0.0214 0.2052 0.2784
O63 O 0.1873(3) 0.1734(3) 0.2709(2)
H136 H 0.2214 0.1467 0.2546
O64 O -0.0450(3) 0.1231(2) 0.0327(2)
O65 O 0.0621(4) 0.0450(3) -0.0415(3)
H137 H 0.0507 0.0206 -0.0911
O66 O 0.2293(3) 0.2355(2) 0.1447(2)
O67 O 0.3777(3) 0.1981(3) 0.2733(2)
H138 H 0.4041 0.2408 0.3186
O68 O 0.5382(3) 0.3628(3) 0.3139(2)
H139 H 0.5347 0.3958 0.3540
O69 O 0.3179(3) 0.2371(3) 0.0660(2)
O70 O 0.4427(5) 0.3293(5) 0.0008(3)
H140 H 0.4203 0.2712 -0.0177
N1 N 0.2909(9) 0.7264(7) 0.3756(6)
O71 O 0.4010(12) 0.5529(9) 0.6985(8)
O72 O 0.5211(9) 0.6811(9) 0.7347(7)
H141 H 0.5442 0.6654 0.7794
O73 O 0.1989(10) 0.7042(13) 0.3291(9)
O74 O 0.3532(12) 0.7712(13) 0.3566(10)
C85 C 0.4378(8) 0.6214(7) 0.6830(5)
C86 C 0.3915(6) 0.6455(5) 0.6012(4)
C87 C 0.4606(5) 0.6964(7) 0.5791(5)
H142 H 0.5307 0.7130 0.6146
C88 C 0.4271(6) 0.7230(8) 0.5052(6)
H143 H 0.4743 0.7578 0.4901
C89 C 0.3245(7) 0.6988(7) 0.4532(5)
C90 C 0.2554(5) 0.6479(8) 0.4753(5)
H144 H 0.1853 0.6313 0.4398
C91 C 0.2889(6) 0.6212(7) 0.5493(5)
H145 H 0.2417 0.5864 0.5643
N2 N 0.2879(9) 0.4483(7) 0.3781(6)
O75 O 0.2448(9) 0.6206(10) 0.0646(8)
O76 O 0.0897(8) 0.5474(11) 0.0335(8)
H146 H 0.0801 0.5652 -0.0100
O77 O 0.3777(10) 0.4653(13) 0.4280(9)
O78 O 0.2180(12) 0.4038(13) 0.3896(10)
C92 C 0.1829(8) 0.5738(9) 0.0821(6)
C93 C 0.2132(6) 0.5422(6) 0.1600(4)
C94 C 0.3140(5) 0.5627(7) 0.2158(5)
H147 H 0.3651 0.5974 0.2046
C95 C 0.3399(5) 0.5324(7) 0.2881(5)
H148 H 0.4088 0.5464 0.3262
C96 C 0.2651(7) 0.4816(8) 0.3045(5)
C97 C 0.1644(6) 0.4611(8) 0.2487(6)
H149 H 0.1132 0.4264 0.2599
C98 C 0.1384(5) 0.4914(7) 0.1764(6)
H150 H 0.0696 0.4774 0.1383
O79 O 0.7929(3) 0.8827(3) 0.9778(3)
O80 O 0.7269(4) 0.8852(3) 0.0984(3)
O81 O 0.5298(4) 0.4203(4) 0.9161(3)
O82 O 0.5715(4) 0.2637(5) 0.8599(3)
O83 O 0.7315(4) 0.3316(4) 0.4147(4)
O84 O 0.1110(5) 0.9966(3) 0.8298(4)
O85 O 0.0829(4) 0.0989(4) 0.7134(4)
O86 O 0.0361(4) 0.0194(3) 0.4172(4)
O87 O 0.6652(5) 0.7026(4) 0.8794(3)
O88 O 0.7935(5) 0.1184(4) 0.3192(4)
O89 O 0.8638(4) 0.9902(5) 0.2603(3)
O90 O 0.8570(5) 0.3810(5) 0.8009(4)
O91 O 0.0029(5) 0.3271(5) 0.9139(4)
O92 O 0.3857(6) 0.4952(5) 0.8227(5)
O93 O 0.8725(5) 0.8430(5) 0.3873(5)
O94 O 0.5463(5) 0.1500(5) 0.3251(5)
O95 O 0.1177(7) 0.2850(6) 0.8337(6)
O96 O 0.7765(6) 0.0905(5) 0.4621(4)
O97 O 0.8469(7) 0.2935(6) 0.6497(7)
O98 O 0.9510(6) 0.9961(7) 0.5441(5)
O99 O 0.9764(6) 0.5672(5) 0.8728(5)
O100 O 0.5662(7) 0.9503(8) 0.0111(6)
O101 O 0.6419(9) 0.1724(10) 0.2200(8)
O102 O 0.5940(7) 0.1376(7) 0.0396(6)
O103 O 0.8948(7) 0.1339(7) 0.6495(7)
O104 O 0.6509(7) 0.1928(4) 0.5049(4)
O105 O 0.4036(9) 0.1512(7) 0.9558(6)
O106 O 0.2636(8) 0.0231(8) 0.9722(7)
O107 O 0.2065(11) 0.5967(9) 0.9221(7)
loop_
_geom_bond_atom_site_label_1
_geom_bond_atom_site_label_2
_geom_bond_site_symmetry_1
_geom_bond_site_symmetry_2
C1 H1 1_555 1_555
C2 C1 1_555 1_555
H2 C2 1_555 1_555
C3 C2 1_555 1_555
H3 C3 1_555 1_555
C4 C3 1_555 1_555
H4 C4 1_555 1_555
C5 C4 1_555 1_555
H5 C5 1_555 1_555
C6 C5 1_555 1_555
H6 C6 1_555 1_555
H7 C6 1_555 1_555
C7 H8 1_555 1_555
C8 C7 1_555 1_555
H9 C8 1_555 1_555
C9 C8 1_555 1_555
H10 C9 1_555 1_555
C10 C9 1_555 1_555
H11 C10 1_555 1_555
C11 C10 1_555 1_555
H12 C11 1_555 1_555
C12 C11 1_555 1_555
H13 C12 1_555 1_555
H14 C12 1_555 1_555
C13 H15 1_555 1_555
C14 C13 1_555 1_555
H16 C14 1_555 1_555
C15 C14 1_555 1_555
H17 C15 1_555 1_555
C16 C15 1_555 1_555
H18 C16 1_555 1_555
C17 C16 1_555 1_555
H19 C17 1_555 1_555
C18 C17 1_555 1_555
H20 C18 1_555 1_555
H21 C18 1_555 1_555
C19 H22 1_555 1_555
C20 C19 1_555 1_555
H23 C20 1_555 1_555
C21 C20 1_555 1_555
H24 C21 1_555 1_555
C22 C21 1_555 1_555
H25 C22 1_555 1_555
C23 C22 1_555 1_555
H26 C23 1_555 1_555
C24 C23 1_555 1_555
H27 C24 1_555 1_555
H28 C24 1_555 1_555
C25 H29 1_555 1_555
C26 C25 1_555 1_555
H30 C26 1_555 1_555
C27 C26 1_555 1_555
H31 C27 1_555 1_555
C28 C27 1_555 1_555
H32 C28 1_555 1_555
C29 C28 1_555 1_555
H33 C29 1_555 1_555
C30 C29 1_555 1_555
H34 C30 1_555 1_555
H35 C30 1_555 1_555
C31 H36 1_555 1_555
C32 C31 1_555 1_555
H37 C32 1_555 1_555
C33 C32 1_555 1_555
H38 C33 1_555 1_555
C34 C33 1_555 1_555
H39 C34 1_555 1_555
C35 C34 1_555 1_555
H40 C35 1_555 1_555
C36 C35 1_555 1_555
H41 C36 1_555 1_555
H42 C36 1_555 1_555
C37 H43 1_555 1_555
C38 C37 1_555 1_555
H44 C38 1_555 1_555
C39 C38 1_555 1_555
H45 C39 1_555 1_555
C40 C39 1_555 1_555
H46 C40 1_555 1_555
C41 C40 1_555 1_555
H47 C41 1_555 1_555
C42 C41 1_555 1_555
H48 C42 1_555 1_555
H49 C42 1_555 1_555
C43 H50 1_555 1_555
C44 C43 1_555 1_555
H51 C44 1_555 1_555
C45 C44 1_555 1_555
H52 C45 1_555 1_555
C46 C45 1_555 1_555
H53 C46 1_555 1_555
C47 C46 1_555 1_555
H54 C47 1_555 1_555
C48 C47 1_555 1_555
H55 C48 1_555 1_555
H56 C48 1_555 1_555
C49 H57 1_555 1_555
C50 C49 1_555 1_555
H58 C50 1_555 1_555
C51 C50 1_555 1_555
H59 C51 1_555 1_555
C52 C51 1_555 1_555
H60 C52 1_555 1_555
C53 C52 1_555 1_555
H61 C53 1_555 1_555
C54 C53 1_555 1_555
H62 C54 1_555 1_555
H63 C54 1_555 1_555
C55 H64 1_555 1_555
C56 C55 1_555 1_555
H65 C56 1_555 1_555
C57 C56 1_555 1_555
H66 C57 1_555 1_555
C58 C57 1_555 1_555
H67 C58 1_555 1_555
C59 C58 1_555 1_555
H68 C59 1_555 1_555
C60 C59 1_555 1_555
H69 C60 1_555 1_555
H70 C60 1_555 1_555
C61 H71 1_555 1_555
C62 C61 1_555 1_555
H72 C62 1_555 1_555
C63 C62 1_555 1_555
H73 C63 1_555 1_555
C64 C63 1_555 1_555
H74 C64 1_555 1_555
C65 C64 1_555 1_555
H75 C65 1_555 1_555
C66 C65 1_555 1_555
H76 C66 1_555 1_555
H77 C66 1_555 1_555
C67 H78 1_555 1_555
C68 C67 1_555 1_555
H79 C68 1_555 1_555
C69 C68 1_555 1_555
H80 C69 1_555 1_555
C70 C69 1_555 1_555
H81 C70 1_555 1_555
C71 C70 1_555 1_555
H82 C71 1_555 1_555
C72 C71 1_555 1_555
H83 C72 1_555 1_555
H84 C72 1_555 1_555
C73 H85 1_555 1_555
C74 C73 1_555 1_555
H86 C74 1_555 1_555
C75 C74 1_555 1_555
H87 C75 1_555 1_555
C76 C75 1_555 1_555
H88 C76 1_555 1_555
C77 C76 1_555 1_555
H89 C77 1_555 1_555
C78 C77 1_555 1_555
H90 C78 1_555 1_555
H91 C78 1_555 1_555
C79 H92 1_555 1_555
C80 C79 1_555 1_555
H93 C80 1_555 1_555
C81 C80 1_555 1_555
H94 C81 1_555 1_555
C82 C81 1_555 1_555
H95 C82 1_555 1_555
C83 C82 1_555 1_555
H96 C83 1_555 1_555
C84 C83 1_555 1_555
H97 C84 1_555 1_555
H98 C84 1_555 1_555
O1 C1 1_555 1_555
O2 C2 1_555 1_555
H99 O2 1_555 1_555
O3 C3 1_555 1_555
H100 O3 1_555 1_555
O4 C1 1_555 1_555
O5 C6 1_555 1_555
H101 O5 1_555 1_555
O6 C4 1_555 1_555
O7 C8 1_555 1_555
H102 O7 1_555 1_555
O8 C9 1_555 1_555
H103 O8 1_555 1_555
O9 C7 1_555 1_555
O10 C12 1_555 1_555
H104 O10 1_555 1_555
O11 C10 1_555 1_555
O12 C14 1_555 1_555
H105 O12 1_555 1_555
O13 C15 1_555 1_555
H106 O13 1_555 1_555
O14 C13 1_555 1_555
O15 C18 1_555 1_555
H107 O15 1_555 1_555
O16 C16 1_555 1_555
O17 C20 1_555 1_555
H108 O17 1_555 1_555
O18 C21 1_555 1_555
H109 O18 1_555 1_555
O19 C19 1_555 1_555
O20 C24 1_555 1_555
H110 O20 1_555 1_555
O21 C22 1_555 1_555
O22 C26 1_555 1_555
H111 O22 1_555 1_555
O23 C27 1_555 1_555
H112 O23 1_555 1_555
O24 C25 1_555 1_555
O25 C30 1_555 1_555
H113 O25 1_555 1_555
O26 C28 1_555 1_555
O27 C32 1_555 1_555
H114 O27 1_555 1_555
O28 C33 1_555 1_555
H115 O28 1_555 1_555
O29 C31 1_555 1_555
O30 C36 1_555 1_555
H116 O30 1_555 1_555
O31 C34 1_555 1_555
O32 C38 1_555 1_555
H117 O32 1_555 1_555
O33 C39 1_555 1_555
H118 O33 1_555 1_555
O34 C37 1_555 1_555
O35 C42 1_555 1_555
H119 O35 1_555 1_555
O36 C43 1_555 1_555
O37 C44 1_555 1_555
H120 O37 1_555 1_555
O38 C45 1_555 1_555
H121 O38 1_555 1_555
O39 C43 1_555 1_555
O40 C48 1_555 1_555
H122 O40 1_555 1_555
O41 C46 1_555 1_555
O42 C50 1_555 1_555
H123 O42 1_555 1_555
O43 C51 1_555 1_555
H124 O43 1_555 1_555
O44 C49 1_555 1_555
O45 C54 1_555 1_555
H125 O45 1_555 1_555
O46 C52 1_555 1_555
O47 C56 1_555 1_555
H126 O47 1_555 1_555
O48 C57 1_555 1_555
H127 O48 1_555 1_555
O49 C55 1_555 1_555
O50 C60 1_555 1_555
H128 O50 1_555 1_555
O51 C58 1_555 1_555
O52 C62 1_555 1_555
H129 O52 1_555 1_555
O53 C63 1_555 1_555
H130 O53 1_555 1_555
O54 C61 1_555 1_555
O55 C66 1_555 1_555
H131 O55 1_555 1_555
O56 C64 1_555 1_555
O57 C68 1_555 1_555
H132 O57 1_555 1_555
O58 C69 1_555 1_555
H133 O58 1_555 1_555
O59 C67 1_555 1_555
O60 C72 1_555 1_555
H134 O60 1_555 1_555
O61 C70 1_555 1_555
O62 C74 1_555 1_555
H135 O62 1_555 1_555
O63 C75 1_555 1_555
H136 O63 1_555 1_555
O64 C73 1_555 1_555
O65 C78 1_555 1_555
H137 O65 1_555 1_555
O66 C76 1_555 1_555
O67 C80 1_555 1_555
H138 O67 1_555 1_555
O68 C81 1_555 1_555
H139 O68 1_555 1_555
O69 C79 1_555 1_555
O70 C84 1_555 1_555
H140 O70 1_555 1_555
N1 O73 1_555 1_555
O71 C85 1_555 1_555
O72 H141 1_555 1_555
O74 N1 1_555 1_555
C85 O72 1_555 1_555
C86 C85 1_555 1_555
C87 C86 1_555 1_555
H142 C87 1_555 1_555
C88 C87 1_555 1_555
H143 C88 1_555 1_555
C89 N1 1_555 1_555
C90 C89 1_555 1_555
H144 C90 1_555 1_555
C91 C86 1_555 1_555
H145 C91 1_555 1_555
N2 O77 1_555 1_555
O75 C92 1_555 1_555
O76 H146 1_555 1_555
O78 N2 1_555 1_555
C92 O76 1_555 1_555
C93 C92 1_555 1_555
C94 C93 1_555 1_555
H147 C94 1_555 1_555
C95 C94 1_555 1_555
H148 C95 1_555 1_555
C96 N2 1_555 1_555
C97 C96 1_555 1_555
H149 C97 1_555 1_555
C98 C93 1_555 1_555
H150 C98 1_555 1_555
C5 O4 1_555 1_555
C7 O6 1_555 1_555
C11 O9 1_555 1_555
C13 O11 1_555 1_555
C17 O14 1_555 1_555
C19 O16 1_555 1_555
C23 O19 1_555 1_555
C25 O21 1_555 1_555
C29 O24 1_555 1_555
C31 O26 1_555 1_555
C35 O29 1_555 1_555
C37 O31 1_555 1_555
C40 O1 1_555 1_555
C41 O34 1_555 1_555
C47 O39 1_555 1_555
C49 O41 1_555 1_555
C53 O44 1_555 1_555
C55 O46 1_555 1_555
C59 O49 1_555 1_555
C61 O51 1_555 1_555
C65 O54 1_555 1_555
C67 O56 1_555 1_555
C71 O59 1_555 1_555
C73 O61 1_555 1_555
C77 O64 1_555 1_555
C79 O66 1_555 1_555
C82 O36 1_555 1_555
C83 O69 1_555 1_555
C88 C89 1_555 1_555
C90 C91 1_555 1_555
C95 C96 1_555 1_555
C97 C98 1_555 1_555

#END
