
#######################################################################
#
#                 Cambridge Crystallographic Data Centre
#                                CCDC 
#
#######################################################################
#
# If this CIF has been generated from an entry in the Cambridge 
# Structural Database, then it will include bibliographic, chemical, 
# crystal, experimental, refinement or atomic coordinate data resulting 
# from the CCDC's data processing and validation procedures.
#
#######################################################################

data_NILROS
_chemical_formula_moiety         'C28 H36 N1 O1 P1'
_chemical_name_systematic        
2-(2-(dicyclohexylphosphanyl)-5-methoxyphenyl)-1-methyl-1H-indole
_symmetry_cell_setting           orthorhombic
_symmetry_space_group_name_H-M   'P c a 21'
_symmetry_Int_Tables_number      29
_space_group_name_Hall           'P 2c -2ac'
loop_
_symmetry_equiv_pos_site_id
_symmetry_equiv_pos_as_xyz
1 x,y,z
2 -x,-y,1/2+z
3 1/2+x,-y,z
4 1/2-x,y,1/2+z
_cell_length_a                   14.3655(7)
_cell_length_b                   11.3067(5)
_cell_length_c                   15.2794(7)
_cell_angle_alpha                90
_cell_angle_beta                 90
_cell_angle_gamma                90
_cell_volume                     2481.78
_exptl_crystal_colour            colorless
_exptl_crystal_description       block
_cell_formula_units_Z            4
loop_
_atom_site_label
_atom_site_type_symbol
_atom_site_fract_x
_atom_site_fract_y
_atom_site_fract_z
P1 P 0.42119(6) 0.32950(7) 0.41451(6)
O1 O 0.5518(3) 0.1549(3) 0.76626(18)
N1 N 0.34154(17) 0.5117(2) 0.57843(18)
C1 C 0.3358(2) 0.6327(3) 0.5739(2)
C2 C 0.2576(2) 0.7061(3) 0.5686(2)
H1 H 0.1978 0.6748 0.5661
C3 C 0.2725(3) 0.8261(3) 0.5673(3)
H2 H 0.2217 0.8768 0.5634
C4 C 0.3615(3) 0.8737(3) 0.5715(3)
H3 H 0.3691 0.9554 0.5704
C5 C 0.4390(3) 0.8016(3) 0.5775(3)
H4 H 0.4984 0.8341 0.5806
C6 C 0.4265(2) 0.6786(3) 0.5787(2)
C7 C 0.4873(2) 0.5801(3) 0.5867(3)
H5 H 0.5518 0.5834 0.5919
C8 C 0.4341(2) 0.4792(3) 0.5853(2)
C9 C 0.2621(2) 0.4331(3) 0.5815(3)
H6 H 0.2833 0.3527 0.5845
H7 H 0.2252 0.4508 0.6322
H8 H 0.2251 0.4437 0.5298
C10 C 0.4635(2) 0.3546(3) 0.5936(2)
C11 C 0.4950(2) 0.3166(3) 0.6753(2)
H9 H 0.4976 0.3701 0.7214
C12 C 0.5224(2) 0.2008(3) 0.6888(2)
C13 C 0.5207(3) 0.1235(3) 0.6186(2)
H10 H 0.5397 0.0455 0.6264
C14 C 0.4911(2) 0.1606(3) 0.5375(2)
H11 H 0.4912 0.1071 0.4913
C15 C 0.4609(2) 0.2765(3) 0.5225(2)
C16 C 0.5425(4) 0.2234(5) 0.8430(3)
H12 H 0.5660 0.1797 0.8921
H13 H 0.5771 0.2955 0.8367
H14 H 0.4780 0.2416 0.8524
C17 C 0.3688(3) 0.1940(3) 0.3657(2)
H15 H 0.4130 0.1283 0.3708
C18 C 0.3468(3) 0.2152(4) 0.2696(3)
H16 H 0.4044 0.2266 0.2376
H17 H 0.3102 0.2869 0.2640
C19 C 0.2930(4) 0.1117(5) 0.2293(3)
H18 H 0.2768 0.1312 0.1693
H19 H 0.3327 0.0424 0.2281
C20 C 0.2063(4) 0.0833(5) 0.2786(3)
H20 H 0.1769 0.0143 0.2531
H21 H 0.1631 0.1490 0.2742
C21 C 0.2278(4) 0.0595(4) 0.3740(3)
H22 H 0.2655 -0.0114 0.3786
H23 H 0.1701 0.0457 0.4055
C22 C 0.2794(3) 0.1629(3) 0.4157(3)
H24 H 0.2950 0.1430 0.4756
H25 H 0.2388 0.2315 0.4168
C23 C 0.5326(2) 0.3463(3) 0.3536(2)
H26 H 0.5157 0.3579 0.2920
C24 C 0.5811(3) 0.4597(3) 0.3827(3)
H27 H 0.5375 0.5250 0.3796
H28 H 0.6009 0.4515 0.4431
C25 C 0.6653(3) 0.4871(4) 0.3258(3)
H29 H 0.6449 0.5023 0.2663
H30 H 0.6957 0.5580 0.3474
C26 C 0.7336(3) 0.3865(4) 0.3258(3)
H31 H 0.7607 0.3788 0.3837
H32 H 0.7836 0.4038 0.2851
C27 C 0.6881(3) 0.2705(4) 0.3004(3)
H33 H 0.7327 0.2068 0.3076
H34 H 0.6705 0.2736 0.2392
C28 C 0.6020(3) 0.2441(3) 0.3555(2)
H35 H 0.6207 0.2293 0.4154
H36 H 0.5721 0.1732 0.3334
loop_
_geom_bond_atom_site_label_1
_geom_bond_atom_site_label_2
_geom_bond_site_symmetry_1
_geom_bond_site_symmetry_2
P1 C15 1_555 1_555
O1 C12 1_555 1_555
N1 C1 1_555 1_555
C1 C2 1_555 1_555
C2 H1 1_555 1_555
C3 C2 1_555 1_555
H2 C3 1_555 1_555
C4 C3 1_555 1_555
H3 C4 1_555 1_555
C5 C4 1_555 1_555
H4 C5 1_555 1_555
C6 C1 1_555 1_555
C7 C6 1_555 1_555
H5 C7 1_555 1_555
C8 N1 1_555 1_555
C9 N1 1_555 1_555
H6 C9 1_555 1_555
H7 C9 1_555 1_555
H8 C9 1_555 1_555
C10 C8 1_555 1_555
C11 C10 1_555 1_555
H9 C11 1_555 1_555
C12 C11 1_555 1_555
C13 C12 1_555 1_555
H10 C13 1_555 1_555
C14 C13 1_555 1_555
H11 C14 1_555 1_555
C15 C10 1_555 1_555
C16 O1 1_555 1_555
H12 C16 1_555 1_555
H13 C16 1_555 1_555
H14 C16 1_555 1_555
C17 P1 1_555 1_555
H15 C17 1_555 1_555
C18 C17 1_555 1_555
H16 C18 1_555 1_555
H17 C18 1_555 1_555
C19 C18 1_555 1_555
H18 C19 1_555 1_555
H19 C19 1_555 1_555
C20 C19 1_555 1_555
H20 C20 1_555 1_555
H21 C20 1_555 1_555
C21 C20 1_555 1_555
H22 C21 1_555 1_555
H23 C21 1_555 1_555
C22 C17 1_555 1_555
H24 C22 1_555 1_555
H25 C22 1_555 1_555
C23 P1 1_555 1_555
H26 C23 1_555 1_555
C24 C23 1_555 1_555
H27 C24 1_555 1_555
H28 C24 1_555 1_555
C25 C24 1_555 1_555
H29 C25 1_555 1_555
H30 C25 1_555 1_555
C26 C25 1_555 1_555
H31 C26 1_555 1_555
H32 C26 1_555 1_555
C27 C26 1_555 1_555
H33 C27 1_555 1_555
H34 C27 1_555 1_555
C28 C23 1_555 1_555
H35 C28 1_555 1_555
H36 C28 1_555 1_555
C5 C6 1_555 1_555
C7 C8 1_555 1_555
C14 C15 1_555 1_555
C21 C22 1_555 1_555
C27 C28 1_555 1_555

#END
