
#######################################################################
#
#                 Cambridge Crystallographic Data Centre
#                                CCDC 
#
#######################################################################
#
# If this CIF has been generated from an entry in the Cambridge 
# Structural Database, then it will include bibliographic, chemical, 
# crystal, experimental, refinement or atomic coordinate data resulting 
# from the CCDC's data processing and validation procedures.
#
#######################################################################

data_NILTIM
_chemical_formula_moiety         'C42 H60 S6 Si6,C1 H1 Cl3'
_chemical_name_systematic        
'1^5^,2^5^,3^5^,4^5^,5^5^,6^5^-hexakis(Trimethylsilyl)-1,2,4,6(3,2),3,5(2,3)-hexathiophenacyclohexaphane chloroform solvate'
_symmetry_cell_setting           triclinic
_symmetry_space_group_name_H-M   'P -1'
_symmetry_Int_Tables_number      2
_space_group_name_Hall           '-P 1'
loop_
_symmetry_equiv_pos_site_id
_symmetry_equiv_pos_as_xyz
1 x,y,z
2 -x,-y,-z
_cell_length_a                   11.8377(12)
_cell_length_b                   14.0164(15)
_cell_length_c                   17.9101(18)
_cell_angle_alpha                94.620(2)
_cell_angle_beta                 103.881(2)
_cell_angle_gamma                94.390(2)
_cell_volume                     2861.37
_exptl_crystal_colour            colorless
_exptl_crystal_description       block
_chemical_melting_point          258-261deg.C
_cell_formula_units_Z            2
loop_
_atom_site_label
_atom_site_type_symbol
_atom_site_fract_x
_atom_site_fract_y
_atom_site_fract_z
S1 S 0.59223(12) 0.07564(10) 0.28059(9)
S2 S 0.65189(12) 0.30602(10) 0.31846(8)
S3 S 0.10042(12) 0.28652(10) 0.32176(9)
S4 S 0.13159(12) 0.50640(10) 0.28662(9)
S5 S 0.46925(12) 0.29216(10) 0.10584(8)
S6 S 0.11968(12) 0.25098(10) 0.10569(8)
Si1 Si 0.57565(15) -0.12719(11) 0.18770(11)
Si2 Si 0.73170(15) 0.51481(12) 0.40287(10)
Si3 Si 0.08858(17) 0.10778(12) 0.41597(11)
Si4 Si 0.08493(15) 0.69467(12) 0.20730(12)
Si5 Si 0.66989(14) 0.44838(12) 0.09729(10)
Si6 Si -0.08630(14) 0.09051(12) 0.09965(11)
C1 C 0.5120(5) -0.0167(4) 0.2154(3)
C2 C 0.4057(5) 0.0137(4) 0.1828(3)
H1 H 0.3483 -0.0258 0.1464
C3 C 0.3877(5) 0.1093(4) 0.2078(3)
C4 C 0.4832(4) 0.1529(3) 0.2628(3)
C5 C 0.5109(4) 0.2499(4) 0.3033(3)
C6 C 0.4431(5) 0.3109(4) 0.3318(3)
C7 C 0.5035(5) 0.4006(4) 0.3652(3)
H2 H 0.4682 0.4494 0.3865
C8 C 0.6197(5) 0.4095(4) 0.3634(3)
C9 C 0.1666(5) 0.1956(4) 0.3681(3)
C10 C 0.2832(5) 0.2047(4) 0.3670(3)
H3 H 0.3348 0.1614 0.3880
C11 C 0.3184(5) 0.2845(3) 0.3317(3)
C12 C 0.2282(5) 0.3375(4) 0.3039(3)
C13 C 0.2239(4) 0.4243(3) 0.2655(3)
C14 C 0.2822(4) 0.4590(3) 0.2115(3)
C15 C 0.2469(4) 0.5505(4) 0.1918(3)
H4 H 0.2785 0.5844 0.1579
C16 C 0.1637(5) 0.5862(4) 0.2254(3)
C17 C 0.5306(5) 0.4085(4) 0.1246(3)
C18 C 0.4643(4) 0.4630(4) 0.1618(3)
H5 H 0.4837 0.5285 0.1769
C19 C 0.3630(4) 0.4108(4) 0.1752(3)
C20 C 0.3546(4) 0.3155(4) 0.1479(3)
C21 C 0.2656(4) 0.2380(4) 0.1466(3)
C22 C 0.2769(4) 0.1491(4) 0.1734(3)
C23 C 0.1658(5) 0.0936(4) 0.1595(3)
H6 H 0.1582 0.0316 0.1740
C24 C 0.0712(5) 0.1380(4) 0.1235(3)
C25 C 0.5745(6) -0.1269(5) 0.0851(4)
H7 H 0.6030 -0.1849 0.0678
H8 H 0.6237 -0.0723 0.0783
H9 H 0.4960 -0.1235 0.0554
C26 C 0.4863(6) -0.2354(4) 0.1995(4)
H10 H 0.4129 -0.2416 0.1616
H11 H 0.4727 -0.2301 0.2504
H12 H 0.5268 -0.2911 0.1929
C27 C 0.7256(5) -0.1248(4) 0.2487(4)
H13 H 0.7597 -0.1814 0.2345
H14 H 0.7234 -0.1231 0.3020
H15 H 0.7719 -0.0686 0.2414
C28 C 0.7171(6) 0.5579(4) 0.4985(3)
H16 H 0.6395 0.5761 0.4947
H17 H 0.7730 0.6127 0.5192
H18 H 0.7312 0.5078 0.5321
C29 C 0.7034(5) 0.6118(4) 0.3381(3)
H19 H 0.6270 0.6317 0.3364
H20 H 0.7073 0.5884 0.2870
H21 H 0.7611 0.6656 0.3574
C30 C 0.8793(5) 0.4747(5) 0.4072(4)
H22 H 0.9379 0.5271 0.4296
H23 H 0.8852 0.4544 0.3559
H24 H 0.8909 0.4221 0.4384
C31 C -0.0539(6) 0.1515(5) 0.4211(5)
H25 H -0.0896 0.1745 0.3728
H26 H -0.0413 0.2028 0.4619
H27 H -0.1043 0.0997 0.4311
C32 C 0.1847(7) 0.1023(5) 0.5139(4)
H28 H 0.1417 0.0689 0.5447
H29 H 0.2111 0.1664 0.5381
H30 H 0.2510 0.0688 0.5096
C33 C 0.0666(6) -0.0111(4) 0.3607(4)
H31 H 0.1412 -0.0335 0.3605
H32 H 0.0239 -0.0064 0.3085
H33 H 0.0233 -0.0554 0.3841
C34 C 0.1869(5) 0.8058(4) 0.2240(4)
H34 H 0.2386 0.8096 0.2747
H35 H 0.1432 0.8608 0.2200
H36 H 0.2319 0.8044 0.1859
C35 C 0.0025(6) 0.6780(5) 0.1045(4)
H37 H 0.0563 0.6811 0.0721
H38 H -0.0489 0.7277 0.0944
H39 H -0.0427 0.6164 0.0937
C36 C -0.0177(6) 0.7010(5) 0.2712(5)
H40 H -0.0718 0.6441 0.2598
H41 H -0.0599 0.7565 0.2625
H42 H 0.0257 0.7057 0.3242
C37 C 0.6729(5) 0.3787(5) 0.0059(3)
H43 H 0.6591 0.3113 0.0104
H44 H 0.7479 0.3917 -0.0048
H45 H 0.6131 0.3969 -0.0355
C38 C 0.7989(5) 0.4272(4) 0.1737(3)
H46 H 0.8010 0.4671 0.2203
H47 H 0.8689 0.4428 0.1571
H48 H 0.7939 0.3608 0.1834
C39 C 0.6695(5) 0.5778(4) 0.0832(4)
H49 H 0.6006 0.5876 0.0446
H50 H 0.7377 0.5989 0.0665
H51 H 0.6699 0.6142 0.1310
C40 C -0.1621(5) 0.1309(5) 0.0075(4)
H52 H -0.2441 0.1104 -0.0031
H53 H -0.1309 0.1037 -0.0333
H54 H -0.1510 0.1998 0.0106
C41 C -0.0934(5) -0.0424(4) 0.0907(4)
H55 H -0.1736 -0.0690 0.0785
H56 H -0.0522 -0.0632 0.1387
H57 H -0.0580 -0.0640 0.0502
C42 C -0.1537(5) 0.1338(4) 0.1768(4)
H58 H -0.1412 0.2027 0.1850
H59 H -0.1189 0.1071 0.2237
H60 H -0.2361 0.1141 0.1620
Cl1 Cl 0.4120(3) 0.6799(3) 0.4076(2)
Cl2 Cl 0.2501(4) 0.7556(4) 0.4660(2)
Cl3 Cl 0.4450(5) 0.8678(3) 0.4697(4)
C43 C 0.3972(8) 0.7586(7) 0.4804(5)
loop_
_geom_bond_atom_site_label_1
_geom_bond_atom_site_label_2
_geom_bond_site_symmetry_1
_geom_bond_site_symmetry_2
S1 C1 1_555 1_555
S2 C5 1_555 1_555
S3 C9 1_555 1_555
S4 C13 1_555 1_555
S5 C17 1_555 1_555
S6 C21 1_555 1_555
Si1 C1 1_555 1_555
Si2 C8 1_555 1_555
Si3 C9 1_555 1_555
Si4 C16 1_555 1_555
Si5 C17 1_555 1_555
Si6 C24 1_555 1_555
C1 C2 1_555 1_555
C2 H1 1_555 1_555
C3 C2 1_555 1_555
C4 S1 1_555 1_555
C5 C4 1_555 1_555
C6 C5 1_555 1_555
C7 C6 1_555 1_555
H2 C7 1_555 1_555
C8 S2 1_555 1_555
C9 C10 1_555 1_555
C10 H3 1_555 1_555
C11 C6 1_555 1_555
C12 S3 1_555 1_555
C13 C12 1_555 1_555
C14 C13 1_555 1_555
C15 C14 1_555 1_555
H4 C15 1_555 1_555
C16 S4 1_555 1_555
C17 C18 1_555 1_555
C18 H5 1_555 1_555
C19 C14 1_555 1_555
C20 S5 1_555 1_555
C21 C20 1_555 1_555
C22 C3 1_555 1_555
C23 C22 1_555 1_555
H6 C23 1_555 1_555
C24 S6 1_555 1_555
C25 Si1 1_555 1_555
H7 C25 1_555 1_555
H8 C25 1_555 1_555
H9 C25 1_555 1_555
C26 Si1 1_555 1_555
H10 C26 1_555 1_555
H11 C26 1_555 1_555
H12 C26 1_555 1_555
C27 Si1 1_555 1_555
H13 C27 1_555 1_555
H14 C27 1_555 1_555
H15 C27 1_555 1_555
C28 Si2 1_555 1_555
H16 C28 1_555 1_555
H17 C28 1_555 1_555
H18 C28 1_555 1_555
C29 Si2 1_555 1_555
H19 C29 1_555 1_555
H20 C29 1_555 1_555
H21 C29 1_555 1_555
C30 Si2 1_555 1_555
H22 C30 1_555 1_555
H23 C30 1_555 1_555
H24 C30 1_555 1_555
C31 Si3 1_555 1_555
H25 C31 1_555 1_555
H26 C31 1_555 1_555
H27 C31 1_555 1_555
C32 Si3 1_555 1_555
H28 C32 1_555 1_555
H29 C32 1_555 1_555
H30 C32 1_555 1_555
C33 Si3 1_555 1_555
H31 C33 1_555 1_555
H32 C33 1_555 1_555
H33 C33 1_555 1_555
C34 Si4 1_555 1_555
H34 C34 1_555 1_555
H35 C34 1_555 1_555
H36 C34 1_555 1_555
C35 Si4 1_555 1_555
H37 C35 1_555 1_555
H38 C35 1_555 1_555
H39 C35 1_555 1_555
C36 Si4 1_555 1_555
H40 C36 1_555 1_555
H41 C36 1_555 1_555
H42 C36 1_555 1_555
C37 Si5 1_555 1_555
H43 C37 1_555 1_555
H44 C37 1_555 1_555
H45 C37 1_555 1_555
C38 Si5 1_555 1_555
H46 C38 1_555 1_555
H47 C38 1_555 1_555
H48 C38 1_555 1_555
C39 Si5 1_555 1_555
H49 C39 1_555 1_555
H50 C39 1_555 1_555
H51 C39 1_555 1_555
C40 Si6 1_555 1_555
H52 C40 1_555 1_555
H53 C40 1_555 1_555
H54 C40 1_555 1_555
C41 Si6 1_555 1_555
H55 C41 1_555 1_555
H56 C41 1_555 1_555
H57 C41 1_555 1_555
C42 Si6 1_555 1_555
H58 C42 1_555 1_555
H59 C42 1_555 1_555
H60 C42 1_555 1_555
Cl1 C43 1_555 1_555
Cl2 C43 1_555 1_555
Cl3 C43 1_555 1_555
C3 C4 1_555 1_555
C7 C8 1_555 1_555
C10 C11 1_555 1_555
C11 C12 1_555 1_555
C15 C16 1_555 1_555
C18 C19 1_555 1_555
C19 C20 1_555 1_555
C21 C22 1_555 1_555
C23 C24 1_555 1_555

#END
