
#######################################################################
#
#                 Cambridge Crystallographic Data Centre
#                                CCDC 
#
#######################################################################
#
# If this CIF has been generated from an entry in the Cambridge 
# Structural Database, then it will include bibliographic, chemical, 
# crystal, experimental, refinement or atomic coordinate data resulting 
# from the CCDC's data processing and validation procedures.
#
#######################################################################

data_NILYOY
_chemical_formula_moiety         'C23 H23 N1 O5'
_chemical_name_systematic        
7',10'-Dimethoxy-3-methylene-4'-phenyl-4'-azaspiro[cyclopentane-1,8'-tricyclo[5.2.2.0^2,6^]undecane]-10'-ene-3',5',9'-trione
_symmetry_cell_setting           orthorhombic
_symmetry_space_group_name_H-M   'P 21 21 21'
_symmetry_Int_Tables_number      19
_space_group_name_Hall           'P 2ac 2ab'
loop_
_symmetry_equiv_pos_site_id
_symmetry_equiv_pos_as_xyz
1 x,y,z
2 1/2+x,1/2-y,-z
3 -x,1/2+y,1/2-z
4 1/2-x,-y,1/2+z
_cell_length_a                   8.3228(5)
_cell_length_b                   11.0553(6)
_cell_length_c                   21.5989(15)
_cell_angle_alpha                90
_cell_angle_beta                 90
_cell_angle_gamma                90
_cell_volume                     1987.34
_exptl_crystal_colour            colorless
_exptl_crystal_description       platelet
_cell_formula_units_Z            4
loop_
_atom_site_label
_atom_site_type_symbol
_atom_site_fract_x
_atom_site_fract_y
_atom_site_fract_z
O1 O 1.0531(4) -0.0574(3) -0.04619(15)
O2 O 1.2840(3) -0.0880(3) 0.06505(14)
O3 O 1.0877(5) 0.1750(4) 0.22386(16)
O4 O 0.7018(4) 0.2096(3) 0.04009(16)
O5 O 0.7419(4) -0.0634(3) 0.15402(16)
N1 N 0.8515(4) 0.0672(3) -0.01272(16)
C1 C 0.4982(7) -0.0197(6) -0.1436(3)
H1 H 0.4199 -0.0387 -0.1727
C2 C 0.6491(8) 0.0114(6) -0.1626(3)
H2 H 0.6732 0.0124 -0.2047
C3 C 0.7661(7) 0.0412(5) -0.1200(2)
H3 H 0.8681 0.0643 -0.1331
C4 C 0.7294(6) 0.0363(4) -0.0577(2)
C5 C 1.0049(5) 0.0172(4) -0.0101(2)
C6 C 1.0934(5) 0.0715(4) 0.04465(19)
H4 H 1.1846 0.1196 0.0299
C7 C 1.1531(5) -0.0248(4) 0.0918(2)
C8 C 1.2179(5) 0.0431(4) 0.1496(2)
C9 C 1.3612(6) 0.1274(5) 0.1368(2)
H5 H 1.4297 0.0941 0.1047
H6 H 1.3244 0.2067 0.1239
C10 C 1.4498(7) 0.1353(7) 0.1970(3)
C11 C 1.5600(10) 0.2136(9) 0.2115(4)
H7 H 1.6142 0.2070 0.2490
H8 H 1.5846 0.2763 0.1844
C12 C 1.2690(7) -0.2147(4) 0.0538(3)
H9 H 1.2526 -0.2561 0.0923
H10 H 1.3653 -0.2441 0.0345
H11 H 1.1791 -0.2290 0.0269
C13 C 1.0067(5) -0.0974(4) 0.1106(2)
H12 H 0.9994 -0.1809 0.1062
C14 C 0.8916(5) -0.0305(4) 0.1338(2)
C15 C 0.7074(7) -0.1896(5) 0.1493(3)
H13 H 0.7039 -0.2126 0.1065
H14 H 0.6055 -0.2061 0.1683
H15 H 0.7898 -0.2349 0.1700
C16 C 0.9260(6) 0.1044(4) 0.14013(19)
H16 H 0.8368 0.1484 0.1594
C17 C 1.0784(6) 0.1138(4) 0.1768(2)
C18 C 1.4022(7) 0.0339(7) 0.2362(3)
H17 H 1.3506 0.0634 0.2735
H18 H 1.4959 -0.0129 0.2480
C19 C 1.2864(6) -0.0442(5) 0.1995(2)
H19 H 1.2014 -0.0751 0.2259
H20 H 1.3419 -0.1117 0.1804
C20 C 0.9685(5) 0.1545(4) 0.07457(19)
H21 H 1.0101 0.2372 0.0777
C21 C 0.8242(6) 0.1513(4) 0.0341(2)
C22 C 0.5785(6) 0.0034(4) -0.0381(2)
H22 H 0.5551 -0.0011 0.0039
C23 C 0.4617(6) -0.0229(5) -0.0817(3)
H23 H 0.3582 -0.0428 -0.0690
loop_
_geom_bond_atom_site_label_1
_geom_bond_atom_site_label_2
_geom_bond_site_symmetry_1
_geom_bond_site_symmetry_2
O1 C5 1_555 1_555
O2 C7 1_555 1_555
O3 C17 1_555 1_555
O4 C21 1_555 1_555
O5 C14 1_555 1_555
N1 C4 1_555 1_555
C1 H1 1_555 1_555
C2 C1 1_555 1_555
H2 C2 1_555 1_555
C3 C2 1_555 1_555
H3 C3 1_555 1_555
C4 C3 1_555 1_555
C5 N1 1_555 1_555
C6 C5 1_555 1_555
H4 C6 1_555 1_555
C7 C6 1_555 1_555
C8 C7 1_555 1_555
C9 C8 1_555 1_555
H5 C9 1_555 1_555
H6 C9 1_555 1_555
C10 C9 1_555 1_555
C11 C10 1_555 1_555
H7 C11 1_555 1_555
H8 C11 1_555 1_555
C12 O2 1_555 1_555
H9 C12 1_555 1_555
H10 C12 1_555 1_555
H11 C12 1_555 1_555
C13 C7 1_555 1_555
H12 C13 1_555 1_555
C14 C13 1_555 1_555
C15 O5 1_555 1_555
H13 C15 1_555 1_555
H14 C15 1_555 1_555
H15 C15 1_555 1_555
C16 C14 1_555 1_555
H16 C16 1_555 1_555
C17 C8 1_555 1_555
C18 C10 1_555 1_555
H17 C18 1_555 1_555
H18 C18 1_555 1_555
C19 C8 1_555 1_555
H19 C19 1_555 1_555
H20 C19 1_555 1_555
C20 C6 1_555 1_555
H21 C20 1_555 1_555
C21 N1 1_555 1_555
C22 C4 1_555 1_555
H22 C22 1_555 1_555
C23 C1 1_555 1_555
H23 C23 1_555 1_555
C16 C17 1_555 1_555
C16 C20 1_555 1_555
C18 C19 1_555 1_555
C20 C21 1_555 1_555
C22 C23 1_555 1_555

#END
