
#######################################################################
#
#                 Cambridge Crystallographic Data Centre
#                                CCDC 
#
#######################################################################
#
# If this CIF has been generated from an entry in the Cambridge 
# Structural Database, then it will include bibliographic, chemical, 
# crystal, experimental, refinement or atomic coordinate data resulting 
# from the CCDC's data processing and validation procedures.
#
#######################################################################

data_NIMGEX
_chemical_formula_moiety         'C23 H17 F3 N2 O2 S1'
_chemical_name_systematic        
4-Methyl-N-(8-phenyl-2-(trifluoromethyl)quinolin-4-yl)benzenesulfonamide
_symmetry_cell_setting           triclinic
_symmetry_space_group_name_H-M   'P -1'
_symmetry_Int_Tables_number      2
_space_group_name_Hall           '-P 1'
loop_
_symmetry_equiv_pos_site_id
_symmetry_equiv_pos_as_xyz
1 x,y,z
2 -x,-y,-z
_cell_length_a                   10.2744(9)
_cell_length_b                   10.3315(9)
_cell_length_c                   20.5699(17)
_cell_angle_alpha                103.339(2)
_cell_angle_beta                 93.337(2)
_cell_angle_gamma                91.687(2)
_cell_volume                     2118.92
_exptl_crystal_colour            colorless
_exptl_crystal_description       prismatic
_cell_formula_units_Z            2
loop_
_atom_site_label
_atom_site_type_symbol
_atom_site_fract_x
_atom_site_fract_y
_atom_site_fract_z
S1 S 0.39396(5) 1.06166(6) 0.41160(3)
N1 N -0.08325(17) 0.84368(19) 0.39684(9)
N2 N 0.29879(18) 1.0002(2) 0.45919(10)
O1 O 0.32390(16) 1.15742(17) 0.38588(9)
O2 O 0.51042(15) 1.10320(16) 0.45323(8)
C1 C 0.0077(2) 0.7653(2) 0.41737(10)
C2 C -0.0316(2) 0.6320(2) 0.41893(11)
C3 C 0.0626(2) 0.5504(2) 0.43341(13)
H1 H 0.0390 0.4626 0.4329
C4 C 0.1928(2) 0.5939(3) 0.44888(13)
H2 H 0.2539 0.5350 0.4584
C5 C 0.2312(2) 0.7200(3) 0.45026(12)
H3 H 0.3182 0.7480 0.4612
C6 C 0.1398(2) 0.8103(2) 0.43515(10)
C7 C 0.1726(2) 0.9448(2) 0.43602(11)
C8 C 0.0803(2) 1.0220(2) 0.41577(11)
H4 H 0.0999 1.1105 0.4158
C9 C -0.0438(2) 0.9649(2) 0.39520(11)
C10 C -0.1457(2) 1.0469(3) 0.36993(15)
C11 C -0.1696(2) 0.5808(2) 0.40758(12)
C12 C -0.2662(2) 0.6460(3) 0.44541(13)
H5 H -0.2467 0.7293 0.4738
C13 C -0.3896(3) 0.5899(3) 0.44167(16)
H6 H -0.4525 0.6348 0.4679
C14 C -0.4210(3) 0.4690(4) 0.3998(2)
H7 H -0.5048 0.4309 0.3977
C15 C -0.3283(4) 0.4037(4) 0.3607(2)
H8 H -0.3496 0.3219 0.3314
C16 C -0.2031(3) 0.4597(3) 0.36506(16)
H9 H -0.1406 0.4145 0.3387
C17 C 0.4241(2) 0.9289(3) 0.34522(12)
C18 C 0.3525(3) 0.9103(3) 0.28538(14)
H10 H 0.2897 0.9702 0.2792
C19 C 0.3740(4) 0.8031(4) 0.23471(16)
H11 H 0.3247 0.7911 0.1942
C20 C 0.4659(3) 0.7128(4) 0.24161(16)
C21 C 0.5365(3) 0.7339(3) 0.30246(16)
H12 H 0.5997 0.6745 0.3087
C22 C 0.5162(3) 0.8400(3) 0.35399(14)
H13 H 0.5646 0.8517 0.3947
C23 C 0.4888(5) 0.5939(4) 0.18578(19)
H14 H 0.4136 0.5336 0.1781
H15 H 0.5638 0.5495 0.1981
H16 H 0.5033 0.6232 0.1457
F1 F -0.1689(7) 1.0212(8) 0.3096(2)
F2 F -0.2531(9) 1.0536(11) 0.4003(6)
F3 F -0.1043(4) 1.1817(4) 0.3883(3)
H17 H 0.343(2) 0.963(2) 0.4831(12)
S2 S 0.81099(6) 0.11330(6) 1.02800(3)
N3 N 0.8317(2) 0.51691(19) 0.91077(10)
N4 N 0.9217(2) 0.1953(2) 0.99704(11)
O3 O 0.74882(18) 0.20503(17) 1.07774(8)
O4 O 0.88050(18) 0.00872(18) 1.04667(9)
C24 C 0.9020(2) 0.4160(2) 0.87747(11)
C25 C 0.9430(3) 0.4244(3) 0.81373(12)
C26 C 1.0055(4) 0.3200(3) 0.77775(15)
H18 H 1.0327 0.3239 0.7359
C27 C 1.0295(5) 0.2078(4) 0.80206(16)
H19 H 1.0706 0.1375 0.7756
C28 C 0.9947(3) 0.1980(3) 0.86310(14)
H20 H 1.0129 0.1223 0.8786
C29 C 0.9304(2) 0.3033(2) 0.90310(12)
C30 C 0.8903(2) 0.3013(2) 0.96744(12)
C31 C 0.8223(2) 0.4045(2) 1.00036(13)
H21 H 0.7955 0.4066 1.0430
C32 C 0.7934(2) 0.5069(2) 0.96887(13)
C33 C 0.7107(4) 0.6176(3) 1.00163(17)
C34 C 0.9184(3) 0.5440(3) 0.78697(12)
C35 C 0.8274(3) 0.5412(3) 0.73547(14)
H22 H 0.7775 0.4634 0.7172
C36 C 0.8087(3) 0.6521(4) 0.71017(16)
H23 H 0.7456 0.6486 0.6754
C37 C 0.8807(3) 0.7653(4) 0.73521(16)
H24 H 0.8690 0.8394 0.7174
C38 C 0.9703(4) 0.7700(3) 0.78656(18)
H25 H 1.0202 0.8481 0.8045
C39 C 0.9880(4) 0.6601(3) 0.81232(16)
H26 H 1.0492 0.6653 0.8481
C40 C 0.6962(2) 0.0478(2) 0.96170(12)
C41 C 0.7237(3) -0.0614(3) 0.91303(15)
H27 H 0.8028 -0.1022 0.9152
C42 C 0.6312(4) -0.1095(4) 0.86077(16)
H28 H 0.6492 -0.1839 0.8279
C43 C 0.5149(4) -0.0520(4) 0.85564(16)
C44 C 0.4903(3) 0.0570(4) 0.90476(17)
H29 H 0.4113 0.0978 0.9022
C45 C 0.5792(3) 0.1074(3) 0.95760(14)
H30 H 0.5603 0.1814 0.9904
C46 C 0.4168(4) -0.1082(6) 0.79787(19)
H31 H 0.3509 -0.0449 0.7959
H32 H 0.3769 -0.1893 0.8041
H33 H 0.4601 -0.1261 0.7568
F4 F 0.7713(9) 0.7297(10) 1.0205(6)
F5 F 0.6126(13) 0.6424(14) 0.9572(6)
F6 F 0.6446(10) 0.5930(10) 1.0480(6)
H34 H 0.976(3) 0.143(3) 0.9790(13)
F7? F -0.2298(7) 0.9610(6) 0.3191(4)
F8? F -0.2239(11) 1.0906(13) 0.4110(6)
F9? F 0.7157(10) 0.6229(11) 1.0698(4)
F10? F 0.7582(11) 0.7324(8) 1.0022(6)
F11? F 0.5986(9) 0.6031(12) 0.9814(7)
F12? F -0.1010(5) 1.1172(10) 0.3340(5)
loop_
_geom_bond_atom_site_label_1
_geom_bond_atom_site_label_2
_geom_bond_site_symmetry_1
_geom_bond_site_symmetry_2
S1 N2 1_555 1_555
N1 C1 1_555 1_555
N2 C7 1_555 1_555
O1 S1 1_555 1_555
O2 S1 1_555 1_555
C1 C2 1_555 1_555
C2 C3 1_555 1_555
C3 H1 1_555 1_555
C4 C3 1_555 1_555
H2 C4 1_555 1_555
C5 C4 1_555 1_555
H3 C5 1_555 1_555
C6 C1 1_555 1_555
C7 C6 1_555 1_555
C8 C7 1_555 1_555
H4 C8 1_555 1_555
C9 N1 1_555 1_555
C10 C9 1_555 1_555
C11 C2 1_555 1_555
C12 C11 1_555 1_555
H5 C12 1_555 1_555
C13 C12 1_555 1_555
H6 C13 1_555 1_555
C14 C13 1_555 1_555
H7 C14 1_555 1_555
C15 C14 1_555 1_555
H8 C15 1_555 1_555
C16 C11 1_555 1_555
H9 C16 1_555 1_555
C17 S1 1_555 1_555
C18 C17 1_555 1_555
H10 C18 1_555 1_555
C19 C18 1_555 1_555
H11 C19 1_555 1_555
C20 C19 1_555 1_555
C21 C20 1_555 1_555
H12 C21 1_555 1_555
C22 C17 1_555 1_555
H13 C22 1_555 1_555
C23 C20 1_555 1_555
H14 C23 1_555 1_555
H15 C23 1_555 1_555
H16 C23 1_555 1_555
F1 C10 1_555 1_555
F2 C10 1_555 1_555
F3 C10 1_555 1_555
H17 N2 1_555 1_555
S2 N4 1_555 1_555
N3 C24 1_555 1_555
N4 C30 1_555 1_555
O3 S2 1_555 1_555
O4 S2 1_555 1_555
C24 C25 1_555 1_555
C25 C26 1_555 1_555
C26 H18 1_555 1_555
C27 C26 1_555 1_555
H19 C27 1_555 1_555
C28 C27 1_555 1_555
H20 C28 1_555 1_555
C29 C24 1_555 1_555
C30 C29 1_555 1_555
C31 C30 1_555 1_555
H21 C31 1_555 1_555
C32 N3 1_555 1_555
C33 C32 1_555 1_555
C34 C25 1_555 1_555
C35 C34 1_555 1_555
H22 C35 1_555 1_555
C36 C35 1_555 1_555
H23 C36 1_555 1_555
C37 C36 1_555 1_555
H24 C37 1_555 1_555
C38 C37 1_555 1_555
H25 C38 1_555 1_555
C39 C34 1_555 1_555
H26 C39 1_555 1_555
C40 S2 1_555 1_555
C41 C40 1_555 1_555
H27 C41 1_555 1_555
C42 C41 1_555 1_555
H28 C42 1_555 1_555
C43 C42 1_555 1_555
C44 C43 1_555 1_555
H29 C44 1_555 1_555
C45 C40 1_555 1_555
H30 C45 1_555 1_555
C46 C43 1_555 1_555
H31 C46 1_555 1_555
H32 C46 1_555 1_555
H33 C46 1_555 1_555
F4 C33 1_555 1_555
F5 C33 1_555 1_555
F6 C33 1_555 1_555
H34 N4 1_555 1_555
C5 C6 1_555 1_555
C8 C9 1_555 1_555
C15 C16 1_555 1_555
C21 C22 1_555 1_555
C28 C29 1_555 1_555
C31 C32 1_555 1_555
C38 C39 1_555 1_555
C44 C45 1_555 1_555

#END
