
#######################################################################
#
#                 Cambridge Crystallographic Data Centre
#                                CCDC 
#
#######################################################################
#
# If this CIF has been generated from an entry in the Cambridge 
# Structural Database, then it will include bibliographic, chemical, 
# crystal, experimental, refinement or atomic coordinate data resulting 
# from the CCDC's data processing and validation procedures.
#
#######################################################################

data_NIMKUS
_chemical_formula_moiety         'C20 H20 N2'
_chemical_name_systematic        
5-methyl-3-phenyl-2,3,4,5-tetrahydro-1H-3-benzazonine-4-carbonitrile
_symmetry_cell_setting           triclinic
_symmetry_space_group_name_H-M   'P -1'
_symmetry_Int_Tables_number      2
_space_group_name_Hall           '-P 1'
loop_
_symmetry_equiv_pos_site_id
_symmetry_equiv_pos_as_xyz
1 x,y,z
2 -x,-y,-z
_cell_length_a                   7.2034(5)
_cell_length_b                   10.7772(7)
_cell_length_c                   10.7933(7)
_cell_angle_alpha                103.292(6)
_cell_angle_beta                 93.266(5)
_cell_angle_gamma                105.419(6)
_cell_volume                     779.86
_exptl_crystal_description       block
_cell_formula_units_Z            2
loop_
_atom_site_label
_atom_site_type_symbol
_atom_site_fract_x
_atom_site_fract_y
_atom_site_fract_z
N1 N 0.15475(17) 0.64336(12) 0.76777(11)
N2 N 0.11922(19) 0.35535(13) 0.86060(13)
C1 C -0.0482(2) 0.76120(15) 0.68269(15)
H1 H -0.1060 0.7715 0.7578
C2 C 0.6463(2) 0.88609(15) 1.16723(15)
H2 H 0.7667 0.8719 1.1558
C3 C 0.1806(2) 0.68330(15) 0.55473(14)
H3 H 0.2764 0.6399 0.5435
C4 C 0.3191(2) 0.86813(14) 1.07935(14)
C5 C 0.2857(2) 0.92450(15) 1.20274(14)
H4 H 0.1648 0.9371 1.2160
C6 C 0.0957(2) 0.69448(14) 0.66938(14)
C7 C 0.5036(2) 0.84927(14) 1.06215(14)
C8 C 0.1730(2) 0.43460(15) 0.80583(14)
C9 C 0.5279(2) 0.78427(15) 0.93019(14)
H5 H 0.5395 0.8341 0.8697
C10 C 0.2459(2) 0.53628(14) 0.73473(14)
H6 H 0.2054 0.4930 0.6433
C11 C 0.0914(2) 0.67815(14) 0.89536(14)
H7 H 0.1378 0.6288 0.9488
H8 H -0.0493 0.6491 0.8859
C12 C -0.0194(2) 0.80030(16) 0.47136(15)
H9 H -0.0578 0.8350 0.4062
C13 C 0.6101(2) 0.94375(15) 1.28862(15)
H10 H 0.7067 0.9700 1.3580
C14 C 0.5343(2) 0.65901(15) 0.89216(14)
H11 H 0.5765 0.6191 0.9517
C15 C 0.1241(2) 0.73587(15) 0.45813(15)
H12 H 0.1832 0.7279 0.3834
C16 C 0.1614(2) 0.82868(15) 0.96630(14)
H13 H 0.2088 0.8786 0.9047
H14 H 0.0502 0.8554 0.9967
C17 C 0.4745(2) 0.58166(15) 0.75525(14)
H15 H 0.5191 0.6424 0.7010
C18 C 0.4298(2) 0.96213(15) 1.30606(15)
H16 H 0.4050 1.0000 1.3876
C19 C -0.1044(2) 0.81176(16) 0.58412(16)
H17 H -0.2013 0.8543 0.5939
C20 C 0.5540(2) 0.46243(16) 0.71359(16)
H18 H 0.5281 0.4078 0.7730
H19 H 0.6916 0.4934 0.7122
H20 H 0.4924 0.4112 0.6293
loop_
_geom_bond_atom_site_label_1
_geom_bond_atom_site_label_2
_geom_bond_site_symmetry_1
_geom_bond_site_symmetry_2
N1 C6 1_555 1_555
N2 C8 1_555 1_555
C1 H1 1_555 1_555
C2 H2 1_555 1_555
C3 H3 1_555 1_555
C4 C5 1_555 1_555
C5 H4 1_555 1_555
C6 C1 1_555 1_555
C7 C2 1_555 1_555
C8 C10 1_555 1_555
C9 C7 1_555 1_555
H5 C9 1_555 1_555
C10 N1 1_555 1_555
H6 C10 1_555 1_555
C11 N1 1_555 1_555
H7 C11 1_555 1_555
H8 C11 1_555 1_555
C12 H9 1_555 1_555
C13 C2 1_555 1_555
H10 C13 1_555 1_555
C14 C9 1_555 1_555
H11 C14 1_555 1_555
C15 C3 1_555 1_555
H12 C15 1_555 1_555
C16 C4 1_555 1_555
H13 C16 1_555 1_555
H14 C16 1_555 1_555
C17 C10 1_555 1_555
H15 C17 1_555 1_555
C18 C5 1_555 1_555
H16 C18 1_555 1_555
C19 C1 1_555 1_555
H17 C19 1_555 1_555
C20 C17 1_555 1_555
H18 C20 1_555 1_555
H19 C20 1_555 1_555
H20 C20 1_555 1_555
C3 C6 1_555 1_555
C4 C7 1_555 1_555
C11 C16 1_555 1_555
C12 C15 1_555 1_555
C12 C19 1_555 1_555
C13 C18 1_555 1_555
C14 C17 1_555 1_555

#END
