
#######################################################################
#
#                 Cambridge Crystallographic Data Centre
#                                CCDC 
#
#######################################################################
#
# If this CIF has been generated from an entry in the Cambridge 
# Structural Database, then it will include bibliographic, chemical, 
# crystal, experimental, refinement or atomic coordinate data resulting 
# from the CCDC's data processing and validation procedures.
#
#######################################################################

data_NIMSAD
_chemical_formula_moiety         'C20 H22 O1'
_chemical_name_systematic        1-(\a(Benzoyl)benzyl)-2-methylcyclopentane
_symmetry_cell_setting           orthorhombic
_symmetry_space_group_name_H-M   'P 21 21 21'
_symmetry_Int_Tables_number      19
_space_group_name_Hall           'P 2ac 2ab'
loop_
_symmetry_equiv_pos_site_id
_symmetry_equiv_pos_as_xyz
1 x,y,z
2 1/2-x,-y,1/2+z
3 1/2+x,1/2-y,-z
4 -x,1/2+y,1/2-z
_cell_length_a                   5.7756(3)
_cell_length_b                   12.7086(7)
_cell_length_c                   21.5891(13)
_cell_angle_alpha                90
_cell_angle_beta                 90
_cell_angle_gamma                90
_cell_volume                     1584.64
_exptl_crystal_colour            colorless
_exptl_crystal_description       cubic
_cell_formula_units_Z            4
_exptl_crystal_recrystallization_method chloroform
loop_
_atom_site_label
_atom_site_type_symbol
_atom_site_fract_x
_atom_site_fract_y
_atom_site_fract_z
O1 O -0.08686(37) 0.52175(20) 0.60443(11)
C1 C 0.29915(53) 0.49668(23) 0.68719(13)
C2 C 0.34628(65) 0.61216(23) 0.70523(14)
C3 C 0.4417(10) 0.60591(34) 0.77015(18)
C4 C 0.56542(95) 0.50406(31) 0.77609(19)
C5 C 0.48471(77) 0.43474(28) 0.72438(14)
C6 C 0.15028(95) 0.68669(32) 0.70026(21)
C7 C 0.30851(46) 0.47377(22) 0.61789(12)
C8 C 0.10773(51) 0.52302(23) 0.58248(13)
C9 C 0.14581(50) 0.56988(21) 0.52005(13)
C10 C -0.02583(58) 0.63588(25) 0.49571(15)
C11 C 0.00166(74) 0.68066(27) 0.43791(17)
C12 C 0.19462(78) 0.66047(27) 0.40367(14)
C13 C 0.36677(68) 0.59520(28) 0.42683(15)
C14 C 0.34267(57) 0.55135(23) 0.48495(13)
C15 C 0.31297(50) 0.35662(22) 0.60301(11)
C16 C 0.50178(54) 0.31297(24) 0.57206(13)
C17 C 0.50711(62) 0.20636(26) 0.55841(14)
C18 C 0.32507(65) 0.14240(24) 0.57490(14)
C19 C 0.13775(62) 0.18486(25) 0.60446(14)
C20 C 0.12996(54) 0.29179(24) 0.61894(13)
H1 H 0.150 0.478 0.702
H2 H 0.468 0.637 0.679
H3 H 0.546 0.662 0.777
H4 H 0.318 0.609 0.799
H5 H 0.728 0.515 0.773
H6 H 0.530 0.473 0.815
H7 H 0.419 0.372 0.741
H8 H 0.611 0.417 0.698
H9 H 0.202 0.755 0.713
H10 H 0.102 0.690 0.658
H11 H 0.028 0.664 0.725
H12 H 0.448 0.504 0.602
H13 H -0.162 0.650 0.519
H14 H -0.115 0.726 0.422
H15 H 0.211 0.691 0.364
H16 H 0.501 0.581 0.403
H17 H 0.462 0.508 0.501
H18 H 0.628 0.357 0.560
H19 H 0.637 0.177 0.538
H20 H 0.329 0.069 0.566
H21 H 0.011 0.141 0.615
H22 H -0.001 0.320 0.640
loop_
_geom_bond_atom_site_label_1
_geom_bond_atom_site_label_2
_geom_bond_site_symmetry_1
_geom_bond_site_symmetry_2
O1 C8 1_555 1_555
C1 C2 1_555 1_555
C2 C3 1_555 1_555
C3 C4 1_555 1_555
C4 C5 1_555 1_555
C5 C1 1_555 1_555
C6 C2 1_555 1_555
C7 C1 1_555 1_555
C8 C7 1_555 1_555
C9 C8 1_555 1_555
C10 C9 1_555 1_555
C11 C10 1_555 1_555
C12 C11 1_555 1_555
C13 C12 1_555 1_555
C14 C9 1_555 1_555
C15 C7 1_555 1_555
C16 C15 1_555 1_555
C17 C16 1_555 1_555
C18 C17 1_555 1_555
C19 C18 1_555 1_555
C20 C15 1_555 1_555
H1 C1 1_555 1_555
H2 C2 1_555 1_555
H3 C3 1_555 1_555
H4 C3 1_555 1_555
H5 C4 1_555 1_555
H6 C4 1_555 1_555
H7 C5 1_555 1_555
H8 C5 1_555 1_555
H9 C6 1_555 1_555
H10 C6 1_555 1_555
H11 C6 1_555 1_555
H12 C7 1_555 1_555
H13 C10 1_555 1_555
H14 C11 1_555 1_555
H15 C12 1_555 1_555
H16 C13 1_555 1_555
H17 C14 1_555 1_555
H18 C16 1_555 1_555
H19 C17 1_555 1_555
H20 C18 1_555 1_555
H21 C19 1_555 1_555
H22 C20 1_555 1_555
C13 C14 1_555 1_555
C19 C20 1_555 1_555

#END
