
#######################################################################
#
#                 Cambridge Crystallographic Data Centre
#                                CCDC 
#
#######################################################################
#
# If this CIF has been generated from an entry in the Cambridge 
# Structural Database, then it will include bibliographic, chemical, 
# crystal, experimental, refinement or atomic coordinate data resulting 
# from the CCDC's data processing and validation procedures.
#
#######################################################################

data_NINTAI
_chemical_formula_moiety         'C20 H14 N2 O7,C2 H6 O1 S1'
_chemical_name_systematic        
"3,3'-(furan-2,5-diylbis(carbonylazanediyl))dibenzoic acid dimethyl sulfoxide solvate"
_symmetry_cell_setting           monoclinic
_symmetry_space_group_name_H-M   'P 21/c'
_symmetry_Int_Tables_number      14
_space_group_name_Hall           '-P 2ybc'
loop_
_symmetry_equiv_pos_site_id
_symmetry_equiv_pos_as_xyz
1 x,y,z
2 -x,1/2+y,1/2-z
3 -x,-y,-z
4 x,1/2-y,1/2+z
_cell_length_a                   13.2710(10)
_cell_length_b                   14.9631(12)
_cell_length_c                   12.4821(9)
_cell_angle_alpha                90
_cell_angle_beta                 115.792(2)
_cell_angle_gamma                90
_cell_volume                     2231.71
_exptl_crystal_colour            colorless
_exptl_crystal_description       Block
_cell_formula_units_Z            4
loop_
_atom_site_label
_atom_site_type_symbol
_atom_site_fract_x
_atom_site_fract_y
_atom_site_fract_z
C1 C 0.4453(3) 1.0670(2) 0.2412(3)
C2 C 0.3323(3) 1.1030(2) 0.1744(3)
C3 C 0.2969(3) 1.1785(2) 0.1097(3)
H1 H 0.3406 1.2191 0.0921
C4 C 0.1808(3) 1.1837(2) 0.0740(3)
H2 H 0.1328 1.2285 0.0282
C5 C 0.1527(2) 1.1112(2) 0.1192(3)
C6 C 0.0460(3) 1.0821(2) 0.1176(3)
C7 C 0.5502(3) 0.9502(2) 0.3868(3)
C8 C 0.5405(3) 0.8856(3) 0.4613(3)
H3 H 0.4700 0.8693 0.4535
C9 C 0.6344(3) 0.8452(3) 0.5468(3)
H4 H 0.6268 0.8019 0.5962
C10 C 0.7396(3) 0.8687(3) 0.5597(3)
H5 H 0.8028 0.8409 0.6169
C11 C 0.7501(3) 0.9339(3) 0.4868(3)
C12 C 0.6562(3) 0.9742(2) 0.4007(3)
H6 H 0.6640 1.0178 0.3516
C13 C 0.8598(3) 0.9622(3) 0.4961(3)
C14 C -0.0369(2) 0.9592(2) 0.1845(3)
C15 C -0.0073(3) 0.8854(2) 0.2594(3)
H7 H 0.0674 0.8681 0.2979
C16 C -0.0869(3) 0.8375(2) 0.2775(3)
H8 H -0.0661 0.7877 0.3270
C17 C -0.1981(3) 0.8633(2) 0.2220(3)
H9 H -0.2522 0.8313 0.2344
C18 C -0.2279(3) 0.9370(2) 0.1481(3)
C19 C -0.1476(3) 0.9856(2) 0.1301(3)
H10 H -0.1682 1.0359 0.0815
C20 C -0.3464(3) 0.9647(2) 0.0848(3)
H11 H 0.116(3) 0.972(2) 0.191(3)
H12 H 0.390(3) 0.964(2) 0.293(3)
N1 N 0.4516(2) 0.9905(2) 0.3021(3)
N2 N 0.0500(2) 1.00187(18) 0.1682(2)
O1 O 0.24431(16) 1.05975(14) 0.18035(19)
O2 O 0.5240(2) 1.1068(2) 0.2405(3)
O3 O -0.03603(19) 1.13047(17) 0.0739(3)
O4 O 0.8699(2) 1.02944(19) 0.4435(3)
O5 O 0.9444(2) 0.9119(2) 0.5615(3)
H13 H 1.002(3) 0.935(3) 0.558(4)
O6 O -0.37257(19) 1.03365(18) 0.0228(2)
O7 O -0.41841(19) 0.91307(19) 0.0963(3)
H14 H -0.484(2) 0.935(3) 0.061(3)
C21 C 0.2935(5) 0.7770(4) 0.1207(5)
H15 H 0.2914 0.8304 0.0771
H16 H 0.2720 0.7267 0.0677
H17 H 0.3680 0.7680 0.1819
C22 C 0.2296(6) 0.6993(4) 0.2717(6)
H18 H 0.3023 0.7054 0.3372
H19 H 0.2278 0.6463 0.2275
H20 H 0.1741 0.6949 0.3013
O8 O 0.2521(2) 0.87369(18) 0.2650(3)
S1 S 0.20316(19) 0.78758(14) 0.1838(2)
H21? H 0.2377 0.8175 0.0683
H22? H 0.2750 0.7172 0.0909
H23? H 0.3652 0.7930 0.1250
H24? H 0.2296 0.6999 0.3486
H25? H 0.2641 0.6452 0.2626
H26? H 0.1540 0.7022 0.2110
S2? S 0.2980(2) 0.78313(15) 0.2598(2)
loop_
_geom_bond_atom_site_label_1
_geom_bond_atom_site_label_2
_geom_bond_site_symmetry_1
_geom_bond_site_symmetry_2
C1 C2 1_555 1_555
C2 C3 1_555 1_555
C3 H1 1_555 1_555
C4 C3 1_555 1_555
H2 C4 1_555 1_555
C5 C4 1_555 1_555
C6 C5 1_555 1_555
C7 C8 1_555 1_555
C8 H3 1_555 1_555
C9 C8 1_555 1_555
H4 C9 1_555 1_555
C10 C9 1_555 1_555
H5 C10 1_555 1_555
C11 C10 1_555 1_555
C12 C7 1_555 1_555
H6 C12 1_555 1_555
C13 C11 1_555 1_555
C14 C15 1_555 1_555
C15 H7 1_555 1_555
C16 C15 1_555 1_555
H8 C16 1_555 1_555
C17 C16 1_555 1_555
H9 C17 1_555 1_555
C18 C17 1_555 1_555
C19 C14 1_555 1_555
H10 C19 1_555 1_555
C20 C18 1_555 1_555
H11 N2 1_555 1_555
H12 N1 1_555 1_555
N1 C1 1_555 1_555
N2 C6 1_555 1_555
O1 C2 1_555 1_555
O2 C1 1_555 1_555
O3 C6 1_555 1_555
O4 C13 1_555 1_555
O5 C13 1_555 1_555
H13 O5 1_555 1_555
O6 C20 1_555 1_555
O7 C20 1_555 1_555
H14 O7 1_555 1_555
C21 H15 1_555 1_555
H16 C21 1_555 1_555
H17 C21 1_555 1_555
C22 H18 1_555 1_555
H19 C22 1_555 1_555
H20 C22 1_555 1_555
O8 S1 1_555 1_555
S1 C21 1_555 1_555
C5 O1 1_555 1_555
C7 N1 1_555 1_555
C11 C12 1_555 1_555
C14 N2 1_555 1_555
C18 C19 1_555 1_555
C22 S1 1_555 1_555

#END
