
#######################################################################
#
#                 Cambridge Crystallographic Data Centre
#                                CCDC 
#
#######################################################################
#
# If this CIF has been generated from an entry in the Cambridge 
# Structural Database, then it will include bibliographic, chemical, 
# crystal, experimental, refinement or atomic coordinate data resulting 
# from the CCDC's data processing and validation procedures.
#
#######################################################################

data_NINVIS
_chemical_formula_moiety         'C27 H18 F7 N1 O3 S1'
_chemical_name_systematic        
1-((4-fluorophenyl)sulfonyl)-3,5-bis((4-(trifluoromethyl)phenyl)methylidene)piperidin-4-one
_symmetry_cell_setting           triclinic
_symmetry_space_group_name_H-M   'P -1'
_symmetry_Int_Tables_number      2
_space_group_name_Hall           '-P 1'
loop_
_symmetry_equiv_pos_site_id
_symmetry_equiv_pos_as_xyz
1 x,y,z
2 -x,-y,-z
_cell_length_a                   8.5664(6)
_cell_length_b                   10.0932(8)
_cell_length_c                   14.3871(12)
_cell_angle_alpha                90.590(4)
_cell_angle_beta                 98.592(4)
_cell_angle_gamma                97.309(4)
_cell_volume                     1219.44
_exptl_crystal_colour            yellow
_exptl_crystal_description       block
_cell_formula_units_Z            2
loop_
_atom_site_label
_atom_site_type_symbol
_atom_site_fract_x
_atom_site_fract_y
_atom_site_fract_z
C1 C 0.2745(3) 0.4646(3) 0.09345(19)
H1 H 0.2746 0.4750 0.1620
H2 H 0.2856 0.5549 0.0671
C2 C 0.4151(3) 0.3950(3) 0.07680(18)
C3 C 0.3998(3) 0.3125(3) -0.01181(18)
C4 C 0.2444(3) 0.2949(3) -0.07648(18)
C5 C 0.1130(3) 0.3682(3) -0.05191(18)
H3 H 0.1188 0.4558 -0.0823
H4 H 0.0089 0.3163 -0.0770
C6 C 0.5502(3) 0.3970(3) 0.13772(18)
H5 H 0.6278 0.3489 0.1172
C7 C 0.5962(3) 0.4619(3) 0.23108(18)
C8 C 0.7029(3) 0.4042(3) 0.2959(2)
H6 H 0.7437 0.3262 0.2778
C9 C 0.7510(3) 0.4579(3) 0.3861(2)
H7 H 0.8232 0.4168 0.4296
C10 C 0.6926(3) 0.5725(3) 0.41233(19)
C11 C 0.5903(3) 0.6343(3) 0.34794(19)
H8 H 0.5529 0.7141 0.3656
C12 C 0.5429(3) 0.5799(3) 0.25799(19)
H9 H 0.4735 0.6231 0.2140
C13 C 0.7432(4) 0.6305(3) 0.5094(2)
C14 C 0.2319(3) 0.2154(3) -0.15292(19)
H10 H 0.3198 0.1678 -0.1564
C15 C 0.1018(3) 0.1914(3) -0.23187(18)
C16 C 0.0801(3) 0.0706(3) -0.2831(2)
H11 H 0.1465 0.0043 -0.2639
C17 C -0.0355(3) 0.0453(3) -0.3610(2)
H12 H -0.0490 -0.0380 -0.3945
C18 C -0.1322(3) 0.1420(3) -0.3901(2)
C19 C -0.1114(4) 0.2635(3) -0.3416(2)
H13 H -0.1765 0.3303 -0.3621
C20 C 0.0040(3) 0.2877(3) -0.26338(19)
H14 H 0.0173 0.3714 -0.2303
C21 C -0.2521(4) 0.1177(4) -0.4773(2)
C22 C 0.1738(3) 0.1683(3) 0.15526(18)
C23 C 0.2648(3) 0.1949(3) 0.24334(19)
H15 H 0.2506 0.2695 0.2805
C24 C 0.3765(3) 0.1122(3) 0.2766(2)
H16 H 0.4408 0.1290 0.3363
C25 C 0.3913(3) 0.0050(3) 0.2207(2)
C26 C 0.3034(3) -0.0243(3) 0.1338(2)
H17 H 0.3173 -0.1000 0.0976
C27 C 0.1933(3) 0.0600(3) 0.1001(2)
H18 H 0.1315 0.0436 0.0396
F1 F 0.6329(10) 0.6923(9) 0.5414(5)
F2 F 0.763(2) 0.5383(5) 0.5743(3)
F3 F 0.8690(9) 0.7143(13) 0.5196(5)
F4 F -0.3734(2) 0.1880(3) -0.47810(15)
F5 F -0.3093(3) -0.0095(2) -0.49351(16)
F6 F -0.1910(2) 0.1550(2) -0.55509(12)
F7 F 0.4980(2) -0.0776(2) 0.25495(13)
N1 N 0.1225(2) 0.3894(2) 0.04994(15)
O1 O 0.5140(2) 0.26338(19) -0.03256(13)
O2 O 0.0046(2) 0.3482(2) 0.19369(14)
O3 O -0.0936(2) 0.2044(2) 0.05130(15)
S1 S 0.03566(8) 0.27738(7) 0.11325(5)
F8? F 0.8703(14) 0.5860(14) 0.5537(7)
F9? F 0.6354(14) 0.613(2) 0.5590(7)
F10? F 0.783(3) 0.7594(7) 0.5101(6)
loop_
_geom_bond_atom_site_label_1
_geom_bond_atom_site_label_2
_geom_bond_site_symmetry_1
_geom_bond_site_symmetry_2
C1 H1 1_555 1_555
H2 C1 1_555 1_555
C2 C1 1_555 1_555
C3 C2 1_555 1_555
C4 C3 1_555 1_555
C5 C4 1_555 1_555
H3 C5 1_555 1_555
H4 C5 1_555 1_555
C6 C2 1_555 1_555
H5 C6 1_555 1_555
C7 C6 1_555 1_555
C8 C7 1_555 1_555
H6 C8 1_555 1_555
C9 C8 1_555 1_555
H7 C9 1_555 1_555
C10 C9 1_555 1_555
C11 C10 1_555 1_555
H8 C11 1_555 1_555
C12 C7 1_555 1_555
H9 C12 1_555 1_555
C13 C10 1_555 1_555
C14 C4 1_555 1_555
H10 C14 1_555 1_555
C15 C14 1_555 1_555
C16 C15 1_555 1_555
H11 C16 1_555 1_555
C17 C16 1_555 1_555
H12 C17 1_555 1_555
C18 C17 1_555 1_555
C19 C18 1_555 1_555
H13 C19 1_555 1_555
C20 C15 1_555 1_555
H14 C20 1_555 1_555
C21 C18 1_555 1_555
C22 C23 1_555 1_555
C23 H15 1_555 1_555
C24 C23 1_555 1_555
H16 C24 1_555 1_555
C25 C24 1_555 1_555
C26 C25 1_555 1_555
H17 C26 1_555 1_555
C27 C22 1_555 1_555
H18 C27 1_555 1_555
F1 C13 1_555 1_555
F2 C13 1_555 1_555
F3 C13 1_555 1_555
F4 C21 1_555 1_555
F5 C21 1_555 1_555
F6 C21 1_555 1_555
F7 C25 1_555 1_555
N1 C1 1_555 1_555
O1 C3 1_555 1_555
O2 S1 1_555 1_555
O3 S1 1_555 1_555
S1 C22 1_555 1_555
C5 N1 1_555 1_555
C11 C12 1_555 1_555
C19 C20 1_555 1_555
C26 C27 1_555 1_555
N1 S1 1_555 1_555

#END
