
#######################################################################
#
#                 Cambridge Crystallographic Data Centre
#                                CCDC 
#
#######################################################################
#
# If this CIF has been generated from an entry in the Cambridge 
# Structural Database, then it will include bibliographic, chemical, 
# crystal, experimental, refinement or atomic coordinate data resulting 
# from the CCDC's data processing and validation procedures.
#
#######################################################################

data_NIPGOL
_chemical_formula_moiety         'C17 H14 N4 O1 S1'
_chemical_name_systematic        
4-amino-2-[(3-methoxyphenyl)amino]-5-(pyridin-2-yl)thiophene-3-carbonitrile
_symmetry_cell_setting           triclinic
_symmetry_space_group_name_H-M   'P -1'
_symmetry_Int_Tables_number      2
_space_group_name_Hall           '-P 1'
loop_
_symmetry_equiv_pos_site_id
_symmetry_equiv_pos_as_xyz
1 x,y,z
2 -x,-y,-z
_cell_length_a                   7.8674(2)
_cell_length_b                   9.2190(3)
_cell_length_c                   11.3987(3)
_cell_angle_alpha                72.462(2)
_cell_angle_beta                 88.647(2)
_cell_angle_gamma                81.174(2)
_cell_volume                     778.754
_exptl_crystal_colour            yellow
_exptl_crystal_description       block
_cell_formula_units_Z            2
loop_
_atom_site_label
_atom_site_type_symbol
_atom_site_fract_x
_atom_site_fract_y
_atom_site_fract_z
S1 S 0.39455(5) 0.25960(4) 0.03583(3)
O1 O 0.76624(19) 0.03971(15) 0.56815(11)
N1 N 0.71942(17) 0.14450(16) 0.12698(12)
H1 H 0.8163 0.0888 0.1229
N2 N 0.92510(18) 0.01236(18) -0.13620(14)
N3 N 0.49889(18) 0.16336(17) -0.27201(12)
H2 H 0.4096 0.1923 -0.3203
H3 H 0.5937 0.1221 -0.2957
N4 N 0.15708(18) 0.30074(16) -0.28297(12)
C1 C 0.8047(3) -0.1219(2) 0.58729(19)
H4 H 0.8335 -0.1735 0.6726
H5 H 0.9004 -0.1432 0.5380
H6 H 0.7062 -0.1580 0.5642
C2 C 0.7226(2) 0.13430(19) 0.45165(14)
C3 C 0.74163(19) 0.08748(17) 0.34663(14)
H7 H 0.7865 -0.0138 0.3521
C4 C 0.69263(19) 0.19422(18) 0.23302(13)
C5 C 0.6267(2) 0.34545(18) 0.22367(15)
H8 H 0.5942 0.4162 0.1473
C6 C 0.6098(2) 0.39010(19) 0.32988(16)
H9 H 0.5656 0.4915 0.3245
C7 C 0.6577(2) 0.2860(2) 0.44292(15)
H10 H 0.6467 0.3173 0.5134
C8 C 0.60658(18) 0.17672(16) 0.03182(13)
C9 C 0.63793(18) 0.14123(16) -0.07704(13)
C10 C 0.49015(18) 0.18265(16) -0.15902(13)
C11 C 0.34646(19) 0.24702(16) -0.10985(13)
C12 C 0.79866(19) 0.07000(17) -0.10749(13)
C13 C 0.17844(19) 0.30929(16) -0.16802(14)
C14 C 0.0051(2) 0.3625(2) -0.34058(18)
H11 H -0.0100 0.3559 -0.4194
C15 C -0.1302(2) 0.4352(2) -0.2905(2)
H12 H -0.2322 0.4796 -0.3353
C16 C -0.1104(2) 0.4405(2) -0.1726(2)
H13 H -0.2004 0.4871 -0.1357
C17 C 0.0435(2) 0.3764(2) -0.10899(18)
H14 H 0.0578 0.3775 -0.0285
loop_
_geom_bond_atom_site_label_1
_geom_bond_atom_site_label_2
_geom_bond_site_symmetry_1
_geom_bond_site_symmetry_2
S1 C8 1_555 1_555
O1 C1 1_555 1_555
N1 H1 1_555 1_555
N2 C12 1_555 1_555
N3 H2 1_555 1_555
H3 N3 1_555 1_555
N4 C13 1_555 1_555
C1 H4 1_555 1_555
H5 C1 1_555 1_555
H6 C1 1_555 1_555
C2 O1 1_555 1_555
C3 C2 1_555 1_555
H7 C3 1_555 1_555
C4 N1 1_555 1_555
C5 C4 1_555 1_555
H8 C5 1_555 1_555
C6 C5 1_555 1_555
H9 C6 1_555 1_555
C7 C2 1_555 1_555
H10 C7 1_555 1_555
C8 N1 1_555 1_555
C9 C8 1_555 1_555
C10 N3 1_555 1_555
C11 S1 1_555 1_555
C12 C9 1_555 1_555
C13 C11 1_555 1_555
C14 N4 1_555 1_555
H11 C14 1_555 1_555
C15 C14 1_555 1_555
H12 C15 1_555 1_555
C16 C15 1_555 1_555
H13 C16 1_555 1_555
C17 C13 1_555 1_555
H14 C17 1_555 1_555
C3 C4 1_555 1_555
C6 C7 1_555 1_555
C9 C10 1_555 1_555
C10 C11 1_555 1_555
C16 C17 1_555 1_555

#END
