
#######################################################################
#
#                 Cambridge Crystallographic Data Centre
#                                CCDC 
#
#######################################################################
#
# If this CIF has been generated from an entry in the Cambridge 
# Structural Database, then it will include bibliographic, chemical, 
# crystal, experimental, refinement or atomic coordinate data resulting 
# from the CCDC's data processing and validation procedures.
#
#######################################################################

data_NIPVOA
_chemical_formula_moiety         'C10 H8 Cl1 N4 P1'
_chemical_name_systematic        
3-chloro-2-(pyridin-2-yl)-2,3-dihydro[1,2,4,3]triazaphospholo[4,5-a]pyridine
_symmetry_cell_setting           monoclinic
_symmetry_space_group_name_H-M   'P 21/n'
_symmetry_Int_Tables_number      14
_space_group_name_Hall           '-P 2yn'
loop_
_symmetry_equiv_pos_site_id
_symmetry_equiv_pos_as_xyz
1 x,y,z
2 1/2-x,1/2+y,1/2-z
3 -x,-y,-z
4 1/2+x,1/2-y,1/2+z
_cell_length_a                   7.7133(4)
_cell_length_b                   9.2557(4)
_cell_length_c                   15.0165(7)
_cell_angle_alpha                90
_cell_angle_beta                 92.8330(10)
_cell_angle_gamma                90
_cell_volume                     1070.75
_exptl_crystal_colour            yellow
_exptl_crystal_description       prism
_cell_formula_units_Z            4
loop_
_atom_site_label
_atom_site_type_symbol
_atom_site_fract_x
_atom_site_fract_y
_atom_site_fract_z
P1 P 0.58386(3) 0.73311(3) 0.47243(2)
Cl1 Cl 0.55472(3) 0.90943(3) 0.37212(2)
N1 N 0.85072(10) 0.59305(8) 0.40850(5)
N2 N 0.67027(10) 0.59853(8) 0.41356(5)
N3 N 0.79139(10) 0.76582(9) 0.51174(5)
N4 N 0.39758(10) 0.53710(9) 0.35946(6)
C1 C 0.91402(12) 0.68800(10) 0.46563(6)
C2 C 1.09418(12) 0.71827(10) 0.48405(6)
H1 H 1.1806 0.6688 0.4530
C3 C 1.13934(12) 0.81870(10) 0.54661(6)
H2 H 1.2587 0.8396 0.5590
C4 C 1.01098(13) 0.89408(10) 0.59448(6)
H3 H 1.0456 0.9620 0.6393
C5 C 0.84096(12) 0.86840(10) 0.57577(6)
H4 H 0.7554 0.9201 0.6062
C6 C 0.56663(11) 0.50707(10) 0.35900(6)
C7 C 0.63712(13) 0.39392(10) 0.31124(6)
H5 H 0.7588 0.3781 0.3116
C8 C 0.52116(14) 0.30556(11) 0.26315(6)
H6 H 0.5627 0.2258 0.2306
C9 C 0.34389(14) 0.33403(11) 0.26277(6)
H7 H 0.2630 0.2750 0.2298
C10 C 0.28854(13) 0.45078(11) 0.31169(7)
H8 H 0.1677 0.4706 0.3114
loop_
_geom_bond_atom_site_label_1
_geom_bond_atom_site_label_2
_geom_bond_site_symmetry_1
_geom_bond_site_symmetry_2
P1 Cl1 1_555 1_555
N1 N2 1_555 1_555
N2 P1 1_555 1_555
N3 P1 1_555 1_555
N4 C6 1_555 1_555
C1 N1 1_555 1_555
C2 C1 1_555 1_555
H1 C2 1_555 1_555
C3 C2 1_555 1_555
H2 C3 1_555 1_555
C4 C3 1_555 1_555
H3 C4 1_555 1_555
C5 N3 1_555 1_555
H4 C5 1_555 1_555
C6 N2 1_555 1_555
C7 C6 1_555 1_555
H5 C7 1_555 1_555
C8 C7 1_555 1_555
H6 C8 1_555 1_555
C9 C8 1_555 1_555
H7 C9 1_555 1_555
C10 N4 1_555 1_555
H8 C10 1_555 1_555
N3 C1 1_555 1_555
C4 C5 1_555 1_555
C9 C10 1_555 1_555

#END
