
#######################################################################
#
#                 Cambridge Crystallographic Data Centre
#                                CCDC 
#
#######################################################################
#
# If this CIF has been generated from an entry in the Cambridge 
# Structural Database, then it will include bibliographic, chemical, 
# crystal, experimental, refinement or atomic coordinate data resulting 
# from the CCDC's data processing and validation procedures.
#
#######################################################################

data_NIQCOF01
_chemical_formula_moiety         'C8 H6 Br2 S6 1+,I3 1-'
_chemical_name_systematic        
"4,5-dibromo-4',5'-bis(methylsulfanyl)tetrathiafulvalenium tri-iodide"
_symmetry_cell_setting           orthorhombic
_symmetry_space_group_name_H-M   'C m c m'
_symmetry_Int_Tables_number      63
_space_group_name_Hall           '-C 2n 2'
loop_
_symmetry_equiv_pos_site_id
_symmetry_equiv_pos_as_xyz
1 x,y,z
2 1/2+x,1/2+y,z
3 x,y,1/2-z
4 x,-y,1/2+z
5 -x,y,z
6 1/2+x,1/2+y,1/2-z
7 1/2+x,1/2-y,1/2+z
8 1/2-x,1/2+y,z
9 -x,-y,-z
10 1/2-x,1/2-y,-z
11 -x,-y,1/2+z
12 -x,y,1/2-z
13 x,-y,-z
14 1/2-x,1/2-y,1/2+z
15 1/2-x,1/2+y,1/2-z
16 1/2+x,1/2-y,-z
_cell_length_a                   7.098(1)
_cell_length_b                   16.255(1)
_cell_length_c                   16.541(1)
_cell_angle_alpha                90
_cell_angle_beta                 90
_cell_angle_gamma                90
_cell_volume                     1908.47
_exptl_crystal_colour            black
_exptl_crystal_description       plate
_cell_formula_units_Z            4
loop_
_atom_site_label
_atom_site_type_symbol
_atom_site_fract_x
_atom_site_fract_y
_atom_site_fract_z
I1 I 0.5000 0.14916(2) 0.2500
I2 I 0.5000 0.14591(2) 0.42651(2)
I2B I 0.5000 0.14591(2) 0.07349(2)
Br1 Br 0.5000 0.93638(2) 0.35518(2)
S1 S 0.5000 0.74660(6) 0.33873(6)
S2 S 0.5000 0.54729(6) 0.33803(6)
S3 S 0.5000 0.35965(6) 0.34632(6)
C1 C 0.5000 0.6893(3) 0.2500
C2 C 0.5000 0.8417(2) 0.2902(2)
C3 C 0.5000 0.6048(3) 0.2500
C4 C 0.5000 0.4517(2) 0.2913(2)
C5 C 0.5000 0.3963(3) 0.4492(3)
H1 H 0.3798(50) 0.4276(22) 0.4592(21)
H2 H 0.5000 0.3513(38) 0.4809(48)
S1B S 0.5000 0.74660(6) 0.16127(6)
C2B C 0.5000 0.8417(2) 0.2098(2)
Br1B Br 0.5000 0.93638(2) 0.14482(2)
H1D H 0.6202(50) 0.4276(22) 0.4592(21)
C4B C 0.5000 0.4517(2) 0.2087(2)
S2B S 0.5000 0.54729(6) 0.16197(6)
S3B S 0.5000 0.35965(6) 0.15368(6)
C5B C 0.5000 0.3963(3) 0.0508(3)
H1B H 0.3798(50) 0.4276(22) 0.0408(21)
H1K H 0.6202(50) 0.4276(22) 0.0408(21)
H2B H 0.5000 0.3513(38) 0.0191(48)
loop_
_geom_bond_atom_site_label_1
_geom_bond_atom_site_label_2
_geom_bond_site_symmetry_1
_geom_bond_site_symmetry_2
I1 I2 1_555 1_555
Br1 C2 1_555 1_555
S1 C1 1_555 1_555
S2 C3 1_555 1_555
S3 C4 1_555 1_555
C1 C3 1_555 1_555
C2 S1 1_555 1_555
C3 S2B 1_555 1_555
C4 S2 1_555 1_555
C5 S3 1_555 1_555
H1 C5 1_555 1_555
H2 C5 1_555 1_555
I2B I1 1_555 1_555
S1B C1 1_555 1_555
C2B C2 1_555 1_555
Br1B C2B 1_555 1_555
H1D C5 1_555 1_555
C4B C4 1_555 1_555
S2B C4B 1_555 1_555
S3B C4B 1_555 1_555
C5B S3B 1_555 1_555
H1B C5B 1_555 1_555
H1K C5B 1_555 1_555
H2B C5B 1_555 1_555
S1B C2B 1_555 1_555

#END
