
#######################################################################
#
#                 Cambridge Crystallographic Data Centre
#                                CCDC 
#
#######################################################################
#
# If this CIF has been generated from an entry in the Cambridge 
# Structural Database, then it will include bibliographic, chemical, 
# crystal, experimental, refinement or atomic coordinate data resulting 
# from the CCDC's data processing and validation procedures.
#
#######################################################################

data_NIQMIM
_chemical_formula_moiety         'C17 H24 O6'
_chemical_name_systematic        
'methyl 6a-hydroxy-3a,4,7-trimethyl-2,9-dioxodecahydro-2H-naphtho[8a,1-b]furan-7-carboxylate'
_symmetry_cell_setting           orthorhombic
_symmetry_space_group_name_H-M   'P 21 21 21'
_symmetry_Int_Tables_number      19
_space_group_name_Hall           'P 2ac 2ab'
loop_
_symmetry_equiv_pos_site_id
_symmetry_equiv_pos_as_xyz
1 x,y,z
2 1/2-x,-y,1/2+z
3 1/2+x,1/2-y,-z
4 -x,1/2+y,1/2-z
_cell_length_a                   7.20959(14)
_cell_length_b                   11.9357(2)
_cell_length_c                   18.4328(3)
_cell_angle_alpha                90
_cell_angle_beta                 90
_cell_angle_gamma                90
_cell_volume                     1586.17
_exptl_crystal_colour            colorless
_exptl_crystal_description       block
_cell_formula_units_Z            4
loop_
_atom_site_label
_atom_site_type_symbol
_atom_site_fract_x
_atom_site_fract_y
_atom_site_fract_z
O1 O 0.55696(19) 0.33099(12) 0.59037(8)
O2 O 0.3790(2) 0.55666(12) 0.51449(9)
O3 O 0.1151(2) 0.64887(11) 0.53419(8)
O4 O -0.04659(16) 0.33674(9) 0.64226(7)
H1 H -0.1564 0.3348 0.6307
O5 O 0.27008(17) 0.56761(10) 0.67289(6)
O6 O 0.4012(2) 0.70767(13) 0.73315(11)
C1 C 0.3255(2) 0.36785(14) 0.67928(9)
H2 H 0.4306 0.3854 0.7101
H3 H 0.2733 0.2977 0.6962
C2 C 0.3951(2) 0.35128(13) 0.60248(10)
C3 C 0.2492(2) 0.35170(14) 0.54474(8)
H4 H 0.1811 0.2817 0.5469
H5 H 0.3090 0.3558 0.4977
C4 C 0.1111(2) 0.44990(13) 0.55182(8)
C5 C 0.0246(2) 0.44779(12) 0.63081(8)
C6 C -0.1304(2) 0.53247(14) 0.64289(9)
H6 H -0.0833 0.6076 0.6349
H7 H -0.2294 0.5190 0.6083
C7 C -0.2065(3) 0.52328(15) 0.71973(11)
H8 H -0.3099 0.5745 0.7254
H9 H -0.2521 0.4478 0.7278
C8 C -0.0591(3) 0.55034(14) 0.77587(9)
H10 H -0.0179 0.6271 0.7662
C9 C 0.1160(3) 0.47412(14) 0.76972(9)
C10 C 0.1793(2) 0.46005(13) 0.68856(9)
C11 C 0.2797(3) 0.54467(19) 0.79798(10)
H11 H 0.2435 0.5890 0.8397
H12 H 0.3839 0.4974 0.8112
C12 C 0.3267(3) 0.61793(16) 0.73480(12)
C13 C -0.1433(3) 0.5504(2) 0.85191(11)
H13 H -0.2405 0.6053 0.8543
H14 H -0.0490 0.5684 0.8868
H15 H -0.1933 0.4777 0.8624
C14 C 0.2190(3) 0.55686(15) 0.53268(9)
C15 C -0.0414(3) 0.43593(17) 0.49441(9)
H16 H 0.0145 0.4263 0.4475
H17 H -0.1187 0.5014 0.4940
H18 H -0.1152 0.3714 0.5058
C16 C 0.0924(3) 0.36298(19) 0.81027(10)
H19 H 0.0705 0.3776 0.8608
H20 H 0.2031 0.3190 0.8051
H21 H -0.0110 0.3227 0.7904
C17 C 0.2128(3) 0.75178(17) 0.52012(16)
H22 H 0.2647 0.7496 0.4722
H23 H 0.3106 0.7607 0.5550
H24 H 0.1283 0.8137 0.5238
loop_
_geom_bond_atom_site_label_1
_geom_bond_atom_site_label_2
_geom_bond_site_symmetry_1
_geom_bond_site_symmetry_2
O1 C2 1_555 1_555
O2 C14 1_555 1_555
O3 C14 1_555 1_555
O4 H1 1_555 1_555
O5 C10 1_555 1_555
O6 C12 1_555 1_555
C1 H2 1_555 1_555
H3 C1 1_555 1_555
C2 C1 1_555 1_555
C3 C2 1_555 1_555
H4 C3 1_555 1_555
H5 C3 1_555 1_555
C4 C3 1_555 1_555
C5 O4 1_555 1_555
C6 C5 1_555 1_555
H6 C6 1_555 1_555
H7 C6 1_555 1_555
C7 C6 1_555 1_555
H8 C7 1_555 1_555
H9 C7 1_555 1_555
C8 C7 1_555 1_555
H10 C8 1_555 1_555
C9 C8 1_555 1_555
C10 C1 1_555 1_555
C11 C9 1_555 1_555
H11 C11 1_555 1_555
H12 C11 1_555 1_555
C12 O5 1_555 1_555
C13 C8 1_555 1_555
H13 C13 1_555 1_555
H14 C13 1_555 1_555
H15 C13 1_555 1_555
C14 C4 1_555 1_555
C15 C4 1_555 1_555
H16 C15 1_555 1_555
H17 C15 1_555 1_555
H18 C15 1_555 1_555
C16 C9 1_555 1_555
H19 C16 1_555 1_555
H20 C16 1_555 1_555
H21 C16 1_555 1_555
C17 O3 1_555 1_555
H22 C17 1_555 1_555
H23 C17 1_555 1_555
H24 C17 1_555 1_555
C4 C5 1_555 1_555
C5 C10 1_555 1_555
C9 C10 1_555 1_555
C11 C12 1_555 1_555

#END
