
#######################################################################
#
#                 Cambridge Crystallographic Data Centre
#                                CCDC 
#
#######################################################################
#
# If this CIF has been generated from an entry in the Cambridge 
# Structural Database, then it will include bibliographic, chemical, 
# crystal, experimental, refinement or atomic coordinate data resulting 
# from the CCDC's data processing and validation procedures.
#
#######################################################################

data_NIQREL
_chemical_formula_moiety         'C18 H25 N3 O2 S1'
_chemical_name_systematic        
3-n-Butyl-2-morpholino-5,6,7,8-tetrahydrobenzothieno(2,3-d)pyrimidin-4(3H)-one
_symmetry_cell_setting           rhombohedral
_symmetry_space_group_name_H-M   'R -3'
_symmetry_Int_Tables_number      148
_space_group_name_Hall           '-R 3'
loop_
_symmetry_equiv_pos_site_id
_symmetry_equiv_pos_as_xyz
1 x,y,z
2 -y,x-y,z
3 -x+y,-x,z
4 2/3+x,1/3+y,1/3+z
5 2/3-y,1/3+x-y,1/3+z
6 2/3-x+y,1/3-x,1/3+z
7 1/3+x,2/3+y,2/3+z
8 1/3-y,2/3+x-y,2/3+z
9 1/3-x+y,2/3-x,2/3+z
10 -x,-y,-z
11 y,-x+y,-z
12 x-y,x,-z
13 1/3-x,2/3-y,2/3-z
14 1/3+y,2/3-x+y,2/3-z
15 1/3+x-y,2/3+x,2/3-z
16 2/3-x,1/3-y,1/3-z
17 2/3+y,1/3-x+y,1/3-z
18 2/3+x-y,1/3+x,1/3-z
_cell_length_a                   27.2898(17)
_cell_length_b                   27.2898(17)
_cell_length_c                   13.3909(9)
_cell_angle_alpha                90
_cell_angle_beta                 90
_cell_angle_gamma                120.00
_cell_volume                     8636.57
_exptl_crystal_colour            colorless
_exptl_crystal_description       block
_chemical_melting_point          '391 K'
_cell_formula_units_Z            18
_exptl_crystal_recrystallization_method ethanol
loop_
_atom_site_label
_atom_site_type_symbol
_atom_site_fract_x
_atom_site_fract_y
_atom_site_fract_z
C1 C 0.79829(11) 0.00951(13) 0.7454(2)
C2 C 0.79786(18) -0.03694(15) 0.6850(3)
H1 H 0.7593 -0.0681 0.6790
H2 H 0.8199 -0.0508 0.7191
C3 C 0.8225(15) -0.0161(16) 0.581(3)
H5 H 0.8633 0.0077 0.5852
H6 H 0.8143 -0.0482 0.5385
C4 C 0.7974(14) 0.0170(9) 0.5349(10)
H7 H 0.7565 -0.0060 0.5345
H8 H 0.8102 0.0265 0.4664
C7 C 0.81499(16) 0.07103(17) 0.5938(2)
H13 H 0.8548 0.0976 0.5827
H14 H 0.7934 0.0884 0.5714
C8 C 0.80456(11) 0.05727(13) 0.7027(2)
C9 C 0.79202(11) 0.05670(11) 0.8863(2)
C10 C 0.79164(11) 0.00962(11) 0.8516(2)
C11 C 0.78892(13) -0.03079(13) 0.9234(2)
C12 C 0.78204(11) 0.03117(12) 1.0477(2)
C13 C 0.71695(14) 0.00271(13) 1.1876(2)
H17 H 0.7018 -0.0362 1.1662
H18 H 0.6924 0.0162 1.1625
C14 C 0.71963(17) 0.00613(15) 1.2990(3)
H19 H 0.6819 -0.0171 1.3261
H20 H 0.7430 -0.0088 1.3233
C15 C 0.79664(14) 0.09788(12) 1.2920(2)
H21 H 0.8223 0.0857 1.3165
H22 H 0.8107 0.1365 1.3142
C16 C 0.79615(12) 0.09645(11) 1.1808(2)
H23 H 0.7720 0.1102 1.1552
H24 H 0.8341 0.1206 1.1553
C17 C 0.8029(10) -0.0460(5) 1.1006(9)
H25 H 0.7883 -0.0437 1.1654
H26 H 0.7852 -0.0856 1.0823
C18 C 0.8634(10) -0.0230(9) 1.1084(16)
H27 H 0.8809 0.0176 1.1165
H28 H 0.8766 -0.0296 1.0453
C19 C 0.8844(15) -0.0440(10) 1.187(3)
H29 H 0.9240 -0.0314 1.1745
H30 H 0.8638 -0.0850 1.1855
C20 C 0.8790(12) -0.0248(9) 1.2894(15)
H31 H 0.8814 0.0114 1.2847
H32 H 0.9090 -0.0218 1.3311
H33 H 0.8432 -0.0518 1.3177
N1 N 0.78524(9) 0.06840(9) 0.98258(19)
N2 N 0.78663(10) -0.01536(10) 1.02424(18)
N3 N 0.77507(10) 0.03834(9) 1.14850(17)
O1 O 0.78962(12) -0.07423(10) 0.90511(17)
O2 O 0.74223(11) 0.06277(9) 1.33329(16)
S1 S 0.80114(4) 0.10249(3) 0.78967(6)
H3? H 0.7656 -0.0729 0.7045
H4? H 0.8319 -0.0385 0.6994
C5? C 0.7955(11) -0.0280(17) 0.573(3)
H9? H 0.8063 -0.0519 0.5368
H10? H 0.7570 -0.0389 0.5541
C6? C 0.8343(12) 0.0328(10) 0.5439(13)
H11? H 0.8341 0.0366 0.4719
H12? H 0.8727 0.0444 0.5646
H15? H 0.8439 0.1104 0.5854
H16? H 0.7806 0.0655 0.5623
C21? C 0.7750(15) -0.0584(12) 1.100(2)
H34? H 0.7499 -0.0954 1.0718
H35? H 0.7553 -0.0528 1.1554
C22? C 0.826(5) -0.058(4) 1.139(9)
H36? H 0.8151 -0.0818 1.1974
H37? H 0.8389 -0.0742 1.0887
C23? C 0.872(2) -0.0027(18) 1.165(4)
H38? H 0.8584 0.0159 1.2097
H39? H 0.8864 0.0202 1.1054
C24? C 0.921(3) -0.007(4) 1.217(10)
H40? H 0.9351 0.0195 1.2714
H41? H 0.9503 0.0021 1.1695
H42? H 0.9065 -0.0445 1.2416
loop_
_geom_bond_atom_site_label_1
_geom_bond_atom_site_label_2
_geom_bond_site_symmetry_1
_geom_bond_site_symmetry_2
C1 C2 1_555 1_555
C2 H1 1_555 1_555
H2 C2 1_555 1_555
C3 C2 1_555 1_555
H5 C3 1_555 1_555
H6 C3 1_555 1_555
C4 C3 1_555 1_555
H7 C4 1_555 1_555
H8 C4 1_555 1_555
C7 C4 1_555 1_555
H13 C7 1_555 1_555
H14 C7 1_555 1_555
C8 C1 1_555 1_555
C9 C10 1_555 1_555
C10 C1 1_555 1_555
C11 C10 1_555 1_555
C12 N1 1_555 1_555
C13 H17 1_555 1_555
H18 C13 1_555 1_555
C14 C13 1_555 1_555
H19 C14 1_555 1_555
H20 C14 1_555 1_555
C15 H21 1_555 1_555
H22 C15 1_555 1_555
C16 C15 1_555 1_555
H23 C16 1_555 1_555
H24 C16 1_555 1_555
C17 H25 1_555 1_555
H26 C17 1_555 1_555
C18 C17 1_555 1_555
H27 C18 1_555 1_555
H28 C18 1_555 1_555
C19 C18 1_555 1_555
H29 C19 1_555 1_555
H30 C19 1_555 1_555
C20 C19 1_555 1_555
H31 C20 1_555 1_555
H32 C20 1_555 1_555
H33 C20 1_555 1_555
N1 C9 1_555 1_555
N2 C11 1_555 1_555
N3 C12 1_555 1_555
O1 C11 1_555 1_555
O2 C14 1_555 1_555
S1 C8 1_555 1_555
C7 C8 1_555 1_555
C9 S1 1_555 1_555
C12 N2 1_555 1_555
C13 N3 1_555 1_555
C15 O2 1_555 1_555
C16 N3 1_555 1_555
C17 N2 1_555 1_555

#END
