
#######################################################################
#
#                 Cambridge Crystallographic Data Centre
#                                CCDC 
#
#######################################################################
#
# If this CIF has been generated from an entry in the Cambridge 
# Structural Database, then it will include bibliographic, chemical, 
# crystal, experimental, refinement or atomic coordinate data resulting 
# from the CCDC's data processing and validation procedures.
#
#######################################################################

data_NIQSEL
_chemical_formula_moiety         'C14 H10 N2 S1'
_chemical_name_systematic        6-(2-Thienyl)-2,2'-bipyridine
_symmetry_cell_setting           orthorhombic
_symmetry_space_group_name_H-M   'P n a 21'
_symmetry_Int_Tables_number      33
_space_group_name_Hall           'P 2c -2n'
loop_
_symmetry_equiv_pos_site_id
_symmetry_equiv_pos_as_xyz
1 x,y,z
2 -x,-y,1/2+z
3 1/2-x,1/2+y,1/2+z
4 1/2+x,1/2-y,z
_cell_length_a                   10.478(2)
_cell_length_b                   16.550(3)
_cell_length_c                   6.8570(10)
_cell_angle_alpha                90
_cell_angle_beta                 90
_cell_angle_gamma                90
_cell_volume                     1189.08
_exptl_crystal_colour            'pale yellow'
_exptl_crystal_description       needles
_cell_formula_units_Z            4
loop_
_atom_site_label
_atom_site_type_symbol
_atom_site_fract_x
_atom_site_fract_y
_atom_site_fract_z
S1 S 0.0965(1) 0.3257(1) 0.3213(2)
N1 N -0.4827(3) 0.3722(2) 0.1163(5)
N2 N -0.1672(3) 0.3779(2) 0.3274(5)
C1 C -0.5409(4) 0.3400(3) -0.0383(7)
C2 C -0.4804(4) 0.2973(2) -0.1838(8)
C3 C -0.3502(4) 0.2877(3) -0.1689(8)
C4 C -0.2862(4) 0.3203(2) -0.0123(7)
C5 C -0.3559(4) 0.3612(2) 0.1294(6)
C6 C -0.2929(4) 0.3959(2) 0.3060(7)
C7 C -0.3589(4) 0.4455(3) 0.4362(7)
C8 C -0.2933(4) 0.4764(3) 0.5970(6)
C9 C -0.1645(4) 0.4587(2) 0.6194(7)
C10 C -0.1047(4) 0.4101(2) 0.4814(5)
C11 C 0.0332(4) 0.3927(2) 0.4853(6)
C12 C 0.1281(4) 0.4273(2) 0.6029(6)
C13 C 0.2514(4) 0.3976(3) 0.5479(7)
C14 C 0.2473(5) 0.3426(3) 0.4029(7)
H1 H -0.6306(4) 0.3471(3) -0.0489(7)
H2 H -0.5267(4) 0.2752(2) -0.2903(8)
H3 H -0.3048(4) 0.2588(3) -0.2663(8)
H4 H -0.1962(4) 0.3150(2) -0.0012(7)
H5 H -0.4464(4) 0.4579(3) 0.4159(7)
H6 H -0.3363(4) 0.5091(3) 0.6900(6)
H7 H -0.1180(4) 0.4795(2) 0.7272(7)
H8 H 0.1127(4) 0.4650(2) 0.7046(6)
H9 H 0.3284(4) 0.4150(3) 0.6078(7)
H10 H 0.3207(5) 0.3163(3) 0.3520(7)
loop_
_geom_bond_atom_site_label_1
_geom_bond_atom_site_label_2
_geom_bond_site_symmetry_1
_geom_bond_site_symmetry_2
S1 C11 1_555 1_555
N1 C1 1_555 1_555
N2 C6 1_555 1_555
C1 C2 1_555 1_555
C2 C3 1_555 1_555
C3 C4 1_555 1_555
C4 C5 1_555 1_555
C5 N1 1_555 1_555
C6 C5 1_555 1_555
C7 C6 1_555 1_555
C8 C7 1_555 1_555
C9 C8 1_555 1_555
C10 N2 1_555 1_555
C11 C10 1_555 1_555
C12 C11 1_555 1_555
C13 C12 1_555 1_555
C14 S1 1_555 1_555
H1 C1 1_555 1_555
H2 C2 1_555 1_555
H3 C3 1_555 1_555
H4 C4 1_555 1_555
H5 C7 1_555 1_555
H6 C8 1_555 1_555
H7 C9 1_555 1_555
H8 C12 1_555 1_555
H9 C13 1_555 1_555
H10 C14 1_555 1_555
C9 C10 1_555 1_555
C13 C14 1_555 1_555

#END
