
#######################################################################
#
#                 Cambridge Crystallographic Data Centre
#                                CCDC 
#
#######################################################################
#
# If this CIF has been generated from an entry in the Cambridge 
# Structural Database, then it will include bibliographic, chemical, 
# crystal, experimental, refinement or atomic coordinate data resulting 
# from the CCDC's data processing and validation procedures.
#
#######################################################################

data_NIQVOZ
_chemical_formula_moiety         'C15 H16 N2 O3'
_chemical_name_systematic        
8-(4-Methoxybenzoyl)-2,3,6,7-tetrahydroimidazo(1,2-a)pyridin-5(1H)-one
_symmetry_cell_setting           triclinic
_symmetry_space_group_name_H-M   'P -1'
_symmetry_Int_Tables_number      2
_space_group_name_Hall           '-P 1'
loop_
_symmetry_equiv_pos_site_id
_symmetry_equiv_pos_as_xyz
1 x,y,z
2 -x,-y,-z
_cell_length_a                   7.1455(3)
_cell_length_b                   9.4356(3)
_cell_length_c                   10.5282(3)
_cell_angle_alpha                80.565(1)
_cell_angle_beta                 79.468(1)
_cell_angle_gamma                69.568(1)
_cell_volume                     650.096
_exptl_crystal_colour            colorless
_exptl_crystal_description       block
_chemical_melting_point          '474-475 K'
_cell_formula_units_Z            2
_exptl_crystal_recrystallization_method 'ethyl acetate'
loop_
_atom_site_label
_atom_site_type_symbol
_atom_site_fract_x
_atom_site_fract_y
_atom_site_fract_z
C1 C 0.8836(5) 1.0184(3) 0.1877(3)
H1 H 1.0187 0.9874 0.1403
H2 H 0.8321 1.1285 0.1832
C2 C 0.7469(4) 0.9591(3) 0.1340(2)
H3 H 0.6389 1.0419 0.0977
H4 H 0.8215 0.8928 0.0674
C3 C 0.4947(3) 0.8389(2) 0.2575(2)
C4 C 0.4227(4) 0.7760(3) 0.3901(2)
H5 H 0.3499 0.7095 0.3810
H6 H 0.3292 0.8594 0.4362
C5 C 0.5916(4) 0.6877(3) 0.4709(2)
H7 H 0.6686 0.5921 0.4358
H8 H 0.5341 0.6649 0.5595
C6 C 0.7309(3) 0.7784(2) 0.4708(2)
C7 C 0.7621(3) 0.8663(2) 0.3560(2)
C8 C 0.8298(3) 0.7768(3) 0.5773(2)
C9 C 0.8096(3) 0.6717(2) 0.6990(2)
C10 C 0.8432(3) 0.5168(3) 0.6992(2)
H9 H 0.8755 0.4751 0.6207
C11 C 0.8293(3) 0.4245(3) 0.8146(2)
H10 H 0.8545 0.3211 0.8133
C12 C 0.7775(3) 0.4859(3) 0.9326(2)
C13 C 0.7434(4) 0.6399(3) 0.9343(2)
H11 H 0.7079 0.6820 1.0127
C14 C 0.7629(4) 0.7300(3) 0.8180(2)
H12 H 0.7441 0.8324 0.8197
C15 C 0.7128(4) 0.4473(3) 1.1643(2)
H13 H 0.7077 0.3675 1.2329
H14 H 0.5835 0.5257 1.1671
H15 H 0.8128 0.4891 1.1751
N1 N 0.8829(3) 0.9503(2) 0.32159(18)
H16 H 0.9539 0.9629 0.3739
N2 N 0.6675(3) 0.8741(2) 0.24873(17)
O1 O 0.4075(3) 0.8629(2) 0.16296(16)
O2 O 0.9317(3) 0.8615(2) 0.57509(16)
O3 O 0.7638(3) 0.38697(19) 1.04175(16)
loop_
_geom_bond_atom_site_label_1
_geom_bond_atom_site_label_2
_geom_bond_site_symmetry_1
_geom_bond_site_symmetry_2
C1 H1 1_555 1_555
H2 C1 1_555 1_555
C2 C1 1_555 1_555
H3 C2 1_555 1_555
H4 C2 1_555 1_555
C3 C4 1_555 1_555
C4 H5 1_555 1_555
H6 C4 1_555 1_555
C5 C4 1_555 1_555
H7 C5 1_555 1_555
H8 C5 1_555 1_555
C6 C5 1_555 1_555
C7 C6 1_555 1_555
C8 C6 1_555 1_555
C9 C8 1_555 1_555
C10 C9 1_555 1_555
H9 C10 1_555 1_555
C11 C10 1_555 1_555
H10 C11 1_555 1_555
C12 C11 1_555 1_555
C13 C12 1_555 1_555
H11 C13 1_555 1_555
C14 C9 1_555 1_555
H12 C14 1_555 1_555
C15 H13 1_555 1_555
H14 C15 1_555 1_555
H15 C15 1_555 1_555
N1 C1 1_555 1_555
H16 N1 1_555 1_555
N2 C2 1_555 1_555
O1 C3 1_555 1_555
O2 C8 1_555 1_555
O3 C12 1_555 1_555
C3 N2 1_555 1_555
C7 N1 1_555 1_555
C7 N2 1_555 1_555
C13 C14 1_555 1_555
C15 O3 1_555 1_555

#END
