
#######################################################################
#
#                 Cambridge Crystallographic Data Centre
#                                CCDC 
#
#######################################################################
#
# If this CIF has been generated from an entry in the Cambridge 
# Structural Database, then it will include bibliographic, chemical, 
# crystal, experimental, refinement or atomic coordinate data resulting 
# from the CCDC's data processing and validation procedures.
#
#######################################################################

data_NIRFEC
_chemical_formula_moiety         'C15 H10 Cl1 N1 O1'
_chemical_name_systematic        
3-[chloro(phenyl)methylidene]-2,3-dihydro-1H-isoindol-1-one
_symmetry_cell_setting           monoclinic
_symmetry_space_group_name_H-M   'P 21/c'
_symmetry_Int_Tables_number      14
_space_group_name_Hall           '-P 2ybc'
loop_
_symmetry_equiv_pos_site_id
_symmetry_equiv_pos_as_xyz
1 x,y,z
2 -x,1/2+y,1/2-z
3 -x,-y,-z
4 x,1/2-y,1/2+z
_cell_length_a                   5.1777(2)
_cell_length_b                   20.3335(7)
_cell_length_c                   11.7701(5)
_cell_angle_alpha                90
_cell_angle_beta                 102.0932(15)
_cell_angle_gamma                90
_cell_volume                     1211.67
_exptl_crystal_colour            colorless
_exptl_crystal_description       rod
_cell_formula_units_Z            4
loop_
_atom_site_label
_atom_site_type_symbol
_atom_site_fract_x
_atom_site_fract_y
_atom_site_fract_z
Cl1 Cl -0.48771(10) 0.30963(2) 0.41112(4)
C1 C -0.2182(3) 0.31103(9) 0.52820(15)
C2 C -0.1041(3) 0.24617(8) 0.56818(16)
C3 C -0.1402(4) 0.22094(9) 0.67327(17)
H1 H -0.240396 0.244708 0.717265
C4 C -0.0305(4) 0.16128(9) 0.71404(18)
H2 H -0.055618 0.144729 0.785503
C5 C 0.1157(4) 0.12615(10) 0.64977(19)
H3 H 0.192776 0.085914 0.678011
C6 C 0.1491(4) 0.14979(10) 0.5444(2)
H4 H 0.246387 0.125253 0.500184
C7 C 0.0396(4) 0.20985(10) 0.50293(18)
H5 H 0.062894 0.225833 0.430807
C8 C -0.1403(3) 0.36931(9) 0.57562(16)
C9 C 0.0953(3) 0.38545(9) 0.66607(16)
C10 C 0.3033(4) 0.34786(9) 0.72636(17)
H6 H 0.308223 0.302160 0.714913
C11 C 0.5028(4) 0.37923(10) 0.80350(18)
H7 H 0.644259 0.354294 0.845133
C12 C 0.4996(4) 0.44697(10) 0.82122(18)
H8 H 0.637548 0.466932 0.874758
C13 C 0.2946(4) 0.48515(10) 0.76055(18)
H9 H 0.291462 0.530928 0.771369
C14 C 0.0945(4) 0.45346(9) 0.68342(16)
C15 C -0.1450(4) 0.48113(9) 0.60665(16)
N1 N -0.2700(3) 0.42927(7) 0.54458(14)
H10 H -0.422(4) 0.4332(10) 0.4966(18)
O1 O -0.2203(3) 0.53852(6) 0.59843(12)
loop_
_geom_bond_atom_site_label_1
_geom_bond_atom_site_label_2
_geom_bond_site_symmetry_1
_geom_bond_site_symmetry_2
Cl1 C1 1_555 1_555
C1 C2 1_555 1_555
C2 C3 1_555 1_555
C3 H1 1_555 1_555
C4 C3 1_555 1_555
H2 C4 1_555 1_555
C5 C4 1_555 1_555
H3 C5 1_555 1_555
C6 C5 1_555 1_555
H4 C6 1_555 1_555
C7 C2 1_555 1_555
H5 C7 1_555 1_555
C8 C1 1_555 1_555
C9 C8 1_555 1_555
C10 C9 1_555 1_555
H6 C10 1_555 1_555
C11 C10 1_555 1_555
H7 C11 1_555 1_555
C12 C11 1_555 1_555
H8 C12 1_555 1_555
C13 C12 1_555 1_555
H9 C13 1_555 1_555
C14 C9 1_555 1_555
C15 C14 1_555 1_555
N1 C8 1_555 1_555
H10 N1 1_555 1_555
O1 C15 1_555 1_555
C6 C7 1_555 1_555
C13 C14 1_555 1_555
C15 N1 1_555 1_555

#END
