
#######################################################################
#
#                 Cambridge Crystallographic Data Centre
#                                CCDC 
#
#######################################################################
#
# If this CIF has been generated from an entry in the Cambridge 
# Structural Database, then it will include bibliographic, chemical, 
# crystal, experimental, refinement or atomic coordinate data resulting 
# from the CCDC's data processing and validation procedures.
#
#######################################################################

data_NIRSIT
_chemical_formula_moiety         'C24 H18 Br2 F6 N2 O4'
_chemical_name_systematic        
'ethyl 3-(4-bromobenzene-1-carbonyl)-1-[4-(4-bromophenyl)-1,1,1-trifluoro-4-oxobutan-2-yl]-4-(trifluoromethyl)-4,5-dihydro-1H-pyrazole-5-carboxylate'
_symmetry_cell_setting           triclinic
_symmetry_space_group_name_H-M   'P -1'
_symmetry_Int_Tables_number      2
_space_group_name_Hall           '-P 1'
loop_
_symmetry_equiv_pos_site_id
_symmetry_equiv_pos_as_xyz
1 x,y,z
2 -x,-y,-z
_cell_length_a                   8.9225(2)
_cell_length_b                   9.8185(2)
_cell_length_c                   15.5306(3)
_cell_angle_alpha                104.236(2)
_cell_angle_beta                 93.484(2)
_cell_angle_gamma                92.849(2)
_cell_volume                     1313.41
_exptl_crystal_colour            colorless
_exptl_crystal_description       block
_cell_formula_units_Z            2
loop_
_atom_site_label
_atom_site_type_symbol
_atom_site_fract_x
_atom_site_fract_y
_atom_site_fract_z
Br1 Br 0.98840(8) -0.22514(7) 0.41712(4)
Br2 Br 0.55908(8) 0.86227(7) 0.59784(4)
F1 F 0.5731(3) 0.4696(2) 0.1465(2)
F2 F 0.4330(3) 0.3902(3) 0.0257(2)
F3 F 0.6657(3) 0.3524(3) 0.03081(19)
F4 F -0.0190(3) 0.3571(3) 0.0414(2)
F5 F 0.1639(3) 0.4919(2) 0.1133(2)
F6 F -0.0409(4) 0.4729(3) 0.1748(3)
O1 O 0.5214(3) -0.0489(2) 0.10526(16)
O2 O 0.1689(3) 0.0001(2) 0.14864(16)
O3 O 0.1710(3) -0.0423(3) 0.00004(17)
O4 O 0.0417(4) 0.3709(4) 0.3448(2)
N1 N 0.3549(3) 0.3131(3) 0.22488(17)
N2 N 0.3642(3) 0.2311(2) 0.14208(17)
C1 C 0.3815(4) 0.5885(4) 0.3642(2)
H1 H 0.398571 0.570553 0.304069
C2 C 0.4663(5) 0.6947(4) 0.4247(3)
H2 H 0.538388 0.750255 0.405764
C3 C 0.4425(5) 0.7175(4) 0.5143(3)
C4 C 0.3349(6) 0.6374(5) 0.5428(3)
H3 H 0.321040 0.652390 0.603179
C5 C 0.2475(6) 0.5344(5) 0.4810(3)
H4 H 0.171895 0.482248 0.499801
C6 C 0.2714(4) 0.5084(4) 0.3918(2)
C7 C 0.1679(4) 0.4031(4) 0.3270(3)
C8 C 0.2163(4) 0.3360(3) 0.2380(2)
C9 C 0.1113(3) 0.2798(3) 0.1552(3)
H5 H 0.028130 0.219227 0.166737
C10 C 0.2167(3) 0.1940(3) 0.0912(2)
H6 H 0.215998 0.223858 0.035462
C11 C 0.5068(3) 0.2242(3) 0.1028(2)
H7 H 0.493914 0.148892 0.047653
C12 C 0.6298(3) 0.1842(3) 0.1613(2)
H8 H 0.625322 0.238615 0.222241
H9 H 0.727071 0.206489 0.141608
C13 C 0.6136(3) 0.0282(3) 0.1579(2)
C14 C 0.7117(3) -0.0284(3) 0.2200(2)
C15 C 0.8179(4) 0.0550(4) 0.2826(2)
H10 H 0.832964 0.150286 0.285000
C16 C 0.9010(5) -0.0020(4) 0.3409(3)
H11 H 0.972493 0.053808 0.382442
C17 C 0.8762(5) -0.1448(4) 0.3365(3)
C18 C 0.7760(5) -0.2298(4) 0.2742(3)
H12 H 0.763554 -0.325504 0.271150
C19 C 0.6932(4) -0.1723(3) 0.2158(2)
H13 H 0.624387 -0.229700 0.173246
C20 C 0.1822(3) 0.0352(3) 0.0729(2)
C21 C 0.1506(6) -0.1491(4) 0.1480(3)
H14 H 0.188988 -0.206431 0.094836
H15 H 0.045023 -0.177272 0.148614
C22 C 0.2354(6) -0.1677(5) 0.2280(4)
H16 H 0.340988 -0.149875 0.223427
H17 H 0.216454 -0.262440 0.233033
H18 H 0.204018 -0.102996 0.279719
C23 C 0.0528(4) 0.4005(4) 0.1208(3)
C24 C 0.5463(4) 0.3597(3) 0.0764(3)
loop_
_geom_bond_atom_site_label_1
_geom_bond_atom_site_label_2
_geom_bond_site_symmetry_1
_geom_bond_site_symmetry_2
Br1 C17 1_555 1_555
Br2 C3 1_555 1_555
F1 C24 1_555 1_555
F2 C24 1_555 1_555
F3 C24 1_555 1_555
F4 C23 1_555 1_555
F5 C23 1_555 1_555
F6 C23 1_555 1_555
O1 C13 1_555 1_555
O2 C20 1_555 1_555
O3 C20 1_555 1_555
O4 C7 1_555 1_555
N1 N2 1_555 1_555
N2 C10 1_555 1_555
C1 H1 1_555 1_555
C2 C1 1_555 1_555
H2 C2 1_555 1_555
C3 C2 1_555 1_555
C4 C3 1_555 1_555
H3 C4 1_555 1_555
C5 C4 1_555 1_555
H4 C5 1_555 1_555
C6 C1 1_555 1_555
C7 C6 1_555 1_555
C8 N1 1_555 1_555
C9 C8 1_555 1_555
H5 C9 1_555 1_555
C10 C9 1_555 1_555
H6 C10 1_555 1_555
C11 N2 1_555 1_555
H7 C11 1_555 1_555
C12 C11 1_555 1_555
H8 C12 1_555 1_555
H9 C12 1_555 1_555
C13 C12 1_555 1_555
C14 C13 1_555 1_555
C15 C14 1_555 1_555
H10 C15 1_555 1_555
C16 C15 1_555 1_555
H11 C16 1_555 1_555
C17 C16 1_555 1_555
C18 C17 1_555 1_555
H12 C18 1_555 1_555
C19 C14 1_555 1_555
H13 C19 1_555 1_555
C20 C10 1_555 1_555
C21 O2 1_555 1_555
H14 C21 1_555 1_555
H15 C21 1_555 1_555
C22 C21 1_555 1_555
H16 C22 1_555 1_555
H17 C22 1_555 1_555
H18 C22 1_555 1_555
C23 C9 1_555 1_555
C24 C11 1_555 1_555
C5 C6 1_555 1_555
C7 C8 1_555 1_555
C18 C19 1_555 1_555

#END
