
#######################################################################
#
#                 Cambridge Crystallographic Data Centre
#                                CCDC 
#
#######################################################################
#
# If this CIF has been generated from an entry in the Cambridge 
# Structural Database, then it will include bibliographic, chemical, 
# crystal, experimental, refinement or atomic coordinate data resulting 
# from the CCDC's data processing and validation procedures.
#
#######################################################################

data_NIRVUI
_chemical_formula_moiety         'C18 H18 F1 N1 O3'
_chemical_name_systematic        
'ethyl 2-fluoro-3-[(2-methoxyphenyl)amino]-3-phenylprop-2-enoate'
_symmetry_cell_setting           triclinic
_symmetry_space_group_name_H-M   'P -1'
_symmetry_Int_Tables_number      2
_space_group_name_Hall           '-P 1'
loop_
_symmetry_equiv_pos_site_id
_symmetry_equiv_pos_as_xyz
1 x,y,z
2 -x,-y,-z
_cell_length_a                   9.4105(6)
_cell_length_b                   9.9375(5)
_cell_length_c                   10.1318(4)
_cell_angle_alpha                111.400(4)
_cell_angle_beta                 115.234(5)
_cell_angle_gamma                92.243(4)
_cell_volume                     776.374
_exptl_crystal_colour            'light yellow'
_exptl_crystal_description       block
_cell_formula_units_Z            2
loop_
_atom_site_label
_atom_site_type_symbol
_atom_site_fract_x
_atom_site_fract_y
_atom_site_fract_z
F1 F 0.21282(13) 0.43198(10) 0.25117(11)
O1 O 0.27184(14) 0.18877(12) 0.44068(13)
O2 O 0.16512(14) 0.37924(12) 0.79531(13)
O3 O 0.23949(14) 0.16426(12) 0.19813(13)
N1 N 0.27931(17) 0.46568(14) 0.63991(15)
H1 H 0.248795 0.372731 0.613254
C1 C 0.24870(19) 0.65413(17) 0.53258(17)
C2 C 0.26378(19) 0.50191(17) 0.51787(18)
C3 C 0.27811(19) 0.51038(17) 0.88769(18)
C4 C 0.3335(2) 0.73368(18) 0.49046(19)
H2 H 0.404011 0.692119 0.454098
C5 C 0.1408(2) 0.71688(17) 0.58485(18)
H3 H 0.083160 0.664725 0.613176
C6 C 0.25436(19) 0.24244(17) 0.34473(18)
C7 C 0.3375(2) 0.59224(18) 1.05239(19)
H4 H 0.298021 0.559721 1.108177
C8 C 0.3388(2) 0.56032(17) 0.80438(18)
C9 C 0.4577(2) 0.68996(18) 0.88623(19)
H5 H 0.499009 0.722112 0.831450
C10 C 0.2071(2) 0.93661(18) 0.55443(19)
H6 H 0.193915 1.031085 0.562582
C11 C 0.4562(2) 0.72297(17) 1.13319(19)
H7 H 0.496055 0.777563 1.243274
C12 C 0.1204(2) 0.85717(18) 0.59419(18)
H8 H 0.047725 0.898053 0.627496
C13 C 0.5156(2) 0.77249(17) 1.05120(19)
H9 H 0.593905 0.860652 1.105908
C14 C 0.2409(2) 0.00769(17) 0.1569(2)
H10 H 0.166032 -0.037890 0.179443
H11 H 0.348101 -0.002773 0.219276
C15 C 0.3140(2) 0.87480(18) 0.50222(19)
H12 H 0.372321 0.927836 0.475201
C16 C 0.2480(2) 0.39571(17) 0.37732(18)
C17 C 0.1912(2) -0.06502(19) -0.0196(2)
H13 H 0.087835 -0.048575 -0.079359
H14 H 0.184074 -0.169814 -0.052925
H15 H 0.269767 -0.023169 -0.039183
C18 C 0.0968(2) 0.3233(2) 0.8720(2)
H16 H 0.019297 0.231139 0.794598
H17 H 0.044490 0.393970 0.916111
H18 H 0.180834 0.307081 0.956894
loop_
_geom_bond_atom_site_label_1
_geom_bond_atom_site_label_2
_geom_bond_site_symmetry_1
_geom_bond_site_symmetry_2
F1 C16 1_555 1_555
O1 C6 1_555 1_555
O2 C3 1_555 1_555
O3 C6 1_555 1_555
N1 H1 1_555 1_555
C1 C2 1_555 1_555
C2 N1 1_555 1_555
C3 C7 1_555 1_555
C4 C1 1_555 1_555
H2 C4 1_555 1_555
C5 C1 1_555 1_555
H3 C5 1_555 1_555
C6 C16 1_555 1_555
C7 H4 1_555 1_555
C8 N1 1_555 1_555
C9 C8 1_555 1_555
H5 C9 1_555 1_555
C10 H6 1_555 1_555
C11 C7 1_555 1_555
H7 C11 1_555 1_555
C12 C5 1_555 1_555
H8 C12 1_555 1_555
C13 C9 1_555 1_555
H9 C13 1_555 1_555
C14 O3 1_555 1_555
H10 C14 1_555 1_555
H11 C14 1_555 1_555
C15 C4 1_555 1_555
H12 C15 1_555 1_555
C16 C2 1_555 1_555
C17 C14 1_555 1_555
H13 C17 1_555 1_555
H14 C17 1_555 1_555
H15 C17 1_555 1_555
C18 O2 1_555 1_555
H16 C18 1_555 1_555
H17 C18 1_555 1_555
H18 C18 1_555 1_555
C3 C8 1_555 1_555
C10 C12 1_555 1_555
C10 C15 1_555 1_555
C11 C13 1_555 1_555

#END
