
#######################################################################
#
#                 Cambridge Crystallographic Data Centre
#                                CCDC 
#
#######################################################################
#
# If this CIF has been generated from an entry in the Cambridge 
# Structural Database, then it will include bibliographic, chemical, 
# crystal, experimental, refinement or atomic coordinate data resulting 
# from the CCDC's data processing and validation procedures.
#
#######################################################################

data_NISQIP
_chemical_formula_moiety         'C42 H32 N8'
_chemical_name_systematic        Octapyrrolylnaphthalene
_symmetry_cell_setting           tetragonal
_symmetry_space_group_name_H-M   'P 41 21 2'
_symmetry_Int_Tables_number      92
_space_group_name_Hall           'P 4abw 2nw'
loop_
_symmetry_equiv_pos_site_id
_symmetry_equiv_pos_as_xyz
1 x,y,z
2 1/2-y,1/2+x,1/4+z
3 1/2+x,1/2-y,3/4-z
4 -x,-y,1/2+z
5 y,x,-z
6 1/2+y,1/2-x,3/4+z
7 1/2-x,1/2+y,1/4-z
8 -y,-x,1/2-z
_cell_length_a                   11.5659(11)
_cell_length_b                   11.5659(11)
_cell_length_c                   25.680(9)
_cell_angle_alpha                90
_cell_angle_beta                 90
_cell_angle_gamma                90
_cell_volume                     3435.21
_exptl_crystal_colour            yellow
_exptl_crystal_description       block-shaped
_chemical_melting_point          'above 350 deg.C'
_cell_formula_units_Z            4
_exptl_crystal_recrystallization_method acetonitrile
loop_
_atom_site_label
_atom_site_type_symbol
_atom_site_fract_x
_atom_site_fract_y
_atom_site_fract_z
N1 N 0.76976(14) 0.11943(14) 0.20624(6)
N2 N 0.57621(14) 0.11502(14) 0.14319(6)
N3 N 0.38512(14) 0.25585(15) 0.16486(7)
N4 N 0.40400(14) 0.43038(15) 0.24130(6)
C1 C 0.6853(2) 0.2078(2) 0.21311(7)
C2 C 0.7480(2) 0.0020(2) 0.21102(8)
C3 C 0.8443(2) -0.0557(2) 0.19460(9)
C4 C 0.9267(2) 0.0277(2) 0.17856(9)
C5 C 0.8791(2) 0.1349(2) 0.18590(8)
C6 C 0.5864(2) 0.2009(2) 0.18261(7)
C7 C 0.4920(2) 0.0306(2) 0.13977(8)
C8 C 0.5107(2) -0.0301(2) 0.09494(8)
C9 C 0.6084(2) 0.0190(2) 0.06953(8)
C10 C 0.6475(2) 0.1082(2) 0.10017(8)
C11 C 0.4915(2) 0.2764(2) 0.19106(7)
C12 C 0.2840(2) 0.2200(2) 0.18859(10)
C13 C 0.2020(2) 0.2115(2) 0.15012(12)
C14 C 0.2530(2) 0.2435(2) 0.10232(11)
C15 C 0.3663(2) 0.2702(2) 0.11243(9)
C16 C 0.5027(2) 0.3671(2) 0.22540(7)
C17 C 0.3661(2) 0.4267(2) 0.29264(8)
C18 C 0.2589(2) 0.4770(2) 0.29438(9)
C19 C 0.2309(2) 0.5137(2) 0.24264(9)
C20 C 0.3209(2) 0.4827(2) 0.21086(8)
C21 C 0.6113(2) 0.3887(2) 0.250000
C22 C 0.6990(2) 0.3010(2) 0.250000
H1 H 0.6786(2) -0.0321(2) 0.22348(8)
H2 H 0.8542(2) -0.1372(2) 0.19402(9)
H3 H 1.0016(2) 0.0120(2) 0.16511(9)
H4 H 0.9150(2) 0.2068(2) 0.17836(8)
H5 H 0.4319(2) 0.0171(2) 0.16423(8)
H6 H 0.4663(2) -0.0938(2) 0.08286(8)
H7 H 0.6405(2) -0.0054(2) 0.03732(8)
H8 H 0.7121(2) 0.1565(2) 0.09304(8)
H9 H 0.2733(2) 0.2043(2) 0.22458(10)
H10 H 0.1240(2) 0.1881(2) 0.15488(12)
H11 H 0.2159(2) 0.2460(2) 0.06935(11)
H12 H 0.4220(2) 0.2944(2) 0.08754(9)
H13 H 0.4071(2) 0.3950(2) 0.32134(8)
H14 H 0.2118(2) 0.4859(2) 0.32442(9)
H15 H 0.1623(2) 0.5525(2) 0.23223(9)
H16 H 0.3252(2) 0.4951(2) 0.17434(8)
C16G C 0.6329(2) 0.4973(2) 0.27460(7)
N4G N 0.56962(15) 0.59600(14) 0.25870(6)
C17G C 0.5733(2) 0.6339(2) 0.20736(8)
C18G C 0.5230(2) 0.7411(2) 0.20562(9)
C19G C 0.4863(2) 0.7691(2) 0.25736(9)
C20G C 0.5173(2) 0.6791(2) 0.28914(8)
H16G H 0.5049(2) 0.6748(2) 0.32566(8)
H15G H 0.4475(2) 0.8377(2) 0.26777(9)
H14G H 0.5141(2) 0.7882(2) 0.17558(9)
H13G H 0.6050(2) 0.5929(2) 0.17866(8)
C11G C 0.7236(2) 0.5085(2) 0.30894(7)
N3G N 0.74415(15) 0.61488(14) 0.33514(7)
C12G C 0.7800(2) 0.7160(2) 0.31141(10)
C13G C 0.7885(2) 0.7980(2) 0.34988(12)
C14G C 0.7565(2) 0.7470(2) 0.39768(11)
C15G C 0.7298(2) 0.6337(2) 0.38757(9)
H12G H 0.7056(2) 0.5780(2) 0.41246(9)
H11G H 0.7540(2) 0.7841(2) 0.43065(11)
H10G H 0.8119(2) 0.8760(2) 0.34512(12)
H9G H 0.7957(2) 0.7267(2) 0.27542(10)
C6G C 0.7991(2) 0.4136(2) 0.31739(7)
N2G N 0.88498(14) 0.42379(14) 0.35681(6)
C7G C 0.9694(2) 0.5080(2) 0.36023(8)
C8G C 1.0301(2) 0.4893(2) 0.40506(8)
C9G C 0.9810(2) 0.3916(2) 0.43047(8)
C10G C 0.8918(2) 0.3525(2) 0.39983(8)
H8G H 0.8435(2) 0.2879(2) 0.40696(8)
H7G H 1.0054(2) 0.3595(2) 0.46268(8)
H6G H 1.0938(2) 0.5337(2) 0.41714(8)
H5G H 0.9829(2) 0.5681(2) 0.33577(8)
C1G C 0.7922(2) 0.3147(2) 0.28689(7)
N1G N 0.88057(14) 0.23024(14) 0.29376(6)
C2G C 0.9980(2) 0.2520(2) 0.28898(8)
C3G C 1.0557(2) 0.1557(2) 0.30540(9)
C4G C 0.9723(2) 0.0733(2) 0.32144(9)
C5G C 0.8651(2) 0.1209(2) 0.31410(8)
H4G H 0.7932(2) 0.0850(2) 0.32164(8)
H3G H 0.9880(2) -0.0016(2) 0.33489(9)
H2G H 1.1372(2) 0.1458(2) 0.30598(9)
H1G H 1.0321(2) 0.3214(2) 0.27652(8)
loop_
_geom_bond_atom_site_label_1
_geom_bond_atom_site_label_2
_geom_bond_site_symmetry_1
_geom_bond_site_symmetry_2
N1 C1 1_555 1_555
N2 C6 1_555 1_555
N3 C11 1_555 1_555
N4 C16 1_555 1_555
C1 C6 1_555 1_555
C2 N1 1_555 1_555
C3 C2 1_555 1_555
C4 C3 1_555 1_555
C5 N1 1_555 1_555
C6 C11 1_555 1_555
C7 N2 1_555 1_555
C8 C7 1_555 1_555
C9 C8 1_555 1_555
C10 N2 1_555 1_555
C11 C16 1_555 1_555
C12 N3 1_555 1_555
C13 C12 1_555 1_555
C14 C13 1_555 1_555
C15 N3 1_555 1_555
C16 C21 1_555 1_555
C17 N4 1_555 1_555
C18 C17 1_555 1_555
C19 C18 1_555 1_555
C20 N4 1_555 1_555
C21 C22 1_555 1_555
C22 C1 1_555 1_555
H1 C2 1_555 1_555
H2 C3 1_555 1_555
H3 C4 1_555 1_555
H4 C5 1_555 1_555
H5 C7 1_555 1_555
H6 C8 1_555 1_555
H7 C9 1_555 1_555
H8 C10 1_555 1_555
H9 C12 1_555 1_555
H10 C13 1_555 1_555
H11 C14 1_555 1_555
H12 C15 1_555 1_555
H13 C17 1_555 1_555
H14 C18 1_555 1_555
H15 C19 1_555 1_555
H16 C20 1_555 1_555
C16G C21 1_555 1_555
N4G C16G 1_555 1_555
C17G N4G 1_555 1_555
C18G C17G 1_555 1_555
C19G C18G 1_555 1_555
C20G N4G 1_555 1_555
H16G C20G 1_555 1_555
H15G C19G 1_555 1_555
H14G C18G 1_555 1_555
H13G C17G 1_555 1_555
C11G C16G 1_555 1_555
N3G C11G 1_555 1_555
C12G N3G 1_555 1_555
C13G C12G 1_555 1_555
C14G C13G 1_555 1_555
C15G N3G 1_555 1_555
H12G C15G 1_555 1_555
H11G C14G 1_555 1_555
H10G C13G 1_555 1_555
H9G C12G 1_555 1_555
C6G C11G 1_555 1_555
N2G C6G 1_555 1_555
C7G N2G 1_555 1_555
C8G C7G 1_555 1_555
C9G C8G 1_555 1_555
C10G N2G 1_555 1_555
H8G C10G 1_555 1_555
H7G C9G 1_555 1_555
H6G C8G 1_555 1_555
H5G C7G 1_555 1_555
C1G C22 1_555 1_555
N1G C1G 1_555 1_555
C2G N1G 1_555 1_555
C3G C2G 1_555 1_555
C4G C3G 1_555 1_555
C5G N1G 1_555 1_555
H4G C5G 1_555 1_555
H3G C4G 1_555 1_555
H2G C3G 1_555 1_555
H1G C2G 1_555 1_555
C4 C5 1_555 1_555
C9 C10 1_555 1_555
C14 C15 1_555 1_555
C19 C20 1_555 1_555
C19G C20G 1_555 1_555
C14G C15G 1_555 1_555
C6G C1G 1_555 1_555
C9G C10G 1_555 1_555
C4G C5G 1_555 1_555

#END
