
#######################################################################
#
#                 Cambridge Crystallographic Data Centre
#                                CCDC 
#
#######################################################################
#
# If this CIF has been generated from an entry in the Cambridge 
# Structural Database, then it will include bibliographic, chemical, 
# crystal, experimental, refinement or atomic coordinate data resulting 
# from the CCDC's data processing and validation procedures.
#
#######################################################################

data_NIVMEM01
_chemical_formula_moiety         'C40 H36'
_chemical_name_systematic        
5,6,11,12-Tetraphenyl-1,2,3,4,7,8,9,10-octahydrodibenzo[a,e][8]annulene
_symmetry_cell_setting           monoclinic
_symmetry_space_group_name_H-M   'P 21/n'
_symmetry_Int_Tables_number      14
_space_group_name_Hall           '-P 2yn'
loop_
_symmetry_equiv_pos_site_id
_symmetry_equiv_pos_as_xyz
1 x,y,z
2 1/2-x,1/2+y,1/2-z
3 -x,-y,-z
4 1/2+x,1/2-y,1/2+z
_cell_length_a                   12.637(3)
_cell_length_b                   16.973(3)
_cell_length_c                   13.596(3)
_cell_angle_alpha                90
_cell_angle_beta                 92.75(3)
_cell_angle_gamma                90
_cell_volume                     2912.82
_cell_formula_units_Z            4
loop_
_atom_site_label
_atom_site_type_symbol
_atom_site_fract_x
_atom_site_fract_y
_atom_site_fract_z
C1 C 0.9701(2) 0.17422(18) 0.5677(2)
C2 C 0.9131(2) 0.16522(18) 0.4836(2)
C3 C 0.7950(2) 0.15681(19) 0.4792(2)
C4 C 0.7324(2) 0.21689(19) 0.5028(2)
C5 C 0.7743(2) 0.29550(18) 0.5384(2)
C6 C 0.8317(2) 0.30361(18) 0.6240(2)
C7 C 0.8567(2) 0.23587(18) 0.6901(2)
C8 C 0.9195(2) 0.17638(19) 0.6648(2)
C9 C 1.0881(2) 0.18416(19) 0.5734(2)
C10 C 1.1356(2) 0.24380(19) 0.6311(2)
H1 H 1.0926 0.2772 0.6685
C11 C 1.2436(3) 0.2550(2) 0.6346(2)
H2 H 1.2745 0.2958 0.6742
C12 C 1.3068(3) 0.2070(2) 0.5806(2)
H3 H 1.3810 0.2158 0.5812
C13 C 1.2625(2) 0.1461(2) 0.5255(2)
H4 H 1.3069 0.1118 0.4908
C14 C 1.1539(3) 0.13448(19) 0.5203(2)
H5 H 1.1239 0.0931 0.4809
C15 C 0.9613(2) 0.1674(2) 0.3842(2)
C16 C 0.9741(2) 0.09841(18) 0.3288(2)
H6 H 0.9547 0.0488 0.3549
C17 C 1.0152(2) 0.1027(2) 0.2356(2)
H7 H 1.0237 0.0560 0.1982
C18 C 1.0430(2) 0.1736(2) 0.1982(2)
H8 H 1.0702 0.1764 0.1343
C19 C 1.0320(2) 0.2418(2) 0.2524(2)
H9 H 1.0524 0.2910 0.2259
C20 C 0.9917(2) 0.23883(19) 0.3447(2)
H10 H 0.9847 0.2859 0.3816
C21 C 0.7524(2) 0.07857(17) 0.4404(2)
H11 H 0.7725 0.0725 0.3714
H12 H 0.7870 0.0356 0.4793
C22 C 0.6334(2) 0.06886(19) 0.4438(2)
H13 H 0.6093 0.0268 0.3975
H14 H 0.6151 0.0528 0.5109
C23 C 0.5775(2) 0.14430(19) 0.4169(2)
H15 H 0.5000 0.1367 0.4195
H16 H 0.5933 0.1592 0.3487
C24 C 0.6130(2) 0.21004(19) 0.4874(2)
H17 H 0.5847 0.2607 0.4615
H18 H 0.5821 0.2007 0.5518
C25 C 0.7471(2) 0.36263(19) 0.4713(2)
C26 C 0.7559(2) 0.35387(19) 0.3700(2)
H19 H 0.7756 0.3041 0.3445
C27 C 0.7368(2) 0.4158(2) 0.3061(2)
H20 H 0.7455 0.4088 0.2376
C28 C 0.7050(2) 0.48786(19) 0.3412(2)
H21 H 0.6934 0.5308 0.2973
C29 C 0.6900(3) 0.4973(2) 0.4403(2)
H22 H 0.6654 0.5461 0.4646
C30 C 0.7111(2) 0.43530(18) 0.5038(2)
H23 H 0.7008 0.4424 0.5720
C31 C 0.8777(3) 0.38160(19) 0.6565(2)
C32 C 0.9628(3) 0.4105(2) 0.6078(2)
H24 H 0.9895 0.3822 0.5541
C33 C 1.0092(3) 0.4813(2) 0.6379(3)
H25 H 1.0677 0.5014 0.6043
C34 C 0.9712(4) 0.5226(2) 0.7157(3)
H26 H 1.0035 0.5709 0.7358
C35 C 0.8870(4) 0.4944(2) 0.7641(3)
H27 H 0.8610 0.5230 0.8179
C36 C 0.8396(3) 0.4241(2) 0.7349(2)
H28 H 0.7807 0.4048 0.7685
C37 C 0.8153(2) 0.23840(18) 0.7936(2)
H29 H 0.8587 0.2762 0.8337
H30 H 0.7417 0.2585 0.7894
C38 C 0.8168(3) 0.15918(19) 0.8459(2)
H31 H 0.8010 0.1666 0.9159
H32 H 0.7618 0.1243 0.8151
C39 C 0.9253(3) 0.12153(19) 0.8388(2)
H33 H 0.9276 0.0709 0.8751
H34 H 0.9803 0.1567 0.8689
C40 C 0.9472(2) 0.10716(17) 0.7307(2)
H35 H 1.0232 0.0946 0.7255
H36 H 0.9059 0.0607 0.7070
loop_
_geom_bond_atom_site_label_1
_geom_bond_atom_site_label_2
_geom_bond_site_symmetry_1
_geom_bond_site_symmetry_2
C1 C2 1_555 1_555
C2 C3 1_555 1_555
C3 C4 1_555 1_555
C4 C5 1_555 1_555
C5 C6 1_555 1_555
C6 C7 1_555 1_555
C7 C8 1_555 1_555
C8 C1 1_555 1_555
C9 C1 1_555 1_555
C10 C9 1_555 1_555
H1 C10 1_555 1_555
C11 C10 1_555 1_555
H2 C11 1_555 1_555
C12 C11 1_555 1_555
H3 C12 1_555 1_555
C13 C12 1_555 1_555
H4 C13 1_555 1_555
C14 C9 1_555 1_555
H5 C14 1_555 1_555
C15 C2 1_555 1_555
C16 C15 1_555 1_555
H6 C16 1_555 1_555
C17 C16 1_555 1_555
H7 C17 1_555 1_555
C18 C17 1_555 1_555
H8 C18 1_555 1_555
C19 C18 1_555 1_555
H9 C19 1_555 1_555
C20 C15 1_555 1_555
H10 C20 1_555 1_555
C21 C3 1_555 1_555
H11 C21 1_555 1_555
H12 C21 1_555 1_555
C22 C21 1_555 1_555
H13 C22 1_555 1_555
H14 C22 1_555 1_555
C23 C22 1_555 1_555
H15 C23 1_555 1_555
H16 C23 1_555 1_555
C24 C4 1_555 1_555
H17 C24 1_555 1_555
H18 C24 1_555 1_555
C25 C5 1_555 1_555
C26 C25 1_555 1_555
H19 C26 1_555 1_555
C27 C26 1_555 1_555
H20 C27 1_555 1_555
C28 C27 1_555 1_555
H21 C28 1_555 1_555
C29 C28 1_555 1_555
H22 C29 1_555 1_555
C30 C25 1_555 1_555
H23 C30 1_555 1_555
C31 C6 1_555 1_555
C32 C31 1_555 1_555
H24 C32 1_555 1_555
C33 C32 1_555 1_555
H25 C33 1_555 1_555
C34 C33 1_555 1_555
H26 C34 1_555 1_555
C35 C34 1_555 1_555
H27 C35 1_555 1_555
C36 C31 1_555 1_555
H28 C36 1_555 1_555
C37 C7 1_555 1_555
H29 C37 1_555 1_555
H30 C37 1_555 1_555
C38 C37 1_555 1_555
H31 C38 1_555 1_555
H32 C38 1_555 1_555
C39 C38 1_555 1_555
H33 C39 1_555 1_555
H34 C39 1_555 1_555
C40 C8 1_555 1_555
H35 C40 1_555 1_555
H36 C40 1_555 1_555
C13 C14 1_555 1_555
C19 C20 1_555 1_555
C23 C24 1_555 1_555
C29 C30 1_555 1_555
C35 C36 1_555 1_555
C39 C40 1_555 1_555

#END
