
#######################################################################
#
#                 Cambridge Crystallographic Data Centre
#                                CCDC 
#
#######################################################################
#
# If this CIF has been generated from an entry in the Cambridge 
# Structural Database, then it will include bibliographic, chemical, 
# crystal, experimental, refinement or atomic coordinate data resulting 
# from the CCDC's data processing and validation procedures.
#
#######################################################################

data_NIVQIT01
_chemical_compound_source        'Hypericum sampsonii'
_chemical_name_common            'Sampsonione Q'
_chemical_formula_moiety         'C33 H40 O5'
_chemical_name_systematic        
5-benzoyl-8-(3,3-dimethyloxiran-2-yl)-6,6-dimethyl-1,3-bis(3-methylbut-2-en-1-yl)adamantane-2,4,9-trione
_symmetry_cell_setting           monoclinic
_symmetry_space_group_name_H-M   'P 21'
_symmetry_Int_Tables_number      4
_space_group_name_Hall           'P 2yb'
loop_
_symmetry_equiv_pos_site_id
_symmetry_equiv_pos_as_xyz
1 x,y,z
2 -x,1/2+y,-z
_cell_length_a                   11.1559(2)
_cell_length_b                   10.7765(2)
_cell_length_c                   11.6429(2)
_cell_angle_alpha                90
_cell_angle_beta                 96.22
_cell_angle_gamma                90
_cell_volume                     1391.49
_exptl_crystal_colour            colorless
_exptl_crystal_description       block
_cell_formula_units_Z            2
loop_
_atom_site_label
_atom_site_type_symbol
_atom_site_fract_x
_atom_site_fract_y
_atom_site_fract_z
O1 O 0.91610(9) 0.35201(10) 0.40823(8)
O2 O 0.62465(8) 0.19684(10) 0.15276(8)
O3 O 0.73218(8) 0.00396(10) 0.49169(8)
O4 O 1.05407(9) 0.30286(10) 0.07724(9)
O5 O 0.55517(9) -0.09987(10) 0.24048(9)
C1 C 1.10553(15) 0.09083(16) 0.01336(14)
H1 H 1.0185 0.0798 -0.0061
H2 H 1.1410 0.0133 0.0452
H3 H 1.1425 0.1131 -0.0564
C2 C 1.12775(13) 0.19211(15) 0.10112(13)
C3 C 1.03674(12) 0.22861(14) 0.17743(12)
H4 H 1.0700 0.2653 0.2531
C4 C 0.91582(12) 0.16479(14) 0.17765(12)
H5 H 0.8816 0.1522 0.0955
C5 C 0.92591(12) 0.03676(14) 0.23673(12)
H6 H 0.9853 -0.0136 0.1981
C6 C 0.80433(12) -0.03478(13) 0.22484(12)
C7 C 0.71264(11) 0.04897(14) 0.28936(11)
C8 C 0.58468(12) -0.00483(14) 0.28978(12)
C9 C 0.49661(12) 0.06370(15) 0.35594(12)
C10 C 0.39817(12) -0.00472(16) 0.38605(12)
H7 H 0.3915 -0.0904 0.3673
C11 C 0.31047(13) 0.05196(18) 0.44307(14)
H8 H 0.2444 0.0049 0.4644
C12 C 0.31876(14) 0.17722(19) 0.46916(15)
H9 H 0.2571 0.2164 0.5063
C13 C 0.83218(15) 0.05205(17) 0.77030(14)
H10 H 0.8021 -0.0011 0.7052
H11 H 0.7808 0.0423 0.8328
H12 H 0.9150 0.0281 0.7981
C14 C 0.83017(12) 0.18485(15) 0.73176(12)
C15 C 0.87289(12) 0.22312(15) 0.63516(12)
H13 H 0.8594 0.3075 0.6138
C16 C 0.94053(12) 0.14455(15) 0.55696(12)
H14 H 0.9477 0.0599 0.5901
H15 H 1.0232 0.1784 0.5588
C17 C 0.88813(12) 0.13312(14) 0.43018(12)
C18 C 0.87640(11) 0.25608(14) 0.36558(12)
C19 C 0.82406(12) 0.24838(14) 0.23865(12)
C20 C 0.80767(13) 0.37583(15) 0.18087(13)
H16 H 0.8860 0.4199 0.1900
H17 H 0.7845 0.3638 0.0971
C21 C 0.71470(14) 0.45612(15) 0.22832(14)
H18 H 0.7311 0.4804 0.3069
C22 C 0.61200(14) 0.49692(16) 0.17251(16)
C23 C 0.70866(12) 0.17098(14) 0.22348(12)
C24 C 0.77062(11) 0.05992(13) 0.41421(12)
C25 C 0.82109(12) -0.16318(14) 0.28059(13)
H19 H 0.7455 -0.2099 0.2673
H20 H 0.8437 -0.1539 0.3639
H21 H 0.8849 -0.2080 0.2463
C26 C 0.97646(11) 0.05400(14) 0.36317(12)
H22 H 1.0556 0.0962 0.3670
H23 H 0.9889 -0.0282 0.4005
C27 C 1.25868(13) 0.21736(17) 0.14071(14)
H24 H 1.3015 0.2362 0.0736
H25 H 1.2947 0.1440 0.1805
H26 H 1.2649 0.2883 0.1937
C28 C 0.75859(13) -0.05356(15) 0.09676(12)
H27 H 0.8236 -0.0876 0.0560
H28 H 0.7325 0.0263 0.0624
H29 H 0.6904 -0.1114 0.0901
C29 C 0.41670(14) 0.24568(18) 0.44129(14)
H30 H 0.4224 0.3315 0.4595
C30 C 0.50624(13) 0.18852(16) 0.38675(13)
H31 H 0.5748 0.2348 0.3702
C31 C 0.77858(15) 0.27537(17) 0.81172(14)
H32 H 0.7787 0.3589 0.7784
H33 H 0.8278 0.2749 0.8868
H34 H 0.6957 0.2513 0.8221
C32 C 0.56854(17) 0.4676(2) 0.04829(18)
H35 H 0.6349 0.4319 0.0105
H36 H 0.5405 0.5440 0.0082
H37 H 0.5020 0.4080 0.0455
C33 C 0.52694(17) 0.5760(2) 0.2329(2)
H38 H 0.5589 0.5863 0.3141
H39 H 0.4478 0.5357 0.2283
H40 H 0.5187 0.6575 0.1955
loop_
_geom_bond_atom_site_label_1
_geom_bond_atom_site_label_2
_geom_bond_site_symmetry_1
_geom_bond_site_symmetry_2
O1 C18 1_555 1_555
O2 C23 1_555 1_555
O3 C24 1_555 1_555
O4 C2 1_555 1_555
O5 C8 1_555 1_555
C1 H1 1_555 1_555
H2 C1 1_555 1_555
H3 C1 1_555 1_555
C2 C1 1_555 1_555
C3 O4 1_555 1_555
H4 C3 1_555 1_555
C4 C3 1_555 1_555
H5 C4 1_555 1_555
C5 C4 1_555 1_555
H6 C5 1_555 1_555
C6 C5 1_555 1_555
C7 C6 1_555 1_555
C8 C7 1_555 1_555
C9 C8 1_555 1_555
C10 C9 1_555 1_555
H7 C10 1_555 1_555
C11 C10 1_555 1_555
H8 C11 1_555 1_555
C12 C11 1_555 1_555
H9 C12 1_555 1_555
C13 H10 1_555 1_555
H11 C13 1_555 1_555
H12 C13 1_555 1_555
C14 C13 1_555 1_555
C15 C14 1_555 1_555
H13 C15 1_555 1_555
C16 C15 1_555 1_555
H14 C16 1_555 1_555
H15 C16 1_555 1_555
C17 C16 1_555 1_555
C18 C17 1_555 1_555
C19 C4 1_555 1_555
C20 C19 1_555 1_555
H16 C20 1_555 1_555
H17 C20 1_555 1_555
C21 C20 1_555 1_555
H18 C21 1_555 1_555
C22 C21 1_555 1_555
C23 C7 1_555 1_555
C24 C7 1_555 1_555
C25 C6 1_555 1_555
H19 C25 1_555 1_555
H20 C25 1_555 1_555
H21 C25 1_555 1_555
C26 C5 1_555 1_555
H22 C26 1_555 1_555
H23 C26 1_555 1_555
C27 C2 1_555 1_555
H24 C27 1_555 1_555
H25 C27 1_555 1_555
H26 C27 1_555 1_555
C28 C6 1_555 1_555
H27 C28 1_555 1_555
H28 C28 1_555 1_555
H29 C28 1_555 1_555
C29 C12 1_555 1_555
H30 C29 1_555 1_555
C30 C9 1_555 1_555
H31 C30 1_555 1_555
C31 C14 1_555 1_555
H32 C31 1_555 1_555
H33 C31 1_555 1_555
H34 C31 1_555 1_555
C32 C22 1_555 1_555
H35 C32 1_555 1_555
H36 C32 1_555 1_555
H37 C32 1_555 1_555
C33 C22 1_555 1_555
H38 C33 1_555 1_555
H39 C33 1_555 1_555
H40 C33 1_555 1_555
C2 C3 1_555 1_555
C17 C24 1_555 1_555
C17 C26 1_555 1_555
C18 C19 1_555 1_555
C19 C23 1_555 1_555
C29 C30 1_555 1_555

#END
