
#######################################################################
#
#                 Cambridge Crystallographic Data Centre
#                                CCDC 
#
#######################################################################
#
# If this CIF has been generated from an entry in the Cambridge 
# Structural Database, then it will include bibliographic, chemical, 
# crystal, experimental, refinement or atomic coordinate data resulting 
# from the CCDC's data processing and validation procedures.
#
#######################################################################

data_NIVSAM
_chemical_formula_moiety         'C9 H12 N1 O3 1+,Cl1 O4 1-'
_chemical_name_systematic        'L-Tyrosinium perchlorate'
_symmetry_cell_setting           monoclinic
_symmetry_space_group_name_H-M   'P 21'
_symmetry_Int_Tables_number      4
_space_group_name_Hall           'P 2yb'
loop_
_symmetry_equiv_pos_site_id
_symmetry_equiv_pos_as_xyz
1 x,y,z
2 -x,1/2+y,-z
_cell_length_a                   5.335(1)
_cell_length_b                   9.817(2)
_cell_length_c                   12.000(3)
_cell_angle_alpha                90
_cell_angle_beta                 94.79(2)
_cell_angle_gamma                90
_cell_volume                     626.289
_cell_formula_units_Z            2
loop_
_atom_site_label
_atom_site_type_symbol
_atom_site_fract_x
_atom_site_fract_y
_atom_site_fract_z
Cl1 Cl 0.0163(1) 0.2485 0.9156(1)
O1 O -0.0418(6) 0.3860(3) 0.9435(3)
O2 O -0.1772(7) 0.1992(5) 0.8390(4)
O3 O 0.0266(6) 0.1681(4) 1.0144(3)
O4 O 0.2547(5) 0.2431(4) 0.8713(2)
O5 O 0.1477(7) 0.7585(4) 0.7438(3)
O6 O 0.4398(5) 0.8122(3) 0.8817(2)
O7 O 0.0071(10) 0.5083(4) 0.3133(3)
N1 N 0.4777(7) 0.5460(3) 0.9465(3)
C1 C 0.3253(7) 0.7309(4) 0.8232(3)
C2 C 0.3661(6) 0.5781(3) 0.8306(3)
C3 C 0.5336(8) 0.5246(5) 0.7434(3)
C4 C 0.4000(7) 0.5202(4) 0.6274(3)
C5 C 0.2085(9) 0.4291(5) 0.6022(3)
C6 C 0.0785(10) 0.4254(5) 0.4968(3)
C7 C 0.1431(9) 0.5145(4) 0.4164(3)
C8 C 0.3379(11) 0.6045(6) 0.4381(3)
C9 C 0.4651(9) 0.6083(5) 0.5439(3)
loop_
_geom_bond_atom_site_label_1
_geom_bond_atom_site_label_2
_geom_bond_site_symmetry_1
_geom_bond_site_symmetry_2
Cl1 O1 1_555 1_555
O2 Cl1 1_555 1_555
O3 Cl1 1_555 1_555
O4 Cl1 1_555 1_555
O5 C1 1_555 1_555
O6 C1 1_555 1_555
O7 C7 1_555 1_555
N1 C2 1_555 1_555
C1 C2 1_555 1_555
C2 C3 1_555 1_555
C3 C4 1_555 1_555
C4 C5 1_555 1_555
C5 C6 1_555 1_555
C6 C7 1_555 1_555
C7 C8 1_555 1_555
C8 C9 1_555 1_555
C9 C4 1_555 1_555

#END
