
#######################################################################
#
#                 Cambridge Crystallographic Data Centre
#                                CCDC 
#
#######################################################################
#
# If this CIF has been generated from an entry in the Cambridge 
# Structural Database, then it will include bibliographic, chemical, 
# crystal, experimental, refinement or atomic coordinate data resulting 
# from the CCDC's data processing and validation procedures.
#
#######################################################################

data_NIVSER
_chemical_formula_moiety         'C50 H70 N4'
_chemical_name_systematic        
2,3-Dimethyl-2,3-bis(3-isopropyl-2-(N'-(2,6-di-isopropylphenyl)formamidinato)phenyl)butane
_symmetry_cell_setting           monoclinic
_symmetry_space_group_name_H-M   'C 2/c'
_symmetry_Int_Tables_number      15
_space_group_name_Hall           '-C 2yn'
loop_
_symmetry_equiv_pos_site_id
_symmetry_equiv_pos_as_xyz
1 x,y,z
2 1/2+x,1/2+y,z
3 -x,y,1/2-z
4 1/2-x,1/2+y,1/2-z
5 -x,-y,-z
6 1/2-x,1/2-y,-z
7 x,-y,1/2+z
8 1/2+x,1/2-y,1/2+z
_cell_length_a                   18.4883(9)
_cell_length_b                   12.8566(6)
_cell_length_c                   19.0260(10)
_cell_angle_alpha                90
_cell_angle_beta                 95.385(3)
_cell_angle_gamma                90
_cell_volume                     4502.46
_exptl_crystal_colour            colorless
_exptl_crystal_description       prismatic
_cell_formula_units_Z            4
loop_
_atom_site_label
_atom_site_type_symbol
_atom_site_fract_x
_atom_site_fract_y
_atom_site_fract_z
N1 N 0.02897(10) 0.81633(13) 0.18168(10)
C1 C 0.01115(12) 0.89873(16) 0.14296(12)
H1 H 0.0198 0.8991 0.0945
N2 N -0.01849(10) 0.98079(13) 0.17023(9)
C2 C 0.06265(12) 0.72769(15) 0.15290(11)
H3 H 0.0160 0.8120 0.2291
C3 C 0.13834(13) 0.72527(16) 0.15233(12)
C4 C 0.16992(14) 0.63434(17) 0.12989(13)
H4 H 0.2212 0.6306 0.1294
C5 C 0.12749(14) 0.54903(18) 0.10820(14)
H5 H 0.1500 0.4870 0.0941
C6 C 0.05316(14) 0.55368(17) 0.10706(13)
H6 H 0.0248 0.4954 0.0907
C7 C 0.01860(13) 0.64287(16) 0.12959(12)
C8 C 0.18451(14) 0.81897(17) 0.17695(14)
H7 H 0.1562 0.8827 0.1617
C9 C 0.19713(18) 0.8220(2) 0.25728(15)
H8 H 0.2246 0.7602 0.2741
H9 H 0.1502 0.8231 0.2774
H10 H 0.2247 0.8846 0.2720
C10 C 0.25673(14) 0.8246(2) 0.14424(15)
H11 H 0.2808 0.8907 0.1572
H12 H 0.2478 0.8200 0.0927
H13 H 0.2879 0.7668 0.1618
C11 C -0.06361(14) 0.64576(18) 0.12801(14)
H14 H -0.0776 0.7166 0.1437
C12 C -0.09252(15) 0.5666(2) 0.17827(16)
H15 H -0.0809 0.4961 0.1632
H16 H -0.1453 0.5741 0.1776
H17 H -0.0699 0.5787 0.2262
C13 C -0.09885(17) 0.6296(3) 0.05282(17)
H18 H -0.0784 0.6794 0.0210
H19 H -0.1514 0.6405 0.0518
H20 H -0.0893 0.5586 0.0374
C14 C -0.04370(12) 1.06619(16) 0.12734(11)
C15 C -0.09205(12) 1.04783(17) 0.06678(12)
C16 C -0.11373(13) 1.13259(18) 0.02362(12)
H21 H -0.1450 1.1211 -0.0182
C17 C -0.09091(14) 1.23208(18) 0.04026(12)
H22 H -0.1049 1.2883 0.0095
C18 C -0.04711(13) 1.24945(17) 0.10265(12)
H23 H -0.0335 1.3188 0.1149
C19 C 0.02496(12) 1.19460(16) 0.21708(11)
C20 C 0.09356(13) 1.12362(17) 0.22633(12)
H24 H 0.0791 1.0527 0.2378
H25 H 0.1275 1.1507 0.2647
H26 H 0.1172 1.1228 0.1824
C21 C 0.06077(14) 1.30347(16) 0.21176(13)
H27 H 0.0916 1.3037 0.1726
H28 H 0.0905 1.3189 0.2559
H29 H 0.0228 1.3565 0.2034
C22 C -0.12638(13) 0.94194(17) 0.04836(13)
H30 H -0.1044 0.8901 0.0833
C23 C -0.11113(16) 0.9053(2) -0.02535(14)
H31 H -0.1342 0.8375 -0.0351
H32 H -0.0586 0.8990 -0.0276
H33 H -0.1309 0.9559 -0.0606
C24 C -0.20775(14) 0.9454(2) 0.05501(15)
H34 H -0.2308 0.9943 0.0203
H35 H -0.2164 0.9681 0.1027
H36 H -0.2285 0.8759 0.0463
C25 C -0.02245(12) 1.16913(16) 0.14785(11)
N1B N -0.02897(10) 0.81633(13) 0.31832(10)
C1B C -0.01115(12) 0.89873(16) 0.35704(12)
H1B H -0.0198 0.8991 0.4055
N2B N 0.01849(10) 0.98079(13) 0.32977(9)
C2B C -0.06265(12) 0.72769(15) 0.34710(11)
H3B H -0.0160 0.8120 0.2709
C3B C -0.13834(13) 0.72527(16) 0.34767(12)
C4B C -0.16992(14) 0.63434(17) 0.37011(13)
H4B H -0.2212 0.6306 0.3706
C5B C -0.12749(14) 0.54903(18) 0.39180(14)
H5B H -0.1500 0.4870 0.4059
C6B C -0.05316(14) 0.55368(17) 0.39294(13)
H6B H -0.0248 0.4954 0.4093
C7B C -0.01860(13) 0.64287(16) 0.37041(12)
C8B C -0.18451(14) 0.81897(17) 0.32305(14)
H7B H -0.1562 0.8827 0.3383
C9B C -0.19713(18) 0.8220(2) 0.24272(15)
H8B H -0.2246 0.7602 0.2259
H9B H -0.1502 0.8231 0.2226
H10B H -0.2247 0.8846 0.2280
C10B C -0.25673(14) 0.8246(2) 0.35576(15)
H11B H -0.2808 0.8907 0.3428
H12B H -0.2478 0.8200 0.4073
H13B H -0.2879 0.7668 0.3382
C11B C 0.06361(14) 0.64576(18) 0.37199(14)
H14B H 0.0776 0.7166 0.3563
C12B C 0.09252(15) 0.5666(2) 0.32173(16)
H15B H 0.0809 0.4961 0.3368
H16B H 0.1453 0.5741 0.3224
H17B H 0.0699 0.5787 0.2738
C13B C 0.09885(17) 0.6296(3) 0.44718(17)
H18B H 0.0784 0.6794 0.4790
H19B H 0.1514 0.6405 0.4482
H20B H 0.0893 0.5586 0.4626
C14B C 0.04370(12) 1.06619(16) 0.37266(11)
C15B C 0.09205(12) 1.04783(17) 0.43322(12)
C16B C 0.11373(13) 1.13259(18) 0.47638(12)
H21B H 0.1450 1.1211 0.5182
C17B C 0.09091(14) 1.23208(18) 0.45974(12)
H22B H 0.1049 1.2883 0.4905
C18B C 0.04711(13) 1.24945(17) 0.39735(12)
H23B H 0.0335 1.3188 0.3851
C19B C -0.02496(12) 1.19460(16) 0.28292(11)
C20B C -0.09356(13) 1.12362(17) 0.27367(12)
H24B H -0.0791 1.0527 0.2622
H25B H -0.1275 1.1507 0.2353
H26B H -0.1172 1.1228 0.3176
C21B C -0.06077(14) 1.30347(16) 0.28824(13)
H27B H -0.0916 1.3037 0.3274
H28B H -0.0905 1.3189 0.2441
H29B H -0.0228 1.3565 0.2966
C22B C 0.12638(13) 0.94194(17) 0.45164(13)
H30B H 0.1044 0.8901 0.4167
C23B C 0.11113(16) 0.9053(2) 0.52535(14)
H31B H 0.1342 0.8375 0.5351
H32B H 0.0586 0.8990 0.5276
H33B H 0.1309 0.9559 0.5606
C24B C 0.20775(14) 0.9454(2) 0.44499(15)
H34B H 0.2308 0.9943 0.4797
H35B H 0.2164 0.9681 0.3973
H36B H 0.2285 0.8759 0.4537
C25B C 0.02245(12) 1.16913(16) 0.35215(11)
H2? H -0.0158 0.9923 0.2212
loop_
_geom_bond_atom_site_label_1
_geom_bond_atom_site_label_2
_geom_bond_site_symmetry_1
_geom_bond_site_symmetry_2
N1 C1 1_555 1_555
C1 H1 1_555 1_555
N2 C1 1_555 1_555
C2 N1 1_555 1_555
H3 N1 1_555 1_555
C3 C2 1_555 1_555
C4 C3 1_555 1_555
H4 C4 1_555 1_555
C5 C4 1_555 1_555
H5 C5 1_555 1_555
C6 C5 1_555 1_555
H6 C6 1_555 1_555
C7 C2 1_555 1_555
C8 C3 1_555 1_555
H7 C8 1_555 1_555
C9 C8 1_555 1_555
H8 C9 1_555 1_555
H9 C9 1_555 1_555
H10 C9 1_555 1_555
C10 C8 1_555 1_555
H11 C10 1_555 1_555
H12 C10 1_555 1_555
H13 C10 1_555 1_555
C11 C7 1_555 1_555
H14 C11 1_555 1_555
C12 C11 1_555 1_555
H15 C12 1_555 1_555
H16 C12 1_555 1_555
H17 C12 1_555 1_555
C13 C11 1_555 1_555
H18 C13 1_555 1_555
H19 C13 1_555 1_555
H20 C13 1_555 1_555
C14 N2 1_555 1_555
C15 C14 1_555 1_555
C16 C15 1_555 1_555
H21 C16 1_555 1_555
C17 C16 1_555 1_555
H22 C17 1_555 1_555
C18 C17 1_555 1_555
H23 C18 1_555 1_555
C19 C20 1_555 1_555
C20 H24 1_555 1_555
H25 C20 1_555 1_555
H26 C20 1_555 1_555
C21 C19 1_555 1_555
H27 C21 1_555 1_555
H28 C21 1_555 1_555
H29 C21 1_555 1_555
C22 C15 1_555 1_555
H30 C22 1_555 1_555
C23 C22 1_555 1_555
H31 C23 1_555 1_555
H32 C23 1_555 1_555
H33 C23 1_555 1_555
C24 C22 1_555 1_555
H34 C24 1_555 1_555
H35 C24 1_555 1_555
H36 C24 1_555 1_555
C25 C14 1_555 1_555
N1B C1B 1_555 1_555
C1B H1B 1_555 1_555
N2B C1B 1_555 1_555
C2B N1B 1_555 1_555
H3B N1B 1_555 1_555
C3B C2B 1_555 1_555
C4B C3B 1_555 1_555
H4B C4B 1_555 1_555
C5B C4B 1_555 1_555
H5B C5B 1_555 1_555
C6B C5B 1_555 1_555
H6B C6B 1_555 1_555
C7B C2B 1_555 1_555
C8B C3B 1_555 1_555
H7B C8B 1_555 1_555
C9B C8B 1_555 1_555
H8B C9B 1_555 1_555
H9B C9B 1_555 1_555
H10B C9B 1_555 1_555
C10B C8B 1_555 1_555
H11B C10B 1_555 1_555
H12B C10B 1_555 1_555
H13B C10B 1_555 1_555
C11B C7B 1_555 1_555
H14B C11B 1_555 1_555
C12B C11B 1_555 1_555
H15B C12B 1_555 1_555
H16B C12B 1_555 1_555
H17B C12B 1_555 1_555
C13B C11B 1_555 1_555
H18B C13B 1_555 1_555
H19B C13B 1_555 1_555
H20B C13B 1_555 1_555
C14B N2B 1_555 1_555
C15B C14B 1_555 1_555
C16B C15B 1_555 1_555
H21B C16B 1_555 1_555
C17B C16B 1_555 1_555
H22B C17B 1_555 1_555
C18B C17B 1_555 1_555
H23B C18B 1_555 1_555
C19B C19 1_555 1_555
C20B C19B 1_555 1_555
H24B C20B 1_555 1_555
H25B C20B 1_555 1_555
H26B C20B 1_555 1_555
C21B C19B 1_555 1_555
H27B C21B 1_555 1_555
H28B C21B 1_555 1_555
H29B C21B 1_555 1_555
C22B C15B 1_555 1_555
H30B C22B 1_555 1_555
C23B C22B 1_555 1_555
H31B C23B 1_555 1_555
H32B C23B 1_555 1_555
H33B C23B 1_555 1_555
C24B C22B 1_555 1_555
H34B C24B 1_555 1_555
H35B C24B 1_555 1_555
H36B C24B 1_555 1_555
C25B C14B 1_555 1_555
C6 C7 1_555 1_555
C18 C25 1_555 1_555
C19 C25 1_555 1_555
C6B C7B 1_555 1_555
C18B C25B 1_555 1_555
C19B C25B 1_555 1_555

#END
