
#######################################################################
#
#                 Cambridge Crystallographic Data Centre
#                                CCDC 
#
#######################################################################
#
# If this CIF has been generated from an entry in the Cambridge 
# Structural Database, then it will include bibliographic, chemical, 
# crystal, experimental, refinement or atomic coordinate data resulting 
# from the CCDC's data processing and validation procedures.
#
#######################################################################

data_NIWCAY
_chemical_formula_moiety         'C8 H9 N7'
_chemical_name_systematic        bis(Pyrazolecarbimido)amine
_symmetry_cell_setting           triclinic
_symmetry_space_group_name_H-M   'P -1'
_symmetry_Int_Tables_number      2
_space_group_name_Hall           '-P 1'
loop_
_symmetry_equiv_pos_site_id
_symmetry_equiv_pos_as_xyz
1 x,y,z
2 -x,-y,-z
_cell_length_a                   7.6816(18)
_cell_length_b                   11.482(3)
_cell_length_c                   11.716(3)
_cell_angle_alpha                98.347(5)
_cell_angle_beta                 102.806(4)
_cell_angle_gamma                100.994(4)
_cell_volume                     970.007
_exptl_crystal_colour            colorless
_exptl_crystal_description       block
_cell_formula_units_Z            4
_exptl_crystal_recrystallization_method ethanol
loop_
_atom_site_label
_atom_site_type_symbol
_atom_site_fract_x
_atom_site_fract_y
_atom_site_fract_z
N1 N 0.6296(3) 0.7467(2) 0.3039(2)
H1 H 0.705(3) 0.707(2) 0.344(2)
N2 N 0.6458(3) 0.93691(17) 0.24441(17)
N3 N 0.3520(3) 0.8071(2) 0.1664(2)
H2 H 0.2341(17) 0.788(2) 0.125(2)
H3 H 0.386(3) 0.7515(18) 0.208(2)
N4 N 0.9111(3) 0.89028(16) 0.33824(16)
N5 N 1.0077(3) 0.82320(19) 0.40217(18)
N6 N 0.4128(2) 1.00081(17) 0.13089(17)
N7 N 0.2373(3) 0.97979(18) 0.06211(19)
C1 C 1.0214(4) 0.9902(2) 0.3249(2)
H7 H 0.9853 1.0485 0.2836
C2 C 1.1949(4) 0.9905(2) 0.3825(3)
H8 H 1.3016 1.0481 0.3894
C3 C 1.1784(4) 0.8864(3) 0.4286(3)
H9 H 1.2772 0.8633 0.4737
C4 C 0.7160(3) 0.8496(2) 0.2946(2)
C5 C 0.4731(3) 0.9090(2) 0.1844(2)
C6 C 0.5104(3) 1.1132(2) 0.1337(2)
H10 H 0.6324 1.1467 0.1743
C7 C 0.3953(3) 1.1670(2) 0.0659(2)
H11 H 0.4215 1.2449 0.0509
C8 C 0.2304(3) 1.0815(2) 0.0236(2)
H12 H 0.1265 1.0944 -0.0264
N8 N 1.0499(3) 1.3135(2) 0.4050(2)
H4 H 1.050(4) 1.299(2) 0.4783(13)
H5 H 0.988(3) 1.2540(18) 0.3436(17)
N9 N 1.1598(3) 1.43335(17) 0.27726(17)
N10 N 0.9588(3) 1.2476(2) 0.1695(2)
H6 H 0.923(3) 1.2037(19) 0.0951(12)
N11 N 1.2457(3) 1.50080(17) 0.47956(16)
N12 N 1.2426(3) 1.4857(2) 0.59219(18)
N13 N 1.1236(2) 1.38311(16) 0.07567(16)
N14 N 1.0356(3) 1.31804(18) -0.03597(17)
C9 C 1.3609(4) 1.6058(2) 0.4795(2)
H13 H 1.3854 1.6342 0.4130
C10 C 1.4337(4) 1.6617(2) 0.5954(2)
H14 H 1.5168 1.7362 0.6248
C11 C 1.3575(4) 1.5841(2) 0.6601(2)
H15 H 1.3845 1.5996 0.7430
C12 C 1.1439(3) 1.4094(2) 0.3806(2)
C13 C 1.0706(3) 1.3462(2) 0.1770(2)
C14 C 1.2549(3) 1.4778(2) 0.0727(2)
H16 H 1.3327 1.5341 0.1378
C15 C 1.2513(4) 1.4749(3) -0.0434(2)
H17 H 1.3261 1.5287 -0.0743
C16 C 1.1138(3) 1.3760(2) -0.1070(2)
H18 H 1.0807 1.3533 -0.1897
loop_
_geom_bond_atom_site_label_1
_geom_bond_atom_site_label_2
_geom_bond_site_symmetry_1
_geom_bond_site_symmetry_2
N1 H1 1_555 1_555
N2 C4 1_555 1_555
N3 H2 1_555 1_555
H3 N3 1_555 1_555
N4 N5 1_555 1_555
N5 C3 1_555 1_555
N6 N7 1_555 1_555
N7 C8 1_555 1_555
N8 H4 1_555 1_555
H5 N8 1_555 1_555
N9 C12 1_555 1_555
N10 H6 1_555 1_555
N11 N12 1_555 1_555
N12 C11 1_555 1_555
N13 N14 1_555 1_555
N14 C16 1_555 1_555
C1 N4 1_555 1_555
H7 C1 1_555 1_555
C2 C1 1_555 1_555
H8 C2 1_555 1_555
C3 C2 1_555 1_555
H9 C3 1_555 1_555
C4 N1 1_555 1_555
C5 N2 1_555 1_555
C6 N6 1_555 1_555
H10 C6 1_555 1_555
C7 C6 1_555 1_555
H11 C7 1_555 1_555
C8 C7 1_555 1_555
H12 C8 1_555 1_555
C9 N11 1_555 1_555
H13 C9 1_555 1_555
C10 C9 1_555 1_555
H14 C10 1_555 1_555
C11 C10 1_555 1_555
H15 C11 1_555 1_555
C12 N8 1_555 1_555
C13 N9 1_555 1_555
C14 N13 1_555 1_555
H16 C14 1_555 1_555
C15 C14 1_555 1_555
H17 C15 1_555 1_555
C16 C15 1_555 1_555
H18 C16 1_555 1_555
N3 C5 1_555 1_555
N4 C4 1_555 1_555
N6 C5 1_555 1_555
N10 C13 1_555 1_555
N11 C12 1_555 1_555
N13 C13 1_555 1_555

#END
