
#######################################################################
#
#                 Cambridge Crystallographic Data Centre
#                                CCDC 
#
#######################################################################
#
# If this CIF has been generated from an entry in the Cambridge 
# Structural Database, then it will include bibliographic, chemical, 
# crystal, experimental, refinement or atomic coordinate data resulting 
# from the CCDC's data processing and validation procedures.
#
#######################################################################

data_NIWJUA01
_chemical_formula_moiety         'C12 H24 O6,C12 H20 N1 1+,Cl1 O4 1-'
_chemical_name_systematic        
'2,6-Diisopropylanilinium perchlorate 1,4,7,10,13,16-hexaoxacyclooctadecane'
_symmetry_cell_setting           orthorhombic
_symmetry_space_group_name_H-M   'P b c n'
_symmetry_Int_Tables_number      60
_space_group_name_Hall           '-P 2n 2ab'
loop_
_symmetry_equiv_pos_site_id
_symmetry_equiv_pos_as_xyz
1 x,y,z
2 1/2-x,1/2-y,1/2+z
3 1/2+x,1/2-y,-z
4 -x,y,1/2-z
5 -x,-y,-z
6 1/2+x,1/2+y,1/2-z
7 1/2-x,1/2+y,z
8 x,-y,1/2+z
_cell_length_a                   16.874(4)
_cell_length_b                   17.507(4)
_cell_length_c                   18.943(5)
_cell_angle_alpha                90
_cell_angle_beta                 90
_cell_angle_gamma                90
_cell_volume                     5596.01
_cell_formula_units_Z            8
loop_
_atom_site_label
_atom_site_type_symbol
_atom_site_fract_x
_atom_site_fract_y
_atom_site_fract_z
O1 O 0.23813(9) 0.06108(8) 0.62877(8)
O2 O 0.34761(9) -0.04971(9) 0.58768(8)
O3 O 0.35539(8) -0.10766(9) 0.45423(8)
O4 O 0.31813(9) 0.03562(9) 0.39977(8)
O5 O 0.16385(8) 0.09294(8) 0.41845(8)
O6 O 0.09076(8) 0.05918(8) 0.55145(8)
C1 C 0.05059(12) 0.09276(13) 0.49250(11)
H1 H 0.0066 0.1249 0.5103
H2 H 0.0271 0.0515 0.4635
C2 C 0.10334(13) 0.14071(12) 0.44657(12)
H3 H 0.0721 0.1637 0.4078
H4 H 0.1272 0.1824 0.4747
C3 C 0.22460(14) 0.13648(12) 0.38494(13)
H5 H 0.2534 0.1672 0.4206
H6 H 0.2008 0.1718 0.3501
C4 C 0.28093(14) 0.08328(13) 0.34858(13)
H7 H 0.2518 0.0515 0.3140
H8 H 0.3215 0.1130 0.3228
C5 C 0.37668(13) -0.01226(15) 0.36798(13)
H9 H 0.4171 0.0193 0.3438
H10 H 0.3517 -0.0462 0.3326
C6 C 0.41476(13) -0.05900(15) 0.42512(14)
H11 H 0.4586 -0.0899 0.4053
H12 H 0.4366 -0.0252 0.4622
C7 C 0.38140(14) -0.15257(13) 0.51242(14)
H13 H 0.4265 -0.1846 0.4969
H14 H 0.3379 -0.1873 0.5266
C8 C 0.40667(14) -0.10681(14) 0.57589(14)
H15 H 0.4113 -0.1404 0.6177
H16 H 0.4588 -0.0826 0.5672
C9 C 0.36143(14) -0.00160(15) 0.64738(12)
H17 H 0.4190 0.0062 0.6541
H18 H 0.3397 -0.0256 0.6906
C10 C 0.32157(14) 0.07326(14) 0.63425(13)
H19 H 0.3330 0.1089 0.6735
H20 H 0.3419 0.0962 0.5900
C11 C 0.10919(15) 0.11110(13) 0.60779(12)
H21 H 0.0920 0.0884 0.6531
H22 H 0.0792 0.1591 0.6008
C12 C 0.19607(16) 0.12914(12) 0.61171(13)
H23 H 0.2146 0.1494 0.5658
H24 H 0.2057 0.1684 0.6483
N1 N 0.20942(9) -0.04360(8) 0.50356(8)
H25 H 0.2350 -0.0176 0.4694
H26 H 0.2476 -0.0449 0.5383
H27 H 0.1723 -0.0070 0.5192
C13 C 0.14898(11) -0.15561(10) 0.56097(10)
C14 C 0.11270(12) -0.22726(11) 0.55514(12)
H28 H 0.0982 -0.2543 0.5966
C15 C 0.09781(12) -0.25908(11) 0.48951(12)
H29 H 0.0736 -0.3080 0.4865
C16 C 0.11775(11) -0.22037(11) 0.42837(11)
H30 H 0.1063 -0.2428 0.3838
C17 C 0.15460(10) -0.14862(11) 0.43106(10)
C18 C 0.16981(10) -0.11851(10) 0.49812(10)
C19 C 0.17421(12) -0.10785(12) 0.36268(10)
H31 H 0.2079 -0.0626 0.3745
C20 C 0.09834(15) -0.07845(14) 0.32700(13)
H32 H 0.0706 -0.0436 0.3591
H33 H 0.0638 -0.1217 0.3156
H34 H 0.1122 -0.0512 0.2835
C21 C 0.22122(15) -0.15864(15) 0.31190(13)
H35 H 0.2688 -0.1777 0.3357
H36 H 0.2367 -0.1288 0.2703
H37 H 0.1882 -0.2018 0.2971
C22 C 0.16409(13) -0.12282(11) 0.63462(10)
H38 H 0.1925 -0.0731 0.6290
C23 C 0.08625(15) -0.10739(14) 0.67354(13)
H39 H 0.0548 -0.0702 0.6469
H40 H 0.0977 -0.0869 0.7206
H41 H 0.0564 -0.1551 0.6781
C24 C 0.21732(15) -0.17641(14) 0.67772(12)
H42 H 0.2660 -0.1870 0.6512
H43 H 0.1892 -0.2244 0.6868
H44 H 0.2308 -0.1521 0.7227
Cl1 Cl 0.5000 0.20216(4) 0.2500
O7 O 0.45507(14) 0.15671(15) 0.29582(13)
O8 O 0.55069(16) 0.24924(13) 0.29139(13)
O7C O 0.54493(14) 0.15671(15) 0.20418(13)
O8C O 0.44931(16) 0.24924(13) 0.20861(13)
Cl2? Cl 0.5000 0.17096(4) 0.7500
O9? O 0.5000 0.08909(16) 0.7500
O10? O 0.5328(5) 0.1889(3) 0.8125(4)
O11? O 0.4208(3) 0.1964(3) 0.7478(5)
O12? O 0.5407(6) 0.2087(4) 0.6934(5)
loop_
_geom_bond_atom_site_label_1
_geom_bond_atom_site_label_2
_geom_bond_site_symmetry_1
_geom_bond_site_symmetry_2
O1 C10 1_555 1_555
O2 C8 1_555 1_555
O3 C6 1_555 1_555
O4 C4 1_555 1_555
O5 C2 1_555 1_555
O6 C1 1_555 1_555
C1 H1 1_555 1_555
H2 C1 1_555 1_555
C2 C1 1_555 1_555
H3 C2 1_555 1_555
H4 C2 1_555 1_555
C3 O5 1_555 1_555
H5 C3 1_555 1_555
H6 C3 1_555 1_555
C4 C3 1_555 1_555
H7 C4 1_555 1_555
H8 C4 1_555 1_555
C5 O4 1_555 1_555
H9 C5 1_555 1_555
H10 C5 1_555 1_555
C6 C5 1_555 1_555
H11 C6 1_555 1_555
H12 C6 1_555 1_555
C7 O3 1_555 1_555
H13 C7 1_555 1_555
H14 C7 1_555 1_555
C8 C7 1_555 1_555
H15 C8 1_555 1_555
H16 C8 1_555 1_555
C9 O2 1_555 1_555
H17 C9 1_555 1_555
H18 C9 1_555 1_555
C10 C9 1_555 1_555
H19 C10 1_555 1_555
H20 C10 1_555 1_555
C11 O6 1_555 1_555
H21 C11 1_555 1_555
H22 C11 1_555 1_555
C12 O1 1_555 1_555
H23 C12 1_555 1_555
H24 C12 1_555 1_555
N1 H25 1_555 1_555
H26 N1 1_555 1_555
H27 N1 1_555 1_555
C13 C14 1_555 1_555
C14 H28 1_555 1_555
C15 C14 1_555 1_555
H29 C15 1_555 1_555
C16 C15 1_555 1_555
H30 C16 1_555 1_555
C17 C16 1_555 1_555
C18 N1 1_555 1_555
C19 C17 1_555 1_555
H31 C19 1_555 1_555
C20 C19 1_555 1_555
H32 C20 1_555 1_555
H33 C20 1_555 1_555
H34 C20 1_555 1_555
C21 C19 1_555 1_555
H35 C21 1_555 1_555
H36 C21 1_555 1_555
H37 C21 1_555 1_555
C22 C13 1_555 1_555
H38 C22 1_555 1_555
C23 C22 1_555 1_555
H39 C23 1_555 1_555
H40 C23 1_555 1_555
H41 C23 1_555 1_555
C24 C22 1_555 1_555
H42 C24 1_555 1_555
H43 C24 1_555 1_555
H44 C24 1_555 1_555
Cl1 O7 1_555 1_555
O8 Cl1 1_555 1_555
O7C Cl1 1_555 1_555
O8C Cl1 1_555 1_555
C11 C12 1_555 1_555
C13 C18 1_555 1_555
C17 C18 1_555 1_555

#END
