
#######################################################################
#
#                 Cambridge Crystallographic Data Centre
#                                CCDC 
#
#######################################################################
#
# If this CIF has been generated from an entry in the Cambridge 
# Structural Database, then it will include bibliographic, chemical, 
# crystal, experimental, refinement or atomic coordinate data resulting 
# from the CCDC's data processing and validation procedures.
#
#######################################################################

data_NIWLAI
_chemical_formula_moiety         'C56 H44 Ca2 F12 N12 O16 S4'
_chemical_name_systematic        
bis(\m~2~-Trifluoromethanesulfonato-O,O')-tetrakis(N'-(pyridin-2-ylmethylene)benzohydrazide)-bis(trifluoromethanesulfonato)-di-calcium
_symmetry_cell_setting           triclinic
_symmetry_space_group_name_H-M   'P -1'
_symmetry_Int_Tables_number      2
_space_group_name_Hall           '-P 1'
loop_
_symmetry_equiv_pos_site_id
_symmetry_equiv_pos_as_xyz
1 x,y,z
2 -x,-y,-z
_cell_length_a                   11.2305(6)
_cell_length_b                   12.1307(7)
_cell_length_c                   13.8812(8)
_cell_angle_alpha                97.6830(10)
_cell_angle_beta                 111.4790(10)
_cell_angle_gamma                105.0070(10)
_cell_volume                     1643.89
_exptl_crystal_colour            colorless
_exptl_crystal_description       block
_cell_formula_units_Z            1
loop_
_atom_site_label
_atom_site_type_symbol
_atom_site_fract_x
_atom_site_fract_y
_atom_site_fract_z
C1 C 0.0370(6) 0.3406(5) 0.5524(4)
H1 H -0.0525 0.3056 0.5461
C2 C 0.1084(7) 0.4561(5) 0.6112(5)
H2 H 0.0671 0.5001 0.6425
C3 C 0.2382(7) 0.5065(5) 0.6240(5)
H3 H 0.2893 0.5850 0.6663
C4 C 0.2948(6) 0.4427(5) 0.5751(5)
H4 H 0.3850 0.4766 0.5826
C5 C 0.2176(5) 0.3280(4) 0.5147(4)
C6 C 0.2778(5) 0.2602(5) 0.4613(4)
H5 H 0.3671 0.3013 0.4705
C7 C 0.0405(5) -0.0200(4) 0.3211(3)
C8 C -0.0992(5) -0.0900(4) 0.3043(4)
C9 C -0.1649(6) -0.1971(5) 0.2264(4)
H6 H -0.1201 -0.2242 0.1867
C10 C -0.2960(6) -0.2641(5) 0.2070(5)
H7 H -0.3410 -0.3373 0.1543
C11 C -0.3607(5) -0.2239(5) 0.2647(4)
H8 H -0.4502 -0.2699 0.2513
C12 C -0.2970(5) -0.1183(5) 0.3410(4)
H9 H -0.3429 -0.0913 0.3796
C13 C -0.1659(5) -0.0508(4) 0.3618(4)
H10 H -0.1216 0.0220 0.4151
C14 C 0.7773(5) 0.0115(6) 0.0790(4)
H11 H 0.7601 -0.0530 0.0231
C15 C 0.9015(5) 0.1027(6) 0.1219(5)
H12 H 0.9677 0.1000 0.0952
C16 C 0.9279(6) 0.1957(6) 0.2022(5)
H13 H 1.0125 0.2580 0.2320
C17 C 0.8323(6) 0.1986(5) 0.2394(5)
H14 H 0.8489 0.2631 0.2952
C18 C 0.7088(5) 0.1053(4) 0.1946(4)
C19 C 0.6094(5) 0.1100(4) 0.2389(4)
H15 H 0.6348 0.1796 0.2927
C20 C 0.3273(4) -0.1453(4) 0.1119(3)
C21 C 0.2845(5) -0.2594(4) 0.0326(3)
C22 C 0.1518(6) -0.3376(4) 0.0018(4)
H16 H 0.0946 -0.3165 0.0316
C23 C 0.1050(6) -0.4453(5) -0.0721(4)
H17 H 0.0155 -0.4980 -0.0941
C24 C 0.1909(6) -0.4743(5) -0.1131(4)
H18 H 0.1603 -0.5484 -0.1628
C25 C 0.3202(6) -0.3981(5) -0.0834(5)
H19 H 0.3772 -0.4198 -0.1133
C26 C 0.3673(5) -0.2905(5) -0.0107(4)
H20 H 0.4565 -0.2381 0.0095
C27 C 0.7150(7) 0.3102(5) 0.6268(5)
C28 C 0.2721(8) 0.3724(7) 0.1616(9)
N1 N 0.0893(4) 0.2760(4) 0.5040(3)
N2 N 0.2264(4) 0.1540(4) 0.4045(3)
N3 N 0.0994(4) 0.0888(3) 0.3897(3)
H21 H 0.0568 0.1166 0.4239
N4 N 0.6807(4) 0.0125(4) 0.1147(3)
N5 N 0.4944(4) 0.0348(3) 0.2160(3)
N6 N 0.4510(3) -0.0663(3) 0.1383(3)
H22 H 0.5022 -0.0798 0.1061
O1 O 0.0996(4) -0.0591(3) 0.2723(3)
O2 O 0.2516(3) -0.1230(3) 0.1519(3)
O3 O 0.5234(4) 0.1683(3) 0.4522(3)
O4 O 0.7435(4) 0.1415(4) 0.5098(3)
O5 O 0.6052(4) 0.0914(3) 0.6071(3)
O6 O 0.2547(5) 0.1633(4) 0.1783(5)
O7 O 0.4537(8) 0.3129(9) 0.2847(7)
O8 O 0.3914(8) 0.2595(5) 0.0910(6)
F1 F 0.7546(5) 0.3883(3) 0.5778(4)
F2 F 0.8246(5) 0.3190(4) 0.7117(3)
F3 F 0.6283(5) 0.3384(4) 0.6587(5)
F4 F 0.3521(6) 0.4724(4) 0.1583(6)
F5 F 0.1644(7) 0.3376(8) 0.0743(9)
F6 F 0.2283(8) 0.3900(5) 0.2391(7)
S1 S 0.64038(12) 0.16181(11) 0.53922(9)
S2 S 0.35423(17) 0.26453(16) 0.17970(16)
Ca1 Ca 0.32322(10) 0.04225(10) 0.29756(7)
C1A C 0.9630(6) -0.3406(5) 0.4476(4)
H1A H 1.0525 -0.3056 0.4539
C2A C 0.8916(7) -0.4561(5) 0.3888(5)
H2A H 0.9329 -0.5001 0.3575
C3A C 0.7618(7) -0.5065(5) 0.3760(5)
H3A H 0.7107 -0.5850 0.3337
C4A C 0.7052(6) -0.4427(5) 0.4249(5)
H4A H 0.6150 -0.4766 0.4174
C5A C 0.7824(5) -0.3280(4) 0.4853(4)
C6A C 0.7222(5) -0.2602(5) 0.5387(4)
H5A H 0.6329 -0.3013 0.5295
C7A C 0.9595(5) 0.0200(4) 0.6789(3)
C8A C 1.0992(5) 0.0900(4) 0.6957(4)
C9A C 1.1649(6) 0.1971(5) 0.7736(4)
H6A H 1.1201 0.2242 0.8133
C10A C 1.2960(6) 0.2641(5) 0.7930(5)
H7A H 1.3410 0.3373 0.8457
C11A C 1.3607(5) 0.2239(5) 0.7353(4)
H8A H 1.4502 0.2699 0.7487
C12A C 1.2970(5) 0.1183(5) 0.6590(4)
H9A H 1.3429 0.0913 0.6204
C13A C 1.1659(5) 0.0508(4) 0.6382(4)
H10A H 1.1216 -0.0220 0.5849
C14A C 0.2227(5) -0.0115(6) 0.9210(4)
H11A H 0.2399 0.0530 0.9769
C15A C 0.0985(5) -0.1027(6) 0.8781(5)
H12A H 0.0323 -0.1000 0.9048
C16A C 0.0721(6) -0.1957(6) 0.7978(5)
H13A H -0.0125 -0.2580 0.7680
C17A C 0.1677(6) -0.1986(5) 0.7606(5)
H14A H 0.1511 -0.2631 0.7048
C18A C 0.2912(5) -0.1053(4) 0.8054(4)
C19A C 0.3906(5) -0.1100(4) 0.7611(4)
H15A H 0.3652 -0.1796 0.7073
C20A C 0.6727(4) 0.1453(4) 0.8881(3)
C21A C 0.7155(5) 0.2594(4) 0.9674(3)
C22A C 0.8482(6) 0.3376(4) 0.9982(4)
H16A H 0.9054 0.3165 0.9684
C23A C 0.8950(6) 0.4453(5) 1.0721(4)
H17A H 0.9845 0.4980 1.0941
C24A C 0.8091(6) 0.4743(5) 1.1131(4)
H18A H 0.8397 0.5484 1.1628
C25A C 0.6798(6) 0.3981(5) 1.0834(5)
H19A H 0.6228 0.4198 1.1133
C26A C 0.6327(5) 0.2905(5) 1.0107(4)
H20A H 0.5435 0.2381 0.9905
C27A C 0.2850(7) -0.3102(5) 0.3732(5)
C28A C 0.7279(8) -0.3724(7) 0.8384(9)
N1A N 0.9107(4) -0.2760(4) 0.4960(3)
N2A N 0.7736(4) -0.1540(4) 0.5955(3)
N3A N 0.9006(4) -0.0888(3) 0.6103(3)
H21A H 0.9432 -0.1166 0.5761
N4A N 0.3193(4) -0.0125(4) 0.8853(3)
N5A N 0.5056(4) -0.0348(3) 0.7840(3)
N6A N 0.5490(3) 0.0663(3) 0.8617(3)
H22A H 0.4978 0.0798 0.8939
O1A O 0.9004(4) 0.0591(3) 0.7277(3)
O2A O 0.7484(3) 0.1230(3) 0.8481(3)
O3A O 0.4766(4) -0.1683(3) 0.5478(3)
O4A O 0.2565(4) -0.1415(4) 0.4902(3)
O5A O 0.3948(4) -0.0914(3) 0.3929(3)
O6A O 0.7453(5) -0.1633(4) 0.8217(5)
O7A O 0.5463(8) -0.3129(9) 0.7153(7)
O8A O 0.6086(8) -0.2595(5) 0.9090(6)
F1A F 0.2454(5) -0.3883(3) 0.4222(4)
F2A F 0.1754(5) -0.3190(4) 0.2883(3)
F3A F 0.3717(5) -0.3384(4) 0.3413(5)
F4A F 0.6479(6) -0.4724(4) 0.8417(6)
F5A F 0.8356(7) -0.3376(8) 0.9257(9)
F6A F 0.7717(8) -0.3900(5) 0.7609(7)
S1A S 0.35962(12) -0.16181(11) 0.46078(9)
S2A S 0.64577(17) -0.26453(16) 0.82030(16)
Ca1A Ca 0.67678(10) -0.04225(10) 0.70244(7)
loop_
_geom_bond_atom_site_label_1
_geom_bond_atom_site_label_2
_geom_bond_site_symmetry_1
_geom_bond_site_symmetry_2
C1 H1 1_555 1_555
C2 C1 1_555 1_555
H2 C2 1_555 1_555
C3 C2 1_555 1_555
H3 C3 1_555 1_555
C4 C3 1_555 1_555
H4 C4 1_555 1_555
C5 C4 1_555 1_555
C6 C5 1_555 1_555
H5 C6 1_555 1_555
C7 C8 1_555 1_555
C8 C9 1_555 1_555
C9 H6 1_555 1_555
C10 C9 1_555 1_555
H7 C10 1_555 1_555
C11 C10 1_555 1_555
H8 C11 1_555 1_555
C12 C11 1_555 1_555
H9 C12 1_555 1_555
C13 C8 1_555 1_555
H10 C13 1_555 1_555
C14 H11 1_555 1_555
C15 C14 1_555 1_555
H12 C15 1_555 1_555
C16 C15 1_555 1_555
H13 C16 1_555 1_555
C17 C16 1_555 1_555
H14 C17 1_555 1_555
C18 C17 1_555 1_555
C19 C18 1_555 1_555
H15 C19 1_555 1_555
C20 C21 1_555 1_555
C21 C22 1_555 1_555
C22 H16 1_555 1_555
C23 C22 1_555 1_555
H17 C23 1_555 1_555
C24 C23 1_555 1_555
H18 C24 1_555 1_555
C25 C24 1_555 1_555
H19 C25 1_555 1_555
C26 C21 1_555 1_555
H20 C26 1_555 1_555
C27 F1 1_555 1_555
C28 F4 1_555 1_555
N1 C1 1_555 1_555
N2 C6 1_555 1_555
N3 C7 1_555 1_555
H21 N3 1_555 1_555
N4 C14 1_555 1_555
N5 C19 1_555 1_555
N6 C20 1_555 1_555
H22 N6 1_555 1_555
O1 C7 1_555 1_555
O2 C20 1_555 1_555
O3 S1 1_555 1_555
O4 S1 1_555 1_555
O5 S1 1_555 1_555
O6 S2 1_555 1_555
O7 S2 1_555 1_555
O8 S2 1_555 1_555
F2 C27 1_555 1_555
F3 C27 1_555 1_555
F5 C28 1_555 1_555
F6 C28 1_555 1_555
S1 C27 1_555 1_555
S2 C28 1_555 1_555
Ca1 N2 1_555 1_555
C1A H1A 1_555 1_555
C2A C1A 1_555 1_555
H2A C2A 1_555 1_555
C3A C2A 1_555 1_555
H3A C3A 1_555 1_555
C4A C3A 1_555 1_555
H4A C4A 1_555 1_555
C5A C4A 1_555 1_555
C6A C5A 1_555 1_555
H5A C6A 1_555 1_555
C7A C8A 1_555 1_555
C8A C9A 1_555 1_555
C9A H6A 1_555 1_555
C10A C9A 1_555 1_555
H7A C10A 1_555 1_555
C11A C10A 1_555 1_555
H8A C11A 1_555 1_555
C12A C11A 1_555 1_555
H9A C12A 1_555 1_555
C13A C8A 1_555 1_555
H10A C13A 1_555 1_555
C14A H11A 1_555 1_555
C15A C14A 1_555 1_555
H12A C15A 1_555 1_555
C16A C15A 1_555 1_555
H13A C16A 1_555 1_555
C17A C16A 1_555 1_555
H14A C17A 1_555 1_555
C18A C17A 1_555 1_555
C19A C18A 1_555 1_555
H15A C19A 1_555 1_555
C20A C21A 1_555 1_555
C21A C22A 1_555 1_555
C22A H16A 1_555 1_555
C23A C22A 1_555 1_555
H17A C23A 1_555 1_555
C24A C23A 1_555 1_555
H18A C24A 1_555 1_555
C25A C24A 1_555 1_555
H19A C25A 1_555 1_555
C26A C21A 1_555 1_555
H20A C26A 1_555 1_555
C27A F1A 1_555 1_555
C28A F4A 1_555 1_555
N1A C1A 1_555 1_555
N2A C6A 1_555 1_555
N3A C7A 1_555 1_555
H21A N3A 1_555 1_555
N4A C14A 1_555 1_555
N5A C19A 1_555 1_555
N6A C20A 1_555 1_555
H22A N6A 1_555 1_555
O1A C7A 1_555 1_555
O2A C20A 1_555 1_555
O3A S1A 1_555 1_555
O4A S1A 1_555 1_555
O5A Ca1 1_555 1_555
O6A S2A 1_555 1_555
O7A S2A 1_555 1_555
O8A S2A 1_555 1_555
F2A C27A 1_555 1_555
F3A C27A 1_555 1_555
F5A C28A 1_555 1_555
F6A C28A 1_555 1_555
S1A C27A 1_555 1_555
S2A C28A 1_555 1_555
Ca1A O5 1_555 1_555
C5 N1 1_555 1_555
C12 C13 1_555 1_555
C18 N4 1_555 1_555
C25 C26 1_555 1_555
N2 N3 1_555 1_555
N5 N6 1_555 1_555
N5 Ca1 1_555 1_555
O1 Ca1 1_555 1_555
O2 Ca1 1_555 1_555
O3 Ca1 1_555 1_555
O6 Ca1 1_555 1_555
C5A N1A 1_555 1_555
C12A C13A 1_555 1_555
C18A N4A 1_555 1_555
C25A C26A 1_555 1_555
N2A N3A 1_555 1_555
N2A Ca1A 1_555 1_555
N5A N6A 1_555 1_555
N5A Ca1A 1_555 1_555
O1A Ca1A 1_555 1_555
O2A Ca1A 1_555 1_555
O3A Ca1A 1_555 1_555
O5A S1A 1_555 1_555
O6A Ca1A 1_555 1_555

#END
