
#######################################################################
#
#                 Cambridge Crystallographic Data Centre
#                                CCDC 
#
#######################################################################
#
# If this CIF has been generated from an entry in the Cambridge 
# Structural Database, then it will include bibliographic, chemical, 
# crystal, experimental, refinement or atomic coordinate data resulting 
# from the CCDC's data processing and validation procedures.
#
#######################################################################

data_NIXMUD
_chemical_formula_moiety         'C16 H20 F4 N8'
_chemical_name_systematic        
8,17,19,20-tetrafluoro-2,5,11,14-tetramethyl-2,5,7,9,11,14,16,18-octaazatricyclo[13.3.1.1^6,10^]icosa-1(19),6(20),7,9,15,17-hexaene
_symmetry_cell_setting           monoclinic
_symmetry_space_group_name_H-M   'P 21/c'
_symmetry_Int_Tables_number      14
_space_group_name_Hall           '-P 2ybc'
loop_
_symmetry_equiv_pos_site_id
_symmetry_equiv_pos_as_xyz
1 x,y,z
2 -x,1/2+y,1/2-z
3 -x,-y,-z
4 x,1/2-y,1/2+z
_cell_length_a                   8.7586(2)
_cell_length_b                   11.4815(3)
_cell_length_c                   8.4589(2)
_cell_angle_alpha                90
_cell_angle_beta                 93.07(1)
_cell_angle_gamma                90
_cell_volume                     849.422
_exptl_crystal_colour            colorless
_exptl_crystal_description       prism
_chemical_melting_point          '134-136 deg.C'
_cell_formula_units_Z            2
loop_
_atom_site_label
_atom_site_type_symbol
_atom_site_fract_x
_atom_site_fract_y
_atom_site_fract_z
F1 F -0.35922(6) 0.57304(6) -0.34584(6)
F2 F 0.06494(6) 0.66086(5) 0.10737(6)
N1 N -0.11069(8) 0.58612(6) -0.27558(9)
N2 N -0.30552(8) 0.60905(7) -0.08974(9)
N3 N -0.24940(8) 0.63658(7) 0.17954(9)
N4 N 0.14692(8) 0.60765(6) -0.20395(9)
C1 C -0.24993(10) 0.59134(8) -0.22872(10)
C2 C -0.16093(10) 0.59163(8) 0.31883(10)
C3 C -0.41534(10) 0.63688(9) 0.19372(11)
C4 C -0.19755(9) 0.62663(7) 0.02982(10)
C5 C -0.04460(9) 0.63609(7) -0.00778(10)
C6 C -0.00057(9) 0.61182(7) -0.16097(10)
C7 C -0.18225(10) 0.46027(8) 0.34391(10)
C8 C 0.27094(11) 0.66915(11) -0.12006(13)
H1 H -0.0423(14) 0.6058(11) 0.3123(15)
H2 H -0.1942(13) 0.6345(11) 0.4104(15)
H3 H -0.4617(14) 0.6942(11) 0.1254(15)
H4 H -0.4666(16) 0.5618(14) 0.1691(17)
H5 H -0.4333(16) 0.6556(12) 0.3043(19)
H6 H -0.1110(14) 0.4354(12) 0.4360(16)
H7 H -0.2909(16) 0.4440(13) 0.3640(17)
H8 H 0.2418(17) 0.7362(14) -0.0723(18)
H9 H 0.360(2) 0.6713(18) -0.191(2)
H10 H 0.313(2) 0.6197(17) -0.031(3)
F1B F 0.35922(6) 0.42696(6) 0.34584(6)
F2B F -0.06494(6) 0.33914(5) -0.10737(6)
N1B N 0.11069(8) 0.41388(6) 0.27558(9)
N2B N 0.30552(8) 0.39095(7) 0.08974(9)
N3B N 0.24940(8) 0.36342(7) -0.17954(9)
N4B N -0.14692(8) 0.39235(6) 0.20395(9)
C1B C 0.24993(10) 0.40866(8) 0.22872(10)
C2B C 0.16093(10) 0.40837(8) -0.31883(10)
C3B C 0.41534(10) 0.36312(9) -0.19372(11)
C4B C 0.19755(9) 0.37337(7) -0.02982(10)
C5B C 0.04460(9) 0.36391(7) 0.00778(10)
C6B C 0.00057(9) 0.38818(7) 0.16097(10)
C7B C 0.18225(10) 0.53973(8) -0.34391(10)
C8B C -0.27094(11) 0.33085(11) 0.12006(13)
H1B H 0.0423(14) 0.3942(11) -0.3123(15)
H2B H 0.1942(13) 0.3655(11) -0.4104(15)
H3B H 0.4617(14) 0.3058(11) -0.1254(15)
H4B H 0.4666(16) 0.4382(14) -0.1691(17)
H5B H 0.4333(16) 0.3444(12) -0.3043(19)
H6B H 0.1110(14) 0.5646(12) -0.4360(16)
H7B H 0.2909(16) 0.5560(13) -0.3640(17)
H8B H -0.2418(17) 0.2638(14) 0.0723(18)
H9B H -0.360(2) 0.3287(18) 0.191(2)
H10B H -0.313(2) 0.3803(17) 0.031(3)
loop_
_geom_bond_atom_site_label_1
_geom_bond_atom_site_label_2
_geom_bond_site_symmetry_1
_geom_bond_site_symmetry_2
F1 C1 1_555 1_555
F2 C5 1_555 1_555
N1 C1 1_555 1_555
N2 C1 1_555 1_555
N3 C2 1_555 1_555
N4 C6 1_555 1_555
C2 C7 1_555 1_555
C3 N3 1_555 1_555
C4 N2 1_555 1_555
C5 C4 1_555 1_555
C6 N1 1_555 1_555
C7 H6 1_555 1_555
C8 N4 1_555 1_555
H1 C2 1_555 1_555
H2 C2 1_555 1_555
H3 C3 1_555 1_555
H4 C3 1_555 1_555
H5 C3 1_555 1_555
H7 C7 1_555 1_555
H8 C8 1_555 1_555
H9 C8 1_555 1_555
H10 C8 1_555 1_555
F1B C1B 1_555 1_555
F2B C5B 1_555 1_555
N1B C1B 1_555 1_555
N2B C1B 1_555 1_555
N3B C2B 1_555 1_555
N4B C7 1_555 1_555
C2B C7B 1_555 1_555
C3B N3B 1_555 1_555
C4B N2B 1_555 1_555
C5B C4B 1_555 1_555
C6B N1B 1_555 1_555
C7B N4 1_555 1_555
C8B N4B 1_555 1_555
H1B C2B 1_555 1_555
H2B C2B 1_555 1_555
H3B C3B 1_555 1_555
H4B C3B 1_555 1_555
H5B C3B 1_555 1_555
H6B C7B 1_555 1_555
H7B C7B 1_555 1_555
H8B C8B 1_555 1_555
H9B C8B 1_555 1_555
H10B C8B 1_555 1_555
N3 C4 1_555 1_555
C5 C6 1_555 1_555
N3B C4B 1_555 1_555
N4B C6B 1_555 1_555
C5B C6B 1_555 1_555

#END
