
#######################################################################
#
#                 Cambridge Crystallographic Data Centre
#                                CCDC 
#
#######################################################################
#
# If this CIF has been generated from an entry in the Cambridge 
# Structural Database, then it will include bibliographic, chemical, 
# crystal, experimental, refinement or atomic coordinate data resulting 
# from the CCDC's data processing and validation procedures.
#
#######################################################################

data_NIXMOX
_chemical_formula_moiety         'C12 H10 F6 N6'
_chemical_name_systematic        
N,N'-Dimethyl-N,N'-bis(2,5,6-trifluoropyrimidin-4-yl)ethane-1,2-diamine
_symmetry_cell_setting           monoclinic
_symmetry_space_group_name_H-M   'C 2/c'
_symmetry_Int_Tables_number      15
_space_group_name_Hall           '-C 2yn'
loop_
_symmetry_equiv_pos_site_id
_symmetry_equiv_pos_as_xyz
1 x,y,z
2 1/2+x,1/2+y,z
3 -x,y,1/2-z
4 1/2-x,1/2+y,1/2-z
5 -x,-y,-z
6 1/2-x,1/2-y,-z
7 x,-y,1/2+z
8 1/2+x,1/2-y,1/2+z
_cell_length_a                   11.4630(3)
_cell_length_b                   12.2442(4)
_cell_length_c                   9.9728(3)
_cell_angle_alpha                90
_cell_angle_beta                 90.4530(10)
_cell_angle_gamma                90
_cell_volume                     1399.69
_exptl_crystal_colour            colorless
_exptl_crystal_description       prism
_chemical_melting_point          '100-102 deg.C'
_cell_formula_units_Z            4
loop_
_atom_site_label
_atom_site_type_symbol
_atom_site_fract_x
_atom_site_fract_y
_atom_site_fract_z
F1 F 0.14167(8) 0.36127(9) 0.20588(9)
F2 F 0.51441(8) 0.37785(8) -0.10180(10)
F3 F 0.34550(9) 0.52260(8) -0.11939(10)
N1 N 0.24077(10) 0.44682(9) 0.04548(12)
N2 N 0.31242(9) 0.28608(8) 0.15360(9)
N3 N 0.48851(9) 0.20458(8) 0.09834(10)
C1 C 0.23764(11) 0.36517(11) 0.13108(13)
C2 C 0.41076(10) 0.28546(8) 0.07913(11)
C3 C 0.42372(11) 0.36893(9) -0.01731(12)
C4 C 0.33623(12) 0.44390(10) -0.02696(13)
C5 C 0.46311(11) 0.11224(9) 0.18629(13)
C6 C 0.60093(14) 0.20119(15) 0.02823(16)
H1 H 0.3801(15) 0.1110(13) 0.2077(17)
H2 H 0.4854(14) 0.0444(14) 0.1403(17)
H3 H 0.6436(19) 0.267(2) 0.044(2)
H4 H 0.644(2) 0.139(2) 0.059(3)
H5 H 0.584(2) 0.195(2) -0.065(3)
F1B F 0.85833(8) 0.36127(9) 0.29412(9)
F2B F 0.48559(8) 0.37785(8) 0.60180(10)
F3B F 0.65450(9) 0.52260(8) 0.61939(10)
N1B N 0.75923(10) 0.44682(9) 0.45452(12)
N2B N 0.68758(9) 0.28608(8) 0.34640(9)
N3B N 0.51149(9) 0.20458(8) 0.40166(10)
C1B C 0.76236(11) 0.36517(11) 0.36892(13)
C2B C 0.58924(10) 0.28546(8) 0.42087(11)
C3B C 0.57628(11) 0.36893(9) 0.51731(12)
C4B C 0.66377(12) 0.44390(10) 0.52696(13)
C5B C 0.53689(11) 0.11224(9) 0.31371(13)
C6B C 0.39907(14) 0.20119(15) 0.47177(16)
H1B H 0.6199(15) 0.1110(13) 0.2923(17)
H2B H 0.5146(14) 0.0444(14) 0.3597(17)
H3B H 0.3564(19) 0.267(2) 0.456(2)
H4B H 0.356(2) 0.139(2) 0.441(3)
H5B H 0.416(2) 0.195(2) 0.565(3)
C7? C 0.31242(9) 0.28608(8) 0.15360(9)
N4? N 0.42372(11) 0.36893(9) -0.01731(12)
F4? F 0.2670(7) 0.2273(7) 0.2544(9)
loop_
_geom_bond_atom_site_label_1
_geom_bond_atom_site_label_2
_geom_bond_site_symmetry_1
_geom_bond_site_symmetry_2
F1 C1 1_555 1_555
F2 C3 1_555 1_555
F3 C4 1_555 1_555
N1 C1 1_555 1_555
N2 C1 1_555 1_555
N3 C2 1_555 1_555
C2 N2 1_555 1_555
C3 C2 1_555 1_555
C4 N1 1_555 1_555
C5 N3 1_555 1_555
C6 N3 1_555 1_555
H1 C5 1_555 1_555
H2 C5 1_555 1_555
H3 C6 1_555 1_555
H4 C6 1_555 1_555
H5 C6 1_555 1_555
F1B C1B 1_555 1_555
F2B C3B 1_555 1_555
F3B C4B 1_555 1_555
N1B C1B 1_555 1_555
N2B C1B 1_555 1_555
N3B C2B 1_555 1_555
C2B N2B 1_555 1_555
C3B C2B 1_555 1_555
C4B N1B 1_555 1_555
C5B C5 1_555 1_555
C6B N3B 1_555 1_555
H1B C5B 1_555 1_555
H2B C5B 1_555 1_555
H3B C6B 1_555 1_555
H4B C6B 1_555 1_555
H5B C6B 1_555 1_555
C3 C4 1_555 1_555
N3B C5B 1_555 1_555
C3B C4B 1_555 1_555

#END
