
#######################################################################
#
#                 Cambridge Crystallographic Data Centre
#                                CCDC 
#
#######################################################################
#
# If this CIF has been generated from an entry in the Cambridge 
# Structural Database, then it will include bibliographic, chemical, 
# crystal, experimental, refinement or atomic coordinate data resulting 
# from the CCDC's data processing and validation procedures.
#
#######################################################################

data_NIXVOH
_chemical_formula_moiety         'C36 H18 Cl4 N6 O4'
_chemical_name_systematic        
2,9-Di-n-butyl-5,6,12,13-tetrachloro-1,3,8,10-tetraoxo-1,2,3,8,9,10-hexahydroisoquinolino[4',5',6':6,5,10]anthra[2,1,9-def]isoquinoline-4,7,11,14-tetracarbonitrile
_symmetry_cell_setting           orthorhombic
_symmetry_space_group_name_H-M   'P 21 21 21'
_symmetry_Int_Tables_number      19
_space_group_name_Hall           'P 2ac 2ab'
loop_
_symmetry_equiv_pos_site_id
_symmetry_equiv_pos_as_xyz
1 x,y,z
2 1/2-x,-y,1/2+z
3 -x,1/2+y,1/2-z
4 1/2+x,1/2-y,-z
_cell_length_a                   10.727(2)
_cell_length_b                   10.905(2)
_cell_length_c                   26.433(5)
_cell_angle_alpha                90
_cell_angle_beta                 90
_cell_angle_gamma                90
_cell_volume                     3092.08
_exptl_crystal_colour            red
_exptl_crystal_description       block
_cell_formula_units_Z            4
loop_
_atom_site_label
_atom_site_type_symbol
_atom_site_fract_x
_atom_site_fract_y
_atom_site_fract_z
Cl1 Cl 0.84034(18) 0.43891(17) 0.43777(7)
Cl2 Cl 0.85323(17) 0.44561(18) 0.32220(7)
Cl3 Cl 0.43649(18) 0.98724(18) 0.34018(7)
Cl4 Cl 0.28777(17) 0.83051(18) 0.41778(7)
O1 O 1.0514(6) 0.8550(5) 0.5004(2)
O2 O 0.8369(6) 1.1695(5) 0.4308(2)
O3 O 0.4418(5) 0.2487(5) 0.2454(2)
O4 O 0.1147(5) 0.4835(5) 0.2948(2)
N1 N 0.9454(6) 1.0143(6) 0.4650(2)
N2 N 0.2765(6) 0.3677(6) 0.2685(2)
N3 N 1.0927(8) 0.5726(7) 0.4924(3)
N4 N 0.7226(8) 0.2000(8) 0.2644(3)
N5 N 0.0367(6) 0.7107(6) 0.3552(2)
N6 N 0.5737(7) 1.2412(7) 0.3929(2)
C1 C 1.2577(8) 1.3394(9) 0.4223(4)
H1 H 1.3121 1.4013 0.4377
H2 H 1.1975 1.3796 0.3999
H3 H 1.3083 1.2815 0.4027
C2 C 1.1872(8) 1.2694(8) 0.4644(3)
H4 H 1.2476 1.2436 0.4907
H5 H 1.1266 1.3257 0.4805
C3 C 1.1187(8) 1.1581(8) 0.4453(3)
H6 H 1.1796 1.0953 0.4344
H7 H 1.0672 1.1809 0.4157
C4 C 1.0349(8) 1.1050(7) 0.4871(3)
H8 H 1.0870 1.0642 0.5130
H9 H 0.9880 1.1721 0.5036
C5 C 0.9672(7) 0.8884(7) 0.4746(3)
C6 C 0.8808(7) 0.8017(7) 0.4490(3)
C7 C 0.8992(7) 0.6756(7) 0.4525(3)
C8 C 1.0071(8) 0.6240(7) 0.4774(3)
C9 C 0.8189(7) 0.5924(7) 0.4265(3)
C10 C 0.7219(7) 0.6367(7) 0.3964(3)
C11 C 0.6488(7) 0.5619(7) 0.3601(2)
C12 C 0.6948(6) 0.4673(7) 0.3302(3)
C13 C 0.6162(7) 0.3921(7) 0.3014(3)
C14 C 0.6693(8) 0.2843(8) 0.2774(3)
C15 C 0.4889(7) 0.4141(7) 0.2998(3)
C16 C 0.4017(7) 0.3369(7) 0.2693(3)
C17 C 0.2257(7) 0.4661(7) 0.2953(3)
C18 C 0.3135(6) 0.5436(7) 0.3258(3)
C19 C 0.2671(7) 0.6423(7) 0.3528(3)
C20 C 0.1340(7) 0.6742(7) 0.3530(3)
C21 C 0.3493(7) 0.7234(6) 0.3772(3)
C22 C 0.4784(7) 0.7110(6) 0.3714(3)
C23 C 0.5739(7) 0.8046(7) 0.3830(3)
C24 C 0.5559(7) 0.9270(7) 0.3761(3)
C25 C 0.6462(7) 1.0148(7) 0.3948(3)
C26 C 0.6142(7) 1.1412(7) 0.3928(3)
C27 C 0.7529(7) 0.9725(7) 0.4182(3)
C28 C 0.8453(8) 1.0600(7) 0.4378(3)
C29 C 0.7746(7) 0.8447(6) 0.4217(3)
C30 C 0.6908(6) 0.7624(7) 0.4002(2)
C31 C 0.5244(7) 0.5953(7) 0.3529(3)
C32 C 0.4394(7) 0.5189(6) 0.3260(3)
C33 C 0.1913(8) 0.2935(8) 0.2357(3)
H10 H 0.2423 0.2434 0.2123
H11 H 0.1402 0.3500 0.2150
C34 C 0.1055(8) 0.2096(7) 0.2650(3)
H12 H 0.0526 0.2602 0.2876
H13 H 0.0498 0.1671 0.2409
C35 C 0.1722(8) 0.1147(8) 0.2967(3)
H14 H 0.2161 0.1557 0.3249
H15 H 0.2353 0.0723 0.2756
C36 C 0.0794(8) 0.0193(8) 0.3181(3)
H16 H 0.0214 0.0601 0.3413
H17 H 0.1254 -0.0444 0.3364
H18 H 0.0326 -0.0180 0.2903
loop_
_geom_bond_atom_site_label_1
_geom_bond_atom_site_label_2
_geom_bond_site_symmetry_1
_geom_bond_site_symmetry_2
Cl1 C9 1_555 1_555
Cl2 C12 1_555 1_555
Cl3 C24 1_555 1_555
Cl4 C21 1_555 1_555
O1 C5 1_555 1_555
O2 C28 1_555 1_555
O3 C16 1_555 1_555
O4 C17 1_555 1_555
N1 C4 1_555 1_555
N2 C16 1_555 1_555
N3 C8 1_555 1_555
N4 C14 1_555 1_555
N5 C20 1_555 1_555
N6 C26 1_555 1_555
C1 H1 1_555 1_555
H2 C1 1_555 1_555
H3 C1 1_555 1_555
C2 C1 1_555 1_555
H4 C2 1_555 1_555
H5 C2 1_555 1_555
C3 C2 1_555 1_555
H6 C3 1_555 1_555
H7 C3 1_555 1_555
C4 C3 1_555 1_555
H8 C4 1_555 1_555
H9 C4 1_555 1_555
C5 N1 1_555 1_555
C6 C5 1_555 1_555
C7 C6 1_555 1_555
C8 C7 1_555 1_555
C9 C7 1_555 1_555
C10 C9 1_555 1_555
C11 C10 1_555 1_555
C12 C11 1_555 1_555
C13 C12 1_555 1_555
C14 C13 1_555 1_555
C15 C13 1_555 1_555
C16 C15 1_555 1_555
C17 N2 1_555 1_555
C18 C17 1_555 1_555
C19 C18 1_555 1_555
C20 C19 1_555 1_555
C21 C19 1_555 1_555
C22 C21 1_555 1_555
C23 C22 1_555 1_555
C24 C23 1_555 1_555
C25 C24 1_555 1_555
C26 C25 1_555 1_555
C27 C25 1_555 1_555
C28 N1 1_555 1_555
C29 C6 1_555 1_555
C30 C10 1_555 1_555
C31 C11 1_555 1_555
C32 C15 1_555 1_555
C33 N2 1_555 1_555
H10 C33 1_555 1_555
H11 C33 1_555 1_555
C34 C33 1_555 1_555
H12 C34 1_555 1_555
H13 C34 1_555 1_555
C35 C34 1_555 1_555
H14 C35 1_555 1_555
H15 C35 1_555 1_555
C36 C35 1_555 1_555
H16 C36 1_555 1_555
H17 C36 1_555 1_555
H18 C36 1_555 1_555
C18 C32 1_555 1_555
C22 C31 1_555 1_555
C23 C30 1_555 1_555
C27 C28 1_555 1_555
C27 C29 1_555 1_555
C29 C30 1_555 1_555
C31 C32 1_555 1_555

#END
