
#######################################################################
#
#                 Cambridge Crystallographic Data Centre
#                                CCDC 
#
#######################################################################
#
# If this CIF has been generated from an entry in the Cambridge 
# Structural Database, then it will include bibliographic, chemical, 
# crystal, experimental, refinement or atomic coordinate data resulting 
# from the CCDC's data processing and validation procedures.
#
#######################################################################

data_NIXWAU
_chemical_formula_moiety         'C34 H20 Cl4 N4 O4'
_chemical_name_systematic        
2,9-Di-n-butyl-5,6,12,13-tetrachloro-1,3,8,10-tetraoxo-1,2,3,8,9,10-hexahydroisoquinolino[4',5',6':6,5,10]anthra[2,1,9-def]isoquinoline-4,14-dicarbonitrile
_symmetry_cell_setting           monoclinic
_symmetry_space_group_name_H-M   'P 21/c'
_symmetry_Int_Tables_number      14
_space_group_name_Hall           '-P 2ybc'
loop_
_symmetry_equiv_pos_site_id
_symmetry_equiv_pos_as_xyz
1 x,y,z
2 -x,1/2+y,1/2-z
3 -x,-y,-z
4 x,1/2-y,1/2+z
_cell_length_a                   14.709(3)
_cell_length_b                   24.134(5)
_cell_length_c                   8.1174(16)
_cell_angle_alpha                90
_cell_angle_beta                 90.06(3)
_cell_angle_gamma                90
_cell_volume                     2881.57
_exptl_crystal_colour            red
_exptl_crystal_description       plate
_cell_formula_units_Z            4
loop_
_atom_site_label
_atom_site_type_symbol
_atom_site_fract_x
_atom_site_fract_y
_atom_site_fract_z
Cl1 Cl 0.20373(10) 0.46930(6) 0.29827(17)
Cl2 Cl 0.28185(11) 0.57087(6) 0.12754(17)
Cl3 Cl 0.07275(11) 0.65446(6) 0.96963(17)
Cl4 Cl -0.00798(10) 0.73544(6) 0.71012(17)
O1 O 0.5444(3) 0.65978(16) 0.4937(5)
O2 O 0.4145(3) 0.73020(17) 0.9555(5)
O3 O -0.2654(3) 0.63414(17) 0.3729(5)
O4 O -0.1476(3) 0.47494(17) 0.1590(5)
N1 N -0.2051(3) 0.5564(2) 0.2533(6)
N2 N 0.4959(4) 0.6208(2) 0.1372(6)
N3 N 0.4808(3) 0.6956(2) 0.7238(6)
C1 C 0.3122(4) 0.6490(2) 0.6279(7)
C2 C 0.1319(4) 0.5682(2) 0.4014(6)
C3 C 0.0302(4) 0.5014(3) 0.2675(7)
H1 H 0.0221 0.4671 0.2120
C4 C 0.2460(4) 0.6777(2) 0.8863(7)
C5 C 0.2262(4) 0.6296(2) 0.5758(7)
C6 C -0.1097(4) 0.6175(2) 0.4244(7)
C7 C 0.3775(4) 0.6202(2) 0.3695(7)
C8 C 0.1595(4) 0.6597(2) 0.8300(7)
C9 C 0.0533(4) 0.5970(2) 0.4576(6)
C10 C -0.0337(4) 0.5834(2) 0.3905(7)
C11 C 0.0595(4) 0.6390(2) 0.5794(6)
C12 C 0.3208(4) 0.6753(2) 0.7822(7)
C13 C 0.2928(4) 0.5960(2) 0.3247(7)
C14 C 0.2500(4) 0.6991(2) 1.0529(7)
C15 C -0.0984(4) 0.6637(2) 0.5211(7)
H2 H -0.1474 0.6889 0.5348
N4 N 0.2461(4) 0.7128(2) 1.1872(6)
C16 C -0.1343(4) 0.5194(2) 0.2294(7)
C17 C -0.0434(4) 0.5351(2) 0.2961(7)
C18 C -0.5187(4) 0.4715(3) 0.2879(7)
H3 H -0.5638 0.4546 0.2146
H4 H -0.5452 0.5042 0.3411
H5 H -0.5004 0.4446 0.3722
C19 C -0.0153(4) 0.6739(2) 0.5998(6)
C20 C 0.2200(4) 0.5959(2) 0.4316(7)
C21 C 0.1173(4) 0.5175(2) 0.3199(7)
C22 C 0.4081(4) 0.7026(2) 0.8306(7)
C23 C 0.1474(4) 0.6441(2) 0.6669(7)
C24 C -0.1985(4) 0.6052(2) 0.3514(7)
C25 C 0.3871(4) 0.6441(2) 0.5242(7)
C26 C 0.4488(4) 0.6214(3) 0.2465(7)
C27 C 0.7277(4) 0.7166(3) 0.8674(8)
H6 H 0.7532 0.7277 0.7595
H7 H 0.7166 0.7507 0.9322
C28 C 0.4778(4) 0.6667(2) 0.5759(7)
C29 C -0.2936(4) 0.5443(3) 0.1782(7)
H8 H -0.2837 0.5221 0.0773
H9 H -0.3223 0.5797 0.1447
C30 C 0.5658(4) 0.7242(3) 0.7602(8)
H10 H 0.5530 0.7556 0.8353
H11 H 0.5907 0.7397 0.6567
C31 C 0.7960(5) 0.6807(3) 0.9572(8)
H12 H 0.8045 0.6459 0.8969
H13 H 0.7736 0.6727 1.0684
H14 H 0.8542 0.7003 0.9647
C32 C 0.6378(4) 0.6866(3) 0.8400(8)
H15 H 0.6147 0.6729 0.9471
H16 H 0.6483 0.6540 0.7682
C33 C -0.4365(4) 0.4886(3) 0.1890(7)
H17 H -0.4558 0.5162 0.1059
H18 H -0.4134 0.4558 0.1290
C34 C -0.3588(4) 0.5132(3) 0.2903(7)
H19 H -0.3836 0.5388 0.3743
H20 H -0.3258 0.4831 0.3481
loop_
_geom_bond_atom_site_label_1
_geom_bond_atom_site_label_2
_geom_bond_site_symmetry_1
_geom_bond_site_symmetry_2
Cl1 C21 1_555 1_555
Cl2 C13 1_555 1_555
Cl3 C8 1_555 1_555
Cl4 C19 1_555 1_555
O1 C28 1_555 1_555
O2 C22 1_555 1_555
O3 C24 1_555 1_555
O4 C16 1_555 1_555
N1 C16 1_555 1_555
N2 C26 1_555 1_555
N3 C22 1_555 1_555
C1 C5 1_555 1_555
C2 C9 1_555 1_555
C3 H1 1_555 1_555
C4 C8 1_555 1_555
C5 C20 1_555 1_555
C6 C10 1_555 1_555
C7 C13 1_555 1_555
C8 C23 1_555 1_555
C9 C10 1_555 1_555
C10 C17 1_555 1_555
C11 C9 1_555 1_555
C12 C1 1_555 1_555
C13 C20 1_555 1_555
C14 C4 1_555 1_555
C15 C6 1_555 1_555
H2 C15 1_555 1_555
N4 C14 1_555 1_555
C16 C17 1_555 1_555
C17 C3 1_555 1_555
C18 H3 1_555 1_555
H4 C18 1_555 1_555
H5 C18 1_555 1_555
C19 C11 1_555 1_555
C20 C2 1_555 1_555
C21 C2 1_555 1_555
C22 C12 1_555 1_555
C23 C5 1_555 1_555
C24 N1 1_555 1_555
C25 C1 1_555 1_555
C26 C7 1_555 1_555
C27 H6 1_555 1_555
H7 C27 1_555 1_555
C28 N3 1_555 1_555
C29 N1 1_555 1_555
H8 C29 1_555 1_555
H9 C29 1_555 1_555
C30 N3 1_555 1_555
H10 C30 1_555 1_555
H11 C30 1_555 1_555
C31 C27 1_555 1_555
H12 C31 1_555 1_555
H13 C31 1_555 1_555
H14 C31 1_555 1_555
C32 C27 1_555 1_555
H15 C32 1_555 1_555
H16 C32 1_555 1_555
C33 C18 1_555 1_555
H17 C33 1_555 1_555
H18 C33 1_555 1_555
C34 C29 1_555 1_555
H19 C34 1_555 1_555
H20 C34 1_555 1_555
C3 C21 1_555 1_555
C4 C12 1_555 1_555
C6 C24 1_555 1_555
C7 C25 1_555 1_555
C11 C23 1_555 1_555
C15 C19 1_555 1_555
C25 C28 1_555 1_555
C30 C32 1_555 1_555
C33 C34 1_555 1_555

#END
