
#######################################################################
#
#                 Cambridge Crystallographic Data Centre
#                                CCDC 
#
#######################################################################
#
# If this CIF has been generated from an entry in the Cambridge 
# Structural Database, then it will include bibliographic, chemical, 
# crystal, experimental, refinement or atomic coordinate data resulting 
# from the CCDC's data processing and validation procedures.
#
#######################################################################

data_NMCABZ01
_chemical_formula_moiety         'C13 H11 N1'
_chemical_name_systematic        9-methyl-9H-carbazole
_symmetry_cell_setting           monoclinic
_symmetry_space_group_name_H-M   'P 21/c'
_symmetry_Int_Tables_number      14
_space_group_name_Hall           '-P 2ybc'
loop_
_symmetry_equiv_pos_site_id
_symmetry_equiv_pos_as_xyz
1 x,y,z
2 -x,1/2+y,1/2-z
3 -x,-y,-z
4 x,1/2-y,1/2+z
_cell_length_a                   19.2078(18)
_cell_length_b                   5.731(3)
_cell_length_c                   19.5573(14)
_cell_angle_alpha                90
_cell_angle_beta                 113.257(9)
_cell_angle_gamma                90
_cell_volume                     1977.93
_exptl_crystal_colour            colorless
_exptl_crystal_description       block
_cell_formula_units_Z            8
loop_
_atom_site_label
_atom_site_type_symbol
_atom_site_fract_x
_atom_site_fract_y
_atom_site_fract_z
N1 N 0.37098(15) 0.7038(4) 0.20349(13)
C1 C 0.41536(17) 0.6967(6) 0.16213(17)
C2 C 0.47167(19) 0.5400(6) 0.16648(19)
H1 H 0.4853 0.4180 0.2006
C3 C 0.50634(19) 0.5731(7) 0.1182(2)
H2 H 0.5442 0.4698 0.1196
C4 C 0.4874(2) 0.7533(8) 0.0676(2)
H3 H 0.5124 0.7695 0.0357
C5 C 0.43176(19) 0.9091(6) 0.06386(17)
H4 H 0.4191 1.0309 0.0297
C6 C 0.39424(16) 0.8835(6) 0.11191(16)
C7 C 0.33344(17) 1.0045(6) 0.12164(15)
C8 C 0.32061(17) 0.8858(6) 0.17824(16)
C9 C 0.26392(19) 0.9570(6) 0.20107(17)
H5 H 0.2558 0.8786 0.2389
C10 C 0.22074(18) 1.1437(7) 0.1667(2)
H6 H 0.1827 1.1935 0.1815
C11 C 0.23222(18) 1.2630(6) 0.10946(19)
H7 H 0.2018 1.3900 0.0864
C12 C 0.28844(19) 1.1920(6) 0.08744(17)
H8 H 0.2961 1.2707 0.0494
C13 C 0.37707(17) 0.5397(5) 0.26245(17)
H9 H 0.3406 0.5792 0.2829
H10 H 0.4272 0.5472 0.3009
H11 H 0.3674 0.3844 0.2424
N2 N 0.11318(17) -0.1402(5) 0.42973(14)
C14 C 0.2785(2) 0.1773(9) 0.3795(2)
H12 H 0.3149 0.2570 0.3683
C15 C 0.2987(2) -0.0227(9) 0.4223(2)
H13 H 0.3481 -0.0777 0.4380
C16 C 0.2478(2) -0.1423(6) 0.44225(17)
H14 H 0.2618 -0.2755 0.4717
C17 C 0.1745(2) -0.0558(6) 0.41650(17)
C18 C 0.1518(2) 0.1430(6) 0.37206(16)
C19 C 0.2056(2) 0.2599(6) 0.35337(17)
H15 H 0.1922 0.3923 0.3235
C20 C 0.0731(2) 0.1783(6) 0.35563(17)
C21 C 0.0517(2) -0.0002(6) 0.39270(17)
C22 C -0.0218(2) -0.0151(6) 0.38965(18)
H16 H -0.0354 -0.1316 0.4151
C23 C -0.0734(2) 0.1478(8) 0.3478(2)
H17 H -0.1230 0.1403 0.3447
C24 C -0.0534(2) 0.3235(7) 0.31007(19)
H18 H -0.0896 0.4313 0.2820
C25 C 0.0192(2) 0.3386(6) 0.31406(17)
H19 H 0.0323 0.4568 0.2888
C26 C 0.11556(18) -0.3338(6) 0.47887(17)
H20 H 0.0660 -0.3580 0.4785
H21 H 0.1505 -0.2982 0.5286
H22 H 0.1317 -0.4726 0.4619
loop_
_geom_bond_atom_site_label_1
_geom_bond_atom_site_label_2
_geom_bond_site_symmetry_1
_geom_bond_site_symmetry_2
N1 C1 1_555 1_555
C1 C2 1_555 1_555
C2 H1 1_555 1_555
C3 C2 1_555 1_555
H2 C3 1_555 1_555
C4 C3 1_555 1_555
H3 C4 1_555 1_555
C5 C4 1_555 1_555
H4 C5 1_555 1_555
C6 C1 1_555 1_555
C7 C6 1_555 1_555
C8 N1 1_555 1_555
C9 C8 1_555 1_555
H5 C9 1_555 1_555
C10 C9 1_555 1_555
H6 C10 1_555 1_555
C11 C10 1_555 1_555
H7 C11 1_555 1_555
C12 C7 1_555 1_555
H8 C12 1_555 1_555
C13 N1 1_555 1_555
H9 C13 1_555 1_555
H10 C13 1_555 1_555
H11 C13 1_555 1_555
N2 C17 1_555 1_555
C14 H12 1_555 1_555
C15 C14 1_555 1_555
H13 C15 1_555 1_555
C16 C15 1_555 1_555
H14 C16 1_555 1_555
C17 C16 1_555 1_555
C18 C17 1_555 1_555
C19 C14 1_555 1_555
H15 C19 1_555 1_555
C20 C18 1_555 1_555
C21 N2 1_555 1_555
C22 C21 1_555 1_555
H16 C22 1_555 1_555
C23 C22 1_555 1_555
H17 C23 1_555 1_555
C24 C23 1_555 1_555
H18 C24 1_555 1_555
C25 C20 1_555 1_555
H19 C25 1_555 1_555
C26 N2 1_555 1_555
H20 C26 1_555 1_555
H21 C26 1_555 1_555
H22 C26 1_555 1_555
C5 C6 1_555 1_555
C7 C8 1_555 1_555
C11 C12 1_555 1_555
C18 C19 1_555 1_555
C20 C21 1_555 1_555
C24 C25 1_555 1_555

#END
