
#######################################################################
#
#                 Cambridge Crystallographic Data Centre
#                                CCDC 
#
#######################################################################
#
# If this CIF has been generated from an entry in the Cambridge 
# Structural Database, then it will include bibliographic, chemical, 
# crystal, experimental, refinement or atomic coordinate data resulting 
# from the CCDC's data processing and validation procedures.
#
#######################################################################

data_NOBNIC
_chemical_formula_moiety         'C34 H52 O2'
_chemical_name_systematic        
5,6a,6b,8-Tetra-n-butyl-1,2,3,4,6a,6b,9,10,11,12-decahydroindeno(7a',1':3,4)cyclobuta(1,2-c)indene-6,7-dione
_symmetry_cell_setting           monoclinic
_symmetry_space_group_name_H-M   'C 2/c'
_symmetry_Int_Tables_number      15
_space_group_name_Hall           '-C 2yn'
loop_
_symmetry_equiv_pos_site_id
_symmetry_equiv_pos_as_xyz
1 x,y,z
2 1/2+x,1/2+y,z
3 -x,y,1/2-z
4 1/2-x,1/2+y,1/2-z
5 -x,-y,-z
6 1/2-x,1/2-y,-z
7 x,-y,1/2+z
8 1/2+x,1/2-y,1/2+z
_cell_length_a                   22.715(5)
_cell_length_b                   8.6051(17)
_cell_length_c                   16.731(3)
_cell_angle_alpha                90
_cell_angle_beta                 109.25(3)
_cell_angle_gamma                90
_cell_volume                     3087.48
_exptl_crystal_colour            colorless
_exptl_crystal_description       block
_chemical_melting_point          '117.1-118.5 deg.C'
_cell_formula_units_Z            4
loop_
_atom_site_label
_atom_site_type_symbol
_atom_site_fract_x
_atom_site_fract_y
_atom_site_fract_z
O1 O 0.44054(13) 0.5791(3) 0.33617(17)
C1 C 0.45601(18) 0.7134(5) 0.3292(2)
C2 C 0.42575(16) 0.8532(5) 0.3469(2)
C3 C 0.45506(16) 0.9793(4) 0.3325(2)
C4 C 0.44449(19) 1.1440(5) 0.3515(2)
H1 H 0.4137 1.1483 0.3802
H2 H 0.4284 1.2019 0.2990
C5 C 0.5063(2) 1.2193(4) 0.4083(2)
H3 H 0.4998 1.3292 0.4153
H4 H 0.5193 1.1711 0.4638
C6 C 0.5566(2) 1.1983(4) 0.3683(3)
H5 H 0.5950 1.2441 0.4049
H6 H 0.5445 1.2535 0.3147
C7 C 0.56832(16) 1.0295(4) 0.3528(2)
H7 H 0.5863 0.9781 0.4071
H8 H 0.5987 1.0247 0.3236
C8 C 0.51049(15) 0.9413(4) 0.30139(18)
C9 C 0.51008(16) 0.7598(4) 0.30043(19)
C10 C 0.37028(16) 0.8453(5) 0.3764(2)
H9 H 0.3732 0.7509 0.4091
H10 H 0.3723 0.9323 0.4140
C11 C 0.30801(17) 0.8478(7) 0.3080(3)
H11 H 0.3034 0.9420 0.2746
H12 H 0.3038 0.7591 0.2707
C12 C 0.2603(3) 0.8418(9) 0.3501(5)
H13 H 0.2674 0.9270 0.3902
H14 H 0.2652 0.7456 0.3819
C13 C 0.1953(4) 0.8514(9) 0.2912(5)
H15 H 0.1669 0.8475 0.3228
H16 H 0.1872 0.7656 0.2524
H17 H 0.1897 0.9472 0.2602
C14 C 0.56947(16) 0.6717(4) 0.34794(18)
H18 H 0.6040 0.7203 0.3354
H19 H 0.5656 0.5665 0.3260
C15 C 0.58617(17) 0.6630(4) 0.44555(18)
H20 H 0.5549 0.6022 0.4594
H21 H 0.5862 0.7668 0.4681
C16 C 0.6514(2) 0.5875(8) 0.4868(3)
C17 C 0.6809(3) 0.6169(10) 0.5833(3)
O1B O 0.55946(13) 0.5791(3) 0.16383(17)
C1B C 0.54399(18) 0.7134(5) 0.1708(2)
C2B C 0.57425(16) 0.8532(5) 0.1531(2)
C3B C 0.54494(16) 0.9793(4) 0.1675(2)
C4B C 0.55551(19) 1.1440(5) 0.1485(2)
H1B H 0.5863 1.1483 0.1198
H2B H 0.5716 1.2019 0.2010
C5B C 0.4937(2) 1.2193(4) 0.0917(2)
H3B H 0.5002 1.3292 0.0847
H4B H 0.4807 1.1711 0.0362
C6B C 0.4434(2) 1.1983(4) 0.1317(3)
H5B H 0.4050 1.2441 0.0951
H6B H 0.4555 1.2535 0.1853
C7B C 0.43168(16) 1.0295(4) 0.1472(2)
H7B H 0.4137 0.9781 0.0929
H8B H 0.4013 1.0247 0.1764
C8B C 0.48951(15) 0.9413(4) 0.19861(18)
C9B C 0.48992(16) 0.7598(4) 0.19957(19)
C10B C 0.62972(16) 0.8453(5) 0.1236(2)
H9B H 0.6268 0.7509 0.0909
H10B H 0.6277 0.9323 0.0860
C11B C 0.69199(17) 0.8478(7) 0.1920(3)
H11B H 0.6966 0.9420 0.2254
H12B H 0.6962 0.7591 0.2293
C12B C 0.7397(3) 0.8418(9) 0.1499(5)
H13B H 0.7326 0.9270 0.1098
H14B H 0.7348 0.7456 0.1181
C13B C 0.8047(4) 0.8514(9) 0.2088(5)
H15B H 0.8331 0.8475 0.1772
H16B H 0.8128 0.7656 0.2476
H17B H 0.8103 0.9472 0.2398
C14B C 0.43053(16) 0.6717(4) 0.15206(18)
H18B H 0.3960 0.7203 0.1646
H19B H 0.4344 0.5665 0.1740
C15B C 0.41383(17) 0.6630(4) 0.05445(18)
H20B H 0.4451 0.6022 0.0406
H21B H 0.4138 0.7668 0.0319
C16B C 0.3486(2) 0.5875(8) 0.0132(3)
C17B C 0.3191(3) 0.6169(10) -0.0833(3)
C18? C 0.6997(7) 0.7172(16) 0.5073(14)
loop_
_geom_bond_atom_site_label_1
_geom_bond_atom_site_label_2
_geom_bond_site_symmetry_1
_geom_bond_site_symmetry_2
O1 C1 1_555 1_555
C1 C2 1_555 1_555
C2 C3 1_555 1_555
C3 C4 1_555 1_555
C4 H1 1_555 1_555
H2 C4 1_555 1_555
C5 C4 1_555 1_555
H3 C5 1_555 1_555
H4 C5 1_555 1_555
C6 C5 1_555 1_555
H5 C6 1_555 1_555
H6 C6 1_555 1_555
C7 C6 1_555 1_555
H7 C7 1_555 1_555
H8 C7 1_555 1_555
C8 C3 1_555 1_555
C9 C1 1_555 1_555
C10 C2 1_555 1_555
H9 C10 1_555 1_555
H10 C10 1_555 1_555
C11 C10 1_555 1_555
H11 C11 1_555 1_555
H12 C11 1_555 1_555
C12 C11 1_555 1_555
H13 C12 1_555 1_555
H14 C12 1_555 1_555
C13 C12 1_555 1_555
H15 C13 1_555 1_555
H16 C13 1_555 1_555
H17 C13 1_555 1_555
C14 C9 1_555 1_555
H18 C14 1_555 1_555
H19 C14 1_555 1_555
C15 C14 1_555 1_555
H20 C15 1_555 1_555
H21 C15 1_555 1_555
C16 C15 1_555 1_555
C17 C16 1_555 1_555
O1B C1B 1_555 1_555
C1B C2B 1_555 1_555
C2B C3B 1_555 1_555
C3B C4B 1_555 1_555
C4B H1B 1_555 1_555
H2B C4B 1_555 1_555
C5B C4B 1_555 1_555
H3B C5B 1_555 1_555
H4B C5B 1_555 1_555
C6B C5B 1_555 1_555
H5B C6B 1_555 1_555
H6B C6B 1_555 1_555
C7B C6B 1_555 1_555
H7B C7B 1_555 1_555
H8B C7B 1_555 1_555
C8B C8 1_555 1_555
C9B C9 1_555 1_555
C10B C2B 1_555 1_555
H9B C10B 1_555 1_555
H10B C10B 1_555 1_555
C11B C10B 1_555 1_555
H11B C11B 1_555 1_555
H12B C11B 1_555 1_555
C12B C11B 1_555 1_555
H13B C12B 1_555 1_555
H14B C12B 1_555 1_555
C13B C12B 1_555 1_555
H15B C13B 1_555 1_555
H16B C13B 1_555 1_555
H17B C13B 1_555 1_555
C14B C9B 1_555 1_555
H18B C14B 1_555 1_555
H19B C14B 1_555 1_555
C15B C14B 1_555 1_555
H20B C15B 1_555 1_555
H21B C15B 1_555 1_555
C16B C15B 1_555 1_555
C17B C16B 1_555 1_555
C7 C8 1_555 1_555
C8 C9 1_555 1_555
C1B C9B 1_555 1_555
C3B C8B 1_555 1_555
C7B C8B 1_555 1_555
C8B C9B 1_555 1_555

#END
