
#######################################################################
#
#                 Cambridge Crystallographic Data Centre
#                                CCDC 
#
#######################################################################
#
# If this CIF has been generated from an entry in the Cambridge 
# Structural Database, then it will include bibliographic, chemical, 
# crystal, experimental, refinement or atomic coordinate data resulting 
# from the CCDC's data processing and validation procedures.
#
#######################################################################

data_NOCTEG01
_chemical_formula_moiety         'C23 H26 Cl1 F1 N4 O4'
_chemical_name_systematic        
N-(1-(((6-Chloropyridin-3-yl)methyl)(ethyl)amino)-3-(3-fluorophenyl)-2-nitro-5-oxohex-1-en-1-yl)-N-methylacetamide
_symmetry_cell_setting           triclinic
_symmetry_space_group_name_H-M   'P -1'
_symmetry_Int_Tables_number      2
_space_group_name_Hall           '-P 1'
loop_
_symmetry_equiv_pos_site_id
_symmetry_equiv_pos_as_xyz
1 x,y,z
2 -x,-y,-z
_cell_length_a                   7.9732(8)
_cell_length_b                   12.2451(12)
_cell_length_c                   12.9624(13)
_cell_angle_alpha                94.231(2)
_cell_angle_beta                 97.266(2)
_cell_angle_gamma                107.781(2)
_cell_volume                     1186.93
_exptl_crystal_colour            yellow
_exptl_crystal_description       block
_cell_formula_units_Z            2
loop_
_atom_site_label
_atom_site_type_symbol
_atom_site_fract_x
_atom_site_fract_y
_atom_site_fract_z
C1 C 0.9793(3) 0.8265(2) 0.3730(2)
C2 C 0.9517(3) 0.8250(2) 0.26874(19)
H1 H 1.0289 0.8787 0.2351
C3 C 0.8055(3) 0.7415(2) 0.21390(18)
H2 H 0.7821 0.7384 0.1414
C4 C 0.6926(3) 0.66193(17) 0.26387(16)
C5 C 0.7350(3) 0.6709(2) 0.37116(18)
H3 H 0.6613 0.6175 0.4068
C6 C 0.5375(3) 0.56591(18) 0.20373(16)
H4 H 0.5348 0.5727 0.1295
H5 H 0.5550 0.4927 0.2159
C7 C 0.3270(3) 0.67619(17) 0.23541(17)
H6 H 0.4307 0.7370 0.2726
H7 H 0.2289 0.6711 0.2740
C8 C 0.2802(5) 0.7071(3) 0.1286(2)
H8 H 0.3717 0.7049 0.0878
H9 H 0.2704 0.7835 0.1345
H10 H 0.1685 0.6529 0.0951
C9 C 0.2361(2) 0.46548(16) 0.23337(13)
C10 C 0.1621(3) 0.5124(2) 0.40858(16)
H11 H 0.1175 0.5748 0.4263
H12 H 0.2900 0.5390 0.4241
H13 H 0.1155 0.4503 0.4487
C11 C -0.0741(3) 0.43204(19) 0.25870(17)
C12 C -0.1349(3) 0.4064(2) 0.14288(19)
H14 H -0.2177 0.3296 0.1268
H15 H -0.0339 0.4124 0.1078
H16 H -0.1920 0.4608 0.1198
C13 C 0.2304(2) 0.35775(16) 0.18903(14)
C14 C 0.1588(3) 0.25008(17) 0.24083(16)
H17 H 0.1235 0.2775 0.3050
C15 C 0.3024(3) 0.19551(19) 0.27959(19)
H18 H 0.2438 0.1190 0.2974
H19 H 0.3675 0.1867 0.2228
C16 C 0.4331(3) 0.2644(2) 0.37307(19)
C17 C 0.5630(4) 0.2078(3) 0.4197(3)
H20 H 0.6824 0.2598 0.4253
H21 H 0.5510 0.1385 0.3755
H22 H 0.5388 0.1889 0.4880
C18 C -0.0093(3) 0.15885(17) 0.18362(17)
C19 C -0.1316(4) 0.1010(2) 0.2433(2)
H23 H -0.1113 0.1199 0.3156
C20 C -0.2834(4) 0.0156(3) 0.1957(3)
C21 C -0.3205(4) -0.0167(2) 0.0900(3)
H24 H -0.4238 -0.0755 0.0595
C22 C -0.2010(4) 0.0402(3) 0.0318(2)
H25 H -0.2224 0.0204 -0.0404
C23 C -0.0466(4) 0.1277(2) 0.0771(2)
H26 H 0.0328 0.1659 0.0348
Cl1 Cl 1.16460(11) 0.93316(7) 0.44547(7)
F1 F -0.3992(5) -0.0389(3) 0.2618(3)
N1 N 0.8770(3) 0.7526(2) 0.42695(17)
N2 N 0.3654(2) 0.56551(13) 0.23219(12)
N3 N 0.1058(2) 0.47136(14) 0.29601(12)
N4 N 0.2972(2) 0.35026(15) 0.09384(14)
O1 O 0.2998(2) 0.42547(14) 0.03402(11)
O2 O 0.3438(2) 0.26524(15) 0.06825(14)
O3 O -0.1794(2) 0.42502(17) 0.31962(15)
O4 O 0.4347(2) 0.35828(17) 0.40835(13)
H27? H -0.3647 -0.0220 0.2372
F2? F -0.2349(10) 0.0272(6) -0.0792(5)
loop_
_geom_bond_atom_site_label_1
_geom_bond_atom_site_label_2
_geom_bond_site_symmetry_1
_geom_bond_site_symmetry_2
C1 C2 1_555 1_555
C2 H1 1_555 1_555
C3 C2 1_555 1_555
H2 C3 1_555 1_555
C4 C3 1_555 1_555
C5 C4 1_555 1_555
H3 C5 1_555 1_555
C6 C4 1_555 1_555
H4 C6 1_555 1_555
H5 C6 1_555 1_555
C7 H6 1_555 1_555
H7 C7 1_555 1_555
C8 C7 1_555 1_555
H8 C8 1_555 1_555
H9 C8 1_555 1_555
H10 C8 1_555 1_555
C9 C13 1_555 1_555
C10 H11 1_555 1_555
H12 C10 1_555 1_555
H13 C10 1_555 1_555
C11 C12 1_555 1_555
C12 H14 1_555 1_555
H15 C12 1_555 1_555
H16 C12 1_555 1_555
C13 C14 1_555 1_555
C14 H17 1_555 1_555
C15 C14 1_555 1_555
H18 C15 1_555 1_555
H19 C15 1_555 1_555
C16 C15 1_555 1_555
C17 C16 1_555 1_555
H20 C17 1_555 1_555
H21 C17 1_555 1_555
H22 C17 1_555 1_555
C18 C14 1_555 1_555
C19 C18 1_555 1_555
H23 C19 1_555 1_555
C20 C19 1_555 1_555
C21 C20 1_555 1_555
H24 C21 1_555 1_555
C22 C21 1_555 1_555
H25 C22 1_555 1_555
C23 C18 1_555 1_555
H26 C23 1_555 1_555
Cl1 C1 1_555 1_555
F1 C20 1_555 1_555
N1 C1 1_555 1_555
N2 C6 1_555 1_555
N3 C9 1_555 1_555
N4 C13 1_555 1_555
O1 N4 1_555 1_555
O2 N4 1_555 1_555
O3 C11 1_555 1_555
O4 C16 1_555 1_555
C5 N1 1_555 1_555
C7 N2 1_555 1_555
C9 N2 1_555 1_555
C10 N3 1_555 1_555
C11 N3 1_555 1_555
C22 C23 1_555 1_555

#END
