
#######################################################################
#
#                 Cambridge Crystallographic Data Centre
#                                CCDC 
#
#######################################################################
#
# If this CIF has been generated from an entry in the Cambridge 
# Structural Database, then it will include bibliographic, chemical, 
# crystal, experimental, refinement or atomic coordinate data resulting 
# from the CCDC's data processing and validation procedures.
#
#######################################################################

data_NOFFUL
_chemical_formula_moiety         'C25 H27 N3 O4'
_chemical_name_systematic        
N,N'-bis(2-propoxyphenyl)pyridine-2,6-dicarboxamide
_symmetry_cell_setting           monoclinic
_symmetry_space_group_name_H-M   'P 21/n'
_symmetry_Int_Tables_number      14
_space_group_name_Hall           '-P 2yn'
loop_
_symmetry_equiv_pos_site_id
_symmetry_equiv_pos_as_xyz
1 x,y,z
2 1/2-x,1/2+y,1/2-z
3 -x,-y,-z
4 1/2+x,1/2-y,1/2+z
_cell_length_a                   15.0617(7)
_cell_length_b                   8.8547(6)
_cell_length_c                   17.7386(10)
_cell_angle_alpha                90
_cell_angle_beta                 97.110(4)
_cell_angle_gamma                90
_cell_volume                     2347.55
_exptl_crystal_colour            colorless
_exptl_crystal_description       block
_cell_formula_units_Z            4
loop_
_atom_site_label
_atom_site_type_symbol
_atom_site_fract_x
_atom_site_fract_y
_atom_site_fract_z
O1 O 0.15718(16) 0.3010(3) -0.11550(16)
O2 O 0.44534(18) 0.4903(4) -0.13561(16)
O3 O 0.42045(19) -0.0062(4) 0.16962(18)
O4 O 0.16878(17) 0.3096(3) 0.10522(17)
N1 N 0.31534(18) 0.4186(4) -0.09286(16)
H1 H 0.2949 0.3680 -0.0574
N2 N 0.40328(17) 0.2470(3) 0.01458(15)
N3 N 0.30196(18) 0.1234(4) 0.11062(17)
H2 H 0.2860 0.1786 0.0714
C1 C 0.1543(6) -0.0164(9) -0.0818(7)
H3 H 0.1496 -0.0520 -0.1332
H4 H 0.1509 -0.1004 -0.0481
H5 H 0.2105 0.0344 -0.0693
C2 C 0.0832(5) 0.0858(8) -0.0740(4)
H6 H 0.0916 0.1297 -0.0235
H7 H 0.0270 0.0311 -0.0797
C3 C 0.0786(3) 0.2120(6) -0.1331(3)
H8 H 0.0764 0.1698 -0.1838
H9 H 0.0256 0.2732 -0.1309
C4 C 0.1664(2) 0.4282(4) -0.15716(19)
C5 C 0.1009(3) 0.4914(5) -0.2079(2)
H10 H 0.0450 0.4457 -0.2172
C6 C 0.1179(3) 0.6223(5) -0.2452(2)
H11 H 0.0731 0.6661 -0.2789
C7 C 0.2005(3) 0.6887(6) -0.2328(3)
H12 H 0.2117 0.7769 -0.2585
C8 C 0.2676(3) 0.6250(5) -0.1823(2)
H13 H 0.3235 0.6707 -0.1740
C9 C 0.2514(2) 0.4938(4) -0.14420(19)
C10 C 0.4048(2) 0.4168(4) -0.0929(2)
C11 C 0.4524(2) 0.3127(4) -0.03389(19)
C12 C 0.5436(2) 0.2890(5) -0.0319(2)
H14 H 0.5759 0.3358 -0.0667
C13 C 0.5850(2) 0.1942(5) 0.0233(3)
H15 H 0.6462 0.1761 0.0261
C14 C 0.5361(2) 0.1268(5) 0.0738(2)
H16 H 0.5632 0.0632 0.1116
C15 C 0.4447(2) 0.1556(4) 0.0673(2)
C16 C 0.3890(2) 0.0823(4) 0.1215(2)
C17 C 0.2343(2) 0.0872(5) 0.1554(2)
C18 C 0.2339(3) -0.0411(5) 0.1992(2)
H17 H 0.2805 -0.1103 0.2004
C19 C 0.1646(3) -0.0669(7) 0.2412(3)
H18 H 0.1641 -0.1543 0.2702
C20 C 0.0963(3) 0.0353(7) 0.2405(3)
H19 H 0.0508 0.0183 0.2704
C21 C 0.0945(3) 0.1633(6) 0.1960(2)
H20 H 0.0474 0.2315 0.1952
C22 C 0.1628(2) 0.1896(5) 0.1527(2)
C23 C 0.1049(3) 0.4284(6) 0.1058(3)
H21 H 0.1079 0.4721 0.1562
H22 H 0.0449 0.3900 0.0914
C24 C 0.1278(4) 0.5454(7) 0.0496(4)
H23 H 0.1248 0.4991 -0.0002
H24 H 0.0833 0.6251 0.0467
C25 C 0.2167(5) 0.6122(8) 0.0691(5)
H25 H 0.2276 0.6846 0.0310
H26 H 0.2613 0.5342 0.0716
H27 H 0.2196 0.6615 0.1175
loop_
_geom_bond_atom_site_label_1
_geom_bond_atom_site_label_2
_geom_bond_site_symmetry_1
_geom_bond_site_symmetry_2
O1 C3 1_555 1_555
O2 C10 1_555 1_555
O3 C16 1_555 1_555
O4 C22 1_555 1_555
N1 H1 1_555 1_555
N2 C11 1_555 1_555
N3 H2 1_555 1_555
C1 H3 1_555 1_555
H4 C1 1_555 1_555
H5 C1 1_555 1_555
C2 C1 1_555 1_555
H6 C2 1_555 1_555
H7 C2 1_555 1_555
C3 C2 1_555 1_555
H8 C3 1_555 1_555
H9 C3 1_555 1_555
C4 O1 1_555 1_555
C5 C4 1_555 1_555
H10 C5 1_555 1_555
C6 C5 1_555 1_555
H11 C6 1_555 1_555
C7 C6 1_555 1_555
H12 C7 1_555 1_555
C8 C7 1_555 1_555
H13 C8 1_555 1_555
C9 N1 1_555 1_555
C10 N1 1_555 1_555
C11 C10 1_555 1_555
C12 C11 1_555 1_555
H14 C12 1_555 1_555
C13 C12 1_555 1_555
H15 C13 1_555 1_555
C14 C13 1_555 1_555
H16 C14 1_555 1_555
C15 N2 1_555 1_555
C16 N3 1_555 1_555
C17 N3 1_555 1_555
C18 C17 1_555 1_555
H17 C18 1_555 1_555
C19 C18 1_555 1_555
H18 C19 1_555 1_555
C20 C19 1_555 1_555
H19 C20 1_555 1_555
C21 C20 1_555 1_555
H20 C21 1_555 1_555
C22 C17 1_555 1_555
C23 O4 1_555 1_555
H21 C23 1_555 1_555
H22 C23 1_555 1_555
C24 C23 1_555 1_555
H23 C24 1_555 1_555
H24 C24 1_555 1_555
C25 C24 1_555 1_555
H25 C25 1_555 1_555
H26 C25 1_555 1_555
H27 C25 1_555 1_555
C4 C9 1_555 1_555
C8 C9 1_555 1_555
C14 C15 1_555 1_555
C15 C16 1_555 1_555
C21 C22 1_555 1_555

#END
