
#######################################################################
#
#                 Cambridge Crystallographic Data Centre
#                                CCDC 
#
#######################################################################
#
# If this CIF has been generated from an entry in the Cambridge 
# Structural Database, then it will include bibliographic, chemical, 
# crystal, experimental, refinement or atomic coordinate data resulting 
# from the CCDC's data processing and validation procedures.
#
#######################################################################

data_NOGDEU
_chemical_formula_moiety         'C14 H14 F1 N3 O3,H2 O1'
_chemical_name_systematic        
'1-(2-(2-(2-Fluorophenyl)vinyl)-5-nitro-1H-imidazol-1-yl)propan-2-ol monohydrate'
_symmetry_cell_setting           monoclinic
_symmetry_space_group_name_H-M   'P 21/c'
_symmetry_Int_Tables_number      14
_space_group_name_Hall           '-P 2ybc'
loop_
_symmetry_equiv_pos_site_id
_symmetry_equiv_pos_as_xyz
1 x,y,z
2 -x,1/2+y,1/2-z
3 -x,-y,-z
4 x,1/2-y,1/2+z
_cell_length_a                   11.9002(6)
_cell_length_b                   14.5643(9)
_cell_length_c                   8.8348(5)
_cell_angle_alpha                90
_cell_angle_beta                 101.589(2)
_cell_angle_gamma                90
_cell_volume                     1500.01
_exptl_crystal_colour            'light yellow'
_chemical_melting_point          '86-88 deg.C'
_cell_formula_units_Z            4
_chemical_properties_physical    Heat-sensitive
_exptl_crystal_recrystallization_method ethanol
loop_
_atom_site_label
_atom_site_type_symbol
_atom_site_fract_x
_atom_site_fract_y
_atom_site_fract_z
N1 N 0.76478(18) 0.05451(16) 0.1044(2)
O1 O 0.80617(17) 0.25280(15) 0.0556(2)
H1 H 0.8408 0.2281 -0.0048
N2 N 0.9076(2) -0.04395(16) 0.1013(3)
O2 O 0.5533(2) 0.0492(2) -0.1097(3)
C1 C 0.6990(2) 0.1318(2) 0.1488(3)
H2 H 0.7334 0.1510 0.2530
H3 H 0.6213 0.1118 0.1487
C2 C 0.8746(2) 0.03133(19) 0.1676(3)
C3 C 0.6956(2) 0.2130(2) 0.0398(3)
H4 H 0.6708 0.1913 -0.0667
C4 C 1.0553(2) 0.0560(2) 0.3434(3)
H5 H 1.0809 0.0059 0.2945
C5 C 0.7275(2) -0.0114(2) -0.0063(3)
C6 C 1.1388(2) 0.0971(2) 0.4689(3)
N3 N 0.6184(2) -0.0160(2) -0.1037(3)
C7 C 0.9478(2) 0.0811(2) 0.2908(3)
H6 H 0.9187 0.1319 0.3339
O3 O 0.5934(2) -0.0865(2) -0.1788(4)
C8 C 0.8164(3) -0.0703(2) -0.0050(4)
H7 H 0.8143 -0.1215 -0.0686
C9 C 1.1101(4) 0.1681(2) 0.5640(4)
H8 H 1.0359 0.1911 0.5494
F1 F 1.2779(2) -0.0015(2) 0.4192(4)
C10 C 1.2494(3) 0.0660(3) 0.5012(5)
C11 C 1.3061(4) 0.1671(4) 0.7083(5)
H9 H 1.3610 0.1900 0.7896
C12 C 0.6123(3) 0.2849(3) 0.0717(5)
H10 H 0.6377 0.3087 0.1742
H11 H 0.5377 0.2578 0.0632
H12 H 0.6084 0.3339 -0.0018
C13 C 1.3338(3) 0.0982(4) 0.6164(6)
H13 H 1.4077 0.0744 0.6322
C14 C 1.1964(2) 0.20201(16) 0.6795(3)
H14 H 1.1795 0.2504 0.7400
O4 O 0.8993(2) 0.16418(16) 0.8475(3)
H15 H 0.884(3) 0.185(3) 0.758(5)
H16 H 0.968(5) 0.125(3) 0.851(6)
H17? H 0.5345 0.0669 -0.1994
loop_
_geom_bond_atom_site_label_1
_geom_bond_atom_site_label_2
_geom_bond_site_symmetry_1
_geom_bond_site_symmetry_2
N1 C1 1_555 1_555
O1 H1 1_555 1_555
N2 C2 1_555 1_555
O2 N3 1_555 1_555
C1 H2 1_555 1_555
H3 C1 1_555 1_555
C2 N1 1_555 1_555
C3 O1 1_555 1_555
H4 C3 1_555 1_555
C4 H5 1_555 1_555
C5 N1 1_555 1_555
C6 C4 1_555 1_555
N3 C5 1_555 1_555
C7 C2 1_555 1_555
H6 C7 1_555 1_555
O3 N3 1_555 1_555
C8 N2 1_555 1_555
H7 C8 1_555 1_555
C9 C6 1_555 1_555
H8 C9 1_555 1_555
F1 C10 1_555 1_555
C10 C6 1_555 1_555
C11 H9 1_555 1_555
C12 C3 1_555 1_555
H10 C12 1_555 1_555
H11 C12 1_555 1_555
H12 C12 1_555 1_555
C13 C10 1_555 1_555
H13 C13 1_555 1_555
C14 C9 1_555 1_555
H14 C14 1_555 1_555
O4 H15 1_555 1_555
H16 O4 1_555 1_555
C1 C3 1_555 1_555
C4 C7 1_555 1_555
C5 C8 1_555 1_555
C11 C13 1_555 1_555
C11 C14 1_555 1_555

#END
