
#######################################################################
#
#                 Cambridge Crystallographic Data Centre
#                                CCDC 
#
#######################################################################
#
# If this CIF has been generated from an entry in the Cambridge 
# Structural Database, then it will include bibliographic, chemical, 
# crystal, experimental, refinement or atomic coordinate data resulting 
# from the CCDC's data processing and validation procedures.
#
#######################################################################

data_NOGKOK
_chemical_formula_moiety         'C19 H24 N4 O4 S2'
_chemical_name_systematic        
11-ethenyl-5-methyl-8-isopropyl-10-oxa-3,17-dithia-7,14,19,20-tetraazatricyclo[14.2.1.1^2,5^]icosa-1(18),2(20),16(19)-triene-6,9,13-trione
_symmetry_cell_setting           orthorhombic
_symmetry_space_group_name_H-M   'P 21 21 21'
_symmetry_Int_Tables_number      19
_space_group_name_Hall           'P 2ac 2ab'
loop_
_symmetry_equiv_pos_site_id
_symmetry_equiv_pos_as_xyz
1 x,y,z
2 1/2-x,-y,1/2+z
3 1/2+x,1/2-y,-z
4 -x,1/2+y,1/2-z
_cell_length_a                   9.6075(2)
_cell_length_b                   10.9467(2)
_cell_length_c                   20.3175(3)
_cell_angle_alpha                90
_cell_angle_beta                 90
_cell_angle_gamma                90
_cell_volume                     2136.8
_exptl_crystal_colour            colorless
_exptl_crystal_description       plate
_cell_formula_units_Z            4
_exptl_crystal_recrystallization_method ethanol
loop_
_atom_site_label
_atom_site_type_symbol
_atom_site_fract_x
_atom_site_fract_y
_atom_site_fract_z
S1 S -0.78735(8) -0.22408(6) -0.83929(3)
S2 S -0.62697(9) -0.23709(7) -1.06734(3)
O1 O -0.52740(17) 0.26069(15) -0.90528(8)
O2 O -0.32809(19) 0.28824(19) -0.84903(8)
O3 O -0.7226(2) 0.0853(2) -0.72595(9)
O4 O -0.3810(2) 0.1381(2) -1.01746(9)
N1 N -0.6264(2) 0.09386(19) -0.82814(9)
N2 N -0.8378(2) -0.0057(2) -0.88662(10)
N3 N -0.6686(2) -0.0430(2) -0.99997(9)
N4 N -0.5615(2) 0.1273(2) -1.08833(10)
C1 C -0.4393(2) 0.2390(2) -0.85611(11)
C2 C -0.4906(2) 0.1400(2) -0.80933(11)
C3 C -0.3789(3) 0.0380(3) -0.80655(13)
C4 C -0.3588(5) -0.0219(4) -0.87286(18)
C5 C -0.4148(4) -0.0559(4) -0.75403(17)
C6 C -0.7280(3) 0.0674(2) -0.78538(11)
C7 C -0.8602(3) 0.0082(2) -0.81597(11)
C8 C -0.8816(3) -0.1205(3) -0.78576(12)
C9 C -0.9830(3) 0.0913(3) -0.80223(14)
C10 C -0.7928(3) -0.1118(2) -0.90220(11)
C11 C -0.7304(3) -0.1384(2) -0.96649(12)
C12 C -0.7183(3) -0.2496(3) -0.99538(14)
C13 C -0.6113(3) -0.0812(2) -1.05389(11)
C14 C -0.5393(3) 0.0001(3) -1.10384(13)
C15 C -0.4869(3) 0.1832(3) -1.04074(12)
C16 C -0.5438(3) 0.3060(2) -1.01986(13)
C17 C -0.4860(3) 0.3526(2) -0.95556(12)
C18 C -0.5485(3) 0.4717(3) -0.93577(14)
C19 C -0.4783(4) 0.5627(3) -0.90988(15)
H1 H -0.6429 0.0827 -0.8698
H2 H -0.500(3) 0.183(2) -0.7627(12)
H3 H -0.290(4) 0.083(3) -0.7930(16)
H4 H -0.279(6) -0.082(5) -0.867(2)
H5 H -0.326(4) 0.038(4) -0.9039(18)
H6 H -0.440(5) -0.063(4) -0.8865(18)
H7 H -0.328(5) -0.113(4) -0.7524(18)
H8 H -0.498(6) -0.104(4) -0.760(2)
H9 H -0.416(4) -0.014(4) -0.7063(19)
H10 H -0.982(4) -0.143(3) -0.7842(14)
H11 H -0.850(4) -0.124(3) -0.7411(17)
H12 H -1.004(5) 0.094(3) -0.751(2)
H13 H -1.060(5) 0.063(4) -0.8223(19)
H14 H -0.963(4) 0.175(3) -0.8212(15)
H15 H -0.746(3) -0.321(3) -0.9832(15)
H16 H -0.573(4) -0.015(3) -1.1450(18)
H17 H -0.443(3) -0.018(3) -1.1112(14)
H18 H -0.513(4) 0.364(3) -1.0523(16)
H19 H -0.639(3) 0.304(2) -1.0163(12)
H20 H -0.393(3) 0.351(2) -0.9592(12)
H21 H -0.649(5) 0.482(3) -0.9436(16)
H22 H -0.529(4) 0.643(3) -0.8958(15)
H23 H -0.381(4) 0.550(3) -0.9030(15)
H24 H -0.644(3) 0.157(3) -1.0978(13)
loop_
_geom_bond_atom_site_label_1
_geom_bond_atom_site_label_2
_geom_bond_site_symmetry_1
_geom_bond_site_symmetry_2
S1 C8 1_555 1_555
S2 C12 1_555 1_555
O1 C1 1_555 1_555
O2 C1 1_555 1_555
O3 C6 1_555 1_555
O4 C15 1_555 1_555
N1 C2 1_555 1_555
N2 C7 1_555 1_555
N3 C11 1_555 1_555
N4 C14 1_555 1_555
C1 C2 1_555 1_555
C2 C3 1_555 1_555
C3 C4 1_555 1_555
C4 H4 1_555 1_555
C5 C3 1_555 1_555
C6 N1 1_555 1_555
C7 C6 1_555 1_555
C8 C7 1_555 1_555
C9 C7 1_555 1_555
C10 S1 1_555 1_555
C11 C10 1_555 1_555
C12 C11 1_555 1_555
C13 S2 1_555 1_555
C14 C13 1_555 1_555
C15 N4 1_555 1_555
C16 C15 1_555 1_555
C17 O1 1_555 1_555
C18 C17 1_555 1_555
C19 C18 1_555 1_555
H1 N1 1_555 1_555
H2 C2 1_555 1_555
H3 C3 1_555 1_555
H5 C4 1_555 1_555
H6 C4 1_555 1_555
H7 C5 1_555 1_555
H8 C5 1_555 1_555
H9 C5 1_555 1_555
H10 C8 1_555 1_555
H11 C8 1_555 1_555
H12 C9 1_555 1_555
H13 C9 1_555 1_555
H14 C9 1_555 1_555
H15 C12 1_555 1_555
H16 C14 1_555 1_555
H17 C14 1_555 1_555
H18 C16 1_555 1_555
H19 C16 1_555 1_555
H20 C17 1_555 1_555
H21 C18 1_555 1_555
H22 C19 1_555 1_555
H23 C19 1_555 1_555
H24 N4 1_555 1_555
N2 C10 1_555 1_555
N3 C13 1_555 1_555
C16 C17 1_555 1_555

#END
