
#######################################################################
#
#                 Cambridge Crystallographic Data Centre
#                                CCDC 
#
#######################################################################
#
# If this CIF has been generated from an entry in the Cambridge 
# Structural Database, then it will include bibliographic, chemical, 
# crystal, experimental, refinement or atomic coordinate data resulting 
# from the CCDC's data processing and validation procedures.
#
#######################################################################

data_NOJTOW
_chemical_formula_moiety         'C22 H22 N2 2+,2(Cl1 1-),1.33(C1 H4 O1)'
_chemical_name_systematic        
'(S,S)-1,2-bis(1-Naphthyl)ethane-1,2-diammonium dichloride methanol solvate'
_symmetry_cell_setting           orthorhombic
_symmetry_space_group_name_H-M   'C 2 2 21'
_symmetry_Int_Tables_number      20
_space_group_name_Hall           'C 2n 2'
loop_
_symmetry_equiv_pos_site_id
_symmetry_equiv_pos_as_xyz
1 x,y,z
2 -x,-y,1/2+z
3 x,-y,-z
4 -x,y,1/2-z
5 1/2+x,1/2+y,z
6 1/2-x,1/2-y,1/2+z
7 1/2+x,1/2-y,-z
8 1/2-x,1/2+y,1/2-z
_cell_length_a                   15.6507(7)
_cell_length_b                   22.6708(7)
_cell_length_c                   19.8315(10)
_cell_angle_alpha                90
_cell_angle_beta                 90
_cell_angle_gamma                90
_cell_volume                     7036.49
_exptl_crystal_colour            colorless
_exptl_crystal_description       needle
_cell_formula_units_Z            12
loop_
_atom_site_label
_atom_site_type_symbol
_atom_site_fract_x
_atom_site_fract_y
_atom_site_fract_z
Cl1 Cl 0.43593(9) 0.5000 1.0000
Cl2 Cl 0.42141(7) 0.50014(6) 0.67681(6)
Cl3 Cl 0.5000 0.66984(8) 0.7500
Cl4 Cl 0.43893(12) 0.64015(7) 0.42405(10)
N1 N 0.3983(3) 0.44513(18) 0.8534(2)
H1 H 0.3883 0.4064 0.8444
H2 H 0.4043 0.4502 0.8986
H3 H 0.4470 0.4568 0.8321
N2 N 0.4113(2) 0.57315(17) 0.8402(3)
H4 H 0.4194 0.6048 0.8677
H5 H 0.4098 0.5854 0.7966
H6 H 0.4550 0.5471 0.8458
C1 C 0.3238(3) 0.48178(18) 0.8284(3)
H7 H 0.3276 0.4847 0.7782
C2 C 0.3285(3) 0.54376(19) 0.8577(3)
H8 H 0.3254 0.5404 0.9079
C3 C 0.2575(3) 0.58438(19) 0.8350(3)
C4 C 0.1983(4) 0.4609(2) 0.9035(3)
H9 H 0.2173 0.4914 0.9327
C5 C 0.1230(4) 0.4280(3) 0.9195(4)
H10 H 0.0915 0.4372 0.9591
C6 C 0.0964(4) 0.3837(3) 0.8785(4)
H11 H 0.0464 0.3621 0.8900
C7 C 0.1414(4) 0.3689(2) 0.8193(3)
C8 C 0.1133(4) 0.3222(3) 0.7789(4)
H12 H 0.0635 0.3007 0.7910
C9 C 0.1560(6) 0.3082(3) 0.7241(5)
H13 H 0.1368 0.2760 0.6975
C10 C 0.2317(5) 0.3405(2) 0.7027(4)
H14 H 0.2609 0.3302 0.6625
C11 C 0.2596(4) 0.3859(2) 0.7420(3)
H15 H 0.3095 0.4071 0.7296
C12 C 0.2143(4) 0.4016(2) 0.8014(3)
C13 C 0.2423(3) 0.4484(2) 0.8465(3)
C14 C 0.2264(4) 0.5809(2) 0.7709(3)
H16 H 0.2477 0.5513 0.7415
C15 C 0.1632(4) 0.6204(2) 0.7474(3)
H17 H 0.1404 0.6164 0.7032
C16 C 0.1353(4) 0.6641(2) 0.7888(3)
H18 H 0.0926 0.6904 0.7727
C17 C 0.1664(3) 0.6718(2) 0.8532(3)
C18 C 0.1386(4) 0.7174(2) 0.8967(4)
H19 H 0.0983 0.7453 0.8806
C19 C 0.1681(4) 0.7226(2) 0.9613(4)
H20 H 0.1481 0.7539 0.9889
C20 C 0.2263(4) 0.6831(3) 0.9867(4)
H21 H 0.2459 0.6871 1.0318
C21 C 0.2570(4) 0.6368(2) 0.9466(3)
H22 H 0.2974 0.6097 0.9645
C22 C 0.2280(3) 0.6305(2) 0.8795(3)
N3 N 0.3780(2) 0.55819(17) 0.5351(2)
H23 H 0.4255 0.5353 0.5394
H24 H 0.3741 0.5829 0.5712
H25 H 0.3818 0.5798 0.4966
C23 C 0.2996(3) 0.5194(2) 0.5322(3)
H26 H 0.2984 0.4933 0.5729
C24 C 0.2213(3) 0.5576(2) 0.5320(3)
C25 C 0.2166(3) 0.6048(2) 0.4899(3)
H27 H 0.2642 0.6137 0.4620
C26 C 0.1430(4) 0.6412(2) 0.4861(3)
H28 H 0.1415 0.6739 0.4562
C27 C 0.0747(4) 0.6286(2) 0.5258(3)
H29 H 0.0252 0.6529 0.5234
C28 C 0.0759(3) 0.5813(2) 0.5696(3)
C29 C 0.0043(3) 0.5670(3) 0.6132(3)
H30 H -0.0456 0.5908 0.6112
C30 C 0.0061(3) 0.5218(3) 0.6558(3)
H31 H -0.0432 0.5131 0.6820
C31 C 0.0798(3) 0.4865(3) 0.6629(3)
H32 H 0.0814 0.4552 0.6947
C32 C 0.1495(3) 0.4984(2) 0.6226(2)
H33 H 0.1986 0.4740 0.6267
C33 C 0.1517(3) 0.5441(2) 0.5765(3)
N3B N 0.3780(2) 0.44181(17) 0.4649(2)
H23B H 0.4255 0.4647 0.4606
H24B H 0.3741 0.4171 0.4288
H25B H 0.3818 0.4202 0.5034
C23B C 0.2996(3) 0.4806(2) 0.4678(3)
H26B H 0.2984 0.5067 0.4271
C24B C 0.2213(3) 0.4424(2) 0.4680(3)
C25B C 0.2166(3) 0.3952(2) 0.5101(3)
H27B H 0.2642 0.3863 0.5380
C26B C 0.1430(4) 0.3588(2) 0.5139(3)
H28B H 0.1415 0.3261 0.5438
C27B C 0.0747(4) 0.3714(2) 0.4742(3)
H29B H 0.0252 0.3471 0.4766
C28B C 0.0759(3) 0.4187(2) 0.4304(3)
C29B C 0.0043(3) 0.4330(3) 0.3868(3)
H30B H -0.0456 0.4092 0.3888
C30B C 0.0061(3) 0.4782(3) 0.3442(3)
H31B H -0.0432 0.4869 0.3180
C31B C 0.0798(3) 0.5135(3) 0.3371(3)
H32B H 0.0814 0.5448 0.3053
C32B C 0.1495(3) 0.5016(2) 0.3774(2)
H33B H 0.1986 0.5260 0.3733
C33B C 0.1517(3) 0.4559(2) 0.4235(3)
O1 O 0.3573(3) 0.63907(19) 0.6392(2)
H34 H 0.3372 0.6178 0.6700
C34 C 0.3092(4) 0.6902(3) 0.6338(4)
H35 H 0.2563 0.6818 0.6092
H36 H 0.3421 0.7202 0.6095
H37 H 0.2952 0.7048 0.6790
O2 O 0.4626(3) 0.65222(15) 0.9402(3)
H38 H 0.4585 0.6454 0.9817
C35 C 0.4547(4) 0.7129(2) 0.9287(4)
H39 H 0.5087 0.7325 0.9396
H40 H 0.4091 0.7289 0.9571
H41 H 0.4408 0.7198 0.8811
loop_
_geom_bond_atom_site_label_1
_geom_bond_atom_site_label_2
_geom_bond_site_symmetry_1
_geom_bond_site_symmetry_2
N1 H1 1_555 1_555
H2 N1 1_555 1_555
H3 N1 1_555 1_555
N2 H4 1_555 1_555
H5 N2 1_555 1_555
H6 N2 1_555 1_555
C1 N1 1_555 1_555
H7 C1 1_555 1_555
C2 N2 1_555 1_555
H8 C2 1_555 1_555
C3 C2 1_555 1_555
C4 H9 1_555 1_555
C5 C4 1_555 1_555
H10 C5 1_555 1_555
C6 C5 1_555 1_555
H11 C6 1_555 1_555
C7 C6 1_555 1_555
C8 C7 1_555 1_555
H12 C8 1_555 1_555
C9 C8 1_555 1_555
H13 C9 1_555 1_555
C10 C9 1_555 1_555
H14 C10 1_555 1_555
C11 C10 1_555 1_555
H15 C11 1_555 1_555
C12 C7 1_555 1_555
C13 C1 1_555 1_555
C14 C3 1_555 1_555
H16 C14 1_555 1_555
C15 C14 1_555 1_555
H17 C15 1_555 1_555
C16 C15 1_555 1_555
H18 C16 1_555 1_555
C17 C16 1_555 1_555
C18 C17 1_555 1_555
H19 C18 1_555 1_555
C19 C18 1_555 1_555
H20 C19 1_555 1_555
C20 C19 1_555 1_555
H21 C20 1_555 1_555
C21 C20 1_555 1_555
H22 C21 1_555 1_555
C22 C3 1_555 1_555
N3 H23 1_555 1_555
H24 N3 1_555 1_555
H25 N3 1_555 1_555
C23 N3 1_555 1_555
H26 C23 1_555 1_555
C24 C23 1_555 1_555
C25 C24 1_555 1_555
H27 C25 1_555 1_555
C26 C25 1_555 1_555
H28 C26 1_555 1_555
C27 C26 1_555 1_555
H29 C27 1_555 1_555
C28 C27 1_555 1_555
C29 C28 1_555 1_555
H30 C29 1_555 1_555
C30 C29 1_555 1_555
H31 C30 1_555 1_555
C31 C30 1_555 1_555
H32 C31 1_555 1_555
C32 C31 1_555 1_555
H33 C32 1_555 1_555
C33 C24 1_555 1_555
O1 H34 1_555 1_555
C34 O1 1_555 1_555
H35 C34 1_555 1_555
H36 C34 1_555 1_555
H37 C34 1_555 1_555
O2 H38 1_555 1_555
C35 O2 1_555 1_555
H39 C35 1_555 1_555
H40 C35 1_555 1_555
H41 C35 1_555 1_555
N3B H23B 1_555 1_555
H24B N3B 1_555 1_555
H25B N3B 1_555 1_555
C23B C23 1_555 1_555
H26B C23B 1_555 1_555
C24B C23B 1_555 1_555
C25B C24B 1_555 1_555
H27B C25B 1_555 1_555
C26B C25B 1_555 1_555
H28B C26B 1_555 1_555
C27B C26B 1_555 1_555
H29B C27B 1_555 1_555
C28B C27B 1_555 1_555
C29B C28B 1_555 1_555
H30B C29B 1_555 1_555
C30B C29B 1_555 1_555
H31B C30B 1_555 1_555
C31B C30B 1_555 1_555
H32B C31B 1_555 1_555
C32B C31B 1_555 1_555
H33B C32B 1_555 1_555
C33B C24B 1_555 1_555
C1 C2 1_555 1_555
C4 C13 1_555 1_555
C11 C12 1_555 1_555
C12 C13 1_555 1_555
C17 C22 1_555 1_555
C21 C22 1_555 1_555
C28 C33 1_555 1_555
C32 C33 1_555 1_555
N3B C23B 1_555 1_555
C28B C33B 1_555 1_555
C32B C33B 1_555 1_555

#END
