
#######################################################################
#
#                 Cambridge Crystallographic Data Centre
#                                CCDC 
#
#######################################################################
#
# If this CIF has been generated from an entry in the Cambridge 
# Structural Database, then it will include bibliographic, chemical, 
# crystal, experimental, refinement or atomic coordinate data resulting 
# from the CCDC's data processing and validation procedures.
#
#######################################################################

data_NOLFAX
_chemical_formula_moiety         'C6 H2 N3 O7 1-,C3 H7 N6 1+'
_chemical_name_systematic        
'1,5,6,7-tetrahydrotetrazolo[1,5-b][1,2,4]triazin-8-ium 2,4,6-trinitrophenolate'
_symmetry_cell_setting           monoclinic
_symmetry_space_group_name_H-M   'P 21/n'
_symmetry_Int_Tables_number      14
_space_group_name_Hall           '-P 2yn'
loop_
_symmetry_equiv_pos_site_id
_symmetry_equiv_pos_as_xyz
1 x,y,z
2 1/2-x,1/2+y,1/2-z
3 -x,-y,-z
4 1/2+x,1/2-y,1/2+z
_cell_length_a                   5.3358(16)
_cell_length_b                   17.392(5)
_cell_length_c                   14.862(5)
_cell_angle_alpha                90
_cell_angle_beta                 98.592(4)
_cell_angle_gamma                90
_cell_volume                     1363.72
_exptl_crystal_colour            yellow
_exptl_crystal_description       prism
_cell_formula_units_Z            4
loop_
_atom_site_label
_atom_site_type_symbol
_atom_site_fract_x
_atom_site_fract_y
_atom_site_fract_z
O1 O -0.0820(2) 0.58392(7) 0.28558(7)
O2 O 0.2602(2) 0.46037(6) 0.48394(7)
O3 O 0.2020(2) 0.58151(6) 0.45445(7)
O4 O 0.8161(2) 0.35610(7) 0.27783(8)
O5 O 0.7215(2) 0.37969(7) 0.13344(7)
O6 O 0.1068(2) 0.57408(7) 0.03175(7)
O7 O -0.2129(2) 0.58684(7) 0.10422(8)
N1 N 0.2363(2) 0.51470(7) 0.43089(8)
N2 N 0.6861(2) 0.38795(7) 0.21274(8)
N3 N 0.0027(2) 0.56422(7) 0.09969(8)
C1 C 0.0899(3) 0.54050(8) 0.26704(9)
C2 C 0.2600(2) 0.50040(8) 0.33608(9)
C3 C 0.4455(3) 0.44995(8) 0.32021(9)
H1 H 0.5454 0.4237 0.3689
C4 C 0.4832(3) 0.43836(8) 0.23046(9)
C5 C 0.3384(3) 0.47613(8) 0.15886(9)
H2 H 0.3708 0.4690 0.0983
C6 C 0.1456(3) 0.52449(8) 0.17672(9)
N4 N 0.5388(2) 0.67764(7) 0.25791(8)
N5 N 0.3158(2) 0.70838(8) 0.21570(8)
N6 N 0.2235(2) 0.75136(7) 0.27234(8)
N7 N 0.3911(2) 0.75027(7) 0.35119(8)
N8 N 0.3472(2) 0.78674(7) 0.43163(8)
N9 N 0.7718(2) 0.69019(7) 0.41006(8)
C7 C 0.5871(2) 0.70389(8) 0.34341(9)
C8 C 0.4866(3) 0.74321(8) 0.50843(10)
H3 H 0.3997 0.6935 0.5139
H4 H 0.4819 0.7724 0.5653
C9 C 0.7631(3) 0.72756(8) 0.49827(9)
H5 H 0.8588 0.7765 0.5016
H6 H 0.8420 0.6938 0.5482
H7 H 0.633(4) 0.6452(13) 0.2299(13)
H8 H 0.427(4) 0.8331(12) 0.4293(12)
H9 H 0.877(4) 0.6587(12) 0.4032(13)
loop_
_geom_bond_atom_site_label_1
_geom_bond_atom_site_label_2
_geom_bond_site_symmetry_1
_geom_bond_site_symmetry_2
O1 C1 1_555 1_555
O2 N1 1_555 1_555
O3 N1 1_555 1_555
O4 N2 1_555 1_555
O5 N2 1_555 1_555
O6 N3 1_555 1_555
O7 N3 1_555 1_555
N1 C2 1_555 1_555
N2 C4 1_555 1_555
N3 C6 1_555 1_555
C1 C2 1_555 1_555
C2 C3 1_555 1_555
C3 H1 1_555 1_555
C4 C3 1_555 1_555
C5 C4 1_555 1_555
H2 C5 1_555 1_555
C6 C1 1_555 1_555
N4 N5 1_555 1_555
N5 N6 1_555 1_555
N6 N7 1_555 1_555
N7 N8 1_555 1_555
N8 C8 1_555 1_555
N9 C7 1_555 1_555
C7 N4 1_555 1_555
C8 H3 1_555 1_555
H4 C8 1_555 1_555
C9 N9 1_555 1_555
H5 C9 1_555 1_555
H6 C9 1_555 1_555
H7 N4 1_555 1_555
H8 N8 1_555 1_555
H9 N9 1_555 1_555
C5 C6 1_555 1_555
N7 C7 1_555 1_555
C8 C9 1_555 1_555

#END
