
#######################################################################
#
#                 Cambridge Crystallographic Data Centre
#                                CCDC 
#
#######################################################################
#
# If this CIF has been generated from an entry in the Cambridge 
# Structural Database, then it will include bibliographic, chemical, 
# crystal, experimental, refinement or atomic coordinate data resulting 
# from the CCDC's data processing and validation procedures.
#
#######################################################################

data_NOLFAW
_chemical_formula_moiety         'C17 H15 F3 O3'
_chemical_name_systematic        
rac-1-(allyloxy)-6-(4-(trifluoromethyl)phenyl)-3a,4-dihydro-1H-cyclopenta[c]furan-5(3H)-one
_symmetry_cell_setting           triclinic
_symmetry_space_group_name_H-M   'P -1'
_symmetry_Int_Tables_number      2
_space_group_name_Hall           '-P 1'
loop_
_symmetry_equiv_pos_site_id
_symmetry_equiv_pos_as_xyz
1 x,y,z
2 -x,-y,-z
_cell_length_a                   11.1096(5)
_cell_length_b                   11.5208(5)
_cell_length_c                   14.0938(7)
_cell_angle_alpha                96.960(2)
_cell_angle_beta                 107.037(2)
_cell_angle_gamma                100.482(2)
_cell_volume                     1666.48
_cell_formula_units_Z            4
_exptl_crystal_recrystallization_method n-hexane
loop_
_atom_site_label
_atom_site_type_symbol
_atom_site_fract_x
_atom_site_fract_y
_atom_site_fract_z
O1 O 0.7807(5) 1.0130(4) 0.9062(5)
O2 O 0.8481(4) 0.8921(4) 0.7962(4)
O3 O 0.6873(4) 0.5856(5) 1.0365(3)
C1 C 0.7519(8) 0.9018(7) 0.8407(7)
H1 H 0.669(5) 0.893(4) 0.788(4)
C2 C 0.7504(6) 0.8117(6) 0.9064(5)
C3 C 0.6790(6) 0.7051(6) 0.9052(5)
C4 C 0.7177(6) 0.6808(7) 1.0099(5)
C5 C 0.8024(8) 0.7943(8) 1.0790(6)
H2 H 0.761(6) 0.831(6) 1.111(5)
H3 H 0.877(6) 0.777(5) 1.135(5)
C6 C 0.8392(7) 0.8739(6) 1.0099(6)
H4 H 0.921(5) 0.878(4) 1.016(3)
C7 C 0.8144(10) 0.9973(8) 1.0100(8)
H5 H 0.741(7) 1.006(6) 1.037(5)
H6 H 0.881(7) 1.059(7) 1.041(5)
C8 C 0.8511(15) 0.9643(19) 0.7214(14)
H7 H 0.778(16) 0.927(15) 0.675(11)
H8 H 0.825(10) 1.022(8) 0.731(7)
C9 C 0.9505(15) 0.9401(13) 0.6790(10)
H9 H 0.9693 0.8675 0.6935
C10 C 1.004(2) 0.973(2) 0.6412(14)
H10 H 0.9972 1.0454 0.6204
H11 H 1.0620 0.9311 0.6255
C11 C 0.5781(7) 0.6241(6) 0.8198(5)
C12 C 0.4796(7) 0.5398(6) 0.8340(7)
H12 H 0.480(5) 0.546(5) 0.899(5)
C13 C 0.3854(8) 0.4646(7) 0.7538(7)
H13 H 0.313(6) 0.408(6) 0.760(4)
C14 C 0.3823(9) 0.4694(8) 0.6571(7)
C15 C 0.4770(10) 0.5520(8) 0.6394(7)
H14 H 0.451(13) 0.538(12) 0.550(10)
C16 C 0.5717(9) 0.6252(8) 0.7198(7)
H15 H 0.642(6) 0.680(5) 0.717(4)
C17 C 0.2800(16) 0.3892(13) 0.5753(9)
F1 F 0.1896(12) 0.4359(10) 0.5276(9)
F2 F 0.2178(9) 0.2975(8) 0.5890(5)
F3 F 0.3143(10) 0.3544(11) 0.4987(8)
O4 O 1.0197(4) 0.3409(4) 0.0532(4)
O5 O 0.9982(4) 0.4603(4) 0.1899(4)
O6 O 0.4957(5) 0.1970(5) -0.0487(4)
C18 C 0.9575(6) 0.3460(7) 0.1274(6)
H16 H 0.979(5) 0.286(5) 0.167(4)
C19 C 0.8184(7) 0.3265(5) 0.0703(5)
C20 C 0.7071(6) 0.2641(6) 0.0750(5)
C21 C 0.6089(7) 0.2467(6) -0.0262(5)
C22 C 0.6751(8) 0.2948(9) -0.0962(7)
H17 H 0.640(6) 0.342(6) -0.140(5)
H18 H 0.683(6) 0.234(6) -0.147(5)
C23 C 0.8099(6) 0.3612(7) -0.0301(5)
H19 H 0.812(5) 0.442(5) -0.024(4)
C24 C 0.9286(7) 0.3271(8) -0.0467(6)
H20 H 0.964(6) 0.372(6) -0.087(5)
H21 H 0.908(5) 0.233(6) -0.078(4)
C25 C 1.1278(8) 0.4830(9) 0.2540(7)
H22 H 1.1834 0.4765 0.2128
H23 H 1.1360 0.4219 0.2957
C26 C 1.1713(17) 0.5985(16) 0.3181(11)
H24 H 1.2583 0.6258 0.3561
C27 C 1.0922(19) 0.6647(16) 0.3239(11)
H25 H 1.0051 0.6379 0.2861
H26 H 1.1217 0.7398 0.3659
C28 C 0.6861(7) 0.2145(6) 0.1615(6)
C29 C 0.7527(8) 0.2741(9) 0.2593(7)
H27 H 0.812(5) 0.344(5) 0.271(4)
C30 C 0.7320(10) 0.2263(10) 0.3404(8)
H28 H 0.770(9) 0.264(8) 0.402(7)
C31 C 0.6445(9) 0.1193(9) 0.3244(8)
C32 C 0.5782(9) 0.0603(9) 0.2286(8)
H29 H 0.512(8) -0.014(8) 0.207(6)
C33 C 0.5985(8) 0.1083(8) 0.1477(7)
H30 H 0.551(6) 0.067(6) 0.080(5)
C34 C 0.6240(13) 0.0746(12) 0.4120(11)
F4 F 0.5532(16) -0.0290(10) 0.3919(6)
F5 F 0.5586(15) 0.1288(13) 0.4521(10)
F6 F 0.7144(9) 0.0708(12) 0.4828(7)
loop_
_geom_bond_atom_site_label_1
_geom_bond_atom_site_label_2
_geom_bond_site_symmetry_1
_geom_bond_site_symmetry_2
O1 C1 1_555 1_555
O2 C1 1_555 1_555
O3 C4 1_555 1_555
C1 H1 1_555 1_555
C2 C1 1_555 1_555
C3 C2 1_555 1_555
C4 C3 1_555 1_555
C5 C4 1_555 1_555
H2 C5 1_555 1_555
H3 C5 1_555 1_555
C6 C2 1_555 1_555
H4 C6 1_555 1_555
C7 O1 1_555 1_555
H5 C7 1_555 1_555
H6 C7 1_555 1_555
C8 O2 1_555 1_555
H7 C8 1_555 1_555
H8 C8 1_555 1_555
C9 C8 1_555 1_555
H9 C9 1_555 1_555
C10 C9 1_555 1_555
H10 C10 1_555 1_555
H11 C10 1_555 1_555
C11 C3 1_555 1_555
C12 C11 1_555 1_555
H12 C12 1_555 1_555
C13 C12 1_555 1_555
H13 C13 1_555 1_555
C14 C13 1_555 1_555
C15 C14 1_555 1_555
H14 C15 1_555 1_555
C16 C11 1_555 1_555
H15 C16 1_555 1_555
C17 C14 1_555 1_555
F1 C17 1_555 1_555
F2 C17 1_555 1_555
F3 C17 1_555 1_555
O4 C18 1_555 1_555
O5 C18 1_555 1_555
O6 C21 1_555 1_555
C18 H16 1_555 1_555
C19 C18 1_555 1_555
C20 C19 1_555 1_555
C21 C20 1_555 1_555
C22 C21 1_555 1_555
H17 C22 1_555 1_555
H18 C22 1_555 1_555
C23 C19 1_555 1_555
H19 C23 1_555 1_555
C24 O4 1_555 1_555
H20 C24 1_555 1_555
H21 C24 1_555 1_555
C25 O5 1_555 1_555
H22 C25 1_555 1_555
H23 C25 1_555 1_555
C26 C25 1_555 1_555
H24 C26 1_555 1_555
C27 C26 1_555 1_555
H25 C27 1_555 1_555
H26 C27 1_555 1_555
C28 C20 1_555 1_555
C29 C28 1_555 1_555
H27 C29 1_555 1_555
C30 C29 1_555 1_555
H28 C30 1_555 1_555
C31 C30 1_555 1_555
C32 C31 1_555 1_555
H29 C32 1_555 1_555
C33 C28 1_555 1_555
H30 C33 1_555 1_555
C34 C31 1_555 1_555
F4 C34 1_555 1_555
F5 C34 1_555 1_555
F6 C34 1_555 1_555
C5 C6 1_555 1_555
C6 C7 1_555 1_555
C15 C16 1_555 1_555
C22 C23 1_555 1_555
C23 C24 1_555 1_555
C32 C33 1_555 1_555

#END
