
#######################################################################
#
#                 Cambridge Crystallographic Data Centre
#                                CCDC 
#
#######################################################################
#
# If this CIF has been generated from an entry in the Cambridge 
# Structural Database, then it will include bibliographic, chemical, 
# crystal, experimental, refinement or atomic coordinate data resulting 
# from the CCDC's data processing and validation procedures.
#
#######################################################################

data_NOLTOZ
_chemical_formula_moiety         'C18 H14 B1 F2 N1 O1'
_chemical_name_systematic        
difluoro(1-(3-methylphenyl)-2-(quinolin-2-yl)ethenolato)borate
_symmetry_cell_setting           monoclinic
_symmetry_space_group_name_H-M   'P 21/c'
_symmetry_Int_Tables_number      14
_space_group_name_Hall           '-P 2ybc'
loop_
_symmetry_equiv_pos_site_id
_symmetry_equiv_pos_as_xyz
1 x,y,z
2 -x,1/2+y,1/2-z
3 -x,-y,-z
4 x,1/2-y,1/2+z
_cell_length_a                   7.11190(10)
_cell_length_b                   14.2344(4)
_cell_length_c                   14.2595(4)
_cell_angle_alpha                90
_cell_angle_beta                 100.811(2)
_cell_angle_gamma                90
_cell_volume                     1417.92
_exptl_crystal_colour            yellow
_exptl_crystal_description       block
_cell_formula_units_Z            4
loop_
_atom_site_label
_atom_site_type_symbol
_atom_site_fract_x
_atom_site_fract_y
_atom_site_fract_z
F1 F 0.5028(2) 0.04451(10) 0.70519(10)
F2 F 0.1921(2) 0.07953(10) 0.70873(10)
O1 O 0.2619(3) -0.05333(12) 0.62924(12)
N1 N 0.3062(3) 0.10676(14) 0.56124(13)
B1 B 0.3162(4) 0.04325(19) 0.65393(19)
C1 C 0.2593(3) 0.06639(19) 0.47390(17)
C2 C 0.2418(4) 0.1220(2) 0.39052(18)
H1 H 0.2112 0.0929 0.3296
C3 C 0.2683(4) 0.2160(2) 0.39659(18)
H2 H 0.2508 0.2529 0.3401
C4 C 0.3573(3) 0.3570(2) 0.4968(2)
H3 H 0.3416 0.3954 0.4414
C5 C 0.4138(4) 0.39673(19) 0.5847(2)
H4 H 0.4370 0.4624 0.5903
C6 C 0.4374(4) 0.34004(18) 0.6669(2)
H5 H 0.4769 0.3678 0.7280
C7 C 0.4039(3) 0.24473(17) 0.65977(18)
H6 H 0.4218 0.2072 0.7158
C8 C 0.3433(3) 0.20275(17) 0.56977(17)
C9 C 0.3220(3) 0.25969(19) 0.48713(18)
C10 C 0.2261(3) -0.03203(19) 0.46542(18)
H7 H 0.2007 -0.0591 0.4034
C11 C 0.2293(3) -0.08861(18) 0.54149(17)
C12 C 0.1968(3) -0.19155(19) 0.53717(19)
C13 C 0.1484(3) -0.2381(2) 0.4494(2)
H8 H 0.1328 -0.2032 0.3916
C14 C 0.1229(3) -0.3356(2) 0.4462(2)
C15 C 0.1478(4) -0.3856(2) 0.5301(2)
H9 H 0.1335 -0.4520 0.5278
C16 C 0.1934(4) -0.3412(2) 0.6179(2)
H10 H 0.2076 -0.3765 0.6753
C17 C 0.2181(4) -0.24405(19) 0.6208(2)
H11 H 0.2499 -0.2132 0.6808
C18 C 0.0706(4) -0.3852(2) 0.3520(2)
H12 H 0.1747 -0.4276 0.3436
H13 H 0.0499 -0.3389 0.3003
H14 H -0.0469 -0.4216 0.3506
loop_
_geom_bond_atom_site_label_1
_geom_bond_atom_site_label_2
_geom_bond_site_symmetry_1
_geom_bond_site_symmetry_2
F1 B1 1_555 1_555
F2 B1 1_555 1_555
O1 B1 1_555 1_555
N1 B1 1_555 1_555
C1 N1 1_555 1_555
C2 C1 1_555 1_555
H1 C2 1_555 1_555
C3 C2 1_555 1_555
H2 C3 1_555 1_555
C4 H3 1_555 1_555
C5 C4 1_555 1_555
H4 C5 1_555 1_555
C6 C5 1_555 1_555
H5 C6 1_555 1_555
C7 C6 1_555 1_555
H6 C7 1_555 1_555
C8 N1 1_555 1_555
C9 C3 1_555 1_555
C10 C1 1_555 1_555
H7 C10 1_555 1_555
C11 O1 1_555 1_555
C12 C11 1_555 1_555
C13 C12 1_555 1_555
H8 C13 1_555 1_555
C14 C13 1_555 1_555
C15 C14 1_555 1_555
H9 C15 1_555 1_555
C16 C15 1_555 1_555
H10 C16 1_555 1_555
C17 C12 1_555 1_555
H11 C17 1_555 1_555
C18 C14 1_555 1_555
H12 C18 1_555 1_555
H13 C18 1_555 1_555
H14 C18 1_555 1_555
C4 C9 1_555 1_555
C7 C8 1_555 1_555
C8 C9 1_555 1_555
C10 C11 1_555 1_555
C16 C17 1_555 1_555

#END
