
#######################################################################
#
#                 Cambridge Crystallographic Data Centre
#                                CCDC 
#
#######################################################################
#
# If this CIF has been generated from an entry in the Cambridge 
# Structural Database, then it will include bibliographic, chemical, 
# crystal, experimental, refinement or atomic coordinate data resulting 
# from the CCDC's data processing and validation procedures.
#
#######################################################################

data_NOMBAU
_chemical_formula_moiety         'C14 H15 Br1 F3 N1 O4 S1'
_chemical_name_systematic        
N-(2-((3-(4-bromophenyl)-2-methyl-3-oxopropyl)sulfonyl)ethyl)-2,2,2-trifluoroacetamide
_symmetry_cell_setting           monoclinic
_symmetry_space_group_name_H-M   'P 21'
_symmetry_Int_Tables_number      4
_space_group_name_Hall           'P 2yb'
loop_
_symmetry_equiv_pos_site_id
_symmetry_equiv_pos_as_xyz
1 x,y,z
2 -x,1/2+y,-z
_cell_length_a                   8.7032(17)
_cell_length_b                   5.6928(11)
_cell_length_c                   16.763(3)
_cell_angle_alpha                90
_cell_angle_beta                 97.95(3)
_cell_angle_gamma                90
_cell_volume                     822.55
_exptl_crystal_colour            colorless
_exptl_crystal_description       plate
_cell_formula_units_Z            2
loop_
_atom_site_label
_atom_site_type_symbol
_atom_site_fract_x
_atom_site_fract_y
_atom_site_fract_z
Br1 Br 0.11276(6) 0.35636(13) 0.44564(3)
S1 S 0.65347(11) 0.3509(3) 0.91413(6)
F1 F 0.6371(4) 0.3635(11) 1.2031(2)
F2 F 0.7908(4) 0.0710(7) 1.2027(2)
F3 F 0.8667(5) 0.3743(11) 1.27105(19)
O1 O 0.6609(4) -0.0526(7) 0.7463(2)
O2 O 0.5026(3) 0.3362(9) 0.8654(2)
O3 O 0.6815(5) 0.1928(7) 0.9824(2)
O4 O 0.9723(4) 0.3125(8) 1.1121(2)
N1 N 0.7759(5) 0.5832(9) 1.0927(3)
C1 C 0.7358(5) 0.3475(12) 0.7614(2)
H1 H 0.6764 0.4943 0.7561
C2 C 0.7975(5) 0.3053(9) 0.8499(3)
H2 H 0.8840 0.4105 0.8659
H3 H 0.8358 0.1455 0.8564
C3 C 0.6798(5) 0.6466(9) 0.9478(3)
H4 H 0.6996 0.7438 0.9028
H5 H 0.5843 0.7014 0.9652
C4 C 0.8134(5) 0.6795(10) 1.0172(3)
H6 H 0.9057 0.6025 1.0034
H7 H 0.8361 0.8456 1.0241
C5 C 0.8535(5) 0.4025(10) 1.1288(3)
C6 C 0.7849(6) 0.3042(11) 1.2022(3)
C7 C 0.8715(6) 0.3646(16) 0.7116(3)
H8 H 0.9294 0.5056 0.7259
H9 H 0.8316 0.3681 0.6553
H10 H 0.9382 0.2308 0.7227
C8 C 0.6339(5) 0.1483(9) 0.7260(3)
C9 C 0.5060(6) 0.2070(10) 0.6579(3)
C10 C 0.4237(6) 0.4118(10) 0.6556(3)
H11 H 0.4487 0.5239 0.6957
C11 C 0.3019(6) 0.4544(11) 0.5935(4)
H12 H 0.2434 0.5911 0.5931
C12 C 0.2706(6) 0.2916(11) 0.5335(3)
C13 C 0.3510(7) 0.0805(12) 0.5342(3)
H13 H 0.3269 -0.0295 0.4934
C14 C 0.4683(6) 0.0386(11) 0.5974(3)
H14 H 0.5225 -0.1027 0.5997
H15 H 0.694(8) 0.631(13) 1.108(4)
loop_
_geom_bond_atom_site_label_1
_geom_bond_atom_site_label_2
_geom_bond_site_symmetry_1
_geom_bond_site_symmetry_2
Br1 C12 1_555 1_555
S1 O2 1_555 1_555
F1 C6 1_555 1_555
F2 C6 1_555 1_555
F3 C6 1_555 1_555
O1 C8 1_555 1_555
O3 S1 1_555 1_555
O4 C5 1_555 1_555
N1 C4 1_555 1_555
C1 H1 1_555 1_555
C2 S1 1_555 1_555
H2 C2 1_555 1_555
H3 C2 1_555 1_555
C3 S1 1_555 1_555
H4 C3 1_555 1_555
H5 C3 1_555 1_555
C4 C3 1_555 1_555
H6 C4 1_555 1_555
H7 C4 1_555 1_555
C5 N1 1_555 1_555
C6 C5 1_555 1_555
C7 C1 1_555 1_555
H8 C7 1_555 1_555
H9 C7 1_555 1_555
H10 C7 1_555 1_555
C8 C1 1_555 1_555
C9 C8 1_555 1_555
C10 C9 1_555 1_555
H11 C10 1_555 1_555
C11 C10 1_555 1_555
H12 C11 1_555 1_555
C12 C11 1_555 1_555
C13 C12 1_555 1_555
H13 C13 1_555 1_555
C14 C9 1_555 1_555
H14 C14 1_555 1_555
H15 N1 1_555 1_555
C1 C2 1_555 1_555
C13 C14 1_555 1_555

#END
