
#######################################################################
#
#                 Cambridge Crystallographic Data Centre
#                                CCDC 
#
#######################################################################
#
# If this CIF has been generated from an entry in the Cambridge 
# Structural Database, then it will include bibliographic, chemical, 
# crystal, experimental, refinement or atomic coordinate data resulting 
# from the CCDC's data processing and validation procedures.
#
#######################################################################

data_NORFOQ
_chemical_formula_moiety         'C14 H11 Cl1 N2 O4,H2 O1'
_chemical_name_systematic        
"(E)-N'-(5-Chloro-2-hydroxybenzylidene)-3,5-dihydroxybenzohydrazide monohydrate"
_symmetry_cell_setting           monoclinic
_symmetry_space_group_name_H-M   'P 21/c'
_symmetry_Int_Tables_number      14
_space_group_name_Hall           '-P 2ybc'
loop_
_symmetry_equiv_pos_site_id
_symmetry_equiv_pos_as_xyz
1 x,y,z
2 -x,1/2+y,1/2-z
3 -x,-y,-z
4 x,1/2-y,1/2+z
_cell_length_a                   14.106(3)
_cell_length_b                   8.0090(16)
_cell_length_c                   13.127(3)
_cell_angle_alpha                90
_cell_angle_beta                 108.26(3)
_cell_angle_gamma                90
_cell_volume                     1408.34
_exptl_crystal_colour            'light yellow'
_exptl_crystal_description       block
_cell_formula_units_Z            4
loop_
_atom_site_label
_atom_site_type_symbol
_atom_site_fract_x
_atom_site_fract_y
_atom_site_fract_z
Cl1 Cl 0.45135(9) 1.22680(17) 0.91318(10)
N1 N 0.8522(2) 0.8948(4) 0.8966(3)
N2 N 0.9299(2) 0.8091(4) 0.9689(2)
H1 H 0.9246 0.7758 1.0291
O1 O 0.7409(2) 1.0093(4) 0.7040(2)
H2 H 0.7853 0.9523 0.7442
O2 O 1.02312(19) 0.8242(4) 0.8572(2)
O3 O 1.3085(2) 0.4281(4) 1.0233(2)
H3 H 1.2983 0.4456 0.9592
O4 O 1.1915(2) 0.5757(4) 1.3090(2)
H4 H 1.1481 0.6308 1.3229
C1 C 0.6935(3) 1.0274(5) 0.8653(3)
C2 C 0.6769(3) 1.0606(5) 0.7568(3)
C3 C 0.5923(3) 1.1451(6) 0.6983(3)
H5 H 0.5819 1.1666 0.6260
C4 C 0.5231(3) 1.1979(6) 0.7450(4)
H6 H 0.4662 1.2550 0.7050
C5 C 0.5392(3) 1.1652(6) 0.8520(3)
C6 C 0.6229(3) 1.0829(5) 0.9126(3)
H7 H 0.6330 1.0638 0.9851
C7 C 0.7800(3) 0.9389(5) 0.9314(3)
H8 H 0.7838 0.9127 1.0016
C8 C 1.0139(3) 0.7786(5) 0.9438(3)
C9 C 1.0938(3) 0.6850(5) 1.0242(3)
C10 C 1.1629(3) 0.6018(5) 0.9869(3)
H9 H 1.1574 0.6065 0.9145
C11 C 1.2398(3) 0.5122(5) 1.0569(3)
C12 C 1.2492(3) 0.5052(5) 1.1645(3)
H10 H 1.3011 0.4455 1.2117
C13 C 1.1801(3) 0.5882(5) 1.2015(3)
C14 C 1.1025(3) 0.6788(5) 1.1327(3)
H11 H 1.0570 0.7345 1.1587
O5 O 0.8783(2) 0.7575(4) 0.6646(2)
H12 H 0.9196 0.7761 0.7263
H13 H 0.8435 0.6765 0.6750
loop_
_geom_bond_atom_site_label_1
_geom_bond_atom_site_label_2
_geom_bond_site_symmetry_1
_geom_bond_site_symmetry_2
Cl1 C5 1_555 1_555
N1 N2 1_555 1_555
N2 H1 1_555 1_555
O1 H2 1_555 1_555
O2 C8 1_555 1_555
O3 H3 1_555 1_555
O4 H4 1_555 1_555
C1 C2 1_555 1_555
C2 O1 1_555 1_555
C3 C2 1_555 1_555
H5 C3 1_555 1_555
C4 C3 1_555 1_555
H6 C4 1_555 1_555
C5 C4 1_555 1_555
C6 C1 1_555 1_555
H7 C6 1_555 1_555
C7 N1 1_555 1_555
H8 C7 1_555 1_555
C8 N2 1_555 1_555
C9 C8 1_555 1_555
C10 C9 1_555 1_555
H9 C10 1_555 1_555
C11 O3 1_555 1_555
C12 C11 1_555 1_555
H10 C12 1_555 1_555
C13 O4 1_555 1_555
C14 C9 1_555 1_555
H11 C14 1_555 1_555
O5 H12 1_555 1_555
H13 O5 1_555 1_555
C1 C7 1_555 1_555
C5 C6 1_555 1_555
C10 C11 1_555 1_555
C12 C13 1_555 1_555
C13 C14 1_555 1_555

#END
