
#######################################################################
#
#                 Cambridge Crystallographic Data Centre
#                                CCDC 
#
#######################################################################
#
# If this CIF has been generated from an entry in the Cambridge 
# Structural Database, then it will include bibliographic, chemical, 
# crystal, experimental, refinement or atomic coordinate data resulting 
# from the CCDC's data processing and validation procedures.
#
#######################################################################

data_NOSRES
_chemical_formula_moiety         'C4 H6 B1 Cl4 F6 N3 O6 P2 S2'
_chemical_name_systematic        
1,5-Dimethyl-2,2,4,4-tetrachloro-6,6-bis(trifluoromethanesulfonato)-1,3,5,2\l^5^,4\l^5^,6-triazadiphosphaborinine
_symmetry_cell_setting           triclinic
_symmetry_space_group_name_H-M   'P -1'
_symmetry_Int_Tables_number      2
_space_group_name_Hall           '-P 1'
loop_
_symmetry_equiv_pos_site_id
_symmetry_equiv_pos_as_xyz
1 x,y,z
2 -x,-y,-z
_cell_length_a                   12.9815(12)
_cell_length_b                   13.6426(12)
_cell_length_c                   14.1406(15)
_cell_angle_alpha                71.576(10)
_cell_angle_beta                 62.702(5)
_cell_angle_gamma                77.082(8)
_cell_volume                     2102.16
_exptl_crystal_colour            colorless
_exptl_crystal_description       block
_cell_formula_units_Z            4
loop_
_atom_site_label
_atom_site_type_symbol
_atom_site_fract_x
_atom_site_fract_y
_atom_site_fract_z
S1 S 0.3072(2) 0.88433(13) 0.29218(15)
S2 S 0.7093(2) 0.9081(2) 0.2775(2)
P1 P 0.47336(14) 0.68402(13) 0.47233(12)
P2 P 0.58483(13) 0.64489(12) 0.26655(12)
Cl1 Cl 0.5485(2) 0.6559(2) 0.5729(2)
Cl2 Cl 0.3135(2) 0.6505(2) 0.57541(15)
Cl3 Cl 0.74862(14) 0.58586(15) 0.20430(15)
Cl4 Cl 0.5130(2) 0.57854(14) 0.20828(15)
N1 N 0.4728(4) 0.8043(4) 0.4100(4)
N2 N 0.5769(4) 0.7666(4) 0.2188(4)
N3 N 0.5320(4) 0.6110(4) 0.3935(4)
B1 B 0.5221(6) 0.8464(5) 0.2867(6)
C1 C 0.4196(7) 0.8824(6) 0.4801(6)
H1 H 0.3913(7) 0.8463(6) 0.5563(6)
H2 H 0.3563(7) 0.9244(6) 0.4651(6)
H3 H 0.4777(7) 0.9259(6) 0.4631(6)
C2 C 0.6203(7) 0.8071(6) 0.0976(5)
H4 H 0.6532(7) 0.7503(6) 0.0631(5)
H5 H 0.6789(7) 0.8532(6) 0.0720(5)
H6 H 0.5569(7) 0.8440(6) 0.0796(5)
C3 C 0.2840(9) 0.9499(8) 0.1679(8)
C4 C 0.8188(9) 0.9610(10) 0.1421(12)
O1 O 0.4272(4) 0.9166(3) 0.2552(3)
O2 O 0.2199(4) 0.9324(4) 0.3743(4)
O3 O 0.3105(4) 0.7768(3) 0.3060(5)
O4 O 0.6057(4) 0.9257(3) 0.2494(4)
O5 O 0.6954(6) 0.9756(8) 0.3406(7)
O6 O 0.7469(6) 0.8003(5) 0.3043(7)
F1 F 0.3641(6) 0.9193(6) 0.0846(5)
F2 F 0.1816(6) 0.9286(5) 0.1851(6)
F3 F 0.2833(5) 1.0507(4) 0.1497(4)
F4 F 0.7889(7) 1.0574(8) 0.1052(8)
F5 F 0.9153(5) 0.9588(6) 0.1525(7)
F6 F 0.8358(7) 0.9094(10) 0.0766(7)
S3 S -0.0129(2) 0.6707(2) 0.8508(2)
S4 S -0.4150(2) 0.6690(2) 0.8523(2)
P3 P -0.07322(14) 0.63116(14) 0.58755(13)
P4 P -0.12396(14) 0.46075(13) 0.76525(14)
Cl5 Cl -0.1492(2) 0.6715(2) 0.4861(2)
Cl6 Cl 0.0865(2) 0.6685(2) 0.4872(2)
Cl7 Cl -0.2400(2) 0.3667(2) 0.8032(2)
Cl8 Cl -0.0040(2) 0.3625(2) 0.8033(2)
N4 N -0.1332(5) 0.6991(4) 0.6753(4)
N5 N -0.1784(4) 0.5413(4) 0.8401(4)
N6 N -0.0744(4) 0.5138(4) 0.6402(4)
B2 B -0.1842(6) 0.6570(6) 0.7984(6)
C5 C -0.1394(8) 0.8144(5) 0.6321(7)
H7 H -0.1047(8) 0.8314(5) 0.5533(7)
H8 H -0.0982(8) 0.8433(5) 0.6570(7)
H9 H -0.2194(8) 0.8427(5) 0.6582(7)
C6 C -0.2289(7) 0.4964(6) 0.9626(5)
H10 H -0.2195(7) 0.4220(6) 0.9779(5)
H11 H -0.3103(7) 0.5196(6) 0.9941(5)
H12 H -0.1893(7) 0.5190(6) 0.9938(5)
C7 C 0.0423(12) 0.7978(12) 0.8041(15)
C8 C -0.4904(9) 0.7958(9) 0.8156(10)
O7 O -0.1327(3) 0.7043(3) 0.8500(4)
O8 O 0.0605(4) 0.6187(4) 0.7688(5)
O9 O -0.0223(6) 0.6327(8) 0.9586(5)
O10 O -0.3101(3) 0.7047(3) 0.8496(4)
O11 O -0.4952(5) 0.6282(5) 0.9631(4)
O12 O -0.3822(5) 0.6209(4) 0.7665(4)
F7 F -0.0273(7) 0.8557(7) 0.8648(10)
F8 F 0.1428(6) 0.7833(6) 0.8086(8)
F9 F 0.0554(9) 0.8381(7) 0.7023(11)
F10 F -0.5860(6) 0.7775(5) 0.8185(7)
F11 F -0.4177(7) 0.8439(5) 0.7095(6)
F12 F -0.5120(6) 0.8499(5) 0.8828(6)
loop_
_geom_bond_atom_site_label_1
_geom_bond_atom_site_label_2
_geom_bond_site_symmetry_1
_geom_bond_site_symmetry_2
S1 C3 1_555 1_555
S2 C4 1_555 1_555
P1 Cl1 1_555 1_555
P2 Cl3 1_555 1_555
Cl2 P1 1_555 1_555
Cl4 P2 1_555 1_555
N1 P1 1_555 1_555
N2 P2 1_555 1_555
N3 P1 1_555 1_555
B1 N1 1_555 1_555
C1 N1 1_555 1_555
H1 C1 1_555 1_555
H2 C1 1_555 1_555
H3 C1 1_555 1_555
C2 N2 1_555 1_555
H4 C2 1_555 1_555
H5 C2 1_555 1_555
H6 C2 1_555 1_555
C3 F1 1_555 1_555
C4 F4 1_555 1_555
O1 S1 1_555 1_555
O2 S1 1_555 1_555
O3 S1 1_555 1_555
O4 S2 1_555 1_555
O5 S2 1_555 1_555
O6 S2 1_555 1_555
F2 C3 1_555 1_555
F3 C3 1_555 1_555
F5 C4 1_555 1_555
F6 C4 1_555 1_555
S3 C7 1_555 1_555
S4 C8 1_555 1_555
P3 Cl5 1_555 1_555
P4 Cl7 1_555 1_555
Cl6 P3 1_555 1_555
Cl8 P4 1_555 1_555
N4 P3 1_555 1_555
N5 P4 1_555 1_555
N6 P3 1_555 1_555
B2 N4 1_555 1_555
C5 N4 1_555 1_555
H7 C5 1_555 1_555
H8 C5 1_555 1_555
H9 C5 1_555 1_555
C6 N5 1_555 1_555
H10 C6 1_555 1_555
H11 C6 1_555 1_555
H12 C6 1_555 1_555
C7 F7 1_555 1_555
C8 F10 1_555 1_555
O7 S3 1_555 1_555
O8 S3 1_555 1_555
O9 S3 1_555 1_555
O10 S4 1_555 1_555
O11 S4 1_555 1_555
O12 S4 1_555 1_555
F8 C7 1_555 1_555
F9 C7 1_555 1_555
F11 C8 1_555 1_555
F12 C8 1_555 1_555
P2 N3 1_555 1_555
N2 B1 1_555 1_555
B1 O1 1_555 1_555
B1 O4 1_555 1_555
P4 N6 1_555 1_555
N5 B2 1_555 1_555
B2 O7 1_555 1_555
B2 O10 1_555 1_555

#END
