
#######################################################################
#
#                 Cambridge Crystallographic Data Centre
#                                CCDC 
#
#######################################################################
#
# If this CIF has been generated from an entry in the Cambridge 
# Structural Database, then it will include bibliographic, chemical, 
# crystal, experimental, refinement or atomic coordinate data resulting 
# from the CCDC's data processing and validation procedures.
#
#######################################################################

data_NOSWUP
_chemical_formula_moiety         'C21 H22 Br1 N1 O3 S1'
_chemical_name_systematic        
(3S,4R)-3-(4-Bromobenzoyl)-1-((4-methylphenyl)sulfonyl)-4-(prop-1-en-2-yl)pyrrolidine
_symmetry_cell_setting           orthorhombic
_symmetry_space_group_name_H-M   'P 21 21 21'
_symmetry_Int_Tables_number      19
_space_group_name_Hall           'P 2ac 2ab'
loop_
_symmetry_equiv_pos_site_id
_symmetry_equiv_pos_as_xyz
1 x,y,z
2 1/2-x,-y,1/2+z
3 -x,1/2+y,1/2-z
4 1/2+x,1/2-y,-z
_cell_length_a                   5.1826(3)
_cell_length_b                   18.1756(7)
_cell_length_c                   21.0785(8)
_cell_angle_alpha                90
_cell_angle_beta                 90
_cell_angle_gamma                90
_cell_volume                     1985.53
_exptl_crystal_colour            colorless
_exptl_crystal_description       prismatic
_cell_formula_units_Z            4
loop_
_atom_site_label
_atom_site_type_symbol
_atom_site_fract_x
_atom_site_fract_y
_atom_site_fract_z
Br1 Br -0.53405(9) -0.36581(2) 0.587758(19)
S1 S 0.59693(17) 0.06600(5) 0.50720(4)
N1 N 0.4305(6) 0.03861(14) 0.56861(12)
O1 O 0.2990(6) -0.10371(15) 0.69744(13)
O2 O 0.7081(5) 0.00043(14) 0.48127(12)
O3 O 0.7576(5) 0.12475(15) 0.52915(12)
C1 C -0.0228(8) 0.07633(19) 0.70196(15)
C2 C -0.1111(7) 0.1437(2) 0.69565(17)
H1 H -0.2424 0.1612 0.7232
H2 H -0.0437 0.1749 0.6635
C3 C -0.1260(9) 0.0261(2) 0.75229(19)
H3 H -0.2427 0.0536 0.7801
H4 H 0.0175 0.0063 0.7773
H5 H -0.2204 -0.0145 0.7323
C4 C 0.1860(7) 0.04346(19) 0.66051(16)
H6 H 0.3297 0.0272 0.6889
C5 C 0.3017(7) 0.09376(18) 0.60978(16)
H7 H 0.1665 0.1212 0.5865
H8 H 0.4271 0.1289 0.6282
C6 C 0.2511(7) -0.0237(2) 0.56013(17)
H9 H 0.3465 -0.0704 0.5543
H10 H 0.1374 -0.0157 0.5230
C7 C 0.0939(7) -0.02478(17) 0.62228(15)
H11 H -0.0936 -0.0192 0.6121
C8 C 0.1358(7) -0.09689(19) 0.65649(16)
C9 C -0.0271(8) -0.16168(17) 0.63749(15)
C10 C -0.0164(9) -0.22514(17) 0.67422(16)
H12 H 0.0953 -0.2267 0.7099
C11 C -0.1656(9) -0.2863(2) 0.65976(17)
H13 H -0.1563 -0.3296 0.6849
C12 C -0.3274(8) -0.28260(19) 0.60800(17)
C13 C -0.3383(8) -0.2205(2) 0.56985(17)
H14 H -0.4460 -0.2197 0.5334
C14 C -0.1922(7) -0.16047(19) 0.58528(18)
H15 H -0.2034 -0.1173 0.5600
C15 C 0.3825(6) 0.10253(19) 0.45036(15)
C16 C 0.2791(8) 0.05520(19) 0.40531(18)
H16 H 0.3275 0.0048 0.4045
C17 C 0.1041(8) 0.0827(2) 0.36150(16)
H17 H 0.0322 0.0508 0.3305
C18 C 0.0328(8) 0.15658(19) 0.36257(15)
C19 C 0.1411(7) 0.20241(19) 0.40766(17)
H18 H 0.0949 0.2530 0.4083
C20 C 0.3156(8) 0.1760(2) 0.45196(16)
H19 H 0.3880 0.2079 0.4829
C21 C -0.1601(9) 0.1855(2) 0.31476(18)
H20 H -0.3353 0.1733 0.3288
H21 H -0.1274 0.1628 0.2733
H22 H -0.1424 0.2390 0.3112
loop_
_geom_bond_atom_site_label_1
_geom_bond_atom_site_label_2
_geom_bond_site_symmetry_1
_geom_bond_site_symmetry_2
Br1 C12 1_555 1_555
S1 N1 1_555 1_555
N1 C5 1_555 1_555
O1 C8 1_555 1_555
O2 S1 1_555 1_555
O3 S1 1_555 1_555
C1 C2 1_555 1_555
C2 H1 1_555 1_555
H2 C2 1_555 1_555
C3 C1 1_555 1_555
H3 C3 1_555 1_555
H4 C3 1_555 1_555
H5 C3 1_555 1_555
C4 C1 1_555 1_555
H6 C4 1_555 1_555
C5 C4 1_555 1_555
H7 C5 1_555 1_555
H8 C5 1_555 1_555
C6 N1 1_555 1_555
H9 C6 1_555 1_555
H10 C6 1_555 1_555
C7 C4 1_555 1_555
H11 C7 1_555 1_555
C8 C7 1_555 1_555
C9 C8 1_555 1_555
C10 C9 1_555 1_555
H12 C10 1_555 1_555
C11 C10 1_555 1_555
H13 C11 1_555 1_555
C12 C11 1_555 1_555
C13 C12 1_555 1_555
H14 C13 1_555 1_555
C14 C9 1_555 1_555
H15 C14 1_555 1_555
C15 S1 1_555 1_555
C16 C15 1_555 1_555
H16 C16 1_555 1_555
C17 C16 1_555 1_555
H17 C17 1_555 1_555
C18 C17 1_555 1_555
C19 C18 1_555 1_555
H18 C19 1_555 1_555
C20 C15 1_555 1_555
H19 C20 1_555 1_555
C21 C18 1_555 1_555
H20 C21 1_555 1_555
H21 C21 1_555 1_555
H22 C21 1_555 1_555
C6 C7 1_555 1_555
C13 C14 1_555 1_555
C19 C20 1_555 1_555

#END
