
#######################################################################
#
#                 Cambridge Crystallographic Data Centre
#                                CCDC 
#
#######################################################################
#
# If this CIF has been generated from an entry in the Cambridge 
# Structural Database, then it will include bibliographic, chemical, 
# crystal, experimental, refinement or atomic coordinate data resulting 
# from the CCDC's data processing and validation procedures.
#
#######################################################################

data_NOSYOJ01
_chemical_formula_moiety         'C16 H10 O5'
_chemical_name_systematic        3,3'-Oxybi(isobenzofuran-1(3H)-one)
_symmetry_cell_setting           monoclinic
_symmetry_space_group_name_H-M   'P n'
_symmetry_Int_Tables_number      7
_space_group_name_Hall           'P -2yac'
loop_
_symmetry_equiv_pos_site_id
_symmetry_equiv_pos_as_xyz
1 x,y,z
2 1/2+x,-y,1/2+z
_cell_length_a                   4.4449(6)
_cell_length_b                   6.4937(8)
_cell_length_c                   22.222(2)
_cell_angle_alpha                90
_cell_angle_beta                 91.3340(10)
_cell_angle_gamma                90
_cell_volume                     641.239
_exptl_crystal_colour            colorless
_exptl_crystal_description       block
_cell_formula_units_Z            2
_exptl_crystal_recrystallization_method 'dichloromethane/petroleum ether'
loop_
_atom_site_label
_atom_site_type_symbol
_atom_site_fract_x
_atom_site_fract_y
_atom_site_fract_z
O1 O 0.4119(4) 0.1516(3) 0.04946(8)
O2 O 0.7298(5) 0.4086(3) 0.01338(9)
O3 O 0.7306(7) 0.7164(3) -0.03192(13)
O4 O 0.6010(5) 0.2116(3) 0.14674(10)
O5 O 0.4721(8) 0.2569(4) 0.24282(12)
C1 C 0.6000(7) 0.2076(5) 0.00288(13)
H1 H 0.7583 0.1044 -0.0022
C2 C 0.6456(7) 0.5423(5) -0.03175(14)
C3 C 0.4189(7) 0.2325(4) -0.05400(13)
C4 C 0.4482(7) 0.4308(5) -0.07433(13)
C5 C 0.3011(8) 0.4956(6) -0.12687(14)
H2 H 0.3231 0.6295 -0.1409
C6 C 0.1225(9) 0.3563(6) -0.15739(15)
H3 H 0.0207 0.3965 -0.1925
C7 C 0.0922(9) 0.1584(6) -0.13675(16)
H4 H -0.0305 0.0669 -0.1582
C8 C 0.2407(7) 0.0915(5) -0.08456(14)
H5 H 0.2207 -0.0430 -0.0708
C9 C 0.5534(7) 0.0616(5) 0.10002(14)
H6 H 0.7448 -0.0014 0.0890
C10 C 0.4522(8) 0.1563(5) 0.19777(15)
C11 C 0.3520(6) -0.0951(4) 0.12751(13)
C12 C 0.2908(6) -0.0361(5) 0.18517(12)
C13 C 0.1088(8) -0.1539(6) 0.22104(14)
H7 H 0.0671 -0.1132 0.2601
C14 C -0.0088(8) -0.3326(5) 0.19756(16)
H8 H -0.1309 -0.4152 0.2209
C15 C 0.0531(8) -0.3905(5) 0.13930(15)
H9 H -0.0294 -0.5119 0.1240
C16 C 0.2336(7) -0.2733(5) 0.10336(14)
H10 H 0.2740 -0.3131 0.0642
loop_
_geom_bond_atom_site_label_1
_geom_bond_atom_site_label_2
_geom_bond_site_symmetry_1
_geom_bond_site_symmetry_2
O1 C1 1_555 1_555
O2 C1 1_555 1_555
O3 C2 1_555 1_555
O4 C9 1_555 1_555
O5 C10 1_555 1_555
C1 H1 1_555 1_555
C2 O2 1_555 1_555
C3 C1 1_555 1_555
C4 C2 1_555 1_555
C5 C4 1_555 1_555
H2 C5 1_555 1_555
C6 C5 1_555 1_555
H3 C6 1_555 1_555
C7 C6 1_555 1_555
H4 C7 1_555 1_555
C8 C3 1_555 1_555
H5 C8 1_555 1_555
C9 O1 1_555 1_555
H6 C9 1_555 1_555
C10 O4 1_555 1_555
C11 C9 1_555 1_555
C12 C10 1_555 1_555
C13 C12 1_555 1_555
H7 C13 1_555 1_555
C14 C13 1_555 1_555
H8 C14 1_555 1_555
C15 C14 1_555 1_555
H9 C15 1_555 1_555
C16 C11 1_555 1_555
H10 C16 1_555 1_555
C3 C4 1_555 1_555
C7 C8 1_555 1_555
C11 C12 1_555 1_555
C15 C16 1_555 1_555

#END
