
#######################################################################
#
#                 Cambridge Crystallographic Data Centre
#                                CCDC 
#
#######################################################################
#
# If this CIF has been generated from an entry in the Cambridge 
# Structural Database, then it will include bibliographic, chemical, 
# crystal, experimental, refinement or atomic coordinate data resulting 
# from the CCDC's data processing and validation procedures.
#
#######################################################################

data_NOTCAC
_chemical_formula_moiety         'C17 H20 N2 O1 S3'
_chemical_name_systematic        
N-(1-(1,3-Benzothiazol-2-yl)-1-(2-thienyl)ethyl)-2-methylpropane-2-sulfinamide
_symmetry_cell_setting           orthorhombic
_symmetry_space_group_name_H-M   'P 21 21 21'
_symmetry_Int_Tables_number      19
_space_group_name_Hall           'P 2ac 2ab'
loop_
_symmetry_equiv_pos_site_id
_symmetry_equiv_pos_as_xyz
1 x,y,z
2 1/2-x,-y,1/2+z
3 -x,1/2+y,1/2-z
4 1/2+x,1/2-y,-z
_cell_length_a                   8.2731(4)
_cell_length_b                   10.7452(5)
_cell_length_c                   20.7803(10)
_cell_angle_alpha                90
_cell_angle_beta                 90
_cell_angle_gamma                90
_cell_volume                     1847.29
_cell_formula_units_Z            4
loop_
_atom_site_label
_atom_site_type_symbol
_atom_site_fract_x
_atom_site_fract_y
_atom_site_fract_z
C1 C 0.1597(2) 0.62643(16) 0.77679(8)
C2 C 0.2034(2) 0.69911(18) 0.87438(8)
C3 C 0.1346(2) 0.58538(17) 0.89147(8)
C4 C 0.1189(2) 0.5492(2) 0.95574(9)
H1 H 0.0735 0.4730 0.9669
C5 C 0.1733(3) 0.6311(3) 1.00196(9)
H2 H 0.1649 0.6094 1.0452
C6 C 0.2397(3) 0.7440(2) 0.98563(10)
H3 H 0.2741 0.7972 1.0182
C7 C 0.2569(3) 0.7809(2) 0.92218(9)
H4 H 0.3025 0.8574 0.9117
C8 C 0.15011(19) 0.61859(17) 0.70346(8)
C9 C 0.4323(2) 0.84116(18) 0.59158(9)
C10 C 0.5781(3) 0.7611(3) 0.60655(14)
H5 H 0.6749 0.8059 0.5960
H6 H 0.5732 0.6860 0.5816
H7 H 0.5786 0.7407 0.6515
C11 C 0.4197(3) 0.9561(2) 0.63383(12)
H8 H 0.4993 1.0159 0.6207
H9 H 0.4380 0.9333 0.6779
H10 H 0.3138 0.9916 0.6296
C12 C 0.4325(4) 0.8805(3) 0.52022(10)
H11 H 0.3412 0.9332 0.5119
H12 H 0.4263 0.8078 0.4935
H13 H 0.5303 0.9250 0.5108
C13 C 0.21306(18) 0.49206(16) 0.68370(7)
C14 C 0.1274(2) 0.38730(18) 0.66982(9)
H14 H 0.0161 0.3869 0.6635
C15 C 0.2239(3) 0.27957(18) 0.66604(11)
H15 H 0.1833 0.2008 0.6569
C16 C 0.3801(3) 0.3028(2) 0.67699(10)
H16 H 0.4602 0.2420 0.6771
C17 C -0.0282(2) 0.6351(2) 0.68368(9)
H17 H -0.0641 0.7169 0.6954
H18 H -0.0933 0.5740 0.7053
H19 H -0.0383 0.6245 0.6380
N1 N 0.21525(17) 0.72047(14) 0.80784(7)
N2 N 0.25823(19) 0.71701(13) 0.67824(7)
H20 H 0.255(3) 0.7792(16) 0.6998(10)
O1 O 0.11219(18) 0.82997(15) 0.58393(6)
S1 S 0.08502(6) 0.50280(4) 0.822406(19)
S2 S 0.24848(5) 0.74518(4) 0.599071(18)
S3 S 0.41573(6) 0.45771(5) 0.69088(2)
loop_
_geom_bond_atom_site_label_1
_geom_bond_atom_site_label_2
_geom_bond_site_symmetry_1
_geom_bond_site_symmetry_2
C1 C8 1_555 1_555
C2 C3 1_555 1_555
C3 C4 1_555 1_555
C4 H1 1_555 1_555
C5 C4 1_555 1_555
H2 C5 1_555 1_555
C6 C5 1_555 1_555
H3 C6 1_555 1_555
C7 C2 1_555 1_555
H4 C7 1_555 1_555
C8 C13 1_555 1_555
C9 C10 1_555 1_555
C10 H5 1_555 1_555
H6 C10 1_555 1_555
H7 C10 1_555 1_555
C11 C9 1_555 1_555
H8 C11 1_555 1_555
H9 C11 1_555 1_555
H10 C11 1_555 1_555
C12 C9 1_555 1_555
H11 C12 1_555 1_555
H12 C12 1_555 1_555
H13 C12 1_555 1_555
C13 C14 1_555 1_555
C14 H14 1_555 1_555
C15 C14 1_555 1_555
H15 C15 1_555 1_555
C16 C15 1_555 1_555
H16 C16 1_555 1_555
C17 C8 1_555 1_555
H17 C17 1_555 1_555
H18 C17 1_555 1_555
H19 C17 1_555 1_555
N1 C1 1_555 1_555
N2 C8 1_555 1_555
H20 N2 1_555 1_555
O1 S2 1_555 1_555
S1 C1 1_555 1_555
S2 C9 1_555 1_555
S3 C13 1_555 1_555
C2 N1 1_555 1_555
C3 S1 1_555 1_555
C6 C7 1_555 1_555
C16 S3 1_555 1_555
N2 S2 1_555 1_555

#END
