
#######################################################################
#
#                 Cambridge Crystallographic Data Centre
#                                CCDC 
#
#######################################################################
#
# If this CIF has been generated from an entry in the Cambridge 
# Structural Database, then it will include bibliographic, chemical, 
# crystal, experimental, refinement or atomic coordinate data resulting 
# from the CCDC's data processing and validation procedures.
#
#######################################################################

data_NOVREV01
_chemical_formula_moiety         'C12 H10 F1 N1 O2'
_chemical_name_systematic        'ethyl 2-cyano-3-(4-fluorophenyl)acrylate'
_symmetry_cell_setting           monoclinic
_symmetry_space_group_name_H-M   'P 21/c'
_symmetry_Int_Tables_number      14
_space_group_name_Hall           '-P 2ybc'
loop_
_symmetry_equiv_pos_site_id
_symmetry_equiv_pos_as_xyz
1 x,y,z
2 -x,1/2+y,1/2-z
3 -x,-y,-z
4 x,1/2-y,1/2+z
_cell_length_a                   6.8919(8)
_cell_length_b                   17.956(3)
_cell_length_c                   9.5863(12)
_cell_angle_alpha                90
_cell_angle_beta                 95.958(9)
_cell_angle_gamma                90
_cell_volume                     1179.91
_exptl_crystal_colour            yellow
_exptl_crystal_description       Block
_cell_formula_units_Z            4
loop_
_atom_site_label
_atom_site_type_symbol
_atom_site_fract_x
_atom_site_fract_y
_atom_site_fract_z
C1 C 0.3814(6) 0.5749(2) 0.2146(5)
H1 H 0.3447 0.6219 0.1807
C2 C 0.5417(6) 0.5416(2) 0.1691(5)
H2 H 0.6123 0.5668 0.1062
C3 C 0.2734(6) 0.5411(2) 0.3085(4)
C4 C 0.3312(7) 0.4710(3) 0.3543(5)
H3 H 0.2602 0.4464 0.4177
C5 C 0.4919(6) 0.4363(2) 0.3085(5)
H4 H 0.5268 0.3889 0.3413
C6 C 0.6015(5) 0.4711(2) 0.2144(4)
C7 C 0.7700(6) 0.4397(2) 0.1570(5)
C8 C 0.8642(5) 0.3746(2) 0.1772(4)
C9 C 0.8165(6) 0.3188(2) 0.2737(5)
C10 C 1.0320(6) 0.3603(2) 0.0956(5)
C11 C 1.2825(9) 0.2769(4) 0.0512(9)
H5 H 1.2405 0.2802 -0.0483
H6 H 1.3881 0.3122 0.0725
C12 C 1.3451(13) 0.2109(4) 0.0805(12)
H7 H 1.2363 0.1783 0.0884
H8 H 1.4272 0.2115 0.1677
H9 H 1.4184 0.1934 0.0072
F1 F 0.0956(8) 0.5789(3) 0.3598(6)
H10 H 0.809(6) 0.469(2) 0.092(4)
N1 N 0.7775(6) 0.2735(2) 0.3502(5)
O1 O 1.0813(5) 0.40045(19) 0.0066(4)
O2 O 1.1193(5) 0.29694(18) 0.1308(4)
loop_
_geom_bond_atom_site_label_1
_geom_bond_atom_site_label_2
_geom_bond_site_symmetry_1
_geom_bond_site_symmetry_2
C1 H1 1_555 1_555
C2 C1 1_555 1_555
H2 C2 1_555 1_555
C3 C1 1_555 1_555
C4 C3 1_555 1_555
H3 C4 1_555 1_555
C5 C4 1_555 1_555
H4 C5 1_555 1_555
C6 C2 1_555 1_555
C7 C6 1_555 1_555
C8 C7 1_555 1_555
C9 C8 1_555 1_555
C10 C8 1_555 1_555
C11 H5 1_555 1_555
H6 C11 1_555 1_555
C12 C11 1_555 1_555
H7 C12 1_555 1_555
H8 C12 1_555 1_555
H9 C12 1_555 1_555
F1 C3 1_555 1_555
H10 C7 1_555 1_555
N1 C9 1_555 1_555
O1 C10 1_555 1_555
O2 C10 1_555 1_555
C5 C6 1_555 1_555
C11 O2 1_555 1_555

#END
