
#######################################################################
#
#                 Cambridge Crystallographic Data Centre
#                                CCDC 
#
#######################################################################
#
# If this CIF has been generated from an entry in the Cambridge 
# Structural Database, then it will include bibliographic, chemical, 
# crystal, experimental, refinement or atomic coordinate data resulting 
# from the CCDC's data processing and validation procedures.
#
#######################################################################

data_NOXFAJ
_chemical_formula_moiety         'C18 H26 O4'
_chemical_name_systematic        
6-(Hydroxymethyl)-6-(2-(methoxymethoxy)-3-methylphenyl)-2,2-dimethylcyclohex-3-en-1-ol
_symmetry_cell_setting           monoclinic
_symmetry_space_group_name_H-M   'P 21/c'
_symmetry_Int_Tables_number      14
_space_group_name_Hall           '-P 2ybc'
loop_
_symmetry_equiv_pos_site_id
_symmetry_equiv_pos_as_xyz
1 x,y,z
2 -x,1/2+y,1/2-z
3 -x,-y,-z
4 x,1/2-y,1/2+z
_cell_length_a                   13.435(3)
_cell_length_b                   7.9070(16)
_cell_length_c                   16.389(3)
_cell_angle_alpha                90
_cell_angle_beta                 109.07(3)
_cell_angle_gamma                90
_cell_volume                     1645.47
_cell_formula_units_Z            4
loop_
_atom_site_label
_atom_site_type_symbol
_atom_site_fract_x
_atom_site_fract_y
_atom_site_fract_z
C1 C 0.28964(12) 0.9547(2) 0.23609(10)
C2 C 0.38018(13) 0.9870(2) 0.30712(10)
C3 C 0.45708(14) 0.8626(3) 0.33187(11)
H1 H 0.5169 0.8805 0.3794
C4 C 0.44576(15) 0.7130(3) 0.28685(12)
H2 H 0.4975 0.6302 0.3043
C5 C 0.35685(14) 0.6857(2) 0.21516(11)
H3 H 0.3511 0.5846 0.1850
C6 C 0.27579(12) 0.8048(2) 0.18675(10)
C7 C 0.17758(12) 0.7662(2) 0.10667(10)
C8 C 0.18291(14) 0.5864(2) 0.07096(11)
H4 H 0.2068 0.5083 0.1191
H5 H 0.1125 0.5524 0.0361
C9 C 0.25449(14) 0.5717(2) 0.01740(11)
H6 H 0.2775 0.4644 0.0086
C10 C 0.28665(14) 0.7018(2) -0.01795(11)
H7 H 0.3312 0.6808 -0.0499
C11 C 0.25518(13) 0.8833(2) -0.00953(10)
C12 C 0.16299(13) 0.8845(2) 0.02772(10)
H8 H 0.1025 0.8384 -0.0183
C13 C 0.39612(15) 1.1534(3) 0.35473(13)
H9 H 0.3568 1.1535 0.3943
H10 H 0.3721 1.2441 0.3141
H11 H 0.4696 1.1685 0.3862
C14 C 0.35167(14) 0.9860(3) 0.04382(12)
H12 H 0.3297 1.0973 0.0541
H13 H 0.4008 0.9945 0.0127
H14 H 0.3847 0.9304 0.0980
C15 C 0.21510(15) 0.9634(3) -0.10009(11)
H15 H 0.1558 0.9002 -0.1358
H16 H 0.2703 0.9617 -0.1253
H17 H 0.1942 1.0781 -0.0956
C16 C 0.07851(12) 0.7714(2) 0.13633(10)
H18 H 0.0929 0.7066 0.1892
H19 H 0.0657 0.8876 0.1492
C17 C 0.15275(14) 1.1201(3) 0.26704(11)
H20 H 0.1539 1.0227 0.3033
H21 H 0.1829 1.2154 0.3041
C18 C 0.03712(17) 1.3220(2) 0.18089(14)
H22 H 0.0659 1.4042 0.2255
H23 H -0.0366 1.3437 0.1535
H24 H 0.0728 1.3294 0.1389
H25 H 0.163(2) 1.083(4) 0.0996(17)
H26 H -0.050(2) 0.779(4) 0.0410(17)
O1 O 0.21477(9) 1.08474(14) 0.21037(7)
O2 O 0.05092(10) 1.15618(15) 0.21787(8)
O3 O 0.13417(10) 1.05534(14) 0.04010(8)
O4 O -0.01434(9) 0.70635(15) 0.07398(8)
loop_
_geom_bond_atom_site_label_1
_geom_bond_atom_site_label_2
_geom_bond_site_symmetry_1
_geom_bond_site_symmetry_2
C1 C2 1_555 1_555
C2 C3 1_555 1_555
C3 H1 1_555 1_555
C4 C3 1_555 1_555
H2 C4 1_555 1_555
C5 C4 1_555 1_555
H3 C5 1_555 1_555
C6 C1 1_555 1_555
C7 C6 1_555 1_555
C8 C7 1_555 1_555
H4 C8 1_555 1_555
H5 C8 1_555 1_555
C9 C8 1_555 1_555
H6 C9 1_555 1_555
C10 C9 1_555 1_555
H7 C10 1_555 1_555
C11 C10 1_555 1_555
C12 C7 1_555 1_555
H8 C12 1_555 1_555
C13 C2 1_555 1_555
H9 C13 1_555 1_555
H10 C13 1_555 1_555
H11 C13 1_555 1_555
C14 C11 1_555 1_555
H12 C14 1_555 1_555
H13 C14 1_555 1_555
H14 C14 1_555 1_555
C15 C11 1_555 1_555
H15 C15 1_555 1_555
H16 C15 1_555 1_555
H17 C15 1_555 1_555
C16 C7 1_555 1_555
H18 C16 1_555 1_555
H19 C16 1_555 1_555
C17 H20 1_555 1_555
H21 C17 1_555 1_555
C18 H22 1_555 1_555
H23 C18 1_555 1_555
H24 C18 1_555 1_555
H25 O3 1_555 1_555
H26 O4 1_555 1_555
O1 C1 1_555 1_555
O2 C17 1_555 1_555
O3 C12 1_555 1_555
O4 C16 1_555 1_555
C5 C6 1_555 1_555
C11 C12 1_555 1_555
C17 O1 1_555 1_555
C18 O2 1_555 1_555

#END
