
#######################################################################
#
#                 Cambridge Crystallographic Data Centre
#                                CCDC 
#
#######################################################################
#
# If this CIF has been generated from an entry in the Cambridge 
# Structural Database, then it will include bibliographic, chemical, 
# crystal, experimental, refinement or atomic coordinate data resulting 
# from the CCDC's data processing and validation procedures.
#
#######################################################################

data_NOYPUM
_chemical_formula_moiety         'C14 H19 Br1 O4'
_chemical_name_systematic        
6\a-Bromoacetoxy-5-(1',2'-ethylenedioxy)-1-methyl-3,3a\a,4,5,6,7-hexahydro(2H)indene
_symmetry_cell_setting           triclinic
_symmetry_space_group_name_H-M   'P -1'
_symmetry_Int_Tables_number      2
_space_group_name_Hall           '-P 1'
loop_
_symmetry_equiv_pos_site_id
_symmetry_equiv_pos_as_xyz
1 x,y,z
2 -x,-y,-z
_cell_length_a                   7.432(1)
_cell_length_b                   8.911(2)
_cell_length_c                   11.773(2)
_cell_angle_alpha                108.51(2)
_cell_angle_beta                 100.12(1)
_cell_angle_gamma                96.79(2)
_cell_volume                     715.091
_cell_formula_units_Z            2
loop_
_atom_site_label
_atom_site_type_symbol
_atom_site_fract_x
_atom_site_fract_y
_atom_site_fract_z
Br1 Br 0.96726(7) 0.30828(6) 0.66811(4)
O1 O 0.2570(4) 0.0755(3) 0.3058(2)
O2 O 0.2650(4) 0.3350(3) 0.3118(2)
O3 O 0.6033(4) 0.2744(3) 0.4154(2)
O4 O 0.6725(4) 0.0357(4) 0.4167(2)
C1 C 0.8105(7) 0.3395(6) 0.0084(5)
C2 C 0.6100(6) 0.2968(4) 0.0062(3)
C3 C 0.4649(7) 0.2582(5) -0.1092(4)
C4 C 0.2871(7) 0.1882(6) -0.0795(4)
C5 C 0.3241(5) 0.2531(5) 0.0619(3)
C6 C 0.5320(5) 0.2954(4) 0.1000(3)
C7 C 0.6224(6) 0.3364(4) 0.2329(3)
C8 C 0.5364(5) 0.2141(4) 0.2828(3)
C9 C 0.3248(5) 0.1897(4) 0.2549(3)
C10 C 0.2472(5) 0.1331(4) 0.1172(3)
C11 C 0.1280(7) 0.1390(6) 0.3734(5)
C12 C 0.1833(7) 0.3174(6) 0.4090(4)
C13 C 0.6597(5) 0.1709(4) 0.4689(3)
C14 C 0.7016(6) 0.2479(5) 0.6066(3)
H1 H 0.8895 0.3615 0.0938
H2 H 0.8365 0.4391 -0.0133
H3 H 0.8529 0.2492 -0.0509
H4 H 0.4507 0.3584 -0.1298
H5 H 0.4989 0.1782 -0.1807
H6 H 0.1734 0.2227 -0.1168
H7 H 0.2635 0.0663 -0.1102
H8 H 0.2647 0.3509 0.0916
H9 H 0.7605 0.3404 0.2441
H10 H 0.6028 0.4478 0.2819
H11 H 0.5753 0.1062 0.2480
H12 H 0.2807 0.0245 0.0779
H13 H 0.1065 0.1173 0.1007
H14 H 0.1306 0.1045 0.4472
H15 H -0.0044 0.1009 0.3205
H16 H 0.2769 0.3654 0.4919
H17 H 0.0739 0.3752 0.4175
H18 H 0.6474 0.1706 0.6434
H19 H 0.6418 0.3465 0.6291
loop_
_geom_bond_atom_site_label_1
_geom_bond_atom_site_label_2
_geom_bond_site_symmetry_1
_geom_bond_site_symmetry_2
Br1 C14 1_555 1_555
O1 C9 1_555 1_555
O2 C9 1_555 1_555
O3 C8 1_555 1_555
O4 C13 1_555 1_555
C1 C2 1_555 1_555
C2 C3 1_555 1_555
C3 C4 1_555 1_555
C4 C5 1_555 1_555
C5 C6 1_555 1_555
C6 C2 1_555 1_555
C7 C6 1_555 1_555
C8 C7 1_555 1_555
C9 C8 1_555 1_555
C10 C5 1_555 1_555
C11 O1 1_555 1_555
C12 O2 1_555 1_555
C13 O3 1_555 1_555
C14 C13 1_555 1_555
H1 C1 1_555 1_555
H2 C1 1_555 1_555
H3 C1 1_555 1_555
H4 C3 1_555 1_555
H5 C3 1_555 1_555
H6 C4 1_555 1_555
H7 C4 1_555 1_555
H8 C5 1_555 1_555
H9 C7 1_555 1_555
H10 C7 1_555 1_555
H11 C8 1_555 1_555
H12 C10 1_555 1_555
H13 C10 1_555 1_555
H14 C11 1_555 1_555
H15 C11 1_555 1_555
H16 C12 1_555 1_555
H17 C12 1_555 1_555
H18 C14 1_555 1_555
H19 C14 1_555 1_555
C9 C10 1_555 1_555
C11 C12 1_555 1_555

#END
