
#######################################################################
#
#                 Cambridge Crystallographic Data Centre
#                                CCDC 
#
#######################################################################
#
# If this CIF has been generated from an entry in the Cambridge 
# Structural Database, then it will include bibliographic, chemical, 
# crystal, experimental, refinement or atomic coordinate data resulting 
# from the CCDC's data processing and validation procedures.
#
#######################################################################

data_NOYVUS
_chemical_formula_moiety         'C16 H18 O6'
_chemical_name_systematic        
"(1R*,2S*)-(+-)-Dimethyl 5,5'-(2''-oxaprop-3''-yl-1''-ylidene)-2'-oxobicyclopent-1'-ene-1,2-dicarboxylate"
_symmetry_cell_setting           monoclinic
_symmetry_space_group_name_H-M   'P 21/c'
_symmetry_Int_Tables_number      14
_space_group_name_Hall           '-P 2ybc'
loop_
_symmetry_equiv_pos_site_id
_symmetry_equiv_pos_as_xyz
1 x,y,z
2 -x,1/2+y,1/2-z
3 -x,-y,-z
4 x,1/2-y,1/2+z
_cell_length_a                   12.686(1)
_cell_length_b                   9.658(1)
_cell_length_c                   12.381(1)
_cell_angle_alpha                90.00
_cell_angle_beta                 98.24(1)
_cell_angle_gamma                90.00
_cell_volume                     1501.28
_exptl_crystal_colour            colorless
_exptl_crystal_description       prism
_cell_formula_units_Z            4
_exptl_crystal_recrystallization_method acetone/n-pentane
loop_
_atom_site_label
_atom_site_type_symbol
_atom_site_fract_x
_atom_site_fract_y
_atom_site_fract_z
O1 O 0.89867(12) 0.33340(17) 0.10851(13)
C1 C 0.90896(15) 0.26191(20) 0.18964(16)
C2 C 1.00267(17) 0.26902(25) 0.28008(18)
H1 H 1.06811(17) 0.24812(25) 0.25305(18)
H2 H 1.00721(17) 0.35960(25) 0.31234(18)
C3 C 0.97930(18) 0.16058(24) 0.36365(18)
H3 H 0.97113(18) 0.20292(24) 0.43211(18)
H4 H 1.03497(18) 0.09256(24) 0.37493(18)
C4 C 0.73159(15) 0.11981(19) 0.14597(16)
C5 C 0.67517(16) 0.24589(21) 0.08063(18)
H5 H 0.70474(16) 0.26249(21) 0.01465(18)
C6 C 0.55588(18) 0.20450(28) 0.06472(23)
H6 H 0.54000(18) 0.14032(28) 0.00541(23)
H7 H 0.51119(18) 0.28465(28) 0.05121(23)
C7 C 0.54087(19) 0.13605(29) 0.17167(25)
H8 H 0.48306(19) 0.07102(29) 0.16170(25)
H9 H 0.52768(19) 0.20448(29) 0.22436(25)
C8 C 0.64509(17) 0.06320(24) 0.20767(19)
C9 C 0.66034(20) -0.03870(25) 0.27947(20)
H10 H 0.60167(20) -0.06819(25) 0.31494(20)
O2 O 0.75738(14) -0.10412(16) 0.30739(14)
C10 C 0.83478(19) -0.02096(23) 0.37275(18)
H11 H 0.80240(19) 0.01696(23) 0.43171(18)
H12 H 0.89354(19) -0.07901(23) 0.40166(18)
C11 C 0.87636(16) 0.09614(20) 0.31272(15)
C12 C 0.83514(15) 0.15373(18) 0.21763(15)
C13 C 0.74884(17) 0.01299(21) 0.05771(17)
O3 O 0.68231(15) -0.06434(19) 0.01514(16)
O4 O 0.84623(13) 0.01898(18) 0.02959(13)
C14 C 0.86185(23) -0.07247(30) -0.06020(21)
H13 H 0.93344(23) -0.06265(30) -0.07582(21)
H14 H 0.81267(23) -0.04837(30) -0.12375(21)
H15 H 0.84998(23) -0.16663(30) -0.04022(21)
C15 C 0.68690(16) 0.37890(21) 0.14643(18)
O5 O 0.69769(15) 0.38722(17) 0.24309(14)
O6 O 0.67548(14) 0.48762(16) 0.07831(15)
C16 C 0.68319(25) 0.62190(24) 0.12977(27)
H16 H 0.67474(25) 0.69390(24) 0.07576(27)
H17 H 0.75170(25) 0.63043(24) 0.17361(27)
H18 H 0.62839(25) 0.62999(24) 0.17543(27)
loop_
_geom_bond_atom_site_label_1
_geom_bond_atom_site_label_2
_geom_bond_site_symmetry_1
_geom_bond_site_symmetry_2
O1 C1 1_555 1_555
C1 C2 1_555 1_555
C2 H1 1_555 1_555
H2 C2 1_555 1_555
C3 C2 1_555 1_555
H3 C3 1_555 1_555
H4 C3 1_555 1_555
C4 C5 1_555 1_555
C5 H5 1_555 1_555
C6 C5 1_555 1_555
H6 C6 1_555 1_555
H7 C6 1_555 1_555
C7 C6 1_555 1_555
H8 C7 1_555 1_555
H9 C7 1_555 1_555
C8 C4 1_555 1_555
C9 C8 1_555 1_555
H10 C9 1_555 1_555
O2 C9 1_555 1_555
C10 O2 1_555 1_555
H11 C10 1_555 1_555
H12 C10 1_555 1_555
C11 C3 1_555 1_555
C12 C1 1_555 1_555
C13 C4 1_555 1_555
O3 C13 1_555 1_555
O4 C13 1_555 1_555
C14 O4 1_555 1_555
H13 C14 1_555 1_555
H14 C14 1_555 1_555
H15 C14 1_555 1_555
C15 C5 1_555 1_555
O5 C15 1_555 1_555
O6 C15 1_555 1_555
C16 O6 1_555 1_555
H16 C16 1_555 1_555
H17 C16 1_555 1_555
H18 C16 1_555 1_555
C4 C12 1_555 1_555
C7 C8 1_555 1_555
C10 C11 1_555 1_555
C11 C12 1_555 1_555

#END
