
#######################################################################
#
#                 Cambridge Crystallographic Data Centre
#                                CCDC 
#
#######################################################################
#
# If this CIF has been generated from an entry in the Cambridge 
# Structural Database, then it will include bibliographic, chemical, 
# crystal, experimental, refinement or atomic coordinate data resulting 
# from the CCDC's data processing and validation procedures.
#
#######################################################################

data_NUBYOZ
_chemical_name_common            
'(E)-Ethyl 2-benzoyl-3-(2-(cyclopropylethynyl)-4,5-dimethoxyphenyl)acrylate'
_chemical_formula_moiety         'C25 H24 O5'
_chemical_name_systematic        
(E)-2-(2-(Cyclopropylethynyl)-4,5-dimethoxybenzylidene)-1-ethoxy-3-phenylpropane-1,3-dione
_symmetry_cell_setting           triclinic
_symmetry_space_group_name_H-M   'P -1'
_symmetry_Int_Tables_number      2
_space_group_name_Hall           '-P 1'
loop_
_symmetry_equiv_pos_site_id
_symmetry_equiv_pos_as_xyz
1 x,y,z
2 -x,-y,-z
_cell_length_a                   9.5609(3)
_cell_length_b                   10.2805(3)
_cell_length_c                   11.3087(3)
_cell_angle_alpha                71.298(1)
_cell_angle_beta                 86.903(1)
_cell_angle_gamma                83.421(1)
_cell_volume                     1045.74
_exptl_crystal_colour            colorless
_exptl_crystal_description       block
_chemical_melting_point          '95-97 deg.C'
_cell_formula_units_Z            2
loop_
_atom_site_label
_atom_site_type_symbol
_atom_site_fract_x
_atom_site_fract_y
_atom_site_fract_z
O1 O 0.87245(10) 0.82136(10) 0.13355(10)
O2 O 0.65557(9) 0.91943(9) 0.15700(9)
O3 O 0.88118(10) 0.50869(10) 0.31940(8)
O4 O 0.50234(9) 0.17289(9) 0.44663(9)
O5 O 0.24114(9) 0.22727(9) 0.49697(9)
C1 C 0.21021(16) 1.09517(14) 0.24053(16)
H1 H 0.3036 1.0754 0.2798
H2 H 0.1977 1.1821 0.1698
C2 C 0.08683(15) 1.05303(13) 0.32209(14)
H3 H -0.0027 1.1137 0.3023
H4 H 0.1032 1.0069 0.4123
C3 C 0.13894(14) 0.97462(13) 0.23383(13)
H5 H 0.0801 0.9930 0.1586
C4 C 0.20890(13) 0.83646(13) 0.28094(12)
C5 C 0.26693(12) 0.72205(12) 0.31635(11)
C6 C 0.33518(12) 0.58276(12) 0.35266(11)
C7 C 0.25295(13) 0.47424(12) 0.40824(11)
H6 H 0.1556 0.4941 0.4241
C8 C 0.31119(13) 0.33868(12) 0.44031(11)
C9 C 0.45552(13) 0.30960(12) 0.41448(11)
C10 C 0.53708(13) 0.41617(12) 0.36171(11)
H7 H 0.6345 0.3955 0.3468
C11 C 0.47988(12) 0.55515(12) 0.32927(10)
C12 C 0.56080(12) 0.67166(12) 0.27223(11)
H8 H 0.5107 0.7592 0.2646
C13 C 0.69413(12) 0.67703(12) 0.22847(11)
C14 C 0.80053(12) 0.55500(12) 0.23273(11)
C15 C 0.80581(12) 0.49691(11) 0.12797(11)
C16 C 0.71718(13) 0.55168(13) 0.02682(12)
H9 H 0.6465 0.6249 0.0258
C17 C 0.73160(15) 0.49983(14) -0.07267(12)
H10 H 0.6714 0.5381 -0.1422
C18 C 0.83359(15) 0.39239(14) -0.07078(12)
H11 H 0.8443 0.3578 -0.1395
C19 C 0.92003(14) 0.33529(13) 0.03094(12)
H12 H 0.9884 0.2600 0.0328
C20 C 0.90738(13) 0.38715(12) 0.12973(12)
H13 H 0.9677 0.3483 0.1991
C21 C 0.75192(13) 0.81100(12) 0.16942(11)
C22 C 0.70260(15) 1.05460(13) 0.09867(15)
H14 H 0.7486 1.0604 0.0168
H15 H 0.7708 1.0737 0.1523
C23 C 0.57364(17) 1.15585(15) 0.08218(19)
H16 H 0.6000 1.2496 0.0422
H17 H 0.5297 1.1492 0.1640
H18 H 0.5069 1.1350 0.0296
C24 C 0.64699(14) 0.13741(14) 0.42212(14)
H19 H 0.6675 0.0367 0.4497
H20 H 0.7060 0.1767 0.4675
H21 H 0.6670 0.1744 0.3323
C25 C 0.09558(14) 0.25309(13) 0.52760(13)
H22 H 0.0566 0.1651 0.5683
H23 H 0.0439 0.3034 0.4511
H24 H 0.0866 0.3085 0.5844
loop_
_geom_bond_atom_site_label_1
_geom_bond_atom_site_label_2
_geom_bond_site_symmetry_1
_geom_bond_site_symmetry_2
O1 C21 1_555 1_555
O2 C21 1_555 1_555
O3 C14 1_555 1_555
O4 C9 1_555 1_555
O5 C8 1_555 1_555
C1 H1 1_555 1_555
H2 C1 1_555 1_555
C2 C1 1_555 1_555
H3 C2 1_555 1_555
H4 C2 1_555 1_555
C3 C1 1_555 1_555
H5 C3 1_555 1_555
C4 C3 1_555 1_555
C5 C4 1_555 1_555
C6 C5 1_555 1_555
C7 C6 1_555 1_555
H6 C7 1_555 1_555
C8 C7 1_555 1_555
C9 C8 1_555 1_555
C10 C9 1_555 1_555
H7 C10 1_555 1_555
C11 C6 1_555 1_555
C12 C11 1_555 1_555
H8 C12 1_555 1_555
C13 C12 1_555 1_555
C14 C13 1_555 1_555
C15 C14 1_555 1_555
C16 C15 1_555 1_555
H9 C16 1_555 1_555
C17 C16 1_555 1_555
H10 C17 1_555 1_555
C18 C17 1_555 1_555
H11 C18 1_555 1_555
C19 C18 1_555 1_555
H12 C19 1_555 1_555
C20 C15 1_555 1_555
H13 C20 1_555 1_555
C21 C13 1_555 1_555
C22 O2 1_555 1_555
H14 C22 1_555 1_555
H15 C22 1_555 1_555
C23 C22 1_555 1_555
H16 C23 1_555 1_555
H17 C23 1_555 1_555
H18 C23 1_555 1_555
C24 O4 1_555 1_555
H19 C24 1_555 1_555
H20 C24 1_555 1_555
H21 C24 1_555 1_555
C25 O5 1_555 1_555
H22 C25 1_555 1_555
H23 C25 1_555 1_555
H24 C25 1_555 1_555
C2 C3 1_555 1_555
C10 C11 1_555 1_555
C19 C20 1_555 1_555

#END
