
#######################################################################
#
#                 Cambridge Crystallographic Data Centre
#                                CCDC 
#
#######################################################################
#
# If this CIF has been generated from an entry in the Cambridge 
# Structural Database, then it will include bibliographic, chemical, 
# crystal, experimental, refinement or atomic coordinate data resulting 
# from the CCDC's data processing and validation procedures.
#
#######################################################################

data_NUCKAY
_chemical_formula_moiety         'C30 H50 B2 N2 O2 Si4'
_chemical_name_systematic        
1,1'-bis(bis(Trimethylsilyl)ammonio)-3,3'-bis(4-methoxyphenyl)-1H,1'H-2,2'-biboriren-1,1'-diide
_symmetry_cell_setting           triclinic
_symmetry_space_group_name_H-M   'P -1'
_symmetry_Int_Tables_number      2
_space_group_name_Hall           '-P 1'
loop_
_symmetry_equiv_pos_site_id
_symmetry_equiv_pos_as_xyz
1 x,y,z
2 -x,-y,-z
_cell_length_a                   9.5049(11)
_cell_length_b                   13.4023(14)
_cell_length_c                   15.0311(18)
_cell_angle_alpha                81.229(5)
_cell_angle_beta                 72.047(5)
_cell_angle_gamma                79.572(5)
_cell_volume                     1781.86
_exptl_crystal_colour            'light yellow'
_exptl_crystal_description       plate
_cell_formula_units_Z            2
_chemical_properties_physical    'air- and moisture-sensitive'
_exptl_crystal_recrystallization_method hexane
loop_
_atom_site_label
_atom_site_type_symbol
_atom_site_fract_x
_atom_site_fract_y
_atom_site_fract_z
Si1 Si 0.76672(4) 0.55659(3) 0.15432(3)
N1 N 0.74518(12) 0.42682(8) 0.17915(8)
C1 C 0.94687(14) 0.36003(9) 0.28717(9)
B1 B 0.83821(16) 0.37039(10) 0.23255(10)
Si2 Si 0.61583(4) 0.36640(3) 0.15292(3)
N2 N 1.09233(13) -0.01230(8) 0.23229(8)
B2 B 0.98782(17) 0.05616(10) 0.29245(11)
C2 C 0.90001(14) 0.27223(9) 0.27867(9)
Si3 Si 1.12513(4) -0.14261(3) 0.26889(3)
C3 C 0.92275(15) 0.16536(9) 0.30451(9)
Si4 Si 1.18053(4) 0.05111(3) 0.12324(3)
C4 C 0.86156(15) 0.09226(9) 0.37250(10)
C5 C 1.04470(14) 0.38719(9) 0.33478(9)
C6 C 1.04796(15) 0.48909(10) 0.34285(10)
H1 H 0.9881 0.5412 0.3149
C7 C 1.13703(15) 0.51606(10) 0.39101(10)
H2 H 1.1373 0.5858 0.3960
C8 C 1.22518(15) 0.44042(10) 0.43154(9)
C9 C 1.22366(16) 0.33805(10) 0.42411(10)
H3 H 1.2843 0.2862 0.4518
C10 C 1.13431(15) 0.31206(10) 0.37667(10)
H4 H 1.1336 0.2422 0.3724
O1 O 1.31649(12) 0.45819(8) 0.48020(8)
C11 C 1.31910(17) 0.56209(11) 0.48991(11)
H5 H 1.3882 0.5651 0.5259
H6 H 1.2186 0.5932 0.5230
H7 H 1.3524 0.5993 0.4275
C12 C 0.73368(16) 0.09482(10) 0.45670(9)
C13 C 0.69746(18) 0.00824(10) 0.51873(11)
H8 H 0.7597 -0.0551 0.5069
C14 C 0.57302(18) 0.01203(11) 0.59727(11)
H9 H 0.5513 -0.0478 0.6387
C15 C 0.48055(16) 0.10433(10) 0.61457(10)
C16 C 0.51389(16) 0.19210(10) 0.55364(10)
H10 H 0.4508 0.2552 0.5654
C17 C 0.63833(16) 0.18704(9) 0.47648(9)
H11 H 0.6602 0.2473 0.4357
O2 O 0.35545(12) 0.11751(8) 0.68936(7)
C18 C 0.32269(19) 0.03157(12) 0.75662(11)
H12 H 0.2310 0.0507 0.8064
H13 H 0.4057 0.0086 0.7841
H14 H 0.3089 -0.0237 0.7257
C19 C 0.67813(17) 0.61958(11) 0.26424(11)
H15 H 0.5720 0.6118 0.2872
H16 H 0.6882 0.6923 0.2514
H17 H 0.7275 0.5879 0.3121
C20 C 0.96890(18) 0.56989(12) 0.10857(11)
H18 H 1.0199 0.5366 0.1552
H19 H 0.9802 0.6424 0.0965
H20 H 1.0130 0.5377 0.0500
C21 C 0.6782(2) 0.62156(12) 0.06224(12)
H21 H 0.5712 0.6163 0.0836
H22 H 0.7248 0.5890 0.0040
H23 H 0.6920 0.6936 0.0506
C22 C 0.43342(17) 0.45009(13) 0.16708(12)
H24 H 0.3956 0.4701 0.2312
H25 H 0.3619 0.4131 0.1554
H26 H 0.4466 0.5112 0.1221
C23 C 0.68777(17) 0.32841(13) 0.03116(11)
H27 H 0.7061 0.3892 -0.0137
H28 H 0.6138 0.2947 0.0183
H29 H 0.7813 0.2813 0.0247
C24 C 0.58286(19) 0.24886(12) 0.23511(13)
H30 H 0.5448 0.2668 0.2999
H31 H 0.6769 0.2022 0.2276
H32 H 0.5095 0.2156 0.2212
C25 C 1.0395(3) -0.16410(12) 0.39791(12)
H33 H 0.9320 -0.1401 0.4132
H34 H 1.0853 -0.1264 0.4300
H35 H 1.0562 -0.2371 0.4186
C26 C 1.3294(2) -0.18884(14) 0.24188(15)
H36 H 1.3762 -0.1780 0.1739
H37 H 1.3452 -0.2618 0.2631
H38 H 1.3744 -0.1511 0.2744
C27 C 1.0432(2) -0.21861(12) 0.20943(13)
H39 H 0.9356 -0.1954 0.2228
H40 H 1.0602 -0.2909 0.2326
H41 H 1.0906 -0.2097 0.1414
C28 C 1.30147(19) -0.04015(13) 0.03904(12)
H42 H 1.3787 -0.0804 0.0655
H43 H 1.3489 -0.0021 -0.0205
H44 H 1.2403 -0.0858 0.0279
C29 C 1.03719(18) 0.12453(13) 0.06795(11)
H45 H 0.9711 0.1736 0.1101
H46 H 0.9783 0.0775 0.0566
H47 H 1.0869 0.1612 0.0081
C30 C 1.29706(18) 0.13917(12) 0.14165(12)
H48 H 1.2342 0.1873 0.1858
H49 H 1.3427 0.1769 0.0815
H50 H 1.3757 0.0997 0.1674
loop_
_geom_bond_atom_site_label_1
_geom_bond_atom_site_label_2
_geom_bond_site_symmetry_1
_geom_bond_site_symmetry_2
Si1 N1 1_555 1_555
N1 B1 1_555 1_555
C1 B1 1_555 1_555
B1 C2 1_555 1_555
Si2 N1 1_555 1_555
N2 B2 1_555 1_555
B2 C3 1_555 1_555
C2 C1 1_555 1_555
Si3 N2 1_555 1_555
C3 C2 1_555 1_555
Si4 N2 1_555 1_555
C4 B2 1_555 1_555
C5 C1 1_555 1_555
C6 C5 1_555 1_555
H1 C6 1_555 1_555
C7 C6 1_555 1_555
H2 C7 1_555 1_555
C8 C7 1_555 1_555
C9 C8 1_555 1_555
H3 C9 1_555 1_555
C10 C5 1_555 1_555
H4 C10 1_555 1_555
O1 C8 1_555 1_555
C11 O1 1_555 1_555
H5 C11 1_555 1_555
H6 C11 1_555 1_555
H7 C11 1_555 1_555
C12 C4 1_555 1_555
C13 C12 1_555 1_555
H8 C13 1_555 1_555
C14 C13 1_555 1_555
H9 C14 1_555 1_555
C15 C14 1_555 1_555
C16 C15 1_555 1_555
H10 C16 1_555 1_555
C17 C12 1_555 1_555
H11 C17 1_555 1_555
O2 C15 1_555 1_555
C18 O2 1_555 1_555
H12 C18 1_555 1_555
H13 C18 1_555 1_555
H14 C18 1_555 1_555
C19 Si1 1_555 1_555
H15 C19 1_555 1_555
H16 C19 1_555 1_555
H17 C19 1_555 1_555
C20 Si1 1_555 1_555
H18 C20 1_555 1_555
H19 C20 1_555 1_555
H20 C20 1_555 1_555
C21 Si1 1_555 1_555
H21 C21 1_555 1_555
H22 C21 1_555 1_555
H23 C21 1_555 1_555
C22 Si2 1_555 1_555
H24 C22 1_555 1_555
H25 C22 1_555 1_555
H26 C22 1_555 1_555
C23 Si2 1_555 1_555
H27 C23 1_555 1_555
H28 C23 1_555 1_555
H29 C23 1_555 1_555
C24 Si2 1_555 1_555
H30 C24 1_555 1_555
H31 C24 1_555 1_555
H32 C24 1_555 1_555
C25 Si3 1_555 1_555
H33 C25 1_555 1_555
H34 C25 1_555 1_555
H35 C25 1_555 1_555
C26 Si3 1_555 1_555
H36 C26 1_555 1_555
H37 C26 1_555 1_555
H38 C26 1_555 1_555
C27 Si3 1_555 1_555
H39 C27 1_555 1_555
H40 C27 1_555 1_555
H41 C27 1_555 1_555
C28 Si4 1_555 1_555
H42 C28 1_555 1_555
H43 C28 1_555 1_555
H44 C28 1_555 1_555
C29 Si4 1_555 1_555
H45 C29 1_555 1_555
H46 C29 1_555 1_555
H47 C29 1_555 1_555
C30 Si4 1_555 1_555
H48 C30 1_555 1_555
H49 C30 1_555 1_555
H50 C30 1_555 1_555
C3 C4 1_555 1_555
C9 C10 1_555 1_555
C16 C17 1_555 1_555

#END
