
#######################################################################
#
#                 Cambridge Crystallographic Data Centre
#                                CCDC 
#
#######################################################################
#
# If this CIF has been generated from an entry in the Cambridge 
# Structural Database, then it will include bibliographic, chemical, 
# crystal, experimental, refinement or atomic coordinate data resulting 
# from the CCDC's data processing and validation procedures.
#
#######################################################################

data_NUDCEW
_chemical_formula_moiety         'C20 H16 Cl1 F3 N2 O2'
_chemical_name_systematic        
6-chloro-1-methyl-2-oxo-4'-phenyl-5'-(trifluoromethyl)-1,2-dihydrospiro[indole-3,2'-pyrrolidine]-3'-carbaldehyde
_symmetry_cell_setting           monoclinic
_symmetry_space_group_name_H-M   'P 21'
_symmetry_Int_Tables_number      4
_space_group_name_Hall           'P 2yb'
loop_
_symmetry_equiv_pos_site_id
_symmetry_equiv_pos_as_xyz
1 x,y,z
2 -x,1/2+y,-z
_cell_length_a                   10.4449(8)
_cell_length_b                   7.9864(6)
_cell_length_c                   11.2224(9)
_cell_angle_alpha                90
_cell_angle_beta                 93.069(7)
_cell_angle_gamma                90
_cell_volume                     934.798
_exptl_crystal_colour            colorless
_exptl_crystal_description       block
_cell_formula_units_Z            2
loop_
_atom_site_label
_atom_site_type_symbol
_atom_site_fract_x
_atom_site_fract_y
_atom_site_fract_z
Cl1 Cl -0.91912(11) -0.92266(16) -0.28369(10)
F1 F -0.11198(19) -0.5269(3) -0.2633(2)
F2 F -0.1244(2) -0.4301(4) -0.43951(18)
F3 F -0.0623(2) -0.2729(3) -0.2936(3)
O1 O -0.5404(2) -0.1718(3) -0.4268(2)
O2 O -0.4352(3) -0.4979(5) -0.0076(2)
N1 N -0.3716(2) -0.4687(4) -0.3479(3)
N2 N -0.6921(2) -0.3790(4) -0.4139(3)
C1 C -0.7008(3) -0.5343(4) -0.3565(3)
C2 C -0.8040(3) -0.6412(5) -0.3578(3)
H1 H -0.8809 -0.6151 -0.3992
C3 C -0.7883(3) -0.7898(5) -0.2945(3)
C4 C -0.6744(3) -0.8317(5) -0.2357(3)
H2 H -0.6659 -0.9338 -0.1963
C5 C -0.5724(4) -0.7218(5) -0.2351(3)
H3 H -0.4950 -0.7496 -0.1953
C6 C -0.5857(3) -0.5706(4) -0.2937(3)
C7 C -0.4961(3) -0.4249(5) -0.3036(3)
C8 C -0.5750(3) -0.3073(5) -0.3893(3)
C9 C -0.7914(3) -0.3085(6) -0.4947(4)
H4 H -0.8341 -0.3971 -0.5390
H5 H -0.7534 -0.2327 -0.5489
H6 H -0.8525 -0.2493 -0.4495
C10 C -0.4583(3) -0.3269(5) -0.1844(3)
H7 H -0.4980 -0.2157 -0.1880
C11 C -0.3117(3) -0.3074(4) -0.1817(3)
H8 H -0.2743 -0.4006 -0.1350
C12 C -0.2814(3) -0.3361(4) -0.3131(3)
H9 H -0.2998 -0.2349 -0.3603
C13 C -0.1464(3) -0.3913(5) -0.3261(3)
C14 C -0.5030(4) -0.4197(7) -0.0756(3)
H10 H -0.5898 -0.4149 -0.0613
C15 C -0.2601(3) -0.1467(4) -0.1266(3)
C16 C -0.2867(3) 0.0062(5) -0.1781(3)
H11 H -0.3391 0.0117 -0.2477
C17 C -0.2368(4) 0.1519(6) -0.1282(5)
H12 H -0.2559 0.2545 -0.1641
C18 C -0.1591(4) 0.1460(7) -0.0257(5)
H13 H -0.1249 0.2439 0.0077
C19 C -0.1327(4) -0.0053(8) 0.0268(4)
H14 H -0.0808 -0.0100 0.0967
C20 C -0.1826(3) -0.1527(6) -0.0231(3)
H15 H -0.1637 -0.2550 0.0133
H16 H -0.381(3) -0.481(4) -0.420(3)
loop_
_geom_bond_atom_site_label_1
_geom_bond_atom_site_label_2
_geom_bond_site_symmetry_1
_geom_bond_site_symmetry_2
Cl1 C3 1_555 1_555
F1 C13 1_555 1_555
F2 C13 1_555 1_555
F3 C13 1_555 1_555
O1 C8 1_555 1_555
O2 C14 1_555 1_555
N1 C7 1_555 1_555
N2 C1 1_555 1_555
C1 C2 1_555 1_555
C2 H1 1_555 1_555
C3 C2 1_555 1_555
C4 C3 1_555 1_555
H2 C4 1_555 1_555
C5 C4 1_555 1_555
H3 C5 1_555 1_555
C6 C1 1_555 1_555
C7 C6 1_555 1_555
C8 N2 1_555 1_555
C9 N2 1_555 1_555
H4 C9 1_555 1_555
H5 C9 1_555 1_555
H6 C9 1_555 1_555
C10 C7 1_555 1_555
H7 C10 1_555 1_555
C11 C10 1_555 1_555
H8 C11 1_555 1_555
C12 N1 1_555 1_555
H9 C12 1_555 1_555
C13 C12 1_555 1_555
C14 C10 1_555 1_555
H10 C14 1_555 1_555
C15 C11 1_555 1_555
C16 C15 1_555 1_555
H11 C16 1_555 1_555
C17 C16 1_555 1_555
H12 C17 1_555 1_555
C18 C17 1_555 1_555
H13 C18 1_555 1_555
C19 C18 1_555 1_555
H14 C19 1_555 1_555
C20 C15 1_555 1_555
H15 C20 1_555 1_555
H16 N1 1_555 1_555
C5 C6 1_555 1_555
C7 C8 1_555 1_555
C11 C12 1_555 1_555
C19 C20 1_555 1_555

#END
