
#######################################################################
#
#                 Cambridge Crystallographic Data Centre
#                                CCDC 
#
#######################################################################
#
# If this CIF has been generated from an entry in the Cambridge 
# Structural Database, then it will include bibliographic, chemical, 
# crystal, experimental, refinement or atomic coordinate data resulting 
# from the CCDC's data processing and validation procedures.
#
#######################################################################

data_NUDNOR
_chemical_formula_moiety         'C21 H21 N1 O2 S1'
_chemical_name_systematic        
3-Methyl-3-(2-(3-oxocyclohex-1-en-1-yl)-1-(3-thienyl)ethyl)-1,3-dihydro-2H-indol-2-one
_symmetry_cell_setting           monoclinic
_symmetry_space_group_name_H-M   'P 21'
_symmetry_Int_Tables_number      4
_space_group_name_Hall           'P 2yb'
loop_
_symmetry_equiv_pos_site_id
_symmetry_equiv_pos_as_xyz
1 x,y,z
2 -x,1/2+y,-z
_cell_length_a                   10.213(3)
_cell_length_b                   6.716(2)
_cell_length_c                   13.726(4)
_cell_angle_alpha                90
_cell_angle_beta                 105.427(4)
_cell_angle_gamma                90
_cell_volume                     907.552
_cell_formula_units_Z            2
loop_
_atom_site_label
_atom_site_type_symbol
_atom_site_fract_x
_atom_site_fract_y
_atom_site_fract_z
S1 S 0.3547(2) 1.0420(3) 0.46013(13)
N1 N 0.1681(4) 0.4143(6) 0.8276(3)
H1 H 0.122(6) 0.402(10) 0.880(4)
O1 O -0.0175(3) 0.5027(6) 0.6997(2)
O2 O -0.0317(5) 0.8372(8) 1.0226(3)
C1 C 0.1046(5) 0.4925(7) 0.7358(3)
C2 C 0.2135(5) 0.5654(7) 0.6853(3)
C3 C 0.3441(4) 0.5060(7) 0.7633(3)
C4 C 0.4779(5) 0.5134(9) 0.7633(4)
H2 H 0.5031 0.5721 0.7096
C5 C 0.5750(6) 0.4333(10) 0.8433(5)
H3 H 0.6660 0.4375 0.8430
C6 C 0.5391(6) 0.3466(11) 0.9239(5)
H4 H 0.6060 0.2938 0.9774
C7 C 0.4045(6) 0.3379(9) 0.9254(4)
H5 H 0.3795 0.2801 0.9793
C8 C 0.3094(5) 0.4168(7) 0.8453(3)
C9 C 0.1897(5) 0.7919(7) 0.6644(3)
H6 H 0.0967 0.8044 0.6212
C10 C 0.1943(5) 0.9146(7) 0.7602(3)
H7 H 0.2688 0.8650 0.8143
H8 H 0.2154 1.0514 0.7474
C11 C 0.0685(5) 0.9151(7) 0.7971(3)
C12 C 0.0733(5) 0.8728(9) 0.8928(3)
H9 H 0.1569 0.8383 0.9361
C13 C -0.0430(7) 0.8771(9) 0.9336(5)
C14 C -0.1764(7) 0.9325(12) 0.8628(6)
H10 H -0.2307 1.0015 0.9005
H11 H -0.2245 0.8119 0.8353
C15 C -0.1626(8) 1.0657(18) 0.7752(6)
H12 H -0.2502 1.0780 0.7261
H13 H -0.1335 1.1977 0.8006
C16 C -0.0615(5) 0.9802(9) 0.7248(4)
H14 H -0.1024 0.8668 0.6842
H15 H -0.0413 1.0794 0.6796
C17 C 0.2388(6) 0.9156(8) 0.5041(4)
H16 H 0.1559 0.8726 0.4631
C18 C 0.2797(5) 0.8831(7) 0.6060(3)
C19 C 0.4124(6) 0.9641(8) 0.6473(4)
H17 H 0.4574 0.9596 0.7157
C20 C 0.4694(5) 1.0534(9) 0.5724(4)
H18 H 0.5558 1.1083 0.5846
C21 C 0.1966(6) 0.4526(8) 0.5855(4)
H19 H 0.2683 0.4894 0.5559
H20 H 0.1105 0.4860 0.5399
H21 H 0.2002 0.3119 0.5982
H22? H -0.2484 0.8605 0.8816
H23? H -0.1922 1.0737 0.8695
C22? C -0.1824(16) 0.888(4) 0.7568(10)
H24? H -0.2667 0.9398 0.7136
H25? H -0.1821 0.7450 0.7476
H26? H -0.0637 0.9373 0.6569
H27? H -0.0680 1.1243 0.7249
loop_
_geom_bond_atom_site_label_1
_geom_bond_atom_site_label_2
_geom_bond_site_symmetry_1
_geom_bond_site_symmetry_2
S1 C17 1_555 1_555
N1 H1 1_555 1_555
O1 C1 1_555 1_555
O2 C13 1_555 1_555
C1 N1 1_555 1_555
C2 C1 1_555 1_555
C3 C2 1_555 1_555
C4 C3 1_555 1_555
H2 C4 1_555 1_555
C5 C4 1_555 1_555
H3 C5 1_555 1_555
C6 C5 1_555 1_555
H4 C6 1_555 1_555
C7 C6 1_555 1_555
H5 C7 1_555 1_555
C8 N1 1_555 1_555
C9 C2 1_555 1_555
H6 C9 1_555 1_555
C10 C9 1_555 1_555
H7 C10 1_555 1_555
H8 C10 1_555 1_555
C11 C10 1_555 1_555
C12 C11 1_555 1_555
H9 C12 1_555 1_555
C13 C12 1_555 1_555
C14 C13 1_555 1_555
H10 C14 1_555 1_555
H11 C14 1_555 1_555
C15 C14 1_555 1_555
H12 C15 1_555 1_555
H13 C15 1_555 1_555
C16 C11 1_555 1_555
H14 C16 1_555 1_555
H15 C16 1_555 1_555
C17 H16 1_555 1_555
C18 C9 1_555 1_555
C19 C18 1_555 1_555
H17 C19 1_555 1_555
C20 S1 1_555 1_555
H18 C20 1_555 1_555
C21 C2 1_555 1_555
H19 C21 1_555 1_555
H20 C21 1_555 1_555
H21 C21 1_555 1_555
C3 C8 1_555 1_555
C7 C8 1_555 1_555
C15 C16 1_555 1_555
C17 C18 1_555 1_555
C19 C20 1_555 1_555

#END
