
#######################################################################
#
#                 Cambridge Crystallographic Data Centre
#                                CCDC 
#
#######################################################################
#
# If this CIF has been generated from an entry in the Cambridge 
# Structural Database, then it will include bibliographic, chemical, 
# crystal, experimental, refinement or atomic coordinate data resulting 
# from the CCDC's data processing and validation procedures.
#
#######################################################################

data_NUDQAF
_chemical_formula_moiety         'C16 H18 F1 N3 O2,H2 O1'
_chemical_name_systematic        
'1-(3,5-Dimethylpiperazin-1-yl)-2-(4-fluoro-1H-indol-3-yl)ethane-1,2-dione monohydrate'
_symmetry_cell_setting           monoclinic
_symmetry_space_group_name_H-M   'P 21/c'
_symmetry_Int_Tables_number      14
_space_group_name_Hall           '-P 2ybc'
loop_
_symmetry_equiv_pos_site_id
_symmetry_equiv_pos_as_xyz
1 x,y,z
2 -x,1/2+y,1/2-z
3 -x,-y,-z
4 x,1/2-y,1/2+z
_cell_length_a                   8.7886(1)
_cell_length_b                   12.2014(2)
_cell_length_c                   15.5672(3)
_cell_angle_alpha                90
_cell_angle_beta                 98.449(1)
_cell_angle_gamma                90
_cell_volume                     1651.2
_exptl_crystal_colour            colorless
_exptl_crystal_description       prism
_cell_formula_units_Z            4
_exptl_crystal_recrystallization_method 'dichloromethane/ethyl acetate'
loop_
_atom_site_label
_atom_site_type_symbol
_atom_site_fract_x
_atom_site_fract_y
_atom_site_fract_z
O1 O 0.32690(19) 0.55887(11) 0.36329(10)
O2 O 0.20864(14) 0.47955(11) 0.17957(8)
N1 N 0.18255(17) 0.19793(13) 0.38363(10)
H1 H 0.156(2) 0.1246(18) 0.3690(12)
N2 N 0.45820(15) 0.43161(12) 0.21383(9)
N3 N 0.69571(16) 0.30171(13) 0.16921(9)
H2 H 0.737(2) 0.2413(16) 0.1588(11)
F1 F 0.21899(15) 0.53214(9) 0.52510(8)
C1 C 0.23622(19) 0.27173(14) 0.33182(11)
H3 H 0.2608 0.2564 0.2770
C2 C 0.15493(18) 0.24930(15) 0.45908(11)
C3 C 0.0927(2) 0.20523(18) 0.52821(13)
H4 H 0.0648 0.1318 0.5293
C4 C 0.0740(2) 0.2749(2) 0.59492(14)
H5 H 0.0318 0.2482 0.6421
C5 C 0.1166(2) 0.3846(2) 0.59383(13)
H6 H 0.1030 0.4302 0.6400
C6 C 0.1786(2) 0.42552(16) 0.52470(12)
C7 C 0.19850(18) 0.36003(14) 0.45415(11)
C8 C 0.25018(18) 0.37370(13) 0.37080(11)
C9 C 0.30346(19) 0.46907(14) 0.33013(11)
C10 C 0.32129(19) 0.45886(13) 0.23422(11)
C11 C 0.4840(2) 0.42432(15) 0.12361(11)
H7 H 0.5520 0.4830 0.1112
H8 H 0.3870 0.4329 0.0856
C12 C 0.55477(19) 0.31504(15) 0.10626(11)
H9 H 0.4824 0.2565 0.1153
C13 C 0.66284(19) 0.29879(14) 0.25910(11)
H10 H 0.5881 0.2405 0.2644
C14 C 0.59330(19) 0.40789(15) 0.27833(11)
H11 H 0.5635 0.4061 0.3359
H12 H 0.6692 0.4654 0.2773
C15 C 0.5932(2) 0.30661(18) 0.01493(12)
H13 H 0.6371 0.2360 0.0069
H14 H 0.6657 0.3628 0.0059
H15 H 0.5011 0.3157 -0.0260
C16 C 0.8095(2) 0.27500(17) 0.32060(12)
H16 H 0.8496 0.2051 0.3066
H17 H 0.7877 0.2738 0.3792
H18 H 0.8840 0.3310 0.3149
O3 O 0.1078(2) -0.01100(13) 0.33417(13)
H19 H 0.013(3) -0.019(2) 0.3263(15)
H20 H 0.159(3) -0.068(2) 0.3382(17)
loop_
_geom_bond_atom_site_label_1
_geom_bond_atom_site_label_2
_geom_bond_site_symmetry_1
_geom_bond_site_symmetry_2
O1 C9 1_555 1_555
O2 C10 1_555 1_555
N1 H1 1_555 1_555
N2 C10 1_555 1_555
N3 H2 1_555 1_555
F1 C6 1_555 1_555
C1 N1 1_555 1_555
H3 C1 1_555 1_555
C2 N1 1_555 1_555
C3 C2 1_555 1_555
H4 C3 1_555 1_555
C4 C3 1_555 1_555
H5 C4 1_555 1_555
C5 C4 1_555 1_555
H6 C5 1_555 1_555
C6 C5 1_555 1_555
C7 C2 1_555 1_555
C8 C1 1_555 1_555
C9 C8 1_555 1_555
C10 C9 1_555 1_555
C11 N2 1_555 1_555
H7 C11 1_555 1_555
H8 C11 1_555 1_555
C12 N3 1_555 1_555
H9 C12 1_555 1_555
C13 N3 1_555 1_555
H10 C13 1_555 1_555
C14 N2 1_555 1_555
H11 C14 1_555 1_555
H12 C14 1_555 1_555
C15 C12 1_555 1_555
H13 C15 1_555 1_555
H14 C15 1_555 1_555
H15 C15 1_555 1_555
C16 C13 1_555 1_555
H16 C16 1_555 1_555
H17 C16 1_555 1_555
H18 C16 1_555 1_555
O3 H19 1_555 1_555
H20 O3 1_555 1_555
C6 C7 1_555 1_555
C7 C8 1_555 1_555
C11 C12 1_555 1_555
C13 C14 1_555 1_555

#END
