
#######################################################################
#
#                 Cambridge Crystallographic Data Centre
#                                CCDC 
#
#######################################################################
#
# If this CIF has been generated from an entry in the Cambridge 
# Structural Database, then it will include bibliographic, chemical, 
# crystal, experimental, refinement or atomic coordinate data resulting 
# from the CCDC's data processing and validation procedures.
#
#######################################################################

data_NUDWEP
_chemical_formula_moiety         'C25 H24 F2 O6'
_chemical_name_systematic        
7,14-bis(4-Fluorophenyl)-11,11-dimethyl-1,4,10,12-tetraoxadispiro[4.2.5.2]pentadecane-9,13-dione
_symmetry_cell_setting           triclinic
_symmetry_space_group_name_H-M   'P -1'
_symmetry_Int_Tables_number      2
_space_group_name_Hall           '-P 1'
loop_
_symmetry_equiv_pos_site_id
_symmetry_equiv_pos_as_xyz
1 x,y,z
2 -x,-y,-z
_cell_length_a                   8.146(4)
_cell_length_b                   10.714(5)
_cell_length_c                   13.580(7)
_cell_angle_alpha                69.230(7)
_cell_angle_beta                 85.432(7)
_cell_angle_gamma                89.137(7)
_cell_volume                     1104.56
_exptl_crystal_colour            colorless
_exptl_crystal_description       prism
_cell_formula_units_Z            2
_exptl_crystal_recrystallization_method ethanol
loop_
_atom_site_label
_atom_site_type_symbol
_atom_site_fract_x
_atom_site_fract_y
_atom_site_fract_z
F1 F 0.2225(2) -0.55832(16) 0.80880(16)
F2 F -0.4492(2) 0.3844(2) 0.92709(16)
O1 O -0.2377(3) -0.0938(3) 0.77052(17)
O2 O -0.0465(3) -0.1034(3) 0.89750(16)
O3 O -0.1986(3) 0.0275(2) 0.60643(16)
O4 O 0.1784(2) 0.0146(2) 0.85765(16)
O5 O 0.2207(2) 0.2679(2) 0.47709(16)
O6 O 0.4326(3) 0.2993(2) 0.56250(16)
C1 C 0.0155(3) 0.0433(3) 0.7132(2)
C2 C -0.1477(3) -0.0066(3) 0.6921(2)
C3 C 0.0551(3) -0.0133(3) 0.8275(2)
C4 C -0.2064(4) -0.1416(3) 0.8792(2)
C5 C -0.2065(5) -0.2904(4) 0.9131(3)
H1 H -0.1857 -0.3283 0.9863
H2 H -0.1221 -0.3171 0.8714
H3 H -0.3118 -0.3213 0.9032
C6 C -0.3320(4) -0.0855(4) 0.9370(3)
H4 H -0.3126 -0.1166 1.0105
H5 H -0.4399 -0.1138 0.9291
H6 H -0.3247 0.0103 0.9085
C7 C 0.1539(3) -0.0009(3) 0.6429(2)
H7 H 0.1109 0.0187 0.5736
C8 C 0.3125(3) 0.0785(3) 0.6233(2)
H8 H 0.3873 0.0534 0.5744
H9 H 0.3639 0.0568 0.6892
C9 C 0.2843(4) 0.2287(3) 0.5779(2)
C10 C 0.1673(4) 0.2697(3) 0.6525(2)
H10 H 0.1508 0.3653 0.6228
H11 H 0.2165 0.2505 0.7190
C11 C 0.0019(3) 0.1989(3) 0.6735(2)
H12 H -0.0457 0.2253 0.6052
C12 C 0.1776(3) -0.1506(3) 0.6875(2)
C13 C 0.0832(3) -0.2327(3) 0.6541(2)
H13 H 0.0095 -0.1943 0.6031
C14 C 0.0961(4) -0.3695(3) 0.6948(2)
H14 H 0.0316 -0.4238 0.6726
C15 C 0.2065(4) -0.4233(3) 0.7689(2)
C16 C 0.3028(4) -0.3477(3) 0.8040(2)
H15 H 0.3766 -0.3873 0.8545
C17 C 0.2880(4) -0.2110(3) 0.7627(2)
H16 H 0.3534 -0.1579 0.7857
C18 C -0.1181(3) 0.2459(3) 0.7451(2)
C19 C -0.0775(3) 0.2540(3) 0.8398(2)
H17 H 0.0268 0.2284 0.8622
C20 C -0.1884(4) 0.2993(3) 0.9021(2)
H18 H -0.1598 0.3040 0.9656
C21 C -0.3405(4) 0.3367(3) 0.8676(3)
C22 C -0.3872(4) 0.3290(3) 0.7759(3)
H19 H -0.4922 0.3540 0.7546
C23 C -0.2745(4) 0.2828(3) 0.7149(2)
H20 H -0.3053 0.2768 0.6522
C24 C 0.3604(5) 0.2958(4) 0.4018(3)
H21 H 0.3406 0.3718 0.3390
H22 H 0.3867 0.2192 0.3814
C25 C 0.4959(5) 0.3257(4) 0.4579(3)
H23 H 0.5899 0.2698 0.4559
H24 H 0.5307 0.4185 0.4250
loop_
_geom_bond_atom_site_label_1
_geom_bond_atom_site_label_2
_geom_bond_site_symmetry_1
_geom_bond_site_symmetry_2
F1 C15 1_555 1_555
F2 C21 1_555 1_555
O1 C2 1_555 1_555
O2 C3 1_555 1_555
O3 C2 1_555 1_555
O4 C3 1_555 1_555
O5 C9 1_555 1_555
O6 C9 1_555 1_555
C1 C2 1_555 1_555
C3 C1 1_555 1_555
C4 O1 1_555 1_555
C5 C4 1_555 1_555
H1 C5 1_555 1_555
H2 C5 1_555 1_555
H3 C5 1_555 1_555
C6 C4 1_555 1_555
H4 C6 1_555 1_555
H5 C6 1_555 1_555
H6 C6 1_555 1_555
C7 C1 1_555 1_555
H7 C7 1_555 1_555
C8 C7 1_555 1_555
H8 C8 1_555 1_555
H9 C8 1_555 1_555
C9 C8 1_555 1_555
C10 C9 1_555 1_555
H10 C10 1_555 1_555
H11 C10 1_555 1_555
C11 C1 1_555 1_555
H12 C11 1_555 1_555
C12 C7 1_555 1_555
C13 C12 1_555 1_555
H13 C13 1_555 1_555
C14 C13 1_555 1_555
H14 C14 1_555 1_555
C15 C14 1_555 1_555
C16 C15 1_555 1_555
H15 C16 1_555 1_555
C17 C12 1_555 1_555
H16 C17 1_555 1_555
C18 C11 1_555 1_555
C19 C18 1_555 1_555
H17 C19 1_555 1_555
C20 C19 1_555 1_555
H18 C20 1_555 1_555
C21 C20 1_555 1_555
C22 C21 1_555 1_555
H19 C22 1_555 1_555
C23 C18 1_555 1_555
H20 C23 1_555 1_555
C24 O5 1_555 1_555
H21 C24 1_555 1_555
H22 C24 1_555 1_555
C25 O6 1_555 1_555
H23 C25 1_555 1_555
H24 C25 1_555 1_555
O2 C4 1_555 1_555
C10 C11 1_555 1_555
C16 C17 1_555 1_555
C22 C23 1_555 1_555
C24 C25 1_555 1_555

#END
