
#######################################################################
#
#                 Cambridge Crystallographic Data Centre
#                                CCDC 
#
#######################################################################
#
# If this CIF has been generated from an entry in the Cambridge 
# Structural Database, then it will include bibliographic, chemical, 
# crystal, experimental, refinement or atomic coordinate data resulting 
# from the CCDC's data processing and validation procedures.
#
#######################################################################

data_NUFWER
_chemical_formula_moiety         'C18 H28 N3 1+,Br1 1-'
_chemical_name_systematic        
'3-(2-(t-Butylamino)ethyl)-1-mesityl-1H-imidazol-3-ium bromide'
_symmetry_cell_setting           monoclinic
_symmetry_space_group_name_H-M   'P 21/n'
_symmetry_Int_Tables_number      14
_space_group_name_Hall           '-P 2yn'
loop_
_symmetry_equiv_pos_site_id
_symmetry_equiv_pos_as_xyz
1 x,y,z
2 1/2-x,1/2+y,1/2-z
3 -x,-y,-z
4 1/2+x,1/2-y,1/2+z
_cell_length_a                   8.7287(3)
_cell_length_b                   17.7547(5)
_cell_length_c                   12.5192(4)
_cell_angle_alpha                90
_cell_angle_beta                 105.4620(10)
_cell_angle_gamma                90
_cell_volume                     1869.95
_cell_formula_units_Z            4
_exptl_crystal_recrystallization_method dichloromethane/acetone
loop_
_atom_site_label
_atom_site_type_symbol
_atom_site_fract_x
_atom_site_fract_y
_atom_site_fract_z
Br1 Br 0.03262(3) 0.136192(14) 0.23942(2)
N1 N 0.7357(2) 0.10538(11) 0.73125(17)
N2 N 0.7791(2) 0.16154(12) 0.89037(17)
N3 N 0.4756(2) 0.20698(13) 0.91677(18)
H1 H 0.465(3) 0.2508(15) 0.883(2)
C1 C 0.7930(3) 0.07818(13) 0.5543(2)
C2 C 0.7380(3) 0.07344(14) 0.4398(2)
H2 H 0.8105 0.0636 0.3990
C3 C 0.5792(3) 0.08284(13) 0.3840(2)
C4 C 0.4715(3) 0.09676(13) 0.4456(2)
H3 H 0.3643 0.1020 0.4091
C5 C 0.5196(3) 0.10303(13) 0.5604(2)
C6 C 0.6811(3) 0.09385(13) 0.6123(2)
C7 C 0.9671(3) 0.06975(17) 0.6113(2)
H4 H 1.0013 0.1110 0.6616
H5 H 1.0267 0.0697 0.5570
H6 H 0.9844 0.0232 0.6518
C8 C 0.5248(4) 0.07954(17) 0.2592(2)
H7 H 0.5985 0.1067 0.2287
H8 H 0.4213 0.1019 0.2340
H9 H 0.5201 0.0280 0.2355
C9 C 0.3989(3) 0.11947(15) 0.6244(2)
H10 H 0.4192 0.0878 0.6888
H11 H 0.2940 0.1097 0.5782
H12 H 0.4071 0.1713 0.6469
C10 C 0.7206(3) 0.17015(14) 0.7820(2)
H13 H 0.676(3) 0.2149(13) 0.7477(19)
C11 C 0.8060(3) 0.05311(14) 0.8120(2)
H14 H 0.8304 0.0033 0.8002
C12 C 0.8323(3) 0.08825(15) 0.9106(2)
H15 H 0.8779 0.0670 0.9797
C13 C 0.7650(3) 0.21761(15) 0.9730(2)
H16 H 0.7608 0.2676 0.9413
H17 H 0.8577 0.2150 1.0362
C14 C 0.6161(3) 0.20384(16) 1.0112(2)
H18 H 0.6225 0.1548 1.0463
H19 H 0.6079 0.2417 1.0653
C15 C 0.3225(3) 0.18257(14) 0.9359(2)
C16 C 0.2902(4) 0.21806(16) 1.0389(2)
H20 H 0.3719 0.2033 1.1033
H21 H 0.1888 0.2013 1.0461
H22 H 0.2894 0.2719 1.0320
C17 C 0.1943(3) 0.20848(17) 0.8338(2)
H23 H 0.2131 0.1861 0.7687
H24 H 0.1975 0.2623 0.8281
H25 H 0.0918 0.1932 0.8406
C18 C 0.3221(4) 0.09705(16) 0.9445(3)
H26 H 0.4090 0.0811 1.0050
H27 H 0.3334 0.0754 0.8767
H28 H 0.2237 0.0806 0.9573
loop_
_geom_bond_atom_site_label_1
_geom_bond_atom_site_label_2
_geom_bond_site_symmetry_1
_geom_bond_site_symmetry_2
N1 C6 1_555 1_555
N2 C10 1_555 1_555
N3 H1 1_555 1_555
C1 C2 1_555 1_555
C2 H2 1_555 1_555
C3 C2 1_555 1_555
C4 C3 1_555 1_555
H3 C4 1_555 1_555
C5 C4 1_555 1_555
C6 C1 1_555 1_555
C7 C1 1_555 1_555
H4 C7 1_555 1_555
H5 C7 1_555 1_555
H6 C7 1_555 1_555
C8 C3 1_555 1_555
H7 C8 1_555 1_555
H8 C8 1_555 1_555
H9 C8 1_555 1_555
C9 C5 1_555 1_555
H10 C9 1_555 1_555
H11 C9 1_555 1_555
H12 C9 1_555 1_555
C10 N1 1_555 1_555
H13 C10 1_555 1_555
C11 N1 1_555 1_555
H14 C11 1_555 1_555
C12 N2 1_555 1_555
H15 C12 1_555 1_555
C13 N2 1_555 1_555
H16 C13 1_555 1_555
H17 C13 1_555 1_555
C14 N3 1_555 1_555
H18 C14 1_555 1_555
H19 C14 1_555 1_555
C15 N3 1_555 1_555
C16 C15 1_555 1_555
H20 C16 1_555 1_555
H21 C16 1_555 1_555
H22 C16 1_555 1_555
C17 C15 1_555 1_555
H23 C17 1_555 1_555
H24 C17 1_555 1_555
H25 C17 1_555 1_555
C18 C15 1_555 1_555
H26 C18 1_555 1_555
H27 C18 1_555 1_555
H28 C18 1_555 1_555
C5 C6 1_555 1_555
C11 C12 1_555 1_555
C13 C14 1_555 1_555

#END
