
#######################################################################
#
#                 Cambridge Crystallographic Data Centre
#                                CCDC 
#
#######################################################################
#
# If this CIF has been generated from an entry in the Cambridge 
# Structural Database, then it will include bibliographic, chemical, 
# crystal, experimental, refinement or atomic coordinate data resulting 
# from the CCDC's data processing and validation procedures.
#
#######################################################################

data_NUFZUJ
_chemical_formula_moiety         'C34 H44 O7'
_chemical_name_systematic        4,4'-bis(t-Butylbenzo)benzo-21-crown-7
_symmetry_cell_setting           monoclinic
_symmetry_space_group_name_H-M   'P 21/n'
_symmetry_Int_Tables_number      14
_space_group_name_Hall           '-P 2yn'
loop_
_symmetry_equiv_pos_site_id
_symmetry_equiv_pos_as_xyz
1 x,y,z
2 1/2+x,1/2-y,1/2+z
3 -x,-y,-z
4 1/2-x,1/2+y,1/2-z
_cell_length_a                   16.427(2)
_cell_length_b                   11.3675(9)
_cell_length_c                   33.137(3)
_cell_angle_alpha                90
_cell_angle_beta                 94.469(8)
_cell_angle_gamma                90
_cell_volume                     6168.99
_exptl_crystal_description       plate
_cell_formula_units_Z            8
loop_
_atom_site_label
_atom_site_type_symbol
_atom_site_fract_x
_atom_site_fract_y
_atom_site_fract_z
O1 O 0.44398(9) 0.34511(14) 0.18987(5)
O2 O 0.29939(9) 0.45105(14) 0.19903(4)
O3 O 0.16581(9) 0.57061(14) 0.15683(4)
O4 O 0.11806(10) 0.5569(2) 0.07872(5)
O5 O 0.21789(9) 0.5007(2) 0.01424(5)
O6 O 0.42068(10) 0.4764(2) 0.05995(5)
O7 O 0.51659(10) 0.4065(2) 0.11956(5)
C1 C 0.38587(14) 0.2790(2) 0.20664(7)
C2 C 0.31105(14) 0.3350(2) 0.21059(6)
C3 C 0.24897(15) 0.2762(2) 0.22785(7)
H1 H 0.19924(15) 0.3137(2) 0.23021(7)
C4 C 0.2599(2) 0.1622(2) 0.24164(7)
H2 H 0.2181(2) 0.1231(2) 0.25349(7)
C5 C 0.3337(2) 0.1069(2) 0.23762(7)
H3 H 0.3414(2) 0.0302(2) 0.24687(7)
C6 C 0.39620(15) 0.1640(2) 0.22008(7)
H4 H 0.44530(15) 0.1253(2) 0.21726(7)
C7 C 0.29347(14) 0.4713(2) 0.15614(7)
H5 H 0.26353(14) 0.4077(2) 0.14223(7)
H6 H 0.34757(14) 0.4748(2) 0.14637(7)
C8 C 0.24980(13) 0.5855(2) 0.14815(7)
H7 H 0.27513(13) 0.6468(2) 0.16520(7)
H8 H 0.25273(13) 0.6083(2) 0.12009(7)
C9 C 0.11524(13) 0.6583(2) 0.13998(7)
C10 C 0.08780(14) 0.6507(2) 0.09909(7)
C11 C 0.03423(15) 0.7344(2) 0.08302(7)
H9 H 0.01464(15) 0.7300(2) 0.05596(7)
C12 C 0.00930(15) 0.8256(2) 0.10723(7)
H10 H -0.02630(15) 0.8821(2) 0.09576(7)
C13 C 0.03573(14) 0.8350(2) 0.14787(7)
C14 C 0.08940(14) 0.7477(2) 0.16373(7)
H11 H 0.10790(14) 0.7504(2) 0.19096(7)
C15 C 0.08550(14) 0.5351(2) 0.03827(7)
H12 H 0.08334(14) 0.6076(2) 0.02277(7)
H13 H 0.03061(14) 0.5036(2) 0.03825(7)
C16 C 0.14065(14) 0.4478(2) 0.02000(7)
H14 H 0.14856(14) 0.3802(2) 0.03772(7)
H15 H 0.11554(14) 0.4208(2) -0.00582(7)
C17 C 0.28324(14) 0.4537(2) 0.03914(7)
H16 H 0.29355(14) 0.3731(2) 0.03134(7)
H17 H 0.27009(14) 0.4541(2) 0.06718(7)
C18 C 0.35723(14) 0.5280(2) 0.03430(7)
H18 H 0.37114(14) 0.5275(2) 0.00638(7)
H19 H 0.34769(14) 0.6085(2) 0.04233(7)
C19 C 0.49529(14) 0.5315(2) 0.06394(7)
C20 C 0.54823(15) 0.4921(2) 0.09636(7)
C21 C 0.62496(14) 0.5414(2) 0.10297(7)
H20 H 0.65966(14) 0.5145(2) 0.12452(7)
C22 C 0.65212(14) 0.6311(2) 0.07808(7)
C23 C 0.59875(15) 0.6682(2) 0.04645(7)
H21 H 0.61492(15) 0.7275(2) 0.02947(7)
C24 C 0.52116(15) 0.6191(2) 0.03926(7)
H22 H 0.48662(15) 0.6457(2) 0.01761(7)
C25 C 0.56330(14) 0.3730(2) 0.15589(7)
H23 H 0.57463(14) 0.4411(2) 0.17303(7)
H24 H 0.61482(14) 0.3385(2) 0.14957(7)
C26 C 0.51408(14) 0.2854(2) 0.17692(7)
H25 H 0.49731(14) 0.2217(2) 0.15865(7)
H26 H 0.54614(14) 0.2527(2) 0.20006(7)
C27 C 0.00827(15) 0.9330(2) 0.17559(7)
C28 C -0.0428(2) 1.0261(2) 0.15242(8)
H27 H -0.0561(8) 1.0877(7) 0.17062(13)
H28 H -0.0922(5) 0.9911(4) 0.1406(4)
H29 H -0.0124(4) 1.0583(10) 0.1314(3)
C29 C 0.0832(2) 0.9936(2) 0.19701(8)
H30 H 0.0656(2) 1.0549(10) 0.2143(4)
H31 H 0.1160(6) 1.0269(13) 0.17717(8)
H32 H 0.1148(6) 0.9370(4) 0.2130(4)
C30 C -0.0435(2) 0.8792(2) 0.20765(8)
H33 H -0.0597(8) 0.9400(3) 0.2255(3)
H34 H -0.0119(4) 0.8212(10) 0.2230(3)
H35 H -0.0912(5) 0.8428(12) 0.19450(8)
C31 C 0.73776(14) 0.6829(2) 0.08784(7)
C32 C 0.8016(2) 0.5846(3) 0.08974(8)
H36 H 0.8552(2) 0.6181(3) 0.0943(5)
H37 H 0.7977(7) 0.5420(9) 0.0646(2)
H38 H 0.7919(6) 0.5319(8) 0.1115(3)
C33 C 0.7594(2) 0.7733(3) 0.05610(8)
H39 H 0.8135(4) 0.8030(12) 0.0629(3)
H40 H 0.7211(6) 0.8371(8) 0.0555(4)
H41 H 0.7574(10) 0.7366(4) 0.02996(12)
C34 C 0.7406(2) 0.7452(3) 0.12900(8)
H42 H 0.7932(4) 0.7809(13) 0.1347(2)
H43 H 0.7312(10) 0.6889(4) 0.14974(10)
H44 H 0.6991(7) 0.8048(10) 0.1283(2)
O8 O 0.79435(10) 0.25841(14) 0.19607(5)
O9 O 0.93171(10) 0.36646(15) 0.17418(5)
O10 O 1.01859(9) 0.2950(2) 0.10648(5)
O11 O 0.95131(9) 0.2393(2) 0.03199(5)
O12 O 0.74366(10) 0.1509(2) 0.03907(6)
O13 O 0.61044(10) 0.1203(2) 0.08538(5)
O14 O 0.66224(9) 0.12230(15) 0.16323(5)
C35 C 0.80721(14) 0.3757(2) 0.20467(7)
C36 C 0.87804(14) 0.4338(2) 0.19407(7)
C37 C 0.8898(2) 0.5503(2) 0.20484(7)
H45 H 0.9356(2) 0.5903(2) 0.19730(7)
C38 C 0.8335(2) 0.6078(2) 0.22684(7)
H46 H 0.8423(2) 0.6859(2) 0.23429(7)
C39 C 0.7646(2) 0.5505(2) 0.23784(7)
H47 H 0.7271(2) 0.5893(2) 0.25277(7)
C40 C 0.75198(15) 0.4346(2) 0.22633(7)
H48 H 0.70529(15) 0.3958(2) 0.23337(7)
C41 C 1.00341(15) 0.4232(2) 0.16184(8)
H49 H 1.03242(15) 0.4613(2) 0.18487(8)
H50 H 0.98843(15) 0.4826(2) 0.14161(8)
C42 C 1.05659(15) 0.3328(2) 0.14469(7)
H51 H 1.10996(15) 0.3659(2) 0.14107(7)
H52 H 1.06359(15) 0.2664(2) 0.16302(7)
C43 C 1.06315(15) 0.2228(2) 0.08364(7)
C44 C 1.02734(14) 0.1937(2) 0.04551(7)
C45 C 1.0689(2) 0.1237(2) 0.02030(7)
H53 H 1.0450(2) 0.1047(2) -0.00524(7)
C46 C 1.1459(2) 0.0812(2) 0.03247(8)
H54 H 1.1733(2) 0.0349(2) 0.01478(8)
C47 C 1.18272(15) 0.1062(2) 0.07056(7)
C48 C 1.14026(15) 0.1781(2) 0.09574(7)
H55 H 1.16401(15) 0.1968(2) 0.12133(7)
C49 C 0.88489(14) 0.1765(3) 0.04748(8)
H56 H 0.88699(14) 0.1843(3) 0.07669(8)
H57 H 0.88833(14) 0.0937(3) 0.04086(8)
C50 C 0.80675(15) 0.2274(3) 0.02862(8)
H58 H 0.79823(15) 0.3059(3) 0.03898(8)
H59 H 0.80812(15) 0.2319(3) -0.00055(8)
C51 C 0.6640(2) 0.1943(3) 0.02708(9)
H60 H 0.6563(2) 0.1998(3) -0.00218(9)
H61 H 0.6567(2) 0.2719(3) 0.03840(9)
C52 C 0.6036(2) 0.1094(3) 0.04259(8)
H62 H 0.5487(2) 0.1286(3) 0.03176(8)
H63 H 0.6160(2) 0.0297(3) 0.03468(8)
C53 C 0.58333(14) 0.0294(2) 0.10803(8)
C54 C 0.61046(14) 0.0327(2) 0.14917(7)
C55 C 0.58451(13) -0.0499(2) 0.17527(7)
H64 H 0.60215(13) -0.0451(2) 0.20258(7)
C56 C 0.53215(14) -0.1415(2) 0.16203(7)
C57 C 0.50833(14) -0.1454(2) 0.12104(7)
H65 H 0.47465(14) -0.2063(2) 0.11117(7)
C58 C 0.53308(14) -0.0612(2) 0.09413(8)
H66 H 0.51571(14) -0.0661(2) 0.06679(8)
C59 C 0.74432(14) 0.1095(2) 0.15095(8)
H67 H 0.74279(14) 0.0810(2) 0.12331(8)
H68 H 0.77446(14) 0.0533(2) 0.16834(8)
C60 C 0.78475(14) 0.2267(2) 0.15411(7)
H69 H 0.83763(14) 0.2231(2) 0.14302(7)
H70 H 0.75161(14) 0.2848(2) 0.13901(7)
C61 C 1.2660(2) 0.0529(3) 0.08444(8)
C62 C 1.3238(3) 0.0719(6) 0.05079(14)
H71 H 1.3289(14) 0.1546(6) 0.0457(6)
H72 H 1.3022(9) 0.0332(22) 0.0265(3)
H73 H 1.3765(5) 0.0399(24) 0.0591(4)
C63 C 1.2546(3) -0.0780(4) 0.0905(2)
H74 H 1.2170(14) -0.0906(4) 0.1109(7)
H75 H 1.3062(4) -0.1132(6) 0.0990(8)
H76 H 1.2333(17) -0.1130(6) 0.0656(3)
C64 C 1.3046(3) 0.1074(6) 0.12251(14)
H77 H 1.2699(9) 0.0953(24) 0.1442(3)
H78 H 1.3118(18) 0.1902(8) 0.1184(3)
H79 H 1.3567(9) 0.0715(21) 0.1293(5)
C68 C 0.50501(14) -0.2327(2) 0.19234(7)
C69 C 0.4582(2) -0.1695(3) 0.22435(8)
H89 H 0.4427(9) -0.2254(4) 0.2441(3)
H90 H 0.4101(6) -0.1333(13) 0.21150(11)
H91 H 0.4924(4) -0.1102(11) 0.2375(4)
C70 C 0.4502(2) -0.3264(2) 0.17194(8)
H92 H 0.4336(8) -0.3806(9) 0.19194(11)
H93 H 0.4795(4) -0.3679(10) 0.1524(4)
H94 H 0.4028(5) -0.2898(3) 0.1585(4)
C71 C 0.5799(2) -0.2936(2) 0.21308(8)
H95 H 0.5627(2) -0.3501(10) 0.2322(4)
H96 H 0.6145(5) -0.2361(3) 0.2269(4)
H97 H 0.6094(6) -0.3330(12) 0.19314(10)
C65? C 1.3053(19) -0.0292(36) 0.0576(7)
H80? H 1.316(15) 0.0105(71) 0.0331(37)
H81? H 1.2696(74) -0.095(12) 0.0514(67)
H82? H 1.3556(87) -0.057(20) 0.0710(34)
C66? C 1.2579(13) -0.0161(37) 0.1244(10)
H83? H 1.3112(18) -0.030(23) 0.1376(47)
H84? H 1.232(16) -0.090(12) 0.1184(13)
H85? H 1.226(15) 0.029(12) 0.1419(38)
C67? C 1.3273(15) 0.1541(19) 0.0963(15)
H86? H 1.317(12) 0.219(11) 0.0780(57)
H87? H 1.3821(16) 0.1263(80) 0.0946(89)
H88? H 1.320(13) 0.179(18) 0.1234(35)
loop_
_geom_bond_atom_site_label_1
_geom_bond_atom_site_label_2
_geom_bond_site_symmetry_1
_geom_bond_site_symmetry_2
O1 C1 1_555 1_555
O2 C2 1_555 1_555
O3 C8 1_555 1_555
O4 C10 1_555 1_555
O5 C16 1_555 1_555
O6 C18 1_555 1_555
O7 C20 1_555 1_555
C1 C2 1_555 1_555
C2 C3 1_555 1_555
C3 H1 1_555 1_555
C4 C3 1_555 1_555
H2 C4 1_555 1_555
C5 C4 1_555 1_555
H3 C5 1_555 1_555
C6 C1 1_555 1_555
H4 C6 1_555 1_555
C7 O2 1_555 1_555
H5 C7 1_555 1_555
H6 C7 1_555 1_555
C8 C7 1_555 1_555
H7 C8 1_555 1_555
H8 C8 1_555 1_555
C9 O3 1_555 1_555
C10 C9 1_555 1_555
C11 C10 1_555 1_555
H9 C11 1_555 1_555
C12 C11 1_555 1_555
H10 C12 1_555 1_555
C13 C12 1_555 1_555
C14 C9 1_555 1_555
H11 C14 1_555 1_555
C15 O4 1_555 1_555
H12 C15 1_555 1_555
H13 C15 1_555 1_555
C16 C15 1_555 1_555
H14 C16 1_555 1_555
H15 C16 1_555 1_555
C17 O5 1_555 1_555
H16 C17 1_555 1_555
H17 C17 1_555 1_555
C18 C17 1_555 1_555
H18 C18 1_555 1_555
H19 C18 1_555 1_555
C19 O6 1_555 1_555
C20 C19 1_555 1_555
C21 C20 1_555 1_555
H20 C21 1_555 1_555
C22 C21 1_555 1_555
C23 C22 1_555 1_555
H21 C23 1_555 1_555
C24 C19 1_555 1_555
H22 C24 1_555 1_555
C25 O7 1_555 1_555
H23 C25 1_555 1_555
H24 C25 1_555 1_555
C26 O1 1_555 1_555
H25 C26 1_555 1_555
H26 C26 1_555 1_555
C27 C13 1_555 1_555
C28 C27 1_555 1_555
H27 C28 1_555 1_555
H28 C28 1_555 1_555
H29 C28 1_555 1_555
C29 C27 1_555 1_555
H30 C29 1_555 1_555
H31 C29 1_555 1_555
H32 C29 1_555 1_555
C30 C27 1_555 1_555
H33 C30 1_555 1_555
H34 C30 1_555 1_555
H35 C30 1_555 1_555
C31 C22 1_555 1_555
C32 C31 1_555 1_555
H36 C32 1_555 1_555
H37 C32 1_555 1_555
H38 C32 1_555 1_555
C33 C31 1_555 1_555
H39 C33 1_555 1_555
H40 C33 1_555 1_555
H41 C33 1_555 1_555
C34 C31 1_555 1_555
H42 C34 1_555 1_555
H43 C34 1_555 1_555
H44 C34 1_555 1_555
O8 C35 1_555 1_555
O9 C36 1_555 1_555
O10 C42 1_555 1_555
O11 C44 1_555 1_555
O12 C50 1_555 1_555
O13 C52 1_555 1_555
O14 C54 1_555 1_555
C35 C36 1_555 1_555
C36 C37 1_555 1_555
C37 H45 1_555 1_555
C38 C37 1_555 1_555
H46 C38 1_555 1_555
C39 C38 1_555 1_555
H47 C39 1_555 1_555
C40 C35 1_555 1_555
H48 C40 1_555 1_555
C41 O9 1_555 1_555
H49 C41 1_555 1_555
H50 C41 1_555 1_555
C42 C41 1_555 1_555
H51 C42 1_555 1_555
H52 C42 1_555 1_555
C43 O10 1_555 1_555
C44 C43 1_555 1_555
C45 C44 1_555 1_555
H53 C45 1_555 1_555
C46 C45 1_555 1_555
H54 C46 1_555 1_555
C47 C46 1_555 1_555
C48 C43 1_555 1_555
H55 C48 1_555 1_555
C49 O11 1_555 1_555
H56 C49 1_555 1_555
H57 C49 1_555 1_555
C50 C49 1_555 1_555
H58 C50 1_555 1_555
H59 C50 1_555 1_555
C51 O12 1_555 1_555
H60 C51 1_555 1_555
H61 C51 1_555 1_555
C52 C51 1_555 1_555
H62 C52 1_555 1_555
H63 C52 1_555 1_555
C53 O13 1_555 1_555
C54 C53 1_555 1_555
C55 C54 1_555 1_555
H64 C55 1_555 1_555
C56 C55 1_555 1_555
C57 C56 1_555 1_555
H65 C57 1_555 1_555
C58 C53 1_555 1_555
H66 C58 1_555 1_555
C59 O14 1_555 1_555
H67 C59 1_555 1_555
H68 C59 1_555 1_555
C60 O8 1_555 1_555
H69 C60 1_555 1_555
H70 C60 1_555 1_555
C61 C47 1_555 1_555
C62 C61 1_555 1_555
H71 C62 1_555 1_555
H72 C62 1_555 1_555
H73 C62 1_555 1_555
C63 C61 1_555 1_555
H74 C63 1_555 1_555
H75 C63 1_555 1_555
H76 C63 1_555 1_555
C64 C61 1_555 1_555
H77 C64 1_555 1_555
H78 C64 1_555 1_555
H79 C64 1_555 1_555
C68 C56 1_555 1_555
C69 C68 1_555 1_555
H89 C69 1_555 1_555
H90 C69 1_555 1_555
H91 C69 1_555 1_555
C70 C68 1_555 1_555
H92 C70 1_555 1_555
H93 C70 1_555 1_555
H94 C70 1_555 1_555
C71 C68 1_555 1_555
H95 C71 1_555 1_555
H96 C71 1_555 1_555
H97 C71 1_555 1_555
C5 C6 1_555 1_555
C13 C14 1_555 1_555
C23 C24 1_555 1_555
C25 C26 1_555 1_555
C39 C40 1_555 1_555
C47 C48 1_555 1_555
C57 C58 1_555 1_555
C59 C60 1_555 1_555

#END
