
#######################################################################
#
#                 Cambridge Crystallographic Data Centre
#                                CCDC 
#
#######################################################################
#
# If this CIF has been generated from an entry in the Cambridge 
# Structural Database, then it will include bibliographic, chemical, 
# crystal, experimental, refinement or atomic coordinate data resulting 
# from the CCDC's data processing and validation procedures.
#
#######################################################################

data_NUGCEZ
_chemical_formula_moiety         'C22 H16 N2 O1 S1'
_chemical_name_systematic        
2-(4-(diphenylamino)phenyl)-1,3-thiazole-5-carbaldehyde
_symmetry_cell_setting           monoclinic
_symmetry_space_group_name_H-M   'C 2/c'
_symmetry_Int_Tables_number      15
_space_group_name_Hall           '-C 2yn'
loop_
_symmetry_equiv_pos_site_id
_symmetry_equiv_pos_as_xyz
1 x,y,z
2 -x,y,1/2-z
3 1/2+x,1/2+y,z
4 1/2-x,1/2+y,1/2-z
5 -x,-y,-z
6 x,-y,1/2+z
7 1/2-x,1/2-y,-z
8 1/2+x,1/2-y,1/2+z
_cell_length_a                   25.266(5)
_cell_length_b                   9.8767(15)
_cell_length_c                   18.464(3)
_cell_angle_alpha                90
_cell_angle_beta                 127.997(5)
_cell_angle_gamma                90
_cell_volume                     3630.98
_exptl_crystal_colour            orange
_exptl_crystal_description       block
_cell_formula_units_Z            8
loop_
_atom_site_label
_atom_site_type_symbol
_atom_site_fract_x
_atom_site_fract_y
_atom_site_fract_z
C1 C 0.33789(10) 1.1215(2) 0.48541(16)
H1 H 0.3465 1.1969 0.4640
C2 C 0.26961(9) 1.10204(17) 0.45249(13)
C3 C 0.21593(9) 1.17934(18) 0.39137(14)
H2 H 0.2197 1.2558 0.3654
C4 C 0.16327(8) 1.02966(15) 0.41355(12)
C5 C 0.10704(8) 0.96201(15) 0.40149(11)
C6 C 0.10872(8) 0.82480(16) 0.42072(11)
H3 H 0.1479 0.7757 0.4461
C7 C 0.05354(8) 0.76089(15) 0.40290(12)
H4 H 0.0560 0.6695 0.4167
C8 C -0.00610(8) 0.83150(15) 0.36437(11)
C9 C -0.00758(9) 0.96963(16) 0.34664(14)
H5 H -0.0465 1.0194 0.3222
C10 C 0.04807(9) 1.03234(16) 0.36503(13)
H6 H 0.0461 1.1243 0.3527
C11 C -0.06761(8) 0.62002(15) 0.33413(12)
C12 C -0.07230(8) 0.54501(17) 0.39260(12)
H7 H -0.0715 0.5876 0.4382
C13 C -0.07825(9) 0.40557(19) 0.38331(14)
H8 H -0.0815 0.3545 0.4227
C14 C -0.07934(9) 0.34329(19) 0.31708(15)
H9 H -0.0834 0.2496 0.3112
C15 C -0.07452(11) 0.4168(2) 0.25882(16)
H10 H -0.0751 0.3732 0.2137
C16 C -0.06882(10) 0.55637(18) 0.26669(14)
H11 H -0.0658 0.6068 0.2268
C17 C -0.11982(8) 0.83485(16) 0.32228(12)
C18 C -0.11399(11) 0.9314(2) 0.38082(15)
H12 H -0.0720 0.9536 0.4348
C19 C -0.17146(13) 0.9953(2) 0.35831(18)
H13 H -0.1675 1.0618 0.3970
C20 C -0.23345(12) 0.9617(2) 0.28040(19)
H14 H -0.2716 1.0039 0.2667
C21 C -0.23929(10) 0.8660(2) 0.22290(17)
H15 H -0.2815 0.8427 0.1698
C22 C -0.18271(9) 0.80293(19) 0.24286(14)
H16 H -0.1871 0.7388 0.2026
N1 N 0.15622(7) 1.14085(15) 0.36941(11)
N2 N -0.06265(7) 0.76489(13) 0.34317(12)
O1 O 0.38436(8) 1.04816(18) 0.53817(13)
S1 S 0.24487(2) 0.97037(5) 0.48646(4)
loop_
_geom_bond_atom_site_label_1
_geom_bond_atom_site_label_2
_geom_bond_site_symmetry_1
_geom_bond_site_symmetry_2
C1 H1 1_555 1_555
C2 C1 1_555 1_555
C3 C2 1_555 1_555
H2 C3 1_555 1_555
C4 C5 1_555 1_555
C5 C6 1_555 1_555
C6 H3 1_555 1_555
C7 C6 1_555 1_555
H4 C7 1_555 1_555
C8 C7 1_555 1_555
C9 C8 1_555 1_555
H5 C9 1_555 1_555
C10 C5 1_555 1_555
H6 C10 1_555 1_555
C11 C12 1_555 1_555
C12 H7 1_555 1_555
C13 C12 1_555 1_555
H8 C13 1_555 1_555
C14 C13 1_555 1_555
H9 C14 1_555 1_555
C15 C14 1_555 1_555
H10 C15 1_555 1_555
C16 C11 1_555 1_555
H11 C16 1_555 1_555
C17 C18 1_555 1_555
C18 H12 1_555 1_555
C19 C18 1_555 1_555
H13 C19 1_555 1_555
C20 C19 1_555 1_555
H14 C20 1_555 1_555
C21 C20 1_555 1_555
H15 C21 1_555 1_555
C22 C17 1_555 1_555
H16 C22 1_555 1_555
N1 C3 1_555 1_555
N2 C8 1_555 1_555
O1 C1 1_555 1_555
S1 C2 1_555 1_555
C4 N1 1_555 1_555
C4 S1 1_555 1_555
C9 C10 1_555 1_555
C11 N2 1_555 1_555
C15 C16 1_555 1_555
C17 N2 1_555 1_555
C21 C22 1_555 1_555

#END
