
#######################################################################
#
#                 Cambridge Crystallographic Data Centre
#                                CCDC 
#
#######################################################################
#
# If this CIF has been generated from an entry in the Cambridge 
# Structural Database, then it will include bibliographic, chemical, 
# crystal, experimental, refinement or atomic coordinate data resulting 
# from the CCDC's data processing and validation procedures.
#
#######################################################################

data_NUGHAZ
_chemical_formula_moiety         'C25 H30 N2 O5'
_chemical_name_systematic        
4,4'-((2-Hydroxypropane-1,3-diyl)bis(oxy-2,1-phenyleneamino))bis(pent-3-en-2-one)
_symmetry_cell_setting           triclinic
_symmetry_space_group_name_H-M   'P -1'
_symmetry_Int_Tables_number      2
_space_group_name_Hall           '-P 1'
loop_
_symmetry_equiv_pos_site_id
_symmetry_equiv_pos_as_xyz
1 x,y,z
2 -x,-y,-z
_cell_length_a                   9.5648(19)
_cell_length_b                   11.368(2)
_cell_length_c                   11.606(2)
_cell_angle_alpha                81.515(7)
_cell_angle_beta                 87.492(7)
_cell_angle_gamma                67.952(6)
_cell_volume                     1156.77
_cell_formula_units_Z            2
loop_
_atom_site_label
_atom_site_type_symbol
_atom_site_fract_x
_atom_site_fract_y
_atom_site_fract_z
O1 O 0.9224(3) 0.11828(19) 0.79355(19)
N1 N 1.1160(2) 0.5440(2) 0.87186(19)
H1 H 1.0356 0.5666 0.8300
C1 C 0.9651(3) 0.7162(2) 0.9670(2)
H2 H 0.9583 0.7661 1.0253
C2 C 0.8212(3) 0.4717(2) 0.6247(2)
H3 H 0.7602 0.4644 0.6935
C3 C 0.6870(3) 0.2729(3) 0.4748(2)
C4 C 0.9965(3) -0.0758(3) 0.7178(2)
H4 H 1.0624 -0.1610 0.7298
C5 C 1.2328(3) 0.4366(3) 0.8390(2)
C6 C 0.7533(3) 0.4450(2) 0.5212(2)
H5 H 0.6508 0.5061 0.5068
H6 H 0.8122 0.4515 0.4521
C7 C 0.8942(3) -0.0411(2) 0.6295(2)
C8 C 0.7012(3) 0.1452(3) 0.5103(2)
C9 C 1.1873(3) 0.3698(2) 0.7656(2)
C10 C 0.8328(3) 0.7464(2) 0.8984(2)
C11 C 0.9810(3) 0.3779(2) 0.6484(2)
H7 H 0.9830 0.2917 0.6712
H8 H 1.0420 0.3788 0.5795
C12 C 1.1007(3) 0.6204(2) 0.9545(2)
C13 C 1.2902(3) 0.2637(3) 0.7240(2)
H9 H 1.2584 0.2195 0.6762
C14 C 0.8977(4) -0.1356(3) 0.5512(3)
H10 H 0.8182 -0.0959 0.4939
H11 H 0.8838 -0.2081 0.5966
H12 H 0.9932 -0.1636 0.5129
C15 C 1.2300(4) 0.6003(3) 1.0317(3)
H13 H 1.3162 0.5292 1.0122
H14 H 1.2038 0.5826 1.1114
H15 H 1.2534 0.6762 1.0214
C16 C 0.5401(4) 0.2860(4) 0.3086(3)
H16 H 0.4900 0.3309 0.2394
C17 C 1.0124(3) 0.0065(3) 0.7941(2)
C18 C 1.4407(3) 0.2234(3) 0.7536(3)
H17 H 1.5106 0.1516 0.7258
C19 C 0.6240(4) 0.0946(4) 0.4443(3)
H18 H 0.6265 0.0120 0.4679
C20 C 0.6961(4) 0.8610(3) 0.9212(3)
H19 H 0.6153 0.8709 0.8697
H20 H 0.7203 0.9365 0.9078
H21 H 0.6657 0.8485 1.0005
C21 C 0.6101(3) 0.3424(3) 0.3741(3)
H22 H 0.6049 0.4257 0.3501
C22 C 1.3851(3) 0.3937(3) 0.8660(3)
H23 H 1.4186 0.4369 0.9137
C23 C 1.4876(4) 0.2885(4) 0.8233(3)
H24 H 1.5894 0.2615 0.8421
C24 C 1.1456(4) -0.0450(3) 0.8755(3)
H25 H 1.1431 0.0198 0.9209
H26 H 1.2369 -0.0693 0.8314
H27 H 1.1424 -0.1186 0.9264
N2 N 0.7895(3) 0.0805(2) 0.60976(19)
H28 H 0.7756 0.1238 0.6669
C25 C 0.5454(4) 0.1643(4) 0.3463(3)
H29 H 0.4945 0.1288 0.3042
O2 O 0.8138(2) 0.59981(17) 0.59923(17)
H30 H 0.8990 0.6006 0.6011
O3 O 1.03631(19) 0.41928(18) 0.74117(16)
O4 O 0.7551(2) 0.31875(17) 0.54931(15)
O5 O 0.8250(2) 0.6841(2) 0.82196(17)
loop_
_geom_bond_atom_site_label_1
_geom_bond_atom_site_label_2
_geom_bond_site_symmetry_1
_geom_bond_site_symmetry_2
O1 C17 1_555 1_555
N1 H1 1_555 1_555
C1 H2 1_555 1_555
C2 H3 1_555 1_555
C3 C8 1_555 1_555
C4 H4 1_555 1_555
C5 N1 1_555 1_555
C6 C2 1_555 1_555
H5 C6 1_555 1_555
H6 C6 1_555 1_555
C7 C4 1_555 1_555
C8 C19 1_555 1_555
C9 C5 1_555 1_555
C10 C1 1_555 1_555
C11 C2 1_555 1_555
H7 C11 1_555 1_555
H8 C11 1_555 1_555
C12 N1 1_555 1_555
C13 C9 1_555 1_555
H9 C13 1_555 1_555
C14 C7 1_555 1_555
H10 C14 1_555 1_555
H11 C14 1_555 1_555
H12 C14 1_555 1_555
C15 C12 1_555 1_555
H13 C15 1_555 1_555
H14 C15 1_555 1_555
H15 C15 1_555 1_555
C16 H16 1_555 1_555
C17 C4 1_555 1_555
C18 C13 1_555 1_555
H17 C18 1_555 1_555
C19 H18 1_555 1_555
C20 C10 1_555 1_555
H19 C20 1_555 1_555
H20 C20 1_555 1_555
H21 C20 1_555 1_555
C21 C3 1_555 1_555
H22 C21 1_555 1_555
C22 C5 1_555 1_555
H23 C22 1_555 1_555
C23 C18 1_555 1_555
H24 C23 1_555 1_555
C24 C17 1_555 1_555
H25 C24 1_555 1_555
H26 C24 1_555 1_555
H27 C24 1_555 1_555
N2 C7 1_555 1_555
H28 N2 1_555 1_555
C25 C16 1_555 1_555
H29 C25 1_555 1_555
O2 C2 1_555 1_555
H30 O2 1_555 1_555
O3 C9 1_555 1_555
O4 C3 1_555 1_555
O5 C10 1_555 1_555
C1 C12 1_555 1_555
C6 O4 1_555 1_555
C8 N2 1_555 1_555
C11 O3 1_555 1_555
C16 C21 1_555 1_555
C19 C25 1_555 1_555
C22 C23 1_555 1_555

#END
