
#######################################################################
#
#                 Cambridge Crystallographic Data Centre
#                                CCDC 
#
#######################################################################
#
# If this CIF has been generated from an entry in the Cambridge 
# Structural Database, then it will include bibliographic, chemical, 
# crystal, experimental, refinement or atomic coordinate data resulting 
# from the CCDC's data processing and validation procedures.
#
#######################################################################

data_NUGSIS
_chemical_formula_moiety         'C22 H16 S3'
_chemical_name_systematic        
3,3'-Thiene-2,3-diylbis(2-methyl-1-benzothiophene)
_symmetry_cell_setting           orthorhombic
_symmetry_space_group_name_H-M   'P 21 21 21'
_symmetry_Int_Tables_number      19
_space_group_name_Hall           'P 2ac 2ab'
loop_
_symmetry_equiv_pos_site_id
_symmetry_equiv_pos_as_xyz
1 x,y,z
2 1/2-x,-y,1/2+z
3 1/2+x,1/2-y,-z
4 -x,1/2+y,1/2-z
_cell_length_a                   8.878
_cell_length_b                   11.862
_cell_length_c                   17.330
_cell_angle_alpha                90
_cell_angle_beta                 90
_cell_angle_gamma                90
_cell_volume                     1825.04
_exptl_crystal_colour            colorless
_exptl_crystal_description       block
_cell_formula_units_Z            4
_chemical_properties_physical    light-sensitive
_exptl_crystal_preparation       photochromic
loop_
_atom_site_label
_atom_site_type_symbol
_atom_site_fract_x
_atom_site_fract_y
_atom_site_fract_z
S1 S 0.49188(10) 0.46704(6) 0.43664(4)
S2 S 0.92362(9) 0.88981(7) 0.35822(5)
S3 S 0.8117(5) 0.6606(4) 0.1283(2)
C1 C 0.704(2) 0.5468(15) 0.1015(6)
H1 H 0.6932 0.5233 0.0506
C2 C 0.636(2) 0.4948(15) 0.1620(10)
H2 H 0.5641 0.4384 0.1575
C3 C 0.6927(3) 0.5396(2) 0.23533(14)
C4 C 0.7762(3) 0.6348(2) 0.22435(15)
C5 C 0.5986(3) 0.3539(2) 0.40456(16)
C6 C 0.6145(4) 0.2477(3) 0.43925(18)
H3 H 0.5634 0.2305 0.4846
C7 C 0.7064(5) 0.1705(3) 0.4052(2)
H4 H 0.7181 0.0999 0.4278
C8 C 0.7832(4) 0.1953(3) 0.3372(2)
H5 H 0.8463 0.1414 0.3154
C9 C 0.7668(3) 0.2994(2) 0.30156(18)
H6 H 0.8181 0.3153 0.2561
C10 C 0.6725(3) 0.3795(2) 0.33476(15)
C11 C 0.6381(3) 0.4928(2) 0.30872(15)
C12 C 0.5429(3) 0.5487(2) 0.35700(17)
C13 C 0.4773(4) 0.6636(3) 0.34683(19)
H7 H 0.4147 0.6814 0.3904
H8 H 0.4178 0.6654 0.3006
H9 H 0.5570 0.7180 0.3430
C14 C 0.9918(3) 0.7614(2) 0.39136(15)
C15 C 1.0860(4) 0.7439(3) 0.45453(17)
H10 H 1.1221 0.8043 0.4833
C16 C 1.1244(4) 0.6347(3) 0.4732(2)
H11 H 1.1850 0.6213 0.5160
C17 C 1.0742(4) 0.5445(3) 0.4293(2)
H12 H 1.1023 0.4716 0.4429
C18 C 0.9827(3) 0.5615(3) 0.36544(18)
H13 H 0.9504 0.5006 0.3360
C19 C 0.9392(3) 0.6721(2) 0.34573(15)
C20 C 0.8420(3) 0.7103(2) 0.28376(15)
C21 C 0.8219(3) 0.8244(3) 0.28462(17)
C22 C 0.7208(4) 0.8950(3) 0.2356(2)
H14 H 0.7321 0.9729 0.2496
H15 H 0.6181 0.8723 0.2435
H16 H 0.7471 0.8852 0.1823
C23? C 0.6927(3) 0.5396(2) 0.23533(14)
C24? C 0.7762(3) 0.6348(2) 0.22435(15)
C25? C 0.786(3) 0.662(2) 0.1412(9)
C26? C 0.736(2) 0.5735(17) 0.0979(7)
H17? H 0.8221 0.7296 0.1213
H18? H 0.7485 0.5686 0.0447
S4? S 0.6478(7) 0.4743(5) 0.1509(3)
loop_
_geom_bond_atom_site_label_1
_geom_bond_atom_site_label_2
_geom_bond_site_symmetry_1
_geom_bond_site_symmetry_2
S1 C5 1_555 1_555
S2 C14 1_555 1_555
S3 C1 1_555 1_555
C1 H1 1_555 1_555
C2 C1 1_555 1_555
H2 C2 1_555 1_555
C3 C2 1_555 1_555
C4 S3 1_555 1_555
C5 C6 1_555 1_555
C6 H3 1_555 1_555
C7 C6 1_555 1_555
H4 C7 1_555 1_555
C8 C7 1_555 1_555
H5 C8 1_555 1_555
C9 C8 1_555 1_555
H6 C9 1_555 1_555
C10 C5 1_555 1_555
C11 C3 1_555 1_555
C12 S1 1_555 1_555
C13 C12 1_555 1_555
H7 C13 1_555 1_555
H8 C13 1_555 1_555
H9 C13 1_555 1_555
C14 C15 1_555 1_555
C15 H10 1_555 1_555
C16 C15 1_555 1_555
H11 C16 1_555 1_555
C17 C16 1_555 1_555
H12 C17 1_555 1_555
C18 C17 1_555 1_555
H13 C18 1_555 1_555
C19 C14 1_555 1_555
C20 C4 1_555 1_555
C21 S2 1_555 1_555
C22 C21 1_555 1_555
H14 C22 1_555 1_555
H15 C22 1_555 1_555
H16 C22 1_555 1_555
C3 C4 1_555 1_555
C9 C10 1_555 1_555
C10 C11 1_555 1_555
C11 C12 1_555 1_555
C18 C19 1_555 1_555
C19 C20 1_555 1_555
C20 C21 1_555 1_555

#END
