
#######################################################################
#
#                 Cambridge Crystallographic Data Centre
#                                CCDC 
#
#######################################################################
#
# If this CIF has been generated from an entry in the Cambridge 
# Structural Database, then it will include bibliographic, chemical, 
# crystal, experimental, refinement or atomic coordinate data resulting 
# from the CCDC's data processing and validation procedures.
#
#######################################################################

data_NUGZIA
_chemical_formula_moiety         
'2(C37 H45 N1 O14),C14 H18 N2 2+,2(C2 H3 N1),2(H2 O1),2(F6 P1 1-)'
_chemical_name_systematic        
"(3)-((4,4'-Ethane-1,2-diylbis(1-benzylpyridinium))-bis(5,8,11,14,17,25,33,37,40,43,46,49-dodecaoxa-50-azapentacyclo[19.15.13.1^27,31^.0^4,35^.0^18,23^]pentaconta-1,3,18,20,22,27(50),28,30,35-nonaene-26,32-dione)) pseudorotaxane bis(hexafluorophosphate) acetonitrile solvate dihydrate"
_symmetry_cell_setting           triclinic
_symmetry_space_group_name_H-M   'P -1'
_symmetry_Int_Tables_number      2
_space_group_name_Hall           '-P 1'
loop_
_symmetry_equiv_pos_site_id
_symmetry_equiv_pos_as_xyz
1 x,y,z
2 -x,-y,-z
_cell_length_a                   10.9381(5)
_cell_length_b                   11.7474(7)
_cell_length_c                   19.8477(9)
_cell_angle_alpha                101.306(4)
_cell_angle_beta                 99.715(4)
_cell_angle_gamma                94.513(4)
_cell_volume                     2448.42
_exptl_crystal_colour            yellow
_exptl_crystal_description       platelet
_cell_formula_units_Z            1
loop_
_atom_site_label
_atom_site_type_symbol
_atom_site_fract_x
_atom_site_fract_y
_atom_site_fract_z
P1 P 1.64047(10) 1.62909(10) 1.22787(5)
F1 F 1.6263(3) 1.4916(2) 1.20997(15)
F2 F 1.5684(5) 1.6301(3) 1.15317(18)
F3 F 1.7091(4) 1.6282(3) 1.30280(13)
F4 F 1.6567(4) 1.7670(3) 1.24725(16)
F5 F 1.7652(4) 1.6334(4) 1.2029(2)
F6 F 1.5125(4) 1.6228(6) 1.2484(4)
O1 O 1.3333(2) 1.0540(2) 0.93323(10)
O2 O 0.7252(2) 1.1956(2) 0.94354(10)
O3 O 0.5215(2) 0.8418(2) 0.71456(10)
O4 O 0.9069(2) 1.3670(2) 1.03508(10)
O5 O 0.68371(19) 1.0082(2) 0.65046(9)
O6 O 1.1367(2) 0.7003(2) 0.70344(11)
O7 O 1.0962(2) 0.9154(2) 0.64136(10)
O8 O 1.3394(2) 1.2685(2) 1.03032(11)
O9 O 0.5018(2) 0.6177(2) 0.60796(12)
O10 O 1.1722(2) 1.4096(2) 1.09260(10)
C1 C 0.6429(3) 1.0002(3) 0.89639(15)
H1 H 0.6540 0.9878 0.9428
C2 C 0.6119(3) 1.0353(3) 0.76062(14)
C3 C 0.5749(3) 0.9253(3) 0.77309(15)
C4 C 1.2841(3) 0.9690(3) 0.87488(15)
N1 N 0.8672(3) 0.9403(3) 0.57792(12)
C5 C 0.4832(3) 0.7269(3) 0.72434(16)
H2 H 0.4246 0.7323 0.7575
H3 H 0.5569 0.6920 0.7441
C6 C 0.6784(3) 1.1097(3) 0.88508(14)
O11 O 0.5980(2) 1.0838(2) 0.56089(11)
C7 C 1.2430(3) 0.8610(3) 0.88615(16)
H4 H 1.2491 0.8494 0.9326
C8 C 1.1820(3) 0.7855(3) 0.76200(15)
C9 C 1.2738(3) 0.9857(3) 0.80638(15)
H5 H 1.3015 1.0597 0.7983
C10 C 0.6634(3) 1.1268(3) 0.81707(15)
H6 H 0.6884 1.2014 0.8089
C11 C 1.2233(3) 0.8944(3) 0.75009(15)
C12 C 0.5914(3) 0.9080(3) 0.84078(15)
H7 H 0.5676 0.8334 0.8493
C13 C 1.3775(3) 1.1655(3) 0.92172(16)
H8 H 1.3072 1.2002 0.8980
H9 H 1.4405 1.1558 0.8913
C14 C 0.7584(3) 0.9612(3) 0.54370(15)
C15 C 0.6723(3) 1.0256(3) 0.58527(14)
C16 C 0.5894(3) 1.0586(3) 0.68825(14)
H10 H 0.5048 1.0231 0.6632
H11 H 0.5949 1.1438 0.6907
C17 C 0.7467(3) 1.3127(3) 0.93354(15)
H12 H 0.6690 1.3357 0.9091
H13 H 0.8117 1.3176 0.9047
C18 C 0.9650(3) 1.4583(3) 1.09216(15)
H14 H 0.9050 1.4800 1.1234
H15 H 0.9909 1.5280 1.0746
C19 C 1.1932(3) 0.7703(3) 0.83055(16)
H16 H 1.1661 0.6964 0.8390
C20 C 0.7883(3) 1.3920(3) 1.00344(15)
H17 H 0.7940 1.4743 0.9983
H18 H 0.7267 1.3814 1.0336
C21 C 1.0767(3) 1.4190(3) 1.13209(16)
H19 H 1.1069 1.4758 1.1769
H20 H 1.0532 1.3422 1.1428
C22 C 1.3802(3) 1.3654(3) 1.08678(16)
H21 H 1.3949 1.4371 1.0688
H22 H 1.4596 1.3528 1.1151
C23 C 1.4340(3) 1.2441(4) 0.99029(17)
H23 H 1.4990 1.2061 1.0159
H24 H 1.4739 1.3179 0.9826
C24 C 0.4203(3) 0.6512(3) 0.65493(17)
H25 H 0.3767 0.5798 0.6634
H26 H 0.3563 0.6939 0.6323
O12 O 0.9417(3) 0.5425(3) 0.60578(14)
C25 C 0.9414(3) 0.8839(3) 0.53904(16)
C26 C 1.2229(3) 0.9104(3) 0.67694(16)
H27 H 1.2757 0.9835 0.6783
H28 H 1.2586 0.8445 0.6507
C27 C 1.2817(3) 1.3789(3) 1.13105(16)
H29 H 1.2621 1.3047 1.1456
H30 H 1.3130 1.4405 1.1737
O13 O 1.1390(3) 0.8124(3) 0.54167(13)
C28 C 1.0870(4) 0.5898(3) 0.71388(18)
H31 H 1.0154 0.6003 0.7382
H32 H 1.1517 0.5573 0.7434
C29 C 0.7168(3) 0.9267(3) 0.47228(15)
H33 H 0.6385 0.9445 0.4507
C30 C 1.0685(3) 0.8651(4) 0.57346(17)
C31 C 1.0458(4) 0.5082(4) 0.64503(18)
H34 H 1.1151 0.5056 0.6187
H35 H 1.0246 0.4286 0.6524
O14 O 0.7104(7) 0.5906(8) 0.5550(4)
C32 C 0.7937(4) 0.8648(4) 0.43318(17)
H36 H 0.7679 0.8374 0.3841
C33 C 0.6102(4) 0.6471(4) 0.51866(18)
H37 H 0.5563 0.5882 0.4805
H38 H 0.6478 0.7079 0.4977
C34 C 0.9076(4) 0.8442(4) 0.46679(17)
H39 H 0.9626 0.8034 0.4412
C35 C 0.5334(4) 0.7013(3) 0.5691(2)
H40 H 0.5814 0.7721 0.6010
H41 H 0.4566 0.7242 0.5436
C36 C 0.8777(6) 0.4737(6) 0.5510(3)
H42 H 0.8312 0.4091 0.5649
H43 H 0.9350 0.4393 0.5211
C37 C 0.7862(8) 0.5364(9) 0.5094(4)
H44 H 0.8319 0.5960 0.4910
H45 H 0.7337 0.4799 0.4694
N2 N 0.9942(3) 1.1141(3) 0.78807(14)
C40 C 1.0032(4) 1.1504(4) 0.72252(18)
H52 H 0.9585 1.2189 0.7198
H53 H 0.9659 1.0863 0.6830
H54 H 1.0912 1.1701 0.7208
C41 C 1.0337(3) 1.1906(4) 0.84931(18)
H55 H 1.0659 1.2684 0.8500
C42 C 0.9482(4) 1.0051(4) 0.7865(2)
H56 H 0.9208 0.9524 0.7426
C43 C 0.9787(5) 1.0409(8) 0.9102(3)
C44 C 1.0273(5) 1.1556(6) 0.9115(2)
H57 H 1.0558 1.2091 0.9550
C45 C 0.9396(5) 0.9677(5) 0.8460(3)
H58 H 0.9059 0.8895 0.8431
C46 C 0.9585(9) 0.9761(9) 0.9688(5)
H59 H 0.8719 0.9802 0.9768
H60 H 0.9696 0.8927 0.9537
N2A N 1.0058(3) 0.8859(3) 1.21193(14)
C40A C 0.9968(4) 0.8496(4) 1.27748(18)
H52A H 1.0415 0.7811 1.2802
H53A H 1.0341 0.9137 1.3170
H54A H 0.9088 0.8299 1.2792
C41A C 0.9663(3) 0.8094(4) 1.15069(18)
H55A H 0.9341 0.7316 1.1500
C42A C 1.0518(4) 0.9949(4) 1.2135(2)
H56A H 1.0792 1.0476 1.2574
C43A C 1.0213(5) 0.9591(8) 1.0898(3)
C44A C 0.9727(5) 0.8444(6) 1.0885(2)
H57A H 0.9442 0.7909 1.0450
C45A C 1.0604(5) 1.0323(5) 1.1540(3)
H58A H 1.0941 1.1105 1.1569
C46A C 1.0415(9) 1.0239(9) 1.0312(5)
H59A H 1.1281 1.0198 1.0232
H60A H 1.0304 1.1073 1.0463
N3 N 0.8014(4) 1.3433(4) 0.7276(2)
C48 C 0.7281(5) 1.3628(4) 0.6861(2)
C49 C 0.6327(7) 1.3845(6) 0.6310(3)
H63 H 0.6674 1.3832 0.5884
H64 H 0.6048 1.4611 0.6460
H65 H 0.5616 1.3237 0.6213
O16 O 0.8190(5) 0.7384(4) 0.70728(17)
H66 H 0.7747 0.7895 0.6947
H67 H 0.8388 0.6966 0.6716
H46? H 0.5770 0.5644 0.4984
H47? H 0.6094 0.6895 0.4801
C38? C 0.9372(8) 0.6098(9) 0.5626(5)
H48? H 1.0010 0.5920 0.5333
H49? H 0.9590 0.6916 0.5891
C39? C 0.8138(13) 0.6001(11) 0.5160(6)
H50? H 0.8219 0.6388 0.4767
H51? H 0.7824 0.5167 0.4963
O15? O 0.7277(10) 0.6546(9) 0.5555(5)
C47? C 1.0057(15) 1.0598(16) 0.9944(6)
H61? H 1.0904 1.1004 1.0149
H62? H 0.9435 1.1053 1.0149
loop_
_geom_bond_atom_site_label_1
_geom_bond_atom_site_label_2
_geom_bond_site_symmetry_1
_geom_bond_site_symmetry_2
P1 F1 1_555 1_555
F2 P1 1_555 1_555
F3 P1 1_555 1_555
F4 P1 1_555 1_555
F5 P1 1_555 1_555
F6 P1 1_555 1_555
O1 C4 1_555 1_555
O2 C6 1_555 1_555
O3 C3 1_555 1_555
O4 C18 1_555 1_555
O5 C15 1_555 1_555
O6 C8 1_555 1_555
O7 C26 1_555 1_555
O8 C22 1_555 1_555
O9 C24 1_555 1_555
O10 C21 1_555 1_555
C1 H1 1_555 1_555
C2 C3 1_555 1_555
C3 C12 1_555 1_555
C4 C7 1_555 1_555
N1 C14 1_555 1_555
C5 O3 1_555 1_555
H2 C5 1_555 1_555
H3 C5 1_555 1_555
C6 C1 1_555 1_555
O11 C15 1_555 1_555
C7 H4 1_555 1_555
C8 C11 1_555 1_555
C9 C4 1_555 1_555
H5 C9 1_555 1_555
C10 C2 1_555 1_555
H6 C10 1_555 1_555
C11 C9 1_555 1_555
C12 C1 1_555 1_555
H7 C12 1_555 1_555
C13 O1 1_555 1_555
H8 C13 1_555 1_555
H9 C13 1_555 1_555
C14 C15 1_555 1_555
C16 O5 1_555 1_555
H10 C16 1_555 1_555
H11 C16 1_555 1_555
C17 O2 1_555 1_555
H12 C17 1_555 1_555
H13 C17 1_555 1_555
C18 H14 1_555 1_555
H15 C18 1_555 1_555
C19 C7 1_555 1_555
H16 C19 1_555 1_555
C20 O4 1_555 1_555
H17 C20 1_555 1_555
H18 C20 1_555 1_555
C21 C18 1_555 1_555
H19 C21 1_555 1_555
H20 C21 1_555 1_555
C22 H21 1_555 1_555
H22 C22 1_555 1_555
C23 O8 1_555 1_555
H23 C23 1_555 1_555
H24 C23 1_555 1_555
C24 C5 1_555 1_555
H25 C24 1_555 1_555
H26 C24 1_555 1_555
O12 C31 1_555 1_555
C25 N1 1_555 1_555
C26 C11 1_555 1_555
H27 C26 1_555 1_555
H28 C26 1_555 1_555
C27 O10 1_555 1_555
H29 C27 1_555 1_555
H30 C27 1_555 1_555
O13 C30 1_555 1_555
C28 O6 1_555 1_555
H31 C28 1_555 1_555
H32 C28 1_555 1_555
C29 C14 1_555 1_555
H33 C29 1_555 1_555
C30 O7 1_555 1_555
C31 C28 1_555 1_555
H34 C31 1_555 1_555
H35 C31 1_555 1_555
O14 C33 1_555 1_555
C32 C29 1_555 1_555
H36 C32 1_555 1_555
C33 H37 1_555 1_555
H38 C33 1_555 1_555
C34 C25 1_555 1_555
H39 C34 1_555 1_555
C35 O9 1_555 1_555
H40 C35 1_555 1_555
H41 C35 1_555 1_555
C36 O12 1_555 1_555
H42 C36 1_555 1_555
H43 C36 1_555 1_555
C37 O14 1_555 1_555
H44 C37 1_555 1_555
H45 C37 1_555 1_555
N2 C40 1_555 1_555
C40 H52 1_555 1_555
H53 C40 1_555 1_555
H54 C40 1_555 1_555
C41 N2 1_555 1_555
H55 C41 1_555 1_555
C42 N2 1_555 1_555
H56 C42 1_555 1_555
C43 C44 1_555 1_555
C44 C41 1_555 1_555
H57 C44 1_555 1_555
C45 C42 1_555 1_555
H58 C45 1_555 1_555
C46 C43 1_555 1_555
H59 C46 1_555 1_555
H60 C46 1_555 1_555
N3 C48 1_555 1_555
C48 C49 1_555 1_555
C49 H63 1_555 1_555
H64 C49 1_555 1_555
H65 C49 1_555 1_555
O16 H66 1_555 1_555
H67 O16 1_555 1_555
N2A C40A 1_555 1_555
C40A H52A 1_555 1_555
H53A C40A 1_555 1_555
H54A C40A 1_555 1_555
C41A N2A 1_555 1_555
H55A C41A 1_555 1_555
C42A N2A 1_555 1_555
H56A C42A 1_555 1_555
C43A C44A 1_555 1_555
C44A C41A 1_555 1_555
H57A C44A 1_555 1_555
C45A C42A 1_555 1_555
H58A C45A 1_555 1_555
C46A C46 1_555 1_555
H59A C46A 1_555 1_555
H60A C46A 1_555 1_555
C2 C16 1_555 1_555
C6 C10 1_555 1_555
C8 C19 1_555 1_555
C13 C23 1_555 1_555
C17 C20 1_555 1_555
C22 C27 1_555 1_555
C25 C30 1_555 1_555
C32 C34 1_555 1_555
C33 C35 1_555 1_555
C36 C37 1_555 1_555
C43 C45 1_555 1_555
C43A C45A 1_555 1_555
C43A C46A 1_555 1_555

#END
