
#######################################################################
#
#                 Cambridge Crystallographic Data Centre
#                                CCDC 
#
#######################################################################
#
# If this CIF has been generated from an entry in the Cambridge 
# Structural Database, then it will include bibliographic, chemical, 
# crystal, experimental, refinement or atomic coordinate data resulting 
# from the CCDC's data processing and validation procedures.
#
#######################################################################

data_NUHDAW
_chemical_formula_moiety         '4(C16 H14 O4),C4 H8 O1'
_chemical_name_systematic        
'tetrakis((R,R)-2,3-Diphenylsuccinic acid) 2,3-buteneoxide clathrate'
_symmetry_cell_setting           tetragonal
_symmetry_space_group_name_H-M   'I 4'
_symmetry_Int_Tables_number      79
_space_group_name_Hall           'I 4'
loop_
_symmetry_equiv_pos_site_id
_symmetry_equiv_pos_as_xyz
1 x,y,z
2 -x,-y,z
3 -y,x,z
4 y,-x,z
5 1/2+x,1/2+y,1/2+z
6 1/2-x,1/2-y,1/2+z
7 1/2-y,1/2+x,1/2+z
8 1/2+y,1/2-x,1/2+z
_cell_length_a                   16.3890(3)
_cell_length_b                   16.3890(3)
_cell_length_c                   11.3011(3)
_cell_angle_alpha                90
_cell_angle_beta                 90
_cell_angle_gamma                90
_cell_volume                     3035.47
_exptl_crystal_colour            colorless
_exptl_crystal_description       plate
_cell_formula_units_Z            2
loop_
_atom_site_label
_atom_site_type_symbol
_atom_site_fract_x
_atom_site_fract_y
_atom_site_fract_z
O5 O -0.0438(14) 0.0578(13) 0.3712(19)
C17 C 0.021(9) 0.016(12) 0.548(2)
C18 C 0.0000 0.0000 0.436(3)
C19 C 0.0000 0.0000 0.316(2)
C20 C 0.021(5) 0.018(6) 0.2013(17)
O5B O -0.0578(13) -0.0438(14) 0.3712(19)
O5A O 0.0438(14) -0.0578(13) 0.3712(19)
O5C O 0.0578(13) 0.0438(14) 0.3712(19)
C17A C -0.021(9) -0.016(12) 0.548(2)
C17C C 0.016(12) -0.021(9) 0.548(2)
C17B C -0.016(12) 0.021(9) 0.548(2)
C20A C -0.021(5) -0.018(6) 0.2013(17)
C20B C -0.018(6) 0.021(5) 0.2013(17)
C20C C 0.018(6) -0.021(5) 0.2013(17)
O1 O 0.77678(16) 0.12585(13) 0.2813(2)
H1 H 0.777(2) 0.0728(12) 0.293(4)
O2 O 0.79821(16) 0.13612(13) 0.4747(2)
O3 O 0.96637(14) 0.24212(16) 0.3243(2)
O4 O 0.98461(14) 0.25373(17) 0.5182(2)
H2 H 1.0312(15) 0.232(2) 0.503(4)
C1 C 0.79078(17) 0.16739(17) 0.3778(3)
C2 C 0.79360(17) 0.25880(15) 0.3600(3)
H3 H 0.8092 0.2700 0.2779
C3 C 0.70789(17) 0.29120(15) 0.3804(3)
C4 C 0.6597(2) 0.3122(2) 0.2852(3)
H4 H 0.6808 0.3101 0.2089
C5 C 0.5792(3) 0.3366(2) 0.3039(5)
H5 H 0.5467 0.3509 0.2397
C6 C 0.5477(2) 0.3396(2) 0.4150(6)
H6 H 0.4935 0.3542 0.4270
C7 C 0.5962(2) 0.3210(2) 0.5081(4)
H7 H 0.5757 0.3252 0.5846
C8 C 0.67532(19) 0.2962(2) 0.4912(3)
H8 H 0.7072 0.2826 0.5564
C9 C 0.94142(17) 0.26073(16) 0.4225(4)
C10 C 0.85739(16) 0.29751(16) 0.4426(3)
H9 H 0.8412 0.2867 0.5246
C11 C 0.86589(16) 0.38918(18) 0.4267(4)
C12 C 0.8728(3) 0.4228(2) 0.3171(5)
H10 H 0.8696 0.3896 0.2505
C13 C 0.8847(4) 0.5068(4) 0.3041(8)
H11 H 0.8894 0.5281 0.2282
C14 C 0.8893(3) 0.5554(3) 0.3921(10)
H12 H 0.8981 0.6109 0.3803
C15 C 0.8809(4) 0.5243(4) 0.5054(8)
H13 H 0.8842 0.5588 0.5704
C16 C 0.8671(3) 0.4395(3) 0.5221(5)
H14 H 0.8590 0.4187 0.5977
loop_
_geom_bond_atom_site_label_1
_geom_bond_atom_site_label_2
_geom_bond_site_symmetry_1
_geom_bond_site_symmetry_2
O1 H1 1_555 1_555
O2 C1 1_555 1_555
O3 C9 1_555 1_555
O4 H2 1_555 1_555
C1 O1 1_555 1_555
C2 C1 1_555 1_555
H3 C2 1_555 1_555
C3 C2 1_555 1_555
C4 C3 1_555 1_555
H4 C4 1_555 1_555
C5 C4 1_555 1_555
H5 C5 1_555 1_555
C6 C5 1_555 1_555
H6 C6 1_555 1_555
C7 C6 1_555 1_555
H7 C7 1_555 1_555
C8 C3 1_555 1_555
H8 C8 1_555 1_555
C9 O4 1_555 1_555
C10 C2 1_555 1_555
H9 C10 1_555 1_555
C11 C10 1_555 1_555
C12 C11 1_555 1_555
H10 C12 1_555 1_555
C13 C12 1_555 1_555
H11 C13 1_555 1_555
C14 C13 1_555 1_555
H12 C14 1_555 1_555
C15 C14 1_555 1_555
H13 C15 1_555 1_555
C16 C11 1_555 1_555
H14 C16 1_555 1_555
O5 C18 1_555 1_555
C17 C18 1_555 1_555
C18 C19 1_555 1_555
C19 O5 1_555 1_555
C20 C19 1_555 1_555
O5B O5 1_555 1_555
O5A C18 1_555 1_555
O5C O5 1_555 1_555
C17A C17 1_555 1_555
C17C C17 1_555 1_555
C17B C17 1_555 1_555
C20A C19 1_555 1_555
C20B C19 1_555 1_555
C20C C19 1_555 1_555
C7 C8 1_555 1_555
C9 C10 1_555 1_555
C15 C16 1_555 1_555
C18 O5B 1_555 1_555
C18 O5C 1_555 1_555
C18 C17A 1_555 1_555
C18 C17C 1_555 1_555
C18 C17B 1_555 1_555
C19 O5B 1_555 1_555
C19 O5A 1_555 1_555
C19 O5C 1_555 1_555
C20 C20A 1_555 1_555
C20 C20B 1_555 1_555
C20 C20C 1_555 1_555
O5B O5A 1_555 1_555
O5A O5C 1_555 1_555
C17A C17C 1_555 1_555
C17A C17B 1_555 1_555
C17C C17B 1_555 1_555
C20A C20B 1_555 1_555
C20A C20C 1_555 1_555
C20B C20C 1_555 1_555

#END
