
#######################################################################
#
#                 Cambridge Crystallographic Data Centre
#                                CCDC 
#
#######################################################################
#
# If this CIF has been generated from an entry in the Cambridge 
# Structural Database, then it will include bibliographic, chemical, 
# crystal, experimental, refinement or atomic coordinate data resulting 
# from the CCDC's data processing and validation procedures.
#
#######################################################################

data_NUHWUK
_chemical_formula_moiety         'C18 H19 N1 O3'
_chemical_name_systematic        
N-(2-(methoxymethoxy)-1,2-diphenylvinyl)acetamide
_symmetry_cell_setting           orthorhombic
_symmetry_space_group_name_H-M   'P n a 21'
_symmetry_Int_Tables_number      33
_space_group_name_Hall           'P 2c -2n'
loop_
_symmetry_equiv_pos_site_id
_symmetry_equiv_pos_as_xyz
1 x,y,z
2 -x,-y,1/2+z
3 1/2+x,1/2-y,z
4 1/2-x,1/2+y,1/2+z
_cell_length_a                   9.2847(17)
_cell_length_b                   14.479(3)
_cell_length_c                   12.199(2)
_cell_angle_alpha                90
_cell_angle_beta                 90
_cell_angle_gamma                90
_cell_volume                     1639.95
_exptl_crystal_description       block
_cell_formula_units_Z            4
loop_
_atom_site_label
_atom_site_type_symbol
_atom_site_fract_x
_atom_site_fract_y
_atom_site_fract_z
C1 C 0.6944(2) -0.10025(15) 0.17361(19)
H1 H 0.7692 -0.0699 0.1380
C2 C 0.60535(19) -0.05201(12) 0.24340(14)
C3 C 0.4939(2) -0.09824(14) 0.29390(17)
H2 H 0.4316 -0.0663 0.3400
C4 C 0.4739(3) -0.19111(17) 0.2767(2)
H3 H 0.3991 -0.2218 0.3120
C5 C 0.5632(4) -0.23835(17) 0.2083(2)
H4 H 0.5492 -0.3012 0.1970
C6 C 0.6731(3) -0.19386(16) 0.1561(2)
H5 H 0.7335 -0.2262 0.1090
C7 C 0.61941(18) 0.04962(11) 0.26062(14)
C8 C 0.69227(16) 0.09154(10) 0.34028(14)
C9 C 0.78237(18) 0.04305(10) 0.42220(14)
C10 C 0.7567(2) 0.05585(13) 0.53306(15)
H6 H 0.6823 0.0945 0.5553
C11 C 0.8403(3) 0.01186(13) 0.61111(19)
H7 H 0.8209 0.0206 0.6852
C12 C 0.9515(3) -0.04440(14) 0.5798(2)
H8 H 1.0074 -0.0741 0.6324
C13 C 0.9800(2) -0.05668(15) 0.4705(2)
H9 H 1.0566 -0.0939 0.4489
C14 C 0.8956(2) -0.01409(13) 0.39229(17)
H10 H 0.9150 -0.0239 0.3184
C15 C 0.78780(17) 0.24619(11) 0.35758(17)
C16 C 0.7522(2) 0.34678(11) 0.36688(19)
H11 H 0.8120 0.3746 0.4219
H12 H 0.6529 0.3537 0.3870
H13 H 0.7690 0.3765 0.2977
C17 C 0.5468(2) 0.09456(14) 0.08115(15)
H14 H 0.5341 0.0302 0.0614
H15 H 0.4722 0.1298 0.0444
C18 C 0.7020(3) 0.21962(16) 0.0574(2)
H16 H 0.6140 0.2521 0.0423
H17 H 0.7754 0.2398 0.0074
H18 H 0.7318 0.2320 0.1313
N1 N 0.67597(13) 0.18836(9) 0.35412(12)
H19 H 0.5905 0.2106 0.3605
O1 O 0.52924(13) 0.10395(9) 0.19541(11)
O2 O 0.67934(15) 0.12397(10) 0.04430(12)
O3 O 0.91156(12) 0.21821(8) 0.35139(16)
loop_
_geom_bond_atom_site_label_1
_geom_bond_atom_site_label_2
_geom_bond_site_symmetry_1
_geom_bond_site_symmetry_2
C1 H1 1_555 1_555
C2 C1 1_555 1_555
C3 C2 1_555 1_555
H2 C3 1_555 1_555
C4 C3 1_555 1_555
H3 C4 1_555 1_555
C5 C4 1_555 1_555
H4 C5 1_555 1_555
C6 C1 1_555 1_555
H5 C6 1_555 1_555
C7 C2 1_555 1_555
C8 C7 1_555 1_555
C9 C8 1_555 1_555
C10 C9 1_555 1_555
H6 C10 1_555 1_555
C11 C10 1_555 1_555
H7 C11 1_555 1_555
C12 C11 1_555 1_555
H8 C12 1_555 1_555
C13 C12 1_555 1_555
H9 C13 1_555 1_555
C14 C9 1_555 1_555
H10 C14 1_555 1_555
C15 C16 1_555 1_555
C16 H11 1_555 1_555
H12 C16 1_555 1_555
H13 C16 1_555 1_555
C17 H14 1_555 1_555
H15 C17 1_555 1_555
C18 H16 1_555 1_555
H17 C18 1_555 1_555
H18 C18 1_555 1_555
N1 C8 1_555 1_555
H19 N1 1_555 1_555
O1 C7 1_555 1_555
O2 C17 1_555 1_555
O3 C15 1_555 1_555
C5 C6 1_555 1_555
C13 C14 1_555 1_555
C15 N1 1_555 1_555
C17 O1 1_555 1_555
C18 O2 1_555 1_555

#END
