
#######################################################################
#
#                 Cambridge Crystallographic Data Centre
#                                CCDC 
#
#######################################################################
#
# If this CIF has been generated from an entry in the Cambridge 
# Structural Database, then it will include bibliographic, chemical, 
# crystal, experimental, refinement or atomic coordinate data resulting 
# from the CCDC's data processing and validation procedures.
#
#######################################################################

data_NUJQUF
_chemical_formula_moiety         'C14 H27 N3'
_chemical_name_systematic        2,5-bis((t-Butylamino)methyl)pyrrole
_symmetry_cell_setting           monoclinic
_symmetry_space_group_name_H-M   'C 2/c'
_symmetry_Int_Tables_number      15
_space_group_name_Hall           '-C 2yn'
loop_
_symmetry_equiv_pos_site_id
_symmetry_equiv_pos_as_xyz
1 x,y,z
2 -x,y,1/2-z
3 1/2+x,1/2+y,z
4 1/2-x,1/2+y,1/2-z
5 -x,-y,-z
6 x,-y,1/2+z
7 1/2-x,1/2-y,-z
8 1/2+x,1/2-y,1/2+z
_cell_length_a                   9.3561(4)
_cell_length_b                   18.4768(7)
_cell_length_c                   17.9197(9)
_cell_angle_alpha                90
_cell_angle_beta                 95.515(3)
_cell_angle_gamma                90
_cell_volume                     3083.45
_exptl_crystal_colour            colorless
_exptl_crystal_description       block
_cell_formula_units_Z            8
_chemical_properties_physical    hygroscopic
loop_
_atom_site_label
_atom_site_type_symbol
_atom_site_fract_x
_atom_site_fract_y
_atom_site_fract_z
C1 C 0.7808(3) 0.07040(16) 0.31000(14)
C2 C 0.7668(3) 0.17565(14) 0.12776(14)
C3 C 0.7599(3) 0.13552(16) 0.26086(14)
H1 H 0.6600 0.1502 0.2574
H2 H 0.8177 0.1752 0.2827
C4 C 0.6844(3) 0.0254(2) 0.33735(16)
H3 H 0.5852 0.0310 0.3315
C5 C 0.7592(3) -0.03093(18) 0.37591(17)
H4 H 0.7189 -0.0698 0.3994
C6 C 0.9028(3) -0.01830(19) 0.37258(17)
C7 C 1.2718(3) -0.10484(18) 0.3898(3)
C8 C 0.8532(4) 0.24286(18) 0.1473(2)
H5 H 0.8248 0.2631 0.1929
H6 H 0.8365 0.2776 0.1075
H7 H 0.9534 0.2308 0.1539
C9 C 0.6074(4) 0.1943(3) 0.1174(2)
H8 H 0.5788 0.2144 0.1631
H9 H 0.5528 0.1512 0.1050
H10 H 0.5902 0.2290 0.0777
C10 C 0.8110(5) 0.1443(2) 0.05510(18)
H11 H 0.9116 0.1331 0.0610
H12 H 0.7924 0.1791 0.0155
H13 H 0.7570 0.1011 0.0428
C11 C 1.0406(4) -0.0508(2) 0.4131(2)
H14 H 1.0744 -0.0203 0.4552
H15 H 1.0202 -0.0984 0.4323
N1 N 1.1514(3) -0.05644(19) 0.3617(2)
H16 H 1.1476 -0.0341 0.3195
C12 C 1.3738(4) -0.0653(3) 0.4476(2)
H17 H 1.4166 -0.0250 0.4241
H18 H 1.4477 -0.0979 0.4676
H19 H 1.3213 -0.0480 0.4875
C13 C 1.3544(6) -0.1090(3) 0.3186(3)
H20 H 1.3449 -0.0638 0.2921
H21 H 1.3152 -0.1472 0.2867
H22 H 1.4541 -0.1184 0.3331
N2 N 0.8010(2) 0.11988(11) 0.18599(11)
H23 H 0.8431 0.0801 0.1762
N3 N 0.9139(2) 0.04411(14) 0.33241(13)
H24 H 0.9933 0.0638 0.3227
C14 C 1.2313(7) -0.1818(3) 0.3990(6)
H25 H 1.2210 -0.2050 0.3509
H26 H 1.1419 -0.1843 0.4211
H27 H 1.3047 -0.2058 0.4310
C15? C 1.2377(14) -0.1663(7) 0.4617(11)
C16? C 0.9994(10) -0.0833(6) 0.3773(5)
H28? H 1.3087 -0.2040 0.4646
H29? H 1.1440 -0.1871 0.4507
H30? H 1.2420 -0.1411 0.5087
H31? H 1.1477 -0.0106 0.4248
H32? H 0.9688 -0.1187 0.4124
H33? H 1.0023 -0.1059 0.3286
N4? N 1.1378(9) -0.0524(5) 0.4038(5)
loop_
_geom_bond_atom_site_label_1
_geom_bond_atom_site_label_2
_geom_bond_site_symmetry_1
_geom_bond_site_symmetry_2
C1 C3 1_555 1_555
C2 C8 1_555 1_555
C3 H1 1_555 1_555
H2 C3 1_555 1_555
C4 C1 1_555 1_555
H3 C4 1_555 1_555
C5 C4 1_555 1_555
H4 C5 1_555 1_555
C6 C5 1_555 1_555
C7 N1 1_555 1_555
C8 H5 1_555 1_555
H6 C8 1_555 1_555
H7 C8 1_555 1_555
C9 C2 1_555 1_555
H8 C9 1_555 1_555
H9 C9 1_555 1_555
H10 C9 1_555 1_555
C10 C2 1_555 1_555
H11 C10 1_555 1_555
H12 C10 1_555 1_555
H13 C10 1_555 1_555
C11 C6 1_555 1_555
H14 C11 1_555 1_555
H15 C11 1_555 1_555
N1 C11 1_555 1_555
H16 N1 1_555 1_555
C12 C7 1_555 1_555
H17 C12 1_555 1_555
H18 C12 1_555 1_555
H19 C12 1_555 1_555
C13 C7 1_555 1_555
H20 C13 1_555 1_555
H21 C13 1_555 1_555
H22 C13 1_555 1_555
N2 C2 1_555 1_555
H23 N2 1_555 1_555
N3 C1 1_555 1_555
H24 N3 1_555 1_555
C14 C7 1_555 1_555
H25 C14 1_555 1_555
H26 C14 1_555 1_555
H27 C14 1_555 1_555
C3 N2 1_555 1_555
C6 N3 1_555 1_555

#END
