
#######################################################################
#
#                 Cambridge Crystallographic Data Centre
#                                CCDC 
#
#######################################################################
#
# If this CIF has been generated from an entry in the Cambridge 
# Structural Database, then it will include bibliographic, chemical, 
# crystal, experimental, refinement or atomic coordinate data resulting 
# from the CCDC's data processing and validation procedures.
#
#######################################################################

data_NUJQEP
_chemical_formula_moiety         'C16 H13 Cl1 N2 O2'
_chemical_name_systematic        
2-(Chloromethyl)-3-(4-methoxyphenyl)quinazolin-4(3H)-one
_symmetry_cell_setting           triclinic
_symmetry_space_group_name_H-M   'P -1'
_symmetry_Int_Tables_number      2
_space_group_name_Hall           '-P 1'
loop_
_symmetry_equiv_pos_site_id
_symmetry_equiv_pos_as_xyz
1 x,y,z
2 -x,-y,-z
_cell_length_a                   9.7105(19)
_cell_length_b                   10.406(2)
_cell_length_c                   14.871(3)
_cell_angle_alpha                78.30(3)
_cell_angle_beta                 74.63(3)
_cell_angle_gamma                84.60(3)
_cell_volume                     1417.53
_exptl_crystal_colour            colorless
_exptl_crystal_description       block
_chemical_melting_point          '138-140 deg.C'
_cell_formula_units_Z            4
_exptl_crystal_recrystallization_method ethanol
loop_
_atom_site_label
_atom_site_type_symbol
_atom_site_fract_x
_atom_site_fract_y
_atom_site_fract_z
Cl1 Cl 0.96260(4) 0.18228(4) 0.46433(3)
O1 O 0.75758(11) -0.25291(9) 0.80536(7)
N1 N 0.70457(12) 0.27573(11) 0.64484(8)
O2 O 0.47535(11) 0.26601(10) 0.73654(8)
N2 N 0.79467(12) 0.46824(11) 0.53768(8)
C1 C 0.81172(14) 0.34776(12) 0.57762(9)
C2 C 0.66102(14) 0.53057(13) 0.56383(9)
C3 C 0.72618(14) 0.13793(12) 0.68273(9)
C4 C 0.95728(14) 0.28280(13) 0.54977(10)
H1 H 0.9808 0.2291 0.6056
H2 H 1.0279 0.3493 0.5231
C5 C 0.54836(14) 0.46880(13) 0.63427(10)
C6 C 0.64000(16) 0.66066(14) 0.51934(10)
H3 H 0.7132 0.7024 0.4715
C7 C 0.74638(14) -0.12560(13) 0.76065(9)
C8 C 0.78168(15) 0.09993(13) 0.76165(10)
H4 H 0.8110 0.1627 0.7883
C9 C 0.68203(15) 0.04550(13) 0.64296(10)
H5 H 0.6457 0.0721 0.5899
C10 C 0.56709(14) 0.33096(13) 0.67761(10)
C11 C 0.41764(16) 0.53696(15) 0.66168(12)
H6 H 0.3436 0.4959 0.7092
C12 C 0.79291(15) -0.03234(14) 0.80040(10)
H7 H 0.8312 -0.0589 0.8526
C13 C 0.69146(16) -0.08716(13) 0.68178(10)
H8 H 0.6613 -0.1495 0.6552
C14 C 0.39881(16) 0.66518(15) 0.61816(12)
H9 H 0.3121 0.7109 0.6362
C15 C 0.51034(17) 0.72609(14) 0.54687(11)
H10 H 0.4968 0.8124 0.5174
C16 C 0.69280(19) -0.34838(15) 0.77509(14)
H11 H 0.7076 -0.4338 0.8112
H12 H 0.7351 -0.3481 0.7089
H13 H 0.5921 -0.3275 0.7848
Cl2 Cl 0.76191(5) 0.98303(4) 0.39612(3)
N3 N 0.78862(12) 0.89781(11) 0.14159(8)
O3 O 0.81717(12) 0.80766(10) 0.00976(7)
O4 O 0.59809(12) 1.36577(11) -0.05455(9)
N4 N 0.84673(13) 0.77996(12) 0.28160(8)
C17 C 0.82370(14) 0.79340(13) 0.09218(9)
C18 C 0.86992(13) 0.67215(13) 0.14644(9)
C19 C 0.79908(15) 0.88380(13) 0.23434(9)
C20 C 0.59338(14) 1.03396(13) 0.09087(9)
H14 H 0.5316 0.9668 0.1224
C21 C 0.88400(14) 0.67056(13) 0.23790(9)
C22 C 0.54252(15) 1.14928(14) 0.04161(10)
H15 H 0.4471 1.1591 0.0396
C23 C 0.94759(17) 0.44448(15) 0.15730(11)
H16 H 0.9690 0.3689 0.1310
C24 C 0.90045(15) 0.55817(14) 0.10672(10)
H17 H 0.8889 0.5594 0.0464
C25 C 0.96325(16) 0.44290(15) 0.24845(11)
H18 H 0.9955 0.3660 0.2823
C26 C 0.63553(15) 1.24926(13) -0.00436(10)
C27 C 0.73588(14) 1.01949(13) 0.09278(9)
C28 C 0.93153(16) 0.55377(15) 0.28869(10)
H19 H 0.9416 0.5511 0.3495
C29 C 0.82898(15) 1.11930(15) 0.04680(11)
H20 H 0.9246 1.1089 0.0483
C30 C 0.77873(16) 1.23416(15) -0.00115(11)
H21 H 0.8404 1.3018 -0.0314
C31 C 0.7460(2) 1.00376(15) 0.27840(11)
H22 H 0.6464 1.0230 0.2780
H23 H 0.8000 1.0784 0.2402
C32 C 0.45353(17) 1.38395(16) -0.06242(12)
H24 H 0.4405 1.4689 -0.0996
H25 H 0.3898 1.3779 -0.0003
H26 H 0.4333 1.3172 -0.0926
loop_
_geom_bond_atom_site_label_1
_geom_bond_atom_site_label_2
_geom_bond_site_symmetry_1
_geom_bond_site_symmetry_2
Cl1 C4 1_555 1_555
O1 C7 1_555 1_555
N1 C1 1_555 1_555
O2 C10 1_555 1_555
N2 C1 1_555 1_555
C1 C4 1_555 1_555
C2 N2 1_555 1_555
C3 N1 1_555 1_555
C4 H1 1_555 1_555
H2 C4 1_555 1_555
C5 C2 1_555 1_555
C6 C2 1_555 1_555
H3 C6 1_555 1_555
C7 C12 1_555 1_555
C8 C3 1_555 1_555
H4 C8 1_555 1_555
C9 C3 1_555 1_555
H5 C9 1_555 1_555
C10 N1 1_555 1_555
C11 C5 1_555 1_555
H6 C11 1_555 1_555
C12 C8 1_555 1_555
H7 C12 1_555 1_555
C13 C7 1_555 1_555
H8 C13 1_555 1_555
C14 C11 1_555 1_555
H9 C14 1_555 1_555
C15 C6 1_555 1_555
H10 C15 1_555 1_555
C16 O1 1_555 1_555
H11 C16 1_555 1_555
H12 C16 1_555 1_555
H13 C16 1_555 1_555
Cl2 C31 1_555 1_555
N3 C17 1_555 1_555
O3 C17 1_555 1_555
O4 C26 1_555 1_555
N4 C19 1_555 1_555
C17 C18 1_555 1_555
C18 C21 1_555 1_555
C19 N3 1_555 1_555
C20 H14 1_555 1_555
C21 N4 1_555 1_555
C22 C20 1_555 1_555
H15 C22 1_555 1_555
C23 H16 1_555 1_555
C24 C18 1_555 1_555
H17 C24 1_555 1_555
C25 C23 1_555 1_555
H18 C25 1_555 1_555
C26 C22 1_555 1_555
C27 N3 1_555 1_555
C28 C21 1_555 1_555
H19 C28 1_555 1_555
C29 C27 1_555 1_555
H20 C29 1_555 1_555
C30 C26 1_555 1_555
H21 C30 1_555 1_555
C31 C19 1_555 1_555
H22 C31 1_555 1_555
H23 C31 1_555 1_555
C32 O4 1_555 1_555
H24 C32 1_555 1_555
H25 C32 1_555 1_555
H26 C32 1_555 1_555
C5 C10 1_555 1_555
C9 C13 1_555 1_555
C14 C15 1_555 1_555
C20 C27 1_555 1_555
C23 C24 1_555 1_555
C25 C28 1_555 1_555
C29 C30 1_555 1_555

#END
