
#######################################################################
#
#                 Cambridge Crystallographic Data Centre
#                                CCDC 
#
#######################################################################
#
# If this CIF has been generated from an entry in the Cambridge 
# Structural Database, then it will include bibliographic, chemical, 
# crystal, experimental, refinement or atomic coordinate data resulting 
# from the CCDC's data processing and validation procedures.
#
#######################################################################

data_NUKFIK
_chemical_formula_moiety         'C11 H7 Br3 Cl1 N1'
_chemical_name_systematic        
3-(Bromomethyl)-2-chloro-6-(dibromomethyl)quinoline
_symmetry_cell_setting           monoclinic
_symmetry_space_group_name_H-M   'P 21/n'
_symmetry_Int_Tables_number      14
_space_group_name_Hall           '-P 2yn'
loop_
_symmetry_equiv_pos_site_id
_symmetry_equiv_pos_as_xyz
1 x,y,z
2 1/2-x,1/2+y,1/2-z
3 -x,-y,-z
4 1/2+x,1/2-y,1/2+z
_cell_length_a                   8.9042(5)
_cell_length_b                   9.3375(4)
_cell_length_c                   15.5107(7)
_cell_angle_alpha                90
_cell_angle_beta                 104.553(5)
_cell_angle_gamma                90
_cell_volume                     1248.23
_exptl_crystal_colour            colorless
_exptl_crystal_description       Block
_cell_formula_units_Z            4
loop_
_atom_site_label
_atom_site_type_symbol
_atom_site_fract_x
_atom_site_fract_y
_atom_site_fract_z
Br1 Br 0.63474(10) 0.04489(9) 0.60991(6)
Br2 Br 0.45280(10) 0.74291(9) 0.12751(6)
Br3 Br 0.70035(11) 0.53886(11) 0.08299(6)
Cl1 Cl 0.8069(2) 0.38929(19) 0.67965(10)
N1 N 0.7951(7) 0.4817(7) 0.5207(4)
C1 C 0.7245(8) 0.3973(8) 0.5630(4)
C2 C 0.5903(8) 0.3156(7) 0.5249(4)
C3 C 0.5309(8) 0.3292(7) 0.4361(5)
H1 H 0.4411 0.2763 0.4074
C4 C 0.6012(8) 0.4213(7) 0.3857(4)
C5 C 0.7359(8) 0.4957(8) 0.4305(5)
C6 C 0.8084(8) 0.5892(9) 0.3828(5)
H2 H 0.8991 0.6397 0.4129
C7 C 0.7505(9) 0.6079(9) 0.2946(5)
H3 H 0.8002 0.6722 0.2631
C8 C 0.6160(8) 0.5326(8) 0.2483(5)
C9 C 0.5450(8) 0.4423(7) 0.2927(4)
H4 H 0.4555 0.3916 0.2612
C10 C 0.5174(9) 0.2212(8) 0.5792(5)
H5 H 0.4102 0.1981 0.5456
H6 H 0.5120 0.2718 0.6344
C11 C 0.5499(9) 0.5552(8) 0.1511(5)
H7 H 0.4683 0.4809 0.1295
loop_
_geom_bond_atom_site_label_1
_geom_bond_atom_site_label_2
_geom_bond_site_symmetry_1
_geom_bond_site_symmetry_2
Br1 C10 1_555 1_555
Br2 C11 1_555 1_555
Br3 C11 1_555 1_555
Cl1 C1 1_555 1_555
N1 C1 1_555 1_555
C1 C2 1_555 1_555
C2 C3 1_555 1_555
C3 H1 1_555 1_555
C4 C3 1_555 1_555
C5 N1 1_555 1_555
C6 C5 1_555 1_555
H2 C6 1_555 1_555
C7 C6 1_555 1_555
H3 C7 1_555 1_555
C8 C7 1_555 1_555
C9 C4 1_555 1_555
H4 C9 1_555 1_555
C10 C2 1_555 1_555
H5 C10 1_555 1_555
H6 C10 1_555 1_555
C11 C8 1_555 1_555
H7 C11 1_555 1_555
C4 C5 1_555 1_555
C8 C9 1_555 1_555

#END
