
#######################################################################
#
#                 Cambridge Crystallographic Data Centre
#                                CCDC 
#
#######################################################################
#
# If this CIF has been generated from an entry in the Cambridge 
# Structural Database, then it will include bibliographic, chemical, 
# crystal, experimental, refinement or atomic coordinate data resulting 
# from the CCDC's data processing and validation procedures.
#
#######################################################################

data_NUKHAE
_chemical_formula_moiety         'C24 H24 N2 S1'
_chemical_name_systematic        
2-(butylsulfanyl)-4,6-bis(2-phenylvinyl)pyrimidine
_symmetry_cell_setting           monoclinic
_symmetry_space_group_name_H-M   'P 21/c'
_symmetry_Int_Tables_number      14
_space_group_name_Hall           '-P 2ybc'
loop_
_symmetry_equiv_pos_site_id
_symmetry_equiv_pos_as_xyz
1 x,y,z
2 -x,1/2+y,1/2-z
3 -x,-y,-z
4 x,1/2-y,1/2+z
_cell_length_a                   9.0447(18)
_cell_length_b                   9.3798(19)
_cell_length_c                   23.802(7)
_cell_angle_alpha                90
_cell_angle_beta                 103.44(3)
_cell_angle_gamma                90
_cell_volume                     1964
_exptl_crystal_colour            yellow
_exptl_crystal_description       Prism
_cell_formula_units_Z            4
loop_
_atom_site_label
_atom_site_type_symbol
_atom_site_fract_x
_atom_site_fract_y
_atom_site_fract_z
S1 S 0.14918(4) 0.26493(4) 0.884447(14)
N1 N 0.29497(11) 0.49599(11) 0.93583(4)
N2 N 0.14298(11) 0.35823(11) 0.98633(4)
C1 C 0.20397(13) 0.38866(13) 0.94166(5)
C2 C 0.17542(13) 0.45128(13) 1.03058(5)
C3 C 0.26563(13) 0.57051(13) 1.02829(5)
H1 H 0.2852 0.6377 1.0590
C4 C 0.32650(13) 0.58934(13) 0.98031(5)
C5 C 0.42814(13) 0.70891(13) 0.97653(5)
H2 H 0.4634 0.7661 1.0099
C6 C 0.47367(14) 0.74153(13) 0.92880(6)
H3 H 0.4330 0.6851 0.8957
C7 C 0.57954(14) 0.85485(13) 0.92161(6)
C8 C 0.60175(15) 0.88109(15) 0.86649(6)
H4 H 0.5451 0.8285 0.8346
C9 C 0.70538(16) 0.98295(16) 0.85754(7)
H5 H 0.7194 0.9993 0.8197
C10 C 0.78780(16) 1.06029(15) 0.90348(7)
H6 H 0.8589 1.1298 0.8974
C11 C 0.76658(16) 1.03641(15) 0.95844(7)
H7 H 0.8230 1.0901 0.9901
C12 C 0.66348(15) 0.93468(14) 0.96766(6)
H8 H 0.6498 0.9192 1.0056
C13 C 0.11375(13) 0.42439(14) 1.08114(5)
H9 H 0.1239 0.4973 1.1095
C14 C 0.04425(14) 0.30423(14) 1.08999(5)
H10 H 0.0362 0.2324 1.0613
C15 C -0.02107(14) 0.27106(14) 1.13927(5)
C16 C -0.09987(15) 0.14320(15) 1.13976(6)
H11 H -0.1076 0.0781 1.1086
C17 C -0.16687(16) 0.10953(16) 1.18474(7)
H12 H -0.2208 0.0224 1.1841
C18 C -0.15537(16) 0.20253(17) 1.23059(6)
H13 H -0.2010 0.1794 1.2616
C19 C -0.07708(15) 0.32952(16) 1.23120(6)
H14 H -0.0692 0.3936 1.2627
C20 C -0.01020(15) 0.36359(15) 1.18626(6)
H15 H 0.0438 0.4508 1.1873
C21 C 0.25447(15) 0.32567(15) 0.83313(5)
H16 H 0.2058 0.2874 0.7945
H17 H 0.2489 0.4310 0.8308
C22 C 0.42011(15) 0.28109(15) 0.84837(6)
H18 H 0.4260 0.1761 0.8524
H19 H 0.4702 0.3232 0.8861
C23 C 0.50566(18) 0.32712(16) 0.80329(7)
H20 H 0.6071 0.2814 0.8124
H21 H 0.4501 0.2916 0.7650
C24 C 0.52647(17) 0.48708(16) 0.79936(7)
H22 H 0.5838 0.5078 0.7701
H23 H 0.5823 0.5235 0.8369
H24 H 0.4267 0.5333 0.7886
loop_
_geom_bond_atom_site_label_1
_geom_bond_atom_site_label_2
_geom_bond_site_symmetry_1
_geom_bond_site_symmetry_2
S1 C1 1_555 1_555
N1 C1 1_555 1_555
N2 C1 1_555 1_555
C2 N2 1_555 1_555
C3 C2 1_555 1_555
H1 C3 1_555 1_555
C4 N1 1_555 1_555
C5 C4 1_555 1_555
H2 C5 1_555 1_555
C6 C5 1_555 1_555
H3 C6 1_555 1_555
C7 C6 1_555 1_555
C8 C7 1_555 1_555
H4 C8 1_555 1_555
C9 C8 1_555 1_555
H5 C9 1_555 1_555
C10 C9 1_555 1_555
H6 C10 1_555 1_555
C11 C10 1_555 1_555
H7 C11 1_555 1_555
C12 C7 1_555 1_555
H8 C12 1_555 1_555
C13 C2 1_555 1_555
H9 C13 1_555 1_555
C14 C13 1_555 1_555
H10 C14 1_555 1_555
C15 C14 1_555 1_555
C16 C15 1_555 1_555
H11 C16 1_555 1_555
C17 C16 1_555 1_555
H12 C17 1_555 1_555
C18 C17 1_555 1_555
H13 C18 1_555 1_555
C19 C18 1_555 1_555
H14 C19 1_555 1_555
C20 C15 1_555 1_555
H15 C20 1_555 1_555
C21 S1 1_555 1_555
H16 C21 1_555 1_555
H17 C21 1_555 1_555
C22 C21 1_555 1_555
H18 C22 1_555 1_555
H19 C22 1_555 1_555
C23 C22 1_555 1_555
H20 C23 1_555 1_555
H21 C23 1_555 1_555
C24 C23 1_555 1_555
H22 C24 1_555 1_555
H23 C24 1_555 1_555
H24 C24 1_555 1_555
C3 C4 1_555 1_555
C11 C12 1_555 1_555
C19 C20 1_555 1_555

#END
