
#######################################################################
#
#                 Cambridge Crystallographic Data Centre
#                                CCDC 
#
#######################################################################
#
# If this CIF has been generated from an entry in the Cambridge 
# Structural Database, then it will include bibliographic, chemical, 
# crystal, experimental, refinement or atomic coordinate data resulting 
# from the CCDC's data processing and validation procedures.
#
#######################################################################

data_NUKJIN
_chemical_formula_moiety         'C21 H24 N2 O2 S1'
_chemical_name_systematic        
(3aR,8S,8aS)-1,3-dibenzyl-8-hydroxyhexahydro-1H-thiepino[3,4-d]imidazol-2(3H)-one
_symmetry_cell_setting           orthorhombic
_symmetry_space_group_name_H-M   'P 21 21 21'
_symmetry_Int_Tables_number      19
_space_group_name_Hall           'P 2ac 2ab'
loop_
_symmetry_equiv_pos_site_id
_symmetry_equiv_pos_as_xyz
1 x,y,z
2 1/2-x,-y,1/2+z
3 -x,1/2+y,1/2-z
4 1/2+x,1/2-y,-z
_cell_length_a                   8.261(4)
_cell_length_b                   14.045(6)
_cell_length_c                   32.656(15)
_cell_angle_alpha                90
_cell_angle_beta                 90
_cell_angle_gamma                90
_cell_volume                     3788.94
_exptl_crystal_colour            colorless
_exptl_crystal_description       prism
_chemical_melting_point          186.1-187.28deg.C
_cell_formula_units_Z            8
_exptl_crystal_recrystallization_method 'ethyl acetate/cyclohexane'
loop_
_atom_site_label
_atom_site_type_symbol
_atom_site_fract_x
_atom_site_fract_y
_atom_site_fract_z
S1 S 0.51380(12) 0.26248(6) 0.07237(3)
N1 N 0.3084(3) 0.45950(16) 0.07167(7)
N2 N 0.4053(3) 0.46624(16) 0.00875(6)
O1 O 0.1283(2) 0.45794(15) 0.01772(6)
O2 O 0.8208(3) 0.45487(17) 0.04904(8)
C1 C 0.2671(3) 0.46087(19) 0.03170(9)
C2 C 0.5456(3) 0.4853(2) 0.03446(8)
H1 H 0.5640 0.5542 0.0337
C3 C 0.4838(3) 0.46128(18) 0.07794(8)
H2 H 0.5086 0.5156 0.0957
C4 C 0.5460(4) 0.3719(2) 0.09913(9)
H3 H 0.4944 0.3672 0.1257
H4 H 0.6613 0.3793 0.1038
C5 C 0.6890(4) 0.2610(2) 0.03975(12)
H5 H 0.7845 0.2706 0.0565
H6 H 0.6979 0.1984 0.0274
C6 C 0.6888(4) 0.3349(3) 0.00588(11)
H7 H 0.7790 0.3215 -0.0122
H8 H 0.5903 0.3269 -0.0099
C7 C 0.6998(4) 0.4383(2) 0.01881(10)
H9 H 0.7329 0.4742 -0.0055
C8 C 0.1914(4) 0.4679(2) 0.10465(8)
H10 H 0.0905 0.4916 0.0934
H11 H 0.2305 0.5148 0.1241
C9 C 0.1571(4) 0.3762(2) 0.12749(9)
C10 C 0.1040(4) 0.2965(3) 0.10662(10)
H12 H 0.0899 0.2991 0.0784
C11 C 0.0719(5) 0.2137(3) 0.12728(15)
H13 H 0.0357 0.1608 0.1128
C12 C 0.0914(5) 0.2074(4) 0.16729(17)
H14 H 0.0702 0.1501 0.1805
C13 C 0.1424(5) 0.2844(4) 0.18961(12)
H15 H 0.1542 0.2800 0.2179
C14 C 0.1767(4) 0.3702(3) 0.16910(10)
H16 H 0.2127 0.4229 0.1838
C15 C 0.3986(4) 0.50072(19) -0.03325(8)
H17 H 0.2975 0.4798 -0.0454
H18 H 0.4859 0.4715 -0.0486
C16 C 0.4110(4) 0.6078(2) -0.03786(8)
C17 C 0.5032(4) 0.6466(2) -0.06868(8)
H19 H 0.5635 0.6068 -0.0856
C18 C 0.5073(5) 0.7443(2) -0.07492(11)
H20 H 0.5692 0.7696 -0.0961
C19 C 0.4210(5) 0.8030(3) -0.05017(12)
H21 H 0.4228 0.8684 -0.0547
C20 C 0.3313(5) 0.7664(2) -0.01863(11)
H22 H 0.2745 0.8071 -0.0013
C21 C 0.3251(4) 0.6694(2) -0.01253(9)
H23 H 0.2629 0.6448 0.0087
H47 H 0.917(6) 0.450(3) 0.0315(12)
S2 S 0.58906(13) 0.47943(7) 0.22214(4)
N3 N 0.3793(3) 0.67489(18) 0.22881(7)
N4 N 0.4719(3) 0.68181(17) 0.16539(7)
O3 O 0.1960(2) 0.66889(16) 0.17547(7)
O4 O 0.8882(3) 0.68655(18) 0.20605(7)
C22 C 0.3355(4) 0.6747(2) 0.18894(10)
C23 C 0.6117(3) 0.7065(2) 0.19091(8)
H24 H 0.6211 0.7760 0.1907
C24 C 0.5547(4) 0.6774(2) 0.23407(9)
H25 H 0.5810 0.7292 0.2530
C25 C 0.6173(4) 0.5846(2) 0.25235(10)
H26 H 0.5645 0.5750 0.2786
H27 H 0.7322 0.5919 0.2576
C26 C 0.7720(5) 0.4851(3) 0.19222(13)
H28 H 0.8629 0.4931 0.2107
H29 H 0.7861 0.4247 0.1783
C27 C 0.7774(4) 0.5640(3) 0.16067(11)
H30 H 0.8755 0.5557 0.1448
H31 H 0.6870 0.5545 0.1422
C28 C 0.7724(3) 0.6665(2) 0.17487(10)
H32 H 0.8024 0.7055 0.1512
C29 C 0.2675(4) 0.6852(2) 0.26275(9)
H33 H 0.1664 0.7105 0.2522
H34 H 0.3115 0.7319 0.2816
C30 C 0.2311(4) 0.5958(3) 0.28635(9)
C31 C 0.2712(5) 0.5850(4) 0.32714(12)
H35 H 0.3282 0.6325 0.3408
C32 C 0.2242(6) 0.4997(5) 0.34833(13)
H36 H 0.2519 0.4901 0.3756
C33 C 0.1367(7) 0.4329(4) 0.32695(19)
H37 H 0.1025 0.3783 0.3406
C34 C 0.0995(6) 0.4430(3) 0.28816(16)
H38 H 0.0417 0.3957 0.2746
C35 C 0.1463(5) 0.5238(3) 0.26771(11)
H39 H 0.1195 0.5300 0.2402
C36 C 0.4564(4) 0.7158(2) 0.12350(8)
H40 H 0.3660 0.6830 0.1109
H41 H 0.5533 0.6977 0.1087
C37 C 0.4313(3) 0.8219(2) 0.11784(8)
C38 C 0.3551(4) 0.8793(2) 0.14635(9)
H42 H 0.3235 0.8534 0.1713
C39 C 0.3251(4) 0.9738(3) 0.13856(11)
H43 H 0.2727 1.0109 0.1581
C40 C 0.3720(5) 1.0133(3) 0.10223(14)
H44 H 0.3506 1.0771 0.0968
C41 C 0.4504(5) 0.9588(3) 0.07390(12)
H45 H 0.4846 0.9857 0.0494
C42 C 0.4791(4) 0.8634(3) 0.08162(9)
H46 H 0.5317 0.8267 0.0620
H48 H 0.996(5) 0.676(2) 0.1936(10)
loop_
_geom_bond_atom_site_label_1
_geom_bond_atom_site_label_2
_geom_bond_site_symmetry_1
_geom_bond_site_symmetry_2
S1 C4 1_555 1_555
N1 C1 1_555 1_555
N2 C1 1_555 1_555
O1 C1 1_555 1_555
O2 C7 1_555 1_555
C2 N2 1_555 1_555
H1 C2 1_555 1_555
C3 N1 1_555 1_555
H2 C3 1_555 1_555
C4 C3 1_555 1_555
H3 C4 1_555 1_555
H4 C4 1_555 1_555
C5 S1 1_555 1_555
H5 C5 1_555 1_555
H6 C5 1_555 1_555
C6 C5 1_555 1_555
H7 C6 1_555 1_555
H8 C6 1_555 1_555
C7 C2 1_555 1_555
H9 C7 1_555 1_555
C8 N1 1_555 1_555
H10 C8 1_555 1_555
H11 C8 1_555 1_555
C9 C8 1_555 1_555
C10 C9 1_555 1_555
H12 C10 1_555 1_555
C11 C10 1_555 1_555
H13 C11 1_555 1_555
C12 C11 1_555 1_555
H14 C12 1_555 1_555
C13 C12 1_555 1_555
H15 C13 1_555 1_555
C14 C9 1_555 1_555
H16 C14 1_555 1_555
C15 N2 1_555 1_555
H17 C15 1_555 1_555
H18 C15 1_555 1_555
C16 C15 1_555 1_555
C17 C16 1_555 1_555
H19 C17 1_555 1_555
C18 C17 1_555 1_555
H20 C18 1_555 1_555
C19 C18 1_555 1_555
H21 C19 1_555 1_555
C20 C19 1_555 1_555
H22 C20 1_555 1_555
C21 C16 1_555 1_555
H23 C21 1_555 1_555
S2 C25 1_555 1_555
N3 C22 1_555 1_555
N4 C22 1_555 1_555
O3 C22 1_555 1_555
O4 C28 1_555 1_555
C23 N4 1_555 1_555
H24 C23 1_555 1_555
C24 N3 1_555 1_555
H25 C24 1_555 1_555
C25 C24 1_555 1_555
H26 C25 1_555 1_555
H27 C25 1_555 1_555
C26 S2 1_555 1_555
H28 C26 1_555 1_555
H29 C26 1_555 1_555
C27 C26 1_555 1_555
H30 C27 1_555 1_555
H31 C27 1_555 1_555
C28 C23 1_555 1_555
H32 C28 1_555 1_555
C29 N3 1_555 1_555
H33 C29 1_555 1_555
H34 C29 1_555 1_555
C30 C29 1_555 1_555
C31 C30 1_555 1_555
H35 C31 1_555 1_555
C32 C31 1_555 1_555
H36 C32 1_555 1_555
C33 C32 1_555 1_555
H37 C33 1_555 1_555
C34 C33 1_555 1_555
H38 C34 1_555 1_555
C35 C30 1_555 1_555
H39 C35 1_555 1_555
C36 N4 1_555 1_555
H40 C36 1_555 1_555
H41 C36 1_555 1_555
C37 C36 1_555 1_555
C38 C37 1_555 1_555
H42 C38 1_555 1_555
C39 C38 1_555 1_555
H43 C39 1_555 1_555
C40 C39 1_555 1_555
H44 C40 1_555 1_555
C41 C40 1_555 1_555
H45 C41 1_555 1_555
C42 C37 1_555 1_555
H46 C42 1_555 1_555
H47 O2 1_555 1_555
H48 O4 1_555 1_555
C2 C3 1_555 1_555
C6 C7 1_555 1_555
C13 C14 1_555 1_555
C20 C21 1_555 1_555
C23 C24 1_555 1_555
C27 C28 1_555 1_555
C34 C35 1_555 1_555
C41 C42 1_555 1_555

#END
