
#######################################################################
#
#                 Cambridge Crystallographic Data Centre
#                                CCDC 
#
#######################################################################
#
# If this CIF has been generated from an entry in the Cambridge 
# Structural Database, then it will include bibliographic, chemical, 
# crystal, experimental, refinement or atomic coordinate data resulting 
# from the CCDC's data processing and validation procedures.
#
#######################################################################

data_NUKJUA
_chemical_name_common            
1,1-dicyano-2,3-bis(dicyanomethylidene)-4,4-bis(methyl(phenyl)amino)but-4-ylium-1-ide
_chemical_formula_moiety         'C26 H16 N8'
_chemical_name_systematic        
1,1,4,4-tetracyano-2-(dicyanomethylene)-3-((methyl(phenyl)amino)(methyl(phenyl)iminio)methyl)but-3-en-1-ide
_symmetry_cell_setting           orthorhombic
_symmetry_space_group_name_H-M   'P 21 21 21'
_symmetry_Int_Tables_number      19
_space_group_name_Hall           'P 2ac 2ab'
loop_
_symmetry_equiv_pos_site_id
_symmetry_equiv_pos_as_xyz
1 x,y,z
2 1/2-x,-y,1/2+z
3 1/2+x,1/2-y,-z
4 -x,1/2+y,1/2-z
_cell_length_a                   8.8506(15)
_cell_length_b                   12.565(2)
_cell_length_c                   20.208(4)
_cell_angle_alpha                90
_cell_angle_beta                 90
_cell_angle_gamma                90
_cell_volume                     2247.29
_cell_formula_units_Z            4
_exptl_crystal_recrystallization_method DCM/hexane
loop_
_atom_site_label
_atom_site_type_symbol
_atom_site_fract_x
_atom_site_fract_y
_atom_site_fract_z
N1 N 0.3511(4) 0.1176(3) 0.76313(19)
C1 C 0.2448(5) -0.0015(4) 0.9314(2)
N2 N 0.5094(4) -0.1059(3) 1.01681(16)
N3 N 0.4557(4) -0.0090(3) 1.11187(16)
N4 N 0.6957(5) 0.2157(3) 0.89688(17)
C2 C 0.4199(5) 0.2742(4) 0.9923(2)
C3 C 0.3279(5) 0.0447(4) 1.1458(2)
H1 H 0.2477 -0.0148 1.1633
H2 H 0.2715 0.0982 1.1113
H3 H 0.3706 0.0902 1.1878
C4 C 0.5453(5) 0.2011(4) 1.0874(2)
C5 C 0.5633(5) -0.0648(3) 1.1528(2)
N5 N 0.6132(5) 0.2249(3) 1.1334(2)
C6 C 0.4658(5) 0.1793(4) 1.02676(19)
N6 N 0.1115(5) -0.0719(3) 1.03585(19)
C7 C 0.3901(5) 0.1134(4) 0.8171(2)
C8 C 0.7958(5) -0.0429(4) 0.8894(2)
H4 H 0.8941 0.0073 0.8838
C9 C 0.7178(5) -0.0442(4) 0.9492(2)
H5 H 0.7563 0.0034 0.9904
C10 C 0.5837(5) 0.1685(4) 0.8911(2)
C11 C 0.3722(5) 0.0644(3) 0.9361(2)
C12 C 0.4368(5) 0.0804(3) 1.0037(2)
C13 C 0.5908(5) -0.1069(4) 0.9551(2)
C14 C 0.7144(5) -0.0540(4) 1.1377(2)
H6 H 0.7490 -0.0051 1.0964
N7 N 0.1421(5) -0.0774(3) 0.8220(2)
C15 C 0.4687(5) -0.0143(3) 1.0452(2)
C16 C 0.4460(5) 0.1138(3) 0.8833(2)
N8 N 0.3852(5) 0.3514(3) 0.96678(18)
C17 C 0.6232(5) -0.1751(4) 1.2450(2)
H7 H 0.5885 -0.2213 1.2875
C18 C 0.8217(6) -0.1063(4) 1.1756(2)
H8 H 0.9405 -0.0991 1.1641
C19 C 0.1707(5) -0.0396(4) 0.9894(2)
C20 C 0.5154(6) -0.1226(4) 1.2070(2)
H9 H 0.3969 -0.1270 1.2195
C21 C 0.1890(5) -0.0415(4) 0.8703(2)
C22 C 0.5413(6) -0.1714(4) 0.9037(2)
H10 H 0.4431 -0.2215 0.9094
C23 C 0.4809(6) -0.2087(3) 1.0500(2)
H11 H 0.4629 -0.2703 1.0128
H12 H 0.3807 -0.2020 1.0811
H13 H 0.5779 -0.2296 1.0805
C24 C 0.6218(6) -0.1697(4) 0.8447(2)
H14 H 0.5856 -0.2192 0.8039
C25 C 0.7741(6) -0.1683(4) 1.2287(2)
H15 H 0.8565 -0.2115 1.2576
C26 C 0.7481(6) -0.1054(4) 0.8372(2)
H16 H 0.8088 -0.1042 0.7908
loop_
_geom_bond_atom_site_label_1
_geom_bond_atom_site_label_2
_geom_bond_site_symmetry_1
_geom_bond_site_symmetry_2
N1 C7 1_555 1_555
C1 C11 1_555 1_555
N2 C13 1_555 1_555
N3 C3 1_555 1_555
N4 C10 1_555 1_555
C2 C6 1_555 1_555
C3 H1 1_555 1_555
H2 C3 1_555 1_555
H3 C3 1_555 1_555
C4 N5 1_555 1_555
C5 N3 1_555 1_555
C6 C4 1_555 1_555
N6 C19 1_555 1_555
C7 C16 1_555 1_555
C8 H4 1_555 1_555
C9 C8 1_555 1_555
H5 C9 1_555 1_555
C10 C16 1_555 1_555
C11 C12 1_555 1_555
C12 C6 1_555 1_555
C13 C9 1_555 1_555
C14 C5 1_555 1_555
H6 C14 1_555 1_555
N7 C21 1_555 1_555
C15 N2 1_555 1_555
C16 C11 1_555 1_555
N8 C2 1_555 1_555
C17 H7 1_555 1_555
C18 C14 1_555 1_555
H8 C18 1_555 1_555
C19 C1 1_555 1_555
C20 C5 1_555 1_555
H9 C20 1_555 1_555
C21 C1 1_555 1_555
C22 C13 1_555 1_555
H10 C22 1_555 1_555
C23 N2 1_555 1_555
H11 C23 1_555 1_555
H12 C23 1_555 1_555
H13 C23 1_555 1_555
C24 C22 1_555 1_555
H14 C24 1_555 1_555
C25 C17 1_555 1_555
H15 C25 1_555 1_555
C26 C8 1_555 1_555
H16 C26 1_555 1_555
N3 C15 1_555 1_555
C12 C15 1_555 1_555
C17 C20 1_555 1_555
C18 C25 1_555 1_555
C24 C26 1_555 1_555

#END
