
#######################################################################
#
#                 Cambridge Crystallographic Data Centre
#                                CCDC 
#
#######################################################################
#
# If this CIF has been generated from an entry in the Cambridge 
# Structural Database, then it will include bibliographic, chemical, 
# crystal, experimental, refinement or atomic coordinate data resulting 
# from the CCDC's data processing and validation procedures.
#
#######################################################################

data_NUKMIP
_chemical_formula_moiety         'C19 H18 O2'
_chemical_name_systematic        't-Butyl anthracene-9-carboxylate'
_symmetry_cell_setting           monoclinic
_symmetry_space_group_name_H-M   'P 21/n'
_symmetry_Int_Tables_number      14
_space_group_name_Hall           '-P 2yn'
loop_
_symmetry_equiv_pos_site_id
_symmetry_equiv_pos_as_xyz
1 x,y,z
2 1/2-x,1/2+y,1/2-z
3 -x,-y,-z
4 1/2+x,1/2-y,1/2+z
_cell_length_a                   9.115(2)
_cell_length_b                   17.516(4)
_cell_length_c                   9.837(2)
_cell_angle_alpha                90
_cell_angle_beta                 100.26(4)
_cell_angle_gamma                90
_cell_volume                     1545.45
_exptl_crystal_colour            colorless
_exptl_crystal_description       'rectangular needles'
_chemical_melting_point          157-160deg.C
_cell_formula_units_Z            4
_exptl_crystal_recrystallization_method ethanol
loop_
_atom_site_label
_atom_site_type_symbol
_atom_site_fract_x
_atom_site_fract_y
_atom_site_fract_z
O1 O -0.0583(8) 0.2325(4) 0.9053(9)
O2 O 0.0829(5) 0.3166(2) 0.8188(5)
C1 C -0.2825(10) 0.3749(4) 0.7327(10)
C2 C -0.4023(11) 0.4084(5) 0.6569(11)
C3 C -0.4646(10) 0.4732(6) 0.7177(14)
C4 C -0.4064(10) 0.5016(5) 0.8425(10)
C5 C 0.0966(9) 0.3555(4) 1.1651(11)
C6 C 0.1485(10) 0.3832(6) 1.2938(10)
C7 C 0.0861(11) 0.4478(5) 1.3423(9)
C8 C -0.0290(11) 0.4824(5) 1.2677(10)
C9 C -0.0917(8) 0.3644(4) 0.9437(8)
C10 C -0.2165(9) 0.4908(4) 1.0482(10)
C11 C -0.2162(9) 0.3995(4) 0.8641(9)
C12 C -0.2823(9) 0.4644(4) 0.9188(9)
C13 C -0.0326(9) 0.3915(4) 1.0753(8)
C14 C -0.0960(9) 0.4558(4) 1.1287(9)
C15 C -0.0223(9) 0.2966(4) 0.8888(8)
C16 C 0.1682(9) 0.2601(4) 0.7513(8)
C17 C 0.2454(12) 0.2079(8) 0.8462(11)
C18 C 0.0732(12) 0.2208(8) 0.6458(12)
C19 C 0.2817(17) 0.3099(7) 0.7071(17)
H1 H -0.2416 0.3313 0.6937
H2 H -0.4446 0.3898 0.5665
H3 H -0.5485 0.4989 0.6642
H4 H -0.4506 0.5444 0.8807
H5 H 0.1434 0.3119 1.1318
H6 H 0.2304 0.3578 1.3510
H7 H 0.1271 0.4668 1.4326
H8 H -0.0704 0.5264 1.3050
H9 H -0.2600 0.5344 1.0850
H10 H 0.2992 0.1717 0.8007
H11 H 0.3136 0.2344 0.9161
H12 H 0.1725 0.1816 0.8882
H13 H 0.0228 0.2560 0.5784
H14 H 0.1289 0.1849 0.6016
H15 H 0.0012 0.1940 0.6881
H16 H 0.2465 0.3488 0.6405
H17 H 0.3321 0.3332 0.7908
H18 H 0.3496 0.2769 0.6709
loop_
_geom_bond_atom_site_label_1
_geom_bond_atom_site_label_2
_geom_bond_site_symmetry_1
_geom_bond_site_symmetry_2
O1 C15 1_555 1_555
O2 C15 1_555 1_555
C1 C2 1_555 1_555
C2 C3 1_555 1_555
C3 C4 1_555 1_555
C4 C12 1_555 1_555
C5 C6 1_555 1_555
C6 C7 1_555 1_555
C7 C8 1_555 1_555
C8 C14 1_555 1_555
C9 C11 1_555 1_555
C10 C12 1_555 1_555
C11 C1 1_555 1_555
C12 C11 1_555 1_555
C13 C5 1_555 1_555
C14 C10 1_555 1_555
C15 C9 1_555 1_555
C16 O2 1_555 1_555
C17 C16 1_555 1_555
C18 C16 1_555 1_555
C19 C16 1_555 1_555
H1 C1 1_555 1_555
H2 C2 1_555 1_555
H3 C3 1_555 1_555
H4 C4 1_555 1_555
H5 C5 1_555 1_555
H6 C6 1_555 1_555
H7 C7 1_555 1_555
H8 C8 1_555 1_555
H9 C10 1_555 1_555
H10 C17 1_555 1_555
H11 C17 1_555 1_555
H12 C17 1_555 1_555
H13 C18 1_555 1_555
H14 C18 1_555 1_555
H15 C18 1_555 1_555
H16 C19 1_555 1_555
H17 C19 1_555 1_555
H18 C19 1_555 1_555
C9 C13 1_555 1_555
C13 C14 1_555 1_555

#END
