
#######################################################################
#
#                 Cambridge Crystallographic Data Centre
#                                CCDC 
#
#######################################################################
#
# If this CIF has been generated from an entry in the Cambridge 
# Structural Database, then it will include bibliographic, chemical, 
# crystal, experimental, refinement or atomic coordinate data resulting 
# from the CCDC's data processing and validation procedures.
#
#######################################################################

data_NUKMUB
_chemical_formula_moiety         'C21 H22 O2'
_chemical_name_systematic        
'rac-1-Ethyl-2-methylpropyl anthracene-9-carboxylate'
_symmetry_cell_setting           monoclinic
_symmetry_space_group_name_H-M   'P 21/c'
_symmetry_Int_Tables_number      14
_space_group_name_Hall           '-P 2ybc'
loop_
_symmetry_equiv_pos_site_id
_symmetry_equiv_pos_as_xyz
1 x,y,z
2 -x,1/2+y,1/2-z
3 -x,-y,-z
4 x,1/2-y,1/2+z
_cell_length_a                   7.869(3)
_cell_length_b                   18.528(9)
_cell_length_c                   12.090(5)
_cell_angle_alpha                90
_cell_angle_beta                 101.26(3)
_cell_angle_gamma                90
_cell_volume                     1728.75
_exptl_crystal_colour            yellow
_exptl_crystal_description       chunks
_chemical_melting_point          121-124deg.C
_cell_formula_units_Z            4
_exptl_crystal_recrystallization_method toluene
loop_
_atom_site_label
_atom_site_type_symbol
_atom_site_fract_x
_atom_site_fract_y
_atom_site_fract_z
O1 O 0.1017(4) 0.0727(2) 0.3928(2)
O2 O -0.1487(3) 0.0619(2) 0.2699(2)
C1 C 0.1391(5) -0.0714(3) 0.2212(4)
C2 C 0.1880(6) -0.1358(3) 0.1853(4)
C3 C 0.2631(6) -0.1399(3) 0.0875(4)
C4 C 0.2835(6) -0.0802(4) 0.0300(4)
C5 C 0.2264(7) 0.1865(4) -0.0209(4)
C6 C 0.1769(7) 0.2500(4) 0.0132(5)
C7 C 0.0983(6) 0.2536(3) 0.1094(5)
C8 C 0.0758(5) 0.1939(3) 0.1685(4)
C9 C 0.1049(4) 0.0617(3) 0.1953(3)
C10 C 0.2542(5) 0.0528(3) 0.0050(4)
C11 C 0.1557(4) -0.0058(3) 0.1619(3)
C12 C 0.2346(5) -0.0105(3) 0.0635(3)
C13 C 0.2050(5) 0.1199(3) 0.0380(3)
C14 C 0.1258(5) 0.1244(2) 0.1364(3)
C15 C 0.0235(5) 0.0659(3) 0.2977(3)
C16 C -0.2514(5) 0.0647(3) 0.3595(3)
C17 C -0.3961(6) 0.0106(3) 0.3240(4)
C18 C -0.3345(7) -0.0668(3) 0.3217(4)
C19 C -0.3053(5) 0.1422(3) 0.3744(3)
C20 C -0.3998(7) 0.1481(4) 0.4744(4)
C21 C -0.4146(6) 0.1755(3) 0.2679(4)
H1 H 0.0901 -0.0692 0.2879
H2 H 0.1719 -0.1783 0.2273
H3 H 0.2986 -0.1857 0.0629
H4 H 0.3333 -0.0842 -0.0361
H5 H 0.2774 0.1849 -0.0868
H6 H 0.1951 0.2928 -0.0277
H7 H 0.0615 0.2996 0.1328
H8 H 0.0253 0.1977 0.2344
H9 H 0.3070 0.0498 -0.0600
H10 H -0.1981 0.0506 0.4348
H11 H -0.4525 0.0234 0.2488
H12 H -0.4781 0.0129 0.3731
H13 H -0.4290 -0.0992 0.2958
H14 H -0.2784 -0.0800 0.3968
H15 H -0.2528 -0.0695 0.2724
H16 H -0.1971 0.1675 0.3832
H17 H -0.4324 0.1974 0.4831
H18 H -0.3250 0.1321 0.5424
H19 H -0.5017 0.1185 0.4596
H20 H -0.3585 0.1729 0.2043
H21 H -0.4331 0.2252 0.2849
H22 H -0.5241 0.1510 0.2505
loop_
_geom_bond_atom_site_label_1
_geom_bond_atom_site_label_2
_geom_bond_site_symmetry_1
_geom_bond_site_symmetry_2
O1 C15 1_555 1_555
O2 C15 1_555 1_555
C1 C2 1_555 1_555
C2 C3 1_555 1_555
C3 C4 1_555 1_555
C4 C12 1_555 1_555
C5 C6 1_555 1_555
C6 C7 1_555 1_555
C7 C8 1_555 1_555
C8 C14 1_555 1_555
C9 C11 1_555 1_555
C10 C12 1_555 1_555
C11 C1 1_555 1_555
C12 C11 1_555 1_555
C13 C5 1_555 1_555
C14 C9 1_555 1_555
C15 C9 1_555 1_555
C16 O2 1_555 1_555
C17 C16 1_555 1_555
C18 C17 1_555 1_555
C19 C16 1_555 1_555
C20 C19 1_555 1_555
C21 C19 1_555 1_555
H1 C1 1_555 1_555
H2 C2 1_555 1_555
H3 C3 1_555 1_555
H4 C4 1_555 1_555
H5 C5 1_555 1_555
H6 C6 1_555 1_555
H7 C7 1_555 1_555
H8 C8 1_555 1_555
H9 C10 1_555 1_555
H10 C16 1_555 1_555
H11 C17 1_555 1_555
H12 C17 1_555 1_555
H13 C18 1_555 1_555
H14 C18 1_555 1_555
H15 C18 1_555 1_555
H16 C19 1_555 1_555
H17 C20 1_555 1_555
H18 C20 1_555 1_555
H19 C20 1_555 1_555
H20 C21 1_555 1_555
H21 C21 1_555 1_555
H22 C21 1_555 1_555
C10 C13 1_555 1_555
C13 C14 1_555 1_555

#END
