
#######################################################################
#
#                 Cambridge Crystallographic Data Centre
#                                CCDC 
#
#######################################################################
#
# If this CIF has been generated from an entry in the Cambridge 
# Structural Database, then it will include bibliographic, chemical, 
# crystal, experimental, refinement or atomic coordinate data resulting 
# from the CCDC's data processing and validation procedures.
#
#######################################################################

data_NUMBUT
_chemical_formula_moiety         'C34 H38 S2'
_chemical_name_systematic        
5,5'-bis(2-(4-Pentylphenyl)vinyl)-2,2'-bithiophene
_symmetry_cell_setting           monoclinic
_symmetry_space_group_name_H-M   'C 2/c'
_symmetry_Int_Tables_number      15
_space_group_name_Hall           '-C 2yn'
loop_
_symmetry_equiv_pos_site_id
_symmetry_equiv_pos_as_xyz
1 x,y,z
2 -x,y,1/2-z
3 1/2+x,1/2+y,z
4 1/2-x,1/2+y,1/2-z
5 -x,-y,-z
6 x,-y,1/2+z
7 1/2-x,1/2-y,-z
8 1/2+x,1/2-y,1/2+z
_cell_length_a                   64.229(5)
_cell_length_b                   7.6301(5)
_cell_length_c                   5.8399(4)
_cell_angle_alpha                90
_cell_angle_beta                 92.136(4)
_cell_angle_gamma                90
_cell_volume                     2859.99
_exptl_crystal_colour            orange
_cell_formula_units_Z            4
loop_
_atom_site_label
_atom_site_type_symbol
_atom_site_fract_x
_atom_site_fract_y
_atom_site_fract_z
S1 S 0.22850(2) 0.32667(18) 0.2639(2)
C1 C 0.23911(8) 0.2415(6) 0.0185(8)
C2 C 0.22383(9) 0.1639(6) -0.1133(9)
H1 H 0.2264 0.1101 -0.2524
C3 C 0.20404(10) 0.1714(6) -0.0234(10)
H2 H 0.1922 0.1247 -0.0965
C4 C 0.20393(9) 0.2565(7) 0.1876(9)
C5 C 0.18654(9) 0.2809(7) 0.3346(10)
H3 H 0.1888 0.3544 0.4601
C6 C 0.16804(10) 0.2118(7) 0.3113(10)
H4 H 0.1661 0.1382 0.1854
C7 C 0.14984(10) 0.2312(7) 0.4504(10)
C8 C 0.13056(10) 0.1702(7) 0.3728(10)
H5 H 0.1296 0.1111 0.2334
C9 C 0.11290(10) 0.1933(7) 0.4928(10)
H6 H 0.1003 0.1515 0.4323
C10 C 0.11350(10) 0.2797(8) 0.7076(10)
C11 C 0.13284(10) 0.3346(7) 0.7860(10)
H7 H 0.1340 0.3889 0.9286
C12 C 0.15052(10) 0.3138(7) 0.6659(10)
H8 H 0.1632 0.3547 0.7273
C13 C 0.09449(11) 0.3089(9) 0.8392(12)
H9 H 0.0977 0.2672 0.9934
H10 H 0.0928 0.4349 0.8504
C14 C 0.07467(13) 0.2399(12) 0.7745(16)
H11 H 0.0760 0.1136 0.7632
H12 H 0.0709 0.2832 0.6222
C15 C 0.05693(14) 0.2785(12) 0.9258(19)
H13 H 0.0606 0.2334 1.0772
H14 H 0.0559 0.4048 0.9395
C16 C 0.03691(18) 0.2140(18) 0.864(2)
H15 H 0.0377 0.0874 0.8517
H16 H 0.0329 0.2591 0.7131
C17 C 0.01983(18) 0.2599(15) 1.027(3)
H17 H 0.0069 0.2094 0.9723
H18 H 0.0184 0.3849 1.0357
H19 H 0.0234 0.2143 1.1767
S1F S 0.27150(2) 0.17333(18) -0.2639(2)
C1F C 0.26089(8) 0.2585(6) -0.0185(8)
C2F C 0.27617(9) 0.3361(6) 0.1133(9)
H1F H 0.2736 0.3899 0.2524
C3F C 0.29596(10) 0.3286(6) 0.0234(10)
H2F H 0.3078 0.3753 0.0965
C4F C 0.29607(9) 0.2435(7) -0.1876(9)
C5F C 0.31346(9) 0.2191(7) -0.3346(10)
H3F H 0.3112 0.1456 -0.4601
C6F C 0.33196(10) 0.2882(7) -0.3113(10)
H4F H 0.3339 0.3618 -0.1854
C7F C 0.35016(10) 0.2688(7) -0.4504(10)
C8F C 0.36944(10) 0.3298(7) -0.3728(10)
H5F H 0.3704 0.3889 -0.2334
C9F C 0.38710(10) 0.3067(7) -0.4928(10)
H6F H 0.3997 0.3485 -0.4323
C10F C 0.38650(10) 0.2203(8) -0.7076(10)
C11F C 0.36716(10) 0.1654(7) -0.7860(10)
H7F H 0.3660 0.1111 -0.9286
C12F C 0.34948(10) 0.1862(7) -0.6659(10)
H8F H 0.3368 0.1453 -0.7273
C13F C 0.40551(11) 0.1911(9) -0.8392(12)
H9F H 0.4023 0.2328 -0.9934
H10F H 0.4072 0.0651 -0.8504
C14F C 0.42533(13) 0.2601(12) -0.7745(16)
H11F H 0.4240 0.3864 -0.7632
H12F H 0.4291 0.2168 -0.6222
C15F C 0.44307(14) 0.2215(12) -0.9258(19)
H13F H 0.4394 0.2666 -1.0772
H14F H 0.4441 0.0952 -0.9395
C16F C 0.46309(18) 0.2860(18) -0.864(2)
H15F H 0.4623 0.4126 -0.8517
H16F H 0.4671 0.2409 -0.7131
C17F C 0.48017(18) 0.2401(15) -1.027(3)
H17F H 0.4931 0.2906 -0.9723
H18F H 0.4816 0.1151 -1.0357
H19F H 0.4766 0.2857 -1.1767
loop_
_geom_bond_atom_site_label_1
_geom_bond_atom_site_label_2
_geom_bond_site_symmetry_1
_geom_bond_site_symmetry_2
S1 C1 1_555 1_555
C1 C2 1_555 1_555
C2 H1 1_555 1_555
C3 C2 1_555 1_555
H2 C3 1_555 1_555
C4 S1 1_555 1_555
C5 C4 1_555 1_555
H3 C5 1_555 1_555
C6 C5 1_555 1_555
H4 C6 1_555 1_555
C7 C6 1_555 1_555
C8 C7 1_555 1_555
H5 C8 1_555 1_555
C9 C8 1_555 1_555
H6 C9 1_555 1_555
C10 C9 1_555 1_555
C11 C10 1_555 1_555
H7 C11 1_555 1_555
C12 C7 1_555 1_555
H8 C12 1_555 1_555
C13 C10 1_555 1_555
H9 C13 1_555 1_555
H10 C13 1_555 1_555
C14 C13 1_555 1_555
H11 C14 1_555 1_555
H12 C14 1_555 1_555
C15 C14 1_555 1_555
H13 C15 1_555 1_555
H14 C15 1_555 1_555
C16 C15 1_555 1_555
H15 C16 1_555 1_555
H16 C16 1_555 1_555
C17 C16 1_555 1_555
H17 C17 1_555 1_555
H18 C17 1_555 1_555
H19 C17 1_555 1_555
S1F C1F 1_555 1_555
C1F C1 1_555 1_555
C2F C1F 1_555 1_555
H1F C2F 1_555 1_555
C3F C2F 1_555 1_555
H2F C3F 1_555 1_555
C4F S1F 1_555 1_555
C5F C4F 1_555 1_555
H3F C5F 1_555 1_555
C6F C5F 1_555 1_555
H4F C6F 1_555 1_555
C7F C6F 1_555 1_555
C8F C7F 1_555 1_555
H5F C8F 1_555 1_555
C9F C8F 1_555 1_555
H6F C9F 1_555 1_555
C10F C9F 1_555 1_555
C11F C10F 1_555 1_555
H7F C11F 1_555 1_555
C12F C7F 1_555 1_555
H8F C12F 1_555 1_555
C13F C10F 1_555 1_555
H9F C13F 1_555 1_555
H10F C13F 1_555 1_555
C14F C13F 1_555 1_555
H11F C14F 1_555 1_555
H12F C14F 1_555 1_555
C15F C14F 1_555 1_555
H13F C15F 1_555 1_555
H14F C15F 1_555 1_555
C16F C15F 1_555 1_555
H15F C16F 1_555 1_555
H16F C16F 1_555 1_555
C17F C16F 1_555 1_555
H17F C17F 1_555 1_555
H18F C17F 1_555 1_555
H19F C17F 1_555 1_555
C3 C4 1_555 1_555
C11 C12 1_555 1_555
C3F C4F 1_555 1_555
C11F C12F 1_555 1_555

#END
