
#######################################################################
#
#                 Cambridge Crystallographic Data Centre
#                                CCDC 
#
#######################################################################
#
# If this CIF has been generated from an entry in the Cambridge 
# Structural Database, then it will include bibliographic, chemical, 
# crystal, experimental, refinement or atomic coordinate data resulting 
# from the CCDC's data processing and validation procedures.
#
#######################################################################

data_NUMZIG
_chemical_formula_moiety         'C15 H13 Cl1 F1 N1 O2'
_chemical_name_systematic        
2-(3-chloro-4-hydroxyphenyl)-N-(4-fluorobenzyl)acetamide
_symmetry_cell_setting           monoclinic
_symmetry_space_group_name_H-M   'P 21'
_symmetry_Int_Tables_number      4
_space_group_name_Hall           'P 2yb'
loop_
_symmetry_equiv_pos_site_id
_symmetry_equiv_pos_as_xyz
1 x,y,z
2 -x,1/2+y,-z
_cell_length_a                   4.7614(5)
_cell_length_b                   11.0130(12)
_cell_length_c                   12.7850(13)
_cell_angle_alpha                90
_cell_angle_beta                 99.261(11)
_cell_angle_gamma                90
_cell_volume                     661.672
_exptl_crystal_colour            'pale brown'
_exptl_crystal_description       plate
_cell_formula_units_Z            2
loop_
_atom_site_label
_atom_site_type_symbol
_atom_site_fract_x
_atom_site_fract_y
_atom_site_fract_z
Cl1 Cl 0.7486(2) 0.51835(11) -0.20173(7)
F1 F -0.0667(5) 0.7614(2) 0.67787(19)
O1 O 1.0197(6) 0.2813(3) -0.1881(2)
O2 O 0.8377(4) 0.5422(2) 0.21219(18)
N1 N 0.4418(6) 0.5611(3) 0.2841(2)
C1 C 0.6074(7) 0.3631(3) 0.0667(3)
C2 C 0.6080(7) 0.4431(3) -0.0166(3)
C3 C 0.7469(7) 0.4133(3) -0.0999(3)
C4 C 0.8865(7) 0.3039(3) -0.1035(3)
C5 C 0.8838(7) 0.2236(3) -0.0210(3)
C6 C 0.7461(7) 0.2533(3) 0.0635(3)
C7 C 0.4615(7) 0.3976(3) 0.1592(3)
C8 C 0.5952(6) 0.5076(4) 0.2200(2)
C9 C 0.5468(8) 0.6676(4) 0.3467(3)
C10 C 0.3779(7) 0.6908(3) 0.4350(3)
C11 C 0.2513(8) 0.8024(3) 0.4430(3)
C12 C 0.1027(7) 0.8273(4) 0.5258(3)
C13 C 0.0818(7) 0.7384(4) 0.5980(3)
C14 C 0.2039(8) 0.6262(4) 0.5930(3)
C15 C 0.3543(7) 0.6037(4) 0.5111(3)
H1 H 0.269(7) 0.549(3) 0.277(2)
H2 H 0.51240 0.51880 -0.01650
H3 H 1.070(10) 0.204(5) -0.182(4)
H4 H 0.97670 0.14730 -0.02190
H5 H 0.74740 0.19710 0.11990
H6 H 0.46940 0.32770 0.20830
H7 H 0.25870 0.41510 0.13260
H8 H 0.53470 0.73960 0.29980
H9 H 0.74940 0.65510 0.37720
H10 H 0.26580 0.86310 0.39120
H11 H 0.01780 0.90460 0.53170
H12 H 0.18560 0.56560 0.64440
H13 H 0.44320 0.52700 0.50690
loop_
_geom_bond_atom_site_label_1
_geom_bond_atom_site_label_2
_geom_bond_site_symmetry_1
_geom_bond_site_symmetry_2
Cl1 C3 1_555 1_555
F1 C13 1_555 1_555
O1 C4 1_555 1_555
O2 C8 1_555 1_555
N1 C8 1_555 1_555
C1 C2 1_555 1_555
C2 C3 1_555 1_555
C3 C4 1_555 1_555
C4 C5 1_555 1_555
C5 C6 1_555 1_555
C6 C1 1_555 1_555
C7 C1 1_555 1_555
C8 C7 1_555 1_555
C9 N1 1_555 1_555
C10 C9 1_555 1_555
C11 C10 1_555 1_555
C12 C11 1_555 1_555
C13 C12 1_555 1_555
C14 C13 1_555 1_555
C15 C10 1_555 1_555
H1 N1 1_555 1_555
H2 C2 1_555 1_555
H3 O1 1_555 1_555
H4 C5 1_555 1_555
H5 C6 1_555 1_555
H6 C7 1_555 1_555
H7 C7 1_555 1_555
H8 C9 1_555 1_555
H9 C9 1_555 1_555
H10 C11 1_555 1_555
H11 C12 1_555 1_555
H12 C14 1_555 1_555
H13 C15 1_555 1_555
C14 C15 1_555 1_555

#END
