
#######################################################################
#
#                 Cambridge Crystallographic Data Centre
#                                CCDC 
#
#######################################################################
#
# If this CIF has been generated from an entry in the Cambridge 
# Structural Database, then it will include bibliographic, chemical, 
# crystal, experimental, refinement or atomic coordinate data resulting 
# from the CCDC's data processing and validation procedures.
#
#######################################################################

data_NUNKOY
_chemical_formula_moiety         'C60 H51 B3 N12'
_chemical_name_systematic        
4',6,8'-tris(4-methylphenyl)-1',2,2',4,10',12'-hexaphenyl-1',2,2',3-tetrahydro-10'H-spiro[1,2,4,5,3-tetrazaborinine-3,6'-[1,2,3,5,4]tetrazaborinino[5,4-a][1,2,4,3]triazaborolo[3,4-d][1,3,5,2,4,6]triazatriborinine]
_symmetry_cell_setting           monoclinic
_symmetry_space_group_name_H-M   'P 21/n'
_symmetry_Int_Tables_number      14
_space_group_name_Hall           '-P 2yn'
loop_
_symmetry_equiv_pos_site_id
_symmetry_equiv_pos_as_xyz
1 x,y,z
2 1/2-x,1/2+y,1/2-z
3 -x,-y,-z
4 1/2+x,1/2-y,1/2+z
_cell_length_a                   10.5968(4)
_cell_length_b                   17.7087(7)
_cell_length_c                   30.8111(10)
_cell_angle_alpha                90
_cell_angle_beta                 99.332(2)
_cell_angle_gamma                90
_cell_volume                     5705.35
_exptl_crystal_colour            purple
_exptl_crystal_description       plate
_cell_formula_units_Z            4
loop_
_atom_site_label
_atom_site_type_symbol
_atom_site_fract_x
_atom_site_fract_y
_atom_site_fract_z
N1 N 0.29627(15) 0.58631(10) 0.24481(5)
N2 N 0.27223(15) 0.59660(10) 0.20222(5)
N3 N 0.46931(15) 0.66118(10) 0.20110(5)
N4 N 0.50468(15) 0.65130(9) 0.24304(5)
N5 N 0.65741(15) 0.48204(10) 0.34136(5)
N6 N 0.64480(16) 0.44930(10) 0.29901(5)
N7 N 0.49717(15) 0.54281(9) 0.29678(5)
N8 N 0.54017(16) 0.59332(10) 0.37410(5)
N9 N 0.42471(16) 0.71337(11) 0.38880(6)
N10 N 0.29030(16) 0.70800(11) 0.37779(6)
N11 N 0.23799(16) 0.73804(10) 0.33666(5)
N12 N 0.40088(15) 0.66386(10) 0.31289(5)
C1 C 0.19108(19) 0.54923(12) 0.26067(7)
C2 C 0.1828(2) 0.54828(13) 0.30528(7)
H1 H 0.2501 0.5685 0.3262
C3 C 0.0752(2) 0.51753(14) 0.31899(8)
H2 H 0.0685 0.5180 0.3494
C4 C -0.0220(2) 0.48639(15) 0.28916(8)
H3 H -0.0959 0.4665 0.2988
C5 C -0.0107(2) 0.48449(15) 0.24536(8)
H4 H -0.0762 0.4617 0.2248
C6 C 0.0950(2) 0.51543(14) 0.23074(7)
H5 H 0.1018 0.5136 0.2004
C7 C 0.35678(19) 0.63229(12) 0.18199(7)
C8 C 0.32556(19) 0.64075(12) 0.13380(7)
C9 C 0.3699(2) 0.70223(14) 0.11272(7)
H6 H 0.4165 0.7410 0.1296
C10 C 0.3465(2) 0.70742(15) 0.06731(7)
H7 H 0.3779 0.7499 0.0536
C11 C 0.2787(2) 0.65230(14) 0.04128(7)
C12 C 0.2312(2) 0.59311(14) 0.06274(7)
H8 H 0.1818 0.5553 0.0459
C13 C 0.2536(2) 0.58717(14) 0.10806(7)
H9 H 0.2190 0.5457 0.1217
C14 C 0.2558(3) 0.65739(17) -0.00840(7)
H10 H 0.2617 0.6069 -0.0209
H11 H 0.3204 0.6903 -0.0179
H12 H 0.1704 0.6782 -0.0185
C15 C 0.62535(19) 0.68849(12) 0.25880(6)
C16 C 0.71967(19) 0.65336(13) 0.28854(7)
H13 H 0.7065 0.6038 0.2987
C17 C 0.8327(2) 0.69086(14) 0.30326(7)
H14 H 0.8971 0.6669 0.3237
C18 C 0.8534(2) 0.76300(14) 0.28851(7)
H15 H 0.9301 0.7892 0.2996
C19 C 0.7614(2) 0.79661(13) 0.25745(7)
H16 H 0.7761 0.8455 0.2466
C20 C 0.6483(2) 0.75936(13) 0.24225(7)
H17 H 0.5862 0.7822 0.2205
C21 C 0.76529(19) 0.45750(13) 0.37184(6)
C22 C 0.84308(19) 0.51020(14) 0.39639(7)
H18 H 0.8245 0.5625 0.3928
C23 C 0.9481(2) 0.48643(15) 0.42615(7)
H19 H 1.0000 0.5224 0.4436
C24 C 0.9770(2) 0.41079(16) 0.43034(8)
H20 H 1.0496 0.3945 0.4504
C25 C 0.9000(2) 0.35842(15) 0.40529(8)
H21 H 0.9203 0.3062 0.4082
C26 C 0.7938(2) 0.38132(14) 0.37596(7)
H22 H 0.7412 0.3452 0.3589
C27 C 0.55388(18) 0.48654(12) 0.27471(6)
C28 C 0.52158(18) 0.47036(12) 0.22718(6)
C29 C 0.4116(2) 0.43172(12) 0.20918(7)
H23 H 0.3530 0.4157 0.2276
C30 C 0.3867(2) 0.41636(13) 0.16452(7)
H24 H 0.3112 0.3897 0.1527
C31 C 0.4708(2) 0.43941(13) 0.13661(7)
C32 C 0.5802(2) 0.47773(13) 0.15493(7)
H25 H 0.6386 0.4940 0.1365
C33 C 0.6066(2) 0.49294(13) 0.19949(7)
H26 H 0.6829 0.5189 0.2113
C34 C 0.4433(3) 0.42362(16) 0.08780(7)
H27 H 0.4183 0.4706 0.0719
H28 H 0.3737 0.3868 0.0816
H29 H 0.5202 0.4032 0.0782
C35 C 0.58915(19) 0.58145(13) 0.42013(7)
C36 C 0.6464(2) 0.63891(14) 0.44657(7)
H30 H 0.6531 0.6880 0.4346
C37 C 0.6943(2) 0.62525(15) 0.49044(7)
H31 H 0.7311 0.6654 0.5087
C38 C 0.6887(2) 0.55392(15) 0.50777(7)
H32 H 0.7236 0.5444 0.5377
C39 C 0.6324(2) 0.49653(14) 0.48146(7)
H33 H 0.6286 0.4471 0.4932
C40 C 0.58132(19) 0.51036(13) 0.43810(7)
H34 H 0.5404 0.4707 0.4204
C41 C 0.4781(2) 0.78744(14) 0.38760(7)
C42 C 0.5885(2) 0.79775(14) 0.36895(7)
H35 H 0.6249 0.7560 0.3560
C43 C 0.6452(2) 0.86771(15) 0.36908(8)
H36 H 0.7212 0.8736 0.3567
C44 C 0.5927(3) 0.92957(15) 0.38700(8)
H37 H 0.6310 0.9780 0.3866
C45 C 0.4837(2) 0.91957(15) 0.40540(8)
H38 H 0.4470 0.9618 0.4177
C46 C 0.4264(2) 0.84930(14) 0.40632(7)
H39 H 0.3523 0.8434 0.4197
C47 C 0.2145(2) 0.70900(13) 0.41128(7)
C48 C 0.2678(3) 0.69521(16) 0.45459(8)
H40 H 0.3575 0.6883 0.4625
C49 C 0.1890(3) 0.69154(18) 0.48626(9)
H41 H 0.2250 0.6819 0.5160
C50 C 0.0590(3) 0.70173(17) 0.47506(9)
H42 H 0.0056 0.6984 0.4970
C51 C 0.0068(2) 0.71664(15) 0.43233(8)
H43 H -0.0827 0.7244 0.4247
C52 C 0.0835(2) 0.72047(14) 0.40019(8)
H44 H 0.0468 0.7309 0.3706
C53 C 0.29990(19) 0.71631(12) 0.30574(7)
C54 C 0.25492(19) 0.75112(12) 0.26222(7)
C55 C 0.1297(2) 0.74255(13) 0.24129(7)
H45 H 0.0729 0.7108 0.2538
C56 C 0.0869(2) 0.77994(14) 0.20224(8)
H46 H 0.0004 0.7741 0.1886
C57 C 0.1671(2) 0.82559(14) 0.18259(7)
C58 C 0.2918(2) 0.83477(13) 0.20397(7)
H47 H 0.3485 0.8663 0.1913
C59 C 0.3352(2) 0.79871(13) 0.24363(7)
H48 H 0.4204 0.8067 0.2581
C60 C 0.1210(3) 0.86439(16) 0.13925(8)
H49 H 0.1492 0.8356 0.1154
H50 H 0.1566 0.9155 0.1399
H51 H 0.0274 0.8672 0.1343
B1 B 0.4239(2) 0.61009(14) 0.27584(8)
B2 B 0.5649(2) 0.54000(14) 0.34111(8)
B3 B 0.4594(2) 0.65484(15) 0.35860(8)
loop_
_geom_bond_atom_site_label_1
_geom_bond_atom_site_label_2
_geom_bond_site_symmetry_1
_geom_bond_site_symmetry_2
N1 N2 1_555 1_555
N2 C7 1_555 1_555
N3 N4 1_555 1_555
N4 C15 1_555 1_555
N5 N6 1_555 1_555
N6 C27 1_555 1_555
N7 C27 1_555 1_555
N8 C35 1_555 1_555
N9 N10 1_555 1_555
N10 N11 1_555 1_555
N11 C53 1_555 1_555
N12 C53 1_555 1_555
C1 N1 1_555 1_555
C2 C1 1_555 1_555
H1 C2 1_555 1_555
C3 C2 1_555 1_555
H2 C3 1_555 1_555
C4 C3 1_555 1_555
H3 C4 1_555 1_555
C5 C4 1_555 1_555
H4 C5 1_555 1_555
C6 C1 1_555 1_555
H5 C6 1_555 1_555
C7 N3 1_555 1_555
C8 C7 1_555 1_555
C9 C8 1_555 1_555
H6 C9 1_555 1_555
C10 C9 1_555 1_555
H7 C10 1_555 1_555
C11 C10 1_555 1_555
C12 C11 1_555 1_555
H8 C12 1_555 1_555
C13 C8 1_555 1_555
H9 C13 1_555 1_555
C14 C11 1_555 1_555
H10 C14 1_555 1_555
H11 C14 1_555 1_555
H12 C14 1_555 1_555
C15 C16 1_555 1_555
C16 H13 1_555 1_555
C17 C16 1_555 1_555
H14 C17 1_555 1_555
C18 C17 1_555 1_555
H15 C18 1_555 1_555
C19 C18 1_555 1_555
H16 C19 1_555 1_555
C20 C15 1_555 1_555
H17 C20 1_555 1_555
C21 N5 1_555 1_555
C22 C21 1_555 1_555
H18 C22 1_555 1_555
C23 C22 1_555 1_555
H19 C23 1_555 1_555
C24 C23 1_555 1_555
H20 C24 1_555 1_555
C25 C24 1_555 1_555
H21 C25 1_555 1_555
C26 C21 1_555 1_555
H22 C26 1_555 1_555
C27 C28 1_555 1_555
C28 C29 1_555 1_555
C29 H23 1_555 1_555
C30 C29 1_555 1_555
H24 C30 1_555 1_555
C31 C30 1_555 1_555
C32 C31 1_555 1_555
H25 C32 1_555 1_555
C33 C28 1_555 1_555
H26 C33 1_555 1_555
C34 C31 1_555 1_555
H27 C34 1_555 1_555
H28 C34 1_555 1_555
H29 C34 1_555 1_555
C35 C36 1_555 1_555
C36 H30 1_555 1_555
C37 C36 1_555 1_555
H31 C37 1_555 1_555
C38 C37 1_555 1_555
H32 C38 1_555 1_555
C39 C38 1_555 1_555
H33 C39 1_555 1_555
C40 C35 1_555 1_555
H34 C40 1_555 1_555
C41 N9 1_555 1_555
C42 C41 1_555 1_555
H35 C42 1_555 1_555
C43 C42 1_555 1_555
H36 C43 1_555 1_555
C44 C43 1_555 1_555
H37 C44 1_555 1_555
C45 C44 1_555 1_555
H38 C45 1_555 1_555
C46 C41 1_555 1_555
H39 C46 1_555 1_555
C47 N10 1_555 1_555
C48 C47 1_555 1_555
H40 C48 1_555 1_555
C49 C48 1_555 1_555
H41 C49 1_555 1_555
C50 C49 1_555 1_555
H42 C50 1_555 1_555
C51 C50 1_555 1_555
H43 C51 1_555 1_555
C52 C47 1_555 1_555
H44 C52 1_555 1_555
C53 C54 1_555 1_555
C54 C55 1_555 1_555
C55 H45 1_555 1_555
C56 C55 1_555 1_555
H46 C56 1_555 1_555
C57 C56 1_555 1_555
C58 C57 1_555 1_555
H47 C58 1_555 1_555
C59 C54 1_555 1_555
H48 C59 1_555 1_555
C60 C57 1_555 1_555
H49 C60 1_555 1_555
H50 C60 1_555 1_555
H51 C60 1_555 1_555
B1 N1 1_555 1_555
B2 N5 1_555 1_555
B3 N8 1_555 1_555
N4 B1 1_555 1_555
N7 B1 1_555 1_555
N7 B2 1_555 1_555
N8 B2 1_555 1_555
N9 B3 1_555 1_555
N12 B1 1_555 1_555
N12 B3 1_555 1_555
C5 C6 1_555 1_555
C12 C13 1_555 1_555
C19 C20 1_555 1_555
C25 C26 1_555 1_555
C32 C33 1_555 1_555
C39 C40 1_555 1_555
C45 C46 1_555 1_555
C51 C52 1_555 1_555
C58 C59 1_555 1_555

#END
