
#######################################################################
#
#                 Cambridge Crystallographic Data Centre
#                                CCDC 
#
#######################################################################
#
# If this CIF has been generated from an entry in the Cambridge 
# Structural Database, then it will include bibliographic, chemical, 
# crystal, experimental, refinement or atomic coordinate data resulting 
# from the CCDC's data processing and validation procedures.
#
#######################################################################

data_NUPVAX
_chemical_name_common            mandipropamid
_chemical_formula_moiety         'C23 H22 Cl1 N1 O4'
_chemical_name_systematic        
(RS)-2-(4-chlorophenyl)-N-(2-(3-methoxy-4-(prop-2-yn-1-yloxy)phenyl)ethyl)-2-(prop-2-yn-1-yloxy)acetamide
_symmetry_cell_setting           monoclinic
_symmetry_space_group_name_H-M   'P 21/c'
_symmetry_Int_Tables_number      14
_space_group_name_Hall           '-P 2ybc'
loop_
_symmetry_equiv_pos_site_id
_symmetry_equiv_pos_as_xyz
1 x,y,z
2 -x,1/2+y,1/2-z
3 -x,-y,-z
4 x,1/2-y,1/2+z
_cell_length_a                   26.3733(17)
_cell_length_b                   9.4740(6)
_cell_length_c                   8.4882(5)
_cell_angle_alpha                90
_cell_angle_beta                 91.013(3)
_cell_angle_gamma                90
_cell_volume                     2120.54
_exptl_crystal_colour            colorless
_exptl_crystal_description       plate
_cell_formula_units_Z            4
loop_
_atom_site_label
_atom_site_type_symbol
_atom_site_fract_x
_atom_site_fract_y
_atom_site_fract_z
Cl1 Cl 0.45595(2) 0.22978(7) 0.12537(9)
O1 O 0.67498(6) 0.42193(16) -0.19373(17)
O2 O 0.70934(5) 0.38856(15) 0.20630(16)
O3 O 0.86165(6) -0.36494(16) 0.1328(2)
O4 O 0.93566(5) -0.26941(15) 0.30322(18)
N1 N 0.72949(6) 0.25526(19) -0.0044(2)
H1 H 0.7239 0.2407 -0.1056
C1 C 0.51676(8) 0.2878(2) 0.0816(3)
C2 C 0.53176(8) 0.4194(2) 0.1302(3)
H2 H 0.5094 0.4775 0.1883
C3 C 0.57995(8) 0.4671(2) 0.0936(2)
H3 H 0.5908 0.5576 0.1286
C4 C 0.61212(7) 0.3842(2) 0.0069(2)
C5 C 0.59606(8) 0.2516(2) -0.0420(3)
H4 H 0.6179 0.1942 -0.1025
C6 C 0.54833(9) 0.2019(2) -0.0035(3)
H5 H 0.5376 0.1103 -0.0352
C7 C 0.66491(7) 0.4385(2) -0.0328(2)
H6 H 0.6672 0.5409 -0.0051
C8 C 0.64981(9) 0.5251(2) -0.2903(3)
H7 H 0.6130 0.5220 -0.2700
H8 H 0.6547 0.5010 -0.4025
C9 C 0.66839(9) 0.6681(3) -0.2614(3)
C10 C 0.68291(11) 0.7840(3) -0.2365(3)
H9 H 0.6946 0.8773 -0.2164
C11 C 0.70398(7) 0.3566(2) 0.0662(2)
C12 C 0.76667(8) 0.1662(3) 0.0785(3)
H10 H 0.7492 0.0829 0.1222
H11 H 0.7817 0.2200 0.1678
C13 C 0.80847(8) 0.1170(3) -0.0268(3)
H12 H 0.7936 0.0687 -0.1202
H13 H 0.8280 0.1994 -0.0639
C14 C 0.84327(8) 0.0174(2) 0.0610(2)
C15 C 0.83530(8) -0.1280(2) 0.0534(3)
H14 H 0.8081 -0.1637 -0.0096
C16 C 0.86616(8) -0.2208(2) 0.1356(3)
C17 C 0.90637(7) -0.1685(2) 0.2301(2)
C18 C 0.91396(8) -0.0250(2) 0.2401(3)
H15 H 0.9407 0.0113 0.3046
C19 C 0.88242(8) 0.0672(2) 0.1556(3)
H16 H 0.8880 0.1661 0.1633
C20 C 0.81997(9) -0.4224(3) 0.0456(3)
H17 H 0.7882 -0.3864 0.0881
H18 H 0.8206 -0.5256 0.0538
H19 H 0.8225 -0.3948 -0.0653
C21 C 0.97493(9) -0.2226(3) 0.4095(3)
H20 H 0.9884 -0.3049 0.4687
H21 H 0.9603 -0.1563 0.4864
C22 C 1.01689(8) -0.1525(2) 0.3292(3)
C23 C 1.05017(10) -0.0922(3) 0.2672(4)
H22 H 1.0770 -0.0435 0.2173
loop_
_geom_bond_atom_site_label_1
_geom_bond_atom_site_label_2
_geom_bond_site_symmetry_1
_geom_bond_site_symmetry_2
Cl1 C1 1_555 1_555
O1 C7 1_555 1_555
O2 C11 1_555 1_555
O3 C16 1_555 1_555
O4 C17 1_555 1_555
N1 H1 1_555 1_555
C1 C2 1_555 1_555
C2 H2 1_555 1_555
C3 C2 1_555 1_555
H3 C3 1_555 1_555
C4 C3 1_555 1_555
C5 C4 1_555 1_555
H4 C5 1_555 1_555
C6 C1 1_555 1_555
H5 C6 1_555 1_555
C7 C4 1_555 1_555
H6 C7 1_555 1_555
C8 O1 1_555 1_555
H7 C8 1_555 1_555
H8 C8 1_555 1_555
C9 C8 1_555 1_555
C10 C9 1_555 1_555
H9 C10 1_555 1_555
C11 N1 1_555 1_555
C12 N1 1_555 1_555
H10 C12 1_555 1_555
H11 C12 1_555 1_555
C13 C12 1_555 1_555
H12 C13 1_555 1_555
H13 C13 1_555 1_555
C14 C13 1_555 1_555
C15 C14 1_555 1_555
H14 C15 1_555 1_555
C16 C15 1_555 1_555
C17 C16 1_555 1_555
C18 C17 1_555 1_555
H15 C18 1_555 1_555
C19 C14 1_555 1_555
H16 C19 1_555 1_555
C20 O3 1_555 1_555
H17 C20 1_555 1_555
H18 C20 1_555 1_555
H19 C20 1_555 1_555
C21 O4 1_555 1_555
H20 C21 1_555 1_555
H21 C21 1_555 1_555
C22 C21 1_555 1_555
C23 C22 1_555 1_555
H22 C23 1_555 1_555
C5 C6 1_555 1_555
C7 C11 1_555 1_555
C18 C19 1_555 1_555

#END
