
#######################################################################
#
#                 Cambridge Crystallographic Data Centre
#                                CCDC 
#
#######################################################################
#
# If this CIF has been generated from an entry in the Cambridge 
# Structural Database, then it will include bibliographic, chemical, 
# crystal, experimental, refinement or atomic coordinate data resulting 
# from the CCDC's data processing and validation procedures.
#
#######################################################################

data_NUQHEN
_chemical_formula_moiety         'C15 H12 F1 N3 O1'
_chemical_name_systematic        
3-(2H-Benzotriazol-2-yl)-1-(4-fluorophenyl)propan-1-one
_symmetry_cell_setting           monoclinic
_symmetry_space_group_name_H-M   'P 21'
_symmetry_Int_Tables_number      4
_space_group_name_Hall           'P 2yb'
loop_
_symmetry_equiv_pos_site_id
_symmetry_equiv_pos_as_xyz
1 x,y,z
2 -x,1/2+y,-z
_cell_length_a                   5.7858(12)
_cell_length_b                   5.6814(11)
_cell_length_c                   19.313(4)
_cell_angle_alpha                90
_cell_angle_beta                 90.77(3)
_cell_angle_gamma                90
_cell_volume                     634.789
_exptl_crystal_colour            colorless
_exptl_crystal_description       block
_cell_formula_units_Z            2
_exptl_crystal_recrystallization_method ethanol
loop_
_atom_site_label
_atom_site_type_symbol
_atom_site_fract_x
_atom_site_fract_y
_atom_site_fract_z
F1 F 0.0574(7) 1.0117(7) 0.01386(19)
O1 O 0.9115(8) 1.3049(7) 0.1980(2)
N1 N 1.3671(7) 0.6871(8) 0.3093(2)
N2 N 1.0658(8) 0.6958(8) 0.3810(2)
N3 N 1.1720(8) 0.7892(8) 0.3293(2)
C1 C 1.3499(10) 0.1759(10) 0.4572(3)
H1 H 1.3402 0.0609 0.4913
C2 C 0.8110(10) 1.1189(10) 0.1966(3)
C3 C 0.8827(10) 0.9205(9) 0.2440(3)
H2 H 0.9270 0.7856 0.2164
H3 H 0.7524 0.8746 0.2720
C4 C 1.3905(9) 0.5068(10) 0.3556(3)
C5 C 0.6140(11) 1.0790(10) 0.1461(3)
C6 C 1.0823(9) 0.9904(10) 0.2907(3)
H4 H 1.2047 1.0571 0.2630
H5 H 1.0315 1.1103 0.3229
C7 C 1.2016(9) 0.5119(10) 0.4001(3)
C8 C 0.2439(10) 1.0338(10) 0.0570(3)
C9 C 0.5609(10) 1.2550(10) 0.0984(3)
H6 H 0.6528 1.3891 0.0966
C10 C 1.1818(10) 0.3418(10) 0.4533(3)
H7 H 1.0595 0.3438 0.4841
C11 C 1.5400(10) 0.1698(10) 0.4116(3)
H8 H 1.6498 0.0512 0.4164
C12 C 0.2883(12) 0.8551(12) 0.1038(3)
H9 H 0.1945 0.7223 0.1050
C13 C 0.4757(11) 0.8775(10) 0.1490(3)
H10 H 0.5090 0.7594 0.1809
C14 C 1.5654(10) 0.3346(10) 0.3607(3)
H11 H 1.6910 0.3332 0.3311
C15 C 0.3754(11) 1.2338(10) 0.0540(3)
H12 H 0.3395 1.3526 0.0226
loop_
_geom_bond_atom_site_label_1
_geom_bond_atom_site_label_2
_geom_bond_site_symmetry_1
_geom_bond_site_symmetry_2
F1 C8 1_555 1_555
O1 C2 1_555 1_555
N1 N3 1_555 1_555
N2 N3 1_555 1_555
N3 C6 1_555 1_555
C1 H1 1_555 1_555
C2 C3 1_555 1_555
C3 H2 1_555 1_555
H3 C3 1_555 1_555
C4 N1 1_555 1_555
C5 C2 1_555 1_555
C6 C3 1_555 1_555
H4 C6 1_555 1_555
H5 C6 1_555 1_555
C7 N2 1_555 1_555
C8 C12 1_555 1_555
C9 C5 1_555 1_555
H6 C9 1_555 1_555
C10 C1 1_555 1_555
H7 C10 1_555 1_555
C11 C1 1_555 1_555
H8 C11 1_555 1_555
C12 H9 1_555 1_555
C13 C5 1_555 1_555
H10 C13 1_555 1_555
C14 C4 1_555 1_555
H11 C14 1_555 1_555
C15 C8 1_555 1_555
H12 C15 1_555 1_555
C4 C7 1_555 1_555
C7 C10 1_555 1_555
C9 C15 1_555 1_555
C11 C14 1_555 1_555
C12 C13 1_555 1_555

#END
