
#######################################################################
#
#                 Cambridge Crystallographic Data Centre
#                                CCDC 
#
#######################################################################
#
# If this CIF has been generated from an entry in the Cambridge 
# Structural Database, then it will include bibliographic, chemical, 
# crystal, experimental, refinement or atomic coordinate data resulting 
# from the CCDC's data processing and validation procedures.
#
#######################################################################

data_NUQNIX
_chemical_formula_moiety         'C6 H7 N1 S1'
_chemical_name_systematic        6-Methylpyridine-2(1H)-thione
_symmetry_cell_setting           monoclinic
_symmetry_space_group_name_H-M   'P 21/c'
_symmetry_Int_Tables_number      14
_space_group_name_Hall           '-P 2ybc'
loop_
_symmetry_equiv_pos_site_id
_symmetry_equiv_pos_as_xyz
1 x,y,z
2 -x,1/2+y,1/2-z
3 -x,-y,-z
4 x,1/2-y,1/2+z
_cell_length_a                   7.4608(15)
_cell_length_b                   14.902(3)
_cell_length_c                   11.665(2)
_cell_angle_alpha                90
_cell_angle_beta                 94.85(3)
_cell_angle_gamma                90
_cell_volume                     1292.28
_exptl_crystal_colour            yellow
_exptl_crystal_description       block
_cell_formula_units_Z            8
_exptl_crystal_recrystallization_method 'ethyl acetate/petroleum ether'
loop_
_atom_site_label
_atom_site_type_symbol
_atom_site_fract_x
_atom_site_fract_y
_atom_site_fract_z
S1 S 0.52754(9) 0.10281(4) 0.87258(5)
N1 N 0.5873(2) -0.07318(12) 0.85963(15)
H1 H 0.5725 -0.0723 0.9319
C1 C 0.6385(5) -0.23318(17) 0.8905(2)
H3 H 0.6160 -0.2149 0.9669
H4 H 0.7568 -0.2587 0.8916
H5 H 0.5509 -0.2772 0.8633
C2 C 0.6257(3) -0.15375(16) 0.8125(2)
C3 C 0.6503(4) -0.15630(18) 0.6979(2)
H6 H 0.6773 -0.2102 0.6631
C4 C 0.6350(4) -0.0782(2) 0.6339(2)
H7 H 0.6513 -0.0800 0.5557
C5 C 0.5961(3) 0.00181(18) 0.68372(19)
H8 H 0.5868 0.0536 0.6392
C6 C 0.5702(3) 0.00646(15) 0.80167(18)
S2 S 0.90012(12) 0.13575(4) 0.50014(6)
N2 N 0.9262(2) 0.02468(12) 0.32400(15)
H2 H 0.9555 -0.0139 0.3771
C7 C 0.9694(4) -0.10058(16) 0.1955(2)
H9 H 0.9963 -0.1291 0.2687
H10 H 1.0723 -0.1042 0.1516
H11 H 0.8693 -0.1303 0.1546
C8 C 0.9229(3) -0.00394(16) 0.21353(19)
C9 C 0.8776(3) 0.05620(18) 0.1275(2)
H12 H 0.8744 0.0386 0.0508
C10 C 0.8365(4) 0.14393(18) 0.1558(2)
H13 H 0.8072 0.1853 0.0975
C11 C 0.8384(3) 0.17037(16) 0.2678(2)
H14 H 0.8074 0.2290 0.2849
C12 C 0.8870(3) 0.10976(15) 0.3583(2)
loop_
_geom_bond_atom_site_label_1
_geom_bond_atom_site_label_2
_geom_bond_site_symmetry_1
_geom_bond_site_symmetry_2
S1 C6 1_555 1_555
S2 C12 1_555 1_555
N1 H1 1_555 1_555
N2 H2 1_555 1_555
C1 H3 1_555 1_555
H4 C1 1_555 1_555
H5 C1 1_555 1_555
C2 N1 1_555 1_555
C3 C2 1_555 1_555
H6 C3 1_555 1_555
C4 C3 1_555 1_555
H7 C4 1_555 1_555
C5 C4 1_555 1_555
H8 C5 1_555 1_555
C6 N1 1_555 1_555
C7 H9 1_555 1_555
H10 C7 1_555 1_555
H11 C7 1_555 1_555
C8 N2 1_555 1_555
C9 C8 1_555 1_555
H12 C9 1_555 1_555
C10 C9 1_555 1_555
H13 C10 1_555 1_555
C11 C10 1_555 1_555
H14 C11 1_555 1_555
C12 N2 1_555 1_555
C1 C2 1_555 1_555
C5 C6 1_555 1_555
C7 C8 1_555 1_555
C11 C12 1_555 1_555

#END
