
#######################################################################
#
#                 Cambridge Crystallographic Data Centre
#                                CCDC 
#
#######################################################################
#
# If this CIF has been generated from an entry in the Cambridge 
# Structural Database, then it will include bibliographic, chemical, 
# crystal, experimental, refinement or atomic coordinate data resulting 
# from the CCDC's data processing and validation procedures.
#
#######################################################################

data_NUQVAY
_chemical_name_common            
"Dodecaethylpillar(6)arene 2,2'-(1,4-phenylene)diacetonitrile"
_chemical_formula_moiety         'C66 H84 O12,C10 H8 N2'
_chemical_name_systematic        
"4,9,14,19,24,29,31,33,35,37,39,41-dodecaethoxyheptacyclo[26.2.2.2^3,6^.2^8,11^.2^13,16^.2^18,21^.2^23,26^]dotetraconta-1(30),3,5,8,10,13,15,18,20,23,25,28,31,33,35,37,39,41-octadecaene 2,2'-(1,4-phenylene)diacetonitrile"
_symmetry_cell_setting           monoclinic
_symmetry_space_group_name_H-M   'P 21/n'
_symmetry_Int_Tables_number      14
_space_group_name_Hall           '-P 2yn'
loop_
_symmetry_equiv_pos_site_id
_symmetry_equiv_pos_as_xyz
1 x,y,z
2 1/2-x,1/2+y,1/2-z
3 -x,-y,-z
4 1/2+x,1/2-y,1/2+z
_cell_length_a                   11.966(3)
_cell_length_b                   12.944(4)
_cell_length_c                   21.641(6)
_cell_angle_alpha                90
_cell_angle_beta                 90.390(5)
_cell_angle_gamma                90
_cell_volume                     3351.85
_exptl_crystal_colour            colorless
_exptl_crystal_description       prism
_cell_formula_units_Z            2
loop_
_atom_site_label
_atom_site_type_symbol
_atom_site_fract_x
_atom_site_fract_y
_atom_site_fract_z
O1 O 0.79613(17) 0.28369(18) -0.09233(10)
O2 O 0.35922(18) 0.33794(19) -0.16971(9)
O3 O 0.85168(17) 0.39815(17) 0.05870(9)
O4 O 0.44326(17) 0.23980(16) 0.13069(9)
O5 O 0.77224(17) 0.07506(16) 0.19060(10)
O6 O 0.35208(18) -0.05662(16) 0.26059(10)
C1 C 0.4906(3) 0.2093(2) -0.24173(12)
H1 H 0.5467 0.2161 -0.2749
H2 H 0.4220 0.2455 -0.2556
C2 C 0.5347(2) 0.2620(2) -0.18441(12)
C3 C 0.6446(2) 0.2474(2) -0.16527(13)
H3 H 0.6912 0.2023 -0.1883
C4 C 0.6882(2) 0.2966(2) -0.11363(13)
C5 C 0.6235(2) 0.3655(2) -0.08008(12)
C6 C 0.5134(2) 0.3797(2) -0.09918(12)
H4 H 0.4677 0.4268 -0.0771
C7 C 0.4683(2) 0.3275(2) -0.14926(13)
C8 C 0.6719(2) 0.4226(2) -0.02561(12)
H5 H 0.6340 0.4902 -0.0221
H6 H 0.7521 0.4360 -0.0334
C9 C 0.6613(2) 0.3653(2) 0.03607(12)
C10 C 0.7509(2) 0.3566(2) 0.07681(13)
C11 C 0.7358(2) 0.3106(2) 0.13427(13)
H7 H 0.7975 0.3059 0.1620
C12 C 0.6327(2) 0.2715(2) 0.15218(12)
C13 C 0.5433(2) 0.2786(2) 0.11079(13)
C14 C 0.5583(2) 0.3244(2) 0.05323(12)
H8 H 0.4972 0.3279 0.0251
C15 C 0.6176(3) 0.2281(2) 0.21670(13)
H9 H 0.6874 0.2400 0.2404
H10 H 0.5575 0.2676 0.2373
C16 C 0.5891(3) 0.1147(2) 0.22040(12)
C17 C 0.6691(2) 0.0390(2) 0.20870(12)
C18 C 0.6423(2) -0.0648(2) 0.21546(12)
H11 H 0.6979 -0.1155 0.2079
C19 C 0.5362(2) -0.0962(2) 0.23305(12)
C20 C 0.4557(2) -0.0208(2) 0.24385(12)
C21 C 0.4826(2) 0.0831(2) 0.23786(12)
H12 H 0.4271 0.1337 0.2458
C22 C 0.8677(3) 0.2169(3) -0.12604(19)
H13 H 0.8701 0.2376 -0.1700
H14 H 0.8409 0.1446 -0.1235
C23 C 0.9807(3) 0.2266(4) -0.0970(3)
H15 H 1.0029 0.2995 -0.0962
H16 H 1.0350 0.1869 -0.1210
H17 H 0.9785 0.1999 -0.0547
C24 C 0.2812(3) 0.3891(3) -0.13091(18)
H18 H 0.2120 0.4028 -0.1548
H19 H 0.3128 0.4565 -0.1181
C25 C 0.2527(4) 0.3290(6) -0.0752(2)
H20 H 0.2261 0.2603 -0.0874
H21 H 0.1940 0.3649 -0.0523
H22 H 0.3193 0.3219 -0.0488
C26 C 0.9456(3) 0.3850(3) 0.09963(15)
H23 H 0.9576 0.3106 0.1080
H24 H 0.9310 0.4201 0.1394
C27 C 1.0465(3) 0.4297(4) 0.07036(17)
H25 H 1.0623 0.3925 0.0320
H26 H 1.1104 0.4232 0.0987
H27 H 1.0333 0.5028 0.0611
C28 C 0.3527(3) 0.2354(3) 0.08762(14)
H28 H 0.3744 0.1952 0.0507
H29 H 0.3314 0.3059 0.0743
C29 C 0.2563(3) 0.1839(4) 0.11987(17)
H30 H 0.2779 0.1137 0.1320
H31 H 0.1918 0.1808 0.0918
H32 H 0.2367 0.2237 0.1567
C30 C 0.8594(3) 0.0004(3) 0.18330(17)
H33 H 0.8365 -0.0526 0.1527
H34 H 0.8748 -0.0345 0.2232
C31 C 0.9619(3) 0.0557(3) 0.1615(2)
H35 H 0.9428 0.0989 0.1258
H36 H 1.0187 0.0050 0.1496
H37 H 0.9913 0.0993 0.1949
C32 C 0.2687(3) 0.0160(2) 0.27749(15)
H38 H 0.2551 0.0652 0.2432
H39 H 0.2931 0.0555 0.3144
C33 C 0.1650(3) -0.0431(3) 0.29121(18)
H40 H 0.1401 -0.0798 0.2540
H41 H 0.1063 0.0047 0.3045
H42 H 0.1802 -0.0931 0.3242
O1B O 0.20387(17) -0.28369(18) 0.09233(10)
O2B O 0.64078(18) -0.33794(19) 0.16971(9)
O3B O 0.14832(17) -0.39815(17) -0.05870(9)
O4B O 0.55674(17) -0.23980(16) -0.13069(9)
O5B O 0.22776(17) -0.07506(16) -0.19060(10)
O6B O 0.64792(18) 0.05662(16) -0.26059(10)
C1B C 0.5094(3) -0.2093(2) 0.24173(12)
H1B H 0.4533 -0.2161 0.2749
H2B H 0.5780 -0.2455 0.2556
C2B C 0.4653(2) -0.2620(2) 0.18441(12)
C3B C 0.3554(2) -0.2474(2) 0.16527(13)
H3B H 0.3088 -0.2023 0.1883
C4B C 0.3118(2) -0.2966(2) 0.11363(13)
C5B C 0.3765(2) -0.3655(2) 0.08008(12)
C6B C 0.4866(2) -0.3797(2) 0.09918(12)
H4B H 0.5323 -0.4268 0.0771
C7B C 0.5317(2) -0.3275(2) 0.14926(13)
C8B C 0.3281(2) -0.4226(2) 0.02561(12)
H5B H 0.3660 -0.4902 0.0221
H6B H 0.2479 -0.4360 0.0334
C9B C 0.3387(2) -0.3653(2) -0.03607(12)
C10B C 0.2491(2) -0.3566(2) -0.07681(13)
C11B C 0.2642(2) -0.3106(2) -0.13427(13)
H7B H 0.2025 -0.3059 -0.1620
C12B C 0.3673(2) -0.2715(2) -0.15218(12)
C13B C 0.4567(2) -0.2786(2) -0.11079(13)
C14B C 0.4417(2) -0.3244(2) -0.05323(12)
H8B H 0.5028 -0.3279 -0.0251
C15B C 0.3824(3) -0.2281(2) -0.21670(13)
H9B H 0.3126 -0.2400 -0.2404
H10B H 0.4425 -0.2676 -0.2373
C16B C 0.4109(3) -0.1147(2) -0.22040(12)
C17B C 0.3309(2) -0.0390(2) -0.20870(12)
C18B C 0.3577(2) 0.0648(2) -0.21546(12)
H11B H 0.3021 0.1155 -0.2079
C19B C 0.4638(2) 0.0962(2) -0.23305(12)
C20B C 0.5443(2) 0.0208(2) -0.24385(12)
C21B C 0.5174(2) -0.0831(2) -0.23786(12)
H12B H 0.5729 -0.1337 -0.2458
C22B C 0.1323(3) -0.2169(3) 0.12604(19)
H13B H 0.1299 -0.2376 0.1700
H14B H 0.1591 -0.1446 0.1235
C23B C 0.0193(3) -0.2266(4) 0.0970(3)
H15B H -0.0029 -0.2995 0.0962
H16B H -0.0350 -0.1869 0.1210
H17B H 0.0215 -0.1999 0.0547
C24B C 0.7188(3) -0.3891(3) 0.13091(18)
H18B H 0.7880 -0.4028 0.1548
H19B H 0.6872 -0.4565 0.1181
C25B C 0.7473(4) -0.3290(6) 0.0752(2)
H20B H 0.7739 -0.2603 0.0874
H21B H 0.8060 -0.3649 0.0523
H22B H 0.6807 -0.3219 0.0488
C26B C 0.0544(3) -0.3850(3) -0.09963(15)
H23B H 0.0424 -0.3106 -0.1080
H24B H 0.0690 -0.4201 -0.1394
C27B C -0.0465(3) -0.4297(4) -0.07036(17)
H25B H -0.0623 -0.3925 -0.0320
H26B H -0.1104 -0.4232 -0.0987
H27B H -0.0333 -0.5028 -0.0611
C28B C 0.6473(3) -0.2354(3) -0.08762(14)
H28B H 0.6256 -0.1952 -0.0507
H29B H 0.6686 -0.3059 -0.0743
C29B C 0.7437(3) -0.1839(4) -0.11987(17)
H30B H 0.7221 -0.1137 -0.1320
H31B H 0.8082 -0.1808 -0.0918
H32B H 0.7633 -0.2237 -0.1567
C30B C 0.1406(3) -0.0004(3) -0.18330(17)
H33B H 0.1635 0.0526 -0.1527
H34B H 0.1252 0.0345 -0.2232
C31B C 0.0381(3) -0.0557(3) -0.1615(2)
H35B H 0.0572 -0.0989 -0.1258
H36B H -0.0187 -0.0050 -0.1496
H37B H 0.0087 -0.0993 -0.1949
C32B C 0.7313(3) -0.0160(2) -0.27749(15)
H38B H 0.7449 -0.0652 -0.2432
H39B H 0.7069 -0.0555 -0.3144
C33B C 0.8350(3) 0.0431(3) -0.29121(18)
H40B H 0.8599 0.0798 -0.2540
H41B H 0.8937 -0.0047 -0.3045
H42B H 0.8198 0.0931 -0.3242
C34 C 0.5579(4) 0.0610(3) -0.04497(18)
H43 H 0.5948 0.1003 -0.0758
C35 C 0.6049(4) 0.0452(3) 0.01210(19)
C36 C 0.5498(4) -0.0153(4) 0.05597(19)
H44 H 0.5853 -0.0266 0.0948
C37 C 0.7169(4) 0.0879(3) 0.0252(2)
H45 H 0.7295 0.1499 -0.0006
H46 H 0.7220 0.1087 0.0692
N1 N 0.8686(5) -0.0508(5) 0.0021(3)
C38 C 0.8015(4) 0.0117(4) 0.01219(19)
C34B C 0.4421(4) -0.0610(3) 0.04497(18)
H43B H 0.4052 -0.1003 0.0758
C35B C 0.3951(4) -0.0452(3) -0.01210(19)
C36B C 0.4502(4) 0.0153(4) -0.05597(19)
H44B H 0.4147 0.0266 -0.0948
C37B C 0.2831(4) -0.0879(3) -0.0252(2)
H45B H 0.2705 -0.1499 0.0006
H46B H 0.2780 -0.1087 -0.0692
N1B N 0.1314(5) 0.0508(5) -0.0021(3)
C38B C 0.1985(4) -0.0117(4) -0.01219(19)
loop_
_geom_bond_atom_site_label_1
_geom_bond_atom_site_label_2
_geom_bond_site_symmetry_1
_geom_bond_site_symmetry_2
O1 C4 1_555 1_555
O2 C7 1_555 1_555
O3 C10 1_555 1_555
O4 C13 1_555 1_555
O5 C17 1_555 1_555
O6 C20 1_555 1_555
C1 H1 1_555 1_555
H2 C1 1_555 1_555
C2 C1 1_555 1_555
C3 C2 1_555 1_555
H3 C3 1_555 1_555
C4 C3 1_555 1_555
C5 C4 1_555 1_555
C6 C5 1_555 1_555
H4 C6 1_555 1_555
C7 C2 1_555 1_555
C8 C5 1_555 1_555
H5 C8 1_555 1_555
H6 C8 1_555 1_555
C9 C8 1_555 1_555
C10 C9 1_555 1_555
C11 C10 1_555 1_555
H7 C11 1_555 1_555
C12 C11 1_555 1_555
C13 C12 1_555 1_555
C14 C9 1_555 1_555
H8 C14 1_555 1_555
C15 C12 1_555 1_555
H9 C15 1_555 1_555
H10 C15 1_555 1_555
C16 C15 1_555 1_555
C17 C16 1_555 1_555
C18 C17 1_555 1_555
H11 C18 1_555 1_555
C19 C18 1_555 1_555
C20 C19 1_555 1_555
C21 C16 1_555 1_555
H12 C21 1_555 1_555
C22 O1 1_555 1_555
H13 C22 1_555 1_555
H14 C22 1_555 1_555
C23 C22 1_555 1_555
H15 C23 1_555 1_555
H16 C23 1_555 1_555
H17 C23 1_555 1_555
C24 O2 1_555 1_555
H18 C24 1_555 1_555
H19 C24 1_555 1_555
C25 C24 1_555 1_555
H20 C25 1_555 1_555
H21 C25 1_555 1_555
H22 C25 1_555 1_555
C26 O3 1_555 1_555
H23 C26 1_555 1_555
H24 C26 1_555 1_555
C27 C26 1_555 1_555
H25 C27 1_555 1_555
H26 C27 1_555 1_555
H27 C27 1_555 1_555
C28 O4 1_555 1_555
H28 C28 1_555 1_555
H29 C28 1_555 1_555
C29 C28 1_555 1_555
H30 C29 1_555 1_555
H31 C29 1_555 1_555
H32 C29 1_555 1_555
C30 O5 1_555 1_555
H33 C30 1_555 1_555
H34 C30 1_555 1_555
C31 C30 1_555 1_555
H35 C31 1_555 1_555
H36 C31 1_555 1_555
H37 C31 1_555 1_555
C32 O6 1_555 1_555
H38 C32 1_555 1_555
H39 C32 1_555 1_555
C33 C32 1_555 1_555
H40 C33 1_555 1_555
H41 C33 1_555 1_555
H42 C33 1_555 1_555
C34 H43 1_555 1_555
C35 C34 1_555 1_555
C36 C35 1_555 1_555
H44 C36 1_555 1_555
C37 C35 1_555 1_555
H45 C37 1_555 1_555
H46 C37 1_555 1_555
N1 C38 1_555 1_555
C38 C37 1_555 1_555
O1B C4B 1_555 1_555
O2B C7B 1_555 1_555
O3B C10B 1_555 1_555
O4B C13B 1_555 1_555
O5B C17B 1_555 1_555
O6B C20B 1_555 1_555
C1B C19 1_555 1_555
H1B C1B 1_555 1_555
H2B C1B 1_555 1_555
C2B C1B 1_555 1_555
C3B C2B 1_555 1_555
H3B C3B 1_555 1_555
C4B C3B 1_555 1_555
C5B C4B 1_555 1_555
C6B C5B 1_555 1_555
H4B C6B 1_555 1_555
C7B C2B 1_555 1_555
C8B C5B 1_555 1_555
H5B C8B 1_555 1_555
H6B C8B 1_555 1_555
C9B C8B 1_555 1_555
C10B C9B 1_555 1_555
C11B C10B 1_555 1_555
H7B C11B 1_555 1_555
C12B C11B 1_555 1_555
C13B C12B 1_555 1_555
C14B C9B 1_555 1_555
H8B C14B 1_555 1_555
C15B C12B 1_555 1_555
H9B C15B 1_555 1_555
H10B C15B 1_555 1_555
C16B C15B 1_555 1_555
C17B C16B 1_555 1_555
C18B C17B 1_555 1_555
H11B C18B 1_555 1_555
C19B C1 1_555 1_555
C20B C19B 1_555 1_555
C21B C16B 1_555 1_555
H12B C21B 1_555 1_555
C22B O1B 1_555 1_555
H13B C22B 1_555 1_555
H14B C22B 1_555 1_555
C23B C22B 1_555 1_555
H15B C23B 1_555 1_555
H16B C23B 1_555 1_555
H17B C23B 1_555 1_555
C24B O2B 1_555 1_555
H18B C24B 1_555 1_555
H19B C24B 1_555 1_555
C25B C24B 1_555 1_555
H20B C25B 1_555 1_555
H21B C25B 1_555 1_555
H22B C25B 1_555 1_555
C26B O3B 1_555 1_555
H23B C26B 1_555 1_555
H24B C26B 1_555 1_555
C27B C26B 1_555 1_555
H25B C27B 1_555 1_555
H26B C27B 1_555 1_555
H27B C27B 1_555 1_555
C28B O4B 1_555 1_555
H28B C28B 1_555 1_555
H29B C28B 1_555 1_555
C29B C28B 1_555 1_555
H30B C29B 1_555 1_555
H31B C29B 1_555 1_555
H32B C29B 1_555 1_555
C30B O5B 1_555 1_555
H33B C30B 1_555 1_555
H34B C30B 1_555 1_555
C31B C30B 1_555 1_555
H35B C31B 1_555 1_555
H36B C31B 1_555 1_555
H37B C31B 1_555 1_555
C32B O6B 1_555 1_555
H38B C32B 1_555 1_555
H39B C32B 1_555 1_555
C33B C32B 1_555 1_555
H40B C33B 1_555 1_555
H41B C33B 1_555 1_555
H42B C33B 1_555 1_555
C34B C36 1_555 1_555
H43B C34B 1_555 1_555
C35B C34B 1_555 1_555
C36B C34 1_555 1_555
H44B C36B 1_555 1_555
C37B C35B 1_555 1_555
H45B C37B 1_555 1_555
H46B C37B 1_555 1_555
N1B C38B 1_555 1_555
C38B C37B 1_555 1_555
C6 C7 1_555 1_555
C13 C14 1_555 1_555
C20 C21 1_555 1_555
C6B C7B 1_555 1_555
C13B C14B 1_555 1_555
C18B C19B 1_555 1_555
C20B C21B 1_555 1_555
C35B C36B 1_555 1_555

#END
