
#######################################################################
#
#                 Cambridge Crystallographic Data Centre
#                                CCDC 
#
#######################################################################
#
# If this CIF has been generated from an entry in the Cambridge 
# Structural Database, then it will include bibliographic, chemical, 
# crystal, experimental, refinement or atomic coordinate data resulting 
# from the CCDC's data processing and validation procedures.
#
#######################################################################

data_NURFAI
_chemical_formula_moiety         'C16 H13 Cl1 N2 O1'
_chemical_name_systematic        
1-((2-Chloro-8-methylquinolin-3-yl)methyl)pyridin-2(1H)-one
_symmetry_cell_setting           monoclinic
_symmetry_space_group_name_H-M   'P 21/c'
_symmetry_Int_Tables_number      14
_space_group_name_Hall           '-P 2ybc'
loop_
_symmetry_equiv_pos_site_id
_symmetry_equiv_pos_as_xyz
1 x,y,z
2 -x,1/2+y,1/2-z
3 -x,-y,-z
4 x,1/2-y,1/2+z
_cell_length_a                   10.1513(2)
_cell_length_b                   9.3917(2)
_cell_length_c                   14.1430(2)
_cell_angle_alpha                90
_cell_angle_beta                 90.948(2)
_cell_angle_gamma                90
_cell_volume                     1348.18
_exptl_crystal_colour            colorless
_exptl_crystal_description       block
_cell_formula_units_Z            4
_exptl_crystal_recrystallization_method dichloromethane
loop_
_atom_site_label
_atom_site_type_symbol
_atom_site_fract_x
_atom_site_fract_y
_atom_site_fract_z
Cl1 Cl 0.17214(4) 0.42990(4) 0.02479(2)
O1 O 0.08041(10) 0.28868(13) 0.35614(8)
N1 N 0.32267(11) 0.61310(13) 0.11096(8)
N2 N -0.05971(11) 0.45168(13) 0.28993(8)
C1 C 0.21630(13) 0.53822(15) 0.12066(9)
C2 C 0.13534(13) 0.53361(14) 0.20141(9)
C3 C 0.17568(13) 0.61625(16) 0.27547(10)
C4 C 0.33798(15) 0.78326(17) 0.34745(11)
C5 C 0.45224(16) 0.8575(2) 0.33878(12)
C6 C 0.52323(16) 0.8519(2) 0.25493(12)
C7 C 0.48186(15) 0.77503(17) 0.17819(12)
C8 C 0.36339(13) 0.69521(15) 0.18602(10)
C9 C 0.29139(13) 0.69933(15) 0.27116(10)
C10 C 0.01318(15) 0.44264(17) 0.20158(10)
C11 C -0.16498(15) 0.54157(17) 0.29568(12)
C12 C -0.23606(17) 0.54973(19) 0.37505(14)
C13 C -0.20074(17) 0.4635(2) 0.45186(13)
C14 C -0.09706(16) 0.37454(18) 0.44725(11)
C15 C -0.01782(14) 0.36501(16) 0.36452(10)
C16 C 0.55794(17) 0.7727(2) 0.08775(14)
H1 H 0.12600 0.61800 0.33010
H2 H 0.29090 0.78780 0.40320
H3 H 0.48340 0.91260 0.38910
H4 H 0.60170 0.90260 0.25140
H5 H -0.04430 0.47170 0.14960
H6 H 0.03800 0.34430 0.19090
H7 H -0.18800 0.59800 0.24400
H8 H -0.30730 0.61160 0.37870
H9 H -0.24950 0.46760 0.50690
H10 H -0.07620 0.31770 0.49920
H11 H 0.51020 0.82450 0.03970
H12 H 0.56960 0.67590 0.06760
H13 H 0.64250 0.81610 0.09820
loop_
_geom_bond_atom_site_label_1
_geom_bond_atom_site_label_2
_geom_bond_site_symmetry_1
_geom_bond_site_symmetry_2
Cl1 C1 1_555 1_555
O1 C15 1_555 1_555
N1 C1 1_555 1_555
N2 C10 1_555 1_555
C1 C2 1_555 1_555
C2 C3 1_555 1_555
C3 C9 1_555 1_555
C4 C5 1_555 1_555
C5 C6 1_555 1_555
C6 C7 1_555 1_555
C7 C8 1_555 1_555
C8 N1 1_555 1_555
C9 C4 1_555 1_555
C10 C2 1_555 1_555
C11 N2 1_555 1_555
C12 C11 1_555 1_555
C13 C12 1_555 1_555
C14 C13 1_555 1_555
C15 N2 1_555 1_555
C16 C7 1_555 1_555
H1 C3 1_555 1_555
H2 C4 1_555 1_555
H3 C5 1_555 1_555
H4 C6 1_555 1_555
H5 C10 1_555 1_555
H6 C10 1_555 1_555
H7 C11 1_555 1_555
H8 C12 1_555 1_555
H9 C13 1_555 1_555
H10 C14 1_555 1_555
H11 C16 1_555 1_555
H12 C16 1_555 1_555
H13 C16 1_555 1_555
C8 C9 1_555 1_555
C14 C15 1_555 1_555

#END
