
#######################################################################
#
#                 Cambridge Crystallographic Data Centre
#                                CCDC 
#
#######################################################################
#
# If this CIF has been generated from an entry in the Cambridge 
# Structural Database, then it will include bibliographic, chemical, 
# crystal, experimental, refinement or atomic coordinate data resulting 
# from the CCDC's data processing and validation procedures.
#
#######################################################################

data_NURGAJ
_chemical_name_common            3,3'-(m-Phenylenedioxy)diphthalonitrile
_chemical_formula_moiety         'C22 H10 N4 O2'
_chemical_name_systematic        3,3'-(1,3-Phenylenebis(oxy))diphthalonitrile
_symmetry_cell_setting           monoclinic
_symmetry_space_group_name_H-M   'C 2/c'
_symmetry_Int_Tables_number      15
_space_group_name_Hall           '-C 2yn'
loop_
_symmetry_equiv_pos_site_id
_symmetry_equiv_pos_as_xyz
1 x,y,z
2 -x,y,1/2-z
3 1/2+x,1/2+y,z
4 1/2-x,1/2+y,1/2-z
5 -x,-y,-z
6 x,-y,1/2+z
7 1/2-x,1/2-y,-z
8 1/2+x,1/2-y,1/2+z
_cell_length_a                   15.668(3)
_cell_length_b                   12.722(3)
_cell_length_c                   19.004(5)
_cell_angle_alpha                90
_cell_angle_beta                 109.911(6)
_cell_angle_gamma                90
_cell_volume                     3561.6
_exptl_crystal_colour            yellow
_exptl_crystal_description       rod
_cell_formula_units_Z            8
_exptl_crystal_recrystallization_method acetonitrile
loop_
_atom_site_label
_atom_site_type_symbol
_atom_site_fract_x
_atom_site_fract_y
_atom_site_fract_z
C1 C 0.24878(8) 0.23670(11) 0.58469(7)
O1 O 0.41988(6) 0.16069(8) 0.64684(5)
O2 O 0.73624(5) 0.20407(7) 0.70914(6)
C2 C 0.49526(7) 0.15184(9) 0.62398(7)
C3 C 0.57791(7) 0.17608(9) 0.67719(7)
H1 H 0.5826 0.1926 0.7260
C4 C 0.88271(8) 0.16165(10) 0.78616(7)
C5 C 0.65301(7) 0.17492(9) 0.65542(7)
C6 C 0.48704(8) 0.12738(10) 0.55183(7)
H2 H 0.4308 0.1110 0.5168
C7 C 0.26451(7) 0.12567(10) 0.58820(6)
C8 C 0.19286(7) 0.05388(10) 0.56020(6)
C9 C 0.79734(7) 0.12689(9) 0.74065(7)
C10 C 0.64815(9) 0.15132(11) 0.58405(8)
H3 H 0.7000 0.1512 0.5707
N1 N 0.23572(10) 0.32515(11) 0.58276(8)
C11 C 0.90124(8) 0.27171(11) 0.79679(8)
C12 C 0.35196(8) 0.08751(11) 0.61986(7)
C13 C 0.77924(9) 0.02090(10) 0.73059(8)
H4 H 0.7222 -0.0022 0.7005
C14 C 0.20892(9) -0.05263(11) 0.56674(8)
H5 H 0.1612 -0.1000 0.5485
C15 C 0.95031(8) 0.08725(11) 0.82021(7)
C16 C 0.56427(9) 0.12762(11) 0.53235(8)
H6 H 0.5597 0.1115 0.4835
N2 N 1.11044(8) 0.15377(13) 0.89675(8)
C17 C 0.10262(8) 0.09249(11) 0.52163(8)
C18 C 0.29672(9) -0.08846(11) 0.60074(8)
H7 H 0.3077 -0.1604 0.6061
C19 C 0.93170(10) -0.01859(12) 0.80996(8)
H8 H 0.9762 -0.0681 0.8328
C20 C 0.84594(11) -0.05017(12) 0.76525(9)
H9 H 0.8332 -0.1216 0.7585
C21 C 1.03960(9) 0.12385(12) 0.86413(8)
N3 N 0.03136(8) 0.12171(11) 0.48961(8)
C22 C 0.36803(9) -0.01905(12) 0.62679(8)
H10 H 0.4269 -0.0441 0.6490
N4 N 0.91780(9) 0.35902(11) 0.80612(9)
loop_
_geom_bond_atom_site_label_1
_geom_bond_atom_site_label_2
_geom_bond_site_symmetry_1
_geom_bond_site_symmetry_2
C1 C7 1_555 1_555
O1 C2 1_555 1_555
O2 C5 1_555 1_555
C2 C3 1_555 1_555
C3 H1 1_555 1_555
C4 C9 1_555 1_555
C5 C3 1_555 1_555
C6 C2 1_555 1_555
H2 C6 1_555 1_555
C7 C8 1_555 1_555
C8 C14 1_555 1_555
C9 O2 1_555 1_555
C10 C5 1_555 1_555
H3 C10 1_555 1_555
N1 C1 1_555 1_555
C11 C4 1_555 1_555
C12 O1 1_555 1_555
C13 C9 1_555 1_555
H4 C13 1_555 1_555
C14 H5 1_555 1_555
C15 C4 1_555 1_555
C16 C6 1_555 1_555
H6 C16 1_555 1_555
N2 C21 1_555 1_555
C17 C8 1_555 1_555
C18 C14 1_555 1_555
H7 C18 1_555 1_555
C19 C15 1_555 1_555
H8 C19 1_555 1_555
C20 C13 1_555 1_555
H9 C20 1_555 1_555
C21 C15 1_555 1_555
N3 C17 1_555 1_555
C22 C12 1_555 1_555
H10 C22 1_555 1_555
N4 C11 1_555 1_555
C7 C12 1_555 1_555
C10 C16 1_555 1_555
C18 C22 1_555 1_555
C19 C20 1_555 1_555

#END
