
#######################################################################
#
#                 Cambridge Crystallographic Data Centre
#                                CCDC 
#
#######################################################################
#
# If this CIF has been generated from an entry in the Cambridge 
# Structural Database, then it will include bibliographic, chemical, 
# crystal, experimental, refinement or atomic coordinate data resulting 
# from the CCDC's data processing and validation procedures.
#
#######################################################################

data_NURJOA
_chemical_formula_moiety         'C46 H40 N2'
_chemical_name_systematic        
rac-4,4'-(1,4-Phenylenebis((4,4-dimethylpent-1-yne-3,1-diyl)-2,1-phenylene-ethyne-2,1-diyl))dipyridine
_symmetry_cell_setting           monoclinic
_symmetry_space_group_name_H-M   'P 21/c'
_symmetry_Int_Tables_number      14
_space_group_name_Hall           '-P 2ybc'
loop_
_symmetry_equiv_pos_site_id
_symmetry_equiv_pos_as_xyz
1 x,y,z
2 -x,1/2+y,1/2-z
3 -x,-y,-z
4 x,1/2-y,1/2+z
_cell_length_a                   13.0021(11)
_cell_length_b                   18.4591(17)
_cell_length_c                   15.6235(14)
_cell_angle_alpha                90
_cell_angle_beta                 103.267(2)
_cell_angle_gamma                90
_cell_volume                     3649.67
_exptl_crystal_colour            colorless
_exptl_crystal_description       irregular
_cell_formula_units_Z            4
_exptl_crystal_recrystallization_method dichloromethane/methanol
loop_
_atom_site_label
_atom_site_type_symbol
_atom_site_fract_x
_atom_site_fract_y
_atom_site_fract_z
N1 N 0.70630(9) 0.37394(8) 0.94371(9)
N2 N 0.25324(8) 0.09133(8) 0.73046(9)
C1 C 0.47117(8) 0.39387(6) 0.65193(8)
H1 H 0.5002 0.4387 0.6714
C2 C 0.36498(8) 0.38195(6) 0.64594(8)
H2 H 0.3241 0.4182 0.6627
C3 C 0.31856(8) 0.31644(6) 0.61514(7)
C4 C 0.38295(8) 0.26362(6) 0.59219(8)
H3 H 0.3536 0.2193 0.5710
C5 C 0.48969(9) 0.27515(6) 0.60008(8)
H4 H 0.5312 0.2383 0.5853
C6 C 0.53569(8) 0.34071(6) 0.62967(7)
C7 C 0.20102(8) 0.30156(6) 0.60582(7)
H5 H 0.1923 0.2489 0.6002
C8 C 0.16677(8) 0.32210(6) 0.68610(8)
C9 C 0.13837(8) 0.33933(6) 0.75043(8)
C10 C 0.10073(8) 0.36214(6) 0.82576(8)
C11 C -0.00658(9) 0.35990(7) 0.82408(9)
H6 H -0.0536 0.3428 0.7741
C12 C -0.04465(11) 0.38244(8) 0.89464(11)
H7 H -0.1168 0.3806 0.8919
C13 C 0.02347(13) 0.40776(9) 0.96925(11)
H8 H -0.0025 0.4231 1.0170
C14 C 0.12935(13) 0.41031(9) 0.97308(10)
H9 H 0.1751 0.4278 1.0236
C15 C 0.17038(10) 0.38711(7) 0.90227(8)
C16 C 0.28210(11) 0.38679(7) 0.90959(9)
C17 C 0.37595(11) 0.38430(8) 0.91919(9)
C18 C 0.48744(10) 0.37972(7) 0.92845(8)
C19 C 0.55861(10) 0.41194(8) 0.99861(8)
H10 H 0.5343 0.4359 1.0425
C20 C 0.66432(11) 0.40786(9) 1.00211(9)
H11 H 0.7101 0.4305 1.0489
C21 C 0.63784(12) 0.34185(9) 0.87790(10)
H12 H 0.6650 0.3166 0.8365
C22 C 0.53013(11) 0.34359(8) 0.86713(9)
H13 H 0.4864 0.3208 0.8192
C23 C 0.12720(9) 0.33518(7) 0.52115(8)
C24 C 0.17307(12) 0.31821(11) 0.44242(9)
H14 H 0.1249 0.3340 0.3896
H15 H 0.1840 0.2669 0.4394
H16 H 0.2393 0.3429 0.4484
C25 C 0.11596(11) 0.41675(8) 0.52960(10)
H17 H 0.1841 0.4392 0.5373
H18 H 0.0870 0.4272 0.5795
H19 H 0.0697 0.4353 0.4773
C26 C 0.01860(10) 0.30057(9) 0.50881(11)
H20 H -0.0291 0.3227 0.4597
H21 H -0.0073 0.3075 0.5610
H22 H 0.0237 0.2497 0.4979
C27 C 0.65404(8) 0.35496(6) 0.64096(8)
H23 H 0.6736 0.3912 0.6877
C28 C 0.71552(8) 0.28940(6) 0.67230(7)
C29 C 0.76445(8) 0.23515(6) 0.69323(7)
C30 C 0.82602(7) 0.17054(6) 0.71469(7)
C31 C 0.93178(8) 0.16973(7) 0.71043(8)
H24 H 0.9627 0.2118 0.6952
C32 C 0.99129(8) 0.10744(7) 0.72846(9)
H25 H 1.0617 0.1077 0.7249
C33 C 0.94707(9) 0.04505(7) 0.75169(10)
H26 H 0.9879 0.0034 0.7648
C34 C 0.84280(9) 0.04402(7) 0.75559(9)
H27 H 0.8131 0.0014 0.7705
C35 C 0.78100(8) 0.10599(6) 0.73752(7)
C36 C 0.67123(8) 0.10308(7) 0.73957(8)
C37 C 0.57987(8) 0.09919(7) 0.73946(8)
C38 C 0.46907(8) 0.09621(6) 0.73768(7)
C39 C 0.40670(8) 0.03983(7) 0.69673(8)
H28 H 0.4359 0.0025 0.6701
C40 C 0.30147(10) 0.03990(9) 0.69598(10)
H29 H 0.2610 0.0010 0.6693
C41 C 0.31289(11) 0.14533(9) 0.76841(11)
H30 H 0.2804 0.1827 0.7922
C42 C 0.42101(10) 0.15014(8) 0.77525(10)
H31 H 0.4599 0.1887 0.8044
C43 C 0.68766(9) 0.38661(7) 0.55837(10)
C44 C 0.80328(10) 0.40995(9) 0.58719(13)
H32 H 0.8261 0.4294 0.5377
H33 H 0.8461 0.3688 0.6099
H34 H 0.8102 0.4463 0.6321
C45 C 0.62082(12) 0.45264(10) 0.52484(14)
H35 H 0.6256 0.4869 0.5718
H36 H 0.5485 0.4382 0.5037
H37 H 0.6461 0.4746 0.4778
C46 C 0.67543(14) 0.32949(11) 0.48583(11)
H38 H 0.6945 0.3502 0.4352
H39 H 0.6034 0.3134 0.4701
H40 H 0.7208 0.2891 0.5066
loop_
_geom_bond_atom_site_label_1
_geom_bond_atom_site_label_2
_geom_bond_site_symmetry_1
_geom_bond_site_symmetry_2
N1 C20 1_555 1_555
N2 C40 1_555 1_555
C1 H1 1_555 1_555
C2 C1 1_555 1_555
H2 C2 1_555 1_555
C3 C2 1_555 1_555
C4 C3 1_555 1_555
H3 C4 1_555 1_555
C5 C4 1_555 1_555
H4 C5 1_555 1_555
C6 C1 1_555 1_555
C7 C3 1_555 1_555
H5 C7 1_555 1_555
C8 C7 1_555 1_555
C9 C8 1_555 1_555
C10 C9 1_555 1_555
C11 C10 1_555 1_555
H6 C11 1_555 1_555
C12 C11 1_555 1_555
H7 C12 1_555 1_555
C13 C12 1_555 1_555
H8 C13 1_555 1_555
C14 C13 1_555 1_555
H9 C14 1_555 1_555
C15 C10 1_555 1_555
C16 C15 1_555 1_555
C17 C16 1_555 1_555
C18 C17 1_555 1_555
C19 C18 1_555 1_555
H10 C19 1_555 1_555
C20 C19 1_555 1_555
H11 C20 1_555 1_555
C21 N1 1_555 1_555
H12 C21 1_555 1_555
C22 C18 1_555 1_555
H13 C22 1_555 1_555
C23 C7 1_555 1_555
C24 C23 1_555 1_555
H14 C24 1_555 1_555
H15 C24 1_555 1_555
H16 C24 1_555 1_555
C25 C23 1_555 1_555
H17 C25 1_555 1_555
H18 C25 1_555 1_555
H19 C25 1_555 1_555
C26 C23 1_555 1_555
H20 C26 1_555 1_555
H21 C26 1_555 1_555
H22 C26 1_555 1_555
C27 C6 1_555 1_555
H23 C27 1_555 1_555
C28 C27 1_555 1_555
C29 C28 1_555 1_555
C30 C29 1_555 1_555
C31 C30 1_555 1_555
H24 C31 1_555 1_555
C32 C31 1_555 1_555
H25 C32 1_555 1_555
C33 C32 1_555 1_555
H26 C33 1_555 1_555
C34 C33 1_555 1_555
H27 C34 1_555 1_555
C35 C30 1_555 1_555
C36 C35 1_555 1_555
C37 C36 1_555 1_555
C38 C37 1_555 1_555
C39 C38 1_555 1_555
H28 C39 1_555 1_555
C40 C39 1_555 1_555
H29 C40 1_555 1_555
C41 N2 1_555 1_555
H30 C41 1_555 1_555
C42 C38 1_555 1_555
H31 C42 1_555 1_555
C43 C27 1_555 1_555
C44 C43 1_555 1_555
H32 C44 1_555 1_555
H33 C44 1_555 1_555
H34 C44 1_555 1_555
C45 C43 1_555 1_555
H35 C45 1_555 1_555
H36 C45 1_555 1_555
H37 C45 1_555 1_555
C46 C43 1_555 1_555
H38 C46 1_555 1_555
H39 C46 1_555 1_555
H40 C46 1_555 1_555
C5 C6 1_555 1_555
C14 C15 1_555 1_555
C21 C22 1_555 1_555
C34 C35 1_555 1_555
C41 C42 1_555 1_555

#END
