
#######################################################################
#
#                 Cambridge Crystallographic Data Centre
#                                CCDC 
#
#######################################################################
#
# If this CIF has been generated from an entry in the Cambridge 
# Structural Database, then it will include bibliographic, chemical, 
# crystal, experimental, refinement or atomic coordinate data resulting 
# from the CCDC's data processing and validation procedures.
#
#######################################################################

data_NURNOE
_chemical_formula_moiety         'C15 H17 Cl1 N6 O2 S1'
_chemical_name_systematic        
1-((2-Chloro-1,3-thiazol-5-yl)methyl)-N-nitro-5-(2-phenylethyl)-1,3,5-triazinan-2-imine
_symmetry_cell_setting           monoclinic
_symmetry_space_group_name_H-M   'P 21/n'
_symmetry_Int_Tables_number      14
_space_group_name_Hall           '-P 2yn'
loop_
_symmetry_equiv_pos_site_id
_symmetry_equiv_pos_as_xyz
1 x,y,z
2 1/2-x,1/2+y,1/2-z
3 -x,-y,-z
4 1/2+x,1/2-y,1/2+z
_cell_length_a                   8.3828(5)
_cell_length_b                   14.5285(7)
_cell_length_c                   14.2456(4)
_cell_angle_alpha                90
_cell_angle_beta                 94.449(4)
_cell_angle_gamma                90
_cell_volume                     1729.74
_exptl_crystal_colour            colorless
_exptl_crystal_description       block
_cell_formula_units_Z            4
loop_
_atom_site_label
_atom_site_type_symbol
_atom_site_fract_x
_atom_site_fract_y
_atom_site_fract_z
C1 C 0.6905(5) 0.0746(3) -0.0387(3)
C2 C 0.7641(9) 0.0362(3) 0.0407(4)
H1 H 0.7977 0.0754 0.0899
C3 C 0.7921(10) -0.0564(3) 0.0530(5)
H2 H 0.8434 -0.0781 0.1089
C4 C 0.7449(8) -0.1147(3) -0.0159(4)
H3 H 0.7621 -0.1776 -0.0083
C5 C 0.6736(9) -0.0826(4) -0.0950(4)
H4 H 0.6368 -0.1232 -0.1422
C6 C 0.6531(8) 0.0116(4) -0.1082(4)
H5 H 0.6122 0.0326 -0.1668
C7 C 0.6621(5) 0.1776(3) -0.0453(3)
H6 H 0.5733 0.1899 -0.0913
H7 H 0.6340 0.2006 0.0152
C8 C 0.8092(4) 0.2270(2) -0.0735(3)
H8 H 0.8951 0.2192 -0.0245
H9 H 0.8433 0.1996 -0.1307
C9 C 0.7478(4) 0.3771(2) -0.0070(2)
H10 H 0.6652 0.3461 0.0252
H11 H 0.7081 0.4376 -0.0257
C10 C 0.9112(4) 0.3702(2) -0.1311(2)
H12 H 0.8789 0.4316 -0.1513
H13 H 0.9375 0.3358 -0.1862
C11 C 1.0400(3) 0.37961(18) 0.0278(2)
N1 N 1.3100(3) 0.36264(18) 0.0766(2)
C12 C 0.8706(4) 0.3897(2) 0.1594(2)
H14 H 0.7710 0.4212 0.1687
H15 H 0.9568 0.4249 0.1914
C13 C 0.8666(4) 0.2962(2) 0.2028(2)
C14 C 0.7429(4) 0.2560(3) 0.2422(3)
H16 H 0.6457 0.2862 0.2458
C15 C 0.9108(4) 0.1434(2) 0.2636(2)
Cl1 Cl 0.98712(12) 0.03743(6) 0.29383(7)
N2 N 0.7800(3) 0.32552(18) -0.08917(18)
N3 N 1.0531(3) 0.37614(19) -0.06434(19)
H17 H 1.147(2) 0.371(2) -0.083(2)
N4 N 0.8934(3) 0.38726(17) 0.05863(17)
N5 N 1.1582(3) 0.37398(18) 0.0985(2)
N6 N 0.7678(4) 0.1680(2) 0.2770(2)
O1 O 1.3526(3) 0.3677(3) -0.0040(2)
O2 O 1.4081(3) 0.3478(2) 0.1441(2)
S1 S 1.02667(9) 0.22166(6) 0.20966(6)
loop_
_geom_bond_atom_site_label_1
_geom_bond_atom_site_label_2
_geom_bond_site_symmetry_1
_geom_bond_site_symmetry_2
C1 C2 1_555 1_555
C2 H1 1_555 1_555
C3 C2 1_555 1_555
H2 C3 1_555 1_555
C4 C3 1_555 1_555
H3 C4 1_555 1_555
C5 C4 1_555 1_555
H4 C5 1_555 1_555
C6 C1 1_555 1_555
H5 C6 1_555 1_555
C7 C1 1_555 1_555
H6 C7 1_555 1_555
H7 C7 1_555 1_555
C8 C7 1_555 1_555
H8 C8 1_555 1_555
H9 C8 1_555 1_555
C9 H10 1_555 1_555
H11 C9 1_555 1_555
C10 H12 1_555 1_555
H13 C10 1_555 1_555
C11 N3 1_555 1_555
N1 N5 1_555 1_555
C12 H14 1_555 1_555
H15 C12 1_555 1_555
C13 C12 1_555 1_555
C14 C13 1_555 1_555
H16 C14 1_555 1_555
C15 Cl1 1_555 1_555
N2 C8 1_555 1_555
N3 C10 1_555 1_555
H17 N3 1_555 1_555
N4 C9 1_555 1_555
N5 C11 1_555 1_555
N6 C14 1_555 1_555
O1 N1 1_555 1_555
O2 N1 1_555 1_555
S1 C13 1_555 1_555
C5 C6 1_555 1_555
C9 N2 1_555 1_555
C10 N2 1_555 1_555
C11 N4 1_555 1_555
C12 N4 1_555 1_555
C15 N6 1_555 1_555
C15 S1 1_555 1_555

#END
