
#######################################################################
#
#                 Cambridge Crystallographic Data Centre
#                                CCDC 
#
#######################################################################
#
# If this CIF has been generated from an entry in the Cambridge 
# Structural Database, then it will include bibliographic, chemical, 
# crystal, experimental, refinement or atomic coordinate data resulting 
# from the CCDC's data processing and validation procedures.
#
#######################################################################

data_NURXUV
_chemical_formula_moiety         'C26 H30 B2 N2 O2'
_chemical_name_systematic        
2-(3-phenyl-2-(4,4,5,5-tetramethyl-1,3,2-dioxaborolan-2-yl)but-2-en-1-yl)-2,3-dihydro-1H-naphtho[1,8-de][1,3,2]diazaborinine
_symmetry_cell_setting           orthorhombic
_symmetry_space_group_name_H-M   'P b c a'
_symmetry_Int_Tables_number      61
_space_group_name_Hall           '-P 2ac 2ab'
loop_
_symmetry_equiv_pos_site_id
_symmetry_equiv_pos_as_xyz
1 x,y,z
2 1/2-x,-y,1/2+z
3 1/2+x,1/2-y,-z
4 -x,1/2+y,1/2-z
5 -x,-y,-z
6 1/2+x,y,1/2-z
7 1/2-x,1/2+y,z
8 x,1/2-y,1/2+z
_cell_length_a                   12.9299(3)
_cell_length_b                   13.6977(3)
_cell_length_c                   26.5149(5)
_cell_angle_alpha                90
_cell_angle_beta                 90
_cell_angle_gamma                90
_cell_volume                     4696.05
_exptl_crystal_colour            'yellowish yellow'
_exptl_crystal_description       irregular
_cell_formula_units_Z            8
loop_
_atom_site_label
_atom_site_type_symbol
_atom_site_fract_x
_atom_site_fract_y
_atom_site_fract_z
O1 O 0.59968(6) 0.98739(6) 0.62178(3)
O2 O 0.42656(6) 0.96249(5) 0.63313(3)
N1 N 0.66612(7) 0.71253(7) 0.52207(3)
N2 N 0.49554(7) 0.69339(7) 0.55669(3)
C1 C 0.63609(8) 0.77121(8) 0.61552(4)
H1 H 0.6714 0.7200 0.6355
H2 H 0.6871 0.8233 0.6085
C2 C 0.43618(9) 0.88324(8) 0.74461(4)
H3 H 0.5041 0.9096 0.7451
C3 C 0.31394(9) 0.76647(9) 0.71424(4)
H4 H 0.2977 0.7114 0.6939
C4 C 0.26054(10) 0.88657(9) 0.77488(5)
H5 H 0.2085 0.9149 0.7955
C5 C 0.53288(8) 0.63327(7) 0.47299(4)
C6 C 0.35985(8) 0.61566(8) 0.50777(4)
H6 H 0.3119 0.6252 0.5345
C7 C 0.63748(8) 0.66536(7) 0.47754(4)
C8 C 0.41378(8) 0.80435(8) 0.71333(4)
C9 C 0.46055(8) 0.64732(7) 0.51294(4)
C10 C 0.43626(8) 1.05966(8) 0.61101(4)
C11 C 0.35997(10) 0.92363(9) 0.77509(4)
H7 H 0.3764 0.9773 0.7963
C12 C 0.49997(8) 0.58624(8) 0.42782(4)
C13 C 0.67363(9) 0.60294(8) 0.39414(4)
H8 H 0.7218 0.5924 0.3676
C14 C 0.57336(9) 0.57281(8) 0.38841(4)
H9 H 0.5525 0.5426 0.3578
C15 C 0.23768(9) 0.80766(10) 0.74425(5)
H10 H 0.1696 0.7816 0.7438
C16 C 0.51527(10) 0.65332(8) 0.68974(4)
H11 H 0.4497 0.6198 0.6963
H12 H 0.5610 0.6460 0.7190
H13 H 0.5483 0.6247 0.6599
C17 C 0.32811(8) 0.56926(8) 0.46299(4)
H14 H 0.2586 0.5475 0.4598
C18 C 0.54856(8) 0.81373(8) 0.64682(4)
C19 C 0.70641(8) 0.64931(8) 0.43874(4)
H15 H 0.7763 0.6696 0.4421
C20 C 0.49490(8) 0.76053(8) 0.68046(4)
C21 C 0.39568(9) 0.55494(8) 0.42391(4)
H16 H 0.3725 0.5238 0.3939
C22 C 0.55237(9) 1.08416(8) 0.62008(4)
C23 C 0.40898(9) 1.04899(9) 0.55537(4)
H17 H 0.3393 1.0214 0.5522
H18 H 0.4590 1.0055 0.5390
H19 H 0.4111 1.1132 0.5391
C24 C 0.60451(9) 1.14235(9) 0.57849(5)
H20 H 0.5983 1.1070 0.5465
H21 H 0.6778 1.1513 0.5867
H22 H 0.5711 1.2063 0.5754
C25 C 0.35981(11) 1.12611(9) 0.63727(5)
H23 H 0.3710 1.1231 0.6738
H24 H 0.2892 1.1049 0.6295
H25 H 0.3698 1.1933 0.6256
C26 C 0.57348(12) 1.13123(10) 0.67113(5)
H26 H 0.6483 1.1337 0.6770
H27 H 0.5405 1.0926 0.6977
H28 H 0.5453 1.1976 0.6714
B1 B 0.59874(9) 0.72560(9) 0.56377(4)
B2 B 0.52311(9) 0.92288(9) 0.63481(4)
H29 H 0.7321(12) 0.7347(10) 0.5229(5)
H30 H 0.4508(13) 0.7003(11) 0.5814(6)
loop_
_geom_bond_atom_site_label_1
_geom_bond_atom_site_label_2
_geom_bond_site_symmetry_1
_geom_bond_site_symmetry_2
O1 C22 1_555 1_555
O2 C10 1_555 1_555
N1 C7 1_555 1_555
N2 C9 1_555 1_555
C1 H1 1_555 1_555
H2 C1 1_555 1_555
C2 H3 1_555 1_555
C3 H4 1_555 1_555
C4 H5 1_555 1_555
C5 C7 1_555 1_555
C6 H6 1_555 1_555
C7 C19 1_555 1_555
C8 C2 1_555 1_555
C9 C5 1_555 1_555
C10 C22 1_555 1_555
C11 C2 1_555 1_555
H7 C11 1_555 1_555
C12 C5 1_555 1_555
C13 H8 1_555 1_555
C14 C12 1_555 1_555
H9 C14 1_555 1_555
C15 C3 1_555 1_555
H10 C15 1_555 1_555
C16 H11 1_555 1_555
H12 C16 1_555 1_555
H13 C16 1_555 1_555
C17 C6 1_555 1_555
H14 C17 1_555 1_555
C18 C1 1_555 1_555
C19 C13 1_555 1_555
H15 C19 1_555 1_555
C20 C8 1_555 1_555
C21 C12 1_555 1_555
H16 C21 1_555 1_555
C22 C24 1_555 1_555
C23 C10 1_555 1_555
H17 C23 1_555 1_555
H18 C23 1_555 1_555
H19 C23 1_555 1_555
C24 H20 1_555 1_555
H21 C24 1_555 1_555
H22 C24 1_555 1_555
C25 C10 1_555 1_555
H23 C25 1_555 1_555
H24 C25 1_555 1_555
H25 C25 1_555 1_555
C26 C22 1_555 1_555
H26 C26 1_555 1_555
H27 C26 1_555 1_555
H28 C26 1_555 1_555
B1 N1 1_555 1_555
B2 O1 1_555 1_555
H29 N1 1_555 1_555
H30 N2 1_555 1_555
O2 B2 1_555 1_555
N2 B1 1_555 1_555
C1 B1 1_555 1_555
C3 C8 1_555 1_555
C4 C11 1_555 1_555
C4 C15 1_555 1_555
C6 C9 1_555 1_555
C13 C14 1_555 1_555
C16 C20 1_555 1_555
C17 C21 1_555 1_555
C18 C20 1_555 1_555
C18 B2 1_555 1_555

#END
