
#######################################################################
#
#                 Cambridge Crystallographic Data Centre
#                                CCDC 
#
#######################################################################
#
# If this CIF has been generated from an entry in the Cambridge 
# Structural Database, then it will include bibliographic, chemical, 
# crystal, experimental, refinement or atomic coordinate data resulting 
# from the CCDC's data processing and validation procedures.
#
#######################################################################

data_NUSBOU
_chemical_name_common            "guanidinium 4'-hexylbiphenyl-4-sulfonate"
_chemical_formula_moiety         'C18 H21 O3 S1 1-,C1 H6 N3 1+'
_chemical_name_systematic        
"diaminomethaniminium 4'-hexylbiphenyl-4-sulfonate"
_symmetry_cell_setting           orthorhombic
_symmetry_space_group_name_H-M   'P 21 21 21'
_symmetry_Int_Tables_number      19
_space_group_name_Hall           'P 2ac 2ab'
loop_
_symmetry_equiv_pos_site_id
_symmetry_equiv_pos_as_xyz
1 x,y,z
2 1/2-x,-y,1/2+z
3 1/2+x,1/2-y,-z
4 -x,1/2+y,1/2-z
_cell_length_a                   7.4862(11)
_cell_length_b                   7.6555(12)
_cell_length_c                   33.449(5)
_cell_angle_alpha                90
_cell_angle_beta                 90
_cell_angle_gamma                90
_cell_volume                     1916.98
_exptl_crystal_colour            colorless
_exptl_crystal_description       Block
_chemical_melting_point          '244 deg.C'
_cell_formula_units_Z            4
loop_
_atom_site_label
_atom_site_type_symbol
_atom_site_fract_x
_atom_site_fract_y
_atom_site_fract_z
N1 N -0.0078(2) 0.4917(3) 0.53991(5)
H1 H -0.0437 0.5899 0.5510
H2 H -0.0359 0.3909 0.5509
N2 N 0.1394(3) 0.3469(3) 0.48946(6)
H3 H 0.2012 0.3492 0.4671
H4 H 0.1112 0.2463 0.5005
N3 N 0.1311(3) 0.6474(3) 0.49005(6)
H5 H 0.0953 0.7456 0.5011
H6 H 0.1951 0.6499 0.4680
C1 C 0.0887(2) 0.4957(3) 0.50661(6)
S1 S 0.52712(7) 0.50564(8) 0.432516(14)
O1 O 0.6224(2) 0.4979(2) 0.47053(4)
O2 O 0.4175(2) 0.6626(2) 0.42893(5)
O3 O 0.4213(2) 0.3483(2) 0.42490(5)
C2 C 1.0417(3) 0.6659(3) 0.26739(7)
H7 H 0.9419 0.7425 0.2682
C3 C 0.9948(3) 0.4997(4) 0.37211(6)
H8 H 1.1172 0.4794 0.3780
C4 C 1.5950(3) 0.4957(4) 0.19185(6)
H9 H 1.6067 0.3747 0.2020
H10 H 1.6658 0.5736 0.2094
C5 C 1.3007(3) 0.5578(3) 0.23173(6)
C6 C 0.9441(3) 0.5426(3) 0.33311(6)
C7 C 1.0752(3) 0.5547(3) 0.29972(6)
C8 C 1.2284(3) 0.4522(3) 0.29836(6)
H11 H 1.2574 0.3798 0.3205
C9 C 1.3405(3) 0.4543(3) 0.26488(7)
H12 H 1.4452 0.3841 0.2647
C10 C 1.6648(3) 0.5063(4) 0.14890(6)
H13 H 1.6068 0.4128 0.1331
H14 H 1.6266 0.6195 0.1374
C11 C 0.8686(3) 0.4864(4) 0.40249(6)
H15 H 0.9048 0.4552 0.4288
C12 C 1.8656(3) 0.4901(4) 0.14353(6)
H16 H 1.9257 0.5856 0.1583
H17 H 1.9064 0.3778 0.1550
C13 C 0.6902(3) 0.5186(3) 0.39438(6)
C14 C 0.7620(3) 0.5722(3) 0.32567(7)
H18 H 0.7245 0.6006 0.2993
C15 C 1.1517(3) 0.6659(3) 0.23430(7)
H19 H 1.1250 0.7418 0.2126
C16 C 1.4003(3) 0.5506(3) 0.19245(7)
H20 H 1.3931 0.6681 0.1802
H21 H 1.3343 0.4699 0.1747
C17 C 1.9179(3) 0.4985(5) 0.09988(6)
H22 H 1.8703 0.6081 0.0883
H23 H 1.8605 0.4000 0.0856
C18 C 0.6359(3) 0.5610(3) 0.35579(6)
H24 H 0.5133 0.5821 0.3502
C19 C 2.1178(3) 0.4914(5) 0.09223(8)
H25 H 2.1401 0.4934 0.0634
H26 H 2.1668 0.3837 0.1037
H27 H 2.1754 0.5925 0.1047
loop_
_geom_bond_atom_site_label_1
_geom_bond_atom_site_label_2
_geom_bond_site_symmetry_1
_geom_bond_site_symmetry_2
N1 H1 1_555 1_555
H2 N1 1_555 1_555
N2 H3 1_555 1_555
H4 N2 1_555 1_555
N3 H5 1_555 1_555
H6 N3 1_555 1_555
C1 N1 1_555 1_555
S1 O1 1_555 1_555
O2 S1 1_555 1_555
O3 S1 1_555 1_555
C2 H7 1_555 1_555
C3 H8 1_555 1_555
C4 H9 1_555 1_555
H10 C4 1_555 1_555
C5 C9 1_555 1_555
C6 C3 1_555 1_555
C7 C2 1_555 1_555
C8 C7 1_555 1_555
H11 C8 1_555 1_555
C9 C8 1_555 1_555
H12 C9 1_555 1_555
C10 C4 1_555 1_555
H13 C10 1_555 1_555
H14 C10 1_555 1_555
C11 C3 1_555 1_555
H15 C11 1_555 1_555
C12 C10 1_555 1_555
H16 C12 1_555 1_555
H17 C12 1_555 1_555
C13 S1 1_555 1_555
C14 C6 1_555 1_555
H18 C14 1_555 1_555
C15 C2 1_555 1_555
H19 C15 1_555 1_555
C16 C4 1_555 1_555
H20 C16 1_555 1_555
H21 C16 1_555 1_555
C17 C12 1_555 1_555
H22 C17 1_555 1_555
H23 C17 1_555 1_555
C18 C13 1_555 1_555
H24 C18 1_555 1_555
C19 C17 1_555 1_555
H25 C19 1_555 1_555
H26 C19 1_555 1_555
H27 C19 1_555 1_555
N2 C1 1_555 1_555
N3 C1 1_555 1_555
C5 C15 1_555 1_555
C5 C16 1_555 1_555
C6 C7 1_555 1_555
C11 C13 1_555 1_555
C14 C18 1_555 1_555

#END
