
#######################################################################
#
#                 Cambridge Crystallographic Data Centre
#                                CCDC 
#
#######################################################################
#
# If this CIF has been generated from an entry in the Cambridge 
# Structural Database, then it will include bibliographic, chemical, 
# crystal, experimental, refinement or atomic coordinate data resulting 
# from the CCDC's data processing and validation procedures.
#
#######################################################################

data_NUSHIT
_chemical_formula_moiety         'C6 H10 O4,C3 H6 N6,H2 O1'
_chemical_name_systematic        'adipic acid melamine monohydrate'
_symmetry_cell_setting           triclinic
_symmetry_space_group_name_H-M   'P -1'
_symmetry_Int_Tables_number      2
_space_group_name_Hall           '-P 1'
loop_
_symmetry_equiv_pos_site_id
_symmetry_equiv_pos_as_xyz
1 x,y,z
2 -x,-y,-z
_cell_length_a                   4.7211(9)
_cell_length_b                   9.6404(19)
_cell_length_c                   15.596(3)
_cell_angle_alpha                105.14(3)
_cell_angle_beta                 92.77(3)
_cell_angle_gamma                99.29(3)
_cell_volume                     673.143
_cell_formula_units_Z            2
loop_
_atom_site_label
_atom_site_type_symbol
_atom_site_fract_x
_atom_site_fract_y
_atom_site_fract_z
H1 H 0.892(14) 0.946(5) 0.702(2)
C1 C 0.7408(4) 0.95821(18) 0.80903(11)
C2 C 0.6590(5) 1.0439(2) 0.89689(13)
H2 H 0.857(7) 1.111(3) 0.922(2)
C3 C 0.5328(5) 0.95467(19) 0.95556(12)
H3 H 0.667(5) 0.890(3) 0.9660(17)
H4 H 0.359(6) 0.888(3) 0.9253(17)
O1 O 0.6392(3) 0.82401(13) 0.78098(8)
O2 O 0.9088(3) 1.02451(14) 0.76714(8)
H5 H 0.548(8) 1.113(4) 0.879(2)
H1A H 0.108(14) 1.054(5) 1.298(2)
C1A C 0.2592(4) 1.04179(18) 1.19097(11)
C2A C 0.3410(5) 0.9561(2) 1.10311(13)
H2A H 0.143(7) 0.889(3) 1.078(2)
C3A C 0.4672(5) 1.04533(19) 1.04444(12)
H3A H 0.333(5) 1.110(3) 1.0340(17)
H4A H 0.641(6) 1.112(3) 1.0747(17)
O1A O 0.3608(3) 1.17599(13) 1.21902(8)
O2A O 0.0912(3) 0.97549(14) 1.23286(8)
H5A H 0.452(8) 0.887(4) 1.121(2)
C4 C 1.0400(3) 0.70130(16) 0.43903(10)
C5 C 0.7711(3) 0.70990(16) 0.55630(10)
C6 C 1.1589(3) 0.89895(16) 0.55945(10)
N1 N 1.0941(3) 0.63148(15) 0.35920(9)
H6 H 0.9908 0.5480 0.3321
H7 H 1.2328 0.6691 0.3339
N2 N 0.5608(3) 0.65950(17) 0.59807(10)
H8 H 0.455(5) 0.578(3) 0.5725(15)
H9 H 0.555(5) 0.706(2) 0.6532(15)
N3 N 1.3211(3) 1.02376(16) 0.60449(10)
H10 H 1.459(5) 1.062(2) 0.5775(15)
H11 H 1.273(5) 1.068(2) 0.6577(15)
N4 N 0.8193(3) 0.63704(14) 0.47568(8)
N5 N 0.9364(3) 0.84285(14) 0.59946(9)
N6 N 1.2120(3) 0.83236(13) 0.47812(8)
C7 C 0.6247(3) 0.65797(17) 0.17989(10)
C8 C 0.4640(4) 0.5112(2) 0.12554(12)
H12 H 0.499(5) 0.438(3) 0.1589(18)
C9 C 0.5407(5) 0.45611(19) 0.03079(12)
H13 H 0.437(5) 0.353(3) 0.0049(16)
H14 H 0.768(6) 0.460(3) 0.0335(16)
O3 O 0.5435(3) 0.72626(15) 0.24743(9)
O4 O 0.8631(3) 0.70580(15) 0.14907(9)
H15 H 0.928(6) 0.788(3) 0.1804(18)
H16 H 0.265(6) 0.523(3) 0.1264(18)
C7A C 0.3753(3) 0.34203(17) -0.17989(10)
C8A C 0.5360(4) 0.4888(2) -0.12554(12)
H12A H 0.501(5) 0.562(3) -0.1589(18)
C9A C 0.4593(5) 0.54389(19) -0.03079(12)
H13A H 0.563(5) 0.647(3) -0.0049(16)
H14A H 0.232(6) 0.540(3) -0.0335(16)
O3A O 0.4565(3) 0.27374(15) -0.24743(9)
O4A O 0.1369(3) 0.29420(15) -0.14907(9)
H15A H 0.072(6) 0.212(3) -0.1804(18)
H16A H 0.735(6) 0.477(3) -0.1264(18)
O5 O 0.1009(4) 0.65483(16) 0.75858(12)
H17 H 0.261(6) 0.716(3) 0.7750(16)
H18 H -0.035(6) 0.697(3) 0.7726(19)
loop_
_geom_bond_atom_site_label_1
_geom_bond_atom_site_label_2
_geom_bond_site_symmetry_1
_geom_bond_site_symmetry_2
H1 O2 1_555 1_555
C1 C2 1_555 1_555
C2 H2 1_555 1_555
C3 C2 1_555 1_555
H3 C3 1_555 1_555
H4 C3 1_555 1_555
O1 C1 1_555 1_555
O2 C1 1_555 1_555
H5 C2 1_555 1_555
C4 N1 1_555 1_555
C5 N2 1_555 1_555
C6 N3 1_555 1_555
N1 H6 1_555 1_555
H7 N1 1_555 1_555
N2 H8 1_555 1_555
H9 N2 1_555 1_555
N3 H10 1_555 1_555
H11 N3 1_555 1_555
N4 C4 1_555 1_555
N5 C5 1_555 1_555
N6 C4 1_555 1_555
C7 C8 1_555 1_555
C8 H12 1_555 1_555
C9 C8 1_555 1_555
H13 C9 1_555 1_555
H14 C9 1_555 1_555
O3 C7 1_555 1_555
O4 C7 1_555 1_555
H15 O4 1_555 1_555
H16 C8 1_555 1_555
O5 H17 1_555 1_555
H18 O5 1_555 1_555
H1A O2A 1_555 1_555
C1A C2A 1_555 1_555
C2A H2A 1_555 1_555
C3A C3 1_555 1_555
H3A C3A 1_555 1_555
H4A C3A 1_555 1_555
O1A C1A 1_555 1_555
O2A C1A 1_555 1_555
H5A C2A 1_555 1_555
C7A C8A 1_555 1_555
C8A H12A 1_555 1_555
C9A C9 1_555 1_555
H13A C9A 1_555 1_555
H14A C9A 1_555 1_555
O3A C7A 1_555 1_555
O4A C7A 1_555 1_555
H15A O4A 1_555 1_555
H16A C8A 1_555 1_555
C5 N4 1_555 1_555
C6 N5 1_555 1_555
C6 N6 1_555 1_555
C2A C3A 1_555 1_555
C8A C9A 1_555 1_555

#END
