
#######################################################################
#
#                 Cambridge Crystallographic Data Centre
#                                CCDC 
#
#######################################################################
#
# If this CIF has been generated from an entry in the Cambridge 
# Structural Database, then it will include bibliographic, chemical, 
# crystal, experimental, refinement or atomic coordinate data resulting 
# from the CCDC's data processing and validation procedures.
#
#######################################################################

data_NUSVUU
_chemical_formula_moiety         'C23 H28 N2 O2 S1 Si1'
_chemical_name_systematic        
8-((3-(Diethylsilyl)-4-methyl-3,4-dihydroquinolin-1(2H)-yl)sulfonyl)quinoline
_symmetry_cell_setting           monoclinic
_symmetry_space_group_name_H-M   'P 21/n'
_symmetry_Int_Tables_number      14
_space_group_name_Hall           '-P 2yn'
loop_
_symmetry_equiv_pos_site_id
_symmetry_equiv_pos_as_xyz
1 x,y,z
2 1/2-x,1/2+y,1/2-z
3 -x,-y,-z
4 1/2+x,1/2-y,1/2+z
_cell_length_a                   11.0102(5)
_cell_length_b                   8.7962(4)
_cell_length_c                   22.3342(9)
_cell_angle_alpha                90
_cell_angle_beta                 96.328(2)
_cell_angle_gamma                90
_cell_volume                     2149.84
_exptl_crystal_colour            white
_exptl_crystal_description       platy
_cell_formula_units_Z            4
loop_
_atom_site_label
_atom_site_type_symbol
_atom_site_fract_x
_atom_site_fract_y
_atom_site_fract_z
S1 S -0.05328(6) 0.32141(8) 0.18149(3)
O1 O 0.03913(19) 0.3574(2) 0.22998(9)
O2 O -0.1657(2) 0.4054(2) 0.17840(10)
Si1 Si 0.37106(8) 0.36905(11) 0.08358(4)
H1 H 0.4262 0.3961 0.0270
N1 N 0.1190(2) 0.0504(3) 0.19268(11)
N2 N 0.0087(2) 0.3426(3) 0.11845(10)
C1 C 0.2008(3) -0.0582(4) 0.20290(13)
H2 H 0.2844 -0.0312 0.2032
C2 C 0.1730(4) -0.2120(4) 0.21342(15)
H3 H 0.2363 -0.2848 0.2218
C3 C 0.0532(4) -0.2535(4) 0.21128(15)
H4 H 0.0320 -0.3567 0.2172
C4 C -0.0393(3) -0.1420(3) 0.20018(13)
C5 C -0.1658(3) -0.1758(4) 0.19723(14)
H5 H -0.1913 -0.2781 0.2011
C6 C -0.2512(3) -0.0639(4) 0.18898(15)
H6 H -0.3355 -0.0886 0.1870
C7 C -0.2147(3) 0.0889(4) 0.18339(14)
H7 H -0.2747 0.1669 0.1784
C8 C -0.0939(3) 0.1252(3) 0.18510(13)
C9 C -0.0008(3) 0.0112(3) 0.19254(12)
C10 C -0.0563(3) 0.2970(3) 0.06234(13)
C11 C -0.1835(3) 0.3085(4) 0.05220(14)
H8 H -0.2276 0.3510 0.0824
C12 C -0.2461(3) 0.2585(4) -0.00164(15)
H9 H -0.3327 0.2645 -0.0077
C13 C -0.1826(3) 0.2002(4) -0.04598(16)
H10 H -0.2249 0.1670 -0.0830
C14 C -0.0574(4) 0.1903(5) -0.03635(16)
H11 H -0.0145 0.1509 -0.0676
C15 C 0.0097(3) 0.2363(4) 0.01791(14)
C16 C 0.1474(3) 0.2210(5) 0.02963(17)
H12 H 0.1642 0.1301 0.0561
C17 C 0.1975(3) 0.3580(5) 0.06559(16)
H13 H 0.1728 0.4494 0.0405
C18 C 0.1422(3) 0.3776(3) 0.12356(14)
H14 H 0.1855 0.3104 0.1544
H15 H 0.1550 0.4839 0.1375
C19 C 0.2071(3) 0.1910(5) -0.02749(16)
H16 H 0.1710 0.1000 -0.0475
H17 H 0.2951 0.1752 -0.0171
H18 H 0.1939 0.2784 -0.0546
C20 C 0.4381(5) 0.1928(5) 0.1198(2)
H19 H 0.4523 0.1860 0.1624
C21 C 0.4700(4) 0.0601(5) 0.0809(2)
H20 H 0.3955 0.0213 0.0580
H21 H 0.5080 -0.0209 0.1067
H22 H 0.5272 0.0941 0.0530
C22 C 0.4105(3) 0.5325(4) 0.13625(15)
H23 H 0.3612 0.6219 0.1217
H24 H 0.3876 0.5056 0.1766
C23 C 0.5458(4) 0.5765(5) 0.1424(2)
H25 H 0.5597 0.6620 0.1704
H26 H 0.5689 0.6061 0.1029
H27 H 0.5954 0.4895 0.1578
loop_
_geom_bond_atom_site_label_1
_geom_bond_atom_site_label_2
_geom_bond_site_symmetry_1
_geom_bond_site_symmetry_2
S1 O1 1_555 1_555
O2 S1 1_555 1_555
Si1 H1 1_555 1_555
N1 C1 1_555 1_555
N2 S1 1_555 1_555
C1 H2 1_555 1_555
C2 C1 1_555 1_555
H3 C2 1_555 1_555
C3 C2 1_555 1_555
H4 C3 1_555 1_555
C4 C3 1_555 1_555
C5 C4 1_555 1_555
H5 C5 1_555 1_555
C6 C5 1_555 1_555
H6 C6 1_555 1_555
C7 C6 1_555 1_555
H7 C7 1_555 1_555
C8 S1 1_555 1_555
C9 N1 1_555 1_555
C10 N2 1_555 1_555
C11 C10 1_555 1_555
H8 C11 1_555 1_555
C12 C11 1_555 1_555
H9 C12 1_555 1_555
C13 C12 1_555 1_555
H10 C13 1_555 1_555
C14 C13 1_555 1_555
H11 C14 1_555 1_555
C15 C10 1_555 1_555
C16 C15 1_555 1_555
H12 C16 1_555 1_555
C17 Si1 1_555 1_555
H13 C17 1_555 1_555
C18 N2 1_555 1_555
H14 C18 1_555 1_555
H15 C18 1_555 1_555
C19 C16 1_555 1_555
H16 C19 1_555 1_555
H17 C19 1_555 1_555
H18 C19 1_555 1_555
C20 Si1 1_555 1_555
H19 C20 1_555 1_555
C21 C20 1_555 1_555
H20 C21 1_555 1_555
H21 C21 1_555 1_555
H22 C21 1_555 1_555
C22 Si1 1_555 1_555
H23 C22 1_555 1_555
H24 C22 1_555 1_555
C23 C22 1_555 1_555
H25 C23 1_555 1_555
H26 C23 1_555 1_555
H27 C23 1_555 1_555
C4 C9 1_555 1_555
C7 C8 1_555 1_555
C8 C9 1_555 1_555
C14 C15 1_555 1_555
C16 C17 1_555 1_555
C17 C18 1_555 1_555

#END
