
#######################################################################
#
#                 Cambridge Crystallographic Data Centre
#                                CCDC 
#
#######################################################################
#
# If this CIF has been generated from an entry in the Cambridge 
# Structural Database, then it will include bibliographic, chemical, 
# crystal, experimental, refinement or atomic coordinate data resulting 
# from the CCDC's data processing and validation procedures.
#
#######################################################################

data_NUSWAB
_chemical_formula_moiety         'C19 H18 N2 O3 S1'
_chemical_name_systematic        
4-Methyl-1-(quinolin-8-ylsulfonyl)-1,2,3,4-tetrahydroquinolin-3-ol
_symmetry_cell_setting           monoclinic
_symmetry_space_group_name_H-M   'P 21/n'
_symmetry_Int_Tables_number      14
_space_group_name_Hall           '-P 2yn'
loop_
_symmetry_equiv_pos_site_id
_symmetry_equiv_pos_as_xyz
1 x,y,z
2 1/2-x,1/2+y,1/2-z
3 -x,-y,-z
4 1/2+x,1/2-y,1/2+z
_cell_length_a                   9.9207(6)
_cell_length_b                   11.1361(7)
_cell_length_c                   15.2656(9)
_cell_angle_alpha                90
_cell_angle_beta                 100.731(2)
_cell_angle_gamma                90
_cell_volume                     1657.02
_exptl_crystal_colour            colorless
_exptl_crystal_description       Plate
_cell_formula_units_Z            4
loop_
_atom_site_label
_atom_site_type_symbol
_atom_site_fract_x
_atom_site_fract_y
_atom_site_fract_z
S1 S 0.68526(5) 0.84284(5) 0.12708(3)
N1 N 0.53032(18) 0.82543(17) 0.14781(11)
O1 O 0.4161(2) 1.05866(16) 0.16077(13)
H1 H 0.4273 1.1019 0.1176
C1 C 0.7349(2) 0.7018(2) 0.08983(14)
O2 O 0.77655(18) 0.86838(17) 0.20935(11)
N2 N 0.54916(19) 0.70812(17) -0.03639(12)
C2 C 0.6601(2) 0.64919(19) 0.01052(13)
O3 O 0.67726(17) 0.92704(15) 0.05515(11)
C3 C 0.4793(3) 0.6548(2) -0.10796(15)
H2 H 0.4006 0.6946 -0.1399
C4 C 0.7033(3) 0.5351(2) -0.01647(16)
C5 C 0.3848(2) 0.81498(19) 0.25933(14)
C6 C 0.5719(3) 0.6595(2) 0.36441(15)
H3 H 0.6352 0.6071 0.4000
C7 C 0.5060(2) 0.78050(18) 0.23146(13)
C8 C 0.2799(2) 0.8990(2) 0.20613(15)
H4 H 0.2611 0.9643 0.2472
C9 C 0.5985(2) 0.7021(2) 0.28379(14)
H5 H 0.6796 0.6780 0.2640
C10 C 0.8468(2) 0.6439(2) 0.13897(16)
H6 H 0.8957 0.6796 0.1920
C11 C 0.3313(2) 0.9581(2) 0.12847(16)
H7 H 0.2507 0.9872 0.0842
C12 C 0.6261(3) 0.4841(2) -0.09445(18)
H8 H 0.6520 0.4087 -0.1153
C13 C 0.4103(2) 0.8686(2) 0.08354(14)
H9 H 0.3503 0.8000 0.0610
H10 H 0.4411 0.9070 0.0322
C14 C 0.1444(3) 0.8330(3) 0.1729(2)
H11 H 0.1567 0.7754 0.1265
H12 H 0.0734 0.8913 0.1482
H13 H 0.1165 0.7902 0.2227
C15 C 0.5144(3) 0.5427(2) -0.13972(17)
H14 H 0.4610 0.5086 -0.1919
C16 C 0.3610(3) 0.7694(2) 0.34019(16)
H15 H 0.2789 0.7912 0.3598
C17 C 0.8889(3) 0.5315(3) 0.1105(2)
H16 H 0.9663 0.4922 0.1446
C18 C 0.4526(3) 0.6937(2) 0.39276(16)
H17 H 0.4341 0.6653 0.4480
C19 C 0.8206(3) 0.4795(3) 0.03563(19)
H18 H 0.8513 0.4044 0.0172
loop_
_geom_bond_atom_site_label_1
_geom_bond_atom_site_label_2
_geom_bond_site_symmetry_1
_geom_bond_site_symmetry_2
S1 N1 1_555 1_555
N1 C7 1_555 1_555
O1 H1 1_555 1_555
C1 S1 1_555 1_555
O2 S1 1_555 1_555
N2 C2 1_555 1_555
C2 C1 1_555 1_555
O3 S1 1_555 1_555
C3 N2 1_555 1_555
H2 C3 1_555 1_555
C4 C2 1_555 1_555
C5 C7 1_555 1_555
C6 H3 1_555 1_555
C7 C9 1_555 1_555
C8 C5 1_555 1_555
H4 C8 1_555 1_555
C9 C6 1_555 1_555
H5 C9 1_555 1_555
C10 C1 1_555 1_555
H6 C10 1_555 1_555
C11 O1 1_555 1_555
H7 C11 1_555 1_555
C12 C4 1_555 1_555
H8 C12 1_555 1_555
C13 N1 1_555 1_555
H9 C13 1_555 1_555
H10 C13 1_555 1_555
C14 C8 1_555 1_555
H11 C14 1_555 1_555
H12 C14 1_555 1_555
H13 C14 1_555 1_555
C15 C3 1_555 1_555
H14 C15 1_555 1_555
C16 C5 1_555 1_555
H15 C16 1_555 1_555
C17 C10 1_555 1_555
H16 C17 1_555 1_555
C18 C6 1_555 1_555
H17 C18 1_555 1_555
C19 C4 1_555 1_555
H18 C19 1_555 1_555
C8 C11 1_555 1_555
C11 C13 1_555 1_555
C12 C15 1_555 1_555
C16 C18 1_555 1_555
C17 C19 1_555 1_555

#END
