
#######################################################################
#
#                 Cambridge Crystallographic Data Centre
#                                CCDC 
#
#######################################################################
#
# If this CIF has been generated from an entry in the Cambridge 
# Structural Database, then it will include bibliographic, chemical, 
# crystal, experimental, refinement or atomic coordinate data resulting 
# from the CCDC's data processing and validation procedures.
#
#######################################################################

data_NUSWUV
_chemical_formula_moiety         'C11 H15 N1 O2'
_chemical_name_systematic        
4-(1-Hydroxyethyl)-1,2,3,4-tetrahydroquinolin-3-ol
_symmetry_cell_setting           monoclinic
_symmetry_space_group_name_H-M   'P 21'
_symmetry_Int_Tables_number      4
_space_group_name_Hall           'P 2yb'
loop_
_symmetry_equiv_pos_site_id
_symmetry_equiv_pos_as_xyz
1 x,y,z
2 -x,1/2+y,-z
_cell_length_a                   5.8577(3)
_cell_length_b                   6.6735(3)
_cell_length_c                   12.7807(6)
_cell_angle_alpha                90
_cell_angle_beta                 98.084(3)
_cell_angle_gamma                90
_cell_volume                     494.65
_exptl_crystal_colour            white
_exptl_crystal_description       platy
_cell_formula_units_Z            2
loop_
_atom_site_label
_atom_site_type_symbol
_atom_site_fract_x
_atom_site_fract_y
_atom_site_fract_z
O1 O 0.3303(2) -0.06768(16) 0.93884(9)
O2 O 0.3195(2) 0.52961(17) 0.90536(8)
N1 N -0.0822(2) -0.0318(2) 0.79150(11)
C1 C 0.0449(3) -0.0168(2) 0.70871(12)
C2 C -0.0250(3) -0.1240(2) 0.61547(13)
H1 H -0.1664 -0.1959 0.6077
C3 C 0.1081(3) -0.1264(3) 0.53503(13)
H2 H 0.0575 -0.1982 0.4718
C4 C 0.3157(3) -0.0244(2) 0.54602(12)
H3 H 0.4098 -0.0284 0.4913
C5 C 0.3853(3) 0.0836(2) 0.63756(12)
H4 H 0.5281 0.1533 0.6447
C6 C 0.2521(2) 0.0929(2) 0.71926(11)
C7 C 0.3279(2) 0.2140(2) 0.81878(12)
H5 H 0.4993 0.2016 0.8352
C8 C 0.2249(3) 0.1223(2) 0.91175(11)
H6 H 0.2559 0.2140 0.9740
C9 C -0.0317(3) 0.0946(2) 0.88410(12)
H7 H -0.0944 0.0323 0.9444
H8 H -0.1067 0.2267 0.8701
C10 C 0.2719(2) 0.4381(2) 0.80331(11)
H9 H 0.1042 0.4536 0.7762
C11 C 0.4120(3) 0.5389(3) 0.72757(13)
H10 H 0.3692 0.6807 0.7206
H11 H 0.3812 0.4738 0.6583
H12 H 0.5765 0.5275 0.7548
H13 H 0.442(3) -0.051(4) 0.9901(15)
H14 H 0.301(4) 0.653(4) 0.8993(16)
H15 H -0.215(4) -0.078(4) 0.7769(15)
loop_
_geom_bond_atom_site_label_1
_geom_bond_atom_site_label_2
_geom_bond_site_symmetry_1
_geom_bond_site_symmetry_2
O1 C8 1_555 1_555
O2 C10 1_555 1_555
N1 C1 1_555 1_555
C1 C2 1_555 1_555
C2 H1 1_555 1_555
C3 C2 1_555 1_555
H2 C3 1_555 1_555
C4 C3 1_555 1_555
H3 C4 1_555 1_555
C5 C4 1_555 1_555
H4 C5 1_555 1_555
C6 C1 1_555 1_555
C7 C6 1_555 1_555
H5 C7 1_555 1_555
C8 C7 1_555 1_555
H6 C8 1_555 1_555
C9 N1 1_555 1_555
H7 C9 1_555 1_555
H8 C9 1_555 1_555
C10 C7 1_555 1_555
H9 C10 1_555 1_555
C11 C10 1_555 1_555
H10 C11 1_555 1_555
H11 C11 1_555 1_555
H12 C11 1_555 1_555
H13 O1 1_555 1_555
H14 O2 1_555 1_555
H15 N1 1_555 1_555
C5 C6 1_555 1_555
C8 C9 1_555 1_555

#END
