
#######################################################################
#
#                 Cambridge Crystallographic Data Centre
#                                CCDC 
#
#######################################################################
#
# If this CIF has been generated from an entry in the Cambridge 
# Structural Database, then it will include bibliographic, chemical, 
# crystal, experimental, refinement or atomic coordinate data resulting 
# from the CCDC's data processing and validation procedures.
#
#######################################################################

data_NUTJIX
_chemical_formula_moiety         'C19 H24 N4 S2'
_chemical_name_systematic        
1,1'-((2,4,6-Trimethyl-1,3-phenylene)bis(methylene))bis(3-methyl-1,3-dihydro-2H-imidazole-2-thione)
_symmetry_cell_setting           orthorhombic
_symmetry_space_group_name_H-M   'P b c n'
_symmetry_Int_Tables_number      60
_space_group_name_Hall           '-P 2n 2ab'
loop_
_symmetry_equiv_pos_site_id
_symmetry_equiv_pos_as_xyz
1 x,y,z
2 1/2-x,1/2-y,1/2+z
3 -x,y,1/2-z
4 1/2+x,1/2-y,-z
5 -x,-y,-z
6 1/2+x,1/2+y,1/2-z
7 x,-y,1/2+z
8 1/2-x,1/2+y,z
_cell_length_a                   14.683(6)
_cell_length_b                   10.965(4)
_cell_length_c                   24.216(9)
_cell_angle_alpha                90
_cell_angle_beta                 90
_cell_angle_gamma                90
_cell_volume                     3898.75
_exptl_crystal_colour            colorless
_exptl_crystal_description       prism
_cell_formula_units_Z            8
loop_
_atom_site_label
_atom_site_type_symbol
_atom_site_fract_x
_atom_site_fract_y
_atom_site_fract_z
S1 S 0.09051(7) 0.40904(7) 0.17037(3)
S2 S 0.12587(9) 1.10520(8) 0.50097(4)
N1 N 0.16843(18) 0.6161(2) 0.20815(9)
N2 N 0.14612(18) 0.6192(2) 0.12045(9)
N3 N 0.13968(18) 0.8747(2) 0.46155(9)
N4 N 0.11486(18) 0.8820(2) 0.54889(10)
C1 C 0.1621(2) 0.7406(3) 0.33513(11)
C2 C 0.2158(2) 0.6615(3) 0.30356(11)
C3 C 0.3103(2) 0.6668(3) 0.30643(12)
C4 C 0.3497(2) 0.7498(3) 0.34153(12)
H1 H 0.4129 0.7534 0.3436
C5 C 0.2990(2) 0.8282(3) 0.37394(12)
C6 C 0.2047(2) 0.8248(3) 0.37013(11)
C7 C 0.1720(3) 0.5702(3) 0.26528(12)
H2 H 0.2063 0.4946 0.2662
H3 H 0.1106 0.5530 0.2780
C8 C 0.13590(19) 0.5486(3) 0.16581(11)
C9 C 0.1855(2) 0.7279(3) 0.13467(13)
H4 H 0.2002 0.7912 0.1107
C10 C 0.1987(3) 0.7263(3) 0.18859(13)
H5 H 0.2241 0.7888 0.2096
C11 C 0.1209(3) 0.5830(3) 0.06494(13)
H6 H 0.1664 0.5293 0.0502
H7 H 0.1162 0.6541 0.0420
H8 H 0.0632 0.5417 0.0658
C12 C 0.1501(3) 0.9133(3) 0.40388(12)
H9 H 0.1798 0.9923 0.4030
H10 H 0.0903 0.9223 0.3874
C13 C 0.1262(2) 0.9529(3) 0.50375(12)
C14 C 0.1198(3) 0.7620(3) 0.53443(14)
H11 H 0.1140 0.6958 0.5581
C15 C 0.1343(3) 0.7569(3) 0.48058(14)
H12 H 0.1398 0.6865 0.4595
C16 C 0.0966(3) 0.9275(4) 0.60417(14)
H13 H 0.1476 0.9750 0.6167
H14 H 0.0873 0.8600 0.6288
H15 H 0.0430 0.9776 0.6036
C17 C 0.0596(3) 0.7358(4) 0.33136(17)
H16 H 0.0396 0.7840 0.3006
H17 H 0.0336 0.7675 0.3648
H18 H 0.0404 0.6528 0.3263
C18 C 0.3707(3) 0.5863(4) 0.27170(16)
H19 H 0.4334 0.6046 0.2794
H20 H 0.3585 0.6007 0.2333
H21 H 0.3588 0.5023 0.2803
C19 C 0.3486(3) 0.9148(4) 0.41184(15)
H22 H 0.3240 0.9082 0.4484
H23 H 0.3411 0.9968 0.3987
H24 H 0.4122 0.8945 0.4125
loop_
_geom_bond_atom_site_label_1
_geom_bond_atom_site_label_2
_geom_bond_site_symmetry_1
_geom_bond_site_symmetry_2
S1 C8 1_555 1_555
S2 C13 1_555 1_555
N1 C7 1_555 1_555
N2 C8 1_555 1_555
N3 C12 1_555 1_555
N4 C13 1_555 1_555
C1 C2 1_555 1_555
C2 C3 1_555 1_555
C3 C4 1_555 1_555
C4 H1 1_555 1_555
C5 C4 1_555 1_555
C6 C1 1_555 1_555
C7 C2 1_555 1_555
H2 C7 1_555 1_555
H3 C7 1_555 1_555
C8 N1 1_555 1_555
C9 N2 1_555 1_555
H4 C9 1_555 1_555
C10 N1 1_555 1_555
H5 C10 1_555 1_555
C11 N2 1_555 1_555
H6 C11 1_555 1_555
H7 C11 1_555 1_555
H8 C11 1_555 1_555
C12 C6 1_555 1_555
H9 C12 1_555 1_555
H10 C12 1_555 1_555
C13 N3 1_555 1_555
C14 N4 1_555 1_555
H11 C14 1_555 1_555
C15 N3 1_555 1_555
H12 C15 1_555 1_555
C16 N4 1_555 1_555
H13 C16 1_555 1_555
H14 C16 1_555 1_555
H15 C16 1_555 1_555
C17 C1 1_555 1_555
H16 C17 1_555 1_555
H17 C17 1_555 1_555
H18 C17 1_555 1_555
C18 C3 1_555 1_555
H19 C18 1_555 1_555
H20 C18 1_555 1_555
H21 C18 1_555 1_555
C19 C5 1_555 1_555
H22 C19 1_555 1_555
H23 C19 1_555 1_555
H24 C19 1_555 1_555
C5 C6 1_555 1_555
C9 C10 1_555 1_555
C14 C15 1_555 1_555

#END
