
#######################################################################
#
#                 Cambridge Crystallographic Data Centre
#                                CCDC 
#
#######################################################################
#
# If this CIF has been generated from an entry in the Cambridge 
# Structural Database, then it will include bibliographic, chemical, 
# crystal, experimental, refinement or atomic coordinate data resulting 
# from the CCDC's data processing and validation procedures.
#
#######################################################################

data_NUTPEY
_chemical_formula_moiety         'C26 H21 Cl1 N2 O8'
_chemical_name_systematic        
'Methyl 4,7-diacetoxy-1-(4-chlorophenyl)-3-(4-nitrophenyl)isoindoline-1-carboxylate'
_symmetry_cell_setting           monoclinic
_symmetry_space_group_name_H-M   'P 21'
_symmetry_Int_Tables_number      4
_space_group_name_Hall           'P 2yb'
loop_
_symmetry_equiv_pos_site_id
_symmetry_equiv_pos_as_xyz
1 x,y,z
2 -x,1/2+y,-z
_cell_length_a                   7.965(5)
_cell_length_b                   30.381(5)
_cell_length_c                   10.583(5)
_cell_angle_alpha                90
_cell_angle_beta                 101.631(5)
_cell_angle_gamma                90
_cell_volume                     2508.34
_exptl_crystal_colour            colorless
_exptl_crystal_description       block
_cell_formula_units_Z            4
loop_
_atom_site_label
_atom_site_type_symbol
_atom_site_fract_x
_atom_site_fract_y
_atom_site_fract_z
Cl1 Cl 0.6696(2) -0.08344(6) 0.81241(16)
O1 O 0.9069(3) 0.15724(9) 0.3624(3)
C1 C 0.5897(5) -0.00104(11) 0.4523(4)
N2 N 0.4701(4) 0.07051(11) 0.3662(4)
O4 O 0.4391(4) -0.03449(11) 0.2220(3)
O6 O 0.3661(4) 0.02997(12) 0.1259(3)
C6 C 0.8838(5) 0.11406(13) 0.3160(4)
C7 C 0.7392(4) 0.09155(13) 0.3339(4)
C8 C 0.3745(5) 0.18633(15) 0.1305(5)
H2 H 0.3299 0.1863 0.0423
C10 C 0.9155(6) 0.19031(16) 0.2766(5)
C11 C 0.5080(4) 0.14907(12) 0.3227(4)
C15 C 0.5546(4) 0.02967(12) 0.3356(4)
C18 C 0.6414(6) -0.05176(14) 0.6727(5)
N4 N 0.2986(5) 0.26421(17) 0.1321(7)
C23 C 0.3721(5) 0.22362(13) 0.2004(5)
C24 C 0.4435(5) 0.14859(14) 0.1911(4)
H10 H 0.4468 0.1229 0.1440
C27 C 0.8370(5) 0.02737(13) 0.2405(4)
C28 C 0.4748(5) -0.03971(13) 0.6152(4)
H11 H 0.3820 -0.0486 0.6500
C29 C 0.4515(5) -0.01425(13) 0.5051(4)
H12 H 0.3413 -0.0058 0.4655
C30 C 0.9822(5) 0.04941(15) 0.2246(4)
H13 H 1.0638 0.0352 0.1875
C31 C 0.7521(5) -0.01380(13) 0.5123(4)
H14 H 0.8459 -0.0050 0.4785
O9 O 0.2903(6) 0.29693(13) 0.1963(6)
C32 C 0.7770(6) -0.03959(14) 0.6222(4)
H15 H 0.8869 -0.0485 0.6612
C34 C 1.0064(5) 0.09277(15) 0.2640(4)
H17 H 1.1057 0.1075 0.2553
C37 C 0.5888(4) 0.10795(12) 0.3882(4)
H20 H 0.6253 0.1133 0.4810
C38 C 0.5011(6) 0.18725(14) 0.3903(5)
H21 H 0.5421 0.1875 0.4790
C41 C 0.7177(4) 0.04791(12) 0.2977(4)
O10 O 0.9063(7) 0.18303(11) 0.1670(4)
C42 C 0.4341(6) 0.22540(14) 0.3289(5)
H22 H 0.4319 0.2515 0.3746
C44 C 0.4420(5) 0.00877(16) 0.2149(5)
C45 C 0.3472(7) -0.05723(17) 0.1063(5)
H23 H 0.3538 -0.0885 0.1204
H24 H 0.3984 -0.0499 0.0343
H25 H 0.2293 -0.0482 0.0885
C47 C 0.9409(7) 0.23353(16) 0.3392(5)
H29 H 0.9462 0.2302 0.4302
H30 H 0.8470 0.2525 0.3033
H31 H 1.0461 0.2462 0.3252
O11 O 0.8016(4) -0.01515(9) 0.1919(3)
O13 O 1.0391(5) -0.04266(13) 0.3162(5)
O14 O 0.2538(6) 0.26270(15) 0.0158(6)
C50 C 0.9136(7) -0.04820(16) 0.2361(5)
C52 C 0.8545(9) -0.08954(17) 0.1667(6)
H38 H 0.7487 -0.0842 0.1068
H39 H 0.8370 -0.1116 0.2276
H40 H 0.9395 -0.0995 0.1206
H42 H 0.405(6) 0.0654(18) 0.421(5)
Cl2 Cl 0.81558(18) 0.38244(5) 1.24252(14)
N1 N 0.8809(4) 0.23571(10) 0.7793(3)
O2 O 0.5624(3) 0.12748(9) 0.8717(3)
C2 C 0.9099(4) 0.14436(12) 0.6898(4)
H1 H 0.8628 0.1637 0.6241
C3 C 0.7547(4) 0.29802(11) 0.8854(4)
C4 C 0.5874(4) 0.23923(12) 0.7448(4)
O3 O 0.3810(3) 0.28525(9) 0.6138(3)
O5 O 0.7197(4) 0.33859(9) 0.6618(3)
C5 C 0.5143(5) 0.16679(12) 0.8047(4)
O7 O 1.1289(4) 0.02853(12) 0.6120(4)
N3 N 1.1274(4) 0.03498(13) 0.7256(5)
C9 C 0.9791(4) 0.10440(13) 0.6600(4)
H3 H 0.9740 0.0962 0.5746
O8 O 0.7635(5) 0.28172(11) 0.5436(3)
C12 C 0.2507(6) 0.31142(15) 0.6322(6)
C13 C 0.8271(4) 0.19758(11) 0.8491(4)
H4 H 0.8548 0.2029 0.9424
C14 C 0.9115(4) 0.15516(11) 0.8171(4)
C16 C 0.6171(5) 0.30593(13) 0.9444(5)
H5 H 0.5108 0.2938 0.9089
C17 C 0.9919(5) 0.12704(13) 0.9134(4)
H6 H 0.9977 0.1347 0.9993
C19 C 0.3445(5) 0.17524(13) 0.7503(4)
H7 H 0.2616 0.1541 0.7553
C20 C 0.6339(6) 0.33131(15) 1.0544(5)
H8 H 0.5409 0.3361 1.0935
C21 C 0.9099(5) 0.31694(12) 0.9402(4)
H9 H 1.0037 0.3125 0.9018
C22 C 0.7905(5) 0.34934(13) 1.1045(4)
C25 C 0.7429(4) 0.26898(11) 0.7643(4)
C26 C 1.0539(4) 0.07769(12) 0.7581(4)
C33 C 0.9297(5) 0.34240(13) 1.0507(4)
H16 H 1.0356 0.3545 1.0874
C35 C 0.2967(5) 0.21450(14) 0.6888(4)
H18 H 0.1829 0.2194 0.6494
C36 C 1.0631(5) 0.08811(13) 0.8850(4)
H19 H 1.1162 0.0693 0.9502
C39 C 0.4190(5) 0.24663(12) 0.6861(4)
C40 C 0.6353(4) 0.19838(12) 0.8011(4)
C43 C 0.7476(5) 0.29636(14) 0.6441(4)
C46 C 0.7072(6) 0.36768(16) 0.5508(5)
H26 H 0.6881 0.3973 0.5761
H27 H 0.6133 0.3585 0.4841
H28 H 0.8118 0.3664 0.5192
C48 C 0.2218(7) 0.34731(18) 0.5327(6)
H32 H 0.3015 0.3440 0.4763
H33 H 0.2384 0.3754 0.5747
H34 H 0.1068 0.3454 0.4832
O12 O 0.5042(5) 0.08953(11) 0.6860(4)
C49 C 0.5510(6) 0.08955(14) 0.7996(5)
O15 O 1.1772(6) 0.00931(12) 0.8112(4)
O16 O 0.1728(5) 0.30593(11) 0.7134(4)
C51 C 0.6051(6) 0.05123(15) 0.8849(5)
H35 H 0.6375 0.0611 0.9727
H36 H 0.7010 0.0371 0.8598
H37 H 0.5118 0.0308 0.8775
H41 H 0.985(3) 0.2462(11) 0.807(3)
loop_
_geom_bond_atom_site_label_1
_geom_bond_atom_site_label_2
_geom_bond_site_symmetry_1
_geom_bond_site_symmetry_2
Cl1 C18 1_555 1_555
Cl2 C22 1_555 1_555
O1 C6 1_555 1_555
N1 C13 1_555 1_555
O2 C5 1_555 1_555
C1 C15 1_555 1_555
C2 H1 1_555 1_555
C3 C16 1_555 1_555
N2 C15 1_555 1_555
C4 C25 1_555 1_555
O3 C12 1_555 1_555
O4 C44 1_555 1_555
O5 C43 1_555 1_555
O6 C44 1_555 1_555
C5 C19 1_555 1_555
C6 C7 1_555 1_555
O7 N3 1_555 1_555
C7 C37 1_555 1_555
N3 C26 1_555 1_555
C8 H2 1_555 1_555
C9 C2 1_555 1_555
H3 C9 1_555 1_555
O8 C43 1_555 1_555
C10 O1 1_555 1_555
C11 C24 1_555 1_555
C12 C48 1_555 1_555
C13 H4 1_555 1_555
C14 C2 1_555 1_555
C15 C41 1_555 1_555
C16 H5 1_555 1_555
C17 C14 1_555 1_555
H6 C17 1_555 1_555
C18 C28 1_555 1_555
N4 C23 1_555 1_555
C19 H7 1_555 1_555
C20 C16 1_555 1_555
H8 C20 1_555 1_555
C21 C3 1_555 1_555
H9 C21 1_555 1_555
C22 C20 1_555 1_555
C23 C8 1_555 1_555
C24 C8 1_555 1_555
H10 C24 1_555 1_555
C25 N1 1_555 1_555
C26 C9 1_555 1_555
C27 C30 1_555 1_555
C28 H11 1_555 1_555
C29 C1 1_555 1_555
H12 C29 1_555 1_555
C30 H13 1_555 1_555
C31 C1 1_555 1_555
H14 C31 1_555 1_555
O9 N4 1_555 1_555
C32 C18 1_555 1_555
H15 C32 1_555 1_555
C33 C21 1_555 1_555
H16 C33 1_555 1_555
C34 C6 1_555 1_555
H17 C34 1_555 1_555
C35 C19 1_555 1_555
H18 C35 1_555 1_555
C36 C17 1_555 1_555
H19 C36 1_555 1_555
C37 N2 1_555 1_555
H20 C37 1_555 1_555
C38 C11 1_555 1_555
H21 C38 1_555 1_555
C39 C4 1_555 1_555
C40 C4 1_555 1_555
C41 C7 1_555 1_555
O10 C10 1_555 1_555
C42 C23 1_555 1_555
H22 C42 1_555 1_555
C43 C25 1_555 1_555
C44 C15 1_555 1_555
C45 O4 1_555 1_555
H23 C45 1_555 1_555
H24 C45 1_555 1_555
H25 C45 1_555 1_555
C46 O5 1_555 1_555
H26 C46 1_555 1_555
H27 C46 1_555 1_555
H28 C46 1_555 1_555
C47 C10 1_555 1_555
H29 C47 1_555 1_555
H30 C47 1_555 1_555
H31 C47 1_555 1_555
C48 H32 1_555 1_555
H33 C48 1_555 1_555
H34 C48 1_555 1_555
O11 C27 1_555 1_555
O12 C49 1_555 1_555
O13 C50 1_555 1_555
C49 O2 1_555 1_555
O14 N4 1_555 1_555
O15 N3 1_555 1_555
C50 O11 1_555 1_555
O16 C12 1_555 1_555
C51 C49 1_555 1_555
H35 C51 1_555 1_555
H36 C51 1_555 1_555
H37 C51 1_555 1_555
C52 C50 1_555 1_555
H38 C52 1_555 1_555
H39 C52 1_555 1_555
H40 C52 1_555 1_555
H41 N1 1_555 1_555
H42 N2 1_555 1_555
C3 C25 1_555 1_555
O3 C39 1_555 1_555
C5 C40 1_555 1_555
C11 C37 1_555 1_555
C13 C14 1_555 1_555
C13 C40 1_555 1_555
C22 C33 1_555 1_555
C26 C36 1_555 1_555
C27 C41 1_555 1_555
C28 C29 1_555 1_555
C30 C34 1_555 1_555
C31 C32 1_555 1_555
C35 C39 1_555 1_555
C38 C42 1_555 1_555

#END
