
#######################################################################
#
#                 Cambridge Crystallographic Data Centre
#                                CCDC 
#
#######################################################################
#
# If this CIF has been generated from an entry in the Cambridge 
# Structural Database, then it will include bibliographic, chemical, 
# crystal, experimental, refinement or atomic coordinate data resulting 
# from the CCDC's data processing and validation procedures.
#
#######################################################################

data_NUTWUV
_chemical_formula_moiety         'C24 H22 O3'
_chemical_name_systematic        
'(2S*,3S*,5R*)-Methyl 2,3,5-triphenyltetrahydrofuran-2-carboxylate'
_symmetry_cell_setting           orthorhombic
_symmetry_space_group_name_H-M   'P 21 21 21'
_symmetry_Int_Tables_number      19
_space_group_name_Hall           'P 2ac 2ab'
loop_
_symmetry_equiv_pos_site_id
_symmetry_equiv_pos_as_xyz
1 x,y,z
2 1/2-x,-y,1/2+z
3 -x,1/2+y,1/2-z
4 1/2+x,1/2-y,-z
_cell_length_a                   8.6978(3)
_cell_length_b                   9.0256(3)
_cell_length_c                   23.8222(9)
_cell_angle_alpha                90
_cell_angle_beta                 90
_cell_angle_gamma                90
_cell_volume                     1870.11
_exptl_crystal_colour            colorless
_exptl_crystal_description       block
_cell_formula_units_Z            4
loop_
_atom_site_label
_atom_site_type_symbol
_atom_site_fract_x
_atom_site_fract_y
_atom_site_fract_z
O1 O 0.28385(14) 0.16477(13) 0.22309(5)
O2 O 0.25329(17) 0.39995(15) 0.10462(5)
O3 O 0.36823(18) 0.42545(14) 0.18791(6)
C1 C 0.1673(2) -0.1089(2) 0.08919(8)
H1 H 0.2214 -0.1473 0.1206
C2 C 0.1493(2) -0.1959(2) 0.04177(8)
H2 H 0.1923 -0.2926 0.0407
C3 C 0.0689(2) -0.1422(2) -0.00389(8)
H3 H 0.0544 -0.2026 -0.0361
C4 C 0.0101(2) -0.0013(2) -0.00243(8)
H4 H -0.0448 0.0361 -0.0338
C5 C 0.0305(2) 0.0868(2) 0.04466(7)
H5 H -0.0091 0.1850 0.0448
C6 C 0.10737(19) 0.0344(2) 0.09150(7)
C7 C 0.0989(2) 0.1167(2) 0.34894(7)
H6 H 0.0462 0.2089 0.3482
C8 C 0.1242(2) 0.0462(2) 0.39983(8)
H7 H 0.0898 0.0907 0.4337
C9 C 0.1990(2) -0.0878(2) 0.40125(8)
H8 H 0.2177 -0.1354 0.4362
C10 C 0.2470(2) -0.1532(2) 0.35194(8)
H9 H 0.2968 -0.2469 0.3528
C11 C 0.2226(2) -0.0826(2) 0.30134(8)
H10 H 0.2561 -0.1281 0.2675
C12 C 0.1494(2) 0.05453(19) 0.29921(7)
C13 C 0.4596(2) 0.1213(2) 0.08255(8)
H11 H 0.4021 0.1866 0.0594
C14 C 0.5854(2) 0.0463(2) 0.06063(9)
H12 H 0.6140 0.0613 0.0226
C15 C 0.6692(2) -0.0496(2) 0.09364(10)
H13 H 0.7559 -0.0999 0.0786
C16 C 0.6262(2) -0.0722(2) 0.14889(9)
H14 H 0.6825 -0.1396 0.1716
C17 C 0.5017(2) 0.0030(2) 0.17128(8)
H15 H 0.4737 -0.0128 0.2094
C18 C 0.41732(19) 0.10102(19) 0.13862(7)
C19 C 0.1312(2) 0.1347(2) 0.24413(7)
H16 H 0.0757 0.2302 0.2504
C20 C 0.0558(2) 0.0509(2) 0.19666(7)
H17 H -0.0576 0.0580 0.1990
H18 H 0.0860 -0.0549 0.1972
C21 C 0.11615(19) 0.12800(19) 0.14395(7)
H19 H 0.0511 0.2178 0.1376
C22 C 0.2798(2) 0.18330(19) 0.16356(7)
C23 C 0.29681(19) 0.34846(19) 0.14828(7)
C24 C 0.3983(4) 0.5799(2) 0.17437(11)
H20 H 0.4517 0.6272 0.2058
H21 H 0.3007 0.6310 0.1675
H22 H 0.4626 0.5854 0.1407
loop_
_geom_bond_atom_site_label_1
_geom_bond_atom_site_label_2
_geom_bond_site_symmetry_1
_geom_bond_site_symmetry_2
O1 C19 1_555 1_555
O2 C23 1_555 1_555
O3 C23 1_555 1_555
C1 H1 1_555 1_555
C2 C1 1_555 1_555
H2 C2 1_555 1_555
C3 C2 1_555 1_555
H3 C3 1_555 1_555
C4 C3 1_555 1_555
H4 C4 1_555 1_555
C5 C4 1_555 1_555
H5 C5 1_555 1_555
C6 C1 1_555 1_555
C7 H6 1_555 1_555
C8 C7 1_555 1_555
H7 C8 1_555 1_555
C9 C8 1_555 1_555
H8 C9 1_555 1_555
C10 C9 1_555 1_555
H9 C10 1_555 1_555
C11 C10 1_555 1_555
H10 C11 1_555 1_555
C12 C7 1_555 1_555
C13 H11 1_555 1_555
C14 C13 1_555 1_555
H12 C14 1_555 1_555
C15 C14 1_555 1_555
H13 C15 1_555 1_555
C16 C15 1_555 1_555
H14 C16 1_555 1_555
C17 C16 1_555 1_555
H15 C17 1_555 1_555
C18 C13 1_555 1_555
C19 C12 1_555 1_555
H16 C19 1_555 1_555
C20 C19 1_555 1_555
H17 C20 1_555 1_555
H18 C20 1_555 1_555
C21 C6 1_555 1_555
H19 C21 1_555 1_555
C22 O1 1_555 1_555
C23 C22 1_555 1_555
C24 O3 1_555 1_555
H20 C24 1_555 1_555
H21 C24 1_555 1_555
H22 C24 1_555 1_555
C5 C6 1_555 1_555
C11 C12 1_555 1_555
C17 C18 1_555 1_555
C18 C22 1_555 1_555
C20 C21 1_555 1_555
C21 C22 1_555 1_555

#END
