
#######################################################################
#
#                 Cambridge Crystallographic Data Centre
#                                CCDC 
#
#######################################################################
#
# If this CIF has been generated from an entry in the Cambridge 
# Structural Database, then it will include bibliographic, chemical, 
# crystal, experimental, refinement or atomic coordinate data resulting 
# from the CCDC's data processing and validation procedures.
#
#######################################################################

data_NUVJIY
_chemical_formula_moiety         'C19 H26'
_chemical_name_systematic        
6,7,8,9,10,11,12,13,14,15-Decahydro-5H-cyclododeca[a]indene
_symmetry_cell_setting           monoclinic
_symmetry_space_group_name_H-M   'P 21/c'
_symmetry_Int_Tables_number      14
_space_group_name_Hall           '-P 2ybc'
loop_
_symmetry_equiv_pos_site_id
_symmetry_equiv_pos_as_xyz
1 x,y,z
2 -x,1/2+y,1/2-z
3 -x,-y,-z
4 x,1/2-y,1/2+z
_cell_length_a                   14.406(3)
_cell_length_b                   16.472(3)
_cell_length_c                   12.580(3)
_cell_angle_alpha                90
_cell_angle_beta                 93.36(3)
_cell_angle_gamma                90
_cell_volume                     2980.05
_exptl_crystal_colour            colorless
_exptl_crystal_description       block
_cell_formula_units_Z            8
loop_
_atom_site_label
_atom_site_type_symbol
_atom_site_fract_x
_atom_site_fract_y
_atom_site_fract_z
C1 C 0.65449(14) 0.16840(12) 0.92112(15)
C3 C 0.56629(14) 0.17045(12) 0.87898(15)
C6 C 0.47977(14) 0.19972(12) 0.92926(15)
H3 H 0.4424 0.2322 0.8762
H4 H 0.4984 0.2360 0.9895
C7 C 0.41831(14) 0.13164(13) 0.97020(16)
H5 H 0.3574 0.1549 0.9864
H6 H 0.4071 0.0910 0.9129
C9 C 0.45986(14) 0.08868(12) 1.06931(15)
H9 H 0.5239 0.0714 1.0558
H10 H 0.4231 0.0391 1.0812
C12 C 0.46307(15) 0.13982(12) 1.17083(16)
H15 H 0.3993 0.1580 1.1841
H16 H 0.5012 0.1888 1.1600
C14 C 0.50333(16) 0.09434(13) 1.26904(16)
H19 H 0.4964 0.1286 1.3327
H20 H 0.4668 0.0442 1.2781
C16 C 0.60537(16) 0.07170(13) 1.26317(16)
H23 H 0.6133 0.0425 1.1955
H24 H 0.6229 0.0340 1.3222
C17 C 0.67147(16) 0.14433(13) 1.26953(16)
H25 H 0.6375 0.1928 1.2415
H26 H 0.6901 0.1548 1.3453
C19 C 0.75903(16) 0.13374(14) 1.20855(17)
H29 H 0.7985 0.1825 1.2203
H30 H 0.7942 0.0867 1.2387
C21 C 0.74225(15) 0.12087(14) 1.08913(16)
H33 H 0.7054 0.0706 1.0772
H34 H 0.8030 0.1126 1.0578
C23 C 0.69118(14) 0.19127(13) 1.02999(16)
H37 H 0.6389 0.2094 1.0719
H38 H 0.7345 0.2376 1.0248
C24 C 0.71921(15) 0.13737(13) 0.83944(16)
H39 H 0.7662 0.1788 0.8234
H40 H 0.7514 0.0872 0.8645
C26 C 0.65456(15) 0.12082(12) 0.74380(16)
C28 C 0.67251(17) 0.09147(14) 0.64361(17)
H43 H 0.7339 0.0774 0.6269
C30 C 0.59829(18) 0.08304(14) 0.56802(17)
H45 H 0.6093 0.0630 0.4991
C33 C 0.50928(17) 0.10342(13) 0.59218(16)
H48 H 0.4597 0.0973 0.5396
C34 C 0.49080(16) 0.13284(12) 0.69259(16)
H49 H 0.4293 0.1471 0.7087
C37 C 0.56401(14) 0.14095(12) 0.76856(15)
C2 C 0.16353(15) 0.16007(12) 0.44262(16)
C4 C 0.08058(14) 0.16372(12) 0.38814(16)
C5 C -0.01064(14) 0.19487(12) 0.42425(16)
H1 H -0.0412 0.2274 0.3660
H2 H 0.0020 0.2315 0.4858
C8 C -0.07838(14) 0.12831(13) 0.45643(16)
H7 H -0.1409 0.1526 0.4606
H8 H -0.0825 0.0864 0.3999
C10 C -0.05123(14) 0.08723(12) 0.56234(15)
H11 H -0.0896 0.0377 0.5685
H12 H 0.0145 0.0699 0.5617
C11 C -0.06248(14) 0.13970(12) 0.66043(16)
H13 H -0.1279 0.1579 0.6608
H14 H -0.0230 0.1886 0.6555
C13 C -0.03654(15) 0.09624(13) 0.76512(16)
H17 H -0.0522 0.1320 0.8247
H18 H -0.0750 0.0467 0.7689
C15 C 0.06533(15) 0.07225(12) 0.78065(16)
H21 H 0.0816 0.0379 0.7199
H22 H 0.0737 0.0390 0.8461
C18 C 0.13288(15) 0.14366(13) 0.78962(16)
H27 H 0.1034 0.1908 0.7525
H28 H 0.1430 0.1583 0.8657
C20 C 0.22694(15) 0.12911(14) 0.74460(17)
H31 H 0.2572 0.0827 0.7828
H32 H 0.2663 0.1776 0.7591
C22 C 0.22360(14) 0.11149(13) 0.62498(16)
H35 H 0.1830 0.0639 0.6099
H36 H 0.2869 0.0971 0.6046
C25 C 0.23670(15) 0.12682(13) 0.37277(17)
H41 H 0.2874 0.1666 0.3651
H42 H 0.2635 0.0757 0.4023
C27 C 0.18381(14) 0.11226(12) 0.26834(16)
C29 C 0.21260(16) 0.08231(13) 0.17344(17)
H44 H 0.2752 0.0657 0.1674
C31 C 0.14852(17) 0.07674(14) 0.08646(17)
H46 H 0.1677 0.0567 0.0204
C32 C 0.05703(17) 0.10021(13) 0.09550(17)
H47 H 0.0141 0.0964 0.0354
C35 C 0.02727(16) 0.12926(12) 0.19145(17)
H50 H -0.0356 0.1451 0.1975
C36 C 0.09112(15) 0.13481(11) 0.27856(16)
C38 C 0.18746(16) 0.18334(13) 0.55575(17)
H51 H 0.1315 0.2062 0.5868
H52 H 0.2355 0.2263 0.5574
loop_
_geom_bond_atom_site_label_1
_geom_bond_atom_site_label_2
_geom_bond_site_symmetry_1
_geom_bond_site_symmetry_2
C1 C3 1_555 1_555
C2 C4 1_555 1_555
C3 C6 1_555 1_555
C4 C5 1_555 1_555
C5 H1 1_555 1_555
H2 C5 1_555 1_555
C6 H3 1_555 1_555
H4 C6 1_555 1_555
C7 C6 1_555 1_555
H5 C7 1_555 1_555
H6 C7 1_555 1_555
C8 C5 1_555 1_555
H7 C8 1_555 1_555
H8 C8 1_555 1_555
C9 C7 1_555 1_555
H9 C9 1_555 1_555
H10 C9 1_555 1_555
C10 C8 1_555 1_555
H11 C10 1_555 1_555
H12 C10 1_555 1_555
C11 C10 1_555 1_555
H13 C11 1_555 1_555
H14 C11 1_555 1_555
C12 C9 1_555 1_555
H15 C12 1_555 1_555
H16 C12 1_555 1_555
C13 C11 1_555 1_555
H17 C13 1_555 1_555
H18 C13 1_555 1_555
C14 C12 1_555 1_555
H19 C14 1_555 1_555
H20 C14 1_555 1_555
C15 C13 1_555 1_555
H21 C15 1_555 1_555
H22 C15 1_555 1_555
C16 C14 1_555 1_555
H23 C16 1_555 1_555
H24 C16 1_555 1_555
C17 C16 1_555 1_555
H25 C17 1_555 1_555
H26 C17 1_555 1_555
C18 C15 1_555 1_555
H27 C18 1_555 1_555
H28 C18 1_555 1_555
C19 C17 1_555 1_555
H29 C19 1_555 1_555
H30 C19 1_555 1_555
C20 C18 1_555 1_555
H31 C20 1_555 1_555
H32 C20 1_555 1_555
C21 C19 1_555 1_555
H33 C21 1_555 1_555
H34 C21 1_555 1_555
C22 C20 1_555 1_555
H35 C22 1_555 1_555
H36 C22 1_555 1_555
C23 C1 1_555 1_555
H37 C23 1_555 1_555
H38 C23 1_555 1_555
C24 C1 1_555 1_555
H39 C24 1_555 1_555
H40 C24 1_555 1_555
C25 C2 1_555 1_555
H41 C25 1_555 1_555
H42 C25 1_555 1_555
C26 C24 1_555 1_555
C27 C25 1_555 1_555
C28 C26 1_555 1_555
H43 C28 1_555 1_555
C29 C27 1_555 1_555
H44 C29 1_555 1_555
C30 C28 1_555 1_555
H45 C30 1_555 1_555
C31 C29 1_555 1_555
H46 C31 1_555 1_555
C32 C31 1_555 1_555
H47 C32 1_555 1_555
C33 C30 1_555 1_555
H48 C33 1_555 1_555
C34 C33 1_555 1_555
H49 C34 1_555 1_555
C35 C32 1_555 1_555
H50 C35 1_555 1_555
C36 C4 1_555 1_555
C37 C3 1_555 1_555
C38 C2 1_555 1_555
H51 C38 1_555 1_555
H52 C38 1_555 1_555
C21 C23 1_555 1_555
C22 C38 1_555 1_555
C26 C37 1_555 1_555
C27 C36 1_555 1_555
C34 C37 1_555 1_555
C35 C36 1_555 1_555

#END
