
#######################################################################
#
#                 Cambridge Crystallographic Data Centre
#                                CCDC 
#
#######################################################################
#
# If this CIF has been generated from an entry in the Cambridge 
# Structural Database, then it will include bibliographic, chemical, 
# crystal, experimental, refinement or atomic coordinate data resulting 
# from the CCDC's data processing and validation procedures.
#
#######################################################################

data_NUVKAR
_chemical_formula_moiety         'C21 H15 Cl2 N3'
_chemical_name_systematic        
4-Benzyl-3,5-bis(4-chlorophenyl)-4H-1,2,4-triazole
_symmetry_cell_setting           orthorhombic
_symmetry_space_group_name_H-M   'P b c a'
_symmetry_Int_Tables_number      61
_space_group_name_Hall           '-P 2ac 2ab'
loop_
_symmetry_equiv_pos_site_id
_symmetry_equiv_pos_as_xyz
1 x,y,z
2 1/2-x,-y,1/2+z
3 -x,1/2+y,1/2-z
4 1/2+x,1/2-y,-z
5 -x,-y,-z
6 1/2+x,y,1/2-z
7 x,1/2-y,1/2+z
8 1/2-x,1/2+y,z
_cell_length_a                   11.1316(8)
_cell_length_b                   14.5857(11)
_cell_length_c                   21.9255(15)
_cell_angle_alpha                90
_cell_angle_beta                 90
_cell_angle_gamma                90
_cell_volume                     3559.87
_exptl_crystal_colour            colorless
_exptl_crystal_description       rectangular
_chemical_melting_point          '202 deg.C'
_cell_formula_units_Z            8
loop_
_atom_site_label
_atom_site_type_symbol
_atom_site_fract_x
_atom_site_fract_y
_atom_site_fract_z
Cl1 Cl 1.09181(6) 0.19986(6) 0.24051(3)
Cl2 Cl 0.26709(7) 0.07420(6) -0.22260(4)
C1 C 0.55628(16) 0.23715(13) 0.05793(9)
C2 C 0.66240(16) 0.06872(14) -0.04212(9)
C3 C 0.78793(17) 0.08306(13) 0.03233(9)
C4 C 0.65544(18) 0.22104(13) 0.01232(10)
H1 H 0.6291 0.2442 -0.0269
H2 H 0.7247 0.2569 0.0246
C5 C 0.98040(18) 0.09821(16) 0.08356(10)
H3 H 1.0145 0.0690 0.0500
C6 C 0.56538(18) 0.08062(13) -0.08639(9)
C7 C 0.8812(2) 0.18387(17) 0.18254(11)
H4 H 0.8478 0.2125 0.2164
C8 C 0.3579(2) 0.09958(17) -0.11157(11)
H5 H 0.2796 0.1132 -0.0999
C9 C 0.85861(17) 0.11577(14) 0.08403(9)
C10 C 0.5252(2) 0.32633(14) 0.07090(10)
H6 H 0.5672 0.3743 0.0528
C11 C 1.00167(19) 0.16659(17) 0.18030(10)
C12 C 1.0517(2) 0.12294(17) 0.13140(11)
H7 H 1.1335 0.1102 0.1307
C13 C 0.58822(19) 0.05927(16) -0.14647(10)
H8 H 0.6665 0.0464 -0.1585
C14 C 0.49360(18) 0.16681(14) 0.08564(10)
H9 H 0.5143 0.1062 0.0778
C15 C 0.44927(19) 0.10185(16) -0.06938(10)
H10 H 0.4327 0.1178 -0.0292
C16 C 0.80996(19) 0.15877(16) 0.13447(10)
H11 H 0.7279 0.1708 0.1358
C17 C 0.4004(2) 0.18652(16) 0.12492(11)
H12 H 0.3583 0.1389 0.1434
C18 C 0.4978(2) 0.05667(18) -0.18881(11)
H13 H 0.5137 0.0413 -0.2292
C19 C 0.4325(2) 0.34517(16) 0.11050(11)
H14 H 0.4126 0.4057 0.1193
C20 C 0.3828(2) 0.07731(17) -0.17026(11)
C21 C 0.3694(2) 0.27505(17) 0.13700(11)
H15 H 0.3057 0.2878 0.1631
N1 N 0.69354(13) 0.12612(11) 0.00450(7)
N2 N 0.73144(15) -0.00357(12) -0.04259(8)
N3 N 0.81129(16) 0.00592(12) 0.00488(8)
loop_
_geom_bond_atom_site_label_1
_geom_bond_atom_site_label_2
_geom_bond_site_symmetry_1
_geom_bond_site_symmetry_2
Cl1 C11 1_555 1_555
Cl2 C20 1_555 1_555
C1 C4 1_555 1_555
C2 C6 1_555 1_555
C3 C9 1_555 1_555
C4 H1 1_555 1_555
H2 C4 1_555 1_555
C5 H3 1_555 1_555
C6 C13 1_555 1_555
C7 H4 1_555 1_555
C8 H5 1_555 1_555
C9 C5 1_555 1_555
C10 C1 1_555 1_555
H6 C10 1_555 1_555
C11 C7 1_555 1_555
C12 C5 1_555 1_555
H7 C12 1_555 1_555
C13 H8 1_555 1_555
C14 C1 1_555 1_555
H9 C14 1_555 1_555
C15 C6 1_555 1_555
H10 C15 1_555 1_555
C16 C7 1_555 1_555
H11 C16 1_555 1_555
C17 C14 1_555 1_555
H12 C17 1_555 1_555
C18 C13 1_555 1_555
H13 C18 1_555 1_555
C19 C10 1_555 1_555
H14 C19 1_555 1_555
C20 C8 1_555 1_555
C21 C17 1_555 1_555
H15 C21 1_555 1_555
N1 C2 1_555 1_555
N2 C2 1_555 1_555
N3 C3 1_555 1_555
C3 N1 1_555 1_555
C4 N1 1_555 1_555
C8 C15 1_555 1_555
C9 C16 1_555 1_555
C11 C12 1_555 1_555
C18 C20 1_555 1_555
C19 C21 1_555 1_555
N2 N3 1_555 1_555

#END
