
#######################################################################
#
#                 Cambridge Crystallographic Data Centre
#                                CCDC 
#
#######################################################################
#
# If this CIF has been generated from an entry in the Cambridge 
# Structural Database, then it will include bibliographic, chemical, 
# crystal, experimental, refinement or atomic coordinate data resulting 
# from the CCDC's data processing and validation procedures.
#
#######################################################################

data_NUVVUX
_chemical_formula_moiety         'C16 H36 N1 1+,3(C2 I4),Cl1 1-'
_chemical_name_systematic        
'N,N,N-tributylbutan-1-aminium chloride tetraiodoethene'
_symmetry_cell_setting           tetragonal
_symmetry_space_group_name_H-M   'I 4/m m m'
_symmetry_Int_Tables_number      139
_space_group_name_Hall           '-I 4 2'
loop_
_symmetry_equiv_pos_site_id
_symmetry_equiv_pos_as_xyz
1 x,y,z
2 -x,-y,z
3 -y,x,z
4 y,-x,z
5 -x,y,-z
6 x,-y,-z
7 y,x,-z
8 -y,-x,-z
9 1/2+x,1/2+y,1/2+z
10 1/2-x,1/2-y,1/2+z
11 1/2-y,1/2+x,1/2+z
12 1/2+y,1/2-x,1/2+z
13 1/2-x,1/2+y,1/2-z
14 1/2+x,1/2-y,1/2-z
15 1/2+y,1/2+x,1/2-z
16 1/2-y,1/2-x,1/2-z
17 -x,-y,-z
18 x,y,-z
19 y,-x,-z
20 -y,x,-z
21 x,-y,z
22 -x,y,z
23 -y,-x,z
24 y,x,z
25 1/2-x,1/2-y,1/2-z
26 1/2+x,1/2+y,1/2-z
27 1/2+y,1/2-x,1/2-z
28 1/2-y,1/2+x,1/2-z
29 1/2+x,1/2-y,1/2+z
30 1/2-x,1/2+y,1/2+z
31 1/2-y,1/2-x,1/2+z
32 1/2+y,1/2+x,1/2+z
_cell_length_a                   15.9134(8)
_cell_length_b                   15.9134(8)
_cell_length_c                   17.0463(18)
_cell_angle_alpha                90
_cell_angle_beta                 90
_cell_angle_gamma                90
_cell_volume                     4316.74
_cell_formula_units_Z            4
loop_
_atom_site_label
_atom_site_type_symbol
_atom_site_fract_x
_atom_site_fract_y
_atom_site_fract_z
C1 C 0.5000 0.0774(9) 0.1965(9)
H1 H 0.4498 0.0750 0.1623
C2 C 0.5000 0.1619(10) 0.2403(11)
H2 H 0.4497 0.1654 0.2743
C3 C 0.5000 0.2336(9) 0.1843(11)
H3 H 0.5502 0.2292 0.1503
C4 C 0.5000 0.3173(10) 0.2229(11)
N1 N 0.5000 0.0000 0.2500
C1A C 0.5000 -0.0774(9) 0.1965(9)
H1A H 0.5502 -0.0750 0.1623
C2A C 0.5000 -0.1619(10) 0.2403(11)
H2A H 0.5503 -0.1654 0.2743
C3A C 0.5000 -0.2336(9) 0.1843(11)
H3A H 0.4498 -0.2292 0.1503
C4A C 0.5000 -0.3173(10) 0.2229(11)
C1N C 0.5774(9) 0.0000 0.3035(9)
H1N H 0.5750 -0.0502 0.3377
C2N C 0.6619(10) 0.0000 0.2597(11)
H2N H 0.6654 -0.0503 0.2257
C3N C 0.7336(9) 0.0000 0.3157(11)
H3N H 0.7292 0.0502 0.3497
C4N C 0.8173(10) 0.0000 0.2771(11)
C1O C 0.4226(9) 0.0000 0.3035(9)
H1O H 0.4250 0.0502 0.3377
C2O C 0.3381(10) 0.0000 0.2597(11)
H2O H 0.3346 0.0503 0.2257
C3O C 0.2664(9) 0.0000 0.3157(11)
H3O H 0.2708 -0.0502 0.3497
C4O C 0.1827(10) 0.0000 0.2771(11)
H1T H 0.4498 -0.0750 0.1623
H2T H 0.4497 -0.1654 0.2743
H3T H 0.5502 -0.2292 0.1503
H1U H 0.5502 0.0750 0.1623
H2U H 0.5503 0.1654 0.2743
H3U H 0.4498 0.2292 0.1503
H1Z H 0.5750 0.0502 0.3377
H2Z H 0.6654 0.0503 0.2257
H3Z H 0.7292 -0.0502 0.3497
H1AA H 0.4250 -0.0502 0.3377
H2AA H 0.3346 -0.0503 0.2257
H3AA H 0.2708 0.0502 0.3497
C5 C 0.542(2) 0.5000 0.0000
I1 I 0.61197(6) 0.61197(6) 0.0000
C5A C 0.458(2) 0.5000 0.0000
I1A I 0.38803(6) 0.38803(6) 0.0000
C5B C 0.5000 0.542(2) 0.0000
I1B I 0.38803(6) 0.61197(6) 0.0000
C5C C 0.5000 0.458(2) 0.0000
I1C I 0.61197(6) 0.38803(6) 0.0000
C6 C 0.7428(11) 0.7825(10) 0.9719(12)
I2 I 0.64559(6) 0.87158(6) 1.0000
I3 I 0.76737(6) 0.76737(6) 0.85309(7)
C6F C 0.7825(10) 0.7428(11) 1.0281(12)
I2F I 0.87158(6) 0.64559(6) 1.0000
I3F I 0.76737(6) 0.76737(6) 1.14691(7)
C6Q C 0.7428(11) 0.7825(10) 1.0281(12)
C6W C 0.7825(10) 0.7428(11) 0.9719(12)
C7 C 0.967(3) 0.967(3) 1.0000
I4 I 1.0000 0.84276(12) 1.0000
C7A C 1.033(3) 1.033(3) 1.0000
I4A I 1.0000 1.15724(12) 1.0000
C7B C 1.033(3) 0.967(3) 1.0000
I4B I 1.15724(12) 1.0000 1.0000
C7C C 0.967(3) 1.033(3) 1.0000
I4C I 0.84276(12) 1.0000 1.0000
Cl1 Cl 0.0000 0.5000 0.5000
H4? H 0.4498 0.0750 0.1623
H5? H 0.4497 0.1654 0.2743
H6? H 0.5502 0.2292 0.1503
H7? H 0.5360 0.3156 0.2695
H8? H 0.4425 0.3320 0.2384
H9? H 0.5215 0.3596 0.1862
loop_
_geom_bond_atom_site_label_1
_geom_bond_atom_site_label_2
_geom_bond_site_symmetry_1
_geom_bond_site_symmetry_2
C1 H1 1_555 1_555
C2 C1 1_555 1_555
H2 C2 1_555 1_555
C3 C2 1_555 1_555
H3 C3 1_555 1_555
C4 C3 1_555 1_555
N1 C1 1_555 1_555
C5 I1 1_555 1_555
I1 C5B 1_555 1_555
C6 I2 1_555 1_555
I2 C6Q 1_555 1_555
I3 C6 1_555 1_555
C7 I4 1_555 1_555
I4 C7B 1_555 1_555
C1A N1 1_555 1_555
H1A C1A 1_555 1_555
C2A C1A 1_555 1_555
H2A C2A 1_555 1_555
C3A C2A 1_555 1_555
H3A C3A 1_555 1_555
C4A C3A 1_555 1_555
C1N N1 1_555 1_555
H1N C1N 1_555 1_555
C2N C1N 1_555 1_555
H2N C2N 1_555 1_555
C3N C2N 1_555 1_555
H3N C3N 1_555 1_555
C4N C3N 1_555 1_555
C1O N1 1_555 1_555
H1O C1O 1_555 1_555
C2O C1O 1_555 1_555
H2O C2O 1_555 1_555
C3O C2O 1_555 1_555
H3O C3O 1_555 1_555
C4O C3O 1_555 1_555
H1T C1A 1_555 1_555
H2T C2A 1_555 1_555
H3T C3A 1_555 1_555
H1U C1 1_555 1_555
H2U C2 1_555 1_555
H3U C3 1_555 1_555
H1Z C1N 1_555 1_555
H2Z C2N 1_555 1_555
H3Z C3N 1_555 1_555
H1AA C1O 1_555 1_555
H2AA C2O 1_555 1_555
H3AA C3O 1_555 1_555
C5A I1A 1_555 1_555
I1A C5C 1_555 1_555
C5B I1B 1_555 1_555
I1B C5A 1_555 1_555
C5C I1C 1_555 1_555
I1C C5 1_555 1_555
C6F I2F 1_555 1_555
I2F C6W 1_555 1_555
I3F C6F 1_555 1_555
C6Q I3F 1_555 1_555
C6W I3 1_555 1_555
C7A I4A 1_555 1_555
I4A C7C 1_555 1_555
C7B I4B 1_555 1_555
I4B C7A 1_555 1_555
C7C I4C 1_555 1_555
I4C C7 1_555 1_555

#END
