
#######################################################################
#
#                 Cambridge Crystallographic Data Centre
#                                CCDC 
#
#######################################################################
#
# If this CIF has been generated from an entry in the Cambridge 
# Structural Database, then it will include bibliographic, chemical, 
# crystal, experimental, refinement or atomic coordinate data resulting 
# from the CCDC's data processing and validation procedures.
#
#######################################################################

data_NUWKIA
_chemical_formula_moiety         'C26 H20 Br1 N1 O4'
_chemical_name_systematic        
'4-Bromobenzyl 5-cyano-2-hydroxy-4,6-diphenyl-3,4-dihydro-2H-pyran-2-carboxylate'
_symmetry_cell_setting           monoclinic
_symmetry_space_group_name_H-M   'P 21/n'
_symmetry_Int_Tables_number      14
_space_group_name_Hall           '-P 2yn'
loop_
_symmetry_equiv_pos_site_id
_symmetry_equiv_pos_as_xyz
1 x,y,z
2 1/2-x,1/2+y,1/2-z
3 -x,-y,-z
4 1/2+x,1/2-y,1/2+z
_cell_length_a                   13.6827(14)
_cell_length_b                   10.3113(10)
_cell_length_c                   16.6297(17)
_cell_angle_alpha                90
_cell_angle_beta                 103.783(2)
_cell_angle_gamma                90
_cell_volume                     2278.67
_exptl_crystal_colour            colorless
_exptl_crystal_description       prismatic
_cell_formula_units_Z            4
loop_
_atom_site_label
_atom_site_type_symbol
_atom_site_fract_x
_atom_site_fract_y
_atom_site_fract_z
Br1 Br 0.58598(4) 0.57445(5) 0.07580(3)
N1 N 0.5835(2) 0.1908(3) 0.71887(19)
O1 O 0.74069(14) 0.52373(18) 0.59463(12)
O2 O 0.89459(16) 0.46026(19) 0.67816(12)
H1 H 0.9045 0.5339 0.6970
O3 O 0.96661(19) 0.6070(3) 0.57209(16)
O4 O 0.82959(15) 0.5753(2) 0.47173(14)
C1 C 0.8378(2) 0.4662(3) 0.59780(19)
C2 C 0.8232(2) 0.3305(3) 0.56382(18)
H2 H 0.8875 0.2938 0.5608
H3 H 0.7798 0.3318 0.5084
C3 C 0.7757(2) 0.2480(3) 0.62049(18)
H4 H 0.8264 0.2363 0.6726
C4 C 0.6891(2) 0.3223(3) 0.63978(17)
C5 C 0.6738(2) 0.4493(3) 0.62311(17)
C6 C 0.5867(2) 0.5271(3) 0.63283(17)
C7 C 0.6001(2) 0.6528(3) 0.66144(19)
H5 H 0.6642 0.6891 0.6741
C8 C 0.5191(3) 0.7251(4) 0.6715(2)
H6 H 0.5288 0.8094 0.6918
C9 C 0.4242(3) 0.6727(5) 0.6513(2)
H7 H 0.3696 0.7205 0.6594
C10 C 0.4100(3) 0.5501(5) 0.6193(3)
H8 H 0.3454 0.5159 0.6034
C11 C 0.4908(3) 0.4777(4) 0.6107(2)
H9 H 0.4806 0.3940 0.5895
C12 C 0.7452(2) 0.1136(3) 0.58510(19)
C13 C 0.6604(3) 0.0944(3) 0.5228(2)
H10 H 0.6203 0.1648 0.5010
C14 C 0.6343(3) -0.0285(4) 0.4922(2)
H11 H 0.5768 -0.0409 0.4500
C15 C 0.6942(4) -0.1332(4) 0.5247(3)
H12 H 0.6770 -0.2162 0.5043
C16 C 0.7770(4) -0.1148(4) 0.5856(3)
H13 H 0.8169 -0.1854 0.6074
C17 C 0.8035(3) 0.0078(4) 0.6163(2)
H14 H 0.8612 0.0192 0.6584
C18 C 0.6266(2) 0.2529(3) 0.6827(2)
C19 C 0.8860(3) 0.5595(3) 0.5464(2)
C20 C 0.8675(3) 0.6625(4) 0.4170(2)
H15 H 0.9364 0.6404 0.4167
H16 H 0.8659 0.7516 0.4354
C21 C 0.8009(3) 0.6464(3) 0.3327(2)
C22 C 0.8272(3) 0.5688(4) 0.2774(3)
H17 H 0.8893 0.5274 0.2908
C23 C 0.7639(3) 0.5489(4) 0.2009(3)
H18 H 0.7834 0.4940 0.1631
C24 C 0.6733(3) 0.6087(3) 0.1802(2)
C25 C 0.6455(3) 0.6890(4) 0.2327(2)
H19 H 0.5841 0.7322 0.2181
C26 C 0.7097(3) 0.7073(4) 0.3100(2)
H20 H 0.6901 0.7625 0.3475
loop_
_geom_bond_atom_site_label_1
_geom_bond_atom_site_label_2
_geom_bond_site_symmetry_1
_geom_bond_site_symmetry_2
Br1 C24 1_555 1_555
N1 C18 1_555 1_555
O1 C1 1_555 1_555
O2 H1 1_555 1_555
O3 C19 1_555 1_555
O4 C19 1_555 1_555
C1 O2 1_555 1_555
C2 C1 1_555 1_555
H2 C2 1_555 1_555
H3 C2 1_555 1_555
C3 C2 1_555 1_555
H4 C3 1_555 1_555
C4 C3 1_555 1_555
C5 O1 1_555 1_555
C6 C5 1_555 1_555
C7 C6 1_555 1_555
H5 C7 1_555 1_555
C8 C7 1_555 1_555
H6 C8 1_555 1_555
C9 C8 1_555 1_555
H7 C9 1_555 1_555
C10 C9 1_555 1_555
H8 C10 1_555 1_555
C11 C6 1_555 1_555
H9 C11 1_555 1_555
C12 C3 1_555 1_555
C13 C12 1_555 1_555
H10 C13 1_555 1_555
C14 C13 1_555 1_555
H11 C14 1_555 1_555
C15 C14 1_555 1_555
H12 C15 1_555 1_555
C16 C15 1_555 1_555
H13 C16 1_555 1_555
C17 C12 1_555 1_555
H14 C17 1_555 1_555
C18 C4 1_555 1_555
C19 C1 1_555 1_555
C20 O4 1_555 1_555
H15 C20 1_555 1_555
H16 C20 1_555 1_555
C21 C20 1_555 1_555
C22 C21 1_555 1_555
H17 C22 1_555 1_555
C23 C22 1_555 1_555
H18 C23 1_555 1_555
C24 C23 1_555 1_555
C25 C24 1_555 1_555
H19 C25 1_555 1_555
C26 C21 1_555 1_555
H20 C26 1_555 1_555
C4 C5 1_555 1_555
C10 C11 1_555 1_555
C16 C17 1_555 1_555
C25 C26 1_555 1_555

#END
