
#######################################################################
#
#                 Cambridge Crystallographic Data Centre
#                                CCDC 
#
#######################################################################
#
# If this CIF has been generated from an entry in the Cambridge 
# Structural Database, then it will include bibliographic, chemical, 
# crystal, experimental, refinement or atomic coordinate data resulting 
# from the CCDC's data processing and validation procedures.
#
#######################################################################

data_NUWLIB
_chemical_formula_moiety         'C19 H16 Br1 N1 O3 S2'
_chemical_name_systematic        
1-(7-((4-Bromophenyl)sulfonyl)-6,7-dihydro-5H-thieno[3,2-f]indol-4-yl)acetone
_symmetry_cell_setting           orthorhombic
_symmetry_space_group_name_H-M   'P b c a'
_symmetry_Int_Tables_number      61
_space_group_name_Hall           '-P 2ac 2ab'
loop_
_symmetry_equiv_pos_site_id
_symmetry_equiv_pos_as_xyz
1 x,y,z
2 1/2-x,-y,1/2+z
3 -x,1/2+y,1/2-z
4 1/2+x,1/2-y,-z
5 -x,-y,-z
6 1/2+x,y,1/2-z
7 x,1/2-y,1/2+z
8 1/2-x,1/2+y,z
_cell_length_a                   9.83840(10)
_cell_length_b                   15.6493(2)
_cell_length_c                   24.64890(10)
_cell_angle_alpha                90
_cell_angle_beta                 90
_cell_angle_gamma                90
_cell_volume                     3795.05
_exptl_crystal_colour            brown
_exptl_crystal_description       polyhedron
_cell_formula_units_Z            8
loop_
_atom_site_label
_atom_site_type_symbol
_atom_site_fract_x
_atom_site_fract_y
_atom_site_fract_z
S1 S 0.45442(12) -0.08294(7) 0.33430(5)
C1 C 0.7862(7) 0.2137(5) 0.1608(2)
H1 H 0.8697 0.2448 0.1697
H2 H 0.7271 0.2502 0.1387
H3 H 0.8091 0.1619 0.1404
O1 O 0.6043(4) 0.2196(2) 0.22261(13)
C2 C 0.7144(5) 0.1898(3) 0.21176(17)
C3 C 0.7876(4) 0.1302(3) 0.24889(16)
H4 H 0.8732 0.1576 0.2609
H5 H 0.8119 0.0779 0.2285
C4 C 0.7063(4) 0.1055(2) 0.29811(16)
C5 C 0.6257(4) 0.0307(2) 0.29809(16)
C6 C 0.6071(5) -0.0328(3) 0.25632(19)
H6 H 0.6520 -0.0307 0.2222
C7 C 0.5207(5) -0.0949(3) 0.27013(19)
H7 H 0.4980 -0.1411 0.2468
C8 C 0.5462(4) 0.0109(3) 0.34396(16)
C9 C 0.5419(4) 0.0626(2) 0.38993(16)
H8 H 0.4864 0.0489 0.4202
C10 C 0.6220(4) 0.1345(2) 0.38914(15)
N1 N 0.6349(3) 0.20018(19) 0.42920(13)
C11 C 0.7578(4) 0.2532(3) 0.41567(16)
H9 H 0.8394 0.2322 0.4350
H10 H 0.7430 0.3140 0.4250
C12 C 0.7718(4) 0.2410(3) 0.35404(17)
H11 H 0.7260 0.2877 0.3340
H12 H 0.8685 0.2389 0.3431
C13 C 0.7022(4) 0.1562(2) 0.34400(16)
S2 S 0.59863(10) 0.18597(6) 0.49362(4)
O2 O 0.6111(3) 0.26770(16) 0.51836(12)
O3 O 0.4723(3) 0.14098(17) 0.49577(11)
C14 C 0.7262(4) 0.1201(2) 0.52154(14)
C15 C 0.8328(4) 0.1578(2) 0.54845(16)
H13 H 0.8394 0.2183 0.5501
C16 C 0.9304(4) 0.1075(3) 0.57305(17)
H14 H 1.0045 0.1329 0.5918
C17 C 0.9185(4) 0.0198(3) 0.56991(16)
C18 C 0.8140(4) -0.0190(2) 0.54117(16)
H15 H 0.8097 -0.0795 0.5381
C19 C 0.7169(4) 0.0317(2) 0.51731(15)
H16 H 0.6437 0.0064 0.4980
Br1 Br 1.04968(5) -0.04711(3) 0.60666(2)
loop_
_geom_bond_atom_site_label_1
_geom_bond_atom_site_label_2
_geom_bond_site_symmetry_1
_geom_bond_site_symmetry_2
S1 C7 1_555 1_555
C1 H1 1_555 1_555
H2 C1 1_555 1_555
H3 C1 1_555 1_555
O1 C2 1_555 1_555
C2 C1 1_555 1_555
C3 C2 1_555 1_555
H4 C3 1_555 1_555
H5 C3 1_555 1_555
C4 C3 1_555 1_555
C5 C4 1_555 1_555
C6 C5 1_555 1_555
H6 C6 1_555 1_555
C7 C6 1_555 1_555
H7 C7 1_555 1_555
C8 S1 1_555 1_555
C9 C8 1_555 1_555
H8 C9 1_555 1_555
C10 C9 1_555 1_555
N1 C10 1_555 1_555
C11 N1 1_555 1_555
H9 C11 1_555 1_555
H10 C11 1_555 1_555
C12 C11 1_555 1_555
H11 C12 1_555 1_555
H12 C12 1_555 1_555
C13 C4 1_555 1_555
S2 N1 1_555 1_555
O2 S2 1_555 1_555
O3 S2 1_555 1_555
C14 S2 1_555 1_555
C15 C14 1_555 1_555
H13 C15 1_555 1_555
C16 C15 1_555 1_555
H14 C16 1_555 1_555
C17 C16 1_555 1_555
C18 C17 1_555 1_555
H15 C18 1_555 1_555
C19 C14 1_555 1_555
H16 C19 1_555 1_555
Br1 C17 1_555 1_555
C5 C8 1_555 1_555
C10 C13 1_555 1_555
C12 C13 1_555 1_555
C18 C19 1_555 1_555

#END
