
#######################################################################
#
#                 Cambridge Crystallographic Data Centre
#                                CCDC 
#
#######################################################################
#
# If this CIF has been generated from an entry in the Cambridge 
# Structural Database, then it will include bibliographic, chemical, 
# crystal, experimental, refinement or atomic coordinate data resulting 
# from the CCDC's data processing and validation procedures.
#
#######################################################################

data_NUWNUP
_chemical_formula_moiety         'C28 H28 O6'
_chemical_name_systematic        
'Dimethyl 7-hydroxy-7-methyl-5-oxo-1-phenyl-7a-(phenylethynyl)octahydro-2H-indene-2,2-dicarboxylate'
_symmetry_cell_setting           monoclinic
_symmetry_space_group_name_H-M   'P 21'
_symmetry_Int_Tables_number      4
_space_group_name_Hall           'P 2yb'
loop_
_symmetry_equiv_pos_site_id
_symmetry_equiv_pos_as_xyz
1 x,y,z
2 -x,1/2+y,-z
_cell_length_a                   11.7137(4)
_cell_length_b                   9.0109(3)
_cell_length_c                   11.8500(5)
_cell_angle_alpha                90
_cell_angle_beta                 102.5770(10)
_cell_angle_gamma                90
_cell_volume                     1220.77
_exptl_crystal_colour            colorless
_exptl_crystal_description       block
_cell_formula_units_Z            2
loop_
_atom_site_label
_atom_site_type_symbol
_atom_site_fract_x
_atom_site_fract_y
_atom_site_fract_z
O1 O 0.30676(9) 0.23737(13) 0.43167(9)
O2 O 0.34716(8) 0.42429(11) 0.32283(9)
O3 O 0.59092(8) 0.34316(13) 0.39869(9)
O4 O 0.60243(8) 0.26141(12) 0.22326(8)
O5 O 0.55988(10) -0.40071(13) 0.17601(9)
O6 O 0.46936(8) -0.06231(12) 0.02872(8)
H1 H 0.4510 -0.0148 -0.0336
C1 C 0.03509(15) -0.0462(2) 0.37344(15)
H2 H 0.0798 0.0404 0.3981
C2 C -0.06466(18) -0.0752(4) 0.41381(19)
H3 H -0.0878 -0.0088 0.4670
C3 C -0.13122(18) -0.2003(4) 0.3774(2)
H4 H -0.1998 -0.2197 0.4054
C4 C -0.09755(17) -0.2963(3) 0.30060(19)
H5 H -0.1433 -0.3819 0.2753
C5 C 0.00261(14) -0.2691(2) 0.25974(15)
H6 H 0.0253 -0.3359 0.2066
C6 C 0.07006(12) -0.14392(19) 0.29652(13)
C7 C 0.17420(12) -0.11241(16) 0.25500(12)
C8 C 0.25933(11) -0.07603(16) 0.22098(11)
C9 C 0.36211(11) -0.02762(14) 0.17862(11)
C10 C 0.36638(11) -0.10974(15) 0.06294(11)
C11 C 0.38166(12) -0.27775(17) 0.08862(12)
H7 H 0.3094 -0.3167 0.1084
H8 H 0.3923 -0.3295 0.0179
C12 C 0.48443(12) -0.31231(15) 0.18628(13)
C13 C 0.49078(12) -0.22798(16) 0.29727(12)
H9 H 0.5671 -0.2457 0.3508
H10 H 0.4280 -0.2615 0.3353
C14 C 0.47622(11) -0.06329(16) 0.26788(11)
H11 H 0.5432 -0.0329 0.2332
C15 C 0.47145(12) 0.04405(15) 0.36557(11)
H12 H 0.5487 0.0528 0.4193
H13 H 0.4128 0.0123 0.4094
C16 C 0.43530(11) 0.19258(15) 0.30111(11)
C17 C 0.37129(11) 0.14577(14) 0.17310(11)
H14 H 0.4297 0.1653 0.1246
C18 C 0.26416(11) 0.23574(15) 0.11762(11)
C19 C 0.15996(11) 0.23706(18) 0.15620(12)
H15 H 0.1523 0.1754 0.2191
C20 C 0.06754(13) 0.32678(18) 0.10435(14)
H16 H -0.0028 0.3258 0.1319
C21 C 0.07663(13) 0.4180(2) 0.01271(14)
H17 H 0.0131 0.4796 -0.0227
C22 C 0.17927(14) 0.41829(19) -0.02646(14)
H18 H 0.1864 0.4806 -0.0892
C23 C 0.27213(13) 0.32822(17) 0.02510(12)
H19 H 0.3422 0.3295 -0.0030
C24 C 0.35749(11) 0.28479(16) 0.36142(11)
C25 C 0.25820(14) 0.51100(18) 0.35980(15)
H20 H 0.2567 0.6113 0.3276
H21 H 0.2758 0.5166 0.4444
H22 H 0.1818 0.4639 0.3325
C26 C 0.55029(11) 0.27228(15) 0.29876(11)
C27 C 0.70579(12) 0.4084(2) 0.40970(14)
H23 H 0.7290 0.4574 0.4850
H24 H 0.7037 0.4815 0.3480
H25 H 0.7624 0.3304 0.4035
C28 C 0.25771(11) -0.08338(18) -0.03165(12)
H26 H 0.2651 -0.1368 -0.1017
H27 H 0.2493 0.0231 -0.0484
H28 H 0.1887 -0.1194 -0.0058
loop_
_geom_bond_atom_site_label_1
_geom_bond_atom_site_label_2
_geom_bond_site_symmetry_1
_geom_bond_site_symmetry_2
O1 C24 1_555 1_555
O2 C24 1_555 1_555
O3 C26 1_555 1_555
O4 C26 1_555 1_555
O5 C12 1_555 1_555
O6 H1 1_555 1_555
C1 H2 1_555 1_555
C2 C1 1_555 1_555
H3 C2 1_555 1_555
C3 C2 1_555 1_555
H4 C3 1_555 1_555
C4 C3 1_555 1_555
H5 C4 1_555 1_555
C5 C4 1_555 1_555
H6 C5 1_555 1_555
C6 C1 1_555 1_555
C7 C6 1_555 1_555
C8 C7 1_555 1_555
C9 C8 1_555 1_555
C10 O6 1_555 1_555
C11 C10 1_555 1_555
H7 C11 1_555 1_555
H8 C11 1_555 1_555
C12 C11 1_555 1_555
C13 C12 1_555 1_555
H9 C13 1_555 1_555
H10 C13 1_555 1_555
C14 C9 1_555 1_555
H11 C14 1_555 1_555
C15 C14 1_555 1_555
H12 C15 1_555 1_555
H13 C15 1_555 1_555
C16 C15 1_555 1_555
C17 C9 1_555 1_555
H14 C17 1_555 1_555
C18 C17 1_555 1_555
C19 C18 1_555 1_555
H15 C19 1_555 1_555
C20 C19 1_555 1_555
H16 C20 1_555 1_555
C21 C20 1_555 1_555
H17 C21 1_555 1_555
C22 C21 1_555 1_555
H18 C22 1_555 1_555
C23 C18 1_555 1_555
H19 C23 1_555 1_555
C24 C16 1_555 1_555
C25 O2 1_555 1_555
H20 C25 1_555 1_555
H21 C25 1_555 1_555
H22 C25 1_555 1_555
C26 C16 1_555 1_555
C27 O3 1_555 1_555
H23 C27 1_555 1_555
H24 C27 1_555 1_555
H25 C27 1_555 1_555
C28 C10 1_555 1_555
H26 C28 1_555 1_555
H27 C28 1_555 1_555
H28 C28 1_555 1_555
C5 C6 1_555 1_555
C9 C10 1_555 1_555
C13 C14 1_555 1_555
C16 C17 1_555 1_555
C22 C23 1_555 1_555

#END
