
#######################################################################
#
#                 Cambridge Crystallographic Data Centre
#                                CCDC 
#
#######################################################################
#
# If this CIF has been generated from an entry in the Cambridge 
# Structural Database, then it will include bibliographic, chemical, 
# crystal, experimental, refinement or atomic coordinate data resulting 
# from the CCDC's data processing and validation procedures.
#
#######################################################################

data_NUXJAT
_chemical_formula_moiety         'C60 H42 N6 O12,3(C2 H4 Br2)'
_chemical_name_systematic        
'1,3,4(2,7)-tris(1,3,6,8-tetraoxo-1,3,6,8-tetrahydrobenzo[lmn][3,8]phenanthroline-2,7-diyl)-2,4,6(1,2)-tris(cyclohexane)cyclohexaphane 1,2-dibromoethane unknown solvate'
_symmetry_cell_setting           triclinic
_symmetry_space_group_name_H-M   'P 1'
_symmetry_Int_Tables_number      1
_space_group_name_Hall           'P 1'
loop_
_symmetry_equiv_pos_site_id
_symmetry_equiv_pos_as_xyz
1 x,y,z
_cell_length_a                   15.7472(10)
_cell_length_b                   16.1193(13)
_cell_length_c                   16.2046(12)
_cell_angle_alpha                119.442(4)
_cell_angle_beta                 100.225(3)
_cell_angle_gamma                92.957(4)
_cell_volume                     3478.6
_exptl_crystal_colour            colorless
_exptl_crystal_description       needle
_cell_formula_units_Z            2
loop_
_atom_site_label
_atom_site_type_symbol
_atom_site_fract_x
_atom_site_fract_y
_atom_site_fract_z
Br1 Br -0.49023(15) -0.9893(2) -0.9581(2)
Br2 Br -0.21660(16) -0.9850(2) -1.0199(3)
C1 C -0.3699(16) -0.946(2) -0.956(2)
H1 H -0.3692 -0.8971 -0.9762
H2 H -0.3318 -0.9168 -0.8893
C2 C -0.3423(16) -1.027(2) -1.020(2)
H3 H -0.3807 -1.0562 -1.0860
H4 H -0.3433 -1.0757 -0.9992
Br4 Br 0.25485(15) -0.54455(18) -1.2454(2)
Br5 Br 0.1204(3) -0.6425(3) -1.1490(4)
C3 C 0.1722(19) -0.504(2) -1.187(3)
H5 H 0.1874 -0.4335 -1.1439
H6 H 0.1185 -0.5177 -1.2369
C4 C 0.156(5) -0.539(3) -1.140(5)
H7 H 0.1155 -0.4971 -1.1046
H8 H 0.2118 -0.5168 -1.0899
Br6 Br 0.29183(15) -0.9721(2) -0.9879(2)
Br7 Br -0.00266(15) -1.0188(2) -1.0068(2)
C6 C 0.1797(18) -0.970(2) -0.952(3)
H13 H 0.1750 -1.0104 -0.9227
H14 H 0.1747 -0.9030 -0.9043
C7 C 0.112(2) -1.006(3) -1.038(3)
H15 H 0.1209 -1.0698 -1.0891
H16 H 0.1124 -0.9614 -1.0637
Br8 Br -0.05383(14) -1.20174(18) -0.67229(17)
Br9 Br 0.23910(15) -1.1049(2) -0.5203(2)
C8 C 0.0742(15) -1.153(2) -0.635(2)
H17 H 0.1006 -1.1898 -0.6909
H18 H 0.0840 -1.0840 -0.6159
C9 C 0.1141(15) -1.164(2) -0.555(2)
H19 H 0.1089 -1.2327 -0.5741
H20 H 0.0866 -1.1294 -0.4990
Br10 Br -0.52857(18) -0.65355(15) -1.42220(19)
Br11 Br -0.40014(15) -0.68151(18) -1.2312(2)
C10 C -0.4508(18) -0.5526(15) -1.3035(17)
H21 H -0.3909 -0.5505 -1.3140
H22 H -0.4691 -0.4897 -1.2882
C11 C -0.4494(15) -0.5666(15) -1.2168(17)
H23 H -0.5099 -0.5724 -1.2087
H24 H -0.4145 -0.5088 -1.1571
Br12 Br 0.06122(15) -0.8771(3) -1.4741(2)
Br13 Br 0.35256(13) -0.79169(17) -1.31779(16)
C12 C 0.1896(13) -0.8302(15) -1.4425(16)
H25 H 0.2161 -0.8744 -1.4957
H26 H 0.1998 -0.7649 -1.4336
C13 C 0.2295(13) -0.8280(17) -1.3469(17)
H27 H 0.2154 -0.8925 -1.3548
H28 H 0.2052 -0.7809 -1.2931
O1 O 0.0829(7) -0.6574(10) -0.7229(10)
O2 O 0.0093(8) -0.8711(11) -1.2311(10)
O3 O -0.2806(7) -0.8478(8) -1.2506(9)
O4 O -0.2035(8) -0.6267(9) -0.7385(10)
O5 O -0.0586(7) -1.0842(10) -1.3863(10)
O6 O 0.0155(7) -1.3577(9) -1.1590(10)
O7 O -0.2738(8) -1.3933(10) -1.1659(11)
O8 O -0.3360(7) -1.0732(9) -1.3388(9)
O9 O 0.0314(8) -1.2767(9) -0.9319(9)
O10 O 0.1248(7) -0.7741(8) -0.6131(9)
O11 O -0.1647(7) -0.7598(8) -0.6381(10)
O12 O -0.2592(8) -1.2659(10) -0.9387(15)
N1 N -0.0626(8) -0.6522(10) -0.7298(11)
N2 N -0.1364(8) -0.8655(9) -1.2444(10)
N3 N -0.1942(8) -1.0728(9) -1.3584(9)
N4 N -0.1266(8) -1.3653(9) -1.1495(10)
N5 N -0.1145(8) -1.2734(10) -0.9415(10)
N6 N -0.0207(8) -0.7639(9) -0.6383(10)
C14 C 0.0121(10) -0.6753(11) -0.7705(13)
C15 C -0.0078(10) -0.7191(13) -0.8812(14)
C16 C 0.0616(11) -0.7438(16) -0.9248(15)
H29 H 0.1189 -0.7328 -0.8868
C17 C 0.0465(10) -0.7858(13) -1.0271(14)
H30 H 0.0938 -0.8035 -1.0581
C18 C -0.0344(10) -0.8007(11) -1.0803(13)
C19 C -0.0527(11) -0.8504(13) -1.1918(14)
C20 C -0.2059(10) -0.8362(10) -1.1994(12)
C21 C -0.1921(10) -0.7876(10) -1.0917(12)
C22 C -0.2592(9) -0.7531(10) -1.0478(12)
H31 H -0.3154 -0.7594 -1.0852
C23 C -0.2420(9) -0.7068(11) -0.9433(13)
H32 H -0.2864 -0.6782 -0.9108
C24 C -0.1623(9) -0.7036(10) -0.8897(13)
C25 C -0.1448(10) -0.6582(11) -0.7814(13)
C26 C -0.0933(10) -0.7341(12) -0.9344(14)
C27 C -0.1072(10) -0.7774(11) -1.0379(13)
C28 C -0.1504(10) -0.9178(11) -1.3516(12)
H33 H -0.0927 -0.9358 -1.3662
C29 C -0.1761(11) -0.8560(13) -1.3953(14)
H34 H -0.1314 -0.7974 -1.3641
H35 H -0.2324 -0.8351 -1.3809
C30 C -0.1855(12) -0.9101(16) -1.5082(15)
H36 H -0.2108 -0.8705 -1.5345
H37 H -0.1271 -0.9197 -1.5226
C31 C -0.2434(11) -1.0060(14) -1.5559(14)
H38 H -0.3041 -0.9952 -1.5511
H39 H -0.2430 -1.0422 -1.6260
C32 C -0.2166(10) -1.0646(13) -1.5126(13)
H40 H -0.1577 -1.0799 -1.5217
H41 H -0.2579 -1.1262 -1.5462
C33 C -0.2151(11) -1.0115(12) -1.4047(12)
H42 H -0.2746 -0.9947 -1.3974
C34 C -0.1136(9) -1.1047(10) -1.3522(10)
C35 C -0.1018(8) -1.1639(11) -1.3085(12)
C36 C -0.0206(8) -1.1916(10) -1.2944(11)
H43 H 0.0255 -1.1735 -1.3161
C37 C -0.0062(9) -1.2462(12) -1.2484(13)
H44 H 0.0506 -1.2606 -1.2353
C38 C -0.0722(9) -1.2785(11) -1.2224(12)
C39 C -0.0580(10) -1.3373(12) -1.1764(13)
C40 C -0.2150(11) -1.3579(12) -1.1761(13)
C41 C -0.2296(10) -1.2904(13) -1.2194(15)
C42 C -0.3093(10) -1.2707(13) -1.2403(14)
H45 H -0.3575 -1.2986 -1.2293
C43 C -0.3230(9) -1.2106(12) -1.2777(14)
H46 H -0.3800 -1.1966 -1.2905
C44 C -0.2543(9) -1.1704(12) -1.2968(13)
C45 C -0.2641(9) -1.1030(11) -1.3320(12)
C46 C -0.1685(9) -1.1951(11) -1.2789(12)
C47 C -0.1591(9) -1.2547(11) -1.2390(12)
C48 C -0.1090(11) -1.4233(11) -1.0997(13)
H47 H -0.0440 -1.4170 -1.0808
C49 C -0.1430(13) -1.5296(13) -1.1633(15)
H48 H -0.1201 -1.5558 -1.2229
H49 H -0.2076 -1.5398 -1.1833
C50 C -0.1158(12) -1.5835(12) -1.1097(15)
H50 H -0.1448 -1.6517 -1.1505
H51 H -0.0519 -1.5827 -1.0999
C51 C -0.1395(13) -1.5395(13) -1.0123(14)
H52 H -0.1154 -1.5726 -0.9778
H53 H -0.2040 -1.5503 -1.0229
C52 C -0.1049(11) -1.4299(13) -0.9472(14)
H54 H -0.1252 -1.4032 -0.8860
H55 H -0.0401 -1.4182 -0.9305
C53 C -0.1401(9) -1.3813(11) -1.0049(12)
H56 H -0.2054 -1.3965 -1.0223
C54 C -0.0282(10) -1.2310(12) -0.9067(13)
C55 C -0.0050(10) -1.1225(13) -0.8382(14)
C56 C 0.0777(10) -1.0745(12) -0.7973(13)
H57 H 0.1248 -1.1099 -0.8110
C57 C 0.0957(11) -0.9781(13) -0.7377(15)
H58 H 0.1551 -0.9477 -0.7100
C58 C 0.0324(10) -0.9239(11) -0.7165(12)
C59 C 0.0524(10) -0.8162(11) -0.6512(12)
C60 C -0.1066(9) -0.8087(11) -0.6639(12)
C61 C -0.1290(9) -0.9150(12) -0.7266(12)
C62 C -0.2105(9) -0.9646(10) -0.7587(11)
H59 H -0.2575 -0.9298 -0.7418
C63 C -0.2285(10) -1.0618(12) -0.8136(13)
H60 H -0.2864 -1.0932 -0.8281
C64 C -0.1648(9) -1.1173(12) -0.8498(13)
C65 C -0.1831(10) -1.2188(14) -0.9110(16)
C66 C -0.0775(9) -1.0711(11) -0.8154(11)
C67 C -0.0594(10) -0.9676(12) -0.7555(12)
C68 C 0.0015(10) -0.6586(11) -0.5800(12)
H61 H 0.0646 -0.6419 -0.5765
C69 C -0.0077(11) -0.6170(12) -0.4748(13)
H62 H 0.0218 -0.6527 -0.4459
H63 H -0.0702 -0.6227 -0.4732
C70 C 0.0356(12) -0.5091(12) -0.4165(14)
H64 H 0.0987 -0.5046 -0.4154
H65 H 0.0295 -0.4798 -0.3484
C71 C -0.0077(12) -0.4513(13) -0.4630(15)
H66 H -0.0688 -0.4481 -0.4558
H67 H 0.0245 -0.3844 -0.4275
C72 C -0.0072(11) -0.4962(12) -0.5667(14)
H68 H 0.0538 -0.4903 -0.5736
H69 H -0.0405 -0.4622 -0.5952
C73 C -0.0494(11) -0.6064(12) -0.6235(13)
H70 H -0.1089 -0.6086 -0.6104
O13 O -0.7733(9) -0.7320(11) -1.0776(14)
O14 O -0.8161(7) -1.2340(8) -1.3917(9)
O15 O -0.5207(8) -1.2071(9) -1.3492(11)
O16 O -0.4755(7) -0.7064(8) -1.0314(10)
O17 O -0.8192(7) -1.3191(9) -1.2584(9)
O18 O -0.6919(7) -1.1154(10) -0.7518(9)
O19 O -0.4100(7) -1.1523(9) -0.7749(9)
O20 O -0.5408(7) -1.3601(9) -1.2866(9)
O21 O -0.6875(6) -0.8982(8) -0.6177(8)
O22 O -0.7006(7) -0.6172(9) -0.8427(9)
O23 O -0.4039(8) -0.5932(12) -0.8046(13)
O24 O -0.4002(7) -0.9155(8) -0.6292(9)
N7 N -0.6226(9) -0.7164(10) -1.0464(11)
N8 N -0.6664(8) -1.2235(10) -1.3663(10)
N9 N -0.6804(8) -1.3377(9) -1.2742(10)
N10 N -0.5489(8) -1.1234(9) -0.7611(10)
N11 N -0.5469(8) -0.9165(10) -0.6299(11)
N12 N -0.5522(8) -0.6130(9) -0.8342(10)
C74 C -0.5945(11) -1.3335(12) -1.2366(13)
C75 C -0.7076(10) -0.7721(12) -1.0911(14)
C76 C -0.7163(11) -0.8743(13) -1.1556(14)
C77 C -0.7997(11) -0.9319(14) -1.2049(14)
H71 H -0.8513 -0.9037 -1.1963
C78 C -0.8048(10) -1.0315(12) -1.2666(13)
H72 H -0.8613 -1.0695 -1.2973
C79 C -0.7338(9) -1.0783(11) -1.2861(11)
C80 C -0.7438(10) -1.1834(12) -1.3535(13)
C81 C -0.5829(10) -1.1675(12) -1.3292(14)
C82 C -0.5750(10) -1.0620(13) -1.2614(13)
C83 C -0.4922(10) -1.0062(12) -1.2212(13)
H73 H -0.4418 -1.0354 -1.2360
C84 C -0.4837(10) -0.9028(12) -1.1563(14)
H74 H -0.4281 -0.8627 -1.1301
C85 C -0.5576(9) -0.8641(11) -1.1336(12)
C86 C -0.5458(9) -0.7530(11) -1.0627(13)
C87 C -0.6390(9) -0.9213(12) -1.1755(12)
C88 C -0.6526(9) -1.0201(11) -1.2402(11)
C89 C -0.6701(11) -1.3302(12) -1.4223(13)
H75 H -0.6083 -1.3425 -1.4187
C90 C -0.7148(13) -1.3732(15) -1.5335(14)
H76 H -0.7768 -1.3642 -1.5410
H77 H -0.6846 -1.3398 -1.5602
C91 C -0.7086(12) -1.4817(14) -1.5884(15)
H78 H -0.7403 -1.5109 -1.6573
H79 H -0.6465 -1.4893 -1.5871
C92 C -0.7457(11) -1.5345(13) -1.5454(14)
H80 H -0.7369 -1.6027 -1.5806
H81 H -0.8094 -1.5336 -1.5535
C93 C -0.7031(11) -1.4894(12) -1.4387(14)
H82 H -0.6403 -1.4954 -1.4309
H83 H -0.7306 -1.5243 -1.4116
C94 C -0.7126(10) -1.3821(11) -1.3821(12)
H84 H -0.7765 -1.3787 -1.3950
C95 C -0.7470(10) -1.3109(12) -1.2211(13)
C96 C -0.7167(10) -1.2668(11) -1.1104(13)
C97 C -0.7800(11) -1.2459(13) -1.0602(14)
H85 H -0.8400 -1.2592 -1.0919
C98 C -0.7514(10) -1.2015(13) -0.9541(13)
H86 H -0.7935 -1.1831 -0.9156
C99 C -0.6649(10) -1.1863(11) -0.9099(13)
C100 C -0.6381(10) -1.1405(13) -0.8033(14)
C101 C -0.4829(9) -1.1600(11) -0.8130(12)
C102 C -0.5153(9) -1.2086(12) -0.9239(12)
C103 C -0.4544(9) -1.2452(11) -0.9819(13)
H87 H -0.3957 -1.2431 -0.9529
C104 C -0.4823(10) -1.2857(12) -1.0852(13)
H88 H -0.4415 -1.3101 -1.1248
C105 C -0.5656(10) -1.2896(11) -1.1266(13)
C106 C -0.6301(9) -1.2579(10) -1.0674(12)
C107 C -0.6024(10) -1.2152(12) -0.9646(13)
C108 C -0.5167(11) -1.0777(12) -0.6514(13)
H89 H -0.4515 -1.0635 -0.6373
C109 C -0.5369(11) -1.1477(12) -0.6194(13)
H90 H -0.5165 -1.2091 -0.6595
H91 H -0.6007 -1.1614 -0.6275
C110 C -0.4872(12) -1.1001(13) -0.5055(13)
H92 H -0.5050 -1.1416 -0.4803
H93 H -0.4231 -1.0950 -0.4988
C111 C -0.5111(12) -1.0000(13) -0.4471(13)
H94 H -0.4761 -0.9687 -0.3792
H95 H -0.5735 -1.0074 -0.4454
C112 C -0.4963(10) -0.9334(12) -0.4875(12)
H96 H -0.5155 -0.8711 -0.4476
H97 H -0.4332 -0.9203 -0.4837
C113 C -0.5470(10) -0.9799(12) -0.5921(13)
H98 H -0.6093 -0.9958 -0.5920
C114 C -0.6249(9) -0.8789(11) -0.6438(12)
C115 C -0.6266(9) -0.8164(11) -0.6888(12)
C116 C -0.7009(9) -0.7829(11) -0.7097(12)
H99 H -0.7526 -0.7981 -0.6940
C117 C -0.7021(9) -0.7302(10) -0.7510(12)
H100 H -0.7559 -0.7108 -0.7659
C118 C -0.6299(9) -0.7007(11) -0.7745(12)
C119 C -0.6341(11) -0.6428(12) -0.8183(13)
C120 C -0.4738(10) -0.6329(12) -0.7974(13)
C121 C -0.4720(9) -0.6941(10) -0.7578(11)
C122 C -0.3914(10) -0.7212(12) -0.7259(14)
H101 H -0.3376 -0.6962 -0.7305
C123 C -0.3914(9) -0.7805(12) -0.6902(13)
H102 H -0.3380 -0.7983 -0.6713
C124 C -0.4664(9) -0.8152(11) -0.6808(12)
C125 C -0.4677(10) -0.8847(12) -0.6435(13)
C126 C -0.5483(9) -0.7887(11) -0.7062(12)
C127 C -0.5502(9) -0.7300(9) -0.7448(11)
C128 C -0.5545(10) -0.5621(12) -0.8886(14)
H103 H -0.4949 -0.5593 -0.9015
C129 C -0.5660(12) -0.4570(13) -0.8251(15)
H104 H -0.5223 -0.4263 -0.7620
H105 H -0.6251 -0.4546 -0.8118
C130 C -0.5539(13) -0.4025(14) -0.8787(15)
H106 H -0.5705 -0.3379 -0.8424
H107 H -0.4912 -0.3930 -0.8783
C131 C -0.6073(12) -0.4534(13) -0.9846(15)
H108 H -0.5879 -0.4206 -1.0177
H109 H -0.6699 -0.4491 -0.9854
C132 C -0.5960(13) -0.5609(13) -1.0403(15)
H110 H -0.6346 -0.5937 -1.1067
H111 H -0.5348 -0.5654 -1.0467
C133 C -0.6182(10) -0.6095(11) -0.9877(13)
H112 H -0.6777 -0.5971 -0.9760
Br3? Br 0.0574(5) -0.6672(6) -1.2581(7)
C5? C 0.090(3) -0.549(2) -1.200(3)
H9? H 0.0492 -0.5245 -1.2333
H10? H 0.0799 -0.5235 -1.1343
H11? H 0.1998 -0.4790 -1.1177
H12? H 0.1614 -0.4471 -1.1925
loop_
_geom_bond_atom_site_label_1
_geom_bond_atom_site_label_2
_geom_bond_site_symmetry_1
_geom_bond_site_symmetry_2
Br1 C1 1_555 1_555
Br2 C2 1_555 1_555
C1 H1 1_555 1_555
H2 C1 1_555 1_555
C2 C1 1_555 1_555
H3 C2 1_555 1_555
H4 C2 1_555 1_555
Br4 C3 1_555 1_555
Br5 C4 1_555 1_555
C3 H5 1_555 1_555
H6 C3 1_555 1_555
C4 C3 1_555 1_555
H7 C4 1_555 1_555
H8 C4 1_555 1_555
Br6 C6 1_555 1_555
Br7 C7 1_555 1_555
C6 H13 1_555 1_555
H14 C6 1_555 1_555
C7 C6 1_555 1_555
H15 C7 1_555 1_555
H16 C7 1_555 1_555
Br8 C8 1_555 1_555
Br9 C9 1_555 1_555
C8 H17 1_555 1_555
H18 C8 1_555 1_555
C9 C8 1_555 1_555
H19 C9 1_555 1_555
H20 C9 1_555 1_555
Br10 C10 1_555 1_555
Br11 C11 1_555 1_555
C10 H21 1_555 1_555
H22 C10 1_555 1_555
C11 C10 1_555 1_555
H23 C11 1_555 1_555
H24 C11 1_555 1_555
Br12 C12 1_555 1_555
Br13 C13 1_555 1_555
C12 H25 1_555 1_555
H26 C12 1_555 1_555
C13 C12 1_555 1_555
H27 C13 1_555 1_555
H28 C13 1_555 1_555
O1 C14 1_555 1_555
O2 C19 1_555 1_555
O3 C20 1_555 1_555
O4 C25 1_555 1_555
O5 C34 1_555 1_555
O6 C39 1_555 1_555
O7 C40 1_555 1_555
O8 C45 1_555 1_555
O9 C54 1_555 1_555
O10 C59 1_555 1_555
O11 C60 1_555 1_555
O12 C65 1_555 1_555
N1 C14 1_555 1_555
N2 C19 1_555 1_555
N3 C33 1_555 1_555
N4 C39 1_555 1_555
N5 C53 1_555 1_555
N6 C59 1_555 1_555
C14 C15 1_555 1_555
C15 C16 1_555 1_555
C16 H29 1_555 1_555
C17 C16 1_555 1_555
H30 C17 1_555 1_555
C18 C17 1_555 1_555
C19 C18 1_555 1_555
C20 N2 1_555 1_555
C21 C20 1_555 1_555
C22 C21 1_555 1_555
H31 C22 1_555 1_555
C23 C22 1_555 1_555
H32 C23 1_555 1_555
C24 C23 1_555 1_555
C25 N1 1_555 1_555
C26 C15 1_555 1_555
C27 C18 1_555 1_555
C28 N2 1_555 1_555
H33 C28 1_555 1_555
C29 C28 1_555 1_555
H34 C29 1_555 1_555
H35 C29 1_555 1_555
C30 C29 1_555 1_555
H36 C30 1_555 1_555
H37 C30 1_555 1_555
C31 C30 1_555 1_555
H38 C31 1_555 1_555
H39 C31 1_555 1_555
C32 C31 1_555 1_555
H40 C32 1_555 1_555
H41 C32 1_555 1_555
C33 C28 1_555 1_555
H42 C33 1_555 1_555
C34 N3 1_555 1_555
C35 C34 1_555 1_555
C36 C35 1_555 1_555
H43 C36 1_555 1_555
C37 C36 1_555 1_555
H44 C37 1_555 1_555
C38 C37 1_555 1_555
C39 C38 1_555 1_555
C40 N4 1_555 1_555
C41 C40 1_555 1_555
C42 C41 1_555 1_555
H45 C42 1_555 1_555
C43 C42 1_555 1_555
H46 C43 1_555 1_555
C44 C43 1_555 1_555
C45 N3 1_555 1_555
C46 C35 1_555 1_555
C47 C38 1_555 1_555
C48 N4 1_555 1_555
H47 C48 1_555 1_555
C49 C48 1_555 1_555
H48 C49 1_555 1_555
H49 C49 1_555 1_555
C50 C49 1_555 1_555
H50 C50 1_555 1_555
H51 C50 1_555 1_555
C51 C50 1_555 1_555
H52 C51 1_555 1_555
H53 C51 1_555 1_555
C52 C51 1_555 1_555
H54 C52 1_555 1_555
H55 C52 1_555 1_555
C53 C48 1_555 1_555
H56 C53 1_555 1_555
C54 N5 1_555 1_555
C55 C54 1_555 1_555
C56 C55 1_555 1_555
H57 C56 1_555 1_555
C57 C56 1_555 1_555
H58 C57 1_555 1_555
C58 C57 1_555 1_555
C59 C58 1_555 1_555
C60 N6 1_555 1_555
C61 C60 1_555 1_555
C62 C61 1_555 1_555
H59 C62 1_555 1_555
C63 C62 1_555 1_555
H60 C63 1_555 1_555
C64 C63 1_555 1_555
C65 N5 1_555 1_555
C66 C55 1_555 1_555
C67 C58 1_555 1_555
C68 N6 1_555 1_555
H61 C68 1_555 1_555
C69 C68 1_555 1_555
H62 C69 1_555 1_555
H63 C69 1_555 1_555
C70 C69 1_555 1_555
H64 C70 1_555 1_555
H65 C70 1_555 1_555
C71 C70 1_555 1_555
H66 C71 1_555 1_555
H67 C71 1_555 1_555
C72 C71 1_555 1_555
H68 C72 1_555 1_555
H69 C72 1_555 1_555
C73 N1 1_555 1_555
H70 C73 1_555 1_555
O13 C75 1_555 1_555
O14 C80 1_555 1_555
O15 C81 1_555 1_555
O16 C86 1_555 1_555
O17 C95 1_555 1_555
O18 C100 1_555 1_555
O19 C101 1_555 1_555
O20 C74 1_555 1_555
O21 C114 1_555 1_555
O22 C119 1_555 1_555
O23 C120 1_555 1_555
O24 C125 1_555 1_555
N7 C75 1_555 1_555
N8 C80 1_555 1_555
N9 C74 1_555 1_555
N10 C100 1_555 1_555
N11 C113 1_555 1_555
N12 C119 1_555 1_555
C74 C105 1_555 1_555
C75 C76 1_555 1_555
C76 C77 1_555 1_555
C77 H71 1_555 1_555
C78 C77 1_555 1_555
H72 C78 1_555 1_555
C79 C78 1_555 1_555
C80 C79 1_555 1_555
C81 N8 1_555 1_555
C82 C81 1_555 1_555
C83 C82 1_555 1_555
H73 C83 1_555 1_555
C84 C83 1_555 1_555
H74 C84 1_555 1_555
C85 C84 1_555 1_555
C86 N7 1_555 1_555
C87 C76 1_555 1_555
C88 C79 1_555 1_555
C89 N8 1_555 1_555
H75 C89 1_555 1_555
C90 C89 1_555 1_555
H76 C90 1_555 1_555
H77 C90 1_555 1_555
C91 C90 1_555 1_555
H78 C91 1_555 1_555
H79 C91 1_555 1_555
C92 C91 1_555 1_555
H80 C92 1_555 1_555
H81 C92 1_555 1_555
C93 C92 1_555 1_555
H82 C93 1_555 1_555
H83 C93 1_555 1_555
C94 N9 1_555 1_555
H84 C94 1_555 1_555
C95 N9 1_555 1_555
C96 C95 1_555 1_555
C97 C96 1_555 1_555
H85 C97 1_555 1_555
C98 C97 1_555 1_555
H86 C98 1_555 1_555
C99 C98 1_555 1_555
C100 C99 1_555 1_555
C101 N10 1_555 1_555
C102 C101 1_555 1_555
C103 C102 1_555 1_555
H87 C103 1_555 1_555
C104 C103 1_555 1_555
H88 C104 1_555 1_555
C105 C104 1_555 1_555
C106 C96 1_555 1_555
C107 C99 1_555 1_555
C108 N10 1_555 1_555
H89 C108 1_555 1_555
C109 C108 1_555 1_555
H90 C109 1_555 1_555
H91 C109 1_555 1_555
C110 C109 1_555 1_555
H92 C110 1_555 1_555
H93 C110 1_555 1_555
C111 C110 1_555 1_555
H94 C111 1_555 1_555
H95 C111 1_555 1_555
C112 C111 1_555 1_555
H96 C112 1_555 1_555
H97 C112 1_555 1_555
C113 C108 1_555 1_555
H98 C113 1_555 1_555
C114 N11 1_555 1_555
C115 C114 1_555 1_555
C116 C115 1_555 1_555
H99 C116 1_555 1_555
C117 C116 1_555 1_555
H100 C117 1_555 1_555
C118 C117 1_555 1_555
C119 C118 1_555 1_555
C120 N12 1_555 1_555
C121 C120 1_555 1_555
C122 C121 1_555 1_555
H101 C122 1_555 1_555
C123 C122 1_555 1_555
H102 C123 1_555 1_555
C124 C123 1_555 1_555
C125 N11 1_555 1_555
C126 C115 1_555 1_555
C127 C118 1_555 1_555
C128 N12 1_555 1_555
H103 C128 1_555 1_555
C129 C128 1_555 1_555
H104 C129 1_555 1_555
H105 C129 1_555 1_555
C130 C129 1_555 1_555
H106 C130 1_555 1_555
H107 C130 1_555 1_555
C131 C130 1_555 1_555
H108 C131 1_555 1_555
H109 C131 1_555 1_555
C132 C131 1_555 1_555
H110 C132 1_555 1_555
H111 C132 1_555 1_555
C133 N7 1_555 1_555
H112 C133 1_555 1_555
C21 C27 1_555 1_555
C24 C25 1_555 1_555
C24 C26 1_555 1_555
C26 C27 1_555 1_555
C32 C33 1_555 1_555
C41 C47 1_555 1_555
C44 C45 1_555 1_555
C44 C46 1_555 1_555
C46 C47 1_555 1_555
C52 C53 1_555 1_555
C61 C67 1_555 1_555
C64 C65 1_555 1_555
C64 C66 1_555 1_555
C66 C67 1_555 1_555
C68 C73 1_555 1_555
C72 C73 1_555 1_555
C82 C88 1_555 1_555
C85 C86 1_555 1_555
C85 C87 1_555 1_555
C87 C88 1_555 1_555
C89 C94 1_555 1_555
C93 C94 1_555 1_555
C102 C107 1_555 1_555
C105 C106 1_555 1_555
C106 C107 1_555 1_555
C112 C113 1_555 1_555
C121 C127 1_555 1_555
C124 C125 1_555 1_555
C124 C126 1_555 1_555
C126 C127 1_555 1_555
C128 C133 1_555 1_555
C132 C133 1_555 1_555

#END
