
#######################################################################
#
#                 Cambridge Crystallographic Data Centre
#                                CCDC 
#
#######################################################################
#
# If this CIF has been generated from an entry in the Cambridge 
# Structural Database, then it will include bibliographic, chemical, 
# crystal, experimental, refinement or atomic coordinate data resulting 
# from the CCDC's data processing and validation procedures.
#
#######################################################################

data_NUYBOY01
_chemical_formula_moiety         'C31 H30 O4,C7 H9 N1 O1 S1'
_chemical_name_systematic        
"(4R,5R)-\a,\a,\a',\a'-tetraphenyl-2,2-dimethyl-1,3-dioxolane-4,5-dimethanol (R)-ethyl-2-pyridyl sulfoxide clathrate"
_symmetry_cell_setting           monoclinic
_symmetry_space_group_name_H-M   'P 21'
_symmetry_Int_Tables_number      4
_space_group_name_Hall           'P 2yb'
loop_
_symmetry_equiv_pos_site_id
_symmetry_equiv_pos_as_xyz
1 x,y,z
2 -x,1/2+y,-z
_cell_length_a                   9.701(2)
_cell_length_b                   9.953(2)
_cell_length_c                   17.392(2)
_cell_angle_alpha                90
_cell_angle_beta                 92.079(14)
_cell_angle_gamma                90
_cell_volume                     1678.16
_cell_formula_units_Z            2
loop_
_atom_site_label
_atom_site_type_symbol
_atom_site_fract_x
_atom_site_fract_y
_atom_site_fract_z
S1 S 0.1622(1) 0.6027(1) 0.5970(1)
N1 N -0.0343(2) 0.5448(2) 0.4959(1)
O5 O 0.2446(1) 0.7284(1) 0.6126(1)
C32 C 0.0692(1) 0.6305(2) 0.5071(1)
C33 C 0.0992(2) 0.7324(2) 0.4595(1)
C34 C 0.0176(2) 0.7462(3) 0.3931(1)
C35 C -0.0883(2) 0.6620(2) 0.3793(1)
C36 C -0.1112(2) 0.5662(3) 0.4302(1)
C37 C 0.2841(2) 0.4785(3) 0.5686(1)
C38 C 0.3886(3) 0.5307(4) 0.5214(2)
O1 O 0.2263(1) 0.8768(1) 0.7384(1)
O2 O 0.4007(1) 1.0668(1) 0.6974(1)
O3 O 0.4711(1) 0.7938(1) 0.8943(1)
O4 O 0.6011(1) 0.9783(1) 0.8705(1)
C1 C 0.1886(1) 0.8989(2) 0.8729(1)
C2 C 0.1166(2) 1.0133(2) 0.8553(1)
C3 C 0.0403(2) 1.0784(2) 0.9087(1)
C4 C 0.0369(2) 1.0312(3) 0.9815(1)
C5 C 0.1077(2) 0.9165(2) 1.0014(1)
C6 C 0.1847(2) 0.8504(2) 0.9474(1)
C7 C 0.2271(1) 0.6729(2) 0.8114(1)
C8 C 0.3204(2) 0.5708(2) 0.8060(1)
C9 C 0.2762(2) 0.4378(2) 0.7992(1)
C10 C 0.1377(2) 0.4086(2) 0.7980(1)
C11 C 0.0433(2) 0.5096(2) 0.8038(1)
C12 C 0.0880(2) 0.6394(2) 0.8099(1)
C13 C 0.2675(1) 0.8235(2) 0.8124(1)
C14 C 0.5926(2) 0.8652(2) 0.9183(1)
C15 C 0.5783(3) 0.9080(3) 0.9994(1)
C16 C 0.7176(2) 0.7790(3) 0.9053(2)
C17 C 0.4250(1) 0.8443(2) 0.8210(1)
C18 C 0.4808(1) 0.9884(2) 0.8211(1)
C19 C 0.5226(1) 1.0489(2) 0.7437(1)
C20 C 0.5803(1) 1.1919(2) 0.7506(1)
C21 C 0.6103(2) 1.2584(2) 0.8193(1)
C22 C 0.6559(2) 1.3919(2) 0.8195(1)
C23 C 0.6733(2) 1.4575(2) 0.7522(1)
C24 C 0.6479(2) 1.3925(2) 0.6840(1)
C25 C 0.6008(2) 1.2607(2) 0.6840(1)
C26 C 0.6257(1) 0.9567(2) 0.7049(1)
C27 C 0.5824(2) 0.8618(2) 0.6527(1)
C28 C 0.6759(2) 0.7746(2) 0.6190(1)
C29 C 0.8117(2) 0.7855(2) 0.6386(1)
C30 C 0.8569(2) 0.8804(2) 0.6906(1)
C31 C 0.7652(1) 0.9647(2) 0.7227(1)
loop_
_geom_bond_atom_site_label_1
_geom_bond_atom_site_label_2
_geom_bond_site_symmetry_1
_geom_bond_site_symmetry_2
S1 O5 1_555 1_555
N1 C32 1_555 1_555
O1 C13 1_555 1_555
O2 C19 1_555 1_555
O3 C14 1_555 1_555
O4 C14 1_555 1_555
C1 C2 1_555 1_555
C2 C3 1_555 1_555
C3 C4 1_555 1_555
C4 C5 1_555 1_555
C5 C6 1_555 1_555
C6 C1 1_555 1_555
C7 C8 1_555 1_555
C8 C9 1_555 1_555
C9 C10 1_555 1_555
C10 C11 1_555 1_555
C11 C12 1_555 1_555
C12 C7 1_555 1_555
C13 C1 1_555 1_555
C14 C15 1_555 1_555
C16 C14 1_555 1_555
C17 O3 1_555 1_555
C18 O4 1_555 1_555
C19 C18 1_555 1_555
C20 C19 1_555 1_555
C21 C20 1_555 1_555
C22 C21 1_555 1_555
C23 C22 1_555 1_555
C24 C23 1_555 1_555
C25 C20 1_555 1_555
C26 C19 1_555 1_555
C27 C26 1_555 1_555
C28 C27 1_555 1_555
C29 C28 1_555 1_555
C30 C29 1_555 1_555
C31 C26 1_555 1_555
C32 S1 1_555 1_555
C33 C32 1_555 1_555
C34 C33 1_555 1_555
C35 C34 1_555 1_555
C36 N1 1_555 1_555
C37 S1 1_555 1_555
C38 C37 1_555 1_555
C7 C13 1_555 1_555
C13 C17 1_555 1_555
C17 C18 1_555 1_555
C24 C25 1_555 1_555
C30 C31 1_555 1_555
C35 C36 1_555 1_555

#END
