
#######################################################################
#
#                 Cambridge Crystallographic Data Centre
#                                CCDC 
#
#######################################################################
#
# If this CIF has been generated from an entry in the Cambridge 
# Structural Database, then it will include bibliographic, chemical, 
# crystal, experimental, refinement or atomic coordinate data resulting 
# from the CCDC's data processing and validation procedures.
#
#######################################################################

data_NUZBUF
_chemical_formula_moiety         'C8 H7 Cl2 N1 O1'
_chemical_name_systematic        N-Phenyldichloroacetamide
_chemical_properties_biological  'potential therapeutic activity'
_symmetry_cell_setting           monoclinic
_symmetry_space_group_name_H-M   'P 21/c'
_symmetry_Int_Tables_number      14
_space_group_name_Hall           '-P 2ybc'
loop_
_symmetry_equiv_pos_site_id
_symmetry_equiv_pos_as_xyz
1 x,y,z
2 -x,1/2+y,1/2-z
3 -x,-y,-z
4 x,1/2-y,1/2+z
_cell_length_a                   8.784(2)
_cell_length_b                   11.1374(10)
_cell_length_c                   9.5023(10)
_cell_angle_alpha                90
_cell_angle_beta                 97.507(10)
_cell_angle_gamma                90
_cell_volume                     921.651
_exptl_crystal_colour            colorless
_exptl_crystal_description       needles
_cell_formula_units_Z            4
loop_
_atom_site_label
_atom_site_type_symbol
_atom_site_fract_x
_atom_site_fract_y
_atom_site_fract_z
Cl1 Cl 0.3110(2) 0.0380(2) 0.4418(2)
Cl2 Cl -0.0079(2) 0.0785(2) 0.3269(2)
C1 C 0.1524(7) 0.1387(6) 0.4369(7)
H1 H 0.1274 0.1505 0.5338
C2 C 0.1993(8) 0.2573(6) 0.3752(8)
O1 O 0.2149(7) 0.2652(4) 0.2477(5)
C3 C 0.2619(10) 0.6709(7) 0.5172(9)
H2 H 0.2299 0.7318 0.5829
C4 C 0.3574(10) 0.6991(7) 0.4119(11)
H3 H 0.3901 0.7817 0.4037
C5 C 0.4034(9) 0.6114(6) 0.3305(8)
H4 H 0.4731 0.6333 0.2599
C6 C 0.3607(8) 0.4943(6) 0.3437(6)
H5 H 0.3953 0.4330 0.2806
N1 N 0.2202(6) 0.3454(4) 0.4696(5)
C7 C 0.2193(9) 0.5534(7) 0.5300(8)
H6 H 0.1502 0.5331 0.5999
C8 C 0.2643(7) 0.4641(6) 0.4465(6)
H7 H 0.2049 0.3314 0.5761
loop_
_geom_bond_atom_site_label_1
_geom_bond_atom_site_label_2
_geom_bond_site_symmetry_1
_geom_bond_site_symmetry_2
Cl1 C1 1_555 1_555
Cl2 C1 1_555 1_555
C1 H1 1_555 1_555
C2 C1 1_555 1_555
O1 C2 1_555 1_555
C3 H2 1_555 1_555
C4 C3 1_555 1_555
H3 C4 1_555 1_555
C5 C4 1_555 1_555
H4 C5 1_555 1_555
C6 C5 1_555 1_555
H5 C6 1_555 1_555
N1 C2 1_555 1_555
C7 C3 1_555 1_555
H6 C7 1_555 1_555
C8 C6 1_555 1_555
H7 N1 1_555 1_555
N1 C8 1_555 1_555
C7 C8 1_555 1_555

#END
