
#######################################################################
#
#                 Cambridge Crystallographic Data Centre
#                                CCDC 
#
#######################################################################
#
# If this CIF has been generated from an entry in the Cambridge 
# Structural Database, then it will include bibliographic, chemical, 
# crystal, experimental, refinement or atomic coordinate data resulting 
# from the CCDC's data processing and validation procedures.
#
#######################################################################

data_OBARAN
_chemical_formula_moiety         'C27 H21 N1 O2 S2'
_chemical_name_systematic        
5-((4-methylphenyl)sulfonyl)-10-phenyl-6,10-dihydro-5H-thieno[3',2':4,5]cyclopenta[1,2-c]quinoline
_symmetry_cell_setting           triclinic
_symmetry_space_group_name_H-M   'P -1'
_symmetry_Int_Tables_number      2
_space_group_name_Hall           '-P 1'
loop_
_symmetry_equiv_pos_site_id
_symmetry_equiv_pos_as_xyz
1 x,y,z
2 -x,-y,-z
_cell_length_a                   9.6562(8)
_cell_length_b                   9.6786(9)
_cell_length_c                   13.5994(11)
_cell_angle_alpha                108.352(8)
_cell_angle_beta                 93.750(6)
_cell_angle_gamma                110.424(8)
_cell_volume                     1108.34
_exptl_crystal_colour            yellow
_exptl_crystal_description       parallelepiped
_cell_formula_units_Z            2
loop_
_atom_site_label
_atom_site_type_symbol
_atom_site_fract_x
_atom_site_fract_y
_atom_site_fract_z
S1 S 1.01944(7) 1.12441(9) 0.32292(6)
S2 S 0.56409(10) 0.71499(9) 0.46487(6)
O1 O 1.1097(2) 1.2527(3) 0.29507(18)
O2 O 1.0895(2) 1.0565(3) 0.37945(17)
N1 N 0.9089(2) 1.1870(3) 0.39783(16)
C1 C 0.9060(3) 0.9711(3) 0.2044(2)
C2 C 0.8875(3) 1.0035(4) 0.1143(2)
H1 H 0.9291 1.1070 0.1165
C3 C 0.8071(3) 0.8819(4) 0.0204(2)
H2 H 0.7933 0.9047 -0.0401
C4 C 0.7467(3) 0.7272(4) 0.0147(3)
C5 C 0.7638(4) 0.6985(4) 0.1077(3)
H3 H 0.7209 0.5955 0.1064
C6 C 0.8421(3) 0.8181(3) 0.2010(2)
H4 H 0.8522 0.7963 0.2623
C7 C 0.6673(5) 0.5934(5) -0.0895(3)
H5 H 0.6329 0.4948 -0.0783
H6 H 0.5827 0.6080 -0.1189
H7 H 0.7360 0.5925 -0.1374
C8 C 0.8289(3) 1.2684(3) 0.36194(19)
C9 C 0.9063(4) 1.4198(3) 0.3636(2)
H8 H 1.0102 1.4690 0.3875
C10 C 0.8286(5) 1.4968(4) 0.3296(3)
H9 H 0.8807 1.5981 0.3302
C11 C 0.6761(5) 1.4264(4) 0.2952(2)
H10 H 0.6252 1.4793 0.2715
C12 C 0.5968(4) 1.2766(4) 0.2952(2)
H11 H 0.4928 1.2297 0.2719
C13 C 0.6713(3) 1.1950(3) 0.32978(19)
C14 C 0.5948(3) 1.0429(3) 0.34087(19)
C15 C 0.4297(3) 0.9334(3) 0.3025(2)
H12 H 0.3703 0.9901 0.3388
C16 C 0.4243(3) 0.8073(3) 0.34885(19)
C17 C 0.3132(3) 0.6591(3) 0.3464(2)
H13 H 0.2138 0.6114 0.3100
C18 C 0.3800(4) 0.6014(4) 0.4070(2)
H14 H 0.3282 0.5065 0.4159
C19 C 0.5622(3) 0.8486(3) 0.40738(19)
C20 C 0.6675(3) 0.9944(3) 0.40237(19)
C21 C 0.8286(3) 1.0879(3) 0.4559(2)
H15 H 0.8342 1.1548 0.5274
H16 H 0.8769 1.0166 0.4598
C22 C 0.3650(3) 0.8671(3) 0.1847(2)
C23 C 0.4550(3) 0.8675(4) 0.1100(2)
H17 H 0.5592 0.9131 0.1317
C24 C 0.3920(4) 0.8008(4) 0.0035(2)
H18 H 0.4540 0.8030 -0.0461
C25 C 0.2386(4) 0.7315(4) -0.0294(2)
H19 H 0.1964 0.6853 -0.1012
C26 C 0.1477(4) 0.7303(4) 0.0435(3)
H20 H 0.0435 0.6830 0.0213
C27 C 0.2103(3) 0.7994(4) 0.1504(2)
H21 H 0.1477 0.8003 0.1995
loop_
_geom_bond_atom_site_label_1
_geom_bond_atom_site_label_2
_geom_bond_site_symmetry_1
_geom_bond_site_symmetry_2
S1 O1 1_555 1_555
S2 C18 1_555 1_555
O2 S1 1_555 1_555
N1 S1 1_555 1_555
C1 S1 1_555 1_555
C2 C1 1_555 1_555
H1 C2 1_555 1_555
C3 C2 1_555 1_555
H2 C3 1_555 1_555
C4 C3 1_555 1_555
C5 C4 1_555 1_555
H3 C5 1_555 1_555
C6 C1 1_555 1_555
H4 C6 1_555 1_555
C7 C4 1_555 1_555
H5 C7 1_555 1_555
H6 C7 1_555 1_555
H7 C7 1_555 1_555
C8 N1 1_555 1_555
C9 C8 1_555 1_555
H8 C9 1_555 1_555
C10 C9 1_555 1_555
H9 C10 1_555 1_555
C11 C10 1_555 1_555
H10 C11 1_555 1_555
C12 C11 1_555 1_555
H11 C12 1_555 1_555
C13 C8 1_555 1_555
C14 C13 1_555 1_555
C15 C14 1_555 1_555
H12 C15 1_555 1_555
C16 C15 1_555 1_555
C17 C16 1_555 1_555
H13 C17 1_555 1_555
C18 C17 1_555 1_555
H14 C18 1_555 1_555
C19 S2 1_555 1_555
C20 C14 1_555 1_555
C21 N1 1_555 1_555
H15 C21 1_555 1_555
H16 C21 1_555 1_555
C22 C15 1_555 1_555
C23 C22 1_555 1_555
H17 C23 1_555 1_555
C24 C23 1_555 1_555
H18 C24 1_555 1_555
C25 C24 1_555 1_555
H19 C25 1_555 1_555
C26 C25 1_555 1_555
H20 C26 1_555 1_555
C27 C22 1_555 1_555
H21 C27 1_555 1_555
C5 C6 1_555 1_555
C12 C13 1_555 1_555
C16 C19 1_555 1_555
C19 C20 1_555 1_555
C20 C21 1_555 1_555
C26 C27 1_555 1_555

#END
