
#######################################################################
#
#                 Cambridge Crystallographic Data Centre
#                                CCDC 
#
#######################################################################
#
# If this CIF has been generated from an entry in the Cambridge 
# Structural Database, then it will include bibliographic, chemical, 
# crystal, experimental, refinement or atomic coordinate data resulting 
# from the CCDC's data processing and validation procedures.
#
#######################################################################

data_OBEPIV
_chemical_formula_moiety         'C22 H28 N2 O3'
_chemical_name_systematic        
10,10-Dimethyl-4-(2-hydroxy-2-methylpent-4-en-1-oyl)-3-phenyl-3,4-diazatricyclo(5.2.1.0^1,5^)decan-2-one
_symmetry_cell_setting           monoclinic
_symmetry_space_group_name_H-M   'P 21'
_symmetry_Int_Tables_number      4
_space_group_name_Hall           'P 2yb'
loop_
_symmetry_equiv_pos_site_id
_symmetry_equiv_pos_as_xyz
1 x,y,z
2 -x,1/2+y,-z
_cell_length_a                   8.8760(10)
_cell_length_b                   11.2330(17)
_cell_length_c                   10.9320(19)
_cell_angle_alpha                90
_cell_angle_beta                 111.923(5)
_cell_angle_gamma                90
_cell_volume                     1011.15
_exptl_crystal_colour            colorless
_exptl_crystal_description       prism
_cell_formula_units_Z            2
loop_
_atom_site_label
_atom_site_type_symbol
_atom_site_fract_x
_atom_site_fract_y
_atom_site_fract_z
O1 O 0.0898(8) 0.2759(7) 0.8975(8)
O2 O 0.5544(9) 0.5331(6) 0.9718(9)
O3 O 0.7481(7) 0.3090(6) 0.8490(7)
H1 H 0.8435 0.3014 0.9261
N1 N 0.3388(9) 0.3598(7) 0.9419(9)
N2 N 0.4681(9) 0.3481(7) 0.8920(9)
C1 C 0.2043(11) 0.2930(8) 0.8661(11)
C2 C 0.2303(11) 0.2510(8) 0.7465(11)
C3 C 0.4176(11) 0.2589(8) 0.7841(10)
H2 H 0.4790 0.1876 0.8168
C4 C 0.4328(12) 0.2873(9) 0.6506(10)
H3 H 0.5005 0.2331 0.6264
H4 H 0.4704 0.3673 0.6494
C5 C 0.2576(12) 0.2748(9) 0.5536(11)
H5 H 0.2492 0.3074 0.4702
C6 C 0.2080(13) 0.1420(8) 0.5553(11)
H6 H 0.1102 0.1267 0.4805
H7 H 0.2934 0.0916 0.5513
C7 C 0.1832(12) 0.1291(9) 0.6870(11)
H8 H 0.0720 0.1088 0.6694
H9 H 0.2527 0.0673 0.7386
C8 C 0.1587(12) 0.3362(9) 0.6257(11)
C9 C -0.0268(12) 0.3230(11) 0.5574(12)
H10 H -0.0790 0.3610 0.6097
H11 H -0.0556 0.2402 0.5472
H12 H -0.0612 0.3601 0.4723
C10 C 0.1953(14) 0.4700(9) 0.6513(14)
H13 H 0.1307 0.5027 0.6967
H14 H 0.1708 0.5106 0.5689
H15 H 0.3083 0.4798 0.7046
C11 C 0.3724(13) 0.3850(9) 1.0748(11)
C12 C 0.4705(15) 0.3087(11) 1.1701(15)
H16 H 0.5184 0.2423 1.1427
C13 C 0.500(2) 0.3328(17) 1.3004(15)
H17 H 0.5685 0.2840 1.3714
C14 C 0.422(2) 0.4329(17) 1.3306(16)
H18 H 0.4415 0.4489 1.4215
C15 C 0.3276(18) 0.5075(12) 1.2335(18)
H19 H 0.2791 0.5745 1.2592
C16 C 0.3036(14) 0.4840(10) 1.1080(15)
H20 H 0.2365 0.5362 1.0399
C17 C 0.5763(12) 0.4419(9) 0.9203(11)
C18 C 0.7400(13) 0.4265(8) 0.9031(12)
C19 C 0.7572(16) 0.5220(10) 0.8092(14)
H21 H 0.7521 0.5995 0.8445
H22 H 0.6689 0.5130 0.7259
H23 H 0.8583 0.5134 0.7972
C20 C 0.8734(12) 0.4409(9) 1.0348(13)
H24 H 0.8657 0.5205 1.0640
H25 H 0.9755 0.4311 1.0245
C21 C 0.8691(14) 0.3538(11) 1.1356(13)
H26 H 0.7807 0.3586 1.1658
C22 C 0.9754(19) 0.2726(15) 1.1863(17)
H27 H 0.9608 0.2197 1.2500
H28 H 1.0668 0.2627 1.1604
loop_
_geom_bond_atom_site_label_1
_geom_bond_atom_site_label_2
_geom_bond_site_symmetry_1
_geom_bond_site_symmetry_2
O1 C1 1_555 1_555
O2 C17 1_555 1_555
O3 H1 1_555 1_555
N1 N2 1_555 1_555
N2 C3 1_555 1_555
C1 N1 1_555 1_555
C2 C1 1_555 1_555
C3 C2 1_555 1_555
H2 C3 1_555 1_555
C4 C3 1_555 1_555
H3 C4 1_555 1_555
H4 C4 1_555 1_555
C5 C4 1_555 1_555
H5 C5 1_555 1_555
C6 C5 1_555 1_555
H6 C6 1_555 1_555
H7 C6 1_555 1_555
C7 C2 1_555 1_555
H8 C7 1_555 1_555
H9 C7 1_555 1_555
C8 C2 1_555 1_555
C9 C8 1_555 1_555
H10 C9 1_555 1_555
H11 C9 1_555 1_555
H12 C9 1_555 1_555
C10 C8 1_555 1_555
H13 C10 1_555 1_555
H14 C10 1_555 1_555
H15 C10 1_555 1_555
C11 N1 1_555 1_555
C12 C11 1_555 1_555
H16 C12 1_555 1_555
C13 C12 1_555 1_555
H17 C13 1_555 1_555
C14 C13 1_555 1_555
H18 C14 1_555 1_555
C15 C14 1_555 1_555
H19 C15 1_555 1_555
C16 C11 1_555 1_555
H20 C16 1_555 1_555
C17 N2 1_555 1_555
C18 O3 1_555 1_555
C19 C18 1_555 1_555
H21 C19 1_555 1_555
H22 C19 1_555 1_555
H23 C19 1_555 1_555
C20 C18 1_555 1_555
H24 C20 1_555 1_555
H25 C20 1_555 1_555
C21 C20 1_555 1_555
H26 C21 1_555 1_555
C22 C21 1_555 1_555
H27 C22 1_555 1_555
H28 C22 1_555 1_555
C5 C8 1_555 1_555
C6 C7 1_555 1_555
C15 C16 1_555 1_555
C17 C18 1_555 1_555

#END
