
#######################################################################
#
#                 Cambridge Crystallographic Data Centre
#                                CCDC 
#
#######################################################################
#
# If this CIF has been generated from an entry in the Cambridge 
# Structural Database, then it will include bibliographic, chemical, 
# crystal, experimental, refinement or atomic coordinate data resulting 
# from the CCDC's data processing and validation procedures.
#
#######################################################################

data_OBEYIG
_chemical_formula_moiety         'C36 H22 O2 S3,C1 H2 Cl2'
_chemical_name_systematic        
"4,4'-[sulfonylbis(4,1-phenylene)]bis(dibenzo[b,d]thiophene) dichloromethane solvate"
_symmetry_cell_setting           monoclinic
_symmetry_space_group_name_H-M   'C 2/c'
_symmetry_Int_Tables_number      15
_space_group_name_Hall           '-C 2yn'
loop_
_symmetry_equiv_pos_site_id
_symmetry_equiv_pos_as_xyz
1 x,y,z
2 -x,y,1/2-z
3 1/2+x,1/2+y,z
4 1/2-x,1/2+y,1/2-z
5 -x,-y,-z
6 x,-y,1/2+z
7 1/2-x,1/2-y,-z
8 1/2+x,1/2-y,1/2+z
_cell_length_a                   9.3865(3)
_cell_length_b                   12.1945(3)
_cell_length_c                   26.4154(6)
_cell_angle_alpha                90
_cell_angle_beta                 94.268(2)
_cell_angle_gamma                90
_cell_volume                     3015.22
_exptl_crystal_colour            colorless
_exptl_crystal_description       block
_cell_formula_units_Z            4
loop_
_atom_site_label
_atom_site_type_symbol
_atom_site_fract_x
_atom_site_fract_y
_atom_site_fract_z
S1 S 0.18600(6) 0.38870(5) 0.48949(2)
S2 S 0.0000 0.24913(6) 0.2500
O1 O 0.11578(17) 0.18952(13) 0.22993(5)
C1 C 0.2608(2) 0.54107(18) 0.41591(8)
C2 C 0.3263(2) 0.57302(19) 0.50642(8)
C3 C 0.3632(3) 0.5618(2) 0.60381(8)
H1 H 0.4107 0.6286 0.6071
C4 C 0.0733(2) 0.33886(17) 0.29761(7)
C5 C 0.2716(3) 0.3992(2) 0.64200(8)
H2 H 0.2589 0.3582 0.6710
C6 C -0.0071(2) 0.36675(18) 0.33796(8)
H3 H -0.0997 0.3405 0.3394
C7 C 0.0534(2) 0.43410(17) 0.37584(8)
H4 H 0.0003 0.4535 0.4028
C8 C 0.3344(2) 0.63665(19) 0.40567(8)
H5 H 0.3392 0.6588 0.3721
C9 C 0.2679(2) 0.44812(19) 0.33195(8)
H6 H 0.3586 0.4774 0.3294
C10 C 0.3139(2) 0.52341(19) 0.55588(8)
C11 C 0.2095(2) 0.38034(19) 0.29401(8)
H7 H 0.2610 0.3628 0.2664
C12 C 0.1925(2) 0.47344(17) 0.37426(8)
C13 C 0.2587(2) 0.51044(17) 0.46709(8)
C14 C 0.3970(3) 0.66926(19) 0.49461(8)
H8 H 0.4409 0.7124 0.5203
C15 C 0.4012(3) 0.6999(2) 0.44434(9)
H9 H 0.4492 0.7635 0.4363
C16 C 0.3410(2) 0.4996(2) 0.64647(8)
H10 H 0.3730 0.5255 0.6784
C17 C 0.2425(2) 0.42227(19) 0.55212(8)
C18 C 0.2210(3) 0.3593(2) 0.59496(8)
H11 H 0.1739 0.2922 0.5920
S1A S -0.18600(6) 0.38870(5) 0.01051(2)
O1A O -0.11578(17) 0.18952(13) 0.27007(5)
C1A C -0.2608(2) 0.54107(18) 0.08409(8)
C2A C -0.3263(2) 0.57302(19) -0.00642(8)
C3A C -0.3632(3) 0.5618(2) -0.10381(8)
H1A H -0.4107 0.6286 -0.1071
C4A C -0.0733(2) 0.33886(17) 0.20239(7)
C5A C -0.2716(3) 0.3992(2) -0.14200(8)
H2A H -0.2589 0.3582 -0.1710
C6A C 0.0071(2) 0.36675(18) 0.16204(8)
H3A H 0.0997 0.3405 0.1606
C7A C -0.0534(2) 0.43410(17) 0.12416(8)
H4A H -0.0003 0.4535 0.0972
C8A C -0.3344(2) 0.63665(19) 0.09433(8)
H5A H -0.3392 0.6588 0.1279
C9A C -0.2679(2) 0.44812(19) 0.16805(8)
H6A H -0.3586 0.4774 0.1706
C10A C -0.3139(2) 0.52341(19) -0.05588(8)
C11A C -0.2095(2) 0.38034(19) 0.20599(8)
H7A H -0.2610 0.3628 0.2336
C12A C -0.1925(2) 0.47344(17) 0.12574(8)
C13A C -0.2587(2) 0.51044(17) 0.03291(8)
C14A C -0.3970(3) 0.66926(19) 0.00539(8)
H8A H -0.4409 0.7124 -0.0203
C15A C -0.4012(3) 0.6999(2) 0.05566(9)
H9A H -0.4492 0.7635 0.0637
C16A C -0.3410(2) 0.4996(2) -0.14647(8)
H10A H -0.3730 0.5255 -0.1784
C17A C -0.2425(2) 0.42227(19) -0.05212(8)
C18A C -0.2210(3) 0.3593(2) -0.09496(8)
H11A H -0.1739 0.2922 -0.0920
Cl1 Cl 0.04346(7) 0.72185(7) 0.30408(3)
C19 C 0.0000 0.6421(3) 0.2500
H12 H -0.0804 0.5953 0.2562
H12A H 0.0804 0.5953 0.2438
Cl1A Cl -0.04346(7) 0.72185(7) 0.19592(3)
H13? H -0.0804 0.5953 0.2562
loop_
_geom_bond_atom_site_label_1
_geom_bond_atom_site_label_2
_geom_bond_site_symmetry_1
_geom_bond_site_symmetry_2
S1 C13 1_555 1_555
S2 O1 1_555 1_555
C1 C8 1_555 1_555
C2 C10 1_555 1_555
C3 H1 1_555 1_555
C4 S2 1_555 1_555
C5 H2 1_555 1_555
C6 C4 1_555 1_555
H3 C6 1_555 1_555
C7 C6 1_555 1_555
H4 C7 1_555 1_555
C8 H5 1_555 1_555
C9 H6 1_555 1_555
C10 C3 1_555 1_555
C11 C4 1_555 1_555
H7 C11 1_555 1_555
C12 C1 1_555 1_555
C13 C1 1_555 1_555
C14 C2 1_555 1_555
H8 C14 1_555 1_555
C15 C8 1_555 1_555
H9 C15 1_555 1_555
C16 C3 1_555 1_555
H10 C16 1_555 1_555
C17 S1 1_555 1_555
C18 C5 1_555 1_555
H11 C18 1_555 1_555
Cl1 C19 1_555 1_555
C19 H12 1_555 1_555
S1A C13A 1_555 1_555
O1A S2 1_555 1_555
C1A C8A 1_555 1_555
C2A C10A 1_555 1_555
C3A H1A 1_555 1_555
C4A S2 1_555 1_555
C5A H2A 1_555 1_555
C6A C4A 1_555 1_555
H3A C6A 1_555 1_555
C7A C6A 1_555 1_555
H4A C7A 1_555 1_555
C8A H5A 1_555 1_555
C9A H6A 1_555 1_555
C10A C3A 1_555 1_555
C11A C4A 1_555 1_555
H7A C11A 1_555 1_555
C12A C1A 1_555 1_555
C13A C1A 1_555 1_555
C14A C2A 1_555 1_555
H8A C14A 1_555 1_555
C15A C8A 1_555 1_555
H9A C15A 1_555 1_555
C16A C3A 1_555 1_555
H10A C16A 1_555 1_555
C17A S1A 1_555 1_555
C18A C5A 1_555 1_555
H11A C18A 1_555 1_555
H12A C19 1_555 1_555
Cl1A C19 1_555 1_555
C2 C13 1_555 1_555
C5 C16 1_555 1_555
C7 C12 1_555 1_555
C9 C11 1_555 1_555
C9 C12 1_555 1_555
C10 C17 1_555 1_555
C14 C15 1_555 1_555
C17 C18 1_555 1_555
C2A C13A 1_555 1_555
C5A C16A 1_555 1_555
C7A C12A 1_555 1_555
C9A C11A 1_555 1_555
C9A C12A 1_555 1_555
C10A C17A 1_555 1_555
C14A C15A 1_555 1_555
C17A C18A 1_555 1_555

#END
