
#######################################################################
#
#                 Cambridge Crystallographic Data Centre
#                                CCDC 
#
#######################################################################
#
# If this CIF has been generated from an entry in the Cambridge 
# Structural Database, then it will include bibliographic, chemical, 
# crystal, experimental, refinement or atomic coordinate data resulting 
# from the CCDC's data processing and validation procedures.
#
#######################################################################

data_OBICOU
_chemical_formula_moiety         'C98 H122 B2 N8 Na4 O7'
_chemical_name_systematic        
'bis(\m-(2-{(4-methylphenyl)[(2,4,6-trimethylphenyl)diazenyl]methylidene}-1-phenylhydrazinyl)(diphenyl)borate)-heptakis(tetrahydrofuran)-tetra-sodium(i) unknown solvate'
_symmetry_cell_setting           triclinic
_symmetry_space_group_name_H-M   'P -1'
_symmetry_Int_Tables_number      2
_space_group_name_Hall           '-P 1'
loop_
_symmetry_equiv_pos_site_id
_symmetry_equiv_pos_as_xyz
1 x,y,z
2 -x,-y,-z
_cell_length_a                   13.2345(9)
_cell_length_b                   19.0244(14)
_cell_length_c                   22.8548(15)
_cell_angle_alpha                88.975(2)
_cell_angle_beta                 78.902(2)
_cell_angle_gamma                81.576(2)
_cell_volume                     5585.5
_exptl_crystal_colour            orange
_exptl_crystal_description       block
_cell_formula_units_Z            2
loop_
_atom_site_label
_atom_site_type_symbol
_atom_site_fract_x
_atom_site_fract_y
_atom_site_fract_z
Na1 Na 0.73047(8) 0.30053(6) 0.26865(5)
Na2 Na 0.53081(8) 0.24928(6) 0.24521(5)
Na3 Na 0.52853(9) 0.20252(7) 0.51374(5)
Na4 Na 0.73328(12) 0.35169(7) 0.00547(5)
O1 O 0.38542(17) 0.21064(12) 0.22800(11)
O2 O 0.8249(2) 0.23875(14) 0.00528(11)
O3 O 0.4577(2) 0.32185(13) 0.52988(11)
O4 O 0.61188(18) 0.20797(13) 0.59418(11)
O5 O 0.38822(17) 0.15875(13) 0.56903(10)
O6 O 0.6404(3) 0.34224(15) -0.06822(11)
O7 O 0.8785(3) 0.38759(16) -0.04996(14)
N1 N 0.67170(19) 0.45670(12) 0.12252(10)
N2 N 0.65086(19) 0.39115(12) 0.10104(10)
N3 N 0.61957(18) 0.34271(12) 0.20122(10)
N4 N 0.63904(18) 0.40840(12) 0.22705(10)
N5 N 0.71040(17) 0.12644(12) 0.40897(10)
N6 N 0.60628(17) 0.16248(12) 0.41560(10)
N7 N 0.63912(17) 0.20967(12) 0.31493(10)
N8 N 0.74798(17) 0.17503(12) 0.30461(10)
C1 C 0.6802(2) 0.50638(15) 0.07785(13)
C2 C 0.6297(3) 0.50419(16) 0.02903(13)
H1 H 0.5889 0.4676 0.0266
C3 C 0.6388(3) 0.55502(17) -0.01586(15)
H2 H 0.6041 0.5523 -0.0483
C4 C 0.6971(3) 0.60913(18) -0.01409(15)
H3 H 0.7023 0.6437 -0.0446
C5 C 0.7482(3) 0.61175(17) 0.03339(15)
H4 H 0.7887 0.6487 0.0351
C6 C 0.7414(3) 0.56173(16) 0.07819(14)
H5 H 0.7782 0.5645 0.1097
C7 C 0.6300(2) 0.34274(14) 0.14185(12)
C8 C 0.6059(2) 0.27591(15) 0.11716(12)
C9 C 0.5333(2) 0.27930(16) 0.08011(13)
H6 H 0.5028 0.3243 0.0683
C10 C 0.5049(3) 0.21813(18) 0.06028(14)
H7 H 0.4552 0.2219 0.0350
C11 C 0.5476(3) 0.15125(17) 0.07675(14)
C12 C 0.6203(3) 0.14773(16) 0.11333(14)
H8 H 0.6507 0.1026 0.1250
C13 C 0.6496(3) 0.20871(15) 0.13320(13)
H9 H 0.7000 0.2047 0.1581
C14 C 0.5184(4) 0.0836(2) 0.0547(2)
H10 H 0.5653 0.0425 0.0652
H11 H 0.5244 0.0854 0.0113
H12 H 0.4465 0.0792 0.0735
C15 C 0.5457(2) 0.44409(14) 0.26352(12)
C16 C 0.5532(2) 0.46621(15) 0.32109(13)
C17 C 0.4676(3) 0.50462(16) 0.35754(15)
H13 H 0.4745 0.5199 0.3957
C18 C 0.3731(3) 0.52132(17) 0.34033(15)
C19 C 0.3649(3) 0.49789(16) 0.28492(15)
H14 H 0.2996 0.5082 0.2728
C20 C 0.4483(2) 0.45963(15) 0.24588(13)
C21 C 0.6508(2) 0.44704(18) 0.34596(13)
H15 H 0.6425 0.4710 0.3845
H16 H 0.7098 0.4621 0.3183
H17 H 0.6637 0.3955 0.3513
C22 C 0.2792(3) 0.5610(2) 0.3819(2)
H18 H 0.2452 0.5994 0.3602
H19 H 0.3020 0.5812 0.4155
H20 H 0.2300 0.5281 0.3970
C23 C 0.4280(2) 0.43877(17) 0.18613(14)
H21 H 0.3600 0.4632 0.1807
H22 H 0.4285 0.3873 0.1847
H23 H 0.4824 0.4523 0.1543
C24 C 0.8319(2) 0.41032(14) 0.17070(12)
C25 C 0.8915(2) 0.39943(16) 0.11331(14)
H24 H 0.8592 0.4126 0.0802
C26 C 0.9953(3) 0.37025(18) 0.10253(15)
H25 H 1.0328 0.3642 0.0627
C27 C 1.0450(3) 0.34984(18) 0.14934(16)
H26 H 1.1167 0.3303 0.1420
C28 C 0.9888(3) 0.35829(18) 0.20706(15)
H27 H 1.0213 0.3437 0.2398
C29 C 0.8850(2) 0.38812(16) 0.21685(14)
H28 H 0.8479 0.3938 0.2568
C30 C 0.7042(2) 0.53208(15) 0.21162(13)
C31 C 0.7827(3) 0.55489(17) 0.23588(14)
H29 H 0.8455 0.5232 0.2353
C32 C 0.7728(3) 0.6221(2) 0.26084(18)
H30 H 0.8280 0.6355 0.2773
C33 C 0.6829(3) 0.6696(2) 0.26179(18)
H31 H 0.6759 0.7158 0.2785
C34 C 0.6035(3) 0.64888(18) 0.23806(16)
H32 H 0.5410 0.6808 0.2388
C35 C 0.6145(3) 0.58155(16) 0.21313(14)
H33 H 0.5592 0.5687 0.1965
C36 C 0.7206(2) 0.07914(14) 0.45449(12)
C37 C 0.6338(2) 0.05031(14) 0.48625(12)
H34 H 0.5673 0.0645 0.4763
C38 C 0.6435(2) 0.00177(15) 0.53158(13)
H35 H 0.5836 -0.0166 0.5521
C39 C 0.7390(2) -0.02039(16) 0.54752(13)
H36 H 0.7454 -0.0540 0.5783
C40 C 0.8250(2) 0.00788(15) 0.51728(13)
H37 H 0.8908 -0.0067 0.5278
C41 C 0.8174(2) 0.05648(15) 0.47238(12)
H38 H 0.8778 0.0752 0.4530
C42 C 0.5842(2) 0.19953(14) 0.36919(12)
C43 C 0.4720(2) 0.23323(14) 0.37698(11)
C44 C 0.3932(2) 0.19302(15) 0.39919(13)
H39 H 0.4106 0.1465 0.4135
C45 C 0.2897(2) 0.22040(16) 0.40058(14)
H40 H 0.2373 0.1921 0.4159
C46 C 0.2610(2) 0.28783(16) 0.38019(14)
C47 C 0.3394(2) 0.32832(16) 0.35965(13)
H41 H 0.3217 0.3753 0.3463
C48 C 0.4431(2) 0.30172(14) 0.35816(12)
H42 H 0.4951 0.3308 0.3441
C49 C 0.1486(3) 0.3157(2) 0.37856(19)
H43 H 0.1439 0.3373 0.3397
H44 H 0.1215 0.3515 0.4102
H45 H 0.1074 0.2764 0.3847
C50 C 0.7671(2) 0.12209(14) 0.25866(12)
C51 C 0.8553(2) 0.12279(15) 0.21294(12)
C52 C 0.8786(3) 0.07176(16) 0.16781(13)
H46 H 0.9393 0.0727 0.1380
C53 C 0.8173(3) 0.01977(17) 0.16432(14)
C54 C 0.7300(3) 0.01942(16) 0.20920(14)
H47 H 0.6868 -0.0161 0.2080
C55 C 0.7031(2) 0.06898(15) 0.25591(13)
C56 C 0.9248(2) 0.17871(17) 0.21008(13)
H48 H 0.9855 0.1670 0.1779
H49 H 0.9481 0.1809 0.2481
H50 H 0.8865 0.2249 0.2023
C57 C 0.8408(4) -0.0328(2) 0.11302(17)
H51 H 0.8312 -0.0803 0.1284
H52 H 0.9129 -0.0335 0.0921
H53 H 0.7936 -0.0188 0.0853
C58 C 0.6081(2) 0.06076(16) 0.30264(13)
H54 H 0.5836 0.0160 0.2958
H55 H 0.5530 0.1005 0.3001
H56 H 0.6261 0.0604 0.3423
C59 C 0.8049(2) 0.23740(15) 0.39094(12)
C60 C 0.7640(2) 0.25609(16) 0.45045(13)
H57 H 0.7282 0.2233 0.4751
C61 C 0.7732(2) 0.32010(18) 0.47532(15)
H58 H 0.7430 0.3306 0.5159
C62 C 0.8263(3) 0.36874(18) 0.44117(15)
H59 H 0.8326 0.4129 0.4579
C63 C 0.8703(2) 0.35195(16) 0.38204(15)
H60 H 0.9081 0.3843 0.3581
C64 C 0.8591(2) 0.28786(15) 0.35811(13)
H61 H 0.8896 0.2775 0.3175
C65 C 0.9046(2) 0.10766(15) 0.34863(11)
C66 C 1.0000(2) 0.12948(16) 0.35150(12)
H62 H 1.0012 0.1779 0.3605
C67 C 1.0932(2) 0.08295(17) 0.34165(13)
H63 H 1.1564 0.0999 0.3439
C68 C 1.0940(2) 0.01258(18) 0.32863(14)
H64 H 1.1575 -0.0194 0.3223
C69 C 1.0013(3) -0.01141(17) 0.32486(13)
H65 H 1.0010 -0.0600 0.3160
C70 C 0.9086(2) 0.03571(16) 0.33413(12)
H66 H 0.8461 0.0187 0.3305
C71 C 0.3686(3) 0.1381(2) 0.23299(18)
H67 H 0.3578 0.1234 0.2752
H68 H 0.4291 0.1067 0.2102
C72 C 0.2727(3) 0.1344(2) 0.20753(19)
H69 H 0.2904 0.1265 0.1638
H70 H 0.2345 0.0963 0.2263
C73 C 0.2109(3) 0.2065(2) 0.2230(2)
H71 H 0.1732 0.2089 0.2649
H72 H 0.1606 0.2196 0.1963
C74 C 0.2950(3) 0.2533(2) 0.21325(17)
H73 H 0.3092 0.2686 0.1712
H74 H 0.2741 0.2960 0.2393
C75 C 0.9090(4) 0.2213(3) 0.03649(19)
H75 H 0.8822 0.2169 0.0797
H76 H 0.9550 0.2585 0.0306
C76 C 0.9670(4) 0.1518(2) 0.01082(19)
H77 H 1.0051 0.1251 0.0395
H78 H 1.0163 0.1582 -0.0267
C77 C 0.8779(4) 0.1159(2) 0.0000(2)
H79 H 0.8438 0.0945 0.0370
H80 H 0.9020 0.0784 -0.0311
C78 C 0.8047(4) 0.1757(2) -0.02055(17)
H81 H 0.8186 0.1785 -0.0646
H82 H 0.7314 0.1685 -0.0066
C79 C 0.4724(3) 0.3821(2) 0.49391(17)
H83 H 0.5007 0.3675 0.4519
H84 H 0.5218 0.4092 0.5079
C80 C 0.3672(4) 0.4266(2) 0.4993(2)
H85 H 0.3401 0.4246 0.4620
H86 H 0.3707 0.4768 0.5084
C81 C 0.2986(3) 0.3931(2) 0.5511(2)
H87 H 0.2574 0.4298 0.5797
H88 H 0.2508 0.3653 0.5364
C82 C 0.3770(3) 0.3460(2) 0.57884(19)
H89 H 0.4034 0.3728 0.6079
H90 H 0.3463 0.3056 0.5993
C83 C 0.5905(4) 0.2621(3) 0.6377(2)
H91 H 0.5211 0.2612 0.6632
H92 H 0.5915 0.3092 0.6187
C84 C 0.6751(6) 0.2475(3) 0.6743(3)
H93 H 0.7331 0.2743 0.6588
H94 H 0.6473 0.2609 0.7166
C85 C 0.7099(4) 0.1708(3) 0.6681(2)
H95 H 0.7857 0.1595 0.6668
H96 H 0.6726 0.1447 0.7012
C86 C 0.6841(4) 0.1545(3) 0.6126(3)
H97 H 0.7483 0.1476 0.5816
H98 H 0.6547 0.1093 0.6163
C87 C 0.3958(3) 0.1141(3) 0.61991(19)
H99 H 0.4461 0.1292 0.6423
H100 H 0.4193 0.0640 0.6071
C88 C 0.2904(3) 0.1220(2) 0.65740(18)
H101 H 0.2655 0.0752 0.6624
H102 H 0.2921 0.1405 0.6973
C89 C 0.2823(3) 0.1672(2) 0.56153(17)
H103 H 0.2683 0.1263 0.5398
H104 H 0.2639 0.2115 0.5401
C90 C 0.9109(4) 0.4558(2) -0.06096(19)
H105 H 0.8918 0.4863 -0.0247
C91 C 0.6387(4) 0.3940(2) -0.11389(18)
H106 H 0.6949 0.4233 -0.1149
H107 H 0.5709 0.4255 -0.1077
C92 C 0.6555(4) 0.3506(2) -0.17074(17)
H108 H 0.6186 0.3760 -0.2005
H109 H 0.7305 0.3393 -0.1884
C93 C 0.6106(7) 0.2851(3) -0.1500(2)
H110 H 0.5488 0.2816 -0.1676
H111 H 0.6626 0.2423 -0.1619
C94 C 0.5810(4) 0.2907(3) -0.08407(19)
H112 H 0.5055 0.3069 -0.0714
H113 H 0.5990 0.2444 -0.0654
B1 B 0.7122(3) 0.45285(17) 0.18282(14)
B2 B 0.7941(2) 0.16079(17) 0.36326(14)
C95 C 0.9431(6) 0.4586(4) -0.1291(3)
H114 H 0.8831 0.4779 -0.1475
H115 H 0.9991 0.4883 -0.1409
C96 C 0.9809(8) 0.3828(5) -0.1471(4)
H116 H 1.0565 0.3760 -0.1638
H117 H 0.9440 0.3682 -0.1776
C97 C 0.9574(19) 0.3379(15) -0.0887(10)
H118 H 0.9296 0.2941 -0.0965
H119 H 1.0203 0.3249 -0.0712
C98 C 0.2315(4) 0.1187(3) 0.6050(3)
H120 H 0.2412 0.0699 0.5884
H121 H 0.1562 0.1357 0.6176
C99? C 1.0067(8) 0.4386(5) -0.0754(5)
H122? H 1.0397 0.4409 -0.0402
H123? H 1.0363 0.4714 -0.1059
C100? C 1.0283(10) 0.3605(6) -0.1012(6)
H124? H 1.0697 0.3584 -0.1423
H125? H 1.0660 0.3277 -0.0758
C101? C 0.9282(19) 0.3432(15) -0.1005(11)
H126? H 0.9242 0.2921 -0.0929
H127? H 0.9018 0.3579 -0.1372
C102? C 0.2213(7) 0.1707(7) 0.6288(4)
H128? H 0.2117 0.2193 0.6457
H129? H 0.1525 0.1546 0.6322
H130? H 0.8813 0.4805 -0.0937
loop_
_geom_bond_atom_site_label_1
_geom_bond_atom_site_label_2
_geom_bond_site_symmetry_1
_geom_bond_site_symmetry_2
Na1 N3 1_555 1_555
Na2 O1 1_555 1_555
Na3 O3 1_555 1_555
Na4 O2 1_555 1_555
O1 C71 1_555 1_555
O2 C75 1_555 1_555
O3 C79 1_555 1_555
O4 Na3 1_555 1_555
O5 Na3 1_555 1_555
O6 Na4 1_555 1_555
O7 Na4 1_555 1_555
N1 N2 1_555 1_555
N2 Na4 1_555 1_555
N3 Na2 1_555 1_555
N4 Na1 1_555 1_555
N5 N6 1_555 1_555
N6 Na3 1_555 1_555
N7 Na1 1_555 1_555
N8 Na1 1_555 1_555
C1 N1 1_555 1_555
C2 Na4 1_555 1_555
H1 C2 1_555 1_555
C3 C2 1_555 1_555
H2 C3 1_555 1_555
C4 C3 1_555 1_555
H3 C4 1_555 1_555
C5 C4 1_555 1_555
H4 C5 1_555 1_555
C6 C1 1_555 1_555
H5 C6 1_555 1_555
C7 N2 1_555 1_555
C8 Na2 1_555 1_555
C9 C8 1_555 1_555
H6 C9 1_555 1_555
C10 C9 1_555 1_555
H7 C10 1_555 1_555
C11 C10 1_555 1_555
C12 C11 1_555 1_555
H8 C12 1_555 1_555
C13 Na2 1_555 1_555
H9 C13 1_555 1_555
C14 C11 1_555 1_555
H10 C14 1_555 1_555
H11 C14 1_555 1_555
H12 C14 1_555 1_555
C15 N4 1_555 1_555
C16 C15 1_555 1_555
C17 C16 1_555 1_555
H13 C17 1_555 1_555
C18 C17 1_555 1_555
C19 C18 1_555 1_555
H14 C19 1_555 1_555
C20 C15 1_555 1_555
C21 C16 1_555 1_555
H15 C21 1_555 1_555
H16 C21 1_555 1_555
H17 C21 1_555 1_555
C22 C18 1_555 1_555
H18 C22 1_555 1_555
H19 C22 1_555 1_555
H20 C22 1_555 1_555
C23 C20 1_555 1_555
H21 C23 1_555 1_555
H22 C23 1_555 1_555
H23 C23 1_555 1_555
C24 C25 1_555 1_555
C25 H24 1_555 1_555
C26 C25 1_555 1_555
H25 C26 1_555 1_555
C27 C26 1_555 1_555
H26 C27 1_555 1_555
C28 C27 1_555 1_555
H27 C28 1_555 1_555
C29 Na1 1_555 1_555
H28 C29 1_555 1_555
C30 C31 1_555 1_555
C31 H29 1_555 1_555
C32 C31 1_555 1_555
H30 C32 1_555 1_555
C33 C32 1_555 1_555
H31 C33 1_555 1_555
C34 C33 1_555 1_555
H32 C34 1_555 1_555
C35 C30 1_555 1_555
H33 C35 1_555 1_555
C36 N5 1_555 1_555
C37 Na3 1_555 1_555
H34 C37 1_555 1_555
C38 C37 1_555 1_555
H35 C38 1_555 1_555
C39 C38 1_555 1_555
H36 C39 1_555 1_555
C40 C39 1_555 1_555
H37 C40 1_555 1_555
C41 C36 1_555 1_555
H38 C41 1_555 1_555
C42 N6 1_555 1_555
C43 Na2 1_555 1_555
C44 C43 1_555 1_555
H39 C44 1_555 1_555
C45 C44 1_555 1_555
H40 C45 1_555 1_555
C46 C45 1_555 1_555
C47 C46 1_555 1_555
H41 C47 1_555 1_555
C48 Na2 1_555 1_555
H42 C48 1_555 1_555
C49 C46 1_555 1_555
H43 C49 1_555 1_555
H44 C49 1_555 1_555
H45 C49 1_555 1_555
C50 N8 1_555 1_555
C51 C50 1_555 1_555
C52 C51 1_555 1_555
H46 C52 1_555 1_555
C53 C52 1_555 1_555
C54 C53 1_555 1_555
H47 C54 1_555 1_555
C55 C50 1_555 1_555
C56 C51 1_555 1_555
H48 C56 1_555 1_555
H49 C56 1_555 1_555
H50 C56 1_555 1_555
C57 C53 1_555 1_555
H51 C57 1_555 1_555
H52 C57 1_555 1_555
H53 C57 1_555 1_555
C58 C55 1_555 1_555
H54 C58 1_555 1_555
H55 C58 1_555 1_555
H56 C58 1_555 1_555
C59 C60 1_555 1_555
C60 H57 1_555 1_555
C61 C60 1_555 1_555
H58 C61 1_555 1_555
C62 C61 1_555 1_555
H59 C62 1_555 1_555
C63 C62 1_555 1_555
H60 C63 1_555 1_555
C64 Na1 1_555 1_555
H61 C64 1_555 1_555
C65 C66 1_555 1_555
C66 H62 1_555 1_555
C67 C66 1_555 1_555
H63 C67 1_555 1_555
C68 C67 1_555 1_555
H64 C68 1_555 1_555
C69 C68 1_555 1_555
H65 C69 1_555 1_555
C70 C65 1_555 1_555
H66 C70 1_555 1_555
C71 H67 1_555 1_555
H68 C71 1_555 1_555
C72 C71 1_555 1_555
H69 C72 1_555 1_555
H70 C72 1_555 1_555
C73 C72 1_555 1_555
H71 C73 1_555 1_555
H72 C73 1_555 1_555
C74 O1 1_555 1_555
H73 C74 1_555 1_555
H74 C74 1_555 1_555
C75 H75 1_555 1_555
H76 C75 1_555 1_555
C76 C75 1_555 1_555
H77 C76 1_555 1_555
H78 C76 1_555 1_555
C77 C76 1_555 1_555
H79 C77 1_555 1_555
H80 C77 1_555 1_555
C78 O2 1_555 1_555
H81 C78 1_555 1_555
H82 C78 1_555 1_555
C79 H83 1_555 1_555
H84 C79 1_555 1_555
C80 C79 1_555 1_555
H85 C80 1_555 1_555
H86 C80 1_555 1_555
C81 C80 1_555 1_555
H87 C81 1_555 1_555
H88 C81 1_555 1_555
C82 O3 1_555 1_555
H89 C82 1_555 1_555
H90 C82 1_555 1_555
C83 O4 1_555 1_555
H91 C83 1_555 1_555
H92 C83 1_555 1_555
C84 C83 1_555 1_555
H93 C84 1_555 1_555
H94 C84 1_555 1_555
C85 C84 1_555 1_555
H95 C85 1_555 1_555
H96 C85 1_555 1_555
C86 O4 1_555 1_555
H97 C86 1_555 1_555
H98 C86 1_555 1_555
C87 O5 1_555 1_555
H99 C87 1_555 1_555
H100 C87 1_555 1_555
C88 C87 1_555 1_555
H101 C88 1_555 1_555
H102 C88 1_555 1_555
C89 O5 1_555 1_555
H103 C89 1_555 1_555
H104 C89 1_555 1_555
C90 O7 1_555 1_555
H105 C90 1_555 1_555
C91 O6 1_555 1_555
H106 C91 1_555 1_555
H107 C91 1_555 1_555
C92 C91 1_555 1_555
H108 C92 1_555 1_555
H109 C92 1_555 1_555
C93 C92 1_555 1_555
H110 C93 1_555 1_555
H111 C93 1_555 1_555
C94 O6 1_555 1_555
H112 C94 1_555 1_555
H113 C94 1_555 1_555
B1 N1 1_555 1_555
B2 N5 1_555 1_555
C95 C90 1_555 1_555
H114 C95 1_555 1_555
H115 C95 1_555 1_555
C96 C95 1_555 1_555
H116 C96 1_555 1_555
H117 C96 1_555 1_555
C97 O7 1_555 1_555
H118 C97 1_555 1_555
H119 C97 1_555 1_555
C98 C88 1_555 1_555
H120 C98 1_555 1_555
H121 C98 1_555 1_555
Na2 N7 1_555 1_555
N3 N4 1_555 1_555
N3 C7 1_555 1_555
N4 B1 1_555 1_555
N7 N8 1_555 1_555
N7 C42 1_555 1_555
N8 B2 1_555 1_555
C1 C2 1_555 1_555
C5 C6 1_555 1_555
C7 C8 1_555 1_555
C8 C13 1_555 1_555
C12 C13 1_555 1_555
C19 C20 1_555 1_555
C24 C29 1_555 1_555
C24 B1 1_555 1_555
C28 C29 1_555 1_555
C30 B1 1_555 1_555
C34 C35 1_555 1_555
C36 C37 1_555 1_555
C40 C41 1_555 1_555
C42 C43 1_555 1_555
C43 C48 1_555 1_555
C47 C48 1_555 1_555
C54 C55 1_555 1_555
C59 C64 1_555 1_555
C59 B2 1_555 1_555
C63 C64 1_555 1_555
C65 B2 1_555 1_555
C69 C70 1_555 1_555
C73 C74 1_555 1_555
C77 C78 1_555 1_555
C81 C82 1_555 1_555
C85 C86 1_555 1_555
C89 C98 1_555 1_555
C93 C94 1_555 1_555
C96 C97 1_555 1_555

#END
