
#######################################################################
#
#                 Cambridge Crystallographic Data Centre
#                                CCDC 
#
#######################################################################
#
# If this CIF has been generated from an entry in the Cambridge 
# Structural Database, then it will include bibliographic, chemical, 
# crystal, experimental, refinement or atomic coordinate data resulting 
# from the CCDC's data processing and validation procedures.
#
#######################################################################

data_OBUFIC
_chemical_formula_moiety         'C15 H9 Cl1 N2 O2'
_chemical_name_systematic        
2-((2-Chlorobenzylidene)amino)-1H-isoindole-1,3(2H)-dione
_symmetry_cell_setting           monoclinic
_symmetry_space_group_name_H-M   'P 21/c'
_symmetry_Int_Tables_number      14
_space_group_name_Hall           '-P 2ybc'
loop_
_symmetry_equiv_pos_site_id
_symmetry_equiv_pos_as_xyz
1 x,y,z
2 -x,1/2+y,1/2-z
3 -x,-y,-z
4 x,1/2-y,1/2+z
_cell_length_a                   12.991(8)
_cell_length_b                   4.808(3)
_cell_length_c                   23.757(11)
_cell_angle_alpha                90
_cell_angle_beta                 120.60(2)
_cell_angle_gamma                90
_cell_volume                     1277.24
_exptl_crystal_colour            yellow
_exptl_crystal_description       prism
_cell_formula_units_Z            4
loop_
_atom_site_label
_atom_site_type_symbol
_atom_site_fract_x
_atom_site_fract_y
_atom_site_fract_z
Cl1 Cl 0.46943(4) 0.33401(14) 0.57225(3)
O1 O 0.37871(11) 0.9151(3) 0.67721(7)
O2 O 0.04114(11) 0.5317(3) 0.66062(6)
N1 N 0.18301(12) 0.4921(3) 0.60576(7)
N2 N 0.20315(12) 0.6854(3) 0.65344(7)
C1 C 0.23630(16) 0.2700(4) 0.53596(8)
C2 C 0.32867(16) 0.1841(4) 0.52658(8)
C3 C 0.3118(2) -0.0195(4) 0.48207(10)
C4 C 0.2015(2) -0.1385(4) 0.44524(10)
C5 C 0.1073(2) -0.0545(4) 0.45248(9)
C6 C 0.12498(17) 0.1482(4) 0.49709(9)
C7 C 0.25579(16) 0.4778(4) 0.58538(9)
C8 C 0.29761(14) 0.8758(4) 0.68703(8)
C9 C 0.27449(14) 1.0096(3) 0.73570(8)
C10 C 0.17280(14) 0.8941(3) 0.73080(8)
C11 C 0.12550(15) 0.6817(4) 0.67897(8)
C12 C 0.13187(16) 0.9757(4) 0.77164(8)
C13 C 0.19584(17) 1.1782(4) 0.81725(9)
C14 C 0.29695(17) 1.2934(4) 0.82189(9)
C15 C 0.33895(16) 1.2110(4) 0.78112(9)
H1 H 0.37510 -0.07610 0.47700
H2 H 0.18990 -0.27670 0.41520
H3 H 0.03230 -0.13510 0.42720
H4 H 0.06100 0.20540 0.50140
H5 H 0.32090 0.59790 0.60160
H6 H 0.06370 0.89710 0.76850
H7 H 0.17040 1.23800 0.84540
H8 H 0.33820 1.43010 0.85310
H9 H 0.40740 1.28860 0.78440
loop_
_geom_bond_atom_site_label_1
_geom_bond_atom_site_label_2
_geom_bond_site_symmetry_1
_geom_bond_site_symmetry_2
Cl1 C2 1_555 1_555
O1 C8 1_555 1_555
O2 C11 1_555 1_555
N1 N2 1_555 1_555
N2 C8 1_555 1_555
C1 C2 1_555 1_555
C2 C3 1_555 1_555
C3 C4 1_555 1_555
C4 C5 1_555 1_555
C5 C6 1_555 1_555
C6 C1 1_555 1_555
C7 N1 1_555 1_555
C8 C9 1_555 1_555
C9 C10 1_555 1_555
C10 C11 1_555 1_555
C11 N2 1_555 1_555
C12 C10 1_555 1_555
C13 C12 1_555 1_555
C14 C13 1_555 1_555
C15 C9 1_555 1_555
H1 C3 1_555 1_555
H2 C4 1_555 1_555
H3 C5 1_555 1_555
H4 C6 1_555 1_555
H5 C7 1_555 1_555
H6 C12 1_555 1_555
H7 C13 1_555 1_555
H8 C14 1_555 1_555
H9 C15 1_555 1_555
C1 C7 1_555 1_555
C14 C15 1_555 1_555

#END
