
#######################################################################
#
#                 Cambridge Crystallographic Data Centre
#                                CCDC 
#
#######################################################################
#
# If this CIF has been generated from an entry in the Cambridge 
# Structural Database, then it will include bibliographic, chemical, 
# crystal, experimental, refinement or atomic coordinate data resulting 
# from the CCDC's data processing and validation procedures.
#
#######################################################################

data_OBUGOK
_chemical_formula_moiety         'C44 H46 B2 F4 N2 O2 S2,2(C1 H1 Cl3)'
_chemical_name_systematic        
"1,3,12,14-tetra-t-butyl-10,10,21,21-tetrafluoro-10,21-dihydro-9\l^5^,20\l^5^,10\l^5^,21\l^5^-[1,3,2]benzoxazaborinino[3'',4'':1',6']thieno[3'',2'':4',5']pyrido[2',3':6,7]thieno[2',3':3,4]quinolino[1,2-c][1,3,2]benzoxazaborinine chloroform solvate"
_symmetry_cell_setting           triclinic
_symmetry_space_group_name_H-M   'P -1'
_symmetry_Int_Tables_number      2
_space_group_name_Hall           '-P 1'
loop_
_symmetry_equiv_pos_site_id
_symmetry_equiv_pos_as_xyz
1 x,y,z
2 -x,-y,-z
_cell_length_a                   9.9659(15)
_cell_length_b                   14.770(2)
_cell_length_c                   17.263(3)
_cell_angle_alpha                88.469(4)
_cell_angle_beta                 75.586(4)
_cell_angle_gamma                89.008(4)
_cell_volume                     2460.04
_exptl_crystal_colour            orange
_exptl_crystal_description       octahedron
_cell_formula_units_Z            2
loop_
_atom_site_label
_atom_site_type_symbol
_atom_site_fract_x
_atom_site_fract_y
_atom_site_fract_z
S1 S 0.2161(3) 0.76505(18) 0.88013(17)
C1 C 0.1152(10) 0.8592(7) 0.9033(6)
H1 H 0.0247 0.8636 0.8948
C2 C 0.1710(9) 0.9266(7) 0.9344(6)
H2 H 0.1261 0.9827 0.9508
C3 C 0.3081(10) 0.9022(6) 0.9392(5)
C4 C 0.4043(10) 0.9533(6) 0.9705(5)
C5 C 0.6328(10) 0.9653(6) 0.9916(6)
H3 H 0.7236 0.9414 0.9867
C6 C 0.5401(10) 0.9184(6) 0.9611(6)
N1 N 0.5783(7) 0.8351(5) 0.9239(4)
C7 C 0.4852(10) 0.7809(6) 0.9059(5)
C8 C 0.3482(9) 0.8146(6) 0.9133(5)
O1 O 0.7577(6) 0.7440(4) 0.8310(4)
B1 B 0.7407(12) 0.8092(8) 0.8918(8)
F1 F 0.8096(5) 0.8867(3) 0.8580(3)
F2 F 0.7878(5) 0.7791(3) 0.9572(3)
C9 C 0.5285(10) 0.6897(6) 0.8802(5)
C10 C 0.6706(10) 0.6730(7) 0.8419(6)
C11 C 0.7167(10) 0.5864(6) 0.8145(5)
C12 C 0.6184(11) 0.5190(7) 0.8285(6)
H4 H 0.6476 0.4605 0.8090
C13 C 0.4794(11) 0.5303(7) 0.8691(6)
C14 C 0.4378(10) 0.6169(6) 0.8928(5)
H5 H 0.3432 0.6274 0.9188
C15 C 0.8698(11) 0.5687(7) 0.7707(6)
C16 C 0.9003(11) 0.4699(6) 0.7498(7)
H6 H 0.8760 0.4321 0.7987
H7 H 0.8454 0.4517 0.7131
H8 H 0.9990 0.4622 0.7241
C17 C 0.9082(11) 0.6247(7) 0.6943(6)
H9 H 0.8894 0.6888 0.7064
H10 H 1.0069 0.6160 0.6690
H11 H 0.8533 0.6056 0.6579
C18 C 0.9631(10) 0.5941(7) 0.8247(7)
H12 H 0.9384 0.5578 0.8745
H13 H 1.0600 0.5821 0.7972
H14 H 0.9505 0.6585 0.8370
C19 C 0.3818(12) 0.4512(7) 0.8830(6)
C20 C 0.2499(12) 0.4681(8) 0.9463(8)
H15 H 0.1909 0.4146 0.9526
H16 H 0.2722 0.4801 0.9972
H17 H 0.2007 0.5205 0.9302
C21 C 0.3442(13) 0.4314(8) 0.8044(7)
H18 H 0.4291 0.4202 0.7626
H19 H 0.2854 0.3778 0.8118
H20 H 0.2941 0.4835 0.7885
C22 C 0.4472(14) 0.3655(8) 0.9075(8)
H21 H 0.5336 0.3524 0.8675
H22 H 0.4671 0.3736 0.9596
H23 H 0.3832 0.3150 0.9111
S1A S 0.7839(3) 1.23495(18) 1.11987(17)
C1A C 0.8848(10) 1.1408(7) 1.0967(6)
H1A H 0.9753 1.1364 1.1052
C2A C 0.8290(9) 1.0734(7) 1.0656(6)
H2A H 0.8739 1.0173 1.0492
C3A C 0.6919(10) 1.0978(6) 1.0608(5)
C4A C 0.5957(10) 1.0467(6) 1.0295(5)
C5A C 0.3672(10) 1.0347(6) 1.0084(6)
H3A H 0.2764 1.0586 1.0133
C6A C 0.4599(10) 1.0816(6) 1.0389(6)
N1A N 0.4217(7) 1.1649(5) 1.0761(4)
C7A C 0.5148(10) 1.2191(6) 1.0941(5)
C8A C 0.6518(9) 1.1854(6) 1.0867(5)
O1A O 0.2423(6) 1.2560(4) 1.1690(4)
B1A B 0.2593(12) 1.1908(8) 1.1082(8)
F1A F 0.1904(5) 1.1133(3) 1.1420(3)
F2A F 0.2122(5) 1.2209(3) 1.0428(3)
C9A C 0.4715(10) 1.3103(6) 1.1198(5)
C10A C 0.3294(10) 1.3270(7) 1.1581(6)
C11A C 0.2833(10) 1.4136(6) 1.1855(5)
C12A C 0.3816(11) 1.4810(7) 1.1715(6)
H4A H 0.3524 1.5395 1.1910
C13A C 0.5206(11) 1.4697(7) 1.1309(6)
C14A C 0.5622(10) 1.3831(6) 1.1072(5)
H5A H 0.6568 1.3726 1.0812
C15A C 0.1302(11) 1.4313(7) 1.2293(6)
C16A C 0.0997(11) 1.5301(6) 1.2502(7)
H6A H 0.1240 1.5679 1.2013
H7A H 0.1546 1.5483 1.2869
H8A H 0.0010 1.5378 1.2759
C17A C 0.0918(11) 1.3753(7) 1.3057(6)
H9A H 0.1106 1.3112 1.2936
H10A H -0.0069 1.3840 1.3310
H11A H 0.1467 1.3944 1.3421
C18A C 0.0369(10) 1.4059(7) 1.1753(7)
H12A H 0.0616 1.4422 1.1255
H13A H -0.0600 1.4179 1.2028
H14A H 0.0495 1.3415 1.1630
C19A C 0.6182(12) 1.5488(7) 1.1170(6)
C20A C 0.7501(12) 1.5319(8) 1.0537(8)
H15A H 0.8091 1.5854 1.0474
H16A H 0.7278 1.5199 1.0028
H17A H 0.7993 1.4795 1.0698
C21A C 0.6558(13) 1.5686(8) 1.1956(7)
H18A H 0.5709 1.5798 1.2374
H19A H 0.7146 1.6222 1.1882
H20A H 0.7059 1.5165 1.2115
C22A C 0.5528(14) 1.6345(8) 1.0925(8)
H21A H 0.4664 1.6476 1.1325
H22A H 0.5329 1.6264 1.0404
H23A H 0.6168 1.6850 1.0889
C23 C 0.9515(12) 1.1996(8) 0.8459(9)
H24 H 0.9852 1.2197 0.7886
Cl1 Cl 1.0831(7) 1.2168(5) 0.8943(4)
Cl2 Cl 0.9151(5) 1.0840(3) 0.8489(3)
Cl3 Cl 0.8029(6) 1.2594(3) 0.8877(3)
S2 S 1.2304(3) 0.24067(18) 0.64227(17)
C25 C 1.3395(10) 0.3299(6) 0.6260(6)
H26 H 1.4242 0.3293 0.6418
C26 C 1.2970(10) 0.4000(7) 0.5895(6)
H27 H 1.3483 0.4543 0.5764
C27 C 1.1665(10) 0.3867(6) 0.5714(5)
C28 C 1.0853(10) 0.4458(7) 0.5346(6)
C29 C 0.8681(10) 0.4724(6) 0.4993(5)
H28 H 0.7783 0.4535 0.4975
C30 C 0.9470(9) 0.4160(6) 0.5363(6)
N2 N 0.8985(7) 0.3322(5) 0.5712(4)
C31 C 0.9820(10) 0.2714(6) 0.5960(5)
C32 C 1.1156(10) 0.3010(6) 0.5987(6)
O2 O 0.7034(6) 0.2400(4) 0.6488(4)
B2 B 0.7334(12) 0.3091(8) 0.5897(8)
F3 F 0.6619(5) 0.3865(3) 0.6189(3)
F4 F 0.7067(5) 0.2874(4) 0.5174(3)
C33 C 0.9333(10) 0.1805(6) 0.6192(5)
C34 C 0.7871(10) 0.1675(7) 0.6487(6)
C35 C 0.7371(10) 0.0820(6) 0.6774(6)
C36 C 0.8328(10) 0.0117(6) 0.6701(5)
H29 H 0.8001 -0.0462 0.6912
C37 C 0.9779(10) 0.0201(6) 0.6330(5)
C38 C 1.0217(10) 0.1056(6) 0.6107(5)
H30 H 1.1178 0.1148 0.5881
C39 C 0.5812(10) 0.0670(7) 0.7140(6)
C40 C 0.5537(10) -0.0311(6) 0.7455(6)
H31 H 0.5878 -0.0730 0.7016
H32 H 0.6018 -0.0435 0.7878
H33 H 0.4539 -0.0394 0.7671
C41 C 0.5270(11) 0.1297(7) 0.7836(7)
H34 H 0.5433 0.1928 0.7651
H35 H 0.4273 0.1204 0.8050
H36 H 0.5753 0.1163 0.8257
C42 C 0.5048(10) 0.0840(7) 0.6468(7)
H37 H 0.5418 0.0428 0.6028
H38 H 0.4055 0.0733 0.6681
H39 H 0.5187 0.1468 0.6269
C43 C 1.0722(10) -0.0611(6) 0.6254(6)
C44 C 1.2020(10) -0.0483(7) 0.5571(6)
H40 H 1.2613 -0.1024 0.5537
H41 H 1.1751 -0.0388 0.5066
H42 H 1.2528 0.0045 0.5672
C45 C 1.1166(12) -0.0787(8) 0.7025(6)
H43 H 1.1781 -0.1319 0.6965
H44 H 1.1657 -0.0259 0.7141
H45 H 1.0346 -0.0897 0.7465
C46 C 1.0021(11) -0.1466(7) 0.6066(7)
H46 H 1.0668 -0.1981 0.6021
H47 H 0.9193 -0.1591 0.6497
H48 H 0.9754 -0.1373 0.5560
S2A S 0.7696(3) 0.75933(18) 0.35773(17)
C25A C 0.6605(10) 0.6701(6) 0.3740(6)
H26A H 0.5758 0.6707 0.3582
C26A C 0.7030(10) 0.6000(7) 0.4105(6)
H27A H 0.6517 0.5457 0.4236
C27A C 0.8335(10) 0.6133(6) 0.4286(5)
C28A C 0.9147(10) 0.5542(7) 0.4654(6)
C29A C 1.1319(10) 0.5276(6) 0.5007(5)
H28A H 1.2217 0.5465 0.5025
C30A C 1.0530(9) 0.5840(6) 0.4637(6)
N2A N 1.1015(7) 0.6678(5) 0.4288(4)
C31A C 1.0180(10) 0.7286(6) 0.4040(5)
C32A C 0.8844(10) 0.6990(6) 0.4013(6)
O2A O 1.2966(6) 0.7600(4) 0.3512(4)
B2A B 1.2666(12) 0.6909(8) 0.4103(8)
F3A F 1.3381(5) 0.6135(3) 0.3811(3)
F4A F 1.2933(5) 0.7126(4) 0.4826(3)
C33A C 1.0667(10) 0.8195(6) 0.3808(5)
C34A C 1.2129(10) 0.8325(7) 0.3513(6)
C35A C 1.2629(10) 0.9180(6) 0.3226(6)
C36A C 1.1672(10) 0.9883(6) 0.3299(5)
H29A H 1.1999 1.0462 0.3088
C37A C 1.0221(10) 0.9799(6) 0.3670(5)
C38A C 0.9783(10) 0.8944(6) 0.3893(5)
H30A H 0.8822 0.8852 0.4119
C39A C 1.4188(10) 0.9330(7) 0.2860(6)
C40A C 1.4463(10) 1.0311(6) 0.2545(6)
H31A H 1.4122 1.0730 0.2984
H32A H 1.3982 1.0435 0.2122
H33A H 1.5461 1.0394 0.2329
C41A C 1.4730(11) 0.8703(7) 0.2164(7)
H34A H 1.4567 0.8072 0.2349
H35A H 1.5727 0.8796 0.1950
H36A H 1.4247 0.8837 0.1743
C42A C 1.4952(10) 0.9160(7) 0.3532(7)
H37A H 1.4582 0.9572 0.3972
H38A H 1.5945 0.9267 0.3319
H39A H 1.4813 0.8532 0.3731
C43A C 0.9278(10) 1.0611(6) 0.3746(6)
C44A C 0.7980(10) 1.0483(7) 0.4429(6)
H40A H 0.7387 1.1024 0.4463
H41A H 0.8249 1.0388 0.4934
H42A H 0.7472 0.9955 0.4328
C45A C 0.8834(12) 1.0787(8) 0.2975(6)
H43A H 0.8219 1.1319 0.3035
H44A H 0.8343 1.0259 0.2859
H45A H 0.9654 1.0897 0.2535
C46A C 0.9979(11) 1.1466(7) 0.3934(7)
H46A H 0.9332 1.1981 0.3979
H47A H 1.0807 1.1591 0.3503
H48A H 1.0246 1.1373 0.4440
C47 C 0.5020(13) 0.6917(8) 0.6020(8)
H49 H 0.4596 0.6914 0.5553
Cl7 Cl 0.3789(7) 0.7257(4) 0.6861(3)
Cl8 Cl 0.6423(7) 0.7663(3) 0.5816(3)
Cl9 Cl 0.5598(13) 0.5826(7) 0.6198(9)
C24? C 0.999(4) 1.222(3) 0.835(3)
H25? H 1.0183 1.2558 0.7830
Cl4? Cl 0.886(4) 1.134(3) 0.834(3)
Cl5? Cl 0.925(5) 1.295(2) 0.912(2)
Cl6? Cl 1.152(3) 1.174(3) 0.850(3)
C48? C 0.462(2) 0.6729(15) 0.603(2)
H50? H 0.4510 0.6753 0.5472
Cl10? Cl 0.2982(18) 0.6681(13) 0.6678(10)
Cl11? Cl 0.546(3) 0.7699(15) 0.6180(18)
Cl12? Cl 0.555(2) 0.5753(14) 0.6152(15)
loop_
_geom_bond_atom_site_label_1
_geom_bond_atom_site_label_2
_geom_bond_site_symmetry_1
_geom_bond_site_symmetry_2
S1 C1 1_555 1_555
C1 H1 1_555 1_555
C2 C1 1_555 1_555
H2 C2 1_555 1_555
C3 C2 1_555 1_555
C4 C3 1_555 1_555
C5 H3 1_555 1_555
C6 C4 1_555 1_555
N1 C6 1_555 1_555
C7 N1 1_555 1_555
C8 S1 1_555 1_555
O1 B1 1_555 1_555
B1 N1 1_555 1_555
F1 B1 1_555 1_555
F2 B1 1_555 1_555
C9 C7 1_555 1_555
C10 O1 1_555 1_555
C11 C10 1_555 1_555
C12 C11 1_555 1_555
H4 C12 1_555 1_555
C13 C12 1_555 1_555
C14 C9 1_555 1_555
H5 C14 1_555 1_555
C15 C11 1_555 1_555
C16 C15 1_555 1_555
H6 C16 1_555 1_555
H7 C16 1_555 1_555
H8 C16 1_555 1_555
C17 C15 1_555 1_555
H9 C17 1_555 1_555
H10 C17 1_555 1_555
H11 C17 1_555 1_555
C18 C15 1_555 1_555
H12 C18 1_555 1_555
H13 C18 1_555 1_555
H14 C18 1_555 1_555
C19 C13 1_555 1_555
C20 C19 1_555 1_555
H15 C20 1_555 1_555
H16 C20 1_555 1_555
H17 C20 1_555 1_555
C21 C19 1_555 1_555
H18 C21 1_555 1_555
H19 C21 1_555 1_555
H20 C21 1_555 1_555
C22 C19 1_555 1_555
H21 C22 1_555 1_555
H22 C22 1_555 1_555
H23 C22 1_555 1_555
C23 H24 1_555 1_555
Cl1 C23 1_555 1_555
Cl2 C23 1_555 1_555
Cl3 C23 1_555 1_555
S2 C25 1_555 1_555
C25 H26 1_555 1_555
C26 C25 1_555 1_555
H27 C26 1_555 1_555
C27 C26 1_555 1_555
C28 C27 1_555 1_555
C29 H28 1_555 1_555
C30 C28 1_555 1_555
N2 C30 1_555 1_555
C31 N2 1_555 1_555
C32 S2 1_555 1_555
O2 B2 1_555 1_555
B2 N2 1_555 1_555
F3 B2 1_555 1_555
F4 B2 1_555 1_555
C33 C31 1_555 1_555
C34 O2 1_555 1_555
C35 C34 1_555 1_555
C36 C35 1_555 1_555
H29 C36 1_555 1_555
C37 C36 1_555 1_555
C38 C33 1_555 1_555
H30 C38 1_555 1_555
C39 C35 1_555 1_555
C40 C39 1_555 1_555
H31 C40 1_555 1_555
H32 C40 1_555 1_555
H33 C40 1_555 1_555
C41 C39 1_555 1_555
H34 C41 1_555 1_555
H35 C41 1_555 1_555
H36 C41 1_555 1_555
C42 C39 1_555 1_555
H37 C42 1_555 1_555
H38 C42 1_555 1_555
H39 C42 1_555 1_555
C43 C37 1_555 1_555
C44 C43 1_555 1_555
H40 C44 1_555 1_555
H41 C44 1_555 1_555
H42 C44 1_555 1_555
C45 C43 1_555 1_555
H43 C45 1_555 1_555
H44 C45 1_555 1_555
H45 C45 1_555 1_555
C46 C43 1_555 1_555
H46 C46 1_555 1_555
H47 C46 1_555 1_555
H48 C46 1_555 1_555
C47 H49 1_555 1_555
Cl7 C47 1_555 1_555
Cl8 C47 1_555 1_555
Cl9 C47 1_555 1_555
S1A C1A 1_555 1_555
C1A H1A 1_555 1_555
C2A C1A 1_555 1_555
H2A C2A 1_555 1_555
C3A C2A 1_555 1_555
C4A C5 1_555 1_555
C5A C4 1_555 1_555
H3A C5A 1_555 1_555
C6A C4A 1_555 1_555
N1A C6A 1_555 1_555
C7A N1A 1_555 1_555
C8A S1A 1_555 1_555
O1A B1A 1_555 1_555
B1A N1A 1_555 1_555
F1A B1A 1_555 1_555
F2A B1A 1_555 1_555
C9A C7A 1_555 1_555
C10A O1A 1_555 1_555
C11A C10A 1_555 1_555
C12A C11A 1_555 1_555
H4A C12A 1_555 1_555
C13A C12A 1_555 1_555
C14A C9A 1_555 1_555
H5A C14A 1_555 1_555
C15A C11A 1_555 1_555
C16A C15A 1_555 1_555
H6A C16A 1_555 1_555
H7A C16A 1_555 1_555
H8A C16A 1_555 1_555
C17A C15A 1_555 1_555
H9A C17A 1_555 1_555
H10A C17A 1_555 1_555
H11A C17A 1_555 1_555
C18A C15A 1_555 1_555
H12A C18A 1_555 1_555
H13A C18A 1_555 1_555
H14A C18A 1_555 1_555
C19A C13A 1_555 1_555
C20A C19A 1_555 1_555
H15A C20A 1_555 1_555
H16A C20A 1_555 1_555
H17A C20A 1_555 1_555
C21A C19A 1_555 1_555
H18A C21A 1_555 1_555
H19A C21A 1_555 1_555
H20A C21A 1_555 1_555
C22A C19A 1_555 1_555
H21A C22A 1_555 1_555
H22A C22A 1_555 1_555
H23A C22A 1_555 1_555
S2A C25A 1_555 1_555
C25A H26A 1_555 1_555
C26A C25A 1_555 1_555
H27A C26A 1_555 1_555
C27A C26A 1_555 1_555
C28A C29 1_555 1_555
C29A C28 1_555 1_555
H28A C29A 1_555 1_555
C30A C28A 1_555 1_555
N2A C30A 1_555 1_555
C31A N2A 1_555 1_555
C32A S2A 1_555 1_555
O2A B2A 1_555 1_555
B2A N2A 1_555 1_555
F3A B2A 1_555 1_555
F4A B2A 1_555 1_555
C33A C31A 1_555 1_555
C34A O2A 1_555 1_555
C35A C34A 1_555 1_555
C36A C35A 1_555 1_555
H29A C36A 1_555 1_555
C37A C36A 1_555 1_555
C38A C33A 1_555 1_555
H30A C38A 1_555 1_555
C39A C35A 1_555 1_555
C40A C39A 1_555 1_555
H31A C40A 1_555 1_555
H32A C40A 1_555 1_555
H33A C40A 1_555 1_555
C41A C39A 1_555 1_555
H34A C41A 1_555 1_555
H35A C41A 1_555 1_555
H36A C41A 1_555 1_555
C42A C39A 1_555 1_555
H37A C42A 1_555 1_555
H38A C42A 1_555 1_555
H39A C42A 1_555 1_555
C43A C37A 1_555 1_555
C44A C43A 1_555 1_555
H40A C44A 1_555 1_555
H41A C44A 1_555 1_555
H42A C44A 1_555 1_555
C45A C43A 1_555 1_555
H43A C45A 1_555 1_555
H44A C45A 1_555 1_555
H45A C45A 1_555 1_555
C46A C43A 1_555 1_555
H46A C46A 1_555 1_555
H47A C46A 1_555 1_555
H48A C46A 1_555 1_555
C3 C8 1_555 1_555
C5 C6 1_555 1_555
C7 C8 1_555 1_555
C9 C10 1_555 1_555
C13 C14 1_555 1_555
C27 C32 1_555 1_555
C29 C30 1_555 1_555
C31 C32 1_555 1_555
C33 C34 1_555 1_555
C37 C38 1_555 1_555
C3A C4A 1_555 1_555
C3A C8A 1_555 1_555
C5A C6A 1_555 1_555
C7A C8A 1_555 1_555
C9A C10A 1_555 1_555
C13A C14A 1_555 1_555
C27A C28A 1_555 1_555
C27A C32A 1_555 1_555
C29A C30A 1_555 1_555
C31A C32A 1_555 1_555
C33A C34A 1_555 1_555
C37A C38A 1_555 1_555

#END
