
#######################################################################
#
#                 Cambridge Crystallographic Data Centre
#                                CCDC 
#
#######################################################################
#
# If this CIF has been generated from an entry in the Cambridge 
# Structural Database, then it will include bibliographic, chemical, 
# crystal, experimental, refinement or atomic coordinate data resulting 
# from the CCDC's data processing and validation procedures.
#
#######################################################################

data_OBUWAK
_chemical_formula_moiety         'C46 H38 Si2'
_chemical_name_systematic        1,4-bis(2-(Pyrenyldimethylsilyl)vinyl)benzene
_symmetry_cell_setting           monoclinic
_symmetry_space_group_name_H-M   'P 21/n'
_symmetry_Int_Tables_number      14
_space_group_name_Hall           '-P 2yn'
loop_
_symmetry_equiv_pos_site_id
_symmetry_equiv_pos_as_xyz
1 x,y,z
2 1/2+x,1/2-y,1/2+z
3 -x,-y,-z
4 1/2-x,1/2+y,1/2-z
_cell_length_a                   8.9340(9)
_cell_length_b                   18.4841(18)
_cell_length_c                   10.5116(10)
_cell_angle_alpha                90
_cell_angle_beta                 92.124(2)
_cell_angle_gamma                90
_cell_volume                     1734.66
_exptl_crystal_colour            'pale yellow'
_exptl_crystal_description       brick
_chemical_melting_point          215deg.C
_cell_formula_units_Z            2
_exptl_crystal_recrystallization_method dichloromethane/hexane
loop_
_atom_site_label
_atom_site_type_symbol
_atom_site_fract_x
_atom_site_fract_y
_atom_site_fract_z
Si1 Si 0.60461(4) 0.238479(19) 0.99856(4)
C1 C 0.71324(15) 0.30084(7) 0.89423(13)
C2 C 0.64549(16) 0.32461(8) 0.77901(14)
C3 C 0.71045(18) 0.37607(8) 0.70272(13)
C4 C 0.84470(16) 0.40922(7) 0.74081(12)
C5 C 0.90763(19) 0.46831(8) 0.67043(15)
C6 C 1.02971(19) 0.50366(8) 0.71426(15)
C7 C 1.10620(16) 0.48313(7) 0.83157(14)
C8 C 1.22998(18) 0.52117(8) 0.88245(17)
C9 C 1.30025(18) 0.50055(9) 0.99582(18)
C10 C 1.25047(17) 0.44092(9) 1.06161(16)
C11 C 1.12576(15) 0.40141(7) 1.01555(13)
C12 C 1.06617(16) 0.34159(8) 1.08366(14)
C13 C 0.93744(15) 0.30885(7) 1.04434(13)
C14 C 0.85417(15) 0.33079(7) 0.93069(12)
C15 C 0.91852(15) 0.38661(7) 0.85615(12)
C16 C 1.05134(15) 0.42292(7) 0.90016(13)
C17 C 0.5670(2) 0.28249(9) 1.15408(16)
C18 C 0.41841(18) 0.21700(10) 0.92044(17)
C19 C 0.71020(16) 0.15294(7) 1.02850(14)
C20 C 0.82544(15) 0.13045(7) 0.96273(13)
C21 C 0.91328(14) 0.06358(7) 0.98299(12)
C22 C 1.01573(15) 0.04234(7) 0.89352(13)
C23 C 0.89973(15) 0.02030(7) 1.09067(13)
H1 H 0.547(2) 0.3060(9) 0.7515(16)
H2 H 0.6603(19) 0.3896(9) 0.6244(17)
H3 H 0.858(2) 0.4811(9) 0.5940(17)
H4 H 1.071(2) 0.5433(11) 0.6668(18)
H5 H 1.259(2) 0.5629(10) 0.8377(17)
H6 H 1.382(2) 0.5297(12) 1.033(2)
H7 H 1.297(2) 0.4282(10) 1.1437(18)
H8 H 1.1231(19) 0.3270(9) 1.1592(17)
H9 H 0.8991(19) 0.2698(10) 1.0927(17)
H10 H 0.507(2) 0.2522(11) 1.2065(19)
H11 H 0.655(2) 0.2950(12) 1.205(2)
H12 H 0.506(2) 0.3231(12) 1.139(2)
H13 H 0.365(2) 0.1867(11) 0.9724(19)
H14 H 0.427(2) 0.1906(11) 0.838(2)
H15 H 0.367(3) 0.2636(13) 0.905(2)
H16 H 0.682(2) 0.1241(11) 1.0959(19)
H17 H 0.8578(17) 0.1597(9) 0.8974(15)
H18 H 1.0281(18) 0.0715(9) 0.8238(16)
H19 H 0.8290(18) 0.0320(9) 1.1530(15)
C23B C 1.10027(15) -0.02030(7) 0.90933(13)
C21B C 1.08672(14) -0.06358(7) 1.01701(12)
C20B C 1.17456(15) -0.13045(7) 1.03727(13)
C19B C 1.28980(16) -0.15294(7) 0.97150(14)
Si1B Si 1.39539(4) -0.238479(19) 1.00144(4)
C1B C 1.28676(15) -0.30084(7) 1.10577(13)
C2B C 1.35451(16) -0.32461(8) 1.22099(14)
C3B C 1.28955(18) -0.37607(8) 1.29728(13)
C4B C 1.15530(16) -0.40922(7) 1.25919(12)
C5B C 1.09237(19) -0.46831(8) 1.32957(15)
C6B C 0.97029(19) -0.50366(8) 1.28574(15)
C7B C 0.89380(16) -0.48313(7) 1.16843(14)
C8B C 0.77002(18) -0.52117(8) 1.11755(17)
C9B C 0.69975(18) -0.50055(9) 1.00418(18)
C10B C 0.74953(17) -0.44092(9) 0.93839(16)
C11B C 0.87424(15) -0.40141(7) 0.98445(13)
C12B C 0.93383(16) -0.34159(8) 0.91634(14)
C13B C 1.06256(15) -0.30885(7) 0.95566(13)
C14B C 1.14583(15) -0.33079(7) 1.06931(12)
C15B C 1.08148(15) -0.38661(7) 1.14385(12)
C16B C 0.94866(15) -0.42292(7) 1.09984(13)
H9B H 1.1009(19) -0.2698(10) 0.9073(17)
H8B H 0.8769(19) -0.3270(9) 0.8408(17)
H7B H 0.703(2) -0.4282(10) 0.8563(18)
H6B H 0.618(2) -0.5297(12) 0.967(2)
H5B H 0.741(2) -0.5629(10) 1.1623(17)
H4B H 0.929(2) -0.5433(11) 1.3332(18)
H3B H 1.142(2) -0.4811(9) 1.4060(17)
H2B H 1.3397(19) -0.3896(9) 1.3756(17)
H1B H 1.453(2) -0.3060(9) 1.2485(16)
C17B C 1.4330(2) -0.28249(9) 0.84592(16)
H10B H 1.493(2) -0.2522(11) 0.7935(19)
H11B H 1.345(2) -0.2950(12) 0.795(2)
H12B H 1.494(2) -0.3231(12) 0.861(2)
C18B C 1.58159(18) -0.21700(10) 1.07956(17)
H13B H 1.635(2) -0.1867(11) 1.0276(19)
H14B H 1.573(2) -0.1906(11) 1.162(2)
H15B H 1.633(3) -0.2636(13) 1.095(2)
H16B H 1.318(2) -0.1241(11) 0.9041(19)
H17B H 1.1422(17) -0.1597(9) 1.1026(15)
C22B C 0.98427(15) -0.04234(7) 1.10648(13)
H18B H 0.9719(18) -0.0715(9) 1.1762(16)
H19B H 1.1710(18) -0.0320(9) 0.8470(15)
loop_
_geom_bond_atom_site_label_1
_geom_bond_atom_site_label_2
_geom_bond_site_symmetry_1
_geom_bond_site_symmetry_2
Si1 C1 1_555 1_555
C1 C2 1_555 1_555
C2 C3 1_555 1_555
C3 C4 1_555 1_555
C4 C5 1_555 1_555
C5 C6 1_555 1_555
C6 C7 1_555 1_555
C7 C8 1_555 1_555
C8 C9 1_555 1_555
C9 C10 1_555 1_555
C10 C11 1_555 1_555
C11 C12 1_555 1_555
C12 C13 1_555 1_555
C13 C14 1_555 1_555
C14 C1 1_555 1_555
C15 C4 1_555 1_555
C16 C7 1_555 1_555
C17 Si1 1_555 1_555
C18 Si1 1_555 1_555
C19 Si1 1_555 1_555
C20 C19 1_555 1_555
C21 C20 1_555 1_555
C22 C21 1_555 1_555
C23 C21 1_555 1_555
H1 C2 1_555 1_555
H2 C3 1_555 1_555
H3 C5 1_555 1_555
H4 C6 1_555 1_555
H5 C8 1_555 1_555
H6 C9 1_555 1_555
H7 C10 1_555 1_555
H8 C12 1_555 1_555
H9 C13 1_555 1_555
H10 C17 1_555 1_555
H11 C17 1_555 1_555
H12 C17 1_555 1_555
H13 C18 1_555 1_555
H14 C18 1_555 1_555
H15 C18 1_555 1_555
H16 C19 1_555 1_555
H17 C20 1_555 1_555
H18 C22 1_555 1_555
H19 C23 1_555 1_555
C23B C22 1_555 1_555
C21B C23B 1_555 1_555
C20B C21B 1_555 1_555
C19B C20B 1_555 1_555
Si1B C19B 1_555 1_555
C1B Si1B 1_555 1_555
C2B C1B 1_555 1_555
C3B C2B 1_555 1_555
C4B C3B 1_555 1_555
C5B C4B 1_555 1_555
C6B C5B 1_555 1_555
C7B C6B 1_555 1_555
C8B C7B 1_555 1_555
C9B C8B 1_555 1_555
C10B C9B 1_555 1_555
C11B C10B 1_555 1_555
C12B C11B 1_555 1_555
C13B C12B 1_555 1_555
C14B C1B 1_555 1_555
C15B C4B 1_555 1_555
C16B C7B 1_555 1_555
H9B C13B 1_555 1_555
H8B C12B 1_555 1_555
H7B C10B 1_555 1_555
H6B C9B 1_555 1_555
H5B C8B 1_555 1_555
H4B C6B 1_555 1_555
H3B C5B 1_555 1_555
H2B C3B 1_555 1_555
H1B C2B 1_555 1_555
C17B Si1B 1_555 1_555
H10B C17B 1_555 1_555
H11B C17B 1_555 1_555
H12B C17B 1_555 1_555
C18B Si1B 1_555 1_555
H13B C18B 1_555 1_555
H14B C18B 1_555 1_555
H15B C18B 1_555 1_555
H16B C19B 1_555 1_555
H17B C20B 1_555 1_555
C22B C23 1_555 1_555
H18B C22B 1_555 1_555
H19B C23B 1_555 1_555
C11 C16 1_555 1_555
C14 C15 1_555 1_555
C15 C16 1_555 1_555
C21B C22B 1_555 1_555
C11B C16B 1_555 1_555
C13B C14B 1_555 1_555
C14B C15B 1_555 1_555
C15B C16B 1_555 1_555

#END
