
#######################################################################
#
#                 Cambridge Crystallographic Data Centre
#                                CCDC 
#
#######################################################################
#
# If this CIF has been generated from an entry in the Cambridge 
# Structural Database, then it will include bibliographic, chemical, 
# crystal, experimental, refinement or atomic coordinate data resulting 
# from the CCDC's data processing and validation procedures.
#
#######################################################################

data_OCAGIJ
_chemical_formula_moiety         'C18 H18 N2 O1'
_chemical_name_systematic        
2-(3,5-Dimethylphenyl)-5-(4-ethylphenyl)-1,3,4-oxadiazole
_symmetry_cell_setting           orthorhombic
_symmetry_space_group_name_H-M   'P b c a'
_symmetry_Int_Tables_number      61
_space_group_name_Hall           '-P 2ac 2ab'
loop_
_symmetry_equiv_pos_site_id
_symmetry_equiv_pos_as_xyz
1 x,y,z
2 1/2+x,y,1/2-z
3 x,1/2-y,1/2+z
4 1/2-x,1/2+y,z
5 -x,-y,-z
6 1/2-x,-y,1/2+z
7 -x,1/2+y,1/2-z
8 1/2+x,1/2-y,-z
_cell_length_a                   8.534(4)
_cell_length_b                   16.122(6)
_cell_length_c                   22.481(9)
_cell_angle_alpha                90
_cell_angle_beta                 90
_cell_angle_gamma                90
_cell_volume                     3093.05
_exptl_crystal_colour            colorless
_exptl_crystal_description       prism
_cell_formula_units_Z            8
_exptl_crystal_recrystallization_method water/ethanol
loop_
_atom_site_label
_atom_site_type_symbol
_atom_site_fract_x
_atom_site_fract_y
_atom_site_fract_z
N1 N -0.0271(2) 1.02355(13) 0.35311(9)
N2 N -0.0136(2) 1.08918(12) 0.39419(10)
O1 O 0.13582(16) 0.98628(9) 0.42425(7)
C1 C 0.0622(3) 0.96476(14) 0.37233(10)
C2 C 0.0959(2) 0.88467(14) 0.34598(10)
C3 C 0.0294(3) 0.86280(16) 0.29216(12)
H1 H -0.0390 0.8991 0.2732
C4 C 0.0640(3) 0.78734(16) 0.26645(12)
H2 H 0.0183 0.7738 0.2302
C5 C 0.1644(3) 0.73141(15) 0.29288(12)
C6 C 0.2283(3) 0.75399(15) 0.34678(12)
H3 H 0.2960 0.7174 0.3659
C7 C 0.1951(3) 0.82894(15) 0.37322(11)
H4 H 0.2400 0.8421 0.4097
C8 C 0.2030(3) 0.64930(16) 0.26453(14)
H5 H 0.1638 0.6491 0.2240
H6 H 0.3160 0.6432 0.2628
C9 C 0.1355(4) 0.57690(16) 0.29707(14)
H7 H 0.1735 0.5767 0.3373
H8 H 0.1663 0.5265 0.2776
H9 H 0.0233 0.5810 0.2973
C10 C 0.0818(3) 1.06458(14) 0.43481(11)
C11 C 0.1393(2) 1.10926(14) 0.48670(10)
C12 C 0.0960(3) 1.19114(14) 0.49561(11)
H10 H 0.0289 1.2168 0.4687
C13 C 0.1512(3) 1.23512(15) 0.54399(12)
C14 C 0.2500(3) 1.19510(16) 0.58375(12)
H11 H 0.2876 1.2243 0.6164
C15 C 0.2944(3) 1.11310(16) 0.57642(12)
C16 C 0.2383(3) 1.07079(14) 0.52714(11)
H12 H 0.2675 1.0159 0.5211
C17 C 0.1054(3) 1.32468(16) 0.55368(15)
H13 H 0.1892 1.3601 0.5408
H14 H 0.0855 1.3339 0.5952
H15 H 0.0126 1.3369 0.5312
C18 C 0.3979(4) 1.06991(18) 0.62110(14)
H16 H 0.4471 1.1105 0.6462
H17 H 0.4769 1.0387 0.6006
H18 H 0.3357 1.0331 0.6450
loop_
_geom_bond_atom_site_label_1
_geom_bond_atom_site_label_2
_geom_bond_site_symmetry_1
_geom_bond_site_symmetry_2
N1 N2 1_555 1_555
N2 C10 1_555 1_555
O1 C1 1_555 1_555
C1 N1 1_555 1_555
C2 C1 1_555 1_555
C3 C2 1_555 1_555
H1 C3 1_555 1_555
C4 C3 1_555 1_555
H2 C4 1_555 1_555
C5 C4 1_555 1_555
C6 C5 1_555 1_555
H3 C6 1_555 1_555
C7 C2 1_555 1_555
H4 C7 1_555 1_555
C8 C5 1_555 1_555
H5 C8 1_555 1_555
H6 C8 1_555 1_555
C9 C8 1_555 1_555
H7 C9 1_555 1_555
H8 C9 1_555 1_555
H9 C9 1_555 1_555
C10 O1 1_555 1_555
C11 C10 1_555 1_555
C12 C11 1_555 1_555
H10 C12 1_555 1_555
C13 C12 1_555 1_555
C14 C13 1_555 1_555
H11 C14 1_555 1_555
C15 C14 1_555 1_555
C16 C11 1_555 1_555
H12 C16 1_555 1_555
C17 C13 1_555 1_555
H13 C17 1_555 1_555
H14 C17 1_555 1_555
H15 C17 1_555 1_555
C18 C15 1_555 1_555
H16 C18 1_555 1_555
H17 C18 1_555 1_555
H18 C18 1_555 1_555
C6 C7 1_555 1_555
C15 C16 1_555 1_555

#END
