
#######################################################################
#
#                 Cambridge Crystallographic Data Centre
#                                CCDC 
#
#######################################################################
#
# If this CIF has been generated from an entry in the Cambridge 
# Structural Database, then it will include bibliographic, chemical, 
# crystal, experimental, refinement or atomic coordinate data resulting 
# from the CCDC's data processing and validation procedures.
#
#######################################################################

data_OCASES
_chemical_formula_moiety         'C23 H17 Cl1 N2'
_chemical_name_systematic        
2-Benzyl-6-chloro-1-(4-methylphenyl)-1H-indole-3-carbonitrile
_symmetry_cell_setting           monoclinic
_symmetry_space_group_name_H-M   'P 21/c'
_symmetry_Int_Tables_number      14
_space_group_name_Hall           '-P 2ybc'
loop_
_symmetry_equiv_pos_site_id
_symmetry_equiv_pos_as_xyz
1 x,y,z
2 -x,1/2+y,1/2-z
3 -x,-y,-z
4 x,1/2-y,1/2+z
_cell_length_a                   10.0003(10)
_cell_length_b                   9.8565(8)
_cell_length_c                   18.539(2)
_cell_angle_alpha                90
_cell_angle_beta                 93.926(9)
_cell_angle_gamma                90
_cell_volume                     1823.06
_exptl_crystal_colour            colorless
_exptl_crystal_description       prism
_cell_formula_units_Z            4
loop_
_atom_site_label
_atom_site_type_symbol
_atom_site_fract_x
_atom_site_fract_y
_atom_site_fract_z
Cl1 Cl -0.03716(5) 1.21324(5) 0.09402(3)
N1 N 0.12552(15) 0.71133(16) 0.10904(7)
N2 N 0.54914(18) 0.70088(18) 0.00901(9)
C1 C 0.13022(19) 0.84896(19) 0.09184(9)
C2 C 0.0363(2) 0.94986(19) 0.10034(9)
H1 H -0.0485 0.9312 0.1184
C3 C 0.0728(2) 1.0788(2) 0.08114(9)
C4 C 0.19515(19) 1.1085(2) 0.05278(9)
H2 H 0.2159 1.1992 0.0403
C5 C 0.2855(2) 1.0062(2) 0.04304(10)
H3 H 0.3684 1.0253 0.0230
C6 C 0.25444(19) 0.8741(2) 0.06279(9)
C7 C 0.32207(19) 0.7456(2) 0.06210(9)
C8 C 0.24230(19) 0.6490(2) 0.09126(9)
C9 C 0.27113(19) 0.50407(19) 0.10918(10)
H4 H 0.3431 0.4712 0.0795
H5 H 0.1899 0.4493 0.0966
C10 C 0.31403(19) 0.4831(2) 0.18884(10)
C11 C 0.4009(2) 0.5740(2) 0.22559(11)
H6 H 0.4327 0.6509 0.2010
C12 C 0.4411(2) 0.5531(2) 0.29759(11)
H7 H 0.5007 0.6154 0.3221
C13 C 0.3951(2) 0.4425(2) 0.33395(11)
H8 H 0.4223 0.4290 0.3835
C14 C 0.3092(2) 0.3513(2) 0.29807(11)
H9 H 0.2778 0.2746 0.3229
C15 C 0.2687(2) 0.3716(2) 0.22582(11)
H10 H 0.2095 0.3087 0.2015
C16 C 0.4488(2) 0.7192(2) 0.03379(10)
C17 C 0.00947(19) 0.6386(2) 0.12952(9)
C18 C -0.0077(2) 0.6062(2) 0.20068(10)
H11 H 0.0541 0.6378 0.2381
C19 C -0.1160(2) 0.5272(2) 0.21686(11)
H12 H -0.1279 0.5051 0.2659
C20 C -0.2076(2) 0.4795(2) 0.16341(11)
C21 C -0.1911(2) 0.5178(2) 0.09294(10)
H13 H -0.2551 0.4898 0.0557
C22 C -0.0833(2) 0.59617(19) 0.07563(10)
H14 H -0.0730 0.6208 0.0268
C23 C -0.3186(2) 0.3845(2) 0.18130(12)
H15 H -0.3989 0.4038 0.1496
H16 H -0.3389 0.3974 0.2318
H17 H -0.2904 0.2906 0.1741
loop_
_geom_bond_atom_site_label_1
_geom_bond_atom_site_label_2
_geom_bond_site_symmetry_1
_geom_bond_site_symmetry_2
Cl1 C3 1_555 1_555
N1 C1 1_555 1_555
N2 C16 1_555 1_555
C1 C2 1_555 1_555
C2 H1 1_555 1_555
C3 C2 1_555 1_555
C4 C3 1_555 1_555
H2 C4 1_555 1_555
C5 C4 1_555 1_555
H3 C5 1_555 1_555
C6 C1 1_555 1_555
C7 C6 1_555 1_555
C8 N1 1_555 1_555
C9 C8 1_555 1_555
H4 C9 1_555 1_555
H5 C9 1_555 1_555
C10 C9 1_555 1_555
C11 C10 1_555 1_555
H6 C11 1_555 1_555
C12 C11 1_555 1_555
H7 C12 1_555 1_555
C13 C12 1_555 1_555
H8 C13 1_555 1_555
C14 C13 1_555 1_555
H9 C14 1_555 1_555
C15 C10 1_555 1_555
H10 C15 1_555 1_555
C16 C7 1_555 1_555
C17 N1 1_555 1_555
C18 C17 1_555 1_555
H11 C18 1_555 1_555
C19 C18 1_555 1_555
H12 C19 1_555 1_555
C20 C19 1_555 1_555
C21 C20 1_555 1_555
H13 C21 1_555 1_555
C22 C17 1_555 1_555
H14 C22 1_555 1_555
C23 C20 1_555 1_555
H15 C23 1_555 1_555
H16 C23 1_555 1_555
H17 C23 1_555 1_555
C5 C6 1_555 1_555
C7 C8 1_555 1_555
C14 C15 1_555 1_555
C21 C22 1_555 1_555

#END
