
#######################################################################
#
#                 Cambridge Crystallographic Data Centre
#                                CCDC 
#
#######################################################################
#
# If this CIF has been generated from an entry in the Cambridge 
# Structural Database, then it will include bibliographic, chemical, 
# crystal, experimental, refinement or atomic coordinate data resulting 
# from the CCDC's data processing and validation procedures.
#
#######################################################################

data_OCAVOG
_chemical_formula_moiety         'C24 H26 N2 O2 S2'
_chemical_name_systematic        
4-t-butyl-2-(5-(5-t-butyl-2-hydroxyphenyl)[1,3]thiazolo[5,4-d][1,3]thiazol-2-yl)phenol
_symmetry_cell_setting           monoclinic
_symmetry_space_group_name_H-M   'P 21/n'
_symmetry_Int_Tables_number      14
_space_group_name_Hall           '-P 2yn'
loop_
_symmetry_equiv_pos_site_id
_symmetry_equiv_pos_as_xyz
1 x,y,z
2 1/2-x,1/2+y,1/2-z
3 -x,-y,-z
4 1/2+x,1/2-y,1/2+z
_cell_length_a                   10.1105(9)
_cell_length_b                   6.0358(5)
_cell_length_c                   18.2648(16)
_cell_angle_alpha                90
_cell_angle_beta                 99.762(2)
_cell_angle_gamma                90
_cell_volume                     1098.47
_exptl_crystal_colour            'light yellow'
_exptl_crystal_description       needle
_cell_formula_units_Z            2
loop_
_atom_site_label
_atom_site_type_symbol
_atom_site_fract_x
_atom_site_fract_y
_atom_site_fract_z
S1 S 0.19995(5) -0.41938(9) 0.01410(3)
O1 O -0.02090(14) 0.0930(3) 0.13928(9)
H1 H -0.0521 -0.0160 0.1134
N1 N -0.01534(15) -0.2620(3) 0.05595(9)
C1 C 0.04966(18) -0.5531(3) -0.01387(10)
C2 C 0.11501(18) -0.2279(3) 0.06099(10)
C3 C 0.18459(19) -0.0445(3) 0.10365(10)
C4 C 0.1137(2) 0.1046(3) 0.14104(11)
C5 C 0.1830(2) 0.2720(4) 0.18328(11)
H2 H 0.1357 0.3729 0.2093
C6 C 0.3196(2) 0.2930(3) 0.18775(11)
H3 H 0.3649 0.4082 0.2174
C7 C 0.39403(19) 0.1505(3) 0.15004(10)
C8 C 0.32366(19) -0.0167(3) 0.10891(11)
H4 H 0.3715 -0.1172 0.0831
C9 C 0.54534(19) 0.1844(3) 0.15650(11)
C10 C 0.5737(2) 0.4244(4) 0.13678(14)
H5 H 0.5273 0.4572 0.0864
H6 H 0.6705 0.4449 0.1393
H7 H 0.5413 0.5248 0.1721
C11 C 0.6132(2) 0.1371(5) 0.23661(13)
H8 H 0.5764 0.2365 0.2705
H9 H 0.7101 0.1617 0.2413
H10 H 0.5965 -0.0170 0.2492
C12 C 0.6080(2) 0.0340(4) 0.10474(14)
H11 H 0.5932 -0.1212 0.1169
H12 H 0.7046 0.0632 0.1109
H13 H 0.5665 0.0633 0.0532
S1B S -0.19995(5) -0.58062(9) -0.01410(3)
O1B O 0.02090(14) -1.0930(3) -0.13928(9)
H1B H 0.0521 -0.9840 -0.1134
N1B N 0.01534(15) -0.7380(3) -0.05595(9)
C1B C -0.04966(18) -0.4469(3) 0.01387(10)
C2B C -0.11501(18) -0.7721(3) -0.06099(10)
C3B C -0.18459(19) -0.9555(3) -0.10365(10)
C4B C -0.1137(2) -1.1046(3) -0.14104(11)
C5B C -0.1830(2) -1.2720(4) -0.18328(11)
H2B H -0.1357 -1.3729 -0.2093
C6B C -0.3196(2) -1.2930(3) -0.18775(11)
H3B H -0.3649 -1.4082 -0.2174
C7B C -0.39403(19) -1.1505(3) -0.15004(10)
C8B C -0.32366(19) -0.9833(3) -0.10891(11)
H4B H -0.3715 -0.8828 -0.0831
C9B C -0.54534(19) -1.1844(3) -0.15650(11)
C10B C -0.5737(2) -1.4244(4) -0.13678(14)
H5B H -0.5273 -1.4572 -0.0864
H6B H -0.6705 -1.4449 -0.1393
H7B H -0.5413 -1.5248 -0.1721
C11B C -0.6132(2) -1.1371(5) -0.23661(13)
H8B H -0.5764 -1.2365 -0.2705
H9B H -0.7101 -1.1617 -0.2413
H10B H -0.5965 -0.9830 -0.2492
C12B C -0.6080(2) -1.0340(4) -0.10474(14)
H11B H -0.5932 -0.8788 -0.1169
H12B H -0.7046 -1.0632 -0.1109
H13B H -0.5665 -1.0633 -0.0532
loop_
_geom_bond_atom_site_label_1
_geom_bond_atom_site_label_2
_geom_bond_site_symmetry_1
_geom_bond_site_symmetry_2
S1 C1 1_555 1_555
O1 H1 1_555 1_555
N1 C2 1_555 1_555
C1 N1B 1_555 1_555
C2 S1 1_555 1_555
C3 C2 1_555 1_555
C4 O1 1_555 1_555
C5 C4 1_555 1_555
H2 C5 1_555 1_555
C6 C5 1_555 1_555
H3 C6 1_555 1_555
C7 C6 1_555 1_555
C8 C3 1_555 1_555
H4 C8 1_555 1_555
C9 C7 1_555 1_555
C10 C9 1_555 1_555
H5 C10 1_555 1_555
H6 C10 1_555 1_555
H7 C10 1_555 1_555
C11 C9 1_555 1_555
H8 C11 1_555 1_555
H9 C11 1_555 1_555
H10 C11 1_555 1_555
C12 C9 1_555 1_555
H11 C12 1_555 1_555
H12 C12 1_555 1_555
H13 C12 1_555 1_555
S1B C1B 1_555 1_555
O1B H1B 1_555 1_555
N1B C2B 1_555 1_555
C1B N1 1_555 1_555
C2B S1B 1_555 1_555
C3B C2B 1_555 1_555
C4B O1B 1_555 1_555
C5B C4B 1_555 1_555
H2B C5B 1_555 1_555
C6B C5B 1_555 1_555
H3B C6B 1_555 1_555
C7B C6B 1_555 1_555
C8B C3B 1_555 1_555
H4B C8B 1_555 1_555
C9B C7B 1_555 1_555
C10B C9B 1_555 1_555
H5B C10B 1_555 1_555
H6B C10B 1_555 1_555
H7B C10B 1_555 1_555
C11B C9B 1_555 1_555
H8B C11B 1_555 1_555
H9B C11B 1_555 1_555
H10B C11B 1_555 1_555
C12B C9B 1_555 1_555
H11B C12B 1_555 1_555
H12B C12B 1_555 1_555
H13B C12B 1_555 1_555
C1 C1B 1_555 1_555
C3 C4 1_555 1_555
C7 C8 1_555 1_555
C3B C4B 1_555 1_555
C7B C8B 1_555 1_555

#END
