
#######################################################################
#
#                 Cambridge Crystallographic Data Centre
#                                CCDC 
#
#######################################################################
#
# If this CIF has been generated from an entry in the Cambridge 
# Structural Database, then it will include bibliographic, chemical, 
# crystal, experimental, refinement or atomic coordinate data resulting 
# from the CCDC's data processing and validation procedures.
#
#######################################################################

data_OCAXUN
_chemical_formula_moiety         'C30 H42 N4'
_chemical_name_systematic        tris(2-((2,6-Dimethylphenyl)amino)ethyl)amine
_symmetry_cell_setting           rhombohedral
_symmetry_space_group_name_H-M   'R -3'
_symmetry_Int_Tables_number      148
_space_group_name_Hall           '-R 3'
loop_
_symmetry_equiv_pos_site_id
_symmetry_equiv_pos_as_xyz
1 x,y,z
2 -y,x-y,z
3 -x+y,-x,z
4 2/3+x,1/3+y,1/3+z
5 2/3-y,1/3+x-y,1/3+z
6 2/3-x+y,1/3-x,1/3+z
7 1/3+x,2/3+y,2/3+z
8 1/3-y,2/3+x-y,2/3+z
9 1/3-x+y,2/3-x,2/3+z
10 -x,-y,-z
11 y,-x+y,-z
12 x-y,x,-z
13 1/3-x,2/3-y,2/3-z
14 1/3+y,2/3-x+y,2/3-z
15 1/3+x-y,2/3+x,2/3-z
16 2/3-x,1/3-y,1/3-z
17 2/3+y,1/3-x+y,1/3-z
18 2/3+x-y,1/3+x,1/3-z
_cell_length_a                   14.2880(7)
_cell_length_b                   14.2880(7)
_cell_length_c                   22.3811(11)
_cell_angle_alpha                90
_cell_angle_beta                 90
_cell_angle_gamma                120
_cell_volume                     3956.9
_exptl_crystal_colour            colorless
_exptl_crystal_description       block
_cell_formula_units_Z            6
loop_
_atom_site_label
_atom_site_type_symbol
_atom_site_fract_x
_atom_site_fract_y
_atom_site_fract_z
C1 C 0.58018(7) 0.22760(7) 0.11134(4)
H1 H 0.5860 0.2233 0.0675
H2 H 0.5095 0.2218 0.1200
C2 C 0.58289(8) 0.13268(7) 0.13995(4)
H3 H 0.5189 0.0642 0.1271
H4 H 0.6485 0.1316 0.1268
C3 C 0.58132(7) 0.05566(7) 0.23806(4)
C4 C 0.48468(7) -0.04409(7) 0.24161(4)
C5 C 0.48377(8) -0.12750(8) 0.27456(4)
H5 H 0.4192 -0.1956 0.2766
C6 C 0.57519(8) -0.11311(8) 0.30435(4)
H6 H 0.5732 -0.1708 0.3264
C7 C 0.66954(8) -0.01359(8) 0.30156(4)
H7 H 0.7318 -0.0032 0.3225
C8 C 0.67430(7) 0.07137(7) 0.26845(4)
C9 C 0.38314(8) -0.06114(8) 0.21179(5)
H8 H 0.3838 -0.0794 0.1696
H9 H 0.3791 0.0052 0.2146
H10 H 0.3202 -0.1203 0.2316
C10 C 0.77793(8) 0.17807(8) 0.26578(5)
H11 H 0.8351 0.1721 0.2866
H12 H 0.7675 0.2338 0.2850
H13 H 0.7988 0.1979 0.2240
N1 N 0.6667 0.3333 0.13202(6)
N2 N 0.58312(7) 0.14184(6) 0.20523(4)
H14 H 0.6392(12) 0.2043(12) 0.2164(6)
C1A C 0.77240(7) 0.35258(10) 0.11134(4)
C1B C 0.64742(10) 0.41982(7) 0.11134(4)
H1A H 0.7767 0.3627 0.0675
H1B H 0.6373 0.4140 0.0675
H2A H 0.7782 0.2877 0.1200
H2B H 0.7123 0.4905 0.1200
C2A C 0.86732(7) 0.45021(11) 0.13995(4)
C2B C 0.54979(11) 0.41711(8) 0.13995(4)
H3A H 0.9358 0.4547 0.1271
H3B H 0.5453 0.4811 0.1271
H4A H 0.8684 0.5169 0.1268
H4B H 0.4831 0.3515 0.1268
C3A C 0.94434(7) 0.52566(10) 0.23806(4)
C3B C 0.47434(10) 0.41868(7) 0.23806(4)
C4A C 1.04409(7) 0.52877(10) 0.24161(4)
C4B C 0.47123(10) 0.51532(7) 0.24161(4)
C5A C 1.12750(8) 0.61127(11) 0.27456(4)
C5B C 0.38873(11) 0.51623(8) 0.27456(4)
H5A H 1.1956 0.6148 0.2766
H5B H 0.3852 0.5808 0.2766
C6A C 1.11311(8) 0.68830(11) 0.30435(4)
C6B C 0.31170(11) 0.42481(8) 0.30435(4)
H6A H 1.1708 0.7440 0.3264
H6B H 0.2560 0.4268 0.3264
C7A C 1.01359(8) 0.68313(11) 0.30156(4)
C7B C 0.31687(11) 0.33046(8) 0.30156(4)
H7A H 1.0032 0.7350 0.3225
H7B H 0.2650 0.2682 0.3225
C8A C 0.92863(7) 0.60293(10) 0.26845(4)
C8B C 0.39707(10) 0.32570(7) 0.26845(4)
C9A C 1.06114(8) 0.44428(11) 0.21179(5)
C9B C 0.55572(11) 0.61686(8) 0.21179(5)
H8A H 1.0794 0.4632 0.1696
H8B H 0.5368 0.6162 0.1696
H9A H 0.9948 0.3739 0.2146
H9B H 0.6261 0.6209 0.2146
H10A H 1.1203 0.4405 0.2316
H10B H 0.5595 0.6798 0.2316
C10A C 0.82193(8) 0.59986(11) 0.26578(5)
C10B C 0.40014(11) 0.22207(8) 0.26578(5)
H11A H 0.8279 0.6630 0.2866
H11B H 0.3370 0.1649 0.2866
H12A H 0.7662 0.5337 0.2850
H12B H 0.4663 0.2325 0.2850
H13A H 0.8021 0.6009 0.2240
H13B H 0.3991 0.2012 0.2240
N2A N 0.85816(6) 0.44128(9) 0.20523(4)
N2B N 0.55872(9) 0.41688(7) 0.20523(4)
H14A H 0.7957(12) 0.4349(17) 0.2164(6)
H14B H 0.5651(17) 0.3608(12) 0.2164(6)
loop_
_geom_bond_atom_site_label_1
_geom_bond_atom_site_label_2
_geom_bond_site_symmetry_1
_geom_bond_site_symmetry_2
C1 H1 1_555 1_555
H2 C1 1_555 1_555
C2 C1 1_555 1_555
H3 C2 1_555 1_555
H4 C2 1_555 1_555
C3 C4 1_555 1_555
C4 C5 1_555 1_555
C5 H5 1_555 1_555
C6 C5 1_555 1_555
H6 C6 1_555 1_555
C7 C6 1_555 1_555
H7 C7 1_555 1_555
C8 C3 1_555 1_555
C9 C4 1_555 1_555
H8 C9 1_555 1_555
H9 C9 1_555 1_555
H10 C9 1_555 1_555
C10 C8 1_555 1_555
H11 C10 1_555 1_555
H12 C10 1_555 1_555
H13 C10 1_555 1_555
N1 C1 1_555 1_555
N2 C2 1_555 1_555
H14 N2 1_555 1_555
C1A N1 1_555 1_555
C1B N1 1_555 1_555
H1A C1A 1_555 1_555
H1B C1B 1_555 1_555
H2A C1A 1_555 1_555
H2B C1B 1_555 1_555
C2A C1A 1_555 1_555
C2B C1B 1_555 1_555
H3A C2A 1_555 1_555
H3B C2B 1_555 1_555
H4A C2A 1_555 1_555
H4B C2B 1_555 1_555
C3A C4A 1_555 1_555
C3B C4B 1_555 1_555
C4A C5A 1_555 1_555
C4B C5B 1_555 1_555
C5A H5A 1_555 1_555
C5B H5B 1_555 1_555
C6A C5A 1_555 1_555
C6B C5B 1_555 1_555
H6A C6A 1_555 1_555
H6B C6B 1_555 1_555
C7A C6A 1_555 1_555
C7B C6B 1_555 1_555
H7A C7A 1_555 1_555
H7B C7B 1_555 1_555
C8A C3A 1_555 1_555
C8B C3B 1_555 1_555
C9A C4A 1_555 1_555
C9B C4B 1_555 1_555
H8A C9A 1_555 1_555
H8B C9B 1_555 1_555
H9A C9A 1_555 1_555
H9B C9B 1_555 1_555
H10A C9A 1_555 1_555
H10B C9B 1_555 1_555
C10A C8A 1_555 1_555
C10B C8B 1_555 1_555
H11A C10A 1_555 1_555
H11B C10B 1_555 1_555
H12A C10A 1_555 1_555
H12B C10B 1_555 1_555
H13A C10A 1_555 1_555
H13B C10B 1_555 1_555
N2A C2A 1_555 1_555
N2B C2B 1_555 1_555
H14A N2A 1_555 1_555
H14B N2B 1_555 1_555
C3 N2 1_555 1_555
C7 C8 1_555 1_555
C3A N2A 1_555 1_555
C3B N2B 1_555 1_555
C7A C8A 1_555 1_555
C7B C8B 1_555 1_555

#END
