
#######################################################################
#
#                 Cambridge Crystallographic Data Centre
#                                CCDC 
#
#######################################################################
#
# If this CIF has been generated from an entry in the Cambridge 
# Structural Database, then it will include bibliographic, chemical, 
# crystal, experimental, refinement or atomic coordinate data resulting 
# from the CCDC's data processing and validation procedures.
#
#######################################################################

data_OCAXEX
_chemical_formula_moiety         'C18 H25 N1 O5'
_chemical_name_systematic        
'Ethyl 4-acetamido-3-acetoxy-2-benzyl-3-methylbutanoate'
_symmetry_cell_setting           triclinic
_symmetry_space_group_name_H-M   'P -1'
_symmetry_Int_Tables_number      2
_space_group_name_Hall           '-P 1'
loop_
_symmetry_equiv_pos_site_id
_symmetry_equiv_pos_as_xyz
1 x,y,z
2 -x,-y,-z
_cell_length_a                   9.7995(18)
_cell_length_b                   10.0340(19)
_cell_length_c                   10.481(2)
_cell_angle_alpha                100.571(3)
_cell_angle_beta                 105.350(3)
_cell_angle_gamma                107.957(3)
_cell_volume                     905.077
_exptl_crystal_colour            colorless
_exptl_crystal_description       block
_cell_formula_units_Z            2
_exptl_crystal_recrystallization_method ethanol
loop_
_atom_site_label
_atom_site_type_symbol
_atom_site_fract_x
_atom_site_fract_y
_atom_site_fract_z
O1 O 0.14359(19) 0.04705(16) 0.78101(19)
O2 O 0.34401(17) 0.22351(16) 0.77960(16)
O3 O 0.20424(15) 0.64375(16) 1.02379(13)
O4 O -0.09510(15) 0.32515(17) 0.46869(13)
O5 O 0.09310(13) 0.29479(13) 0.62267(11)
N1 N 0.12798(17) 0.57192(15) 0.79270(15)
H1 H 0.1480 0.5898 0.7211
C1 C 0.2615(2) 0.1673(2) 1.1462(2)
H2 H 0.1808 0.0775 1.1024
C2 C 0.3832(3) 0.1795(3) 1.2567(2)
H3 H 0.3837 0.0982 1.2872
C3 C 0.5025(3) 0.3099(3) 1.3211(2)
H4 H 0.5837 0.3183 1.3963
C4 C 0.5024(3) 0.4290(3) 1.2746(2)
H5 H 0.5849 0.5178 1.3168
C5 C 0.3802(2) 0.4171(2) 1.1653(2)
H6 H 0.3804 0.4988 1.1353
C6 C 0.25803(19) 0.28698(19) 1.09999(17)
C7 C 0.1239(2) 0.2751(2) 0.98167(18)
H7 H 0.0849 0.3488 1.0111
H8 H 0.0434 0.1799 0.9579
C8 C 0.16401(18) 0.29482(18) 0.85328(16)
H9 H 0.2507 0.3879 0.8806
C9 C 0.2136(2) 0.1739(2) 0.80042(18)
C10 C 0.3713(8) 0.0989(6) 0.7031(7)
H10 H 0.2790 0.0317 0.6284
H11 H 0.4071 0.0459 0.7644
C11 C 0.4937(6) 0.1734(7) 0.6475(8)
H12 H 0.5166 0.1006 0.5934
H13 H 0.5844 0.2377 0.7232
H14 H 0.4574 0.2288 0.5907
C12 C 0.03185(18) 0.29931(18) 0.73647(16)
C13 C -0.1161(2) 0.1694(2) 0.6960(2)
H15 H -0.1894 0.1721 0.6160
H16 H -0.1549 0.1730 0.7711
H17 H -0.0978 0.0805 0.6753
C14 C 0.00377(19) 0.43993(19) 0.77358(18)
H18 H -0.0853 0.4337 0.7010
H19 H -0.0202 0.4466 0.8580
C15 C 0.2144(2) 0.66885(19) 0.91664(18)
C16 C 0.3241(3) 0.8094(2) 0.9149(3)
H20 H 0.3159 0.8900 0.9735
H21 H 0.3006 0.8168 0.8221
H22 H 0.4263 0.8118 0.9478
C17 C 0.0227(2) 0.30512(19) 0.49921(17)
C18 C 0.1100(2) 0.2895(2) 0.4059(2)
H23 H 0.0421 0.2542 0.3117
H24 H 0.1576 0.2214 0.4248
H25 H 0.1871 0.3829 0.4205
C19? C 0.4408(12) 0.1485(12) 0.7559(10)
C20? C 0.417(2) 0.1330(19) 0.6029(7)
H26? H 0.4094 0.0537 0.7727
H27? H 0.5466 0.2054 0.8134
H28? H 0.4724 0.0766 0.5728
H29? H 0.4546 0.2283 0.5902
H30? H 0.3106 0.0844 0.5496
loop_
_geom_bond_atom_site_label_1
_geom_bond_atom_site_label_2
_geom_bond_site_symmetry_1
_geom_bond_site_symmetry_2
O1 C9 1_555 1_555
O2 C9 1_555 1_555
O3 C15 1_555 1_555
O4 C17 1_555 1_555
O5 C12 1_555 1_555
N1 H1 1_555 1_555
C1 H2 1_555 1_555
C2 C1 1_555 1_555
H3 C2 1_555 1_555
C3 C2 1_555 1_555
H4 C3 1_555 1_555
C4 C3 1_555 1_555
H5 C4 1_555 1_555
C5 C4 1_555 1_555
H6 C5 1_555 1_555
C6 C1 1_555 1_555
C7 C6 1_555 1_555
H7 C7 1_555 1_555
H8 C7 1_555 1_555
C8 C7 1_555 1_555
H9 C8 1_555 1_555
C9 C8 1_555 1_555
C10 O2 1_555 1_555
H10 C10 1_555 1_555
H11 C10 1_555 1_555
C11 C10 1_555 1_555
H12 C11 1_555 1_555
H13 C11 1_555 1_555
H14 C11 1_555 1_555
C12 C8 1_555 1_555
C13 C12 1_555 1_555
H15 C13 1_555 1_555
H16 C13 1_555 1_555
H17 C13 1_555 1_555
C14 N1 1_555 1_555
H18 C14 1_555 1_555
H19 C14 1_555 1_555
C15 N1 1_555 1_555
C16 C15 1_555 1_555
H20 C16 1_555 1_555
H21 C16 1_555 1_555
H22 C16 1_555 1_555
C17 O5 1_555 1_555
C18 C17 1_555 1_555
H23 C18 1_555 1_555
H24 C18 1_555 1_555
H25 C18 1_555 1_555
C5 C6 1_555 1_555
C12 C14 1_555 1_555

#END
