
#######################################################################
#
#                 Cambridge Crystallographic Data Centre
#                                CCDC 
#
#######################################################################
#
# If this CIF has been generated from an entry in the Cambridge 
# Structural Database, then it will include bibliographic, chemical, 
# crystal, experimental, refinement or atomic coordinate data resulting 
# from the CCDC's data processing and validation procedures.
#
#######################################################################

data_OCAXUO
_chemical_formula_moiety         'C30 H38 O2 S2'
_chemical_name_systematic        
2,7-dioctylthieno[3,2-b]thieno[2',3':4,5]furo[2,3-f][1]benzofuran
_symmetry_cell_setting           triclinic
_symmetry_space_group_name_H-M   'P -1'
_symmetry_Int_Tables_number      2
_space_group_name_Hall           '-P 1'
loop_
_symmetry_equiv_pos_site_id
_symmetry_equiv_pos_as_xyz
1 x,y,z
2 -x,-y,-z
_cell_length_a                   6.657(3)
_cell_length_b                   8.177(4)
_cell_length_c                   12.851(5)
_cell_angle_alpha                94.123(7)
_cell_angle_beta                 92.155(4)
_cell_angle_gamma                108.359(8)
_cell_volume                     660.869
_exptl_crystal_colour            colorless
_exptl_crystal_description       Plate
_cell_formula_units_Z            1
loop_
_atom_site_label
_atom_site_type_symbol
_atom_site_fract_x
_atom_site_fract_y
_atom_site_fract_z
S1 S -0.36076(6) 0.50241(5) 0.36874(3)
O1 O -0.10843(17) 0.16074(14) 0.43285(9)
C1 C -0.5476(2) -0.15997(19) 0.54143(11)
C2 C -0.3428(2) -0.0878(2) 0.50934(12)
H1 H -0.2403 -0.1426 0.5149
C3 C -0.3029(2) 0.0697(2) 0.46904(12)
C4 C -0.1374(2) 0.3088(2) 0.39975(12)
C5 C -0.3373(2) 0.31450(19) 0.41289(12)
C6 C -0.0978(3) 0.5664(2) 0.33243(12)
C7 C 0.0023(3) 0.4493(2) 0.35460(12)
H2 H 0.1425 0.4607 0.3417
C8 C -0.0100(3) 0.7323(2) 0.28189(14)
H3 H -0.0208 0.8276 0.3284
H4 H -0.0947 0.7271 0.2179
C9 C 0.2211(3) 0.7670(2) 0.25657(13)
H5 H 0.3047 0.7716 0.3208
H6 H 0.2309 0.6708 0.2106
C10 C 0.3170(3) 0.9339(2) 0.20490(13)
H7 H 0.2363 0.9295 0.1397
H8 H 0.3077 1.0310 0.2502
C11 C 0.5472(3) 0.9614(2) 0.18314(13)
H9 H 0.5544 0.8641 0.1373
H10 H 0.6253 0.9616 0.2485
C12 C 0.6564(3) 1.1276(2) 0.13353(13)
H11 H 0.5837 1.1250 0.0663
H12 H 0.6439 1.2250 0.1775
C13 C 0.8894(3) 1.1550(2) 0.11799(14)
H13 H 0.9020 1.0571 0.0745
H14 H 0.9623 1.1586 0.1853
C14 C 0.9978(3) 1.3202(2) 0.06752(14)
H15 H 0.9757 1.4170 0.1081
H16 H 0.9315 1.3126 -0.0020
C15 C 1.2348(3) 1.3556(3) 0.05901(19)
H17 H 1.2581 1.2633 0.0158
H18 H 1.3019 1.3630 0.1274
H19 H 1.2939 1.4628 0.0284
S1A S -0.63924(6) -0.50241(5) 0.63126(3)
O1A O -0.89157(17) -0.16074(14) 0.56715(9)
C1A C -0.4524(2) 0.15997(19) 0.45857(11)
C2A C -0.6572(2) 0.0878(2) 0.49066(12)
H1A H -0.7597 0.1426 0.4851
C3A C -0.6971(2) -0.0697(2) 0.53096(12)
C4A C -0.8626(2) -0.3088(2) 0.60025(12)
C5A C -0.6627(2) -0.31450(19) 0.58711(12)
C6A C -0.9022(3) -0.5664(2) 0.66757(12)
C7A C -1.0023(3) -0.4493(2) 0.64540(12)
H2A H -1.1425 -0.4607 0.6583
C8A C -0.9900(3) -0.7323(2) 0.71811(14)
H3A H -0.9792 -0.8276 0.6716
H4A H -0.9053 -0.7271 0.7821
C9A C -1.2211(3) -0.7670(2) 0.74343(13)
H5A H -1.3047 -0.7716 0.6792
H6A H -1.2309 -0.6708 0.7894
C10A C -1.3170(3) -0.9339(2) 0.79510(13)
H7A H -1.2363 -0.9295 0.8603
H8A H -1.3077 -1.0310 0.7498
C11A C -1.5472(3) -0.9614(2) 0.81686(13)
H9A H -1.5544 -0.8641 0.8627
H10A H -1.6253 -0.9616 0.7515
C12A C -1.6564(3) -1.1276(2) 0.86647(13)
H11A H -1.5837 -1.1250 0.9337
H12A H -1.6439 -1.2250 0.8225
C13A C -1.8894(3) -1.1550(2) 0.88201(14)
H13A H -1.9020 -1.0571 0.9255
H14A H -1.9623 -1.1586 0.8147
C14A C -1.9978(3) -1.3202(2) 0.93248(14)
H15A H -1.9757 -1.4170 0.8919
H16A H -1.9315 -1.3126 1.0020
C15A C -2.2348(3) -1.3556(3) 0.94099(19)
H17A H -2.2581 -1.2633 0.9842
H18A H -2.3019 -1.3630 0.8726
H19A H -2.2939 -1.4628 0.9716
loop_
_geom_bond_atom_site_label_1
_geom_bond_atom_site_label_2
_geom_bond_site_symmetry_1
_geom_bond_site_symmetry_2
S1 C5 1_555 1_555
O1 C3 1_555 1_555
C1 C2 1_555 1_555
C2 H1 1_555 1_555
C3 C2 1_555 1_555
C4 O1 1_555 1_555
C5 C4 1_555 1_555
C6 S1 1_555 1_555
C7 C4 1_555 1_555
H2 C7 1_555 1_555
C8 C6 1_555 1_555
H3 C8 1_555 1_555
H4 C8 1_555 1_555
C9 C8 1_555 1_555
H5 C9 1_555 1_555
H6 C9 1_555 1_555
C10 C9 1_555 1_555
H7 C10 1_555 1_555
H8 C10 1_555 1_555
C11 C10 1_555 1_555
H9 C11 1_555 1_555
H10 C11 1_555 1_555
C12 C11 1_555 1_555
H11 C12 1_555 1_555
H12 C12 1_555 1_555
C13 C12 1_555 1_555
H13 C13 1_555 1_555
H14 C13 1_555 1_555
C14 C13 1_555 1_555
H15 C14 1_555 1_555
H16 C14 1_555 1_555
C15 C14 1_555 1_555
H17 C15 1_555 1_555
H18 C15 1_555 1_555
H19 C15 1_555 1_555
S1A C5A 1_555 1_555
O1A C3A 1_555 1_555
C1A C3 1_555 1_555
C2A C1A 1_555 1_555
H1A C2A 1_555 1_555
C3A C1 1_555 1_555
C4A O1A 1_555 1_555
C5A C1 1_555 1_555
C6A S1A 1_555 1_555
C7A C4A 1_555 1_555
H2A C7A 1_555 1_555
C8A C6A 1_555 1_555
H3A C8A 1_555 1_555
H4A C8A 1_555 1_555
C9A C8A 1_555 1_555
H5A C9A 1_555 1_555
H6A C9A 1_555 1_555
C10A C9A 1_555 1_555
H7A C10A 1_555 1_555
H8A C10A 1_555 1_555
C11A C10A 1_555 1_555
H9A C11A 1_555 1_555
H10A C11A 1_555 1_555
C12A C11A 1_555 1_555
H11A C12A 1_555 1_555
H12A C12A 1_555 1_555
C13A C12A 1_555 1_555
H13A C13A 1_555 1_555
H14A C13A 1_555 1_555
C14A C13A 1_555 1_555
H15A C14A 1_555 1_555
H16A C14A 1_555 1_555
C15A C14A 1_555 1_555
H17A C15A 1_555 1_555
H18A C15A 1_555 1_555
H19A C15A 1_555 1_555
C5 C1A 1_555 1_555
C6 C7 1_555 1_555
C2A C3A 1_555 1_555
C4A C5A 1_555 1_555
C6A C7A 1_555 1_555

#END
