
#######################################################################
#
#                 Cambridge Crystallographic Data Centre
#                                CCDC 
#
#######################################################################
#
# If this CIF has been generated from an entry in the Cambridge 
# Structural Database, then it will include bibliographic, chemical, 
# crystal, experimental, refinement or atomic coordinate data resulting 
# from the CCDC's data processing and validation procedures.
#
#######################################################################

data_OCIMAO
_chemical_formula_moiety         'C35 H44 O4'
_chemical_name_systematic        
(-)-(11S)-Tetrahydro-4'-menthoxycarbonyl-5'-n-pentyl-2'-furanone-3'-spiro-11-9,10-dihydro-9,10-ethanoanthracene
_symmetry_cell_setting           orthorhombic
_symmetry_space_group_name_H-M   'P 21 21 21'
_symmetry_Int_Tables_number      19
_space_group_name_Hall           'P 2ac 2ab'
loop_
_symmetry_equiv_pos_site_id
_symmetry_equiv_pos_as_xyz
1 x,y,z
2 1/2-x,-y,1/2+z
3 1/2+x,1/2-y,-z
4 -x,1/2+y,1/2-z
_cell_length_a                   9.081(1)
_cell_length_b                   11.033(8)
_cell_length_c                   30.863(4)
_cell_angle_alpha                90
_cell_angle_beta                 90
_cell_angle_gamma                90
_cell_volume                     3092.18
_exptl_crystal_colour            colorless
_exptl_crystal_description       block
_chemical_melting_point          '205-206 deg.C'
_cell_formula_units_Z            4
_exptl_crystal_recrystallization_method dichloromethane/hexane
loop_
_atom_site_label
_atom_site_type_symbol
_atom_site_fract_x
_atom_site_fract_y
_atom_site_fract_z
C1 C 0.7349(3) -0.0331(3) 0.27749(13)
H1 H 0.8016 0.0068 0.2582
C2 C 0.7796(4) -0.0940(4) 0.31398(15)
H2 H 0.8828 -0.0997 0.3203
C3 C 0.6795(4) -0.1491(4) 0.34000(13)
H3 H 0.7121 -0.1908 0.3654
C4 C 0.5297(4) -0.1458(3) 0.33033(11)
H4 H 0.4581 -0.1821 0.3490
C5 C 0.4845(3) -0.0846(2) 0.29406(10)
C6 C 0.2433(3) 0.0560(2) 0.36135(10)
C7 C 0.5869(3) -0.0280(2) 0.26747(11)
C8 C 0.2316(3) -0.1988(3) 0.21644(11)
H5 H 0.1626 -0.2356 0.2358
C9 C 0.2444(4) -0.2323(3) 0.17391(13)
H6 H 0.1833 -0.2940 0.1620
C10 C 0.3445(5) -0.1771(4) 0.14684(12)
H7 H 0.3520 -0.2036 0.1174
C11 C 0.4343(4) -0.0863(3) 0.16314(12)
H8 H 0.5012 -0.0441 0.1446
C12 C 0.4243(3) -0.0546(3) 0.20591(10)
C13 C 0.3221(3) -0.1098(2) 0.23243(10)
C14 C 0.5172(3) 0.0353(2) 0.22975(10)
H9 H 0.5916 0.0700 0.2116
C15 C 0.3274(3) -0.0682(2) 0.27898(9)
H10 H 0.2629 -0.1128 0.2975
C16 C 0.4117(3) 0.1300(3) 0.24860(11)
H11 H 0.3582 0.1688 0.2258
H12 H 0.4683 0.1882 0.2642
C17 C 0.3016(3) 0.0693(2) 0.28077(9)
C18 C 0.1476(3) 0.1066(2) 0.26827(9)
C19 C 0.2328(3) 0.2439(2) 0.31813(10)
H13 H 0.2973 0.3010 0.3048
C20 C 0.3169(3) 0.1262(2) 0.32575(9)
H14 H 0.4181 0.1389 0.3333
C21 C 0.1700(4) 0.3072(3) 0.35694(10)
H15 H 0.2455 0.3159 0.3785
H16 H 0.0908 0.2602 0.3685
C22 C 0.1103(4) 0.4306(3) 0.34528(11)
H17 H 0.0374 0.4202 0.3231
H18 H 0.1910 0.4764 0.3340
C23 C 0.0457(7) 0.4952(4) 0.38292(14)
H19 H 0.1220 0.5023 0.4043
H20 H -0.0311 0.4446 0.3938
C24 C -0.0097(8) 0.6171(5) 0.37217(18)
H21 H -0.0828 0.6105 0.3499
H22 H -0.0537 0.6497 0.3978
C25 C 0.0925(10) 0.6943(6) 0.3580(3)
H23 H 0.0476 0.7703 0.3522
H24 H 0.1372 0.6643 0.3320
H25 H 0.1663 0.7036 0.3800
C26 C 0.2504(4) 0.0137(3) 0.43711(10)
H26 H 0.2072 -0.0615 0.4292
C27 C 0.1354(4) 0.0956(3) 0.45583(13)
H27 H 0.0562 0.0995 0.4353
H28 H 0.1781 0.1735 0.4592
C28 C 0.0743(6) 0.0511(4) 0.49900(15)
H29 H 0.0227 -0.0230 0.4951
C29 C 0.1995(7) 0.0273(5) 0.53006(14)
H30 H 0.1582 -0.0089 0.5555
H31 H 0.2445 0.1020 0.5377
C30 C 0.3111(6) -0.0557(4) 0.51064(13)
H32 H 0.2653 -0.1320 0.5062
H33 H 0.3887 -0.0636 0.5315
C31 C 0.3739(4) -0.0108(4) 0.46861(11)
H34 H 0.4235 0.0628 0.4751
C32 C -0.0358(7) 0.1398(6) 0.51684(19)
H35 H -0.1133 0.1546 0.4964
H36 H 0.0118 0.2138 0.5240
H37 H -0.0763 0.1048 0.5426
C33 C 0.4957(5) -0.0902(4) 0.44996(14)
H38 H 0.5162 -0.0586 0.4217
C34 C 0.4524(8) -0.2218(4) 0.4465(2)
H39 H 0.3632 -0.2262 0.4300
H40 H 0.4359 -0.2544 0.4749
H41 H 0.5280 -0.2669 0.4322
C35 C 0.6365(7) -0.0793(8) 0.4754(2)
H42 H 0.6623 0.0038 0.4770
H43 H 0.7143 -0.1227 0.4614
H44 H 0.6221 -0.1102 0.5041
O1 O 0.0641(2) 0.0621(2) 0.24347(8)
O2 O 0.1129(2) 0.20865(18) 0.28989(7)
O3 O 0.1324(2) -0.0002(2) 0.35705(7)
O4 O 0.3151(2) 0.06869(18) 0.39877(7)
loop_
_geom_bond_atom_site_label_1
_geom_bond_atom_site_label_2
_geom_bond_site_symmetry_1
_geom_bond_site_symmetry_2
C1 H1 1_555 1_555
C2 C1 1_555 1_555
H2 C2 1_555 1_555
C3 C2 1_555 1_555
H3 C3 1_555 1_555
C4 C3 1_555 1_555
H4 C4 1_555 1_555
C5 C4 1_555 1_555
C6 C20 1_555 1_555
C7 C1 1_555 1_555
C8 H5 1_555 1_555
C9 C8 1_555 1_555
H6 C9 1_555 1_555
C10 C9 1_555 1_555
H7 C10 1_555 1_555
C11 C10 1_555 1_555
H8 C11 1_555 1_555
C12 C11 1_555 1_555
C13 C8 1_555 1_555
C14 C7 1_555 1_555
H9 C14 1_555 1_555
C15 C5 1_555 1_555
H10 C15 1_555 1_555
C16 C14 1_555 1_555
H11 C16 1_555 1_555
H12 C16 1_555 1_555
C17 C15 1_555 1_555
C18 C17 1_555 1_555
C19 H13 1_555 1_555
C20 C17 1_555 1_555
H14 C20 1_555 1_555
C21 C19 1_555 1_555
H15 C21 1_555 1_555
H16 C21 1_555 1_555
C22 C21 1_555 1_555
H17 C22 1_555 1_555
H18 C22 1_555 1_555
C23 C22 1_555 1_555
H19 C23 1_555 1_555
H20 C23 1_555 1_555
C24 C23 1_555 1_555
H21 C24 1_555 1_555
H22 C24 1_555 1_555
C25 C24 1_555 1_555
H23 C25 1_555 1_555
H24 C25 1_555 1_555
H25 C25 1_555 1_555
C26 H26 1_555 1_555
C27 C26 1_555 1_555
H27 C27 1_555 1_555
H28 C27 1_555 1_555
C28 C27 1_555 1_555
H29 C28 1_555 1_555
C29 C28 1_555 1_555
H30 C29 1_555 1_555
H31 C29 1_555 1_555
C30 C29 1_555 1_555
H32 C30 1_555 1_555
H33 C30 1_555 1_555
C31 C26 1_555 1_555
H34 C31 1_555 1_555
C32 C28 1_555 1_555
H35 C32 1_555 1_555
H36 C32 1_555 1_555
H37 C32 1_555 1_555
C33 C31 1_555 1_555
H38 C33 1_555 1_555
C34 C33 1_555 1_555
H39 C34 1_555 1_555
H40 C34 1_555 1_555
H41 C34 1_555 1_555
C35 C33 1_555 1_555
H42 C35 1_555 1_555
H43 C35 1_555 1_555
H44 C35 1_555 1_555
O1 C18 1_555 1_555
O2 C18 1_555 1_555
O3 C6 1_555 1_555
O4 C6 1_555 1_555
C5 C7 1_555 1_555
C12 C14 1_555 1_555
C12 C13 1_555 1_555
C13 C15 1_555 1_555
C16 C17 1_555 1_555
C19 O2 1_555 1_555
C19 C20 1_555 1_555
C26 O4 1_555 1_555
C30 C31 1_555 1_555

#END
