
#######################################################################
#
#                 Cambridge Crystallographic Data Centre
#                                CCDC 
#
#######################################################################
#
# If this CIF has been generated from an entry in the Cambridge 
# Structural Database, then it will include bibliographic, chemical, 
# crystal, experimental, refinement or atomic coordinate data resulting 
# from the CCDC's data processing and validation procedures.
#
#######################################################################

data_OCMETD02
_chemical_formula_moiety         'C22 H36'
_chemical_name_systematic        
3,3,7,7,10,10,14,14-Octamethyltricyclo(7.5.0.0^2,8^)tetradeca-1(9),2(8)-diene
_symmetry_cell_setting           monoclinic
_symmetry_space_group_name_H-M   'P 21/n'
_symmetry_Int_Tables_number      14
_space_group_name_Hall           '-P 2yn'
loop_
_symmetry_equiv_pos_site_id
_symmetry_equiv_pos_as_xyz
1 x,y,z
2 1/2-x,1/2+y,1/2-z
3 -x,-y,-z
4 1/2+x,1/2-y,1/2+z
_cell_length_a                   10.549(2)
_cell_length_b                   9.043(2)
_cell_length_c                   10.984(2)
_cell_angle_alpha                90
_cell_angle_beta                 114.89(1)
_cell_angle_gamma                90
_cell_volume                     950.491
_cell_formula_units_Z            2
loop_
_atom_site_label
_atom_site_type_symbol
_atom_site_fract_x
_atom_site_fract_y
_atom_site_fract_z
C1 C 0.08995(12) 0.06498(13) 0.03461(11)
C2 C 0.20588(14) 0.17900(14) 0.07999(13)
C3 C 0.33533(16) 0.12562(20) 0.06143(17)
C4 C 0.31296(17) 0.06725(20) -0.07467(17)
C5 C 0.26772(17) -0.09293(19) -0.09517(18)
C6 C 0.11239(14) -0.12713(15) -0.13702(13)
C7 C 0.05438(12) -0.05146(13) -0.04840(11)
C8 C 0.15134(20) 0.32161(18) -0.00202(20)
C9 C 0.25903(20) 0.21318(22) 0.23042(16)
C10 C 0.02914(22) -0.07595(24) -0.28305(15)
C11 C 0.10379(22) -0.29700(17) -0.12892(19)
H1 H 0.3845(16) 0.0488(17) 0.1321(15)
H2 H 0.4029(17) 0.2122(20) 0.0873(15)
H3 H 0.4025(19) 0.0704(19) -0.0842(15)
H4 H 0.2425(16) 0.1319(16) -0.1501(15)
H5 H 0.3236(16) -0.1444(17) -0.0089(17)
H6 H 0.2906(16) -0.1396(18) -0.1663(16)
H7 H 0.0705(21) 0.3591(20) 0.0135(18)
H8 H 0.1205(19) 0.3000(20) -0.1050(21)
H9 H 0.2252(21) 0.3922(21) 0.0285(19)
H10 H 0.1841(18) 0.2617(19) 0.2539(17)
H11 H 0.2915(20) 0.1154(23) 0.2859(19)
H12 H 0.3408(20) 0.2803(21) 0.2571(18)
H13 H -0.0749(22) -0.0975(22) -0.3134(18)
H14 H 0.0513(18) 0.0309(24) -0.2911(17)
H15 H 0.0607(21) -0.1322(24) -0.3410(22)
H16 H 0.0028(21) -0.3348(19) -0.1714(17)
H17 H 0.1510(18) -0.3329(19) -0.0297(20)
H18 H 0.1530(19) -0.3418(20) -0.1766(18)
C7B C -0.05438(12) 0.05146(13) 0.04840(11)
C1B C -0.08995(12) -0.06498(13) -0.03461(11)
C6B C -0.11239(14) 0.12713(15) 0.13702(13)
C2B C -0.20588(14) -0.17900(14) -0.07999(13)
C5B C -0.26772(17) 0.09293(19) 0.09517(18)
C10B C -0.02914(22) 0.07595(24) 0.28305(15)
C11B C -0.10379(22) 0.29700(17) 0.12892(19)
C3B C -0.33533(16) -0.12562(20) -0.06143(17)
C8B C -0.15134(20) -0.32161(18) 0.00202(20)
C9B C -0.25903(20) -0.21318(22) -0.23042(16)
C4B C -0.31296(17) -0.06725(20) 0.07467(17)
H5B H -0.3236(16) 0.1444(17) 0.0089(17)
H6B H -0.2906(16) 0.1396(18) 0.1663(16)
H13B H 0.0749(22) 0.0975(22) 0.3134(18)
H14B H -0.0513(18) -0.0309(24) 0.2911(17)
H15B H -0.0607(21) 0.1322(24) 0.3410(22)
H16B H -0.0028(21) 0.3348(19) 0.1714(17)
H17B H -0.1510(18) 0.3329(19) 0.0297(20)
H18B H -0.1530(19) 0.3418(20) 0.1766(18)
H1B H -0.3845(16) -0.0488(17) -0.1321(15)
H2B H -0.4029(17) -0.2122(20) -0.0873(15)
H7B H -0.0705(21) -0.3591(20) -0.0135(18)
H8B H -0.1205(19) -0.3000(20) 0.1050(21)
H9B H -0.2252(21) -0.3922(21) -0.0285(19)
H10B H -0.1841(18) -0.2617(19) -0.2539(17)
H11B H -0.2915(20) -0.1154(23) -0.2859(19)
H12B H -0.3408(20) -0.2803(21) -0.2571(18)
H3B H -0.4025(19) -0.0704(19) 0.0842(15)
H4B H -0.2425(16) -0.1319(16) 0.1501(15)
loop_
_geom_bond_atom_site_label_1
_geom_bond_atom_site_label_2
_geom_bond_site_symmetry_1
_geom_bond_site_symmetry_2
C1 C2 1_555 1_555
C2 C3 1_555 1_555
C3 C4 1_555 1_555
C4 C5 1_555 1_555
C5 C6 1_555 1_555
C6 C7 1_555 1_555
C7 C1 1_555 1_555
C8 C2 1_555 1_555
C9 C2 1_555 1_555
C10 C6 1_555 1_555
C11 C6 1_555 1_555
H1 C3 1_555 1_555
H2 C3 1_555 1_555
H3 C4 1_555 1_555
H4 C4 1_555 1_555
H5 C5 1_555 1_555
H6 C5 1_555 1_555
H7 C8 1_555 1_555
H8 C8 1_555 1_555
H9 C8 1_555 1_555
H10 C9 1_555 1_555
H11 C9 1_555 1_555
H12 C9 1_555 1_555
H13 C10 1_555 1_555
H14 C10 1_555 1_555
H15 C10 1_555 1_555
H16 C11 1_555 1_555
H17 C11 1_555 1_555
H18 C11 1_555 1_555
C7B C1 1_555 1_555
C1B C7 1_555 1_555
C6B C7B 1_555 1_555
C2B C1B 1_555 1_555
C5B C6B 1_555 1_555
C10B C6B 1_555 1_555
C11B C6B 1_555 1_555
C3B C2B 1_555 1_555
C8B C2B 1_555 1_555
C9B C2B 1_555 1_555
C4B C5B 1_555 1_555
H5B C5B 1_555 1_555
H6B C5B 1_555 1_555
H13B C10B 1_555 1_555
H14B C10B 1_555 1_555
H15B C10B 1_555 1_555
H16B C11B 1_555 1_555
H17B C11B 1_555 1_555
H18B C11B 1_555 1_555
H1B C3B 1_555 1_555
H2B C3B 1_555 1_555
H7B C8B 1_555 1_555
H8B C8B 1_555 1_555
H9B C8B 1_555 1_555
H10B C9B 1_555 1_555
H11B C9B 1_555 1_555
H12B C9B 1_555 1_555
H3B C4B 1_555 1_555
H4B C4B 1_555 1_555
C7B C1B 1_555 1_555
C3B C4B 1_555 1_555

#END
