
#######################################################################
#
#                 Cambridge Crystallographic Data Centre
#                                CCDC 
#
#######################################################################
#
# If this CIF has been generated from an entry in the Cambridge 
# Structural Database, then it will include bibliographic, chemical, 
# crystal, experimental, refinement or atomic coordinate data resulting 
# from the CCDC's data processing and validation procedures.
#
#######################################################################

data_OCOMUO
_chemical_formula_moiety         'C10 H8 N2 O2,C6 F4 I2'
_chemical_name_systematic        
"4,4'-Bipyridyl-N,N'-dioxide 1,4-di-iodotetrafluorobenzene"
_symmetry_cell_setting           triclinic
_symmetry_space_group_name_H-M   'P -1'
_symmetry_Int_Tables_number      2
_space_group_name_Hall           '-P 1'
loop_
_symmetry_equiv_pos_site_id
_symmetry_equiv_pos_as_xyz
1 x,y,z
2 -x,-y,-z
_cell_length_a                   4.2954(4)
_cell_length_b                   8.1290(8)
_cell_length_c                   13.6474(14)
_cell_angle_alpha                100.732(8)
_cell_angle_beta                 98.823(8)
_cell_angle_gamma                103.792(8)
_cell_volume                     444.822
_exptl_crystal_colour            colorless
_exptl_crystal_description       'rhombic plate'
_chemical_melting_point          'above 300deg.C'
_cell_formula_units_Z            1
loop_
_atom_site_label
_atom_site_type_symbol
_atom_site_fract_x
_atom_site_fract_y
_atom_site_fract_z
I1 I -0.61814(5) -0.29903(3) 0.307515(15)
F1 F -0.3345(9) -0.2978(4) 0.5405(2)
F2 F -0.1453(8) 0.0726(4) 0.31620(19)
C1 C -0.2572(8) -0.1199(4) 0.4236(2)
C2 C -0.1706(9) -0.1519(4) 0.5187(3)
C3 C -0.0777(9) 0.0342(4) 0.4075(2)
C3A C 0.0777(9) -0.0342(4) 0.5925(2)
F2A F 0.1453(8) -0.0726(4) 0.68380(19)
C1A C 0.2572(8) 0.1199(4) 0.5764(2)
I1A I 0.61814(5) 0.29903(3) 0.692485(15)
C2A C 0.1706(9) 0.1519(4) 0.4813(3)
F1A F 0.3345(9) 0.2978(4) 0.4595(2)
O1 O -0.9601(6) -0.4916(3) -0.1322(2)
N1 N -0.6988(6) -0.3598(3) -0.09733(19)
C4 C -0.5604(8) -0.2702(4) -0.1611(2)
H1 H -0.648(11) -0.303(6) -0.226(4)
C5 C -0.2885(7) -0.1299(4) -0.1240(2)
H2 H -0.194(11) -0.064(6) -0.169(3)
C6 C -0.1447(6) -0.0761(3) -0.02103(19)
C7 C -0.2941(7) -0.1740(3) 0.0422(2)
H3 H -0.198(10) -0.140(5) 0.109(3)
C8 C -0.5683(7) -0.3127(4) 0.0040(2)
H4 H -0.680(10) -0.367(5) 0.045(3)
C6A C 0.1447(6) 0.0761(3) 0.02103(19)
C5A C 0.2885(7) 0.1299(4) 0.1240(2)
C4A C 0.5604(8) 0.2702(4) 0.1611(2)
N1A N 0.6988(6) 0.3598(3) 0.09733(19)
O1A O 0.9601(6) 0.4916(3) 0.1322(2)
C8A C 0.5683(7) 0.3127(4) -0.0040(2)
C7A C 0.2941(7) 0.1740(3) -0.0422(2)
H3A H 0.198(10) 0.140(5) -0.109(3)
H4A H 0.680(10) 0.367(5) -0.045(3)
H1A H 0.648(11) 0.303(6) 0.226(4)
H2A H 0.194(11) 0.064(6) 0.169(3)
loop_
_geom_bond_atom_site_label_1
_geom_bond_atom_site_label_2
_geom_bond_site_symmetry_1
_geom_bond_site_symmetry_2
I1 C1 1_555 1_555
F1 C2 1_555 1_555
F2 C3 1_555 1_555
C1 C2 1_555 1_555
C2 C3A 1_555 1_555
C3 C1 1_555 1_555
O1 N1 1_555 1_555
N1 C4 1_555 1_555
C4 H1 1_555 1_555
C5 C4 1_555 1_555
H2 C5 1_555 1_555
C6 C5 1_555 1_555
C7 C6 1_555 1_555
H3 C7 1_555 1_555
C8 N1 1_555 1_555
H4 C8 1_555 1_555
C3A F2A 1_555 1_555
C1A C3A 1_555 1_555
I1A C1A 1_555 1_555
C2A C3 1_555 1_555
F1A C2A 1_555 1_555
C6A C6 1_555 1_555
C5A C6A 1_555 1_555
C4A C5A 1_555 1_555
N1A C4A 1_555 1_555
O1A N1A 1_555 1_555
C8A N1A 1_555 1_555
C7A C6A 1_555 1_555
H3A C7A 1_555 1_555
H4A C8A 1_555 1_555
H1A C4A 1_555 1_555
H2A C5A 1_555 1_555
C7 C8 1_555 1_555
C1A C2A 1_555 1_555
C8A C7A 1_555 1_555

#END
