
#######################################################################
#
#                 Cambridge Crystallographic Data Centre
#                                CCDC 
#
#######################################################################
#
# If this CIF has been generated from an entry in the Cambridge 
# Structural Database, then it will include bibliographic, chemical, 
# crystal, experimental, refinement or atomic coordinate data resulting 
# from the CCDC's data processing and validation procedures.
#
#######################################################################

data_OCUKON
_chemical_formula_moiety         'C19 H22 N2 O3'
_chemical_name_systematic        
1-(10,10-Dimethyl-2-oxo-3-phenyl-3,4-diazatricyclo[5.2.1.0^1,5^]decan-4-yl)propane-1,2-dione
_symmetry_cell_setting           orthorhombic
_symmetry_space_group_name_H-M   'P 21 21 21'
_symmetry_Int_Tables_number      19
_space_group_name_Hall           'P 2ac 2ab'
loop_
_symmetry_equiv_pos_site_id
_symmetry_equiv_pos_as_xyz
1 x,y,z
2 1/2-x,-y,1/2+z
3 1/2+x,1/2-y,-z
4 -x,1/2+y,1/2-z
_cell_length_a                   10.1660(8)
_cell_length_b                   11.6230(9)
_cell_length_c                   15.2080(13)
_cell_angle_alpha                90
_cell_angle_beta                 90
_cell_angle_gamma                90
_cell_volume                     1796.97
_exptl_crystal_colour            yellow
_exptl_crystal_description       prism
_cell_formula_units_Z            4
_exptl_crystal_recrystallization_method 'hexanes/ethyl acetate'
loop_
_atom_site_label
_atom_site_type_symbol
_atom_site_fract_x
_atom_site_fract_y
_atom_site_fract_z
O1 O -0.8062(5) 0.0532(4) -0.6619(2)
O2 O -0.5333(4) 0.2817(4) -0.4515(3)
O3 O -0.7609(5) 0.2727(4) -0.2934(3)
N1 N -0.7231(4) 0.1800(4) -0.4621(3)
N2 N -0.7146(5) 0.1689(4) -0.5550(3)
C1 C -0.8128(6) 0.0895(4) -0.4286(3)
H1 H -0.8996 0.1203 -0.4205
C2 C -0.7692(6) 0.0162(5) -0.3505(4)
H2 H -0.8307 0.0227 -0.3028
H3 H -0.6826 0.0350 -0.3299
C3 C -0.7787(6) -0.1056(5) -0.3889(4)
H4 H -0.7487 -0.1664 -0.3512
C4 C -0.9241(6) -0.1317(5) -0.4133(4)
H5 H -0.9815 -0.1036 -0.3680
H6 H -0.9399 -0.2123 -0.4224
C5 C -0.9506(5) -0.0591(5) -0.4987(4)
H7 H -0.9680 -0.1130 -0.5452
H8 H -1.0254 -0.0097 -0.4911
C6 C -0.8186(5) 0.0038(4) -0.5054(3)
C7 C -0.7154(5) -0.0911(5) -0.4791(4)
C8 C -0.5717(5) -0.0542(6) -0.4765(4)
H9 H -0.5189 -0.1188 -0.4592
H10 H -0.5578 0.0081 -0.4361
H11 H -0.5474 -0.0303 -0.5347
C9 C -0.7242(7) -0.1982(6) -0.5376(5)
H12 H -0.6595 -0.2540 -0.5206
H13 H -0.7095 -0.1757 -0.5975
H14 H -0.8105 -0.2311 -0.5321
C10 C -0.7854(5) 0.0735(5) -0.5849(3)
C11 C -0.6989(5) 0.2700(5) -0.6081(3)
C12 C -0.6238(7) 0.2614(6) -0.6826(4)
H15 H -0.5870 0.1884 -0.6990
C13 C -0.6144(9) 0.3573(8) -0.7368(4)
H16 H -0.5572 0.3513 -0.7868
C14 C -0.6775(8) 0.4584(7) -0.7162(5)
H17 H -0.6707 0.5222 -0.7560
C15 C -0.7525(8) 0.4650(6) -0.6410(5)
H18 H -0.7937 0.5379 -0.6303
C16 C -0.7632(7) 0.3706(6) -0.5853(4)
H19 H -0.8089 0.3723 -0.5301
C17 C -0.6276(6) 0.2372(5) -0.4180(4)
C18 C -0.6504(6) 0.2528(6) -0.3202(4)
C19 C -0.5347(7) 0.2495(8) -0.2617(4)
H20 H -0.4653 0.2293 -0.3016
H21 H -0.5390 0.1939 -0.2152
H22 H -0.5177 0.3243 -0.2374
loop_
_geom_bond_atom_site_label_1
_geom_bond_atom_site_label_2
_geom_bond_site_symmetry_1
_geom_bond_site_symmetry_2
O1 C10 1_555 1_555
O2 C17 1_555 1_555
O3 C18 1_555 1_555
N1 N2 1_555 1_555
N2 C10 1_555 1_555
C1 N1 1_555 1_555
H1 C1 1_555 1_555
C2 C1 1_555 1_555
H2 C2 1_555 1_555
H3 C2 1_555 1_555
C3 C2 1_555 1_555
H4 C3 1_555 1_555
C4 C3 1_555 1_555
H5 C4 1_555 1_555
H6 C4 1_555 1_555
C5 C4 1_555 1_555
H7 C5 1_555 1_555
H8 C5 1_555 1_555
C6 C1 1_555 1_555
C7 C3 1_555 1_555
C8 C7 1_555 1_555
H9 C8 1_555 1_555
H10 C8 1_555 1_555
H11 C8 1_555 1_555
C9 C7 1_555 1_555
H12 C9 1_555 1_555
H13 C9 1_555 1_555
H14 C9 1_555 1_555
C10 C6 1_555 1_555
C11 N2 1_555 1_555
C12 C11 1_555 1_555
H15 C12 1_555 1_555
C13 C12 1_555 1_555
H16 C13 1_555 1_555
C14 C13 1_555 1_555
H17 C14 1_555 1_555
C15 C14 1_555 1_555
H18 C15 1_555 1_555
C16 C11 1_555 1_555
H19 C16 1_555 1_555
C17 N1 1_555 1_555
C18 C17 1_555 1_555
C19 C18 1_555 1_555
H20 C19 1_555 1_555
H21 C19 1_555 1_555
H22 C19 1_555 1_555
C5 C6 1_555 1_555
C6 C7 1_555 1_555
C15 C16 1_555 1_555

#END
