
#######################################################################
#
#                 Cambridge Crystallographic Data Centre
#                                CCDC 
#
#######################################################################
#
# If this CIF has been generated from an entry in the Cambridge 
# Structural Database, then it will include bibliographic, chemical, 
# crystal, experimental, refinement or atomic coordinate data resulting 
# from the CCDC's data processing and validation procedures.
#
#######################################################################

data_OCULOO
_chemical_formula_moiety         'C23 H30 N2 O3'
_chemical_name_systematic        
4-(3-Hydroxyhex-5-en-3-oyl)-10,10-dimethyl-3-phenyl-3,4-diazatricyclo[5.2.1.0^1,5^]decan-2-one
_symmetry_cell_setting           orthorhombic
_symmetry_space_group_name_H-M   'P 21 21 21'
_symmetry_Int_Tables_number      19
_space_group_name_Hall           'P 2ac 2ab'
loop_
_symmetry_equiv_pos_site_id
_symmetry_equiv_pos_as_xyz
1 x,y,z
2 1/2-x,-y,1/2+z
3 1/2+x,1/2-y,-z
4 -x,1/2+y,1/2-z
_cell_length_a                   10.2110(4)
_cell_length_b                   10.9050(5)
_cell_length_c                   18.8420(11)
_cell_angle_alpha                90
_cell_angle_beta                 90
_cell_angle_gamma                90
_cell_volume                     2098.07
_exptl_crystal_colour            colorless
_exptl_crystal_description       prism
_cell_formula_units_Z            4
loop_
_atom_site_label
_atom_site_type_symbol
_atom_site_fract_x
_atom_site_fract_y
_atom_site_fract_z
O1 O 0.3330(3) 0.2505(3) 0.11697(16)
O2 O 0.3292(3) 0.6407(3) 0.02263(16)
O3 O -0.0157(3) 0.6659(3) 0.01372(19)
H1 H -0.0288 0.5835 -0.0027
N1 N 0.2816(3) 0.4539(3) 0.10023(18)
N2 N 0.1719(3) 0.5260(3) 0.07659(17)
C1 C 0.2533(4) 0.3300(4) 0.1017(2)
C2 C 0.1102(4) 0.3162(4) 0.0888(2)
C3 C 0.0461(5) 0.2170(5) 0.0441(3)
H2 H 0.0737 0.1348 0.0546
H3 H 0.0546 0.2320 -0.0058
C4 C -0.1009(4) 0.2331(5) 0.0653(3)
H4 H -0.1385 0.1579 0.0822
H5 H -0.1534 0.2650 0.0273
C5 C -0.0969(4) 0.3279(4) 0.1252(3)
H6 H -0.1739 0.3197 0.1540
C6 C -0.0754(4) 0.4558(5) 0.0913(3)
H7 H -0.0716 0.5220 0.1249
H8 H -0.1375 0.4754 0.0547
C7 C 0.0635(4) 0.4390(4) 0.0589(2)
H9 H 0.0569 0.4320 0.0083
C8 C 0.0355(4) 0.3035(4) 0.1620(2)
C9 C 0.0783(5) 0.3980(5) 0.2174(2)
H10 H 0.1614 0.3748 0.2371
H11 H 0.0140 0.4012 0.2547
H12 H 0.0856 0.4772 0.1957
C10 C 0.0456(5) 0.1780(4) 0.1958(3)
H13 H 0.0203 0.1151 0.1629
H14 H -0.0112 0.1756 0.2364
H15 H 0.1344 0.1645 0.2107
C11 C 0.3761(4) 0.5092(4) 0.1467(2)
C12 C 0.5015(4) 0.4622(5) 0.1507(2)
H16 H 0.5258 0.3957 0.1200
C13 C 0.5892(4) 0.5127(5) 0.1976(2)
H17 H 0.6755 0.4785 0.2018
C14 C 0.5569(5) 0.6098(5) 0.2400(2)
H18 H 0.6182 0.6449 0.2729
C15 C 0.4328(4) 0.6591(5) 0.2343(2)
H19 H 0.4089 0.7284 0.2629
C16 C 0.3429(4) 0.6089(5) 0.1884(2)
H20 H 0.2563 0.6424 0.1844
C17 C 0.2115(4) 0.6196(4) 0.0306(2)
C18 C 0.1121(4) 0.7043(4) -0.0045(3)
C19 C 0.1315(5) 0.6969(5) -0.0860(3)
H21 H 0.0674 0.7481 -0.1087
H22 H 0.2177 0.7266 -0.0968
C20 C 0.1175(6) 0.5716(6) -0.1198(3)
H23 H 0.1313 0.5736 -0.1701
H24 H 0.0314 0.5406 -0.1099
H25 H 0.1816 0.5191 -0.0981
C21 C 0.1365(4) 0.8360(4) 0.0206(3)
H26 H 0.2237 0.8597 0.0076
H27 H 0.0746 0.8900 -0.0016
C22 C 0.1228(6) 0.8526(5) 0.0978(3)
H28 H 0.0444 0.8248 0.1208
C23 C 0.2120(6) 0.8979(6) 0.1370(4)
H29 H 0.1977 0.9031 0.1873
H30 H 0.2925 0.9272 0.1169
loop_
_geom_bond_atom_site_label_1
_geom_bond_atom_site_label_2
_geom_bond_site_symmetry_1
_geom_bond_site_symmetry_2
O1 C1 1_555 1_555
O2 C17 1_555 1_555
O3 H1 1_555 1_555
N1 N2 1_555 1_555
N2 C7 1_555 1_555
C1 N1 1_555 1_555
C2 C1 1_555 1_555
C3 C2 1_555 1_555
H2 C3 1_555 1_555
H3 C3 1_555 1_555
C4 C3 1_555 1_555
H4 C4 1_555 1_555
H5 C4 1_555 1_555
C5 C4 1_555 1_555
H6 C5 1_555 1_555
C6 C5 1_555 1_555
H7 C6 1_555 1_555
H8 C6 1_555 1_555
C7 C2 1_555 1_555
H9 C7 1_555 1_555
C8 C2 1_555 1_555
C9 C8 1_555 1_555
H10 C9 1_555 1_555
H11 C9 1_555 1_555
H12 C9 1_555 1_555
C10 C8 1_555 1_555
H13 C10 1_555 1_555
H14 C10 1_555 1_555
H15 C10 1_555 1_555
C11 N1 1_555 1_555
C12 C11 1_555 1_555
H16 C12 1_555 1_555
C13 C12 1_555 1_555
H17 C13 1_555 1_555
C14 C13 1_555 1_555
H18 C14 1_555 1_555
C15 C14 1_555 1_555
H19 C15 1_555 1_555
C16 C11 1_555 1_555
H20 C16 1_555 1_555
C17 N2 1_555 1_555
C18 O3 1_555 1_555
C19 C18 1_555 1_555
H21 C19 1_555 1_555
H22 C19 1_555 1_555
C20 C19 1_555 1_555
H23 C20 1_555 1_555
H24 C20 1_555 1_555
H25 C20 1_555 1_555
C21 C18 1_555 1_555
H26 C21 1_555 1_555
H27 C21 1_555 1_555
C22 C21 1_555 1_555
H28 C22 1_555 1_555
C23 C22 1_555 1_555
H29 C23 1_555 1_555
H30 C23 1_555 1_555
C5 C8 1_555 1_555
C6 C7 1_555 1_555
C15 C16 1_555 1_555
C17 C18 1_555 1_555

#END
