
#######################################################################
#
#                 Cambridge Crystallographic Data Centre
#                                CCDC 
#
#######################################################################
#
# If this CIF has been generated from an entry in the Cambridge 
# Structural Database, then it will include bibliographic, chemical, 
# crystal, experimental, refinement or atomic coordinate data resulting 
# from the CCDC's data processing and validation procedures.
#
#######################################################################

data_OCUXUI
_chemical_formula_moiety         'C36 H54 O12,C12 H12 N2 2+,2(F6 P1 1-),H2 O1'
_chemical_name_systematic        
"6,7-dihydrodipyrido[1,2-a:2',1'-c]pyrazine-5,8-di-ium bis(hexafluorophosphate) 4,7,10,13,16,22,25,28,31,34,38,45-dodecaoxatetracyclo[17.17.10.1^3,35^.1^17,21^]octatetraconta-1,3(47),17(48),18,20,35-hexaene monohydrate"
_symmetry_cell_setting           monoclinic
_symmetry_space_group_name_H-M   'P 21/n'
_symmetry_Int_Tables_number      14
_space_group_name_Hall           '-P 2yn'
loop_
_symmetry_equiv_pos_site_id
_symmetry_equiv_pos_as_xyz
1 x,y,z
2 1/2-x,1/2+y,1/2-z
3 -x,-y,-z
4 1/2+x,1/2-y,1/2+z
_cell_length_a                   12.1514(18)
_cell_length_b                   21.513(3)
_cell_length_c                   20.837(3)
_cell_angle_alpha                90
_cell_angle_beta                 90.009(2)
_cell_angle_gamma                90
_cell_volume                     5447.06
_exptl_crystal_colour            yellow
_exptl_crystal_description       block
_cell_formula_units_Z            4
loop_
_atom_site_label
_atom_site_type_symbol
_atom_site_fract_x
_atom_site_fract_y
_atom_site_fract_z
C1 C 0.6402(5) 0.8934(3) 0.6551(3)
H1 H 0.6452 0.9318 0.6756
C2 C 0.5944(6) 0.8897(4) 0.5956(4)
H2 H 0.5679 0.9255 0.5757
C3 C 0.5871(6) 0.8328(5) 0.5643(4)
H3 H 0.5563 0.8301 0.5235
C4 C 0.6273(5) 0.7793(4) 0.5956(3)
H4 H 0.6227 0.7406 0.5757
C5 C 0.6735(4) 0.7848(3) 0.6560(3)
C6 C 0.7146(4) 0.7307(3) 0.6920(3)
C7 C 0.6881(6) 0.6703(3) 0.6751(4)
H5 H 0.6436 0.6629 0.6396
C8 C 0.7274(7) 0.6208(4) 0.7108(4)
H6 H 0.7106 0.5802 0.6991
C9 C 0.7907(6) 0.6321(3) 0.7631(5)
H7 H 0.8167 0.5993 0.7879
C10 C 0.8161(5) 0.6923(3) 0.7793(3)
H8 H 0.8594 0.7002 0.8152
C11 C 0.8140(5) 0.8041(3) 0.7595(3)
H9 H 0.8393 0.8059 0.8036
H10 H 0.8744 0.8164 0.7318
C12 C 0.7219(5) 0.8468(3) 0.7509(3)
H11 H 0.7461 0.8890 0.7591
H12 H 0.6642 0.8368 0.7813
N1 N 0.6780(4) 0.8423(2) 0.6844(2)
N2 N 0.7791(4) 0.7399(2) 0.7437(2)
C13 C 0.4529(5) 0.7820(3) 0.1034(3)
C14 C 0.4381(5) 0.8430(3) 0.0827(3)
H13 H 0.4655 0.8758 0.1069
C15 C 0.3827(4) 0.8545(3) 0.0263(3)
C16 C 0.3432(5) 0.8048(3) -0.0107(3)
H14 H 0.3064 0.8123 -0.0491
C17 C 0.3595(4) 0.7437(3) 0.0106(3)
C18 C 0.4144(4) 0.7318(3) 0.0683(3)
H15 H 0.4249 0.6913 0.0826
C19 C -0.0318(4) 0.7779(3) 0.2654(3)
C20 C -0.0741(4) 0.7333(3) 0.2241(3)
H16 H -0.0668 0.6912 0.2334
C21 C -0.1271(4) 0.7523(3) 0.1689(3)
C22 C -0.1381(4) 0.8153(3) 0.1549(3)
H17 H -0.1697 0.8278 0.1164
C23 C -0.1020(4) 0.8590(3) 0.1983(3)
C24 C -0.0486(4) 0.8413(3) 0.2538(3)
H18 H -0.0242 0.8709 0.2830
C25 C 0.5674(5) 0.8135(3) 0.1918(3)
H19 H 0.5193 0.8454 0.2089
H20 H 0.6180 0.8327 0.1618
C26 C 0.6298(5) 0.7830(4) 0.2450(3)
H21 H 0.6640 0.7452 0.2293
H22 H 0.6876 0.8106 0.2599
C27 C 0.6078(6) 0.7319(4) 0.3445(4)
H23 H 0.6834 0.7452 0.3501
H24 H 0.6086 0.6889 0.3306
C28 C 0.5518(5) 0.7361(4) 0.4045(3)
H25 H 0.5847 0.7063 0.4338
H26 H 0.5645 0.7772 0.4221
C29 C 0.3851(5) 0.7352(4) 0.4609(3)
H27 H 0.3942 0.7784 0.4735
H28 H 0.4194 0.7097 0.4937
C30 C 0.2707(6) 0.7213(4) 0.4589(3)
H29 H 0.2616 0.6768 0.4539
H30 H 0.2377 0.7330 0.4995
C31 C 0.0995(5) 0.7560(4) 0.4217(3)
H31 H 0.0871 0.7757 0.4629
H32 H 0.0669 0.7148 0.4228
C32 C 0.0469(6) 0.7940(4) 0.3690(3)
H33 H -0.0217 0.8119 0.3840
H34 H 0.0955 0.8276 0.3564
C33 C -0.1906(5) 0.6495(3) 0.1438(3)
H35 H -0.2355 0.6482 0.1823
H36 H -0.1215 0.6285 0.1526
C34 C -0.2499(6) 0.6179(3) 0.0887(3)
H37 H -0.2776 0.5777 0.1022
H38 H -0.3116 0.6431 0.0747
C35 C -0.2158(6) 0.5780(4) -0.0130(4)
H39 H -0.2316 0.5360 0.0010
H40 H -0.2852 0.5969 -0.0254
C36 C -0.1504(9) 0.5747(6) -0.0664(4)
H41 H -0.1721 0.5370 -0.0886
H42 H -0.1728 0.6089 -0.0937
C37 C 0.0172(8) 0.5710(5) -0.1171(5)
H43 H 0.0084 0.6092 -0.1412
H44 H -0.0116 0.5378 -0.1438
C38 C 0.1290(6) 0.5608(4) -0.1110(4)
H45 H 0.1640 0.5696 -0.1519
H46 H 0.1410 0.5171 -0.1017
C39 C 0.2974(5) 0.5945(3) -0.0649(3)
H47 H 0.3228 0.6083 -0.1067
H48 H 0.3221 0.5521 -0.0585
C40 C 0.3430(5) 0.6348(3) -0.0146(3)
H49 H 0.3116 0.6235 0.0266
H50 H 0.4220 0.6291 -0.0122
C41 C -0.1227(5) 0.9265(3) 0.1864(3)
H51 H -0.2012 0.9349 0.1868
H52 H -0.0881 0.9514 0.2195
C42 C 0.3676(6) 0.9189(3) 0.0029(3)
H53 H 0.4348 0.9423 0.0098
H54 H 0.3531 0.9182 -0.0429
C43 C 0.3023(8) 1.0220(5) 0.0391(6)
H55 H 0.3797 1.0311 0.0457
H56 H 0.2786 1.0425 0.0000
C44 C 0.2371(6) 1.0442(3) 0.0940(4)
H57 H 0.2596 1.0864 0.1038
H58 H 0.2548 1.0187 0.1310
C45 C 0.1140(5) 1.0435(3) 0.0848(3)
H59 H 0.0932 1.0761 0.0550
H60 H 0.0920 1.0040 0.0665
C46 C 0.0556(7) 1.0532(3) 0.1473(4)
H61 H 0.0765 1.0930 0.1655
H62 H 0.0761 1.0208 0.1774
C47 C -0.0781(7) 1.0515(4) 0.1346(4)
H63 H -0.1147 1.0537 0.1759
H64 H -0.0980 1.0887 0.1109
C48 C -0.1222(8) 0.9979(4) 0.1000(4)
H65 H -0.2017 0.9971 0.1041
H66 H -0.1042 1.0014 0.0548
O1 O 0.5037(4) 0.76630(19) 0.15992(19)
O2 O 0.5578(3) 0.7686(2) 0.29677(18)
O3 O 0.4398(4) 0.7257(2) 0.4031(2)
O4 O 0.2148(3) 0.7513(2) 0.4095(2)
O5 O 0.0271(3) 0.75443(19) 0.3165(2)
O6 O -0.1708(3) 0.71214(18) 0.12523(19)
O7 O -0.1746(3) 0.6107(2) 0.0387(2)
O8 O -0.0475(5) 0.5750(4) -0.0668(3)
O9 O 0.1815(3) 0.5970(2) -0.0624(2)
O10 O 0.3190(3) 0.69808(19) -0.02818(19)
O11 O 0.2838(5) 0.9475(3) 0.0331(4)
O12 O -0.0772(5) 0.9412(3) 0.1250(3)
F1 F 0.9403(5) 1.0472(3) 0.6213(4)
F2 F 1.0068(4) 0.9565(3) 0.5858(3)
F3 F 1.0416(5) 0.9895(3) 0.6792(3)
F4 F 0.8603(5) 0.9987(3) 0.6998(3)
F5 F 0.8281(4) 0.9691(2) 0.5992(2)
F6 F 0.9215(6) 0.9101(3) 0.6653(4)
P1 P 0.93498(15) 0.97770(8) 0.64326(9)
F7 F 0.4020(6) 1.0348(3) 0.7726(3)
F8 F 0.4641(6) 1.0060(3) 0.8646(3)
F9 F 0.5698(4) 1.0049(3) 0.7783(3)
F10 F 0.4541(5) 0.9457(4) 0.7300(3)
F11 F 0.3467(4) 0.9447(3) 0.8166(3)
F12 F 0.5193(5) 0.9190(3) 0.8257(4)
P2 P 0.45865(16) 0.97532(9) 0.79836(9)
H67 H 0.133(4) 0.895(3) 0.049(3)
H68 H 0.035(5) 0.892(3) 0.071(3)
O13 O 0.0745(5) 0.8748(2) 0.0427(3)
loop_
_geom_bond_atom_site_label_1
_geom_bond_atom_site_label_2
_geom_bond_site_symmetry_1
_geom_bond_site_symmetry_2
C1 H1 1_555 1_555
C2 C1 1_555 1_555
H2 C2 1_555 1_555
C3 C2 1_555 1_555
H3 C3 1_555 1_555
C4 C3 1_555 1_555
H4 C4 1_555 1_555
C5 C4 1_555 1_555
C6 C5 1_555 1_555
C7 C6 1_555 1_555
H5 C7 1_555 1_555
C8 C7 1_555 1_555
H6 C8 1_555 1_555
C9 C8 1_555 1_555
H7 C9 1_555 1_555
C10 C9 1_555 1_555
H8 C10 1_555 1_555
C11 H9 1_555 1_555
H10 C11 1_555 1_555
C12 C11 1_555 1_555
H11 C12 1_555 1_555
H12 C12 1_555 1_555
N1 C1 1_555 1_555
N2 C6 1_555 1_555
C13 C14 1_555 1_555
C14 H13 1_555 1_555
C15 C14 1_555 1_555
C16 C15 1_555 1_555
H14 C16 1_555 1_555
C17 C16 1_555 1_555
C18 C13 1_555 1_555
H15 C18 1_555 1_555
C19 C20 1_555 1_555
C20 H16 1_555 1_555
C21 C20 1_555 1_555
C22 C21 1_555 1_555
H17 C22 1_555 1_555
C23 C22 1_555 1_555
C24 C19 1_555 1_555
H18 C24 1_555 1_555
C25 H19 1_555 1_555
H20 C25 1_555 1_555
C26 C25 1_555 1_555
H21 C26 1_555 1_555
H22 C26 1_555 1_555
C27 H23 1_555 1_555
H24 C27 1_555 1_555
C28 C27 1_555 1_555
H25 C28 1_555 1_555
H26 C28 1_555 1_555
C29 H27 1_555 1_555
H28 C29 1_555 1_555
C30 C29 1_555 1_555
H29 C30 1_555 1_555
H30 C30 1_555 1_555
C31 H31 1_555 1_555
H32 C31 1_555 1_555
C32 C31 1_555 1_555
H33 C32 1_555 1_555
H34 C32 1_555 1_555
C33 H35 1_555 1_555
H36 C33 1_555 1_555
C34 C33 1_555 1_555
H37 C34 1_555 1_555
H38 C34 1_555 1_555
C35 H39 1_555 1_555
H40 C35 1_555 1_555
C36 C35 1_555 1_555
H41 C36 1_555 1_555
H42 C36 1_555 1_555
C37 H43 1_555 1_555
H44 C37 1_555 1_555
C38 C37 1_555 1_555
H45 C38 1_555 1_555
H46 C38 1_555 1_555
C39 H47 1_555 1_555
H48 C39 1_555 1_555
C40 C39 1_555 1_555
H49 C40 1_555 1_555
H50 C40 1_555 1_555
C41 C23 1_555 1_555
H51 C41 1_555 1_555
H52 C41 1_555 1_555
C42 C15 1_555 1_555
H53 C42 1_555 1_555
H54 C42 1_555 1_555
C43 H55 1_555 1_555
H56 C43 1_555 1_555
C44 C43 1_555 1_555
H57 C44 1_555 1_555
H58 C44 1_555 1_555
C45 C44 1_555 1_555
H59 C45 1_555 1_555
H60 C45 1_555 1_555
C46 C45 1_555 1_555
H61 C46 1_555 1_555
H62 C46 1_555 1_555
C47 C46 1_555 1_555
H63 C47 1_555 1_555
H64 C47 1_555 1_555
C48 C47 1_555 1_555
H65 C48 1_555 1_555
H66 C48 1_555 1_555
O1 C13 1_555 1_555
O2 C26 1_555 1_555
O3 C28 1_555 1_555
O4 C30 1_555 1_555
O5 C19 1_555 1_555
O6 C21 1_555 1_555
O7 C34 1_555 1_555
O8 C36 1_555 1_555
O9 C38 1_555 1_555
O10 C17 1_555 1_555
O11 C42 1_555 1_555
O12 C41 1_555 1_555
F1 P1 1_555 1_555
F2 P1 1_555 1_555
F3 P1 1_555 1_555
F4 P1 1_555 1_555
F5 P1 1_555 1_555
F6 P1 1_555 1_555
F7 P2 1_555 1_555
F8 P2 1_555 1_555
F9 P2 1_555 1_555
F10 P2 1_555 1_555
F11 P2 1_555 1_555
F12 P2 1_555 1_555
H67 O13 1_555 1_555
H68 O13 1_555 1_555
C5 N1 1_555 1_555
C10 N2 1_555 1_555
C11 N2 1_555 1_555
C12 N1 1_555 1_555
C17 C18 1_555 1_555
C23 C24 1_555 1_555
C25 O1 1_555 1_555
C27 O2 1_555 1_555
C29 O3 1_555 1_555
C31 O4 1_555 1_555
C32 O5 1_555 1_555
C33 O6 1_555 1_555
C35 O7 1_555 1_555
C37 O8 1_555 1_555
C39 O9 1_555 1_555
C40 O10 1_555 1_555
C43 O11 1_555 1_555
C48 O12 1_555 1_555

#END
