
#######################################################################
#
#                 Cambridge Crystallographic Data Centre
#                                CCDC 
#
#######################################################################
#
# If this CIF has been generated from an entry in the Cambridge 
# Structural Database, then it will include bibliographic, chemical, 
# crystal, experimental, refinement or atomic coordinate data resulting 
# from the CCDC's data processing and validation procedures.
#
#######################################################################

data_ODAGUX
_chemical_formula_moiety         'C62 H72 F6 Mg1 O8 S2'
_chemical_name_systematic        
"bis(3,3'-di-t-butyl-2'-oxy-5,5',6,6'-tetramethylbiphenyl-2-yl 4-(trifluoromethyl)benzenesulfonatato)-magnesium"
_symmetry_cell_setting           monoclinic
_symmetry_space_group_name_H-M   'P 21/c'
_symmetry_Int_Tables_number      14
_space_group_name_Hall           '-P 2ybc'
loop_
_symmetry_equiv_pos_site_id
_symmetry_equiv_pos_as_xyz
1 x,y,z
2 -x,1/2+y,1/2-z
3 -x,-y,-z
4 x,1/2-y,1/2+z
_cell_length_a                   26.6914(9)
_cell_length_b                   11.4132(4)
_cell_length_c                   20.5863(7)
_cell_angle_alpha                90
_cell_angle_beta                 104.498(2)
_cell_angle_gamma                90
_cell_volume                     6071.59
_exptl_crystal_colour            colorless
_exptl_crystal_description       block
_cell_formula_units_Z            4
loop_
_atom_site_label
_atom_site_type_symbol
_atom_site_fract_x
_atom_site_fract_y
_atom_site_fract_z
Mg1 Mg 0.24774(4) 0.04374(9) 0.15899(5)
S1 S 0.32569(3) 0.28442(8) 0.16230(4)
S2 S 0.17085(3) 0.10005(8) 0.26297(4)
O1 O 0.30254(8) -0.05934(19) 0.19168(11)
O2 O 0.35597(8) 0.2836(2) 0.23810(11)
O3 O 0.29134(8) 0.1865(2) 0.14923(11)
O4 O 0.30406(12) 0.3965(2) 0.14506(15)
O5 O 0.19463(7) 0.05685(18) 0.07947(10)
O6 O 0.13647(8) -0.01280(19) 0.24697(10)
O7 O 0.21162(8) 0.0958(2) 0.22896(11)
O8 O 0.18571(10) 0.1139(3) 0.33358(11)
F1 F 0.5100(4) 0.3381(7) 0.0021(5)
F2 F 0.5354(2) 0.2014(9) 0.0538(3)
F3 F 0.4815(2) 0.1899(7) -0.0356(3)
F4 F -0.0136(2) 0.4661(5) 0.1179(5)
F5 F 0.0059(4) 0.5381(7) 0.1991(4)
F6 F 0.04235(18) 0.5721(4) 0.1294(4)
C1 C 0.35292(11) -0.0436(3) 0.19751(16)
C2 C 0.38000(12) -0.1098(3) 0.15904(17)
C3 C 0.43207(13) -0.0835(4) 0.1670(2)
H1 H 0.4502 -0.1271 0.1422
C4 C 0.45873(13) 0.0019(4) 0.2085(2)
C5 C 0.43294(13) 0.0629(3) 0.24916(19)
C6 C 0.38069(12) 0.0404(3) 0.24356(17)
C7 C 0.35408(12) 0.0958(3) 0.29182(16)
C8 C 0.34234(12) 0.2149(3) 0.28973(16)
C9 C 0.32391(12) 0.2749(3) 0.33837(17)
C10 C 0.31534(15) 0.2039(4) 0.38892(18)
H2 H 0.3025 0.2391 0.4221
C11 C 0.32440(17) 0.0852(4) 0.39385(18)
C12 C 0.34488(14) 0.0292(4) 0.34526(18)
C13 C 0.35398(14) -0.2101(3) 0.1146(2)
C14 C 0.30703(18) -0.1658(5) 0.0599(2)
H3 H 0.2835 -0.1255 0.0806
H4 H 0.2897 -0.2313 0.0347
H5 H 0.3187 -0.1132 0.0304
C15 C 0.3359(2) -0.3020(4) 0.1570(3)
H6 H 0.3650 -0.3296 0.1912
H7 H 0.3206 -0.3664 0.1290
H8 H 0.3108 -0.2681 0.1777
C16 C 0.3914(2) -0.2698(6) 0.0789(3)
H9 H 0.4211 -0.2979 0.1117
H10 H 0.4021 -0.2143 0.0500
H11 H 0.3742 -0.3344 0.0526
C17 C 0.31361(16) 0.4084(4) 0.3383(2)
C18 C 0.3027(2) 0.4474(5) 0.4055(3)
H12 H 0.2730 0.4064 0.4121
H13 H 0.2962 0.5302 0.4043
H14 H 0.3322 0.4298 0.4417
C19 C 0.2658(2) 0.4364(5) 0.2836(3)
H15 H 0.2370 0.3925 0.2909
H16 H 0.2715 0.4159 0.2408
H17 H 0.2585 0.5187 0.2844
C20 C 0.3602(2) 0.4782(5) 0.3303(3)
H18 H 0.3686 0.4559 0.2893
H19 H 0.3892 0.4623 0.3675
H20 H 0.3523 0.5603 0.3291
C21 C 0.3140(2) 0.0218(5) 0.4531(2)
H21 H 0.3004 0.0758 0.4801
H22 H 0.3457 -0.0114 0.4794
H23 H 0.2893 -0.0396 0.4376
C22 C 0.3573(2) -0.1000(4) 0.3497(2)
H24 H 0.3706 -0.1225 0.3124
H25 H 0.3264 -0.1438 0.3488
H26 H 0.3828 -0.1158 0.3908
C23 C 0.46277(16) 0.1506(4) 0.3002(2)
H27 H 0.4980 0.1545 0.2969
H28 H 0.4621 0.1260 0.3446
H29 H 0.4470 0.2265 0.2913
C24 C 0.51527(15) 0.0258(5) 0.2102(3)
H30 H 0.5283 0.0872 0.2418
H31 H 0.5179 0.0494 0.1664
H32 H 0.5352 -0.0441 0.2234
C25 C 0.37531(13) 0.2670(3) 0.12171(17)
C26 C 0.4065(2) 0.3597(6) 0.1207(3)
H33 H 0.4019 0.4286 0.1426
C27 C 0.4455(3) 0.3522(8) 0.0869(4)
H34 H 0.4669 0.4162 0.0862
C28 C 0.45230(19) 0.2517(7) 0.0549(3)
C29 C 0.4198(2) 0.1596(5) 0.0547(2)
H35 H 0.4240 0.0911 0.0322
C30 C 0.38051(17) 0.1670(4) 0.0880(2)
H36 H 0.3581 0.1044 0.0872
C31 C 0.4939(3) 0.2296(13) 0.0190(4)
C32 C 0.14426(10) 0.0756(3) 0.07182(13)
C33 C 0.11713(11) 0.1637(3) 0.02884(13)
C34 C 0.06568(12) 0.1811(3) 0.02957(15)
H37 H 0.0481 0.2427 0.0042
C35 C 0.03865(11) 0.1134(3) 0.06545(16)
C36 C 0.06386(11) 0.0203(3) 0.10312(15)
C37 C 0.11657(10) 0.0024(3) 0.10669(13)
C38 C 0.14359(11) -0.1014(3) 0.14331(14)
C39 C 0.14995(11) -0.1132(3) 0.21251(14)
C40 C 0.16319(13) -0.2154(3) 0.24856(16)
C41 C 0.17747(14) -0.3067(3) 0.21110(18)
H38 H 0.1882 -0.3771 0.2329
C42 C 0.17660(13) -0.2986(3) 0.14436(17)
C43 C 0.15810(11) -0.1967(3) 0.10853(15)
C44 C 0.14240(13) 0.2324(3) -0.01822(16)
C45 C 0.19151(16) 0.2953(4) 0.0191(2)
H39 H 0.1834 0.3495 0.0507
H40 H 0.2059 0.3372 -0.0124
H41 H 0.2162 0.2390 0.0426
C46 C 0.15569(17) 0.1457(4) -0.06850(19)
H42 H 0.1782 0.0859 -0.0446
H43 H 0.1727 0.1867 -0.0977
H44 H 0.1245 0.1105 -0.0946
C47 C 0.10528(17) 0.3250(4) -0.0585(2)
H45 H 0.0968 0.3812 -0.0282
H46 H 0.0742 0.2873 -0.0833
H47 H 0.1217 0.3640 -0.0890
C48 C 0.16288(17) -0.2346(4) 0.32301(19)
C49 C 0.1612(3) -0.3654(5) 0.3387(3)
H48 H 0.1308 -0.3997 0.3100
H49 H 0.1604 -0.3754 0.3847
H50 H 0.1914 -0.4031 0.3311
C50 C 0.1148(2) -0.1819(5) 0.3389(2)
H51 H 0.1135 -0.0994 0.3295
H52 H 0.1162 -0.1940 0.3855
H53 H 0.0845 -0.2190 0.3118
C51 C 0.2097(2) -0.1822(7) 0.3678(2)
H54 H 0.2113 -0.1004 0.3575
H55 H 0.2399 -0.2212 0.3613
H56 H 0.2081 -0.1909 0.4137
C52 C 0.19392(17) -0.4023(3) 0.1093(2)
H57 H 0.1908 -0.3831 0.0630
H58 H 0.1726 -0.4688 0.1120
H59 H 0.2293 -0.4205 0.1306
C53 C 0.15197(13) -0.1920(3) 0.03394(16)
H60 H 0.1634 -0.2646 0.0190
H61 H 0.1723 -0.1287 0.0235
H62 H 0.1162 -0.1796 0.0117
C54 C 0.03397(13) -0.0616(4) 0.13763(19)
H63 H -0.0014 -0.0360 0.1290
H64 H 0.0492 -0.0610 0.1851
H65 H 0.0351 -0.1396 0.1207
C55 C -0.01790(13) 0.1406(4) 0.0607(2)
H66 H -0.0310 0.0866 0.0882
H67 H -0.0375 0.1332 0.0150
H68 H -0.0209 0.2191 0.0760
C56 C 0.12752(11) 0.2119(3) 0.22870(16)
C57 C 0.08342(14) 0.2255(4) 0.2518(2)
H69 H 0.0763 0.1733 0.2830
C58 C 0.05011(14) 0.3171(4) 0.2281(2)
H70 H 0.0201 0.3263 0.2427
C59 C 0.06154(14) 0.3946(3) 0.1828(2)
C60 C 0.10488(15) 0.3802(4) 0.1602(2)
H71 H 0.1118 0.4326 0.1290
C61 C 0.13872(13) 0.2892(3) 0.18302(18)
H72 H 0.1685 0.2803 0.1678
C62 C 0.0267(2) 0.4932(5) 0.1570(4)
loop_
_geom_bond_atom_site_label_1
_geom_bond_atom_site_label_2
_geom_bond_site_symmetry_1
_geom_bond_site_symmetry_2
Mg1 O1 1_555 1_555
S1 O2 1_555 1_555
S2 O6 1_555 1_555
O1 C1 1_555 1_555
O2 C8 1_555 1_555
O3 Mg1 1_555 1_555
O4 S1 1_555 1_555
O5 Mg1 1_555 1_555
O6 C39 1_555 1_555
O7 Mg1 1_555 1_555
O8 S2 1_555 1_555
F1 C31 1_555 1_555
F2 C31 1_555 1_555
F3 C31 1_555 1_555
F4 C62 1_555 1_555
F5 C62 1_555 1_555
F6 C62 1_555 1_555
C1 C2 1_555 1_555
C2 C3 1_555 1_555
C3 H1 1_555 1_555
C4 C3 1_555 1_555
C5 C4 1_555 1_555
C6 C1 1_555 1_555
C7 C6 1_555 1_555
C8 C7 1_555 1_555
C9 C8 1_555 1_555
C10 C9 1_555 1_555
H2 C10 1_555 1_555
C11 C10 1_555 1_555
C12 C7 1_555 1_555
C13 C2 1_555 1_555
C14 C13 1_555 1_555
H3 C14 1_555 1_555
H4 C14 1_555 1_555
H5 C14 1_555 1_555
C15 C13 1_555 1_555
H6 C15 1_555 1_555
H7 C15 1_555 1_555
H8 C15 1_555 1_555
C16 C13 1_555 1_555
H9 C16 1_555 1_555
H10 C16 1_555 1_555
H11 C16 1_555 1_555
C17 C9 1_555 1_555
C18 C17 1_555 1_555
H12 C18 1_555 1_555
H13 C18 1_555 1_555
H14 C18 1_555 1_555
C19 C17 1_555 1_555
H15 C19 1_555 1_555
H16 C19 1_555 1_555
H17 C19 1_555 1_555
C20 C17 1_555 1_555
H18 C20 1_555 1_555
H19 C20 1_555 1_555
H20 C20 1_555 1_555
C21 C11 1_555 1_555
H21 C21 1_555 1_555
H22 C21 1_555 1_555
H23 C21 1_555 1_555
C22 C12 1_555 1_555
H24 C22 1_555 1_555
H25 C22 1_555 1_555
H26 C22 1_555 1_555
C23 C5 1_555 1_555
H27 C23 1_555 1_555
H28 C23 1_555 1_555
H29 C23 1_555 1_555
C24 C4 1_555 1_555
H30 C24 1_555 1_555
H31 C24 1_555 1_555
H32 C24 1_555 1_555
C25 S1 1_555 1_555
C26 C25 1_555 1_555
H33 C26 1_555 1_555
C27 C26 1_555 1_555
H34 C27 1_555 1_555
C28 C27 1_555 1_555
C29 C28 1_555 1_555
H35 C29 1_555 1_555
C30 C25 1_555 1_555
H36 C30 1_555 1_555
C31 C28 1_555 1_555
C32 O5 1_555 1_555
C33 C32 1_555 1_555
C34 C33 1_555 1_555
H37 C34 1_555 1_555
C35 C34 1_555 1_555
C36 C35 1_555 1_555
C37 C32 1_555 1_555
C38 C37 1_555 1_555
C39 C38 1_555 1_555
C40 C39 1_555 1_555
C41 C40 1_555 1_555
H38 C41 1_555 1_555
C42 C41 1_555 1_555
C43 C38 1_555 1_555
C44 C33 1_555 1_555
C45 C44 1_555 1_555
H39 C45 1_555 1_555
H40 C45 1_555 1_555
H41 C45 1_555 1_555
C46 C44 1_555 1_555
H42 C46 1_555 1_555
H43 C46 1_555 1_555
H44 C46 1_555 1_555
C47 C44 1_555 1_555
H45 C47 1_555 1_555
H46 C47 1_555 1_555
H47 C47 1_555 1_555
C48 C40 1_555 1_555
C49 C48 1_555 1_555
H48 C49 1_555 1_555
H49 C49 1_555 1_555
H50 C49 1_555 1_555
C50 C48 1_555 1_555
H51 C50 1_555 1_555
H52 C50 1_555 1_555
H53 C50 1_555 1_555
C51 C48 1_555 1_555
H54 C51 1_555 1_555
H55 C51 1_555 1_555
H56 C51 1_555 1_555
C52 C42 1_555 1_555
H57 C52 1_555 1_555
H58 C52 1_555 1_555
H59 C52 1_555 1_555
C53 C43 1_555 1_555
H60 C53 1_555 1_555
H61 C53 1_555 1_555
H62 C53 1_555 1_555
C54 C36 1_555 1_555
H63 C54 1_555 1_555
H64 C54 1_555 1_555
H65 C54 1_555 1_555
C55 C35 1_555 1_555
H66 C55 1_555 1_555
H67 C55 1_555 1_555
H68 C55 1_555 1_555
C56 S2 1_555 1_555
C57 C56 1_555 1_555
H69 C57 1_555 1_555
C58 C57 1_555 1_555
H70 C58 1_555 1_555
C59 C58 1_555 1_555
C60 C59 1_555 1_555
H71 C60 1_555 1_555
C61 C56 1_555 1_555
H72 C61 1_555 1_555
C62 C59 1_555 1_555
S1 O3 1_555 1_555
S2 O7 1_555 1_555
C5 C6 1_555 1_555
C11 C12 1_555 1_555
C29 C30 1_555 1_555
C36 C37 1_555 1_555
C42 C43 1_555 1_555
C60 C61 1_555 1_555

#END
