
#######################################################################
#
#                 Cambridge Crystallographic Data Centre
#                                CCDC 
#
#######################################################################
#
# If this CIF has been generated from an entry in the Cambridge 
# Structural Database, then it will include bibliographic, chemical, 
# crystal, experimental, refinement or atomic coordinate data resulting 
# from the CCDC's data processing and validation procedures.
#
#######################################################################

data_ODAQER
_chemical_formula_moiety         'C12 H28 N1 1+,Br9 1-'
_chemical_name_systematic        'Tripropylammonium nonabromide'
_symmetry_cell_setting           tetragonal
_symmetry_space_group_name_H-M   'I -4'
_symmetry_Int_Tables_number      82
_space_group_name_Hall           'I -4'
loop_
_symmetry_equiv_pos_site_id
_symmetry_equiv_pos_as_xyz
1 x,y,z
2 y,-x,-z
3 -x,-y,z
4 -y,x,-z
5 1/2+x,1/2+y,1/2+z
6 1/2+y,1/2-x,1/2-z
7 1/2-x,1/2-y,1/2+z
8 1/2-y,1/2+x,1/2-z
_cell_length_a                   12.112(3)
_cell_length_b                   12.112(3)
_cell_length_c                   8.666(2)
_cell_angle_alpha                90
_cell_angle_beta                 90
_cell_angle_gamma                90
_cell_volume                     1271.31
_exptl_crystal_colour            orange
_exptl_crystal_description       block
_cell_formula_units_Z            2
loop_
_atom_site_label
_atom_site_type_symbol
_atom_site_fract_x
_atom_site_fract_y
_atom_site_fract_z
Br1 Br 0.32089(5) 0.85699(5) 0.74748(9)
Br2 Br 0.5000 0.5000 0.5000
Br3 Br 0.40363(4) 0.69913(4) 0.64036(8)
Br1A Br 0.85699(5) 0.67911(5) 0.25252(9)
Br1B Br 0.67911(5) 0.14301(5) 0.74748(9)
Br1C Br 0.14301(5) 0.32089(5) 0.25252(9)
Br3A Br 0.69913(4) 0.59637(4) 0.35964(8)
Br3B Br 0.59637(4) 0.30087(4) 0.64036(8)
Br3C Br 0.30087(4) 0.40363(4) 0.35964(8)
N1 N 1.0000 0.5000 0.7500
C1 C 0.8997(4) 0.5150(4) 0.8565(8)
H1 H 0.8923 0.4481 0.9214
H2 H 0.9143 0.5780 0.9263
C2 C 0.7910(4) 0.5349(4) 0.7752(8)
H3 H 0.7778 0.4760 0.6982
H4 H 0.7933 0.6066 0.7203
C3 C 0.6980(4) 0.5357(5) 0.8941(8)
H5 H 0.7103 0.5957 0.9680
H6 H 0.6967 0.4650 0.9489
H7 H 0.6272 0.5470 0.8416
C1B C 1.1003(4) 0.4850(4) 0.8565(8)
C1E C 1.0150(4) 0.6003(4) 0.6435(8)
C1G C 0.9850(4) 0.3997(4) 0.6435(8)
H1B H 1.1077 0.5519 0.9214
H1E H 0.9481 0.6077 0.5786
H1G H 1.0519 0.3923 0.5786
H2B H 1.0857 0.4220 0.9263
H2E H 1.0780 0.5857 0.5737
H2G H 0.9220 0.4143 0.5737
C2B C 1.2090(4) 0.4651(4) 0.7752(8)
C2E C 1.0349(4) 0.7090(4) 0.7248(8)
C2G C 0.9651(4) 0.2910(4) 0.7248(8)
H3B H 1.2222 0.5240 0.6982
H3E H 0.9760 0.7222 0.8018
H3G H 1.0240 0.2778 0.8018
H4B H 1.2067 0.3934 0.7203
H4E H 1.1066 0.7067 0.7797
H4G H 0.8934 0.2933 0.7797
C3B C 1.3020(4) 0.4643(5) 0.8941(8)
C3E C 1.0357(5) 0.8020(4) 0.6059(8)
C3G C 0.9643(5) 0.1980(4) 0.6059(8)
H5B H 1.2897 0.4043 0.9680
H5E H 1.0957 0.7897 0.5320
H5G H 0.9043 0.2103 0.5320
H6B H 1.3033 0.5350 0.9489
H6E H 0.9650 0.8033 0.5511
H6G H 1.0350 0.1967 0.5511
H7B H 1.3728 0.4530 0.8416
H7E H 1.0470 0.8728 0.6584
H7G H 0.9530 0.1272 0.6584
loop_
_geom_bond_atom_site_label_1
_geom_bond_atom_site_label_2
_geom_bond_site_symmetry_1
_geom_bond_site_symmetry_2
Br1 Br3 1_555 1_555
Br2 Br3 1_555 1_555
N1 C1 1_555 1_555
C1 H1 1_555 1_555
H2 C1 1_555 1_555
C2 C1 1_555 1_555
H3 C2 1_555 1_555
H4 C2 1_555 1_555
C3 C2 1_555 1_555
H5 C3 1_555 1_555
H6 C3 1_555 1_555
H7 C3 1_555 1_555
Br1A Br3A 1_555 1_555
Br1B Br3B 1_555 1_555
Br1C Br3C 1_555 1_555
Br3A Br2 1_555 1_555
Br3B Br2 1_555 1_555
Br3C Br2 1_555 1_555
C1B N1 1_555 1_555
C1E N1 1_555 1_555
C1G N1 1_555 1_555
H1B C1B 1_555 1_555
H1E C1E 1_555 1_555
H1G C1G 1_555 1_555
H2B C1B 1_555 1_555
H2E C1E 1_555 1_555
H2G C1G 1_555 1_555
C2B C1B 1_555 1_555
C2E C1E 1_555 1_555
C2G C1G 1_555 1_555
H3B C2B 1_555 1_555
H3E C2E 1_555 1_555
H3G C2G 1_555 1_555
H4B C2B 1_555 1_555
H4E C2E 1_555 1_555
H4G C2G 1_555 1_555
C3B C2B 1_555 1_555
C3E C2E 1_555 1_555
C3G C2G 1_555 1_555
H5B C3B 1_555 1_555
H5E C3E 1_555 1_555
H5G C3G 1_555 1_555
H6B C3B 1_555 1_555
H6E C3E 1_555 1_555
H6G C3G 1_555 1_555
H7B C3B 1_555 1_555
H7E C3E 1_555 1_555
H7G C3G 1_555 1_555

#END
