
#######################################################################
#
#                 Cambridge Crystallographic Data Centre
#                                CCDC 
#
#######################################################################
#
# If this CIF has been generated from an entry in the Cambridge 
# Structural Database, then it will include bibliographic, chemical, 
# crystal, experimental, refinement or atomic coordinate data resulting 
# from the CCDC's data processing and validation procedures.
#
#######################################################################

data_ODATEV
_chemical_formula_moiety         'C14 H12 Br1 N3 O1 S1,H2 O1'
_chemical_name_systematic        
'1-(8-bromo-2-(1,3-thiazol-5-yl)-2,5-dihydro-1H-1,5-benzodiazepin-3-yl)ethanone monohydrate'
_symmetry_cell_setting           monoclinic
_symmetry_space_group_name_H-M   'P 21/c'
_symmetry_Int_Tables_number      14
_space_group_name_Hall           '-P 2ybc'
loop_
_symmetry_equiv_pos_site_id
_symmetry_equiv_pos_as_xyz
1 x,y,z
2 -x,1/2+y,1/2-z
3 -x,-y,-z
4 x,1/2-y,1/2+z
_cell_length_a                   9.5080(8)
_cell_length_b                   17.5589(15)
_cell_length_c                   9.8251(9)
_cell_angle_alpha                90
_cell_angle_beta                 112.911(3)
_cell_angle_gamma                90
_cell_volume                     1510.9
_exptl_crystal_colour            yellow
_exptl_crystal_description       block
_cell_formula_units_Z            4
loop_
_atom_site_label
_atom_site_type_symbol
_atom_site_fract_x
_atom_site_fract_y
_atom_site_fract_z
Br1 Br 0.12102(5) 0.52384(3) 0.84454(4)
N1 N 0.3855(3) 0.63470(14) 0.5082(3)
H1 H 0.4009 0.6716 0.5762
N2 N 0.3288(3) 0.49422(14) 0.3342(3)
H2 H 0.3219 0.4475 0.3060
N3 N -0.0704(3) 0.68448(19) 0.1042(4)
O1 O 0.4861(3) 0.72681(14) 0.1848(3)
S1 S 0.08627(15) 0.74616(7) 0.35108(13)
C1 C -0.0788(5) 0.7319(2) 0.1999(5)
H3 H -0.1690 0.7570 0.1877
C2 C 0.0770(4) 0.65721(19) 0.1519(4)
H4 H 0.1048 0.6217 0.0966
C3 C 0.1789(4) 0.68355(17) 0.2803(4)
C4 C 0.3472(4) 0.66615(17) 0.3594(4)
H5 H 0.4013 0.7148 0.3720
C5 C 0.4017(3) 0.61716(18) 0.2646(3)
C6 C 0.3853(3) 0.54081(19) 0.2588(4)
H6 H 0.4181 0.5165 0.1923
C7 C 0.2785(4) 0.50662(17) 0.4501(3)
C8 C 0.3033(3) 0.57419(18) 0.5325(3)
C9 C 0.2535(4) 0.57728(19) 0.6473(4)
H7 H 0.2670 0.6220 0.7016
C10 C 0.1844(4) 0.5159(2) 0.6833(4)
C11 C 0.1597(4) 0.4493(2) 0.6040(4)
H8 H 0.1126 0.4079 0.6278
C12 C 0.2070(4) 0.44579(19) 0.4877(4)
H9 H 0.1905 0.4012 0.4327
C13 C 0.4691(4) 0.6566(2) 0.1761(4)
C14 C 0.5201(4) 0.6153(2) 0.0688(4)
H10 H 0.5653 0.6509 0.0237
H11 H 0.4336 0.5915 -0.0061
H12 H 0.5939 0.5771 0.1205
O2 O 0.7058(3) 0.65150(13) 0.8111(3)
H13 H 0.6437 0.6883 0.7779
H14 H 0.7694 0.6631 0.8970
loop_
_geom_bond_atom_site_label_1
_geom_bond_atom_site_label_2
_geom_bond_site_symmetry_1
_geom_bond_site_symmetry_2
Br1 C10 1_555 1_555
N1 H1 1_555 1_555
N2 H2 1_555 1_555
N3 C1 1_555 1_555
O1 C13 1_555 1_555
S1 C1 1_555 1_555
C1 H3 1_555 1_555
C2 N3 1_555 1_555
H4 C2 1_555 1_555
C3 S1 1_555 1_555
C4 N1 1_555 1_555
H5 C4 1_555 1_555
C5 C4 1_555 1_555
C6 N2 1_555 1_555
H6 C6 1_555 1_555
C7 N2 1_555 1_555
C8 N1 1_555 1_555
C9 C8 1_555 1_555
H7 C9 1_555 1_555
C10 C9 1_555 1_555
C11 C10 1_555 1_555
H8 C11 1_555 1_555
C12 C7 1_555 1_555
H9 C12 1_555 1_555
C13 C5 1_555 1_555
C14 C13 1_555 1_555
H10 C14 1_555 1_555
H11 C14 1_555 1_555
H12 C14 1_555 1_555
O2 H13 1_555 1_555
H14 O2 1_555 1_555
C2 C3 1_555 1_555
C3 C4 1_555 1_555
C5 C6 1_555 1_555
C7 C8 1_555 1_555
C11 C12 1_555 1_555

#END
