
#######################################################################
#
#                 Cambridge Crystallographic Data Centre
#                                CCDC 
#
#######################################################################
#
# If this CIF has been generated from an entry in the Cambridge 
# Structural Database, then it will include bibliographic, chemical, 
# crystal, experimental, refinement or atomic coordinate data resulting 
# from the CCDC's data processing and validation procedures.
#
#######################################################################

data_ODAVEV
_chemical_formula_moiety         'C8 H7 N3 O3'
_chemical_name_systematic        'Glyoxal 3-nitrophenylhydrazone'
_symmetry_cell_setting           monoclinic
_symmetry_space_group_name_H-M   'C c'
_symmetry_Int_Tables_number      9
_space_group_name_Hall           'C -2yc'
loop_
_symmetry_equiv_pos_site_id
_symmetry_equiv_pos_as_xyz
1 x,y,z
2 x,-y,1/2+z
3 1/2+x,1/2+y,z
4 1/2+x,1/2-y,1/2+z
_cell_length_a                   7.4737(4)
_cell_length_b                   19.7711(13)
_cell_length_c                   6.0262(4)
_cell_angle_alpha                90
_cell_angle_beta                 107.080(4)
_cell_angle_gamma                90
_cell_volume                     851.178
_exptl_crystal_colour            yellow
_exptl_crystal_description       lath
_cell_formula_units_Z            4
_exptl_crystal_recrystallization_method ethanol
loop_
_atom_site_label
_atom_site_type_symbol
_atom_site_fract_x
_atom_site_fract_y
_atom_site_fract_z
N1 N 0.2050(3) 0.15679(11) 0.1679(3)
N2 N 0.3161(3) 0.19066(11) 0.0702(4)
C1 C 0.2384(4) 0.22429(13) -0.1177(5)
C2 C 0.3675(4) 0.25897(14) -0.2160(5)
O1 O 0.3218(3) 0.29536(11) -0.3877(3)
C3 C 0.2813(4) 0.12344(13) 0.3786(4)
C4 C 0.4747(4) 0.12149(13) 0.4849(4)
C5 C 0.5377(4) 0.08816(14) 0.6942(4)
N3 N 0.7413(4) 0.08596(12) 0.8066(4)
O2 O 0.8425(3) 0.11907(12) 0.7197(3)
O3 O 0.8008(3) 0.05119(12) 0.9815(4)
C6 C 0.4212(4) 0.05643(14) 0.8030(5)
C7 C 0.2295(4) 0.05803(13) 0.6913(5)
C8 C 0.1600(4) 0.09135(13) 0.4822(5)
H1 H 0.0830 0.1607 0.1044
H2 H 0.1066 0.2260 -0.1859
H3 H 0.4975 0.2531 -0.1418
H4 H 0.5594 0.1424 0.4154
H5 H 0.4702 0.0344 0.9484
H6 H 0.1458 0.0360 0.7596
H7 H 0.0289 0.0924 0.4085
loop_
_geom_bond_atom_site_label_1
_geom_bond_atom_site_label_2
_geom_bond_site_symmetry_1
_geom_bond_site_symmetry_2
N1 N2 1_555 1_555
N2 C1 1_555 1_555
C1 C2 1_555 1_555
C2 O1 1_555 1_555
C3 N1 1_555 1_555
C4 C3 1_555 1_555
C5 C4 1_555 1_555
N3 C5 1_555 1_555
O2 N3 1_555 1_555
O3 N3 1_555 1_555
C6 C5 1_555 1_555
C7 C6 1_555 1_555
C8 C3 1_555 1_555
H1 N1 1_555 1_555
H2 C1 1_555 1_555
H3 C2 1_555 1_555
H4 C4 1_555 1_555
H5 C6 1_555 1_555
H6 C7 1_555 1_555
H7 C8 1_555 1_555
C7 C8 1_555 1_555

#END
