
#######################################################################
#
#                 Cambridge Crystallographic Data Centre
#                                CCDC 
#
#######################################################################
#
# If this CIF has been generated from an entry in the Cambridge 
# Structural Database, then it will include bibliographic, chemical, 
# crystal, experimental, refinement or atomic coordinate data resulting 
# from the CCDC's data processing and validation procedures.
#
#######################################################################

data_ODELEP
_chemical_formula_moiety         'C21 H26 N2 O3,H2 O1'
_chemical_name_systematic        
'10,10-Dimethyl-4-((2S)-2-hydroxypent-4-en-1-oyl)-3-phenyl-3,4-diazatricyclo[5.2.1.0^1,5^]decan-2-one monohydrate'
_symmetry_cell_setting           orthorhombic
_symmetry_space_group_name_H-M   'P 21 21 21'
_symmetry_Int_Tables_number      19
_space_group_name_Hall           'P 2ac 2ab'
loop_
_symmetry_equiv_pos_site_id
_symmetry_equiv_pos_as_xyz
1 x,y,z
2 1/2-x,-y,1/2+z
3 1/2+x,1/2-y,-z
4 -x,1/2+y,1/2-z
_cell_length_a                   9.6023(3)
_cell_length_b                   11.7053(4)
_cell_length_c                   17.4243(7)
_cell_angle_alpha                90
_cell_angle_beta                 90
_cell_angle_gamma                90
_cell_volume                     1958.45
_exptl_crystal_colour            colorless
_exptl_crystal_description       prism
_cell_formula_units_Z            4
_exptl_crystal_recrystallization_method 'hexanes/ethyl acetate'
loop_
_atom_site_label
_atom_site_type_symbol
_atom_site_fract_x
_atom_site_fract_y
_atom_site_fract_z
O1 O 0.7319(4) 0.3723(5) -0.1750(2)
H1 H 0.6983 0.4631 -0.1755
O2 O 0.7364(3) 0.2410(3) -0.04130(17)
O3 O 0.4449(3) 0.3407(3) 0.18553(17)
N1 N 0.5421(3) 0.3377(3) -0.00557(17)
N2 N 0.5506(3) 0.2971(3) 0.07080(18)
C1 C 0.474(3) 0.294(2) -0.3005(8)
H4 H 0.4607 0.3714 -0.2900
H5 H 0.4550 0.2658 -0.3492
C2 C 0.5062(13) 0.2459(12) -0.2626(6)
H6 H 0.5111 0.1748 -0.2862
C3 C 0.5549(9) 0.2247(6) -0.1813(3)
H7 H 0.6310 0.1717 -0.1848
H8 H 0.4805 0.1910 -0.1523
C4 C 0.6098(5) 0.3322(4) -0.1407(2)
H9 H 0.5398 0.3905 -0.1447
C5 C 0.6374(4) 0.3028(4) -0.0585(2)
C6 C 0.4548(4) 0.4404(3) -0.0075(2)
H10 H 0.3684 0.4171 -0.0304
C7 C 0.5068(5) 0.5507(4) -0.0463(3)
H11 H 0.5995 0.5393 -0.0655
H12 H 0.4459 0.5698 -0.0881
C8 C 0.4998(5) 0.6372(4) 0.0198(3)
H13 H 0.5389 0.7108 0.0085
C9 C 0.3453(5) 0.6522(4) 0.0429(3)
H14 H 0.3347 0.7199 0.0735
H15 H 0.2892 0.6587 -0.0025
C10 C 0.3123(5) 0.5420(4) 0.0885(3)
H16 H 0.2925 0.5620 0.1408
H17 H 0.2324 0.5054 0.0663
C11 C 0.4449(4) 0.4744(3) 0.0781(2)
C12 C 0.5609(5) 0.5701(4) 0.0871(3)
C13 C 0.5538(6) 0.6284(5) 0.1655(3)
H18 H 0.5919 0.5796 0.2045
H19 H 0.4589 0.6463 0.1778
H20 H 0.6072 0.6977 0.1628
C14 C 0.7100(5) 0.5308(5) 0.0763(3)
H21 H 0.7412 0.4888 0.1204
H22 H 0.7676 0.5970 0.0694
H23 H 0.7162 0.4831 0.0316
C15 C 0.4747(4) 0.3660(4) 0.1195(2)
C16 C 0.5737(4) 0.1794(4) 0.0865(3)
C17 C 0.6564(6) 0.1527(5) 0.1493(3)
H24 H 0.7010 0.2131 0.1773
C18 C 0.6718(8) 0.0371(7) 0.1683(4)
H25 H 0.7258 0.0149 0.2122
C19 C 0.6046(11) -0.0466(6) 0.1234(6)
H26 H 0.6170 -0.1251 0.1377
C20 C 0.5260(7) -0.0170(5) 0.0618(5)
H27 H 0.4871 -0.0777 0.0315
C21 C 0.5102(5) 0.0950(4) 0.0427(4)
H28 H 0.4525 0.1186 0.0007
O4 O 0.2044(14) 0.1010(11) -0.2835(11)
H2 H 0.1415 0.1105 -0.3259
H3 H 0.2857 0.1338 -0.2781
loop_
_geom_bond_atom_site_label_1
_geom_bond_atom_site_label_2
_geom_bond_site_symmetry_1
_geom_bond_site_symmetry_2
O1 H1 1_555 1_555
O2 C5 1_555 1_555
O3 C15 1_555 1_555
O4 H2 1_555 1_555
H3 O4 1_555 1_555
N1 N2 1_555 1_555
N2 C15 1_555 1_555
C1 H4 1_555 1_555
H5 C1 1_555 1_555
C2 C1 1_555 1_555
H6 C2 1_555 1_555
C3 C2 1_555 1_555
H7 C3 1_555 1_555
H8 C3 1_555 1_555
C4 O1 1_555 1_555
H9 C4 1_555 1_555
C5 N1 1_555 1_555
C6 N1 1_555 1_555
H10 C6 1_555 1_555
C7 C6 1_555 1_555
H11 C7 1_555 1_555
H12 C7 1_555 1_555
C8 C7 1_555 1_555
H13 C8 1_555 1_555
C9 C8 1_555 1_555
H14 C9 1_555 1_555
H15 C9 1_555 1_555
C10 C9 1_555 1_555
H16 C10 1_555 1_555
H17 C10 1_555 1_555
C11 C6 1_555 1_555
C12 C8 1_555 1_555
C13 C12 1_555 1_555
H18 C13 1_555 1_555
H19 C13 1_555 1_555
H20 C13 1_555 1_555
C14 C12 1_555 1_555
H21 C14 1_555 1_555
H22 C14 1_555 1_555
H23 C14 1_555 1_555
C15 C11 1_555 1_555
C16 N2 1_555 1_555
C17 C16 1_555 1_555
H24 C17 1_555 1_555
C18 C17 1_555 1_555
H25 C18 1_555 1_555
C19 C18 1_555 1_555
H26 C19 1_555 1_555
C20 C19 1_555 1_555
H27 C20 1_555 1_555
C21 C16 1_555 1_555
H28 C21 1_555 1_555
C3 C4 1_555 1_555
C4 C5 1_555 1_555
C10 C11 1_555 1_555
C11 C12 1_555 1_555
C20 C21 1_555 1_555

#END
