
#######################################################################
#
#                 Cambridge Crystallographic Data Centre
#                                CCDC 
#
#######################################################################
#
# If this CIF has been generated from an entry in the Cambridge 
# Structural Database, then it will include bibliographic, chemical, 
# crystal, experimental, refinement or atomic coordinate data resulting 
# from the CCDC's data processing and validation procedures.
#
#######################################################################

data_ODEPIX
_chemical_formula_moiety         'C15 H13 Cl1 N2 O3,H2 O1'
_chemical_name_systematic        
"(E)-4-Chloro-N'-(2-hydroxy-3-methoxybenzylidene)benzohydrazide monohydrate"
_symmetry_cell_setting           orthorhombic
_symmetry_space_group_name_H-M   'P 21 21 21'
_symmetry_Int_Tables_number      19
_space_group_name_Hall           'P 2ac 2ab'
loop_
_symmetry_equiv_pos_site_id
_symmetry_equiv_pos_as_xyz
1 x,y,z
2 1/2-x,-y,1/2+z
3 -x,1/2+y,1/2-z
4 1/2+x,1/2-y,-z
_cell_length_a                   4.8651(16)
_cell_length_b                   12.9403(17)
_cell_length_c                   22.884(3)
_cell_angle_alpha                90
_cell_angle_beta                 90
_cell_angle_gamma                90
_cell_volume                     1440.68
_exptl_crystal_colour            colorless
_exptl_crystal_description       block
_cell_formula_units_Z            4
_exptl_crystal_recrystallization_method ethanol
loop_
_atom_site_label
_atom_site_type_symbol
_atom_site_fract_x
_atom_site_fract_y
_atom_site_fract_z
Cl1 Cl -0.44005(19) 0.94535(6) 0.99650(3)
N1 N 0.5212(6) 0.89997(19) 0.78551(10)
H1 H 0.4895 0.9640 0.7930
N2 N 0.7123(6) 0.8731(2) 0.74363(11)
O1 O 0.4210(6) 0.73389(17) 0.80590(10)
O2 O 1.0116(6) 0.75187(16) 0.67217(9)
H2 H 0.9081 0.7627 0.6998
O3 O 1.3785(5) 0.73687(17) 0.59184(10)
C1 C 0.3841(8) 0.8254(3) 0.81471(14)
C2 C 0.1830(7) 0.8619(2) 0.85941(13)
C3 C 0.0707(8) 0.7873(2) 0.89629(13)
H5 H 0.1256 0.7188 0.8923
C4 C -0.1173(8) 0.8124(3) 0.93798(14)
H6 H -0.1894 0.7616 0.9623
C5 C -0.1999(7) 0.9138(3) 0.94387(12)
C6 C -0.0920(8) 0.9884(2) 0.90805(13)
H7 H -0.1482 1.0567 0.9121
C7 C 0.0972(7) 0.9631(2) 0.86649(13)
H8 H 0.1695 1.0145 0.8426
C8 C 0.8421(8) 0.9500(3) 0.72158(13)
H9 H 0.8010 1.0163 0.7346
C9 C 1.0492(7) 0.9369(2) 0.67743(12)
C10 C 1.1250(7) 0.8417(2) 0.65468(12)
C11 C 1.3243(7) 0.8360(3) 0.61088(13)
C12 C 1.4518(8) 0.9226(3) 0.59104(14)
H10 H 1.5860 0.9177 0.5622
C13 C 1.3812(9) 1.0186(3) 0.61392(15)
H11 H 1.4685 1.0780 0.6006
C14 C 1.1836(8) 1.0251(3) 0.65588(15)
H12 H 1.1363 1.0897 0.6707
C15 C 1.6082(8) 0.7249(3) 0.55397(15)
H13 H 1.7717 0.7478 0.5736
H14 H 1.5805 0.7654 0.5193
H15 H 1.6273 0.6534 0.5435
O4 O 0.5138(6) 0.62346(17) 0.70642(9)
H3 H 0.522(9) 0.662(2) 0.7362(9)
H4 H 0.404(7) 0.646(3) 0.6806(11)
loop_
_geom_bond_atom_site_label_1
_geom_bond_atom_site_label_2
_geom_bond_site_symmetry_1
_geom_bond_site_symmetry_2
Cl1 C5 1_555 1_555
N1 H1 1_555 1_555
N2 N1 1_555 1_555
O1 C1 1_555 1_555
O2 H2 1_555 1_555
O3 C11 1_555 1_555
O4 H3 1_555 1_555
H4 O4 1_555 1_555
C1 N1 1_555 1_555
C2 C1 1_555 1_555
C3 C2 1_555 1_555
H5 C3 1_555 1_555
C4 C3 1_555 1_555
H6 C4 1_555 1_555
C5 C4 1_555 1_555
C6 C5 1_555 1_555
H7 C6 1_555 1_555
C7 C2 1_555 1_555
H8 C7 1_555 1_555
C8 N2 1_555 1_555
H9 C8 1_555 1_555
C9 C8 1_555 1_555
C10 O2 1_555 1_555
C11 C10 1_555 1_555
C12 C11 1_555 1_555
H10 C12 1_555 1_555
C13 C12 1_555 1_555
H11 C13 1_555 1_555
C14 C9 1_555 1_555
H12 C14 1_555 1_555
C15 O3 1_555 1_555
H13 C15 1_555 1_555
H14 C15 1_555 1_555
H15 C15 1_555 1_555
C6 C7 1_555 1_555
C9 C10 1_555 1_555
C13 C14 1_555 1_555

#END
