
#######################################################################
#
#                 Cambridge Crystallographic Data Centre
#                                CCDC 
#
#######################################################################
#
# If this CIF has been generated from an entry in the Cambridge 
# Structural Database, then it will include bibliographic, chemical, 
# crystal, experimental, refinement or atomic coordinate data resulting 
# from the CCDC's data processing and validation procedures.
#
#######################################################################

data_ODIDAG
_chemical_compound_source        'Streptomyces rimosus'
_chemical_name_common            'Streptopyrrole acetone solvate'
_chemical_formula_moiety         'C14 H12 Cl1 N1 O4,C3 H6 O1'
_chemical_name_systematic        
'2-Chloro-6,8-dihydroxy-7-propyl-9H-pyrrolo(2,1-b)(1,3)benzoxazine-9-one acetone solvate'
_chemical_properties_biological  
'inhibits nitrogen regulator II histidine kinase from Escherichia coli, activity against a range of Gram-positive bacteria, Cryptococcus neoformans, strains of Candida and causes total inhibition of cell proliferation in a number of human cancer cell lines'
_symmetry_cell_setting           triclinic
_symmetry_space_group_name_H-M   'P -1'
_symmetry_Int_Tables_number      2
_space_group_name_Hall           '-P 1'
loop_
_symmetry_equiv_pos_site_id
_symmetry_equiv_pos_as_xyz
1 x,y,z
2 -x,-y,-z
_cell_length_a                   7.9947(1)
_cell_length_b                   9.4276(3)
_cell_length_c                   11.4359(3)
_cell_angle_alpha                82.623(1)
_cell_angle_beta                 83.393(1)
_cell_angle_gamma                85.427(1)
_cell_volume                     847.274
_exptl_crystal_colour            colorless
_exptl_crystal_description       block
_cell_formula_units_Z            2
loop_
_atom_site_label
_atom_site_type_symbol
_atom_site_fract_x
_atom_site_fract_y
_atom_site_fract_z
Cl1 Cl 0.4804(1) 0.9075(1) 0.7934(1)
C1 C 0.3807(3) 1.0384(2) 0.8745(2)
C2 C 0.4196(3) 1.1781(2) 0.8614(2)
N1 N 0.3112(2) 1.2438(2) 0.9461(2)
C3 C 0.3007(3) 1.3869(2) 0.9676(2)
O1 O 0.3903(2) 1.4736(2) 0.9051(1)
C4 C 0.1791(3) 1.4174(2) 1.0664(2)
C5 C 0.1548(3) 1.5573(2) 1.1020(2)
O2 O 0.2470(2) 1.6642(2) 1.0435(1)
C6 C 0.0359(3) 1.5900(2) 1.1954(2)
C7 C 0.0131(3) 1.7390(2) 1.2328(2)
C8 C 0.1081(3) 1.7561(2) 1.3382(2)
C9 C 0.0938(4) 1.9106(3) 1.3670(2)
C10 C -0.0605(3) 1.4789(2) 1.2541(2)
O3 O -0.1767(2) 1.5133(2) 1.3441(1)
C11 C -0.0414(3) 1.3393(2) 1.2219(2)
C12 C 0.0775(3) 1.3119(2) 1.1290(2)
O4 O 0.0904(2) 1.1740(2) 1.0979(1)
C13 C 0.2097(3) 1.1406(2) 1.0092(2)
C14 C 0.2478(3) 1.0129(2) 0.9667(2)
H1 H 0.5035(3) 1.2219(2) 0.8058(2)
H2 H 0.3128(22) 1.6324(6) 0.9888(14)
H3 H -0.1086(3) 1.7627(2) 1.2536(2)
H4 H 0.0526(3) 1.8085(2) 1.1647(2)
H5 H 0.0621(3) 1.6930(2) 1.4086(2)
H6 H 0.2286(3) 1.7254(2) 1.3202(2)
H7 H 0.1510(18) 1.9160(4) 1.4375(9)
H8 H -0.0255(4) 1.9426(6) 1.3822(14)
H9 H 0.1469(18) 1.9724(4) 1.2997(6)
H10 H -0.2348(22) 1.4430(10) 1.3686(15)
H11 H -0.1084(3) 1.2660(2) 1.2628(2)
H12 H 0.1966(3) 0.9253(2) 0.9929(2)
C15 C 0.6179(4) 0.5932(3) 0.6399(2)
C16 C 0.5250(3) 0.7005(2) 0.5592(2)
O5 O 0.3739(2) 0.6986(2) 0.5544(2)
C17 C 0.6263(4) 0.8108(3) 0.4831(2)
H13 H 0.5374(4) 0.5328(13) 0.6904(11)
H14 H 0.6798(19) 0.6431(3) 0.6896(1)
H15 H 0.6976(17) 0.5332(13) 0.5926(2)
H16 H 0.5521(5) 0.8744(12) 0.4338(12)
H17 H 0.7142(15) 0.7632(3) 0.4320(11)
H18 H 0.6787(19) 0.8672(13) 0.5335(2)
loop_
_geom_bond_atom_site_label_1
_geom_bond_atom_site_label_2
_geom_bond_site_symmetry_1
_geom_bond_site_symmetry_2
Cl1 C1 1_555 1_555
C1 C2 1_555 1_555
C2 N1 1_555 1_555
N1 C3 1_555 1_555
C3 O1 1_555 1_555
C4 C3 1_555 1_555
C5 C4 1_555 1_555
O2 C5 1_555 1_555
C6 C5 1_555 1_555
C7 C6 1_555 1_555
C8 C7 1_555 1_555
C9 C8 1_555 1_555
C10 C6 1_555 1_555
O3 C10 1_555 1_555
C11 C10 1_555 1_555
C12 C4 1_555 1_555
O4 C12 1_555 1_555
C13 N1 1_555 1_555
C14 C1 1_555 1_555
H1 C2 1_555 1_555
H2 O2 1_555 1_555
H3 C7 1_555 1_555
H4 C7 1_555 1_555
H5 C8 1_555 1_555
H6 C8 1_555 1_555
H7 C9 1_555 1_555
H8 C9 1_555 1_555
H9 C9 1_555 1_555
H10 O3 1_555 1_555
H11 C11 1_555 1_555
H12 C14 1_555 1_555
C15 C16 1_555 1_555
C16 O5 1_555 1_555
C17 C16 1_555 1_555
H13 C15 1_555 1_555
H14 C15 1_555 1_555
H15 C15 1_555 1_555
H16 C17 1_555 1_555
H17 C17 1_555 1_555
H18 C17 1_555 1_555
C11 C12 1_555 1_555
O4 C13 1_555 1_555
C13 C14 1_555 1_555

#END
