
#######################################################################
#
#                 Cambridge Crystallographic Data Centre
#                                CCDC 
#
#######################################################################
#
# If this CIF has been generated from an entry in the Cambridge 
# Structural Database, then it will include bibliographic, chemical, 
# crystal, experimental, refinement or atomic coordinate data resulting 
# from the CCDC's data processing and validation procedures.
#
#######################################################################

data_ODILIX
_chemical_formula_moiety         'C17 H17 F2 N1 O6 S1'
_chemical_name_systematic        
'Ethyl 1-cyclopropyl-6,7-difluoro-2-(methanesulfonyl)-8-methoxy-4-oxo-1,4-dihydroquinoline-3-carboxylate'
_symmetry_cell_setting           monoclinic
_symmetry_space_group_name_H-M   'P 21/c'
_symmetry_Int_Tables_number      14
_space_group_name_Hall           '-P 2ybc'
loop_
_symmetry_equiv_pos_site_id
_symmetry_equiv_pos_as_xyz
1 x,y,z
2 -x,1/2+y,1/2-z
3 -x,-y,-z
4 x,1/2-y,1/2+z
_cell_length_a                   24.528(5)
_cell_length_b                   7.1340(14)
_cell_length_c                   21.125(4)
_cell_angle_alpha                90
_cell_angle_beta                 114.89(3)
_cell_angle_gamma                90
_cell_volume                     3353.17
_exptl_crystal_colour            colorless
_exptl_crystal_description       plate
_chemical_melting_point          '177-178 deg.C'
_cell_formula_units_Z            8
_exptl_crystal_recrystallization_method 'ethyl acetate/hexanes'
loop_
_atom_site_label
_atom_site_type_symbol
_atom_site_fract_x
_atom_site_fract_y
_atom_site_fract_z
S1 S 0.05100(4) 0.33206(13) 0.31409(5)
F1 F -0.16416(9) 0.9373(3) 0.43862(11)
F2 F -0.22488(9) 0.7727(3) 0.31569(11)
O1 O 0.00755(10) 0.2888(4) 0.24485(12)
O2 O 0.10127(10) 0.4478(3) 0.32210(13)
O3 O 0.14952(11) 0.4483(4) 0.47960(13)
O4 O 0.13399(10) 0.7423(3) 0.43532(13)
O5 O 0.05141(11) 0.7404(4) 0.51219(13)
O6 O -0.16848(11) 0.5508(4) 0.25364(13)
N1 N -0.04776(12) 0.4529(4) 0.33228(14)
C1 C 0.01409(15) 0.4579(5) 0.36024(18)
C2 C 0.04853(15) 0.5616(5) 0.41641(17)
C3 C 0.02183(16) 0.6644(5) 0.45556(19)
C4 C -0.04425(15) 0.6801(5) 0.41972(18)
C5 C -0.07337(16) 0.8011(5) 0.44824(19)
H1 H -0.0513 0.8650 0.4909
C6 C -0.13362(16) 0.8241(5) 0.4133(2)
C7 C -0.16544(15) 0.7406(5) 0.3498(2)
C8 C -0.13845(16) 0.6256(5) 0.31873(19)
C9 C -0.07656(15) 0.5854(5) 0.35716(18)
C10 C 0.07905(16) 0.1233(5) 0.3607(2)
H2 H 0.0995 0.0505 0.3377
H3 H 0.0457 0.0497 0.3618
H4 H 0.1076 0.1533 0.4085
C11 C 0.11674(15) 0.5713(5) 0.44708(17)
C12 C 0.19866(15) 0.7693(6) 0.4614(2)
H5 H 0.2192 0.7003 0.5058
H6 H 0.2082 0.9041 0.4708
C13 C 0.22140(17) 0.7017(7) 0.4102(2)
H7 H 0.2649 0.7230 0.4288
H8 H 0.2013 0.7703 0.3662
H9 H 0.2131 0.5675 0.4018
C14 C -0.20517(16) 0.6800(6) 0.1997(2)
H10 H -0.2243 0.6131 0.1552
H11 H -0.1799 0.7808 0.1953
H12 H -0.2362 0.7336 0.2120
C15 C -0.08004(15) 0.2828(5) 0.29722(18)
H13 H -0.0907 0.2733 0.2461
C16 C -0.12276(15) 0.1965(5) 0.3212(2)
H14 H -0.1594 0.1377 0.2856
H15 H -0.1283 0.2581 0.3601
C17 C -0.06410(15) 0.1026(5) 0.33751(18)
H16 H -0.0644 -0.0137 0.3118
H17 H -0.0333 0.1068 0.3863
S2 S 0.44756(4) 0.32843(13) 0.26265(5)
F3 F 0.65989(9) 0.9441(3) 0.59576(11)
F4 F 0.72210(9) 0.7791(3) 0.53479(11)
O7 O 0.49134(10) 0.2856(4) 0.23638(12)
O8 O 0.39709(11) 0.4425(4) 0.22089(12)
O9 O 0.34719(11) 0.4458(4) 0.32980(13)
O10 O 0.36516(10) 0.7398(3) 0.30277(13)
O11 O 0.44562(11) 0.7328(4) 0.46015(13)
O12 O 0.66509(11) 0.5544(4) 0.41618(13)
N2 N 0.54556(12) 0.4527(4) 0.37796(14)
C18 C 0.48380(15) 0.4529(5) 0.34502(18)
C19 C 0.44860(15) 0.5559(5) 0.36769(18)
C20 C 0.47553(16) 0.6594(5) 0.43284(18)
C21 C 0.54116(15) 0.6774(5) 0.46134(18)
C22 C 0.57017(16) 0.8016(5) 0.51793(18)
H18 H 0.5479 0.8660 0.5386
C23 C 0.62976(16) 0.8270(5) 0.54185(18)
C24 C 0.66229(15) 0.7438(5) 0.5099(2)
C25 C 0.63578(15) 0.6271(5) 0.45224(19)
C26 C 0.57372(15) 0.5839(5) 0.43077(17)
C27 C 0.42017(17) 0.1181(5) 0.2825(2)
H19 H 0.4002 0.0439 0.2398
H20 H 0.3913 0.1473 0.3020
H21 H 0.4537 0.0463 0.3166
C28 C 0.38099(15) 0.5688(5) 0.33046(18)
C29 C 0.30102(15) 0.7734(6) 0.2649(2)
H22 H 0.2923 0.9073 0.2689
H23 H 0.2789 0.6976 0.2857
C30 C 0.28029(17) 0.7224(6) 0.1893(2)
H24 H 0.2371 0.7467 0.1644
H25 H 0.2882 0.5892 0.1854
H26 H 0.3021 0.7980 0.1688
C31 C 0.70691(16) 0.6743(6) 0.4036(2)
H27 H 0.7253 0.6047 0.3776
H28 H 0.7383 0.7160 0.4483
H29 H 0.6855 0.7836 0.3764
C32 C 0.57864(15) 0.2821(5) 0.37415(18)
H30 H 0.5886 0.2722 0.3330
C33 C 0.62257(15) 0.1979(5) 0.44037(19)
H31 H 0.6285 0.2606 0.4846
H32 H 0.6590 0.1389 0.4402
C34 C 0.56323(15) 0.1034(5) 0.39963(18)
H33 H 0.5632 -0.0134 0.3743
H34 H 0.5327 0.1083 0.4188
loop_
_geom_bond_atom_site_label_1
_geom_bond_atom_site_label_2
_geom_bond_site_symmetry_1
_geom_bond_site_symmetry_2
S1 O1 1_555 1_555
F1 C6 1_555 1_555
F2 C7 1_555 1_555
O2 S1 1_555 1_555
O3 C11 1_555 1_555
O4 C11 1_555 1_555
O5 C3 1_555 1_555
O6 C8 1_555 1_555
N1 C1 1_555 1_555
C1 S1 1_555 1_555
C2 C1 1_555 1_555
C3 C2 1_555 1_555
C4 C3 1_555 1_555
C5 C4 1_555 1_555
H1 C5 1_555 1_555
C6 C5 1_555 1_555
C7 C6 1_555 1_555
C8 C7 1_555 1_555
C9 N1 1_555 1_555
C10 S1 1_555 1_555
H2 C10 1_555 1_555
H3 C10 1_555 1_555
H4 C10 1_555 1_555
C11 C2 1_555 1_555
C12 O4 1_555 1_555
H5 C12 1_555 1_555
H6 C12 1_555 1_555
C13 C12 1_555 1_555
H7 C13 1_555 1_555
H8 C13 1_555 1_555
H9 C13 1_555 1_555
C14 O6 1_555 1_555
H10 C14 1_555 1_555
H11 C14 1_555 1_555
H12 C14 1_555 1_555
C15 N1 1_555 1_555
H13 C15 1_555 1_555
C16 C15 1_555 1_555
H14 C16 1_555 1_555
H15 C16 1_555 1_555
C17 C15 1_555 1_555
H16 C17 1_555 1_555
H17 C17 1_555 1_555
S2 O7 1_555 1_555
F3 C23 1_555 1_555
F4 C24 1_555 1_555
O8 S2 1_555 1_555
O9 C28 1_555 1_555
O10 C28 1_555 1_555
O11 C20 1_555 1_555
O12 C25 1_555 1_555
N2 C18 1_555 1_555
C18 S2 1_555 1_555
C19 C18 1_555 1_555
C20 C19 1_555 1_555
C21 C20 1_555 1_555
C22 C21 1_555 1_555
H18 C22 1_555 1_555
C23 C22 1_555 1_555
C24 C23 1_555 1_555
C25 C24 1_555 1_555
C26 N2 1_555 1_555
C27 S2 1_555 1_555
H19 C27 1_555 1_555
H20 C27 1_555 1_555
H21 C27 1_555 1_555
C28 C19 1_555 1_555
C29 O10 1_555 1_555
H22 C29 1_555 1_555
H23 C29 1_555 1_555
C30 C29 1_555 1_555
H24 C30 1_555 1_555
H25 C30 1_555 1_555
H26 C30 1_555 1_555
C31 O12 1_555 1_555
H27 C31 1_555 1_555
H28 C31 1_555 1_555
H29 C31 1_555 1_555
C32 N2 1_555 1_555
H30 C32 1_555 1_555
C33 C32 1_555 1_555
H31 C33 1_555 1_555
H32 C33 1_555 1_555
C34 C32 1_555 1_555
H33 C34 1_555 1_555
H34 C34 1_555 1_555
C4 C9 1_555 1_555
C8 C9 1_555 1_555
C16 C17 1_555 1_555
C21 C26 1_555 1_555
C25 C26 1_555 1_555
C33 C34 1_555 1_555

#END
