
#######################################################################
#
#                 Cambridge Crystallographic Data Centre
#                                CCDC 
#
#######################################################################
#
# If this CIF has been generated from an entry in the Cambridge 
# Structural Database, then it will include bibliographic, chemical, 
# crystal, experimental, refinement or atomic coordinate data resulting 
# from the CCDC's data processing and validation procedures.
#
#######################################################################

data_ODINOH
_chemical_formula_moiety         'C17 H20 O2'
_chemical_name_systematic        
6,6-dimethyl-3-(4-methylbenzene-1-carbonyl)bicyclo[3.1.1]heptan-2-one
_symmetry_cell_setting           trigonal
_symmetry_space_group_name_H-M   'P 32'
_symmetry_Int_Tables_number      145
_space_group_name_Hall           'P 32'
loop_
_symmetry_equiv_pos_site_id
_symmetry_equiv_pos_as_xyz
1 x,y,z
2 -y,x-y,2/3+z
3 -x+y,-x,1/3+z
_cell_length_a                   9.5307(4)
_cell_length_b                   9.5307(4)
_cell_length_c                   12.9688(7)
_cell_angle_alpha                90
_cell_angle_beta                 90
_cell_angle_gamma                120
_cell_volume                     1020.19
_cell_formula_units_Z            3
loop_
_atom_site_label
_atom_site_type_symbol
_atom_site_fract_x
_atom_site_fract_y
_atom_site_fract_z
O1 O 0.7163(2) 0.5459(3) 0.17880(17)
O2 O 0.7517(3) 0.6028(3) 0.36623(18)
C1 C 0.8778(3) 0.6222(4) 0.1697(2)
C2 C 1.0110(4) 0.7131(4) 0.4462(2)
H1 H 0.9581 0.6942 0.5154
C3 C 1.0259(4) 0.6235(4) -0.1431(2)
C4 C 0.9764(4) 0.6843(4) 0.2542(2)
C5 C 0.8427(4) 0.4903(4) -0.0006(2)
H2 H 0.7488 0.3985 0.0260
C6 C 1.1114(4) 0.7586(4) -0.0813(2)
H3 H 1.2025 0.8519 -0.1090
C7 C 0.9312(3) 0.6246(4) 0.0623(2)
C8 C 1.0667(4) 0.7608(4) 0.0207(2)
H4 H 1.1280 0.8544 0.0620
C9 C 1.2627(4) 0.9520(4) 0.5267(3)
H5 H 1.3575 1.0581 0.5123
H6 H 1.2985 0.8780 0.5519
H7 H 1.1954 0.9637 0.5793
C10 C 1.1224(4) 0.6396(4) 0.4288(3)
H8 H 1.1766 0.6321 0.4919
H9 H 1.0708 0.5362 0.3901
C11 C 1.1608(3) 0.7638(4) 0.2521(2)
H10 H 1.2075 0.8691 0.2157
H11 H 1.1922 0.6938 0.2139
C12 C 1.0799(4) 0.6235(4) -0.2554(3)
H12 H 1.1764 0.7280 -0.2706
H13 H 0.9923 0.6062 -0.3026
H14 H 1.1052 0.5364 -0.2642
C13 C 0.9014(4) 0.6643(4) 0.3547(2)
C14 C 0.8897(4) 0.4884(4) -0.1016(2)
H15 H 0.8289 0.3948 -0.1430
C15 C 1.2282(4) 0.7908(4) 0.3618(2)
H16 H 1.3475 0.8336 0.3667
C16 C 1.1639(4) 0.8835(4) 0.4279(2)
C17 C 1.1408(5) 1.0144(4) 0.3772(3)
H17 H 1.2461 1.1137 0.3703
H18 H 1.0689 1.0361 0.4198
H19 H 1.0926 0.9777 0.3087
loop_
_geom_bond_atom_site_label_1
_geom_bond_atom_site_label_2
_geom_bond_site_symmetry_1
_geom_bond_site_symmetry_2
O1 C1 1_555 1_555
O2 C13 1_555 1_555
C1 C4 1_555 1_555
C2 H1 1_555 1_555
C3 C6 1_555 1_555
C4 C11 1_555 1_555
C5 H2 1_555 1_555
C6 H3 1_555 1_555
C7 C1 1_555 1_555
C8 C6 1_555 1_555
H4 C8 1_555 1_555
C9 H5 1_555 1_555
H6 C9 1_555 1_555
H7 C9 1_555 1_555
C10 C2 1_555 1_555
H8 C10 1_555 1_555
H9 C10 1_555 1_555
C11 H10 1_555 1_555
H11 C11 1_555 1_555
C12 C3 1_555 1_555
H12 C12 1_555 1_555
H13 C12 1_555 1_555
H14 C12 1_555 1_555
C13 C2 1_555 1_555
C14 C3 1_555 1_555
H15 C14 1_555 1_555
C15 C10 1_555 1_555
H16 C15 1_555 1_555
C16 C2 1_555 1_555
C17 C16 1_555 1_555
H17 C17 1_555 1_555
H18 C17 1_555 1_555
H19 C17 1_555 1_555
C4 C13 1_555 1_555
C5 C7 1_555 1_555
C5 C14 1_555 1_555
C7 C8 1_555 1_555
C9 C16 1_555 1_555
C11 C15 1_555 1_555
C15 C16 1_555 1_555

#END
