
#######################################################################
#
#                 Cambridge Crystallographic Data Centre
#                                CCDC 
#
#######################################################################
#
# If this CIF has been generated from an entry in the Cambridge 
# Structural Database, then it will include bibliographic, chemical, 
# crystal, experimental, refinement or atomic coordinate data resulting 
# from the CCDC's data processing and validation procedures.
#
#######################################################################

data_ODISAY
_chemical_formula_moiety         'C34 H40 N2 O2 S1,C1 H2 Cl2'
_chemical_name_systematic        
'N-[1-(3-benzyl-7b-methyl-1-phenyl-3,7b-dihydro-2aH-cyclobuta[b]indol-2-yl)oct-1-en-1-yl]-N-methylmethanesulfonamide dichloromethane solvate'
_symmetry_cell_setting           monoclinic
_symmetry_space_group_name_H-M   'P 21/c'
_symmetry_Int_Tables_number      14
_space_group_name_Hall           '-P 2ybc'
loop_
_symmetry_equiv_pos_site_id
_symmetry_equiv_pos_as_xyz
1 x,y,z
2 -x,1/2+y,1/2-z
3 -x,-y,-z
4 x,1/2-y,1/2+z
_cell_length_a                   9.31750(10)
_cell_length_b                   39.2813(6)
_cell_length_c                   9.33140(10)
_cell_angle_alpha                90
_cell_angle_beta                 108.3020(10)
_cell_angle_gamma                90
_cell_volume                     3242.56
_cell_formula_units_Z            4
loop_
_atom_site_label
_atom_site_type_symbol
_atom_site_fract_x
_atom_site_fract_y
_atom_site_fract_z
S1 S 0.78032(7) 0.18546(2) 0.73945(7)
N1 N 0.6431(2) 0.14386(6) 0.2299(2)
N2 N 0.7252(2) 0.14860(6) 0.6544(2)
O1 O 0.9390(2) 0.18291(6) 0.8140(2)
O2 O 0.7251(2) 0.21182(5) 0.6312(2)
C1 C 0.8572(3) 0.07305(7) 0.1667(3)
H1 H 0.7894 0.0563 0.1812
C2 C 0.9608(3) 0.06424(8) 0.0939(3)
H2 H 0.9638 0.0416 0.0592
C3 C 1.0594(3) 0.08838(8) 0.0718(3)
H3 H 1.1307 0.0824 0.0223
C4 C 1.0542(3) 0.12134(8) 0.1220(3)
H4 H 1.1215 0.1380 0.1064
C5 C 0.9509(3) 0.13007(7) 0.1951(3)
H5 H 0.9479 0.1527 0.2296
C6 C 0.8515(3) 0.10585(7) 0.2184(3)
C7 C 0.7409(3) 0.11576(7) 0.3009(3)
H6 H 0.6776 0.0958 0.3051
H7 H 0.7983 0.1222 0.4059
C8 C 0.5153(3) 0.13954(7) 0.1051(3)
C9 C 0.4796(3) 0.11194(7) 0.0075(3)
H8 H 0.5413 0.0922 0.0253
C10 C 0.3497(3) 0.11425(8) -0.1178(3)
H9 H 0.3226 0.0956 -0.1855
C11 C 0.2596(3) 0.14298(8) -0.1460(3)
H10 H 0.1737 0.1442 -0.2338
C12 C 0.2954(3) 0.17034(7) -0.0448(3)
H11 H 0.2339 0.1902 -0.0632
C13 C 0.4209(3) 0.16826(7) 0.0821(3)
C14 C 0.4778(3) 0.19254(7) 0.2139(3)
C15 C 0.4098(3) 0.18558(6) 0.3413(3)
C16 C 0.2688(3) 0.19761(6) 0.3611(3)
C17 C 0.1603(3) 0.21442(7) 0.2448(3)
H12 H 0.1763 0.2173 0.1499
C18 C 0.0291(3) 0.22702(7) 0.2661(3)
H13 H -0.0435 0.2385 0.1860
C19 C 0.0038(3) 0.22288(7) 0.4036(3)
H14 H -0.0862 0.2314 0.4178
C20 C 0.1102(3) 0.20632(7) 0.5200(3)
H15 H 0.0931 0.2035 0.6145
C21 C 0.2411(3) 0.19384(7) 0.5001(3)
H16 H 0.3134 0.1826 0.5812
C22 C 0.5297(3) 0.16707(6) 0.4243(3)
C23 C 0.6205(3) 0.17301(7) 0.3170(3)
H17 H 0.7122 0.1876 0.3590
C24 C 0.4974(4) 0.22940(7) 0.1729(4)
H18 H 0.5344 0.2430 0.2652
H19 H 0.5704 0.2305 0.1169
H20 H 0.3999 0.2384 0.1100
C25 C 0.5691(3) 0.14577(7) 0.5595(3)
C26 C 0.4795(3) 0.12186(7) 0.5871(3)
H21 H 0.5175 0.1095 0.6787
C27 C 0.3240(3) 0.11274(7) 0.4866(3)
H22 H 0.3035 0.1251 0.3897
H23 H 0.2489 0.1203 0.5348
C28 C 0.3042(3) 0.07462(7) 0.4545(3)
H24 H 0.3244 0.0623 0.5513
H25 H 0.1980 0.0701 0.3936
C29 C 0.4081(3) 0.06091(8) 0.3709(3)
H26 H 0.5136 0.0616 0.4392
H27 H 0.4018 0.0760 0.2841
C30 C 0.3704(3) 0.02469(8) 0.3136(3)
H28 H 0.3721 0.0099 0.4000
H29 H 0.2662 0.0243 0.2420
C31 C 0.4764(4) 0.01001(9) 0.2358(4)
H30 H 0.5799 0.0093 0.3085
H31 H 0.4781 0.0252 0.1518
C32 C 0.4322(5) -0.02548(10) 0.1739(5)
H32 H 0.5047 -0.0336 0.1250
H33 H 0.4325 -0.0409 0.2567
H34 H 0.3307 -0.0249 0.0999
C33 C 0.6895(4) 0.18854(9) 0.8789(3)
H35 H 0.7268 0.1705 0.9540
H36 H 0.7113 0.2108 0.9285
H37 H 0.5801 0.1860 0.8317
C34 C 0.7955(3) 0.11856(8) 0.7437(4)
H38 H 0.9003 0.1239 0.8024
H39 H 0.7389 0.1124 0.8125
H40 H 0.7940 0.0995 0.6757
Cl1 Cl 1.16216(12) 0.02376(3) 0.81355(15)
Cl2 Cl 0.9369(2) 0.04547(4) 0.53734(17)
C35 C 0.9732(6) 0.02298(15) 0.7048(6)
H41 H 0.9414 -0.0010 0.6813
H42 H 0.9118 0.0327 0.7642
loop_
_geom_bond_atom_site_label_1
_geom_bond_atom_site_label_2
_geom_bond_site_symmetry_1
_geom_bond_site_symmetry_2
S1 N2 1_555 1_555
N1 C7 1_555 1_555
N2 C25 1_555 1_555
O1 S1 1_555 1_555
O2 S1 1_555 1_555
C1 H1 1_555 1_555
C2 C1 1_555 1_555
H2 C2 1_555 1_555
C3 C2 1_555 1_555
H3 C3 1_555 1_555
C4 C3 1_555 1_555
H4 C4 1_555 1_555
C5 C4 1_555 1_555
H5 C5 1_555 1_555
C6 C1 1_555 1_555
C7 C6 1_555 1_555
H6 C7 1_555 1_555
H7 C7 1_555 1_555
C8 N1 1_555 1_555
C9 C8 1_555 1_555
H8 C9 1_555 1_555
C10 C9 1_555 1_555
H9 C10 1_555 1_555
C11 C10 1_555 1_555
H10 C11 1_555 1_555
C12 C11 1_555 1_555
H11 C12 1_555 1_555
C13 C8 1_555 1_555
C14 C13 1_555 1_555
C15 C14 1_555 1_555
C16 C15 1_555 1_555
C17 C16 1_555 1_555
H12 C17 1_555 1_555
C18 C17 1_555 1_555
H13 C18 1_555 1_555
C19 C18 1_555 1_555
H14 C19 1_555 1_555
C20 C19 1_555 1_555
H15 C20 1_555 1_555
C21 C16 1_555 1_555
H16 C21 1_555 1_555
C22 C15 1_555 1_555
C23 N1 1_555 1_555
H17 C23 1_555 1_555
C24 C14 1_555 1_555
H18 C24 1_555 1_555
H19 C24 1_555 1_555
H20 C24 1_555 1_555
C25 C22 1_555 1_555
C26 C25 1_555 1_555
H21 C26 1_555 1_555
C27 C26 1_555 1_555
H22 C27 1_555 1_555
H23 C27 1_555 1_555
C28 C27 1_555 1_555
H24 C28 1_555 1_555
H25 C28 1_555 1_555
C29 C28 1_555 1_555
H26 C29 1_555 1_555
H27 C29 1_555 1_555
C30 C29 1_555 1_555
H28 C30 1_555 1_555
H29 C30 1_555 1_555
C31 C30 1_555 1_555
H30 C31 1_555 1_555
H31 C31 1_555 1_555
C32 C31 1_555 1_555
H32 C32 1_555 1_555
H33 C32 1_555 1_555
H34 C32 1_555 1_555
C33 S1 1_555 1_555
H35 C33 1_555 1_555
H36 C33 1_555 1_555
H37 C33 1_555 1_555
C34 N2 1_555 1_555
H38 C34 1_555 1_555
H39 C34 1_555 1_555
H40 C34 1_555 1_555
Cl1 C35 1_555 1_555
Cl2 C35 1_555 1_555
C35 H41 1_555 1_555
H42 C35 1_555 1_555
C5 C6 1_555 1_555
C12 C13 1_555 1_555
C14 C23 1_555 1_555
C20 C21 1_555 1_555
C22 C23 1_555 1_555

#END
