
#######################################################################
#
#                 Cambridge Crystallographic Data Centre
#                                CCDC 
#
#######################################################################
#
# If this CIF has been generated from an entry in the Cambridge 
# Structural Database, then it will include bibliographic, chemical, 
# crystal, experimental, refinement or atomic coordinate data resulting 
# from the CCDC's data processing and validation procedures.
#
#######################################################################

data_ODODEQ
_chemical_formula_moiety         'C28 H40 Ba1 O10 2+,2(I3 1-)'
_chemical_name_systematic        'bis(Benzo-15-crown-5)-barium bis(tri-iodide)'
_symmetry_cell_setting           monoclinic
_symmetry_space_group_name_H-M   'P 21/n'
_symmetry_Int_Tables_number      14
_space_group_name_Hall           '-P 2yn'
loop_
_symmetry_equiv_pos_site_id
_symmetry_equiv_pos_as_xyz
1 x,y,z
2 1/2+x,1/2-y,1/2+z
3 -x,-y,-z
4 1/2-x,1/2+y,1/2-z
_cell_length_a                   12.291(1)
_cell_length_b                   12.882(2)
_cell_length_c                   13.136(2)
_cell_angle_alpha                90.0
_cell_angle_beta                 90.44(1)
_cell_angle_gamma                90.0
_cell_volume                     2079.8
_exptl_crystal_colour            yellow
_exptl_crystal_description       polyhedral
_chemical_melting_point          403K
_cell_formula_units_Z            2
loop_
_atom_site_label
_atom_site_type_symbol
_atom_site_fract_x
_atom_site_fract_y
_atom_site_fract_z
I1 I 0.28037(5) 0.03880(4) 0.55340(4)
I2 I 0.36683(3) 0.08055(3) 0.35353(3)
I3 I 0.44536(4) 0.12077(4) 0.14676(4)
Ba1 Ba 0.0000 0.0000 0.0000
C1 C 0.0407(4) 0.1894(4) 0.2053(4)
O1 O 0.0654(4) 0.1809(3) 0.1030(3)
C2 C 0.1004(7) 0.2696(5) 0.0479(5)
H1 H 0.1446(7) 0.3134(5) 0.0917(5)
H2 H 0.0376(7) 0.3094(5) 0.0256(5)
C3 C 0.1633(8) 0.2381(6) -0.0399(6)
H3 H 0.1682(8) 0.2968(6) -0.0858(6)
H4 H 0.2365(8) 0.2219(6) -0.0170(6)
O2 O 0.1240(4) 0.1548(4) -0.0937(4)
C4 C 0.1915(6) 0.1194(6) -0.1751(5)
H5 H 0.2421(6) 0.1739(6) -0.1935(5)
H6 H 0.1465(6) 0.1043(6) -0.2343(5)
C5 C 0.2536(5) 0.0243(6) -0.1456(5)
H7 H 0.2991(5) 0.0018(6) -0.2014(5)
H8 H 0.2999(5) 0.0387(6) -0.0872(5)
O3 O 0.1760(3) -0.0553(3) -0.1210(3)
C6 C 0.2228(5) -0.1530(5) -0.0933(5)
H9 H 0.2838(5) -0.1677(5) -0.1376(5)
H10 H 0.1692(5) -0.2074(5) -0.1029(5)
C7 C 0.2613(5) -0.1533(5) 0.0154(5)
H11 H 0.2899(5) -0.2212(5) 0.0332(5)
H12 H 0.3187(5) -0.1025(5) 0.0248(5)
O4 O 0.1692(3) -0.1281(3) 0.0798(3)
C8 C 0.2042(5) -0.1191(5) 0.1834(5)
H13 H 0.2642(5) -0.0703(5) 0.1882(5)
H14 H 0.2295(5) -0.1859(5) 0.2079(5)
C9 C 0.1121(5) -0.0823(5) 0.2478(5)
H15 H 0.0559(5) -0.1350(5) 0.2511(5)
H16 H 0.1376(5) -0.0678(5) 0.3164(5)
O5 O 0.0701(4) 0.0106(3) 0.2013(3)
C10 C 0.0431(4) 0.0959(4) 0.2585(4)
C11 C 0.0162(6) 0.0941(6) 0.3602(5)
H17 H 0.0164(6) 0.0319(6) 0.3960(5)
C12 C -0.0115(6) 0.1863(6) 0.4085(5)
H18 H -0.0301(6) 0.1855(6) 0.4770(5)
C13 C -0.0115(5) 0.2774(6) 0.3566(5)
H19 H -0.0284(5) 0.3387(6) 0.3903(5)
C14 C 0.0134(5) 0.2799(5) 0.2537(5)
H20 H 0.0115(5) 0.3423(5) 0.2180(5)
O1B O -0.0654(4) -0.1809(3) -0.1030(3)
C1B C -0.0407(4) -0.1894(4) -0.2053(4)
C10B C -0.0431(4) -0.0959(4) -0.2585(4)
O5B O -0.0701(4) -0.0106(3) -0.2013(3)
O2B O -0.1240(4) -0.1548(4) 0.0937(4)
C3B C -0.1633(8) -0.2381(6) 0.0399(6)
C2B C -0.1004(7) -0.2696(5) -0.0479(5)
H1B H -0.1446(7) -0.3134(5) -0.0917(5)
H2B H -0.0376(7) -0.3094(5) -0.0256(5)
H3B H -0.1682(8) -0.2968(6) 0.0858(6)
H4B H -0.2365(8) -0.2219(6) 0.0170(6)
C4B C -0.1915(6) -0.1194(6) 0.1751(5)
H5B H -0.2421(6) -0.1739(6) 0.1935(5)
H6B H -0.1465(6) -0.1043(6) 0.2343(5)
C5B C -0.2536(5) -0.0243(6) 0.1456(5)
H7B H -0.2991(5) -0.0018(6) 0.2014(5)
H8B H -0.2999(5) -0.0387(6) 0.0872(5)
O3B O -0.1760(3) 0.0553(3) 0.1210(3)
O4B O -0.1692(3) 0.1281(3) -0.0798(3)
C7B C -0.2613(5) 0.1533(5) -0.0154(5)
C6B C -0.2228(5) 0.1530(5) 0.0933(5)
H9B H -0.2838(5) 0.1677(5) 0.1376(5)
H10B H -0.1692(5) 0.2074(5) 0.1029(5)
H11B H -0.2899(5) 0.2212(5) -0.0332(5)
H12B H -0.3187(5) 0.1025(5) -0.0248(5)
C8B C -0.2042(5) 0.1191(5) -0.1834(5)
H13B H -0.2642(5) 0.0703(5) -0.1882(5)
H14B H -0.2295(5) 0.1859(5) -0.2079(5)
C9B C -0.1121(5) 0.0823(5) -0.2478(5)
H15B H -0.0559(5) 0.1350(5) -0.2511(5)
H16B H -0.1376(5) 0.0678(5) -0.3164(5)
C11B C -0.0162(6) -0.0941(6) -0.3602(5)
H17B H -0.0164(6) -0.0319(6) -0.3960(5)
C12B C 0.0115(6) -0.1863(6) -0.4085(5)
H18B H 0.0301(6) -0.1855(6) -0.4770(5)
C13B C 0.0115(5) -0.2774(6) -0.3566(5)
H19B H 0.0284(5) -0.3387(6) -0.3903(5)
C14B C -0.0134(5) -0.2799(5) -0.2537(5)
H20B H -0.0115(5) -0.3423(5) -0.2180(5)
loop_
_geom_bond_atom_site_label_1
_geom_bond_atom_site_label_2
_geom_bond_site_symmetry_1
_geom_bond_site_symmetry_2
I1 I2 1_555 1_555
I2 I3 1_555 1_555
Ba1 O1 1_555 1_555
C1 O1 1_555 1_555
O1 C2 1_555 1_555
C2 H1 1_555 1_555
H2 C2 1_555 1_555
C3 C2 1_555 1_555
H3 C3 1_555 1_555
H4 C3 1_555 1_555
O2 Ba1 1_555 1_555
C4 O2 1_555 1_555
H5 C4 1_555 1_555
H6 C4 1_555 1_555
C5 C4 1_555 1_555
H7 C5 1_555 1_555
H8 C5 1_555 1_555
O3 Ba1 1_555 1_555
C6 O3 1_555 1_555
H9 C6 1_555 1_555
H10 C6 1_555 1_555
C7 C6 1_555 1_555
H11 C7 1_555 1_555
H12 C7 1_555 1_555
O4 Ba1 1_555 1_555
C8 O4 1_555 1_555
H13 C8 1_555 1_555
H14 C8 1_555 1_555
C9 C8 1_555 1_555
H15 C9 1_555 1_555
H16 C9 1_555 1_555
O5 Ba1 1_555 1_555
C10 C1 1_555 1_555
C11 C10 1_555 1_555
H17 C11 1_555 1_555
C12 C11 1_555 1_555
H18 C12 1_555 1_555
C13 C12 1_555 1_555
H19 C13 1_555 1_555
C14 C1 1_555 1_555
H20 C14 1_555 1_555
O1B Ba1 1_555 1_555
C1B O1B 1_555 1_555
C10B C1B 1_555 1_555
O5B Ba1 1_555 1_555
O2B Ba1 1_555 1_555
C3B O2B 1_555 1_555
C2B O1B 1_555 1_555
H1B C2B 1_555 1_555
H2B C2B 1_555 1_555
H3B C3B 1_555 1_555
H4B C3B 1_555 1_555
C4B O2B 1_555 1_555
H5B C4B 1_555 1_555
H6B C4B 1_555 1_555
C5B C4B 1_555 1_555
H7B C5B 1_555 1_555
H8B C5B 1_555 1_555
O3B Ba1 1_555 1_555
O4B Ba1 1_555 1_555
C7B O4B 1_555 1_555
C6B O3B 1_555 1_555
H9B C6B 1_555 1_555
H10B C6B 1_555 1_555
H11B C7B 1_555 1_555
H12B C7B 1_555 1_555
C8B O4B 1_555 1_555
H13B C8B 1_555 1_555
H14B C8B 1_555 1_555
C9B O5B 1_555 1_555
H15B C9B 1_555 1_555
H16B C9B 1_555 1_555
C11B C10B 1_555 1_555
H17B C11B 1_555 1_555
C12B C11B 1_555 1_555
H18B C12B 1_555 1_555
C13B C12B 1_555 1_555
H19B C13B 1_555 1_555
C14B C1B 1_555 1_555
H20B C14B 1_555 1_555
C3 O2 1_555 1_555
C5 O3 1_555 1_555
C7 O4 1_555 1_555
C9 O5 1_555 1_555
O5 C10 1_555 1_555
C13 C14 1_555 1_555
C10B O5B 1_555 1_555
C3B C2B 1_555 1_555
C5B O3B 1_555 1_555
C7B C6B 1_555 1_555
C8B C9B 1_555 1_555
C13B C14B 1_555 1_555

#END
