
#######################################################################
#
#                 Cambridge Crystallographic Data Centre
#                                CCDC 
#
#######################################################################
#
# If this CIF has been generated from an entry in the Cambridge 
# Structural Database, then it will include bibliographic, chemical, 
# crystal, experimental, refinement or atomic coordinate data resulting 
# from the CCDC's data processing and validation procedures.
#
#######################################################################

data_ODOZAK
_chemical_formula_moiety         'C34 H64 Li4 N8'
_chemical_name_systematic        
bis(\m~3~-\h^5^-2-[(cyclohexylazanidyl)methyl]-pyrrolato)-bis(N,N,N',N'-tetramethylethane-1,2-diamine)-tri-lithium
_symmetry_cell_setting           triclinic
_symmetry_space_group_name_H-M   'P -1'
_symmetry_Int_Tables_number      2
_space_group_name_Hall           '-P 1'
loop_
_symmetry_equiv_pos_site_id
_symmetry_equiv_pos_as_xyz
1 x,y,z
2 -x,-y,-z
_cell_length_a                   8.702(5)
_cell_length_b                   10.401(6)
_cell_length_c                   12.394(7)
_cell_angle_alpha                70.406(11)
_cell_angle_beta                 82.706(12)
_cell_angle_gamma                71.350(10)
_cell_volume                     1001.08
_cell_formula_units_Z            1
loop_
_atom_site_label
_atom_site_type_symbol
_atom_site_fract_x
_atom_site_fract_y
_atom_site_fract_z
N1 N 0.6255(7) 0.7720(5) 0.0021(4)
Li1 Li 0.6100(12) 0.7057(9) 0.1714(8)
Li2 Li 0.5134(13) 0.9818(11) -0.1259(8)
N2 N 0.6859(5) 0.8689(4) 0.1705(4)
N3 N 0.7501(8) 0.4890(6) 0.2338(5)
N4 N 0.4038(7) 0.6353(6) 0.2397(5)
C1 C 0.6081(10) 0.7498(7) -0.0990(6)
H1 H 0.5433 0.6916 -0.1062
C2 C 0.7018(9) 0.8110(8) -0.1860(7)
H2 H 0.7166 0.8037 -0.2636
C3 C 0.7854(8) 0.8717(7) -0.1379(6)
H3 H 0.8683 0.9180 -0.1764
C4 C 0.7361(7) 0.8462(6) -0.0224(5)
C5 C 0.8009(7) 0.8729(6) 0.0727(5)
H4 H 0.9036 0.8009 0.0973
H5 H 0.8201 0.9656 0.0445
C6 C 0.7640(7) 0.8632(6) 0.2701(5)
H6 H 0.8634 0.7824 0.2828
C7 C 0.6528(7) 0.8320(7) 0.3746(5)
H7 H 0.5499 0.9068 0.3613
H8 H 0.6319 0.7425 0.3845
C8 C 0.7244(9) 0.8224(8) 0.4846(5)
H9 H 0.6450 0.8104 0.5467
H10 H 0.8189 0.7389 0.5042
C9 C 0.7727(9) 0.9539(8) 0.4725(5)
H11 H 0.8264 0.9400 0.5412
H12 H 0.6765 1.0356 0.4634
C10 C 0.8864(8) 0.9828(7) 0.3692(5)
H13 H 0.9876 0.9060 0.3823
H14 H 0.9102 1.0710 0.3594
C11 C 0.8108(7) 0.9946(6) 0.2609(5)
H15 H 0.7150 1.0770 0.2445
H16 H 0.8873 1.0102 0.1973
C12 C 0.3089(11) 0.6895(11) 0.3289(8)
H17 H 0.2363 0.7828 0.2946
H18 H 0.3803 0.6953 0.3790
H19 H 0.2475 0.6262 0.3720
C13 C 0.3040(12) 0.6617(12) 0.1459(8)
H20 H 0.2239 0.6119 0.1725
H21 H 0.3706 0.6283 0.0870
H22 H 0.2512 0.7624 0.1154
C14 C 0.8586(12) 0.4531(9) 0.3251(8)
H23 H 0.7999 0.4879 0.3856
H24 H 0.9442 0.4963 0.2965
H25 H 0.9042 0.3512 0.3540
C15 C 0.8498(15) 0.4452(11) 0.1414(9)
H26 H 0.9232 0.5016 0.1124
H27 H 0.7814 0.4589 0.0810
H28 H 0.9107 0.3461 0.1699
C16 C 0.629(3) 0.415(3) 0.242(3)
H29 H 0.6728 0.3133 0.2804
H30 H 0.5960 0.4280 0.1657
C17 C 0.484(4) 0.4820(17) 0.310(2)
H31 H 0.4068 0.4280 0.3279
H32 H 0.5213 0.4797 0.3813
N1A N 0.3745(7) 1.2280(5) -0.0021(4)
Li1A Li 0.3900(12) 1.2943(9) -0.1714(8)
Li2A Li 0.4866(13) 1.0182(11) 0.1259(8)
N2A N 0.3141(5) 1.1311(4) -0.1705(4)
N3A N 0.2499(8) 1.5110(6) -0.2338(5)
N4A N 0.5962(7) 1.3647(6) -0.2397(5)
C1A C 0.3919(10) 1.2502(7) 0.0990(6)
H1A H 0.4567 1.3084 0.1062
C2A C 0.2982(9) 1.1890(8) 0.1860(7)
H2A H 0.2834 1.1963 0.2636
C3A C 0.2146(8) 1.1283(7) 0.1379(6)
H3A H 0.1317 1.0820 0.1764
C4A C 0.2639(7) 1.1538(6) 0.0224(5)
C5A C 0.1991(7) 1.1271(6) -0.0727(5)
H4A H 0.0964 1.1991 -0.0973
H5A H 0.1799 1.0344 -0.0445
C6A C 0.2360(7) 1.1368(6) -0.2701(5)
H6A H 0.1366 1.2176 -0.2828
C7A C 0.3472(7) 1.1680(7) -0.3746(5)
H7A H 0.4501 1.0932 -0.3613
H8A H 0.3681 1.2575 -0.3845
C8A C 0.2756(9) 1.1776(8) -0.4846(5)
H9A H 0.3550 1.1896 -0.5467
H10A H 0.1811 1.2611 -0.5042
C9A C 0.2273(9) 1.0461(8) -0.4725(5)
H11A H 0.1736 1.0600 -0.5412
H12A H 0.3235 0.9644 -0.4634
C10A C 0.1136(8) 1.0172(7) -0.3692(5)
H13A H 0.0124 1.0940 -0.3823
H14A H 0.0898 0.9290 -0.3594
C11A C 0.1892(7) 1.0054(6) -0.2609(5)
H15A H 0.2850 0.9230 -0.2445
H16A H 0.1127 0.9898 -0.1973
C12A C 0.6911(11) 1.3105(11) -0.3289(8)
H17A H 0.7637 1.2172 -0.2946
H18A H 0.6197 1.3047 -0.3790
H19A H 0.7525 1.3738 -0.3720
C13A C 0.6960(12) 1.3383(12) -0.1459(8)
H20A H 0.7761 1.3881 -0.1725
H21A H 0.6294 1.3717 -0.0870
H22A H 0.7488 1.2376 -0.1154
C14A C 0.1414(12) 1.5469(9) -0.3251(8)
H23A H 0.2001 1.5121 -0.3856
H24A H 0.0558 1.5037 -0.2965
H25A H 0.0958 1.6488 -0.3540
C15A C 0.1502(15) 1.5548(11) -0.1414(9)
H26A H 0.0768 1.4984 -0.1124
H27A H 0.2186 1.5411 -0.0810
H28A H 0.0893 1.6539 -0.1699
C16A C 0.371(3) 1.585(3) -0.242(3)
H29A H 0.3272 1.6867 -0.2804
H30A H 0.4040 1.5720 -0.1657
C17A C 0.516(4) 1.5180(17) -0.310(2)
H31A H 0.5932 1.5720 -0.3279
H32A H 0.4787 1.5203 -0.3813
C18? C 0.631(4) 0.417(5) 0.310(3)
H33? H 0.6709 0.3146 0.3223
H34? H 0.6202 0.4324 0.3839
C19? C 0.466(5) 0.479(2) 0.252(3)
H35? H 0.4781 0.4665 0.1769
H36? H 0.3904 0.4307 0.2975
loop_
_geom_bond_atom_site_label_1
_geom_bond_atom_site_label_2
_geom_bond_site_symmetry_1
_geom_bond_site_symmetry_2
N1 Li1 1_555 1_555
Li1 N2 1_555 1_555
Li2 N1 1_555 1_555
N2 C5 1_555 1_555
N3 Li1 1_555 1_555
N4 Li1 1_555 1_555
C1 N1 1_555 1_555
H1 C1 1_555 1_555
C2 Li2 1_555 1_555
H2 C2 1_555 1_555
C3 Li2 1_555 1_555
H3 C3 1_555 1_555
C4 N1 1_555 1_555
C5 C4 1_555 1_555
H4 C5 1_555 1_555
H5 C5 1_555 1_555
C6 N2 1_555 1_555
H6 C6 1_555 1_555
C7 C6 1_555 1_555
H7 C7 1_555 1_555
H8 C7 1_555 1_555
C8 C7 1_555 1_555
H9 C8 1_555 1_555
H10 C8 1_555 1_555
C9 C8 1_555 1_555
H11 C9 1_555 1_555
H12 C9 1_555 1_555
C10 C9 1_555 1_555
H13 C10 1_555 1_555
H14 C10 1_555 1_555
C11 C6 1_555 1_555
H15 C11 1_555 1_555
H16 C11 1_555 1_555
C12 N4 1_555 1_555
H17 C12 1_555 1_555
H18 C12 1_555 1_555
H19 C12 1_555 1_555
C13 N4 1_555 1_555
H20 C13 1_555 1_555
H21 C13 1_555 1_555
H22 C13 1_555 1_555
C14 N3 1_555 1_555
H23 C14 1_555 1_555
H24 C14 1_555 1_555
H25 C14 1_555 1_555
C15 N3 1_555 1_555
H26 C15 1_555 1_555
H27 C15 1_555 1_555
H28 C15 1_555 1_555
C16 N3 1_555 1_555
H29 C16 1_555 1_555
H30 C16 1_555 1_555
C17 N4 1_555 1_555
H31 C17 1_555 1_555
H32 C17 1_555 1_555
N1A Li1A 1_555 1_555
Li1A N2A 1_555 1_555
Li2A N2 1_555 1_555
N2A Li2 1_555 1_555
N3A Li1A 1_555 1_555
N4A Li1A 1_555 1_555
C1A N1A 1_555 1_555
H1A C1A 1_555 1_555
C2A Li2A 1_555 1_555
H2A C2A 1_555 1_555
C3A Li2A 1_555 1_555
H3A C3A 1_555 1_555
C4A N1A 1_555 1_555
C5A N2A 1_555 1_555
H4A C5A 1_555 1_555
H5A C5A 1_555 1_555
C6A N2A 1_555 1_555
H6A C6A 1_555 1_555
C7A C6A 1_555 1_555
H7A C7A 1_555 1_555
H8A C7A 1_555 1_555
C8A C7A 1_555 1_555
H9A C8A 1_555 1_555
H10A C8A 1_555 1_555
C9A C8A 1_555 1_555
H11A C9A 1_555 1_555
H12A C9A 1_555 1_555
C10A C9A 1_555 1_555
H13A C10A 1_555 1_555
H14A C10A 1_555 1_555
C11A C6A 1_555 1_555
H15A C11A 1_555 1_555
H16A C11A 1_555 1_555
C12A N4A 1_555 1_555
H17A C12A 1_555 1_555
H18A C12A 1_555 1_555
H19A C12A 1_555 1_555
C13A N4A 1_555 1_555
H20A C13A 1_555 1_555
H21A C13A 1_555 1_555
H22A C13A 1_555 1_555
C14A N3A 1_555 1_555
H23A C14A 1_555 1_555
H24A C14A 1_555 1_555
H25A C14A 1_555 1_555
C15A N3A 1_555 1_555
H26A C15A 1_555 1_555
H27A C15A 1_555 1_555
H28A C15A 1_555 1_555
C16A N3A 1_555 1_555
H29A C16A 1_555 1_555
H30A C16A 1_555 1_555
C17A N4A 1_555 1_555
H31A C17A 1_555 1_555
H32A C17A 1_555 1_555
Li2 C1 1_555 1_555
Li2 C4 1_555 1_555
C1 C2 1_555 1_555
C2 C3 1_555 1_555
C3 C4 1_555 1_555
C10 C11 1_555 1_555
C16 C17 1_555 1_555
N1A Li2A 1_555 1_555
Li2A C1A 1_555 1_555
Li2A C4A 1_555 1_555
C1A C2A 1_555 1_555
C2A C3A 1_555 1_555
C3A C4A 1_555 1_555
C4A C5A 1_555 1_555
C10A C11A 1_555 1_555
C16A C17A 1_555 1_555

#END
