
#######################################################################
#
#                 Cambridge Crystallographic Data Centre
#                                CCDC 
#
#######################################################################
#
# If this CIF has been generated from an entry in the Cambridge 
# Structural Database, then it will include bibliographic, chemical, 
# crystal, experimental, refinement or atomic coordinate data resulting 
# from the CCDC's data processing and validation procedures.
#
#######################################################################

data_ODUDAV01
_chemical_name_common            buprofezin
_chemical_formula_moiety         'C16 H23 N3 O1 S1'
_chemical_name_systematic        
2-(t-butylimino)-5-phenyl-3-(propan-2-yl)-1,3,5-thiadiazinan-4-one
_chemical_properties_biological  insecticide
_symmetry_cell_setting           monoclinic
_symmetry_space_group_name_H-M   'P 21/c'
_symmetry_Int_Tables_number      14
_space_group_name_Hall           '-P 2ybc'
loop_
_symmetry_equiv_pos_site_id
_symmetry_equiv_pos_as_xyz
1 x,y,z
2 -x,1/2+y,1/2-z
3 -x,-y,-z
4 x,1/2-y,1/2+z
_cell_length_a                   13.7412(8)
_cell_length_b                   11.5339(4)
_cell_length_c                   10.9928(5)
_cell_angle_alpha                90
_cell_angle_beta                 107.720(6)
_cell_angle_gamma                90
_cell_volume                     1659.58
_exptl_crystal_colour            colorless
_exptl_crystal_description       block
_cell_formula_units_Z            4
loop_
_atom_site_label
_atom_site_type_symbol
_atom_site_fract_x
_atom_site_fract_y
_atom_site_fract_z
S1 S 0.63674(4) 0.50775(4) 0.19609(5)
O1 O 0.57919(12) 0.16751(13) 0.31793(15)
N1 N 0.67030(13) 0.27442(16) 0.21321(17)
N2 N 0.51449(14) 0.34074(17) 0.23182(17)
N3 N 0.81410(14) 0.38603(16) 0.23686(18)
C1 C 0.58718(16) 0.25573(18) 0.26050(19)
C2 C 0.43690(16) 0.34402(19) 0.2934(2)
C3 C 0.71900(16) 0.38448(18) 0.21714(19)
C4 C 0.51810(16) 0.42821(19) 0.1397(2)
H1 H 0.460871 0.480906 0.127167
H2 H 0.513122 0.391979 0.058352
C5 C 0.46318(19) 0.3523(2) 0.4257(2)
H3 H 0.531488 0.354515 0.474830
C6 C 0.73013(17) 0.16677(18) 0.2078(2)
H4 H 0.681486 0.102317 0.193695
C7 C 0.77025(18) 0.1681(2) 0.0929(2)
H5 H 0.719725 0.201462 0.020965
H6 H 0.784621 0.090194 0.072796
H7 H 0.831680 0.213418 0.112645
C8 C 0.81241(18) 0.1412(2) 0.3333(2)
H8 H 0.865251 0.198658 0.348006
H9 H 0.840998 0.065876 0.329085
H10 H 0.782843 0.142821 0.401958
C9 C 0.33466(18) 0.3408(2) 0.2203(2)
H11 H 0.316890 0.335643 0.131763
C10 C 0.25947(19) 0.3453(2) 0.2802(3)
H12 H 0.191023 0.343275 0.231578
C11 C 0.87950(18) 0.4891(2) 0.2436(2)
C12 C 0.2852(2) 0.3529(2) 0.4113(3)
H13 H 0.234265 0.354900 0.450844
C13 C 0.3863(2) 0.3574(2) 0.4839(2)
H14 H 0.403432 0.363804 0.572217
C14 C 0.88061(19) 0.5634(2) 0.3593(2)
H15 H 0.815085 0.599412 0.344838
H16 H 0.932238 0.622087 0.371740
H17 H 0.895193 0.515223 0.433934
C15 C 0.8484(2) 0.5623(2) 0.1212(2)
H18 H 0.846493 0.514123 0.049332
H19 H 0.897195 0.623436 0.128100
H20 H 0.781998 0.595200 0.109666
C16 C 0.98629(19) 0.4392(3) 0.2625(3)
H21 H 1.004374 0.389050 0.335642
H22 H 1.034842 0.501369 0.275589
H23 H 0.986625 0.395875 0.188036
loop_
_geom_bond_atom_site_label_1
_geom_bond_atom_site_label_2
_geom_bond_site_symmetry_1
_geom_bond_site_symmetry_2
S1 C3 1_555 1_555
O1 C1 1_555 1_555
N1 C1 1_555 1_555
N2 C1 1_555 1_555
N3 C3 1_555 1_555
C2 N2 1_555 1_555
C3 N1 1_555 1_555
C4 S1 1_555 1_555
H1 C4 1_555 1_555
H2 C4 1_555 1_555
C5 C2 1_555 1_555
H3 C5 1_555 1_555
C6 N1 1_555 1_555
H4 C6 1_555 1_555
C7 C6 1_555 1_555
H5 C7 1_555 1_555
H6 C7 1_555 1_555
H7 C7 1_555 1_555
C8 C6 1_555 1_555
H8 C8 1_555 1_555
H9 C8 1_555 1_555
H10 C8 1_555 1_555
C9 C2 1_555 1_555
H11 C9 1_555 1_555
C10 C9 1_555 1_555
H12 C10 1_555 1_555
C11 N3 1_555 1_555
C12 C10 1_555 1_555
H13 C12 1_555 1_555
C13 C5 1_555 1_555
H14 C13 1_555 1_555
C14 C11 1_555 1_555
H15 C14 1_555 1_555
H16 C14 1_555 1_555
H17 C14 1_555 1_555
C15 C11 1_555 1_555
H18 C15 1_555 1_555
H19 C15 1_555 1_555
H20 C15 1_555 1_555
C16 C11 1_555 1_555
H21 C16 1_555 1_555
H22 C16 1_555 1_555
H23 C16 1_555 1_555
N2 C4 1_555 1_555
C12 C13 1_555 1_555

#END
