
#######################################################################
#
#                 Cambridge Crystallographic Data Centre
#                                CCDC 
#
#######################################################################
#
# If this CIF has been generated from an entry in the Cambridge 
# Structural Database, then it will include bibliographic, chemical, 
# crystal, experimental, refinement or atomic coordinate data resulting 
# from the CCDC's data processing and validation procedures.
#
#######################################################################

data_ODUNEG
_chemical_formula_moiety         'C18 H12 S6 1+,B1 F4 1-,C1 H2 Cl2'
_chemical_name_systematic        
'syn-(1,2-bis(5-(dithiafulvenylidenemethyl)-2-thienyl)ethene cation radical) tetrafluoroborate dichloromethane solvate'
_symmetry_cell_setting           orthorhombic
_symmetry_space_group_name_H-M   'P b c a'
_symmetry_Int_Tables_number      61
_space_group_name_Hall           '-P 2ac 2ab'
loop_
_symmetry_equiv_pos_site_id
_symmetry_equiv_pos_as_xyz
1 x,y,z
2 1/2+x,y,1/2-z
3 x,1/2-y,1/2+z
4 1/2-x,1/2+y,z
5 -x,-y,-z
6 1/2-x,-y,1/2+z
7 -x,1/2+y,1/2-z
8 1/2+x,1/2-y,-z
_cell_length_a                   36.44(1)
_cell_length_b                   12.41(1)
_cell_length_c                   10.289(3)
_cell_angle_alpha                90
_cell_angle_beta                 90
_cell_angle_gamma                90
_cell_volume                     4652.9
_exptl_crystal_colour            black
_exptl_crystal_description       prism
_cell_formula_units_Z            8
loop_
_atom_site_label
_atom_site_type_symbol
_atom_site_fract_x
_atom_site_fract_y
_atom_site_fract_z
Cl1 Cl 0.9273(1) -0.0870(3) 0.1990(4)
Cl2 Cl 0.96042(9) 0.0771(3) 0.0493(3)
C19 C 0.9204(3) 0.041(1) 0.134(1)
H13 H 0.9158 0.0913 0.2013
H14 H 0.9001 0.0398 0.0757
S1 S 1.07574(6) 0.1363(2) 0.4370(2)
S2 S 0.91764(7) 0.1525(2) 0.4869(2)
S3 S 1.14774(6) 0.1305(2) 0.5859(2)
S4 S 1.21214(6) 0.1362(2) 0.4219(3)
S5 S 0.78138(6) 0.1366(2) 0.5598(3)
S6 S 0.83957(7) 0.1599(2) 0.3695(2)
C1 C 1.1648(2) 0.1361(8) 0.4281(9)
C2 C 1.1446(2) 0.1403(8) 0.3187(9)
C3 C 1.1060(2) 0.1405(8) 0.3069(8)
C4 C 1.0863(3) 0.1473(8) 0.1901(9)
C5 C 1.0484(2) 0.1497(8) 0.2064(9)
C6 C 1.0372(2) 0.1430(8) 0.3358(9)
C7 C 1.0016(2) 0.1451(7) 0.3871(9)
C8 C 0.9936(2) 0.1332(8) 0.5141(9)
C9 C 0.9583(2) 0.1341(8) 0.5740(9)
C10 C 0.9510(2) 0.1205(7) 0.7037(9)
C11 C 0.9142(3) 0.1201(8) 0.7351(9)
C12 C 0.8910(2) 0.1357(7) 0.6262(9)
C13 C 0.8529(2) 0.1345(8) 0.6329(9)
C14 C 0.8282(2) 0.1458(8) 0.5313(9)
C15 C 0.7688(3) 0.1457(8) 0.399(1)
C16 C 0.7946(3) 0.1565(8) 0.3124(9)
C17 C 1.1900(2) 0.1252(8) 0.6621(9)
C18 C 1.2192(3) 0.1282(8) 0.588(1)
H1 H 1.1580 0.1436 0.2395
H2 H 1.0978 0.1501 0.1072
H3 H 1.0317 0.1553 0.1359
H4 H 0.9818 0.1557 0.3285
H5 H 1.0139 0.1229 0.5706
H6 H 0.9697 0.1121 0.7669
H7 H 0.9053 0.1103 0.8211
H8 H 0.8426 0.1248 0.7169
H9 H 0.7437 0.1429 0.3746
H10 H 0.7892 0.1622 0.2224
H11 H 1.1920 0.1204 0.7540
H12 H 1.2432 0.1261 0.6242
F1 F 0.8018(2) 0.0178(5) -0.1517(6)
F3 F 0.7987(4) 0.086(1) 0.039(1)
F5 F 0.8522(3) 0.040(1) -0.047(1)
F6 F 0.8340(4) -0.091(1) 0.000(1)
B1 B 0.8170(3) 0.011(1) -0.028(1)
F2? F 0.7888(3) 0.014(1) 0.065(1)
F4? F 0.8405(4) 0.088(1) 0.015(2)
F7? F 0.8116(4) -0.086(1) 0.008(1)
loop_
_geom_bond_atom_site_label_1
_geom_bond_atom_site_label_2
_geom_bond_site_symmetry_1
_geom_bond_site_symmetry_2
Cl1 C19 1_555 1_555
Cl2 C19 1_555 1_555
S1 C3 1_555 1_555
S2 C9 1_555 1_555
S3 C1 1_555 1_555
S4 C1 1_555 1_555
S5 C14 1_555 1_555
S6 C14 1_555 1_555
F1 B1 1_555 1_555
F3 B1 1_555 1_555
F5 B1 1_555 1_555
F6 B1 1_555 1_555
C1 C2 1_555 1_555
C2 C3 1_555 1_555
C3 C4 1_555 1_555
C4 C5 1_555 1_555
C5 C6 1_555 1_555
C6 S1 1_555 1_555
C7 C6 1_555 1_555
C8 C7 1_555 1_555
C9 C8 1_555 1_555
C10 C9 1_555 1_555
C11 C10 1_555 1_555
C12 S2 1_555 1_555
C13 C12 1_555 1_555
C14 C13 1_555 1_555
C15 S5 1_555 1_555
C16 S6 1_555 1_555
C17 S3 1_555 1_555
C18 S4 1_555 1_555
C19 H13 1_555 1_555
H1 C2 1_555 1_555
H2 C4 1_555 1_555
H3 C5 1_555 1_555
H4 C7 1_555 1_555
H5 C8 1_555 1_555
H6 C10 1_555 1_555
H7 C11 1_555 1_555
H8 C13 1_555 1_555
H9 C15 1_555 1_555
H10 C16 1_555 1_555
H11 C17 1_555 1_555
H12 C18 1_555 1_555
H14 C19 1_555 1_555
C11 C12 1_555 1_555
C15 C16 1_555 1_555
C17 C18 1_555 1_555

#END
