
#######################################################################
#
#                 Cambridge Crystallographic Data Centre
#                                CCDC 
#
#######################################################################
#
# If this CIF has been generated from an entry in the Cambridge 
# Structural Database, then it will include bibliographic, chemical, 
# crystal, experimental, refinement or atomic coordinate data resulting 
# from the CCDC's data processing and validation procedures.
#
#######################################################################

data_ODUTUE
_chemical_formula_moiety         'C15 H24 O2'
_chemical_name_systematic        
3,3,6-Trimethyl-10-methylene-12-oxatricyclo[7.2.1.0^1,6^]dodecan-5-ol
_symmetry_cell_setting           monoclinic
_symmetry_space_group_name_H-M   'P 21/n'
_symmetry_Int_Tables_number      14
_space_group_name_Hall           '-P 2yn'
loop_
_symmetry_equiv_pos_site_id
_symmetry_equiv_pos_as_xyz
1 x,y,z
2 1/2-x,1/2+y,1/2-z
3 -x,-y,-z
4 1/2+x,1/2-y,1/2+z
_cell_length_a                   9.33530(10)
_cell_length_b                   11.90080(10)
_cell_length_c                   12.30010(10)
_cell_angle_alpha                90
_cell_angle_beta                 107.23
_cell_angle_gamma                90
_cell_volume                     1305.19
_exptl_crystal_colour            colorless
_exptl_crystal_description       block
_cell_formula_units_Z            4
loop_
_atom_site_label
_atom_site_type_symbol
_atom_site_fract_x
_atom_site_fract_y
_atom_site_fract_z
O1 O 0.74109(10) 0.20160(8) 0.18491(8)
H1 H 0.7128 0.1909 0.1142
O2 O 1.14196(9) 0.32098(7) 0.44787(7)
C1 C 0.66184(14) 0.21529(11) 0.41450(11)
H2 H 0.6881 0.1954 0.4953
H3 H 0.7085 0.1617 0.3749
H4 H 0.5526 0.2128 0.3812
C2 C 0.71850(14) 0.33397(10) 0.40216(11)
C3 C 0.88969(13) 0.34353(10) 0.45902(11)
H5 H 0.9164 0.4241 0.4705
H6 H 0.9148 0.3078 0.5350
C4 C 0.98556(13) 0.28988(10) 0.39190(10)
C5 C 0.99503(13) 0.15997(10) 0.39951(10)
H7 H 0.9775 0.1328 0.4706
H8 H 0.9205 0.1249 0.3337
C6 C 1.15304(14) 0.13382(11) 0.39844(10)
C7 C 1.21510(16) 0.03428(12) 0.39671(12)
H9 H 1.3158 0.0292 0.3947
H10 H 1.1590 -0.0321 0.3975
C8 C 0.77607(14) 0.31811(11) 0.20771(11)
H11 H 0.7512 0.3581 0.1329
C9 C 0.94469(13) 0.33677(10) 0.26874(10)
C10 C 1.22744(13) 0.24621(11) 0.39751(11)
H12 H 1.3353 0.2440 0.4439
C11 C 1.21069(14) 0.28317(11) 0.27505(11)
H13 H 1.2695 0.2327 0.2406
H14 H 1.2495 0.3606 0.2748
C12 C 1.04393(14) 0.27899(11) 0.20522(10)
H15 H 1.0303 0.3168 0.1311
H16 H 1.0123 0.1997 0.1900
C13 C 0.64067(15) 0.41559(12) 0.46310(12)
H17 H 0.5321 0.4134 0.4265
H18 H 0.6777 0.4920 0.4586
H19 H 0.6625 0.3935 0.5431
C14 C 0.67812(13) 0.36848(11) 0.27582(11)
H20 H 0.5727 0.3467 0.2382
H21 H 0.6839 0.4514 0.2719
C15 C 0.97530(14) 0.46418(10) 0.26960(11)
H22 H 1.0811 0.4787 0.3098
H23 H 0.9121 0.5033 0.3084
H24 H 0.9521 0.4915 0.1911
loop_
_geom_bond_atom_site_label_1
_geom_bond_atom_site_label_2
_geom_bond_site_symmetry_1
_geom_bond_site_symmetry_2
O1 H1 1_555 1_555
O2 C4 1_555 1_555
C1 H2 1_555 1_555
H3 C1 1_555 1_555
H4 C1 1_555 1_555
C2 C1 1_555 1_555
C3 C2 1_555 1_555
H5 C3 1_555 1_555
H6 C3 1_555 1_555
C4 C3 1_555 1_555
C5 C4 1_555 1_555
H7 C5 1_555 1_555
H8 C5 1_555 1_555
C6 C5 1_555 1_555
C7 C6 1_555 1_555
H9 C7 1_555 1_555
H10 C7 1_555 1_555
C8 O1 1_555 1_555
H11 C8 1_555 1_555
C9 C4 1_555 1_555
C10 O2 1_555 1_555
H12 C10 1_555 1_555
C11 C10 1_555 1_555
H13 C11 1_555 1_555
H14 C11 1_555 1_555
C12 C9 1_555 1_555
H15 C12 1_555 1_555
H16 C12 1_555 1_555
C13 C2 1_555 1_555
H17 C13 1_555 1_555
H18 C13 1_555 1_555
H19 C13 1_555 1_555
C14 C2 1_555 1_555
H20 C14 1_555 1_555
H21 C14 1_555 1_555
C15 C9 1_555 1_555
H22 C15 1_555 1_555
H23 C15 1_555 1_555
H24 C15 1_555 1_555
C6 C10 1_555 1_555
C8 C9 1_555 1_555
C8 C14 1_555 1_555
C11 C12 1_555 1_555

#END
