
#######################################################################
#
#                 Cambridge Crystallographic Data Centre
#                                CCDC 
#
#######################################################################
#
# If this CIF has been generated from an entry in the Cambridge 
# Structural Database, then it will include bibliographic, chemical, 
# crystal, experimental, refinement or atomic coordinate data resulting 
# from the CCDC's data processing and validation procedures.
#
#######################################################################

data_OFAWEX
_chemical_formula_moiety         'C16 H22 I2 Te2'
_chemical_name_systematic        
bis(\m~2~-Iodo)-diphenyl-tetramethyl-di-tellurium(iv)
_symmetry_cell_setting           monoclinic
_symmetry_space_group_name_H-M   'P 21/c'
_symmetry_Int_Tables_number      14
_space_group_name_Hall           '-P 2ybc'
loop_
_symmetry_equiv_pos_site_id
_symmetry_equiv_pos_as_xyz
1 x,y,z
2 x,1/2-y,1/2+z
3 -x,-y,-z
4 -x,1/2+y,1/2-z
_cell_length_a                   8.9319(3)
_cell_length_b                   9.9545(4)
_cell_length_c                   11.7192(4)
_cell_angle_alpha                90
_cell_angle_beta                 104.201(2)
_cell_angle_gamma                90
_cell_volume                     1010.14
_exptl_crystal_colour            colorless
_exptl_crystal_description       block
_cell_formula_units_Z            2
loop_
_atom_site_label
_atom_site_type_symbol
_atom_site_fract_x
_atom_site_fract_y
_atom_site_fract_z
I1 I 0.37579(6) -0.23565(6) 0.08365(5)
Te1 Te 0.37735(6) 0.14062(6) 0.11039(4)
C1 C 0.2290(10) 0.1131(10) -0.0603(7)
C2 C 0.3570(10) 0.3540(10) 0.1100(7)
C3 C 0.1998(9) 0.1112(8) 0.2007(7)
C4 C 0.2284(10) 0.0238(8) 0.2966(7)
C5 C 0.1141(10) 0.0089(9) 0.3579(7)
C6 C -0.0219(10) 0.0786(9) 0.3251(8)
C7 C -0.0502(10) 0.1625(8) 0.2287(7)
C8 C 0.0596(10) 0.1788(8) 0.1658(7)
H1 H 0.2644 0.0392 -0.0977
H2 H 0.1270 0.0958 -0.0534
H3 H 0.2295 0.1921 -0.1057
H4 H 0.4423 0.3929 0.0871
H5 H 0.3559 0.3841 0.1868
H6 H 0.2637 0.3800 0.0561
H7 H 0.3230 -0.0243 0.3194
H8 H 0.1309 -0.0503 0.4235
H9 H -0.0974 0.0689 0.3692
H10 H -0.1458 0.2091 0.2056
H11 H 0.0401 0.2359 0.0988
I1B I 0.62421(6) 0.23565(6) -0.08365(5)
Te1B Te 0.62265(6) -0.14062(6) -0.11039(4)
C1B C 0.7710(10) -0.1131(10) 0.0603(7)
H1B H 0.7356 -0.0392 0.0977
H2B H 0.8730 -0.0958 0.0534
H3B H 0.7705 -0.1921 0.1057
C2B C 0.6430(10) -0.3540(10) -0.1100(7)
H4B H 0.5577 -0.3929 -0.0871
H5B H 0.6441 -0.3841 -0.1868
H6B H 0.7363 -0.3800 -0.0561
C3B C 0.8002(9) -0.1112(8) -0.2007(7)
C4B C 0.7716(10) -0.0238(8) -0.2966(7)
C5B C 0.8859(10) -0.0089(9) -0.3579(7)
C6B C 1.0219(10) -0.0786(9) -0.3251(8)
C7B C 1.0502(10) -0.1625(8) -0.2287(7)
C8B C 0.9404(10) -0.1788(8) -0.1658(7)
H11B H 0.9599 -0.2359 -0.0988
H10B H 1.1458 -0.2091 -0.2056
H9B H 1.0974 -0.0689 -0.3692
H8B H 0.8691 0.0503 -0.4235
H7B H 0.6770 0.0243 -0.3194
loop_
_geom_bond_atom_site_label_1
_geom_bond_atom_site_label_2
_geom_bond_site_symmetry_1
_geom_bond_site_symmetry_2
I1 Te1 1_555 1_555
Te1 C1 1_555 1_555
C1 H1 1_555 1_555
C2 Te1 1_555 1_555
C3 Te1 1_555 1_555
C4 C3 1_555 1_555
C5 C4 1_555 1_555
C6 C5 1_555 1_555
C7 C6 1_555 1_555
C8 C3 1_555 1_555
H2 C1 1_555 1_555
H3 C1 1_555 1_555
H4 C2 1_555 1_555
H5 C2 1_555 1_555
H6 C2 1_555 1_555
H7 C4 1_555 1_555
H8 C5 1_555 1_555
H9 C6 1_555 1_555
H10 C7 1_555 1_555
H11 C8 1_555 1_555
I1B Te1 1_555 1_555
Te1B I1 1_555 1_555
C1B Te1B 1_555 1_555
H1B C1B 1_555 1_555
H2B C1B 1_555 1_555
H3B C1B 1_555 1_555
C2B Te1B 1_555 1_555
H4B C2B 1_555 1_555
H5B C2B 1_555 1_555
H6B C2B 1_555 1_555
C3B Te1B 1_555 1_555
C4B C3B 1_555 1_555
C5B C4B 1_555 1_555
C6B C5B 1_555 1_555
C7B C6B 1_555 1_555
C8B C3B 1_555 1_555
H11B C8B 1_555 1_555
H10B C7B 1_555 1_555
H9B C6B 1_555 1_555
H8B C5B 1_555 1_555
H7B C4B 1_555 1_555
C7 C8 1_555 1_555
I1B Te1B 1_555 1_555
C7B C8B 1_555 1_555

#END
