
#######################################################################
#
#                 Cambridge Crystallographic Data Centre
#                                CCDC 
#
#######################################################################
#
# If this CIF has been generated from an entry in the Cambridge 
# Structural Database, then it will include bibliographic, chemical, 
# crystal, experimental, refinement or atomic coordinate data resulting 
# from the CCDC's data processing and validation procedures.
#
#######################################################################

data_OFEFEL
_chemical_formula_moiety         'C24 H33 N3 S6'
_chemical_name_systematic        
2-(3,5-bis(5,6-Dihydro-4H-1,3-thiazin-2-ylsulfanylmethyl)-2,4,6-trimethylbenzylsulfanyl)-5,6-dihydro-4H-1,3-thiazine
_symmetry_cell_setting           monoclinic
_symmetry_space_group_name_H-M   'P 21/c'
_symmetry_Int_Tables_number      14
_space_group_name_Hall           '-P 2ybc'
loop_
_symmetry_equiv_pos_site_id
_symmetry_equiv_pos_as_xyz
1 x,y,z
2 -x,1/2+y,1/2-z
3 -x,-y,-z
4 x,1/2-y,1/2+z
_cell_length_a                   17.146(3)
_cell_length_b                   10.123(2)
_cell_length_c                   17.408(4)
_cell_angle_alpha                90
_cell_angle_beta                 119.20(3)
_cell_angle_gamma                90
_cell_volume                     2637.52
_exptl_crystal_colour            colorless
_exptl_crystal_description       block
_chemical_melting_point          '455-457 K'
_cell_formula_units_Z            4
_exptl_crystal_recrystallization_method dichloromethane
loop_
_atom_site_label
_atom_site_type_symbol
_atom_site_fract_x
_atom_site_fract_y
_atom_site_fract_z
S1 S 0.22603(7) 0.49261(8) 1.16480(5)
S2 S 0.21116(6) 0.41297(8) 1.31502(5)
S3 S 0.40459(7) 0.67273(8) 0.89432(7)
S4 S 0.51695(7) 0.75283(8) 0.82245(6)
S5 S 0.04801(6) 0.40067(8) 0.72402(5)
S6 S -0.01276(6) 0.28553(9) 0.55715(6)
N1 N 0.2901(2) 0.2620(3) 1.24070(19)
N2 N 0.44422(17) 0.9257(2) 0.89238(17)
N3 N -0.09428(18) 0.5017(3) 0.58476(16)
C1 C 0.2251(2) 0.5004(3) 1.00786(18)
C2 C 0.2894(2) 0.5851(3) 1.00776(19)
C3 C 0.2683(2) 0.6612(3) 0.93296(19)
C4 C 0.1851(2) 0.6473(3) 0.85736(18)
C5 C 0.1201(2) 0.5656(3) 0.85905(18)
C6 C 0.1388(2) 0.4930(3) 0.93487(19)
C7 C 0.0681(2) 0.4062(3) 0.9370(2)
H1 H 0.0677 0.3200 0.9112
H2 H 0.0095 0.4481 0.9032
H3 H 0.0815 0.3943 0.9981
C8 C 0.3816(2) 0.5939(4) 1.0879(2)
H4 H 0.3761 0.6214 1.1391
H5 H 0.4176 0.6586 1.0771
H6 H 0.4106 0.5072 1.0994
C9 C 0.1652(3) 0.7181(3) 0.7734(2)
H7 H 0.1291 0.7968 0.7666
H8 H 0.1322 0.6590 0.7231
H9 H 0.2214 0.7445 0.7759
C10 C 0.2502(2) 0.4094(3) 1.0858(2)
H10 H 0.3145 0.3872 1.1139
H11 H 0.2155 0.3263 1.0657
C11 C 0.2507(2) 0.3647(3) 1.24276(19)
C12 C 0.3113(3) 0.1601(4) 1.3058(3)
H12 H 0.3651 0.1125 1.3137
H13 H 0.2614 0.0959 1.2831
C13 C 0.3284(3) 0.2093(4) 1.3963(2)
H14 H 0.3445 0.1331 1.4368
H15 H 0.3799 0.2707 1.4205
C14 C 0.2501(2) 0.2779(3) 1.3929(2)
H16 H 0.2667 0.3123 1.4521
H17 H 0.2010 0.2135 1.3762
C15 C 0.3350(2) 0.7569(3) 0.9320(2)
H18 H 0.3731 0.7927 0.9918
H19 H 0.3033 0.8316 0.8922
C16 C 0.4551(2) 0.8098(3) 0.8730(2)
C17 C 0.4867(2) 1.0354(3) 0.8727(2)
H20 H 0.4925 1.1106 0.9115
H21 H 0.4474 1.0639 0.8112
C18 C 0.5787(2) 1.0031(3) 0.8843(2)
H22 H 0.6060 1.0848 0.8768
H23 H 0.6175 0.9699 0.9447
C19 C 0.5739(2) 0.9015(3) 0.8193(2)
H24 H 0.6352 0.8786 0.8322
H25 H 0.5421 0.9395 0.7593
C20 C 0.0312(2) 0.5463(3) 0.77578(19)
H26 H 0.0162 0.6243 0.7367
H27 H -0.0174 0.5315 0.7900
C21 C -0.0352(2) 0.4136(3) 0.61307(19)
C22 C -0.1721(8) 0.5025(18) 0.4950(7)
H28 H -0.1877 0.5951 0.4752
H29 H -0.2238 0.4623 0.4968
C23 C -0.1552(8) 0.4282(10) 0.4290(6)
H30 H -0.2119 0.4218 0.3727
H31 H -0.1123 0.4789 0.4179
C24 C -0.1187(7) 0.2907(10) 0.4594(6)
H32 H -0.1134 0.2460 0.4116
H33 H -0.1622 0.2402 0.4696
C25? C -0.1523(9) 0.5088(14) 0.4878(7)
H34? H -0.1216 0.5628 0.4631
H35? H -0.2082 0.5552 0.4749
C26? C -0.1763(5) 0.3763(11) 0.4411(6)
H36? H -0.2009 0.3173 0.4694
H37? H -0.2226 0.3887 0.3789
C27? C -0.0947(6) 0.3143(11) 0.4453(4)
H38? H -0.0699 0.3736 0.4173
H39? H -0.1111 0.2297 0.4126
loop_
_geom_bond_atom_site_label_1
_geom_bond_atom_site_label_2
_geom_bond_site_symmetry_1
_geom_bond_site_symmetry_2
S1 C10 1_555 1_555
S2 C11 1_555 1_555
S3 C15 1_555 1_555
S4 C16 1_555 1_555
S5 C20 1_555 1_555
S6 C21 1_555 1_555
N1 C11 1_555 1_555
N2 C16 1_555 1_555
N3 C21 1_555 1_555
C1 C2 1_555 1_555
C2 C3 1_555 1_555
C3 C4 1_555 1_555
C4 C5 1_555 1_555
C5 C6 1_555 1_555
C6 C1 1_555 1_555
C7 C6 1_555 1_555
H1 C7 1_555 1_555
H2 C7 1_555 1_555
H3 C7 1_555 1_555
C8 C2 1_555 1_555
H4 C8 1_555 1_555
H5 C8 1_555 1_555
H6 C8 1_555 1_555
C9 C4 1_555 1_555
H7 C9 1_555 1_555
H8 C9 1_555 1_555
H9 C9 1_555 1_555
C10 C1 1_555 1_555
H10 C10 1_555 1_555
H11 C10 1_555 1_555
C11 S1 1_555 1_555
C12 N1 1_555 1_555
H12 C12 1_555 1_555
H13 C12 1_555 1_555
C13 C12 1_555 1_555
H14 C13 1_555 1_555
H15 C13 1_555 1_555
C14 S2 1_555 1_555
H16 C14 1_555 1_555
H17 C14 1_555 1_555
C15 C3 1_555 1_555
H18 C15 1_555 1_555
H19 C15 1_555 1_555
C16 S3 1_555 1_555
C17 N2 1_555 1_555
H20 C17 1_555 1_555
H21 C17 1_555 1_555
C18 C17 1_555 1_555
H22 C18 1_555 1_555
H23 C18 1_555 1_555
C19 S4 1_555 1_555
H24 C19 1_555 1_555
H25 C19 1_555 1_555
C20 C5 1_555 1_555
H26 C20 1_555 1_555
H27 C20 1_555 1_555
C21 S5 1_555 1_555
C22 N3 1_555 1_555
H28 C22 1_555 1_555
H29 C22 1_555 1_555
C23 C22 1_555 1_555
H30 C23 1_555 1_555
H31 C23 1_555 1_555
C24 S6 1_555 1_555
H32 C24 1_555 1_555
H33 C24 1_555 1_555
C13 C14 1_555 1_555
C18 C19 1_555 1_555
C23 C24 1_555 1_555

#END
