
#######################################################################
#
#                 Cambridge Crystallographic Data Centre
#                                CCDC 
#
#######################################################################
#
# If this CIF has been generated from an entry in the Cambridge 
# Structural Database, then it will include bibliographic, chemical, 
# crystal, experimental, refinement or atomic coordinate data resulting 
# from the CCDC's data processing and validation procedures.
#
#######################################################################

data_OFEJOZ
_chemical_formula_moiety         'C20 H18'
_chemical_name_systematic        1,4-Dibenzylbenzene
_symmetry_cell_setting           orthorhombic
_symmetry_space_group_name_H-M   'P b c a'
_symmetry_Int_Tables_number      61
_space_group_name_Hall           '-P 2ac 2ab'
loop_
_symmetry_equiv_pos_site_id
_symmetry_equiv_pos_as_xyz
1 x,y,z
2 1/2-x,-y,1/2+z
3 -x,1/2+y,1/2-z
4 1/2+x,1/2-y,-z
5 -x,-y,-z
6 1/2+x,y,1/2-z
7 x,1/2-y,1/2+z
8 1/2-x,1/2+y,z
_cell_length_a                   10.090(2)
_cell_length_b                   7.8736(17)
_cell_length_c                   18.379(4)
_cell_angle_alpha                90
_cell_angle_beta                 90
_cell_angle_gamma                90
_cell_volume                     1460.11
_exptl_crystal_colour            colorless
_exptl_crystal_description       block
_cell_formula_units_Z            4
_exptl_crystal_recrystallization_method ethanol
loop_
_atom_site_label
_atom_site_type_symbol
_atom_site_fract_x
_atom_site_fract_y
_atom_site_fract_z
C1 C 0.59364(16) 0.00124(18) 0.32979(7)
H1 H 0.6851 0.0025 0.3237
C2 C 0.51761(18) -0.1021(2) 0.28591(8)
H2 H 0.5581 -0.1704 0.2511
C3 C 0.38309(17) -0.10439(19) 0.29345(8)
H3 H 0.3315 -0.1743 0.2641
C4 C 0.32456(16) -0.00224(18) 0.34494(9)
H4 H 0.2329 -0.0024 0.3500
C5 C 0.40087(14) 0.10059(18) 0.38913(8)
H5 H 0.3599 0.1690 0.4237
C6 C 0.53707(14) 0.10314(16) 0.38264(7)
C7 C 0.62560(15) 0.20681(18) 0.43237(9)
H6 H 0.6586 0.1329 0.4705
H7 H 0.7014 0.2456 0.4045
C8 C 0.56130(13) 0.35893(17) 0.46745(8)
C9 C 0.53593(15) 0.50516(19) 0.42826(8)
H8 H 0.5596 0.5101 0.3794
C10 C 0.52371(15) 0.35641(18) 0.53983(8)
H9 H 0.5390 0.2594 0.5674
C1D C 0.40636(16) 0.99876(18) 0.67021(7)
H1D H 0.3149 0.9975 0.6763
C2D C 0.48239(18) 1.1021(2) 0.71409(8)
H2D H 0.4419 1.1704 0.7489
C3D C 0.61691(17) 1.10439(19) 0.70655(8)
H3D H 0.6685 1.1743 0.7359
C4D C 0.67544(16) 1.00224(18) 0.65506(9)
H4D H 0.7671 1.0024 0.6500
C5D C 0.59913(14) 0.89941(18) 0.61087(8)
H5D H 0.6401 0.8310 0.5763
C6D C 0.46293(14) 0.89686(16) 0.61736(7)
C7D C 0.37440(15) 0.79319(18) 0.56763(9)
H6D H 0.3414 0.8671 0.5295
H7D H 0.2986 0.7544 0.5955
C8D C 0.43870(13) 0.64107(17) 0.53255(8)
C9D C 0.46407(15) 0.49484(19) 0.57174(8)
H8D H 0.4404 0.4899 0.6206
C10D C 0.47629(15) 0.64359(18) 0.46017(8)
H9D H 0.4610 0.7406 0.4326
loop_
_geom_bond_atom_site_label_1
_geom_bond_atom_site_label_2
_geom_bond_site_symmetry_1
_geom_bond_site_symmetry_2
C1 H1 1_555 1_555
C2 C1 1_555 1_555
H2 C2 1_555 1_555
C3 C2 1_555 1_555
H3 C3 1_555 1_555
C4 C3 1_555 1_555
H4 C4 1_555 1_555
C5 C4 1_555 1_555
H5 C5 1_555 1_555
C6 C1 1_555 1_555
C7 C6 1_555 1_555
H6 C7 1_555 1_555
H7 C7 1_555 1_555
C8 C7 1_555 1_555
C9 C8 1_555 1_555
H8 C9 1_555 1_555
C10 C8 1_555 1_555
H9 C10 1_555 1_555
C1D H1D 1_555 1_555
C2D C1D 1_555 1_555
H2D C2D 1_555 1_555
C3D C2D 1_555 1_555
H3D C3D 1_555 1_555
C4D C3D 1_555 1_555
H4D C4D 1_555 1_555
C5D C4D 1_555 1_555
H5D C5D 1_555 1_555
C6D C1D 1_555 1_555
C7D C6D 1_555 1_555
H6D C7D 1_555 1_555
H7D C7D 1_555 1_555
C8D C7D 1_555 1_555
C9D C10 1_555 1_555
H8D C9D 1_555 1_555
C10D C9 1_555 1_555
H9D C10D 1_555 1_555
C5 C6 1_555 1_555
C5D C6D 1_555 1_555
C8D C9D 1_555 1_555
C8D C10D 1_555 1_555

#END
