
#######################################################################
#
#                 Cambridge Crystallographic Data Centre
#                                CCDC 
#
#######################################################################
#
# If this CIF has been generated from an entry in the Cambridge 
# Structural Database, then it will include bibliographic, chemical, 
# crystal, experimental, refinement or atomic coordinate data resulting 
# from the CCDC's data processing and validation procedures.
#
#######################################################################

data_OFEMIX01
_chemical_formula_moiety         'C21 H18 O1'
_chemical_name_systematic        2,4-diphenylchromane
_symmetry_cell_setting           monoclinic
_symmetry_space_group_name_H-M   'P 21/n'
_symmetry_Int_Tables_number      14
_space_group_name_Hall           '-P 2yn'
loop_
_symmetry_equiv_pos_site_id
_symmetry_equiv_pos_as_xyz
1 x,y,z
2 1/2-x,1/2+y,1/2-z
3 -x,-y,-z
4 1/2+x,1/2-y,1/2+z
_cell_length_a                   13.2790(9)
_cell_length_b                   5.7408(4)
_cell_length_c                   21.3743(15)
_cell_angle_alpha                90
_cell_angle_beta                 103.760(3)
_cell_angle_gamma                90
_cell_volume                     1582.64
_exptl_crystal_colour            colorless
_cell_formula_units_Z            4
loop_
_atom_site_label
_atom_site_type_symbol
_atom_site_fract_x
_atom_site_fract_y
_atom_site_fract_z
O1 O 0.36882(9) 0.3240(2) 0.99344(6)
C1 C -0.15188(17) 0.1822(5) 0.86223(11)
H1 H -0.2235 0.1995 0.8501
C2 C -0.10634(17) -0.0115(4) 0.84484(11)
H2 H -0.1470 -0.1271 0.8207
C3 C 0.00031(16) -0.0375(4) 0.86288(10)
H3 H 0.0305 -0.1712 0.8508
C4 C 0.06228(14) 0.1310(3) 0.89833(9)
C5 C 0.17918(14) 0.1031(3) 0.91766(9)
H4 H 0.1965 -0.0412 0.8981
C6 C 0.21901(14) 0.0797(4) 0.99057(9)
H5 H 0.1885 0.2010 1.0117
H6 H 0.1975 -0.0696 1.0043
C7 C 0.33609(14) 0.0981(3) 1.01085(9)
H7 H 0.3663 -0.0220 0.9883
C8 C 0.37798(13) 0.0683(3) 1.08189(9)
C9 C 0.43139(16) -0.1298(4) 1.10635(11)
H8 H 0.4459 -0.2421 1.0784
C10 C 0.46362(18) -0.1633(4) 1.17219(14)
H9 H 0.4994 -0.2981 1.1882
C11 C 0.44304(19) 0.0012(5) 1.21376(12)
H10 H 0.4638 -0.0229 1.2580
C12 C 0.32548(13) 0.3979(3) 0.93164(9)
C13 C 0.37684(14) 0.5775(3) 0.90921(9)
H11 H 0.4369 0.6397 0.9354
C14 C 0.33901(16) 0.6637(4) 0.84829(10)
H12 H 0.3736 0.7844 0.8333
C15 C 0.24969(16) 0.5719(4) 0.80909(10)
H13 H 0.2237 0.6307 0.7679
C16 C 0.20011(15) 0.3927(4) 0.83194(9)
H14 H 0.1405 0.3305 0.8053
C17 C 0.23566(14) 0.3009(3) 0.89340(9)
C18 C 0.39185(18) 0.2016(5) 1.19018(11)
H15 H 0.3789 0.3149 1.2183
C19 C 0.35954(15) 0.2347(4) 1.12440(10)
H16 H 0.3249 0.3711 1.1086
C20 C 0.01476(16) 0.3263(4) 0.91551(10)
H17 H 0.0550 0.4428 0.9395
C21 C -0.09161(17) 0.3516(4) 0.89766(11)
H18 H -0.1224 0.4843 0.9098
loop_
_geom_bond_atom_site_label_1
_geom_bond_atom_site_label_2
_geom_bond_site_symmetry_1
_geom_bond_site_symmetry_2
O1 C7 1_555 1_555
C1 H1 1_555 1_555
C2 C1 1_555 1_555
H2 C2 1_555 1_555
C3 C2 1_555 1_555
H3 C3 1_555 1_555
C4 C3 1_555 1_555
C5 C4 1_555 1_555
H4 C5 1_555 1_555
C6 C5 1_555 1_555
H5 C6 1_555 1_555
H6 C6 1_555 1_555
C7 C6 1_555 1_555
H7 C7 1_555 1_555
C8 C7 1_555 1_555
C9 C8 1_555 1_555
H8 C9 1_555 1_555
C10 C9 1_555 1_555
H9 C10 1_555 1_555
C11 C10 1_555 1_555
H10 C11 1_555 1_555
C12 O1 1_555 1_555
C13 C12 1_555 1_555
H11 C13 1_555 1_555
C14 C13 1_555 1_555
H12 C14 1_555 1_555
C15 C14 1_555 1_555
H13 C15 1_555 1_555
C16 C15 1_555 1_555
H14 C16 1_555 1_555
C17 C5 1_555 1_555
C18 C11 1_555 1_555
H15 C18 1_555 1_555
C19 C8 1_555 1_555
H16 C19 1_555 1_555
C20 C4 1_555 1_555
H17 C20 1_555 1_555
C21 C1 1_555 1_555
H18 C21 1_555 1_555
C12 C17 1_555 1_555
C16 C17 1_555 1_555
C18 C19 1_555 1_555
C20 C21 1_555 1_555

#END
