
#######################################################################
#
#                 Cambridge Crystallographic Data Centre
#                                CCDC 
#
#######################################################################
#
# If this CIF has been generated from an entry in the Cambridge 
# Structural Database, then it will include bibliographic, chemical, 
# crystal, experimental, refinement or atomic coordinate data resulting 
# from the CCDC's data processing and validation procedures.
#
#######################################################################

data_OFIDEO
_chemical_name_common            
'(3S,3aR,3a1R,6aR,7S,7aR,10S,11S,11aS,11bS)-10-azido-7,11-dihydroxy-5,5,8,8-tetramethyl-15-methylenedecahydro-1H-6a,11a-(epoxymethano)-3,3a1-ethanophenanthro[1,10-de][1,3]dioxin-14-one hydrate'
_chemical_formula_moiety         'C23 H31 N3 O6,2.6(H2 O1)'
_chemical_name_systematic        
'18-Azido-14,19-dihydroxy-11,11,16,16-tetramethyl-6-methylene-10,12,21-trioxahexacyclo[11.6.2.0^1,15^.0^2,8^.0^5,9^.0^8,13^]henicosan-7-one hydrate'
_symmetry_cell_setting           orthorhombic
_symmetry_space_group_name_H-M   'P 21 21 2'
_symmetry_Int_Tables_number      18
_space_group_name_Hall           'P 2 2ab'
loop_
_symmetry_equiv_pos_site_id
_symmetry_equiv_pos_as_xyz
1 x,y,z
2 1/2+x,1/2-y,-z
3 1/2-x,1/2+y,-z
4 -x,-y,z
_cell_length_a                   15.3838(3)
_cell_length_b                   14.0397(4)
_cell_length_c                   10.9931(3)
_cell_angle_alpha                90
_cell_angle_beta                 90
_cell_angle_gamma                90
_cell_volume                     2374.33
_exptl_crystal_colour            colorless
_exptl_crystal_description       'rectangular plate'
_cell_formula_units_Z            4
loop_
_atom_site_label
_atom_site_type_symbol
_atom_site_fract_x
_atom_site_fract_y
_atom_site_fract_z
O1 O -0.17517(11) -0.19097(13) -0.5388(2)
O2 O -0.17319(11) -0.31998(14) -0.72676(18)
O3 O -0.26180(12) -0.42223(14) -0.62354(18)
O4 O -0.26407(13) -0.30796(16) -0.90090(18)
O5 O -0.28770(14) -0.11508(14) -0.7007(2)
O6 O -0.50030(12) -0.27185(17) -0.4169(2)
C1 C -0.32520(15) -0.28395(17) -0.7070(2)
C2 C -0.44927(16) -0.3559(2) -0.4147(3)
C3 C -0.21899(15) -0.27971(18) -0.5271(2)
C4 C -0.37107(16) -0.34259(17) -0.4997(2)
C5 C -0.32688(16) -0.18089(19) -0.7445(2)
C6 C -0.32776(18) -0.43706(18) -0.5313(3)
C7 C -0.33988(18) -0.3304(2) -0.8315(2)
C8 C -0.28026(17) -0.2821(2) -0.3077(2)
N1 N -0.39056(19) -0.4704(2) -0.2700(3)
C9 C -0.47727(17) -0.3529(2) -0.6856(3)
C10 C -0.4254(2) -0.3729(2) -0.2828(3)
C11 C -0.40456(14) -0.29862(17) -0.6199(2)
C12 C -0.39058(18) -0.1740(2) -0.8458(3)
C13 C -0.41579(18) -0.2736(2) -0.8782(3)
C14 C -0.3643(2) -0.2952(3) -0.2374(3)
C15 C -0.24435(15) -0.32449(18) -0.6484(2)
C16 C -0.30090(14) -0.27416(17) -0.4461(2)
C17 C -0.2146(2) -0.3600(2) -0.2748(3)
C18 C -0.1853(2) -0.3450(3) -0.8535(3)
C19 C -0.2407(2) -0.1871(3) -0.2672(3)
C20 C -0.1127(2) -0.2952(4) -0.9175(4)
N2 N -0.3801(3) -0.4956(3) -0.1650(3)
C21 C -0.49771(19) -0.3080(3) -0.8108(3)
C22 C -0.4160(3) -0.0930(3) -0.8921(4)
C23 C -0.1816(3) -0.4521(3) -0.8684(4)
N3 N -0.3684(5) -0.5251(4) -0.0733(5)
H1 H -0.4837 -0.4094 -0.4440
H2 H -0.1773 -0.3224 -0.4879
H3 H -0.3722 -0.4800 -0.5635
H4 H -0.3015 -0.4677 -0.4603
H5 H -0.3502 -0.3977 -0.8257
H6 H -0.4583 -0.4188 -0.6993
H7 H -0.5284 -0.3516 -0.6335
H8 H -0.4785 -0.3677 -0.2344
H9 H -0.4266 -0.2360 -0.5968
H10 H -0.4216 -0.2834 -0.9653
H11 H -0.3967 -0.2362 -0.2417
H12 H -0.3518 -0.3123 -0.1532
H13 H -0.3243 -0.2107 -0.4582
H14 H -0.1586 -0.3469 -0.3103
H15 H -0.2345 -0.4213 -0.3035
H16 H -0.2068 -0.3628 -0.1873
H17 H -0.1915 -0.1711 -0.3167
H18 H -0.2825 -0.1370 -0.2760
H19 H -0.2230 -0.1911 -0.1831
H20 H -0.1118 -0.3170 -1.0007
H21 H -0.0582 -0.3104 -0.8770
H22 H -0.1221 -0.2277 -0.9154
H23 H -0.5246 -0.3572 -0.8624
H24 H -0.5382 -0.2543 -0.8007
H25 H -0.4551 -0.0899 -0.9567
H26 H -0.3945 -0.0369 -0.8594
H27 H -0.1918 -0.4679 -0.9525
H28 H -0.2239 -0.4836 -0.8168
H29 H -0.1239 -0.4742 -0.8478
H30 H -0.2060 -0.1563 -0.5847
O7 O -0.5855(6) 0.0220(5) -0.5314(13)
O8? O -0.5310(11) 0.0735(11) -0.379(2)
O9? O -0.5191(11) -0.0369(9) -0.4492(16)
O10? O -0.5067(5) -0.0391(4) -0.6123(5)
O11? O -0.5912(4) 0.0227(6) -0.4317(10)
O12? O -0.5253(17) -0.0144(18) -0.332(2)
loop_
_geom_bond_atom_site_label_1
_geom_bond_atom_site_label_2
_geom_bond_site_symmetry_1
_geom_bond_site_symmetry_2
O1 C3 1_555 1_555
O2 C15 1_555 1_555
O3 C6 1_555 1_555
O4 C7 1_555 1_555
O5 C5 1_555 1_555
O6 C2 1_555 1_555
C1 C5 1_555 1_555
C2 C4 1_555 1_555
C3 C15 1_555 1_555
C4 C6 1_555 1_555
C5 C12 1_555 1_555
C6 H3 1_555 1_555
C7 C1 1_555 1_555
C8 C14 1_555 1_555
N1 C10 1_555 1_555
C9 C11 1_555 1_555
C10 C2 1_555 1_555
C11 C1 1_555 1_555
C12 C13 1_555 1_555
C13 C7 1_555 1_555
C14 C10 1_555 1_555
C15 O3 1_555 1_555
C16 C3 1_555 1_555
C17 C8 1_555 1_555
C18 O2 1_555 1_555
C19 C8 1_555 1_555
C20 C18 1_555 1_555
N2 N1 1_555 1_555
C21 C9 1_555 1_555
C22 C12 1_555 1_555
C23 C18 1_555 1_555
N3 N2 1_555 1_555
H1 C2 1_555 1_555
H2 C3 1_555 1_555
H4 C6 1_555 1_555
H5 C7 1_555 1_555
H6 C9 1_555 1_555
H7 C9 1_555 1_555
H8 C10 1_555 1_555
H9 C11 1_555 1_555
H10 C13 1_555 1_555
H11 C14 1_555 1_555
H12 C14 1_555 1_555
H13 C16 1_555 1_555
H14 C17 1_555 1_555
H15 C17 1_555 1_555
H16 C17 1_555 1_555
H17 C19 1_555 1_555
H18 C19 1_555 1_555
H19 C19 1_555 1_555
H20 C20 1_555 1_555
H21 C20 1_555 1_555
H22 C20 1_555 1_555
H23 C21 1_555 1_555
H24 C21 1_555 1_555
H25 C22 1_555 1_555
H26 C22 1_555 1_555
H27 C23 1_555 1_555
H28 C23 1_555 1_555
H29 C23 1_555 1_555
H30 O1 1_555 1_555
O4 C18 1_555 1_555
C1 C15 1_555 1_555
C4 C11 1_555 1_555
C4 C16 1_555 1_555
C8 C16 1_555 1_555
C13 C21 1_555 1_555

#END
