
#######################################################################
#
#                 Cambridge Crystallographic Data Centre
#                                CCDC 
#
#######################################################################
#
# If this CIF has been generated from an entry in the Cambridge 
# Structural Database, then it will include bibliographic, chemical, 
# crystal, experimental, refinement or atomic coordinate data resulting 
# from the CCDC's data processing and validation procedures.
#
#######################################################################

data_OFIFUH
_chemical_formula_moiety         'C24 H25 Br1 N2 O6'
_chemical_name_systematic        
'1-t-butyl 4-ethyl 2-[3-(3-bromopyridin-2-yl)-7-methyl-2-oxo-2,3-dihydro-1H-indol-3-yl]-3-oxobutanedioate'
_symmetry_cell_setting           monoclinic
_symmetry_space_group_name_H-M   'P 21/n'
_symmetry_Int_Tables_number      14
_space_group_name_Hall           '-P 2yn'
loop_
_symmetry_equiv_pos_site_id
_symmetry_equiv_pos_as_xyz
1 x,y,z
2 1/2-x,1/2+y,1/2-z
3 -x,-y,-z
4 1/2+x,1/2-y,1/2+z
_cell_length_a                   9.2814(5)
_cell_length_b                   31.5000(12)
_cell_length_c                   9.6150(5)
_cell_angle_alpha                90
_cell_angle_beta                 116.973(6)
_cell_angle_gamma                90
_cell_volume                     2505.29
_exptl_crystal_description       block
_cell_formula_units_Z            4
loop_
_atom_site_label
_atom_site_type_symbol
_atom_site_fract_x
_atom_site_fract_y
_atom_site_fract_z
Br1 Br -0.03567(5) 0.53803(2) 0.16117(5)
O1 O 0.4085(2) 0.52795(6) 0.6051(2)
O2 O 0.1461(3) 0.67406(7) 0.4959(3)
O3 O 0.2860(4) 0.71908(11) 0.7680(4)
O4 O 0.4860(3) 0.67264(8) 0.8506(3)
O5 O 0.6228(3) 0.60881(7) 0.6086(4)
O6 O 0.5228(2) 0.67484(6) 0.5575(2)
N1 N 0.3918(3) 0.54338(8) 0.3643(3)
H1 H 0.448(4) 0.5233(10) 0.363(4)
N2 N 0.1092(3) 0.58711(8) 0.6057(3)
C1 C 0.3648(3) 0.55015(8) 0.4884(3)
C2 C 0.2623(3) 0.59129(8) 0.4583(3)
C3 C 0.2474(3) 0.60513(8) 0.3009(3)
C4 C 0.1719(4) 0.63942(9) 0.2068(4)
H2 H 0.1175 0.6594 0.2368
C5 C 0.1790(4) 0.64349(11) 0.0663(4)
H3 H 0.1298 0.6666 0.0019
C6 C 0.2582(4) 0.61362(11) 0.0208(4)
H4 H 0.2597 0.6170 -0.0746
C7 C 0.3355(4) 0.57870(10) 0.1121(3)
C8 C 0.3285(3) 0.57586(8) 0.2529(3)
C9 C 0.4174(5) 0.54584(12) 0.0584(4)
H5 H 0.5292 0.5532 0.0956
H6 H 0.3656 0.5448 -0.0536
H7 H 0.4095 0.5185 0.0988
C10 C 0.1078(3) 0.57809(8) 0.4689(3)
C11 C -0.0199(4) 0.55457(10) 0.3577(4)
C12 C -0.1433(4) 0.54076(11) 0.3893(5)
H8 H -0.2281 0.5248 0.3160
C13 C -0.1396(4) 0.55077(11) 0.5300(5)
H9 H -0.2213 0.5419 0.5540
C14 C -0.0121(4) 0.57412(11) 0.6333(5)
H10 H -0.0097 0.5814 0.7281
C15 C 0.3622(3) 0.62242(8) 0.5932(3)
H11 H 0.3924 0.6070 0.6911
C16 C 0.2704(4) 0.66185(9) 0.5984(3)
C17 C 0.3474(4) 0.68824(11) 0.7493(4)
C18 C 0.5815(6) 0.69687(17) 0.9936(5)
H12 H 0.5921 0.7261 0.9683
H13 H 0.5290 0.6965 1.0609
C19 C 0.7410(6) 0.6768(3) 1.0723(6)
H14 H 0.7827 0.6723 0.9985
H15 H 0.7316 0.6500 1.1152
H16 H 0.8133 0.6949 1.1547
C20 C 0.5189(4) 0.63414(9) 0.5873(3)
C21 C 0.6592(4) 0.69398(12) 0.5383(5)
C22 C 0.6700(7) 0.6720(3) 0.4027(6)
H17 H 0.6889 0.6422 0.4246
H18 H 0.7575 0.6840 0.3885
H19 H 0.5705 0.6759 0.3094
C23 C 0.8163(5) 0.68752(15) 0.6821(5)
H20 H 0.8071 0.6981 0.7714
H21 H 0.9007 0.7026 0.6714
H22 H 0.8418 0.6578 0.6955
C24 C 0.6321(18) 0.7435(4) 0.549(3)
H23 H 0.6265 0.7496 0.6440
H24 H 0.5329 0.7520 0.4614
H25 H 0.7206 0.7589 0.5469
C25? C 0.579(3) 0.7299(6) 0.445(4)
H26? H 0.4919 0.7206 0.3490
H27? H 0.6547 0.7461 0.4238
H28? H 0.5376 0.7474 0.5007
loop_
_geom_bond_atom_site_label_1
_geom_bond_atom_site_label_2
_geom_bond_site_symmetry_1
_geom_bond_site_symmetry_2
Br1 C11 1_555 1_555
O1 C1 1_555 1_555
O2 C16 1_555 1_555
O3 C17 1_555 1_555
O4 C17 1_555 1_555
O5 C20 1_555 1_555
O6 C20 1_555 1_555
N1 H1 1_555 1_555
N2 C10 1_555 1_555
C1 N1 1_555 1_555
C2 C1 1_555 1_555
C3 C2 1_555 1_555
C4 C3 1_555 1_555
H2 C4 1_555 1_555
C5 C4 1_555 1_555
H3 C5 1_555 1_555
C6 C5 1_555 1_555
H4 C6 1_555 1_555
C7 C6 1_555 1_555
C8 N1 1_555 1_555
C9 C7 1_555 1_555
H5 C9 1_555 1_555
H6 C9 1_555 1_555
H7 C9 1_555 1_555
C10 C2 1_555 1_555
C11 C10 1_555 1_555
C12 C11 1_555 1_555
H8 C12 1_555 1_555
C13 C12 1_555 1_555
H9 C13 1_555 1_555
C14 N2 1_555 1_555
H10 C14 1_555 1_555
C15 C2 1_555 1_555
H11 C15 1_555 1_555
C16 C15 1_555 1_555
C17 C16 1_555 1_555
C18 O4 1_555 1_555
H12 C18 1_555 1_555
H13 C18 1_555 1_555
C19 C18 1_555 1_555
H14 C19 1_555 1_555
H15 C19 1_555 1_555
H16 C19 1_555 1_555
C20 C15 1_555 1_555
C21 O6 1_555 1_555
C22 C21 1_555 1_555
H17 C22 1_555 1_555
H18 C22 1_555 1_555
H19 C22 1_555 1_555
C23 C21 1_555 1_555
H20 C23 1_555 1_555
H21 C23 1_555 1_555
H22 C23 1_555 1_555
C24 C21 1_555 1_555
H23 C24 1_555 1_555
H24 C24 1_555 1_555
H25 C24 1_555 1_555
C3 C8 1_555 1_555
C7 C8 1_555 1_555
C13 C14 1_555 1_555

#END
