
#######################################################################
#
#                 Cambridge Crystallographic Data Centre
#                                CCDC 
#
#######################################################################
#
# If this CIF has been generated from an entry in the Cambridge 
# Structural Database, then it will include bibliographic, chemical, 
# crystal, experimental, refinement or atomic coordinate data resulting 
# from the CCDC's data processing and validation procedures.
#
#######################################################################

data_OFINAV
_chemical_formula_moiety         'C19 H13 F1 O2'
_chemical_name_systematic        
5-fluoro-9-methyl-3-phenylnaphtho[2,3-c]furan-1(3H)-one
_symmetry_cell_setting           monoclinic
_symmetry_space_group_name_H-M   'P 21/c'
_symmetry_Int_Tables_number      14
_space_group_name_Hall           '-P 2ybc'
loop_
_symmetry_equiv_pos_site_id
_symmetry_equiv_pos_as_xyz
1 x,y,z
2 -x,1/2+y,1/2-z
3 -x,-y,-z
4 x,1/2-y,1/2+z
_cell_length_a                   7.508(15)
_cell_length_b                   12.35(2)
_cell_length_c                   14.70(3)
_cell_angle_alpha                90
_cell_angle_beta                 91.40(8)
_cell_angle_gamma                90
_cell_volume                     1362.63
_exptl_crystal_colour            colorless
_exptl_crystal_description       block
_cell_formula_units_Z            4
loop_
_atom_site_label
_atom_site_type_symbol
_atom_site_fract_x
_atom_site_fract_y
_atom_site_fract_z
C1 C 0.0572(3) 0.6945(2) 0.70696(16)
C2 C 0.1258(3) 0.62900(18) 0.63241(16)
C3 C 0.1292(3) 0.65185(18) 0.54238(16)
C4 C 0.2033(3) 0.57098(18) 0.48550(16)
C5 C 0.2139(3) 0.5855(2) 0.39187(16)
H1 H 0.1717 0.6509 0.3651
C6 C 0.2842(3) 0.5072(2) 0.33814(17)
H2 H 0.2905 0.5188 0.2744
C7 C 0.3474(3) 0.4094(2) 0.37615(17)
H3 H 0.3950 0.3545 0.3385
C8 C 0.3395(3) 0.39524(18) 0.46488(16)
C9 C 0.2686(3) 0.47142(18) 0.52463(16)
C10 C 0.2615(3) 0.45205(19) 0.61783(16)
H4 H 0.3044 0.3863 0.6438
C11 C 0.1907(2) 0.53115(18) 0.66983(16)
C12 C 0.1668(3) 0.53354(19) 0.76937(16)
H5 H 0.0842 0.4742 0.7873
C13 C 0.3423(3) 0.52337(19) 0.82297(16)
C14 C 0.3964(3) 0.4220(2) 0.85386(17)
H6 H 0.3198 0.3613 0.8460
C15 C 0.5638(3) 0.4093(2) 0.89650(17)
H7 H 0.6000 0.3398 0.9176
C16 C 0.6770(3) 0.4966(2) 0.90829(17)
H8 H 0.7914 0.4871 0.9362
C17 C 0.6223(3) 0.5984(2) 0.87903(17)
H9 H 0.6984 0.6590 0.8882
C18 C 0.4562(3) 0.6119(2) 0.83618(17)
H10 H 0.4201 0.6817 0.8158
C19 C 0.0574(3) 0.7555(2) 0.50258(18)
H11 H 0.0033 0.7986 0.5506
H12 H -0.0328 0.7389 0.4553
H13 H 0.1547 0.7966 0.4759
F1 F 0.40230(17) 0.30114(11) 0.50185(10)
O1 O 0.0835(2) 0.63792(14) 0.78500(11)
O2 O -0.0114(2) 0.78277(14) 0.70792(12)
loop_
_geom_bond_atom_site_label_1
_geom_bond_atom_site_label_2
_geom_bond_site_symmetry_1
_geom_bond_site_symmetry_2
C1 C2 1_555 1_555
C2 C3 1_555 1_555
C3 C4 1_555 1_555
C4 C5 1_555 1_555
C5 H1 1_555 1_555
C6 C5 1_555 1_555
H2 C6 1_555 1_555
C7 C6 1_555 1_555
H3 C7 1_555 1_555
C8 C7 1_555 1_555
C9 C4 1_555 1_555
C10 C9 1_555 1_555
H4 C10 1_555 1_555
C11 C2 1_555 1_555
C12 C11 1_555 1_555
H5 C12 1_555 1_555
C13 C12 1_555 1_555
C14 C13 1_555 1_555
H6 C14 1_555 1_555
C15 C14 1_555 1_555
H7 C15 1_555 1_555
C16 C15 1_555 1_555
H8 C16 1_555 1_555
C17 C16 1_555 1_555
H9 C17 1_555 1_555
C18 C13 1_555 1_555
H10 C18 1_555 1_555
C19 C3 1_555 1_555
H11 C19 1_555 1_555
H12 C19 1_555 1_555
H13 C19 1_555 1_555
F1 C8 1_555 1_555
O1 C1 1_555 1_555
O2 C1 1_555 1_555
C8 C9 1_555 1_555
C10 C11 1_555 1_555
C12 O1 1_555 1_555
C17 C18 1_555 1_555

#END
