
#######################################################################
#
#                 Cambridge Crystallographic Data Centre
#                                CCDC 
#
#######################################################################
#
# If this CIF has been generated from an entry in the Cambridge 
# Structural Database, then it will include bibliographic, chemical, 
# crystal, experimental, refinement or atomic coordinate data resulting 
# from the CCDC's data processing and validation procedures.
#
#######################################################################

data_OFIWAE
_chemical_formula_moiety         'C24 H32 N2 O3,C1 H4 O1'
_chemical_name_systematic        
'N-(2-hydroxy-1-phenylethyl)-2-[1-(4-methoxy-2,6-dimethylphenyl)pyrrolidin-2-yl]propanamide methanol solvate'
_symmetry_cell_setting           orthorhombic
_symmetry_space_group_name_H-M   'P 21 21 21'
_symmetry_Int_Tables_number      19
_space_group_name_Hall           'P 2ac 2ab'
loop_
_symmetry_equiv_pos_site_id
_symmetry_equiv_pos_as_xyz
1 x,y,z
2 1/2-x,-y,1/2+z
3 -x,1/2+y,1/2-z
4 1/2+x,1/2-y,-z
_cell_length_a                   7.8167(3)
_cell_length_b                   15.1723(5)
_cell_length_c                   20.1325(7)
_cell_angle_alpha                90
_cell_angle_beta                 90
_cell_angle_gamma                90
_cell_volume                     2387.66
_exptl_crystal_colour            colorless
_exptl_crystal_description       prism
_cell_formula_units_Z            4
loop_
_atom_site_label
_atom_site_type_symbol
_atom_site_fract_x
_atom_site_fract_y
_atom_site_fract_z
O1 O 0.6880(3) 0.81801(16) 0.68833(11)
O2 O 0.0447(3) 0.38581(15) 0.63294(11)
O3 O 0.0844(3) 0.22916(16) 0.46225(12)
H1 H 0.138(5) 0.217(3) 0.4271(15)
N1 N 0.4030(3) 0.56213(17) 0.52098(13)
N2 N 0.2348(3) 0.29286(17) 0.58343(14)
H2 H 0.338(3) 0.290(3) 0.5658(18)
C1 C 0.8564(5) 0.8055(2) 0.71356(17)
H3 H 0.886052 0.854634 0.743017
H4 H 0.861362 0.750099 0.738486
H5 H 0.937763 0.803250 0.676564
C2 C 0.6263(4) 0.7545(2) 0.64588(15)
C3 C 0.4600(5) 0.7669(2) 0.62267(16)
H6 H 0.397865 0.817814 0.635748
C4 C 0.3840(4) 0.7059(2) 0.58079(16)
C5 C 0.4759(4) 0.6301(2) 0.56193(15)
C6 C 0.6457(4) 0.6202(2) 0.58268(16)
C7 C 0.7195(4) 0.6821(2) 0.62515(17)
H7 H 0.834059 0.674471 0.639857
C8 C 0.3785(5) 0.5818(2) 0.44980(16)
H8 H 0.475791 0.559332 0.423257
H9 H 0.368047 0.646124 0.442488
C9 C 0.2138(5) 0.5349(2) 0.43098(18)
H10 H 0.221970 0.509221 0.385881
H11 H 0.115163 0.575759 0.432546
C10 C 0.1970(5) 0.4630(2) 0.48336(17)
H12 H 0.268710 0.411335 0.472209
H13 H 0.076579 0.443820 0.488199
C11 C 0.2608(4) 0.5086(2) 0.54649(16)
H14 H 0.169309 0.548082 0.564329
C12 C 0.3190(4) 0.4437(2) 0.60129(15)
H15 H 0.430140 0.416639 0.587565
C13 C 0.1866(4) 0.3714(2) 0.60781(15)
C14 C 0.1262(4) 0.2154(2) 0.57991(16)
H16 H 0.004433 0.234609 0.584493
C15 C 0.1653(5) 0.1492(2) 0.63478(17)
C16 C 0.0348(6) 0.1077(3) 0.6685(2)
H17 H -0.081045 0.120692 0.658223
C17 C 0.0744(8) 0.0456(3) 0.7186(2)
H18 H -0.015295 0.016629 0.741795
C18 C 0.2407(8) 0.0270(3) 0.7337(2)
H19 H 0.266385 -0.013615 0.768204
C19 C 0.3694(8) 0.0661(3) 0.6996(2)
H20 H 0.484988 0.051868 0.709461
C20 C 0.3326(6) 0.1271(3) 0.65029(19)
H21 H 0.423724 0.154159 0.626701
C21 C 0.2027(4) 0.7231(2) 0.55794(18)
H22 H 0.122742 0.690662 0.586364
H23 H 0.189612 0.703453 0.511854
H24 H 0.178349 0.786346 0.560814
C22 C 0.7494(5) 0.5420(2) 0.5612(2)
H25 H 0.680605 0.504780 0.531673
H26 H 0.851709 0.562178 0.537520
H27 H 0.783655 0.507845 0.600320
C23 C 0.3432(5) 0.4884(2) 0.66904(16)
H28 H 0.428868 0.535308 0.665115
H29 H 0.234261 0.513732 0.683692
H30 H 0.382096 0.444723 0.701563
C24 C 0.1480(4) 0.1717(2) 0.51235(16)
H31 H 0.270550 0.159130 0.504250
H32 H 0.084619 0.115279 0.511288
C25 C 0.1972(5) 0.2149(3) 0.28388(18)
H33 H 0.072777 0.220993 0.279972
H34 H 0.237579 0.170247 0.252370
H35 H 0.251868 0.271483 0.273986
O4 O 0.2391(4) 0.1889(3) 0.34877(13)
H36 H 0.342(4) 0.171(4) 0.351(3)
loop_
_geom_bond_atom_site_label_1
_geom_bond_atom_site_label_2
_geom_bond_site_symmetry_1
_geom_bond_site_symmetry_2
O1 C1 1_555 1_555
O2 C13 1_555 1_555
O3 H1 1_555 1_555
N1 C5 1_555 1_555
N2 H2 1_555 1_555
C1 H3 1_555 1_555
H4 C1 1_555 1_555
H5 C1 1_555 1_555
C2 O1 1_555 1_555
C3 C2 1_555 1_555
H6 C3 1_555 1_555
C4 C3 1_555 1_555
C5 C4 1_555 1_555
C6 C5 1_555 1_555
C7 C2 1_555 1_555
H7 C7 1_555 1_555
C8 N1 1_555 1_555
H8 C8 1_555 1_555
H9 C8 1_555 1_555
C9 C8 1_555 1_555
H10 C9 1_555 1_555
H11 C9 1_555 1_555
C10 C9 1_555 1_555
H12 C10 1_555 1_555
H13 C10 1_555 1_555
C11 N1 1_555 1_555
H14 C11 1_555 1_555
C12 C11 1_555 1_555
H15 C12 1_555 1_555
C13 N2 1_555 1_555
C14 N2 1_555 1_555
H16 C14 1_555 1_555
C15 C14 1_555 1_555
C16 C15 1_555 1_555
H17 C16 1_555 1_555
C17 C16 1_555 1_555
H18 C17 1_555 1_555
C18 C17 1_555 1_555
H19 C18 1_555 1_555
C19 C18 1_555 1_555
H20 C19 1_555 1_555
C20 C15 1_555 1_555
H21 C20 1_555 1_555
C21 C4 1_555 1_555
H22 C21 1_555 1_555
H23 C21 1_555 1_555
H24 C21 1_555 1_555
C22 C6 1_555 1_555
H25 C22 1_555 1_555
H26 C22 1_555 1_555
H27 C22 1_555 1_555
C23 C12 1_555 1_555
H28 C23 1_555 1_555
H29 C23 1_555 1_555
H30 C23 1_555 1_555
C24 O3 1_555 1_555
H31 C24 1_555 1_555
H32 C24 1_555 1_555
C25 H33 1_555 1_555
H34 C25 1_555 1_555
H35 C25 1_555 1_555
O4 C25 1_555 1_555
H36 O4 1_555 1_555
C6 C7 1_555 1_555
C10 C11 1_555 1_555
C12 C13 1_555 1_555
C14 C24 1_555 1_555
C19 C20 1_555 1_555

#END
