
#######################################################################
#
#                 Cambridge Crystallographic Data Centre
#                                CCDC 
#
#######################################################################
#
# If this CIF has been generated from an entry in the Cambridge 
# Structural Database, then it will include bibliographic, chemical, 
# crystal, experimental, refinement or atomic coordinate data resulting 
# from the CCDC's data processing and validation procedures.
#
#######################################################################

data_OFIWEI
_chemical_formula_moiety         'C24 H32 N2 O3'
_chemical_name_systematic        
N-(2-hydroxy-1-phenylethyl)-2-[1-(4-methoxy-2,6-dimethylphenyl)pyrrolidin-2-yl]propanamide
_symmetry_cell_setting           monoclinic
_symmetry_space_group_name_H-M   'P 21'
_symmetry_Int_Tables_number      4
_space_group_name_Hall           'P 2yb'
loop_
_symmetry_equiv_pos_site_id
_symmetry_equiv_pos_as_xyz
1 x,y,z
2 -x,1/2+y,-z
_cell_length_a                   9.6090(4)
_cell_length_b                   8.9512(4)
_cell_length_c                   12.4737(5)
_cell_angle_alpha                90
_cell_angle_beta                 101.0730(10)
_cell_angle_gamma                90
_cell_volume                     1052.92
_exptl_crystal_colour            colorless
_exptl_crystal_description       prism
_cell_formula_units_Z            2
loop_
_atom_site_label
_atom_site_type_symbol
_atom_site_fract_x
_atom_site_fract_y
_atom_site_fract_z
O1 O 0.37777(14) 0.04790(14) 0.36679(10)
O2 O 0.32334(12) 0.79755(14) 0.87669(10)
O3 O 0.57611(14) 0.45635(16) 0.94028(12)
H1 H 0.605(3) 0.401(3) 0.9961(19)
N1 N 0.14799(14) 0.42660(16) 0.64371(12)
N2 N 0.50857(14) 0.70375(17) 0.80977(11)
H2 H 0.532(2) 0.654(2) 0.7575(16)
C1 C 0.4082(2) -0.1055(2) 0.39482(16)
H3 H 0.490928 -0.111285 0.454477
H4 H 0.428408 -0.159085 0.330993
H5 H 0.326252 -0.151151 0.418168
C2 C 0.32961(17) 0.13687(19) 0.44234(14)
C3 C 0.26715(18) 0.2705(2) 0.40177(14)
H6 H 0.262992 0.295981 0.327286
C4 C 0.21082(17) 0.36701(19) 0.46938(14)
C5 C 0.21693(17) 0.32945(19) 0.57971(13)
C6 C 0.28406(17) 0.19650(19) 0.62149(14)
C7 C 0.34063(18) 0.1008(2) 0.55182(15)
H7 H 0.386591 0.010975 0.579651
C8 C 0.00875(18) 0.3780(2) 0.66155(14)
H8 H 0.010530 0.271291 0.682687
H9 H -0.064678 0.392715 0.594957
C9 C -0.01926(18) 0.4773(2) 0.75422(15)
H10 H -0.081390 0.426550 0.797614
H11 H -0.063858 0.572749 0.725848
C10 C 0.12903(18) 0.5034(2) 0.82259(14)
H12 H 0.155131 0.422428 0.876744
H13 H 0.133448 0.600119 0.861651
C11 C 0.22831(17) 0.50418(19) 0.73938(13)
H14 H 0.315625 0.445453 0.769448
C12 C 0.27219(18) 0.66356(19) 0.70621(14)
H15 H 0.327717 0.651522 0.646673
C13 C 0.37028(18) 0.72971(18) 0.80492(13)
C14 C 0.61657(17) 0.7167(2) 0.90952(13)
H16 H 0.567210 0.744191 0.970385
C15 C 0.72292(18) 0.8400(2) 0.90022(13)
C16 C 0.67546(19) 0.9878(2) 0.88878(15)
H17 H 0.577896 1.008774 0.885920
C17 C 0.7683(2) 1.1043(2) 0.88155(15)
H18 H 0.734166 1.204103 0.873850
C18 C 0.9111(2) 1.0750(2) 0.88556(15)
H19 H 0.975028 1.154562 0.880580
C19 C 0.95977(19) 0.9294(2) 0.89684(14)
H20 H 1.057398 0.909019 0.899481
C20 C 0.86661(18) 0.8124(2) 0.90436(13)
H21 H 0.901300 0.712797 0.912387
C21 C 0.3003(2) 0.1548(2) 0.74055(15)
H22 H 0.318349 0.047252 0.749157
H23 H 0.213049 0.179799 0.766375
H24 H 0.379988 0.210109 0.783388
C22 C 0.14238(19) 0.5109(2) 0.42349(14)
H25 H 0.046737 0.517807 0.439681
H26 H 0.136605 0.512758 0.344206
H27 H 0.199316 0.595702 0.456779
C23 C 0.14637(18) 0.7650(2) 0.66378(14)
H28 H 0.098008 0.790208 0.723761
H29 H 0.080200 0.713237 0.606114
H30 H 0.179960 0.856676 0.634169
C24 C 0.68344(18) 0.5629(2) 0.93541(15)
H31 H 0.736786 0.534083 0.878164
H32 H 0.750644 0.566235 1.006283
loop_
_geom_bond_atom_site_label_1
_geom_bond_atom_site_label_2
_geom_bond_site_symmetry_1
_geom_bond_site_symmetry_2
O1 C1 1_555 1_555
O2 C13 1_555 1_555
O3 H1 1_555 1_555
N1 C5 1_555 1_555
N2 H2 1_555 1_555
C1 H3 1_555 1_555
H4 C1 1_555 1_555
H5 C1 1_555 1_555
C2 O1 1_555 1_555
C3 C2 1_555 1_555
H6 C3 1_555 1_555
C4 C3 1_555 1_555
C5 C4 1_555 1_555
C6 C5 1_555 1_555
C7 C2 1_555 1_555
H7 C7 1_555 1_555
C8 N1 1_555 1_555
H8 C8 1_555 1_555
H9 C8 1_555 1_555
C9 C8 1_555 1_555
H10 C9 1_555 1_555
H11 C9 1_555 1_555
C10 C9 1_555 1_555
H12 C10 1_555 1_555
H13 C10 1_555 1_555
C11 N1 1_555 1_555
H14 C11 1_555 1_555
C12 C11 1_555 1_555
H15 C12 1_555 1_555
C13 N2 1_555 1_555
C14 N2 1_555 1_555
H16 C14 1_555 1_555
C15 C14 1_555 1_555
C16 C15 1_555 1_555
H17 C16 1_555 1_555
C17 C16 1_555 1_555
H18 C17 1_555 1_555
C18 C17 1_555 1_555
H19 C18 1_555 1_555
C19 C18 1_555 1_555
H20 C19 1_555 1_555
C20 C15 1_555 1_555
H21 C20 1_555 1_555
C21 C6 1_555 1_555
H22 C21 1_555 1_555
H23 C21 1_555 1_555
H24 C21 1_555 1_555
C22 C4 1_555 1_555
H25 C22 1_555 1_555
H26 C22 1_555 1_555
H27 C22 1_555 1_555
C23 C12 1_555 1_555
H28 C23 1_555 1_555
H29 C23 1_555 1_555
H30 C23 1_555 1_555
C24 O3 1_555 1_555
H31 C24 1_555 1_555
H32 C24 1_555 1_555
C6 C7 1_555 1_555
C10 C11 1_555 1_555
C12 C13 1_555 1_555
C14 C24 1_555 1_555
C19 C20 1_555 1_555

#END
