
#######################################################################
#
#                 Cambridge Crystallographic Data Centre
#                                CCDC 
#
#######################################################################
#
# If this CIF has been generated from an entry in the Cambridge 
# Structural Database, then it will include bibliographic, chemical, 
# crystal, experimental, refinement or atomic coordinate data resulting 
# from the CCDC's data processing and validation procedures.
#
#######################################################################

data_OFOGEY
_chemical_formula_moiety         'C22 H24 N2 O7 S1,0.5(C6 H6 N2 O1)'
_chemical_name_systematic        
'N-{2-[1-(3-ethoxy-4-methoxyphenyl)-2-(methylsulfonyl)ethyl]-1,3-dioxo-2,3-dihydro-1H-isoindol-4-yl}acetamide pyridine-3-carboxamide solvate'
_symmetry_cell_setting           tetragonal
_symmetry_space_group_name_H-M   'P 41 21 2'
_symmetry_Int_Tables_number      92
_space_group_name_Hall           'P 4abw 2nw'
loop_
_symmetry_equiv_pos_site_id
_symmetry_equiv_pos_as_xyz
1 x,y,z
2 -x,-y,1/2+z
3 1/2-y,1/2+x,1/4+z
4 1/2+y,1/2-x,3/4+z
5 1/2-x,1/2+y,1/4-z
6 1/2+x,1/2-y,3/4-z
7 y,x,-z
8 -y,-x,1/2-z
_cell_length_a                   12.9994(8)
_cell_length_b                   12.9994(8)
_cell_length_c                   29.744(2)
_cell_angle_alpha                90
_cell_angle_beta                 90
_cell_angle_gamma                90
_cell_volume                     5026.27
_exptl_crystal_colour            colorless
_exptl_crystal_description       block
_cell_formula_units_Z            8
loop_
_atom_site_label
_atom_site_type_symbol
_atom_site_fract_x
_atom_site_fract_y
_atom_site_fract_z
S1 S 0.83968(9) 0.40045(9) 0.71324(4)
O1 O 0.7619(2) 0.4759(2) 0.58393(11)
O2 O 0.4645(3) 0.7532(3) 0.76639(13)
O3 O 0.5342(3) 0.3999(3) 0.69597(12)
N1 N 0.6579(3) 0.4591(3) 0.64628(12)
O4 O 0.7932(3) 0.3086(3) 0.69638(13)
O5 O 0.9249(3) 0.4429(3) 0.68851(14)
O6 O 0.4471(3) 0.8872(3) 0.70155(13)
N2 N 0.7042(3) 0.3187(3) 0.51629(13)
H1 H 0.743675 0.371186 0.523456
O7 O 0.6757(3) 0.2010(3) 0.46161(14)
C1 C 0.6940(3) 0.4318(3) 0.60394(15)
C2 C 0.5790(3) 0.3937(3) 0.66040(16)
C3 C 0.7055(3) 0.5395(3) 0.67451(15)
H2 H 0.766942 0.565533 0.657772
C4 C 0.5635(3) 0.3184(3) 0.62313(16)
C5 C 0.6319(3) 0.3424(3) 0.58931(16)
C6 C 0.6336(3) 0.6316(3) 0.68166(16)
C7 C 0.5811(3) 0.6474(3) 0.72194(16)
H3 H 0.588654 0.599317 0.745744
C8 C 0.6347(3) 0.2875(3) 0.54939(16)
C9 C 0.6235(4) 0.7026(4) 0.64790(17)
H4 H 0.659900 0.693107 0.620506
C10 C 0.5177(4) 0.7326(3) 0.72779(16)
C11 C 0.7444(4) 0.4968(4) 0.71903(15)
H5 H 0.685404 0.467868 0.735867
H6 H 0.773000 0.554113 0.737049
C12 C 0.7195(4) 0.2784(4) 0.47381(17)
C13 C 0.5611(4) 0.7879(4) 0.65318(18)
H7 H 0.553662 0.835654 0.629211
C14 C 0.4938(4) 0.2378(4) 0.6195(2)
H8 H 0.445928 0.222351 0.642695
C15 C 0.5647(4) 0.2051(4) 0.54547(19)
H9 H 0.563156 0.165387 0.518660
C16 C 0.5095(4) 0.8039(4) 0.69315(19)
C17 C 0.4647(5) 0.6776(4) 0.80076(19)
H10 H 0.534673 0.670285 0.813483
H11 H 0.443333 0.610213 0.788330
C18 C 0.4984(4) 0.1815(4) 0.5802(2)
H12 H 0.453873 0.124027 0.576879
C19 C 0.7918(5) 0.3393(5) 0.44537(19)
H13 H 0.755070 0.397616 0.432003
H14 H 0.819392 0.295469 0.421439
H15 H 0.848475 0.364919 0.464006
C20 C 0.8771(5) 0.3767(5) 0.7693(2)
H16 H 0.817053 0.354693 0.786760
H17 H 0.905496 0.439741 0.782382
H18 H 0.929373 0.322431 0.769838
C21 C 0.4274(6) 0.9569(5) 0.6657(2)
H19 H 0.389431 0.921472 0.641875
H20 H 0.492834 0.982503 0.653753
H21 H 0.386526 1.014860 0.676909
C22 C 0.3915(7) 0.7107(6) 0.8364(3)
H22 H 0.324575 0.726027 0.822774
H23 H 0.418152 0.772526 0.851222
H24 H 0.383685 0.655528 0.858526
C23? C 0.5212(11) 0.4814(11) 0.4675(4)
H25? H 0.537128 0.462329 0.437449
N3? N 0.5770(13) 0.5588(14) 0.4886(5)
C24? C 0.5536(14) 0.5867(13) 0.5325(5)
H26? H 0.591773 0.639638 0.546958
C25? C 0.4745(12) 0.5373(10) 0.5554(4)
H27? H 0.458595 0.556389 0.585398
C26? C 0.4188(13) 0.4599(13) 0.5343(5)
H28? H 0.364683 0.426109 0.549864
C27? C 0.4421(14) 0.4320(13) 0.4903(5)
O8? O 0.3263(17) 0.2840(15) 0.4882(8)
C28? C 0.3863(18) 0.3454(17) 0.4695(7)
N4? N 0.4307(19) 0.3172(18) 0.4280(7)
H29? H 0.415849 0.257210 0.415839
H30? H 0.473123 0.359456 0.414226
loop_
_geom_bond_atom_site_label_1
_geom_bond_atom_site_label_2
_geom_bond_site_symmetry_1
_geom_bond_site_symmetry_2
S1 O4 1_555 1_555
O1 C1 1_555 1_555
O2 C10 1_555 1_555
O3 C2 1_555 1_555
N1 C1 1_555 1_555
O5 S1 1_555 1_555
O6 C16 1_555 1_555
N2 H1 1_555 1_555
O7 C12 1_555 1_555
C1 C5 1_555 1_555
C2 N1 1_555 1_555
C3 N1 1_555 1_555
H2 C3 1_555 1_555
C4 C2 1_555 1_555
C5 C4 1_555 1_555
C6 C3 1_555 1_555
C7 C6 1_555 1_555
H3 C7 1_555 1_555
C8 N2 1_555 1_555
C9 C6 1_555 1_555
H4 C9 1_555 1_555
C10 C7 1_555 1_555
C11 S1 1_555 1_555
H5 C11 1_555 1_555
H6 C11 1_555 1_555
C12 N2 1_555 1_555
C13 C9 1_555 1_555
H7 C13 1_555 1_555
C14 C4 1_555 1_555
H8 C14 1_555 1_555
C15 C8 1_555 1_555
H9 C15 1_555 1_555
C16 C10 1_555 1_555
C17 O2 1_555 1_555
H10 C17 1_555 1_555
H11 C17 1_555 1_555
C18 C14 1_555 1_555
H12 C18 1_555 1_555
C19 C12 1_555 1_555
H13 C19 1_555 1_555
H14 C19 1_555 1_555
H15 C19 1_555 1_555
C20 S1 1_555 1_555
H16 C20 1_555 1_555
H17 C20 1_555 1_555
H18 C20 1_555 1_555
C21 O6 1_555 1_555
H19 C21 1_555 1_555
H20 C21 1_555 1_555
H21 C21 1_555 1_555
C22 C17 1_555 1_555
H22 C22 1_555 1_555
H23 C22 1_555 1_555
H24 C22 1_555 1_555
C3 C11 1_555 1_555
C5 C8 1_555 1_555
C13 C16 1_555 1_555
C15 C18 1_555 1_555

#END
