
#######################################################################
#
#                 Cambridge Crystallographic Data Centre
#                                CCDC 
#
#######################################################################
#
# If this CIF has been generated from an entry in the Cambridge 
# Structural Database, then it will include bibliographic, chemical, 
# crystal, experimental, refinement or atomic coordinate data resulting 
# from the CCDC's data processing and validation procedures.
#
#######################################################################

data_OFOZIT
_chemical_formula_moiety         'C16 H19 N1 O5'
_chemical_name_systematic        
'2-Ethyl 3-methyl 1-methyl-2,3,3a,8b-tetrahydro-1H-[1]benzofuro[3,2-b]pyrrole-2,3-dicarboxylate'
_symmetry_cell_setting           monoclinic
_symmetry_space_group_name_H-M   'P 21/c'
_symmetry_Int_Tables_number      14
_space_group_name_Hall           '-P 2ybc'
loop_
_symmetry_equiv_pos_site_id
_symmetry_equiv_pos_as_xyz
1 x,y,z
2 -x,1/2+y,1/2-z
3 -x,-y,-z
4 x,1/2-y,1/2+z
_cell_length_a                   8.9194(2)
_cell_length_b                   17.2171(4)
_cell_length_c                   10.2611(2)
_cell_angle_alpha                90
_cell_angle_beta                 92.060(1)
_cell_angle_gamma                90
_cell_volume                     1574.74
_exptl_crystal_colour            silver
_exptl_crystal_description       block
_cell_formula_units_Z            4
loop_
_atom_site_label
_atom_site_type_symbol
_atom_site_fract_x
_atom_site_fract_y
_atom_site_fract_z
O1 O 0.28468(12) 0.08664(7) 0.97192(12)
C1 C 0.15239(18) 0.13353(10) 0.93852(18)
H1 H 0.1800 0.1803 0.8905
C2 C 0.08097(19) 0.15484(9) 1.06702(17)
H2 H 0.0559 0.2101 1.0723
C3 C 0.2083(2) 0.13970(12) 1.3005(2)
H3 H 0.1363 0.1679 1.3437
C4 C 0.3280(3) 0.10558(14) 1.3700(2)
H4 H 0.3367 0.1110 1.4601
C5 C 0.4333(3) 0.06381(15) 1.3049(3)
H5 H 0.5120 0.0407 1.3526
C6 C 0.4262(2) 0.05495(13) 1.1704(2)
H6 H 0.4980 0.0268 1.1269
C7 C 0.30718(19) 0.08995(10) 1.1048(2)
C8 C 0.19808(19) 0.13107(10) 1.16696(19)
C9 C 0.03565(18) 0.08626(9) 0.86123(16)
H7 H 0.0648 0.0316 0.8703
C10 C -0.10964(17) 0.09647(9) 0.93435(16)
H8 H -0.1718 0.0497 0.9253
N1 N -0.05250(14) 0.10457(7) 1.06900(13)
C11 C -0.1625(2) 0.12607(12) 1.16369(19)
H9 H -0.2452 0.0904 1.1581
H10 H -0.1979 0.1777 1.1457
H11 H -0.1169 0.1242 1.2498
C12 C -0.19745(19) 0.16700(10) 0.88842(18)
O2 O -0.14093(14) 0.22741(7) 0.85908(14)
O3 O -0.34417(13) 0.15481(7) 0.88960(13)
C13 C -0.4434(2) 0.21715(13) 0.8448(2)
H12 H -0.3910 0.2664 0.8518
H13 H -0.5298 0.2195 0.8994
C14 C -0.4933(3) 0.20376(17) 0.7086(3)
H14 H -0.5578 0.2455 0.6798
H15 H -0.5471 0.1555 0.7023
H16 H -0.4076 0.2015 0.6548
C15 C 0.0236(2) 0.10333(11) 0.71754(19)
O4 O 0.11738(18) 0.13453(11) 0.65542(15)
O5 O -0.10658(16) 0.07842(8) 0.66689(12)
C16 C -0.1349(3) 0.09058(15) 0.5293(2)
H17 H -0.2317 0.0700 0.5043
H18 H -0.0592 0.0647 0.4813
H19 H -0.1327 0.1452 0.5107
loop_
_geom_bond_atom_site_label_1
_geom_bond_atom_site_label_2
_geom_bond_site_symmetry_1
_geom_bond_site_symmetry_2
O1 C1 1_555 1_555
C1 H1 1_555 1_555
C2 C1 1_555 1_555
H2 C2 1_555 1_555
C3 H3 1_555 1_555
C4 C3 1_555 1_555
H4 C4 1_555 1_555
C5 C4 1_555 1_555
H5 C5 1_555 1_555
C6 C5 1_555 1_555
H6 C6 1_555 1_555
C7 O1 1_555 1_555
C8 C2 1_555 1_555
C9 C1 1_555 1_555
H7 C9 1_555 1_555
C10 C9 1_555 1_555
H8 C10 1_555 1_555
N1 C2 1_555 1_555
C11 N1 1_555 1_555
H9 C11 1_555 1_555
H10 C11 1_555 1_555
H11 C11 1_555 1_555
C12 C10 1_555 1_555
O2 C12 1_555 1_555
O3 C12 1_555 1_555
C13 O3 1_555 1_555
H12 C13 1_555 1_555
H13 C13 1_555 1_555
C14 C13 1_555 1_555
H14 C14 1_555 1_555
H15 C14 1_555 1_555
H16 C14 1_555 1_555
C15 C9 1_555 1_555
O4 C15 1_555 1_555
O5 C15 1_555 1_555
C16 O5 1_555 1_555
H17 C16 1_555 1_555
H18 C16 1_555 1_555
H19 C16 1_555 1_555
C3 C8 1_555 1_555
C6 C7 1_555 1_555
C7 C8 1_555 1_555
C10 N1 1_555 1_555

#END
