
#######################################################################
#
#                 Cambridge Crystallographic Data Centre
#                                CCDC 
#
#######################################################################
#
# If this CIF has been generated from an entry in the Cambridge 
# Structural Database, then it will include bibliographic, chemical, 
# crystal, experimental, refinement or atomic coordinate data resulting 
# from the CCDC's data processing and validation procedures.
#
#######################################################################

data_OFOZOY
_chemical_formula_moiety         'C30 H62 Mg2 N2 O2 Si2'
_chemical_name_systematic        
bis(\m~2~-Di-isopropylamido-N,N)-bis(tetrahydrofuran)-bis(2-(trimethylsilyl)ethynyl)-di-magnesium
_symmetry_cell_setting           monoclinic
_symmetry_space_group_name_H-M   'P 21/c'
_symmetry_Int_Tables_number      14
_space_group_name_Hall           '-P 2ybc'
loop_
_symmetry_equiv_pos_site_id
_symmetry_equiv_pos_as_xyz
1 x,y,z
2 x,1/2-y,1/2+z
3 -x,-y,-z
4 -x,1/2+y,1/2-z
_cell_length_a                   14.793(4)
_cell_length_b                   10.145(3)
_cell_length_c                   14.635(6)
_cell_angle_alpha                90
_cell_angle_beta                 119.12(3)
_cell_angle_gamma                90
_cell_volume                     1918.73
_exptl_crystal_colour            colorless
_cell_formula_units_Z            2
loop_
_atom_site_label
_atom_site_type_symbol
_atom_site_fract_x
_atom_site_fract_y
_atom_site_fract_z
Mg1 Mg 0.40909(13) 0.05374(20) 0.00133(15)
Si1 Si 0.11062(13) 0.38431(20) -0.13150(16)
O1 O 0.3457(3) -0.0042(4) 0.0959(3)
N1 N 0.5705(3) 0.1008(4) 0.0858(3)
C1 C 0.2915(5) 0.1998(7) -0.0726(5)
C2 C 0.2191(4) 0.2737(7) -0.1019(5)
C3 C 0.0198(6) 0.3906(11) -0.2710(7)
C4 C 0.0414(7) 0.3300(11) -0.0626(8)
C5 C 0.1613(7) 0.5513(9) -0.0869(9)
C6 C 0.6317(5) 0.0763(8) 0.1993(5)
C7 C 0.7478(5) 0.0911(9) 0.2463(6)
C8 C 0.6089(6) -0.0342(10) 0.2396(7)
C9 C 0.5884(5) 0.2395(7) 0.0656(5)
C10 C 0.5489(8) 0.3437(8) 0.1133(7)
C11 C 0.5430(6) 0.2699(7) -0.0476(6)
C12 C 0.3447(6) 0.0946(7) 0.1668(5)
C13 C 0.2452(7) 0.0807(12) 0.1651(7)
C14 C 0.1877(7) -0.0178(11) 0.0917(9)
C15 C 0.2478(5) -0.0726(8) 0.0473(6)
H1 H 0.051 0.419 -0.311
H2 H -0.011 0.305 -0.298
H3 H -0.037 0.450 -0.286
H4 H 0.012 0.240 -0.085
H5 H 0.086 0.324 0.012
H6 H -0.016 0.385 -0.076
H7 H 0.212 0.553 -0.011
H8 H 0.199 0.586 -0.121
H9 H 0.110 0.614 -0.096
H10 H 0.613 0.148 0.233
H11 H 0.765 0.170 0.222
H12 H 0.783 0.092 0.321
H13 H 0.775 0.018 0.225
H14 H 0.536 -0.050 0.212
H15 H 0.633 -0.116 0.217
H16 H 0.641 -0.041 0.314
H17 H 0.663 0.255 0.098
H18 H 0.577 0.329 0.188
H19 H 0.566 0.432 0.105
H20 H 0.475 0.338 0.083
H21 H 0.566 0.210 -0.083
H22 H 0.468 0.265 -0.083
H23 H 0.560 0.359 -0.061
H24 H 0.403 0.081 0.239
H25 H 0.356 0.183 0.149
H26 H 0.206 0.164 0.144
H27 H 0.253 0.061 0.233
H28 H 0.172 -0.088 0.130
H29 H 0.122 0.015 0.040
H30 H 0.211 -0.059 -0.029
H31 H 0.256 -0.168 0.056
Mg1B Mg 0.59091(13) -0.05374(20) -0.00133(15)
O1B O 0.6543(3) 0.0042(4) -0.0959(3)
C12B C 0.6553(6) -0.0946(7) -0.1668(5)
C13B C 0.7548(7) -0.0807(12) -0.1651(7)
C14B C 0.8123(7) 0.0178(11) -0.0917(9)
C15B C 0.7522(5) 0.0726(8) -0.0473(6)
H30B H 0.789 0.059 0.029
H31B H 0.744 0.168 -0.056
H28B H 0.828 0.088 -0.130
H29B H 0.878 -0.015 -0.040
H26B H 0.794 -0.164 -0.144
H27B H 0.747 -0.061 -0.233
H24B H 0.597 -0.081 -0.239
H25B H 0.644 -0.183 -0.149
N1B N 0.4295(3) -0.1008(4) -0.0858(3)
C6B C 0.3683(5) -0.0763(8) -0.1993(5)
C7B C 0.2522(5) -0.0911(9) -0.2463(6)
H11B H 0.235 -0.170 -0.222
H12B H 0.217 -0.092 -0.321
H13B H 0.225 -0.018 -0.225
C8B C 0.3911(6) 0.0342(10) -0.2396(7)
H14B H 0.464 0.050 -0.212
H15B H 0.367 0.116 -0.217
H16B H 0.359 0.041 -0.314
H10B H 0.387 -0.148 -0.233
C9B C 0.4116(5) -0.2395(7) -0.0656(5)
C10B C 0.4511(8) -0.3437(8) -0.1133(7)
H18B H 0.423 -0.329 -0.188
H19B H 0.434 -0.432 -0.105
H20B H 0.525 -0.338 -0.083
C11B C 0.4570(6) -0.2699(7) 0.0476(6)
H21B H 0.434 -0.210 0.083
H22B H 0.532 -0.265 0.083
H23B H 0.440 -0.359 0.061
H17B H 0.337 -0.255 -0.098
C1B C 0.7085(5) -0.1998(7) 0.0726(5)
C2B C 0.7809(4) -0.2737(7) 0.1019(5)
Si1B Si 0.88938(13) -0.38431(20) 0.13150(16)
C3B C 0.9802(6) -0.3906(11) 0.2710(7)
H1B H 0.949 -0.419 0.311
H2B H 1.011 -0.305 0.298
H3B H 1.037 -0.450 0.286
C4B C 0.9586(7) -0.3300(11) 0.0626(8)
H4B H 0.988 -0.240 0.085
H5B H 0.914 -0.324 -0.012
H6B H 1.016 -0.385 0.076
C5B C 0.8387(7) -0.5513(9) 0.0869(9)
H7B H 0.788 -0.553 0.011
H8B H 0.801 -0.586 0.121
H9B H 0.890 -0.614 0.096
loop_
_geom_bond_atom_site_label_1
_geom_bond_atom_site_label_2
_geom_bond_site_symmetry_1
_geom_bond_site_symmetry_2
Mg1 O1 1_555 1_555
Si1 C2 1_555 1_555
O1 C12 1_555 1_555
N1 Mg1 1_555 1_555
C1 Mg1 1_555 1_555
C2 C1 1_555 1_555
C3 Si1 1_555 1_555
C4 Si1 1_555 1_555
C5 Si1 1_555 1_555
C6 N1 1_555 1_555
C7 C6 1_555 1_555
C8 C6 1_555 1_555
C9 N1 1_555 1_555
C10 C9 1_555 1_555
C11 C9 1_555 1_555
C12 C13 1_555 1_555
C13 C14 1_555 1_555
C14 C15 1_555 1_555
C15 O1 1_555 1_555
H1 C3 1_555 1_555
H2 C3 1_555 1_555
H3 C3 1_555 1_555
H4 C4 1_555 1_555
H5 C4 1_555 1_555
H6 C4 1_555 1_555
H7 C5 1_555 1_555
H8 C5 1_555 1_555
H9 C5 1_555 1_555
H10 C6 1_555 1_555
H11 C7 1_555 1_555
H12 C7 1_555 1_555
H13 C7 1_555 1_555
H14 C8 1_555 1_555
H15 C8 1_555 1_555
H16 C8 1_555 1_555
H17 C9 1_555 1_555
H18 C10 1_555 1_555
H19 C10 1_555 1_555
H20 C10 1_555 1_555
H21 C11 1_555 1_555
H22 C11 1_555 1_555
H23 C11 1_555 1_555
H24 C12 1_555 1_555
H25 C12 1_555 1_555
H26 C13 1_555 1_555
H27 C13 1_555 1_555
H28 C14 1_555 1_555
H29 C14 1_555 1_555
H30 C15 1_555 1_555
H31 C15 1_555 1_555
Mg1B N1 1_555 1_555
O1B Mg1B 1_555 1_555
C12B O1B 1_555 1_555
C13B C12B 1_555 1_555
C14B C13B 1_555 1_555
C15B O1B 1_555 1_555
H30B C15B 1_555 1_555
H31B C15B 1_555 1_555
H28B C14B 1_555 1_555
H29B C14B 1_555 1_555
H26B C13B 1_555 1_555
H27B C13B 1_555 1_555
H24B C12B 1_555 1_555
H25B C12B 1_555 1_555
N1B Mg1 1_555 1_555
C6B N1B 1_555 1_555
C7B C6B 1_555 1_555
H11B C7B 1_555 1_555
H12B C7B 1_555 1_555
H13B C7B 1_555 1_555
C8B C6B 1_555 1_555
H14B C8B 1_555 1_555
H15B C8B 1_555 1_555
H16B C8B 1_555 1_555
H10B C6B 1_555 1_555
C9B N1B 1_555 1_555
C10B C9B 1_555 1_555
H18B C10B 1_555 1_555
H19B C10B 1_555 1_555
H20B C10B 1_555 1_555
C11B C9B 1_555 1_555
H21B C11B 1_555 1_555
H22B C11B 1_555 1_555
H23B C11B 1_555 1_555
H17B C9B 1_555 1_555
C1B Mg1B 1_555 1_555
C2B C1B 1_555 1_555
Si1B C2B 1_555 1_555
C3B Si1B 1_555 1_555
H1B C3B 1_555 1_555
H2B C3B 1_555 1_555
H3B C3B 1_555 1_555
C4B Si1B 1_555 1_555
H4B C4B 1_555 1_555
H5B C4B 1_555 1_555
H6B C4B 1_555 1_555
C5B Si1B 1_555 1_555
H7B C5B 1_555 1_555
H8B C5B 1_555 1_555
H9B C5B 1_555 1_555
Mg1B N1B 1_555 1_555
C14B C15B 1_555 1_555

#END
