
#######################################################################
#
#                 Cambridge Crystallographic Data Centre
#                                CCDC 
#
#######################################################################
#
# If this CIF has been generated from an entry in the Cambridge 
# Structural Database, then it will include bibliographic, chemical, 
# crystal, experimental, refinement or atomic coordinate data resulting 
# from the CCDC's data processing and validation procedures.
#
#######################################################################

data_OFUBAS
_chemical_formula_moiety         'C22 H31 Mg1 N1 O2'
_chemical_name_systematic        
Ethyl-(diphenylamido-N)-bis(tetrahydrofuran)-magnesium
_symmetry_cell_setting           monoclinic
_symmetry_space_group_name_H-M   'P 21/n'
_symmetry_Int_Tables_number      14
_space_group_name_Hall           '-P 2yn'
loop_
_symmetry_equiv_pos_site_id
_symmetry_equiv_pos_as_xyz
1 x,y,z
2 1/2+x,1/2-y,1/2+z
3 -x,-y,-z
4 1/2-x,1/2+y,1/2-z
_cell_length_a                   9.7833(20)
_cell_length_b                   14.9810(21)
_cell_length_c                   14.7258(20)
_cell_angle_alpha                90
_cell_angle_beta                 91.020(15)
_cell_angle_gamma                90
_cell_volume                     2157.92
_exptl_crystal_colour            colorless
_exptl_crystal_description       block
_chemical_melting_point          'decomposes above 104 deg.C'
_cell_formula_units_Z            4
loop_
_atom_site_label
_atom_site_type_symbol
_atom_site_fract_x
_atom_site_fract_y
_atom_site_fract_z
Mg1 Mg 0.86159(12) 0.52021(8) 0.22029(8)
O1 O 0.7308(3) 0.60179(17) 0.28740(15)
O2 O 0.9960(3) 0.62033(17) 0.19495(16)
N1 N 0.9616(3) 0.44443(19) 0.31496(19)
C1 C 0.7760(5) 0.4698(4) 0.0993(3)
C2 C 0.6499(10) 0.4332(8) 0.0905(8)
C4 C 0.6436(5) 0.6632(3) 0.2387(3)
C5 C 0.5858(6) 0.7218(4) 0.3053(4)
C6 C 0.6400(8) 0.6970(4) 0.3905(4)
C7 C 0.7311(5) 0.6257(4) 0.3817(3)
C8 C 1.0609(5) 0.6755(3) 0.2628(3)
C9 C 1.2014(5) 0.6903(4) 0.2304(4)
C10 C 1.1871(6) 0.6905(4) 0.1332(4)
C11 C 1.0654(5) 0.6330(3) 0.1105(3)
C12 C 0.9022(3) 0.38906(23) 0.37751(22)
C13 C 0.9711(4) 0.32710(24) 0.43301(24)
C14 C 0.9016(4) 0.2713(3) 0.4909(3)
C15 C 0.7619(5) 0.2752(3) 0.4967(3)
C16 C 0.6920(4) 0.3341(3) 0.4427(3)
C17 C 0.7595(4) 0.3898(3) 0.3847(3)
C18 C 1.1053(3) 0.44658(22) 0.31049(23)
C19 C 1.1669(4) 0.42737(25) 0.2283(3)
C20 C 1.3073(4) 0.4349(3) 0.2191(3)
C21 C 1.3878(4) 0.4593(3) 0.2916(3)
C22 C 1.3289(4) 0.4784(3) 0.3733(3)
C23 C 1.1895(4) 0.4726(3) 0.3826(3)
H1 H 0.840 0.424 0.078
H2 H 0.777 0.517 0.056
H3 H 0.638 0.414 0.028
H4 H 0.648 0.381 0.128
H5 H 0.586 0.474 0.105
H6 H 0.692 0.697 0.195
H7 H 0.572 0.631 0.205
H8 H 0.485 0.714 0.308
H9 H 0.600 0.783 0.292
H10 H 0.574 0.685 0.435
H11 H 0.695 0.749 0.416
H12 H 0.823 0.640 0.404
H13 H 0.702 0.576 0.420
H14 H 1.013 0.733 0.269
H15 H 1.058 0.648 0.323
H16 H 1.263 0.641 0.251
H17 H 1.244 0.744 0.254
H18 H 1.171 0.751 0.111
H19 H 1.268 0.670 0.103
H20 H 1.095 0.576 0.085
H21 H 1.007 0.660 0.064
H22 H 1.071 0.323 0.430
H23 H 0.952 0.229 0.529
H24 H 0.713 0.234 0.537
H25 H 0.592 0.338 0.448
H26 H 0.706 0.431 0.346
H27 H 1.110 0.408 0.175
H28 H 1.349 0.422 0.160
H29 H 1.486 0.464 0.285
H30 H 1.387 0.496 0.425
H31 H 1.148 0.487 0.441
C3? C 0.6798(15) 0.5056(9) 0.0424(8)
H32? H 0.742 0.412 0.114
H33? H 0.854 0.461 0.059
H34? H 0.664 0.465 -0.007
H35? H 0.599 0.511 0.077
H36? H 0.710 0.560 0.022
loop_
_geom_bond_atom_site_label_1
_geom_bond_atom_site_label_2
_geom_bond_site_symmetry_1
_geom_bond_site_symmetry_2
Mg1 O1 1_555 1_555
O1 C4 1_555 1_555
O2 Mg1 1_555 1_555
N1 Mg1 1_555 1_555
C1 Mg1 1_555 1_555
C2 C1 1_555 1_555
C4 C5 1_555 1_555
C5 C6 1_555 1_555
C6 C7 1_555 1_555
C7 O1 1_555 1_555
C8 O2 1_555 1_555
C9 C8 1_555 1_555
C10 C9 1_555 1_555
C11 O2 1_555 1_555
C12 N1 1_555 1_555
C13 C12 1_555 1_555
C14 C13 1_555 1_555
C15 C14 1_555 1_555
C16 C15 1_555 1_555
C17 C12 1_555 1_555
C18 N1 1_555 1_555
C19 C18 1_555 1_555
C20 C19 1_555 1_555
C21 C20 1_555 1_555
C22 C21 1_555 1_555
C23 C18 1_555 1_555
H1 C1 1_555 1_555
H2 C1 1_555 1_555
H3 C2 1_555 1_555
H4 C2 1_555 1_555
H5 C2 1_555 1_555
H6 C4 1_555 1_555
H7 C4 1_555 1_555
H8 C5 1_555 1_555
H9 C5 1_555 1_555
H10 C6 1_555 1_555
H11 C6 1_555 1_555
H12 C7 1_555 1_555
H13 C7 1_555 1_555
H14 C8 1_555 1_555
H15 C8 1_555 1_555
H16 C9 1_555 1_555
H17 C9 1_555 1_555
H18 C10 1_555 1_555
H19 C10 1_555 1_555
H20 C11 1_555 1_555
H21 C11 1_555 1_555
H22 C13 1_555 1_555
H23 C14 1_555 1_555
H24 C15 1_555 1_555
H25 C16 1_555 1_555
H26 C17 1_555 1_555
H27 C19 1_555 1_555
H28 C20 1_555 1_555
H29 C21 1_555 1_555
H30 C22 1_555 1_555
H31 C23 1_555 1_555
C10 C11 1_555 1_555
C16 C17 1_555 1_555
C22 C23 1_555 1_555

#END
