
#######################################################################
#
#                 Cambridge Crystallographic Data Centre
#                                CCDC 
#
#######################################################################
#
# If this CIF has been generated from an entry in the Cambridge 
# Structural Database, then it will include bibliographic, chemical, 
# crystal, experimental, refinement or atomic coordinate data resulting 
# from the CCDC's data processing and validation procedures.
#
#######################################################################

data_OFUKOS
_chemical_formula_moiety         'C29 H21 N1 O5 S2'
_chemical_name_systematic        
N-(1-oxo-3,5-diphenylpent-2-en-4-yn-2-yl)-N-(phenylsulfonyl)benzenesulfonamide
_symmetry_cell_setting           monoclinic
_symmetry_space_group_name_H-M   'P 21/n'
_symmetry_Int_Tables_number      14
_space_group_name_Hall           '-P 2yn'
loop_
_symmetry_equiv_pos_site_id
_symmetry_equiv_pos_as_xyz
1 x,y,z
2 1/2-x,1/2+y,1/2-z
3 -x,-y,-z
4 1/2+x,1/2-y,1/2+z
_cell_length_a                   14.152
_cell_length_b                   11.196
_cell_length_c                   16.264
_cell_angle_alpha                90
_cell_angle_beta                 96.74
_cell_angle_gamma                90
_cell_volume                     2559.15
_exptl_crystal_colour            colorless
_exptl_crystal_description       BLOCK
_cell_formula_units_Z            4
loop_
_atom_site_label
_atom_site_type_symbol
_atom_site_fract_x
_atom_site_fract_y
_atom_site_fract_z
S1 S 0.22311(5) 0.38600(6) 0.67784(4)
S2 S 0.31299(5) 0.42145(6) 0.52376(4)
N1 N 0.27171(15) 0.33245(18) 0.59599(13)
O1 O 0.34447(15) 0.33817(18) 0.46646(13)
O2 O 0.18941(15) 0.50220(17) 0.65394(13)
O3 O 0.13230(16) 0.1745(2) 0.52421(15)
O4 O 0.37791(15) 0.50497(18) 0.56402(15)
O5 O 0.15936(15) 0.29563(18) 0.69848(14)
C1 C 0.4518(2) 0.2294(2) 0.65064(17)
C2 C 0.59856(19) 0.3545(2) 0.71584(16)
C3 C 0.2050(2) 0.1333(3) 0.55898(18)
H1 H 0.2087 0.0509 0.5659
C4 C 0.37461(19) 0.1580(2) 0.61429(15)
C5 C 0.28797(19) 0.2051(2) 0.59102(16)
C6 C 0.5194(2) 0.2845(2) 0.68037(18)
C7 C 0.3984(2) 0.0310(2) 0.59933(18)
C8 C 0.2144(2) 0.4999(2) 0.47605(17)
C9 C 0.3712(2) 0.5013(3) 0.7649(2)
H2 H 0.3591 0.5630 0.7269
C10 C 0.6098(2) 0.4711(3) 0.6897(2)
H3 H 0.5662 0.5038 0.6486
C11 C 0.1320(2) 0.4411(3) 0.4444(2)
H4 H 0.1266 0.3588 0.4504
C12 C 0.6643(2) 0.3069(3) 0.7771(2)
H5 H 0.6574 0.2289 0.7951
C13 C 0.3764(2) -0.0184(3) 0.5210(2)
H6 H 0.3440 0.0269 0.4788
C14 C 0.3159(2) 0.3984(2) 0.75900(17)
C15 C 0.4495(2) -0.0366(3) 0.6604(2)
H7 H 0.4675 -0.0037 0.7124
C16 C 0.4023(3) -0.1341(3) 0.5056(2)
H8 H 0.3868 -0.1667 0.4532
C17 C 0.4505(3) -0.2011(3) 0.5667(3)
H9 H 0.4675 -0.2794 0.5560
C18 C 0.2222(3) 0.6206(3) 0.4653(2)
H10 H 0.2774 0.6604 0.4866
C19 C 0.4440(3) 0.5093(4) 0.8279(3)
H11 H 0.4822 0.5772 0.8331
C20 C 0.4739(3) -0.1532(3) 0.6441(3)
H12 H 0.5064 -0.1994 0.6858
C21 C 0.7499(3) 0.4910(4) 0.7846(2)
H13 H 0.8009 0.5371 0.8076
C22 C 0.4608(3) 0.4167(6) 0.8841(3)
H14 H 0.5105 0.4225 0.9267
C23 C 0.7397(3) 0.3750(3) 0.8113(2)
H15 H 0.7838 0.3431 0.8524
C24 C 0.0666(3) 0.6252(4) 0.3928(2)
H16 H 0.0164 0.6675 0.3644
C25 C 0.3312(3) 0.3057(3) 0.8146(2)
H17 H 0.2931 0.2378 0.8100
C26 C 0.6852(3) 0.5380(3) 0.7245(2)
H18 H 0.6923 0.6162 0.7069
C27 C 0.0583(3) 0.5063(4) 0.4041(2)
H19 H 0.0019 0.4680 0.3843
C28 C 0.1472(3) 0.6835(4) 0.4224(3)
H20 H 0.1524 0.7653 0.4142
C29 C 0.4049(4) 0.3168(5) 0.8774(2)
H21 H 0.4169 0.2555 0.9157
loop_
_geom_bond_atom_site_label_1
_geom_bond_atom_site_label_2
_geom_bond_site_symmetry_1
_geom_bond_site_symmetry_2
S1 N1 1_555 1_555
S2 N1 1_555 1_555
N1 C5 1_555 1_555
O1 S2 1_555 1_555
O2 S1 1_555 1_555
O3 C3 1_555 1_555
O4 S2 1_555 1_555
O5 S1 1_555 1_555
C1 C4 1_555 1_555
C2 C6 1_555 1_555
C3 H1 1_555 1_555
C4 C5 1_555 1_555
C5 C3 1_555 1_555
C6 C1 1_555 1_555
C7 C4 1_555 1_555
C8 S2 1_555 1_555
C9 H2 1_555 1_555
C10 C2 1_555 1_555
H3 C10 1_555 1_555
C11 C8 1_555 1_555
H4 C11 1_555 1_555
C12 C2 1_555 1_555
H5 C12 1_555 1_555
C13 C7 1_555 1_555
H6 C13 1_555 1_555
C14 S1 1_555 1_555
C15 C7 1_555 1_555
H7 C15 1_555 1_555
C16 C13 1_555 1_555
H8 C16 1_555 1_555
C17 C16 1_555 1_555
H9 C17 1_555 1_555
C18 C8 1_555 1_555
H10 C18 1_555 1_555
C19 C9 1_555 1_555
H11 C19 1_555 1_555
C20 C15 1_555 1_555
H12 C20 1_555 1_555
C21 H13 1_555 1_555
C22 C19 1_555 1_555
H14 C22 1_555 1_555
C23 C12 1_555 1_555
H15 C23 1_555 1_555
C24 H16 1_555 1_555
C25 C14 1_555 1_555
H17 C25 1_555 1_555
C26 C10 1_555 1_555
H18 C26 1_555 1_555
C27 C11 1_555 1_555
H19 C27 1_555 1_555
C28 C18 1_555 1_555
H20 C28 1_555 1_555
C29 C22 1_555 1_555
H21 C29 1_555 1_555
C9 C14 1_555 1_555
C17 C20 1_555 1_555
C21 C23 1_555 1_555
C21 C26 1_555 1_555
C24 C27 1_555 1_555
C24 C28 1_555 1_555
C25 C29 1_555 1_555

#END
