
#######################################################################
#
#                 Cambridge Crystallographic Data Centre
#                                CCDC 
#
#######################################################################
#
# If this CIF has been generated from an entry in the Cambridge 
# Structural Database, then it will include bibliographic, chemical, 
# crystal, experimental, refinement or atomic coordinate data resulting 
# from the CCDC's data processing and validation procedures.
#
#######################################################################

data_OGABEF
_chemical_formula_moiety         'C42 H52 S1 Si2'
_chemical_name_systematic        
(Anthra[2,3-b]benzo[d]thiene-7,12-diyldiethyne-2,1-diyl)bis(triisopropylsilane)
_symmetry_cell_setting           monoclinic
_symmetry_space_group_name_H-M   'P 21/n'
_symmetry_Int_Tables_number      14
_space_group_name_Hall           '-P 2yn'
loop_
_symmetry_equiv_pos_site_id
_symmetry_equiv_pos_as_xyz
1 x,y,z
2 1/2-x,1/2+y,1/2-z
3 -x,-y,-z
4 1/2+x,1/2-y,1/2+z
_cell_length_a                   12.241(2)
_cell_length_b                   15.168(3)
_cell_length_c                   20.461(4)
_cell_angle_alpha                90
_cell_angle_beta                 93.260(3)
_cell_angle_gamma                90
_cell_volume                     3792.88
_exptl_crystal_colour            orange
_exptl_crystal_description       block
_cell_formula_units_Z            4
loop_
_atom_site_label
_atom_site_type_symbol
_atom_site_fract_x
_atom_site_fract_y
_atom_site_fract_z
H1 H -0.3569 0.5510 0.0000
H2 H -0.3943 0.4248 0.0604
H3 H -0.2591 0.3586 0.1277
H4 H -0.0821 0.4164 0.1363
H5 H 0.0600 0.7437 -0.0096
H6 H 0.4604 0.7997 0.0234
H7 H 0.6279 0.7608 0.0704
H8 H 0.6449 0.6421 0.1448
H9 H 0.4944 0.5594 0.1672
H10 H 0.0969 0.4952 0.1287
H11 H 0.4812 0.3580 0.2962
H12 H 0.5711 0.2922 0.1806
H13 H 0.5441 0.3942 0.1917
H14 H 0.6352 0.3459 0.2382
H15 H 0.5076 0.1781 0.2606
H16 H 0.4511 0.2102 0.3251
H17 H 0.5782 0.2292 0.3169
H18 H 0.2207 0.2487 0.1410
H19 H 0.3377 0.1973 0.0663
H20 H 0.3779 0.2944 0.0866
H21 H 0.4420 0.2102 0.1162
H22 H 0.2563 0.0993 0.1518
H23 H 0.2354 0.1387 0.2225
H24 H 0.3574 0.1176 0.2030
H25 H 0.2435 0.2534 0.3138
H26 H 0.2550 0.4413 0.3219
H27 H 0.2020 0.3808 0.3758
H28 H 0.3299 0.3737 0.3645
H29 H 0.0997 0.2701 0.2331
H30 H 0.1032 0.3749 0.2422
H31 H 0.0657 0.3132 0.3004
H32 H 0.3976 0.8919 -0.1567
H33 H 0.3226 0.9840 -0.2400
H34 H 0.4505 1.0037 -0.2272
H35 H 0.3621 1.0695 -0.1993
H36 H 0.4730 0.9491 -0.0570
H37 H 0.5421 0.9794 -0.1171
H38 H 0.4599 1.0471 -0.0854
H39 H 0.2950 1.0743 -0.0430
H40 H 0.1080 1.1122 -0.1254
H41 H 0.2317 1.1379 -0.1383
H42 H 0.1716 1.1830 -0.0794
H43 H 0.1975 1.0047 0.0306
H44 H 0.0856 1.0263 -0.0105
H45 H 0.1572 1.1046 0.0222
H46 H 0.1328 0.9636 -0.2047
H47 H 0.1645 0.7832 -0.1669
H48 H 0.1031 0.8141 -0.2341
H49 H 0.2311 0.8331 -0.2208
H50 H 0.0194 0.8731 -0.1059
H51 H -0.0342 0.8973 -0.1768
H52 H 0.0009 0.9741 -0.1263
C1 C -0.1960(2) 0.55872(18) 0.03342(13)
C2 C -0.3014(2) 0.5241(2) 0.02765(15)
C3 C -0.3229(3) 0.4494(2) 0.06339(16)
C4 C -0.2422(2) 0.4098(2) 0.10354(15)
C5 C -0.1371(2) 0.44393(19) 0.10879(14)
C6 C -0.1132(2) 0.51915(17) 0.07329(13)
C7 C -0.0092(2) 0.56510(16) 0.07033(12)
C8 C -0.0184(2) 0.64062(17) 0.02837(12)
C9 C 0.0688(2) 0.69340(17) 0.01784(13)
C10 C 0.1729(2) 0.67287(16) 0.04810(12)
C11 C 0.2669(2) 0.72334(16) 0.03557(12)
C12 C 0.3699(2) 0.70161(16) 0.06510(12)
C13 C 0.4659(2) 0.75059(18) 0.05217(14)
C14 C 0.5648(2) 0.72799(19) 0.08036(14)
C15 C 0.5754(2) 0.65620(19) 0.12446(14)
C16 C 0.4864(2) 0.60761(18) 0.13765(13)
C17 C 0.3809(2) 0.62741(16) 0.10808(12)
C18 C 0.2885(2) 0.57483(16) 0.11904(12)
C19 C 0.1840(2) 0.59703(16) 0.09025(12)
C20 C 0.0905(2) 0.54492(16) 0.10048(12)
C21 C 0.3017(2) 0.49503(16) 0.15643(12)
C22 C 0.3144(2) 0.42581(17) 0.18461(13)
C23 C 0.4769(2) 0.31280(18) 0.26052(13)
C24 C 0.5647(2) 0.3386(2) 0.21351(16)
C25 C 0.5061(2) 0.2247(2) 0.29379(16)
C26 C 0.2953(2) 0.23235(17) 0.15958(13)
C27 C 0.3699(3) 0.2337(2) 0.10199(14)
C28 C 0.2852(3) 0.13851(19) 0.18669(16)
C29 C 0.2338(2) 0.31188(18) 0.29168(13)
C30 C 0.2573(3) 0.3833(2) 0.34308(16)
C31 C 0.1149(3) 0.3181(3) 0.26438(18)
C32 C 0.2581(2) 0.79643(17) -0.00899(13)
C33 C 0.2529(2) 0.85748(19) -0.04652(14)
C34 C 0.3794(2) 0.9539(2) -0.14475(15)
C35 C 0.3786(3) 1.0077(3) -0.20860(19)
C36 C 0.4719(3) 0.9852(2) -0.09674(19)
C37 C 0.2201(3) 1.0549(2) -0.05885(18)
C38 C 0.1792(3) 1.1286(2) -0.1046(2)
C39 C 0.1601(5) 1.0470(3) 0.0008(2)
C40 C 0.1340(3) 0.9179(2) -0.16943(18)
C41 C 0.1606(3) 0.8290(3) -0.20063(19)
C42 C 0.0197(3) 0.9153(3) -0.1421(3)
Si1 Si 0.33234(6) 0.31707(5) 0.22457(3)
Si2 Si 0.24430(7) 0.94912(5) -0.10599(4)
S1 S -0.15109(6) 0.65283(5) -0.00752(4)
loop_
_geom_bond_atom_site_label_1
_geom_bond_atom_site_label_2
_geom_bond_site_symmetry_1
_geom_bond_site_symmetry_2
H1 C2 1_555 1_555
H2 C3 1_555 1_555
H3 C4 1_555 1_555
H4 C5 1_555 1_555
H5 C9 1_555 1_555
H6 C13 1_555 1_555
H7 C14 1_555 1_555
H8 C15 1_555 1_555
H9 C16 1_555 1_555
H10 C20 1_555 1_555
H11 C23 1_555 1_555
H12 C24 1_555 1_555
H13 C24 1_555 1_555
H14 C24 1_555 1_555
H15 C25 1_555 1_555
H16 C25 1_555 1_555
H17 C25 1_555 1_555
H18 C26 1_555 1_555
H19 C27 1_555 1_555
H20 C27 1_555 1_555
H21 C27 1_555 1_555
H22 C28 1_555 1_555
H23 C28 1_555 1_555
H24 C28 1_555 1_555
H25 C29 1_555 1_555
H26 C30 1_555 1_555
H27 C30 1_555 1_555
H28 C30 1_555 1_555
H29 C31 1_555 1_555
H30 C31 1_555 1_555
H31 C31 1_555 1_555
H32 C34 1_555 1_555
H33 C35 1_555 1_555
H34 C35 1_555 1_555
H35 C35 1_555 1_555
H36 C36 1_555 1_555
H37 C36 1_555 1_555
H38 C36 1_555 1_555
H39 C37 1_555 1_555
H40 C38 1_555 1_555
H41 C38 1_555 1_555
H42 C38 1_555 1_555
H43 C39 1_555 1_555
H44 C39 1_555 1_555
H45 C39 1_555 1_555
H46 C40 1_555 1_555
H47 C41 1_555 1_555
H48 C41 1_555 1_555
H49 C41 1_555 1_555
H50 C42 1_555 1_555
H51 C42 1_555 1_555
H52 C42 1_555 1_555
C1 C2 1_555 1_555
C2 C3 1_555 1_555
C3 C4 1_555 1_555
C4 C5 1_555 1_555
C5 C6 1_555 1_555
C6 C1 1_555 1_555
C7 C6 1_555 1_555
C8 C7 1_555 1_555
C9 C8 1_555 1_555
C10 C9 1_555 1_555
C11 C10 1_555 1_555
C12 C11 1_555 1_555
C13 C12 1_555 1_555
C14 C13 1_555 1_555
C15 C14 1_555 1_555
C16 C15 1_555 1_555
C17 C12 1_555 1_555
C18 C17 1_555 1_555
C19 C10 1_555 1_555
C20 C7 1_555 1_555
C21 C18 1_555 1_555
C22 C21 1_555 1_555
C23 C24 1_555 1_555
C25 C23 1_555 1_555
C26 C27 1_555 1_555
C28 C26 1_555 1_555
C29 C30 1_555 1_555
C31 C29 1_555 1_555
C32 C11 1_555 1_555
C33 C32 1_555 1_555
C34 C35 1_555 1_555
C36 C34 1_555 1_555
C37 C38 1_555 1_555
C39 C37 1_555 1_555
C40 C41 1_555 1_555
C42 C40 1_555 1_555
Si1 C22 1_555 1_555
Si2 C33 1_555 1_555
S1 C1 1_555 1_555
C8 S1 1_555 1_555
C16 C17 1_555 1_555
C18 C19 1_555 1_555
C19 C20 1_555 1_555
C23 Si1 1_555 1_555
C26 Si1 1_555 1_555
C29 Si1 1_555 1_555
C34 Si2 1_555 1_555
C37 Si2 1_555 1_555
C40 Si2 1_555 1_555

#END
