
#######################################################################
#
#                 Cambridge Crystallographic Data Centre
#                                CCDC 
#
#######################################################################
#
# If this CIF has been generated from an entry in the Cambridge 
# Structural Database, then it will include bibliographic, chemical, 
# crystal, experimental, refinement or atomic coordinate data resulting 
# from the CCDC's data processing and validation procedures.
#
#######################################################################

data_OGADIM
_chemical_formula_moiety         'C29 H25 N1 O4 S1'
_chemical_name_systematic        
10-(benzenecarbonyl)-2-benzyl-3a-(hydroxymethyl)-2-methyl-3a,3b,10,10a-tetrahydro-1H-cyclopenta[3,4]pyrrolo[2,1-b][1,3]benzothiazole-1,3(2H)-dione
_symmetry_cell_setting           triclinic
_symmetry_space_group_name_H-M   'P -1'
_symmetry_Int_Tables_number      2
_space_group_name_Hall           '-P 1'
loop_
_symmetry_equiv_pos_site_id
_symmetry_equiv_pos_as_xyz
1 x,y,z
2 -x,-y,-z
_cell_length_a                   12.2788(5)
_cell_length_b                   13.5044(5)
_cell_length_c                   15.3335(4)
_cell_angle_alpha                105.770(3)
_cell_angle_beta                 110.274(3)
_cell_angle_gamma                90.739(3)
_cell_volume                     2279.07
_exptl_crystal_colour            colorless
_exptl_crystal_description       prism
_cell_formula_units_Z            4
loop_
_atom_site_label
_atom_site_type_symbol
_atom_site_fract_x
_atom_site_fract_y
_atom_site_fract_z
S1 S 0.92799(4) 0.72672(4) 0.69258(3)
O1 O 0.81808(13) 0.46270(12) 0.54608(11)
H1 H 0.8748 0.4570 0.5293
O2 O 0.96704(12) 0.59892(11) 0.50394(11)
O3 O 0.50275(12) 0.63894(10) 0.50527(10)
O4 O 0.68001(13) 0.75535(12) 0.31138(11)
N1 N 0.73782(13) 0.78660(12) 0.58751(11)
C1 C 0.46780(16) 0.81294(15) 0.55484(14)
C2 C 0.76786(16) 0.61913(14) 0.49463(13)
C3 C 0.84781(16) 0.67015(15) 0.37932(14)
C4 C 0.65072(17) 0.47933(16) 0.19597(14)
H2 H 0.6217 0.5367 0.1774
C5 C 0.72664(17) 0.70430(15) 0.36469(14)
C6 C 0.36275(17) 0.78435(17) 0.56312(15)
H3 H 0.3353 0.7147 0.5460
C7 C 0.83075(15) 0.85907(14) 0.60130(13)
C8 C 0.50693(17) 0.91874(16) 0.58026(14)
H4 H 0.5760 0.9388 0.5741
C9 C 0.87328(16) 0.62660(14) 0.46495(13)
C10 C 0.94012(16) 0.83859(15) 0.65764(14)
C11 C 0.82176(17) 0.94574(15) 0.56874(15)
H5 H 0.7495 0.9597 0.5310
C12 C 0.76771(17) 0.48660(15) 0.25501(13)
C13 C 0.73096(17) 0.50508(14) 0.48284(14)
H6 H 0.6595 0.5008 0.4959
H7 H 0.7148 0.4642 0.4161
C14 C 0.63837(15) 0.75881(14) 0.49415(13)
H8 H 0.6260 0.8173 0.4668
C15 C 0.78337(16) 0.68883(14) 0.60006(13)
H9 H 0.7344 0.6550 0.6248
C16 C 0.53146(15) 0.72934(14) 0.51642(13)
C17 C 0.67225(15) 0.66712(14) 0.42767(13)
H10 H 0.6041 0.6157 0.3870
C18 C 0.8093(2) 0.39933(17) 0.28113(15)
H11 H 0.8873 0.4021 0.3200
C19 C 0.44310(18) 0.99330(16) 0.61444(15)
H12 H 0.4695 1.0632 0.6313
C20 C 1.03986(17) 0.90574(17) 0.68330(16)
H13 H 1.1121 0.8928 0.7221
C21 C 0.92313(19) 1.01204(16) 0.59345(17)
H14 H 0.9182 1.0701 0.5713
C22 C 0.29957(19) 0.86001(19) 0.59684(18)
H15 H 0.2293 0.8407 0.6015
C23 C 0.84854(18) 0.58526(17) 0.28757(14)
H16 H 0.8288 0.6152 0.2340
H17 H 0.9277 0.5674 0.3002
C24 C 0.34006(19) 0.96390(18) 0.62355(16)
H18 H 0.2981 1.0140 0.6476
C25 C 0.5771(2) 0.38855(19) 0.16466(16)
H19 H 0.4991 0.3853 0.1257
C26 C 0.93866(19) 0.75975(17) 0.40095(16)
H20 H 0.9233 0.7824 0.3441
H21 H 1.0151 0.7375 0.4190
H22 H 0.9350 0.8160 0.4535
C27 C 1.03067(19) 0.99235(17) 0.65045(17)
H23 H 1.0972 1.0375 0.6668
C28 C 0.7343(3) 0.30798(19) 0.24905(19)
H24 H 0.7625 0.2502 0.2672
C29 C 0.6191(2) 0.30214(18) 0.19103(18)
H25 H 0.5697 0.2407 0.1696
S2 S 0.12344(4) 0.73813(4) -0.06276(3)
O5 O 0.06191(11) 0.60752(11) 0.05973(10)
O6 O 0.53910(12) 0.63657(11) 0.07038(10)
O7 O 0.16522(12) 0.47145(11) -0.06788(10)
H26 H 0.1067 0.4712 -0.0537
O8 O 0.40664(13) 0.75989(12) 0.32697(10)
N2 N 0.33952(12) 0.79227(12) 0.06209(11)
C30 C 0.20914(16) 0.68662(15) 0.22003(13)
C31 C 0.33975(16) 0.71335(14) 0.24604(13)
C32 C 0.15510(15) 0.85199(14) 0.03515(13)
C33 C 0.26286(15) 0.62785(14) 0.06962(13)
C34 C 0.27428(15) 0.87038(14) 0.09287(13)
C35 C 0.26049(15) 0.69588(14) -0.00020(13)
H27 H 0.2926 0.6589 -0.0485
C36 C 0.22815(16) 0.50258(15) 0.24212(14)
C37 C 0.26489(16) 0.51318(14) 0.01792(13)
H28 H 0.3344 0.5067 0.0014
H29 H 0.2697 0.4729 0.0625
C38 C 0.07866(17) 0.92096(16) 0.05575(15)
H30 H -0.0006 0.9079 0.0177
C39 C 0.37571(15) 0.67431(14) 0.15866(13)
H31 H 0.4286 0.6212 0.1683
C40 C 0.43373(15) 0.76321(14) 0.13756(13)
H32 H 0.4656 0.8223 0.1964
C41 C 0.31768(18) 0.96102(15) 0.16956(14)
H33 H 0.3971 0.9752 0.2069
C42 C 0.71827(18) 0.78065(17) 0.08896(15)
H34 H 0.7370 0.7143 0.0896
C43 C 0.61031(16) 0.80905(16) 0.09217(14)
C44 C 0.52954(15) 0.72785(15) 0.09693(14)
C45 C 0.2404(2) 1.03034(16) 0.18960(15)
H35 H 0.2688 1.0910 0.2410
C46 C 0.18513(18) 0.60623(15) 0.26923(14)
H36 H 0.2210 0.6364 0.3392
H37 H 0.1014 0.5948 0.2532
C47 C 0.16391(16) 0.63793(14) 0.10915(13)
C48 C 0.15360(18) 0.41971(16) 0.16726(15)
H38 H 0.0767 0.4284 0.1345
C49 C 0.34211(17) 0.48637(16) 0.29169(15)
H39 H 0.3923 0.5403 0.3426
C50 C 0.15266(19) 0.78316(16) 0.25046(15)
H40 H 0.1847 0.8115 0.3200
H41 H 0.0698 0.7653 0.2294
H42 H 0.1679 0.8336 0.2212
C51 C 0.38188(19) 0.39042(18) 0.26589(16)
H43 H 0.4582 0.3806 0.2993
C52 C 0.3073(2) 0.30958(17) 0.19019(18)
H44 H 0.3336 0.2456 0.1722
C53 C 0.12242(19) 1.01029(16) 0.13435(16)
H45 H 0.0718 1.0567 0.1497
C54 C 0.1936(2) 0.32479(17) 0.14172(17)
H46 H 0.1435 0.2705 0.0913
C55 C 0.79708(19) 0.8519(2) 0.08490(17)
H47 H 0.8701 0.8340 0.0851
C56 C 0.58230(19) 0.90766(17) 0.09010(17)
H48 H 0.5110 0.9269 0.0932
C57 C 0.6611(2) 0.97850(19) 0.08331(18)
H49 H 0.6417 1.0442 0.0807
C58 C 0.7677(2) 0.9502(2) 0.08048(18)
H50 H 0.8201 0.9968 0.0756
loop_
_geom_bond_atom_site_label_1
_geom_bond_atom_site_label_2
_geom_bond_site_symmetry_1
_geom_bond_site_symmetry_2
S1 C10 1_555 1_555
O1 H1 1_555 1_555
O2 C9 1_555 1_555
O3 C16 1_555 1_555
O4 C5 1_555 1_555
N1 C7 1_555 1_555
C1 C6 1_555 1_555
C2 C9 1_555 1_555
C3 C5 1_555 1_555
C4 H2 1_555 1_555
C5 C17 1_555 1_555
C6 H3 1_555 1_555
C7 C10 1_555 1_555
C8 C1 1_555 1_555
H4 C8 1_555 1_555
C9 C3 1_555 1_555
C10 C20 1_555 1_555
C11 C7 1_555 1_555
H5 C11 1_555 1_555
C12 C4 1_555 1_555
C13 O1 1_555 1_555
H6 C13 1_555 1_555
H7 C13 1_555 1_555
C14 N1 1_555 1_555
H8 C14 1_555 1_555
C15 S1 1_555 1_555
H9 C15 1_555 1_555
C16 C1 1_555 1_555
C17 C2 1_555 1_555
H10 C17 1_555 1_555
C18 C12 1_555 1_555
H11 C18 1_555 1_555
C19 C8 1_555 1_555
H12 C19 1_555 1_555
C20 H13 1_555 1_555
C21 C11 1_555 1_555
H14 C21 1_555 1_555
C22 C6 1_555 1_555
H15 C22 1_555 1_555
C23 C3 1_555 1_555
H16 C23 1_555 1_555
H17 C23 1_555 1_555
C24 C19 1_555 1_555
H18 C24 1_555 1_555
C25 C4 1_555 1_555
H19 C25 1_555 1_555
C26 C3 1_555 1_555
H20 C26 1_555 1_555
H21 C26 1_555 1_555
H22 C26 1_555 1_555
C27 C20 1_555 1_555
H23 C27 1_555 1_555
C28 C18 1_555 1_555
H24 C28 1_555 1_555
C29 C25 1_555 1_555
H25 C29 1_555 1_555
S2 C32 1_555 1_555
O5 C47 1_555 1_555
O6 C44 1_555 1_555
O7 H26 1_555 1_555
O8 C31 1_555 1_555
N2 C34 1_555 1_555
C30 C31 1_555 1_555
C31 C39 1_555 1_555
C32 C34 1_555 1_555
C33 C35 1_555 1_555
C34 C41 1_555 1_555
C35 S2 1_555 1_555
H27 C35 1_555 1_555
C36 C46 1_555 1_555
C37 O7 1_555 1_555
H28 C37 1_555 1_555
H29 C37 1_555 1_555
C38 C32 1_555 1_555
H30 C38 1_555 1_555
C39 C33 1_555 1_555
H31 C39 1_555 1_555
C40 N2 1_555 1_555
H32 C40 1_555 1_555
C41 H33 1_555 1_555
C42 H34 1_555 1_555
C43 C42 1_555 1_555
C44 C40 1_555 1_555
C45 C41 1_555 1_555
H35 C45 1_555 1_555
C46 C30 1_555 1_555
H36 C46 1_555 1_555
H37 C46 1_555 1_555
C47 C30 1_555 1_555
C48 C36 1_555 1_555
H38 C48 1_555 1_555
C49 C36 1_555 1_555
H39 C49 1_555 1_555
C50 C30 1_555 1_555
H40 C50 1_555 1_555
H41 C50 1_555 1_555
H42 C50 1_555 1_555
C51 C49 1_555 1_555
H43 C51 1_555 1_555
C52 C51 1_555 1_555
H44 C52 1_555 1_555
C53 C38 1_555 1_555
H45 C53 1_555 1_555
C54 C48 1_555 1_555
H46 C54 1_555 1_555
C55 C42 1_555 1_555
H47 C55 1_555 1_555
C56 C43 1_555 1_555
H48 C56 1_555 1_555
C57 C56 1_555 1_555
H49 C57 1_555 1_555
C58 C55 1_555 1_555
H50 C58 1_555 1_555
N1 C15 1_555 1_555
C2 C13 1_555 1_555
C2 C15 1_555 1_555
C12 C23 1_555 1_555
C14 C16 1_555 1_555
C14 C17 1_555 1_555
C21 C27 1_555 1_555
C22 C24 1_555 1_555
C28 C29 1_555 1_555
N2 C35 1_555 1_555
C33 C37 1_555 1_555
C33 C47 1_555 1_555
C39 C40 1_555 1_555
C43 C44 1_555 1_555
C45 C53 1_555 1_555
C52 C54 1_555 1_555
C57 C58 1_555 1_555

#END
