
#######################################################################
#
#                 Cambridge Crystallographic Data Centre
#                                CCDC 
#
#######################################################################
#
# If this CIF has been generated from an entry in the Cambridge 
# Structural Database, then it will include bibliographic, chemical, 
# crystal, experimental, refinement or atomic coordinate data resulting 
# from the CCDC's data processing and validation procedures.
#
#######################################################################

data_OGEDUA
_chemical_formula_moiety         'C16 H22 O3'
_chemical_name_systematic        
'trans-4-((2,6-Dimethylphenoxy)methyl)cyclohexanecarboxylic acid'
_symmetry_cell_setting           triclinic
_symmetry_space_group_name_H-M   'P -1'
_symmetry_Int_Tables_number      2
_space_group_name_Hall           '-P 1'
loop_
_symmetry_equiv_pos_site_id
_symmetry_equiv_pos_as_xyz
1 x,y,z
2 -x,-y,-z
_cell_length_a                   7.162(3)
_cell_length_b                   7.680(4)
_cell_length_c                   14.451(4)
_cell_angle_alpha                95.26(4)
_cell_angle_beta                 98.35(4)
_cell_angle_gamma                106.44(3)
_cell_volume                     746.867
_exptl_crystal_colour            colorless
_exptl_crystal_description       block
_cell_formula_units_Z            2
_exptl_crystal_recrystallization_method chloroform
loop_
_atom_site_label
_atom_site_type_symbol
_atom_site_fract_x
_atom_site_fract_y
_atom_site_fract_z
O1 O 0.8686(2) 0.1188(2) 0.70598(13)
O2 O 1.2419(3) -0.5645(3) 0.96803(18)
H1 H 1.3381 -0.5780 1.0015
O3 O 1.4736(3) -0.3312(3) 0.93470(18)
C1 C 0.7116(4) 0.1817(3) 0.6701(2)
C2 C 0.5908(4) 0.2148(4) 0.7308(2)
C3 C 0.4398(5) 0.2823(5) 0.6941(4)
H2 H 0.3518 0.3017 0.7324
C4 C 0.4162(6) 0.3209(5) 0.6047(5)
H3 H 0.3148 0.3684 0.5828
C5 C 0.5403(6) 0.2907(4) 0.5465(3)
H4 H 0.5235 0.3191 0.4853
C6 C 0.6931(4) 0.2174(4) 0.5772(2)
C7 C 0.8312(6) 0.1882(5) 0.5141(2)
H5 H 0.9250 0.1368 0.5466
H6 H 0.9000 0.3034 0.4965
H7 H 0.7576 0.1056 0.4584
C8 C 0.6272(6) 0.1818(5) 0.8314(3)
H8 H 0.6137 0.0542 0.8333
H9 H 0.5326 0.2158 0.8642
H10 H 0.7585 0.2541 0.8612
C9 C 0.8238(4) -0.0765(3) 0.6916(2)
H11 H 0.8080 -0.1196 0.6249
H12 H 0.7005 -0.1320 0.7125
C10 C 0.9881(4) -0.1320(3) 0.74612(18)
H13 H 1.1123 -0.0654 0.7276
C11 C 0.9560(4) -0.3349(4) 0.7197(2)
H14 H 0.9530 -0.3606 0.6524
H15 H 0.8287 -0.4032 0.7329
C12 C 1.1171(4) -0.3994(4) 0.7733(2)
H16 H 1.2426 -0.3407 0.7551
H17 H 1.0871 -0.5308 0.7564
C13 C 1.1352(4) -0.3548(4) 0.8800(2)
H18 H 1.0096 -0.4209 0.8974
C14 C 1.1699(5) -0.1513(4) 0.9070(2)
H19 H 1.2980 -0.0839 0.8942
H20 H 1.1718 -0.1259 0.9742
C15 C 1.0103(5) -0.0858(4) 0.8526(2)
H21 H 1.0425 0.0460 0.8689
H22 H 0.8849 -0.1419 0.8716
C16 C 1.2952(4) -0.4194(4) 0.9309(2)
loop_
_geom_bond_atom_site_label_1
_geom_bond_atom_site_label_2
_geom_bond_site_symmetry_1
_geom_bond_site_symmetry_2
O1 C1 1_555 1_555
O2 H1 1_555 1_555
O3 C16 1_555 1_555
C1 C2 1_555 1_555
C2 C3 1_555 1_555
C3 H2 1_555 1_555
C4 C3 1_555 1_555
H3 C4 1_555 1_555
C5 C4 1_555 1_555
H4 C5 1_555 1_555
C6 C1 1_555 1_555
C7 C6 1_555 1_555
H5 C7 1_555 1_555
H6 C7 1_555 1_555
H7 C7 1_555 1_555
C8 C2 1_555 1_555
H8 C8 1_555 1_555
H9 C8 1_555 1_555
H10 C8 1_555 1_555
C9 O1 1_555 1_555
H11 C9 1_555 1_555
H12 C9 1_555 1_555
C10 C9 1_555 1_555
H13 C10 1_555 1_555
C11 C10 1_555 1_555
H14 C11 1_555 1_555
H15 C11 1_555 1_555
C12 C11 1_555 1_555
H16 C12 1_555 1_555
H17 C12 1_555 1_555
C13 C12 1_555 1_555
H18 C13 1_555 1_555
C14 C13 1_555 1_555
H19 C14 1_555 1_555
H20 C14 1_555 1_555
C15 C10 1_555 1_555
H21 C15 1_555 1_555
H22 C15 1_555 1_555
C16 O2 1_555 1_555
C5 C6 1_555 1_555
C13 C16 1_555 1_555
C14 C15 1_555 1_555

#END
