
#######################################################################
#
#                 Cambridge Crystallographic Data Centre
#                                CCDC 
#
#######################################################################
#
# If this CIF has been generated from an entry in the Cambridge 
# Structural Database, then it will include bibliographic, chemical, 
# crystal, experimental, refinement or atomic coordinate data resulting 
# from the CCDC's data processing and validation procedures.
#
#######################################################################

data_OGEKIX
_chemical_formula_moiety         'C25 H22 Br1 F3 N2 O3 S1'
_chemical_name_systematic        
1-(4-bromophenyl)-10,13,13-trifluoro-9-methyl-8-((4-methylphenyl)sulfonyl)-14-oxa-8,10-diazatricyclo[7.4.1.0^2,7^]tetradeca-2,4,6-triene
_symmetry_cell_setting           monoclinic
_symmetry_space_group_name_H-M   'P 21/n'
_symmetry_Int_Tables_number      14
_space_group_name_Hall           '-P 2yn'
loop_
_symmetry_equiv_pos_site_id
_symmetry_equiv_pos_as_xyz
1 x,y,z
2 1/2-x,1/2+y,1/2-z
3 -x,-y,-z
4 1/2+x,1/2-y,1/2+z
_cell_length_a                   14.399(2)
_cell_length_b                   9.6415(16)
_cell_length_c                   17.024(3)
_cell_angle_alpha                90
_cell_angle_beta                 93.004(4)
_cell_angle_gamma                90
_cell_volume                     2360.16
_exptl_crystal_colour            colorless
_exptl_crystal_description       prismatic
_cell_formula_units_Z            4
loop_
_atom_site_label
_atom_site_type_symbol
_atom_site_fract_x
_atom_site_fract_y
_atom_site_fract_z
Br1 Br 0.40060(2) -0.02148(4) 0.19702(2)
S1 S 0.69686(5) 0.35565(7) 0.55687(4)
F1 F 0.84104(14) 0.0544(3) 0.27720(11)
F2 F 0.82711(14) -0.1411(2) 0.33794(11)
F3 F 0.97903(12) 0.2987(2) 0.51738(12)
N1 N 0.77985(14) 0.2481(2) 0.52899(12)
N2 N 0.92123(15) 0.1985(3) 0.47614(14)
O1 O 0.78651(12) 0.20799(19) 0.39327(10)
O2 O 0.73677(15) 0.4901(2) 0.56239(13)
O3 O 0.66022(13) 0.2939(2) 0.62460(11)
C1 C 0.77018(16) 0.1030(3) 0.54401(15)
C2 C 0.77253(19) 0.0560(3) 0.62055(16)
H1 H 0.7739 0.1196 0.6617
C3 C 0.7729(2) -0.0828(3) 0.63677(17)
H2 H 0.7733 -0.1137 0.6886
C4 C 0.7727(2) -0.1763(3) 0.57601(18)
H3 H 0.7737 -0.2709 0.5866
C5 C 0.7712(2) -0.1309(3) 0.49996(17)
H4 H 0.7719 -0.1956 0.4595
C6 C 0.76859(18) 0.0094(3) 0.48130(16)
C7 C 0.76737(18) 0.0610(3) 0.39765(15)
C8 C 0.8459(2) -0.0036(4) 0.3498(2)
C9 C 0.9431(2) 0.0114(4) 0.3853(2)
H5 H 0.9863 -0.0243 0.3484
H6 H 0.9492 -0.0451 0.4324
C10 C 0.9703(2) 0.1588(4) 0.4064(2)
H7 H 1.0369 0.1650 0.4173
H8 H 0.9532 0.2205 0.3630
C11 C 0.83172(18) 0.2726(3) 0.45855(16)
C12 C 0.8448(2) 0.4214(3) 0.4338(2)
H9 H 0.8889 0.4252 0.3934
H10 H 0.8675 0.4750 0.4782
H11 H 0.7864 0.4585 0.4138
C13 C 0.67361(19) 0.0400(3) 0.35172(16)
C14 C 0.65009(19) 0.1272(3) 0.28907(16)
H12 H 0.6895 0.2000 0.2775
C15 C 0.5696(2) 0.1077(3) 0.24391(16)
H13 H 0.5550 0.1664 0.2017
C16 C 0.5107(2) 0.0018(3) 0.26091(17)
C17 C 0.5315(2) -0.0849(3) 0.32315(18)
H14 H 0.4911 -0.1564 0.3348
C18 C 0.6122(2) -0.0656(3) 0.36810(17)
H15 H 0.6260 -0.1244 0.4104
C19 C 0.60894(18) 0.3590(3) 0.48205(15)
C20 C 0.5981(2) 0.4729(3) 0.43418(19)
H16 H 0.6372 0.5492 0.4413
C21 C 0.5284(2) 0.4726(4) 0.37519(19)
H17 H 0.5216 0.5490 0.3420
C22 C 0.46909(19) 0.3626(3) 0.36452(16)
C23 C 0.47996(19) 0.2504(3) 0.41435(16)
H18 H 0.4395 0.1756 0.4081
C24 C 0.54917(18) 0.2466(3) 0.47305(16)
H19 H 0.5558 0.1700 0.5061
C25 C 0.3955(2) 0.3641(4) 0.29865(18)
H20 H 0.4120 0.2998 0.2586
H21 H 0.3907 0.4557 0.2767
H22 H 0.3369 0.3378 0.3185
loop_
_geom_bond_atom_site_label_1
_geom_bond_atom_site_label_2
_geom_bond_site_symmetry_1
_geom_bond_site_symmetry_2
Br1 C16 1_555 1_555
S1 N1 1_555 1_555
F1 C8 1_555 1_555
F2 C8 1_555 1_555
F3 N2 1_555 1_555
N1 C1 1_555 1_555
N2 C10 1_555 1_555
O1 C7 1_555 1_555
O2 S1 1_555 1_555
O3 S1 1_555 1_555
C1 C2 1_555 1_555
C2 H1 1_555 1_555
C3 C2 1_555 1_555
H2 C3 1_555 1_555
C4 C3 1_555 1_555
H3 C4 1_555 1_555
C5 C4 1_555 1_555
H4 C5 1_555 1_555
C6 C1 1_555 1_555
C7 C6 1_555 1_555
C8 C7 1_555 1_555
C9 C8 1_555 1_555
H5 C9 1_555 1_555
H6 C9 1_555 1_555
C10 C9 1_555 1_555
H7 C10 1_555 1_555
H8 C10 1_555 1_555
C11 N1 1_555 1_555
C12 C11 1_555 1_555
H9 C12 1_555 1_555
H10 C12 1_555 1_555
H11 C12 1_555 1_555
C13 C7 1_555 1_555
C14 C13 1_555 1_555
H12 C14 1_555 1_555
C15 C14 1_555 1_555
H13 C15 1_555 1_555
C16 C15 1_555 1_555
C17 C16 1_555 1_555
H14 C17 1_555 1_555
C18 C13 1_555 1_555
H15 C18 1_555 1_555
C19 S1 1_555 1_555
C20 C19 1_555 1_555
H16 C20 1_555 1_555
C21 C20 1_555 1_555
H17 C21 1_555 1_555
C22 C21 1_555 1_555
C23 C22 1_555 1_555
H18 C23 1_555 1_555
C24 C19 1_555 1_555
H19 C24 1_555 1_555
C25 C22 1_555 1_555
H20 C25 1_555 1_555
H21 C25 1_555 1_555
H22 C25 1_555 1_555
N2 C11 1_555 1_555
O1 C11 1_555 1_555
C5 C6 1_555 1_555
C17 C18 1_555 1_555
C23 C24 1_555 1_555

#END
