
#######################################################################
#
#                 Cambridge Crystallographic Data Centre
#                                CCDC 
#
#######################################################################
#
# If this CIF has been generated from an entry in the Cambridge 
# Structural Database, then it will include bibliographic, chemical, 
# crystal, experimental, refinement or atomic coordinate data resulting 
# from the CCDC's data processing and validation procedures.
#
#######################################################################

data_OGEMAR
_chemical_formula_moiety         'C26 H20'
_chemical_name_systematic        tetraphenylethene
_symmetry_cell_setting           monoclinic
_symmetry_space_group_name_H-M   'P 21'
_symmetry_Int_Tables_number      4
_space_group_name_Hall           'P 2yb'
loop_
_symmetry_equiv_pos_site_id
_symmetry_equiv_pos_as_xyz
1 x,y,z
2 -x,1/2+y,-z
_cell_length_a                   9.78469(7)
_cell_length_b                   9.17234(4)
_cell_length_c                   10.79906(7)
_cell_angle_alpha                90
_cell_angle_beta                 108.0957(8)
_cell_angle_gamma                90
_cell_volume                     921.262
_exptl_crystal_colour            colorless
_exptl_crystal_description       plate
_cell_formula_units_Z            2
loop_
_atom_site_label
_atom_site_type_symbol
_atom_site_fract_x
_atom_site_fract_y
_atom_site_fract_z
C1 C 0.42367(17) 0.30722(18) 0.75081(16)
H1 H 0.429074 0.242128 0.684062
C2 C 0.74157(16) 0.49912(17) 0.75047(15)
C3 C 0.50266(16) 0.43646(17) 0.77117(15)
C4 C 0.52764(17) 0.47282(18) 0.54867(15)
C5 C 0.81002(16) 0.48016(17) 0.89419(15)
C6 C 0.79626(17) 0.67219(19) 0.59127(16)
H2 H 0.702764 0.712655 0.573517
C7 C 0.83859(16) 0.55716(17) 0.67949(15)
C8 C 0.60039(16) 0.47051(17) 0.69233(15)
C9 C 0.33720(18) 0.27273(19) 0.82717(17)
H3 H 0.285799 0.183240 0.814060
C10 C 0.97811(17) 0.50195(18) 0.70561(16)
H4 H 1.009274 0.424745 0.766518
C11 C 0.39163(18) 0.53651(19) 0.50011(16)
H5 H 0.348760 0.579737 0.558951
C12 C 0.48922(17) 0.53341(18) 0.86656(15)
H6 H 0.540693 0.622864 0.880110
C13 C 0.89737(17) 0.59030(19) 0.96661(16)
H7 H 0.915178 0.675407 0.923889
C14 C 0.32586(18) 0.3695(2) 0.92303(17)
H8 H 0.266785 0.346185 0.975390
C15 C 1.07166(17) 0.55832(19) 0.64383(16)
H9 H 1.165954 0.519605 0.662436
C16 C 0.58729(19) 0.40900(19) 0.45990(17)
H10 H 0.679701 0.365205 0.490403
C17 C 0.88981(19) 0.7280(2) 0.52921(17)
H11 H 0.859391 0.805675 0.468673
C18 C 1.02712(19) 0.6714(2) 0.55485(17)
H12 H 1.090429 0.709642 0.511771
C19 C 0.95873(18) 0.5766(2) 1.10111(17)
H13 H 1.017447 0.652514 1.149552
C20 C 0.40124(18) 0.5000(2) 0.94164(16)
H14 H 0.392596 0.566725 1.006052
C21 C 0.78930(17) 0.35410(19) 0.95887(16)
H15 H 0.733117 0.276473 0.910644
C22 C 0.31804(19) 0.5378(2) 0.36766(17)
H16 H 0.226422 0.583170 0.336415
C23 C 0.93430(18) 0.4523(2) 1.16444(16)
H17 H 0.975104 0.443434 1.256217
C24 C 0.85006(19) 0.3412(2) 1.09295(17)
H18 H 0.833706 0.255673 1.135902
C25 C 0.5126(2) 0.4089(2) 0.32704(17)
H19 H 0.554041 0.364676 0.267606
C26 C 0.3780(2) 0.4732(2) 0.28134(17)
H20 H 0.327138 0.472816 0.190742
loop_
_geom_bond_atom_site_label_1
_geom_bond_atom_site_label_2
_geom_bond_site_symmetry_1
_geom_bond_site_symmetry_2
C1 H1 1_555 1_555
C2 C5 1_555 1_555
C3 C1 1_555 1_555
C4 C8 1_555 1_555
C5 C13 1_555 1_555
C6 H2 1_555 1_555
C7 C2 1_555 1_555
C8 C2 1_555 1_555
C9 C1 1_555 1_555
H3 C9 1_555 1_555
C10 C7 1_555 1_555
H4 C10 1_555 1_555
C11 C4 1_555 1_555
H5 C11 1_555 1_555
C12 C3 1_555 1_555
H6 C12 1_555 1_555
C13 H7 1_555 1_555
C14 C9 1_555 1_555
H8 C14 1_555 1_555
C15 C10 1_555 1_555
H9 C15 1_555 1_555
C16 C4 1_555 1_555
H10 C16 1_555 1_555
C17 C6 1_555 1_555
H11 C17 1_555 1_555
C18 C15 1_555 1_555
H12 C18 1_555 1_555
C19 C13 1_555 1_555
H13 C19 1_555 1_555
C20 C12 1_555 1_555
H14 C20 1_555 1_555
C21 C5 1_555 1_555
H15 C21 1_555 1_555
C22 C11 1_555 1_555
H16 C22 1_555 1_555
C23 C19 1_555 1_555
H17 C23 1_555 1_555
C24 C21 1_555 1_555
H18 C24 1_555 1_555
C25 C16 1_555 1_555
H19 C25 1_555 1_555
C26 C22 1_555 1_555
H20 C26 1_555 1_555
C3 C8 1_555 1_555
C6 C7 1_555 1_555
C14 C20 1_555 1_555
C17 C18 1_555 1_555
C23 C24 1_555 1_555
C25 C26 1_555 1_555

#END
