
#######################################################################
#
#                 Cambridge Crystallographic Data Centre
#                                CCDC 
#
#######################################################################
#
# If this CIF has been generated from an entry in the Cambridge 
# Structural Database, then it will include bibliographic, chemical, 
# crystal, experimental, refinement or atomic coordinate data resulting 
# from the CCDC's data processing and validation procedures.
#
#######################################################################

data_OGENEW
_chemical_formula_moiety         'C24 H18 O2 S1'
_chemical_name_systematic        
2,5-diphenyl-4a,10b-dihydro-4H,5H-[1]benzothiopyrano[3,4-c]pyran-4-one
_symmetry_cell_setting           orthorhombic
_symmetry_space_group_name_H-M   'P 21 21 21'
_symmetry_Int_Tables_number      19
_space_group_name_Hall           'P 2ac 2ab'
loop_
_symmetry_equiv_pos_site_id
_symmetry_equiv_pos_as_xyz
1 x,y,z
2 1/2-x,-y,1/2+z
3 1/2+x,1/2-y,-z
4 -x,1/2+y,1/2-z
_cell_length_a                   9.5092(6)
_cell_length_b                   12.3167(8)
_cell_length_c                   15.9826(8)
_cell_angle_alpha                90
_cell_angle_beta                 90
_cell_angle_gamma                90
_cell_volume                     1871.91
_exptl_crystal_colour            'light colorless'
_exptl_crystal_description       block
_cell_formula_units_Z            4
_exptl_crystal_recrystallization_method 
'Re-crystallisation from solvent: petroleum ether, ethyl acetate'
loop_
_atom_site_label
_atom_site_type_symbol
_atom_site_fract_x
_atom_site_fract_y
_atom_site_fract_z
S1 S -0.76815(9) -0.59550(7) -0.13417(4)
O1 O -0.6385(2) -0.86425(17) -0.30159(12)
O2 O -0.4317(2) -0.79274(17) -0.32828(11)
C1 C -0.5567(3) -0.7271(2) -0.20502(14)
H1 H -0.4923 -0.7584 -0.1637
C2 C -0.7054(3) -0.7309(2) -0.16604(16)
H2 H -0.7698 -0.7580 -0.2091
C3 C -0.7388(3) -0.5287(2) -0.23051(16)
C4 C -0.8404(3) -0.4617(2) -0.26565(17)
H3 H -0.9257 -0.4508 -0.2384
C5 C -0.8142(3) -0.4115(3) -0.34107(18)
H4 H -0.8812 -0.3655 -0.3643
C6 C -0.6886(3) -0.4291(3) -0.38226(17)
H5 H -0.6722 -0.3963 -0.4337
C7 C -0.5872(3) -0.4954(2) -0.34734(15)
H6 H -0.5030 -0.5071 -0.3756
C8 C -0.6100(3) -0.5444(2) -0.27057(16)
C9 C -0.5014(3) -0.6123(2) -0.22523(16)
H7 H -0.4828 -0.5763 -0.1717
C10 C -0.3630(3) -0.6241(2) -0.26903(16)
H8 H -0.2972 -0.5684 -0.2649
C11 C -0.3315(3) -0.7116(2) -0.31346(15)
C12 C -0.5505(3) -0.7992(2) -0.28097(17)
C13 C -0.7181(3) -0.8052(2) -0.09119(15)
C14 C -0.8111(3) -0.8915(3) -0.0929(2)
H9 H -0.8658 -0.9034 -0.1402
C15 C -0.8234(4) -0.9603(3) -0.0247(2)
H10 H -0.8865 -1.0179 -0.0266
C16 C -0.7435(4) -0.9440(3) 0.0452(2)
H11 H -0.7524 -0.9900 0.0910
C17 C -0.6494(4) -0.8586(3) 0.04730(19)
H12 H -0.5943 -0.8475 0.0946
C18 C -0.6369(3) -0.7900(3) -0.02019(17)
H13 H -0.5732 -0.7328 -0.0181
C19 C -0.1978(3) -0.7377(2) -0.35524(15)
C20 C -0.0735(3) -0.6859(3) -0.33207(19)
H14 H -0.0752 -0.6336 -0.2901
C21 C 0.0522(3) -0.7112(3) -0.3707(2)
H15 H 0.1341 -0.6755 -0.3549
C22 C 0.0569(4) -0.7882(3) -0.4319(2)
H16 H 0.1417 -0.8049 -0.4579
C23 C -0.0638(4) -0.8410(3) -0.4550(2)
H17 H -0.0602 -0.8942 -0.4962
C24 C -0.1911(3) -0.8160(3) -0.41766(17)
H18 H -0.2725 -0.8518 -0.4344
loop_
_geom_bond_atom_site_label_1
_geom_bond_atom_site_label_2
_geom_bond_site_symmetry_1
_geom_bond_site_symmetry_2
S1 C2 1_555 1_555
O1 C12 1_555 1_555
O2 C11 1_555 1_555
C1 H1 1_555 1_555
C2 C1 1_555 1_555
H2 C2 1_555 1_555
C3 S1 1_555 1_555
C4 C3 1_555 1_555
H3 C4 1_555 1_555
C5 C4 1_555 1_555
H4 C5 1_555 1_555
C6 C5 1_555 1_555
H5 C6 1_555 1_555
C7 C6 1_555 1_555
H6 C7 1_555 1_555
C8 C3 1_555 1_555
C9 C1 1_555 1_555
H7 C9 1_555 1_555
C10 C9 1_555 1_555
H8 C10 1_555 1_555
C11 C10 1_555 1_555
C12 O2 1_555 1_555
C13 C2 1_555 1_555
C14 C13 1_555 1_555
H9 C14 1_555 1_555
C15 C14 1_555 1_555
H10 C15 1_555 1_555
C16 C15 1_555 1_555
H11 C16 1_555 1_555
C17 C16 1_555 1_555
H12 C17 1_555 1_555
C18 C13 1_555 1_555
H13 C18 1_555 1_555
C19 C11 1_555 1_555
C20 C19 1_555 1_555
H14 C20 1_555 1_555
C21 C20 1_555 1_555
H15 C21 1_555 1_555
C22 C21 1_555 1_555
H16 C22 1_555 1_555
C23 C22 1_555 1_555
H17 C23 1_555 1_555
C24 C19 1_555 1_555
H18 C24 1_555 1_555
C1 C12 1_555 1_555
C7 C8 1_555 1_555
C8 C9 1_555 1_555
C17 C18 1_555 1_555
C23 C24 1_555 1_555

#END
