
#######################################################################
#
#                 Cambridge Crystallographic Data Centre
#                                CCDC 
#
#######################################################################
#
# If this CIF has been generated from an entry in the Cambridge 
# Structural Database, then it will include bibliographic, chemical, 
# crystal, experimental, refinement or atomic coordinate data resulting 
# from the CCDC's data processing and validation procedures.
#
#######################################################################

data_OGETIG
_chemical_name_common            
1,1,4,4-tetrakis(4-fluorophenyl)buta-1,2,3-triene
_chemical_formula_moiety         'C28 H16 F4'
_chemical_name_systematic        
1,1',1'',1'''-butatriene-1,1,4,4-tetrayltetrakis(4-fluorobenzene)
_symmetry_cell_setting           triclinic
_symmetry_space_group_name_H-M   'P -1'
_symmetry_Int_Tables_number      2
_space_group_name_Hall           '-P 1'
loop_
_symmetry_equiv_pos_site_id
_symmetry_equiv_pos_as_xyz
1 x,y,z
2 -x,-y,-z
_cell_length_a                   9.6393(9)
_cell_length_b                   9.6969(9)
_cell_length_c                   11.3130(11)
_cell_angle_alpha                78.132(2)
_cell_angle_beta                 77.374(2)
_cell_angle_gamma                78.525(2)
_cell_volume                     996.598
_exptl_crystal_colour            yellow
_exptl_crystal_description       block
_chemical_melting_point          '533 K'
_cell_formula_units_Z            2
_chemical_properties_physical    Photo-sensitive
_exptl_crystal_recrystallization_method 'dichloromethane / hexane'
loop_
_atom_site_label
_atom_site_type_symbol
_atom_site_fract_x
_atom_site_fract_y
_atom_site_fract_z
F1 F 0.01379(13) 1.12418(13) 0.89573(10)
F2 F 0.69122(14) 0.32347(13) 1.01219(10)
F3 F 1.02834(14) 0.41707(14) 0.11127(10)
F4 F 0.33901(13) 1.18693(12) -0.00578(10)
C1 C 0.08914(18) 1.07187(19) 0.79412(16)
C2 C 0.14773(18) 0.92815(19) 0.80534(17)
H1 H 0.1347 0.8669 0.8827
C3 C 0.22552(17) 0.87621(18) 0.70117(16)
H2 H 0.2651 0.7777 0.7072
C4 C 0.24730(17) 0.96621(17) 0.58661(15)
C5 C 0.34531(17) 0.91228(17) 0.48001(15)
C6 C 0.44535(18) 0.79682(19) 0.49838(15)
C7 C 0.53992(18) 0.69020(18) 0.51180(16)
C8 C 0.64263(17) 0.57515(18) 0.52811(16)
C9 C 0.62466(18) 0.59035(18) 0.74737(17)
H3 H 0.5938 0.6902 0.7274
C10 C 0.6364(2) 0.5302(2) 0.86738(17)
H4 H 0.6150 0.5876 0.9297
C11 C 0.68001(19) 0.3847(2) 0.89442(16)
C12 C 0.71174(19) 0.29743(18) 0.80709(16)
H5 H 0.7400 0.1973 0.8288
C13 C 0.70145(17) 0.35884(17) 0.68708(15)
H6 H 0.7245 0.3002 0.6256
C14 C 0.65759(17) 0.50605(17) 0.65444(15)
C15 C 0.9346(2) 0.45357(19) 0.21226(16)
C16 C 0.97691(18) 0.41221(19) 0.32449(16)
H7 H 1.0706 0.3611 0.3311
C17 C 0.87901(17) 0.44724(17) 0.42783(15)
H8 H 0.9058 0.4182 0.5063
C18 C 0.74110(17) 0.52486(16) 0.41869(15)
C19 C 0.70421(18) 0.56540(17) 0.30192(16)
H9 H 0.6116 0.6182 0.2938
C20 C 0.7999(2) 0.53005(19) 0.19837(16)
H10 H 0.7740 0.5576 0.1195
C21 C 0.10441(18) 1.16405(18) 0.68361(16)
H11 H 0.0616 1.2617 0.6784
C22 C 0.18406(17) 1.11061(17) 0.57990(16)
H12 H 0.1960 1.1729 0.5030
C23 C 0.34121(17) 0.98630(17) 0.35227(15)
C24 C 0.47048(18) 0.99351(17) 0.26687(16)
H13 H 0.5593 0.9514 0.2922
C25 C 0.47078(19) 1.06085(18) 0.14644(16)
H14 H 0.5586 1.0673 0.0894
C26 C 0.3398(2) 1.11854(18) 0.11143(16)
C27 C 0.20986(19) 1.11081(18) 0.19112(16)
H15 H 0.1215 1.1495 0.1638
C28 C 0.21117(18) 1.04530(18) 0.31196(16)
H16 H 0.1227 1.0403 0.3683
loop_
_geom_bond_atom_site_label_1
_geom_bond_atom_site_label_2
_geom_bond_site_symmetry_1
_geom_bond_site_symmetry_2
F1 C1 1_555 1_555
F2 C11 1_555 1_555
F3 C15 1_555 1_555
F4 C26 1_555 1_555
C1 C2 1_555 1_555
C2 H1 1_555 1_555
C3 C2 1_555 1_555
H2 C3 1_555 1_555
C4 C3 1_555 1_555
C5 C4 1_555 1_555
C6 C5 1_555 1_555
C7 C6 1_555 1_555
C8 C7 1_555 1_555
C9 H3 1_555 1_555
C10 C9 1_555 1_555
H4 C10 1_555 1_555
C11 C10 1_555 1_555
C12 C11 1_555 1_555
H5 C12 1_555 1_555
C13 C12 1_555 1_555
H6 C13 1_555 1_555
C14 C8 1_555 1_555
C15 C16 1_555 1_555
C16 H7 1_555 1_555
C17 C16 1_555 1_555
H8 C17 1_555 1_555
C18 C8 1_555 1_555
C19 C18 1_555 1_555
H9 C19 1_555 1_555
C20 C15 1_555 1_555
H10 C20 1_555 1_555
C21 C1 1_555 1_555
H11 C21 1_555 1_555
C22 C4 1_555 1_555
H12 C22 1_555 1_555
C23 C5 1_555 1_555
C24 C23 1_555 1_555
H13 C24 1_555 1_555
C25 C24 1_555 1_555
H14 C25 1_555 1_555
C26 C25 1_555 1_555
C27 C26 1_555 1_555
H15 C27 1_555 1_555
C28 C23 1_555 1_555
H16 C28 1_555 1_555
C9 C14 1_555 1_555
C13 C14 1_555 1_555
C17 C18 1_555 1_555
C19 C20 1_555 1_555
C21 C22 1_555 1_555
C27 C28 1_555 1_555

#END
