
#######################################################################
#
#                 Cambridge Crystallographic Data Centre
#                                CCDC 
#
#######################################################################
#
# If this CIF has been generated from an entry in the Cambridge 
# Structural Database, then it will include bibliographic, chemical, 
# crystal, experimental, refinement or atomic coordinate data resulting 
# from the CCDC's data processing and validation procedures.
#
#######################################################################

data_OGETOM
_chemical_formula_moiety         'C22 H17 Br1 F1 N1 O2 S1'
_chemical_name_systematic        
3-((4-bromophenyl)sulfonyl)-2a-fluoro-7b-phenyl-2,2a,3,7b-tetrahydro-1H-cyclobuta[b]indole
_symmetry_cell_setting           orthorhombic
_symmetry_space_group_name_H-M   'P 21 21 21'
_symmetry_Int_Tables_number      19
_space_group_name_Hall           'P 2ac 2ab'
loop_
_symmetry_equiv_pos_site_id
_symmetry_equiv_pos_as_xyz
1 x,y,z
2 1/2-x,-y,1/2+z
3 -x,1/2+y,1/2-z
4 1/2+x,1/2-y,-z
_cell_length_a                   10.0581(11)
_cell_length_b                   11.3410(12)
_cell_length_c                   17.3605(19)
_cell_angle_alpha                90
_cell_angle_beta                 90
_cell_angle_gamma                90
_cell_volume                     1980.29
_exptl_crystal_colour            colorless
_exptl_crystal_description       prismatic
_cell_formula_units_Z            4
loop_
_atom_site_label
_atom_site_type_symbol
_atom_site_fract_x
_atom_site_fract_y
_atom_site_fract_z
Br1 Br -0.39289(6) 0.62781(6) 0.10289(4)
S1 S 0.23526(12) 0.56345(10) 0.11685(7)
F1 F 0.1642(3) 0.3155(2) 0.18436(16)
N1 N 0.2711(4) 0.4275(3) 0.0932(2)
O1 O 0.2736(4) 0.5762(3) 0.19461(19)
O2 O 0.2911(3) 0.6367(3) 0.0594(2)
C1 C 0.2872(4) 0.3833(4) 0.0168(2)
C2 C 0.2666(5) 0.4405(5) -0.0526(3)
H1 H 0.2366 0.5181 -0.0544
C3 C 0.2925(6) 0.3771(6) -0.1190(3)
H2 H 0.2786 0.4125 -0.1667
C4 C 0.3381(6) 0.2637(6) -0.1163(4)
H3 H 0.3572 0.2237 -0.1617
C5 C 0.3557(6) 0.2089(5) -0.0468(4)
H4 H 0.3852 0.1312 -0.0450
C6 C 0.3303(5) 0.2680(4) 0.0196(3)
C7 C 0.3467(4) 0.2304(4) 0.1021(3)
C8 C 0.2840(5) 0.3334(4) 0.1493(3)
C9 C 0.4032(7) 0.3384(5) 0.2016(3)
H5 H 0.3915 0.2966 0.2499
H6 H 0.4369 0.4174 0.2102
C10 C 0.4803(6) 0.2686(5) 0.1405(4)
H7 H 0.5310 0.2033 0.1615
H8 H 0.5356 0.3175 0.1077
C11 C 0.2943(5) 0.1092(4) 0.1197(3)
C12 C 0.3710(6) 0.0209(4) 0.1526(3)
H9 H 0.4596 0.0358 0.1644
C13 C 0.3180(6) -0.0885(4) 0.1679(3)
H10 H 0.3711 -0.1470 0.1894
C14 C 0.1881(6) -0.1113(5) 0.1518(3)
H11 H 0.1517 -0.1843 0.1640
C15 C 0.1119(6) -0.0277(5) 0.1179(3)
H12 H 0.0240 -0.0442 0.1052
C16 C 0.1647(5) 0.0823(4) 0.1022(4)
H13 H 0.1112 0.1393 0.0793
C17 C 0.0616(5) 0.5783(4) 0.1122(3)
C18 C -0.0139(5) 0.5517(5) 0.1753(3)
H14 H 0.0262 0.5226 0.2197
C19 C -0.1489(5) 0.5680(5) 0.1730(3)
H15 H -0.2009 0.5507 0.2158
C20 C -0.2061(5) 0.6098(4) 0.1069(3)
C21 C -0.1321(5) 0.6363(4) 0.0436(3)
H16 H -0.1727 0.6647 -0.0008
C22 C 0.0020(5) 0.6206(5) 0.0459(3)
H17 H 0.0535 0.6384 0.0030
loop_
_geom_bond_atom_site_label_1
_geom_bond_atom_site_label_2
_geom_bond_site_symmetry_1
_geom_bond_site_symmetry_2
Br1 C20 1_555 1_555
S1 N1 1_555 1_555
F1 C8 1_555 1_555
N1 C1 1_555 1_555
O1 S1 1_555 1_555
O2 S1 1_555 1_555
C1 C2 1_555 1_555
C2 H1 1_555 1_555
C3 C2 1_555 1_555
H2 C3 1_555 1_555
C4 C3 1_555 1_555
H3 C4 1_555 1_555
C5 C4 1_555 1_555
H4 C5 1_555 1_555
C6 C1 1_555 1_555
C7 C6 1_555 1_555
C8 N1 1_555 1_555
C9 C8 1_555 1_555
H5 C9 1_555 1_555
H6 C9 1_555 1_555
C10 C7 1_555 1_555
H7 C10 1_555 1_555
H8 C10 1_555 1_555
C11 C7 1_555 1_555
C12 C11 1_555 1_555
H9 C12 1_555 1_555
C13 C12 1_555 1_555
H10 C13 1_555 1_555
C14 C13 1_555 1_555
H11 C14 1_555 1_555
C15 C14 1_555 1_555
H12 C15 1_555 1_555
C16 C11 1_555 1_555
H13 C16 1_555 1_555
C17 S1 1_555 1_555
C18 C17 1_555 1_555
H14 C18 1_555 1_555
C19 C18 1_555 1_555
H15 C19 1_555 1_555
C20 C19 1_555 1_555
C21 C20 1_555 1_555
H16 C21 1_555 1_555
C22 C17 1_555 1_555
H17 C22 1_555 1_555
C5 C6 1_555 1_555
C7 C8 1_555 1_555
C9 C10 1_555 1_555
C15 C16 1_555 1_555
C21 C22 1_555 1_555

#END
