
#######################################################################
#
#                 Cambridge Crystallographic Data Centre
#                                CCDC 
#
#######################################################################
#
# If this CIF has been generated from an entry in the Cambridge 
# Structural Database, then it will include bibliographic, chemical, 
# crystal, experimental, refinement or atomic coordinate data resulting 
# from the CCDC's data processing and validation procedures.
#
#######################################################################

data_OGILEX
_chemical_formula_moiety         'C50 H62 N10 O16,1.5(C1 H2 Cl2)'
_chemical_name_systematic        
"tetraethyl 1,13-bis((2,2-dimethylpropanoyl)amino)-4,10-dimethoxy-6,8,15,17-tetraoxo-5,9,14,18-tetrahydro-5a,6a,7a,8a,14a,15a,16a,17a-octaazabenzo[5,6]cyclohepta[1,2,3-cd]benzo[5'',6'']cyclohepta[1'',2'',3'':3',4']pentaleno[1',6':5,6,7]cycloocta[1,2,3-gh]pentalene-15b,15c,17b,17c-tetracarboxylate dichloromethane solvate"
_symmetry_cell_setting           monoclinic
_symmetry_space_group_name_H-M   'C 2/c'
_symmetry_Int_Tables_number      15
_space_group_name_Hall           '-C 2yn'
loop_
_symmetry_equiv_pos_site_id
_symmetry_equiv_pos_as_xyz
1 x,y,z
2 -x,y,1/2-z
3 1/2+x,1/2+y,z
4 1/2-x,1/2+y,1/2-z
5 -x,-y,-z
6 x,-y,1/2+z
7 1/2-x,1/2-y,-z
8 1/2+x,1/2-y,1/2+z
_cell_length_a                   45.618(5)
_cell_length_b                   15.6846(17)
_cell_length_c                   17.3131(19)
_cell_angle_alpha                90
_cell_angle_beta                 106.471(2)
_cell_angle_gamma                90
_cell_volume                     11879.2
_exptl_crystal_colour            colorless
_exptl_crystal_description       block
_cell_formula_units_Z            8
loop_
_atom_site_label
_atom_site_type_symbol
_atom_site_fract_x
_atom_site_fract_y
_atom_site_fract_z
C1 C 0.0579(2) 0.1510(10) -0.1492(11)
H1 H 0.0434 0.1130 -0.1366
H2 H 0.0472 0.1932 -0.1870
H3 H 0.0696 0.1787 -0.1009
C2 C 0.0637(2) 0.0774(7) -0.2722(5)
H4 H 0.0774 0.0411 -0.2901
H5 H 0.0596 0.1278 -0.3050
H6 H 0.0449 0.0476 -0.2766
C3 C 0.08812(19) 0.0172(5) -0.1395(7)
H7 H 0.0712 -0.0216 -0.1523
H8 H 0.0945 0.0275 -0.0825
H9 H 0.1048 -0.0070 -0.1557
C4 C 0.07835(9) 0.1025(3) -0.1845(3)
C5 C 0.10667(9) 0.1565(2) -0.1797(2)
C6 C 0.14978(8) 0.2311(2) -0.0850(2)
C7 C 0.17688(8) 0.2075(2) -0.02774(19)
C8 C 0.20017(7) 0.2685(2) 0.00044(19)
C9 C 0.19662(8) 0.3495(2) -0.0337(2)
C10 C 0.17052(9) 0.3704(2) -0.0935(2)
H10 H 0.1688 0.4236 -0.1179
C11 C 0.14700(9) 0.3129(2) -0.1172(2)
H11 H 0.1290 0.3289 -0.1553
C12 C 0.21406(11) 0.4929(2) -0.0061(3)
H12 H 0.2091 0.5138 -0.0604
H13 H 0.2316 0.5228 0.0265
H14 H 0.1970 0.5018 0.0150
C13 C 0.18196(8) 0.1171(2) 0.00405(19)
H15 H 0.1661 0.0808 -0.0290
H16 H 0.2014 0.0969 -0.0010
C14 C 0.22706(7) 0.2481(2) 0.07191(19)
H17 H 0.2389 0.2026 0.0575
H18 H 0.2401 0.2979 0.0855
C15 C 0.15509(7) 0.11410(18) 0.10869(18)
C16 C 0.21443(7) 0.27691(19) 0.20057(19)
C17 C 0.20746(7) 0.13630(18) 0.15193(18)
C18 C 0.23504(8) 0.07431(19) 0.1636(2)
C19 C 0.28633(9) 0.0512(2) 0.2412(3)
H19 H 0.2832 -0.0033 0.2640
H20 H 0.2923 0.0408 0.1925
C20 C 0.31025(12) 0.0987(4) 0.2988(4)
H21 H 0.3143 0.1507 0.2745
H22 H 0.3285 0.0649 0.3144
H23 H 0.3037 0.1117 0.3455
C21 C 0.19460(7) 0.14482(18) 0.22707(17)
C22 C 0.20843(7) 0.0793(2) 0.29378(19)
C23 C 0.21147(10) -0.0693(2) 0.3205(2)
H24 H 0.2065 -0.0594 0.3707
H25 H 0.2335 -0.0745 0.3322
C24 C 0.19647(12) -0.1478(3) 0.2820(3)
H26 H 0.1747 -0.1394 0.2647
H27 H 0.2013 -0.1940 0.3198
H28 H 0.2036 -0.1610 0.2362
C25 C 0.14069(7) 0.10521(18) 0.23449(19)
H29 H 0.1507 0.0631 0.2743
H30 H 0.1234 0.0775 0.1970
C26 C 0.19810(7) 0.2717(2) 0.32477(19)
H31 H 0.2081 0.2370 0.3711
H32 H 0.2083 0.3266 0.3316
C27 C 0.09850(7) 0.18781(18) 0.25840(19)
C28 C 0.15447(7) 0.36614(19) 0.32030(18)
C29 C 0.14681(7) 0.22095(18) 0.34405(18)
C30 C 0.16409(7) 0.1612(2) 0.41338(19)
C31 C 0.20133(10) 0.1546(3) 0.5395(2)
H33 H 0.1888 0.1312 0.5712
H34 H 0.2107 0.1076 0.5188
C32 C 0.22405(13) 0.2076(4) 0.5879(4)
H35 H 0.2353 0.2341 0.5552
H36 H 0.2377 0.1741 0.6291
H37 H 0.2147 0.2507 0.6123
C33 C 0.12137(7) 0.27756(18) 0.36506(18)
C34 C 0.12265(8) 0.2783(2) 0.4555(2)
C35 C 0.12063(10) 0.1915(2) 0.5660(2)
H38 H 0.1034 0.2164 0.5800
H39 H 0.1391 0.2197 0.5971
C36 C 0.12241(12) 0.0982(3) 0.5834(3)
H40 H 0.1035 0.0715 0.5546
H41 H 0.1260 0.0893 0.6402
H42 H 0.1389 0.0737 0.5666
C37 C 0.06491(7) 0.2898(2) 0.2987(2)
H43 H 0.0635 0.3164 0.3481
H44 H 0.0478 0.2509 0.2809
C38 C 0.10648(7) 0.43329(19) 0.3319(2)
H45 H 0.1176 0.4863 0.3341
H46 H 0.0977 0.4328 0.3768
C39 C 0.08102(7) 0.4299(2) 0.2541(2)
C40 C 0.06215(7) 0.3579(2) 0.2357(2)
C41 C 0.04119(8) 0.3505(2) 0.1592(2)
C42 C 0.03721(10) 0.4181(3) 0.1058(3)
H47 H 0.0227 0.4141 0.0558
C43 C 0.05437(10) 0.4906(3) 0.1255(3)
H48 H 0.0510 0.5362 0.0897
C44 C 0.07675(9) 0.4966(2) 0.1989(2)
C45 C 0.09456(16) 0.6306(3) 0.1632(3)
H49 H 0.1004 0.6068 0.1186
H50 H 0.1085 0.6753 0.1874
H51 H 0.0742 0.6534 0.1444
C46 C -0.00165(9) 0.2564(3) 0.0857(3)
C47 C -0.00811(10) 0.1644(3) 0.0585(3)
C48 C -0.00178(19) 0.1043(4) 0.1330(5)
H52 H -0.0141 0.1215 0.1669
H53 H 0.0194 0.1075 0.1627
H54 H -0.0068 0.0467 0.1153
C49 C 0.0131(2) 0.1389(7) 0.0094(8)
H55 H 0.0114 0.0787 -0.0008
H56 H 0.0338 0.1526 0.0387
H57 H 0.0076 0.1692 -0.0409
C50 C -0.04152(17) 0.1561(6) 0.0124(7)
H58 H -0.0468 0.0969 0.0045
H59 H -0.0452 0.1837 -0.0389
H60 H -0.0538 0.1826 0.0424
N1 N 0.12485(7) 0.1735(2) -0.10481(17)
H61 H 0.1209 0.1468 -0.0655
N2 N 0.18182(6) 0.10888(15) 0.08836(15)
N3 N 0.21759(6) 0.22219(15) 0.14211(15)
N4 N 0.16187(5) 0.13145(15) 0.19080(14)
N5 N 0.20244(5) 0.23149(15) 0.25346(15)
N6 N 0.12921(5) 0.17291(15) 0.27519(14)
N7 N 0.16674(5) 0.28461(15) 0.32482(15)
N8 N 0.09341(5) 0.24056(15) 0.31611(15)
N9 N 0.12778(6) 0.36153(15) 0.34012(16)
N10 N 0.02669(7) 0.2707(2) 0.1361(2)
H62 H 0.0370 0.2262 0.1565
O1 O 0.11309(8) 0.1828(2) -0.23912(17)
O2 O 0.22066(6) 0.40474(16) -0.00539(17)
O3 O 0.12973(5) 0.10367(15) 0.06372(14)
O4 O 0.22191(6) 0.35095(14) 0.20727(15)
O5 O 0.23459(6) 0.01238(16) 0.12385(17)
O6 O 0.25791(5) 0.10187(15) 0.22232(15)
O7 O 0.22348(6) 0.09618(16) 0.35990(15)
O8 O 0.20048(5) 0.00134(13) 0.26509(13)
O9 O 0.07869(5) 0.15627(14) 0.20248(14)
O10 O 0.16624(5) 0.42983(14) 0.30325(15)
O11 O 0.16065(6) 0.08551(15) 0.41216(15)
O12 O 0.18240(5) 0.20530(15) 0.47255(13)
O13 O 0.12896(8) 0.33969(17) 0.49726(16)
O14 O 0.11698(6) 0.20188(14) 0.47947(13)
O15 O 0.09531(7) 0.56578(16) 0.22117(17)
O16 O -0.02021(7) 0.3129(2) 0.0641(2)
C57 C 0.1366(10) 0.604(3) 0.617(3)
H81 H 0.1576 0.6234 0.6276
H82 H 0.1346 0.5771 0.6655
Cl1 Cl 0.11291(13) 0.6920(2) 0.5967(3)
Cl2 Cl 0.12947(10) 0.5305(2) 0.5418(2)
C59 C 0.0422(7) 0.410(2) 0.8612(19)
H85 H 0.0555 0.3755 0.9030
H86 H 0.0514 0.4140 0.8171
Cl5 Cl 0.04038(19) 0.5072(7) 0.8973(6)
Cl6 Cl 0.0035(4) 0.3552(10) 0.8233(10)
C51? C 0.0687(7) 0.100(2) -0.1058(16)
H63? H 0.0492 0.0721 -0.1159
H64? H 0.0672 0.1568 -0.0872
H65? H 0.0836 0.0686 -0.0655
C52? C 0.0520(7) 0.147(3) -0.249(2)
H66? H 0.0586 0.1602 -0.2954
H67? H 0.0463 0.1984 -0.2270
H68? H 0.0347 0.1093 -0.2644
C53? C 0.0845(7) 0.0160(18) -0.211(2)
H69? H 0.0803 -0.0256 -0.1747
H70? H 0.1055 0.0120 -0.2104
H71? H 0.0716 0.0057 -0.2644
C54? C 0.0173(9) 0.097(2) 0.079(3)
H72? H 0.0084 0.0412 0.0664
H73? H 0.0281 0.1000 0.1350
H74? H 0.0312 0.1072 0.0474
C55? C -0.0185(11) 0.174(3) -0.035(2)
H75? H -0.0013 0.1896 -0.0536
H76? H -0.0338 0.2182 -0.0500
H77? H -0.0269 0.1214 -0.0594
C56? C -0.0351(10) 0.132(3) 0.086(3)
H78? H -0.0297 0.1327 0.1441
H79? H -0.0398 0.0742 0.0677
H80? H -0.0525 0.1674 0.0647
C58? C 0.1105(7) 0.599(2) 0.535(2)
H83? H 0.1143 0.5750 0.4869
H84? H 0.1006 0.5566 0.5593
Cl3? Cl 0.0886(3) 0.6890(7) 0.5117(8)
Cl4? Cl 0.1442(3) 0.6331(12) 0.6018(6)
loop_
_geom_bond_atom_site_label_1
_geom_bond_atom_site_label_2
_geom_bond_site_symmetry_1
_geom_bond_site_symmetry_2
C1 H1 1_555 1_555
H2 C1 1_555 1_555
H3 C1 1_555 1_555
C2 H4 1_555 1_555
H5 C2 1_555 1_555
H6 C2 1_555 1_555
C3 H7 1_555 1_555
H8 C3 1_555 1_555
H9 C3 1_555 1_555
C4 C1 1_555 1_555
C5 C4 1_555 1_555
C6 C7 1_555 1_555
C7 C8 1_555 1_555
C8 C9 1_555 1_555
C9 C10 1_555 1_555
C10 H10 1_555 1_555
C11 C6 1_555 1_555
H11 C11 1_555 1_555
C12 H12 1_555 1_555
H13 C12 1_555 1_555
H14 C12 1_555 1_555
C13 C7 1_555 1_555
H15 C13 1_555 1_555
H16 C13 1_555 1_555
C14 C8 1_555 1_555
H17 C14 1_555 1_555
H18 C14 1_555 1_555
C15 N2 1_555 1_555
C16 N3 1_555 1_555
C17 C18 1_555 1_555
C18 O5 1_555 1_555
C19 H19 1_555 1_555
H20 C19 1_555 1_555
C20 C19 1_555 1_555
H21 C20 1_555 1_555
H22 C20 1_555 1_555
H23 C20 1_555 1_555
C21 C17 1_555 1_555
C22 C21 1_555 1_555
C23 H24 1_555 1_555
H25 C23 1_555 1_555
C24 C23 1_555 1_555
H26 C24 1_555 1_555
H27 C24 1_555 1_555
H28 C24 1_555 1_555
C25 H29 1_555 1_555
H30 C25 1_555 1_555
C26 H31 1_555 1_555
H32 C26 1_555 1_555
C27 N6 1_555 1_555
C28 N7 1_555 1_555
C29 C30 1_555 1_555
C30 O11 1_555 1_555
C31 H33 1_555 1_555
H34 C31 1_555 1_555
C32 C31 1_555 1_555
H35 C32 1_555 1_555
H36 C32 1_555 1_555
H37 C32 1_555 1_555
C33 C29 1_555 1_555
C34 C33 1_555 1_555
C35 H38 1_555 1_555
H39 C35 1_555 1_555
C36 C35 1_555 1_555
H40 C36 1_555 1_555
H41 C36 1_555 1_555
H42 C36 1_555 1_555
C37 H43 1_555 1_555
H44 C37 1_555 1_555
C38 H45 1_555 1_555
H46 C38 1_555 1_555
C39 C38 1_555 1_555
C40 C37 1_555 1_555
C41 C40 1_555 1_555
C42 C41 1_555 1_555
H47 C42 1_555 1_555
C43 C42 1_555 1_555
H48 C43 1_555 1_555
C44 C39 1_555 1_555
C45 H49 1_555 1_555
H50 C45 1_555 1_555
H51 C45 1_555 1_555
C46 C47 1_555 1_555
C47 C48 1_555 1_555
C48 H52 1_555 1_555
H53 C48 1_555 1_555
H54 C48 1_555 1_555
C49 C47 1_555 1_555
H55 C49 1_555 1_555
H56 C49 1_555 1_555
H57 C49 1_555 1_555
C50 C47 1_555 1_555
H58 C50 1_555 1_555
H59 C50 1_555 1_555
H60 C50 1_555 1_555
N1 C5 1_555 1_555
H61 N1 1_555 1_555
N2 C13 1_555 1_555
N3 C14 1_555 1_555
N4 C15 1_555 1_555
N5 C16 1_555 1_555
N6 C25 1_555 1_555
N7 C26 1_555 1_555
N8 C27 1_555 1_555
N9 C28 1_555 1_555
N10 C41 1_555 1_555
H62 N10 1_555 1_555
O1 C5 1_555 1_555
O2 C9 1_555 1_555
O3 C15 1_555 1_555
O4 C16 1_555 1_555
O6 C18 1_555 1_555
O7 C22 1_555 1_555
O8 C22 1_555 1_555
O9 C27 1_555 1_555
O10 C28 1_555 1_555
O12 C30 1_555 1_555
O13 C34 1_555 1_555
O14 C34 1_555 1_555
O15 C44 1_555 1_555
O16 C46 1_555 1_555
C57 H81 1_555 1_555
H82 C57 1_555 1_555
Cl1 C57 1_555 1_555
Cl2 C57 1_555 1_555
C59 H85 1_555 1_555
H86 C59 1_555 1_555
Cl5 C59 1_555 1_555
Cl6 C59 1_555 1_555
C2 C4 1_555 1_555
C3 C4 1_555 1_555
C6 N1 1_555 1_555
C10 C11 1_555 1_555
C12 O2 1_555 1_555
C17 N2 1_555 1_555
C17 N3 1_555 1_555
C19 O6 1_555 1_555
C21 N4 1_555 1_555
C21 N5 1_555 1_555
C23 O8 1_555 1_555
C25 N4 1_555 1_555
C26 N5 1_555 1_555
C29 N6 1_555 1_555
C29 N7 1_555 1_555
C31 O12 1_555 1_555
C33 N8 1_555 1_555
C33 N9 1_555 1_555
C35 O14 1_555 1_555
C37 N8 1_555 1_555
C38 N9 1_555 1_555
C39 C40 1_555 1_555
C43 C44 1_555 1_555
C45 O15 1_555 1_555
C46 N10 1_555 1_555

#END
