
#######################################################################
#
#                 Cambridge Crystallographic Data Centre
#                                CCDC 
#
#######################################################################
#
# If this CIF has been generated from an entry in the Cambridge 
# Structural Database, then it will include bibliographic, chemical, 
# crystal, experimental, refinement or atomic coordinate data resulting 
# from the CCDC's data processing and validation procedures.
#
#######################################################################

data_OGIZIP
_chemical_name_common            
3-(5-(bis(4-ethoxyphenyl)amino)-2-thienyl)-1-(pyridin-2-yl)prop-2-en-1-one
_chemical_formula_moiety         'C28 H26 N2 O3 S1'
_chemical_name_systematic        
(E)-3-(5-(bis(4-ethoxyphenyl)amino)thiophen-2-yl)-1-(pyridin-2-yl)prop-2-en-1-one
_symmetry_cell_setting           triclinic
_symmetry_space_group_name_H-M   'P -1'
_symmetry_Int_Tables_number      2
_space_group_name_Hall           '-P 1'
loop_
_symmetry_equiv_pos_site_id
_symmetry_equiv_pos_as_xyz
1 x,y,z
2 -x,-y,-z
_cell_length_a                   7.406(5)
_cell_length_b                   11.831(9)
_cell_length_c                   14.142(10)
_cell_angle_alpha                89.231(9)
_cell_angle_beta                 81.249(9)
_cell_angle_gamma                89.949(9)
_cell_volume                     1224.59
_exptl_crystal_colour            red
_exptl_crystal_description       block
_chemical_melting_point          '422 K'
_cell_formula_units_Z            2
_exptl_crystal_recrystallization_method acetonitrile
_exptl_crystal_preparation       Luminescent
loop_
_atom_site_label
_atom_site_type_symbol
_atom_site_fract_x
_atom_site_fract_y
_atom_site_fract_z
C1 C 1.2081(4) 1.0761(2) 0.03536(19)
H1 H 1.1944 1.0404 -0.0213
C2 C 1.3714(4) 1.1276(2) 0.0407(2)
H2 H 1.4659 1.1263 -0.0107
C3 C 1.3926(3) 1.1812(2) 0.1235(2)
H3 H 1.5019 1.2170 0.1294
C4 C 1.2500(3) 1.18101(19) 0.19752(17)
H4 H 1.2609 1.2172 0.2544
C5 C 1.0897(3) 1.12642(16) 0.18662(15)
C6 C 0.9339(3) 1.12513(17) 0.26772(16)
C7 C 0.7720(3) 1.05775(17) 0.26040(15)
H5 H 0.7687 1.0127 0.2073
C8 C 0.6283(3) 1.06088(17) 0.33014(15)
H6 H 0.6388 1.1115 0.3788
C9 C 0.4624(3) 0.99895(16) 0.34137(14)
C10 C 0.3237(3) 1.00406(18) 0.41691(15)
H7 H 0.3244 1.0542 0.4669
C11 C 0.1808(3) 0.92818(18) 0.41322(16)
H8 H 0.0779 0.9229 0.4598
C12 C 0.2089(3) 0.86251(16) 0.33357(14)
N1 N 0.0999(2) 0.77635(14) 0.31114(11)
C13 C 0.1414(2) 0.71388(16) 0.22482(13)
C14 C 0.1462(3) 0.76564(17) 0.13591(14)
H9 H 0.1252 0.8429 0.1317
C15 C 0.1819(3) 0.70299(17) 0.05400(14)
H10 H 0.1863 0.7385 -0.0054
C16 C 0.2112(2) 0.58771(16) 0.05894(14)
C17 C 0.2035(3) 0.53558(17) 0.14765(14)
H11 H 0.2207 0.4579 0.1521
C18 C 0.1701(3) 0.59915(17) 0.22920(14)
H12 H 0.1668 0.5638 0.2886
C19 C 0.2743(3) 0.41339(18) -0.02255(15)
H13 H 0.1688 0.3761 0.0137
H14 H 0.3797 0.3975 0.0086
C20 C 0.3062(3) 0.3710(2) -0.12283(16)
H15 H 0.2013 0.3873 -0.1531
H16 H 0.3259 0.2908 -0.1219
H17 H 0.4117 0.4076 -0.1579
C21 C -0.0496(3) 0.73825(16) 0.38117(14)
C22 C -0.2242(3) 0.74974(18) 0.36305(16)
H18 H -0.2460 0.7831 0.3060
C23 C -0.3685(4) 0.7121(2) 0.4290(2)
H19 H -0.4873 0.7199 0.4160
C24 C -0.3386(6) 0.6632(3) 0.5134(3)
C25 C -0.1637(7) 0.6533(3) 0.5311(2)
H20 H -0.1422 0.6212 0.5887
C26 C -0.0188(4) 0.6895(2) 0.46609(18)
H21 H 0.0999 0.6813 0.4792
O1 O -0.4308(6) 0.6153(3) 0.5971(3)
C27 C -0.6207(8) 0.6211(5) 0.5892(6)
H22 H -0.6460 0.5750 0.5365
H23 H -0.6546 0.6985 0.5769
C28 C -0.7290(13) 0.5784(10) 0.6817(9)
H24 H -0.6986 0.5007 0.6918
H25 H -0.8571 0.5845 0.6784
H26 H -0.7001 0.6228 0.7337
N2 N 1.0672(3) 1.07392(16) 0.10655(14)
O2 O 0.9477(2) 1.18154(15) 0.33832(12)
O3 O 0.2439(2) 0.53286(12) -0.02616(9)
S1 S 0.41248(7) 0.89669(4) 0.26128(4)
C29? C -0.5442(13) 0.6034(6) 0.6496(5)
H27? H -0.4993 0.6617 0.6877
H28? H -0.4686 0.5367 0.6515
O4? O -0.5403(8) 0.6426(4) 0.5522(3)
C30? C -0.741(2) 0.576(2) 0.6873(18)
H29? H -0.8157 0.6406 0.6786
H30? H -0.7527 0.5572 0.7542
H31? H -0.7795 0.5132 0.6532
loop_
_geom_bond_atom_site_label_1
_geom_bond_atom_site_label_2
_geom_bond_site_symmetry_1
_geom_bond_site_symmetry_2
C1 H1 1_555 1_555
C2 C1 1_555 1_555
H2 C2 1_555 1_555
C3 C2 1_555 1_555
H3 C3 1_555 1_555
C4 C3 1_555 1_555
H4 C4 1_555 1_555
C5 C4 1_555 1_555
C6 C5 1_555 1_555
C7 C6 1_555 1_555
H5 C7 1_555 1_555
C8 C7 1_555 1_555
H6 C8 1_555 1_555
C9 C8 1_555 1_555
C10 C9 1_555 1_555
H7 C10 1_555 1_555
C11 C10 1_555 1_555
H8 C11 1_555 1_555
C12 C11 1_555 1_555
N1 C12 1_555 1_555
C13 N1 1_555 1_555
C14 C13 1_555 1_555
H9 C14 1_555 1_555
C15 C14 1_555 1_555
H10 C15 1_555 1_555
C16 C15 1_555 1_555
C17 C16 1_555 1_555
H11 C17 1_555 1_555
C18 C13 1_555 1_555
H12 C18 1_555 1_555
C19 H13 1_555 1_555
H14 C19 1_555 1_555
C20 C19 1_555 1_555
H15 C20 1_555 1_555
H16 C20 1_555 1_555
H17 C20 1_555 1_555
C21 N1 1_555 1_555
C22 C21 1_555 1_555
H18 C22 1_555 1_555
C23 C22 1_555 1_555
H19 C23 1_555 1_555
C24 C23 1_555 1_555
C25 C24 1_555 1_555
H20 C25 1_555 1_555
C26 C21 1_555 1_555
H21 C26 1_555 1_555
O1 C24 1_555 1_555
C27 O1 1_555 1_555
H22 C27 1_555 1_555
H23 C27 1_555 1_555
C28 C27 1_555 1_555
H24 C28 1_555 1_555
H25 C28 1_555 1_555
H26 C28 1_555 1_555
N2 C1 1_555 1_555
O2 C6 1_555 1_555
O3 C16 1_555 1_555
S1 C9 1_555 1_555
C5 N2 1_555 1_555
C12 S1 1_555 1_555
C17 C18 1_555 1_555
C19 O3 1_555 1_555
C25 C26 1_555 1_555

#END
