
#######################################################################
#
#                 Cambridge Crystallographic Data Centre
#                                CCDC 
#
#######################################################################
#
# If this CIF has been generated from an entry in the Cambridge 
# Structural Database, then it will include bibliographic, chemical, 
# crystal, experimental, refinement or atomic coordinate data resulting 
# from the CCDC's data processing and validation procedures.
#
#######################################################################

data_OGOHEZ
_chemical_formula_moiety         'C56 H36'
_chemical_name_systematic        
2,15-bis(diphenylmethylene)pentacyclo[21.3.1.1^3,7^.1^10,14^.1^16,20^]triaconta-1(27),3(30),4,6,10(29),11,13,16(28),17,19,23,25-dodecaene-8,21-diyne
_symmetry_cell_setting           orthorhombic
_symmetry_space_group_name_H-M   'P b c a'
_symmetry_Int_Tables_number      61
_space_group_name_Hall           '-P 2ac 2ab'
loop_
_symmetry_equiv_pos_site_id
_symmetry_equiv_pos_as_xyz
1 x,y,z
2 1/2+x,1/2-y,-z
3 -x,1/2+y,1/2-z
4 1/2-x,-y,1/2+z
5 -x,-y,-z
6 1/2-x,1/2+y,z
7 x,1/2-y,1/2+z
8 1/2+x,y,1/2-z
_cell_length_a                   18.21402(17)
_cell_length_b                   11.26108(9)
_cell_length_c                   39.5676(4)
_cell_angle_alpha                90
_cell_angle_beta                 90
_cell_angle_gamma                90
_cell_volume                     8115.69
_cell_formula_units_Z            8
loop_
_atom_site_label
_atom_site_type_symbol
_atom_site_fract_x
_atom_site_fract_y
_atom_site_fract_z
C1 C 0.70241(5) 0.88418(8) 0.32035(2)
C2 C 0.66917(5) 0.92390(8) 0.48776(2)
C3 C 0.61623(5) 0.84975(8) 0.50742(2)
C4 C 0.69471(5) 0.88448(8) 0.45643(2)
C5 C 0.62295(5) 0.90045(8) 0.26914(2)
C6 C 0.48495(5) 0.81452(9) 0.40012(3)
C7 C 0.61780(5) 0.84156(8) 0.54155(2)
C8 C 0.53878(5) 0.88582(8) 0.31878(2)
C9 C 0.68243(5) 0.88263(8) 0.56167(2)
C10 C 0.68814(5) 0.88090(8) 0.21416(2)
C11 C 0.53409(5) 0.82835(8) 0.45699(2)
C12 C 0.68331(5) 0.84128(8) 0.28842(2)
C13 C 0.54271(5) 1.07052(8) 0.28855(2)
C14 C 0.76237(5) 0.87006(8) 0.37477(2)
C15 C 0.75402(5) 0.82671(9) 0.34083(2)
C16 C 0.50355(5) 0.75795(9) 0.43148(2)
C17 C 0.56447(5) 0.95163(8) 0.29137(2)
C18 C 0.62210(5) 0.91102(8) 0.23497(2)
C19 C 0.74055(6) 0.95336(9) 0.43609(2)
C20 C 0.68382(6) 0.79625(9) 0.18840(3)
C21 C 0.48241(5) 0.87089(9) 0.37431(2)
C22 C 0.48574(6) 0.91227(9) 0.22401(3)
C23 C 0.56433(6) 1.03292(9) 0.18924(3)
C24 C 0.74651(7) 0.76121(10) 0.17095(3)
C25 C 0.56663(5) 0.77725(8) 0.48543(2)
C26 C 0.49517(5) 0.93729(8) 0.34391(2)
C27 C 0.75752(5) 0.91096(9) 0.40276(2)
C28 C 0.79018(6) 0.72602(9) 0.32846(3)
C29 C 0.57768(6) 0.71611(9) 0.59027(3)
C30 C 0.55632(6) 0.95264(8) 0.21603(2)
C31 C 0.50181(6) 0.63419(9) 0.43544(3)
C32 C 0.71874(5) 0.73825(8) 0.27692(2)
C33 C 0.55911(5) 0.78439(8) 0.56200(2)
C34 C 0.49766(6) 1.12125(9) 0.31302(3)
C35 C 0.56355(6) 0.65368(9) 0.48919(3)
C36 C 0.52384(6) 0.66464(9) 0.61033(3)
C37 C 0.69102(7) 1.03702(10) 0.49847(3)
C38 C 0.47436(6) 1.05636(9) 0.34085(3)
C39 C 0.67671(6) 0.97258(10) 0.58572(3)
C40 C 0.81819(6) 0.90033(11) 0.20294(3)
C41 C 0.75579(6) 0.93393(9) 0.22078(3)
C42 C 0.74910(6) 0.82419(11) 0.55802(3)
C43 C 0.48449(6) 0.80096(10) 0.55465(3)
C44 C 0.81374(6) 0.81283(10) 0.17830(3)
C45 C 0.45015(6) 0.68085(10) 0.60264(3)
C46 C 0.73782(7) 1.00555(12) 0.60468(3)
C47 C 0.77211(6) 0.68334(9) 0.29660(3)
C48 C 0.50318(7) 1.07301(10) 0.17147(3)
C49 C 0.43353(7) 1.03282(11) 0.17983(3)
C50 C 0.53076(6) 0.58347(9) 0.46445(3)
C51 C 0.76312(8) 1.06452(11) 0.44766(3)
C52 C 0.80384(7) 0.94751(12) 0.60061(3)
C53 C 0.73764(9) 1.10544(11) 0.47868(3)
C54 C 0.42484(6) 0.95193(11) 0.20601(3)
C55 C 0.43069(6) 0.74964(11) 0.57483(3)
C56 C 0.80927(7) 0.85575(14) 0.57761(4)
H1 H 0.6782(7) 0.8066(12) 0.4477(3)
H2 H 0.6788(7) 0.9522(12) 0.3289(3)
H3 H 0.5561(8) 0.8044(13) 0.3218(3)
H4 H 0.5617(8) 1.1190(13) 0.2697(3)
H5 H 0.5883(8) 0.6148(13) 0.5086(3)
H6 H 0.5306(8) 0.4969(14) 0.4673(4)
H7 H 0.6298(8) 0.7051(13) 0.5963(3)
H8 H 0.6130(8) 1.0593(13) 0.1835(4)
H9 H 0.7959(8) 0.6074(13) 0.2876(3)
H10 H 0.4826(7) 0.5822(12) 0.4171(3)
H11 H 0.7065(8) 0.7026(13) 0.2557(4)
H12 H 0.5376(7) 0.9133(12) 0.4530(3)
H13 H 0.4120(9) 0.6425(13) 0.6161(3)
H14 H 0.7580(8) 0.9959(13) 0.2389(4)
H15 H 0.4862(8) 1.2077(13) 0.3108(4)
H16 H 0.4806(7) 0.8534(13) 0.2422(3)
H17 H 0.5385(8) 0.6159(12) 0.6304(3)
H18 H 0.7537(9) 0.7572(15) 0.5418(4)
H19 H 0.3797(8) 0.7628(13) 0.5700(4)
H20 H 0.4706(8) 0.8489(13) 0.5353(4)
H21 H 0.8283(8) 0.6835(13) 0.3422(3)
H22 H 0.7954(9) 1.1153(14) 0.4335(4)
H23 H 0.6319(9) 1.0144(15) 0.5890(4)
H24 H 0.6733(9) 1.0700(14) 0.5197(4)
H25 H 0.8636(9) 0.9416(14) 0.2076(4)
H26 H 0.8486(9) 0.9694(16) 0.6148(4)
H27 H 0.3759(9) 0.9237(14) 0.2110(4)
H28 H 0.7410(9) 0.6994(14) 0.1525(4)
H29 H 0.8587(9) 0.7871(14) 0.1661(4)
H30 H 0.5092(9) 1.1304(16) 0.1521(4)
H31 H 0.3907(9) 1.0629(16) 0.1676(4)
H32 H 0.7540(10) 1.1856(17) 0.4863(5)
H33 H 0.7317(9) 1.0703(16) 0.6215(4)
H34 H 0.8574(12) 0.8137(18) 0.5746(5)
H35 H 0.44456(6) 1.09248(9) 0.35766(3)
H36 H 0.63766(6) 0.76234(9) 0.18275(3)
loop_
_geom_bond_atom_site_label_1
_geom_bond_atom_site_label_2
_geom_bond_site_symmetry_1
_geom_bond_site_symmetry_2
C1 C12 1_555 1_555
C2 C3 1_555 1_555
C3 C7 1_555 1_555
C4 C2 1_555 1_555
C5 C12 1_555 1_555
C6 C16 1_555 1_555
C7 C9 1_555 1_555
C8 C17 1_555 1_555
C9 C39 1_555 1_555
C10 C18 1_555 1_555
C11 C16 1_555 1_555
C12 C32 1_555 1_555
C13 C17 1_555 1_555
C14 C15 1_555 1_555
C15 C1 1_555 1_555
C16 C31 1_555 1_555
C17 C5 1_555 1_555
C18 C5 1_555 1_555
C19 C4 1_555 1_555
C20 C10 1_555 1_555
C21 C6 1_555 1_555
C22 C30 1_555 1_555
C23 C30 1_555 1_555
C24 C20 1_555 1_555
C25 C3 1_555 1_555
C26 C8 1_555 1_555
C27 C14 1_555 1_555
C28 C15 1_555 1_555
C29 C33 1_555 1_555
C30 C18 1_555 1_555
C31 C50 1_555 1_555
C32 C47 1_555 1_555
C33 C7 1_555 1_555
C34 C13 1_555 1_555
C35 C25 1_555 1_555
C36 C29 1_555 1_555
C37 C2 1_555 1_555
C38 C26 1_555 1_555
C39 C46 1_555 1_555
C40 C41 1_555 1_555
C41 C10 1_555 1_555
C42 C9 1_555 1_555
C43 C33 1_555 1_555
C44 C24 1_555 1_555
C45 C36 1_555 1_555
C46 C52 1_555 1_555
C47 C28 1_555 1_555
C48 C23 1_555 1_555
C49 C48 1_555 1_555
C50 C35 1_555 1_555
C51 C19 1_555 1_555
C52 C56 1_555 1_555
C53 C37 1_555 1_555
C54 C22 1_555 1_555
C55 C43 1_555 1_555
C56 C42 1_555 1_555
H1 C4 1_555 1_555
H2 C1 1_555 1_555
H3 C8 1_555 1_555
H4 C13 1_555 1_555
H5 C35 1_555 1_555
H6 C50 1_555 1_555
H7 C29 1_555 1_555
H8 C23 1_555 1_555
H9 C47 1_555 1_555
H10 C31 1_555 1_555
H11 C32 1_555 1_555
H12 C11 1_555 1_555
H13 C45 1_555 1_555
H14 C41 1_555 1_555
H15 C34 1_555 1_555
H16 C22 1_555 1_555
H17 C36 1_555 1_555
H18 C42 1_555 1_555
H19 C55 1_555 1_555
H20 C43 1_555 1_555
H21 C28 1_555 1_555
H22 C51 1_555 1_555
H23 C39 1_555 1_555
H24 C37 1_555 1_555
H25 C40 1_555 1_555
H26 C52 1_555 1_555
H27 C54 1_555 1_555
H28 C24 1_555 1_555
H29 C44 1_555 1_555
H30 C48 1_555 1_555
H31 C49 1_555 1_555
H32 C53 1_555 1_555
H33 C46 1_555 1_555
H34 C56 1_555 1_555
H35 C38 1_555 1_555
H36 C20 1_555 1_555
C11 C25 1_555 1_555
C19 C27 1_555 1_555
C21 C26 1_555 1_555
C34 C38 1_555 1_555
C40 C44 1_555 1_555
C45 C55 1_555 1_555
C49 C54 1_555 1_555
C51 C53 1_555 1_555

#END
