
#######################################################################
#
#                 Cambridge Crystallographic Data Centre
#                                CCDC 
#
#######################################################################
#
# If this CIF has been generated from an entry in the Cambridge 
# Structural Database, then it will include bibliographic, chemical, 
# crystal, experimental, refinement or atomic coordinate data resulting 
# from the CCDC's data processing and validation procedures.
#
#######################################################################

data_OGOQIK03
_chemical_formula_moiety         'C6 H4 N3 S4'
_chemical_name_systematic        
"4-Methyl-4H-bis[1,2,3]dithiazolo[4,5-b:5',4'-e]pyridin-3-yl radical"
_symmetry_cell_setting           orthorhombic
_symmetry_space_group_name_H-M   'P 21 21 21'
_symmetry_Int_Tables_number      19
_space_group_name_Hall           'P 2ac 2ab'
loop_
_symmetry_equiv_pos_site_id
_symmetry_equiv_pos_as_xyz
1 x,y,z
2 1/2-x,-y,1/2+z
3 -x,1/2+y,1/2-z
4 1/2+x,1/2-y,-z
_cell_length_a                   3.8984(6)
_cell_length_b                   11.8295(18)
_cell_length_c                   18.231(3)
_cell_angle_alpha                90
_cell_angle_beta                 90
_cell_angle_gamma                90
_cell_volume                     840.743
_exptl_crystal_colour            red
_exptl_crystal_description       needle
_cell_formula_units_Z            4
loop_
_atom_site_label
_atom_site_type_symbol
_atom_site_fract_x
_atom_site_fract_y
_atom_site_fract_z
S1 S 0.2286(3) -0.17693(8) 0.94178(5)
S2 S 0.1611(3) -0.05382(9) 1.02409(6)
S3 S 0.8526(3) -0.02956(8) 0.68486(6)
S4 S 1.0290(3) 0.13839(8) 0.68493(6)
N1 N 0.3434(9) 0.0551(3) 0.98123(18)
N2 N 0.6266(9) 0.1136(3) 0.87521(18)
N3 N 0.9069(8) 0.1732(3) 0.76965(17)
C1 C 0.4236(10) -0.0790(3) 0.8836(2)
C2 C 0.5297(10) -0.1014(3) 0.8125(2)
H1 H 0.4910 -0.1734 0.7909
C3 C 0.6750(13) 0.2258(3) 0.9077(2)
H2 H 0.7953 0.2747 0.8727
H3 H 0.8112 0.2191 0.9527
H4 H 0.4510 0.2588 0.9194
C4 C 0.6948(11) -0.0159(3) 0.7736(2)
C5 C 0.7491(10) 0.0937(3) 0.8055(2)
C6 C 0.4582(10) 0.0302(3) 0.9159(2)
loop_
_geom_bond_atom_site_label_1
_geom_bond_atom_site_label_2
_geom_bond_site_symmetry_1
_geom_bond_site_symmetry_2
S1 S2 1_555 1_555
S2 N1 1_555 1_555
S3 S4 1_555 1_555
S4 N3 1_555 1_555
N1 C6 1_555 1_555
N2 C3 1_555 1_555
N3 C5 1_555 1_555
C1 S1 1_555 1_555
C2 C1 1_555 1_555
H1 C2 1_555 1_555
C3 H2 1_555 1_555
H3 C3 1_555 1_555
H4 C3 1_555 1_555
C4 S3 1_555 1_555
C5 N2 1_555 1_555
C6 N2 1_555 1_555
C1 C6 1_555 1_555
C2 C4 1_555 1_555
C4 C5 1_555 1_555

#END
