
#######################################################################
#
#                 Cambridge Crystallographic Data Centre
#                                CCDC 
#
#######################################################################
#
# If this CIF has been generated from an entry in the Cambridge 
# Structural Database, then it will include bibliographic, chemical, 
# crystal, experimental, refinement or atomic coordinate data resulting 
# from the CCDC's data processing and validation procedures.
#
#######################################################################

data_OGOXEO
_chemical_formula_moiety         'C25 H24 Br2 N6,0.5(C1 H1 Cl3)'
_chemical_name_systematic        
"2,2'-Pentane-3,3-diylbis(5-((4-bromophenyl)diazenyl)-1H-pyrrole) chloroform solvate"
_symmetry_cell_setting           triclinic
_symmetry_space_group_name_H-M   'P -1'
_symmetry_Int_Tables_number      2
_space_group_name_Hall           '-P 1'
loop_
_symmetry_equiv_pos_site_id
_symmetry_equiv_pos_as_xyz
1 x,y,z
2 -x,-y,-z
_cell_length_a                   12.2064(19)
_cell_length_b                   14.770(2)
_cell_length_c                   17.428(3)
_cell_angle_alpha                97.289(4)
_cell_angle_beta                 103.462(3)
_cell_angle_gamma                107.880(3)
_cell_volume                     2840.59
_exptl_crystal_colour            orange
_exptl_crystal_description       block
_cell_formula_units_Z            4
_exptl_crystal_recrystallization_method chloroform/methanol
loop_
_atom_site_label
_atom_site_type_symbol
_atom_site_fract_x
_atom_site_fract_y
_atom_site_fract_z
Br1 Br 0.17957(10) -0.11576(7) 0.04653(7)
Br2 Br 0.88804(10) 0.96688(10) 0.16665(8)
N1 N 0.1403(4) 0.4138(4) 0.3066(3)
H1 H 0.1063 0.4007 0.2554
N2 N 0.2151(5) 0.2782(4) 0.3118(4)
N3 N 0.1827(5) 0.2613(4) 0.2350(4)
N4 N 0.2208(5) 0.6408(4) 0.2656(3)
H2 H 0.2827 0.6428 0.3024
N5 N 0.3245(5) 0.7324(4) 0.1800(3)
N6 N 0.4231(5) 0.7297(4) 0.2245(3)
C1 C 0.1448(6) 0.1491(5) 0.1122(5)
H5 H 0.1188 0.1925 0.0851
C2 C 0.1432(6) 0.0643(5) 0.0684(5)
H6 H 0.1165 0.0508 0.0123
C3 C 0.1809(6) 0.0000(5) 0.1073(6)
C4 C 0.2213(7) 0.0179(6) 0.1905(6)
H7 H 0.2465 -0.0266 0.2164
C5 C 0.2233(6) 0.1043(6) 0.2351(5)
H8 H 0.2507 0.1177 0.2912
C6 C 0.1843(5) 0.1711(5) 0.1956(4)
C7 C 0.2013(6) 0.3611(5) 0.3459(4)
C8 C 0.2425(7) 0.4058(6) 0.4270(4)
H9 H 0.2858 0.3857 0.4685
C9 C 0.2072(7) 0.4860(6) 0.4345(4)
H10 H 0.2251 0.5305 0.4824
C10 C 0.1412(6) 0.4897(5) 0.3600(4)
C11 C 0.0712(6) 0.5536(5) 0.3340(4)
C12 C -0.0635(6) 0.4929(6) 0.3064(5)
H11 H -0.1080 0.5358 0.2929
H12 H -0.0799 0.4456 0.2574
C13 C -0.1114(8) 0.4387(8) 0.3676(5)
H13 H -0.0656 0.3982 0.3837
H14 H -0.1943 0.3989 0.3435
H15 H -0.1041 0.4849 0.4142
C14 C 0.1006(7) 0.6394(6) 0.4068(5)
H16 H 0.0750 0.6126 0.4504
H17 H 0.1870 0.6723 0.4261
C15 C 0.0412(10) 0.7149(8) 0.3872(6)
H18 H 0.0681 0.7438 0.3455
H19 H 0.0629 0.7647 0.4348
H20 H -0.0446 0.6835 0.3690
C16 C 0.1035(6) 0.5963(5) 0.2642(4)
C17 C 0.0329(7) 0.6084(6) 0.1954(5)
H21 H -0.0507 0.5846 0.1788
C18 C 0.1050(7) 0.6613(6) 0.1548(5)
H22 H 0.0791 0.6798 0.1067
C19 C 0.2243(6) 0.6820(5) 0.1990(4)
C20 C 0.5284(6) 0.7871(5) 0.2067(4)
C21 C 0.5291(7) 0.8458(5) 0.1505(4)
H23 H 0.4570 0.8494 0.1211
C22 C 0.6354(8) 0.8988(6) 0.1379(5)
H24 H 0.6354 0.9378 0.1000
C23 C 0.7419(8) 0.8933(6) 0.1822(6)
C24 C 0.7435(7) 0.8370(6) 0.2390(6)
H25 H 0.8157 0.8343 0.2690
C25 C 0.6357(7) 0.7842(6) 0.2511(5)
H26 H 0.6361 0.7462 0.2898
Br3 Br -0.52358(7) 0.10198(7) 0.12045(8)
Br4 Br 0.41917(14) 0.99236(8) 0.66393(7)
N7 N 0.2158(4) 0.4135(3) 0.1304(3)
H3 H 0.2113 0.3790 0.1665
N8 N 0.0015(4) 0.3817(4) 0.0754(3)
N9 N -0.0139(4) 0.3389(4) 0.1330(3)
N10 N 0.4570(4) 0.5549(4) 0.2881(3)
H4 H 0.4331 0.5979 0.2674
N11 N 0.4961(5) 0.6259(4) 0.4315(3)
N12 N 0.4476(5) 0.6858(4) 0.4081(3)
C26 C -0.2346(6) 0.2888(5) 0.0678(4)
H27 H -0.2238 0.3276 0.0301
C27 C -0.3492(6) 0.2326(5) 0.0663(5)
H28 H -0.4154 0.2316 0.0264
C28 C -0.3651(6) 0.1781(5) 0.1239(5)
C29 C -0.2699(7) 0.1749(6) 0.1828(5)
H29 H -0.2820 0.1370 0.2209
C30 C -0.1560(6) 0.2301(6) 0.1831(5)
H30 H -0.0904 0.2296 0.2226
C31 C -0.1354(5) 0.2873(4) 0.1257(4)
C32 C 0.1187(5) 0.4249(5) 0.0777(4)
C33 C 0.1644(6) 0.4861(5) 0.0310(4)
H31 H 0.1201 0.5068 -0.0096
C34 C 0.2876(5) 0.5117(5) 0.0548(4)
H32 H 0.3406 0.5533 0.0332
C35 C 0.3193(5) 0.4656(4) 0.1157(3)
C36 C 0.4380(5) 0.4545(4) 0.1544(4)
C37 C 0.4291(6) 0.3488(5) 0.1236(4)
H33 H 0.5074 0.3435 0.1437
H34 H 0.3740 0.3054 0.1463
C38 C 0.3863(7) 0.3141(5) 0.0311(4)
H35 H 0.3094 0.3201 0.0104
H36 H 0.3795 0.2472 0.0171
H37 H 0.4434 0.3533 0.0082
C39 C 0.5383(5) 0.5293(5) 0.1312(4)
H38 H 0.5231 0.5138 0.0730
H39 H 0.5340 0.5935 0.1456
C40 C 0.6663(6) 0.5328(6) 0.1717(5)
H40 H 0.6833 0.5500 0.2293
H41 H 0.7232 0.5804 0.1543
H42 H 0.6722 0.4700 0.1568
C41 C 0.4642(5) 0.4740(5) 0.2455(4)
C42 C 0.5068(6) 0.4247(5) 0.3011(4)
H43 H 0.5205 0.3667 0.2890
C43 C 0.5255(7) 0.4765(5) 0.3779(4)
H44 H 0.5541 0.4595 0.4262
C44 C 0.4945(6) 0.5570(5) 0.3701(4)
C45 C 0.4491(6) 0.7581(5) 0.4719(4)
C46 C 0.4014(7) 0.8277(6) 0.4484(5)
H45 H 0.3753 0.8279 0.3939
C47 C 0.3927(8) 0.8964(6) 0.5056(6)
H46 H 0.3607 0.9429 0.4896
C48 C 0.4311(9) 0.8963(6) 0.5857(6)
C49 C 0.4799(8) 0.8305(7) 0.6108(5)
H47 H 0.5067 0.8323 0.6657
C50 C 0.4899(7) 0.7610(6) 0.5548(5)
H48 H 0.5237 0.7159 0.5720
Cl1 Cl 0.8077(6) 0.8296(6) 0.4730(4)
Cl2 Cl 1.0238(6) 0.8847(6) 0.5939(4)
Cl3 Cl 0.8787(7) 0.9987(5) 0.5960(4)
C51 C 0.8799(16) 0.8790(12) 0.5685(11)
H49 H 0.8387 0.8388 0.6011
loop_
_geom_bond_atom_site_label_1
_geom_bond_atom_site_label_2
_geom_bond_site_symmetry_1
_geom_bond_site_symmetry_2
Br1 C3 1_555 1_555
Br2 C23 1_555 1_555
Br3 C28 1_555 1_555
Br4 C48 1_555 1_555
N1 H1 1_555 1_555
N2 N3 1_555 1_555
N3 C6 1_555 1_555
N4 H2 1_555 1_555
N5 N6 1_555 1_555
N6 C20 1_555 1_555
N7 H3 1_555 1_555
N8 N9 1_555 1_555
N9 C31 1_555 1_555
N10 H4 1_555 1_555
N11 N12 1_555 1_555
N12 C45 1_555 1_555
C1 H5 1_555 1_555
C2 C1 1_555 1_555
H6 C2 1_555 1_555
C3 C2 1_555 1_555
C4 C3 1_555 1_555
H7 C4 1_555 1_555
C5 C4 1_555 1_555
H8 C5 1_555 1_555
C6 C1 1_555 1_555
C7 N1 1_555 1_555
C8 C7 1_555 1_555
H9 C8 1_555 1_555
C9 C8 1_555 1_555
H10 C9 1_555 1_555
C10 N1 1_555 1_555
C11 C10 1_555 1_555
C12 C11 1_555 1_555
H11 C12 1_555 1_555
H12 C12 1_555 1_555
C13 C12 1_555 1_555
H13 C13 1_555 1_555
H14 C13 1_555 1_555
H15 C13 1_555 1_555
C14 C11 1_555 1_555
H16 C14 1_555 1_555
H17 C14 1_555 1_555
C15 C14 1_555 1_555
H18 C15 1_555 1_555
H19 C15 1_555 1_555
H20 C15 1_555 1_555
C16 N4 1_555 1_555
C17 C16 1_555 1_555
H21 C17 1_555 1_555
C18 C17 1_555 1_555
H22 C18 1_555 1_555
C19 N4 1_555 1_555
C20 C21 1_555 1_555
C21 H23 1_555 1_555
C22 C21 1_555 1_555
H24 C22 1_555 1_555
C23 C22 1_555 1_555
C24 C23 1_555 1_555
H25 C24 1_555 1_555
C25 C20 1_555 1_555
H26 C25 1_555 1_555
C26 H27 1_555 1_555
C27 C26 1_555 1_555
H28 C27 1_555 1_555
C28 C27 1_555 1_555
C29 C28 1_555 1_555
H29 C29 1_555 1_555
C30 C29 1_555 1_555
H30 C30 1_555 1_555
C31 C26 1_555 1_555
C32 N7 1_555 1_555
C33 C32 1_555 1_555
H31 C33 1_555 1_555
C34 C33 1_555 1_555
H32 C34 1_555 1_555
C35 N7 1_555 1_555
C36 C35 1_555 1_555
C37 C36 1_555 1_555
H33 C37 1_555 1_555
H34 C37 1_555 1_555
C38 C37 1_555 1_555
H35 C38 1_555 1_555
H36 C38 1_555 1_555
H37 C38 1_555 1_555
C39 C36 1_555 1_555
H38 C39 1_555 1_555
H39 C39 1_555 1_555
C40 C39 1_555 1_555
H40 C40 1_555 1_555
H41 C40 1_555 1_555
H42 C40 1_555 1_555
C41 N10 1_555 1_555
C42 C41 1_555 1_555
H43 C42 1_555 1_555
C43 C42 1_555 1_555
H44 C43 1_555 1_555
C44 N10 1_555 1_555
C45 C46 1_555 1_555
C46 H45 1_555 1_555
C47 C46 1_555 1_555
H46 C47 1_555 1_555
C48 C47 1_555 1_555
C49 C48 1_555 1_555
H47 C49 1_555 1_555
C50 C45 1_555 1_555
H48 C50 1_555 1_555
Cl1 C51 1_555 1_555
Cl2 C51 1_555 1_555
Cl3 C51 1_555 1_555
C51 H49 1_555 1_555
N2 C7 1_555 1_555
N5 C19 1_555 1_555
N8 C32 1_555 1_555
N11 C44 1_555 1_555
C5 C6 1_555 1_555
C9 C10 1_555 1_555
C11 C16 1_555 1_555
C18 C19 1_555 1_555
C24 C25 1_555 1_555
C30 C31 1_555 1_555
C34 C35 1_555 1_555
C36 C41 1_555 1_555
C43 C44 1_555 1_555
C49 C50 1_555 1_555

#END
