
#######################################################################
#
#                 Cambridge Crystallographic Data Centre
#                                CCDC 
#
#######################################################################
#
# If this CIF has been generated from an entry in the Cambridge 
# Structural Database, then it will include bibliographic, chemical, 
# crystal, experimental, refinement or atomic coordinate data resulting 
# from the CCDC's data processing and validation procedures.
#
#######################################################################

data_OGOXIS
_chemical_formula_moiety         'C25 H24 Cl2 N6,0.5(C1 H1 Cl3)'
_chemical_name_systematic        
"2,2'-Pentane-3,3-diylbis(5-((4-chlorophenyl)diazenyl)-1H-pyrrole) chloroform solvate"
_symmetry_cell_setting           triclinic
_symmetry_space_group_name_H-M   'P -1'
_symmetry_Int_Tables_number      2
_space_group_name_Hall           '-P 1'
loop_
_symmetry_equiv_pos_site_id
_symmetry_equiv_pos_as_xyz
1 x,y,z
2 -x,-y,-z
_cell_length_a                   12.100(5)
_cell_length_b                   14.317(5)
_cell_length_c                   17.195(6)
_cell_angle_alpha                96.321(4)
_cell_angle_beta                 103.106(4)
_cell_angle_gamma                108.281(6)
_cell_volume                     2701.36
_exptl_crystal_colour            red
_exptl_crystal_description       block
_cell_formula_units_Z            4
_exptl_crystal_recrystallization_method chloroform/methanol
loop_
_atom_site_label
_atom_site_type_symbol
_atom_site_fract_x
_atom_site_fract_y
_atom_site_fract_z
Cl1 Cl 0.31386(13) 1.61569(9) 0.46009(9)
Cl2 Cl -0.39369(12) 0.51677(12) 0.33091(9)
N1 N 0.3610(3) 1.0920(2) 0.1940(2)
H1 H 0.3964 1.1051 0.2467
N2 N 0.2866(3) 1.2322(3) 0.1895(2)
N3 N 0.3202(3) 1.2485(3) 0.2681(2)
N4 N 0.2752(3) 0.8544(2) 0.2345(2)
H2 H 0.2115 0.8520 0.1963
N5 N 0.1691(3) 0.7590(3) 0.3229(2)
N6 N 0.0696(3) 0.7633(3) 0.2792(2)
C1 C 0.3556(4) 1.3567(3) 0.3933(3)
H5 H 0.3821 1.3092 0.4193
C2 C 0.3549(4) 1.4408(3) 0.4398(3)
H6 H 0.3798 1.4515 0.4976
C3 C 0.3170(4) 1.5103(3) 0.4007(3)
C4 C 0.2806(4) 1.4963(3) 0.3161(3)
H7 H 0.2561 1.5448 0.2904
C5 C 0.2807(4) 1.4104(3) 0.2699(3)
H8 H 0.2556 1.3997 0.2121
C6 C 0.3178(4) 1.3397(3) 0.3083(3)
C7 C 0.2999(4) 1.1478(3) 0.1538(2)
C8 C 0.2562(4) 1.1021(4) 0.0714(3)
H9 H 0.2118 1.1243 0.0290
C9 C 0.2902(4) 1.0172(3) 0.0631(2)
H10 H 0.2705 0.9702 0.0141
C10 C 0.3582(4) 1.0138(3) 0.1398(2)
C11 C 0.4288(4) 0.9461(3) 0.1647(2)
C12 C 0.5664(4) 1.0092(4) 0.1926(3)
H11 H 0.5833 1.0581 0.2430
H12 H 0.6121 0.9639 0.2060
C13 C 0.6128(5) 1.0656(5) 0.1303(3)
H13 H 0.6018 1.0177 0.0814
H14 H 0.6990 1.1055 0.1533
H15 H 0.5675 1.1102 0.1160
C14 C 0.3986(4) 0.8592(4) 0.0912(3)
H16 H 0.3096 0.8250 0.0721
H17 H 0.4248 0.8887 0.0461
C15 C 0.4569(6) 0.7810(4) 0.1091(4)
H18 H 0.5453 0.8129 0.1245
H19 H 0.4308 0.7283 0.0604
H20 H 0.4323 0.7514 0.1539
C16 C 0.3936(4) 0.9011(3) 0.2359(2)
C17 C 0.4668(4) 0.8889(3) 0.3072(3)
H21 H 0.5528 0.9146 0.3245
C18 C 0.3910(4) 0.8323(4) 0.3482(3)
H22 H 0.4162 0.8119 0.3979
C19 C 0.2719(4) 0.8110(3) 0.3032(3)
C20 C -0.0367(4) 0.7034(3) 0.2960(2)
C21 C -0.0386(4) 0.6407(3) 0.3535(3)
H23 H 0.0351 0.6370 0.3846
C22 C -0.1472(4) 0.5845(3) 0.3647(3)
H24 H -0.1487 0.5421 0.4036
C23 C -0.2556(4) 0.5901(4) 0.3185(3)
C24 C -0.2555(4) 0.6507(4) 0.2608(3)
H25 H -0.3295 0.6533 0.2292
C25 C -0.1463(4) 0.7073(3) 0.2499(3)
H26 H -0.1455 0.7492 0.2107
Cl3 Cl 1.02142(10) 0.39361(9) 0.36631(9)
Cl4 Cl 0.08235(17) -0.49808(10) -0.16112(9)
N7 N 0.2848(3) 0.0889(2) 0.36951(19)
H3 H 0.2898 0.1250 0.3314
N8 N 0.5017(3) 0.1220(3) 0.4258(2)
N9 N 0.5183(3) 0.1648(2) 0.3650(2)
N10 N 0.0416(3) -0.0580(2) 0.21119(19)
H4 H 0.0662 -0.1031 0.2334
N11 N 0.0025(3) -0.1317(3) 0.0666(2)
N12 N 0.0530(3) -0.1942(3) 0.0907(2)
C26 C 0.7401(4) 0.2181(3) 0.4310(3)
H27 H 0.7278 0.1826 0.4736
C27 C 0.8571(4) 0.2728(3) 0.4291(3)
H28 H 0.9249 0.2742 0.4705
C28 C 0.8748(4) 0.3249(3) 0.3674(3)
C29 C 0.7774(4) 0.3239(3) 0.3058(3)
H29 H 0.7904 0.3597 0.2634
C30 C 0.6607(4) 0.2698(3) 0.3073(3)
H30 H 0.5933 0.2690 0.2658
C31 C 0.6416(4) 0.2166(3) 0.3693(2)
C32 C 0.3825(4) 0.0777(3) 0.4229(2)
C33 C 0.3368(4) 0.0139(3) 0.4729(3)
H31 H 0.3828 -0.0069 0.5156
C34 C 0.2103(4) -0.0136(3) 0.4484(2)
H32 H 0.1548 -0.0578 0.4708
C35 C 0.1802(3) 0.0353(3) 0.3851(2)
C36 C 0.0601(3) 0.0453(3) 0.3448(2)
C37 C 0.0700(4) 0.1554(3) 0.3748(2)
H33 H 0.1258 0.2005 0.3495
H34 H -0.0107 0.1610 0.3549
C38 C 0.1147(4) 0.1924(3) 0.4668(3)
H35 H 0.0580 0.1508 0.4925
H36 H 0.1198 0.2623 0.4797
H37 H 0.1950 0.1880 0.4874
C39 C -0.0424(3) -0.0310(3) 0.3699(2)
H38 H -0.0372 -0.0984 0.3578
H39 H -0.0282 -0.0130 0.4295
C40 C -0.1708(4) -0.0365(4) 0.3277(3)
H40 H -0.1790 0.0287 0.3421
H41 H -0.2296 -0.0879 0.3454
H42 H -0.1860 -0.0538 0.2686
C41 C 0.0346(3) 0.0255(3) 0.2530(2)
C42 C -0.0061(4) 0.0778(3) 0.1961(2)
H43 H -0.0178 0.1399 0.2082
C43 C -0.0271(4) 0.0240(3) 0.1183(3)
H44 H -0.0567 0.0419 0.0682
C44 C 0.0035(4) -0.0610(3) 0.1275(2)
C45 C 0.0514(4) -0.2673(3) 0.0262(3)
C46 C 0.0036(4) -0.2719(4) -0.0571(3)
H45 H -0.0359 -0.2267 -0.0740
C47 C 0.0136(5) -0.3418(4) -0.1149(3)
H46 H -0.0176 -0.3442 -0.1713
C48 C 0.0701(5) -0.4086(4) -0.0891(3)
C49 C 0.1152(5) -0.4067(4) -0.0065(3)
H47 H 0.1521 -0.4534 0.0103
C50 C 0.1054(4) -0.3362(3) 0.0503(3)
H48 H 0.1359 -0.3345 0.1067
C51 C 0.3912(10) 0.3914(7) 0.0750(6)
H49 H 0.3461 0.3490 0.1081
Cl5 Cl 0.3957(3) 0.51393(19) 0.10320(17)
Cl6 Cl 0.3123(3) 0.3420(2) -0.02826(17)
Cl7 Cl 0.5378(3) 0.3858(2) 0.09695(17)
loop_
_geom_bond_atom_site_label_1
_geom_bond_atom_site_label_2
_geom_bond_site_symmetry_1
_geom_bond_site_symmetry_2
Cl1 C3 1_555 1_555
Cl2 C23 1_555 1_555
Cl3 C28 1_555 1_555
Cl4 C48 1_555 1_555
N1 H1 1_555 1_555
N2 N3 1_555 1_555
N3 C6 1_555 1_555
N4 H2 1_555 1_555
N5 N6 1_555 1_555
N6 C20 1_555 1_555
N7 H3 1_555 1_555
N8 N9 1_555 1_555
N9 C31 1_555 1_555
N10 H4 1_555 1_555
N11 N12 1_555 1_555
N12 C45 1_555 1_555
C1 H5 1_555 1_555
C2 C1 1_555 1_555
H6 C2 1_555 1_555
C3 C2 1_555 1_555
C4 C3 1_555 1_555
H7 C4 1_555 1_555
C5 C4 1_555 1_555
H8 C5 1_555 1_555
C6 C1 1_555 1_555
C7 N1 1_555 1_555
C8 C7 1_555 1_555
H9 C8 1_555 1_555
C9 C8 1_555 1_555
H10 C9 1_555 1_555
C10 N1 1_555 1_555
C11 C10 1_555 1_555
C12 C11 1_555 1_555
H11 C12 1_555 1_555
H12 C12 1_555 1_555
C13 C12 1_555 1_555
H13 C13 1_555 1_555
H14 C13 1_555 1_555
H15 C13 1_555 1_555
C14 C11 1_555 1_555
H16 C14 1_555 1_555
H17 C14 1_555 1_555
C15 C14 1_555 1_555
H18 C15 1_555 1_555
H19 C15 1_555 1_555
H20 C15 1_555 1_555
C16 N4 1_555 1_555
C17 C16 1_555 1_555
H21 C17 1_555 1_555
C18 C17 1_555 1_555
H22 C18 1_555 1_555
C19 N4 1_555 1_555
C20 C21 1_555 1_555
C21 H23 1_555 1_555
C22 C21 1_555 1_555
H24 C22 1_555 1_555
C23 C22 1_555 1_555
C24 C23 1_555 1_555
H25 C24 1_555 1_555
C25 C20 1_555 1_555
H26 C25 1_555 1_555
C26 H27 1_555 1_555
C27 C26 1_555 1_555
H28 C27 1_555 1_555
C28 C27 1_555 1_555
C29 C28 1_555 1_555
H29 C29 1_555 1_555
C30 C29 1_555 1_555
H30 C30 1_555 1_555
C31 C26 1_555 1_555
C32 N7 1_555 1_555
C33 C32 1_555 1_555
H31 C33 1_555 1_555
C34 C33 1_555 1_555
H32 C34 1_555 1_555
C35 N7 1_555 1_555
C36 C35 1_555 1_555
C37 C36 1_555 1_555
H33 C37 1_555 1_555
H34 C37 1_555 1_555
C38 C37 1_555 1_555
H35 C38 1_555 1_555
H36 C38 1_555 1_555
H37 C38 1_555 1_555
C39 C36 1_555 1_555
H38 C39 1_555 1_555
H39 C39 1_555 1_555
C40 C39 1_555 1_555
H40 C40 1_555 1_555
H41 C40 1_555 1_555
H42 C40 1_555 1_555
C41 N10 1_555 1_555
C42 C41 1_555 1_555
H43 C42 1_555 1_555
C43 C42 1_555 1_555
H44 C43 1_555 1_555
C44 N10 1_555 1_555
C45 C46 1_555 1_555
C46 H45 1_555 1_555
C47 C46 1_555 1_555
H46 C47 1_555 1_555
C48 C47 1_555 1_555
C49 C48 1_555 1_555
H47 C49 1_555 1_555
C50 C45 1_555 1_555
H48 C50 1_555 1_555
C51 H49 1_555 1_555
Cl5 C51 1_555 1_555
Cl6 C51 1_555 1_555
Cl7 C51 1_555 1_555
N2 C7 1_555 1_555
N5 C19 1_555 1_555
N8 C32 1_555 1_555
N11 C44 1_555 1_555
C5 C6 1_555 1_555
C9 C10 1_555 1_555
C11 C16 1_555 1_555
C18 C19 1_555 1_555
C24 C25 1_555 1_555
C30 C31 1_555 1_555
C34 C35 1_555 1_555
C36 C41 1_555 1_555
C43 C44 1_555 1_555
C49 C50 1_555 1_555

#END
