
#######################################################################
#
#                 Cambridge Crystallographic Data Centre
#                                CCDC 
#
#######################################################################
#
# If this CIF has been generated from an entry in the Cambridge 
# Structural Database, then it will include bibliographic, chemical, 
# crystal, experimental, refinement or atomic coordinate data resulting 
# from the CCDC's data processing and validation procedures.
#
#######################################################################

data_OGUMIO
_chemical_compound_source        
'Isolated from the fungus Gliomastix sp. ZSDS1-F7-2 from the marine sponge Phakellia fusca Thiele.'
_chemical_name_common            
5,8-dihydroxy-14-pentyloxacyclotetradec-3-en-2-one
_chemical_formula_moiety         'C18 H32 O4'
_chemical_name_systematic        'gliomasolide A'
_symmetry_cell_setting           monoclinic
_symmetry_space_group_name_H-M   'P 21'
_symmetry_Int_Tables_number      4
_space_group_name_Hall           'P 2yb'
loop_
_symmetry_equiv_pos_site_id
_symmetry_equiv_pos_as_xyz
1 x,y,z
2 -x,1/2+y,-z
_cell_length_a                   5.42511(18)
_cell_length_b                   7.6161(2)
_cell_length_c                   21.7672(8)
_cell_angle_alpha                90
_cell_angle_beta                 91.546(3)
_cell_angle_gamma                90
_cell_volume                     899.054
_exptl_crystal_colour            colorless
_exptl_crystal_description       plate
_chemical_melting_point          '361-363 K'
_cell_formula_units_Z            2
_exptl_crystal_recrystallization_method dichloromethane/methanol
loop_
_atom_site_label
_atom_site_type_symbol
_atom_site_fract_x
_atom_site_fract_y
_atom_site_fract_z
O1 O 0.4447(3) 0.4013(2) 0.24258(6)
O2 O 0.0417(3) 0.4076(3) 0.26479(7)
O3 O 0.8656(3) 0.3333(2) 0.44810(7)
H1 H 0.8379 0.2248 0.4488
O4 O 0.8486(3) 0.9771(2) 0.45522(7)
H2 H 0.9338 0.9448 0.4860
C1 C 0.2563(4) 0.3925(3) 0.28051(10)
C2 C 0.3383(4) 0.3726(3) 0.34562(9)
H3 H 0.2206 0.3384 0.3749
C3 C 0.5690(4) 0.4006(3) 0.36479(9)
H4 H 0.6938 0.4055 0.3350
C4 C 0.6427(4) 0.4250(3) 0.43133(9)
H5 H 0.5062 0.3840 0.4578
C5 C 0.6935(4) 0.6214(3) 0.44364(9)
H6 H 0.5501 0.6910 0.4285
H7 H 0.7120 0.6406 0.4885
C6 C 0.9271(4) 0.6871(3) 0.41223(10)
H8 H 1.0731 0.6549 0.4381
H9 H 0.9413 0.6264 0.3723
C7 C 0.9295(4) 0.8851(3) 0.40130(9)
H10 H 1.1022 0.9220 0.3929
C8 C 0.7631(4) 0.9416(3) 0.34744(10)
H11 H 0.7320 1.0693 0.3505
H12 H 0.6026 0.8807 0.3502
C9 C 0.8720(4) 0.9020(3) 0.28497(9)
H13 H 0.9255 0.7778 0.2839
H14 H 1.0190 0.9767 0.2793
C10 C 0.6842(4) 0.9357(3) 0.23203(9)
H15 H 0.5952 1.0465 0.2401
H16 H 0.7739 0.9509 0.1934
C11 C 0.4964(4) 0.7874(3) 0.22352(10)
H17 H 0.4603 0.7377 0.2643
H18 H 0.3411 0.8371 0.2061
C12 C 0.5814(4) 0.6394(3) 0.18178(9)
H19 H 0.5927 0.6844 0.1393
H20 H 0.7481 0.6007 0.1955
C13 C 0.4070(4) 0.4821(3) 0.18193(10)
H21 H 0.2327 0.5238 0.1772
C14 C 0.4571(4) 0.3432(3) 0.13364(10)
H22 H 0.4680 0.4008 0.0930
H23 H 0.6184 0.2876 0.1433
C15 C 0.2598(4) 0.2016(3) 0.12985(10)
H24 H 0.0992 0.2568 0.1191
H25 H 0.2457 0.1462 0.1708
C16 C 0.3136(4) 0.0593(3) 0.08257(11)
H26 H 0.3336 0.1152 0.0420
H27 H 0.4715 0.0014 0.0942
C17 C 0.1127(4) -0.0795(4) 0.07704(10)
H28 H -0.0459 -0.0212 0.0665
H29 H 0.0956 -0.1373 0.1174
C18 C 0.1625(5) -0.2199(4) 0.02873(13)
H30 H 0.1660 -0.1652 -0.0120
H31 H 0.0317 -0.3085 0.0292
H32 H 0.3219 -0.2758 0.0380
loop_
_geom_bond_atom_site_label_1
_geom_bond_atom_site_label_2
_geom_bond_site_symmetry_1
_geom_bond_site_symmetry_2
O1 C1 1_555 1_555
O2 C1 1_555 1_555
O3 H1 1_555 1_555
O4 H2 1_555 1_555
C1 C2 1_555 1_555
C2 H3 1_555 1_555
C3 C2 1_555 1_555
H4 C3 1_555 1_555
C4 O3 1_555 1_555
H5 C4 1_555 1_555
C5 C4 1_555 1_555
H6 C5 1_555 1_555
H7 C5 1_555 1_555
C6 C5 1_555 1_555
H8 C6 1_555 1_555
H9 C6 1_555 1_555
C7 O4 1_555 1_555
H10 C7 1_555 1_555
C8 C7 1_555 1_555
H11 C8 1_555 1_555
H12 C8 1_555 1_555
C9 C8 1_555 1_555
H13 C9 1_555 1_555
H14 C9 1_555 1_555
C10 C9 1_555 1_555
H15 C10 1_555 1_555
H16 C10 1_555 1_555
C11 C10 1_555 1_555
H17 C11 1_555 1_555
H18 C11 1_555 1_555
C12 C11 1_555 1_555
H19 C12 1_555 1_555
H20 C12 1_555 1_555
C13 O1 1_555 1_555
H21 C13 1_555 1_555
C14 C13 1_555 1_555
H22 C14 1_555 1_555
H23 C14 1_555 1_555
C15 C14 1_555 1_555
H24 C15 1_555 1_555
H25 C15 1_555 1_555
C16 C15 1_555 1_555
H26 C16 1_555 1_555
H27 C16 1_555 1_555
C17 C16 1_555 1_555
H28 C17 1_555 1_555
H29 C17 1_555 1_555
C18 C17 1_555 1_555
H30 C18 1_555 1_555
H31 C18 1_555 1_555
H32 C18 1_555 1_555
C3 C4 1_555 1_555
C6 C7 1_555 1_555
C12 C13 1_555 1_555

#END
