
#######################################################################
#
#                 Cambridge Crystallographic Data Centre
#                                CCDC 
#
#######################################################################
#
# If this CIF has been generated from an entry in the Cambridge 
# Structural Database, then it will include bibliographic, chemical, 
# crystal, experimental, refinement or atomic coordinate data resulting 
# from the CCDC's data processing and validation procedures.
#
#######################################################################

data_OGUVAP
_chemical_formula_moiety         'C8 H10 N1 O1 P1'
_chemical_name_systematic        N-(4-methylphenyl)phosphinecarboxamide
_symmetry_cell_setting           orthorhombic
_symmetry_space_group_name_H-M   'P b c a'
_symmetry_Int_Tables_number      61
_space_group_name_Hall           '-P 2ac 2ab'
loop_
_symmetry_equiv_pos_site_id
_symmetry_equiv_pos_as_xyz
1 x,y,z
2 1/2-x,-y,1/2+z
3 1/2+x,1/2-y,-z
4 -x,1/2+y,1/2-z
5 -x,-y,-z
6 1/2+x,y,1/2-z
7 1/2-x,1/2+y,z
8 x,1/2-y,1/2+z
_cell_length_a                   9.5745(8)
_cell_length_b                   9.3757(8)
_cell_length_c                   19.5140(18)
_cell_angle_alpha                90
_cell_angle_beta                 90
_cell_angle_gamma                90
_cell_volume                     1751.73
_exptl_crystal_colour            'light colorless'
_exptl_crystal_description       block
_cell_formula_units_Z            8
loop_
_atom_site_label
_atom_site_type_symbol
_atom_site_fract_x
_atom_site_fract_y
_atom_site_fract_z
P1 P 0.24109(15) 0.15606(16) 0.31776(7)
N1 N 0.2689(4) -0.0174(4) 0.20635(18)
H1 H 0.3521 0.0155 0.2115
C1 C 0.2431(5) -0.3215(5) 0.0475(2)
C2 C 0.2534(4) -0.1209(4) 0.1536(2)
C3 C 0.1231(5) -0.2633(5) 0.0746(2)
H2 H 0.0371 -0.2920 0.0573
O1 O 0.0502(4) 0.0086(4) 0.24587(15)
C4 C 0.3753(4) -0.1788(4) 0.1277(2)
H3 H 0.4612 -0.1514 0.1457
C5 C 0.3694(5) -0.2780(5) 0.0748(2)
H4 H 0.4520 -0.3158 0.0575
C6 C 0.1268(4) -0.1629(4) 0.1270(2)
H5 H 0.0442 -0.1244 0.1440
C7 C 0.1754(5) 0.0351(5) 0.2481(2)
C8 C 0.2362(6) -0.4256(6) -0.0115(3)
H6 H 0.1453 -0.4687 -0.0130
H7 H 0.3057 -0.4984 -0.0054
H8 H 0.2533 -0.3760 -0.0537
H9 H 0.348(7) 0.200(6) 0.290(3)
H10 H 0.155(7) 0.242(7) 0.306(3)
loop_
_geom_bond_atom_site_label_1
_geom_bond_atom_site_label_2
_geom_bond_site_symmetry_1
_geom_bond_site_symmetry_2
P1 C7 1_555 1_555
N1 H1 1_555 1_555
C1 C3 1_555 1_555
C2 N1 1_555 1_555
C3 H2 1_555 1_555
O1 C7 1_555 1_555
C4 C2 1_555 1_555
H3 C4 1_555 1_555
C5 C1 1_555 1_555
H4 C5 1_555 1_555
C6 C2 1_555 1_555
H5 C6 1_555 1_555
C7 N1 1_555 1_555
C8 C1 1_555 1_555
H6 C8 1_555 1_555
H7 C8 1_555 1_555
H8 C8 1_555 1_555
H9 P1 1_555 1_555
H10 P1 1_555 1_555
C3 C6 1_555 1_555
C4 C5 1_555 1_555

#END
