
#######################################################################
#
#                 Cambridge Crystallographic Data Centre
#                                CCDC 
#
#######################################################################
#
# If this CIF has been generated from an entry in the Cambridge 
# Structural Database, then it will include bibliographic, chemical, 
# crystal, experimental, refinement or atomic coordinate data resulting 
# from the CCDC's data processing and validation procedures.
#
#######################################################################

data_OGUXAR
_chemical_formula_moiety         'C19 H22 N2 O3 S1,0.53(H2 O1)'
_chemical_name_systematic        
'(2R,3S)-cis-1-((4-Methylphenyl)sulfonyl)-2-phenylpiperidine-3-carboxamide hydrate'
_symmetry_cell_setting           monoclinic
_symmetry_space_group_name_H-M   'P 21'
_symmetry_Int_Tables_number      4
_space_group_name_Hall           'P 2yb'
loop_
_symmetry_equiv_pos_site_id
_symmetry_equiv_pos_as_xyz
1 x,y,z
2 -x,1/2+y,-z
_cell_length_a                   9.5068(3)
_cell_length_b                   10.2375(3)
_cell_length_c                   10.5226(3)
_cell_angle_alpha                90
_cell_angle_beta                 114.558(4)
_cell_angle_gamma                90
_cell_volume                     931.48
_exptl_crystal_colour            colorless
_exptl_crystal_description       block
_chemical_melting_point          '182.0-184.0 deg.C'
_cell_formula_units_Z            2
loop_
_atom_site_label
_atom_site_type_symbol
_atom_site_fract_x
_atom_site_fract_y
_atom_site_fract_z
O1 O 0.8400(7) 0.1476(6) 0.2595(6)
H1 H 0.764(8) 0.133(9) 0.182(5)
H2 H 0.881(10) 0.218(5) 0.252(8)
S1 S 1.10025(9) 0.43721(8) 0.17167(8)
O2 O 1.1900(3) 0.3920(2) 0.0982(3)
O3 O 1.0671(3) 0.3473(2) 0.2606(3)
O4 O 0.4492(3) 0.6155(2) -0.0189(3)
N1 N 0.9344(3) 0.4839(3) 0.0522(3)
N2 N 0.4667(3) 0.4014(3) 0.0369(4)
C1 C 0.8004(4) 0.4880(4) 0.0911(4)
H3 H 0.8013 0.4021 0.1366
C2 C 0.6500(4) 0.4885(4) -0.0460(4)
H4 H 0.6398 0.3998 -0.0886
C3 C 0.6502(4) 0.5869(4) -0.1546(4)
H5 H 0.6540 0.6767 -0.1184
H6 H 0.5539 0.5778 -0.2409
C4 C 0.7898(4) 0.5636(4) -0.1877(4)
H7 H 0.7904 0.6289 -0.2568
H8 H 0.7823 0.4757 -0.2293
C5 C 0.9398(4) 0.5738(4) -0.0558(3)
H9 H 1.0285 0.5511 -0.0777
H10 H 0.9540 0.6647 -0.0203
C6 C 1.2041(4) 0.5700(4) 0.2758(4)
C7 C 1.3097(4) 0.6366(4) 0.2391(4)
H11 H 1.3183 0.6166 0.1545
C8 C 1.4020(4) 0.7326(4) 0.3279(4)
H12 H 1.4746 0.7781 0.3038
C9 C 1.3897(4) 0.7633(4) 0.4522(4)
C10 C 1.2807(4) 0.6974(4) 0.4842(4)
H13 H 1.2691 0.7194 0.5671
C11 C 1.1881(4) 0.5998(4) 0.3973(4)
H14 H 1.1151 0.5546 0.4210
C12 C 1.4926(5) 0.8667(4) 0.5479(4)
H15 H 1.6008 0.8469 0.5686
H16 H 1.4786 0.8682 0.6350
H17 H 1.4654 0.9522 0.5022
C13 C 0.8106(4) 0.5909(4) 0.1984(4)
C14 C 0.8358(4) 0.7220(4) 0.1853(4)
H18 H 0.8442 0.7525 0.1034
C15 C 0.8489(5) 0.8100(4) 0.2901(4)
H19 H 0.8661 0.9000 0.2796
C16 C 0.8370(5) 0.7665(5) 0.4100(4)
H20 H 0.8474 0.8264 0.4823
C17 C 0.8102(5) 0.6365(5) 0.4238(4)
H21 H 0.8011 0.6063 0.5054
C18 C 0.7965(4) 0.5492(4) 0.3183(4)
H22 H 0.7771 0.4596 0.3282
C19 C 0.5119(4) 0.5072(4) -0.0099(4)
H23 H 0.497(5) 0.322(2) 0.030(4)
H24 H 0.389(3) 0.410(4) 0.060(4)
loop_
_geom_bond_atom_site_label_1
_geom_bond_atom_site_label_2
_geom_bond_site_symmetry_1
_geom_bond_site_symmetry_2
O1 H1 1_555 1_555
H2 O1 1_555 1_555
S1 O2 1_555 1_555
O3 S1 1_555 1_555
O4 C19 1_555 1_555
N1 S1 1_555 1_555
N2 C19 1_555 1_555
C1 N1 1_555 1_555
H3 C1 1_555 1_555
C2 C1 1_555 1_555
H4 C2 1_555 1_555
C3 C2 1_555 1_555
H5 C3 1_555 1_555
H6 C3 1_555 1_555
C4 C3 1_555 1_555
H7 C4 1_555 1_555
H8 C4 1_555 1_555
C5 N1 1_555 1_555
H9 C5 1_555 1_555
H10 C5 1_555 1_555
C6 S1 1_555 1_555
C7 C6 1_555 1_555
H11 C7 1_555 1_555
C8 C7 1_555 1_555
H12 C8 1_555 1_555
C9 C8 1_555 1_555
C10 C9 1_555 1_555
H13 C10 1_555 1_555
C11 C6 1_555 1_555
H14 C11 1_555 1_555
C12 C9 1_555 1_555
H15 C12 1_555 1_555
H16 C12 1_555 1_555
H17 C12 1_555 1_555
C13 C1 1_555 1_555
C14 C13 1_555 1_555
H18 C14 1_555 1_555
C15 C14 1_555 1_555
H19 C15 1_555 1_555
C16 C15 1_555 1_555
H20 C16 1_555 1_555
C17 C16 1_555 1_555
H21 C17 1_555 1_555
C18 C13 1_555 1_555
H22 C18 1_555 1_555
C19 C2 1_555 1_555
H23 N2 1_555 1_555
H24 N2 1_555 1_555
C4 C5 1_555 1_555
C10 C11 1_555 1_555
C17 C18 1_555 1_555

#END
