
#######################################################################
#
#                 Cambridge Crystallographic Data Centre
#                                CCDC 
#
#######################################################################
#
# If this CIF has been generated from an entry in the Cambridge 
# Structural Database, then it will include bibliographic, chemical, 
# crystal, experimental, refinement or atomic coordinate data resulting 
# from the CCDC's data processing and validation procedures.
#
#######################################################################

data_OHACOR
_chemical_formula_moiety         'C60 H75 N12 O4,3.5(H2 O1)'
_chemical_name_systematic        
'8,10,27,29-tetrakis(hexyloxy)-3\l^5^,4,5,13,14,15,22,23,24,32,33,34-dodecaazanonacyclo[34.2.2.2^17,20^.1^3,6^.1^7,11^.1^12,15^.1^22,25^.1^26,30^.1^31,34^]octatetraconta-1(38),2,4,6(48),7(47),8,10,12(46),13,17,19,23,25(43),26(42),27,29,31(41),32,36,39,44-henicosaene hydrate'
_symmetry_cell_setting           monoclinic
_symmetry_space_group_name_H-M   'P 21/c'
_symmetry_Int_Tables_number      14
_space_group_name_Hall           '-P 2ybc'
loop_
_symmetry_equiv_pos_site_id
_symmetry_equiv_pos_as_xyz
1 x,y,z
2 -x,1/2+y,1/2-z
3 -x,-y,-z
4 x,1/2-y,1/2+z
_cell_length_a                   10.226(4)
_cell_length_b                   18.354(8)
_cell_length_c                   39.683(15)
_cell_angle_alpha                90
_cell_angle_beta                 104.933(8)
_cell_angle_gamma                90
_cell_volume                     7196.49
_cell_formula_units_Z            4
loop_
_atom_site_label
_atom_site_type_symbol
_atom_site_fract_x
_atom_site_fract_y
_atom_site_fract_z
C1 C 0.2324(2) 0.06550(12) 0.35428(5)
H1 H 0.1438 0.0593 0.3558
C2 C 0.3139(2) 0.13272(13) 0.36090(6)
C3 C 0.2855(2) 0.20598(12) 0.37102(6)
C4 C 0.1895(2) 0.21592(12) 0.39005(5)
C5 C 0.1589(2) 0.28767(12) 0.39884(5)
H2 H 0.1031 0.2958 0.4136
C6 C 0.2164(2) 0.34721(12) 0.38437(5)
C7 C 0.2992(2) 0.33483(12) 0.36377(5)
C8 C 0.3374(2) 0.26532(12) 0.35741(5)
H3 H 0.3983 0.2583 0.3439
C9 C 0.3640(2) 0.39527(12) 0.34912(5)
C10 C 0.3267(2) 0.45997(11) 0.34397(5)
H4 H 0.2521 0.4815 0.3493
C11 C 0.4165(2) 0.57166(12) 0.31435(5)
H5 H 0.3610 0.6007 0.3257
H6 H 0.5062 0.5931 0.3195
C12 C 0.3578(2) 0.57148(12) 0.27699(5)
C13 C 0.4469(2) 0.58204(11) 0.25612(5)
H7 H 0.5378 0.5914 0.2664
C14 C 0.40003(19) 0.57859(10) 0.21976(5)
H8 H 0.4597 0.5854 0.2059
C15 C 0.2645(2) 0.56494(13) 0.20455(5)
C16 C 0.1738(2) 0.55525(13) 0.22490(5)
H9 H 0.0825 0.5468 0.2146
C17 C 0.2228(2) 0.55842(11) 0.26122(5)
H10 H 0.1631 0.5516 0.2751
C18 C 0.2140(2) 0.55168(12) 0.16677(6)
H11 H 0.2018 0.5911 0.1515
C19 C 0.2597(2) 0.42954(13) 0.14514(6)
H12 H 0.3476 0.4370 0.1434
C20 C 0.1953(2) 0.36889(13) 0.14063(6)
C21 C 0.2350(2) 0.29619(12) 0.13402(6)
C22 C 0.3130(2) 0.28342(13) 0.11049(7)
C23 C 0.3418(2) 0.21354(12) 0.10241(6)
H13 H 0.4017 0.2065 0.0886
C24 C 0.2864(2) 0.15474(12) 0.11373(6)
C25 C 0.1965(2) 0.16515(12) 0.13596(6)
C26 C 0.1749(2) 0.23724(12) 0.14652(6)
H14 H 0.1208 0.2451 0.1617
C27 C 0.1383(2) 0.10248(13) 0.15045(6)
C28 C 0.1716(2) 0.02997(13) 0.15536(6)
H15 H 0.2450 0.0069 0.1502
C29 C 0.0762(2) -0.06847(12) 0.18517(5)
H16 H 0.1269 -0.1042 0.1757
H17 H -0.0178 -0.0838 0.1788
C30 C 0.12602(13) -0.07093(8) 0.22469(3)
C31 C 0.26275(12) -0.05630(8) 0.23848(3)
H18 H 0.3185 -0.0484 0.2237
C32 C 0.31609(10) -0.05350(8) 0.27440(4)
H19 H 0.4076 -0.0437 0.2836
C33 C 0.23271(13) -0.06532(8) 0.29654(3)
C34 C 0.09598(13) -0.07994(9) 0.28275(3)
H20 H 0.0402 -0.0879 0.2976
C35 C 0.04263(10) -0.08275(8) 0.24683(3)
H21 H -0.0488 -0.0925 0.2376
C36 C 0.2775(2) -0.06064(12) 0.33491(6)
H22 H 0.2042 -0.0752 0.3449
H23 H 0.3530 -0.0935 0.3436
C37 C 0.0567(2) 0.16301(13) 0.42600(6)
H24 H -0.0290 0.1830 0.4128
H25 H 0.0937 0.1968 0.4448
C38 C 0.0276(3) 0.09218(16) 0.44211(7)
H26 H -0.0592 0.0731 0.4291
H27 H 0.0232 0.1007 0.4659
C39 C 0.1392(2) 0.03676(14) 0.44177(7)
H28 H 0.2179 0.0443 0.4612
H29 H 0.1664 0.0389 0.4201
C40 C 0.0678(3) -0.03587(14) 0.44528(7)
H30 H 0.0286 -0.0345 0.4651
H31 H -0.0034 -0.0459 0.4244
C41 C 0.1766(3) -0.09253(14) 0.45050(7)
H32 H 0.2422 -0.0814 0.4723
H33 H 0.2222 -0.0861 0.4321
C42 C 0.1413(3) -0.17388(14) 0.45139(7)
H34 H 0.1441 -0.1879 0.4749
H35 H 0.2056 -0.2023 0.4432
H36 H 0.0521 -0.1823 0.4367
C43 C 0.1113(2) 0.43119(12) 0.41520(6)
H37 H 0.1410 0.4028 0.4364
H38 H 0.0178 0.4188 0.4043
C44 C 0.1229(2) 0.51130(13) 0.42369(6)
H39 H 0.0802 0.5386 0.4028
H40 H 0.2179 0.5246 0.4304
C45 C 0.0591(3) 0.53307(13) 0.45247(7)
H41 H -0.0316 0.5129 0.4469
H42 H 0.1096 0.5093 0.4737
C46 C 0.0482(3) 0.61185(14) 0.46070(7)
H43 H 0.0097 0.6375 0.4390
H44 H 0.1389 0.6307 0.4701
C47 C -0.0347(3) 0.63010(15) 0.48587(7)
H45 H -0.0303 0.5883 0.5011
H46 H -0.1280 0.6344 0.4724
C48 C -0.0029(3) 0.69815(13) 0.50952(6)
H47 H 0.0653 0.7268 0.5030
H48 H 0.0293 0.6832 0.5334
H49 H -0.0836 0.7267 0.5068
C49 C 0.4001(2) 0.33822(15) 0.06535(7)
H50 H 0.3169 0.3415 0.0469
H51 H 0.4467 0.2931 0.0632
C50 C 0.4897(3) 0.40431(14) 0.06656(7)
H52 H 0.5527 0.4062 0.0895
H53 H 0.5425 0.3971 0.0497
C51 C 0.4216(2) 0.47637(14) 0.05957(7)
H54 H 0.3946 0.4895 0.0805
H55 H 0.3387 0.4685 0.0415
C52 C 0.4873(3) 0.54263(14) 0.04907(7)
H56 H 0.4914 0.5390 0.0250
H57 H 0.5783 0.5487 0.0638
C53 C 0.3935(2) 0.60852(14) 0.05397(7)
H58 H 0.3166 0.6134 0.0339
H59 H 0.3609 0.6018 0.0746
C54 C 0.4861(3) 0.67508(15) 0.05777(7)
H60 H 0.4367 0.7179 0.0609
H61 H 0.5179 0.6804 0.0371
H62 H 0.5620 0.6688 0.0776
C55 C 0.3793(3) 0.06721(13) 0.08082(7)
H63 H 0.3408 0.0950 0.0598
H64 H 0.4746 0.0790 0.0891
C56 C 0.3597(2) -0.01336(13) 0.07403(7)
H65 H 0.3901 -0.0404 0.0956
H66 H 0.2648 -0.0242 0.0640
C57 C 0.4417(3) -0.03401(14) 0.04912(7)
H67 H 0.4118 -0.0060 0.0278
H68 H 0.5364 -0.0229 0.0594
C58 C 0.4258(3) -0.11363(14) 0.04093(7)
H69 H 0.3312 -0.1258 0.0313
H70 H 0.4606 -0.1424 0.0618
C59 C 0.5059(3) -0.12804(14) 0.01457(6)
H71 H 0.6011 -0.1274 0.0269
H72 H 0.4906 -0.0875 -0.0016
C60 C 0.4794(3) -0.19799(15) -0.00680(7)
H73 H 0.4108 -0.2259 -0.0001
H74 H 0.5613 -0.2260 -0.0026
H75 H 0.4495 -0.1861 -0.0311
N1 N 0.3175(2) 0.01226(10) 0.34513(5)
N2 N 0.4381(2) 0.04231(11) 0.34746(5)
N3 N 0.4280(2) 0.11392(11) 0.35387(6)
N4 N 0.48980(18) 0.38494(11) 0.33844(5)
N5 N 0.52354(19) 0.44978(11) 0.32660(5)
N6 N 0.42514(19) 0.49548(11) 0.32771(5)
N7 N 0.18211(19) 0.47754(10) 0.15240(5)
N8 N 0.05535(19) 0.45277(10) 0.15555(5)
N9 N 0.05135(18) 0.38135(10) 0.14513(5)
N10 N 0.0272(2) 0.12153(11) 0.16001(5)
N11 N 0.00036(18) 0.05526(10) 0.17342(5)
N12 N 0.08508(19) 0.00106(10) 0.16802(5)
O1 O 0.14981(17) 0.16161(9) 0.40269(4)
O2 O 0.19154(17) 0.41547(8) 0.39271(4)
O3 O 0.37729(18) 0.34716(9) 0.09997(5)
O4 O 0.30568(16) 0.08308(8) 0.10841(4)
O5 O 0.0240(4) 0.2303(2) 0.28033(10)
H76 H 0.0644 0.1980 0.2946
H77 H -0.0455 0.2118 0.2665
O6 O 0.7171(4) 0.2037(2) 0.08806(10)
H78 H 0.7981 0.2142 0.0988
H79 H 0.7145 0.1610 0.0796
O7 O 0.7333(4) 0.25184(17) 0.17019(10)
H80 H 0.7283 0.2395 0.1492
H81 H 0.6767 0.2856 0.1704
O8 O 0.2181(4) 0.8204(2) 0.10173(11)
H82 H 0.2643 0.8460 0.0911
H83 H 0.1386 0.8146 0.0887
O9 O 0.2046(4) 0.7473(2) 0.14982(11)
H84 H 0.2088 0.7733 0.1324
H85 H 0.2839 0.7404 0.1628
O10 O 0.7864(4) 0.6376(2) 0.23829(9)
H86 H 0.7094 0.6522 0.2265
H87 H 0.8233 0.6121 0.2254
O11 O 0.2052(4) 0.2442(2) 0.26097(11)
H88 H 0.1269 0.2570 0.2492
H89 H 0.2188 0.2602 0.2817
O12 O 0.5741(4) 0.80373(17) 0.24700(10)
H90 H 0.5820 0.8498 0.2473
H91 H 0.5079 0.7913 0.2302
O13 O 0.5140(5) 0.7745(3) 0.29313(11)
H92 H 0.5004 0.7288 0.2930
H93 H 0.5751 0.7861 0.3113
loop_
_geom_bond_atom_site_label_1
_geom_bond_atom_site_label_2
_geom_bond_site_symmetry_1
_geom_bond_site_symmetry_2
C1 H1 1_555 1_555
C2 C1 1_555 1_555
C3 C2 1_555 1_555
C4 C3 1_555 1_555
C5 C4 1_555 1_555
H2 C5 1_555 1_555
C6 C5 1_555 1_555
C7 C6 1_555 1_555
C8 C3 1_555 1_555
H3 C8 1_555 1_555
C9 C7 1_555 1_555
C10 C9 1_555 1_555
H4 C10 1_555 1_555
C11 H5 1_555 1_555
H6 C11 1_555 1_555
C12 C11 1_555 1_555
C13 C12 1_555 1_555
H7 C13 1_555 1_555
C14 C13 1_555 1_555
H8 C14 1_555 1_555
C15 C14 1_555 1_555
C16 C15 1_555 1_555
H9 C16 1_555 1_555
C17 C12 1_555 1_555
H10 C17 1_555 1_555
C18 C15 1_555 1_555
H11 C18 1_555 1_555
C19 H12 1_555 1_555
C20 C19 1_555 1_555
C21 C20 1_555 1_555
C22 C21 1_555 1_555
C23 C22 1_555 1_555
H13 C23 1_555 1_555
C24 C23 1_555 1_555
C25 C24 1_555 1_555
C26 C21 1_555 1_555
H14 C26 1_555 1_555
C27 C25 1_555 1_555
C28 C27 1_555 1_555
H15 C28 1_555 1_555
C29 H16 1_555 1_555
H17 C29 1_555 1_555
C30 C29 1_555 1_555
C31 C30 1_555 1_555
H18 C31 1_555 1_555
C32 C31 1_555 1_555
H19 C32 1_555 1_555
C33 C32 1_555 1_555
C34 C33 1_555 1_555
H20 C34 1_555 1_555
C35 C30 1_555 1_555
H21 C35 1_555 1_555
C36 C33 1_555 1_555
H22 C36 1_555 1_555
H23 C36 1_555 1_555
C37 H24 1_555 1_555
H25 C37 1_555 1_555
C38 C37 1_555 1_555
H26 C38 1_555 1_555
H27 C38 1_555 1_555
C39 C38 1_555 1_555
H28 C39 1_555 1_555
H29 C39 1_555 1_555
C40 C39 1_555 1_555
H30 C40 1_555 1_555
H31 C40 1_555 1_555
C41 C40 1_555 1_555
H32 C41 1_555 1_555
H33 C41 1_555 1_555
C42 C41 1_555 1_555
H34 C42 1_555 1_555
H35 C42 1_555 1_555
H36 C42 1_555 1_555
C43 H37 1_555 1_555
H38 C43 1_555 1_555
C44 C43 1_555 1_555
H39 C44 1_555 1_555
H40 C44 1_555 1_555
C45 C44 1_555 1_555
H41 C45 1_555 1_555
H42 C45 1_555 1_555
C46 C45 1_555 1_555
H43 C46 1_555 1_555
H44 C46 1_555 1_555
C47 C46 1_555 1_555
H45 C47 1_555 1_555
H46 C47 1_555 1_555
C48 C47 1_555 1_555
H47 C48 1_555 1_555
H48 C48 1_555 1_555
H49 C48 1_555 1_555
C49 H50 1_555 1_555
H51 C49 1_555 1_555
C50 C49 1_555 1_555
H52 C50 1_555 1_555
H53 C50 1_555 1_555
C51 C50 1_555 1_555
H54 C51 1_555 1_555
H55 C51 1_555 1_555
C52 C51 1_555 1_555
H56 C52 1_555 1_555
H57 C52 1_555 1_555
C53 C52 1_555 1_555
H58 C53 1_555 1_555
H59 C53 1_555 1_555
C54 C53 1_555 1_555
H60 C54 1_555 1_555
H61 C54 1_555 1_555
H62 C54 1_555 1_555
C55 H63 1_555 1_555
H64 C55 1_555 1_555
C56 C55 1_555 1_555
H65 C56 1_555 1_555
H66 C56 1_555 1_555
C57 C56 1_555 1_555
H67 C57 1_555 1_555
H68 C57 1_555 1_555
C58 C57 1_555 1_555
H69 C58 1_555 1_555
H70 C58 1_555 1_555
C59 C58 1_555 1_555
H71 C59 1_555 1_555
H72 C59 1_555 1_555
C60 C59 1_555 1_555
H73 C60 1_555 1_555
H74 C60 1_555 1_555
H75 C60 1_555 1_555
N1 C1 1_555 1_555
N2 N1 1_555 1_555
N3 C2 1_555 1_555
N4 C9 1_555 1_555
N5 N4 1_555 1_555
N6 C10 1_555 1_555
N7 C18 1_555 1_555
N8 N7 1_555 1_555
N9 C20 1_555 1_555
N10 C27 1_555 1_555
N11 N10 1_555 1_555
N12 C28 1_555 1_555
O1 C4 1_555 1_555
O2 C6 1_555 1_555
O3 C22 1_555 1_555
O4 C24 1_555 1_555
O5 H76 1_555 1_555
H77 O5 1_555 1_555
O6 H78 1_555 1_555
H79 O6 1_555 1_555
O7 H80 1_555 1_555
H81 O7 1_555 1_555
O8 H82 1_555 1_555
H83 O8 1_555 1_555
O9 H84 1_555 1_555
H85 O9 1_555 1_555
O10 H86 1_555 1_555
H87 O10 1_555 1_555
O11 H88 1_555 1_555
H89 O11 1_555 1_555
O12 H90 1_555 1_555
H91 O12 1_555 1_555
O13 H92 1_555 1_555
H93 O13 1_555 1_555
C7 C8 1_555 1_555
C11 N6 1_555 1_555
C16 C17 1_555 1_555
C19 N7 1_555 1_555
C25 C26 1_555 1_555
C29 N12 1_555 1_555
C34 C35 1_555 1_555
C36 N1 1_555 1_555
C37 O1 1_555 1_555
C43 O2 1_555 1_555
C49 O3 1_555 1_555
C55 O4 1_555 1_555
N2 N3 1_555 1_555
N5 N6 1_555 1_555
N8 N9 1_555 1_555
N11 N12 1_555 1_555

#END
