
#######################################################################
#
#                 Cambridge Crystallographic Data Centre
#                                CCDC 
#
#######################################################################
#
# If this CIF has been generated from an entry in the Cambridge 
# Structural Database, then it will include bibliographic, chemical, 
# crystal, experimental, refinement or atomic coordinate data resulting 
# from the CCDC's data processing and validation procedures.
#
#######################################################################

data_OHALOA
_chemical_formula_moiety         'C21 H19 N3 O1'
_chemical_name_systematic        
(E)-N-(3,5-dimethylphenyl)-2-(phenyldiazenyl)benzamide
_symmetry_cell_setting           monoclinic
_symmetry_space_group_name_H-M   'P 21/c'
_symmetry_Int_Tables_number      14
_space_group_name_Hall           '-P 2ybc'
loop_
_symmetry_equiv_pos_site_id
_symmetry_equiv_pos_as_xyz
1 x,y,z
2 -x,1/2+y,1/2-z
3 -x,-y,-z
4 x,1/2-y,1/2+z
_cell_length_a                   8.788(3)
_cell_length_b                   17.421(6)
_cell_length_c                   11.688(4)
_cell_angle_alpha                90
_cell_angle_beta                 109.885(4)
_cell_angle_gamma                90
_cell_volume                     1682.7
_exptl_crystal_colour            red
_exptl_crystal_description       rod
_cell_formula_units_Z            4
loop_
_atom_site_label
_atom_site_type_symbol
_atom_site_fract_x
_atom_site_fract_y
_atom_site_fract_z
O1 O 0.4858(2) 0.58320(11) 1.24225(15)
N1 N 0.1327(2) 0.42879(11) 1.02988(16)
N2 N 0.0379(2) 0.37455(11) 0.98291(17)
N3 N 0.3278(2) 0.55558(11) 1.04823(17)
C1 C 0.1515(3) 0.44365(13) 1.15443(19)
C2 C 0.0600(3) 0.40404(14) 1.2125(2)
H1 H -0.0137 0.3670 1.1700
C3 C 0.0778(3) 0.41931(15) 1.3322(2)
H2 H 0.0150 0.3933 1.3696
C4 C 0.1894(3) 0.47336(15) 1.3964(2)
H3 H 0.2025 0.4834 1.4774
C5 C 0.2811(3) 0.51238(14) 1.3405(2)
H4 H 0.3562 0.5484 1.3849
C6 C 0.2644(3) 0.49934(12) 1.2184(2)
C7 C 0.0229(3) 0.35774(13) 0.8600(2)
C8 C 0.1304(3) 0.38272(13) 0.8037(2)
H5 H 0.2162 0.4147 0.8452
C9 C 0.1089(3) 0.35991(14) 0.6864(2)
H6 H 0.1809 0.3763 0.6488
C10 C -0.0197(3) 0.31255(14) 0.6242(2)
H7 H -0.0333 0.2973 0.5451
C11 C -0.1280(3) 0.28789(14) 0.6792(2)
H8 H -0.2148 0.2567 0.6369
C12 C -0.1061(3) 0.30989(13) 0.7977(2)
H9 H -0.1773 0.2928 0.8356
C13 C 0.3707(3) 0.54895(13) 1.1704(2)
C14 C 0.3963(3) 0.60345(13) 0.98105(19)
C15 C 0.4927(3) 0.66700(13) 1.0317(2)
H10 H 0.5164 0.6787 1.1135
C16 C 0.5533(3) 0.71280(13) 0.9592(2)
C17 C 0.5151(3) 0.69563(14) 0.8363(2)
H11 H 0.5556 0.7264 0.7883
C18 C 0.4174(3) 0.63329(14) 0.7841(2)
C19 C 0.3595(3) 0.58748(14) 0.8579(2)
H12 H 0.2950 0.5453 0.8242
C20 C 0.6595(3) 0.78057(15) 1.0132(2)
H13 H 0.6737 0.7845 1.0981
H14 H 0.6097 0.8266 0.9721
H15 H 0.7630 0.7739 1.0037
C21 C 0.3729(4) 0.61547(18) 0.6503(2)
H16 H 0.3837 0.6610 0.6075
H17 H 0.2630 0.5977 0.6190
H18 H 0.4437 0.5764 0.6393
H19 H 0.251(3) 0.5232(14) 1.003(2)
loop_
_geom_bond_atom_site_label_1
_geom_bond_atom_site_label_2
_geom_bond_site_symmetry_1
_geom_bond_site_symmetry_2
O1 C13 1_555 1_555
N1 N2 1_555 1_555
N2 C7 1_555 1_555
N3 C13 1_555 1_555
C1 N1 1_555 1_555
C2 C1 1_555 1_555
H1 C2 1_555 1_555
C3 C2 1_555 1_555
H2 C3 1_555 1_555
C4 C3 1_555 1_555
H3 C4 1_555 1_555
C5 C4 1_555 1_555
H4 C5 1_555 1_555
C6 C1 1_555 1_555
C7 C8 1_555 1_555
C8 H5 1_555 1_555
C9 C8 1_555 1_555
H6 C9 1_555 1_555
C10 C9 1_555 1_555
H7 C10 1_555 1_555
C11 C10 1_555 1_555
H8 C11 1_555 1_555
C12 C7 1_555 1_555
H9 C12 1_555 1_555
C13 C6 1_555 1_555
C14 N3 1_555 1_555
C15 C14 1_555 1_555
H10 C15 1_555 1_555
C16 C15 1_555 1_555
C17 C16 1_555 1_555
H11 C17 1_555 1_555
C18 C17 1_555 1_555
C19 C14 1_555 1_555
H12 C19 1_555 1_555
C20 C16 1_555 1_555
H13 C20 1_555 1_555
H14 C20 1_555 1_555
H15 C20 1_555 1_555
C21 C18 1_555 1_555
H16 C21 1_555 1_555
H17 C21 1_555 1_555
H18 C21 1_555 1_555
H19 N3 1_555 1_555
C5 C6 1_555 1_555
C11 C12 1_555 1_555
C18 C19 1_555 1_555

#END
