
#######################################################################
#
#                 Cambridge Crystallographic Data Centre
#                                CCDC 
#
#######################################################################
#
# If this CIF has been generated from an entry in the Cambridge 
# Structural Database, then it will include bibliographic, chemical, 
# crystal, experimental, refinement or atomic coordinate data resulting 
# from the CCDC's data processing and validation procedures.
#
#######################################################################

data_OHIROO
_chemical_formula_moiety         'C28 H21 Cl2 N3 O7 S1'
_chemical_name_systematic        
'Methyl 4-(4-chlorophenyl)-6-(((4-chlorophenyl)sulfonyl)amino)-2-(4-nitrophenyl)-3,4-dihydro-2H-1,3-benzoxazine-4-carboxylate'
_symmetry_cell_setting           triclinic
_symmetry_space_group_name_H-M   'P -1'
_symmetry_Int_Tables_number      2
_space_group_name_Hall           '-P 1'
loop_
_symmetry_equiv_pos_site_id
_symmetry_equiv_pos_as_xyz
1 x,y,z
2 -x,-y,-z
_cell_length_a                   8.4575(2)
_cell_length_b                   12.5061(3)
_cell_length_c                   13.4396(3)
_cell_angle_alpha                80.3987(13)
_cell_angle_beta                 85.8752(13)
_cell_angle_gamma                78.3825(13)
_cell_volume                     1371.8
_exptl_crystal_colour            colorless
_exptl_crystal_description       Prism
_cell_formula_units_Z            2
loop_
_atom_site_label
_atom_site_type_symbol
_atom_site_fract_x
_atom_site_fract_y
_atom_site_fract_z
Cl1 Cl -0.32118(9) -0.60471(7) 1.01276(7)
Cl2 Cl -0.41633(11) -0.21170(8) 1.02801(7)
S1 S 0.11748(8) 0.02014(5) 0.79534(6)
O1 O 0.45623(19) -0.48581(13) 0.71926(15)
O2 O 0.0756(2) -0.39547(16) 0.49535(13)
O3 O -0.1203(2) -0.32230(14) 0.59811(13)
O4 O 0.2589(2) -0.00480(17) 0.85265(17)
O5 O 0.0478(2) 0.13193(14) 0.75669(17)
O6 O 0.8544(3) -0.9633(2) 0.5543(2)
O7 O 0.6593(5) -1.0399(3) 0.6055(4)
N1 N 0.2306(2) -0.52772(15) 0.64775(16)
H1 H 0.1853 -0.5798 0.6360
N2 N 0.1597(2) -0.04211(16) 0.69624(17)
H2 H 0.1386 -0.0054 0.6371
N3 N 0.7190(3) -0.9602(2) 0.5901(2)
C1 C 0.1146(2) -0.43174(17) 0.67463(17)
C2 C 0.2091(2) -0.34605(18) 0.69694(17)
C3 C 0.1406(3) -0.23386(18) 0.69283(17)
H3 H 0.0314 -0.2098 0.6804
C4 C 0.2321(3) -0.15814(19) 0.70683(18)
C5 C 0.3942(3) -0.1932(2) 0.7274(2)
H4 H 0.4557 -0.1424 0.7374
C6 C 0.4643(3) -0.3033(2) 0.7329(2)
H5 H 0.5727 -0.3270 0.7476
C7 C 0.3730(3) -0.37909(18) 0.71642(18)
C8 C 0.3564(3) -0.56523(19) 0.7161(2)
H6 H 0.3086 -0.5836 0.7839
C9 C 0.0221(3) -0.38262(18) 0.57828(18)
C10 C -0.2130(4) -0.2662(3) 0.5109(2)
H7 H -0.2049 -0.3152 0.4621
H8 H -0.1711 -0.2018 0.4813
H9 H -0.3242 -0.2446 0.5319
C11 C 0.0007(2) -0.47051(18) 0.76085(17)
C12 C -0.0487(3) -0.4150(2) 0.8410(2)
H10 H -0.0134 -0.3498 0.8440
C13 C -0.1506(3) -0.4551(2) 0.9176(2)
H11 H -0.1835 -0.4170 0.9717
C14 C -0.2024(3) -0.5508(2) 0.9130(2)
C15 C -0.1564(3) -0.6070(2) 0.8334(2)
H12 H -0.1927 -0.6718 0.8306
C16 C -0.0559(3) -0.5667(2) 0.7571(2)
H13 H -0.0255 -0.6044 0.7026
C17 C 0.4622(3) -0.66933(19) 0.68636(19)
C18 C 0.3989(3) -0.76448(19) 0.7043(2)
H14 H 0.2996 -0.7641 0.7389
C19 C 0.4808(3) -0.8599(2) 0.6717(2)
H15 H 0.4376 -0.9238 0.6831
C20 C 0.6286(3) -0.8582(2) 0.6218(2)
C21 C 0.6960(3) -0.7662(2) 0.6046(2)
H16 H 0.7968 -0.7677 0.5717
C22 C 0.6115(3) -0.6704(2) 0.6373(2)
H17 H 0.6555 -0.6068 0.6261
C23 C -0.0328(3) -0.04068(19) 0.86748(19)
C24 C -0.1942(3) 0.0033(2) 0.8510(2)
H18 H -0.2228 0.0685 0.8060
C25 C -0.3127(3) -0.0487(2) 0.9006(2)
H19 H -0.4212 -0.0198 0.8890
C26 C -0.2679(3) -0.1438(2) 0.9673(2)
C27 C -0.1079(4) -0.1869(2) 0.9871(2)
H20 H -0.0802 -0.2503 1.0343
C28 C 0.0105(3) -0.1354(2) 0.9366(2)
H21 H 0.1188 -0.1642 0.9489
loop_
_geom_bond_atom_site_label_1
_geom_bond_atom_site_label_2
_geom_bond_site_symmetry_1
_geom_bond_site_symmetry_2
Cl1 C14 1_555 1_555
Cl2 C26 1_555 1_555
S1 O4 1_555 1_555
O1 C7 1_555 1_555
O2 C9 1_555 1_555
O3 C9 1_555 1_555
O5 S1 1_555 1_555
O6 N3 1_555 1_555
O7 N3 1_555 1_555
N1 H1 1_555 1_555
N2 S1 1_555 1_555
H2 N2 1_555 1_555
N3 C20 1_555 1_555
C1 N1 1_555 1_555
C2 C1 1_555 1_555
C3 C2 1_555 1_555
H3 C3 1_555 1_555
C4 N2 1_555 1_555
C5 C4 1_555 1_555
H4 C5 1_555 1_555
C6 C5 1_555 1_555
H5 C6 1_555 1_555
C7 C2 1_555 1_555
C8 O1 1_555 1_555
H6 C8 1_555 1_555
C9 C1 1_555 1_555
C10 O3 1_555 1_555
H7 C10 1_555 1_555
H8 C10 1_555 1_555
H9 C10 1_555 1_555
C11 C1 1_555 1_555
C12 C11 1_555 1_555
H10 C12 1_555 1_555
C13 C12 1_555 1_555
H11 C13 1_555 1_555
C14 C13 1_555 1_555
C15 C14 1_555 1_555
H12 C15 1_555 1_555
C16 C11 1_555 1_555
H13 C16 1_555 1_555
C17 C8 1_555 1_555
C18 C17 1_555 1_555
H14 C18 1_555 1_555
C19 C18 1_555 1_555
H15 C19 1_555 1_555
C20 C19 1_555 1_555
C21 C20 1_555 1_555
H16 C21 1_555 1_555
C22 C17 1_555 1_555
H17 C22 1_555 1_555
C23 S1 1_555 1_555
C24 C23 1_555 1_555
H18 C24 1_555 1_555
C25 C24 1_555 1_555
H19 C25 1_555 1_555
C26 C25 1_555 1_555
C27 C26 1_555 1_555
H20 C27 1_555 1_555
C28 C23 1_555 1_555
H21 C28 1_555 1_555
N1 C8 1_555 1_555
C3 C4 1_555 1_555
C6 C7 1_555 1_555
C15 C16 1_555 1_555
C21 C22 1_555 1_555
C27 C28 1_555 1_555

#END
