
#######################################################################
#
#                 Cambridge Crystallographic Data Centre
#                                CCDC 
#
#######################################################################
#
# If this CIF has been generated from an entry in the Cambridge 
# Structural Database, then it will include bibliographic, chemical, 
# crystal, experimental, refinement or atomic coordinate data resulting 
# from the CCDC's data processing and validation procedures.
#
#######################################################################

data_OHOFUM
_chemical_formula_moiety         'C23 H16 F5 N3 O2'
_chemical_name_systematic        
4-(p-Cyanophenyl)-2-((pentafluorophenyl)methyl)-hexahydropyrrolo(3,4-a)pyrrolizine-1,3-dione
_symmetry_cell_setting           monoclinic
_symmetry_space_group_name_H-M   'P 21/n'
_symmetry_Int_Tables_number      14
_space_group_name_Hall           '-P 2yn'
loop_
_symmetry_equiv_pos_site_id
_symmetry_equiv_pos_as_xyz
1 x,y,z
2 1/2+x,1/2-y,1/2+z
3 -x,-y,-z
4 1/2-x,1/2+y,1/2-z
_cell_length_a                   10.334(1)
_cell_length_b                   10.590(2)
_cell_length_c                   18.993(3)
_cell_angle_alpha                90
_cell_angle_beta                 100.87(2)
_cell_angle_gamma                90
_cell_volume                     2041.24
_exptl_crystal_colour            colorless
_cell_formula_units_Z            4
loop_
_atom_site_label
_atom_site_type_symbol
_atom_site_fract_x
_atom_site_fract_y
_atom_site_fract_z
C1 C 1.0258(2) 0.94750(19) 0.72329(12)
N1 N 1.00193(15) 0.82530(15) 0.74410(9)
C2 C 0.86939(18) 0.79817(18) 0.73762(9)
C3 C 0.79130(18) 0.90964(18) 0.70210(10)
H1 H 0.7284 0.9423 0.7318
C4 C 0.89620(19) 1.00933(18) 0.69358(11)
H2 H 0.8838 1.0898 0.7190
O1 O 1.13446(15) 0.99237(15) 0.72837(11)
O2 O 0.82817(13) 0.70003(14) 0.75729(7)
C5 C 1.1051(2) 0.7325(2) 0.76858(11)
H3 H 1.0952 0.6995 0.8160
H4 H 1.1924 0.7737 0.7740
C6 C 1.09770(18) 0.62506(19) 0.71625(10)
C7 C 1.1229(2) 0.6424(2) 0.64800(12)
C8 C 1.1171(2) 0.5445(3) 0.59984(13)
C9 C 1.0868(2) 0.4251(3) 0.61980(16)
C10 C 1.0614(2) 0.4051(2) 0.68640(15)
C11 C 1.0665(2) 0.5045(2) 0.73364(12)
F1 F 1.14257(17) 0.5663(2) 0.53423(9)
F2 F 1.08424(18) 0.3290(2) 0.57359(11)
F3 F 1.03376(18) 0.28823(14) 0.70658(11)
F4 F 1.04437(14) 0.47997(13) 0.79964(8)
F5 F 1.15541(15) 0.75801(15) 0.62828(8)
C12 C 0.72006(18) 0.88012(18) 0.62387(10)
H5 H 0.6453 0.9407 0.6103
N2 N 0.82200(17) 0.90952(17) 0.58166(9)
C13 C 0.8821(2) 1.02851(19) 0.61246(11)
H6 H 0.9711 1.0392 0.5998
C14 C 0.7905(2) 1.1357(2) 0.57889(13)
H7 H 0.8418 1.2113 0.5705
H8 H 0.7279 1.1591 0.6103
C15 C 0.7173(3) 1.0801(3) 0.50763(14)
H9 H 0.7387 1.1278 0.4665
H10 H 0.6208 1.0827 0.5052
C16 C 0.7661(3) 0.9426(3) 0.50704(12)
H11 H 0.6921 0.8855 0.4877
H12 H 0.8340 0.9351 0.4768
C17 C 0.66763(17) 0.74727(18) 0.61141(9)
C18 C 0.54080(18) 0.71972(19) 0.62161(10)
H13 H 0.4872 0.7853 0.6347
C19 C 0.49199(19) 0.5981(2) 0.61297(10)
H14 H 0.4055 0.5803 0.6205
C20 C 0.5691(2) 0.50217(19) 0.59333(9)
C21 C 0.6957(2) 0.5285(2) 0.58256(11)
H15 H 0.7493 0.4630 0.5693
C22 C 0.74315(19) 0.65042(19) 0.59120(10)
H16 H 0.8293 0.6683 0.5831
C23 C 0.5170(2) 0.3761(2) 0.58235(10)
N3 N 0.4763(2) 0.27572(19) 0.57412(10)
loop_
_geom_bond_atom_site_label_1
_geom_bond_atom_site_label_2
_geom_bond_site_symmetry_1
_geom_bond_site_symmetry_2
C1 N1 1_555 1_555
N1 C2 1_555 1_555
C2 C3 1_555 1_555
C3 H1 1_555 1_555
C4 C1 1_555 1_555
H2 C4 1_555 1_555
O1 C1 1_555 1_555
O2 C2 1_555 1_555
C5 N1 1_555 1_555
H3 C5 1_555 1_555
H4 C5 1_555 1_555
C6 C5 1_555 1_555
C7 C6 1_555 1_555
C8 C7 1_555 1_555
C9 C8 1_555 1_555
C10 C9 1_555 1_555
C11 C6 1_555 1_555
F1 C8 1_555 1_555
F2 C9 1_555 1_555
F3 C10 1_555 1_555
F4 C11 1_555 1_555
F5 C7 1_555 1_555
C12 C3 1_555 1_555
H5 C12 1_555 1_555
N2 C12 1_555 1_555
C13 C4 1_555 1_555
H6 C13 1_555 1_555
C14 C13 1_555 1_555
H7 C14 1_555 1_555
H8 C14 1_555 1_555
C15 C14 1_555 1_555
H9 C15 1_555 1_555
H10 C15 1_555 1_555
C16 N2 1_555 1_555
H11 C16 1_555 1_555
H12 C16 1_555 1_555
C17 C12 1_555 1_555
C18 C17 1_555 1_555
H13 C18 1_555 1_555
C19 C18 1_555 1_555
H14 C19 1_555 1_555
C20 C19 1_555 1_555
C21 C20 1_555 1_555
H15 C21 1_555 1_555
C22 C17 1_555 1_555
H16 C22 1_555 1_555
C23 C20 1_555 1_555
N3 C23 1_555 1_555
C3 C4 1_555 1_555
C10 C11 1_555 1_555
N2 C13 1_555 1_555
C15 C16 1_555 1_555
C21 C22 1_555 1_555

#END
