
#######################################################################
#
#                 Cambridge Crystallographic Data Centre
#                                CCDC 
#
#######################################################################
#
# If this CIF has been generated from an entry in the Cambridge 
# Structural Database, then it will include bibliographic, chemical, 
# crystal, experimental, refinement or atomic coordinate data resulting 
# from the CCDC's data processing and validation procedures.
#
#######################################################################

data_OHOQAF
_chemical_formula_moiety         'C2 H1 N6 O4 1-,H4 N1 1+'
_chemical_name_systematic        
'Ammonium nitro(4-nitro-1H-1,2,3-triazol-5-yl)azanide'
_symmetry_cell_setting           monoclinic
_symmetry_space_group_name_H-M   'P 21/c'
_symmetry_Int_Tables_number      14
_space_group_name_Hall           '-P 2ybc'
loop_
_symmetry_equiv_pos_site_id
_symmetry_equiv_pos_as_xyz
1 x,y,z
2 -x,1/2+y,1/2-z
3 -x,-y,-z
4 x,1/2-y,1/2+z
_cell_length_a                   7.9369(18)
_cell_length_b                   9.884(2)
_cell_length_c                   8.6066(19)
_cell_angle_alpha                90
_cell_angle_beta                 91.979(4)
_cell_angle_gamma                90
_cell_volume                     674.771
_exptl_crystal_colour            yellow
_exptl_crystal_description       Prism
_cell_formula_units_Z            4
loop_
_atom_site_label
_atom_site_type_symbol
_atom_site_fract_x
_atom_site_fract_y
_atom_site_fract_z
O1 O 0.30320(10) 0.46575(8) 0.54374(10)
O2 O 0.10632(10) 0.48291(8) 0.36185(10)
O3 O 0.13689(11) 0.94660(9) 0.40587(10)
O4 O 0.27707(11) 1.09469(8) 0.54461(10)
N1 N 0.42985(11) 0.68294(10) 0.67064(11)
N2 N 0.51427(12) 0.78437(9) 0.74661(12)
N3 N 0.45260(11) 0.89927(10) 0.69690(11)
N4 N 0.19894(11) 0.67031(9) 0.46799(11)
N5 N 0.20607(11) 0.53578(9) 0.46076(11)
N6 N 0.24271(12) 0.97697(9) 0.50949(11)
C1 C 0.31139(13) 0.73154(11) 0.56838(12)
C2 C 0.32955(13) 0.87145(11) 0.58855(12)
H1 H 0.457(2) 0.5969(18) 0.6900(19)
N7 N 0.09883(13) 0.21823(10) 0.23857(13)
H2 H 0.006(2) 0.2228(16) 0.1743(19)
H3 H 0.107(2) 0.2993(17) 0.2940(19)
H4 H 0.193(2) 0.2087(16) 0.183(2)
H5 H 0.094(2) 0.148(2) 0.303(2)
loop_
_geom_bond_atom_site_label_1
_geom_bond_atom_site_label_2
_geom_bond_site_symmetry_1
_geom_bond_site_symmetry_2
O1 N5 1_555 1_555
O2 N5 1_555 1_555
O3 N6 1_555 1_555
O4 N6 1_555 1_555
N1 N2 1_555 1_555
N2 N3 1_555 1_555
N3 C2 1_555 1_555
N4 N5 1_555 1_555
N6 C2 1_555 1_555
C1 N1 1_555 1_555
C2 C1 1_555 1_555
H1 N1 1_555 1_555
N7 H2 1_555 1_555
H3 N7 1_555 1_555
H4 N7 1_555 1_555
H5 N7 1_555 1_555
N4 C1 1_555 1_555

#END
