
#######################################################################
#
#                 Cambridge Crystallographic Data Centre
#                                CCDC 
#
#######################################################################
#
# If this CIF has been generated from an entry in the Cambridge 
# Structural Database, then it will include bibliographic, chemical, 
# crystal, experimental, refinement or atomic coordinate data resulting 
# from the CCDC's data processing and validation procedures.
#
#######################################################################

data_OHOSAH
_chemical_formula_moiety         'C20 H24 O4 S1'
_chemical_name_systematic        
1-methyl-4-((4-methylphenyl)sulfonyl)-3-phenylcyclohexane-1,3-diol
_symmetry_cell_setting           monoclinic
_symmetry_space_group_name_H-M   'P n'
_symmetry_Int_Tables_number      7
_space_group_name_Hall           'P -2yac'
loop_
_symmetry_equiv_pos_site_id
_symmetry_equiv_pos_as_xyz
1 x,y,z
2 1/2+x,-y,1/2+z
_cell_length_a                   11.2988(18)
_cell_length_b                   5.7063(9)
_cell_length_c                   14.045(2)
_cell_angle_alpha                90
_cell_angle_beta                 102.129(4)
_cell_angle_gamma                90
_cell_volume                     885.328
_exptl_crystal_colour            colorless
_cell_formula_units_Z            2
loop_
_atom_site_label
_atom_site_type_symbol
_atom_site_fract_x
_atom_site_fract_y
_atom_site_fract_z
C1 C 0.4544(3) 0.9472(5) 0.1324(2)
H1 H 0.5082 0.9415 0.0860
H2 H 0.4533 1.1067 0.1581
H3 H 0.3723 0.9024 0.0993
C2 C 0.4998(3) 0.7790(5) 0.2153(2)
C3 C 0.6299(2) 0.8312(5) 0.2664(2)
H4 H 0.6348 0.9938 0.2915
H5 H 0.6828 0.8195 0.2187
C4 C 0.6758(2) 0.6631(5) 0.3509(2)
H6 H 0.7597 0.7054 0.3830
H7 H 0.6765 0.5010 0.3258
C5 C 0.5934(2) 0.6761(5) 0.4252(2)
H8 H 0.5951 0.8416 0.4488
C6 C 0.6038(3) 0.5855(5) 0.6292(2)
C7 C 0.6425(3) 0.7944(5) 0.6758(2)
H9 H 0.7014 0.8879 0.6543
C8 C 0.5946(3) 0.8654(5) 0.7541(2)
H10 H 0.6211 1.0082 0.7864
C9 C 0.5080(3) 0.7295(6) 0.7860(2)
C10 C 0.4738(3) 0.5171(6) 0.7400(2)
H11 H 0.4170 0.4207 0.7628
C11 C 0.5204(3) 0.4436(5) 0.6621(2)
H12 H 0.4960 0.2982 0.6312
C12 C 0.4513(3) 0.8144(7) 0.8679(3)
H13 H 0.3716 0.8819 0.8409
H14 H 0.5033 0.9341 0.9055
H15 H 0.4423 0.6825 0.9105
C13 C 0.4188(3) 0.7828(5) 0.2904(2)
H16 H 0.3353 0.7404 0.2572
H17 H 0.4165 0.9447 0.3153
C14 C 0.4596(2) 0.6166(5) 0.3774(2)
C15 C 0.3740(2) 0.6480(5) 0.4472(2)
C16 C 0.2913(3) 0.4737(5) 0.4572(2)
H18 H 0.2886 0.3321 0.4213
C17 C 0.2118(3) 0.5079(6) 0.5205(2)
H19 H 0.1548 0.3895 0.5268
C18 C 0.2158(3) 0.7107(6) 0.5733(2)
H20 H 0.1633 0.7304 0.6175
C19 C 0.2965(3) 0.8879(5) 0.5623(2)
H21 H 0.2983 1.0296 0.5981
C20 C 0.3748(3) 0.8569(5) 0.4989(2)
H22 H 0.4290 0.9788 0.4907
O1 O 0.50186(17) 0.5434(3) 0.17654(15)
H23 H 0.4355 0.5152 0.1385
O2 O 0.78935(18) 0.5656(4) 0.54865(15)
O3 O 0.63611(18) 0.2500(4) 0.51029(15)
O4 O 0.45075(17) 0.3793(3) 0.34378(14)
H24 H 0.4686 0.3726 0.2887
S1 S 0.66282(6) 0.49561(12) 0.52791(6)
loop_
_geom_bond_atom_site_label_1
_geom_bond_atom_site_label_2
_geom_bond_site_symmetry_1
_geom_bond_site_symmetry_2
C1 H1 1_555 1_555
H2 C1 1_555 1_555
H3 C1 1_555 1_555
C2 C1 1_555 1_555
C3 C2 1_555 1_555
H4 C3 1_555 1_555
H5 C3 1_555 1_555
C4 C3 1_555 1_555
H6 C4 1_555 1_555
H7 C4 1_555 1_555
C5 C4 1_555 1_555
H8 C5 1_555 1_555
C6 C7 1_555 1_555
C7 H9 1_555 1_555
C8 C7 1_555 1_555
H10 C8 1_555 1_555
C9 C8 1_555 1_555
C10 C9 1_555 1_555
H11 C10 1_555 1_555
C11 C6 1_555 1_555
H12 C11 1_555 1_555
C12 C9 1_555 1_555
H13 C12 1_555 1_555
H14 C12 1_555 1_555
H15 C12 1_555 1_555
C13 C2 1_555 1_555
H16 C13 1_555 1_555
H17 C13 1_555 1_555
C14 C5 1_555 1_555
C15 C14 1_555 1_555
C16 C15 1_555 1_555
H18 C16 1_555 1_555
C17 C16 1_555 1_555
H19 C17 1_555 1_555
C18 C17 1_555 1_555
H20 C18 1_555 1_555
C19 C18 1_555 1_555
H21 C19 1_555 1_555
C20 C15 1_555 1_555
H22 C20 1_555 1_555
O1 C2 1_555 1_555
H23 O1 1_555 1_555
O2 S1 1_555 1_555
O3 S1 1_555 1_555
O4 C14 1_555 1_555
H24 O4 1_555 1_555
S1 C5 1_555 1_555
C6 S1 1_555 1_555
C10 C11 1_555 1_555
C13 C14 1_555 1_555
C19 C20 1_555 1_555

#END
