
#######################################################################
#
#                 Cambridge Crystallographic Data Centre
#                                CCDC 
#
#######################################################################
#
# If this CIF has been generated from an entry in the Cambridge 
# Structural Database, then it will include bibliographic, chemical, 
# crystal, experimental, refinement or atomic coordinate data resulting 
# from the CCDC's data processing and validation procedures.
#
#######################################################################

data_OHUHOQ
_chemical_formula_moiety         'C30 H27 Br1 N4 O3 S1'
_chemical_name_systematic        
3-Amino-3-(2-bromophenyl)-N-(4-methylphenyl)-2-(N'-((4-methylphenyl)sulfonyl)-N-phenylcarbamimidoyl)acrylamide
_symmetry_cell_setting           monoclinic
_symmetry_space_group_name_H-M   'P 21/c'
_symmetry_Int_Tables_number      14
_space_group_name_Hall           '-P 2ybc'
loop_
_symmetry_equiv_pos_site_id
_symmetry_equiv_pos_as_xyz
1 x,y,z
2 -x,1/2+y,1/2-z
3 -x,-y,-z
4 x,1/2-y,1/2+z
_cell_length_a                   12.6036(7)
_cell_length_b                   24.4452(12)
_cell_length_c                   10.3548(4)
_cell_angle_alpha                90
_cell_angle_beta                 100.952(5)
_cell_angle_gamma                90
_cell_volume                     3132.18
_exptl_crystal_colour            colorless
_exptl_crystal_description       block
_cell_formula_units_Z            4
loop_
_atom_site_label
_atom_site_type_symbol
_atom_site_fract_x
_atom_site_fract_y
_atom_site_fract_z
Br1 Br 0.47645(4) 0.333697(18) 1.17292(4)
S1 S 0.48451(6) 0.38353(3) 0.53803(7)
O1 O 0.56283(18) 0.41182(10) 0.4784(2)
O2 O 0.50054(19) 0.32548(8) 0.5573(2)
O3 O 0.76040(19) 0.32282(10) 0.8812(3)
N1 N 0.4728(2) 0.41693(10) 0.6684(2)
N2 N 0.47714(18) 0.42843(9) 0.8878(2)
H1 H 0.5075 0.4188 0.9660
N3 N 0.5990(2) 0.26765(10) 0.9491(3)
H2 H 0.6667 0.2661 0.9465
H3 H 0.5693 0.2418 0.9861
N4 N 0.72424(19) 0.39466(10) 0.7437(3)
H4 H 0.6752 0.4169 0.7056
C1 C 0.0485(4) 0.4183(2) 0.1916(5)
H5 H 0.0056 0.4417 0.2357
H6 H 0.0125 0.3838 0.1730
H7 H 0.0580 0.4351 0.1108
C2 C 0.1568(3) 0.40930(18) 0.2783(3)
C3 C 0.2307(3) 0.45172(16) 0.3054(4)
H8 H 0.2128 0.4859 0.2682
C4 C 0.3293(3) 0.44454(13) 0.3852(3)
H9 H 0.3775 0.4736 0.4028
C5 C 0.3566(2) 0.39379(12) 0.4393(3)
C6 C 0.2851(3) 0.35108(13) 0.4133(3)
H10 H 0.3037 0.3168 0.4495
C7 C 0.1857(3) 0.35916(17) 0.3334(4)
H11 H 0.1373 0.3301 0.3166
C8 C 0.5072(2) 0.39999(11) 0.7890(3)
C9 C 0.4017(2) 0.47226(11) 0.8797(3)
C10 C 0.3968(2) 0.51430(12) 0.7898(3)
H12 H 0.4417 0.5140 0.7282
C11 C 0.3247(3) 0.55696(13) 0.7914(3)
H13 H 0.3203 0.5850 0.7300
C12 C 0.2594(3) 0.55777(14) 0.8843(4)
H14 H 0.2115 0.5866 0.8861
C13 C 0.2652(3) 0.51624(15) 0.9735(4)
H15 H 0.2208 0.5170 1.0357
C14 C 0.3356(3) 0.47326(13) 0.9730(3)
H16 H 0.3390 0.4452 1.0344
C15 C 0.5801(2) 0.35332(11) 0.8346(3)
C16 C 0.5405(2) 0.30979(12) 0.8962(3)
C17 C 0.4223(2) 0.30686(11) 0.9002(3)
C18 C 0.3489(3) 0.29546(13) 0.7857(3)
H17 H 0.3737 0.2904 0.7075
C19 C 0.2403(3) 0.29155(14) 0.7859(4)
H18 H 0.1922 0.2839 0.7082
C20 C 0.2024(3) 0.29888(14) 0.9010(4)
H19 H 0.1287 0.2959 0.9007
C21 C 0.2719(3) 0.31039(14) 1.0155(4)
H20 H 0.2461 0.3157 1.0930
C22 C 0.3824(3) 0.31416(13) 1.0151(3)
C23 C 0.6934(2) 0.35518(12) 0.8213(3)
C24 C 0.8312(2) 0.40239(12) 0.7202(3)
C25 C 0.8443(3) 0.41623(16) 0.5962(3)
H21 H 0.7845 0.4182 0.5282
C26 C 0.9459(3) 0.42734(17) 0.5716(4)
H22 H 0.9532 0.4368 0.4867
C27 C 1.0359(3) 0.42487(14) 0.6682(4)
C28 C 1.0211(3) 0.41179(15) 0.7929(4)
H23 H 1.0809 0.4102 0.8610
C29 C 0.9201(3) 0.40095(14) 0.8198(3)
H24 H 0.9123 0.3927 0.9052
C30 C 1.1484(3) 0.43767(19) 0.6429(4)
H25 H 1.1785 0.4677 0.6975
H26 H 1.1437 0.4473 0.5521
H27 H 1.1938 0.4061 0.6631
loop_
_geom_bond_atom_site_label_1
_geom_bond_atom_site_label_2
_geom_bond_site_symmetry_1
_geom_bond_site_symmetry_2
Br1 C22 1_555 1_555
S1 O1 1_555 1_555
O2 S1 1_555 1_555
O3 C23 1_555 1_555
N1 S1 1_555 1_555
N2 H1 1_555 1_555
N3 H2 1_555 1_555
H3 N3 1_555 1_555
N4 H4 1_555 1_555
C1 H5 1_555 1_555
H6 C1 1_555 1_555
H7 C1 1_555 1_555
C2 C1 1_555 1_555
C3 C2 1_555 1_555
H8 C3 1_555 1_555
C4 C3 1_555 1_555
H9 C4 1_555 1_555
C5 S1 1_555 1_555
C6 C5 1_555 1_555
H10 C6 1_555 1_555
C7 C2 1_555 1_555
H11 C7 1_555 1_555
C8 N1 1_555 1_555
C9 N2 1_555 1_555
C10 C9 1_555 1_555
H12 C10 1_555 1_555
C11 C10 1_555 1_555
H13 C11 1_555 1_555
C12 C11 1_555 1_555
H14 C12 1_555 1_555
C13 C12 1_555 1_555
H15 C13 1_555 1_555
C14 C9 1_555 1_555
H16 C14 1_555 1_555
C15 C8 1_555 1_555
C16 N3 1_555 1_555
C17 C16 1_555 1_555
C18 C17 1_555 1_555
H17 C18 1_555 1_555
C19 C18 1_555 1_555
H18 C19 1_555 1_555
C20 C19 1_555 1_555
H19 C20 1_555 1_555
C21 C20 1_555 1_555
H20 C21 1_555 1_555
C22 C17 1_555 1_555
C23 N4 1_555 1_555
C24 N4 1_555 1_555
C25 C24 1_555 1_555
H21 C25 1_555 1_555
C26 C25 1_555 1_555
H22 C26 1_555 1_555
C27 C26 1_555 1_555
C28 C27 1_555 1_555
H23 C28 1_555 1_555
C29 C24 1_555 1_555
H24 C29 1_555 1_555
C30 C27 1_555 1_555
H25 C30 1_555 1_555
H26 C30 1_555 1_555
H27 C30 1_555 1_555
N2 C8 1_555 1_555
C4 C5 1_555 1_555
C6 C7 1_555 1_555
C13 C14 1_555 1_555
C15 C16 1_555 1_555
C15 C23 1_555 1_555
C21 C22 1_555 1_555
C28 C29 1_555 1_555

#END
