
#######################################################################
#
#                 Cambridge Crystallographic Data Centre
#                                CCDC 
#
#######################################################################
#
# If this CIF has been generated from an entry in the Cambridge 
# Structural Database, then it will include bibliographic, chemical, 
# crystal, experimental, refinement or atomic coordinate data resulting 
# from the CCDC's data processing and validation procedures.
#
#######################################################################

data_OHURIU
_chemical_formula_moiety         'C27 H37 N2 1+,F6 P1 1-'
_chemical_name_systematic        
'1,3-bis(2,6-diisopropylphenyl)-1H-imidazolium hexafluorophosphate'
_symmetry_cell_setting           monoclinic
_symmetry_space_group_name_H-M   'C 2/c'
_symmetry_Int_Tables_number      15
_space_group_name_Hall           '-C 2yn'
loop_
_symmetry_equiv_pos_site_id
_symmetry_equiv_pos_as_xyz
1 x,y,z
2 -x,y,1/2-z
3 1/2+x,1/2+y,z
4 1/2-x,1/2+y,1/2-z
5 -x,-y,-z
6 x,-y,1/2+z
7 1/2-x,1/2-y,-z
8 1/2+x,1/2-y,1/2+z
_cell_length_a                   16.1889(19)
_cell_length_b                   9.7768(9)
_cell_length_c                   17.6225(17)
_cell_angle_alpha                90
_cell_angle_beta                 90.820(4)
_cell_angle_gamma                90
_cell_volume                     2788.93
_exptl_crystal_colour            colorless
_exptl_crystal_description       block
_cell_formula_units_Z            4
loop_
_atom_site_label
_atom_site_type_symbol
_atom_site_fract_x
_atom_site_fract_y
_atom_site_fract_z
N1 N 0.48047(7) 0.33706(12) 0.19113(6)
C1 C 0.5000 0.2580(2) 0.2500
H1 H 0.5000 0.1608 0.2500
C2 C 0.45691(9) 0.28438(14) 0.11692(8)
C3 C 0.51744(9) 0.27881(15) 0.06126(8)
C4 C 0.48771(9) 0.47239(15) 0.21316(9)
H2 H 0.4774 0.5505 0.1824
C5 C 0.37589(9) 0.23700(16) 0.10678(8)
C6 C 0.49424(10) 0.22073(17) -0.00806(9)
H3 H 0.5335 0.2143 -0.0474
C7 C 0.35646(10) 0.18053(18) 0.03604(9)
H4 H 0.3022 0.1471 0.0264
C8 C 0.41502(10) 0.17239(18) -0.02048(9)
H5 H 0.4005 0.1332 -0.0682
C9 C 0.31129(9) 0.25084(18) 0.16815(9)
H6 H 0.3405 0.2440 0.2184
C10 C 0.60555(9) 0.32676(17) 0.07550(9)
H7 H 0.6061 0.3843 0.1224
C11 C 0.24569(11) 0.1379(2) 0.16490(11)
H8 H 0.2111 0.1497 0.1193
H9 H 0.2111 0.1435 0.2100
H10 H 0.2728 0.0484 0.1634
C12 C 0.27106(11) 0.39214(19) 0.16350(10)
H11 H 0.3133 0.4628 0.1714
H12 H 0.2291 0.4001 0.2027
H13 H 0.2451 0.4041 0.1134
C13 C 0.63700(11) 0.41471(19) 0.01015(10)
H14 H 0.6367 0.3607 -0.0367
H15 H 0.6934 0.4453 0.0218
H16 H 0.6010 0.4945 0.0035
C14 C 0.66197(11) 0.2036(2) 0.08993(12)
H17 H 0.6411 0.1504 0.1327
H18 H 0.7180 0.2355 0.1018
H19 H 0.6629 0.1459 0.0445
N1A N 0.51953(7) 0.33706(12) 0.30887(6)
C2A C 0.54309(9) 0.28438(14) 0.38308(8)
C3A C 0.48256(9) 0.27881(15) 0.43874(8)
C4A C 0.51229(9) 0.47239(15) 0.28684(9)
H2A H 0.5226 0.5505 0.3176
C5A C 0.62411(9) 0.23700(16) 0.39322(8)
C6A C 0.50576(10) 0.22073(17) 0.50806(9)
H3A H 0.4665 0.2143 0.5474
C7A C 0.64354(10) 0.18053(18) 0.46396(9)
H4A H 0.6978 0.1471 0.4736
C8A C 0.58498(10) 0.17239(18) 0.52048(9)
H5A H 0.5995 0.1332 0.5682
C9A C 0.68871(9) 0.25084(18) 0.33185(9)
H6A H 0.6595 0.2440 0.2816
C10A C 0.39445(9) 0.32676(17) 0.42450(9)
H7A H 0.3939 0.3843 0.3776
C11A C 0.75431(11) 0.1379(2) 0.33510(11)
H8A H 0.7889 0.1497 0.3807
H9A H 0.7889 0.1435 0.2900
H10A H 0.7272 0.0484 0.3366
C12A C 0.72894(11) 0.39214(19) 0.33650(10)
H11A H 0.6867 0.4628 0.3286
H12A H 0.7709 0.4001 0.2973
H13A H 0.7549 0.4041 0.3866
C13A C 0.36300(11) 0.41471(19) 0.48985(10)
H14A H 0.3633 0.3607 0.5367
H15A H 0.3066 0.4453 0.4782
H16A H 0.3990 0.4945 0.4965
C14A C 0.33803(11) 0.2036(2) 0.41007(12)
H17A H 0.3589 0.1504 0.3673
H18A H 0.2820 0.2355 0.3982
H19A H 0.3371 0.1459 0.4555
P1? P 0.51194(12) 0.86560(8) 0.25861(14)
F1? F 0.4432(3) 0.7634(5) 0.2886(3)
F2? F 0.57818(16) 0.7856(2) 0.30905(15)
F3? F 0.58086(14) 0.9699(2) 0.23107(16)
F4? F 0.49520(19) 0.9660(2) 0.32841(14)
F5? F 0.44571(19) 0.9478(3) 0.2100(2)
F6? F 0.5320(3) 0.7671(5) 0.1908(2)
loop_
_geom_bond_atom_site_label_1
_geom_bond_atom_site_label_2
_geom_bond_site_symmetry_1
_geom_bond_site_symmetry_2
N1 C1 1_555 1_555
C1 H1 1_555 1_555
C2 N1 1_555 1_555
C3 C2 1_555 1_555
C4 N1 1_555 1_555
H2 C4 1_555 1_555
C5 C2 1_555 1_555
C6 C3 1_555 1_555
H3 C6 1_555 1_555
C7 C5 1_555 1_555
H4 C7 1_555 1_555
C8 C6 1_555 1_555
H5 C8 1_555 1_555
C9 C5 1_555 1_555
H6 C9 1_555 1_555
C10 C3 1_555 1_555
H7 C10 1_555 1_555
C11 C9 1_555 1_555
H8 C11 1_555 1_555
H9 C11 1_555 1_555
H10 C11 1_555 1_555
C12 C9 1_555 1_555
H11 C12 1_555 1_555
H12 C12 1_555 1_555
H13 C12 1_555 1_555
C13 C10 1_555 1_555
H14 C13 1_555 1_555
H15 C13 1_555 1_555
H16 C13 1_555 1_555
C14 C10 1_555 1_555
H17 C14 1_555 1_555
H18 C14 1_555 1_555
H19 C14 1_555 1_555
N1A C1 1_555 1_555
C2A N1A 1_555 1_555
C3A C2A 1_555 1_555
C4A C4 1_555 1_555
H2A C4A 1_555 1_555
C5A C2A 1_555 1_555
C6A C3A 1_555 1_555
H3A C6A 1_555 1_555
C7A C5A 1_555 1_555
H4A C7A 1_555 1_555
C8A C6A 1_555 1_555
H5A C8A 1_555 1_555
C9A C5A 1_555 1_555
H6A C9A 1_555 1_555
C10A C3A 1_555 1_555
H7A C10A 1_555 1_555
C11A C9A 1_555 1_555
H8A C11A 1_555 1_555
H9A C11A 1_555 1_555
H10A C11A 1_555 1_555
C12A C9A 1_555 1_555
H11A C12A 1_555 1_555
H12A C12A 1_555 1_555
H13A C12A 1_555 1_555
C13A C10A 1_555 1_555
H14A C13A 1_555 1_555
H15A C13A 1_555 1_555
H16A C13A 1_555 1_555
C14A C10A 1_555 1_555
H17A C14A 1_555 1_555
H18A C14A 1_555 1_555
H19A C14A 1_555 1_555
C7 C8 1_555 1_555
N1A C4A 1_555 1_555
C7A C8A 1_555 1_555

#END
