
#######################################################################
#
#                 Cambridge Crystallographic Data Centre
#                                CCDC 
#
#######################################################################
#
# If this CIF has been generated from an entry in the Cambridge 
# Structural Database, then it will include bibliographic, chemical, 
# crystal, experimental, refinement or atomic coordinate data resulting 
# from the CCDC's data processing and validation procedures.
#
#######################################################################

data_OJEHAO
_chemical_formula_moiety         'C44 H28 N4 O4,0.18(H2 O1)'
_chemical_name_systematic        
'27,28-dihydroxy-25,30-diphenyl-11,34,35,36-tetraazaoctacyclo[29.2.1.1^21,24^.1^26,29^.0^2,10^.0^3,8^.0^12,20^.0^14,19^]hexatriaconta-1,3,5,7,10,12(20),14,16,18,21,23,25,29(35),30,32-pentadecaene-9,13-dione unknown solvate hydrate'
_symmetry_cell_setting           triclinic
_symmetry_space_group_name_H-M   'P -1'
_symmetry_Int_Tables_number      2
_space_group_name_Hall           '-P 1'
loop_
_symmetry_equiv_pos_site_id
_symmetry_equiv_pos_as_xyz
1 x,y,z
2 -x,-y,-z
_cell_length_a                   17.909(9)
_cell_length_b                   20.969(11)
_cell_length_c                   22.040(11)
_cell_angle_alpha                74.660(7)
_cell_angle_beta                 82.821(7)
_cell_angle_gamma                89.388(7)
_cell_volume                     7917.15
_exptl_crystal_colour            black
_exptl_crystal_description       plate
_cell_formula_units_Z            8
loop_
_atom_site_label
_atom_site_type_symbol
_atom_site_fract_x
_atom_site_fract_y
_atom_site_fract_z
O1 O 0.3288(2) 0.80075(16) 0.28715(16)
N1 N 0.4848(3) 0.7517(2) 0.25158(18)
N2 N 0.5988(3) 0.80010(19) 0.14443(19)
H1 H 0.5991 0.7832 0.1854
N3 N 0.7102(3) 0.75485(19) 0.2278(2)
N4 N 0.5994(3) 0.70934(18) 0.33456(19)
H2 H 0.5997 0.7259 0.2934
O2 O 0.3365(2) 0.68740(16) 0.24616(17)
C1 C 0.3679(4) 0.8209(2) 0.2357(3)
C2 C 0.4453(3) 0.7975(2) 0.2162(2)
C3 C 0.4718(3) 0.8389(2) 0.1545(2)
C4 C 0.5384(3) 0.8311(2) 0.1188(3)
C5 C 0.5619(4) 0.8508(3) 0.0512(2)
H3 H 0.5332 0.8752 0.0198
C6 C 0.6322(4) 0.8285(3) 0.0405(3)
H4 H 0.6596 0.8325 -0.0002
C7 C 0.6592(4) 0.7977(3) 0.0999(2)
C8 C 0.7305(3) 0.7755(3) 0.1120(3)
C9 C 0.7553(4) 0.7587(3) 0.1717(3)
C10 C 0.8360(6) 0.7456(8) 0.1819(5)
H5 H 0.8710 0.7763 0.1481
C11 C 0.8376(5) 0.7595(8) 0.2453(5)
H6 H 0.8547 0.8062 0.2394
C12 C 0.7557(4) 0.7504(2) 0.2729(3)
C13 C 0.7321(3) 0.7374(2) 0.3383(3)
C14 C 0.6595(4) 0.7149(2) 0.3669(2)
C15 C 0.6315(4) 0.6857(2) 0.4317(2)
H7 H 0.6579 0.6845 0.4668
C16 C 0.5611(4) 0.6598(2) 0.4356(2)
H8 H 0.5317 0.6355 0.4734
C17 C 0.5387(3) 0.6749(2) 0.3741(2)
C18 C 0.4728(3) 0.6631(2) 0.3522(2)
C19 C 0.4473(3) 0.7012(2) 0.2960(2)
C20 C 0.3730(4) 0.6713(2) 0.2900(2)
C21 C 0.4125(2) 0.88881(17) 0.13457(18)
C22 C 0.3519(2) 0.87657(15) 0.18238(14)
C23 C 0.2904(2) 0.91780(19) 0.17722(16)
H9 H 0.2490 0.9094 0.2099
C24 C 0.2895(2) 0.97127(17) 0.12424(19)
H10 H 0.2475 0.9994 0.1207
C25 C 0.3502(3) 0.98351(15) 0.07643(14)
H11 H 0.3496 1.0201 0.0402
C26 C 0.4116(2) 0.94228(19) 0.08159(15)
H12 H 0.4531 0.9507 0.0489
C27 C 0.7862(2) 0.7755(3) 0.05482(17)
C28 C 0.8237(3) 0.8335(2) 0.0190(2)
H13 H 0.8129 0.8741 0.0294
C29 C 0.8771(3) 0.8322(3) -0.0322(2)
H14 H 0.9028 0.8719 -0.0567
C30 C 0.8931(2) 0.7729(4) -0.04744(19)
H15 H 0.9296 0.7720 -0.0824
C31 C 0.8556(3) 0.7149(3) -0.0116(3)
H16 H 0.8664 0.6743 -0.0220
C32 C 0.8021(3) 0.7162(2) 0.0396(2)
H17 H 0.7765 0.6765 0.0641
C33 C 0.7887(2) 0.7417(2) 0.38191(18)
C34 C 0.8216(3) 0.68517(17) 0.4156(2)
H18 H 0.8063 0.6428 0.4129
C35 C 0.8769(3) 0.6906(3) 0.4531(2)
H19 H 0.8994 0.6519 0.4761
C36 C 0.8993(2) 0.7525(3) 0.4569(2)
H20 H 0.9371 0.7562 0.4825
C37 C 0.8664(3) 0.8090(2) 0.4232(2)
H21 H 0.8817 0.8514 0.4259
C38 C 0.8111(3) 0.80364(18) 0.3857(2)
H22 H 0.7886 0.8423 0.3627
C39 C 0.41595(18) 0.60942(13) 0.38240(15)
C40 C 0.41669(19) 0.55673(16) 0.43606(14)
H23 H 0.4567 0.5531 0.4612
C41 C 0.3588(2) 0.50928(13) 0.45299(13)
H24 H 0.3593 0.4733 0.4897
C42 C 0.30021(19) 0.51453(15) 0.41625(17)
H25 H 0.2607 0.4821 0.4278
C43 C 0.29947(18) 0.56722(17) 0.36259(16)
H26 H 0.2594 0.5708 0.3375
C44 C 0.3573(2) 0.61467(13) 0.34566(12)
O3 O 0.8508(4) 0.6773(4) 0.1835(3)
H27 H 0.8331 0.6687 0.1529
O4 O 0.8906(5) 0.7147(5) 0.2765(3)
H28 H 0.8948 0.7216 0.3117
O5 O 0.8909(3) 0.7569(3) 0.6405(3)
N5 N 0.7409(3) 0.7711(3) 0.7175(3)
N6 N 0.6123(4) 0.8570(2) 0.6749(2)
H29 H 0.6156 0.8163 0.6985
N7 N 0.5024(3) 0.7549(2) 0.7520(2)
N8 N 0.6287(4) 0.6671(3) 0.7973(2)
H30 H 0.6260 0.7077 0.7732
O6 O 0.8980(4) 0.8039(3) 0.7437(3)
C45 C 0.8524(5) 0.8061(4) 0.6328(4)
C46 C 0.7770(5) 0.8160(4) 0.6666(4)
C47 C 0.7464(5) 0.8748(4) 0.6316(3)
C48 C 0.6736(5) 0.8963(4) 0.6404(3)
C49 C 0.6451(5) 0.9592(3) 0.6122(3)
H31 H 0.6736 0.9971 0.5873
C50 C 0.5690(5) 0.9548(3) 0.6278(3)
H32 H 0.5359 0.9900 0.6144
C51 C 0.5451(4) 0.8903(3) 0.6671(3)
C52 C 0.4725(4) 0.8649(3) 0.6915(2)
C53 C 0.4547(4) 0.8029(3) 0.7302(3)
C54 C 0.3729(6) 0.7801(6) 0.7491(9)
H33 H 0.3440 0.7896 0.7118
C55 C 0.3782(6) 0.7096(6) 0.7775(9)
H34 H 0.3714 0.6893 0.7422
C56 C 0.4608(4) 0.6995(3) 0.7858(3)
C57 C 0.4901(5) 0.6398(3) 0.8199(3)
C58 C 0.5667(5) 0.6258(3) 0.8229(3)
C59 C 0.5954(6) 0.5641(4) 0.8558(3)
H35 H 0.5671 0.5248 0.8774
C60 C 0.6716(7) 0.5730(4) 0.8500(4)
H36 H 0.7047 0.5397 0.8682
C61 C 0.6958(6) 0.6376(4) 0.8137(4)
C62 C 0.7653(5) 0.6720(5) 0.7974(4)
C63 C 0.7841(5) 0.7324(4) 0.7554(4)
C64 C 0.8633(6) 0.7502(5) 0.7659(4)
C65 C 0.8093(3) 0.9075(4) 0.5798(2)
C66 C 0.8712(4) 0.8668(3) 0.5811(3)
C67 C 0.9337(3) 0.8855(4) 0.5357(4)
H37 H 0.9760 0.8577 0.5366
C68 C 0.9343(3) 0.9449(4) 0.4889(3)
H38 H 0.9771 0.9577 0.4579
C69 C 0.8724(5) 0.9856(3) 0.4876(3)
H39 H 0.8729 1.0261 0.4556
C70 C 0.8099(3) 0.9669(3) 0.5330(3)
H40 H 0.7676 0.9947 0.5321
C71 C 0.4134(2) 0.91383(18) 0.6681(2)
C72 C 0.4046(3) 0.9309(2) 0.6040(2)
H41 H 0.4362 0.9124 0.5755
C73 C 0.3495(3) 0.9750(2) 0.58178(18)
H42 H 0.3435 0.9867 0.5380
C74 C 0.3032(2) 1.00212(18) 0.6235(3)
H43 H 0.2656 1.0323 0.6083
C75 C 0.3121(3) 0.9851(2) 0.6876(3)
H44 H 0.2805 1.0036 0.7161
C76 C 0.3672(3) 0.9409(2) 0.70984(16)
H45 H 0.3732 0.9293 0.7536
C77 C 0.4343(3) 0.5843(2) 0.8562(3)
C78 C 0.3943(4) 0.5491(3) 0.8251(2)
H46 H 0.4001 0.5604 0.7801
C79 C 0.3458(3) 0.4974(3) 0.8599(3)
H47 H 0.3185 0.4733 0.8386
C80 C 0.3374(3) 0.4809(2) 0.9258(3)
H48 H 0.3042 0.4455 0.9495
C81 C 0.3774(4) 0.5161(3) 0.9569(2)
H49 H 0.3716 0.5048 1.0019
C82 C 0.4259(3) 0.5678(3) 0.9221(3)
H50 H 0.4532 0.5919 0.9434
C83 C 0.8318(4) 0.6471(5) 0.8314(4)
C84 C 0.8405(5) 0.5881(4) 0.8766(4)
H51 H 0.7998 0.5568 0.8908
C85 C 0.9086(7) 0.5748(4) 0.9009(3)
H52 H 0.9146 0.5344 0.9318
C86 C 0.9681(5) 0.6206(6) 0.8800(4)
H53 H 1.0146 0.6115 0.8966
C87 C 0.9593(5) 0.6796(5) 0.8348(4)
H54 H 1.0000 0.7109 0.8206
C88 C 0.8912(6) 0.6929(4) 0.8105(3)
O7 O 0.3385(5) 0.8102(4) 0.7990(4)
H55 H 0.3672 0.8062 0.8271
O8 O 0.3220(5) 0.6796(3) 0.8252(3)
H56 H 0.3398 0.6759 0.8594
O9 O 0.5458(2) 1.14858(16) 0.15141(15)
N9 N 0.4294(3) 1.0391(2) 0.20429(17)
N10 N 0.2623(3) 1.04788(19) 0.23553(18)
H57 H 0.2967 1.0245 0.2563
N11 N 0.2636(3) 0.9295(2) 0.33910(19)
N12 N 0.4295(3) 0.92012(18) 0.30953(18)
H58 H 0.3954 0.9461 0.2909
O10 O 0.5218(2) 1.06687(17) 0.07374(16)
C89 C 0.4793(4) 1.1529(2) 0.1429(2)
C90 C 0.4192(3) 1.1015(3) 0.1716(2)
C91 C 0.3486(4) 1.1318(2) 0.1627(2)
C92 C 0.2769(4) 1.1044(2) 0.1867(2)
C93 C 0.2060(4) 1.1247(3) 0.1662(3)
H59 H 0.1979 1.1622 0.1327
C94 C 0.1518(3) 1.0816(3) 0.2026(3)
H60 H 0.0996 1.0836 0.1987
C95 C 0.1864(4) 1.0332(3) 0.2473(3)
C96 C 0.1523(3) 0.9797(3) 0.2955(3)
C97 C 0.1880(4) 0.9332(3) 0.3379(2)
C98 C 0.1461(4) 0.8781(6) 0.3918(5)
H61 H 0.1295 0.8420 0.3743
C99 C 0.2047(5) 0.8535(5) 0.4341(4)
H62 H 0.2035 0.8041 0.4497
C100 C 0.2761(3) 0.8797(3) 0.3908(2)
C101 C 0.3459(4) 0.8563(2) 0.4057(2)
C102 C 0.4154(4) 0.8735(2) 0.3685(2)
C103 C 0.4868(3) 0.8454(2) 0.3808(2)
H63 H 0.4958 0.8126 0.4180
C104 C 0.5396(3) 0.8725(2) 0.3314(2)
H64 H 0.5914 0.8620 0.3283
C105 C 0.5043(3) 0.9198(2) 0.2846(2)
C106 C 0.5315(3) 0.9605(2) 0.2248(2)
C107 C 0.4956(3) 1.0132(2) 0.1878(2)
C108 C 0.5418(3) 1.0330(2) 0.1229(2)
C109 C 0.3644(4) 1.2003(2) 0.1202(2)
C110 C 0.4419(4) 1.2117(3) 0.1077(2)
C111 C 0.4747(3) 1.2701(3) 0.0687(3)
H65 H 0.5277 1.2771 0.0615
C112 C 0.4253(4) 1.3189(3) 0.0402(3)
H66 H 0.4454 1.3590 0.0117
C113 C 0.3487(4) 1.3089(3) 0.0534(2)
H67 H 0.3168 1.3428 0.0343
C114 C 0.3158(3) 1.2498(2) 0.0944(2)
H68 H 0.2627 1.2439 0.1041
C115 C 0.0691(3) 0.9779(3) 0.2981(2)
C116 C 0.0253(4) 1.0261(3) 0.3168(2)
H69 H 0.0484 1.0608 0.3286
C117 C -0.0525(4) 1.0236(4) 0.3183(3)
H70 H -0.0824 1.0566 0.3311
C118 C -0.0864(3) 0.9729(5) 0.3010(3)
H71 H -0.1396 0.9712 0.3020
C119 C -0.0426(5) 0.9247(3) 0.2823(3)
H72 H -0.0658 0.8900 0.2704
C120 C 0.0351(5) 0.9272(3) 0.2808(3)
H73 H 0.0651 0.8942 0.2680
C121 C 0.3450(2) 0.80054(15) 0.46494(15)
C122 C 0.3330(3) 0.81189(17) 0.52470(19)
H74 H 0.3269 0.8557 0.5287
C123 C 0.3298(3) 0.7591(2) 0.57869(14)
H75 H 0.3216 0.7669 0.6195
C124 C 0.3387(2) 0.6949(2) 0.57291(16)
H76 H 0.3365 0.6588 0.6098
C125 C 0.3507(2) 0.68358(14) 0.5131(2)
H77 H 0.3567 0.6397 0.5092
C126 C 0.3539(2) 0.73638(19) 0.45916(15)
H78 H 0.3621 0.7286 0.4183
C127 C 0.6072(3) 0.9541(2) 0.1907(2)
C128 C 0.6694(4) 0.9163(3) 0.2067(3)
H79 H 0.6672 0.8850 0.2470
C129 C 0.7357(4) 0.9239(3) 0.1637(3)
H80 H 0.7788 0.8992 0.1755
C130 C 0.7380(4) 0.9676(3) 0.1040(3)
H81 H 0.7827 0.9717 0.0749
C131 C 0.6769(4) 1.0052(3) 0.0861(3)
H82 H 0.6793 1.0354 0.0452
C132 C 0.6117(3) 0.9981(2) 0.1291(2)
O11 O 0.0820(4) 0.9002(4) 0.4284(3)
H83 H 0.0559 0.8674 0.4510
O12 O 0.1964(4) 0.8854(3) 0.4861(3)
H84 H 0.2379 0.9028 0.4878
O13 O 0.190(3) 0.734(3) 0.386(3)
O14 O 0.4960(2) 0.57788(15) 0.57927(15)
N13 N 0.5830(3) 0.54962(19) 0.69180(18)
N14 N 0.5809(3) 0.42828(18) 0.79761(18)
H85 H 0.6148 0.4579 0.7746
N15 N 0.7450(3) 0.4474(2) 0.7945(2)
N16 N 0.7480(3) 0.5661(2) 0.6881(2)
H86 H 0.7131 0.5413 0.7156
O15 O 0.4662(2) 0.65459(16) 0.66691(16)
C133 C 0.4754(3) 0.5392(2) 0.6319(2)
C134 C 0.5199(3) 0.5201(2) 0.6878(2)
C135 C 0.4828(3) 0.4636(2) 0.7302(2)
C136 C 0.5088(3) 0.4235(2) 0.7840(2)
C137 C 0.4731(3) 0.3698(2) 0.8337(2)
H87 H 0.4226 0.3541 0.8376
C138 C 0.5241(3) 0.3453(3) 0.8743(2)
H88 H 0.5147 0.3100 0.9118
C139 C 0.5936(3) 0.3808(2) 0.8519(2)
C140 C 0.6626(4) 0.3681(2) 0.8761(2)
C141 C 0.7309(4) 0.3990(3) 0.8490(3)
C142 C 0.8019(4) 0.3849(4) 0.8823(3)
H89 H 0.8065 0.3368 0.9035
C143 C 0.8634(4) 0.4097(4) 0.8292(4)
H90 H 0.8815 0.3718 0.8122
C144 C 0.8213(4) 0.4568(3) 0.7794(3)
C145 C 0.8570(4) 0.5042(3) 0.7282(3)
C146 C 0.8236(4) 0.5539(3) 0.6854(3)
C147 C 0.8604(4) 0.6042(3) 0.6365(3)
H91 H 0.9131 0.6088 0.6231
C148 C 0.8064(4) 0.6455(3) 0.6116(3)
H92 H 0.8162 0.6847 0.5780
C149 C 0.7337(4) 0.6227(3) 0.6422(2)
C150 C 0.6623(4) 0.6473(2) 0.6338(2)
C151 C 0.5940(3) 0.6136(3) 0.6579(2)
C152 C 0.5326(4) 0.6625(3) 0.6432(2)
C153 C 0.4090(3) 0.4532(2) 0.7089(2)
C154 C 0.4063(3) 0.4975(2) 0.6484(2)
C155 C 0.3449(4) 0.5012(2) 0.6157(2)
H93 H 0.3445 0.5320 0.5755
C156 C 0.2837(3) 0.4587(3) 0.6429(3)
H94 H 0.2410 0.4597 0.6212
C157 C 0.2857(3) 0.4147(2) 0.7023(3)
H95 H 0.2431 0.3867 0.7213
C158 C 0.3481(3) 0.4104(2) 0.7347(2)
H96 H 0.3490 0.3784 0.7742
C159 C 0.6626(3) 0.3094(3) 0.9328(2)
C160 C 0.6514(4) 0.2462(3) 0.9282(3)
H97 H 0.6402 0.2400 0.8891
C161 C 0.6561(4) 0.1917(3) 0.9783(3)
H98 H 0.6467 0.1488 0.9739
C162 C 0.6742(3) 0.1991(3) 1.0345(3)
H99 H 0.6784 0.1613 1.0688
C163 C 0.6862(4) 0.2612(3) 1.0411(3)
H100 H 0.6987 0.2663 1.0803
C164 C 0.6803(3) 0.3167(3) 0.9912(3)
H101 H 0.6883 0.3596 0.9963
C165 C 0.9421(3) 0.5072(4) 0.7188(3)
C166 C 0.9780(5) 0.4565(3) 0.6976(3)
H102 H 0.9491 0.4234 0.6883
C167 C 1.0561(5) 0.4543(3) 0.6901(3)
H103 H 1.0806 0.4197 0.6757
C168 C 1.0983(3) 0.5028(4) 0.7038(3)
H104 H 1.1517 0.5014 0.6986
C169 C 1.0624(4) 0.5535(3) 0.7249(3)
H105 H 1.0913 0.5867 0.7342
C170 C 0.9843(5) 0.5557(3) 0.7324(3)
H106 H 0.9598 0.5903 0.7468
C171 C 0.6466(4) 0.7143(2) 0.5933(2)
C172 C 0.6935(4) 0.7651(3) 0.5533(2)
H107 H 0.7467 0.7608 0.5479
C173 C 0.6596(4) 0.8217(3) 0.5221(3)
H108 H 0.6908 0.8565 0.4945
C174 C 0.5830(5) 0.8303(3) 0.5288(3)
H109 H 0.5625 0.8703 0.5063
C175 C 0.5357(4) 0.7801(2) 0.5690(2)
H110 H 0.4827 0.7847 0.5746
C176 C 0.5691(4) 0.7234(3) 0.6002(2)
O16 O 0.8010(3) 0.4258(3) 0.9269(3)
H111 H 0.8287 0.4089 0.9547
O17 O 0.9254(4) 0.4356(3) 0.8516(3)
H112 H 0.9487 0.4645 0.8214
O18 O 0.8651(17) 0.2879(12) 0.7382(15)
O19 O 0.8188(16) 0.2581(12) 0.8143(14)
C177? C 0.8353(7) 0.7412(12) 0.1834(6)
H113? H 0.8423 0.6927 0.1886
C178? C 0.8381(7) 0.7569(10) 0.2456(7)
H114? H 0.8690 0.7243 0.2733
O20? O 0.8966(5) 0.7782(5) 0.1394(4)
H115? H 0.8831 0.8176 0.1277
O21? O 0.8635(6) 0.8245(5) 0.2384(4)
H116? H 0.9033 0.8328 0.2129
C179? C 0.3744(7) 0.7826(7) 0.7575(12)
H117? H 0.3629 0.8010 0.7950
C180? C 0.3756(8) 0.7103(7) 0.7825(11)
H118? H 0.3470 0.6965 0.8260
O22? O 0.3147(7) 0.8018(5) 0.7197(4)
H119? H 0.2919 0.7674 0.7186
O23? O 0.3446(7) 0.6757(6) 0.7403(6)
H120? H 0.3794 0.6545 0.7259
C181? C 0.1445(8) 0.883(2) 0.395(2)
H121? H 0.1265 0.9104 0.4246
C182? C 0.2044(10) 0.8425(13) 0.4251(14)
H122? H 0.1991 0.8363 0.4720
O24? O 0.0768(19) 0.8511(17) 0.3863(13)
H123? H 0.0862 0.8122 0.3847
O25? O 0.1986(14) 0.7812(17) 0.4077(19)
H124? H 0.2410 0.7715 0.3921
C183? C 0.7981(14) 0.3532(11) 0.8526(17)
H125? H 0.8243 0.3608 0.8876
C184? C 0.8480(16) 0.3845(9) 0.7937(18)
H126? H 0.8998 0.3852 0.8060
O26? O 0.7973(18) 0.2832(13) 0.8619(17)
H127? H 0.8409 0.2693 0.8553
O27? O 0.8487(17) 0.3368(17) 0.7562(14)
H128? H 0.8928 0.3233 0.7507
loop_
_geom_bond_atom_site_label_1
_geom_bond_atom_site_label_2
_geom_bond_site_symmetry_1
_geom_bond_site_symmetry_2
O1 C1 1_555 1_555
N1 C2 1_555 1_555
N2 H1 1_555 1_555
N3 C9 1_555 1_555
N4 H2 1_555 1_555
O2 C20 1_555 1_555
C1 C2 1_555 1_555
C2 C3 1_555 1_555
C3 C4 1_555 1_555
C4 N2 1_555 1_555
C5 C4 1_555 1_555
H3 C5 1_555 1_555
C6 C5 1_555 1_555
H4 C6 1_555 1_555
C7 N2 1_555 1_555
C8 C7 1_555 1_555
C9 C8 1_555 1_555
C10 C9 1_555 1_555
H5 C10 1_555 1_555
C11 C10 1_555 1_555
H6 C11 1_555 1_555
C12 N3 1_555 1_555
C13 C12 1_555 1_555
C14 N4 1_555 1_555
C15 C14 1_555 1_555
H7 C15 1_555 1_555
C16 C15 1_555 1_555
H8 C16 1_555 1_555
C17 N4 1_555 1_555
C18 C17 1_555 1_555
C19 N1 1_555 1_555
C20 C19 1_555 1_555
C21 C3 1_555 1_555
C22 C1 1_555 1_555
C23 C22 1_555 1_555
H9 C23 1_555 1_555
C24 C23 1_555 1_555
H10 C24 1_555 1_555
C25 C24 1_555 1_555
H11 C25 1_555 1_555
C26 C21 1_555 1_555
H12 C26 1_555 1_555
C27 C8 1_555 1_555
C28 C27 1_555 1_555
H13 C28 1_555 1_555
C29 C28 1_555 1_555
H14 C29 1_555 1_555
C30 C29 1_555 1_555
H15 C30 1_555 1_555
C31 C30 1_555 1_555
H16 C31 1_555 1_555
C32 C27 1_555 1_555
H17 C32 1_555 1_555
C33 C13 1_555 1_555
C34 C33 1_555 1_555
H18 C34 1_555 1_555
C35 C34 1_555 1_555
H19 C35 1_555 1_555
C36 C35 1_555 1_555
H20 C36 1_555 1_555
C37 C36 1_555 1_555
H21 C37 1_555 1_555
C38 C33 1_555 1_555
H22 C38 1_555 1_555
C39 C18 1_555 1_555
C40 C39 1_555 1_555
H23 C40 1_555 1_555
C41 C40 1_555 1_555
H24 C41 1_555 1_555
C42 C41 1_555 1_555
H25 C42 1_555 1_555
C43 C42 1_555 1_555
H26 C43 1_555 1_555
C44 C20 1_555 1_555
O3 C10 1_555 1_555
H27 O3 1_555 1_555
O4 C11 1_555 1_555
H28 O4 1_555 1_555
O5 C45 1_555 1_555
N5 C46 1_555 1_555
N6 H29 1_555 1_555
N7 C53 1_555 1_555
N8 H30 1_555 1_555
O6 C64 1_555 1_555
C45 C46 1_555 1_555
C46 C47 1_555 1_555
C47 C48 1_555 1_555
C48 N6 1_555 1_555
C49 C48 1_555 1_555
H31 C49 1_555 1_555
C50 C49 1_555 1_555
H32 C50 1_555 1_555
C51 N6 1_555 1_555
C52 C51 1_555 1_555
C53 C52 1_555 1_555
C54 C53 1_555 1_555
H33 C54 1_555 1_555
C55 C54 1_555 1_555
H34 C55 1_555 1_555
C56 N7 1_555 1_555
C57 C56 1_555 1_555
C58 N8 1_555 1_555
C59 C58 1_555 1_555
H35 C59 1_555 1_555
C60 C59 1_555 1_555
H36 C60 1_555 1_555
C61 N8 1_555 1_555
C62 C61 1_555 1_555
C63 N5 1_555 1_555
C64 C63 1_555 1_555
C65 C47 1_555 1_555
C66 C45 1_555 1_555
C67 C66 1_555 1_555
H37 C67 1_555 1_555
C68 C67 1_555 1_555
H38 C68 1_555 1_555
C69 C68 1_555 1_555
H39 C69 1_555 1_555
C70 C65 1_555 1_555
H40 C70 1_555 1_555
C71 C52 1_555 1_555
C72 C71 1_555 1_555
H41 C72 1_555 1_555
C73 C72 1_555 1_555
H42 C73 1_555 1_555
C74 C73 1_555 1_555
H43 C74 1_555 1_555
C75 C74 1_555 1_555
H44 C75 1_555 1_555
C76 C71 1_555 1_555
H45 C76 1_555 1_555
C77 C57 1_555 1_555
C78 C77 1_555 1_555
H46 C78 1_555 1_555
C79 C78 1_555 1_555
H47 C79 1_555 1_555
C80 C79 1_555 1_555
H48 C80 1_555 1_555
C81 C80 1_555 1_555
H49 C81 1_555 1_555
C82 C77 1_555 1_555
H50 C82 1_555 1_555
C83 C62 1_555 1_555
C84 C83 1_555 1_555
H51 C84 1_555 1_555
C85 C84 1_555 1_555
H52 C85 1_555 1_555
C86 C85 1_555 1_555
H53 C86 1_555 1_555
C87 C86 1_555 1_555
H54 C87 1_555 1_555
C88 C64 1_555 1_555
O7 C54 1_555 1_555
H55 O7 1_555 1_555
O8 C55 1_555 1_555
H56 O8 1_555 1_555
O9 C89 1_555 1_555
N9 C90 1_555 1_555
N10 H57 1_555 1_555
N11 C97 1_555 1_555
N12 H58 1_555 1_555
O10 C108 1_555 1_555
C89 C90 1_555 1_555
C90 C91 1_555 1_555
C91 C92 1_555 1_555
C92 N10 1_555 1_555
C93 C92 1_555 1_555
H59 C93 1_555 1_555
C94 C93 1_555 1_555
H60 C94 1_555 1_555
C95 N10 1_555 1_555
C96 C95 1_555 1_555
C97 C96 1_555 1_555
C98 C97 1_555 1_555
H61 C98 1_555 1_555
C99 C98 1_555 1_555
H62 C99 1_555 1_555
C100 N11 1_555 1_555
C101 C100 1_555 1_555
C102 N12 1_555 1_555
C103 C102 1_555 1_555
H63 C103 1_555 1_555
C104 C103 1_555 1_555
H64 C104 1_555 1_555
C105 N12 1_555 1_555
C106 C105 1_555 1_555
C107 N9 1_555 1_555
C108 C107 1_555 1_555
C109 C91 1_555 1_555
C110 C89 1_555 1_555
C111 C110 1_555 1_555
H65 C111 1_555 1_555
C112 C111 1_555 1_555
H66 C112 1_555 1_555
C113 C112 1_555 1_555
H67 C113 1_555 1_555
C114 C109 1_555 1_555
H68 C114 1_555 1_555
C115 C96 1_555 1_555
C116 C115 1_555 1_555
H69 C116 1_555 1_555
C117 C116 1_555 1_555
H70 C117 1_555 1_555
C118 C117 1_555 1_555
H71 C118 1_555 1_555
C119 C118 1_555 1_555
H72 C119 1_555 1_555
C120 C115 1_555 1_555
H73 C120 1_555 1_555
C121 C101 1_555 1_555
C122 C121 1_555 1_555
H74 C122 1_555 1_555
C123 C122 1_555 1_555
H75 C123 1_555 1_555
C124 C123 1_555 1_555
H76 C124 1_555 1_555
C125 C124 1_555 1_555
H77 C125 1_555 1_555
C126 C121 1_555 1_555
H78 C126 1_555 1_555
C127 C106 1_555 1_555
C128 C127 1_555 1_555
H79 C128 1_555 1_555
C129 C128 1_555 1_555
H80 C129 1_555 1_555
C130 C129 1_555 1_555
H81 C130 1_555 1_555
C131 C130 1_555 1_555
H82 C131 1_555 1_555
C132 C108 1_555 1_555
O11 C98 1_555 1_555
H83 O11 1_555 1_555
O12 C99 1_555 1_555
H84 O12 1_555 1_555
O14 C133 1_555 1_555
N13 C134 1_555 1_555
N14 H85 1_555 1_555
N15 C141 1_555 1_555
N16 H86 1_555 1_555
O15 C152 1_555 1_555
C133 C134 1_555 1_555
C134 C135 1_555 1_555
C135 C136 1_555 1_555
C136 N14 1_555 1_555
C137 C136 1_555 1_555
H87 C137 1_555 1_555
C138 C137 1_555 1_555
H88 C138 1_555 1_555
C139 N14 1_555 1_555
C140 C139 1_555 1_555
C141 C140 1_555 1_555
C142 C141 1_555 1_555
H89 C142 1_555 1_555
C143 C142 1_555 1_555
H90 C143 1_555 1_555
C144 N15 1_555 1_555
C145 C144 1_555 1_555
C146 N16 1_555 1_555
C147 C146 1_555 1_555
H91 C147 1_555 1_555
C148 C147 1_555 1_555
H92 C148 1_555 1_555
C149 N16 1_555 1_555
C150 C149 1_555 1_555
C151 N13 1_555 1_555
C152 C151 1_555 1_555
C153 C135 1_555 1_555
C154 C133 1_555 1_555
C155 C154 1_555 1_555
H93 C155 1_555 1_555
C156 C155 1_555 1_555
H94 C156 1_555 1_555
C157 C156 1_555 1_555
H95 C157 1_555 1_555
C158 C153 1_555 1_555
H96 C158 1_555 1_555
C159 C140 1_555 1_555
C160 C159 1_555 1_555
H97 C160 1_555 1_555
C161 C160 1_555 1_555
H98 C161 1_555 1_555
C162 C161 1_555 1_555
H99 C162 1_555 1_555
C163 C162 1_555 1_555
H100 C163 1_555 1_555
C164 C159 1_555 1_555
H101 C164 1_555 1_555
C165 C145 1_555 1_555
C166 C165 1_555 1_555
H102 C166 1_555 1_555
C167 C166 1_555 1_555
H103 C167 1_555 1_555
C168 C167 1_555 1_555
H104 C168 1_555 1_555
C169 C168 1_555 1_555
H105 C169 1_555 1_555
C170 C165 1_555 1_555
H106 C170 1_555 1_555
C171 C150 1_555 1_555
C172 C171 1_555 1_555
H107 C172 1_555 1_555
C173 C172 1_555 1_555
H108 C173 1_555 1_555
C174 C173 1_555 1_555
H109 C174 1_555 1_555
C175 C174 1_555 1_555
H110 C175 1_555 1_555
C176 C152 1_555 1_555
O16 C142 1_555 1_555
H111 O16 1_555 1_555
O17 C143 1_555 1_555
H112 O17 1_555 1_555
C6 C7 1_555 1_555
C11 C12 1_555 1_555
C13 C14 1_555 1_555
C16 C17 1_555 1_555
C18 C19 1_555 1_555
C21 C22 1_555 1_555
C25 C26 1_555 1_555
C31 C32 1_555 1_555
C37 C38 1_555 1_555
C39 C44 1_555 1_555
C43 C44 1_555 1_555
C50 C51 1_555 1_555
C55 C56 1_555 1_555
C57 C58 1_555 1_555
C60 C61 1_555 1_555
C62 C63 1_555 1_555
C65 C66 1_555 1_555
C69 C70 1_555 1_555
C75 C76 1_555 1_555
C81 C82 1_555 1_555
C83 C88 1_555 1_555
C87 C88 1_555 1_555
C94 C95 1_555 1_555
C99 C100 1_555 1_555
C101 C102 1_555 1_555
C104 C105 1_555 1_555
C106 C107 1_555 1_555
C109 C110 1_555 1_555
C113 C114 1_555 1_555
C119 C120 1_555 1_555
C125 C126 1_555 1_555
C127 C132 1_555 1_555
C131 C132 1_555 1_555
C138 C139 1_555 1_555
C143 C144 1_555 1_555
C145 C146 1_555 1_555
C148 C149 1_555 1_555
C150 C151 1_555 1_555
C153 C154 1_555 1_555
C157 C158 1_555 1_555
C163 C164 1_555 1_555
C169 C170 1_555 1_555
C171 C176 1_555 1_555
C175 C176 1_555 1_555

#END
