
#######################################################################
#
#                 Cambridge Crystallographic Data Centre
#                                CCDC 
#
#######################################################################
#
# If this CIF has been generated from an entry in the Cambridge 
# Structural Database, then it will include bibliographic, chemical, 
# crystal, experimental, refinement or atomic coordinate data resulting 
# from the CCDC's data processing and validation procedures.
#
#######################################################################

data_OJEJES
_chemical_formula_moiety         'C8 H10 N8'
_chemical_name_systematic        9-(3-Azidopropyl)adenine
_symmetry_cell_setting           orthorhombic
_symmetry_space_group_name_H-M   'P b c a'
_symmetry_Int_Tables_number      61
_space_group_name_Hall           '-P 2ac 2ab'
loop_
_symmetry_equiv_pos_site_id
_symmetry_equiv_pos_as_xyz
1 x,y,z
2 1/2+x,y,1/2-z
3 x,1/2-y,1/2+z
4 1/2-x,1/2+y,z
5 -x,-y,-z
6 1/2-x,-y,1/2+z
7 -x,1/2+y,1/2-z
8 1/2+x,1/2-y,-z
_cell_length_a                   15.2288(17)
_cell_length_b                   8.7153(10)
_cell_length_c                   15.4248(16)
_cell_angle_alpha                90
_cell_angle_beta                 90
_cell_angle_gamma                90
_cell_volume                     2047.23
_exptl_crystal_colour            colorless
_exptl_crystal_description       prism
_cell_formula_units_Z            8
_exptl_crystal_recrystallization_method ethanol
loop_
_atom_site_label
_atom_site_type_symbol
_atom_site_fract_x
_atom_site_fract_y
_atom_site_fract_z
N1 N 0.47213(17) -0.3643(3) 0.34306(15)
C1 C 0.4413(2) -0.3984(4) 0.42207(19)
H1 H 0.4421 -0.5023 0.4358
N2 N 0.40996(16) -0.3086(3) 0.48348(15)
C2 C 0.41109(18) -0.1617(3) 0.45618(17)
C3 C 0.44025(18) -0.1076(3) 0.37733(16)
C4 C 0.47297(18) -0.2148(3) 0.31851(18)
N3 N 0.50637(18) -0.1798(3) 0.24065(15)
H2 H 0.5104(19) -0.0712(9) 0.2246(18)
H3 H 0.529(2) -0.261(3) 0.203(2)
N4 N 0.43078(15) 0.0519(2) 0.37374(14)
C5 C 0.39724(19) 0.0857(3) 0.44933(18)
H4 H 0.3836 0.1857 0.4654
N5 N 0.38383(15) -0.0360(3) 0.50261(13)
C6 C 0.34580(19) -0.0340(4) 0.58927(16)
H5 H 0.3624 0.0607 0.6179
H6 H 0.3701 -0.1184 0.6225
C7 C 0.2481(2) -0.0468(4) 0.58894(18)
H7 H 0.2317 -0.1448 0.5640
H8 H 0.2241 0.0333 0.5523
C8 C 0.2082(3) -0.0336(5) 0.6778(2)
H9 H 0.1449 -0.0433 0.6733
H10 H 0.2295 -0.1169 0.7138
N6 N 0.2295(3) 0.1116(4) 0.7185(2)
N7 N 0.2562(2) 0.1069(4) 0.7935(2)
N8 N 0.2797(3) 0.1244(5) 0.8614(2)
loop_
_geom_bond_atom_site_label_1
_geom_bond_atom_site_label_2
_geom_bond_site_symmetry_1
_geom_bond_site_symmetry_2
N1 C1 1_555 1_555
C1 H1 1_555 1_555
N2 C1 1_555 1_555
C2 N2 1_555 1_555
C3 C2 1_555 1_555
C4 N1 1_555 1_555
N3 C4 1_555 1_555
H2 N3 1_555 1_555
H3 N3 1_555 1_555
N4 C3 1_555 1_555
C5 N4 1_555 1_555
H4 C5 1_555 1_555
N5 C2 1_555 1_555
C6 N5 1_555 1_555
H5 C6 1_555 1_555
H6 C6 1_555 1_555
C7 C6 1_555 1_555
H7 C7 1_555 1_555
H8 C7 1_555 1_555
C8 C7 1_555 1_555
H9 C8 1_555 1_555
H10 C8 1_555 1_555
N6 C8 1_555 1_555
N7 N6 1_555 1_555
N8 N7 1_555 1_555
C3 C4 1_555 1_555
C5 N5 1_555 1_555

#END
