
#######################################################################
#
#                 Cambridge Crystallographic Data Centre
#                                CCDC 
#
#######################################################################
#
# If this CIF has been generated from an entry in the Cambridge 
# Structural Database, then it will include bibliographic, chemical, 
# crystal, experimental, refinement or atomic coordinate data resulting 
# from the CCDC's data processing and validation procedures.
#
#######################################################################

data_OJELAS
_chemical_formula_moiety         'C30 H40 O6'
_chemical_name_systematic        
'diethyl 2-(2-allylphenyl)-4-hydroxy-4-(3-methylbut-3-en-1-yl)-5-(2-methylprop-2-en-1-yl)-6-oxocyclohexane-1,3-dicarboxylate'
_symmetry_cell_setting           triclinic
_symmetry_space_group_name_H-M   'P -1'
_symmetry_Int_Tables_number      2
_space_group_name_Hall           '-P 1'
loop_
_symmetry_equiv_pos_site_id
_symmetry_equiv_pos_as_xyz
1 x,y,z
2 -x,-y,-z
_cell_length_a                   10.2382(18)
_cell_length_b                   11.776(2)
_cell_length_c                   13.593(2)
_cell_angle_alpha                113.414(4)
_cell_angle_beta                 99.842(3)
_cell_angle_gamma                106.198(4)
_cell_volume                     1368.37
_exptl_crystal_colour            colorless
_exptl_crystal_description       plate
_cell_formula_units_Z            2
_exptl_crystal_recrystallization_method 
'Re-crystallisation from solvent: ethyl acetate/hexanes'
loop_
_atom_site_label
_atom_site_type_symbol
_atom_site_fract_x
_atom_site_fract_y
_atom_site_fract_z
O1 O 0.9684(2) 0.3823(2) 0.12108(18)
H1 H 1.004(3) 0.429(3) 0.091(3)
O2 O 0.8473(2) 0.12180(19) 0.17930(18)
O3 O 0.8166(2) -0.05403(18) -0.06659(18)
O4 O 0.6031(2) -0.15292(19) -0.05413(18)
O5 O 0.6453(2) 0.39002(19) -0.11498(17)
O6 O 0.8703(2) 0.39542(19) -0.09111(18)
C1 C 0.8283(3) 0.3795(3) 0.1182(3)
C2 C 0.7824(3) 0.3067(3) 0.1875(3)
H2 H 0.6810 0.2965 0.1834
C3 C 0.7829(3) 0.1665(3) 0.1295(3)
C4 C 0.6933(3) 0.0838(3) 0.0072(2)
H3 H 0.5918 0.0718 0.0040
C5 C 0.7331(3) 0.1560(3) -0.0630(3)
H4 H 0.8344 0.1695 -0.0615
C6 C 0.7239(3) 0.2953(3) -0.0043(2)
H5 H 0.6238 0.2820 -0.0024
C7 C 0.6359(3) 0.0737(3) -0.1848(3)
C8 C 0.4873(3) 0.0360(3) -0.2065(3)
H6 H 0.4509 0.0624 -0.1449
C9 C 0.3928(3) -0.0388(3) -0.3155(3)
H7 H 0.2924 -0.0627 -0.3289
C10 C 0.4460(4) -0.0782(3) -0.4045(3)
H8 H 0.3820 -0.1309 -0.4799
C11 C 0.5921(3) -0.0415(3) -0.3844(3)
H9 H 0.6274 -0.0692 -0.4466
C12 C 0.6888(3) 0.0350(3) -0.2754(3)
C13 C 0.8494(3) 0.0761(3) -0.2554(3)
H10 H 0.8954 0.1752 -0.2133
H11 H 0.8880 0.0412 -0.2067
C14 C 0.8915(3) 0.0287(3) -0.3602(3)
H12 H 0.8611 0.0547 -0.4151
C15 C 0.9676(3) -0.0466(3) -0.3817(3)
H13 H 0.9999 -0.0744 -0.3287
H14 H 0.9904 -0.0729 -0.4503
C16 C 0.8348(3) 0.5229(3) 0.1692(3)
H15 H 0.8729 0.5645 0.1242
H16 H 0.9043 0.5736 0.2467
C17 C 0.6925(3) 0.5394(3) 0.1756(3)
H17 H 0.6197 0.4847 0.0995
H18 H 0.6576 0.5065 0.2266
C18 C 0.7110(3) 0.6848(3) 0.2189(3)
C19 C 0.7148(3) 0.7568(3) 0.3230(3)
H19 H 0.7287 0.8485 0.3499
H20 H 0.7037 0.7171 0.3713
C20 C 0.7276(4) 0.7402(3) 0.1386(3)
H21 H 0.7376 0.8340 0.1748
H22 H 0.6429 0.6882 0.0707
H23 H 0.8134 0.7349 0.1174
C21 C 0.8723(3) 0.3827(3) 0.3131(3)
H24 H 0.8808 0.3160 0.3382
H25 H 0.9702 0.4368 0.3203
C22 C 0.8178(4) 0.4737(3) 0.3926(3)
C23 C 0.8979(4) 0.6027(3) 0.4602(3)
H26 H 0.8629 0.6570 0.5129
H27 H 0.9903 0.6408 0.4558
C24 C 0.6733(5) 0.4117(4) 0.3976(3)
H28 H 0.6466 0.4817 0.4477
H29 H 0.6746 0.3482 0.4270
H30 H 0.6032 0.3644 0.3215
C25 C 0.6973(3) -0.0553(3) -0.0414(3)
C26 C 0.8386(3) -0.1802(3) -0.1087(3)
H31 H 0.7948 -0.2331 -0.0731
H32 H 0.9427 -0.1612 -0.0877
C27 C 0.7728(4) -0.2593(3) -0.2340(3)
H33 H 0.6680 -0.2901 -0.2540
H34 H 0.8001 -0.3369 -0.2618
H35 H 0.8069 -0.2029 -0.2686
C28 C 0.7571(3) 0.3652(3) -0.0735(3)
C29 C 0.6649(3) 0.4513(3) -0.1885(3)
H36 H 0.7598 0.5264 -0.1536
H37 H 0.5902 0.4881 -0.1968
C30 C 0.6558(4) 0.3507(3) -0.3036(3)
H38 H 0.7410 0.3282 -0.2975
H39 H 0.6508 0.3891 -0.3555
H40 H 0.5696 0.2694 -0.3325
loop_
_geom_bond_atom_site_label_1
_geom_bond_atom_site_label_2
_geom_bond_site_symmetry_1
_geom_bond_site_symmetry_2
O1 H1 1_555 1_555
O2 C3 1_555 1_555
O3 C25 1_555 1_555
O4 C25 1_555 1_555
O5 C28 1_555 1_555
O6 C28 1_555 1_555
C1 O1 1_555 1_555
C2 C1 1_555 1_555
H2 C2 1_555 1_555
C3 C2 1_555 1_555
C4 C3 1_555 1_555
H3 C4 1_555 1_555
C5 C4 1_555 1_555
H4 C5 1_555 1_555
C6 C1 1_555 1_555
H5 C6 1_555 1_555
C7 C5 1_555 1_555
C8 C7 1_555 1_555
H6 C8 1_555 1_555
C9 C8 1_555 1_555
H7 C9 1_555 1_555
C10 C9 1_555 1_555
H8 C10 1_555 1_555
C11 C10 1_555 1_555
H9 C11 1_555 1_555
C12 C7 1_555 1_555
C13 C12 1_555 1_555
H10 C13 1_555 1_555
H11 C13 1_555 1_555
C14 C13 1_555 1_555
H12 C14 1_555 1_555
C15 C14 1_555 1_555
H13 C15 1_555 1_555
H14 C15 1_555 1_555
C16 C1 1_555 1_555
H15 C16 1_555 1_555
H16 C16 1_555 1_555
C17 C16 1_555 1_555
H17 C17 1_555 1_555
H18 C17 1_555 1_555
C18 C17 1_555 1_555
C19 C18 1_555 1_555
H19 C19 1_555 1_555
H20 C19 1_555 1_555
C20 C18 1_555 1_555
H21 C20 1_555 1_555
H22 C20 1_555 1_555
H23 C20 1_555 1_555
C21 C2 1_555 1_555
H24 C21 1_555 1_555
H25 C21 1_555 1_555
C22 C21 1_555 1_555
C23 C22 1_555 1_555
H26 C23 1_555 1_555
H27 C23 1_555 1_555
C24 C22 1_555 1_555
H28 C24 1_555 1_555
H29 C24 1_555 1_555
H30 C24 1_555 1_555
C25 C4 1_555 1_555
C26 O3 1_555 1_555
H31 C26 1_555 1_555
H32 C26 1_555 1_555
C27 C26 1_555 1_555
H33 C27 1_555 1_555
H34 C27 1_555 1_555
H35 C27 1_555 1_555
C28 C6 1_555 1_555
C29 O5 1_555 1_555
H36 C29 1_555 1_555
H37 C29 1_555 1_555
C30 C29 1_555 1_555
H38 C30 1_555 1_555
H39 C30 1_555 1_555
H40 C30 1_555 1_555
C5 C6 1_555 1_555
C11 C12 1_555 1_555

#END
