
#######################################################################
#
#                 Cambridge Crystallographic Data Centre
#                                CCDC 
#
#######################################################################
#
# If this CIF has been generated from an entry in the Cambridge 
# Structural Database, then it will include bibliographic, chemical, 
# crystal, experimental, refinement or atomic coordinate data resulting 
# from the CCDC's data processing and validation procedures.
#
#######################################################################

data_OJETAA
_chemical_formula_moiety         'C17 H18 O3'
_chemical_name_systematic        
8a-methyl-3-(2-phenylvinyl)-2,3,4a,8a-tetrahydro-1,4-benzodioxin-6(5H)-one
_symmetry_cell_setting           monoclinic
_symmetry_space_group_name_H-M   'P 21/c'
_symmetry_Int_Tables_number      14
_space_group_name_Hall           '-P 2ybc'
loop_
_symmetry_equiv_pos_site_id
_symmetry_equiv_pos_as_xyz
1 x,y,z
2 -x,1/2+y,1/2-z
3 -x,-y,-z
4 x,1/2-y,1/2+z
_cell_length_a                   11.954(2)
_cell_length_b                   9.2780(18)
_cell_length_c                   12.604(2)
_cell_angle_alpha                90
_cell_angle_beta                 93.422(3)
_cell_angle_gamma                90
_cell_volume                     1395.41
_exptl_crystal_colour            colorless
_exptl_crystal_description       plate
_cell_formula_units_Z            4
loop_
_atom_site_label
_atom_site_type_symbol
_atom_site_fract_x
_atom_site_fract_y
_atom_site_fract_z
O1 O 0.0080(3) 0.8965(4) 0.2508(3)
C1 C 0.1181(3) 1.0283(5) 0.1355(4)
H1 H 0.0898 1.1168 0.1557
C2 C 0.1955(5) 1.0227(6) 0.0665(5)
H2 H 0.2223 1.1100 0.0421
C3 C 0.2450(3) 0.8867(5) 0.0231(3)
O2 O 0.3610(3) 0.9024(5) 0.0058(3)
C4 C 0.4276(4) 0.9290(7) 0.1035(5)
H3 H 0.4012 1.0151 0.1378
H4 H 0.5055 0.9435 0.0884
C5 C 0.4176(4) 0.8022(6) 0.1749(4)
H5 H 0.4415 0.7152 0.1384
C6 C 0.4839(4) 0.8173(6) 0.2776(4)
H6 H 0.4506 0.7916 0.3397
C7 C 0.5905(4) 0.8666(7) 0.2854(4)
H7 H 0.6197 0.8966 0.2223
C8 C 0.6658(3) 0.8786(5) 0.3811(4)
C9 C 0.7811(3) 0.8883(4) 0.3705(4)
H8 H 0.8084 0.8901 0.3030
C10 C 0.8560(4) 0.8953(5) 0.4593(4)
H9 H 0.9326 0.8994 0.4508
C11 C 0.8165(4) 0.8960(5) 0.5598(4)
H10 H 0.8665 0.9020 0.6191
C12 C 0.0749(3) 0.8913(5) 0.1823(4)
C13 C 0.1143(3) 0.7531(5) 0.1372(3)
H11 H 0.1119 0.6781 0.1906
H12 H 0.0641 0.7255 0.0773
C14 C 0.2305(4) 0.7646(5) 0.1015(4)
H13 H 0.2513 0.6733 0.0689
O3 O 0.3013(3) 0.7879(4) 0.1982(3)
C15 C 0.1918(4) 0.8601(8) -0.0853(4)
H14 H 0.1893 0.9485 -0.1250
H15 H 0.1170 0.8246 -0.0794
H16 H 0.2348 0.7900 -0.1214
C16 C 0.7015(4) 0.8879(6) 0.5725(4)
H17 H 0.6748 0.8865 0.6403
C17 C 0.6270(4) 0.8817(6) 0.4837(4)
H18 H 0.5503 0.8796 0.4926
loop_
_geom_bond_atom_site_label_1
_geom_bond_atom_site_label_2
_geom_bond_site_symmetry_1
_geom_bond_site_symmetry_2
O1 C12 1_555 1_555
C1 H1 1_555 1_555
C2 C1 1_555 1_555
H2 C2 1_555 1_555
C3 C2 1_555 1_555
O2 C3 1_555 1_555
C4 O2 1_555 1_555
H3 C4 1_555 1_555
H4 C4 1_555 1_555
C5 C4 1_555 1_555
H5 C5 1_555 1_555
C6 C5 1_555 1_555
H6 C6 1_555 1_555
C7 C6 1_555 1_555
H7 C7 1_555 1_555
C8 C7 1_555 1_555
C9 C8 1_555 1_555
H8 C9 1_555 1_555
C10 C9 1_555 1_555
H9 C10 1_555 1_555
C11 C10 1_555 1_555
H10 C11 1_555 1_555
C12 C1 1_555 1_555
C13 C12 1_555 1_555
H11 C13 1_555 1_555
H12 C13 1_555 1_555
C14 C3 1_555 1_555
H13 C14 1_555 1_555
O3 C5 1_555 1_555
C15 C3 1_555 1_555
H14 C15 1_555 1_555
H15 C15 1_555 1_555
H16 C15 1_555 1_555
C16 C11 1_555 1_555
H17 C16 1_555 1_555
C17 C8 1_555 1_555
H18 C17 1_555 1_555
C13 C14 1_555 1_555
C14 O3 1_555 1_555
C16 C17 1_555 1_555

#END
