
#######################################################################
#
#                 Cambridge Crystallographic Data Centre
#                                CCDC 
#
#######################################################################
#
# If this CIF has been generated from an entry in the Cambridge 
# Structural Database, then it will include bibliographic, chemical, 
# crystal, experimental, refinement or atomic coordinate data resulting 
# from the CCDC's data processing and validation procedures.
#
#######################################################################

data_OJIDOA
_chemical_formula_moiety         'C23 H12 Cl3 N3 O2 S1,0.5(C4 H8 O2)'
_chemical_name_systematic        
"4-(2-Chlorophenyl)-3-(2,6-dichlorophenyl)-spiro(isoxazoline-5,2'-(benzo(4,5)imidazo(2,1-b)thiazole))-3'-one dioxane solvate"
_symmetry_cell_setting           triclinic
_symmetry_space_group_name_H-M   'P -1'
_symmetry_Int_Tables_number      2
_space_group_name_Hall           '-P 1'
loop_
_symmetry_equiv_pos_site_id
_symmetry_equiv_pos_as_xyz
1 x,y,z
2 -x,-y,-z
_cell_length_a                   7.904(2)
_cell_length_b                   9.166(3)
_cell_length_c                   16.963(5)
_cell_angle_alpha                102.180(5)
_cell_angle_beta                 93.697(5)
_cell_angle_gamma                94.789(5)
_cell_volume                     1192.82
_exptl_crystal_colour            colorless
_exptl_crystal_description       plate
_cell_formula_units_Z            2
loop_
_atom_site_label
_atom_site_type_symbol
_atom_site_fract_x
_atom_site_fract_y
_atom_site_fract_z
Cl1 Cl 0.38077(11) 0.91018(14) 0.29875(6)
Cl2 Cl 0.83875(17) 0.71861(17) 0.49453(6)
N1 N 0.8408(2) 0.8194(2) 0.08151(12)
N2 N 1.0163(3) 0.6835(2) 0.00365(13)
N3 N 0.8464(3) 0.9097(3) 0.34566(13)
O1 O 0.6529(3) 0.9299(2) 0.16666(12)
O2 O 0.9404(2) 0.8821(2) 0.27602(11)
S1 S 0.99205(9) 0.64363(8) 0.15980(4)
C1 C 0.8229(3) 0.8615(3) 0.00660(15)
C2 C 0.7263(3) 0.9613(3) -0.02185(17)
H1 H 0.6536 1.0177 0.0102
C3 C 0.7444(4) 0.9721(3) -0.10107(17)
H2 H 0.6806 1.0367 -0.1232
C4 C 0.8544(4) 0.8898(3) -0.14832(17)
H3 H 0.8635 0.9014 -0.2011
C5 C 0.9510(4) 0.7907(3) -0.11920(16)
H4 H 1.0252 0.7360 -0.1512
C6 C 0.9329(3) 0.7762(3) -0.04036(15)
C7 C 0.9573(3) 0.7144(3) 0.07330(15)
C8 C 0.7631(3) 0.8486(3) 0.15246(15)
C9 C 0.8450(3) 0.7655(3) 0.21364(15)
C10 C 0.7206(3) 0.8091(3) 0.33621(15)
C11 C 0.5975(4) 0.8057(3) 0.39834(16)
C12 C 0.4322(4) 0.8440(4) 0.38491(19)
C13 C 0.3093(5) 0.8360(5) 0.4380(2)
H5 H 0.2010 0.8638 0.4276
C14 C 0.3504(7) 0.7860(6) 0.5064(3)
H6 H 0.2678 0.7773 0.5423
C15 C 0.5111(7) 0.7484(5) 0.5233(2)
H7 H 0.5372 0.7150 0.5704
C16 C 0.6347(5) 0.7607(4) 0.46985(19)
C17 C 0.7186(18) 0.6861(10) 0.2608(6)
H8 H 0.6050 0.6677 0.2317
Cl3 Cl 0.4488(10) 0.4153(9) 0.2449(3)
C18 C 0.7767(14) 0.5397(9) 0.2776(8)
C19 C 0.6621(14) 0.4151(10) 0.2732(6)
C20 C 0.7190(18) 0.2826(11) 0.2910(9)
H9 H 0.6439 0.1962 0.2838
C21 C 0.8837(18) 0.2821(11) 0.3186(6)
H10 H 0.9208 0.1944 0.3297
C22 C 0.9964(17) 0.4079(11) 0.3304(8)
H11 H 1.1077 0.4071 0.3516
C23 C 0.9432(16) 0.5352(12) 0.3105(9)
H12 H 1.0196 0.6210 0.3191
C31 C 0.4068(4) 0.6003(4) 0.04687(19)
H18 H 0.3875 0.7024 0.0715
H19 H 0.3150 0.5336 0.0590
C32 C 0.4061(4) 0.5831(3) -0.04301(18)
H20 H 0.4946 0.6529 -0.0552
H21 H 0.2973 0.6064 -0.0645
O3 O 0.5655(2) 0.5663(2) 0.08013(12)
O3A O 0.4345(2) 0.4337(2) -0.08013(12)
C31A C 0.5932(4) 0.3997(4) -0.04687(19)
H18A H 0.6125 0.2976 -0.0715
H19A H 0.6850 0.4664 -0.0590
C32A C 0.5939(4) 0.4169(3) 0.04301(18)
H20A H 0.5054 0.3471 0.0552
H21A H 0.7027 0.3936 0.0645
C24? C 0.705(2) 0.6954(10) 0.2567(7)
H13? H 0.5926 0.6933 0.2278
Cl4? Cl 0.3888(10) 0.4640(9) 0.2337(4)
C25? C 0.7270(13) 0.5444(7) 0.2784(9)
C26? C 0.5944(14) 0.4299(8) 0.2608(7)
C27? C 0.6229(19) 0.2867(7) 0.2702(6)
H14? H 0.5342 0.2101 0.2584
C28? C 0.784(2) 0.2580(9) 0.2973(7)
H15? H 0.8030 0.1622 0.3037
C29? C 0.9165(18) 0.3725(13) 0.3150(8)
H16? H 1.0242 0.3533 0.3331
C30? C 0.8880(14) 0.5157(11) 0.3055(9)
H17? H 0.9767 0.5923 0.3173
loop_
_geom_bond_atom_site_label_1
_geom_bond_atom_site_label_2
_geom_bond_site_symmetry_1
_geom_bond_site_symmetry_2
Cl1 C12 1_555 1_555
Cl2 C16 1_555 1_555
N1 C1 1_555 1_555
N2 C6 1_555 1_555
N3 O2 1_555 1_555
O1 C8 1_555 1_555
O2 C9 1_555 1_555
S1 C7 1_555 1_555
C1 C2 1_555 1_555
C2 H1 1_555 1_555
C3 C2 1_555 1_555
H2 C3 1_555 1_555
C4 C3 1_555 1_555
H3 C4 1_555 1_555
C5 C4 1_555 1_555
H4 C5 1_555 1_555
C6 C1 1_555 1_555
C7 N1 1_555 1_555
C8 N1 1_555 1_555
C9 S1 1_555 1_555
C10 N3 1_555 1_555
C11 C10 1_555 1_555
C12 C11 1_555 1_555
C13 C12 1_555 1_555
H5 C13 1_555 1_555
C14 C13 1_555 1_555
H6 C14 1_555 1_555
C15 C14 1_555 1_555
H7 C15 1_555 1_555
C16 C11 1_555 1_555
C17 C9 1_555 1_555
H8 C17 1_555 1_555
Cl3 C19 1_555 1_555
C18 C17 1_555 1_555
C19 C18 1_555 1_555
C20 C19 1_555 1_555
H9 C20 1_555 1_555
C21 C20 1_555 1_555
H10 C21 1_555 1_555
C22 C21 1_555 1_555
H11 C22 1_555 1_555
C23 C18 1_555 1_555
H12 C23 1_555 1_555
C31 H18 1_555 1_555
H19 C31 1_555 1_555
C32 C31 1_555 1_555
H20 C32 1_555 1_555
H21 C32 1_555 1_555
O3 C31 1_555 1_555
O3A C32 1_555 1_555
C31A O3A 1_555 1_555
H18A C31A 1_555 1_555
H19A C31A 1_555 1_555
C32A O3 1_555 1_555
H20A C32A 1_555 1_555
H21A C32A 1_555 1_555
N2 C7 1_555 1_555
C5 C6 1_555 1_555
C8 C9 1_555 1_555
C10 C17 1_555 1_555
C15 C16 1_555 1_555
C22 C23 1_555 1_555
C31A C32A 1_555 1_555

#END
