
#######################################################################
#
#                 Cambridge Crystallographic Data Centre
#                                CCDC 
#
#######################################################################
#
# If this CIF has been generated from an entry in the Cambridge 
# Structural Database, then it will include bibliographic, chemical, 
# crystal, experimental, refinement or atomic coordinate data resulting 
# from the CCDC's data processing and validation procedures.
#
#######################################################################

data_OJIKEX
_chemical_formula_moiety         'C15 H24 N1 1+,Br1 1-'
_chemical_name_systematic        
'2-((2,6-Diisopropylphenyl)iminio)propyl bromide'
_symmetry_cell_setting           monoclinic
_symmetry_space_group_name_H-M   'P 21/c'
_symmetry_Int_Tables_number      14
_space_group_name_Hall           '-P 2ybc'
loop_
_symmetry_equiv_pos_site_id
_symmetry_equiv_pos_as_xyz
1 x,y,z
2 x,1/2-y,1/2+z
3 -x,-y,-z
4 -x,1/2+y,1/2-z
_cell_length_a                   13.0623(9)
_cell_length_b                   10.9266(5)
_cell_length_c                   11.6561(8)
_cell_angle_alpha                90
_cell_angle_beta                 111.958(5)
_cell_angle_gamma                90
_cell_volume                     1542.95
_exptl_crystal_colour            colorless
_exptl_crystal_description       block
_cell_formula_units_Z            4
loop_
_atom_site_label
_atom_site_type_symbol
_atom_site_fract_x
_atom_site_fract_y
_atom_site_fract_z
Br1 Br 0.053880(12) 0.270488(15) 0.001622(14)
N1 N 0.16239(9) 0.42149(11) 0.25303(11)
H1 H 0.1313(17) 0.3836(19) 0.185(2)
C1 C 0.28131(10) 0.43471(12) 0.29343(12)
C2 C 0.32236(11) 0.54161(12) 0.25906(12)
C3 C 0.43633(11) 0.54953(13) 0.29192(13)
H2 H 0.4670 0.6209 0.2709
C4 C 0.50587(11) 0.45537(13) 0.35468(13)
H3 H 0.5832 0.4623 0.3754
C5 C 0.46245(11) 0.35111(13) 0.38715(13)
H4 H 0.5108 0.2872 0.4304
C6 C 0.34905(11) 0.33812(12) 0.35759(12)
C7 C 0.24779(11) 0.64320(12) 0.18336(13)
H5 H 0.1713 0.6272 0.1797
C8 C 0.28334(14) 0.76937(14) 0.24133(14)
H6 H 0.2332 0.8318 0.1898
H7 H 0.3587 0.7865 0.2470
H8 H 0.2809 0.7707 0.3243
C9 C 0.24535(14) 0.64013(15) 0.05087(14)
H9 H 0.2224 0.5587 0.0153
H10 H 0.3192 0.6583 0.0519
H11 H 0.1929 0.7014 0.0007
C10 C 0.30332(11) 0.22260(13) 0.39453(13)
H12 H 0.2240 0.2380 0.3802
C11 C 0.36339(15) 0.19435(16) 0.53168(15)
H13 H 0.3590 0.2654 0.5809
H14 H 0.4410 0.1759 0.5479
H15 H 0.3288 0.1236 0.5543
C12 C 0.30776(16) 0.11469(15) 0.31346(17)
H16 H 0.2783 0.0415 0.3389
H17 H 0.3844 0.0999 0.3227
H18 H 0.2634 0.1333 0.2268
C13 C 0.10113(11) 0.46668(12) 0.30735(13)
C14 C -0.02092(12) 0.45358(14) 0.24768(15)
H19 H -0.0537 0.5328 0.2142
H20 H -0.0504 0.4257 0.3091
H21 H -0.0390 0.3936 0.1805
C15 C 0.14816(12) 0.53186(14) 0.42724(14)
H22 H 0.1505 0.4764 0.4943
H23 H 0.1020 0.6028 0.4263
H24 H 0.2231 0.5594 0.4404
loop_
_geom_bond_atom_site_label_1
_geom_bond_atom_site_label_2
_geom_bond_site_symmetry_1
_geom_bond_site_symmetry_2
N1 H1 1_555 1_555
C1 N1 1_555 1_555
C2 C1 1_555 1_555
C3 C2 1_555 1_555
H2 C3 1_555 1_555
C4 C3 1_555 1_555
H3 C4 1_555 1_555
C5 C4 1_555 1_555
H4 C5 1_555 1_555
C6 C1 1_555 1_555
C7 C2 1_555 1_555
H5 C7 1_555 1_555
C8 C7 1_555 1_555
H6 C8 1_555 1_555
H7 C8 1_555 1_555
H8 C8 1_555 1_555
C9 C7 1_555 1_555
H9 C9 1_555 1_555
H10 C9 1_555 1_555
H11 C9 1_555 1_555
C10 C6 1_555 1_555
H12 C10 1_555 1_555
C11 C10 1_555 1_555
H13 C11 1_555 1_555
H14 C11 1_555 1_555
H15 C11 1_555 1_555
C12 C10 1_555 1_555
H16 C12 1_555 1_555
H17 C12 1_555 1_555
H18 C12 1_555 1_555
C13 N1 1_555 1_555
C14 C13 1_555 1_555
H19 C14 1_555 1_555
H20 C14 1_555 1_555
H21 C14 1_555 1_555
C15 C13 1_555 1_555
H22 C15 1_555 1_555
H23 C15 1_555 1_555
H24 C15 1_555 1_555
C5 C6 1_555 1_555

#END
