
#######################################################################
#
#                 Cambridge Crystallographic Data Centre
#                                CCDC 
#
#######################################################################
#
# If this CIF has been generated from an entry in the Cambridge 
# Structural Database, then it will include bibliographic, chemical, 
# crystal, experimental, refinement or atomic coordinate data resulting 
# from the CCDC's data processing and validation procedures.
#
#######################################################################

data_OJIQAB
_chemical_formula_moiety         'C24 H20 O4'
_chemical_name_systematic        
1-(biphenyl-4-yl)-4-(2,5-dimethoxyphenyl)but-2-ene-1,4-dione
_symmetry_cell_setting           triclinic
_symmetry_space_group_name_H-M   'P -1'
_symmetry_Int_Tables_number      2
_space_group_name_Hall           '-P 1'
loop_
_symmetry_equiv_pos_site_id
_symmetry_equiv_pos_as_xyz
1 x,y,z
2 -x,-y,-z
_cell_length_a                   7.1811(18)
_cell_length_b                   8.2835(19)
_cell_length_c                   31.513(8)
_cell_angle_alpha                85.817(10)
_cell_angle_beta                 87.011(9)
_cell_angle_gamma                78.311(9)
_cell_volume                     1829.43
_exptl_crystal_colour            yellow
_exptl_crystal_description       Tabular
_cell_formula_units_Z            4
loop_
_atom_site_label
_atom_site_type_symbol
_atom_site_fract_x
_atom_site_fract_y
_atom_site_fract_z
O1 O 0.29693(15) 0.44968(12) 1.12541(3)
O2 O 0.23623(14) 0.58451(12) 0.95174(3)
O3 O 0.31114(13) 0.93674(11) 1.02670(3)
O4 O 0.02436(14) 1.04783(13) 0.88448(3)
C1 C 0.9404(2) 1.32666(17) 0.69080(5)
H1 H 1.0242 1.3558 0.6685
C2 C 0.9528(2) 1.37351(17) 0.73166(5)
H2 H 1.0442 1.4366 0.7374
C3 C 0.83240(19) 1.32883(16) 0.76428(5)
H3 H 0.8424 1.3618 0.7922
C4 C 0.69625(19) 1.23581(16) 0.75670(4)
C5 C 0.56805(19) 1.18741(15) 0.79166(4)
C6 C 0.6250(2) 1.16611(16) 0.83378(4)
H4 H 0.7481 1.1813 0.8400
C7 C 0.50528(19) 1.12327(16) 0.86658(4)
H5 H 0.5478 1.1085 0.8949
C8 C 0.32226(19) 1.10135(16) 0.85864(4)
C9 C 0.1881(2) 1.05227(16) 0.89261(4)
C10 C 0.2577(2) 1.00256(16) 0.93630(4)
H6 H 0.3654 1.0393 0.9453
C11 C 0.17004(19) 0.90722(16) 0.96274(4)
H7 H 0.0564 0.8783 0.9545
C12 C 0.24710(18) 0.84498(16) 1.00514(4)
C13 C 0.24643(18) 0.67078(16) 1.02116(4)
C14 C 0.26240(18) 0.63273(16) 1.06470(4)
H8 H 0.2615 0.7190 1.0830
C15 C 0.27951(19) 0.47232(17) 1.08195(5)
C16 C 0.3859(2) 0.28711(18) 1.14093(5)
H9 H 0.3026 0.2098 1.1368
H10 H 0.4086 0.2874 1.1713
H11 H 0.5074 0.2529 1.1253
C17 C 0.2780(2) 0.34640(17) 1.05527(5)
H12 H 0.2891 0.2358 1.0668
C18 C 0.26022(19) 0.38168(17) 1.01197(5)
H13 H 0.2581 0.2948 0.9940
C19 C 0.24534(19) 0.54241(17) 0.99425(4)
C20 C 0.2347(2) 0.45672(18) 0.92383(5)
H14 H 0.3525 0.3735 0.9265
H15 H 0.2252 0.5039 0.8944
H16 H 0.1253 0.4050 0.9314
C21 C 0.3860(2) 1.16184(16) 0.78377(4)
H17 H 0.3449 1.1729 0.7554
C22 C 0.2656(2) 1.12084(16) 0.81659(4)
H18 H 0.1424 1.1057 0.8104
C23 C 0.8047(2) 1.23685(17) 0.68278(5)
H19 H 0.7942 1.2057 0.6547
C24 C 0.6838(2) 1.19185(16) 0.71520(4)
H20 H 0.5913 1.1303 0.7091
O5 O 0.68282(15) 0.60829(12) 0.37792(3)
O6 O 0.77001(13) 0.41868(11) 0.54875(3)
O7 O 0.67535(13) 0.08053(11) 0.47066(3)
O8 O 0.97846(13) -0.08095(12) 0.60914(3)
C25 C 0.6621(2) 0.48978(18) 0.34878(5)
H21 H 0.7759 0.4014 0.3488
H22 H 0.6461 0.5436 0.3201
H23 H 0.5502 0.4428 0.3574
C26 C 0.70666(19) 0.55150(17) 0.41973(4)
C27 C 0.71380(18) 0.39001(16) 0.43530(4)
H24 H 0.7014 0.3087 0.4164
C28 C 0.73920(18) 0.34524(16) 0.47872(4)
C29 C 0.73972(18) 0.16948(16) 0.49299(4)
C30 C 0.82089(19) 0.09899(16) 0.53460(4)
H25 H 0.9362 0.1248 0.5429
C31 C 0.73361(19) 0.00065(16) 0.56015(4)
H26 H 0.6208 -0.0281 0.5513
C32 C 0.80900(19) -0.06545(16) 0.60240(4)
C33 C 0.67372(19) -0.10923(16) 0.63683(4)
C34 C 0.7456(2) -0.19731(16) 0.67391(4)
H27 H 0.8793 -0.2319 0.6763
C35 C 0.62552(19) -0.23474(16) 0.70702(4)
H28 H 0.6778 -0.2954 0.7319
C36 C 0.42732(19) -0.18503(16) 0.70477(4)
C37 C 0.29902(19) -0.23174(16) 0.73992(4)
C38 C 0.1179(2) -0.13676(17) 0.74778(4)
H29 H 0.0740 -0.0401 0.7301
C39 C 0.0015(2) -0.18191(17) 0.78111(5)
H30 H -0.1217 -0.1165 0.7859
C40 C 0.0634(2) -0.32182(17) 0.80757(5)
H31 H -0.0159 -0.3513 0.8307
C41 C 0.75522(18) 0.46602(16) 0.50648(4)
C42 C 0.7838(2) 0.54225(17) 0.57713(5)
H32 H 0.8970 0.5884 0.5692
H33 H 0.7939 0.4927 0.6063
H34 H 0.6701 0.6304 0.5754
C43 C 0.75003(18) 0.62862(16) 0.49015(4)
H35 H 0.7627 0.7109 0.5087
C44 C 0.72672(19) 0.66972(16) 0.44744(4)
H36 H 0.7243 0.7803 0.4367
C45 C 0.47639(19) -0.05847(16) 0.63449(4)
H37 H 0.4244 0.0017 0.6096
C46 C 0.3557(2) -0.09448(16) 0.66789(4)
H38 H 0.2222 -0.0572 0.6658
C47 C 0.3571(2) -0.37431(16) 0.76637(4)
H39 H 0.4783 -0.4425 0.7612
C48 C 0.2416(2) -0.41796(17) 0.79994(4)
H40 H 0.2848 -0.5143 0.8178
loop_
_geom_bond_atom_site_label_1
_geom_bond_atom_site_label_2
_geom_bond_site_symmetry_1
_geom_bond_site_symmetry_2
O1 C15 1_555 1_555
O2 C19 1_555 1_555
O3 C12 1_555 1_555
O4 C9 1_555 1_555
C1 H1 1_555 1_555
C2 C1 1_555 1_555
H2 C2 1_555 1_555
C3 C2 1_555 1_555
H3 C3 1_555 1_555
C4 C3 1_555 1_555
C5 C4 1_555 1_555
C6 C5 1_555 1_555
H4 C6 1_555 1_555
C7 C6 1_555 1_555
H5 C7 1_555 1_555
C8 C7 1_555 1_555
C9 C8 1_555 1_555
C10 C9 1_555 1_555
H6 C10 1_555 1_555
C11 C10 1_555 1_555
H7 C11 1_555 1_555
C12 C11 1_555 1_555
C13 C12 1_555 1_555
C14 C13 1_555 1_555
H8 C14 1_555 1_555
C15 C14 1_555 1_555
C16 O1 1_555 1_555
H9 C16 1_555 1_555
H10 C16 1_555 1_555
H11 C16 1_555 1_555
C17 C15 1_555 1_555
H12 C17 1_555 1_555
C18 C17 1_555 1_555
H13 C18 1_555 1_555
C19 C13 1_555 1_555
C20 O2 1_555 1_555
H14 C20 1_555 1_555
H15 C20 1_555 1_555
H16 C20 1_555 1_555
C21 C5 1_555 1_555
H17 C21 1_555 1_555
C22 C8 1_555 1_555
H18 C22 1_555 1_555
C23 C1 1_555 1_555
H19 C23 1_555 1_555
C24 C4 1_555 1_555
H20 C24 1_555 1_555
O5 C25 1_555 1_555
O6 C41 1_555 1_555
O7 C29 1_555 1_555
O8 C32 1_555 1_555
C25 H21 1_555 1_555
H22 C25 1_555 1_555
H23 C25 1_555 1_555
C26 O5 1_555 1_555
C27 C26 1_555 1_555
H24 C27 1_555 1_555
C28 C27 1_555 1_555
C29 C28 1_555 1_555
C30 C29 1_555 1_555
H25 C30 1_555 1_555
C31 C30 1_555 1_555
H26 C31 1_555 1_555
C32 C31 1_555 1_555
C33 C32 1_555 1_555
C34 C33 1_555 1_555
H27 C34 1_555 1_555
C35 C34 1_555 1_555
H28 C35 1_555 1_555
C36 C35 1_555 1_555
C37 C36 1_555 1_555
C38 C37 1_555 1_555
H29 C38 1_555 1_555
C39 C38 1_555 1_555
H30 C39 1_555 1_555
C40 C39 1_555 1_555
H31 C40 1_555 1_555
C41 C28 1_555 1_555
C42 O6 1_555 1_555
H32 C42 1_555 1_555
H33 C42 1_555 1_555
H34 C42 1_555 1_555
C43 C41 1_555 1_555
H35 C43 1_555 1_555
C44 C26 1_555 1_555
H36 C44 1_555 1_555
C45 C33 1_555 1_555
H37 C45 1_555 1_555
C46 C36 1_555 1_555
H38 C46 1_555 1_555
C47 C37 1_555 1_555
H39 C47 1_555 1_555
C48 C40 1_555 1_555
H40 C48 1_555 1_555
C18 C19 1_555 1_555
C21 C22 1_555 1_555
C23 C24 1_555 1_555
C43 C44 1_555 1_555
C45 C46 1_555 1_555
C47 C48 1_555 1_555

#END
