
#######################################################################
#
#                 Cambridge Crystallographic Data Centre
#                                CCDC 
#
#######################################################################
#
# If this CIF has been generated from an entry in the Cambridge 
# Structural Database, then it will include bibliographic, chemical, 
# crystal, experimental, refinement or atomic coordinate data resulting 
# from the CCDC's data processing and validation procedures.
#
#######################################################################

data_OJIRUW
_chemical_formula_moiety         'C14 H13 Br1 O6'
_chemical_name_systematic        
'dimethyl 3-(4-bromophenyl)-5-oxodihydrofuran-2,2(3H)-dicarboxylate'
_symmetry_cell_setting           orthorhombic
_symmetry_space_group_name_H-M   'P 21 21 21'
_symmetry_Int_Tables_number      19
_space_group_name_Hall           'P 2ac 2ab'
loop_
_symmetry_equiv_pos_site_id
_symmetry_equiv_pos_as_xyz
1 x,y,z
2 1/2-x,-y,1/2+z
3 -x,1/2+y,1/2-z
4 1/2+x,1/2-y,-z
_cell_length_a                   9.0731(17)
_cell_length_b                   9.3483(17)
_cell_length_c                   17.357(3)
_cell_angle_alpha                90
_cell_angle_beta                 90
_cell_angle_gamma                90
_cell_volume                     1472.19
_exptl_crystal_colour            colorless
_exptl_crystal_description       prismatic
_cell_formula_units_Z            4
loop_
_atom_site_label
_atom_site_type_symbol
_atom_site_fract_x
_atom_site_fract_y
_atom_site_fract_z
Br1 Br 0.27016(7) 0.31068(8) 0.20758(3)
O1 O 0.8591(5) 0.6348(4) 0.6159(2)
O2 O 0.6519(4) 0.5095(3) 0.62403(18)
O3 O 0.4936(5) 0.1933(4) 0.5876(2)
O4 O 0.4332(4) 0.3437(3) 0.68038(19)
O5 O 0.4477(3) 0.6750(3) 0.55497(17)
O6 O 0.3092(3) 0.4819(3) 0.52957(18)
C1 C 0.7687(6) 0.5653(5) 0.5836(3)
C2 C 0.7575(6) 0.5242(4) 0.5006(3)
H1 H 0.8516 0.4907 0.4812
H2 H 0.7247 0.6044 0.4695
C3 C 0.6437(5) 0.4045(4) 0.5002(3)
H3 H 0.6959 0.3148 0.5106
C4 C 0.5513(5) 0.4409(4) 0.5724(2)
C5 C 0.4898(5) 0.3090(5) 0.6136(3)
C6 C 0.3732(7) 0.2286(6) 0.7260(3)
H4 H 0.2853 0.1929 0.7020
H5 H 0.3500 0.2633 0.7766
H6 H 0.4444 0.1530 0.7298
C7 C 0.4299(5) 0.5488(5) 0.5531(2)
C8 C 0.1955(5) 0.5709(5) 0.4967(3)
H7 H 0.1410 0.6164 0.5373
H8 H 0.1302 0.5131 0.4664
H9 H 0.2398 0.6426 0.4646
C9 C 0.5578(5) 0.3849(4) 0.4261(2)
C10 C 0.5272(5) 0.2483(4) 0.4005(3)
H10 H 0.5636 0.1702 0.4277
C11 C 0.4432(6) 0.2254(5) 0.3349(3)
H11 H 0.4225 0.1329 0.3184
C12 C 0.3912(5) 0.3405(6) 0.2949(3)
C13 C 0.4215(7) 0.4774(6) 0.3187(3)
H12 H 0.3850 0.5552 0.2913
C14 C 0.5064(6) 0.4986(5) 0.3838(3)
H13 H 0.5292 0.5913 0.3992
loop_
_geom_bond_atom_site_label_1
_geom_bond_atom_site_label_2
_geom_bond_site_symmetry_1
_geom_bond_site_symmetry_2
Br1 C12 1_555 1_555
O1 C1 1_555 1_555
O2 C1 1_555 1_555
O3 C5 1_555 1_555
O4 C5 1_555 1_555
O5 C7 1_555 1_555
O6 C7 1_555 1_555
C1 C2 1_555 1_555
C2 H1 1_555 1_555
H2 C2 1_555 1_555
C3 C2 1_555 1_555
H3 C3 1_555 1_555
C4 O2 1_555 1_555
C5 C4 1_555 1_555
C6 O4 1_555 1_555
H4 C6 1_555 1_555
H5 C6 1_555 1_555
H6 C6 1_555 1_555
C7 C4 1_555 1_555
C8 O6 1_555 1_555
H7 C8 1_555 1_555
H8 C8 1_555 1_555
H9 C8 1_555 1_555
C9 C3 1_555 1_555
C10 C9 1_555 1_555
H10 C10 1_555 1_555
C11 C10 1_555 1_555
H11 C11 1_555 1_555
C12 C11 1_555 1_555
C13 C12 1_555 1_555
H12 C13 1_555 1_555
C14 C9 1_555 1_555
H13 C14 1_555 1_555
C3 C4 1_555 1_555
C13 C14 1_555 1_555

#END
