
#######################################################################
#
#                 Cambridge Crystallographic Data Centre
#                                CCDC 
#
#######################################################################
#
# If this CIF has been generated from an entry in the Cambridge 
# Structural Database, then it will include bibliographic, chemical, 
# crystal, experimental, refinement or atomic coordinate data resulting 
# from the CCDC's data processing and validation procedures.
#
#######################################################################

data_OJIZAJ
_chemical_formula_moiety         'C45 H53 F3 Si2'
_chemical_name_systematic        
((2-(Trifluoromethyl)pentacene-5,14-diyl)diethyne-2,1-diyl)bis(triisopropylsilane)
_symmetry_cell_setting           triclinic
_symmetry_space_group_name_H-M   'P -1'
_symmetry_Int_Tables_number      2
_space_group_name_Hall           '-P 1'
loop_
_symmetry_equiv_pos_site_id
_symmetry_equiv_pos_as_xyz
1 x,y,z
2 -x,-y,-z
_cell_length_a                   7.7521(2)
_cell_length_b                   15.8341(4)
_cell_length_c                   17.6273(5)
_cell_angle_alpha                70.9410(10)
_cell_angle_beta                 80.2570(10)
_cell_angle_gamma                81.9880(10)
_cell_volume                     2007.37
_exptl_crystal_colour            blue
_exptl_crystal_description       lath
_cell_formula_units_Z            2
loop_
_atom_site_label
_atom_site_type_symbol
_atom_site_fract_x
_atom_site_fract_y
_atom_site_fract_z
Si1 Si 0.01807(10) 0.30308(5) 0.92360(5)
C1 C 0.3444(3) 0.30842(18) 0.68904(16)
C2 C 0.3191(3) 0.37640(18) 0.61423(16)
C3 C 0.2096(3) 0.45487(18) 0.61187(16)
H1 H 0.1512 0.4629 0.6613
C4 C 0.1834(3) 0.52184(18) 0.53919(17)
C5 C 0.0725(3) 0.60072(18) 0.53669(17)
H2 H 0.0127 0.6084 0.5860
C6 C 0.0478(4) 0.66719(18) 0.46507(17)
C7 C -0.0653(4) 0.74770(19) 0.46246(19)
H3 H -0.1273 0.7555 0.5114
C8 C -0.0850(4) 0.8125(2) 0.3915(2)
H4 H -0.1605 0.8653 0.3911
C9 C 0.0063(4) 0.8026(2) 0.31710(19)
H5 H -0.0078 0.8492 0.2678
C10 C 0.1133(4) 0.7273(2) 0.31622(18)
H6 H 0.1722 0.7215 0.2661
C11 C 0.1389(4) 0.65648(19) 0.38958(17)
C12 C 0.2475(4) 0.57824(19) 0.39084(17)
H7 H 0.3065 0.5710 0.3412
C13 C 0.2721(3) 0.50961(18) 0.46392(16)
C14 C 0.3811(3) 0.43041(19) 0.46638(16)
H8 H 0.4402 0.4224 0.4171
C15 C 0.4052(3) 0.36315(18) 0.53912(16)
C16 C 0.5117(3) 0.28142(19) 0.54128(17)
C17 C 0.5354(3) 0.21463(19) 0.61537(17)
C18 C 0.6399(4) 0.13219(19) 0.61872(18)
H9 H 0.6954 0.1218 0.5698
C19 C 0.6615(4) 0.0685(2) 0.69027(19)
C20 C 0.6108(5) 0.0108(3) 0.8406(2)
F1 F 0.5383(4) 0.03227(18) 0.90646(14)
F2 F 0.7818(3) -0.01250(15) 0.84719(13)
F3 F 0.5434(3) -0.06538(16) 0.84487(15)
C21 C 0.5819(4) 0.0836(2) 0.76474(19)
H10 H 0.7297 0.0135 0.6911
C22 C 0.4808(4) 0.1609(2) 0.76427(18)
H11 H 0.4276 0.1697 0.8141
C23 C 0.4535(3) 0.22920(19) 0.69018(17)
C24 C 0.2506(4) 0.31781(18) 0.76356(17)
C25 C 0.1662(4) 0.31907(19) 0.82717(17)
C26 C -0.0871(4) 0.1957(2) 0.94354(19)
H12 H -0.1888 0.2116 0.9118
C27 C -0.1621(5) 0.1559(3) 1.0330(2)
H13 H -0.2301 0.1058 1.0389
H14 H -0.2386 0.2022 1.0511
H15 H -0.0653 0.1343 1.0658
C28 C 0.0334(5) 0.1227(2) 0.9155(2)
H16 H 0.1299 0.1014 0.9485
H17 H 0.0813 0.1478 0.8585
H18 H -0.0344 0.0725 0.9218
C29 C 0.1520(4) 0.2961(2) 1.00545(19)
H19 H 0.0765 0.2735 1.0585
C30 C 0.3147(5) 0.2296(3) 1.0061(2)
H20 H 0.3926 0.2501 0.9551
H21 H 0.2792 0.1704 1.0124
H22 H 0.3768 0.2256 1.0514
C31 C 0.2058(5) 0.3868(3) 1.0007(3)
H23 H 0.2733 0.3793 1.0451
H24 H 0.1004 0.4279 1.0052
H25 H 0.2784 0.4116 0.9488
C32 C -0.1493(4) 0.4037(2) 0.90832(18)
H26 H -0.0839 0.4575 0.8974
C33 C -0.2844(4) 0.3993(2) 0.9841(2)
H27 H -0.3645 0.4543 0.9738
H28 H -0.2229 0.3936 1.0300
H29 H -0.3516 0.3473 0.9967
C34 C -0.2441(5) 0.4190(3) 0.8346(2)
H30 H -0.1574 0.4253 0.7861
H31 H -0.3246 0.4737 0.8273
H32 H -0.3109 0.3677 0.8433
C35 C 0.5914(3) 0.26556(19) 0.46733(17)
C36 C 0.6594(4) 0.2496(2) 0.40562(18)
Si2 Si 0.77825(12) 0.21319(6) 0.31881(5)
C37 C 0.6761(5) 0.1093(3) 0.3218(2)
H33 H 0.5613 0.1308 0.3000
C38 C 0.6341(7) 0.0459(3) 0.4077(3)
H34 H 0.5737 -0.0037 0.4060
H35 H 0.5583 0.0788 0.4410
H36 H 0.7436 0.0220 0.4311
C39 C 0.7873(6) 0.0584(3) 0.2662(2)
H37 H 0.8976 0.0317 0.2879
H38 H 0.8132 0.1003 0.2116
H39 H 0.7216 0.0110 0.2638
C40 C 1.0195(4) 0.1935(2) 0.3322(2)
H40 H 1.0480 0.2469 0.3446
C41 C 1.0619(5) 0.1115(3) 0.4042(2)
H41 H 1.0360 0.0571 0.3949
H42 H 0.9901 0.1179 0.4537
H43 H 1.1866 0.1071 0.4100
C42 C 1.1398(5) 0.1901(3) 0.2541(2)
H44 H 1.2624 0.1776 0.2646
H45 H 1.1256 0.2480 0.2119
H46 H 1.1080 0.1427 0.2360
C43 C 0.7443(5) 0.3091(2) 0.2236(2)
H47 H 0.8127 0.2913 0.1770
C44 C 0.5530(5) 0.3291(3) 0.2089(2)
H48 H 0.4812 0.3433 0.2552
H49 H 0.5123 0.2764 0.2020
H50 H 0.5422 0.3803 0.1598
C45 C 0.8170(7) 0.3934(3) 0.2252(3)
H51 H 0.7981 0.4422 0.1754
H52 H 0.9431 0.3810 0.2292
H53 H 0.7563 0.4108 0.2720
C46? C 0.6615(4) 0.0685(2) 0.69027(19)
C47? C 0.5819(4) 0.0836(2) 0.76474(19)
C48? C 0.721(3) 0.1265(11) 0.3211(14)
C49? C 0.606(5) 0.065(2) 0.3892(18)
C50? C 0.714(4) 0.1035(19) 0.2425(15)
C51? C 0.836(2) 0.3217(13) 0.2368(14)
C52? C 0.786(5) 0.4191(15) 0.237(2)
C53? C 1.020(3) 0.286(2) 0.2636(19)
C54? C 0.442(2) 0.2902(15) 0.2699(12)
C55? C 0.340(3) 0.3613(16) 0.3035(15)
C56? C 0.449(4) 0.316(2) 0.1796(13)
C57? C 0.771(3) -0.0154(14) 0.7062(11)
F4? F 0.908(2) -0.0203(12) 0.7440(10)
F5? F 0.6865(19) -0.0879(10) 0.7483(9)
F6? F 0.840(2) -0.0283(11) 0.6342(9)
H54? H 0.5999 0.0391 0.8148
H55? H -0.3712 0.4191 0.8517
H56? H -0.2040 0.3708 0.8105
H57? H -0.2177 0.4768 0.7945
H58? H 0.8444 0.1116 0.3339
H59? H 0.5328 0.1000 0.4216
H60? H 0.6799 0.0179 0.4236
H61? H 0.5297 0.0378 0.3664
H62? H 0.6946 0.1591 0.1982
H63? H 0.6185 0.0657 0.2512
H64? H 0.8263 0.0713 0.2283
H65? H 0.8381 0.3192 0.1807
H66? H 0.6860 0.4208 0.2789
H67? H 0.7527 0.4558 0.1839
H68? H 0.8860 0.4427 0.2478
H69? H 1.1072 0.2891 0.2157
H70? H 1.0175 0.2238 0.2987
H71? H 1.0519 0.3230 0.2934
H72? H 0.3718 0.2372 0.2923
H73? H 0.4048 0.3720 0.3420
H74? H 0.2251 0.3411 0.3311
H75? H 0.3225 0.4171 0.2591
H76? H 0.5660 0.2977 0.1558
H77? H 0.4232 0.3807 0.1573
H78? H 0.3611 0.2851 0.1669
Si3? Si 0.6629(9) 0.2492(5) 0.3070(4)
loop_
_geom_bond_atom_site_label_1
_geom_bond_atom_site_label_2
_geom_bond_site_symmetry_1
_geom_bond_site_symmetry_2
Si1 C25 1_555 1_555
C1 C2 1_555 1_555
C2 C3 1_555 1_555
C3 H1 1_555 1_555
C4 C3 1_555 1_555
C5 C4 1_555 1_555
H2 C5 1_555 1_555
C6 C5 1_555 1_555
C7 C6 1_555 1_555
H3 C7 1_555 1_555
C8 C7 1_555 1_555
H4 C8 1_555 1_555
C9 C8 1_555 1_555
H5 C9 1_555 1_555
C10 C9 1_555 1_555
H6 C10 1_555 1_555
C11 C6 1_555 1_555
C12 C11 1_555 1_555
H7 C12 1_555 1_555
C13 C4 1_555 1_555
C14 C13 1_555 1_555
H8 C14 1_555 1_555
C15 C2 1_555 1_555
C16 C15 1_555 1_555
C17 C16 1_555 1_555
C18 C17 1_555 1_555
H9 C18 1_555 1_555
C19 C18 1_555 1_555
C20 F1 1_555 1_555
F2 C20 1_555 1_555
F3 C20 1_555 1_555
C21 C19 1_555 1_555
H10 C19 1_555 1_555
C22 C21 1_555 1_555
H11 C22 1_555 1_555
C23 C1 1_555 1_555
C24 C1 1_555 1_555
C25 C24 1_555 1_555
C26 Si1 1_555 1_555
H12 C26 1_555 1_555
C27 C26 1_555 1_555
H13 C27 1_555 1_555
H14 C27 1_555 1_555
H15 C27 1_555 1_555
C28 C26 1_555 1_555
H16 C28 1_555 1_555
H17 C28 1_555 1_555
H18 C28 1_555 1_555
C29 Si1 1_555 1_555
H19 C29 1_555 1_555
C30 C29 1_555 1_555
H20 C30 1_555 1_555
H21 C30 1_555 1_555
H22 C30 1_555 1_555
C31 C29 1_555 1_555
H23 C31 1_555 1_555
H24 C31 1_555 1_555
H25 C31 1_555 1_555
C32 Si1 1_555 1_555
H26 C32 1_555 1_555
C33 C32 1_555 1_555
H27 C33 1_555 1_555
H28 C33 1_555 1_555
H29 C33 1_555 1_555
C34 C32 1_555 1_555
H30 C34 1_555 1_555
H31 C34 1_555 1_555
H32 C34 1_555 1_555
C35 C16 1_555 1_555
C36 C35 1_555 1_555
Si2 C36 1_555 1_555
C37 Si2 1_555 1_555
H33 C37 1_555 1_555
C38 C37 1_555 1_555
H34 C38 1_555 1_555
H35 C38 1_555 1_555
H36 C38 1_555 1_555
C39 C37 1_555 1_555
H37 C39 1_555 1_555
H38 C39 1_555 1_555
H39 C39 1_555 1_555
C40 Si2 1_555 1_555
H40 C40 1_555 1_555
C41 C40 1_555 1_555
H41 C41 1_555 1_555
H42 C41 1_555 1_555
H43 C41 1_555 1_555
C42 C40 1_555 1_555
H44 C42 1_555 1_555
H45 C42 1_555 1_555
H46 C42 1_555 1_555
C43 Si2 1_555 1_555
H47 C43 1_555 1_555
C44 C43 1_555 1_555
H48 C44 1_555 1_555
H49 C44 1_555 1_555
H50 C44 1_555 1_555
C45 C43 1_555 1_555
H51 C45 1_555 1_555
H52 C45 1_555 1_555
H53 C45 1_555 1_555
C10 C11 1_555 1_555
C12 C13 1_555 1_555
C14 C15 1_555 1_555
C17 C23 1_555 1_555
C20 C21 1_555 1_555
C22 C23 1_555 1_555

#END
