
#######################################################################
#
#                 Cambridge Crystallographic Data Centre
#                                CCDC 
#
#######################################################################
#
# If this CIF has been generated from an entry in the Cambridge 
# Structural Database, then it will include bibliographic, chemical, 
# crystal, experimental, refinement or atomic coordinate data resulting 
# from the CCDC's data processing and validation procedures.
#
#######################################################################

data_OJOMIJ
_chemical_formula_moiety         'C19 H28 B1 N1 O2'
_chemical_name_systematic        
'1-(L-Phenylalanine methyl ester-N)-1-boraadamantane'
_chemical_properties_biological  
'antiproliferative effect on the CD81 enriched astrocytes relative to the CD81 deficient cell lines; potential antihepatitis C virus (HCV) agent'
_symmetry_cell_setting           monoclinic
_symmetry_space_group_name_H-M   'P 21'
_symmetry_Int_Tables_number      4
_space_group_name_Hall           'P 2yb'
loop_
_symmetry_equiv_pos_site_id
_symmetry_equiv_pos_as_xyz
1 x,y,z
2 -x,1/2+y,-z
_cell_length_a                   7.0553(3)
_cell_length_b                   21.9131(11)
_cell_length_c                   11.4857(6)
_cell_angle_alpha                90
_cell_angle_beta                 90.8710(10)
_cell_angle_gamma                90
_cell_volume                     1775.52
_exptl_crystal_colour            colorless
_exptl_crystal_description       plate
_chemical_melting_point          '53-59 deg.C'
_cell_formula_units_Z            4
loop_
_atom_site_label
_atom_site_type_symbol
_atom_site_fract_x
_atom_site_fract_y
_atom_site_fract_z
B1 B 0.3891(4) 0.46537(13) 0.6120(2)
N1 N 0.2114(3) 0.45849(12) 0.51845(18)
O1 O 0.4586(2) 0.47996(8) 0.25891(14)
O2 O 0.3383(3) 0.39273(8) 0.32639(14)
C1 C 0.5819(4) 0.43648(12) 0.5599(2)
C2 C 0.4232(4) 0.53644(12) 0.6452(2)
C3 C 0.3295(4) 0.42785(13) 0.7263(2)
C4 C 0.7338(4) 0.44240(12) 0.6570(2)
C5 C 0.7650(4) 0.50987(12) 0.6875(2)
C6 C 0.5830(4) 0.53795(12) 0.7384(2)
C7 C 0.5242(5) 0.50165(13) 0.8459(2)
C8 C 0.4919(4) 0.43420(12) 0.8160(2)
C9 C 0.6737(4) 0.40780(13) 0.7665(2)
C10 C 0.2216(4) 0.48692(13) 0.4006(2)
C11 C 0.3470(3) 0.44741(12) 0.32663(19)
C12 C 0.5646(5) 0.44496(18) 0.1732(3)
C13 C 0.0217(4) 0.48955(16) 0.3454(2)
C14 C 0.0146(4) 0.51281(12) 0.2213(2)
C15 C -0.0320(5) 0.57247(15) 0.1971(3)
C16 C -0.0342(6) 0.59350(17) 0.0828(3)
C17 C 0.0081(5) 0.55467(17) -0.0073(3)
C18 C 0.0516(4) 0.49533(16) 0.0163(2)
C19 C 0.0542(4) 0.47390(13) 0.1291(2)
H1 H 0.190(4) 0.4188(15) 0.504(2)
H2 H 0.096(5) 0.4699(15) 0.556(3)
H3 H 0.632(3) 0.4580(11) 0.493(2)
H4 H 0.568(4) 0.3908(13) 0.532(2)
H5 H 0.310(4) 0.5574(11) 0.6809(19)
H6 H 0.456(4) 0.5651(12) 0.576(2)
H7 H 0.210(5) 0.4433(13) 0.759(2)
H8 H 0.307(4) 0.3835(12) 0.708(2)
H9 H 0.858(4) 0.4292(12) 0.629(2)
H10 H 0.811(4) 0.5319(13) 0.614(3)
H11 H 0.873(4) 0.5142(12) 0.747(2)
H12 H 0.613(4) 0.5811(13) 0.762(2)
H13 H 0.622(5) 0.5042(13) 0.906(3)
H14 H 0.402(4) 0.5182(13) 0.882(2)
H15 H 0.469(3) 0.4107(12) 0.885(2)
H16 H 0.774(4) 0.4140(12) 0.831(2)
H17 H 0.657(4) 0.3635(14) 0.744(2)
H18 H 0.275(3) 0.5268(12) 0.408(2)
H19 H 0.461(5) 0.4198(17) 0.127(3)
H20 H 0.651(4) 0.4146(15) 0.217(3)
H21 H 0.631(4) 0.4756(15) 0.129(3)
H22 H -0.045(5) 0.4463(17) 0.351(3)
H23 H -0.051(5) 0.5217(17) 0.396(3)
H24 H -0.054(5) 0.6025(17) 0.267(3)
H25 H -0.064(6) 0.634(2) 0.073(3)
H26 H 0.016(4) 0.5664(14) -0.088(3)
H27 H 0.079(4) 0.4630(15) -0.049(3)
H28 H 0.087(3) 0.4314(12) 0.146(2)
B2 B 0.1296(4) 0.24613(13) 0.3487(2)
N2 N 0.3073(3) 0.26089(11) 0.26228(16)
O3 O 0.0591(2) 0.24949(8) -0.00254(14)
O4 O 0.1906(3) 0.33466(8) 0.07101(15)
C20 C -0.0596(4) 0.28198(13) 0.3085(2)
C21 C 0.0879(4) 0.17353(12) 0.3543(2)
C22 C 0.1994(4) 0.26873(13) 0.4770(2)
C23 C -0.2101(4) 0.26806(12) 0.4014(2)
C24 C -0.2484(4) 0.19897(13) 0.4057(3)
C25 C -0.0693(4) 0.16451(13) 0.4443(2)
C26 C -0.0038(5) 0.18757(14) 0.5638(2)
C27 C 0.0373(4) 0.25597(13) 0.5613(2)
C28 C -0.1421(4) 0.28969(14) 0.5214(2)
C29 C 0.3003(4) 0.23756(12) 0.1399(2)
C30 C 0.1760(4) 0.27988(12) 0.06865(19)
C31 C -0.0472(5) 0.2863(2) -0.0860(3)
C32 C 0.4989(4) 0.23717(17) 0.0882(2)
C33 C 0.5026(3) 0.21221(12) -0.0336(2)
C34 C 0.5397(5) 0.15096(15) -0.0523(3)
C35 C 0.5380(6) 0.12854(19) -0.1664(4)
C36 C 0.4996(5) 0.1661(2) -0.2590(3)
C37 C 0.4636(4) 0.22638(18) -0.2404(3)
C38 C 0.4657(4) 0.24907(14) -0.1296(2)
H29 H 0.326(4) 0.3049(16) 0.255(3)
H30 H 0.419(4) 0.2443(12) 0.295(2)
H31 H -0.119(4) 0.2704(13) 0.227(2)
H32 H -0.039(4) 0.3278(15) 0.306(2)
H33 H 0.046(4) 0.1518(14) 0.278(2)
H34 H 0.208(4) 0.1497(11) 0.380(2)
H35 H 0.316(4) 0.2453(12) 0.503(2)
H36 H 0.225(4) 0.3148(13) 0.478(2)
H37 H -0.329(4) 0.2902(13) 0.377(2)
H38 H -0.295(4) 0.1845(13) 0.330(3)
H39 H -0.353(4) 0.1915(13) 0.460(2)
H40 H -0.101(4) 0.1187(13) 0.450(2)
H41 H -0.107(4) 0.1791(12) 0.623(2)
H42 H 0.118(5) 0.1684(14) 0.590(2)
H43 H 0.067(4) 0.2670(15) 0.641(3)
H44 H -0.246(4) 0.2821(12) 0.580(2)
H45 H -0.113(4) 0.3324(15) 0.522(2)
H46 H 0.243(3) 0.1967(11) 0.1419(18)
H47 H -0.126(5) 0.3163(17) -0.038(3)
H48 H -0.128(5) 0.2511(17) -0.137(3)
H49 H 0.046(4) 0.3105(13) -0.134(3)
H50 H 0.585(4) 0.2118(13) 0.142(2)
H51 H 0.539(3) 0.2786(12) 0.090(2)
H52 H 0.574(5) 0.1245(17) 0.012(3)
H53 H 0.573(6) 0.083(2) -0.164(3)
H54 H 0.500(5) 0.1516(16) -0.340(3)
H55 H 0.444(5) 0.2533(16) -0.307(3)
H56 H 0.446(4) 0.2933(14) -0.117(2)
loop_
_geom_bond_atom_site_label_1
_geom_bond_atom_site_label_2
_geom_bond_site_symmetry_1
_geom_bond_site_symmetry_2
B1 N1 1_555 1_555
N1 C10 1_555 1_555
O1 C11 1_555 1_555
O2 C11 1_555 1_555
C1 B1 1_555 1_555
C2 B1 1_555 1_555
C3 B1 1_555 1_555
C4 C1 1_555 1_555
C5 C4 1_555 1_555
C6 C2 1_555 1_555
C7 C6 1_555 1_555
C8 C3 1_555 1_555
C9 C4 1_555 1_555
C10 C11 1_555 1_555
C12 O1 1_555 1_555
C13 C10 1_555 1_555
C14 C13 1_555 1_555
C15 C14 1_555 1_555
C16 C15 1_555 1_555
C17 C16 1_555 1_555
C18 C17 1_555 1_555
C19 C14 1_555 1_555
H1 N1 1_555 1_555
H2 N1 1_555 1_555
H3 C1 1_555 1_555
H4 C1 1_555 1_555
H5 C2 1_555 1_555
H6 C2 1_555 1_555
H7 C3 1_555 1_555
H8 C3 1_555 1_555
H9 C4 1_555 1_555
H10 C5 1_555 1_555
H11 C5 1_555 1_555
H12 C6 1_555 1_555
H13 C7 1_555 1_555
H14 C7 1_555 1_555
H15 C8 1_555 1_555
H16 C9 1_555 1_555
H17 C9 1_555 1_555
H18 C10 1_555 1_555
H19 C12 1_555 1_555
H20 C12 1_555 1_555
H21 C12 1_555 1_555
H22 C13 1_555 1_555
H23 C13 1_555 1_555
H24 C15 1_555 1_555
H25 C16 1_555 1_555
H26 C17 1_555 1_555
H27 C18 1_555 1_555
H28 C19 1_555 1_555
B2 N2 1_555 1_555
N2 C29 1_555 1_555
O3 C30 1_555 1_555
O4 C30 1_555 1_555
C20 B2 1_555 1_555
C21 B2 1_555 1_555
C22 B2 1_555 1_555
C23 C20 1_555 1_555
C24 C23 1_555 1_555
C25 C21 1_555 1_555
C26 C25 1_555 1_555
C27 C22 1_555 1_555
C28 C23 1_555 1_555
C29 C30 1_555 1_555
C31 O3 1_555 1_555
C32 C29 1_555 1_555
C33 C32 1_555 1_555
C34 C33 1_555 1_555
C35 C34 1_555 1_555
C36 C35 1_555 1_555
C37 C36 1_555 1_555
C38 C33 1_555 1_555
H29 N2 1_555 1_555
H30 N2 1_555 1_555
H31 C20 1_555 1_555
H32 C20 1_555 1_555
H33 C21 1_555 1_555
H34 C21 1_555 1_555
H35 C22 1_555 1_555
H36 C22 1_555 1_555
H37 C23 1_555 1_555
H38 C24 1_555 1_555
H39 C24 1_555 1_555
H40 C25 1_555 1_555
H41 C26 1_555 1_555
H42 C26 1_555 1_555
H43 C27 1_555 1_555
H44 C28 1_555 1_555
H45 C28 1_555 1_555
H46 C29 1_555 1_555
H47 C31 1_555 1_555
H48 C31 1_555 1_555
H49 C31 1_555 1_555
H50 C32 1_555 1_555
H51 C32 1_555 1_555
H52 C34 1_555 1_555
H53 C35 1_555 1_555
H54 C36 1_555 1_555
H55 C37 1_555 1_555
H56 C38 1_555 1_555
C5 C6 1_555 1_555
C7 C8 1_555 1_555
C8 C9 1_555 1_555
C18 C19 1_555 1_555
C24 C25 1_555 1_555
C26 C27 1_555 1_555
C27 C28 1_555 1_555
C37 C38 1_555 1_555

#END
