
#######################################################################
#
#                 Cambridge Crystallographic Data Centre
#                                CCDC 
#
#######################################################################
#
# If this CIF has been generated from an entry in the Cambridge 
# Structural Database, then it will include bibliographic, chemical, 
# crystal, experimental, refinement or atomic coordinate data resulting 
# from the CCDC's data processing and validation procedures.
#
#######################################################################

data_OJOPAF
_chemical_formula_moiety         'C22 H20 N2 O2 S1'
_chemical_name_systematic        
N-(3-(1H-Indol-3-yl)-4-methylphenyl)-4-methylbenzenesulfonamide
_symmetry_cell_setting           orthorhombic
_symmetry_space_group_name_H-M   'P 21 21 21'
_symmetry_Int_Tables_number      19
_space_group_name_Hall           'P 2ac 2ab'
loop_
_symmetry_equiv_pos_site_id
_symmetry_equiv_pos_as_xyz
1 x,y,z
2 1/2-x,-y,1/2+z
3 -x,1/2+y,1/2-z
4 1/2+x,1/2-y,-z
_cell_length_a                   7.527(4)
_cell_length_b                   11.266(6)
_cell_length_c                   23.106(11)
_cell_angle_alpha                90
_cell_angle_beta                 90
_cell_angle_gamma                90
_cell_volume                     1959.37
_exptl_crystal_colour            colorless
_exptl_crystal_description       prism
_cell_formula_units_Z            4
loop_
_atom_site_label
_atom_site_type_symbol
_atom_site_fract_x
_atom_site_fract_y
_atom_site_fract_z
S1 S 0.90385(12) 0.33558(7) 0.04848(3)
O1 O 1.0316(4) 0.3401(2) 0.09387(10)
O2 O 0.9194(5) 0.2455(2) 0.00527(12)
N1 N 0.7111(4) 0.3129(3) 0.07723(12)
H1 H 0.628(6) 0.281(4) 0.0519(17)
N2 N 0.8729(6) 0.6439(3) 0.33139(15)
H2 H 0.892(7) 0.711(4) 0.3525(19)
C1 C 0.6347(5) 0.3794(3) 0.12310(14)
C2 C 0.7298(6) 0.4221(3) 0.16961(14)
H3 H 0.8516 0.4086 0.1713
C3 C 0.6484(5) 0.4845(3) 0.21403(15)
C4 C 0.4611(6) 0.5023(3) 0.21277(16)
C5 C 0.3703(6) 0.4566(3) 0.16636(16)
H4 H 0.2476 0.4664 0.1651
C6 C 0.4515(6) 0.3970(3) 0.12145(16)
H5 H 0.3848 0.3689 0.0904
C7 C 0.9092(6) 0.4740(3) 0.01405(15)
C8 C 0.8536(8) 0.4825(5) -0.0426(2)
H6 H 0.8102 0.4163 -0.0620
C9 C 0.8637(10) 0.5904(6) -0.0698(3)
H7 H 0.8236 0.5970 -0.1077
C10 C 0.9309(8) 0.6891(5) -0.0427(3)
C11 C 0.9810(8) 0.6783(4) 0.0136(3)
H8 H 1.0212 0.7448 0.0335
C12 C 0.9731(7) 0.5706(4) 0.0416(2)
H9 H 1.0121 0.5644 0.0797
C13 C 0.9459(12) 0.8071(6) -0.0741(3)
H10 H 1.0674 0.8331 -0.0736
H11 H 0.8729 0.8650 -0.0550
H12 H 0.9070 0.7978 -0.1134
C14 C 0.7556(8) 0.6371(4) 0.28763(16)
H13 H 0.6831 0.6992 0.2756
C15 C 0.7573(7) 0.5266(3) 0.26316(15)
C16 C 0.8863(6) 0.4608(3) 0.29464(15)
C17 C 0.9549(6) 0.5362(4) 0.33741(16)
C18 C 1.0803(8) 0.4998(5) 0.37738(19)
H14 H 1.1236 0.5514 0.4054
C19 C 1.1377(8) 0.3862(6) 0.3741(2)
H15 H 1.2223 0.3596 0.4004
C20 C 1.0734(8) 0.3082(5) 0.3323(2)
H16 H 1.1151 0.2306 0.3317
C21 C 0.9510(6) 0.3429(4) 0.29247(18)
H17 H 0.9107 0.2902 0.2644
C22 C 0.3625(8) 0.5677(5) 0.2586(2)
H18 H 0.3834 0.6514 0.2545
H19 H 0.4029 0.5420 0.2960
H20 H 0.2377 0.5520 0.2550
loop_
_geom_bond_atom_site_label_1
_geom_bond_atom_site_label_2
_geom_bond_site_symmetry_1
_geom_bond_site_symmetry_2
S1 O1 1_555 1_555
O2 S1 1_555 1_555
N1 S1 1_555 1_555
H1 N1 1_555 1_555
N2 H2 1_555 1_555
C1 N1 1_555 1_555
C2 C1 1_555 1_555
H3 C2 1_555 1_555
C3 C2 1_555 1_555
C4 C3 1_555 1_555
C5 C4 1_555 1_555
H4 C5 1_555 1_555
C6 C1 1_555 1_555
H5 C6 1_555 1_555
C7 S1 1_555 1_555
C8 C7 1_555 1_555
H6 C8 1_555 1_555
C9 C8 1_555 1_555
H7 C9 1_555 1_555
C10 C9 1_555 1_555
C11 C10 1_555 1_555
H8 C11 1_555 1_555
C12 C7 1_555 1_555
H9 C12 1_555 1_555
C13 C10 1_555 1_555
H10 C13 1_555 1_555
H11 C13 1_555 1_555
H12 C13 1_555 1_555
C14 N2 1_555 1_555
H13 C14 1_555 1_555
C15 C3 1_555 1_555
C16 C15 1_555 1_555
C17 N2 1_555 1_555
C18 C17 1_555 1_555
H14 C18 1_555 1_555
C19 C18 1_555 1_555
H15 C19 1_555 1_555
C20 C19 1_555 1_555
H16 C20 1_555 1_555
C21 C16 1_555 1_555
H17 C21 1_555 1_555
C22 C4 1_555 1_555
H18 C22 1_555 1_555
H19 C22 1_555 1_555
H20 C22 1_555 1_555
C5 C6 1_555 1_555
C11 C12 1_555 1_555
C14 C15 1_555 1_555
C16 C17 1_555 1_555
C20 C21 1_555 1_555

#END
