
#######################################################################
#
#                 Cambridge Crystallographic Data Centre
#                                CCDC 
#
#######################################################################
#
# If this CIF has been generated from an entry in the Cambridge 
# Structural Database, then it will include bibliographic, chemical, 
# crystal, experimental, refinement or atomic coordinate data resulting 
# from the CCDC's data processing and validation procedures.
#
#######################################################################

data_OJOYOC
_chemical_formula_moiety         'C22 H20 O4'
_chemical_name_systematic        
2-(4-Methoxybenzoyl)-3-phenyl-3,5,6,7-tetrahydro-1-benzofuran-4(2H)-one
_symmetry_cell_setting           monoclinic
_symmetry_space_group_name_H-M   'C c'
_symmetry_Int_Tables_number      9
_space_group_name_Hall           'C -2yc'
loop_
_symmetry_equiv_pos_site_id
_symmetry_equiv_pos_as_xyz
1 x,y,z
2 x,-y,1/2+z
3 1/2+x,1/2+y,z
4 1/2+x,1/2-y,1/2+z
_cell_length_a                   9.1890(10)
_cell_length_b                   22.095(2)
_cell_length_c                   9.5997(11)
_cell_angle_alpha                90
_cell_angle_beta                 116.1490(10)
_cell_angle_gamma                90
_cell_volume                     1749.55
_exptl_crystal_colour            colorless
_cell_formula_units_Z            4
loop_
_atom_site_label
_atom_site_type_symbol
_atom_site_fract_x
_atom_site_fract_y
_atom_site_fract_z
C1 C 0.89904(19) 0.15146(6) 0.36454(18)
C2 C 0.80363(19) -0.03218(7) 0.3675(2)
O1 O 1.00026(16) -0.03768(6) 0.62797(16)
O2 O 1.17475(14) 0.05569(5) 0.63440(15)
C3 C 0.7336(2) -0.00062(7) 0.2283(2)
H1 H 0.7728 0.0376 0.2221
O3 O 0.85342(18) 0.20942(6) 0.66922(18)
C4 C 1.1554(2) 0.09991(8) 0.7228(2)
C5 C 0.94501(19) -0.00973(8) 0.5071(2)
C6 C 1.0162(2) 0.13046(7) 0.65413(19)
C7 C 0.91779(19) 0.10682(7) 0.49174(19)
H2 H 0.8107 0.0938 0.4793
C8 C 0.6178(2) -0.11390(8) 0.2460(3)
H3 H 0.5781 -0.1520 0.2520
C9 C 1.0201(2) 0.21363(7) 0.2370(2)
H4 H 1.1122 0.2281 0.2310
C10 C 1.0349(2) 0.17329(7) 0.35319(19)
H5 H 1.1374 0.1607 0.4245
C11 C 0.6070(2) -0.02476(8) 0.0985(2)
H6 H 0.5603 -0.0026 0.0069
C12 C 1.02171(19) 0.05029(7) 0.4955(2)
H7 H 1.0417 0.0501 0.4033
C13 C 0.9766(2) 0.17937(8) 0.7318(2)
C14 C 0.5506(2) -0.08196(8) 0.1062(2)
O4 O 0.43286(18) -0.11120(7) -0.01588(19)
C15 C 0.7329(2) 0.21134(8) 0.1407(2)
H8 H 0.6307 0.2241 0.0691
C16 C 0.7418(2) -0.08933(8) 0.3740(2)
H9 H 0.7855 -0.1109 0.4666
C17 C 0.7477(2) 0.17124(8) 0.2575(2)
H10 H 0.6552 0.1575 0.2641
C18 C 1.2856(2) 0.10899(9) 0.8819(2)
H11 H 1.3906 0.1038 0.8824
H12 H 1.2756 0.0792 0.9515
C19 C 0.8684(2) 0.23222(8) 0.1304(2)
H13 H 0.8579 0.2589 0.0516
C20 C 0.3663(3) -0.08164(13) -0.1627(3)
H14 H 0.3172 -0.0442 -0.1553
H15 H 0.2858 -0.1072 -0.2387
H16 H 0.4509 -0.0736 -0.1931
C21 C 1.0976(3) 0.18939(10) 0.8991(2)
H17 H 1.0636 0.1661 0.9653
H18 H 1.0955 0.2318 0.9243
C22 C 1.2724(3) 0.17191(10) 0.9366(3)
H19 H 1.3152 0.2008 0.8880
H20 H 1.3383 0.1743 1.0479
loop_
_geom_bond_atom_site_label_1
_geom_bond_atom_site_label_2
_geom_bond_site_symmetry_1
_geom_bond_site_symmetry_2
C1 C7 1_555 1_555
C2 C3 1_555 1_555
O1 C5 1_555 1_555
O2 C4 1_555 1_555
C3 H1 1_555 1_555
O3 C13 1_555 1_555
C4 C6 1_555 1_555
C5 C2 1_555 1_555
C6 C7 1_555 1_555
C7 H2 1_555 1_555
C8 H3 1_555 1_555
C9 H4 1_555 1_555
C10 C1 1_555 1_555
H5 C10 1_555 1_555
C11 C3 1_555 1_555
H6 C11 1_555 1_555
C12 O2 1_555 1_555
H7 C12 1_555 1_555
C13 C6 1_555 1_555
C14 C8 1_555 1_555
O4 C14 1_555 1_555
C15 H8 1_555 1_555
C16 C2 1_555 1_555
H9 C16 1_555 1_555
C17 C1 1_555 1_555
H10 C17 1_555 1_555
C18 C4 1_555 1_555
H11 C18 1_555 1_555
H12 C18 1_555 1_555
C19 C9 1_555 1_555
H13 C19 1_555 1_555
C20 O4 1_555 1_555
H14 C20 1_555 1_555
H15 C20 1_555 1_555
H16 C20 1_555 1_555
C21 C13 1_555 1_555
H17 C21 1_555 1_555
H18 C21 1_555 1_555
C22 C18 1_555 1_555
H19 C22 1_555 1_555
H20 C22 1_555 1_555
C5 C12 1_555 1_555
C7 C12 1_555 1_555
C8 C16 1_555 1_555
C9 C10 1_555 1_555
C11 C14 1_555 1_555
C15 C17 1_555 1_555
C15 C19 1_555 1_555
C21 C22 1_555 1_555

#END
