
#######################################################################
#
#                 Cambridge Crystallographic Data Centre
#                                CCDC 
#
#######################################################################
#
# If this CIF has been generated from an entry in the Cambridge 
# Structural Database, then it will include bibliographic, chemical, 
# crystal, experimental, refinement or atomic coordinate data resulting 
# from the CCDC's data processing and validation procedures.
#
#######################################################################

data_OJUDII
_chemical_formula_moiety         'C36 H36 N2 O3'
_chemical_name_systematic        
"t-butyl 1-benzyl-5-methyl-2-oxo-2',4'-diphenyl-1,2-dihydrospiro[indole-3,3'-pyrrolidine]-5'-carboxylate"
_symmetry_cell_setting           monoclinic
_symmetry_space_group_name_H-M   'P 21'
_symmetry_Int_Tables_number      4
_space_group_name_Hall           'P 2yb'
loop_
_symmetry_equiv_pos_site_id
_symmetry_equiv_pos_as_xyz
1 x,y,z
2 -x,1/2+y,-z
_cell_length_a                   11.3376(3)
_cell_length_b                   9.2055(2)
_cell_length_c                   14.8038(4)
_cell_angle_alpha                90
_cell_angle_beta                 106.3650(10)
_cell_angle_gamma                90
_cell_volume                     1482.45
_exptl_crystal_colour            colorless
_exptl_crystal_description       block
_cell_formula_units_Z            2
loop_
_atom_site_label
_atom_site_type_symbol
_atom_site_fract_x
_atom_site_fract_y
_atom_site_fract_z
C1 C 0.69866(16) 0.41316(19) 0.21143(12)
C2 C 0.78391(17) 0.2759(2) 0.22746(13)
H1 H 0.7387 0.1997 0.1856
C3 C 0.86160(17) 0.4483(2) 0.13666(13)
H2 H 0.8737 0.4258 0.0752
C4 C 0.72283(16) 0.47736(19) 0.12021(12)
H3 H 0.7078 0.5823 0.1176
C5 C 0.64562(17) 0.4070(2) 0.02978(12)
C6 C 0.68347(18) 0.2822(2) -0.00789(13)
H4 H 0.7567 0.2371 0.0242
C7 C 0.6129(2) 0.2245(2) -0.09279(14)
H5 H 0.6397 0.1421 -0.1176
C8 C 0.5029(2) 0.2895(2) -0.14043(14)
H6 H 0.4559 0.2515 -0.1974
C9 C 0.46346(19) 0.4113(2) -0.10274(14)
H7 H 0.3888 0.4541 -0.1339
C10 C 0.53456(18) 0.4702(2) -0.01857(13)
H8 H 0.5075 0.5529 0.0057
C11 C 0.56696(16) 0.3874(2) 0.21142(12)
C12 C 0.47467(17) 0.3021(2) 0.15615(13)
H9 H 0.4899 0.2450 0.1088
C13 C 0.35746(17) 0.3011(2) 0.17103(14)
C14 C 0.33636(18) 0.3880(2) 0.24179(15)
H10 H 0.2584 0.3895 0.2507
C15 C 0.42882(18) 0.4727(2) 0.29955(14)
H11 H 0.4141 0.5293 0.3473
C16 C 0.54316(17) 0.4700(2) 0.28375(12)
C17 C 0.2588(2) 0.2024(3) 0.11325(18)
H12 H 0.2803 0.1032 0.1301
H13 H 0.2515 0.2163 0.0476
H14 H 0.1819 0.2248 0.1252
C18 C 0.81905(17) 0.2143(2) 0.32604(14)
C19 C 0.7434(2) 0.1101(2) 0.34943(16)
H15 H 0.6737 0.0783 0.3039
C20 C 0.7707(3) 0.0529(3) 0.43989(18)
H16 H 0.7184 -0.0152 0.4547
C21 C 0.8751(3) 0.0967(3) 0.50787(17)
H17 H 0.8941 0.0574 0.5681
C22 C 0.9513(2) 0.1999(3) 0.48537(18)
H18 H 1.0217 0.2300 0.5308
C23 C 0.9233(2) 0.2582(3) 0.39588(16)
H19 H 0.9748 0.3281 0.3820
C24 C 0.74328(16) 0.52286(19) 0.29227(12)
C25 C 0.6585(2) 0.6416(2) 0.41197(14)
H20 H 0.5954 0.7158 0.3945
H21 H 0.7377 0.6900 0.4280
C26 C 0.64493(17) 0.5613(2) 0.49742(13)
C27 C 0.6914(2) 0.4224(3) 0.51879(15)
H22 H 0.7303 0.3763 0.4791
C28 C 0.6806(2) 0.3514(3) 0.59863(17)
H23 H 0.7118 0.2580 0.6121
C29 C 0.6238(2) 0.4191(4) 0.65814(16)
H24 H 0.6171 0.3718 0.7120
C30 C 0.5769(2) 0.5575(4) 0.63754(17)
H25 H 0.5387 0.6034 0.6777
C31 C 0.5864(2) 0.6283(3) 0.55711(16)
H26 H 0.5535 0.7209 0.5431
C32 C 0.95034(17) 0.5708(2) 0.17934(13)
C33 C 0.9799(2) 0.8334(2) 0.16300(17)
C34 C 0.8997(3) 0.9442(3) 0.0987(2)
H27 H 0.8919 0.9190 0.0344
H28 H 0.9364 1.0386 0.1119
H29 H 0.8198 0.9451 0.1091
C35 C 1.1010(2) 0.8150(3) 0.1395(2)
H30 H 1.1520 0.7474 0.1827
H31 H 1.1421 0.9071 0.1445
H32 H 1.0856 0.7788 0.0764
C36 C 0.9959(3) 0.8702(3) 0.2655(2)
H33 H 0.9168 0.8754 0.2770
H34 H 1.0367 0.9622 0.2799
H35 H 1.0444 0.7963 0.3047
N1 N 0.64907(14) 0.54704(17) 0.33158(10)
N2 N 0.88895(14) 0.31558(18) 0.19317(12)
H36 H 0.9568 0.2678 0.2046
O1 O 0.84355(12) 0.58094(16) 0.31737(10)
O2 O 1.04939(12) 0.54932(17) 0.23482(10)
O3 O 0.90717(12) 0.69744(16) 0.13961(10)
loop_
_geom_bond_atom_site_label_1
_geom_bond_atom_site_label_2
_geom_bond_site_symmetry_1
_geom_bond_site_symmetry_2
C1 C2 1_555 1_555
C2 H1 1_555 1_555
C3 H2 1_555 1_555
C4 C1 1_555 1_555
H3 C4 1_555 1_555
C5 C4 1_555 1_555
C6 C5 1_555 1_555
H4 C6 1_555 1_555
C7 C6 1_555 1_555
H5 C7 1_555 1_555
C8 C7 1_555 1_555
H6 C8 1_555 1_555
C9 C8 1_555 1_555
H7 C9 1_555 1_555
C10 C5 1_555 1_555
H8 C10 1_555 1_555
C11 C1 1_555 1_555
C12 C11 1_555 1_555
H9 C12 1_555 1_555
C13 C12 1_555 1_555
C14 C13 1_555 1_555
H10 C14 1_555 1_555
C15 C14 1_555 1_555
H11 C15 1_555 1_555
C16 C11 1_555 1_555
C17 C13 1_555 1_555
H12 C17 1_555 1_555
H13 C17 1_555 1_555
H14 C17 1_555 1_555
C18 C2 1_555 1_555
C19 C18 1_555 1_555
H15 C19 1_555 1_555
C20 C19 1_555 1_555
H16 C20 1_555 1_555
C21 C20 1_555 1_555
H17 C21 1_555 1_555
C22 C21 1_555 1_555
H18 C22 1_555 1_555
C23 C18 1_555 1_555
H19 C23 1_555 1_555
C24 C1 1_555 1_555
C25 H20 1_555 1_555
H21 C25 1_555 1_555
C26 C25 1_555 1_555
C27 C26 1_555 1_555
H22 C27 1_555 1_555
C28 C27 1_555 1_555
H23 C28 1_555 1_555
C29 C28 1_555 1_555
H24 C29 1_555 1_555
C30 C29 1_555 1_555
H25 C30 1_555 1_555
C31 C26 1_555 1_555
H26 C31 1_555 1_555
C32 C3 1_555 1_555
C33 C34 1_555 1_555
C34 H27 1_555 1_555
H28 C34 1_555 1_555
H29 C34 1_555 1_555
C35 C33 1_555 1_555
H30 C35 1_555 1_555
H31 C35 1_555 1_555
H32 C35 1_555 1_555
C36 C33 1_555 1_555
H33 C36 1_555 1_555
H34 C36 1_555 1_555
H35 C36 1_555 1_555
N1 C16 1_555 1_555
N2 C2 1_555 1_555
H36 N2 1_555 1_555
O1 C24 1_555 1_555
O2 C32 1_555 1_555
O3 C32 1_555 1_555
C3 C4 1_555 1_555
C3 N2 1_555 1_555
C9 C10 1_555 1_555
C15 C16 1_555 1_555
C22 C23 1_555 1_555
C24 N1 1_555 1_555
C25 N1 1_555 1_555
C30 C31 1_555 1_555
C33 O3 1_555 1_555

#END
