
#######################################################################
#
#                 Cambridge Crystallographic Data Centre
#                                CCDC 
#
#######################################################################
#
# If this CIF has been generated from an entry in the Cambridge 
# Structural Database, then it will include bibliographic, chemical, 
# crystal, experimental, refinement or atomic coordinate data resulting 
# from the CCDC's data processing and validation procedures.
#
#######################################################################

data_OJUSUH
_chemical_formula_moiety         'C18 H14 S14 1+,F6 P1 1-,0.5(C1 H2 Cl2)'
_chemical_name_systematic        
"1,2-bis((4',5'-(Ethylenedithio)tetrathiafulvalen-4-yl)sulfanyl)ethane hexafluorophosphate dichloromethane solvate"
_symmetry_cell_setting           triclinic
_symmetry_space_group_name_H-M   'P -1'
_symmetry_Int_Tables_number      2
_space_group_name_Hall           '-P 1'
loop_
_symmetry_equiv_pos_site_id
_symmetry_equiv_pos_as_xyz
1 x,y,z
2 -x,-y,-z
_cell_length_a                   7.6200(15)
_cell_length_b                   13.024(3)
_cell_length_c                   15.709(3)
_cell_angle_alpha                97.76(3)
_cell_angle_beta                 96.96(3)
_cell_angle_gamma                101.04(3)
_cell_volume                     1498.71
_exptl_crystal_colour            black
_exptl_crystal_description       plate
_cell_formula_units_Z            2
loop_
_atom_site_label
_atom_site_type_symbol
_atom_site_fract_x
_atom_site_fract_y
_atom_site_fract_z
S1 S -0.25241(16) 0.26293(9) 0.24467(7)
S2 S -0.07726(15) 0.53297(9) 0.25813(7)
S3 S -0.31385(15) 0.32349(8) 0.42701(7)
S4 S -0.17220(15) 0.55100(8) 0.43316(7)
S5 S -0.26641(15) 0.59912(8) 0.62714(7)
S6 S -0.41247(15) 0.37218(8) 0.62124(7)
S7 S -0.50968(15) 0.40420(9) 0.80225(7)
S8 S -0.46276(15) 0.14981(9) 0.73777(7)
S9 S 0.06469(14) 0.20096(8) 0.65190(6)
S10 S -0.31381(14) 0.10667(9) 0.57652(6)
S11 S 0.18430(14) 0.15518(8) 0.46271(6)
S12 S -0.19243(14) 0.05444(9) 0.38929(6)
S13 S 0.32611(16) 0.13668(10) 0.29784(7)
S14 S -0.12036(16) 0.00200(9) 0.21030(7)
C1 C -0.1153(7) 0.4310(4) 0.1633(3)
H1 H -0.1303 0.4638 0.1117
H2 H -0.0085 0.4009 0.1622
C2 C -0.2775(6) 0.3422(4) 0.1589(3)
H3 H -0.2962 0.2965 0.1030
H4 H -0.3840 0.3720 0.1630
C3 C -0.2337(5) 0.3617(3) 0.3343(3)
C4 C -0.1660(5) 0.4662(3) 0.3374(3)
C5 C -0.2670(5) 0.4499(3) 0.4865(3)
C6 C -0.3080(5) 0.4713(3) 0.5688(3)
C7 C -0.4166(5) 0.4583(3) 0.7174(2)
C8 C -0.3489(6) 0.5611(3) 0.7186(3)
H5 H -0.3461 0.6109 0.7674
C9 C -0.3244(6) 0.3465(3) 0.8469(3)
H6 H -0.2250 0.3609 0.8140
H7 H -0.2815 0.3805 0.9066
C10 C -0.3799(6) 0.2269(3) 0.8443(3)
H8 H -0.4733 0.2135 0.8807
H9 H -0.2764 0.2020 0.8696
C11 C -0.0949(6) 0.1982(3) 0.7221(3)
H10 H -0.0615 0.2241 0.7811
C12 C -0.2686(6) 0.1572(3) 0.6878(2)
C13 C -0.0892(5) 0.1378(3) 0.5602(2)
C14 C -0.0378(5) 0.1170(3) 0.4804(2)
C15 C 0.1390(6) 0.1091(3) 0.3508(3)
C16 C -0.0344(6) 0.0607(3) 0.3170(3)
C17 C 0.2415(6) 0.0645(4) 0.1896(3)
H11 H 0.3206 0.0919 0.1502
H12 H 0.2468 -0.0094 0.1893
C18 C 0.0505(7) 0.0707(4) 0.1558(3)
H13 H 0.0243 0.0414 0.0944
H14 H 0.0426 0.1447 0.1615
Cl1 Cl -0.3249(2) 0.07493(11) 1.01445(9)
C19 C -0.5535(13) 0.0325(8) 0.9575(7)
Cl1A Cl -0.6751(2) -0.07493(11) 0.98555(9)
C19A C -0.4465(13) -0.0325(8) 1.0425(7)
P1 P 0.18711(16) 0.29656(10) 0.99750(7)
F1 F 0.1277(5) 0.3103(3) 0.90074(19)
F2 F 0.2438(5) 0.2819(3) 1.09536(18)
F3 F 0.1600(6) 0.1732(3) 0.9679(2)
F4 F 0.2064(5) 0.4181(2) 1.0292(2)
F5 F -0.0180(4) 0.2750(3) 1.0118(2)
F6 F 0.3903(4) 0.3167(3) 0.9846(2)
loop_
_geom_bond_atom_site_label_1
_geom_bond_atom_site_label_2
_geom_bond_site_symmetry_1
_geom_bond_site_symmetry_2
P1 F1 1_555 1_555
S1 C2 1_555 1_555
S2 C1 1_555 1_555
S3 C3 1_555 1_555
S4 C4 1_555 1_555
S5 C6 1_555 1_555
S6 C6 1_555 1_555
S7 C7 1_555 1_555
S8 C10 1_555 1_555
S9 C11 1_555 1_555
S10 C12 1_555 1_555
S11 C14 1_555 1_555
S12 C14 1_555 1_555
S13 C15 1_555 1_555
S14 C16 1_555 1_555
F2 P1 1_555 1_555
F3 P1 1_555 1_555
F4 P1 1_555 1_555
F5 P1 1_555 1_555
F6 P1 1_555 1_555
C1 H1 1_555 1_555
H2 C1 1_555 1_555
C2 C1 1_555 1_555
H3 C2 1_555 1_555
H4 C2 1_555 1_555
C3 S1 1_555 1_555
C4 S2 1_555 1_555
C5 S3 1_555 1_555
C6 C5 1_555 1_555
C7 S6 1_555 1_555
C8 S5 1_555 1_555
H5 C8 1_555 1_555
C9 S7 1_555 1_555
H6 C9 1_555 1_555
H7 C9 1_555 1_555
C10 C9 1_555 1_555
H8 C10 1_555 1_555
H9 C10 1_555 1_555
C11 H10 1_555 1_555
C12 S8 1_555 1_555
C13 S9 1_555 1_555
C14 C13 1_555 1_555
C15 S11 1_555 1_555
C16 S12 1_555 1_555
C17 S13 1_555 1_555
H11 C17 1_555 1_555
H12 C17 1_555 1_555
C18 S14 1_555 1_555
H13 C18 1_555 1_555
H14 C18 1_555 1_555
Cl1 C19 1_555 1_555
C19 Cl1A 1_555 1_555
Cl1A C19A 1_555 1_555
C19A Cl1 1_555 1_555
S4 C5 1_555 1_555
S10 C13 1_555 1_555
C3 C4 1_555 1_555
C7 C8 1_555 1_555
C11 C12 1_555 1_555
C15 C16 1_555 1_555
C17 C18 1_555 1_555

#END
