
#######################################################################
#
#                 Cambridge Crystallographic Data Centre
#                                CCDC 
#
#######################################################################
#
# If this CIF has been generated from an entry in the Cambridge 
# Structural Database, then it will include bibliographic, chemical, 
# crystal, experimental, refinement or atomic coordinate data resulting 
# from the CCDC's data processing and validation procedures.
#
#######################################################################

data_OJUSOB
_chemical_formula_moiety         'C18 H14 S14 2+,2(C12 F4 N4 1-)'
_chemical_name_systematic        
"1,2-bis((4',5'-(Ethylenedithio)tetrathiafulvalen-4-yl)sulfanyl)ethane bis(2,3,5,6-tetrafluoro-7,7,8,8-tetracyanoquinodimethanide)"
_symmetry_cell_setting           triclinic
_symmetry_space_group_name_H-M   'P -1'
_symmetry_Int_Tables_number      2
_space_group_name_Hall           '-P 1'
loop_
_symmetry_equiv_pos_site_id
_symmetry_equiv_pos_as_xyz
1 x,y,z
2 -x,-y,-z
_cell_length_a                   8.5358(17)
_cell_length_b                   12.105(2)
_cell_length_c                   12.197(2)
_cell_angle_alpha                67.70(3)
_cell_angle_beta                 89.67(3)
_cell_angle_gamma                79.61(3)
_cell_volume                     1144.17
_exptl_crystal_colour            black
_exptl_crystal_description       needle
_cell_formula_units_Z            1
loop_
_atom_site_label
_atom_site_type_symbol
_atom_site_fract_x
_atom_site_fract_y
_atom_site_fract_z
S1 S 0.5614(2) 0.65683(13) 0.75157(13)
S2 S 0.3127(2) 0.75264(12) 0.87408(13)
S3 S 0.4674(2) 0.39677(13) 0.85723(13)
S4 S 0.2127(2) 0.48189(12) 0.98344(13)
S5 S 0.6853(2) 0.88877(14) 0.64595(13)
S6 S 0.0979(2) 0.25179(13) 1.08427(14)
S7 S 0.4062(2) 0.14726(13) 0.93260(14)
C1 C 0.4053(7) 0.6298(5) 0.8436(5)
C2 C 0.3657(7) 0.5147(5) 0.8919(5)
C3 C 0.3495(7) 0.2917(5) 0.9372(5)
C4 C 0.2325(8) 0.3301(5) 0.9959(5)
C5 C 0.5485(8) 0.8077(5) 0.7364(5)
C6 C 0.4316(8) 0.8505(5) 0.7927(5)
H1 H 0.4157 0.9304 0.7876
C7 C 0.2188(10) 0.0999(6) 0.9671(6)
H2 H 0.1394 0.1527 0.9037
H3 H 0.2289 0.0180 0.9693
C8 C 0.1602(10) 0.1015(6) 1.0823(6)
H4 H 0.2445 0.0562 1.1444
H5 H 0.0708 0.0597 1.1011
C9 C 0.5739(8) 0.9528(5) 0.5015(5)
H6 H 0.6425 0.9909 0.4405
H7 H 0.5412 0.8880 0.4844
C9A C 0.4261(8) 1.0472(5) 0.4985(5)
S5A S 0.3147(2) 1.11123(14) 0.35405(13)
C5A C 0.4515(8) 1.1923(5) 0.2636(5)
S1A S 0.4386(2) 1.34317(13) 0.24843(13)
C1A C 0.5947(7) 1.3702(5) 0.1564(5)
S2A S 0.6873(2) 1.24736(12) 0.12592(13)
C6A C 0.5684(8) 1.1495(5) 0.2073(5)
H1A H 0.5843 1.0696 0.2124
C2A C 0.6343(7) 1.4853(5) 0.1081(5)
S3A S 0.5326(2) 1.60323(13) 0.14277(13)
C3A C 0.6505(7) 1.7083(5) 0.0628(5)
S7A S 0.5938(2) 1.85274(13) 0.06740(14)
C7A C 0.7812(10) 1.9001(6) 0.0329(6)
H2A H 0.8606 1.8473 0.0963
H3A H 0.7711 1.9820 0.0307
C8A C 0.8398(10) 1.8985(6) -0.0823(6)
S6A S 0.9021(2) 1.74821(13) -0.08427(14)
C4A C 0.7675(8) 1.6699(5) 0.0041(5)
S4A S 0.7873(2) 1.51811(12) 0.01656(13)
H4A H 0.7555 1.9438 -0.1444
H5A H 0.9292 1.9403 -0.1011
H6A H 0.3575 1.0091 0.5595
H7A H 0.4588 1.1120 0.5156
F1 F 0.3020(4) -0.4989(3) 1.5811(3)
F2 F 0.1971(5) -0.7026(3) 1.6704(3)
F3 F -0.0428(5) -0.6263(3) 1.2917(3)
F4 F 0.0628(5) -0.4232(3) 1.2027(3)
C10 C 0.1891(8) -0.4501(5) 1.3866(5)
C11 C 0.2217(9) -0.5298(5) 1.5069(5)
C12 C 0.1631(8) -0.6349(5) 1.5519(5)
C13 C 0.0724(7) -0.6781(5) 1.4870(5)
C14 C 0.0411(7) -0.5967(5) 1.3650(5)
C15 C 0.0966(8) -0.4907(5) 1.3192(5)
C16 C 0.2504(8) -0.3387(5) 1.3392(5)
C17 C 0.0142(8) -0.7866(5) 1.5344(5)
C18 C 0.3623(8) -0.3080(5) 1.4014(6)
C19 C 0.2104(8) -0.2541(5) 1.2194(6)
C20 C 0.0650(8) -0.8773(5) 1.6497(5)
C21 C -0.0925(8) -0.8227(5) 1.4698(6)
N1 N 0.4572(9) -0.2789(5) 1.4461(6)
N2 N 0.1866(8) -0.1831(5) 1.1231(5)
N3 N 0.1075(8) -0.9544(5) 1.7410(5)
N4 N -0.1796(10) -0.8540(5) 1.4222(5)
loop_
_geom_bond_atom_site_label_1
_geom_bond_atom_site_label_2
_geom_bond_site_symmetry_1
_geom_bond_site_symmetry_2
S1 C1 1_555 1_555
S2 C1 1_555 1_555
S3 C2 1_555 1_555
S4 C2 1_555 1_555
S5 C5 1_555 1_555
S6 C4 1_555 1_555
S7 C3 1_555 1_555
F1 C11 1_555 1_555
F2 C12 1_555 1_555
F3 C14 1_555 1_555
F4 C15 1_555 1_555
C1 C2 1_555 1_555
C3 S3 1_555 1_555
C4 S4 1_555 1_555
C5 S1 1_555 1_555
C6 S2 1_555 1_555
H1 C6 1_555 1_555
C7 S7 1_555 1_555
H2 C7 1_555 1_555
H3 C7 1_555 1_555
C8 S6 1_555 1_555
H4 C8 1_555 1_555
H5 C8 1_555 1_555
C9 S5 1_555 1_555
H6 C9 1_555 1_555
H7 C9 1_555 1_555
C10 C11 1_555 1_555
C11 C12 1_555 1_555
C12 C13 1_555 1_555
C13 C14 1_555 1_555
C14 C15 1_555 1_555
C15 C10 1_555 1_555
C16 C10 1_555 1_555
C17 C13 1_555 1_555
C18 C16 1_555 1_555
C19 C16 1_555 1_555
C20 C17 1_555 1_555
C21 C17 1_555 1_555
N1 C18 1_555 1_555
N2 C19 1_555 1_555
N3 C20 1_555 1_555
N4 C21 1_555 1_555
C9A C9 1_555 1_555
S5A C9A 1_555 1_555
C5A S5A 1_555 1_555
S1A C5A 1_555 1_555
C1A S1A 1_555 1_555
S2A C1A 1_555 1_555
C6A C5A 1_555 1_555
H1A C6A 1_555 1_555
C2A C1A 1_555 1_555
S3A C2A 1_555 1_555
C3A S3A 1_555 1_555
S7A C3A 1_555 1_555
C7A S7A 1_555 1_555
H2A C7A 1_555 1_555
H3A C7A 1_555 1_555
C8A C7A 1_555 1_555
S6A C8A 1_555 1_555
C4A C3A 1_555 1_555
S4A C2A 1_555 1_555
H4A C8A 1_555 1_555
H5A C8A 1_555 1_555
H6A C9A 1_555 1_555
H7A C9A 1_555 1_555
C3 C4 1_555 1_555
C5 C6 1_555 1_555
C7 C8 1_555 1_555
S2A C6A 1_555 1_555
S6A C4A 1_555 1_555
C4A S4A 1_555 1_555

#END
