
#######################################################################
#
#                 Cambridge Crystallographic Data Centre
#                                CCDC 
#
#######################################################################
#
# If this CIF has been generated from an entry in the Cambridge 
# Structural Database, then it will include bibliographic, chemical, 
# crystal, experimental, refinement or atomic coordinate data resulting 
# from the CCDC's data processing and validation procedures.
#
#######################################################################

data_OJUTAO
_chemical_formula_moiety         'C18 H14 S14 1+,As1 F6 1-,0.5(C1 H2 Cl2)'
_chemical_name_systematic        
"1,2-bis((4',5'-(Ethylenedithio)tetrathiafulvalen-4-yl)sulfanyl)ethane hexafluoroarsenate dichloromethane solvate"
_symmetry_cell_setting           triclinic
_symmetry_space_group_name_H-M   'P -1'
_symmetry_Int_Tables_number      2
_space_group_name_Hall           '-P 1'
loop_
_symmetry_equiv_pos_site_id
_symmetry_equiv_pos_as_xyz
1 x,y,z
2 -x,-y,-z
_cell_length_a                   7.8300(16)
_cell_length_b                   13.263(3)
_cell_length_c                   15.691(3)
_cell_angle_alpha                97.26(3)
_cell_angle_beta                 99.53(3)
_cell_angle_gamma                100.75(3)
_cell_volume                     1557.87
_exptl_crystal_colour            black
_exptl_crystal_description       plate
_cell_formula_units_Z            2
loop_
_atom_site_label
_atom_site_type_symbol
_atom_site_fract_x
_atom_site_fract_y
_atom_site_fract_z
As1 As 0.29613(6) 0.20423(3) 1.00645(3)
F1 F 0.228(2) 0.2229(14) 0.9018(9)
F2 F 0.328(3) 0.1972(17) 1.1113(8)
F3 F 0.0884(11) 0.1642(16) 1.0066(8)
F4 F 0.3048(17) 0.0845(7) 0.9644(11)
F5 F 0.5063(12) 0.2360(15) 1.0051(13)
F6 F 0.307(3) 0.3269(9) 1.0317(12)
S1 S 0.17949(17) 0.37020(10) 0.68979(9)
S2 S 0.62015(17) 0.49251(9) 0.78663(7)
S3 S 0.31836(13) 0.34689(7) 0.52751(7)
S4 S 0.68762(13) 0.44113(8) 0.61008(7)
S5 S 0.44179(12) 0.29660(7) 0.34159(7)
S6 S 0.81066(13) 0.38614(8) 0.42805(7)
S7 S 0.96364(14) 0.34068(8) 0.27341(8)
S8 S 1.00615(14) 0.08820(8) 0.21248(7)
S9 S 0.76452(13) -0.10531(7) 0.38106(7)
S10 S 0.90214(13) 0.11803(7) 0.38907(7)
S11 S 0.66522(13) -0.05417(7) 0.57466(7)
S12 S 0.80530(14) 0.16774(7) 0.57713(7)
S13 S 0.57636(14) -0.02563(8) 0.74988(8)
S14 S 0.75495(19) 0.23625(8) 0.75539(8)
C1 C 0.4393(9) 0.4409(7) 0.8354(4)
H1 H 0.4572 0.3735 0.8481
H2 H 0.4551 0.4850 0.8916
C2 C 0.2687(9) 0.4271(7) 0.7988(4)
H3 H 0.2395 0.4952 0.8061
H4 H 0.2027 0.3864 0.8345
C3 C 0.5333(5) 0.4362(3) 0.6779(3)
C4 C 0.3640(5) 0.3911(3) 0.6402(3)
C5 C 0.5371(5) 0.3797(3) 0.5153(2)
C6 C 0.5883(5) 0.3575(3) 0.4374(2)
C7 C 0.7705(5) 0.3345(3) 0.3162(3)
C8 C 0.6024(5) 0.2951(3) 0.2778(3)
H5 H 0.5719 0.2676 0.2185
C9 C 0.8863(5) 0.2623(3) 0.1651(3)
H6 H 0.7862 0.2864 0.1357
H7 H 0.9799 0.2751 0.1318
C10 C 0.8316(5) 0.1470(3) 0.1616(3)
H8 H 0.7927 0.1142 0.1008
H9 H 0.7314 0.1330 0.1905
C11 C 0.8464(5) -0.0668(3) 0.2927(3)
H10 H 0.8459 -0.1155 0.2445
C12 C 0.9112(5) 0.0345(3) 0.2941(3)
C13 C 0.8008(5) 0.0203(3) 0.4392(2)
C14 C 0.7603(5) 0.0413(3) 0.5202(3)
C15 C 0.6627(5) 0.0319(3) 0.6686(2)
C16 C 0.7328(5) 0.1340(3) 0.6699(3)
C17 C 0.6552(10) 0.0745(4) 0.8440(3)
H11 H 0.5549 0.0779 0.8724
H12 H 0.7396 0.0488 0.8837
C18 C 0.7274(13) 0.1682(5) 0.8416(4)
H13 H 0.8466 0.1772 0.8751
H14 H 0.6676 0.2094 0.8776
Cl1 Cl 0.8241(3) 0.43461(14) 1.00064(13)
C19 C 1.0373(19) 0.501(2) 1.0438(9)
Cl1A Cl 1.1759(3) 0.56539(14) 0.99936(13)
C19A C 0.9627(19) 0.499(2) 0.9562(9)
F7? F 0.448(3) 0.1552(14) 1.0534(15)
F8? F 0.130(3) 0.258(2) 0.9771(13)
F9? F 0.447(4) 0.308(2) 1.0159(14)
F10? F 0.155(3) 0.0933(13) 0.9994(10)
F11? F 0.306(2) 0.1857(15) 0.9049(6)
F12? F 0.278(2) 0.251(2) 1.1066(12)
loop_
_geom_bond_atom_site_label_1
_geom_bond_atom_site_label_2
_geom_bond_site_symmetry_1
_geom_bond_site_symmetry_2
Cl1 C19 1_555 1_555
As1 F1 1_555 1_555
S1 C2 1_555 1_555
S2 C1 1_555 1_555
S3 C4 1_555 1_555
S4 C3 1_555 1_555
S5 C6 1_555 1_555
S6 C6 1_555 1_555
S7 C7 1_555 1_555
S8 C10 1_555 1_555
S9 C11 1_555 1_555
S10 C12 1_555 1_555
S11 C14 1_555 1_555
S12 C14 1_555 1_555
S13 C15 1_555 1_555
S14 C16 1_555 1_555
C1 H1 1_555 1_555
H2 C1 1_555 1_555
C2 C1 1_555 1_555
H3 C2 1_555 1_555
H4 C2 1_555 1_555
C3 S2 1_555 1_555
C4 S1 1_555 1_555
C5 S3 1_555 1_555
C6 C5 1_555 1_555
C7 S6 1_555 1_555
C8 S5 1_555 1_555
H5 C8 1_555 1_555
C9 S7 1_555 1_555
H6 C9 1_555 1_555
H7 C9 1_555 1_555
C10 C9 1_555 1_555
H8 C10 1_555 1_555
H9 C10 1_555 1_555
C11 H10 1_555 1_555
C12 S8 1_555 1_555
C13 S9 1_555 1_555
C14 C13 1_555 1_555
C15 S11 1_555 1_555
C16 S12 1_555 1_555
C17 S13 1_555 1_555
H11 C17 1_555 1_555
H12 C17 1_555 1_555
C18 S14 1_555 1_555
H13 C18 1_555 1_555
H14 C18 1_555 1_555
C19 Cl1A 1_555 1_555
F2 As1 1_555 1_555
F3 As1 1_555 1_555
F4 As1 1_555 1_555
F5 As1 1_555 1_555
F6 As1 1_555 1_555
Cl1A C19A 1_555 1_555
C19A Cl1 1_555 1_555
S4 C5 1_555 1_555
S10 C13 1_555 1_555
C3 C4 1_555 1_555
C7 C8 1_555 1_555
C11 C12 1_555 1_555
C15 C16 1_555 1_555
C17 C18 1_555 1_555
C19 C19A 1_555 1_555

#END
