
#######################################################################
#
#                 Cambridge Crystallographic Data Centre
#                                CCDC 
#
#######################################################################
#
# If this CIF has been generated from an entry in the Cambridge 
# Structural Database, then it will include bibliographic, chemical, 
# crystal, experimental, refinement or atomic coordinate data resulting 
# from the CCDC's data processing and validation procedures.
#
#######################################################################

data_OKALUI
_chemical_formula_moiety         'C14 H27 N2 O1 1+,C2 F3 O2 1-'
_chemical_name_systematic        
'2-(((2-Hydroxy-7,7-dimethylbicyclo[2.2.1]hept-1-yl)amino)methyl)pyrrolidinium trifluoroacetate'
_symmetry_cell_setting           orthorhombic
_symmetry_space_group_name_H-M   'P 21 21 21'
_symmetry_Int_Tables_number      19
_space_group_name_Hall           'P 2ac 2ab'
loop_
_symmetry_equiv_pos_site_id
_symmetry_equiv_pos_as_xyz
1 x,y,z
2 1/2-x,-y,1/2+z
3 1/2+x,1/2-y,-z
4 -x,1/2+y,1/2-z
_cell_length_a                   8.7370(3)
_cell_length_b                   14.0740(5)
_cell_length_c                   14.9440(7)
_cell_angle_alpha                90
_cell_angle_beta                 90
_cell_angle_gamma                90
_cell_volume                     1837.58
_exptl_crystal_colour            colorless
_exptl_crystal_description       prism
_chemical_melting_point          123deg.C
_cell_formula_units_Z            4
loop_
_atom_site_label
_atom_site_type_symbol
_atom_site_fract_x
_atom_site_fract_y
_atom_site_fract_z
C1 C 0.2581(7) 0.0011(4) 0.4531(4)
C2 C 0.1071(10) -0.0562(6) 0.4516(7)
H1 H 0.0686 -0.0660 0.3907
C3 C 0.1565(12) -0.1503(7) 0.4969(7)
H2 H 0.0969 -0.1616 0.5506
H3 H 0.1423 -0.2034 0.4564
C4 C 0.3221(9) -0.1385(6) 0.5195(5)
H4 H 0.3609 -0.1825 0.5650
C5 C 0.4075(12) -0.1425(5) 0.4276(5)
H5 H 0.5174 -0.1474 0.4357
H6 H 0.3722 -0.1953 0.3915
C6 C 0.3624(9) -0.0454(5) 0.3851(5)
H7 H 0.4524 -0.0067 0.3745
H8 H 0.3094 -0.0549 0.3288
C7 C 0.3350(9) -0.0329(5) 0.5439(4)
C8 C 0.2519(13) -0.0028(7) 0.6274(5)
H9 H 0.2671 0.0640 0.6370
H10 H 0.2912 -0.0376 0.6777
H11 H 0.1446 -0.0156 0.6209
C9 C 0.4966(10) 0.0042(7) 0.5542(7)
H12 H 0.5556 -0.0127 0.5024
H13 H 0.5424 -0.0232 0.6065
H14 H 0.4943 0.0721 0.5601
C10 C 0.1927(8) 0.1366(5) 0.3583(4)
H15 H 0.0966 0.1065 0.3424
H16 H 0.2678 0.1200 0.3132
C11 C 0.1716(7) 0.2435(4) 0.3598(4)
H17 H 0.0872 0.2597 0.4001
C12 C 0.1411(10) 0.2862(6) 0.2679(5)
H18 H 0.1176 0.2368 0.2248
H19 H 0.0560 0.3304 0.2704
C13 C 0.2791(12) 0.3343(8) 0.2442(6)
H20 H 0.2558 0.3877 0.2055
H21 H 0.3462 0.2914 0.2119
C14 C 0.3540(9) 0.3673(5) 0.3242(5)
H22 H 0.3144 0.4286 0.3428
H23 H 0.4638 0.3722 0.3156
N1 N 0.2427(6) 0.1015(3) 0.4444(3)
H24 H 0.2622 0.1393 0.4881
N2 N 0.3145(5) 0.2905(4) 0.3913(3)
H25 H 0.3910 0.2479 0.3950
H26 H 0.2998 0.3162 0.4458
O1 O -0.0086(10) -0.0053(7) 0.5110(7)
H27 H 0.0311 0.0422 0.5328
C15 C 0.7148(9) 0.1754(6) 0.3884(5)
C16 C 0.7134(8) 0.1527(7) 0.2890(6)
O2 O 0.6135(7) 0.2273(5) 0.4128(4)
O3 O 0.8194(7) 0.1420(4) 0.4317(4)
F1 F 0.5741(10) 0.1599(10) 0.2524(6)
F2 F 0.8035(15) 0.1917(11) 0.2403(7)
F3 F 0.7754(14) 0.0558(10) 0.2810(9)
F4? F 0.5925(13) 0.1057(13) 0.2581(7)
F5? F 0.7502(17) 0.2444(13) 0.2482(8)
F6? F 0.8263(17) 0.1058(12) 0.2547(9)
H28? H -0.0262 0.0217 0.4887
O4? O -0.0250(17) -0.0335(11) 0.4711(11)
loop_
_geom_bond_atom_site_label_1
_geom_bond_atom_site_label_2
_geom_bond_site_symmetry_1
_geom_bond_site_symmetry_2
C1 C2 1_555 1_555
C2 H1 1_555 1_555
C3 C2 1_555 1_555
H2 C3 1_555 1_555
H3 C3 1_555 1_555
C4 C3 1_555 1_555
H4 C4 1_555 1_555
C5 C4 1_555 1_555
H5 C5 1_555 1_555
H6 C5 1_555 1_555
C6 C1 1_555 1_555
H7 C6 1_555 1_555
H8 C6 1_555 1_555
C7 C1 1_555 1_555
C8 C7 1_555 1_555
H9 C8 1_555 1_555
H10 C8 1_555 1_555
H11 C8 1_555 1_555
C9 C7 1_555 1_555
H12 C9 1_555 1_555
H13 C9 1_555 1_555
H14 C9 1_555 1_555
C10 H15 1_555 1_555
H16 C10 1_555 1_555
C11 C10 1_555 1_555
H17 C11 1_555 1_555
C12 C11 1_555 1_555
H18 C12 1_555 1_555
H19 C12 1_555 1_555
C13 C12 1_555 1_555
H20 C13 1_555 1_555
H21 C13 1_555 1_555
C14 C13 1_555 1_555
H22 C14 1_555 1_555
H23 C14 1_555 1_555
C15 C16 1_555 1_555
C16 F1 1_555 1_555
N1 C1 1_555 1_555
H24 N1 1_555 1_555
N2 C11 1_555 1_555
H25 N2 1_555 1_555
H26 N2 1_555 1_555
O1 C2 1_555 1_555
H27 O1 1_555 1_555
O2 C15 1_555 1_555
O3 C15 1_555 1_555
F2 C16 1_555 1_555
F3 C16 1_555 1_555
C4 C7 1_555 1_555
C5 C6 1_555 1_555
C10 N1 1_555 1_555
C14 N2 1_555 1_555

#END
