
#######################################################################
#
#                 Cambridge Crystallographic Data Centre
#                                CCDC 
#
#######################################################################
#
# If this CIF has been generated from an entry in the Cambridge 
# Structural Database, then it will include bibliographic, chemical, 
# crystal, experimental, refinement or atomic coordinate data resulting 
# from the CCDC's data processing and validation procedures.
#
#######################################################################

data_OKEFOA
_chemical_formula_moiety         'C26 H27 N1 O4 S1'
_chemical_name_systematic        
4-(bis(2-methoxyphenyl)methyl)-1-(phenylsulfonyl)-1,2,3,6-tetrahydropyridine
_symmetry_cell_setting           monoclinic
_symmetry_space_group_name_H-M   'P 21/n'
_symmetry_Int_Tables_number      14
_space_group_name_Hall           '-P 2yn'
loop_
_symmetry_equiv_pos_site_id
_symmetry_equiv_pos_as_xyz
1 x,y,z
2 1/2-x,1/2+y,1/2-z
3 -x,-y,-z
4 1/2+x,1/2-y,1/2+z
_cell_length_a                   14.894(16)
_cell_length_b                   7.794(9)
_cell_length_c                   22.02(2)
_cell_angle_alpha                90
_cell_angle_beta                 103.90(2)
_cell_angle_gamma                90
_cell_volume                     2481.31
_exptl_crystal_colour            colorless
_cell_formula_units_Z            4
loop_
_atom_site_label
_atom_site_type_symbol
_atom_site_fract_x
_atom_site_fract_y
_atom_site_fract_z
C1 C 0.44960(19) 0.9984(3) 0.08655(12)
H1 H 0.4951 0.9391 0.0693
H2 H 0.4463 1.1167 0.0725
C2 C 0.35535(18) 0.9128(3) 0.06441(12)
H3 H 0.3079 0.9904 0.0714
H4 H 0.3436 0.8915 0.0198
C3 C 0.34864(15) 0.7466(3) 0.09742(10)
C4 C 0.41211(16) 0.7049(3) 0.14872(11)
H5 H 0.4073 0.5980 0.1664
C5 C 0.49092(18) 0.8182(3) 0.18007(11)
H6 H 0.4958 0.8200 0.2248
H7 H 0.5483 0.7729 0.1731
C6 C 0.26531(15) 0.6353(3) 0.06805(10)
H8 H 0.2139 0.7142 0.0518
C7 C 0.27988(16) 0.5332(3) 0.01184(11)
C8 C 0.36540(19) 0.4763(3) 0.00714(13)
H9 H 0.4174 0.5035 0.0385
C9 C 0.3754(2) 0.3791(4) -0.04346(15)
H10 H 0.4339 0.3442 -0.0464
C10 C 0.2992(2) 0.3347(4) -0.08906(15)
H11 H 0.3061 0.2663 -0.1223
C11 C 0.2128(2) 0.3899(4) -0.08643(13)
H12 H 0.1616 0.3613 -0.1182
C12 C 0.20225(18) 0.4881(3) -0.03635(12)
C13 C 0.0387(2) 0.5147(6) -0.07804(18)
H13 H 0.0494 0.5519 -0.1173
H14 H -0.0131 0.5760 -0.0699
H15 H 0.0257 0.3939 -0.0799
C14 C 0.23474(15) 0.5207(3) 0.11499(10)
C15 C 0.25579(18) 0.3490(3) 0.12180(12)
H16 H 0.2905 0.3000 0.0964
C16 C 0.2276(2) 0.2466(4) 0.16476(13)
H17 H 0.2423 0.1305 0.1676
C17 C 0.1773(2) 0.3184(4) 0.20355(12)
H18 H 0.1585 0.2508 0.2330
C18 C 0.15484(18) 0.4909(4) 0.19844(12)
H19 H 0.1210 0.5390 0.2245
C19 C 0.18262(16) 0.5922(3) 0.15453(11)
C20 C 0.1052(2) 0.8394(4) 0.18128(14)
H20 H 0.0462 0.7827 0.1722
H21 H 0.0966 0.9586 0.1704
H22 H 0.1339 0.8289 0.2251
C21 C 0.65633(16) 1.1121(3) 0.18431(11)
C22 C 0.72096(19) 1.0310(4) 0.23143(13)
H23 H 0.7043 0.9896 0.2668
C23 C 0.8109(2) 1.0124(4) 0.22497(16)
H24 H 0.8553 0.9611 0.2568
C24 C 0.8345(2) 1.0684(4) 0.17276(17)
H25 H 0.8948 1.0541 0.1688
C25 C 0.7706(2) 1.1459(4) 0.12577(16)
H26 H 0.7874 1.1821 0.0898
C26 C 0.6809(2) 1.1711(4) 0.13139(13)
H27 H 0.6378 1.2268 0.1000
N1 N 0.47638(14) 0.9916(3) 0.15527(10)
O1 O 0.54623(14) 1.1195(3) 0.25786(10)
O2 O 0.51005(14) 1.3009(3) 0.16299(12)
O3 O 0.11921(13) 0.5481(3) -0.02897(9)
O4 O 0.16253(13) 0.7627(2) 0.14598(9)
S1 S 0.54304(4) 1.14371(9) 0.19293(3)
loop_
_geom_bond_atom_site_label_1
_geom_bond_atom_site_label_2
_geom_bond_site_symmetry_1
_geom_bond_site_symmetry_2
C1 H1 1_555 1_555
H2 C1 1_555 1_555
C2 C1 1_555 1_555
H3 C2 1_555 1_555
H4 C2 1_555 1_555
C3 C2 1_555 1_555
C4 C3 1_555 1_555
H5 C4 1_555 1_555
C5 C4 1_555 1_555
H6 C5 1_555 1_555
H7 C5 1_555 1_555
C6 C3 1_555 1_555
H8 C6 1_555 1_555
C7 C6 1_555 1_555
C8 C7 1_555 1_555
H9 C8 1_555 1_555
C9 C8 1_555 1_555
H10 C9 1_555 1_555
C10 C9 1_555 1_555
H11 C10 1_555 1_555
C11 C10 1_555 1_555
H12 C11 1_555 1_555
C12 C7 1_555 1_555
C13 H13 1_555 1_555
H14 C13 1_555 1_555
H15 C13 1_555 1_555
C14 C6 1_555 1_555
C15 C14 1_555 1_555
H16 C15 1_555 1_555
C16 C15 1_555 1_555
H17 C16 1_555 1_555
C17 C16 1_555 1_555
H18 C17 1_555 1_555
C18 C17 1_555 1_555
H19 C18 1_555 1_555
C19 C14 1_555 1_555
C20 H20 1_555 1_555
H21 C20 1_555 1_555
H22 C20 1_555 1_555
C21 C22 1_555 1_555
C22 H23 1_555 1_555
C23 C22 1_555 1_555
H24 C23 1_555 1_555
C24 C23 1_555 1_555
H25 C24 1_555 1_555
C25 C24 1_555 1_555
H26 C25 1_555 1_555
C26 C21 1_555 1_555
H27 C26 1_555 1_555
N1 C1 1_555 1_555
O1 S1 1_555 1_555
O2 S1 1_555 1_555
O3 C12 1_555 1_555
O4 C19 1_555 1_555
S1 C21 1_555 1_555
C5 N1 1_555 1_555
C11 C12 1_555 1_555
C13 O3 1_555 1_555
C18 C19 1_555 1_555
C20 O4 1_555 1_555
C25 C26 1_555 1_555
N1 S1 1_555 1_555

#END
