
#######################################################################
#
#                 Cambridge Crystallographic Data Centre
#                                CCDC 
#
#######################################################################
#
# If this CIF has been generated from an entry in the Cambridge 
# Structural Database, then it will include bibliographic, chemical, 
# crystal, experimental, refinement or atomic coordinate data resulting 
# from the CCDC's data processing and validation procedures.
#
#######################################################################

data_OKEGIV
_chemical_formula_moiety         'C18 H17 Cl1 O2'
_chemical_name_systematic        
3-Chloro-7-methoxy-4-(4-methoxyphenyl)-1,2-dihydronaphthalene
_symmetry_cell_setting           monoclinic
_symmetry_space_group_name_H-M   'C c'
_symmetry_Int_Tables_number      9
_space_group_name_Hall           'C -2yc'
loop_
_symmetry_equiv_pos_site_id
_symmetry_equiv_pos_as_xyz
1 x,y,z
2 x,-y,1/2+z
3 1/2+x,1/2+y,z
4 1/2+x,1/2-y,1/2+z
_cell_length_a                   8.3029(2)
_cell_length_b                   22.0726(5)
_cell_length_c                   8.7691(2)
_cell_angle_alpha                90
_cell_angle_beta                 108.8950(10)
_cell_angle_gamma                90
_cell_volume                     1520.48
_exptl_crystal_colour            colorless
_cell_formula_units_Z            4
loop_
_atom_site_label
_atom_site_type_symbol
_atom_site_fract_x
_atom_site_fract_y
_atom_site_fract_z
Cl1 Cl -0.38310(8) 0.69612(2) 0.97506(8)
O1 O 0.20473(17) 0.53529(6) 0.89011(17)
O2 O 0.21865(19) 0.97804(6) 0.91276(19)
C1 C 0.1142(3) 0.49206(9) 0.7736(3)
H1 H 0.0118 0.4806 0.7946
H2 H 0.1841 0.4569 0.7797
H3 H 0.0856 0.5095 0.6678
C2 C 0.1243(2) 0.58878(7) 0.8973(2)
C3 C 0.2081(2) 0.62789(8) 1.0213(2)
H4 H 0.3141 0.6174 1.0931
C4 C 0.1340(2) 0.68238(8) 1.0381(2)
H5 H 0.1914 0.7084 1.1213
C5 C -0.0252(2) 0.69920(7) 0.93268(19)
C6 C -0.1079(2) 0.75697(8) 0.9551(2)
C7 C -0.0195(2) 0.81508(7) 0.94860(19)
C8 C -0.0699(2) 0.86847(8) 1.0076(2)
C9 C 0.0078(2) 0.92320(8) 0.9976(2)
H6 H -0.0257 0.9582 1.0381
C10 C 0.1353(2) 0.92617(8) 0.9275(2)
C11 C 0.1663(3) 1.03303(10) 0.9681(3)
H7 H 0.0489 1.0407 0.9087
H8 H 0.2349 1.0659 0.9521
H9 H 0.1800 1.0295 1.0807
C12 C -0.2607(3) 0.76019(8) 0.9750(2)
C13 C -0.3438(2) 0.81860(10) 0.9940(3)
H10 H -0.4217 0.8116 1.0541
H11 H -0.4087 0.8343 0.8887
C14 C -0.2101(3) 0.86455(9) 1.0822(3)
H12 H -0.2629 0.9040 1.0778
H13 H -0.1620 0.8529 1.1945
C15 C 0.1855(2) 0.87360(8) 0.8680(2)
H14 H 0.2709 0.8752 0.8209
C16 C 0.1092(2) 0.81933(8) 0.8788(2)
H15 H 0.1441 0.7845 0.8385
C17 C -0.1040(2) 0.66009(8) 0.80706(19)
H16 H -0.2082 0.6710 0.7329
C18 C -0.0312(2) 0.60517(8) 0.7891(2)
H17 H -0.0870 0.5795 0.7045
loop_
_geom_bond_atom_site_label_1
_geom_bond_atom_site_label_2
_geom_bond_site_symmetry_1
_geom_bond_site_symmetry_2
Cl1 C12 1_555 1_555
O1 C1 1_555 1_555
O2 C10 1_555 1_555
C1 H1 1_555 1_555
H2 C1 1_555 1_555
H3 C1 1_555 1_555
C2 O1 1_555 1_555
C3 C2 1_555 1_555
H4 C3 1_555 1_555
C4 C3 1_555 1_555
H5 C4 1_555 1_555
C5 C4 1_555 1_555
C6 C5 1_555 1_555
C7 C6 1_555 1_555
C8 C7 1_555 1_555
C9 C8 1_555 1_555
H6 C9 1_555 1_555
C10 C9 1_555 1_555
C11 O2 1_555 1_555
H7 C11 1_555 1_555
H8 C11 1_555 1_555
H9 C11 1_555 1_555
C12 C6 1_555 1_555
C13 C12 1_555 1_555
H10 C13 1_555 1_555
H11 C13 1_555 1_555
C14 C8 1_555 1_555
H12 C14 1_555 1_555
H13 C14 1_555 1_555
C15 C10 1_555 1_555
H14 C15 1_555 1_555
C16 C7 1_555 1_555
H15 C16 1_555 1_555
C17 C5 1_555 1_555
H16 C17 1_555 1_555
C18 C2 1_555 1_555
H17 C18 1_555 1_555
C13 C14 1_555 1_555
C15 C16 1_555 1_555
C17 C18 1_555 1_555

#END
