
#######################################################################
#
#                 Cambridge Crystallographic Data Centre
#                                CCDC 
#
#######################################################################
#
# If this CIF has been generated from an entry in the Cambridge 
# Structural Database, then it will include bibliographic, chemical, 
# crystal, experimental, refinement or atomic coordinate data resulting 
# from the CCDC's data processing and validation procedures.
#
#######################################################################

data_OKEGOB
_chemical_formula_moiety         'C18 H17 Br1 O1'
_chemical_name_systematic        
'4-(8-Bromo-6,7-dihydro-5H-benzo[7]annulen-9-yl)phenyl methyl ether'
_symmetry_cell_setting           orthorhombic
_symmetry_space_group_name_H-M   'P 21 21 21'
_symmetry_Int_Tables_number      19
_space_group_name_Hall           'P 2ac 2ab'
loop_
_symmetry_equiv_pos_site_id
_symmetry_equiv_pos_as_xyz
1 x,y,z
2 1/2+x,1/2-y,-z
3 -x,1/2+y,1/2-z
4 1/2-x,-y,1/2+z
_cell_length_a                   5.5026(2)
_cell_length_b                   15.6829(6)
_cell_length_c                   17.4692(7)
_cell_angle_alpha                90
_cell_angle_beta                 90
_cell_angle_gamma                90
_cell_volume                     1507.53
_exptl_crystal_colour            colorless
_exptl_crystal_description       tabular
_cell_formula_units_Z            4
loop_
_atom_site_label
_atom_site_type_symbol
_atom_site_fract_x
_atom_site_fract_y
_atom_site_fract_z
Br1 Br 0.57291(7) 0.359382(19) -0.041216(17)
O1 O 0.4742(3) 0.74809(11) -0.14555(9)
C1 C 0.2651(6) 0.7595(2) -0.19132(18)
H1 H 0.2475 0.7118 -0.2253
H2 H 0.2814 0.8109 -0.2207
H3 H 0.1243 0.7636 -0.1591
C2 C 0.4719(5) 0.68122(14) -0.09473(12)
C3 C 0.2977(5) 0.61975(15) -0.09136(14)
H4 H 0.1677 0.6209 -0.1254
C4 C 0.3144(5) 0.55558(15) -0.03725(16)
H5 H 0.1954 0.5135 -0.0359
C5 C 0.5032(4) 0.55222(14) 0.01498(12)
C6 C 0.5179(4) 0.48445(14) 0.07434(13)
C7 C 0.5102(4) 0.51285(13) 0.15591(12)
C8 C 0.6755(4) 0.48075(14) 0.20982(13)
C9 C 0.6582(5) 0.50822(16) 0.28538(14)
H6 H 0.7682 0.4880 0.3215
C10 C 0.4798(6) 0.56520(16) 0.30752(14)
H7 H 0.4683 0.5821 0.3584
C11 C 0.6641(4) 0.67983(15) -0.04330(14)
H8 H 0.7837 0.7217 -0.0455
C12 C 0.6776(5) 0.61634(14) 0.01111(13)
H9 H 0.8055 0.6164 0.0459
C13 C 0.5376(5) 0.40105(14) 0.06058(13)
C14 C 0.5389(5) 0.33392(14) 0.12167(15)
H10 H 0.5109 0.2787 0.0982
H11 H 0.4061 0.3448 0.1569
C15 C 0.7752(5) 0.33075(15) 0.16642(17)
H12 H 0.8964 0.3005 0.1366
H13 H 0.7494 0.2993 0.2135
C16 C 0.8705(5) 0.41950(15) 0.18561(15)
H14 H 0.9892 0.4147 0.2265
H15 H 0.9530 0.4424 0.1411
C17 C 0.3203(5) 0.59665(16) 0.25460(15)
H16 H 0.2009 0.6351 0.2697
C18 C 0.3350(5) 0.57184(14) 0.17912(14)
H17 H 0.2276 0.5945 0.1434
loop_
_geom_bond_atom_site_label_1
_geom_bond_atom_site_label_2
_geom_bond_site_symmetry_1
_geom_bond_site_symmetry_2
Br1 C13 1_555 1_555
O1 C1 1_555 1_555
C1 H1 1_555 1_555
H2 C1 1_555 1_555
H3 C1 1_555 1_555
C2 O1 1_555 1_555
C3 C2 1_555 1_555
H4 C3 1_555 1_555
C4 C3 1_555 1_555
H5 C4 1_555 1_555
C5 C4 1_555 1_555
C6 C5 1_555 1_555
C7 C6 1_555 1_555
C8 C7 1_555 1_555
C9 C8 1_555 1_555
H6 C9 1_555 1_555
C10 C9 1_555 1_555
H7 C10 1_555 1_555
C11 C2 1_555 1_555
H8 C11 1_555 1_555
C12 C5 1_555 1_555
H9 C12 1_555 1_555
C13 C6 1_555 1_555
C14 C13 1_555 1_555
H10 C14 1_555 1_555
H11 C14 1_555 1_555
C15 C14 1_555 1_555
H12 C15 1_555 1_555
H13 C15 1_555 1_555
C16 C8 1_555 1_555
H14 C16 1_555 1_555
H15 C16 1_555 1_555
C17 C10 1_555 1_555
H16 C17 1_555 1_555
C18 C7 1_555 1_555
H17 C18 1_555 1_555
C11 C12 1_555 1_555
C15 C16 1_555 1_555
C17 C18 1_555 1_555

#END
