
#######################################################################
#
#                 Cambridge Crystallographic Data Centre
#                                CCDC 
#
#######################################################################
#
# If this CIF has been generated from an entry in the Cambridge 
# Structural Database, then it will include bibliographic, chemical, 
# crystal, experimental, refinement or atomic coordinate data resulting 
# from the CCDC's data processing and validation procedures.
#
#######################################################################

data_OKEHET
_chemical_formula_moiety         'C14 H9 F4 N1 O1'
_chemical_name_systematic        
N-(3-fluorophenyl)-2-(trifluoromethyl)benzamide
_symmetry_cell_setting           monoclinic
_symmetry_space_group_name_H-M   'P 21/c'
_symmetry_Int_Tables_number      14
_space_group_name_Hall           '-P 2ybc'
loop_
_symmetry_equiv_pos_site_id
_symmetry_equiv_pos_as_xyz
1 x,y,z
2 -x,1/2+y,1/2-z
3 -x,-y,-z
4 x,1/2-y,1/2+z
_cell_length_a                   11.0809(3)
_cell_length_b                   21.8822(5)
_cell_length_c                   15.3792(4)
_cell_angle_alpha                90
_cell_angle_beta                 90.2810(10)
_cell_angle_gamma                90
_cell_volume                     3729.02
_exptl_crystal_colour            colorless
_exptl_crystal_description       plate
_cell_formula_units_Z            12
loop_
_atom_site_label
_atom_site_type_symbol
_atom_site_fract_x
_atom_site_fract_y
_atom_site_fract_z
F1 F 0.15132(14) 0.48407(7) 0.53024(9)
F2 F 0.12415(9) 0.12290(4) 0.25920(6)
F3 F 0.24864(8) 0.17694(4) 0.33434(5)
F4 F 0.31429(10) 0.11191(4) 0.24141(6)
N1 N 0.15112(10) 0.32537(5) 0.32427(6)
H1 H 0.2141 0.3440 0.3018
O1 O 0.02458(8) 0.24419(4) 0.30439(6)
C1 C 0.17848(11) 0.26002(5) 0.19971(8)
C2 C 0.22863(12) 0.20201(6) 0.18571(8)
C3 C 0.28321(12) 0.18891(6) 0.10671(9)
H2 H 0.3182 0.1498 0.0975
C4 C 0.28701(13) 0.23240(6) 0.04131(9)
H3 H 0.3238 0.2229 -0.0127
C5 C 0.23761(13) 0.28937(6) 0.05440(8)
H4 H 0.2399 0.3191 0.0094
C6 C 0.18447(12) 0.30325(6) 0.13365(8)
H5 H 0.1518 0.3428 0.1428
C7 C 0.10334(12) 0.35140(6) 0.40126(8)
C8 C 0.01285(14) 0.32429(7) 0.44976(9)
H6 H -0.0211 0.2863 0.4326
C9 C -0.02674(16) 0.35383(9) 0.52361(10)
H7 H -0.0891 0.3354 0.5567
C10 C 0.01977(17) 0.40852(9) 0.55128(10)
H8 H -0.0090 0.4281 0.6022
C11 C 0.10953(16) 0.43352(8) 0.50211(10)
C12 C 0.15315(13) 0.40668(6) 0.42718(9)
H9 H 0.2154 0.4255 0.3944
C13 C 0.11122(11) 0.27544(5) 0.28152(8)
C14 C 0.22822(14) 0.15376(6) 0.25484(9)
F6 F 0.17498(10) 0.00438(5) 0.50464(8)
F7 F 0.56922(8) 0.03707(4) 0.81366(6)
F8 F 0.64636(9) 0.05280(5) 0.94016(6)
F9 F 0.45410(9) 0.04818(4) 0.92469(6)
N2 N 0.47645(10) 0.12202(4) 0.65279(6)
H11 H 0.5436 0.1427 0.6449
O2 O 0.33854(8) 0.09590(4) 0.75621(6)
C15 C 0.49799(11) 0.16174(6) 0.79830(8)
C16 C 0.55228(12) 0.13663(6) 0.87250(8)
C17 C 0.60606(13) 0.17491(7) 0.93324(9)
H12 H 0.6449 0.1579 0.9828
C18 C 0.60365(14) 0.23759(7) 0.92234(9)
H13 H 0.6394 0.2634 0.9649
C19 C 0.54958(14) 0.26263(6) 0.84992(9)
H14 H 0.5475 0.3057 0.8427
C20 C 0.49800(12) 0.22478(6) 0.78740(8)
H15 H 0.4624 0.2422 0.7368
C21 C 0.42879(11) 0.09149(5) 0.57899(8)
C22 C 0.32120(12) 0.05878(5) 0.58015(8)
H16 H 0.2760 0.0546 0.6321
C23 C 0.28223(13) 0.03261(6) 0.50334(9)
C24 C 0.34444(13) 0.03608(6) 0.42664(9)
H17 H 0.3151 0.0172 0.3751
C25 C 0.45182(14) 0.06825(6) 0.42777(9)
H18 H 0.4975 0.0712 0.3758
C26 C 0.49444(12) 0.09616(6) 0.50232(8)
H19 H 0.5680 0.1184 0.5013
C27 C 0.43061(11) 0.12288(5) 0.73353(8)
C28 C 0.55515(14) 0.06882(7) 0.88758(10)
F11 F 0.83703(15) 0.45863(6) 0.81406(11)
F12 F 0.79292(8) 0.12618(4) 0.48449(5)
F13 F 0.98479(8) 0.11348(4) 0.48540(5)
F14 F 0.90899(8) 0.19944(4) 0.52511(5)
N3 N 0.80310(10) 0.25806(4) 0.71016(7)
H21 H 0.8685 0.2528 0.7419
O3 O 0.67352(8) 0.20663(4) 0.61983(5)
C29 C 0.83352(11) 0.15100(5) 0.68664(8)
C30 C 0.88931(11) 0.11653(5) 0.62185(8)
C31 C 0.94491(13) 0.06146(6) 0.64316(9)
H22 H 0.9847 0.0384 0.5994
C32 C 0.94244(14) 0.04012(6) 0.72792(10)
H23 H 0.9781 0.0018 0.7417
C33 C 0.88869(14) 0.07404(6) 0.79214(9)
H24 H 0.8878 0.0594 0.8503
C34 C 0.83574(12) 0.12965(6) 0.77190(8)
H25 H 0.8005 0.1535 0.8167
C35 C 0.75429(12) 0.31788(5) 0.71072(8)
C36 C 0.65304(12) 0.33515(6) 0.66314(8)
H26 H 0.6107 0.3063 0.6283
C37 C 0.61519(13) 0.39538(6) 0.66769(9)
H27 H 0.5465 0.4075 0.6347
C38 C 0.67335(14) 0.43851(6) 0.71824(10)
H28 H 0.6462 0.4797 0.7205
C39 C 0.77240(14) 0.41929(6) 0.76533(10)
C40 C 0.81458(13) 0.36008(6) 0.76274(9)
H29 H 0.8834 0.3483 0.7958
C41 C 0.76300(11) 0.20821(5) 0.66766(7)
C42 C 0.89379(12) 0.13858(6) 0.52963(8)
F5? F -0.1078(3) 0.33969(14) 0.56609(19)
H10? H 0.1437 0.4713 0.5203
F10? F 0.5136(3) 0.07349(18) 0.3568(2)
H20? H 0.2080 0.0109 0.5036
F15? F 0.51997(17) 0.41120(8) 0.61666(12)
H30? H 0.8133 0.4481 0.8011
loop_
_geom_bond_atom_site_label_1
_geom_bond_atom_site_label_2
_geom_bond_site_symmetry_1
_geom_bond_site_symmetry_2
F1 C11 1_555 1_555
F2 C14 1_555 1_555
F3 C14 1_555 1_555
F4 C14 1_555 1_555
N1 H1 1_555 1_555
O1 C13 1_555 1_555
C1 C2 1_555 1_555
C2 C3 1_555 1_555
C3 H2 1_555 1_555
C4 C3 1_555 1_555
H3 C4 1_555 1_555
C5 C4 1_555 1_555
H4 C5 1_555 1_555
C6 C1 1_555 1_555
H5 C6 1_555 1_555
C7 N1 1_555 1_555
C8 C7 1_555 1_555
H6 C8 1_555 1_555
C9 C8 1_555 1_555
H7 C9 1_555 1_555
C10 C9 1_555 1_555
H8 C10 1_555 1_555
C11 C10 1_555 1_555
C12 C7 1_555 1_555
H9 C12 1_555 1_555
C13 N1 1_555 1_555
C14 C2 1_555 1_555
F6 C23 1_555 1_555
F7 C28 1_555 1_555
F8 C28 1_555 1_555
F9 C28 1_555 1_555
N2 H11 1_555 1_555
O2 C27 1_555 1_555
C15 C16 1_555 1_555
C16 C17 1_555 1_555
C17 H12 1_555 1_555
C18 C17 1_555 1_555
H13 C18 1_555 1_555
C19 C18 1_555 1_555
H14 C19 1_555 1_555
C20 C15 1_555 1_555
H15 C20 1_555 1_555
C21 N2 1_555 1_555
C22 C21 1_555 1_555
H16 C22 1_555 1_555
C23 C22 1_555 1_555
C24 C23 1_555 1_555
H17 C24 1_555 1_555
C25 C24 1_555 1_555
H18 C25 1_555 1_555
C26 C21 1_555 1_555
H19 C26 1_555 1_555
C27 N2 1_555 1_555
C28 C16 1_555 1_555
F11 C39 1_555 1_555
F12 C42 1_555 1_555
F13 C42 1_555 1_555
F14 C42 1_555 1_555
N3 H21 1_555 1_555
O3 C41 1_555 1_555
C29 C30 1_555 1_555
C30 C31 1_555 1_555
C31 H22 1_555 1_555
C32 C31 1_555 1_555
H23 C32 1_555 1_555
C33 C32 1_555 1_555
H24 C33 1_555 1_555
C34 C29 1_555 1_555
H25 C34 1_555 1_555
C35 N3 1_555 1_555
C36 C35 1_555 1_555
H26 C36 1_555 1_555
C37 C36 1_555 1_555
H27 C37 1_555 1_555
C38 C37 1_555 1_555
H28 C38 1_555 1_555
C39 C38 1_555 1_555
C40 C35 1_555 1_555
H29 C40 1_555 1_555
C41 N3 1_555 1_555
C42 C30 1_555 1_555
C1 C13 1_555 1_555
C5 C6 1_555 1_555
C11 C12 1_555 1_555
C15 C27 1_555 1_555
C19 C20 1_555 1_555
C25 C26 1_555 1_555
C29 C41 1_555 1_555
C33 C34 1_555 1_555
C39 C40 1_555 1_555

#END
