
#######################################################################
#
#                 Cambridge Crystallographic Data Centre
#                                CCDC 
#
#######################################################################
#
# If this CIF has been generated from an entry in the Cambridge 
# Structural Database, then it will include bibliographic, chemical, 
# crystal, experimental, refinement or atomic coordinate data resulting 
# from the CCDC's data processing and validation procedures.
#
#######################################################################

data_OKEVUV
_chemical_formula_moiety         'C28 H38 O4 S2'
_chemical_name_systematic        
13,19,20,26,27,28-Hexamethyl-2,5,8,11-tetraoxa-16,23-dithia-tricyclo[10.7.7.1^14,25^.1^18,21^]octacosa-1(20),12,14(27),18,21(28),25-hexaene
_symmetry_cell_setting           triclinic
_symmetry_space_group_name_H-M   'P -1'
_symmetry_Int_Tables_number      2
_space_group_name_Hall           '-P 1'
loop_
_symmetry_equiv_pos_site_id
_symmetry_equiv_pos_as_xyz
1 x,y,z
2 -x,-y,-z
_cell_length_a                   12.8069(3)
_cell_length_b                   14.1250(4)
_cell_length_c                   15.4890(4)
_cell_angle_alpha                66.300(1)
_cell_angle_beta                 86.481(1)
_cell_angle_gamma                87.683(1)
_cell_volume                     2560.4
_exptl_crystal_colour            colorless
_exptl_crystal_description       rectangular
_chemical_melting_point          222-224deg.C
_cell_formula_units_Z            4
loop_
_atom_site_label
_atom_site_type_symbol
_atom_site_fract_x
_atom_site_fract_y
_atom_site_fract_z
S1 S 0.66290(7) 0.47419(6) 0.02883(7)
S2 S 0.66782(8) 0.99608(7) -0.05359(8)
O1 O 0.98199(17) 0.75890(19) -0.12119(15)
O2 O 1.1816(2) 0.84710(19) -0.1539(2)
O3 O 1.1643(2) 0.7007(2) 0.0512(2)
O4 O 0.91080(17) 0.67278(19) 0.17561(15)
C1 C 0.8204(3) 0.8526(2) -0.1406(2)
C2 C 0.8819(3) 0.9488(3) -0.1601(3)
H1 H 0.8584 1.0039 -0.2163
H2 H 0.9550 0.9350 -0.1686
H3 H 0.8714 0.9687 -0.1077
C3 C 0.7109(3) 0.8523(2) -0.1370(2)
C4 C 0.6593(2) 0.7629(3) -0.1263(2)
C5 C 0.5422(3) 0.7650(3) -0.1378(3)
H4 H 0.5107 0.7078 -0.0863
H5 H 0.5295 0.7598 -0.1962
H6 H 0.5123 0.8286 -0.1383
C6 C 0.7158(3) 0.6716(3) -0.1103(2)
C7 C 0.8247(3) 0.6701(2) -0.1114(2)
C8 C 0.8890(3) 0.5746(3) -0.0978(3)
H7 H 0.9575 0.5819 -0.0797
H8 H 0.8947 0.5648 -0.1558
H9 H 0.8559 0.5158 -0.0493
C9 C 0.8745(2) 0.7615(3) -0.1278(2)
C10 C 1.0448(3) 0.7755(3) -0.2038(2)
H10 H 1.0319 0.8443 -0.2514
H11 H 1.0293 0.7253 -0.2291
C11 C 1.1556(3) 0.7639(3) -0.1768(3)
H12 H 1.1652 0.6990 -0.1229
H13 H 1.2013 0.7630 -0.2288
C12 C 1.2525(3) 0.8239(3) -0.0823(3)
H14 H 1.2989 0.8818 -0.0981
H15 H 1.2949 0.7641 -0.0788
C13 C 1.1981(4) 0.8020(3) 0.0125(4)
H16 H 1.2458 0.8124 0.0540
H17 H 1.1387 0.8490 0.0054
C14 C 1.0904(3) 0.6804(4) 0.1279(3)
H18 H 1.0999 0.7282 0.1574
H19 H 1.1016 0.6107 0.1746
C15 C 0.9845(3) 0.6910(4) 0.0965(3)
H20 H 0.9735 0.7600 0.0486
H21 H 0.9739 0.6417 0.0689
C16 C 0.8082(2) 0.6862(3) 0.1473(2)
C17 C 0.7619(3) 0.7842(2) 0.1193(2)
C18 C 0.8226(3) 0.8709(3) 0.1226(3)
H22 H 0.7809 0.9055 0.1550
H23 H 0.8403 0.9190 0.0594
H24 H 0.8854 0.8438 0.1553
C19 C 0.6586(3) 0.7960(2) 0.0922(2)
C20 C 0.6027(2) 0.7111(2) 0.0966(2)
C21 C 0.4854(3) 0.7203(3) 0.0853(3)
H25 H 0.4653 0.6760 0.0559
H26 H 0.4669 0.7906 0.0466
H27 H 0.4497 0.7002 0.1462
C22 C 0.6543(2) 0.6158(2) 0.1179(2)
C23 C 0.7567(3) 0.6017(2) 0.1472(2)
C24 C 0.8130(3) 0.4985(3) 0.1815(3)
H28 H 0.8635 0.4961 0.2257
H29 H 0.8481 0.4891 0.1288
H30 H 0.7634 0.4444 0.2117
C25 C 0.6099(3) 0.9029(3) 0.0562(3)
H31 H 0.6138 0.9300 0.1044
H32 H 0.5364 0.8972 0.0475
C26 C 0.6512(3) 0.9489(3) -0.1449(3)
H33 H 0.5773 0.9367 -0.1457
H34 H 0.6711 1.0035 -0.2053
C27 C 0.6000(3) 0.5283(3) 0.1071(3)
H35 H 0.5307 0.5528 0.0851
H36 H 0.5908 0.4728 0.1692
C28 C 0.6605(3) 0.5728(3) -0.0904(2)
H37 H 0.6910 0.5431 -0.1330
H38 H 0.5880 0.5898 -0.1057
S3 S 0.16943(9) 0.52505(8) 0.46934(7)
S6 S 0.0736(11) 0.0540(11) 0.5597(7)
C29 C 0.2926(3) 0.2086(3) 0.3826(2)
C30 C 0.3554(4) 0.1163(3) 0.3824(3)
H39 H 0.3565 0.0640 0.4456
H40 H 0.4257 0.1367 0.3591
H41 H 0.3242 0.0892 0.3425
C31 C 0.1868(3) 0.2039(3) 0.4074(2)
C32 C 0.1298(3) 0.2933(3) 0.4007(2)
C33 C 0.0114(3) 0.2926(4) 0.4108(3)
H42 H -0.0116 0.3170 0.4585
H43 H -0.0125 0.2235 0.4285
H44 H -0.0168 0.3370 0.3517
C34 C 0.1822(3) 0.3850(3) 0.3791(2)
C35 C 0.2886(3) 0.3913(3) 0.3519(2)
C36 C 0.3467(4) 0.4916(3) 0.3178(3)
H45 H 0.3020 0.5474 0.2805
H46 H 0.4078 0.4877 0.2801
H47 H 0.3673 0.5035 0.3711
C37 C 0.3407(3) 0.3035(3) 0.3534(2)
O5 O 0.4467(2) 0.3105(2) 0.32518(17)
C38 C 0.5138(7) 0.2656(11) 0.4036(9)
H48 H 0.4829 0.2029 0.4502
H49 H 0.5210 0.3137 0.4331
C39 C 0.6164(6) 0.2415(8) 0.3707(7)
H50 H 0.6081 0.2003 0.3345
H51 H 0.6502 0.3052 0.3295
O6 O 0.6810(5) 0.1862(5) 0.4478(5)
C40 C 0.7276(10) 0.2488(8) 0.4838(6)
H52 H 0.6767 0.2986 0.4903
H53 H 0.7843 0.2865 0.4408
C41 C 0.7688(3) 0.1835(3) 0.5774(3)
H54 H 0.8031 0.1224 0.5745
H55 H 0.8203 0.2219 0.5930
O7 O 0.6878(2) 0.1536(2) 0.6485(2)
C42 C 0.6489(3) 0.2314(3) 0.6767(3)
H56 H 0.6613 0.2987 0.6260
H57 H 0.6850 0.2280 0.7312
C43 C 0.5349(3) 0.2182(3) 0.7010(3)
H58 H 0.5206 0.1476 0.7445
H59 H 0.5096 0.2644 0.7303
O8 O 0.48515(18) 0.2419(2) 0.61519(16)
C44 C 0.3771(3) 0.2383(3) 0.6214(2)
C45 C 0.3292(3) 0.1481(3) 0.6319(2)
C46 C 0.3975(4) 0.0533(3) 0.6445(3)
H60 H 0.3751 0.0217 0.6044
H61 H 0.3915 0.0047 0.7091
H62 H 0.4691 0.0736 0.6279
C47 C 0.2206(3) 0.1476(3) 0.6332(2)
C48 C 0.1618(3) 0.2349(3) 0.6275(2)
C49 C 0.0449(3) 0.2288(4) 0.6494(3)
H63 H 0.0264 0.2628 0.6910
H64 H 0.0251 0.1576 0.6794
H65 H 0.0091 0.2621 0.5919
C50 C 0.2133(3) 0.3269(3) 0.6082(2)
C51 C 0.3214(3) 0.3284(3) 0.6079(2)
C52 C 0.3789(3) 0.4230(3) 0.5970(3)
H66 H 0.3518 0.4818 0.5458
H67 H 0.4520 0.4138 0.5840
H68 H 0.3699 0.4340 0.6543
C53 C 0.1665(4) 0.0499(3) 0.6436(3)
H69 H 0.1222 0.0294 0.7010
H70 H 0.2206 -0.0032 0.6549
C54 C 0.1340(4) 0.1007(4) 0.4440(3)
H71 H 0.1818 0.0525 0.4309
H72 H 0.0733 0.1086 0.4070
C55 C 0.1503(3) 0.4250(3) 0.5870(3)
H73 H 0.1665 0.4533 0.6321
H74 H 0.0768 0.4075 0.5974
C56 C 0.1242(4) 0.4754(3) 0.3865(3)
H75 H 0.0515 0.4564 0.4038
H76 H 0.1261 0.5314 0.3243
S4? S 0.0935(18) 0.0440(18) 0.5602(12)
S5? S 0.1668(4) 0.0082(3) 0.5562(4)
C57? C 0.5113(5) 0.3097(8) 0.3993(6)
C58? C 0.6212(6) 0.3193(9) 0.3710(6)
O9? O 0.6870(4) 0.2976(5) 0.4442(4)
C59? C 0.7309(7) 0.1939(7) 0.4859(6)
loop_
_geom_bond_atom_site_label_1
_geom_bond_atom_site_label_2
_geom_bond_site_symmetry_1
_geom_bond_site_symmetry_2
S1 C27 1_555 1_555
S2 C25 1_555 1_555
O1 C9 1_555 1_555
O2 C11 1_555 1_555
O3 C13 1_555 1_555
O4 C15 1_555 1_555
C1 C2 1_555 1_555
C2 H1 1_555 1_555
H2 C2 1_555 1_555
H3 C2 1_555 1_555
C3 C1 1_555 1_555
C4 C3 1_555 1_555
C5 C4 1_555 1_555
H4 C5 1_555 1_555
H5 C5 1_555 1_555
H6 C5 1_555 1_555
C6 C4 1_555 1_555
C7 C6 1_555 1_555
C8 C7 1_555 1_555
H7 C8 1_555 1_555
H8 C8 1_555 1_555
H9 C8 1_555 1_555
C9 C1 1_555 1_555
C10 O1 1_555 1_555
H10 C10 1_555 1_555
H11 C10 1_555 1_555
C11 C10 1_555 1_555
H12 C11 1_555 1_555
H13 C11 1_555 1_555
C12 O2 1_555 1_555
H14 C12 1_555 1_555
H15 C12 1_555 1_555
C13 C12 1_555 1_555
H16 C13 1_555 1_555
H17 C13 1_555 1_555
C14 O3 1_555 1_555
H18 C14 1_555 1_555
H19 C14 1_555 1_555
C15 C14 1_555 1_555
H20 C15 1_555 1_555
H21 C15 1_555 1_555
C16 O4 1_555 1_555
C17 C16 1_555 1_555
C18 C17 1_555 1_555
H22 C18 1_555 1_555
H23 C18 1_555 1_555
H24 C18 1_555 1_555
C19 C17 1_555 1_555
C20 C19 1_555 1_555
C21 C20 1_555 1_555
H25 C21 1_555 1_555
H26 C21 1_555 1_555
H27 C21 1_555 1_555
C22 C20 1_555 1_555
C23 C16 1_555 1_555
C24 C23 1_555 1_555
H28 C24 1_555 1_555
H29 C24 1_555 1_555
H30 C24 1_555 1_555
C25 C19 1_555 1_555
H31 C25 1_555 1_555
H32 C25 1_555 1_555
C26 S2 1_555 1_555
H33 C26 1_555 1_555
H34 C26 1_555 1_555
C27 C22 1_555 1_555
H35 C27 1_555 1_555
H36 C27 1_555 1_555
C28 S1 1_555 1_555
H37 C28 1_555 1_555
H38 C28 1_555 1_555
S3 C55 1_555 1_555
S6 C53 1_555 1_555
C29 C30 1_555 1_555
C30 H39 1_555 1_555
H40 C30 1_555 1_555
H41 C30 1_555 1_555
C31 C29 1_555 1_555
C32 C31 1_555 1_555
C33 C32 1_555 1_555
H42 C33 1_555 1_555
H43 C33 1_555 1_555
H44 C33 1_555 1_555
C34 C32 1_555 1_555
C35 C34 1_555 1_555
C36 C35 1_555 1_555
H45 C36 1_555 1_555
H46 C36 1_555 1_555
H47 C36 1_555 1_555
C37 C29 1_555 1_555
O5 C37 1_555 1_555
C38 O5 1_555 1_555
H48 C38 1_555 1_555
H49 C38 1_555 1_555
C39 C38 1_555 1_555
H50 C39 1_555 1_555
H51 C39 1_555 1_555
O6 C39 1_555 1_555
C40 O6 1_555 1_555
H52 C40 1_555 1_555
H53 C40 1_555 1_555
C41 C40 1_555 1_555
H54 C41 1_555 1_555
H55 C41 1_555 1_555
O7 C41 1_555 1_555
C42 O7 1_555 1_555
H56 C42 1_555 1_555
H57 C42 1_555 1_555
C43 C42 1_555 1_555
H58 C43 1_555 1_555
H59 C43 1_555 1_555
O8 C43 1_555 1_555
C44 O8 1_555 1_555
C45 C44 1_555 1_555
C46 C45 1_555 1_555
H60 C46 1_555 1_555
H61 C46 1_555 1_555
H62 C46 1_555 1_555
C47 C45 1_555 1_555
C48 C47 1_555 1_555
C49 C48 1_555 1_555
H63 C49 1_555 1_555
H64 C49 1_555 1_555
H65 C49 1_555 1_555
C50 C48 1_555 1_555
C51 C44 1_555 1_555
C52 C51 1_555 1_555
H66 C52 1_555 1_555
H67 C52 1_555 1_555
H68 C52 1_555 1_555
C53 C47 1_555 1_555
H69 C53 1_555 1_555
H70 C53 1_555 1_555
C54 S6 1_555 1_555
H71 C54 1_555 1_555
H72 C54 1_555 1_555
C55 C50 1_555 1_555
H73 C55 1_555 1_555
H74 C55 1_555 1_555
C56 S3 1_555 1_555
H75 C56 1_555 1_555
H76 C56 1_555 1_555
C3 C26 1_555 1_555
C6 C28 1_555 1_555
C7 C9 1_555 1_555
C22 C23 1_555 1_555
C31 C54 1_555 1_555
C34 C56 1_555 1_555
C35 C37 1_555 1_555
C50 C51 1_555 1_555

#END
