
#######################################################################
#
#                 Cambridge Crystallographic Data Centre
#                                CCDC 
#
#######################################################################
#
# If this CIF has been generated from an entry in the Cambridge 
# Structural Database, then it will include bibliographic, chemical, 
# crystal, experimental, refinement or atomic coordinate data resulting 
# from the CCDC's data processing and validation procedures.
#
#######################################################################

data_OKIQIK
_chemical_formula_moiety         'C23 H20 N5 O1 1+,C1 F3 O3 S1 1-'
_chemical_name_systematic        
'Amino((2-(2,6-bis(pyridin-4-ylethynyl)phenoxy)ethyl)amino)methaniminium trifluoromethanesulfonate'
_symmetry_cell_setting           monoclinic
_symmetry_space_group_name_H-M   'P 21/n'
_symmetry_Int_Tables_number      14
_space_group_name_Hall           '-P 2yn'
loop_
_symmetry_equiv_pos_site_id
_symmetry_equiv_pos_as_xyz
1 x,y,z
2 1/2-x,1/2+y,1/2-z
3 -x,-y,-z
4 1/2+x,1/2-y,1/2+z
_cell_length_a                   11.8433(14)
_cell_length_b                   16.994(2)
_cell_length_c                   12.4738(14)
_cell_angle_alpha                90
_cell_angle_beta                 102.967(3)
_cell_angle_gamma                90
_cell_volume                     2446.52
_exptl_crystal_colour            yellow
_exptl_crystal_description       block
_cell_formula_units_Z            4
_exptl_crystal_recrystallization_method Acetonitrile
loop_
_atom_site_label
_atom_site_type_symbol
_atom_site_fract_x
_atom_site_fract_y
_atom_site_fract_z
S1 S 0.46045(5) 0.86096(3) 0.72300(5)
O1 O 0.57545(15) 0.86855(11) 0.70760(19)
O2 O 0.43597(15) 0.78425(11) 0.75904(18)
O3 O 0.42196(19) 0.92544(12) 0.77824(17)
F1 F 0.3905(2) 0.93741(12) 0.54066(16)
F2 F 0.3973(3) 0.81303(14) 0.52129(17)
F3 F 0.2621(2) 0.86438(17) 0.5852(3)
C1 C 0.3730(3) 0.86906(18) 0.5856(3)
O4 O 0.59421(12) 0.49675(8) 0.66743(13)
N1 N 0.60969(17) 0.65173(12) 0.78215(17)
N2 N 0.73926(19) 0.74300(11) 0.74744(16)
N3 N 0.36565(17) 0.66639(11) 1.11178(16)
N4 N 0.78725(15) 0.61273(10) 0.75194(15)
H1 H 0.8483 0.6263 0.7270
N5 N 1.00385(16) 0.35805(11) 0.32240(18)
C2 C 0.51420(18) 0.44052(12) 0.62536(17)
C3 C 0.52523(18) 0.38490(12) 0.54505(17)
C4 C 0.71184(18) 0.66836(12) 0.75934(16)
C5 C 0.40484(18) 0.49581(13) 0.75317(18)
C6 C 0.80573(19) 0.36590(12) 0.40941(18)
C7 C 0.38729(19) 0.57988(12) 0.92565(17)
C8 C 0.62483(19) 0.37969(12) 0.49781(17)
C9 C 0.41241(18) 0.44299(12) 0.66525(17)
C10 C 0.80323(19) 0.32831(13) 0.30947(18)
H2 H 0.7340 0.3045 0.2692
C11 C 0.39761(19) 0.53534(13) 0.83099(18)
C12 C 0.71582(19) 0.47869(13) 0.68831(19)
H3 H 0.7458 0.4888 0.6216
H4 H 0.7288 0.4226 0.7086
C13 C 0.2804(2) 0.58747(13) 0.95429(19)
H5 H 0.2129 0.5633 0.9112
C14 C 0.70520(19) 0.37171(12) 0.45513(18)
C15 C 0.2747(2) 0.63089(14) 1.0467(2)
H6 H 0.2015 0.6358 1.0651
C16 C 0.9033(2) 0.32638(14) 0.27021(19)
H7 H 0.9005 0.3010 0.2018
C17 C 0.7775(2) 0.53055(13) 0.78175(19)
H8 H 0.7355 0.5279 0.8419
H9 H 0.8563 0.5093 0.8105
C18 C 0.4325(2) 0.33314(13) 0.50665(18)
H10 H 0.4394 0.2944 0.4535
C19 C 0.3211(2) 0.39203(13) 0.62365(18)
H11 H 0.2516 0.3948 0.6496
C20 C 0.4823(2) 0.61605(14) 0.99318(19)
H12 H 0.5569 0.6119 0.9772
C21 C 0.3317(2) 0.33721(14) 0.54435(19)
H13 H 0.2695 0.3024 0.5159
C22 C 0.9109(2) 0.39816(14) 0.4650(2)
H14 H 0.9171 0.4235 0.5340
C23 C 0.4675(2) 0.65807(14) 1.0837(2)
H15 H 0.5335 0.6825 1.1287
C24 C 1.0054(2) 0.39269(15) 0.4184(2)
H16 H 1.0763 0.4151 0.4573
H17 H 0.801(2) 0.7540(14) 0.725(2)
H18 H 0.682(2) 0.7789(16) 0.742(2)
H19 H 0.556(2) 0.6942(16) 0.781(2)
H20 H 0.585(2) 0.6107(17) 0.769(2)
loop_
_geom_bond_atom_site_label_1
_geom_bond_atom_site_label_2
_geom_bond_site_symmetry_1
_geom_bond_site_symmetry_2
S1 O1 1_555 1_555
O2 S1 1_555 1_555
O3 S1 1_555 1_555
F1 C1 1_555 1_555
F2 C1 1_555 1_555
F3 C1 1_555 1_555
C1 S1 1_555 1_555
O4 C2 1_555 1_555
N1 C4 1_555 1_555
N2 C4 1_555 1_555
N3 C15 1_555 1_555
N4 H1 1_555 1_555
N5 C16 1_555 1_555
C2 C3 1_555 1_555
C3 C8 1_555 1_555
C4 N4 1_555 1_555
C5 C9 1_555 1_555
C6 C10 1_555 1_555
C7 C11 1_555 1_555
C8 C14 1_555 1_555
C9 C2 1_555 1_555
C10 H2 1_555 1_555
C11 C5 1_555 1_555
C12 O4 1_555 1_555
H3 C12 1_555 1_555
H4 C12 1_555 1_555
C13 C7 1_555 1_555
H5 C13 1_555 1_555
C14 C6 1_555 1_555
C15 C13 1_555 1_555
H6 C15 1_555 1_555
C16 C10 1_555 1_555
H7 C16 1_555 1_555
C17 N4 1_555 1_555
H8 C17 1_555 1_555
H9 C17 1_555 1_555
C18 C3 1_555 1_555
H10 C18 1_555 1_555
C19 C9 1_555 1_555
H11 C19 1_555 1_555
C20 C7 1_555 1_555
H12 C20 1_555 1_555
C21 C18 1_555 1_555
H13 C21 1_555 1_555
C22 C6 1_555 1_555
H14 C22 1_555 1_555
C23 N3 1_555 1_555
H15 C23 1_555 1_555
C24 N5 1_555 1_555
H16 C24 1_555 1_555
H17 N2 1_555 1_555
H18 N2 1_555 1_555
H19 N1 1_555 1_555
H20 N1 1_555 1_555
C12 C17 1_555 1_555
C19 C21 1_555 1_555
C20 C23 1_555 1_555
C22 C24 1_555 1_555

#END
