
#######################################################################
#
#                 Cambridge Crystallographic Data Centre
#                                CCDC 
#
#######################################################################
#
# If this CIF has been generated from an entry in the Cambridge 
# Structural Database, then it will include bibliographic, chemical, 
# crystal, experimental, refinement or atomic coordinate data resulting 
# from the CCDC's data processing and validation procedures.
#
#######################################################################

data_OKOLUW
_chemical_formula_moiety         'C17 H16 N2 O2'
_chemical_name_systematic        
1,7,9-Trimethyl-3-phenyl-1,4-diazaspiro[4.5]deca-3,6,9-triene-2,8-dione
_symmetry_cell_setting           orthorhombic
_symmetry_space_group_name_H-M   'P b c a'
_symmetry_Int_Tables_number      61
_space_group_name_Hall           '-P 2ac 2ab'
loop_
_symmetry_equiv_pos_site_id
_symmetry_equiv_pos_as_xyz
1 x,y,z
2 1/2-x,-y,1/2+z
3 -x,1/2+y,1/2-z
4 1/2+x,1/2-y,-z
5 -x,-y,-z
6 1/2+x,y,1/2-z
7 x,1/2-y,1/2+z
8 1/2-x,1/2+y,z
_cell_length_a                   14.4572(6)
_cell_length_b                   8.1856(3)
_cell_length_c                   24.7724(12)
_cell_angle_alpha                90
_cell_angle_beta                 90
_cell_angle_gamma                90
_cell_volume                     2931.59
_exptl_crystal_colour            colorless
_exptl_crystal_description       block
_cell_formula_units_Z            8
loop_
_atom_site_label
_atom_site_type_symbol
_atom_site_fract_x
_atom_site_fract_y
_atom_site_fract_z
C1 C 0.24984(12) 0.1771(2) 0.40096(8)
C2 C 0.22422(11) 0.23732(19) 0.34552(7)
C3 C 0.29199(11) 0.2782(2) 0.30329(7)
C4 C 0.38038(12) 0.2087(2) 0.30335(9)
H1 H 0.3976 0.1346 0.3311
C5 C 0.44293(13) 0.2479(3) 0.26287(10)
H2 H 0.5025 0.1988 0.2626
C6 C 0.41901(14) 0.3578(3) 0.22306(9)
H3 H 0.4626 0.3862 0.1959
C7 C 0.33155(15) 0.4268(3) 0.22259(9)
H4 H 0.3152 0.5024 0.1951
C8 C 0.26775(13) 0.3858(3) 0.26225(8)
H5 H 0.2073 0.4313 0.2613
C9 C 0.09087(11) 0.1979(2) 0.38971(7)
C10 C 0.03909(11) 0.3386(2) 0.41375(7)
H6 H 0.0730 0.4338 0.4233
C11 C -0.05194(11) 0.3381(2) 0.42257(7)
C12 C -0.10213(13) 0.4796(2) 0.44706(9)
H7 H -0.0591 0.5709 0.4519
H8 H -0.1275 0.4473 0.4822
H9 H -0.1526 0.5131 0.4231
C13 C -0.10727(11) 0.1917(2) 0.40809(7)
C14 C -0.05937(12) 0.0482(2) 0.38464(8)
C15 C -0.11700(15) -0.0972(3) 0.36964(10)
H10 H -0.0765 -0.1907 0.3623
H11 H -0.1533 -0.0720 0.3373
H12 H -0.1588 -0.1240 0.3995
C16 C 0.03166(12) 0.0527(2) 0.37711(8)
H13 H 0.0609 -0.0419 0.3629
C17 C 0.15622(14) 0.0887(3) 0.47955(9)
H14 H 0.2090 0.1223 0.5017
H15 H 0.1528 -0.0309 0.4786
H16 H 0.0991 0.1326 0.4951
N1 N 0.13637(9) 0.25188(17) 0.33943(6)
N2 N 0.16767(10) 0.15083(19) 0.42509(6)
O1 O 0.32661(9) 0.15726(19) 0.42082(6)
O2 O -0.19091(9) 0.18956(18) 0.41582(7)
loop_
_geom_bond_atom_site_label_1
_geom_bond_atom_site_label_2
_geom_bond_site_symmetry_1
_geom_bond_site_symmetry_2
C1 C2 1_555 1_555
C2 C3 1_555 1_555
C3 C4 1_555 1_555
C4 H1 1_555 1_555
C5 C4 1_555 1_555
H2 C5 1_555 1_555
C6 C5 1_555 1_555
H3 C6 1_555 1_555
C7 C6 1_555 1_555
H4 C7 1_555 1_555
C8 C3 1_555 1_555
H5 C8 1_555 1_555
C9 C10 1_555 1_555
C10 H6 1_555 1_555
C11 C10 1_555 1_555
C12 C11 1_555 1_555
H7 C12 1_555 1_555
H8 C12 1_555 1_555
H9 C12 1_555 1_555
C13 C11 1_555 1_555
C14 C13 1_555 1_555
C15 C14 1_555 1_555
H10 C15 1_555 1_555
H11 C15 1_555 1_555
H12 C15 1_555 1_555
C16 C9 1_555 1_555
H13 C16 1_555 1_555
C17 H14 1_555 1_555
H15 C17 1_555 1_555
H16 C17 1_555 1_555
N1 C2 1_555 1_555
N2 C1 1_555 1_555
O1 C1 1_555 1_555
O2 C13 1_555 1_555
C7 C8 1_555 1_555
C9 N1 1_555 1_555
C9 N2 1_555 1_555
C14 C16 1_555 1_555
C17 N2 1_555 1_555

#END
