
#######################################################################
#
#                 Cambridge Crystallographic Data Centre
#                                CCDC 
#
#######################################################################
#
# If this CIF has been generated from an entry in the Cambridge 
# Structural Database, then it will include bibliographic, chemical, 
# crystal, experimental, refinement or atomic coordinate data resulting 
# from the CCDC's data processing and validation procedures.
#
#######################################################################

data_OKOYUJ
_chemical_formula_moiety         'C26 H22 N2 O2 S1'
_chemical_name_systematic        
4-((4-Methyl-1-((4-methylphenyl)sulfonyl)-1H-pyrrol-3-yl)(phenyl)methyl)benzonitrile
_symmetry_cell_setting           triclinic
_symmetry_space_group_name_H-M   'P -1'
_symmetry_Int_Tables_number      2
_space_group_name_Hall           '-P 1'
loop_
_symmetry_equiv_pos_site_id
_symmetry_equiv_pos_as_xyz
1 x,y,z
2 -x,-y,-z
_cell_length_a                   8.6090(17)
_cell_length_b                   11.007(2)
_cell_length_c                   13.027(3)
_cell_angle_alpha                72.25(3)
_cell_angle_beta                 82.15(3)
_cell_angle_gamma                77.59(3)
_cell_volume                     1144.84
_cell_formula_units_Z            2
loop_
_atom_site_label
_atom_site_type_symbol
_atom_site_fract_x
_atom_site_fract_y
_atom_site_fract_z
S1 S 0.08898(19) -0.00217(12) 0.18952(9)
O1 O 0.1937(6) -0.1205(3) 0.2329(3)
C1 C -0.3920(6) 0.6071(6) -0.2238(5)
N1 N -0.5241(6) 0.6575(5) -0.2356(4)
O2 O -0.0544(5) 0.0027(4) 0.1440(3)
C2 C -0.2351(5) 0.5431(5) -0.2094(4)
N2 N 0.1969(4) 0.0863(3) 0.0906(3)
C3 C -0.1770(6) 0.4334(5) -0.2439(4)
H1 H -0.2429 0.4014 -0.2762
C4 C -0.0228(6) 0.3728(5) -0.2303(4)
H2 H 0.0157 0.3000 -0.2547
C5 C 0.0789(5) 0.4163(4) -0.1811(3)
C6 C 0.0178(5) 0.5247(4) -0.1450(4)
H3 H 0.0832 0.5559 -0.1117
C7 C -0.1361(6) 0.5860(4) -0.1577(4)
H4 H -0.1754 0.6574 -0.1315
C8 C 0.2486(5) 0.3453(4) -0.1618(3)
H5 H 0.3092 0.4096 -0.1583
C9 C 0.3278(4) 0.2920(4) -0.2541(3)
C10 C 0.3326(5) 0.1662(4) -0.2538(3)
H6 H 0.2907 0.1094 -0.1931
C11 C 0.3987(6) 0.1222(5) -0.3421(4)
H7 H 0.3995 0.0369 -0.3399
C12 C 0.4624(6) 0.2026(6) -0.4321(4)
H8 H 0.5066 0.1732 -0.4913
C13 C 0.4599(7) 0.3259(6) -0.4330(4)
H9 H 0.5036 0.3814 -0.4938
C14 C 0.3938(7) 0.3722(5) -0.3457(4)
H10 H 0.3940 0.4578 -0.3488
C15 C 0.5558(5) 0.2245(5) -0.0234(4)
H11 H 0.6263 0.1717 0.0309
H12 H 0.5471 0.3142 -0.0273
H13 H 0.5975 0.2113 -0.0922
C16 C 0.2575(4) 0.2423(4) -0.0538(3)
C17 C 0.3937(5) 0.1874(4) 0.0053(3)
C18 C 0.3524(5) 0.0931(4) 0.0935(3)
H14 H 0.4191 0.0416 0.1470
C19 C 0.1367(5) 0.1812(4) 0.0000(3)
H15 H 0.0327 0.1994 -0.0200
C20 C 0.0418(5) 0.0829(4) 0.2863(3)
C21 C 0.1561(6) 0.0691(5) 0.3575(4)
H16 H 0.2530 0.0123 0.3565
C22 C 0.1198(7) 0.1433(6) 0.4299(4)
H17 H 0.1958 0.1365 0.4767
C23 C -0.0187(6) 0.2237(5) 0.4352(3)
C24 C -0.1332(6) 0.2346(5) 0.3643(4)
H18 H -0.2307 0.2904 0.3664
C25 C -0.1008(6) 0.1621(5) 0.2914(3)
H19 H -0.1776 0.1679 0.2455
C26 C -0.0540(9) 0.3066(6) 0.5124(5)
H20 H 0.0349 0.2884 0.5553
H21 H -0.1476 0.2874 0.5589
H22 H -0.0719 0.3967 0.4720
loop_
_geom_bond_atom_site_label_1
_geom_bond_atom_site_label_2
_geom_bond_site_symmetry_1
_geom_bond_site_symmetry_2
S1 O1 1_555 1_555
C1 N1 1_555 1_555
O2 S1 1_555 1_555
C2 C1 1_555 1_555
N2 S1 1_555 1_555
C3 C2 1_555 1_555
H1 C3 1_555 1_555
C4 C3 1_555 1_555
H2 C4 1_555 1_555
C5 C4 1_555 1_555
C6 C5 1_555 1_555
H3 C6 1_555 1_555
C7 C2 1_555 1_555
H4 C7 1_555 1_555
C8 C5 1_555 1_555
H5 C8 1_555 1_555
C9 C8 1_555 1_555
C10 C9 1_555 1_555
H6 C10 1_555 1_555
C11 C10 1_555 1_555
H7 C11 1_555 1_555
C12 C11 1_555 1_555
H8 C12 1_555 1_555
C13 C12 1_555 1_555
H9 C13 1_555 1_555
C14 C9 1_555 1_555
H10 C14 1_555 1_555
C15 H11 1_555 1_555
H12 C15 1_555 1_555
H13 C15 1_555 1_555
C16 C8 1_555 1_555
C17 C15 1_555 1_555
C18 N2 1_555 1_555
H14 C18 1_555 1_555
C19 N2 1_555 1_555
H15 C19 1_555 1_555
C20 S1 1_555 1_555
C21 C20 1_555 1_555
H16 C21 1_555 1_555
C22 C21 1_555 1_555
H17 C22 1_555 1_555
C23 C22 1_555 1_555
C24 C23 1_555 1_555
H18 C24 1_555 1_555
C25 C20 1_555 1_555
H19 C25 1_555 1_555
C26 C23 1_555 1_555
H20 C26 1_555 1_555
H21 C26 1_555 1_555
H22 C26 1_555 1_555
C6 C7 1_555 1_555
C13 C14 1_555 1_555
C16 C17 1_555 1_555
C16 C19 1_555 1_555
C17 C18 1_555 1_555
C24 C25 1_555 1_555

#END
