
#######################################################################
#
#                 Cambridge Crystallographic Data Centre
#                                CCDC 
#
#######################################################################
#
# If this CIF has been generated from an entry in the Cambridge 
# Structural Database, then it will include bibliographic, chemical, 
# crystal, experimental, refinement or atomic coordinate data resulting 
# from the CCDC's data processing and validation procedures.
#
#######################################################################

data_OKUCUU
_chemical_formula_moiety         'C35 H24 N2 O3,0.5(C1 H4 O1)'
_chemical_name_systematic        
"4-(3,4-dimethoxyphenyl)phenanthro[9',10':4,5]imidazo[1,2-f]phenanthridin-8-ol methanol solvate"
_symmetry_cell_setting           triclinic
_symmetry_space_group_name_H-M   'P -1'
_symmetry_Int_Tables_number      2
_space_group_name_Hall           '-P 1'
loop_
_symmetry_equiv_pos_site_id
_symmetry_equiv_pos_as_xyz
1 x,y,z
2 -x,-y,-z
_cell_length_a                   10.0379(7)
_cell_length_b                   10.1724(7)
_cell_length_c                   13.1727(10)
_cell_angle_alpha                87.576(5)
_cell_angle_beta                 80.510(5)
_cell_angle_gamma                79.916(4)
_cell_volume                     1306.03
_exptl_crystal_colour            'yellow white'
_exptl_crystal_description       plate
_cell_formula_units_Z            2
loop_
_atom_site_label
_atom_site_type_symbol
_atom_site_fract_x
_atom_site_fract_y
_atom_site_fract_z
O1 O 1.2249(4) -0.0912(5) 0.7903(4)
O2 O 0.5412(5) 0.3226(5) 0.3933(3)
O3 O 0.4002(6) 0.1837(6) 0.5202(4)
N1 N 0.9396(5) 0.2105(4) 0.9519(3)
N2 N 1.1478(5) 0.0810(5) 0.9403(3)
C1 C 1.0019(6) 0.2484(6) 1.0326(4)
C2 C 1.1264(6) 0.1633(6) 1.0235(4)
C3 C 1.0352(6) 0.1140(6) 0.8974(4)
C4 C 1.0087(6) 0.0617(6) 0.8053(4)
C5 C 1.1067(6) -0.0420(6) 0.7541(4)
C6 C 1.0814(7) -0.0951(7) 0.6660(5)
H1 H 1.1448 -0.1630 0.6316
C7 C 0.9609(7) -0.0463(7) 0.6295(5)
H2 H 0.9437 -0.0835 0.5707
C8 C 0.8657(7) 0.0549(7) 0.6766(5)
H3 H 0.7859 0.0853 0.6494
C9 C 0.8878(6) 0.1131(6) 0.7655(4)
C10 C 0.7837(6) 0.2108(6) 0.8289(4)
C11 C 0.6535(7) 0.2665(7) 0.8016(5)
C12 C 0.5486(7) 0.3194(7) 0.8776(5)
H4 H 0.4630 0.3528 0.8599
C13 C 0.5661(6) 0.3246(6) 0.9793(5)
H5 H 0.4914 0.3524 1.0300
C14 C 0.6961(6) 0.2881(6) 1.0049(5)
H6 H 0.7105 0.2952 1.0722
C15 C 0.8046(5) 0.2405(6) 0.9283(4)
C16 C 1.2208(6) 0.1659(6) 1.0943(4)
C17 C 1.3435(6) 0.0728(6) 1.0877(5)
H7 H 1.3657 0.0091 1.0363
C18 C 1.4306(7) 0.0770(8) 1.1581(5)
H8 H 1.5122 0.0164 1.1540
C19 C 1.3963(8) 0.1702(8) 1.2336(6)
H9 H 1.4544 0.1702 1.2818
C20 C 1.2797(8) 0.2636(8) 1.2409(5)
H10 H 1.2612 0.3276 1.2920
C21 C 1.1858(7) 0.2634(6) 1.1703(5)
C22 C 1.0610(7) 0.3634(6) 1.1714(5)
C23 C 1.0331(8) 0.4708(7) 1.2386(6)
H11 H 1.0883 0.4720 1.2886
C24 C 0.9264(9) 0.5748(8) 1.2334(6)
H12 H 0.9093 0.6439 1.2803
C25 C 0.8445(7) 0.5768(7) 1.1580(6)
H13 H 0.7765 0.6500 1.1512
C26 C 0.8642(6) 0.4696(6) 1.0932(5)
H14 H 0.8072 0.4699 1.0442
C27 C 0.9695(6) 0.3596(6) 1.1000(4)
C28 C 0.6257(6) 0.2782(6) 0.6923(5)
C29 C 0.7006(7) 0.3498(7) 0.6214(5)
H15 H 0.7705 0.3867 0.6415
C30 C 0.6760(7) 0.3700(7) 0.5197(5)
H16 H 0.7272 0.4211 0.4738
C31 C 0.5764(7) 0.3136(6) 0.4895(5)
C32 C 0.4960(7) 0.2372(6) 0.5609(5)
C33 C 0.5219(7) 0.2215(7) 0.6608(5)
H17 H 0.4697 0.1725 0.7079
C34 C 0.6130(8) 0.4012(8) 0.3189(5)
H18 H 0.6061 0.4891 0.3453
H19 H 0.5736 0.4073 0.2569
H20 H 0.7077 0.3603 0.3043
C35 C 0.3292(10) 0.0932(11) 0.5841(8)
H21 H 0.3935 0.0169 0.6004
H22 H 0.2633 0.0649 0.5485
H23 H 0.2830 0.1369 0.6465
H24 H 1.232(9) -0.031(9) 0.841(7)
C36 C 0.033(3) 0.384(4) 0.503(2)
H25 H 0.0049 0.3251 0.5581
H26 H 0.0071 0.3589 0.4407
H27 H -0.0095 0.4740 0.5196
O4 O 0.156(3) 0.376(3) 0.491(2)
H28 H 0.1926 0.3001 0.4738
loop_
_geom_bond_atom_site_label_1
_geom_bond_atom_site_label_2
_geom_bond_site_symmetry_1
_geom_bond_site_symmetry_2
O1 C5 1_555 1_555
O2 C31 1_555 1_555
O3 C32 1_555 1_555
N1 C1 1_555 1_555
N2 C2 1_555 1_555
C1 C2 1_555 1_555
C2 C16 1_555 1_555
C3 N1 1_555 1_555
C4 C3 1_555 1_555
C5 C4 1_555 1_555
C6 C5 1_555 1_555
H1 C6 1_555 1_555
C7 C6 1_555 1_555
H2 C7 1_555 1_555
C8 C7 1_555 1_555
H3 C8 1_555 1_555
C9 C4 1_555 1_555
C10 C9 1_555 1_555
C11 C10 1_555 1_555
C12 C11 1_555 1_555
H4 C12 1_555 1_555
C13 C12 1_555 1_555
H5 C13 1_555 1_555
C14 C13 1_555 1_555
H6 C14 1_555 1_555
C15 N1 1_555 1_555
C16 C17 1_555 1_555
C17 H7 1_555 1_555
C18 C17 1_555 1_555
H8 C18 1_555 1_555
C19 C18 1_555 1_555
H9 C19 1_555 1_555
C20 C19 1_555 1_555
H10 C20 1_555 1_555
C21 C16 1_555 1_555
C22 C21 1_555 1_555
C23 C22 1_555 1_555
H11 C23 1_555 1_555
C24 C23 1_555 1_555
H12 C24 1_555 1_555
C25 C24 1_555 1_555
H13 C25 1_555 1_555
C26 C25 1_555 1_555
H14 C26 1_555 1_555
C27 C1 1_555 1_555
C28 C11 1_555 1_555
C29 C28 1_555 1_555
H15 C29 1_555 1_555
C30 C29 1_555 1_555
H16 C30 1_555 1_555
C31 C30 1_555 1_555
C32 C31 1_555 1_555
C33 C28 1_555 1_555
H17 C33 1_555 1_555
C34 O2 1_555 1_555
H18 C34 1_555 1_555
H19 C34 1_555 1_555
H20 C34 1_555 1_555
C35 O3 1_555 1_555
H21 C35 1_555 1_555
H22 C35 1_555 1_555
H23 C35 1_555 1_555
H24 O1 1_555 1_555
C36 H25 1_555 1_555
H26 C36 1_555 1_555
H27 C36 1_555 1_555
O4 C36 1_555 1_555
H28 O4 1_555 1_555
N2 C3 1_555 1_555
C8 C9 1_555 1_555
C10 C15 1_555 1_555
C14 C15 1_555 1_555
C20 C21 1_555 1_555
C22 C27 1_555 1_555
C26 C27 1_555 1_555
C32 C33 1_555 1_555

#END
