
#######################################################################
#
#                 Cambridge Crystallographic Data Centre
#                                CCDC 
#
#######################################################################
#
# If this CIF has been generated from an entry in the Cambridge 
# Structural Database, then it will include bibliographic, chemical, 
# crystal, experimental, refinement or atomic coordinate data resulting 
# from the CCDC's data processing and validation procedures.
#
#######################################################################

data_OLABIO
_chemical_formula_moiety         
'C88 H18 F40 N8 2-,2(C16 H36 N1 1+),2(C2 H3 N1)'
_chemical_name_systematic        
'bis(tetra-n-butylammonium) 2,7,12,17,22,27,32,37-octakis(pentafluorophenyl)-41,42,43,44,45,46,47,48-octaazanonacyclo[36.2.1.1^3,6^.1^8,11^.1^13,16^.1^18,21^.1^23,26^.1^28,31^.1^33,36^]octatetraconta-1(40),2,4,6(48),7,9,11,13(46),14,16,18,20,22,24,26(44),27,29,31,33(42),34,36,38-docosaene-41,45-diide acetonitrile solvate'
_symmetry_cell_setting           triclinic
_symmetry_space_group_name_H-M   'P -1'
_symmetry_Int_Tables_number      2
_space_group_name_Hall           '-P 1'
loop_
_symmetry_equiv_pos_site_id
_symmetry_equiv_pos_as_xyz
1 x,y,z
2 -x,-y,-z
_cell_length_a                   16.634(2)
_cell_length_b                   18.391(3)
_cell_length_c                   18.849(3)
_cell_angle_alpha                88.309(13)
_cell_angle_beta                 76.986(6)
_cell_angle_gamma                82.645(11)
_cell_volume                     5571.88
_exptl_crystal_colour            green
_exptl_crystal_description       Prism
_cell_formula_units_Z            2
loop_
_atom_site_label
_atom_site_type_symbol
_atom_site_fract_x
_atom_site_fract_y
_atom_site_fract_z
C1 C 0.2540(2) 0.69859(18) 0.29362(16)
C2 C 0.2530(2) 0.63813(19) 0.34615(17)
H1 H 0.2374 0.6420 0.3977
C3 C 0.2784(2) 0.57610(19) 0.30709(17)
H2 H 0.2845 0.5276 0.3257
C4 C 0.2949(2) 0.59774(18) 0.23062(17)
N1 N 0.27919(17) 0.67158(15) 0.22503(14)
C5 C 0.3224(2) 0.55641(18) 0.16608(17)
C6 C 0.3357(2) 0.48044(18) 0.15865(16)
C7 C 0.3579(2) 0.44316(19) 0.08863(17)
H3 H 0.3693 0.4654 0.0419
C8 C 0.3589(2) 0.37115(19) 0.10297(17)
H4 H 0.3709 0.3323 0.0686
C9 C 0.3380(2) 0.36453(18) 0.18250(16)
N2 N 0.32518(17) 0.43128(15) 0.21457(14)
C10 C 0.3323(2) 0.29690(18) 0.21919(16)
C11 C 0.3107(2) 0.28525(18) 0.29502(16)
C12 C 0.2726(2) 0.33481(19) 0.35560(17)
H5 H 0.2548 0.3858 0.3526
C13 C 0.2677(2) 0.29406(19) 0.41703(17)
H6 H 0.2451 0.3105 0.4656
C14 C 0.30412(19) 0.21987(18) 0.39360(16)
N3 N 0.32651(16) 0.21674(15) 0.31998(13)
H7 H 0.3474 0.1774 0.2934
C15 C 0.3178(2) 0.15519(18) 0.43365(16)
C16 C 0.3132(2) 0.14952(19) 0.50929(16)
C17 C 0.3200(2) 0.07964(19) 0.54730(17)
H8 H 0.3277 0.0322 0.5264
C18 C 0.3134(2) 0.09547(18) 0.61742(17)
H9 H 0.3152 0.0615 0.6561
C19 C 0.3028(2) 0.17514(18) 0.62258(17)
N4 N 0.30261(17) 0.20682(15) 0.55579(13)
C20 C 0.2932(2) 0.21312(18) 0.68771(16)
C21 C 0.2835(2) 0.28954(18) 0.69865(16)
C22 C 0.2958(2) 0.35112(19) 0.64807(17)
H10 H 0.3146 0.3485 0.5966
C23 C 0.2752(2) 0.41225(19) 0.68898(17)
H11 H 0.2771 0.4613 0.6720
C24 C 0.2492(2) 0.38874(18) 0.76446(17)
N5 N 0.25734(17) 0.31463(15) 0.76774(13)
C25 C 0.2182(2) 0.42877(18) 0.82928(16)
C26 C 0.1917(2) 0.50437(18) 0.83706(17)
C27 C 0.1657(2) 0.54199(19) 0.90688(17)
H12 H 0.1647 0.5207 0.9536
C28 C 0.1434(2) 0.61249(19) 0.89240(17)
H13 H 0.1230 0.6510 0.9267
C29 C 0.1567(2) 0.61821(18) 0.81342(16)
N6 N 0.18572(17) 0.55222(15) 0.78119(14)
C30 C 0.1409(2) 0.68415(18) 0.77662(17)
C31 C 0.1522(2) 0.69474(19) 0.70087(17)
C32 C 0.1790(2) 0.6427(2) 0.64043(18)
H14 H 0.1929 0.5912 0.6438
C33 C 0.1800(2) 0.6825(2) 0.57862(17)
H15 H 0.1944 0.6644 0.5301
C34 C 0.1544(2) 0.75864(19) 0.60161(17)
N7 N 0.13816(17) 0.76303(15) 0.67518(14)
H16 H 0.1215 0.8032 0.7014
C35 C 0.1459(2) 0.82381(18) 0.56135(16)
C36 C 0.1633(2) 0.83323(18) 0.48581(17)
C37 C 0.1596(2) 0.90444(19) 0.44967(17)
H17 H 0.1424 0.9511 0.4723
C38 C 0.1851(2) 0.89092(18) 0.37839(17)
H18 H 0.1898 0.9262 0.3403
C39 C 0.2041(2) 0.81175(18) 0.37037(16)
N8 N 0.19030(17) 0.77792(15) 0.43654(13)
C40 C 0.2346(2) 0.77493(18) 0.30339(16)
C41 C 0.3339(2) 0.60463(18) 0.09954(16)
C42 C 0.2667(2) 0.63204(19) 0.07141(17)
C43 C 0.2698(2) 0.68927(19) 0.02199(17)
C44 C 0.3423(2) 0.71914(18) -0.00146(17)
C45 C 0.4115(2) 0.69179(19) 0.02389(17)
C46 C 0.4059(2) 0.63528(19) 0.07392(17)
F1 F 0.19247(12) 0.60692(11) 0.09623(10)
F2 F 0.20095(12) 0.71729(12) -0.00042(11)
F3 F 0.34571(12) 0.77543(11) -0.04835(10)
F4 F 0.48269(12) 0.72118(11) 0.00233(10)
F5 F 0.47352(12) 0.61255(12) 0.10037(11)
C47 C 0.3527(2) 0.22837(18) 0.17454(16)
C48 C 0.2917(2) 0.18584(19) 0.16844(17)
C49 C 0.3089(2) 0.12127(18) 0.12927(17)
C50 C 0.3902(2) 0.09668(18) 0.09575(17)
C51 C 0.4530(2) 0.13694(19) 0.10172(17)
C52 C 0.4335(2) 0.20169(18) 0.14074(17)
F6 F 0.21207(11) 0.20768(11) 0.20189(10)
F7 F 0.24805(12) 0.08278(11) 0.12331(10)
F8 F 0.40825(13) 0.03403(11) 0.05856(11)
F9 F 0.53186(12) 0.11247(11) 0.07051(11)
F10 F 0.49635(12) 0.23834(11) 0.14751(10)
C53 C 0.3454(2) 0.08832(18) 0.38796(16)
C54 C 0.2979(2) 0.06658(18) 0.34247(17)
C55 C 0.3275(2) 0.01339(18) 0.29035(17)
C56 C 0.4071(2) -0.02231(19) 0.28364(17)
C57 C 0.4550(2) -0.00480(19) 0.32954(18)
C58 C 0.4240(2) 0.04989(19) 0.38063(17)
F11 F 0.21992(11) 0.09951(11) 0.34737(10)
F12 F 0.28063(12) -0.00426(11) 0.24586(10)
F13 F 0.43733(13) -0.07417(11) 0.23290(11)
F14 F 0.53224(12) -0.04034(11) 0.32342(11)
F15 F 0.47537(12) 0.06811(11) 0.42139(10)
C59 C 0.2899(2) 0.16930(18) 0.75666(16)
C60 C 0.2201(2) 0.13856(19) 0.79091(17)
C61 C 0.2147(2) 0.1025(2) 0.85718(18)
C62 C 0.2805(2) 0.0981(2) 0.89072(17)
C63 C 0.3553(2) 0.16303(19) 0.79166(17)
C64 C 0.3510(2) 0.12775(19) 0.85805(18)
F16 F 0.15357(12) 0.14506(11) 0.76061(10)
F17 F 0.14618(14) 0.07253(13) 0.88828(11)
F18 F 0.27634(14) 0.06339(12) 0.95459(11)
F19 F 0.41599(13) 0.12192(12) 0.88996(11)
F20 F 0.42455(12) 0.19271(11) 0.76174(10)
C65 C 0.2073(2) 0.38232(18) 0.89677(16)
C66 C 0.1293(2) 0.37495(18) 0.93943(17)
C67 C 0.1173(2) 0.3254(2) 0.99650(17)
C68 C 0.1844(2) 0.28177(19) 1.01189(17)
C69 C 0.2631(2) 0.28830(19) 0.97165(18)
C70 C 0.2738(2) 0.33846(19) 0.91546(17)
F21 F 0.06122(12) 0.41445(11) 0.92422(10)
F22 F 0.04044(13) 0.31934(13) 1.03604(11)
F23 F 0.17307(14) 0.23285(12) 1.06612(11)
F24 F 0.32847(13) 0.24549(11) 0.98696(10)
F25 F 0.35147(12) 0.34346(11) 0.87809(10)
C71 C 0.1109(2) 0.75285(18) 0.82098(16)
C72 C 0.1623(2) 0.78499(19) 0.85556(17)
C73 C 0.1372(2) 0.85014(19) 0.89397(17)
C74 C 0.0582(2) 0.88553(19) 0.89680(18)
C75 C 0.0055(2) 0.8555(2) 0.86299(18)
C76 C 0.0315(2) 0.78974(19) 0.82645(17)
F26 F 0.24066(11) 0.75288(11) 0.85119(10)
F27 F 0.18782(13) 0.87804(12) 0.92870(11)
F28 F 0.03297(14) 0.94832(11) 0.93375(11)
F29 F -0.07115(13) 0.88997(12) 0.86567(12)
F30 F -0.02223(12) 0.76164(11) 0.79501(11)
C77 C 0.1168(2) 0.89025(18) 0.60916(16)
C78 C 0.1700(2) 0.91892(19) 0.64398(17)
C79 C 0.1415(2) 0.96931(19) 0.69982(17)
C80 C 0.0582(2) 0.99256(19) 0.72155(17)
C81 C 0.0033(2) 0.96621(19) 0.68725(18)
C82 C 0.0336(2) 0.91613(19) 0.63125(18)
F31 F 0.25230(12) 0.89530(11) 0.62616(11)
F32 F 0.19558(13) 0.99331(11) 0.73415(11)
F33 F 0.03078(13) 1.04001(12) 0.77682(11)
F34 F -0.07852(12) 0.98749(12) 0.70891(12)
F35 F -0.02243(12) 0.88940(12) 0.60080(11)
C83 C 0.2487(2) 0.81962(18) 0.23471(16)
C84 C 0.1846(2) 0.85961(18) 0.20995(16)
C85 C 0.1965(2) 0.89855(18) 0.14513(17)
C86 C 0.2760(2) 0.89730(18) 0.10273(16)
C87 C 0.3416(2) 0.85830(19) 0.12546(17)
C88 C 0.3277(2) 0.82012(18) 0.19054(17)
F36 F 0.10581(11) 0.85967(11) 0.24902(10)
F37 F 0.13261(12) 0.93732(11) 0.12416(10)
F38 F 0.28860(13) 0.93381(11) 0.03960(10)
F39 F 0.41908(12) 0.85751(12) 0.08513(10)
F40 F 0.39406(12) 0.78362(11) 0.21072(10)
N9 N 0.01404(17) 0.35504(17) 0.69900(15)
C89 C -0.0614(2) 0.4111(2) 0.72449(19)
H21 H -0.1078 0.3852 0.7512
H22 H -0.0783 0.4342 0.6811
C90 C -0.0495(2) 0.4713(2) 0.7732(2)
H23 H -0.0521 0.4519 0.8231
H24 H 0.0062 0.4871 0.7548
C91 C -0.1152(3) 0.5365(2) 0.7755(2)
H25 H -0.1708 0.5196 0.7883
H26 H -0.1084 0.5590 0.7264
C92 C -0.1108(3) 0.5940(2) 0.8298(2)
H27 H -0.1545 0.6350 0.8291
H28 H -0.1187 0.5725 0.8786
H29 H -0.0563 0.6119 0.8167
C93 C 0.0864(2) 0.3919(2) 0.65610(18)
H30 H 0.1320 0.3534 0.6349
H31 H 0.1070 0.4209 0.6902
C94 C 0.0666(2) 0.4422(2) 0.59509(19)
H32 H 0.0324 0.4878 0.6160
H33 H 0.0344 0.4177 0.5668
C95 C 0.1472(2) 0.4608(2) 0.54510(19)
H34 H 0.1776 0.4872 0.5735
H35 H 0.1826 0.4146 0.5272
C96 C 0.1330(2) 0.5071(2) 0.4808(2)
H36 H 0.1866 0.5172 0.4507
H37 H 0.1040 0.4808 0.4517
H38 H 0.0990 0.5534 0.4980
C97 C -0.0099(2) 0.2991(2) 0.65246(18)
H39 H -0.0309 0.3253 0.6124
H40 H -0.0563 0.2756 0.6826
C98 C 0.0591(2) 0.2393(2) 0.61955(19)
H41 H 0.0876 0.2183 0.6577
H42 H 0.1005 0.2605 0.5812
C99 C 0.0240(2) 0.1788(2) 0.58694(19)
H43 H -0.0154 0.1561 0.6261
H44 H -0.0074 0.2006 0.5511
C100 C 0.0908(2) 0.1199(2) 0.5499(2)
H45 H 0.0650 0.0825 0.5299
H46 H 0.1293 0.1417 0.5103
H47 H 0.1213 0.0972 0.5854
C101 C 0.0432(2) 0.3185(2) 0.76380(18)
H48 H 0.0991 0.2912 0.7459
H49 H 0.0491 0.3574 0.7968
C102 C -0.0126(2) 0.2664(2) 0.80755(18)
H50 H -0.0072 0.2205 0.7799
H51 H -0.0713 0.2890 0.8165
C103 C 0.0122(3) 0.2493(2) 0.88035(19)
H52 H 0.0736 0.2396 0.8715
H53 H -0.0061 0.2929 0.9123
C104 C -0.0251(3) 0.1838(2) 0.9192(2)
H54 H -0.0072 0.1755 0.9652
H55 H -0.0859 0.1935 0.9292
H56 H -0.0062 0.1402 0.8884
N10 N 0.45085(17) 0.69875(16) 0.64162(15)
C105 C 0.4033(2) 0.6485(2) 0.69667(19)
H57 H 0.3945 0.6055 0.6703
H58 H 0.3478 0.6751 0.7179
C106 C 0.4440(2) 0.6210(2) 0.75882(19)
H59 H 0.4945 0.5863 0.7398
H60 H 0.4608 0.6627 0.7816
C107 C 0.3831(2) 0.5829(2) 0.8149(2)
H61 H 0.3626 0.5444 0.7906
H62 H 0.3347 0.6189 0.8362
C108 C 0.4215(3) 0.5484(2) 0.8756(2)
H63 H 0.3799 0.5245 0.9104
H64 H 0.4687 0.5119 0.8550
H65 H 0.4408 0.5865 0.9006
C109 C 0.3994(2) 0.7178(2) 0.58527(18)
H66 H 0.3432 0.7398 0.6107
H67 H 0.3932 0.6718 0.5623
C110 C 0.4338(2) 0.7701(2) 0.52545(19)
H68 H 0.4251 0.8205 0.5452
H69 H 0.4944 0.7558 0.5079
C111 C 0.3913(3) 0.7686(2) 0.4626(2)
H70 H 0.3304 0.7768 0.4815
H71 H 0.4054 0.7194 0.4398
C112 C 0.4164(3) 0.8262(3) 0.4050(2)
H72 H 0.3872 0.8229 0.3657
H73 H 0.4015 0.8751 0.4270
H74 H 0.4765 0.8177 0.3852
C113 C 0.5370(2) 0.6612(2) 0.60653(19)
H75 H 0.5692 0.6983 0.5784
H76 H 0.5653 0.6432 0.6458
C114 C 0.5400(2) 0.5973(2) 0.5562(2)
H77 H 0.5295 0.6161 0.5090
H78 H 0.4962 0.5665 0.5781
C115 C 0.6251(2) 0.5514(2) 0.5441(2)
H79 H 0.6683 0.5825 0.5213
H80 H 0.6360 0.5346 0.5917
C116 C 0.6315(2) 0.4854(2) 0.4960(2)
H81 H 0.6871 0.4579 0.4899
H82 H 0.5896 0.4539 0.5187
H83 H 0.6220 0.5019 0.4483
C117 C 0.4650(2) 0.7667(2) 0.67777(19)
H84 H 0.5090 0.7528 0.7052
H85 H 0.4866 0.8015 0.6392
C118 C 0.3904(2) 0.8063(2) 0.7291(2)
H86 H 0.3765 0.7777 0.7745
H87 H 0.3418 0.8119 0.7063
C119 C 0.4109(2) 0.8819(2) 0.7463(2)
H88 H 0.4673 0.8765 0.7562
H89 H 0.4115 0.9138 0.7029
C120 C 0.3497(3) 0.9190(2) 0.8108(2)
H90 H 0.3660 0.9669 0.8190
H91 H 0.2938 0.9258 0.8010
H92 H 0.3497 0.8884 0.8543
N11 N 0.5280(3) 0.5368(2) 0.3360(2)
C121 C 0.5115(2) 0.5903(2) 0.3076(2)
C122 C 0.4928(3) 0.6576(2) 0.2700(2)
N12 N -0.0284(3) 0.6658(2) 0.5338(2)
C123 C -0.0527(3) 0.6954(2) 0.5879(2)
C124 C -0.0827(3) 0.7342(2) 0.6564(2)
H19? H 0.2844 0.6972 0.1844
H20? H 0.2474 0.2878 0.8074
loop_
_geom_bond_atom_site_label_1
_geom_bond_atom_site_label_2
_geom_bond_site_symmetry_1
_geom_bond_site_symmetry_2
C1 C2 1_555 1_555
C2 H1 1_555 1_555
C3 C2 1_555 1_555
H2 C3 1_555 1_555
C4 C3 1_555 1_555
N1 C1 1_555 1_555
C5 C4 1_555 1_555
C6 C5 1_555 1_555
C7 C6 1_555 1_555
H3 C7 1_555 1_555
C8 C7 1_555 1_555
H4 C8 1_555 1_555
C9 C8 1_555 1_555
N2 C6 1_555 1_555
C10 C9 1_555 1_555
C11 C10 1_555 1_555
C12 C11 1_555 1_555
H5 C12 1_555 1_555
C13 C12 1_555 1_555
H6 C13 1_555 1_555
C14 C13 1_555 1_555
N3 C11 1_555 1_555
H7 N3 1_555 1_555
C15 C14 1_555 1_555
C16 C15 1_555 1_555
C17 C16 1_555 1_555
H8 C17 1_555 1_555
C18 C17 1_555 1_555
H9 C18 1_555 1_555
C19 C18 1_555 1_555
N4 C16 1_555 1_555
C20 C19 1_555 1_555
C21 C20 1_555 1_555
C22 C21 1_555 1_555
H10 C22 1_555 1_555
C23 C22 1_555 1_555
H11 C23 1_555 1_555
C24 C23 1_555 1_555
N5 C21 1_555 1_555
C25 C24 1_555 1_555
C26 C25 1_555 1_555
C27 C26 1_555 1_555
H12 C27 1_555 1_555
C28 C27 1_555 1_555
H13 C28 1_555 1_555
C29 C28 1_555 1_555
N6 C26 1_555 1_555
C30 C29 1_555 1_555
C31 C30 1_555 1_555
C32 C31 1_555 1_555
H14 C32 1_555 1_555
C33 C32 1_555 1_555
H15 C33 1_555 1_555
C34 C33 1_555 1_555
N7 C31 1_555 1_555
H16 N7 1_555 1_555
C35 C34 1_555 1_555
C36 C35 1_555 1_555
C37 C36 1_555 1_555
H17 C37 1_555 1_555
C38 C37 1_555 1_555
H18 C38 1_555 1_555
C39 C38 1_555 1_555
N8 C36 1_555 1_555
C40 C1 1_555 1_555
C41 C5 1_555 1_555
C42 C41 1_555 1_555
C43 C42 1_555 1_555
C44 C43 1_555 1_555
C45 C44 1_555 1_555
C46 C41 1_555 1_555
F1 C42 1_555 1_555
F2 C43 1_555 1_555
F3 C44 1_555 1_555
F4 C45 1_555 1_555
F5 C46 1_555 1_555
C47 C10 1_555 1_555
C48 C47 1_555 1_555
C49 C48 1_555 1_555
C50 C49 1_555 1_555
C51 C50 1_555 1_555
C52 C47 1_555 1_555
F6 C48 1_555 1_555
F7 C49 1_555 1_555
F8 C50 1_555 1_555
F9 C51 1_555 1_555
F10 C52 1_555 1_555
C53 C15 1_555 1_555
C54 C53 1_555 1_555
C55 C54 1_555 1_555
C56 C55 1_555 1_555
C57 C56 1_555 1_555
C58 C53 1_555 1_555
F11 C54 1_555 1_555
F12 C55 1_555 1_555
F13 C56 1_555 1_555
F14 C57 1_555 1_555
F15 C58 1_555 1_555
C59 C20 1_555 1_555
C60 C59 1_555 1_555
C61 C60 1_555 1_555
C62 C61 1_555 1_555
C63 C59 1_555 1_555
C64 C62 1_555 1_555
F16 C60 1_555 1_555
F17 C61 1_555 1_555
F18 C62 1_555 1_555
F19 C64 1_555 1_555
F20 C63 1_555 1_555
C65 C25 1_555 1_555
C66 C65 1_555 1_555
C67 C66 1_555 1_555
C68 C67 1_555 1_555
C69 C68 1_555 1_555
C70 C65 1_555 1_555
F21 C66 1_555 1_555
F22 C67 1_555 1_555
F23 C68 1_555 1_555
F24 C69 1_555 1_555
F25 C70 1_555 1_555
C71 C30 1_555 1_555
C72 C71 1_555 1_555
C73 C72 1_555 1_555
C74 C73 1_555 1_555
C75 C74 1_555 1_555
C76 C71 1_555 1_555
F26 C72 1_555 1_555
F27 C73 1_555 1_555
F28 C74 1_555 1_555
F29 C75 1_555 1_555
F30 C76 1_555 1_555
C77 C35 1_555 1_555
C78 C77 1_555 1_555
C79 C78 1_555 1_555
C80 C79 1_555 1_555
C81 C80 1_555 1_555
C82 C77 1_555 1_555
F31 C78 1_555 1_555
F32 C79 1_555 1_555
F33 C80 1_555 1_555
F34 C81 1_555 1_555
F35 C82 1_555 1_555
C83 C40 1_555 1_555
C84 C83 1_555 1_555
C85 C84 1_555 1_555
C86 C85 1_555 1_555
C87 C86 1_555 1_555
C88 C83 1_555 1_555
F36 C84 1_555 1_555
F37 C85 1_555 1_555
F38 C86 1_555 1_555
F39 C87 1_555 1_555
F40 C88 1_555 1_555
N9 C89 1_555 1_555
C89 H21 1_555 1_555
H22 C89 1_555 1_555
C90 C89 1_555 1_555
H23 C90 1_555 1_555
H24 C90 1_555 1_555
C91 C90 1_555 1_555
H25 C91 1_555 1_555
H26 C91 1_555 1_555
C92 C91 1_555 1_555
H27 C92 1_555 1_555
H28 C92 1_555 1_555
H29 C92 1_555 1_555
C93 N9 1_555 1_555
H30 C93 1_555 1_555
H31 C93 1_555 1_555
C94 C93 1_555 1_555
H32 C94 1_555 1_555
H33 C94 1_555 1_555
C95 C94 1_555 1_555
H34 C95 1_555 1_555
H35 C95 1_555 1_555
C96 C95 1_555 1_555
H36 C96 1_555 1_555
H37 C96 1_555 1_555
H38 C96 1_555 1_555
C97 N9 1_555 1_555
H39 C97 1_555 1_555
H40 C97 1_555 1_555
C98 C97 1_555 1_555
H41 C98 1_555 1_555
H42 C98 1_555 1_555
C99 C98 1_555 1_555
H43 C99 1_555 1_555
H44 C99 1_555 1_555
C100 C99 1_555 1_555
H45 C100 1_555 1_555
H46 C100 1_555 1_555
H47 C100 1_555 1_555
C101 N9 1_555 1_555
H48 C101 1_555 1_555
H49 C101 1_555 1_555
C102 C101 1_555 1_555
H50 C102 1_555 1_555
H51 C102 1_555 1_555
C103 C102 1_555 1_555
H52 C103 1_555 1_555
H53 C103 1_555 1_555
C104 C103 1_555 1_555
H54 C104 1_555 1_555
H55 C104 1_555 1_555
H56 C104 1_555 1_555
N10 C105 1_555 1_555
C105 H57 1_555 1_555
H58 C105 1_555 1_555
C106 C105 1_555 1_555
H59 C106 1_555 1_555
H60 C106 1_555 1_555
C107 C106 1_555 1_555
H61 C107 1_555 1_555
H62 C107 1_555 1_555
C108 C107 1_555 1_555
H63 C108 1_555 1_555
H64 C108 1_555 1_555
H65 C108 1_555 1_555
C109 N10 1_555 1_555
H66 C109 1_555 1_555
H67 C109 1_555 1_555
C110 C109 1_555 1_555
H68 C110 1_555 1_555
H69 C110 1_555 1_555
C111 C110 1_555 1_555
H70 C111 1_555 1_555
H71 C111 1_555 1_555
C112 C111 1_555 1_555
H72 C112 1_555 1_555
H73 C112 1_555 1_555
H74 C112 1_555 1_555
C113 N10 1_555 1_555
H75 C113 1_555 1_555
H76 C113 1_555 1_555
C114 C113 1_555 1_555
H77 C114 1_555 1_555
H78 C114 1_555 1_555
C115 C114 1_555 1_555
H79 C115 1_555 1_555
H80 C115 1_555 1_555
C116 C115 1_555 1_555
H81 C116 1_555 1_555
H82 C116 1_555 1_555
H83 C116 1_555 1_555
C117 N10 1_555 1_555
H84 C117 1_555 1_555
H85 C117 1_555 1_555
C118 C117 1_555 1_555
H86 C118 1_555 1_555
H87 C118 1_555 1_555
C119 C118 1_555 1_555
H88 C119 1_555 1_555
H89 C119 1_555 1_555
C120 C119 1_555 1_555
H90 C120 1_555 1_555
H91 C120 1_555 1_555
H92 C120 1_555 1_555
N11 C121 1_555 1_555
C121 C122 1_555 1_555
N12 C123 1_555 1_555
C123 C124 1_555 1_555
C4 N1 1_555 1_555
C9 N2 1_555 1_555
C14 N3 1_555 1_555
C19 N4 1_555 1_555
C24 N5 1_555 1_555
C29 N6 1_555 1_555
C34 N7 1_555 1_555
C39 N8 1_555 1_555
C39 C40 1_555 1_555
C45 C46 1_555 1_555
C51 C52 1_555 1_555
C57 C58 1_555 1_555
C63 C64 1_555 1_555
C69 C70 1_555 1_555
C75 C76 1_555 1_555
C81 C82 1_555 1_555
C87 C88 1_555 1_555

#END
