
#######################################################################
#
#                 Cambridge Crystallographic Data Centre
#                                CCDC 
#
#######################################################################
#
# If this CIF has been generated from an entry in the Cambridge 
# Structural Database, then it will include bibliographic, chemical, 
# crystal, experimental, refinement or atomic coordinate data resulting 
# from the CCDC's data processing and validation procedures.
#
#######################################################################

data_OLAZOS
_chemical_formula_moiety         'C27 H20 O1'
_chemical_name_systematic        3-(Triphenylvinyl)benzaldehyde
_symmetry_cell_setting           monoclinic
_symmetry_space_group_name_H-M   'P 21'
_symmetry_Int_Tables_number      4
_space_group_name_Hall           'P 2yb'
loop_
_symmetry_equiv_pos_site_id
_symmetry_equiv_pos_as_xyz
1 x,y,z
2 -x,1/2+y,-z
_cell_length_a                   10.298
_cell_length_b                   9.153
_cell_length_c                   10.795
_cell_angle_alpha                90
_cell_angle_beta                 104.69
_cell_angle_gamma                90
_cell_volume                     984.25
_exptl_crystal_colour            colorless
_exptl_crystal_description       block
_cell_formula_units_Z            2
loop_
_atom_site_label
_atom_site_type_symbol
_atom_site_fract_x
_atom_site_fract_y
_atom_site_fract_z
C1 C 0.6024(3) 0.4030(4) 1.1415(3)
C2 C 0.3528(3) 0.5100(4) 1.0153(3)
H1 H 0.2690 0.5470 0.9736
C3 C 0.2533(3) 0.3856(3) 0.7436(2)
C4 C 0.5552(3) 0.3877(4) 1.0083(3)
H2 H 0.6092 0.3427 0.9623
C5 C 0.1160(3) 0.2901(4) 0.5343(3)
H3 H 0.0998 0.2061 0.5764
C6 C 0.5022(3) 0.3553(4) 0.6361(2)
H4 H 0.4502 0.2711 0.6199
C7 C 0.1601(3) 0.3241(3) 0.8171(3)
C8 C 0.4299(3) 0.4386(3) 0.9443(2)
C9 C 0.1955(3) 0.4003(4) 0.6030(3)
C10 C 0.3810(3) 0.4242(3) 0.8019(2)
C11 C 0.5976(3) 0.3812(4) 0.5681(3)
H5 H 0.6099 0.3139 0.5075
C12 C 0.2153(3) 0.5266(4) 0.5380(3)
H6 H 0.2666 0.6024 0.5828
O1 O 0.8058(3) 0.2746(4) 1.1591(3)
C13 C 0.1591(3) 0.5408(4) 0.4064(3)
H7 H 0.1733 0.6256 0.3642
C14 C 0.0599(3) 0.3042(4) 0.4020(3)
H8 H 0.0075 0.2293 0.3568
C15 C 0.4835(3) 0.4537(3) 0.7281(2)
C16 C 0.3992(4) 0.5266(4) 1.1472(3)
H9 H 0.3460 0.5731 1.1931
C17 C 0.5217(4) 0.4751(4) 1.2089(3)
H10 H 0.5527 0.4877 1.2970
C18 C 0.5635(3) 0.5778(4) 0.7517(3)
H11 H 0.5545 0.6432 0.8149
C19 C -0.0578(4) 0.3136(4) 0.8623(3)
H12 H -0.1455 0.3473 0.8478
C20 C 0.0267(3) 0.3721(4) 0.7934(3)
H13 H -0.0051 0.4431 0.7316
C21 C 0.6575(3) 0.6051(4) 0.6812(3)
H14 H 0.7087 0.6900 0.6956
C22 C -0.0123(4) 0.2056(5) 0.9520(3)
H15 H -0.0693 0.1672 0.9983
C23 C 0.2023(3) 0.2134(4) 0.9060(3)
H16 H 0.2895 0.1780 0.9206
C24 C 0.6743(3) 0.5067(4) 0.5904(3)
H17 H 0.7374 0.5246 0.5440
C25 C 0.0824(3) 0.4291(5) 0.3390(3)
H18 H 0.0460 0.4381 0.2513
C26 C 0.7320(4) 0.3469(5) 1.2077(3)
H19 H 0.7621 0.3674 1.2947
C27 C 0.1169(4) 0.1548(5) 0.9732(3)
H20 H 0.1470 0.0810 1.0327
loop_
_geom_bond_atom_site_label_1
_geom_bond_atom_site_label_2
_geom_bond_site_symmetry_1
_geom_bond_site_symmetry_2
C1 C4 1_555 1_555
C2 H1 1_555 1_555
C3 C7 1_555 1_555
C4 H2 1_555 1_555
C5 H3 1_555 1_555
C6 H4 1_555 1_555
C7 C20 1_555 1_555
C8 C2 1_555 1_555
C9 C3 1_555 1_555
C10 C3 1_555 1_555
C11 C6 1_555 1_555
H5 C11 1_555 1_555
C12 C9 1_555 1_555
H6 C12 1_555 1_555
O1 C26 1_555 1_555
C13 C12 1_555 1_555
H7 C13 1_555 1_555
C14 C5 1_555 1_555
H8 C14 1_555 1_555
C15 C6 1_555 1_555
C16 C2 1_555 1_555
H9 C16 1_555 1_555
C17 C1 1_555 1_555
H10 C17 1_555 1_555
C18 C15 1_555 1_555
H11 C18 1_555 1_555
C19 H12 1_555 1_555
C20 C19 1_555 1_555
H13 C20 1_555 1_555
C21 C18 1_555 1_555
H14 C21 1_555 1_555
C22 C19 1_555 1_555
H15 C22 1_555 1_555
C23 C7 1_555 1_555
H16 C23 1_555 1_555
C24 C11 1_555 1_555
H17 C24 1_555 1_555
C25 C13 1_555 1_555
H18 C25 1_555 1_555
C26 C1 1_555 1_555
H19 C26 1_555 1_555
C27 C22 1_555 1_555
H20 C27 1_555 1_555
C4 C8 1_555 1_555
C5 C9 1_555 1_555
C8 C10 1_555 1_555
C10 C15 1_555 1_555
C14 C25 1_555 1_555
C16 C17 1_555 1_555
C21 C24 1_555 1_555
C23 C27 1_555 1_555

#END
