
#######################################################################
#
#                 Cambridge Crystallographic Data Centre
#                                CCDC 
#
#######################################################################
#
# If this CIF has been generated from an entry in the Cambridge 
# Structural Database, then it will include bibliographic, chemical, 
# crystal, experimental, refinement or atomic coordinate data resulting 
# from the CCDC's data processing and validation procedures.
#
#######################################################################

data_OLEDUE
_chemical_formula_moiety         'C35 H24 N2 S1'
_chemical_name_systematic        
trans-trans-2-(4-(4-(N-Carbazolyl)styryl)styryl)-1,3-benzothiazole
_symmetry_cell_setting           monoclinic
_symmetry_space_group_name_H-M   'P 21/c'
_symmetry_Int_Tables_number      14
_space_group_name_Hall           '-P 2ybc'
loop_
_symmetry_equiv_pos_site_id
_symmetry_equiv_pos_as_xyz
1 x,y,z
2 x,1/2-y,1/2+z
3 -x,-y,-z
4 -x,1/2+y,1/2-z
_cell_length_a                   8.0149(9)
_cell_length_b                   40.378(4)
_cell_length_c                   8.0607(12)
_cell_angle_alpha                90
_cell_angle_beta                 97.480(10)
_cell_angle_gamma                90
_cell_volume                     2586.45
_exptl_crystal_colour            'light green'
_exptl_crystal_description       plate
_chemical_melting_point          296-297deg.C
_cell_formula_units_Z            4
_exptl_crystal_recrystallization_method chloroform
loop_
_atom_site_label
_atom_site_type_symbol
_atom_site_fract_x
_atom_site_fract_y
_atom_site_fract_z
C1 C 0.4932(7) 0.08088(15) 0.7404(8)
N1 N 1.3745(6) -0.17731(12) -0.5168(5)
S1 S 0.4058(3) 0.07923(7) 0.4287(2)
N2 N 0.5951(7) 0.05603(14) 0.6929(8)
C2 C 1.7547(11) -0.21982(18) -0.5936(12)
C4 C 1.856(3) -0.2144(7) -0.485(5)
C5 C 1.8230(9) -0.1902(2) -0.3297(11)
C6 C 1.6575(8) -0.17803(18) -0.3412(9)
H1 H 1.6253 -0.1643 -0.2582
C7 C 1.5437(7) -0.18677(15) -0.4779(8)
C8 C 1.5858(9) -0.20700(16) -0.6054(9)
C9 C 1.4379(10) -0.21077(16) -0.7267(8)
C10 C 1.3106(8) -0.19163(15) -0.6681(7)
C11 C 1.1483(9) -0.19120(17) -0.7495(7)
H2 H 1.0657 -0.1788 -0.7072
C12 C 1.1086(11) -0.20983(19) -0.8980(9)
C13 C 1.272(4) -0.2307(4) -0.9496(19)
C15 C 1.4016(13) -0.22886(18) -0.8782(10)
C16 C 1.2874(7) -0.15573(14) -0.4206(7)
C17 C 1.2091(7) -0.12783(16) -0.4921(8)
H3 H 1.2098 -0.1233 -0.6052
C18 C 1.1282(8) -0.10639(18) -0.3909(11)
H4 H 1.0742 -0.0877 -0.4396
C19 C 1.1255(9) -0.1119(2) -0.2209(11)
C20 C 1.2036(9) -0.1401(2) -0.1570(9)
H5 H 1.2037 -0.1447 -0.0439
C21 C 1.2824(8) -0.16201(17) -0.2529(7)
H6 H 1.3324 -0.1811 -0.2044
C24 C 1.0559(13) -0.0940(3) -0.0837(14)
H9 H 1.0661 -0.1027 0.0239
C25 C 0.9817(13) -0.0663(3) -0.1176(14)
H10 H 0.9687 -0.0579 -0.2261
C26 C 0.9140(9) -0.04697(19) 0.0253(12)
C27 C 0.9402(9) -0.04846(18) 0.1971(11)
H11 H 1.0116 -0.0646 0.2491
C28 C 0.8633(9) -0.02666(18) 0.2934(9)
H12 H 0.8852 -0.0279 0.4094
C29 C 0.7544(8) -0.00300(16) 0.2205(10)
C30 C 0.7293(8) -0.00152(18) 0.0477(10)
H13 H 0.6568 0.0144 -0.0048
C31 C 0.8073(9) -0.0226(2) -0.0459(10)
H14 H 0.7888 -0.0206 -0.1618
C32 C 0.6585(11) 0.0222(2) 0.3035(11)
H15 H 0.5878 0.0361 0.2342
C33 C 0.6641(10) 0.0266(2) 0.4621(11)
H16 H 0.7332 0.0128 0.5337
C34 C 0.5644(8) 0.05281(17) 0.5369(12)
C35 C 0.3816(7) 0.09692(15) 0.6191(7)
C36 C 0.2784(8) 0.12187(17) 0.6615(9)
H17 H 0.2062 0.1329 0.5800
C37 C 0.2849(10) 0.13006(17) 0.8265(11)
H18 H 0.2145 0.1465 0.8583
C38 C 0.3943(11) 0.1142(2) 0.9462(9)
H19 H 0.3975 0.1205 1.0576
C39 C 0.4969(9) 0.08994(18) 0.9066(8)
H20 H 0.5692 0.0794 0.9896
C3? C 1.877(3) -0.2078(6) -0.423(5)
C14? C 1.198(5) -0.2251(5) -0.970(2)
C22? C 1.0138(19) -0.0767(4) -0.023(3)
H7? H 1.0635 -0.0913 0.0585
C23? C 1.0286(15) -0.0814(3) -0.184(2)
H8? H 0.9824 -0.0669 -0.2674
loop_
_geom_bond_atom_site_label_1
_geom_bond_atom_site_label_2
_geom_bond_site_symmetry_1
_geom_bond_site_symmetry_2
C1 N2 1_555 1_555
N1 C7 1_555 1_555
S1 C34 1_555 1_555
N2 C34 1_555 1_555
C2 C4 1_555 1_555
C4 C5 1_555 1_555
C5 C6 1_555 1_555
C6 H1 1_555 1_555
C7 C6 1_555 1_555
C8 C2 1_555 1_555
C9 C8 1_555 1_555
C10 N1 1_555 1_555
C11 C10 1_555 1_555
H2 C11 1_555 1_555
C12 C11 1_555 1_555
C13 C12 1_555 1_555
C15 C9 1_555 1_555
C16 N1 1_555 1_555
C17 C16 1_555 1_555
H3 C17 1_555 1_555
C18 C17 1_555 1_555
H4 C18 1_555 1_555
C19 C18 1_555 1_555
C20 C19 1_555 1_555
H5 C20 1_555 1_555
C21 C16 1_555 1_555
H6 C21 1_555 1_555
C24 C19 1_555 1_555
H9 C24 1_555 1_555
C25 C24 1_555 1_555
H10 C25 1_555 1_555
C26 C25 1_555 1_555
C27 C26 1_555 1_555
H11 C27 1_555 1_555
C28 C27 1_555 1_555
H12 C28 1_555 1_555
C29 C28 1_555 1_555
C30 C29 1_555 1_555
H13 C30 1_555 1_555
C31 C26 1_555 1_555
H14 C31 1_555 1_555
C32 C29 1_555 1_555
H15 C32 1_555 1_555
C33 C32 1_555 1_555
H16 C33 1_555 1_555
C34 C33 1_555 1_555
C35 C1 1_555 1_555
C36 C35 1_555 1_555
H17 C36 1_555 1_555
C37 C36 1_555 1_555
H18 C37 1_555 1_555
C38 C37 1_555 1_555
H19 C38 1_555 1_555
C39 C1 1_555 1_555
H20 C39 1_555 1_555
S1 C35 1_555 1_555
C7 C8 1_555 1_555
C9 C10 1_555 1_555
C13 C15 1_555 1_555
C20 C21 1_555 1_555
C30 C31 1_555 1_555
C38 C39 1_555 1_555

#END
