
#######################################################################
#
#                 Cambridge Crystallographic Data Centre
#                                CCDC 
#
#######################################################################
#
# If this CIF has been generated from an entry in the Cambridge 
# Structural Database, then it will include bibliographic, chemical, 
# crystal, experimental, refinement or atomic coordinate data resulting 
# from the CCDC's data processing and validation procedures.
#
#######################################################################

data_OLEGOB
_chemical_name_common            
'rctt-2,8,14,20-tetrakis(4-Methylphenyl)-5,11,17,23-tetramethylcalix[4]resorcinarene dimethylformamide solvate'
_chemical_formula_moiety         'C60 H56 O8,6(C3 H7 N1 O1)'
_chemical_name_systematic        
'rctt-2,8,14,20-tetrakis(4-Methylphenyl)-4,6,10,12,16,18,22,24-octahydroxy-5,11,17,23-tetramethylcalix[4]arene dimethylformamide solvate'
_symmetry_cell_setting           triclinic
_symmetry_space_group_name_H-M   'P -1'
_symmetry_Int_Tables_number      2
_space_group_name_Hall           '-P 1'
loop_
_symmetry_equiv_pos_site_id
_symmetry_equiv_pos_as_xyz
1 x,y,z
2 -x,-y,-z
_cell_length_a                   10.8167(8)
_cell_length_b                   13.4529(9)
_cell_length_c                   14.3189(10)
_cell_angle_alpha                70.1390(10)
_cell_angle_beta                 86.8950(10)
_cell_angle_gamma                70.5630(10)
_cell_volume                     1843.93
_exptl_crystal_colour            colorless
_exptl_crystal_description       block
_chemical_melting_point          'above 315deg.C'
_cell_formula_units_Z            1
loop_
_atom_site_label
_atom_site_type_symbol
_atom_site_fract_x
_atom_site_fract_y
_atom_site_fract_z
O1 O 0.14021(11) 0.74223(10) 0.14309(8)
H1 H 0.1278 0.7828 0.0845
O2 O 0.53965(12) 0.82741(10) 0.10807(8)
H2 H 0.5614 0.8616 0.1382
O3 O 0.34150(13) 0.42292(11) 0.27305(8)
H3 H 0.4145 0.4008 0.2530
O4 O 0.50194(13) 0.16487(10) 0.59886(10)
H4 H 0.4621 0.1431 0.6476
C1 C 0.26238(14) 0.72826(12) 0.17865(11)
C2 C 0.30130(14) 0.65494(12) 0.27619(10)
C3 C 0.42299(14) 0.64002(12) 0.31530(11)
H5 H 0.4503 0.5906 0.3799
C4 C 0.50621(14) 0.69540(12) 0.26265(10)
C5 C 0.46322(15) 0.76904(12) 0.16632(11)
C6 C 0.34239(15) 0.78580(12) 0.12239(10)
C7 C 0.3003(2) 0.86642(16) 0.01796(13)
H6 H 0.2156 0.8681 -0.0009
H7 H 0.3631 0.8426 -0.0267
H8 H 0.2953 0.9401 0.0149
C8 C 0.35267(15) 0.39836(14) 0.37411(11)
C9 C 0.28320(13) 0.48298(12) 0.41094(10)
C10 C 0.28660(13) 0.45788(12) 0.51322(11)
H9 H 0.2395 0.5138 0.5384
C11 C 0.35708(13) 0.35314(12) 0.57974(10)
C12 C 0.42757(15) 0.27110(13) 0.53992(12)
C13 C 0.42600(16) 0.29199(14) 0.43751(12)
C14 C 0.4992(3) 0.19961(18) 0.39791(17)
H10 H 0.4883 0.2278 0.3266
H11 H 0.4651 0.1388 0.4236
H12 H 0.5909 0.1734 0.4183
C15 C 0.20865(14) 0.59975(13) 0.33905(11)
H13 H 0.1525 0.5904 0.2934
C16 C 0.11847(14) 0.67413(12) 0.39242(11)
C17 C 0.14961(17) 0.75589(15) 0.41401(14)
H14 H 0.2283 0.7681 0.3946
C18 C 0.0654(2) 0.81975(17) 0.46417(17)
H15 H 0.0885 0.8744 0.4776
C19 C -0.0524(2) 0.80445(17) 0.49486(16)
C20 C -0.08215(17) 0.72093(17) 0.47522(15)
H16 H -0.1597 0.7074 0.4963
C21 C 0.00114(15) 0.65739(14) 0.42498(13)
H17 H -0.0216 0.6020 0.4125
C22 C -0.1457(3) 0.8763(3) 0.5475(3)
H18 H -0.2218 0.8535 0.5627
H19 H -0.1722 0.9536 0.5052
H20 H -0.1026 0.8675 0.6081
C23 C 0.64169(14) 0.67421(12) 0.30775(10)
H21 H 0.6594 0.7451 0.2800
C24 C 0.74884(14) 0.58880(13) 0.27429(10)
C25 C 0.74535(16) 0.48291(14) 0.28742(12)
H22 H 0.6742 0.4626 0.3161
C26 C 0.84664(19) 0.40706(16) 0.25822(14)
H23 H 0.8431 0.3359 0.2691
C27 C 0.95312(18) 0.43430(18) 0.21329(15)
C28 C 0.95579(18) 0.54037(19) 0.19896(15)
H24 H 1.0257 0.5613 0.1684
C29 C 0.85606(16) 0.61583(15) 0.22946(12)
H25 H 0.8607 0.6864 0.2198
C30 C 1.0630(3) 0.3518(3) 0.1803(2)
H26 H 1.1275 0.3857 0.1510
H27 H 1.0281 0.3312 0.1322
H28 H 1.1032 0.2860 0.2368
C11A C 0.64292(13) 0.64686(12) 0.42026(10)
C10A C 0.71340(13) 0.54212(12) 0.48678(11)
C9A C 0.71680(13) 0.51702(12) 0.58906(10)
C8A C 0.64733(15) 0.60164(14) 0.62589(11)
O3A O 0.65850(13) 0.57708(11) 0.72695(8)
H3A H 0.5855 0.5992 0.7470
C13A C 0.57400(16) 0.70801(14) 0.56249(12)
C12A C 0.57243(15) 0.72890(13) 0.46008(12)
O4A O 0.49806(13) 0.83513(10) 0.40114(10)
H4A H 0.5379 0.8569 0.3524
C14A C 0.5008(3) 0.80039(18) 0.60209(17)
H10A H 0.5117 0.7722 0.6734
H11A H 0.5349 0.8612 0.5764
H12A H 0.4091 0.8266 0.5817
C15A C 0.79135(14) 0.40025(13) 0.66095(11)
C2A C 0.69870(14) 0.34506(12) 0.72381(10)
C1A C 0.73762(14) 0.27174(12) 0.82135(11)
O1A O 0.85979(11) 0.25777(10) 0.85691(8)
H1A H 0.8722 0.2172 0.9155
C6A C 0.65761(15) 0.21420(12) 0.87761(10)
C5A C 0.53678(15) 0.23096(12) 0.83368(11)
O2A O 0.46035(12) 0.17259(10) 0.89193(8)
H2A H 0.4386 0.1384 0.8618
C4A C 0.49379(14) 0.30460(12) 0.73735(10)
C3A C 0.57701(14) 0.35998(12) 0.68470(11)
H5A H 0.5497 0.4094 0.6201
C23A C 0.35831(14) 0.32579(12) 0.69225(10)
H21A H 0.3406 0.2549 0.7200
C24A C 0.25116(14) 0.41120(13) 0.72571(10)
C25A C 0.25465(16) 0.51709(14) 0.71258(12)
H22A H 0.3258 0.5374 0.6839
C26A C 0.15336(19) 0.59294(16) 0.74178(14)
H23A H 0.1569 0.6641 0.7309
C27A C 0.04688(18) 0.56570(18) 0.78671(15)
C28A C 0.04421(18) 0.45963(19) 0.80104(15)
H24A H -0.0257 0.4387 0.8316
C29A C 0.14394(16) 0.38417(15) 0.77054(12)
H25A H 0.1393 0.3136 0.7802
C30A C -0.0630(3) 0.6482(3) 0.8197(2)
H26A H -0.1275 0.6143 0.8490
H27A H -0.0281 0.6688 0.8678
H28A H -0.1032 0.7140 0.7632
C7A C 0.6997(2) 0.13358(16) 0.98204(13)
H6A H 0.7844 0.1319 1.0009
H7A H 0.6369 0.1574 1.0267
H8A H 0.7047 0.0599 0.9851
H13A H 0.8475 0.4096 0.7066
C16A C 0.88153(14) 0.32587(12) 0.60758(11)
C17A C 0.85039(17) 0.24411(15) 0.58599(14)
H14A H 0.7717 0.2319 0.6054
C18A C 0.9346(2) 0.18025(17) 0.53583(17)
H15A H 0.9115 0.1256 0.5224
C19A C 1.0524(2) 0.19555(17) 0.50514(16)
C20A C 1.08215(17) 0.27907(17) 0.52478(15)
H16A H 1.1597 0.2926 0.5037
C21A C 0.99886(15) 0.34261(14) 0.57502(13)
H17A H 1.0216 0.3980 0.5875
C22A C 1.1457(3) 0.1237(3) 0.4525(3)
H18A H 1.2218 0.1465 0.4373
H19A H 1.1722 0.0464 0.4948
H20A H 1.1026 0.1325 0.3919
H9A H 0.7605 0.4862 0.4616
O5 O 0.60717(17) 0.94147(13) 0.22067(13)
N1 N 0.76975(16) 1.00723(13) 0.23365(11)
C31 C 0.6488(2) 1.00846(18) 0.23805(17)
H29 H 0.5881 1.0654 0.2560
C32 C 0.8083(3) 1.0911(2) 0.2548(2)
H30 H 0.7332 1.1420 0.2726
H31 H 0.8428 1.1317 0.1968
H32 H 0.8745 1.0550 0.3089
C33 C 0.8716(2) 0.92268(18) 0.20511(19)
H33 H 0.8346 0.8721 0.1931
H34 H 0.9397 0.8817 0.2577
H35 H 0.9079 0.9584 0.1456
O6 O 0.55358(15) 0.36872(14) 0.16577(11)
N2 N 0.64523(16) 0.48538(14) 0.05516(11)
C34 C 0.56554(19) 0.46166(19) 0.12582(14)
H36 H 0.5143 0.5196 0.1472
C35 C 0.6579(3) 0.5961(2) 0.01781(18)
H37 H 0.5956 0.6445 0.0474
H38 H 0.6412 0.6265 -0.0532
H39 H 0.7452 0.5906 0.0345
C36 C 0.7306(3) 0.4008(2) 0.01907(19)
H40 H 0.7125 0.3320 0.0494
H41 H 0.8204 0.3890 0.0356
H42 H 0.7160 0.4248 -0.0519
O7 O -0.00620(16) 0.13695(16) 0.04491(12)
N3 N 0.19433(15) 0.10204(13) 0.11230(12)
C37 C 0.0989(2) 0.15285(18) 0.04118(15)
H43 H 0.1129 0.2052 -0.0166
C38 C 0.1816(2) 0.0197(2) 0.20449(16)
H44 H 0.0977 0.0103 0.2028
H45 H 0.1885 0.0446 0.2588
H46 H 0.2502 -0.0505 0.2133
C39 C 0.3158(3) 0.1272(3) 0.1017(3)
H47 H 0.3127 0.1829 0.0377
H48 H 0.3883 0.0602 0.1073
H49 H 0.3266 0.1551 0.1530
loop_
_geom_bond_atom_site_label_1
_geom_bond_atom_site_label_2
_geom_bond_site_symmetry_1
_geom_bond_site_symmetry_2
O1 H1 1_555 1_555
O2 H2 1_555 1_555
O3 H3 1_555 1_555
O4 H4 1_555 1_555
O5 C31 1_555 1_555
O6 C34 1_555 1_555
O7 C37 1_555 1_555
N1 C31 1_555 1_555
N2 C34 1_555 1_555
N3 C37 1_555 1_555
C1 O1 1_555 1_555
C2 C1 1_555 1_555
C3 C2 1_555 1_555
H5 C3 1_555 1_555
C4 C3 1_555 1_555
C5 O2 1_555 1_555
C6 C1 1_555 1_555
C7 C6 1_555 1_555
H6 C7 1_555 1_555
H7 C7 1_555 1_555
H8 C7 1_555 1_555
C8 O3 1_555 1_555
C9 C8 1_555 1_555
C10 C9 1_555 1_555
H9 C10 1_555 1_555
C11 C10 1_555 1_555
C12 O4 1_555 1_555
C13 C8 1_555 1_555
C14 C13 1_555 1_555
H10 C14 1_555 1_555
H11 C14 1_555 1_555
H12 C14 1_555 1_555
C15 C2 1_555 1_555
H13 C15 1_555 1_555
C16 C15 1_555 1_555
C17 C16 1_555 1_555
H14 C17 1_555 1_555
C18 C17 1_555 1_555
H15 C18 1_555 1_555
C19 C18 1_555 1_555
C20 C19 1_555 1_555
H16 C20 1_555 1_555
C21 C16 1_555 1_555
H17 C21 1_555 1_555
C22 C19 1_555 1_555
H18 C22 1_555 1_555
H19 C22 1_555 1_555
H20 C22 1_555 1_555
C23 C4 1_555 1_555
H21 C23 1_555 1_555
C24 C23 1_555 1_555
C25 C24 1_555 1_555
H22 C25 1_555 1_555
C26 C25 1_555 1_555
H23 C26 1_555 1_555
C27 C26 1_555 1_555
C28 C27 1_555 1_555
H24 C28 1_555 1_555
C29 C24 1_555 1_555
H25 C29 1_555 1_555
C30 C27 1_555 1_555
H26 C30 1_555 1_555
H27 C30 1_555 1_555
H28 C30 1_555 1_555
C31 H29 1_555 1_555
C32 N1 1_555 1_555
H30 C32 1_555 1_555
H31 C32 1_555 1_555
H32 C32 1_555 1_555
C33 N1 1_555 1_555
H33 C33 1_555 1_555
H34 C33 1_555 1_555
H35 C33 1_555 1_555
C34 H36 1_555 1_555
C35 N2 1_555 1_555
H37 C35 1_555 1_555
H38 C35 1_555 1_555
H39 C35 1_555 1_555
C36 N2 1_555 1_555
H40 C36 1_555 1_555
H41 C36 1_555 1_555
H42 C36 1_555 1_555
C37 H43 1_555 1_555
C38 N3 1_555 1_555
H44 C38 1_555 1_555
H45 C38 1_555 1_555
H46 C38 1_555 1_555
C39 N3 1_555 1_555
H47 C39 1_555 1_555
H48 C39 1_555 1_555
H49 C39 1_555 1_555
C11A C23 1_555 1_555
C10A C11A 1_555 1_555
C9A C10A 1_555 1_555
C8A C9A 1_555 1_555
O3A C8A 1_555 1_555
H3A O3A 1_555 1_555
C13A C8A 1_555 1_555
C12A C11A 1_555 1_555
O4A C12A 1_555 1_555
H4A O4A 1_555 1_555
C14A C13A 1_555 1_555
H10A C14A 1_555 1_555
H11A C14A 1_555 1_555
H12A C14A 1_555 1_555
C15A C9A 1_555 1_555
C2A C15A 1_555 1_555
C1A C2A 1_555 1_555
O1A C1A 1_555 1_555
H1A O1A 1_555 1_555
C6A C1A 1_555 1_555
C5A C6A 1_555 1_555
O2A C5A 1_555 1_555
H2A O2A 1_555 1_555
C4A C5A 1_555 1_555
C3A C2A 1_555 1_555
H5A C3A 1_555 1_555
C23A C11 1_555 1_555
H21A C23A 1_555 1_555
C24A C23A 1_555 1_555
C25A C24A 1_555 1_555
H22A C25A 1_555 1_555
C26A C25A 1_555 1_555
H23A C26A 1_555 1_555
C27A C26A 1_555 1_555
C28A C27A 1_555 1_555
H24A C28A 1_555 1_555
C29A C24A 1_555 1_555
H25A C29A 1_555 1_555
C30A C27A 1_555 1_555
H26A C30A 1_555 1_555
H27A C30A 1_555 1_555
H28A C30A 1_555 1_555
C7A C6A 1_555 1_555
H6A C7A 1_555 1_555
H7A C7A 1_555 1_555
H8A C7A 1_555 1_555
H13A C15A 1_555 1_555
C16A C15A 1_555 1_555
C17A C16A 1_555 1_555
H14A C17A 1_555 1_555
C18A C17A 1_555 1_555
H15A C18A 1_555 1_555
C19A C18A 1_555 1_555
C20A C19A 1_555 1_555
H16A C20A 1_555 1_555
C21A C16A 1_555 1_555
H17A C21A 1_555 1_555
C22A C19A 1_555 1_555
H18A C22A 1_555 1_555
H19A C22A 1_555 1_555
H20A C22A 1_555 1_555
H9A C10A 1_555 1_555
C4 C5 1_555 1_555
C5 C6 1_555 1_555
C9 C15 1_555 1_555
C11 C12 1_555 1_555
C12 C13 1_555 1_555
C20 C21 1_555 1_555
C28 C29 1_555 1_555
C13A C12A 1_555 1_555
C4A C3A 1_555 1_555
C4A C23A 1_555 1_555
C28A C29A 1_555 1_555
C20A C21A 1_555 1_555

#END
