
#######################################################################
#
#                 Cambridge Crystallographic Data Centre
#                                CCDC 
#
#######################################################################
#
# If this CIF has been generated from an entry in the Cambridge 
# Structural Database, then it will include bibliographic, chemical, 
# crystal, experimental, refinement or atomic coordinate data resulting 
# from the CCDC's data processing and validation procedures.
#
#######################################################################

data_OLEHAO
_chemical_name_common            
"rctt-2,8,14,20-tetrakis(4-methylphenyl)-4,6,10,12,16,18,22,24-O,O'-octakis(acetyl)-5,11,17,23-tetramethylcalix[4]resorcinarene dichloromethane solvate"
_chemical_formula_moiety         'C76 H72 O16,C1 H2 Cl2'
_chemical_name_systematic        
'rctt-2,8,14,20-tetrakis(4-methylphenyl)-4,6,10,12,16,18,22,24-octakis(acetoxy)-5,11,17,23-tetramethylcalix[4]arene dichloromethane solvate'
_symmetry_cell_setting           triclinic
_symmetry_space_group_name_H-M   'P -1'
_symmetry_Int_Tables_number      2
_space_group_name_Hall           '-P 1'
loop_
_symmetry_equiv_pos_site_id
_symmetry_equiv_pos_as_xyz
1 x,y,z
2 -x,-y,-z
_cell_length_a                   11.898(2)
_cell_length_b                   12.592(3)
_cell_length_c                   13.623(3)
_cell_angle_alpha                107.575(4)
_cell_angle_beta                 114.036(4)
_cell_angle_gamma                94.388(4)
_cell_volume                     1729.73
_exptl_crystal_colour            colorless
_exptl_crystal_description       block
_chemical_melting_point          'above 330deg.C'
_cell_formula_units_Z            1
loop_
_atom_site_label
_atom_site_type_symbol
_atom_site_fract_x
_atom_site_fract_y
_atom_site_fract_z
O1 O 1.0105(6) 1.0981(5) 0.8108(6)
O2 O 0.9033(8) 0.7086(6) 0.5550(6)
O3 O 0.8742(5) 1.4069(5) 0.7511(6)
O4 O 1.2832(9) 1.4800(9) 0.7610(8)
O5 O 0.8861(11) 1.0631(9) 0.8825(8)
O6 O 0.7896(14) 0.6689(10) 0.6395(13)
O7 O 0.9319(8) 1.3668(7) 0.9089(7)
O8 O 1.3548(8) 1.4997(9) 0.9404(9)
C1 C 0.9292(9) 1.0106(7) 0.6997(8)
C2 C 0.8484(8) 1.0409(7) 0.6123(8)
C3 C 0.7875(7) 0.9554(7) 0.5028(7)
H1 H 0.7346 0.9741 0.4413
C4 C 0.8019(8) 0.8442(7) 0.4815(8)
C5 C 0.8838(9) 0.8209(8) 0.5758(9)
C6 C 0.9520(9) 0.9027(8) 0.6868(8)
C7 C 1.0491(11) 0.8745(9) 0.7834(9)
H2 H 1.0858 0.9410 0.8532
H3 H 1.1141 0.8511 0.7631
H4 H 1.0088 0.8135 0.7949
C8 C 0.9743(8) 1.3639(8) 0.7324(7)
C9 C 0.9534(8) 1.2474(7) 0.6701(7)
C10 C 1.0456(8) 1.2137(7) 0.6409(7)
H5 H 1.0324 1.1372 0.5966
C11 C 1.1574(8) 1.2875(6) 0.6739(7)
C12 C 1.1717(9) 1.4008(7) 0.7387(8)
C13 C 1.0834(9) 1.4420(7) 0.7684(8)
C14 C 1.0992(9) 1.5697(7) 0.8328(10)
H6 H 1.1806 1.6113 0.8511
H7 H 1.0343 1.5979 0.7848
H8 H 1.0926 1.5797 0.9028
C15 C 0.8310(9) 1.1636(7) 0.6323(8)
H9 H 0.813(7) 1.185(6) 0.699(7)
C16 C 0.7196(8) 1.1729(7) 0.5357(8)
C17 C 0.7286(9) 1.1994(7) 0.4479(9)
H10 H 0.8079 1.2193 0.4522
C18 C 0.6213(11) 1.1968(8) 0.3529(9)
H11 H 0.6295 1.2144 0.2943
C19 C 0.5043(11) 1.1687(9) 0.3446(11)
C20 C 0.4919(10) 1.1437(9) 0.4327(13)
H12 H 0.4128 1.1271 0.4297
C21 C 0.5993(11) 1.1440(8) 0.5245(10)
H13 H 0.5906 1.1238 0.5818
C22 C 0.3840(10) 1.1665(10) 0.2413(11)
H14 H 0.4064 1.1857 0.1876
H15 H 0.3409 1.2211 0.2679
H16 H 0.3295 1.0913 0.2039
C23 C 0.7379(8) 0.7512(6) 0.3592(7)
H17 H 0.6930 0.6851 0.3630
C24 C 0.6449(8) 0.7860(7) 0.2714(7)
C25 C 0.6757(9) 0.8402(8) 0.2080(9)
H18 H 0.7589 0.8544 0.2196
C26 C 0.5850(10) 0.8741(9) 0.1271(9)
H19 H 0.6084 0.9106 0.0860
C27 C 0.4614(11) 0.8540(8) 0.1080(9)
C28 C 0.4303(10) 0.8012(9) 0.1707(10)
H20 H 0.3468 0.7862 0.1581
C29 C 0.5217(9) 0.7693(8) 0.2535(8)
H21 H 0.4986 0.7363 0.2971
C30 C 0.3595(10) 0.8866(10) 0.0144(10)
H22 H 0.2790 0.8669 0.0126
H23 H 0.3549 0.8457 -0.0596
H24 H 0.3815 0.9674 0.0321
C31 C 0.9827(14) 1.1121(10) 0.8939(12)
C32 C 1.0811(11) 1.1962(10) 1.0061(9)
H25 H 1.0543 1.2023 1.0648
H26 H 1.0938 1.2695 0.9996
H27 H 1.1589 1.1711 1.0264
C33 C 0.8465(15) 0.6464(13) 0.5808(13)
C34 C 0.8594(15) 0.5171(9) 0.5359(12)
H28 H 0.9057 0.5110 0.4915
H29 H 0.7768 0.4673 0.4883
H30 H 0.9036 0.4955 0.6008
C35 C 0.8682(10) 1.4113(8) 0.8492(10)
C36 C 0.7715(9) 1.4721(9) 0.8645(9)
H31 H 0.7694 1.4737 0.9346
H32 H 0.7921 1.5490 0.8685
H33 H 0.6902 1.4331 0.8002
C37 C 1.353(2) 1.5150(16) 0.848(2)
C38 C 1.4805(11) 1.6014(10) 0.8766(12)
H34 H 1.4739 1.6095 0.8068
H35 H 1.4904 1.6749 0.9314
H36 H 1.5525 1.5706 0.9084
C11A C 0.8426(8) 0.7125(6) 0.3261(7)
C10A C 0.9544(8) 0.7863(7) 0.3591(7)
C9A C 1.0466(8) 0.7526(7) 0.3299(7)
C8A C 1.0257(8) 0.6361(8) 0.2676(7)
O3A O 1.1258(5) 0.5931(5) 0.2489(6)
C35A C 1.1318(10) 0.5887(8) 0.1508(10)
O7A O 1.0681(8) 0.6332(7) 0.0911(7)
C36A C 1.2285(9) 0.5279(9) 0.1355(9)
H31A H 1.2306 0.5263 0.0654
H32A H 1.2079 0.4510 0.1315
H33A H 1.3098 0.5669 0.1998
C13A C 0.9166(9) 0.5580(7) 0.2316(8)
C12A C 0.8283(9) 0.5992(7) 0.2613(8)
O4A O 0.7168(9) 0.5200(9) 0.2390(8)
C37A C 0.647(2) 0.4850(16) 0.152(2)
O8A O 0.6452(8) 0.5003(9) 0.0596(9)
C38A C 0.5195(11) 0.3986(10) 0.1234(12)
H34A H 0.5261 0.3905 0.1932
H35A H 0.5096 0.3251 0.0686
H36A H 0.4475 0.4294 0.0916
C14A C 0.9008(9) 0.4303(7) 0.1672(10)
H6A H 0.8194 0.3887 0.1489
H7A H 0.9657 0.4021 0.2152
H8A H 0.9074 0.4203 0.0972
C15A C 1.1690(9) 0.8364(7) 0.3677(8)
C2A C 1.1516(8) 0.9591(7) 0.3877(8)
C1A C 1.0708(9) 0.9894(7) 0.3003(8)
O1A O 0.9895(6) 0.9019(5) 0.1892(6)
C31A C 1.0173(14) 0.8879(10) 0.1061(12)
O5A O 1.1139(11) 0.9369(9) 0.1175(8)
C32A C 0.9189(11) 0.8038(10) -0.0061(9)
H25A H 0.9457 0.7977 -0.0648
H26A H 0.9062 0.7305 0.0004
H27A H 0.8411 0.8289 -0.0264
C6A C 1.0480(9) 1.0973(8) 0.3132(8)
C5A C 1.1162(9) 1.1791(8) 0.4242(9)
O2A O 1.0967(8) 1.2914(6) 0.4450(6)
C33A C 1.1535(15) 1.3536(13) 0.4192(13)
O6A O 1.2104(14) 1.3311(10) 0.3605(13)
C34A C 1.1406(15) 1.4829(9) 0.4641(12)
H28A H 1.0943 1.4890 0.5085
H29A H 1.2232 1.5327 0.5117
H30A H 1.0964 1.5045 0.3992
C4A C 1.1981(8) 1.1558(7) 0.5185(8)
C3A C 1.2125(7) 1.0446(7) 0.4972(7)
H1A H 1.2654 1.0259 0.5587
C23A C 1.2621(8) 1.2488(6) 0.6408(7)
H17A H 1.3070 1.3149 0.6370
C24A C 1.3551(8) 1.2140(7) 0.7286(7)
C25A C 1.3243(9) 1.1598(8) 0.7920(9)
H18A H 1.2411 1.1456 0.7804
C26A C 1.4150(10) 1.1259(9) 0.8729(9)
H19A H 1.3916 1.0894 0.9140
C27A C 1.5386(11) 1.1460(8) 0.8920(9)
C28A C 1.5697(10) 1.1988(9) 0.8293(10)
H20A H 1.6532 1.2138 0.8419
C29A C 1.4783(9) 1.2307(8) 0.7465(8)
H21A H 1.5014 1.2637 0.7029
C30A C 1.6405(10) 1.1134(10) 0.9856(10)
H22A H 1.7210 1.1331 0.9874
H23A H 1.6451 1.1543 1.0596
H24A H 1.6185 1.0326 0.9679
C7A C 0.9509(11) 1.1255(9) 0.2166(9)
H2A H 0.9142 1.0590 0.1468
H3A H 0.8859 1.1489 0.2369
H4A H 0.9912 1.1865 0.2051
H9A H 1.187(7) 0.815(6) 0.301(7)
C16A C 1.2804(8) 0.8271(7) 0.4643(8)
C17A C 1.2714(9) 0.8006(7) 0.5521(9)
H10A H 1.1921 0.7807 0.5478
C18A C 1.3787(11) 0.8032(8) 0.6471(9)
H11A H 1.3705 0.7856 0.7057
C19A C 1.4957(11) 0.8313(9) 0.6554(11)
C20A C 1.5081(10) 0.8563(9) 0.5673(13)
H12A H 1.5872 0.8729 0.5703
C21A C 1.4007(11) 0.8560(8) 0.4755(10)
H13A H 1.4094 0.8762 0.4182
C22A C 1.6160(10) 0.8335(10) 0.7587(11)
H14A H 1.5936 0.8143 0.8124
H15A H 1.6591 0.7789 0.7321
H16A H 1.6705 0.9087 0.7961
H5A H 0.9676 0.8628 0.4034
C39? C 0.468(3) 0.538(2) 0.502(3)
Cl1? Cl 0.5094(9) 0.5274(9) 0.4072(8)
loop_
_geom_bond_atom_site_label_1
_geom_bond_atom_site_label_2
_geom_bond_site_symmetry_1
_geom_bond_site_symmetry_2
O1 C1 1_555 1_555
O2 C5 1_555 1_555
O3 C8 1_555 1_555
O4 C12 1_555 1_555
O5 C31 1_555 1_555
O6 C33 1_555 1_555
O7 C35 1_555 1_555
O8 C37 1_555 1_555
C1 C2 1_555 1_555
C2 C3 1_555 1_555
C3 H1 1_555 1_555
C4 C3 1_555 1_555
C5 C4 1_555 1_555
C6 C1 1_555 1_555
C7 C6 1_555 1_555
H2 C7 1_555 1_555
H3 C7 1_555 1_555
H4 C7 1_555 1_555
C8 C9 1_555 1_555
C9 C10 1_555 1_555
C10 H5 1_555 1_555
C11 C10 1_555 1_555
C12 C11 1_555 1_555
C13 C8 1_555 1_555
C14 C13 1_555 1_555
H6 C14 1_555 1_555
H7 C14 1_555 1_555
H8 C14 1_555 1_555
C15 C2 1_555 1_555
H9 C15 1_555 1_555
C16 C15 1_555 1_555
C17 C16 1_555 1_555
H10 C17 1_555 1_555
C18 C17 1_555 1_555
H11 C18 1_555 1_555
C19 C18 1_555 1_555
C20 C19 1_555 1_555
H12 C20 1_555 1_555
C21 C16 1_555 1_555
H13 C21 1_555 1_555
C22 C19 1_555 1_555
H14 C22 1_555 1_555
H15 C22 1_555 1_555
H16 C22 1_555 1_555
C23 C4 1_555 1_555
H17 C23 1_555 1_555
C24 C23 1_555 1_555
C25 C24 1_555 1_555
H18 C25 1_555 1_555
C26 C25 1_555 1_555
H19 C26 1_555 1_555
C27 C26 1_555 1_555
C28 C27 1_555 1_555
H20 C28 1_555 1_555
C29 C24 1_555 1_555
H21 C29 1_555 1_555
C30 C27 1_555 1_555
H22 C30 1_555 1_555
H23 C30 1_555 1_555
H24 C30 1_555 1_555
C31 O1 1_555 1_555
C32 C31 1_555 1_555
H25 C32 1_555 1_555
H26 C32 1_555 1_555
H27 C32 1_555 1_555
C33 O2 1_555 1_555
C34 C33 1_555 1_555
H28 C34 1_555 1_555
H29 C34 1_555 1_555
H30 C34 1_555 1_555
C35 O3 1_555 1_555
C36 C35 1_555 1_555
H31 C36 1_555 1_555
H32 C36 1_555 1_555
H33 C36 1_555 1_555
C37 O4 1_555 1_555
C38 C37 1_555 1_555
H34 C38 1_555 1_555
H35 C38 1_555 1_555
H36 C38 1_555 1_555
C11A C23 1_555 1_555
C10A C11A 1_555 1_555
C9A C10A 1_555 1_555
C8A C9A 1_555 1_555
O3A C8A 1_555 1_555
C35A O3A 1_555 1_555
O7A C35A 1_555 1_555
C36A C35A 1_555 1_555
H31A C36A 1_555 1_555
H32A C36A 1_555 1_555
H33A C36A 1_555 1_555
C13A C8A 1_555 1_555
C12A C11A 1_555 1_555
O4A C12A 1_555 1_555
C37A O4A 1_555 1_555
O8A C37A 1_555 1_555
C38A C37A 1_555 1_555
H34A C38A 1_555 1_555
H35A C38A 1_555 1_555
H36A C38A 1_555 1_555
C14A C13A 1_555 1_555
H6A C14A 1_555 1_555
H7A C14A 1_555 1_555
H8A C14A 1_555 1_555
C15A C9A 1_555 1_555
C2A C15A 1_555 1_555
C1A C2A 1_555 1_555
O1A C1A 1_555 1_555
C31A O1A 1_555 1_555
O5A C31A 1_555 1_555
C32A C31A 1_555 1_555
H25A C32A 1_555 1_555
H26A C32A 1_555 1_555
H27A C32A 1_555 1_555
C6A C1A 1_555 1_555
C5A C6A 1_555 1_555
O2A C5A 1_555 1_555
C33A O2A 1_555 1_555
O6A C33A 1_555 1_555
C34A C33A 1_555 1_555
H28A C34A 1_555 1_555
H29A C34A 1_555 1_555
H30A C34A 1_555 1_555
C4A C5A 1_555 1_555
C3A C2A 1_555 1_555
H1A C3A 1_555 1_555
C23A C11 1_555 1_555
H17A C23A 1_555 1_555
C24A C23A 1_555 1_555
C25A C24A 1_555 1_555
H18A C25A 1_555 1_555
C26A C25A 1_555 1_555
H19A C26A 1_555 1_555
C27A C26A 1_555 1_555
C28A C27A 1_555 1_555
H20A C28A 1_555 1_555
C29A C24A 1_555 1_555
H21A C29A 1_555 1_555
C30A C27A 1_555 1_555
H22A C30A 1_555 1_555
H23A C30A 1_555 1_555
H24A C30A 1_555 1_555
C7A C6A 1_555 1_555
H2A C7A 1_555 1_555
H3A C7A 1_555 1_555
H4A C7A 1_555 1_555
H9A C15A 1_555 1_555
C16A C15A 1_555 1_555
C17A C16A 1_555 1_555
H10A C17A 1_555 1_555
C18A C17A 1_555 1_555
H11A C18A 1_555 1_555
C19A C18A 1_555 1_555
C20A C19A 1_555 1_555
H12A C20A 1_555 1_555
C21A C16A 1_555 1_555
H13A C21A 1_555 1_555
C22A C19A 1_555 1_555
H14A C22A 1_555 1_555
H15A C22A 1_555 1_555
H16A C22A 1_555 1_555
H5A C10A 1_555 1_555
C5 C6 1_555 1_555
C9 C15 1_555 1_555
C12 C13 1_555 1_555
C20 C21 1_555 1_555
C28 C29 1_555 1_555
C13A C12A 1_555 1_555
C4A C3A 1_555 1_555
C4A C23A 1_555 1_555
C28A C29A 1_555 1_555
C20A C21A 1_555 1_555

#END
