
#######################################################################
#
#                 Cambridge Crystallographic Data Centre
#                                CCDC 
#
#######################################################################
#
# If this CIF has been generated from an entry in the Cambridge 
# Structural Database, then it will include bibliographic, chemical, 
# crystal, experimental, refinement or atomic coordinate data resulting 
# from the CCDC's data processing and validation procedures.
#
#######################################################################

data_OLETOQ
_chemical_formula_moiety         'C16 H10 F1 N1 O3 S1'
_chemical_name_systematic        
'7-fluoro-2-methylphenanthro[9,10-d][1,2]thiazol-3(2H)-one 1,1-dioxide'
_symmetry_cell_setting           monoclinic
_symmetry_space_group_name_H-M   'P 21'
_symmetry_Int_Tables_number      4
_space_group_name_Hall           'P 2yb'
loop_
_symmetry_equiv_pos_site_id
_symmetry_equiv_pos_as_xyz
1 x,y,z
2 -x,1/2+y,-z
_cell_length_a                   6.8436(5)
_cell_length_b                   10.3886(6)
_cell_length_c                   9.9058(6)
_cell_angle_alpha                90
_cell_angle_beta                 104.893(7)
_cell_angle_gamma                90
_cell_volume                     680.599
_exptl_crystal_colour            'light colorless'
_exptl_crystal_description       block
_cell_formula_units_Z            2
loop_
_atom_site_label
_atom_site_type_symbol
_atom_site_fract_x
_atom_site_fract_y
_atom_site_fract_z
S1 S -0.5897(2) -0.45512(19) -0.19983(14)
F1 F -0.9783(8) -0.6098(6) -0.8819(5)
O1 O -0.6852(7) -0.1494(4) -0.3970(5)
O2 O -0.3840(6) -0.4943(5) -0.1497(4)
O3 O -0.7293(8) -0.4945(5) -0.1228(4)
N1 N -0.6016(9) -0.2984(5) -0.2242(5)
C1 C -0.6705(9) -0.2615(6) -0.3614(7)
C2 C -0.7195(8) -0.3762(6) -0.4521(5)
C3 C -0.6847(7) -0.4884(5) -0.3792(5)
C4 C -0.7179(8) -0.6124(6) -0.4386(7)
C5 C -0.6715(11) -0.7246(6) -0.3537(9)
H1 H -0.6189 -0.7171 -0.2576
C6 C -0.7051(13) -0.8430(7) -0.4146(11)
H2 H -0.6733 -0.9169 -0.3603
C7 C -0.7847(12) -0.8528(7) -0.5539(11)
H3 H -0.8084 -0.9344 -0.5934
C8 C -0.8318(11) -0.7478(7) -0.6393(9)
H4 H -0.8846 -0.7599 -0.7347
C9 C -0.8018(9) -0.6201(6) -0.5852(7)
C10 C -0.8455(8) -0.5015(7) -0.6644(6)
C11 C -0.8027(8) -0.3777(7) -0.6010(5)
C12 C -0.8396(10) -0.2657(8) -0.6793(7)
H5 H -0.8100 -0.1866 -0.6349
C13 C -0.9192(12) -0.2696(10) -0.8211(9)
H6 H -0.9429 -0.1940 -0.8729
C14 C -0.9640(11) -0.3886(12) -0.8864(7)
H7 H -1.0190 -0.3933 -0.9825
C15 C -0.9277(10) -0.4949(9) -0.8107(7)
C16 C -0.5345(12) -0.2089(8) -0.1078(7)
H8 H -0.3920 -0.1938 -0.0920
H9 H -0.5612 -0.2452 -0.0252
H10 H -0.6061 -0.1290 -0.1297
loop_
_geom_bond_atom_site_label_1
_geom_bond_atom_site_label_2
_geom_bond_site_symmetry_1
_geom_bond_site_symmetry_2
S1 O2 1_555 1_555
F1 C15 1_555 1_555
O1 C1 1_555 1_555
O3 S1 1_555 1_555
N1 S1 1_555 1_555
C1 N1 1_555 1_555
C2 C1 1_555 1_555
C3 S1 1_555 1_555
C4 C3 1_555 1_555
C5 C4 1_555 1_555
H1 C5 1_555 1_555
C6 C5 1_555 1_555
H2 C6 1_555 1_555
C7 C6 1_555 1_555
H3 C7 1_555 1_555
C8 C7 1_555 1_555
H4 C8 1_555 1_555
C9 C4 1_555 1_555
C10 C9 1_555 1_555
C11 C2 1_555 1_555
C12 C11 1_555 1_555
H5 C12 1_555 1_555
C13 C12 1_555 1_555
H6 C13 1_555 1_555
C14 C13 1_555 1_555
H7 C14 1_555 1_555
C15 C10 1_555 1_555
C16 N1 1_555 1_555
H8 C16 1_555 1_555
H9 C16 1_555 1_555
H10 C16 1_555 1_555
C2 C3 1_555 1_555
C8 C9 1_555 1_555
C10 C11 1_555 1_555
C14 C15 1_555 1_555

#END
