
#######################################################################
#
#                 Cambridge Crystallographic Data Centre
#                                CCDC 
#
#######################################################################
#
# If this CIF has been generated from an entry in the Cambridge 
# Structural Database, then it will include bibliographic, chemical, 
# crystal, experimental, refinement or atomic coordinate data resulting 
# from the CCDC's data processing and validation procedures.
#
#######################################################################

data_OLIFEU
_chemical_formula_moiety         'C22 H23 N1 O5'
_chemical_name_systematic        
N-(2-Benzyloxy-3-hydroxy-1-oxo-4-penten-1-yl)-4-methyl-5-phenyl-1,3-oxazolidin-2-one
_symmetry_cell_setting           orthorhombic
_symmetry_space_group_name_H-M   'P 21 21 21'
_symmetry_Int_Tables_number      19
_space_group_name_Hall           'P 2ac 2ab'
loop_
_symmetry_equiv_pos_site_id
_symmetry_equiv_pos_as_xyz
1 x,y,z
2 1/2-x,-y,1/2+z
3 -x,1/2+y,1/2-z
4 1/2+x,1/2-y,-z
_cell_length_a                   9.539(1)
_cell_length_b                   10.105(1)
_cell_length_c                   20.579(1)
_cell_angle_alpha                90
_cell_angle_beta                 90
_cell_angle_gamma                90
_cell_volume                     1983.64
_exptl_crystal_colour            colorless
_exptl_crystal_description       plate
_cell_formula_units_Z            4
loop_
_atom_site_label
_atom_site_type_symbol
_atom_site_fract_x
_atom_site_fract_y
_atom_site_fract_z
C1 C 0.6200(3) 0.2081(2) 0.29119(13)
O1 O 0.5798(2) 0.31785(17) 0.30431(9)
C2 C 0.6954(3) 0.1738(2) 0.22860(12)
H1 H 0.7810 0.1203 0.2385
O2 O 0.73428(18) 0.29248(16) 0.19625(9)
C3 C 0.5966(3) 0.0943(3) 0.18411(12)
H2 H 0.5838 0.0062 0.2053
O3 O 0.4637(2) 0.15172(18) 0.18087(10)
H3 H 0.4700 0.2275 0.1643
C4 C 0.6604(4) 0.0677(4) 0.11944(16)
H4 H 0.7569 0.0447 0.1213
C5 C 0.6131(5) 0.0697(5) 0.0652(2)
H5 H 0.5174 0.0917 0.0585
H6 H 0.6715 0.0493 0.0292
C6 C 0.8552(3) 0.3539(3) 0.22528(14)
H7 H 0.9387 0.2972 0.2190
H8 H 0.8400 0.3655 0.2725
C7 C 0.8783(3) 0.4863(2) 0.19375(13)
C8 C 0.9782(3) 0.5020(3) 0.14567(15)
H9 H 1.0323 0.4281 0.1321
C9 C 1.0001(3) 0.6240(3) 0.11707(15)
H10 H 1.0684 0.6333 0.0838
C10 C 0.9235(3) 0.7314(3) 0.13651(16)
H11 H 0.9391 0.8154 0.1170
C11 C 0.8249(3) 0.7177(3) 0.18396(15)
H12 H 0.7717 0.7922 0.1975
C12 C 0.8020(3) 0.5958(3) 0.21249(13)
H13 H 0.7328 0.5874 0.2454
N1 N 0.5881(2) 0.1053(2) 0.33462(9)
C13 C 0.6353(3) -0.0246(2) 0.33280(13)
O4 O 0.7196(2) -0.07399(16) 0.29779(9)
C14 C 0.5050(3) 0.1293(2) 0.39388(11)
H14 H 0.4230 0.1875 0.3839
C15 C 0.4557(3) -0.0125(2) 0.40730(12)
H15 H 0.3684 -0.0298 0.3818
O5 O 0.56946(19) -0.09264(16) 0.38051(8)
C16 C 0.4309(3) -0.0509(2) 0.47673(12)
C17 C 0.5253(3) -0.1247(3) 0.51153(13)
H16 H 0.6100 -0.1531 0.4916
C18 C 0.4978(4) -0.1584(3) 0.57602(15)
H17 H 0.5640 -0.2089 0.6000
C19 C 0.3758(4) -0.1187(3) 0.60459(15)
H18 H 0.3560 -0.1436 0.6482
C20 C 0.2823(4) -0.0436(3) 0.57097(16)
H19 H 0.1989 -0.0136 0.5915
C21 C 0.3089(3) -0.0111(3) 0.50701(15)
H20 H 0.2421 0.0395 0.4834
C22 C 0.5945(4) 0.1908(3) 0.44731(13)
H21 H 0.6685 0.1287 0.4600
H22 H 0.5355 0.2106 0.4851
H23 H 0.6370 0.2728 0.4313
loop_
_geom_bond_atom_site_label_1
_geom_bond_atom_site_label_2
_geom_bond_site_symmetry_1
_geom_bond_site_symmetry_2
C1 O1 1_555 1_555
C2 C1 1_555 1_555
H1 C2 1_555 1_555
O2 C2 1_555 1_555
C3 C2 1_555 1_555
H2 C3 1_555 1_555
O3 C3 1_555 1_555
H3 O3 1_555 1_555
C4 C3 1_555 1_555
H4 C4 1_555 1_555
C5 C4 1_555 1_555
H5 C5 1_555 1_555
H6 C5 1_555 1_555
C6 O2 1_555 1_555
H7 C6 1_555 1_555
H8 C6 1_555 1_555
C7 C6 1_555 1_555
C8 C7 1_555 1_555
H9 C8 1_555 1_555
C9 C8 1_555 1_555
H10 C9 1_555 1_555
C10 C9 1_555 1_555
H11 C10 1_555 1_555
C11 C10 1_555 1_555
H12 C11 1_555 1_555
C12 C7 1_555 1_555
H13 C12 1_555 1_555
N1 C1 1_555 1_555
C13 N1 1_555 1_555
O4 C13 1_555 1_555
C14 N1 1_555 1_555
H14 C14 1_555 1_555
C15 C14 1_555 1_555
H15 C15 1_555 1_555
O5 C13 1_555 1_555
C16 C15 1_555 1_555
C17 C16 1_555 1_555
H16 C17 1_555 1_555
C18 C17 1_555 1_555
H17 C18 1_555 1_555
C19 C18 1_555 1_555
H18 C19 1_555 1_555
C20 C19 1_555 1_555
H19 C20 1_555 1_555
C21 C16 1_555 1_555
H20 C21 1_555 1_555
C22 C14 1_555 1_555
H21 C22 1_555 1_555
H22 C22 1_555 1_555
H23 C22 1_555 1_555
C11 C12 1_555 1_555
C15 O5 1_555 1_555
C20 C21 1_555 1_555

#END
