
#######################################################################
#
#                 Cambridge Crystallographic Data Centre
#                                CCDC 
#
#######################################################################
#
# If this CIF has been generated from an entry in the Cambridge 
# Structural Database, then it will include bibliographic, chemical, 
# crystal, experimental, refinement or atomic coordinate data resulting 
# from the CCDC's data processing and validation procedures.
#
#######################################################################

data_OLIJIC
_chemical_formula_moiety         'C24 H28 N2 O6'
_chemical_name_systematic        
3-(2,5-Dimethyoxybenzyl)-7,10-dimethoxy-6-methyl-2,3,11,11a-tetrahydro-5H-pyrazino(1,2-b)isoquinoline-1,4-dione
_symmetry_cell_setting           monoclinic
_symmetry_space_group_name_H-M   'P 21/n'
_symmetry_Int_Tables_number      14
_space_group_name_Hall           '-P 2yn'
loop_
_symmetry_equiv_pos_site_id
_symmetry_equiv_pos_as_xyz
1 x,y,z
2 1/2+x,1/2-y,1/2+z
3 -x,-y,-z
4 1/2-x,1/2+y,1/2-z
_cell_length_a                   12.576(2)
_cell_length_b                   10.899(2)
_cell_length_c                   15.596(2)
_cell_angle_alpha                90
_cell_angle_beta                 90.66(1)
_cell_angle_gamma                90
_cell_volume                     2137.54
_exptl_crystal_colour            colorless
_exptl_crystal_description       prism
_chemical_melting_point          201-202deg.C
_cell_formula_units_Z            4
loop_
_atom_site_label
_atom_site_type_symbol
_atom_site_fract_x
_atom_site_fract_y
_atom_site_fract_z
O1 O 0.7013(2) 0.0388(3) 0.8337(2)
O2 O 0.9903(2) -0.3024(3) 0.8049(2)
O3 O 1.2731(2) 0.0536(3) 0.9130(2)
O4 O 1.0423(3) 0.2937(3) 0.7357(2)
O5 O 0.7135(3) 0.0414(3) 0.5777(2)
O6 O 1.1114(3) -0.1674(3) 0.6152(2)
N1 N 0.7733(3) 0.1798(3) 0.7466
N2 N 0.9727(3) 0.1456(3) 0.8191(2)
C1 C 0.7791(4) 0.0940(4) 0.8065(3)
C2 C 0.8870(3) 0.0625(4) 0.8440(3)
C3 C 0.9160(3) -0.0693(4) 0.8206(3)
C4 C 1.0300(3) -0.0983(4) 0.8420(3)
C5 C 1.0653(4) -0.2200(4) 0.8347(3)
C6 C 1.1683(4) -0.2508(4) 0.8560(3)
C7 C 1.2386(4) -0.1620(5) 0.8852(3)
C8 C 1.2069(4) -0.0417(4) 0.8902(3)
C9 C 1.1018(4) -0.0083(4) 0.8678(3)
C10 C 1.0735(3) 0.1278(4) 0.8665(3)
C11 C 0.9666(4) 0.2289(4) 0.7559(3)
C12 C 0.8627(4) 0.2420(4) 0.7067(3)
C13 C 0.8787(4) 0.2010(4) 0.6126(3)
C14 C 0.8974(4) 0.0647(4) 0.6030(3)
C15 C 0.8114(4) -0.0136(5) 0.5869(3)
C16 C 0.8285(4) -0.1390(5) 0.5801(3)
C17 C 0.9287(5) -0.1867(5) 0.5908(3)
C18 C 1.0145(4) -0.1106(5) 0.6062(3)
C19 C 0.9990(4) 0.0153(4) 0.6119(3)
C20 C 1.1996(4) -0.0957(5) 0.6404(4)
C21 C 0.6250(4) -0.0337(6) 0.5640(4)
C22 C 1.0692(4) 0.1882(5) 0.9549(3)
C23 C 1.3731(4) 0.0233(5) 0.9504(3)
C24 C 1.0304(4) -0.4136(5) 0.7692(4)
H1 H 0.8698 -0.1270 0.8504
H2 H 0.9016 -0.0809 0.7601
H3 H 0.8170 0.2253 0.5787
H4 H 0.9386 0.2460 0.5889
H5 H 0.8819 0.0657 0.9075
H6 H 1.1292 0.1710 0.8357
H7 H 0.8467 0.3289 0.7057
H8 H 1.2651 -0.1417 0.6446
H9 H 1.2138 -0.0295 0.5990
H10 H 1.1902 -0.0552 0.6948
H11 H 0.5577 0.0113 0.5605
H12 H 0.6280 -0.0850 0.5148
H13 H 0.6130 -0.0916 0.6133
H14 H 1.1351 0.1804 0.9866
H15 H 1.0514 0.2733 0.9524
H16 H 1.0149 0.1486 0.9898
H17 H 1.3662 -0.0265 1.0013
H18 H 1.4160 -0.0254 0.9108
H19 H 1.4140 0.0943 0.9646
H20 H 0.9748 -0.4671 0.7484
H21 H 1.0757 -0.3969 0.7197
H22 H 1.0733 -0.4598 0.8089
H23 H 1.1915 -0.3338 0.8505
H24 H 1.3091 -0.1848 0.9020
H25 H 0.7701 -0.1935 0.5693
H26 H 0.9390 -0.2739 0.5873
H27 H 1.0579 0.0681 0.6211
H28 H 0.7024 0.2040 0.7264
loop_
_geom_bond_atom_site_label_1
_geom_bond_atom_site_label_2
_geom_bond_site_symmetry_1
_geom_bond_site_symmetry_2
O1 C1 1_555 1_555
O2 C5 1_555 1_555
O3 C8 1_555 1_555
O4 C11 1_555 1_555
O5 C15 1_555 1_555
O6 C18 1_555 1_555
N1 C1 1_555 1_555
N2 C2 1_555 1_555
C1 C2 1_555 1_555
C2 C3 1_555 1_555
C3 C4 1_555 1_555
C4 C5 1_555 1_555
C5 C6 1_555 1_555
C6 C7 1_555 1_555
C7 C8 1_555 1_555
C8 C9 1_555 1_555
C9 C4 1_555 1_555
C10 N2 1_555 1_555
C11 N2 1_555 1_555
C12 N1 1_555 1_555
C13 C12 1_555 1_555
C14 C13 1_555 1_555
C15 C14 1_555 1_555
C16 C15 1_555 1_555
C17 C16 1_555 1_555
C18 C17 1_555 1_555
C19 C14 1_555 1_555
C20 O6 1_555 1_555
C21 O5 1_555 1_555
C22 C10 1_555 1_555
C23 O3 1_555 1_555
C24 O2 1_555 1_555
H1 C3 1_555 1_555
H2 C3 1_555 1_555
H3 C13 1_555 1_555
H4 C13 1_555 1_555
H5 C2 1_555 1_555
H6 C10 1_555 1_555
H7 C12 1_555 1_555
H8 C20 1_555 1_555
H9 C20 1_555 1_555
H10 C20 1_555 1_555
H11 C21 1_555 1_555
H12 C21 1_555 1_555
H13 C21 1_555 1_555
H14 C22 1_555 1_555
H15 C22 1_555 1_555
H16 C22 1_555 1_555
H17 C23 1_555 1_555
H18 C23 1_555 1_555
H19 C23 1_555 1_555
H20 C24 1_555 1_555
H21 C24 1_555 1_555
H22 C24 1_555 1_555
H23 C6 1_555 1_555
H24 C7 1_555 1_555
H25 C16 1_555 1_555
H26 C17 1_555 1_555
H27 C19 1_555 1_555
H28 N1 1_555 1_555
C9 C10 1_555 1_555
C11 C12 1_555 1_555
C18 C19 1_555 1_555

#END
