
#######################################################################
#
#                 Cambridge Crystallographic Data Centre
#                                CCDC 
#
#######################################################################
#
# If this CIF has been generated from an entry in the Cambridge 
# Structural Database, then it will include bibliographic, chemical, 
# crystal, experimental, refinement or atomic coordinate data resulting 
# from the CCDC's data processing and validation procedures.
#
#######################################################################

data_OLODID
_chemical_name_common            
5,10,14,19,24-pentabutoxy-26,28,30,33,35-pentamethoxypillar[5]arene
_chemical_formula_moiety         'C60 H80 O10'
_chemical_name_systematic        
4,9,14,26,28-Pentabutoxy-19,24,30,32,34-pentamethoxyhexacyclo[21.2.2.2^3,6^.2^8,11^.2^13,16^.2^18,21^]pentatriaconta-1(25),3,5,8,10,13,15,18,20,23,26,28,30,32,34-pentadecaene
_symmetry_cell_setting           monoclinic
_symmetry_space_group_name_H-M   'C 2/c'
_symmetry_Int_Tables_number      15
_space_group_name_Hall           '-C 2yn'
loop_
_symmetry_equiv_pos_site_id
_symmetry_equiv_pos_as_xyz
1 x,y,z
2 -x,y,1/2-z
3 1/2+x,1/2+y,z
4 1/2-x,1/2+y,1/2-z
5 -x,-y,-z
6 x,-y,1/2+z
7 1/2-x,1/2-y,-z
8 1/2+x,1/2-y,1/2+z
_cell_length_a                   17.9638(4)
_cell_length_b                   17.0421(3)
_cell_length_c                   18.6889(3)
_cell_angle_alpha                90
_cell_angle_beta                 95.1314(16)
_cell_angle_gamma                90
_cell_volume                     5698.51
_exptl_crystal_colour            colorless
_exptl_crystal_description       block
_cell_formula_units_Z            4
loop_
_atom_site_label
_atom_site_type_symbol
_atom_site_fract_x
_atom_site_fract_y
_atom_site_fract_z
O1 O -0.0471(3) 0.5061(4) 0.3869(3)
O2 O 0.2278(2) 0.1352(3) 0.3177(2)
O3 O 0.0695(3) 0.2623(3) 0.5144(2)
O4 O -0.0457(2) 0.0183(3) 0.3853(2)
O5 O 0.2209(3) 0.4246(3) 0.3165(2)
C1 C -0.1102(7) 0.2029(8) 0.6604(8)
H1 H -0.0986 0.1496 0.6492
H2 H -0.1628 0.2117 0.6501
H3 H -0.0963 0.2126 0.7104
C2 C 0.0723(9) 0.2940(9) 0.5840(6)
H4 H 0.0567 0.3485 0.5815
H5 H 0.1232 0.2921 0.6062
C3 C 0.0207(8) 0.2472(10) 0.6299(7)
H6 H 0.0346 0.2604 0.6798
H7 H 0.0320 0.1920 0.6242
C4 C -0.0679(7) 0.2572(9) 0.6160(8)
H10 H -0.0811 0.3109 0.6266
H11 H -0.0828 0.2476 0.5656
C5 C -0.2268(6) 0.1359(7) 0.4848(6)
H12 H -0.2438 0.1430 0.4350
H13 H -0.1847 0.1695 0.4971
H14 H -0.2664 0.1490 0.5140
C6 C -0.1518(8) 0.4203(8) 0.3665(8)
H15 H -0.1473 0.4239 0.3152
H16 H -0.2041 0.4130 0.3741
C7 C -0.1255(9) 0.4827(9) 0.3991(9)
H17 H -0.1279 0.4751 0.4503
H18 H -0.1583 0.5262 0.3847
C8 C -0.2039(4) 0.0509(5) 0.4979(5)
H19 H -0.1742 0.0469 0.5436
H20 H -0.2484 0.0191 0.5005
C9 C 0.2771(5) 0.3853(5) 0.2820(5)
H21 H 0.2968 0.4199 0.2479
H22 H 0.2561 0.3398 0.2577
H23 H 0.3165 0.3696 0.3172
C10 C 0.1071(4) 0.5064(4) 0.3782(4)
H24 H 0.1514 0.5358 0.3686
H25 H 0.0856 0.5310 0.4184
C11 C 0.2464(4) 0.1280(5) 0.2457(4)
H26 H 0.2072 0.1504 0.2138
H27 H 0.2521 0.0736 0.2343
H28 H 0.2923 0.1552 0.2404
C12 C -0.1596(4) 0.0192(4) 0.4396(4)
H29 H -0.1861 0.0305 0.3932
H30 H -0.1556 -0.0373 0.4444
C13 C 0.1806(4) 0.1792(4) 0.4500(3)
H31 H 0.2335 0.1695 0.4472
H32 H 0.1690 0.1674 0.4986
C14 C -0.0759(4) 0.5102(4) 0.2560(4)
H33 H -0.1270 0.5118 0.2607
C15 C -0.0813(4) 0.0543(4) 0.4422(4)
H34 H -0.0840 0.1107 0.4354
H35 H -0.0538 0.0435 0.4881
C16 C 0.2018(3) 0.3058(4) 0.3842(3)
H36 H 0.2400 0.2807 0.3625
C17 C -0.0254(4) 0.5088(4) 0.3179(3)
C18 C 0.0506(4) 0.5092(4) 0.3121(4)
C19 C 0.0916(4) 0.3822(4) 0.4488(3)
H37 H 0.0547 0.4082 0.4715
C20 C 0.0000 -0.0217(5) 0.2500
H38 H 0.0326 -0.0551 0.2247
C21 C 0.0655(3) 0.0966(4) 0.4161(3)
H39 H 0.0480 0.1104 0.4598
C22 C 0.1844(4) 0.3831(4) 0.3657(3)
C23 C 0.1074(4) 0.3039(4) 0.4667(3)
C24 C 0.1591(3) 0.1050(4) 0.3328(3)
C25 C 0.0464(3) 0.0280(3) 0.3033(3)
C26 C 0.1358(3) 0.1258(3) 0.3980(3)
C27 C 0.0234(3) 0.0487(4) 0.3697(3)
C28 C 0.1158(3) 0.0568(3) 0.2857(3)
H40 H 0.1330 0.0434 0.2418
C29 C 0.1639(3) 0.2651(4) 0.4340(3)
C30 C 0.1292(3) 0.4225(4) 0.3981(3)
C31 C -0.1060(9) 0.3546(9) 0.3984(10)
H41 H -0.0568 0.3767 0.4107
H42 H -0.1262 0.3434 0.4438
C32 C -0.0933(6) 0.2824(6) 0.3690(6)
H43 H -0.0513 0.2858 0.3407
H44 H -0.1367 0.2664 0.3389
H45 H -0.0829 0.2447 0.4067
O1A O 0.0471(3) 0.5061(4) 0.1131(3)
O2A O -0.2278(2) 0.1352(3) 0.1823(2)
O3A O -0.0695(3) 0.2623(3) -0.0144(2)
O4A O 0.0457(2) 0.0183(3) 0.1147(2)
O5A O -0.2209(3) 0.4246(3) 0.1835(2)
C1A C 0.1102(7) 0.2029(8) -0.1604(8)
H1A H 0.0986 0.1496 -0.1492
H2A H 0.1628 0.2117 -0.1501
H3A H 0.0963 0.2126 -0.2104
C2A C -0.0723(9) 0.2940(9) -0.0840(6)
H4A H -0.0567 0.3485 -0.0815
H5A H -0.1232 0.2921 -0.1062
C3A C -0.0207(8) 0.2472(10) -0.1299(7)
H6A H -0.0346 0.2604 -0.1798
H7A H -0.0320 0.1920 -0.1242
C4A C 0.0679(7) 0.2572(9) -0.1160(8)
H10A H 0.0811 0.3109 -0.1266
H11A H 0.0828 0.2476 -0.0656
C5A C 0.2268(6) 0.1359(7) 0.0152(6)
H12A H 0.2438 0.1430 0.0650
H13A H 0.1847 0.1695 0.0029
H14A H 0.2664 0.1490 -0.0140
C6A C 0.1518(8) 0.4203(8) 0.1335(8)
H15A H 0.1473 0.4239 0.1848
H16A H 0.2041 0.4130 0.1259
C7A C 0.1255(9) 0.4827(9) 0.1009(9)
H17A H 0.1279 0.4751 0.0497
H18A H 0.1583 0.5262 0.1153
C8A C 0.2039(4) 0.0509(5) 0.0021(5)
H19A H 0.1742 0.0469 -0.0436
H20A H 0.2484 0.0191 -0.0005
C9A C -0.2771(5) 0.3853(5) 0.2180(5)
H21A H -0.2968 0.4199 0.2521
H22A H -0.2561 0.3398 0.2423
H23A H -0.3165 0.3696 0.1828
C10A C -0.1071(4) 0.5064(4) 0.1218(4)
H24A H -0.1514 0.5358 0.1314
H25A H -0.0856 0.5310 0.0816
C11A C -0.2464(4) 0.1280(5) 0.2543(4)
H26A H -0.2072 0.1504 0.2862
H27A H -0.2521 0.0736 0.2657
H28A H -0.2923 0.1552 0.2596
C12A C 0.1596(4) 0.0192(4) 0.0604(4)
H29A H 0.1861 0.0305 0.1068
H30A H 0.1556 -0.0373 0.0556
C13A C -0.1806(4) 0.1792(4) 0.0500(3)
H31A H -0.2335 0.1695 0.0528
H32A H -0.1690 0.1674 0.0014
C14A C 0.0759(4) 0.5102(4) 0.2440(4)
H33A H 0.1270 0.5118 0.2393
C15A C 0.0813(4) 0.0543(4) 0.0578(4)
H34A H 0.0840 0.1107 0.0646
H35A H 0.0538 0.0435 0.0119
C16A C -0.2018(3) 0.3058(4) 0.1158(3)
H36A H -0.2400 0.2807 0.1375
C17A C 0.0254(4) 0.5088(4) 0.1821(3)
C18A C -0.0506(4) 0.5092(4) 0.1879(4)
C19A C -0.0916(4) 0.3822(4) 0.0512(3)
H37A H -0.0547 0.4082 0.0285
H38A H -0.0326 -0.0551 0.2753
C21A C -0.0655(3) 0.0966(4) 0.0839(3)
H39A H -0.0480 0.1104 0.0402
C22A C -0.1844(4) 0.3831(4) 0.1343(3)
C23A C -0.1074(4) 0.3039(4) 0.0333(3)
C24A C -0.1591(3) 0.1050(4) 0.1672(3)
C25A C -0.0464(3) 0.0280(3) 0.1967(3)
C26A C -0.1358(3) 0.1258(3) 0.1020(3)
C27A C -0.0234(3) 0.0487(4) 0.1303(3)
C28A C -0.1158(3) 0.0568(3) 0.2143(3)
H40A H -0.1330 0.0434 0.2582
C29A C -0.1639(3) 0.2651(4) 0.0660(3)
C30A C -0.1292(3) 0.4225(4) 0.1019(3)
C31A C 0.1060(9) 0.3546(9) 0.1016(10)
H41A H 0.0568 0.3767 0.0893
H42A H 0.1262 0.3434 0.0562
C32A C 0.0933(6) 0.2824(6) 0.1310(6)
H43A H 0.0513 0.2858 0.1593
H44A H 0.1367 0.2664 0.1611
H45A H 0.0829 0.2447 0.0933
H8? H -0.1016 0.2773 0.5769
H9? H -0.0502 0.3014 0.6455
C33? C 0.0149(14) 0.2940(14) 0.5495(10)
H46? H -0.0225 0.3171 0.5152
H47? H 0.0355 0.3354 0.5810
C34? C -0.0223(15) 0.2311(14) 0.5946(11)
H48? H -0.0387 0.1869 0.5645
H49? H 0.0132 0.2122 0.6330
C35? C -0.1254(9) 0.5073(9) 0.3912(9)
H50? H -0.1468 0.5509 0.3641
H51? H -0.1357 0.5124 0.4405
H52? H -0.1468 0.4593 0.3719
loop_
_geom_bond_atom_site_label_1
_geom_bond_atom_site_label_2
_geom_bond_site_symmetry_1
_geom_bond_site_symmetry_2
O1 C7 1_555 1_555
O2 C11 1_555 1_555
O3 C2 1_555 1_555
O4 C15 1_555 1_555
O5 C9 1_555 1_555
C1 H1 1_555 1_555
H2 C1 1_555 1_555
H3 C1 1_555 1_555
C2 H4 1_555 1_555
H5 C2 1_555 1_555
C3 C2 1_555 1_555
H6 C3 1_555 1_555
H7 C3 1_555 1_555
C4 C1 1_555 1_555
H10 C4 1_555 1_555
H11 C4 1_555 1_555
C5 H12 1_555 1_555
H13 C5 1_555 1_555
H14 C5 1_555 1_555
C6 H15 1_555 1_555
H16 C6 1_555 1_555
C7 C6 1_555 1_555
H17 C7 1_555 1_555
H18 C7 1_555 1_555
C8 C5 1_555 1_555
H19 C8 1_555 1_555
H20 C8 1_555 1_555
C9 H21 1_555 1_555
H22 C9 1_555 1_555
H23 C9 1_555 1_555
C10 H24 1_555 1_555
H25 C10 1_555 1_555
C11 H26 1_555 1_555
H27 C11 1_555 1_555
H28 C11 1_555 1_555
C12 C8 1_555 1_555
H29 C12 1_555 1_555
H30 C12 1_555 1_555
C13 H31 1_555 1_555
H32 C13 1_555 1_555
C14 H33 1_555 1_555
C15 C12 1_555 1_555
H34 C15 1_555 1_555
H35 C15 1_555 1_555
C16 H36 1_555 1_555
C17 O1 1_555 1_555
C18 C10 1_555 1_555
C19 H37 1_555 1_555
C20 H38 1_555 1_555
C21 H39 1_555 1_555
C22 O5 1_555 1_555
C23 O3 1_555 1_555
C24 O2 1_555 1_555
C25 C20 1_555 1_555
C26 C13 1_555 1_555
C27 O4 1_555 1_555
C28 C24 1_555 1_555
H40 C28 1_555 1_555
C29 C13 1_555 1_555
C30 C10 1_555 1_555
C31 C6 1_555 1_555
H41 C31 1_555 1_555
H42 C31 1_555 1_555
C32 C31 1_555 1_555
H43 C32 1_555 1_555
H44 C32 1_555 1_555
H45 C32 1_555 1_555
O1A C7A 1_555 1_555
O2A C11A 1_555 1_555
O3A C2A 1_555 1_555
O4A C15A 1_555 1_555
O5A C9A 1_555 1_555
C1A H1A 1_555 1_555
H2A C1A 1_555 1_555
H3A C1A 1_555 1_555
C2A H4A 1_555 1_555
H5A C2A 1_555 1_555
C3A C2A 1_555 1_555
H6A C3A 1_555 1_555
H7A C3A 1_555 1_555
C4A C1A 1_555 1_555
H10A C4A 1_555 1_555
H11A C4A 1_555 1_555
C5A H12A 1_555 1_555
H13A C5A 1_555 1_555
H14A C5A 1_555 1_555
C6A H15A 1_555 1_555
H16A C6A 1_555 1_555
C7A C6A 1_555 1_555
H17A C7A 1_555 1_555
H18A C7A 1_555 1_555
C8A C5A 1_555 1_555
H19A C8A 1_555 1_555
H20A C8A 1_555 1_555
C9A H21A 1_555 1_555
H22A C9A 1_555 1_555
H23A C9A 1_555 1_555
C10A H24A 1_555 1_555
H25A C10A 1_555 1_555
C11A H26A 1_555 1_555
H27A C11A 1_555 1_555
H28A C11A 1_555 1_555
C12A C8A 1_555 1_555
H29A C12A 1_555 1_555
H30A C12A 1_555 1_555
C13A H31A 1_555 1_555
H32A C13A 1_555 1_555
C14A C18 1_555 1_555
H33A C14A 1_555 1_555
C15A C12A 1_555 1_555
H34A C15A 1_555 1_555
H35A C15A 1_555 1_555
C16A H36A 1_555 1_555
C17A O1A 1_555 1_555
C18A C14 1_555 1_555
C19A H37A 1_555 1_555
H38A C20 1_555 1_555
C21A H39A 1_555 1_555
C22A O5A 1_555 1_555
C23A O3A 1_555 1_555
C24A O2A 1_555 1_555
C25A C20 1_555 1_555
C26A C13A 1_555 1_555
C27A O4A 1_555 1_555
C28A C24A 1_555 1_555
H40A C28A 1_555 1_555
C29A C13A 1_555 1_555
C30A C10A 1_555 1_555
C31A C6A 1_555 1_555
H41A C31A 1_555 1_555
H42A C31A 1_555 1_555
C32A C31A 1_555 1_555
H43A C32A 1_555 1_555
H44A C32A 1_555 1_555
H45A C32A 1_555 1_555
C3 C4 1_555 1_555
C14 C17 1_555 1_555
C16 C22 1_555 1_555
C16 C29 1_555 1_555
C17 C18 1_555 1_555
C19 C23 1_555 1_555
C19 C30 1_555 1_555
C21 C26 1_555 1_555
C21 C27 1_555 1_555
C22 C30 1_555 1_555
C23 C29 1_555 1_555
C24 C26 1_555 1_555
C25 C27 1_555 1_555
C25 C28 1_555 1_555
C3A C4A 1_555 1_555
C10A C18A 1_555 1_555
C14A C17A 1_555 1_555
C16A C22A 1_555 1_555
C16A C29A 1_555 1_555
C17A C18A 1_555 1_555
C19A C23A 1_555 1_555
C19A C30A 1_555 1_555
C21A C26A 1_555 1_555
C21A C27A 1_555 1_555
C22A C30A 1_555 1_555
C23A C29A 1_555 1_555
C24A C26A 1_555 1_555
C25A C27A 1_555 1_555
C25A C28A 1_555 1_555

#END
