
#######################################################################
#
#                 Cambridge Crystallographic Data Centre
#                                CCDC 
#
#######################################################################
#
# If this CIF has been generated from an entry in the Cambridge 
# Structural Database, then it will include bibliographic, chemical, 
# crystal, experimental, refinement or atomic coordinate data resulting 
# from the CCDC's data processing and validation procedures.
#
#######################################################################

data_OLOQEN
_chemical_formula_moiety         'C19 H14 Cl2 N2 O1'
_chemical_name_systematic        
1-(6-chloro-4-(2-chlorophenyl)-2-methyl-4H-3,1-benzoxazin-4-yl)cyclopropanecarbonitrile
_symmetry_cell_setting           monoclinic
_symmetry_space_group_name_H-M   'P 21/n'
_symmetry_Int_Tables_number      14
_space_group_name_Hall           '-P 2yn'
loop_
_symmetry_equiv_pos_site_id
_symmetry_equiv_pos_as_xyz
1 x,y,z
2 1/2-x,1/2+y,1/2-z
3 -x,-y,-z
4 1/2+x,1/2-y,1/2+z
_cell_length_a                   10.9407(8)
_cell_length_b                   19.3735(14)
_cell_length_c                   15.7986(11)
_cell_angle_alpha                90
_cell_angle_beta                 103.2510(10)
_cell_angle_gamma                90
_cell_volume                     3259.51
_exptl_crystal_colour            colorless
_exptl_crystal_description       prismatic
_cell_formula_units_Z            8
loop_
_atom_site_label
_atom_site_type_symbol
_atom_site_fract_x
_atom_site_fract_y
_atom_site_fract_z
Cl1 Cl -0.09341(4) 1.08132(3) 0.05301(3)
Cl2 Cl 0.44679(4) 1.01528(2) 0.14017(3)
N1 N 0.37090(15) 1.09760(8) 0.33055(10)
N2 N 0.34831(16) 0.82083(9) 0.41019(11)
O1 O 0.41214(11) 0.97970(6) 0.31533(8)
C1 C 0.21393(17) 1.02763(9) 0.23073(12)
C2 C 0.10568(17) 1.02451(10) 0.16448(12)
H1 H 0.0745 0.9813 0.1404
C3 C 0.04408(17) 1.08484(10) 0.13412(12)
C4 C 0.08964(18) 1.14855(10) 0.16651(12)
H2 H 0.0472 1.1897 0.1441
C5 C 0.19744(18) 1.15142(10) 0.23174(13)
H3 H 0.2296 1.1949 0.2542
C6 C 0.25965(17) 1.09117(10) 0.26507(12)
C7 C 0.43878(17) 1.04416(10) 0.34917(12)
C8 C 0.56519(18) 1.04615(11) 0.40918(13)
H4 H 0.6298 1.0419 0.3756
H5 H 0.5731 1.0079 0.4506
H6 H 0.5759 1.0900 0.4409
C9 C 0.28481(16) 0.96312(9) 0.26713(12)
C10 C 0.22544(17) 0.92701(10) 0.33437(12)
C11 C 0.16191(18) 0.96957(10) 0.39288(13)
H7 H 0.1750 0.9554 0.4545
H8 H 0.1552 1.0200 0.3828
C12 C 0.08435(17) 0.92385(10) 0.32603(13)
H9 H 0.0296 0.9460 0.2746
H10 H 0.0494 0.8814 0.3463
C13 C 0.29562(17) 0.86796(10) 0.37637(12)
C14 C 0.30232(16) 0.91513(9) 0.19428(12)
C15 C 0.24394(17) 0.85081(9) 0.18113(12)
H11 H 0.1899 0.8371 0.2174
C16 C 0.26258(18) 0.80636(10) 0.11664(12)
H12 H 0.2229 0.7624 0.1099
C17 C 0.33841(17) 0.82563(10) 0.06237(12)
H13 H 0.3527 0.7947 0.0190
C18 C 0.39386(17) 0.89023(10) 0.07118(12)
H14 H 0.4442 0.9043 0.0326
C19 C 0.37595(17) 0.93428(10) 0.13609(12)
Cl3 Cl 1.05331(6) 0.14284(3) 0.43666(3)
Cl4 Cl 0.53167(4) 0.23200(2) 0.34160(3)
N3 N 0.60518(15) 0.15991(8) 0.14620(10)
N4 N 0.68064(15) 0.44201(9) 0.10793(11)
O2 O 0.58183(11) 0.27796(6) 0.17437(8)
C20 C 0.76863(17) 0.21738(9) 0.25597(12)
C21 C 0.87230(18) 0.21288(10) 0.32546(12)
H15 H 0.9069 0.2532 0.3561
C22 C 0.92407(19) 0.14901(11) 0.34913(12)
C23 C 0.87519(19) 0.08943(10) 0.30625(13)
H16 H 0.9126 0.0459 0.3234
C24 C 0.77101(18) 0.09441(10) 0.23816(13)
H17 H 0.7362 0.0538 0.2084
C25 C 0.71629(17) 0.15800(10) 0.21255(12)
C26 C 0.54589(17) 0.21678(10) 0.13402(12)
C27 C 0.42043(18) 0.22316(11) 0.07353(13)
H18 H 0.4002 0.1802 0.0406
H19 H 0.4216 0.2615 0.0332
H20 H 0.3568 0.2321 0.1069
C28 C 0.70909(16) 0.28681(9) 0.22751(12)
C29 C 0.77906(17) 0.32525(10) 0.16844(12)
C30 C 0.84087(17) 0.28605(10) 0.10619(13)
H21 H 0.8394 0.2350 0.1083
H22 H 0.8343 0.3058 0.0475
C31 C 0.92077(17) 0.32297(10) 0.18142(13)
H23 H 0.9637 0.3656 0.1693
H24 H 0.9688 0.2948 0.2301
C32 C 0.72242(17) 0.39021(10) 0.13509(12)
C33 C 0.69678(16) 0.32910(9) 0.30631(12)
C34 C 0.76863(17) 0.38861(10) 0.33059(12)
H25 H 0.8231 0.4042 0.2956
C35 C 0.76203(18) 0.42528(10) 0.40460(12)
H26 H 0.8114 0.4657 0.4198
C36 C 0.68394(18) 0.40332(10) 0.45627(13)
H27 H 0.6786 0.4289 0.5066
C37 C 0.61339(18) 0.34398(10) 0.43473(13)
H28 H 0.5604 0.3283 0.4707
C38 C 0.62008(17) 0.30758(9) 0.36086(12)
loop_
_geom_bond_atom_site_label_1
_geom_bond_atom_site_label_2
_geom_bond_site_symmetry_1
_geom_bond_site_symmetry_2
Cl1 C3 1_555 1_555
Cl2 C19 1_555 1_555
N1 C6 1_555 1_555
N2 C13 1_555 1_555
O1 C7 1_555 1_555
C1 C2 1_555 1_555
C2 H1 1_555 1_555
C3 C2 1_555 1_555
C4 C3 1_555 1_555
H2 C4 1_555 1_555
C5 C4 1_555 1_555
H3 C5 1_555 1_555
C6 C1 1_555 1_555
C7 N1 1_555 1_555
C8 C7 1_555 1_555
H4 C8 1_555 1_555
H5 C8 1_555 1_555
H6 C8 1_555 1_555
C9 O1 1_555 1_555
C10 C9 1_555 1_555
C11 C10 1_555 1_555
H7 C11 1_555 1_555
H8 C11 1_555 1_555
C12 C10 1_555 1_555
H9 C12 1_555 1_555
H10 C12 1_555 1_555
C13 C10 1_555 1_555
C14 C9 1_555 1_555
C15 C14 1_555 1_555
H11 C15 1_555 1_555
C16 C15 1_555 1_555
H12 C16 1_555 1_555
C17 C16 1_555 1_555
H13 C17 1_555 1_555
C18 C17 1_555 1_555
H14 C18 1_555 1_555
C19 C14 1_555 1_555
Cl3 C22 1_555 1_555
Cl4 C38 1_555 1_555
N3 C25 1_555 1_555
N4 C32 1_555 1_555
O2 C26 1_555 1_555
C20 C21 1_555 1_555
C21 H15 1_555 1_555
C22 C21 1_555 1_555
C23 C22 1_555 1_555
H16 C23 1_555 1_555
C24 C23 1_555 1_555
H17 C24 1_555 1_555
C25 C20 1_555 1_555
C26 N3 1_555 1_555
C27 C26 1_555 1_555
H18 C27 1_555 1_555
H19 C27 1_555 1_555
H20 C27 1_555 1_555
C28 O2 1_555 1_555
C29 C28 1_555 1_555
C30 C29 1_555 1_555
H21 C30 1_555 1_555
H22 C30 1_555 1_555
C31 C29 1_555 1_555
H23 C31 1_555 1_555
H24 C31 1_555 1_555
C32 C29 1_555 1_555
C33 C28 1_555 1_555
C34 C33 1_555 1_555
H25 C34 1_555 1_555
C35 C34 1_555 1_555
H26 C35 1_555 1_555
C36 C35 1_555 1_555
H27 C36 1_555 1_555
C37 C36 1_555 1_555
H28 C37 1_555 1_555
C38 C33 1_555 1_555
C1 C9 1_555 1_555
C5 C6 1_555 1_555
C11 C12 1_555 1_555
C18 C19 1_555 1_555
C20 C28 1_555 1_555
C24 C25 1_555 1_555
C30 C31 1_555 1_555
C37 C38 1_555 1_555

#END
