
#######################################################################
#
#                 Cambridge Crystallographic Data Centre
#                                CCDC 
#
#######################################################################
#
# If this CIF has been generated from an entry in the Cambridge 
# Structural Database, then it will include bibliographic, chemical, 
# crystal, experimental, refinement or atomic coordinate data resulting 
# from the CCDC's data processing and validation procedures.
#
#######################################################################

data_OLOZUM
_chemical_name_common            
'4,19-dimethyl-12,27-bis(pentafluorophenyl)-2,7,17,22-tetraphenyl-2,4-hexaphyrin-diium bis(trifluoroacetate) bis(trifluoroacetic acid) dichloromethane solvate'
_chemical_formula_moiety         
'C68 H42 F10 N6 2+,2(C2 H1 F3 O2),2(C2 F3 O2 1-),2(C1 H2 Cl2)'
_chemical_name_systematic        
'4,19-dimethyl-12,27-bis(pentafluorophenyl)-2,7,17,22-tetraphenyl-4,19,31,34-tetraaza-32,35-diazoniaheptacyclo[26.2.1.1^3,6^.1^8,11^.1^13,16^.1^18,21^.1^23,26^]hexatriaconta-1,3(36),5,7,9,11(35),12,14,16,18(33),20,22,24,26(32),27,29-hexadecaene bis(trifluoroacetate) bis(trifluoroacetic acid) dichloromethane solvate'
_symmetry_cell_setting           monoclinic
_symmetry_space_group_name_H-M   'P 21/n'
_symmetry_Int_Tables_number      14
_space_group_name_Hall           '-P 2yn'
loop_
_symmetry_equiv_pos_site_id
_symmetry_equiv_pos_as_xyz
1 x,y,z
2 1/2-x,1/2+y,1/2-z
3 -x,-y,-z
4 1/2+x,1/2-y,1/2+z
_cell_length_a                   9.989(3)
_cell_length_b                   19.807(5)
_cell_length_c                   18.717(5)
_cell_angle_alpha                90
_cell_angle_beta                 92.434(9)
_cell_angle_gamma                90
_cell_volume                     3699.86
_exptl_crystal_colour            red
_exptl_crystal_description       block
_cell_formula_units_Z            2
loop_
_atom_site_label
_atom_site_type_symbol
_atom_site_fract_x
_atom_site_fract_y
_atom_site_fract_z
C1 C 0.4557(8) 0.5800(4) 0.0527(5)
H1 H 0.4046 0.5406 0.0613
F1 F 1.4800(4) 1.11134(18) 0.2252(2)
N1 N 1.0183(5) 0.7232(3) 0.0820(3)
C2 C 0.4675(7) 0.6029(4) -0.0152(5)
H2 H 0.4256 0.5791 -0.0541
F2 F 1.6461(4) 1.0777(2) 0.3355(2)
N2 N 1.2913(5) 0.9246(3) 0.1230(3)
H3 H 1.3302 0.9136 0.1644
C3 C 0.5411(7) 0.6615(3) -0.0279(4)
H4 H 0.5482 0.6776 -0.0754
F3 F 1.7760(4) 0.9566(2) 0.3374(2)
C4 C 0.6039(7) 0.6962(3) 0.0287(4)
F4 F 1.7467(4) 0.8724(2) 0.2228(2)
C5 C 0.5924(8) 0.6709(4) 0.0976(4)
H5 H 0.6362 0.6931 0.1370
F5 F 1.5827(4) 0.90525(19) 0.1109(2)
C6 C 0.5173(8) 0.6137(4) 0.1085(5)
H6 H 0.5083 0.5974 0.1558
C7 C 0.6793(7) 0.7599(3) 0.0170(4)
C8 C 0.8169(7) 0.7627(3) 0.0420(4)
N3 N 0.6594(5) 0.8728(3) -0.0413(3)
H7 H 0.7439 0.8852 -0.0368
C9 C 0.9042(7) 0.8185(4) 0.0590(4)
H8 H 0.8811 0.8648 0.0537
C10 C 1.0275(7) 0.7941(3) 0.0842(4)
C11 C 0.8943(7) 0.7058(3) 0.0571(4)
H9 H 0.8640 0.6607 0.0507
C12 C 1.1281(7) 0.6746(3) 0.0949(4)
H10 H 1.1419 0.6671 0.1464
H11 H 1.2104 0.6926 0.0755
H12 H 1.1050 0.6318 0.0712
C13 C 1.1441(6) 0.8273(3) 0.1150(4)
C14 C 1.2080(7) 0.7978(3) 0.1814(4)
C15 C 1.1269(7) 0.7797(3) 0.2373(4)
H13 H 1.0331 0.7877 0.2329
C16 C 1.1816(8) 0.7502(4) 0.2989(4)
H14 H 1.1266 0.7392 0.3375
C17 C 1.3170(8) 0.7370(4) 0.3034(4)
H15 H 1.3550 0.7161 0.3452
C18 C 1.3989(8) 0.7535(4) 0.2482(4)
H16 H 1.4921 0.7439 0.2523
C19 C 1.3448(7) 0.7844(3) 0.1864(4)
H17 H 1.4005 0.7961 0.1485
C20 C 1.1905(7) 0.8870(3) 0.0881(4)
C21 C 1.1572(7) 0.9236(3) 0.0234(4)
H18 H 1.0912 0.9106 -0.0120
C22 C 1.2346(7) 0.9794(4) 0.0210(4)
H19 H 1.2318 1.0120 -0.0162
C23 C 1.3222(7) 0.9812(3) 0.0843(4)
C24 C 1.4246(6) 1.0260(3) 0.1045(4)
C25 C 1.5216(6) 1.0092(3) 0.1642(4)
C26 C 1.5918(7) 0.9486(4) 0.1661(4)
C27 C 1.6791(7) 0.9309(4) 0.2232(4)
C28 C 1.6945(7) 0.9729(4) 0.2805(4)
C29 C 1.6283(7) 1.0347(4) 0.2795(4)
C30 C 1.5438(7) 1.0518(3) 0.2228(4)
C31 C 0.6065(7) 0.8109(3) -0.0168(4)
C32 C 0.4674(6) 0.8142(3) -0.0317(4)
H20 H 0.4040 0.7810 -0.0192
C33 C 0.4387(7) 0.8728(3) -0.0670(4)
H21 H 0.3525 0.8866 -0.0849
C34 C 1.4406(7) 1.0902(3) 0.0726(4)
C1B C 1.5443(8) 1.4200(4) -0.0527(5)
H1B H 1.5954 1.4594 -0.0613
F1B F 0.5200(4) 0.88866(18) -0.2252(2)
N1B N 0.9817(5) 1.2768(3) -0.0820(3)
C2B C 1.5325(7) 1.3971(4) 0.0152(5)
H2B H 1.5744 1.4209 0.0541
F2B F 0.3539(4) 0.9223(2) -0.3355(2)
N2B N 0.7087(5) 1.0754(3) -0.1230(3)
H3B H 0.6698 1.0864 -0.1644
C3B C 1.4589(7) 1.3385(3) 0.0279(4)
H4B H 1.4518 1.3224 0.0754
F3B F 0.2240(4) 1.0434(2) -0.3374(2)
C4B C 1.3961(7) 1.3038(3) -0.0287(4)
F4B F 0.2533(4) 1.1276(2) -0.2228(2)
C5B C 1.4076(8) 1.3291(4) -0.0976(4)
H5B H 1.3638 1.3069 -0.1370
F5B F 0.4173(4) 1.09475(19) -0.1109(2)
C6B C 1.4827(8) 1.3863(4) -0.1085(5)
H6B H 1.4917 1.4026 -0.1558
C7B C 1.3207(7) 1.2401(3) -0.0170(4)
C8B C 1.1831(7) 1.2373(3) -0.0420(4)
N3B N 1.3406(5) 1.1272(3) 0.0413(3)
H7B H 1.2561 1.1148 0.0368
C9B C 1.0958(7) 1.1815(4) -0.0590(4)
H8B H 1.1189 1.1352 -0.0537
C10B C 0.9725(7) 1.2059(3) -0.0842(4)
C11B C 1.1057(7) 1.2942(3) -0.0571(4)
H9B H 1.1360 1.3393 -0.0507
C12B C 0.8719(7) 1.3254(3) -0.0949(4)
H10B H 0.8581 1.3329 -0.1464
H11B H 0.7896 1.3074 -0.0755
H12B H 0.8950 1.3682 -0.0712
C13B C 0.8559(6) 1.1727(3) -0.1150(4)
C14B C 0.7920(7) 1.2022(3) -0.1814(4)
C15B C 0.8731(7) 1.2203(3) -0.2373(4)
H13B H 0.9669 1.2123 -0.2329
C16B C 0.8184(8) 1.2498(4) -0.2989(4)
H14B H 0.8734 1.2608 -0.3375
C17B C 0.6830(8) 1.2630(4) -0.3034(4)
H15B H 0.6450 1.2839 -0.3452
C18B C 0.6011(8) 1.2465(4) -0.2482(4)
H16B H 0.5079 1.2561 -0.2523
C19B C 0.6552(7) 1.2156(3) -0.1864(4)
H17B H 0.5995 1.2039 -0.1485
C20B C 0.8095(7) 1.1130(3) -0.0881(4)
C21B C 0.8428(7) 1.0764(3) -0.0234(4)
H18B H 0.9088 1.0894 0.0120
C22B C 0.7654(7) 1.0206(4) -0.0210(4)
H19B H 0.7682 0.9880 0.0162
C23B C 0.6778(7) 1.0188(3) -0.0843(4)
C24B C 0.5754(6) 0.9740(3) -0.1045(4)
C25B C 0.4784(6) 0.9908(3) -0.1642(4)
C26B C 0.4082(7) 1.0514(4) -0.1661(4)
C27B C 0.3209(7) 1.0691(4) -0.2232(4)
C28B C 0.3055(7) 1.0271(4) -0.2805(4)
C29B C 0.3717(7) 0.9653(4) -0.2795(4)
C30B C 0.4562(7) 0.9482(3) -0.2228(4)
C31B C 1.3935(7) 1.1891(3) 0.0168(4)
C32B C 1.5326(6) 1.1858(3) 0.0317(4)
H20B H 1.5960 1.2190 0.0192
C33B C 1.5613(7) 1.1272(3) 0.0670(4)
H21B H 1.6475 1.1134 0.0849
C34B C 0.5594(7) 0.9098(3) -0.0726(4)
Cl1 Cl 0.7201(2) 0.22754(10) 0.20748(12)
Cl2 Cl 0.8699(2) 0.23752(11) 0.07707(11)
C35 C 0.7878(8) 0.2828(4) 0.1437(4)
H22 H 0.7148 0.3102 0.1211
H23 H 0.8522 0.3139 0.1682
O1 O 0.2543(5) 1.0164(3) 0.3239(3)
O2 O 0.3538(5) 0.9252(2) 0.2763(3)
F6 F 0.4711(6) 0.9945(3) 0.4216(3)
F7 F 0.4655(8) 0.8952(4) 0.4032(4)
F8 F 0.2946(5) 0.9464(3) 0.4493(3)
C36 C 0.3834(9) 0.9468(4) 0.4008(4)
C37 C 0.3256(7) 0.9619(4) 0.3255(4)
O3 O 0.1983(5) 0.0666(2) 0.2048(3)
H24 H 0.1940 0.0327 0.2315
O4 O 0.0926(5) 0.0937(2) 0.1009(3)
F10 F -0.0119(5) -0.0077(3) 0.2402(3)
F11 F -0.1240(5) 0.0729(3) 0.1930(4)
F12 F -0.0765(5) -0.0116(3) 0.1310(3)
C38 C 0.0997(7) 0.0669(3) 0.1610(4)
C39 C -0.0272(7) 0.0300(4) 0.1817(4)
F9? F 0.4052(17) 0.8788(8) 0.4070(8)
loop_
_geom_bond_atom_site_label_1
_geom_bond_atom_site_label_2
_geom_bond_site_symmetry_1
_geom_bond_site_symmetry_2
C1 H1 1_555 1_555
F1 C30 1_555 1_555
N1 C10 1_555 1_555
C2 C1 1_555 1_555
H2 C2 1_555 1_555
F2 C29 1_555 1_555
N2 H3 1_555 1_555
C3 C2 1_555 1_555
H4 C3 1_555 1_555
F3 C28 1_555 1_555
C4 C3 1_555 1_555
F4 C27 1_555 1_555
C5 C4 1_555 1_555
H5 C5 1_555 1_555
F5 C26 1_555 1_555
C6 C1 1_555 1_555
H6 C6 1_555 1_555
C7 C4 1_555 1_555
C8 C7 1_555 1_555
N3 H7 1_555 1_555
C9 C8 1_555 1_555
H8 C9 1_555 1_555
C10 C9 1_555 1_555
C11 N1 1_555 1_555
H9 C11 1_555 1_555
C12 N1 1_555 1_555
H10 C12 1_555 1_555
H11 C12 1_555 1_555
H12 C12 1_555 1_555
C13 C10 1_555 1_555
C14 C13 1_555 1_555
C15 C14 1_555 1_555
H13 C15 1_555 1_555
C16 C15 1_555 1_555
H14 C16 1_555 1_555
C17 C16 1_555 1_555
H15 C17 1_555 1_555
C18 C17 1_555 1_555
H16 C18 1_555 1_555
C19 C14 1_555 1_555
H17 C19 1_555 1_555
C20 N2 1_555 1_555
C21 C20 1_555 1_555
H18 C21 1_555 1_555
C22 C21 1_555 1_555
H19 C22 1_555 1_555
C23 N2 1_555 1_555
C24 C23 1_555 1_555
C25 C24 1_555 1_555
C26 C25 1_555 1_555
C27 C26 1_555 1_555
C28 C27 1_555 1_555
C29 C28 1_555 1_555
C30 C25 1_555 1_555
C31 C7 1_555 1_555
C32 C31 1_555 1_555
H20 C32 1_555 1_555
C33 C32 1_555 1_555
H21 C33 1_555 1_555
C34 C24 1_555 1_555
Cl1 C35 1_555 1_555
Cl2 C35 1_555 1_555
C35 H22 1_555 1_555
H23 C35 1_555 1_555
O1 C37 1_555 1_555
O2 C37 1_555 1_555
F6 C36 1_555 1_555
F7 C36 1_555 1_555
F8 C36 1_555 1_555
C36 C37 1_555 1_555
O3 H24 1_555 1_555
O4 C38 1_555 1_555
F10 C39 1_555 1_555
F11 C39 1_555 1_555
F12 C39 1_555 1_555
C38 O3 1_555 1_555
C39 C38 1_555 1_555
C1B H1B 1_555 1_555
F1B C30B 1_555 1_555
N1B C10B 1_555 1_555
C2B C1B 1_555 1_555
H2B C2B 1_555 1_555
F2B C29B 1_555 1_555
N2B H3B 1_555 1_555
C3B C2B 1_555 1_555
H4B C3B 1_555 1_555
F3B C28B 1_555 1_555
C4B C3B 1_555 1_555
F4B C27B 1_555 1_555
C5B C4B 1_555 1_555
H5B C5B 1_555 1_555
F5B C26B 1_555 1_555
C6B C1B 1_555 1_555
H6B C6B 1_555 1_555
C7B C4B 1_555 1_555
C8B C7B 1_555 1_555
N3B C34 1_555 1_555
H7B N3B 1_555 1_555
C9B C8B 1_555 1_555
H8B C9B 1_555 1_555
C10B C9B 1_555 1_555
C11B N1B 1_555 1_555
H9B C11B 1_555 1_555
C12B N1B 1_555 1_555
H10B C12B 1_555 1_555
H11B C12B 1_555 1_555
H12B C12B 1_555 1_555
C13B C10B 1_555 1_555
C14B C13B 1_555 1_555
C15B C14B 1_555 1_555
H13B C15B 1_555 1_555
C16B C15B 1_555 1_555
H14B C16B 1_555 1_555
C17B C16B 1_555 1_555
H15B C17B 1_555 1_555
C18B C17B 1_555 1_555
H16B C18B 1_555 1_555
C19B C14B 1_555 1_555
H17B C19B 1_555 1_555
C20B N2B 1_555 1_555
C21B C20B 1_555 1_555
H18B C21B 1_555 1_555
C22B C21B 1_555 1_555
H19B C22B 1_555 1_555
C23B N2B 1_555 1_555
C24B C23B 1_555 1_555
C25B C24B 1_555 1_555
C26B C25B 1_555 1_555
C27B C26B 1_555 1_555
C28B C27B 1_555 1_555
C29B C28B 1_555 1_555
C30B C25B 1_555 1_555
C31B C7B 1_555 1_555
C32B C31B 1_555 1_555
H20B C32B 1_555 1_555
C33B C34 1_555 1_555
H21B C33B 1_555 1_555
C34B N3 1_555 1_555
C5 C6 1_555 1_555
C8 C11 1_555 1_555
N3 C31 1_555 1_555
C13 C20 1_555 1_555
C18 C19 1_555 1_555
C22 C23 1_555 1_555
C29 C30 1_555 1_555
C33 C34B 1_555 1_555
C5B C6B 1_555 1_555
C8B C11B 1_555 1_555
N3B C31B 1_555 1_555
C13B C20B 1_555 1_555
C18B C19B 1_555 1_555
C22B C23B 1_555 1_555
C24B C34B 1_555 1_555
C29B C30B 1_555 1_555
C32B C33B 1_555 1_555

#END
