
#######################################################################
#
#                 Cambridge Crystallographic Data Centre
#                                CCDC 
#
#######################################################################
#
# If this CIF has been generated from an entry in the Cambridge 
# Structural Database, then it will include bibliographic, chemical, 
# crystal, experimental, refinement or atomic coordinate data resulting 
# from the CCDC's data processing and validation procedures.
#
#######################################################################

data_OLUPOC
_chemical_formula_moiety         'C14 H11 Cl1 O3 S1'
_chemical_name_systematic        
'methyl 4-((4-chloro-2-hydroxyphenyl)sulfanyl)benzoate'
_symmetry_cell_setting           triclinic
_symmetry_space_group_name_H-M   'P -1'
_symmetry_Int_Tables_number      2
_space_group_name_Hall           '-P 1'
loop_
_symmetry_equiv_pos_site_id
_symmetry_equiv_pos_as_xyz
1 x,y,z
2 -x,-y,-z
_cell_length_a                   6.179(2)
_cell_length_b                   7.236(3)
_cell_length_c                   15.511(5)
_cell_angle_alpha                99.749(5)
_cell_angle_beta                 98.464(5)
_cell_angle_gamma                95.685(6)
_cell_volume                     670.566
_exptl_crystal_colour            colorless
_exptl_crystal_description       block
_cell_formula_units_Z            2
loop_
_atom_site_label
_atom_site_type_symbol
_atom_site_fract_x
_atom_site_fract_y
_atom_site_fract_z
C1 C 0.4575(6) 0.0981(6) -0.2245(2)
H1 H 0.4924 0.2019 -0.2534
H2 H 0.3021 0.0820 -0.2229
H3 H 0.4976 -0.0153 -0.2566
C2 C 0.7969(5) 0.1783(4) -0.1266(2)
C3 C 0.9070(5) 0.2231(4) -0.03224(19)
C4 C 1.1295(5) 0.2870(4) -0.0130(2)
H4 H 1.2094 0.2961 -0.0587
C5 C 1.2342(5) 0.3374(5) 0.0742(2)
H5 H 1.3842 0.3814 0.0869
C6 C 1.1177(5) 0.3230(4) 0.1424(2)
C7 C 0.8938(5) 0.2540(4) 0.1233(2)
H6 H 0.8142 0.2407 0.1688
C8 C 0.7931(5) 0.2063(4) 0.0365(2)
H7 H 0.6434 0.1611 0.0235
C9 C 1.0743(6) 0.3470(5) 0.3201(2)
C10 C 1.0639(7) 0.1786(5) 0.3530(2)
H8 H 1.1561 0.0896 0.3365
C11 C 0.9211(8) 0.1427(6) 0.4090(2)
H9 H 0.9137 0.0292 0.4297
C12 C 0.7876(7) 0.2768(5) 0.4347(2)
C13 C 0.7936(6) 0.4450(5) 0.4039(2)
H10 H 0.7026 0.5340 0.4217
C14 C 0.9371(6) 0.4796(5) 0.3458(2)
Cl1 Cl 0.6099(2) 0.2353(2) 0.50753(9)
O1 O 0.8921(4) 0.1812(4) -0.18832(15)
O2 O 0.5782(4) 0.1368(4) -0.13520(14)
O3 O 0.9309(5) 0.6441(4) 0.31671(19)
H11 H 1.0237 0.6545 0.2845
S1 S 1.26862(15) 0.39346(14) 0.25161(6)
loop_
_geom_bond_atom_site_label_1
_geom_bond_atom_site_label_2
_geom_bond_site_symmetry_1
_geom_bond_site_symmetry_2
C1 H1 1_555 1_555
H2 C1 1_555 1_555
H3 C1 1_555 1_555
C2 C3 1_555 1_555
C3 C4 1_555 1_555
C4 H4 1_555 1_555
C5 C4 1_555 1_555
H5 C5 1_555 1_555
C6 C5 1_555 1_555
C7 C6 1_555 1_555
H6 C7 1_555 1_555
C8 C3 1_555 1_555
H7 C8 1_555 1_555
C9 C10 1_555 1_555
C10 H8 1_555 1_555
C11 C10 1_555 1_555
H9 C11 1_555 1_555
C12 C11 1_555 1_555
C13 C12 1_555 1_555
H10 C13 1_555 1_555
C14 C9 1_555 1_555
Cl1 C12 1_555 1_555
O1 C2 1_555 1_555
O2 C1 1_555 1_555
O3 C14 1_555 1_555
H11 O3 1_555 1_555
S1 C6 1_555 1_555
C2 O2 1_555 1_555
C7 C8 1_555 1_555
C9 S1 1_555 1_555
C13 C14 1_555 1_555

#END
