
#######################################################################
#
#                 Cambridge Crystallographic Data Centre
#                                CCDC 
#
#######################################################################
#
# If this CIF has been generated from an entry in the Cambridge 
# Structural Database, then it will include bibliographic, chemical, 
# crystal, experimental, refinement or atomic coordinate data resulting 
# from the CCDC's data processing and validation procedures.
#
#######################################################################

data_OLUTIA
_chemical_formula_moiety         'C10 H6 N4 O7,C2 H6 O1'
_chemical_name_systematic        
'5-(2,4-dinitrophenyl)-6-hydroxypyrimidine-2,4(1H,3H)-dione ethanol solvate'
_symmetry_cell_setting           triclinic
_symmetry_space_group_name_H-M   'P -1'
_symmetry_Int_Tables_number      2
_space_group_name_Hall           '-P 1'
loop_
_symmetry_equiv_pos_site_id
_symmetry_equiv_pos_as_xyz
1 x,y,z
2 -x,-y,-z
_cell_length_a                   9.8412(4)
_cell_length_b                   10.4156(6)
_cell_length_c                   15.2974(7)
_cell_angle_alpha                100.788(4)
_cell_angle_beta                 92.075(4)
_cell_angle_gamma                114.288(5)
_cell_volume                     1392.7
_exptl_crystal_colour            yellow
_exptl_crystal_description       needle
_cell_formula_units_Z            4
loop_
_atom_site_label
_atom_site_type_symbol
_atom_site_fract_x
_atom_site_fract_y
_atom_site_fract_z
C1 C 0.37729(17) 0.75631(17) 0.08824(10)
C2 C 0.50898(17) 0.86912(17) 0.13081(10)
H1 H 0.5586 0.9478 0.1054
C3 C 0.56499(17) 0.86127(17) 0.21275(10)
C4 C 0.49944(17) 0.74098(17) 0.25117(10)
C5 C 0.36661(17) 0.62828(17) 0.20315(10)
H2 H 0.3197 0.5460 0.2258
C6 C 0.30363(17) 0.63592(17) 0.12331(10)
H3 H 0.2135 0.5617 0.0937
C7 C 0.45811(17) 0.67138(16) 0.39956(10)
C8 C 0.55972(17) 0.72706(16) 0.33682(10)
C9 C 0.70994(17) 0.76517(16) 0.35938(10)
C10 C 0.67097(17) 0.70555(16) 0.50331(10)
N1 N 0.31207(16) 0.76393(15) 0.00258(9)
N2 N 0.69696(14) 0.99240(14) 0.25971(9)
N3 N 0.52226(15) 0.66203(14) 0.47889(9)
N4 N 0.76301(15) 0.75853(14) 0.44097(8)
O1 O 0.17703(13) 0.69173(13) -0.02009(7)
O2 O 0.39705(14) 0.84345(13) -0.04119(8)
O3 O 0.69865(12) 1.03652(12) 0.34018(7)
O4 O 0.79495(12) 1.05169(12) 0.21452(8)
O5 O 0.32082(11) 0.63564(12) 0.38905(7)
O6 O 0.80674(12) 0.80850(12) 0.30213(7)
O7 O 0.71986(11) 0.69914(12) 0.57651(7)
H4 H 0.4626(18) 0.6289(18) 0.5202(11)
H5 H 0.859(2) 0.7703(19) 0.4523(11)
H6 H 0.9108(17) 0.857(2) 0.3266(12)
C11 C 0.21783(18) 0.40232(17) 0.89128(10)
C12 C 0.33975(17) 0.49584(17) 0.85931(10)
H7 H 0.4370 0.5126 0.8797
C13 C 0.31306(17) 0.56438(16) 0.79576(10)
C14 C 0.16830(17) 0.53719(17) 0.76002(10)
C15 C 0.04965(17) 0.44051(17) 0.79531(10)
H8 H -0.0483 0.4200 0.7737
C16 C 0.07217(17) 0.37438(17) 0.86091(10)
H9 H -0.0089 0.3123 0.8843
C17 C 0.21441(17) 0.59678(17) 0.60871(10)
C18 C 0.13581(17) 0.59584(16) 0.68568(10)
C19 C 0.02456(17) 0.64337(16) 0.68501(10)
C20 C 0.05989(17) 0.69002(16) 0.53760(10)
N5 N 0.24361(16) 0.33164(15) 0.96020(9)
N6 N 0.44743(14) 0.67426(14) 0.77178(8)
N7 N -0.01095(15) 0.68760(14) 0.61290(8)
N8 N 0.17018(14) 0.64371(14) 0.53911(9)
O8 O 0.13643(14) 0.26436(14) 0.99676(8)
O9 O 0.37191(13) 0.34523(13) 0.97920(8)
O10 O 0.56028(12) 0.65027(12) 0.76916(7)
O11 O 0.44501(12) 0.78602(12) 0.75928(7)
O12 O 0.31827(11) 0.55856(12) 0.60130(7)
O13 O -0.05185(11) 0.64969(12) 0.75368(7)
O14 O 0.02503(12) 0.72997(12) 0.47315(7)
H10 H -0.092(2) 0.6994(19) 0.6097(11)
H11 H 0.2152(18) 0.6427(18) 0.4939(11)
H12 H -0.089(2) 0.718(2) 0.7520(13)
C21 C 0.34165(19) -0.01325(19) 0.39709(12)
H13 H 0.4125 -0.0543 0.3870
H14 H 0.3204 -0.0091 0.4580
H15 H 0.3832 0.0825 0.3862
C22 C 0.19959(18) -0.10503(19) 0.33488(11)
H16 H 0.2218 -0.1099 0.2734
H17 H 0.1595 -0.2023 0.3450
O15 O 0.08749(13) -0.04923(14) 0.34734(8)
H18 H 0.116(2) 0.027(2) 0.3283(13)
C23 C 0.20875(19) 0.0290(2) 0.09573(11)
H19 H 0.1631 -0.0362 0.0388
H20 H 0.2579 -0.0117 0.1299
H21 H 0.2812 0.1195 0.0864
C24 C 0.09025(18) 0.05319(18) 0.14576(10)
H22 H 0.0399 0.0928 0.1104
H23 H 0.0160 -0.0390 0.1535
O16 O 0.15051(13) 0.15057(12) 0.23323(7)
H24 H 0.246(2) 0.202(2) 0.2354(13)
loop_
_geom_bond_atom_site_label_1
_geom_bond_atom_site_label_2
_geom_bond_site_symmetry_1
_geom_bond_site_symmetry_2
C1 C2 1_555 1_555
C2 H1 1_555 1_555
C3 C2 1_555 1_555
C4 C3 1_555 1_555
C5 C4 1_555 1_555
H2 C5 1_555 1_555
C6 C1 1_555 1_555
H3 C6 1_555 1_555
C7 C8 1_555 1_555
C8 C4 1_555 1_555
C9 C8 1_555 1_555
C10 N3 1_555 1_555
N1 C1 1_555 1_555
N2 C3 1_555 1_555
N3 C7 1_555 1_555
N4 C9 1_555 1_555
O1 N1 1_555 1_555
O2 N1 1_555 1_555
O3 N2 1_555 1_555
O4 N2 1_555 1_555
O5 C7 1_555 1_555
O6 C9 1_555 1_555
O7 C10 1_555 1_555
H4 N3 1_555 1_555
H5 N4 1_555 1_555
H6 O6 1_555 1_555
C11 C12 1_555 1_555
C12 H7 1_555 1_555
C13 C12 1_555 1_555
C14 C13 1_555 1_555
C15 C14 1_555 1_555
H8 C15 1_555 1_555
C16 C11 1_555 1_555
H9 C16 1_555 1_555
C17 C18 1_555 1_555
C18 C14 1_555 1_555
C19 C18 1_555 1_555
C20 N7 1_555 1_555
N5 C11 1_555 1_555
N6 C13 1_555 1_555
N7 C19 1_555 1_555
N8 C17 1_555 1_555
O8 N5 1_555 1_555
O9 N5 1_555 1_555
O10 N6 1_555 1_555
O11 N6 1_555 1_555
O12 C17 1_555 1_555
O13 C19 1_555 1_555
O14 C20 1_555 1_555
H10 N7 1_555 1_555
H11 N8 1_555 1_555
H12 O13 1_555 1_555
C21 H13 1_555 1_555
H14 C21 1_555 1_555
H15 C21 1_555 1_555
C22 C21 1_555 1_555
H16 C22 1_555 1_555
H17 C22 1_555 1_555
O15 C22 1_555 1_555
H18 O15 1_555 1_555
C23 H19 1_555 1_555
H20 C23 1_555 1_555
H21 C23 1_555 1_555
C24 C23 1_555 1_555
H22 C24 1_555 1_555
H23 C24 1_555 1_555
O16 C24 1_555 1_555
H24 O16 1_555 1_555
C5 C6 1_555 1_555
C10 N4 1_555 1_555
C15 C16 1_555 1_555
C20 N8 1_555 1_555

#END
