
#######################################################################
#
#                 Cambridge Crystallographic Data Centre
#                                CCDC 
#
#######################################################################
#
# If this CIF has been generated from an entry in the Cambridge 
# Structural Database, then it will include bibliographic, chemical, 
# crystal, experimental, refinement or atomic coordinate data resulting 
# from the CCDC's data processing and validation procedures.
#
#######################################################################

data_OLUVOI
_chemical_formula_moiety         'C14 H15 N3 O2'
_chemical_name_systematic        
2-(2-(2,6-dimethoxybenzylidene)hydrazino)pyridine
_symmetry_cell_setting           monoclinic
_symmetry_space_group_name_H-M   'P 21/a'
_symmetry_Int_Tables_number      14
_space_group_name_Hall           '-P 2yab'
loop_
_symmetry_equiv_pos_site_id
_symmetry_equiv_pos_as_xyz
1 x,y,z
2 1/2-x,1/2+y,-z
3 -x,-y,-z
4 1/2+x,1/2-y,z
_cell_length_a                   18.7719(13)
_cell_length_b                   6.1485(4)
_cell_length_c                   24.1944(17)
_cell_angle_alpha                90
_cell_angle_beta                 111.344(3)
_cell_angle_gamma                90
_cell_volume                     2600.96
_exptl_crystal_colour            colorless
_exptl_crystal_description       Block
_cell_formula_units_Z            8
loop_
_atom_site_label
_atom_site_type_symbol
_atom_site_fract_x
_atom_site_fract_y
_atom_site_fract_z
O1 O 0.28584(8) 0.8810(2) 0.20210(6)
O2 O 0.25595(8) 1.4767(2) 0.07383(6)
N1 N 0.15940(9) 0.9462(3) 0.10720(8)
C1 C 0.04677(11) 0.7366(3) 0.07097(9)
N2 N 0.08682(9) 0.9181(3) 0.06670(8)
H1 H 0.0666(13) 1.018(4) 0.0386(10)
N3 N -0.02663(9) 0.7302(3) 0.03320(8)
C2 C 0.27117(11) 1.1827(3) 0.13901(9)
C3 C 0.31653(11) 1.0683(3) 0.19048(9)
C4 C 0.19363(11) 1.1194(3) 0.10036(9)
H2 H 0.1670 1.2126 0.0681
C5 C 0.38848(12) 1.1463(4) 0.22597(10)
H3 H 0.4184 1.0693 0.2607
C6 C 0.30187(11) 1.3741(3) 0.12483(9)
C7 C 0.08030(12) 0.5703(3) 0.11215(9)
H4 H 0.1325 0.5778 0.1375
C8 C 0.37377(12) 1.4507(4) 0.15987(10)
H5 H 0.3936 1.5798 0.1494
C9 C -0.06773(11) 0.5544(3) 0.03616(10)
H6 H -0.1189 0.5449 0.0087
C10 C 0.03546(12) 0.3967(3) 0.11475(10)
H7 H 0.0563 0.2835 0.1427
C11 C 0.32526(13) 0.7757(4) 0.25763(10)
H8 H 0.3771 0.7370 0.2603
H9 H 0.2975 0.6437 0.2604
H10 H 0.3282 0.8744 0.2902
C12 C -0.04066(12) 0.3871(3) 0.07628(10)
H11 H -0.0727 0.2694 0.0777
C13 C 0.28650(13) 1.6620(4) 0.05449(11)
H12 H 0.2983 1.7760 0.0848
H13 H 0.2488 1.7167 0.0173
H14 H 0.3333 1.6204 0.0481
C14 C 0.41607(12) 1.3355(4) 0.21050(10)
H15 H 0.4650 1.3878 0.2350
O3 O 0.18773(9) 0.4366(2) 0.41767(7)
O4 O 0.07788(8) -0.1489(3) 0.28977(7)
N4 N 0.05214(10) -0.0746(3) 0.38981(8)
N5 N -0.06080(9) -0.2644(3) 0.46986(8)
N6 N 0.01902(10) -0.0901(3) 0.43155(8)
H16 H 0.0271(13) 0.014(4) 0.4608(10)
C15 C 0.09251(12) 0.0971(3) 0.39296(10)
H17 H 0.0966 0.1985 0.4236
C16 C 0.13239(11) 0.1475(3) 0.35298(9)
C17 C -0.02573(11) -0.2683(3) 0.43046(9)
C18 C -0.10487(11) -0.4371(3) 0.47006(10)
H18 H -0.1295 -0.4378 0.4981
C19 C -0.03256(12) -0.4422(3) 0.39120(9)
H19 H -0.0058 -0.4413 0.3646
C20 C 0.22076(12) 0.3923(4) 0.33010(10)
H20 H 0.2528 0.5170 0.3394
C21 C 0.12560(11) 0.0273(3) 0.30135(9)
C22 C 0.21240(13) 0.2686(4) 0.28020(11)
H21 H 0.2397 0.3094 0.2556
C23 C -0.07899(13) -0.6136(4) 0.39226(10)
H22 H -0.0854 -0.7324 0.3658
C24 C 0.16552(12) 0.0879(4) 0.26526(10)
H23 H 0.1606 0.0059 0.2308
C25 C -0.11674(12) -0.6122(4) 0.43251(10)
H24 H -0.1495 -0.7283 0.4339
C26 C 0.18124(12) 0.3301(3) 0.36621(10)
C27 C 0.23311(13) 0.6304(4) 0.43246(11)
H25 H 0.2314 0.6916 0.4694
H26 H 0.2128 0.7368 0.4004
H27 H 0.2861 0.5954 0.4378
C28 C 0.06716(14) -0.2681(4) 0.23655(10)
H28 H 0.0468 -0.1710 0.2023
H29 H 0.0310 -0.3874 0.2328
H30 H 0.1163 -0.3277 0.2382
loop_
_geom_bond_atom_site_label_1
_geom_bond_atom_site_label_2
_geom_bond_site_symmetry_1
_geom_bond_site_symmetry_2
O1 C3 1_555 1_555
O2 C6 1_555 1_555
N1 N2 1_555 1_555
C1 N2 1_555 1_555
N2 H1 1_555 1_555
N3 C1 1_555 1_555
C2 C3 1_555 1_555
C3 C5 1_555 1_555
C4 N1 1_555 1_555
H2 C4 1_555 1_555
C5 H3 1_555 1_555
C6 C2 1_555 1_555
C7 C1 1_555 1_555
H4 C7 1_555 1_555
C8 C6 1_555 1_555
H5 C8 1_555 1_555
C9 N3 1_555 1_555
H6 C9 1_555 1_555
C10 C7 1_555 1_555
H7 C10 1_555 1_555
C11 O1 1_555 1_555
H8 C11 1_555 1_555
H9 C11 1_555 1_555
H10 C11 1_555 1_555
C12 C9 1_555 1_555
H11 C12 1_555 1_555
C13 O2 1_555 1_555
H12 C13 1_555 1_555
H13 C13 1_555 1_555
H14 C13 1_555 1_555
C14 C5 1_555 1_555
H15 C14 1_555 1_555
O3 C26 1_555 1_555
O4 C21 1_555 1_555
N4 N6 1_555 1_555
N5 C17 1_555 1_555
N6 H16 1_555 1_555
C15 N4 1_555 1_555
H17 C15 1_555 1_555
C16 C15 1_555 1_555
C17 N6 1_555 1_555
C18 N5 1_555 1_555
H18 C18 1_555 1_555
C19 C17 1_555 1_555
H19 C19 1_555 1_555
C20 H20 1_555 1_555
C21 C16 1_555 1_555
C22 C20 1_555 1_555
H21 C22 1_555 1_555
C23 C19 1_555 1_555
H22 C23 1_555 1_555
C24 C21 1_555 1_555
H23 C24 1_555 1_555
C25 C18 1_555 1_555
H24 C25 1_555 1_555
C26 C16 1_555 1_555
C27 O3 1_555 1_555
H25 C27 1_555 1_555
H26 C27 1_555 1_555
H27 C27 1_555 1_555
C28 O4 1_555 1_555
H28 C28 1_555 1_555
H29 C28 1_555 1_555
H30 C28 1_555 1_555
C2 C4 1_555 1_555
C8 C14 1_555 1_555
C10 C12 1_555 1_555
C20 C26 1_555 1_555
C22 C24 1_555 1_555
C23 C25 1_555 1_555

#END
