
#######################################################################
#
#                 Cambridge Crystallographic Data Centre
#                                CCDC 
#
#######################################################################
#
# If this CIF has been generated from an entry in the Cambridge 
# Structural Database, then it will include bibliographic, chemical, 
# crystal, experimental, refinement or atomic coordinate data resulting 
# from the CCDC's data processing and validation procedures.
#
#######################################################################

data_OLUWIC
_chemical_formula_moiety         'C30 H40 Cl2 Na2 O18'
_chemical_name_systematic        
(\m~2~-15,15'-Ethene-1,2-diyl-bis(2,3,5,6,8,9,11,12-octahydro-1,4,7,10,13-benzopentaoxacyclopentadecine))-bis(pechlorato-O,O')-di-sodium
_symmetry_cell_setting           monoclinic
_symmetry_space_group_name_H-M   'P 21/c'
_symmetry_Int_Tables_number      14
_space_group_name_Hall           '-P 2ybc'
loop_
_symmetry_equiv_pos_site_id
_symmetry_equiv_pos_as_xyz
1 x,y,z
2 -x,1/2+y,1/2-z
3 -x,-y,-z
4 x,1/2-y,1/2+z
_cell_length_a                   26.083(2)
_cell_length_b                   9.2443(9)
_cell_length_c                   15.8150(13)
_cell_angle_alpha                90
_cell_angle_beta                 96.659(5)
_cell_angle_gamma                90
_cell_volume                     3787.57
_exptl_crystal_colour            colorless
_exptl_crystal_description       plate
_cell_formula_units_Z            4
loop_
_atom_site_label
_atom_site_type_symbol
_atom_site_fract_x
_atom_site_fract_y
_atom_site_fract_z
Na1 Na 0.6368(2) 0.6554(5) 0.6691(3)
Na2 Na 0.1096(2) 0.9689(6) 0.3571(3)
Cl1 Cl 0.62976(12) 0.9344(3) 0.77028(18)
O1 O 0.6709(4) 0.8265(10) 0.7881(6)
O2 O 0.5929(4) 0.8813(12) 0.7031(7)
O3 O 0.6049(4) 0.9600(12) 0.8454(6)
O4 O 0.6525(4) 1.0634(11) 0.7433(7)
Cl2 Cl 0.10292(13) 1.2697(4) 0.4401(2)
O5 O 0.1147(4) 1.2455(12) 0.3550(6)
O6 O 0.0897(5) 1.1319(13) 0.4742(8)
O7 O 0.0608(4) 1.3647(12) 0.4452(6)
O8 O 0.1490(4) 1.3185(13) 0.4939(7)
O9 O 0.5536(3) 0.5741(10) 0.6182(5)
O10 O 0.6068(3) 0.4971(9) 0.7694(5)
O11 O 0.7067(3) 0.5072(10) 0.7277(5)
O12 O 0.7101(4) 0.7211(11) 0.6032(6)
O13 O 0.6128(3) 0.7086(9) 0.5239(5)
O14 O 0.1453(3) 0.8158(10) 0.4654(5)
O15 O 0.0461(3) 0.7997(10) 0.3949(6)
O16 O 0.0343(4) 0.9844(10) 0.2590(6)
O17 O 0.1341(3) 0.9779(9) 0.2116(5)
O18 O 0.1993(3) 0.9412(10) 0.3578(5)
C1 C 0.5253(6) 0.5226(16) 0.6839(9)
H1 H 0.4940 0.4707 0.6589
H2 H 0.5146 0.6046 0.7181
C2 C 0.5604(5) 0.4203(15) 0.7401(8)
H3 H 0.5430 0.3880 0.7892
H4 H 0.5686 0.3340 0.7072
C3 C 0.6462(5) 0.4029(15) 0.8110(9)
H5 H 0.6466 0.3104 0.7796
H6 H 0.6387 0.3815 0.8697
C4 C 0.6980(5) 0.4765(15) 0.8134(9)
H7 H 0.6981 0.5672 0.8467
H8 H 0.7255 0.4125 0.8406
C5 C 0.7532(6) 0.5837(18) 0.7201(9)
H9 H 0.7832 0.5209 0.7387
H10 H 0.7552 0.6699 0.7574
C6 C 0.7554(6) 0.6299(18) 0.6294(9)
H11 H 0.7875 0.6849 0.6247
H12 H 0.7551 0.5439 0.5920
C7 C 0.7016(5) 0.7348(15) 0.5123(7)
H13 H 0.7037 0.6386 0.4854
H14 H 0.7282 0.7981 0.4921
C8 C 0.6479(5) 0.8000(14) 0.4880(9)
H15 H 0.6463 0.8993 0.5109
H16 H 0.6397 0.8039 0.4253
C9 C 0.5606(5) 0.7356(14) 0.5063(8)
C10 C 0.5392(5) 0.8333(13) 0.4410(7)
H17 H 0.5604 0.8850 0.4065
C11 C 0.4850(5) 0.8485(15) 0.4306(8)
H18 H 0.4703 0.9164 0.3897
C12 C 0.4523(5) 0.7720(14) 0.4755(7)
C13 C 0.4763(5) 0.6780(14) 0.5417(8)
H19 H 0.4553 0.6272 0.5770
C14 C 0.5284(5) 0.6613(14) 0.5543(7)
C15 C 0.3960(5) 0.7888(14) 0.4602(7)
H20 H 0.3836 0.8631 0.4217
C16 C 0.3607(5) 0.7123(15) 0.4939(9)
H21 H 0.3729 0.6319 0.5279
C17 C 0.3061(6) 0.7374(16) 0.4849(9)
C18 C 0.2750(5) 0.6712(15) 0.5395(8)
H22 H 0.2912 0.6086 0.5822
C19 C 0.2213(5) 0.6908(15) 0.5358(8)
H23 H 0.2019 0.6429 0.5748
C20 C 0.1972(5) 0.7824(15) 0.4732(8)
C21 C 0.2268(5) 0.8511(15) 0.4160(8)
C22 C 0.2789(5) 0.8268(14) 0.4211(8)
H24 H 0.2978 0.8714 0.3804
C23 C 0.1113(6) 0.7161(18) 0.5025(10)
H25 H 0.1214 0.7069 0.5645
H26 H 0.1127 0.6192 0.4762
C24 C 0.0586(5) 0.7779(17) 0.4852(8)
H27 H 0.0332 0.7112 0.5063
H28 H 0.0569 0.8713 0.5154
C25 C -0.0020(5) 0.8740(15) 0.3740(8)
H29 H -0.0013 0.9695 0.4024
H30 H -0.0309 0.8167 0.3919
C26 C -0.0076(6) 0.8914(18) 0.2785(9)
H31 H -0.0054 0.7962 0.2505
H32 H -0.0413 0.9359 0.2582
C27 C 0.0435(5) 0.9817(14) 0.1706(8)
H33 H 0.0148 1.0291 0.1347
H34 H 0.0464 0.8806 0.1510
C28 C 0.0937(6) 1.0627(16) 0.1648(8)
H35 H 0.1002 1.0731 0.1047
H36 H 0.0922 1.1603 0.1901
C29 C 0.1822(5) 1.0587(15) 0.2246(8)
H37 H 0.1767 1.1521 0.2528
H38 H 0.1949 1.0788 0.1692
C30 C 0.2215(5) 0.9677(15) 0.2803(8)
H39 H 0.2280 0.8753 0.2516
H40 H 0.2546 1.0204 0.2921
loop_
_geom_bond_atom_site_label_1
_geom_bond_atom_site_label_2
_geom_bond_site_symmetry_1
_geom_bond_site_symmetry_2
Na1 O1 1_555 1_555
Na2 O5 1_555 1_555
Cl1 O1 1_555 1_555
O2 Na1 1_555 1_555
O3 Cl1 1_555 1_555
O4 Cl1 1_555 1_555
Cl2 O5 1_555 1_555
O6 Na2 1_555 1_555
O7 Cl2 1_555 1_555
O8 Cl2 1_555 1_555
O9 Na1 1_555 1_555
O10 Na1 1_555 1_555
O11 Na1 1_555 1_555
O12 Na1 1_555 1_555
O13 Na1 1_555 1_555
O14 Na2 1_555 1_555
O15 Na2 1_555 1_555
O16 Na2 1_555 1_555
O17 Na2 1_555 1_555
O18 Na2 1_555 1_555
C1 O9 1_555 1_555
H1 C1 1_555 1_555
H2 C1 1_555 1_555
C2 O10 1_555 1_555
H3 C2 1_555 1_555
H4 C2 1_555 1_555
C3 O10 1_555 1_555
H5 C3 1_555 1_555
H6 C3 1_555 1_555
C4 O11 1_555 1_555
H7 C4 1_555 1_555
H8 C4 1_555 1_555
C5 O11 1_555 1_555
H9 C5 1_555 1_555
H10 C5 1_555 1_555
C6 O12 1_555 1_555
H11 C6 1_555 1_555
H12 C6 1_555 1_555
C7 O12 1_555 1_555
H13 C7 1_555 1_555
H14 C7 1_555 1_555
C8 O13 1_555 1_555
H15 C8 1_555 1_555
H16 C8 1_555 1_555
C9 O13 1_555 1_555
C10 C9 1_555 1_555
H17 C10 1_555 1_555
C11 C10 1_555 1_555
H18 C11 1_555 1_555
C12 C11 1_555 1_555
C13 C12 1_555 1_555
H19 C13 1_555 1_555
C14 O9 1_555 1_555
C15 C12 1_555 1_555
H20 C15 1_555 1_555
C16 C15 1_555 1_555
H21 C16 1_555 1_555
C17 C16 1_555 1_555
C18 C17 1_555 1_555
H22 C18 1_555 1_555
C19 C18 1_555 1_555
H23 C19 1_555 1_555
C20 O14 1_555 1_555
C21 O18 1_555 1_555
C22 C17 1_555 1_555
H24 C22 1_555 1_555
C23 O14 1_555 1_555
H25 C23 1_555 1_555
H26 C23 1_555 1_555
C24 O15 1_555 1_555
H27 C24 1_555 1_555
H28 C24 1_555 1_555
C25 O15 1_555 1_555
H29 C25 1_555 1_555
H30 C25 1_555 1_555
C26 O16 1_555 1_555
H31 C26 1_555 1_555
H32 C26 1_555 1_555
C27 O16 1_555 1_555
H33 C27 1_555 1_555
H34 C27 1_555 1_555
C28 O17 1_555 1_555
H35 C28 1_555 1_555
H36 C28 1_555 1_555
C29 O17 1_555 1_555
H37 C29 1_555 1_555
H38 C29 1_555 1_555
C30 O18 1_555 1_555
H39 C30 1_555 1_555
H40 C30 1_555 1_555
Cl1 O2 1_555 1_555
Cl2 O6 1_555 1_555
C1 C2 1_555 1_555
C3 C4 1_555 1_555
C5 C6 1_555 1_555
C7 C8 1_555 1_555
C9 C14 1_555 1_555
C13 C14 1_555 1_555
C19 C20 1_555 1_555
C20 C21 1_555 1_555
C21 C22 1_555 1_555
C23 C24 1_555 1_555
C25 C26 1_555 1_555
C27 C28 1_555 1_555
C29 C30 1_555 1_555

#END
