
#######################################################################
#
#                 Cambridge Crystallographic Data Centre
#                                CCDC 
#
#######################################################################
#
# If this CIF has been generated from an entry in the Cambridge 
# Structural Database, then it will include bibliographic, chemical, 
# crystal, experimental, refinement or atomic coordinate data resulting 
# from the CCDC's data processing and validation procedures.
#
#######################################################################

data_OLUYEA
_chemical_formula_moiety         'C68 H96 Cs2 O24 2+,2(C6 H2 N3 O7 1-),2(C6 H6)'
_chemical_name_systematic        
"bis(\m~2~-15,15'-Ethene-1,2-diyl-bis(2,3,5,6,8,9,11,12,14,15-decahydro-1,4,7,10,13,16-benzohexaoxacyclo-octadecine))-di-cesium dipicrate benzene solvate"
_symmetry_cell_setting           triclinic
_symmetry_space_group_name_H-M   'P -1'
_symmetry_Int_Tables_number      2
_space_group_name_Hall           '-P 1'
loop_
_symmetry_equiv_pos_site_id
_symmetry_equiv_pos_as_xyz
1 x,y,z
2 -x,-y,-z
_cell_length_a                   12.7413(3)
_cell_length_b                   17.2121(4)
_cell_length_c                   23.8339(5)
_cell_angle_alpha                83.200(1)
_cell_angle_beta                 80.486(1)
_cell_angle_gamma                70.437(1)
_cell_volume                     4846.22
_exptl_crystal_colour            yellow
_exptl_crystal_description       plate
_cell_formula_units_Z            2
loop_
_atom_site_label
_atom_site_type_symbol
_atom_site_fract_x
_atom_site_fract_y
_atom_site_fract_z
Cs1 Cs -0.06030(4) 0.51103(2) 0.250141(17)
Cs2 Cs 1.14406(4) -0.08188(3) 0.228916(18)
O1 O 0.1781(4) 0.4841(3) 0.29407(17)
O2 O -0.2077(7) 0.6157(6) 0.3557(3)
O3 O -0.0451(5) 0.6804(3) 0.1715(2)
O4 O 0.1617(4) 0.5740(3) 0.19865(18)
O5 O 0.9971(5) 0.0432(3) 0.3263(2)
O6 O 1.1664(5) -0.0975(3) 0.3628(2)
O7 O 1.3708(6) -0.1130(4) 0.2852(3)
O8 O 1.3823(5) -0.0533(3) 0.1670(3)
O9 O 1.1793(5) 0.0766(4) 0.1382(3)
O10 O 0.9885(5) 0.1133(3) 0.2237(2)
O11 O 0.1377(4) 0.3271(3) 0.20801(18)
O12 O 0.0748(4) 0.4606(3) 0.12742(19)
O13 O -0.1674(5) 0.5134(4) 0.1351(2)
O14 O -0.3273(19) 0.530(2) 0.2394(5)
O15 O -0.2196(5) 0.4240(4) 0.3330(2)
O16 O 0.0031(5) 0.3130(3) 0.2993(2)
O17 O 0.9510(5) -0.1609(3) 0.29749(19)
O18 O 1.1833(5) -0.2592(3) 0.2917(2)
O19 O 1.3086(6) -0.2639(4) 0.1829(3)
O20 O 1.2351(6) -0.1358(5) 0.0994(3)
O21 O 0.8821(4) -0.0604(3) 0.21255(18)
C1 C 0.1918(7) 0.4419(5) 0.3498(3)
H1 H 0.2645 0.4398 0.3607
H2 H 0.1916 0.3845 0.3493
C2 C 0.0995(9) 0.4864(7) 0.3911(4)
H3 H 0.1134 0.4619 0.4299
H4 H 0.0972 0.5447 0.3892
O22 O -0.0060(9) 0.4841(9) 0.3811(4)
C3 C -0.1044(14) 0.5103(11) 0.4183(7)
H5 H -0.0837 0.5082 0.4568
H6 H -0.1442 0.4694 0.4197
O23 O -0.2569(10) 0.6866(8) 0.2405(5)
C4 C -0.1803(12) 0.5878(10) 0.4078(5)
H7 H -0.2512 0.5903 0.4331
H8 H -0.1512 0.6282 0.4209
C5 C -0.2861(12) 0.6872(9) 0.3513(6)
H9 H -0.2640 0.7287 0.3678
H10 H -0.3564 0.6832 0.3744
C6 C -0.3079(17) 0.7155(12) 0.2956(8)
H11 H -0.3069 0.7731 0.2925
H12 H -0.3878 0.7201 0.2966
C7 C -0.2349(11) 0.7282(8) 0.1976(6)
H13 H -0.2971 0.7813 0.2007
H14 H -0.2486 0.7013 0.1663
C8 C -0.1424(8) 0.7518(5) 0.1744(4)
H15 H -0.1335 0.7918 0.1983
H16 H -0.1527 0.7787 0.1357
C9 C 0.0538(7) 0.7019(5) 0.1575(3)
H17 H 0.0630 0.7308 0.1890
H18 H 0.0485 0.7399 0.1227
C10 C 0.1518(7) 0.6268(4) 0.1477(3)
H19 H 0.1424 0.5976 0.1165
H20 H 0.2209 0.6422 0.1363
C11 C 0.2602(6) 0.5092(4) 0.2006(3)
C12 C 0.3473(6) 0.4906(4) 0.1564(3)
H21 H 0.3405 0.5223 0.1209
C13 C 0.4444(6) 0.4259(4) 0.1637(3)
H22 H 0.5042 0.4139 0.1330
C14 C 0.4569(7) 0.3780(4) 0.2148(3)
C15 C 0.3674(6) 0.3968(4) 0.2587(3)
H23 H 0.3733 0.3640 0.2938
C16 C 0.2713(7) 0.4614(4) 0.2525(3)
C17 C 0.5621(7) 0.3113(4) 0.2220(3)
H24 H 0.6190 0.3014 0.1900
C18 C 0.5856(7) 0.2627(5) 0.2699(3)
H25 H 0.5241 0.2687 0.2995
C19 C 0.8865(6) 0.1323(4) 0.2589(3)
C20 C 0.7865(6) 0.1839(4) 0.2433(3)
H26 H 0.7829 0.2068 0.2052
C21 C 0.6905(7) 0.2029(4) 0.2829(3)
C22 C 0.6968(7) 0.1662(5) 0.3384(3)
H27 H 0.6314 0.1787 0.3658
C23 C 0.7978(7) 0.1115(4) 0.3539(3)
H28 H 0.8011 0.0868 0.3916
C24 C 0.8928(7) 0.0935(4) 0.3143(3)
C25 C 1.0093(8) 0.0170(5) 0.3850(3)
H29 H 0.9679 -0.0226 0.3988
H30 H 0.9780 0.0651 0.4087
C26 C 1.1302(8) -0.0229(5) 0.3896(3)
H31 H 1.1733 0.0136 0.3709
H32 H 1.1420 -0.0337 0.4302
C27 C 1.2771(9) -0.1525(6) 0.3728(4)
H33 H 1.2879 -0.2074 0.3595
H34 H 1.2807 -0.1596 0.4143
C28 C 1.3717(8) -0.1223(7) 0.3434(5)
H35 H 1.3638 -0.0687 0.3577
H36 H 1.4444 -0.1623 0.3522
C29 C 1.4574(8) -0.0891(6) 0.2530(5)
H37 H 1.5151 -0.1393 0.2376
H38 H 1.4925 -0.0674 0.2789
C30 C 1.4300(12) -0.0282(10) 0.2059(7)
H39 H 1.3774 0.0242 0.2207
H40 H 1.4993 -0.0174 0.1866
C31 C 1.3623(11) 0.0060(8) 0.1160(6)
H41 H 1.4355 0.0134 0.1002
H42 H 1.3422 -0.0218 0.0874
C32 C 1.2900(9) 0.0780(8) 0.1189(5)
H43 H 1.2916 0.1076 0.0807
H44 H 1.3110 0.1092 0.1451
C33 C 1.1111(9) 0.1578(5) 0.1546(3)
H45 H 1.1152 0.1983 0.1219
H46 H 1.1417 0.1722 0.1861
C34 C 0.9929(7) 0.1642(4) 0.1732(3)
H47 H 0.9475 0.2222 0.1803
H48 H 0.9625 0.1460 0.1434
C35 C 0.2095(6) 0.3326(4) 0.1564(3)
H49 H 0.2541 0.2767 0.1440
H50 H 0.2619 0.3618 0.1617
C36 C 0.1346(7) 0.3801(4) 0.1126(3)
H51 H 0.1810 0.3819 0.0752
H52 H 0.0811 0.3512 0.1090
C37 C 0.0083(8) 0.5121(5) 0.0855(3)
H53 H 0.0532 0.5046 0.0473
H54 H -0.0116 0.5708 0.0936
C38 C -0.0948(9) 0.4923(7) 0.0853(4)
H55 H -0.1324 0.5226 0.0523
H56 H -0.0756 0.4324 0.0811
C39 C -0.2693(9) 0.4940(8) 0.1388(5)
H57 H -0.3013 0.5129 0.1025
H58 H -0.2522 0.4333 0.1442
C40 C -0.3500(9) 0.5316(9) 0.1843(4)
H59 H -0.3816 0.5906 0.1716
H60 H -0.4116 0.5078 0.1874
C41 C -0.3752(9) 0.4813(7) 0.2790(5)
H61 H -0.3679 0.4306 0.2608
H62 H -0.4565 0.5117 0.2873
C42 C -0.3324(11) 0.4575(10) 0.3308(6)
H63 H -0.3599 0.5068 0.3534
H64 H -0.3677 0.4170 0.3512
C43 C -0.1926(9) 0.3379(6) 0.3299(5)
H65 H -0.1996 0.3263 0.2912
H66 H -0.2459 0.3174 0.3576
C44 C -0.0783(8) 0.2954(5) 0.3422(3)
H67 H -0.0697 0.3120 0.3791
H68 H -0.0650 0.2350 0.3460
C45 C 0.1109(7) 0.2668(4) 0.3002(3)
C46 C 0.1536(8) 0.2139(5) 0.3459(3)
H69 H 0.1045 0.2106 0.3801
C47 C 0.2638(8) 0.1669(5) 0.3430(3)
H70 H 0.2896 0.1307 0.3747
C48 C 0.3395(6) 0.1711(4) 0.2943(3)
C49 C 0.2988(7) 0.2270(4) 0.2487(3)
H71 H 0.3493 0.2328 0.2157
C50 C 0.1853(6) 0.2740(4) 0.2513(3)
C51 C 0.4606(7) 0.1171(4) 0.2867(3)
H72 H 0.5042 0.1243 0.2513
C52 C 0.5137(7) 0.0594(5) 0.3252(3)
H73 H 0.4707 0.0550 0.3613
C53 C 0.8061(7) -0.0530(4) 0.2612(3)
C54 C 0.6977(7) 0.0012(4) 0.2659(3)
H74 H 0.6708 0.0366 0.2340
C55 C 0.6272(6) 0.0038(4) 0.3183(3)
C56 C 0.6677(8) -0.0483(5) 0.3630(3)
H75 H 0.6199 -0.0473 0.3981
C57 C 0.7770(7) -0.1032(5) 0.3588(3)
H76 H 0.8038 -0.1375 0.3911
C58 C 0.8459(7) -0.1073(4) 0.3077(3)
C59 C 0.9964(8) -0.2164(5) 0.3442(3)
H77 H 0.9382 -0.2385 0.3661
H78 H 1.0193 -0.1861 0.3703
C60 C 1.0968(8) -0.2867(4) 0.3216(3)
H79 H 1.1255 -0.3256 0.3538
H80 H 1.0729 -0.3170 0.2960
C61 C 1.2814(7) -0.3264(5) 0.2757(4)
H81 H 1.2614 -0.3674 0.2576
H82 H 1.3170 -0.3541 0.3099
C62 C 1.3624(8) -0.2926(6) 0.2341(5)
H83 H 1.3752 -0.2464 0.2500
H84 H 1.4356 -0.3363 0.2256
C63 C 1.3828(8) -0.2458(6) 0.1363(4)
H85 H 1.4434 -0.2969 0.1247
H86 H 1.4174 -0.2068 0.1468
C64 C 1.3168(10) -0.2088(6) 0.0899(4)
H87 H 1.3686 -0.2007 0.0556
H88 H 1.2817 -0.2485 0.0812
C65 C 1.1652(10) -0.0961(8) 0.0553(4)
H89 H 1.1230 -0.1323 0.0486
H90 H 1.2139 -0.0892 0.0195
C66 C 1.0846(13) -0.0145(11) 0.0701(6)
H91 H 1.1277 0.0221 0.0748
H92 H 1.0419 0.0097 0.0376
O24 O 1.0080(10) -0.0146(7) 0.1194(4)
C67 C 0.9155(14) -0.0368(11) 0.1127(7)
H93 H 0.9392 -0.0971 0.1091
H94 H 0.8856 -0.0086 0.0772
C68 C 0.8221(16) -0.0132(16) 0.1638(10)
H95 H 0.7956 0.0471 0.1682
H96 H 0.7575 -0.0310 0.1600
O25 O 0.7876(4) 0.1706(3) 0.0919(2)
O26 O 0.8863(5) 0.2915(3) 0.0763(2)
O27 O 0.8703(5) 0.3463(4) -0.0092(2)
O28 O 0.4845(4) 0.4615(3) -0.0496(2)
O29 O 0.3566(5) 0.4169(4) 0.0018(3)
O30 O 0.4734(6) 0.1673(4) 0.1278(3)
O31 O 0.6340(7) 0.0890(5) 0.0984(4)
N1 N 0.8358(5) 0.3123(3) 0.0344(2)
N2 N 0.4556(5) 0.4143(3) -0.0123(2)
N3 N 0.5657(6) 0.1580(4) 0.1032(3)
C69 C 0.7112(6) 0.2270(4) 0.0710(3)
C70 C 0.7270(5) 0.3009(4) 0.0390(3)
C71 C 0.6473(6) 0.3593(4) 0.0118(2)
H97 H 0.6644 0.4043 -0.0103
C72 C 0.5405(5) 0.3528(4) 0.0166(3)
C73 C 0.5125(6) 0.2880(4) 0.0492(3)
H98 H 0.4380 0.2859 0.0545
C74 C 0.5966(6) 0.2274(4) 0.0734(3)
C75 C 0.1699(11) 0.2440(8) -0.0143(4)
H99 H 0.1101 0.2930 -0.0047
C76 C 0.1519(10) 0.1733(8) -0.0107(4)
H100 H 0.0808 0.1696 0.0066
C77 C 0.2296(15) 0.1073(8) -0.0305(5)
H101 H 0.2125 0.0579 -0.0318
C78 C 0.3351(14) 0.1102(12) -0.0490(6)
H102 H 0.3930 0.0612 -0.0607
C79 C 0.3594(15) 0.1802(17) -0.0513(9)
H103 H 0.4322 0.1826 -0.0660
C80 C 0.2772(18) 0.2463(12) -0.0321(6)
H104 H 0.2930 0.2962 -0.0307
O32? O 0.2145(17) 0.1476(14) 0.4881(13)
O33? O 0.247(2) 0.2938(16) 0.4751(16)
O34? O 0.420(2) 0.2871(17) 0.4420(14)
O35? O 0.7334(16) 0.0720(10) 0.4881(7)
O36? O 0.7086(19) -0.0468(10) 0.5132(9)
O37? O 0.388(3) -0.1090(17) 0.5022(14)
O38? O 0.232(2) -0.003(2) 0.5119(15)
N4? N 0.352(2) 0.2633(11) 0.4758(11)
N5? N 0.6717(12) 0.0307(10) 0.5015(8)
N6? N 0.336(2) -0.0308(14) 0.4977(12)
C81? C 0.3233(11) 0.1225(9) 0.4858(6)
C82? C 0.3823(12) 0.1780(7) 0.4830(6)
C83? C 0.4963(12) 0.1492(8) 0.4881(5)
H105? H 0.5366 0.1871 0.4862
C84? C 0.5513(10) 0.0648(8) 0.4958(6)
C85? C 0.4924(12) 0.0093(7) 0.4986(8)
H106? H 0.5300 -0.0484 0.5039
C86? C 0.3783(12) 0.0381(8) 0.4936(8)
O39? O 0.3819(12) 0.5221(9) 0.3897(5)
O40? O 0.4560(12) 0.6454(8) 0.3850(6)
O41? O 0.469(2) 0.6881(13) 0.4661(8)
O42? O 0.649(3) 0.457(2) 0.5943(16)
O43? O 0.571(3) 0.3607(19) 0.6158(18)
O44? O 0.4534(12) 0.3369(9) 0.3960(5)
O45? O 0.3159(13) 0.3503(11) 0.4638(7)
N7? N 0.4679(17) 0.6317(9) 0.4369(7)
N8? N 0.5679(15) 0.4297(12) 0.5918(7)
N9? N 0.4053(13) 0.3572(9) 0.4425(6)
C87? C 0.4206(12) 0.5001(7) 0.4383(5)
C88? C 0.4533(14) 0.5552(6) 0.4639(6)
C89? C 0.5000(14) 0.5308(8) 0.5145(6)
H107? H 0.5223 0.5684 0.5320
C90? C 0.5140(13) 0.4514(8) 0.5394(5)
C91? C 0.4813(12) 0.3963(6) 0.5137(5)
H108? H 0.4909 0.3420 0.5307
C92? C 0.4346(10) 0.4207(6) 0.4632(5)
C93? C -0.2061(14) 0.3521(8) 0.4949(8)
H109? H -0.2616 0.4052 0.4941
C94? C -0.2313(11) 0.2833(11) 0.4837(7)
H110? H -0.3041 0.2894 0.4753
C95? C -0.1501(15) 0.2057(9) 0.4849(8)
H111? H -0.1673 0.1587 0.4773
C96? C -0.0437(13) 0.1968(9) 0.4973(8)
H112? H 0.0119 0.1438 0.4981
C97? C -0.0184(12) 0.2656(13) 0.5085(8)
H113? H 0.0543 0.2595 0.5169
C98? C -0.0997(17) 0.3432(10) 0.5073(9)
H114? H -0.0824 0.3902 0.5149
C99? C -0.1362(12) 0.2560(14) 0.5086(8)
H115? H -0.2150 0.2666 0.5112
C100? C -0.0628(17) 0.1759(11) 0.5028(9)
H116? H -0.0913 0.1318 0.5015
C101? C 0.0524(16) 0.1604(10) 0.4989(8)
H117? H 0.1026 0.1056 0.4949
C102? C 0.0942(12) 0.2249(14) 0.5008(8)
H118? H 0.1729 0.2142 0.4981
C103? C 0.0207(19) 0.3049(12) 0.5065(10)
H119? H 0.0492 0.3490 0.5078
C104? C -0.0945(17) 0.3205(10) 0.5104(9)
H120? H -0.1447 0.3752 0.5144
C105? C 0.0850(19) 0.4459(17) 0.3792(18)
C106? C -0.0764(12) 0.5506(12) 0.4237(7)
C107? C 1.489(2) -0.100(2) 0.1944(12)
C108? C 1.383(2) 0.0221(14) 0.1521(11)
C109? C -0.173(3) 0.368(2) 0.3742(13)
C110? C 1.0807(19) -0.1118(15) 0.0537(9)
C111? C 0.951(2) -0.0161(14) 0.1180(9)
C112? C 0.8602(17) -0.0124(16) 0.1596(11)
H121? H 0.0545 0.4114 0.3602
H122? H 0.0942 0.4211 0.4184
H123? H -0.0583 0.5907 0.4439
H124? H -0.0800 0.5037 0.4516
H125? H 1.5141 -0.1595 0.1872
H126? H 1.5499 -0.0772 0.1789
H127? H 1.4560 0.0189 0.1288
H128? H 1.3793 0.0491 0.1872
H129? H -0.2300 0.3472 0.3982
H130? H -0.1396 0.3935 0.3988
H131? H 1.1005 -0.1704 0.0456
H132? H 1.0415 -0.0771 0.0224
H133? H 1.0018 0.0080 0.1315
H134? H 0.9240 0.0166 0.0831
H135? H 0.8058 -0.0300 0.1433
H136? H 0.8230 0.0462 0.1683
O46? O -0.300(2) 0.479(4) 0.2306(16)
O47? O 0.0083(17) 0.5222(12) 0.3824(8)
O48? O 1.0085(8) -0.0974(6) 0.1055(4)
O49? O -0.2096(11) 0.7155(10) 0.2710(7)
loop_
_geom_bond_atom_site_label_1
_geom_bond_atom_site_label_2
_geom_bond_site_symmetry_1
_geom_bond_site_symmetry_2
Cs1 O1 1_555 1_555
Cs2 O5 1_555 1_555
O1 C1 1_555 1_555
O2 Cs1 1_555 1_555
O3 Cs1 1_555 1_555
O4 Cs1 1_555 1_555
O5 C24 1_555 1_555
O6 Cs2 1_555 1_555
O7 Cs2 1_555 1_555
O8 Cs2 1_555 1_555
O9 Cs2 1_555 1_555
O10 Cs2 1_555 1_555
O11 Cs1 1_555 1_555
O12 Cs1 1_555 1_555
O13 Cs1 1_555 1_555
O14 Cs1 1_555 1_555
O15 Cs1 1_555 1_555
O16 Cs1 1_555 1_555
O17 Cs2 1_555 1_555
O18 Cs2 1_555 1_555
O19 Cs2 1_555 1_555
O20 Cs2 1_555 1_555
O21 Cs2 1_555 1_555
C1 H1 1_555 1_555
H2 C1 1_555 1_555
C2 C1 1_555 1_555
H3 C2 1_555 1_555
H4 C2 1_555 1_555
O22 Cs1 1_555 1_555
C3 O22 1_555 1_555
H5 C3 1_555 1_555
H6 C3 1_555 1_555
O23 Cs1 1_555 1_555
C4 O2 1_555 1_555
H7 C4 1_555 1_555
H8 C4 1_555 1_555
C5 O2 1_555 1_555
H9 C5 1_555 1_555
H10 C5 1_555 1_555
C6 O23 1_555 1_555
H11 C6 1_555 1_555
H12 C6 1_555 1_555
C7 O23 1_555 1_555
H13 C7 1_555 1_555
H14 C7 1_555 1_555
C8 O3 1_555 1_555
H15 C8 1_555 1_555
H16 C8 1_555 1_555
C9 O3 1_555 1_555
H17 C9 1_555 1_555
H18 C9 1_555 1_555
C10 O4 1_555 1_555
H19 C10 1_555 1_555
H20 C10 1_555 1_555
C11 O4 1_555 1_555
C12 C11 1_555 1_555
H21 C12 1_555 1_555
C13 C12 1_555 1_555
H22 C13 1_555 1_555
C14 C13 1_555 1_555
C15 C14 1_555 1_555
H23 C15 1_555 1_555
C16 O1 1_555 1_555
C17 C14 1_555 1_555
H24 C17 1_555 1_555
C18 C17 1_555 1_555
H25 C18 1_555 1_555
C19 O10 1_555 1_555
C20 C19 1_555 1_555
H26 C20 1_555 1_555
C21 C18 1_555 1_555
C22 C21 1_555 1_555
H27 C22 1_555 1_555
C23 C22 1_555 1_555
H28 C23 1_555 1_555
C24 C19 1_555 1_555
C25 O5 1_555 1_555
H29 C25 1_555 1_555
H30 C25 1_555 1_555
C26 O6 1_555 1_555
H31 C26 1_555 1_555
H32 C26 1_555 1_555
C27 O6 1_555 1_555
H33 C27 1_555 1_555
H34 C27 1_555 1_555
C28 O7 1_555 1_555
H35 C28 1_555 1_555
H36 C28 1_555 1_555
C29 O7 1_555 1_555
H37 C29 1_555 1_555
H38 C29 1_555 1_555
C30 O8 1_555 1_555
H39 C30 1_555 1_555
H40 C30 1_555 1_555
C31 O8 1_555 1_555
H41 C31 1_555 1_555
H42 C31 1_555 1_555
C32 O9 1_555 1_555
H43 C32 1_555 1_555
H44 C32 1_555 1_555
C33 O9 1_555 1_555
H45 C33 1_555 1_555
H46 C33 1_555 1_555
C34 O10 1_555 1_555
H47 C34 1_555 1_555
H48 C34 1_555 1_555
C35 O11 1_555 1_555
H49 C35 1_555 1_555
H50 C35 1_555 1_555
C36 O12 1_555 1_555
H51 C36 1_555 1_555
H52 C36 1_555 1_555
C37 O12 1_555 1_555
H53 C37 1_555 1_555
H54 C37 1_555 1_555
C38 O13 1_555 1_555
H55 C38 1_555 1_555
H56 C38 1_555 1_555
C39 O13 1_555 1_555
H57 C39 1_555 1_555
H58 C39 1_555 1_555
C40 O14 1_555 1_555
H59 C40 1_555 1_555
H60 C40 1_555 1_555
C41 O14 1_555 1_555
H61 C41 1_555 1_555
H62 C41 1_555 1_555
C42 O15 1_555 1_555
H63 C42 1_555 1_555
H64 C42 1_555 1_555
C43 O15 1_555 1_555
H65 C43 1_555 1_555
H66 C43 1_555 1_555
C44 O16 1_555 1_555
H67 C44 1_555 1_555
H68 C44 1_555 1_555
C45 O16 1_555 1_555
C46 C45 1_555 1_555
H69 C46 1_555 1_555
C47 C46 1_555 1_555
H70 C47 1_555 1_555
C48 C47 1_555 1_555
C49 C48 1_555 1_555
H71 C49 1_555 1_555
C50 O11 1_555 1_555
C51 C48 1_555 1_555
H72 C51 1_555 1_555
C52 C51 1_555 1_555
H73 C52 1_555 1_555
C53 O21 1_555 1_555
C54 C53 1_555 1_555
H74 C54 1_555 1_555
C55 C52 1_555 1_555
C56 C55 1_555 1_555
H75 C56 1_555 1_555
C57 C56 1_555 1_555
H76 C57 1_555 1_555
C58 O17 1_555 1_555
C59 O17 1_555 1_555
H77 C59 1_555 1_555
H78 C59 1_555 1_555
C60 O18 1_555 1_555
H79 C60 1_555 1_555
H80 C60 1_555 1_555
C61 O18 1_555 1_555
H81 C61 1_555 1_555
H82 C61 1_555 1_555
C62 O19 1_555 1_555
H83 C62 1_555 1_555
H84 C62 1_555 1_555
C63 O19 1_555 1_555
H85 C63 1_555 1_555
H86 C63 1_555 1_555
C64 O20 1_555 1_555
H87 C64 1_555 1_555
H88 C64 1_555 1_555
C65 O20 1_555 1_555
H89 C65 1_555 1_555
H90 C65 1_555 1_555
C66 C65 1_555 1_555
H91 C66 1_555 1_555
H92 C66 1_555 1_555
O24 Cs2 1_555 1_555
C67 O24 1_555 1_555
H93 C67 1_555 1_555
H94 C67 1_555 1_555
C68 O21 1_555 1_555
H95 C68 1_555 1_555
H96 C68 1_555 1_555
O25 C69 1_555 1_555
O26 N1 1_555 1_555
O27 N1 1_555 1_555
O28 N2 1_555 1_555
O29 N2 1_555 1_555
O30 N3 1_555 1_555
O31 N3 1_555 1_555
N1 C70 1_555 1_555
N2 C72 1_555 1_555
N3 C74 1_555 1_555
C69 C70 1_555 1_555
C70 C71 1_555 1_555
C71 H97 1_555 1_555
C72 C71 1_555 1_555
C73 C72 1_555 1_555
H98 C73 1_555 1_555
C74 C69 1_555 1_555
C75 H99 1_555 1_555
C76 C75 1_555 1_555
H100 C76 1_555 1_555
C77 C76 1_555 1_555
H101 C77 1_555 1_555
C78 C77 1_555 1_555
H102 C78 1_555 1_555
C79 C78 1_555 1_555
H103 C79 1_555 1_555
C80 C75 1_555 1_555
H104 C80 1_555 1_555
C2 O22 1_555 1_555
C3 C4 1_555 1_555
C5 C6 1_555 1_555
C7 C8 1_555 1_555
C9 C10 1_555 1_555
C11 C16 1_555 1_555
C15 C16 1_555 1_555
C20 C21 1_555 1_555
C23 C24 1_555 1_555
C25 C26 1_555 1_555
C27 C28 1_555 1_555
C29 C30 1_555 1_555
C31 C32 1_555 1_555
C33 C34 1_555 1_555
C35 C36 1_555 1_555
C37 C38 1_555 1_555
C39 C40 1_555 1_555
C41 C42 1_555 1_555
C43 C44 1_555 1_555
C45 C50 1_555 1_555
C49 C50 1_555 1_555
C53 C58 1_555 1_555
C54 C55 1_555 1_555
C57 C58 1_555 1_555
C59 C60 1_555 1_555
C61 C62 1_555 1_555
C63 C64 1_555 1_555
C66 O24 1_555 1_555
C67 C68 1_555 1_555
C73 C74 1_555 1_555
C79 C80 1_555 1_555

#END
