
#######################################################################
#
#                 Cambridge Crystallographic Data Centre
#                                CCDC 
#
#######################################################################
#
# If this CIF has been generated from an entry in the Cambridge 
# Structural Database, then it will include bibliographic, chemical, 
# crystal, experimental, refinement or atomic coordinate data resulting 
# from the CCDC's data processing and validation procedures.
#
#######################################################################

data_OMAGIU
_chemical_formula_moiety         'C63 H42 O6,7(C4 H10 O1),2(H2 O1)'
_chemical_name_systematic        
'rac-1^2^,1^6^,3^2^,3^6^,5^2^,5^6^-hexahydroxy-1,3,5(3,7)-tri(triptycena)cyclohexaphane diethyl ether solvate dihydrate'
_symmetry_cell_setting           monoclinic
_symmetry_space_group_name_H-M   'P 21/n'
_symmetry_Int_Tables_number      14
_space_group_name_Hall           '-P 2yn'
loop_
_symmetry_equiv_pos_site_id
_symmetry_equiv_pos_as_xyz
1 x,y,z
2 1/2-x,1/2+y,1/2-z
3 -x,-y,-z
4 1/2+x,1/2-y,1/2+z
_cell_length_a                   16.115(3)
_cell_length_b                   16.717(3)
_cell_length_c                   31.027(6)
_cell_angle_alpha                90
_cell_angle_beta                 93.93(3)
_cell_angle_gamma                90
_cell_volume                     8338.85
_exptl_crystal_colour            colorless
_exptl_crystal_description       plate
_cell_formula_units_Z            4
loop_
_atom_site_label
_atom_site_type_symbol
_atom_site_fract_x
_atom_site_fract_y
_atom_site_fract_z
O1 O 0.3749(2) 0.5977(2) 0.41363(13)
C1 C 0.4836(5) 0.6100(6) 0.4685(3)
H1 H 0.4899 0.6660 0.4628
H2 H 0.5363 0.5880 0.4789
H3 H 0.4441 0.6028 0.4900
C2 C 0.4538(4) 0.5688(4) 0.4285(2)
H4 H 0.4929 0.5773 0.4065
H5 H 0.4505 0.5118 0.4339
C3 C 0.3412(5) 0.5588(4) 0.37549(18)
H6 H 0.3362 0.5019 0.3809
H7 H 0.3785 0.5659 0.3525
C4 C 0.2594(5) 0.5917(5) 0.3620(2)
H8 H 0.2368 0.5637 0.3368
H9 H 0.2648 0.6475 0.3553
H10 H 0.2228 0.5857 0.3849
O2 O 0.4528(3) 0.7917(2) 0.34527(14)
C5 C 0.5725(5) 0.7915(6) 0.3924(4)
H11 H 0.5885 0.8448 0.3850
H12 H 0.6212 0.7610 0.4013
H13 H 0.5361 0.7935 0.4156
C6 C 0.5298(6) 0.7537(5) 0.3551(4)
H14 H 0.5638 0.7575 0.3305
H15 H 0.5209 0.6975 0.3610
C7 C 0.4033(6) 0.7594(4) 0.3099(2)
H16 H 0.3970 0.7022 0.3138
H17 H 0.4304 0.7682 0.2833
C8 C 0.3202(6) 0.7980(4) 0.3069(2)
H18 H 0.2890 0.7798 0.2813
H19 H 0.3268 0.8551 0.3056
H20 H 0.2911 0.7843 0.3318
O3 O 0.9527(3) 0.4657(3) 0.29086(15)
C9 C 0.9883(5) 0.4661(5) 0.2153(3)
H21 H 1.0337 0.4621 0.1970
H22 H 0.9631 0.5180 0.2120
H23 H 0.9477 0.4257 0.2074
C10 C 1.0196(4) 0.4546(5) 0.2610(3)
H24 H 1.0424 0.4012 0.2646
H25 H 1.0639 0.4926 0.2682
C11 C 0.8969(5) 0.4008(5) 0.2927(2)
H26 H 0.9273 0.3528 0.3015
H27 H 0.8695 0.3916 0.2643
C12 C 0.8325(4) 0.4187(5) 0.3247(3)
H28 H 0.8102 0.4713 0.3193
H29 H 0.8580 0.4161 0.3535
H30 H 0.7885 0.3800 0.3214
O4 O 0.9409(2) 0.99519(18) 0.54760(11)
H31 H 0.9425 1.0292 0.5273
H32 H 0.9475 1.0190 0.5718
O5 O 0.93749(17) 0.10284(16) 0.46957(10)
H33 H 0.9772 0.0731 0.4666
O6 O 1.1201(2) 0.38610(19) 0.71399(9)
H34 H 1.1018 0.4318 0.7119
O7 O 1.28304(19) 0.10665(18) 0.68385(9)
H35 H 1.2833 0.0616 0.6734
O8 O 0.74938(17) 0.05391(18) 0.76729(10)
H36 H 0.7431 0.0986 0.7774
O9 O 0.87804(18) -0.17756(17) 0.67193(9)
H37 H 0.8999 -0.1998 0.6521
O10 O 0.71925(19) 0.30204(15) 0.53779(10)
H38 H 0.6870 0.3206 0.5545
C13 C 0.9067(2) 0.2325(2) 0.49606(12)
C14 C 0.9648(2) 0.1719(2) 0.49029(13)
C15 C 1.0472(2) 0.1803(2) 0.50576(12)
H39 H 1.0850 0.1392 0.5022
C16 C 1.0729(2) 0.2502(2) 0.52655(12)
C17 C 1.0162(2) 0.3119(2) 0.53204(12)
C18 C 0.9340(2) 0.3022(2) 0.51699(12)
H40 H 0.8962 0.3431 0.5210
C19 C 1.1605(2) 0.2704(2) 0.54482(12)
H41 H 1.2002 0.2269 0.5414
C20 C 1.0558(2) 0.3859(2) 0.55377(13)
H42 H 1.0161 0.4295 0.5570
C21 C 1.1276(3) 0.4093(2) 0.52665(12)
C22 C 1.1836(3) 0.3467(2) 0.52178(13)
C23 C 1.2524(3) 0.3587(3) 0.49797(13)
H43 H 1.2896 0.3171 0.4940
C24 C 1.2650(3) 0.4341(3) 0.47999(14)
H44 H 1.3113 0.4428 0.4643
C25 C 1.2100(3) 0.4954(3) 0.48525(15)
H45 H 1.2191 0.5451 0.4730
C26 C 1.1407(3) 0.4833(3) 0.50881(13)
H46 H 1.1035 0.5249 0.5125
C27 C 1.1534(2) 0.2941(2) 0.59208(12)
C28 C 1.1972(2) 0.2633(2) 0.62833(12)
H47 H 1.2344 0.2215 0.6252
C29 C 1.1866(2) 0.2939(2) 0.66967(13)
C30 C 1.1302(3) 0.3563(2) 0.67376(14)
C31 C 1.0848(3) 0.3875(2) 0.63719(13)
H48 H 1.0465 0.4284 0.6402
C32 C 1.0976(2) 0.3573(2) 0.59695(12)
C33 C 1.2371(3) 0.2614(2) 0.70871(13)
H49 H 1.2409 0.3020 0.7311
H50 H 1.2930 0.2498 0.7008
C34 C 1.1997(2) 0.1860(2) 0.72664(12)
C35 C 1.1406(2) 0.1911(2) 0.75744(12)
H51 H 1.1232 0.2411 0.7664
C36 C 1.1073(2) 0.1226(2) 0.77487(12)
C37 C 1.1333(2) 0.0475(2) 0.76132(12)
C38 C 1.1914(2) 0.0411(2) 0.73057(12)
H52 H 1.2084 -0.0089 0.7214
C39 C 1.2239(2) 0.1107(2) 0.71354(12)
C40 C 1.0925(2) -0.0212(2) 0.78443(12)
H53 H 1.1104 -0.0740 0.7748
C41 C 1.0461(2) 0.1184(2) 0.81003(12)
H54 H 1.0283 0.1711 0.8197
C42 C 1.0907(2) 0.0697(2) 0.84574(12)
C43 C 1.1158(2) -0.0060(2) 0.83249(13)
C44 C 1.1594(3) -0.0564(3) 0.86118(14)
H55 H 1.1760 -0.1067 0.8523
C45 C 1.1780(3) -0.0311(3) 0.90325(15)
H56 H 1.2077 -0.0647 0.9226
C46 C 1.1535(3) 0.0428(3) 0.91681(15)
H57 H 1.1667 0.0590 0.9451
C47 C 1.1087(3) 0.0938(3) 0.88823(13)
H58 H 1.0910 0.1434 0.8975
C48 C 0.9990(2) -0.0088(2) 0.77751(12)
C49 C 0.9398(2) -0.0606(2) 0.75899(12)
H59 H 0.9563 -0.1103 0.7492
C50 C 0.8559(2) -0.0396(2) 0.75469(12)
C51 C 0.8329(2) 0.0349(2) 0.76994(12)
C52 C 0.8915(2) 0.0877(2) 0.78836(12)
H60 H 0.8748 0.1372 0.7985
C53 C 0.9744(2) 0.0667(2) 0.79164(12)
C54 C 0.7908(3) -0.0949(2) 0.73325(13)
H61 H 0.7388 -0.0877 0.7468
H62 H 0.8084 -0.1499 0.7379
C55 C 0.7762(2) -0.0802(2) 0.68498(12)
C56 C 0.8208(2) -0.1217(2) 0.65524(13)
C57 C 0.8078(2) -0.1087(2) 0.61108(13)
H63 H 0.8389 -0.1364 0.5918
C58 C 0.7479(2) -0.0542(2) 0.59616(13)
C59 C 0.7012(2) -0.0121(2) 0.62501(13)
C60 C 0.7168(2) -0.0248(2) 0.66861(13)
H64 H 0.6870 0.0043 0.6879
C61 C 0.6339(2) 0.0410(2) 0.60259(13)
H65 H 0.6010 0.0700 0.6229
C62 C 0.7205(3) -0.0368(2) 0.54888(13)
H66 H 0.7533 -0.0657 0.5285
C63 C 0.6287(3) -0.0575(2) 0.54425(14)
C64 C 0.5817(3) -0.0158(2) 0.57279(14)
C65 C 0.4969(3) -0.0273(3) 0.57263(17)
H67 H 0.4653 0.0001 0.5918
C66 C 0.4596(3) -0.0822(3) 0.5424(2)
H68 H 0.4025 -0.0907 0.5416
C67 C 0.5058(4) -0.1227(3) 0.51441(19)
H69 H 0.4800 -0.1584 0.4948
C68 C 0.5906(3) -0.1112(3) 0.51493(15)
H70 H 0.6220 -0.1390 0.4958
C69 C 0.6780(2) 0.0962(2) 0.57199(13)
C70 C 0.6747(2) 0.1794(2) 0.57059(13)
H71 H 0.6433 0.2075 0.5896
C71 C 0.7188(2) 0.2202(2) 0.54044(12)
C72 C 0.7656(2) 0.1788(2) 0.51115(12)
C73 C 0.7674(2) 0.0951(2) 0.51353(12)
H72 H 0.7981 0.0665 0.4944
C74 C 0.7246(2) 0.0541(2) 0.54358(12)
C75 C 0.8163(2) 0.2226(2) 0.47967(13)
H73 H 0.7922 0.2750 0.4741
H74 H 0.8139 0.1935 0.4526
C76 C 1.0271(4) -0.0263(4) 0.6549(2)
H75 H 0.9901 -0.0610 0.6381
H76 H 1.0412 -0.0502 0.6826
H77 H 1.0768 -0.0181 0.6401
C77 C 0.9853(5) 0.0526(4) 0.6611(2)
H78 H 0.9459 0.0472 0.6832
H79 H 1.0267 0.0919 0.6710
O12 O 0.9447(6) 0.0790(6) 0.6238(3)
C78 C 0.8892(7) 0.1479(6) 0.6236(5)
H80 H 0.8460 0.1372 0.6431
H81 H 0.8625 0.1538 0.5948
C79 C 0.9307(10) 0.2260(7) 0.6366(5)
H82 H 0.8898 0.2677 0.6370
H83 H 0.9707 0.2393 0.6162
H84 H 0.9584 0.2206 0.6648
O13 O 0.7174(2) 0.0369(2) 0.35945(11)
C82 C 0.7846(6) -0.0444(4) 0.4146(2)
H92 H 0.8161 -0.0700 0.3934
H93 H 0.7351 -0.0749 0.4185
H94 H 0.8175 -0.0415 0.4416
C83 C 0.7617(4) 0.0364(3) 0.40015(17)
H95 H 0.7279 0.0610 0.4212
H96 H 0.8118 0.0681 0.3987
C84 C 0.7028(6) 0.1131(4) 0.3403(2)
H97 H 0.7548 0.1296 0.3290
H98 H 0.6637 0.1047 0.3155
C85 C 0.6737(5) 0.1787(4) 0.3624(2)
H99 H 0.6648 0.2228 0.3429
H100 H 0.7140 0.1934 0.3853
H101 H 0.6222 0.1650 0.3744
O14 O 0.0538(4) 0.2754(4) 0.38533(19)
C86 C -0.0740(6) 0.2286(6) 0.3755(3)
H102 H -0.0801 0.2348 0.3447
H103 H -0.1277 0.2307 0.3870
H104 H -0.0483 0.1780 0.3824
C87 C -0.0163(6) 0.2998(5) 0.3962(3)
H105 H -0.0310 0.3513 0.3834
H106 H -0.0185 0.3028 0.4273
C88 C 0.1162(6) 0.3410(6) 0.4018(3)
H107 H 0.1053 0.3534 0.4314
H108 H 0.1717 0.3185 0.4022
C89 C 0.1166(8) 0.4121(7) 0.3792(4)
H109 H 0.1160 0.4011 0.3488
H110 H 0.1658 0.4419 0.3880
H111 H 0.0683 0.4429 0.3850
O15 O 0.3956(2) 0.23068(19) 0.32756(13)
C90 C 0.3794(5) 0.2818(5) 0.3986(2)
H112 H 0.4038 0.3316 0.3908
H113 H 0.3926 0.2716 0.4288
H114 H 0.3201 0.2846 0.3931
C91 C 0.4129(4) 0.2159(4) 0.3726(2)
H115 H 0.4725 0.2118 0.3789
H116 H 0.3878 0.1656 0.3803
C92 C 0.4341(3) 0.1758(3) 0.3006(2)
H117 H 0.4113 0.1228 0.3044
H118 H 0.4933 0.1738 0.3086
C93 C 0.4205(4) 0.1999(4) 0.2544(2)
H119 H 0.4468 0.1619 0.2366
H120 H 0.4439 0.2520 0.2505
H121 H 0.3619 0.2013 0.2464
O16 O 0.2351(2) 0.29768(19) 0.30468(12)
H122 H 0.2767 0.2693 0.3133
H123 H 0.1940 0.2692 0.3111
O11? O 0.9854(10) 0.0874(8) 0.6211(5)
H85? H 0.9290 0.0453 0.6697
H86? H 1.0163 0.0847 0.6828
C80? C 0.9623(11) 0.1725(9) 0.6207(6)
H87? H 0.9647 0.1916 0.5913
H88? H 1.0048 0.2010 0.6383
C81? C 0.8778(12) 0.1968(18) 0.6362(9)
H89? H 0.8346 0.1672 0.6205
H90? H 0.8693 0.2530 0.6315
H91? H 0.8766 0.1854 0.6665
loop_
_geom_bond_atom_site_label_1
_geom_bond_atom_site_label_2
_geom_bond_site_symmetry_1
_geom_bond_site_symmetry_2
O1 C2 1_555 1_555
C1 H1 1_555 1_555
H2 C1 1_555 1_555
H3 C1 1_555 1_555
C2 C1 1_555 1_555
H4 C2 1_555 1_555
H5 C2 1_555 1_555
C3 O1 1_555 1_555
H6 C3 1_555 1_555
H7 C3 1_555 1_555
C4 C3 1_555 1_555
H8 C4 1_555 1_555
H9 C4 1_555 1_555
H10 C4 1_555 1_555
O2 C6 1_555 1_555
C5 H11 1_555 1_555
H12 C5 1_555 1_555
H13 C5 1_555 1_555
C6 C5 1_555 1_555
H14 C6 1_555 1_555
H15 C6 1_555 1_555
C7 O2 1_555 1_555
H16 C7 1_555 1_555
H17 C7 1_555 1_555
C8 C7 1_555 1_555
H18 C8 1_555 1_555
H19 C8 1_555 1_555
H20 C8 1_555 1_555
O3 C10 1_555 1_555
C9 H21 1_555 1_555
H22 C9 1_555 1_555
H23 C9 1_555 1_555
C10 C9 1_555 1_555
H24 C10 1_555 1_555
H25 C10 1_555 1_555
C11 O3 1_555 1_555
H26 C11 1_555 1_555
H27 C11 1_555 1_555
C12 C11 1_555 1_555
H28 C12 1_555 1_555
H29 C12 1_555 1_555
H30 C12 1_555 1_555
O4 H31 1_555 1_555
H32 O4 1_555 1_555
O5 H33 1_555 1_555
O6 H34 1_555 1_555
O7 H35 1_555 1_555
O8 H36 1_555 1_555
O9 H37 1_555 1_555
O10 H38 1_555 1_555
C13 C14 1_555 1_555
C14 O5 1_555 1_555
C15 C14 1_555 1_555
H39 C15 1_555 1_555
C16 C15 1_555 1_555
C17 C16 1_555 1_555
C18 C13 1_555 1_555
H40 C18 1_555 1_555
C19 C16 1_555 1_555
H41 C19 1_555 1_555
C20 C17 1_555 1_555
H42 C20 1_555 1_555
C21 C20 1_555 1_555
C22 C19 1_555 1_555
C23 C22 1_555 1_555
H43 C23 1_555 1_555
C24 C23 1_555 1_555
H44 C24 1_555 1_555
C25 C24 1_555 1_555
H45 C25 1_555 1_555
C26 C21 1_555 1_555
H46 C26 1_555 1_555
C27 C19 1_555 1_555
C28 C27 1_555 1_555
H47 C28 1_555 1_555
C29 C28 1_555 1_555
C30 O6 1_555 1_555
C31 C30 1_555 1_555
H48 C31 1_555 1_555
C32 C20 1_555 1_555
C33 C29 1_555 1_555
H49 C33 1_555 1_555
H50 C33 1_555 1_555
C34 C33 1_555 1_555
C35 C34 1_555 1_555
H51 C35 1_555 1_555
C36 C35 1_555 1_555
C37 C36 1_555 1_555
C38 C37 1_555 1_555
H52 C38 1_555 1_555
C39 O7 1_555 1_555
C40 C37 1_555 1_555
H53 C40 1_555 1_555
C41 C36 1_555 1_555
H54 C41 1_555 1_555
C42 C41 1_555 1_555
C43 C40 1_555 1_555
C44 C43 1_555 1_555
H55 C44 1_555 1_555
C45 C44 1_555 1_555
H56 C45 1_555 1_555
C46 C45 1_555 1_555
H57 C46 1_555 1_555
C47 C42 1_555 1_555
H58 C47 1_555 1_555
C48 C40 1_555 1_555
C49 C48 1_555 1_555
H59 C49 1_555 1_555
C50 C49 1_555 1_555
C51 O8 1_555 1_555
C52 C51 1_555 1_555
H60 C52 1_555 1_555
C53 C41 1_555 1_555
C54 C50 1_555 1_555
H61 C54 1_555 1_555
H62 C54 1_555 1_555
C55 C54 1_555 1_555
C56 O9 1_555 1_555
C57 C56 1_555 1_555
H63 C57 1_555 1_555
C58 C57 1_555 1_555
C59 C58 1_555 1_555
C60 C55 1_555 1_555
H64 C60 1_555 1_555
C61 C59 1_555 1_555
H65 C61 1_555 1_555
C62 C58 1_555 1_555
H66 C62 1_555 1_555
C63 C62 1_555 1_555
C64 C61 1_555 1_555
C65 C64 1_555 1_555
H67 C65 1_555 1_555
C66 C65 1_555 1_555
H68 C66 1_555 1_555
C67 C66 1_555 1_555
H69 C67 1_555 1_555
C68 C63 1_555 1_555
H70 C68 1_555 1_555
C69 C61 1_555 1_555
C70 C69 1_555 1_555
H71 C70 1_555 1_555
C71 O10 1_555 1_555
C72 C71 1_555 1_555
C73 C72 1_555 1_555
H72 C73 1_555 1_555
C74 C62 1_555 1_555
C75 C13 1_555 1_555
H73 C75 1_555 1_555
H74 C75 1_555 1_555
C76 H75 1_555 1_555
H76 C76 1_555 1_555
H77 C76 1_555 1_555
C77 C76 1_555 1_555
H78 C77 1_555 1_555
H79 C77 1_555 1_555
O12 C77 1_555 1_555
C78 O12 1_555 1_555
H80 C78 1_555 1_555
H81 C78 1_555 1_555
C79 C78 1_555 1_555
H82 C79 1_555 1_555
H83 C79 1_555 1_555
H84 C79 1_555 1_555
O13 C83 1_555 1_555
C82 H92 1_555 1_555
H93 C82 1_555 1_555
H94 C82 1_555 1_555
C83 C82 1_555 1_555
H95 C83 1_555 1_555
H96 C83 1_555 1_555
C84 O13 1_555 1_555
H97 C84 1_555 1_555
H98 C84 1_555 1_555
C85 C84 1_555 1_555
H99 C85 1_555 1_555
H100 C85 1_555 1_555
H101 C85 1_555 1_555
O14 C87 1_555 1_555
C86 H102 1_555 1_555
H103 C86 1_555 1_555
H104 C86 1_555 1_555
C87 C86 1_555 1_555
H105 C87 1_555 1_555
H106 C87 1_555 1_555
C88 O14 1_555 1_555
H107 C88 1_555 1_555
H108 C88 1_555 1_555
C89 C88 1_555 1_555
H109 C89 1_555 1_555
H110 C89 1_555 1_555
H111 C89 1_555 1_555
O15 C91 1_555 1_555
C90 H112 1_555 1_555
H113 C90 1_555 1_555
H114 C90 1_555 1_555
C91 C90 1_555 1_555
H115 C91 1_555 1_555
H116 C91 1_555 1_555
C92 O15 1_555 1_555
H117 C92 1_555 1_555
H118 C92 1_555 1_555
C93 C92 1_555 1_555
H119 C93 1_555 1_555
H120 C93 1_555 1_555
H121 C93 1_555 1_555
O16 H122 1_555 1_555
H123 O16 1_555 1_555
C17 C18 1_555 1_555
C21 C22 1_555 1_555
C25 C26 1_555 1_555
C27 C32 1_555 1_555
C29 C30 1_555 1_555
C31 C32 1_555 1_555
C34 C39 1_555 1_555
C38 C39 1_555 1_555
C42 C43 1_555 1_555
C46 C47 1_555 1_555
C48 C53 1_555 1_555
C50 C51 1_555 1_555
C52 C53 1_555 1_555
C55 C56 1_555 1_555
C59 C60 1_555 1_555
C63 C64 1_555 1_555
C67 C68 1_555 1_555
C69 C74 1_555 1_555
C70 C71 1_555 1_555
C72 C75 1_555 1_555
C73 C74 1_555 1_555

#END
