
#######################################################################
#
#                 Cambridge Crystallographic Data Centre
#                                CCDC 
#
#######################################################################
#
# If this CIF has been generated from an entry in the Cambridge 
# Structural Database, then it will include bibliographic, chemical, 
# crystal, experimental, refinement or atomic coordinate data resulting 
# from the CCDC's data processing and validation procedures.
#
#######################################################################

data_OMEMAV
_chemical_name_common            'Mefloquinium 4-nitrobenzoate'
_chemical_formula_moiety         'C17 H17 F6 N2 O1 1+,C7 H4 N1 O4 1-'
_chemical_name_systematic        
'2-((2,8-bis(trifluoromethyl)quinolin-4-yl)(hydroxy)methyl)piperidinium 4-nitrobenzoate'
_chemical_properties_biological  
'Mefloquine hydrochloride is an antimalarial agent'
_symmetry_cell_setting           monoclinic
_symmetry_space_group_name_H-M   'P 21/n'
_symmetry_Int_Tables_number      14
_space_group_name_Hall           '-P 2yn'
loop_
_symmetry_equiv_pos_site_id
_symmetry_equiv_pos_as_xyz
1 x,y,z
2 1/2-x,1/2+y,1/2-z
3 -x,-y,-z
4 1/2+x,1/2-y,1/2+z
_cell_length_a                   16.9854(8)
_cell_length_b                   6.5069(2)
_cell_length_c                   20.2083(9)
_cell_angle_alpha                90
_cell_angle_beta                 92.116(2)
_cell_angle_gamma                90
_cell_volume                     2231.94
_exptl_crystal_colour            colorless
_exptl_crystal_description       block
_cell_formula_units_Z            4
loop_
_atom_site_label
_atom_site_type_symbol
_atom_site_fract_x
_atom_site_fract_y
_atom_site_fract_z
F1 F 0.45732(15) 0.2193(3) 0.06991(12)
F2 F 0.41994(15) 0.4405(3) -0.00339(10)
F3 F 0.33493(14) 0.2872(4) 0.05437(12)
F4 F 0.21632(13) 0.8954(4) 0.05528(11)
F5 F 0.15064(13) 1.0002(4) 0.13779(11)
F6 F 0.19008(13) 0.6864(4) 0.13420(11)
O1 O 0.62575(15) 0.6409(4) 0.21227(13)
H1 H 0.609(2) 0.551(5) 0.2378(17)
N1 N 0.34984(18) 0.6546(5) 0.11212(14)
N2 N 0.69346(18) 1.0231(5) 0.19949(15)
H2 H 0.690(2) 1.066(6) 0.2422(8)
H3 H 0.7228(19) 0.906(4) 0.1970(19)
C1 C 0.4139(2) 0.5433(6) 0.10756(17)
C2 C 0.4859(2) 0.5825(6) 0.14057(17)
H4 H 0.5290 0.4914 0.1362
C3 C 0.4934(2) 0.7554(6) 0.17968(17)
C4 C 0.4263(2) 0.8839(6) 0.18594(17)
C5 C 0.4263(2) 1.0707(6) 0.22223(17)
H5 H 0.4730 1.1138 0.2455
C6 C 0.3605(2) 1.1888(6) 0.22414(18)
H6 H 0.3624 1.3160 0.2472
C7 C 0.2895(2) 1.1254(6) 0.19246(18)
H7 H 0.2436 1.2079 0.1953
C8 C 0.2864(2) 0.9459(6) 0.15758(18)
C9 C 0.3550(2) 0.8234(6) 0.15233(17)
C10 C 0.5732(2) 0.8112(6) 0.21153(18)
H8 H 0.5661 0.8601 0.2578
C11 C 0.6118(2) 0.9820(6) 0.17114(17)
H9 H 0.5799 1.1101 0.1755
C12 C 0.6180(2) 0.9343(6) 0.09760(17)
H10 H 0.5647 0.9078 0.0779
H11 H 0.6500 0.8088 0.0922
C13 C 0.6558(2) 1.1137(6) 0.06125(18)
H12 H 0.6605 1.0783 0.0139
H13 H 0.6221 1.2372 0.0641
C14 C 0.7371(2) 1.1589(6) 0.09211(18)
H14 H 0.7723 1.0406 0.0846
H15 H 0.7596 1.2807 0.0703
C15 C 0.7333(2) 1.1984(6) 0.16533(18)
H16 H 0.7038 1.3271 0.1727
H17 H 0.7873 1.2160 0.1846
C16 C 0.4062(2) 0.3719(6) 0.05751(19)
C17 C 0.2113(2) 0.8796(7) 0.12145(18)
O2 O 0.80526(15) 0.6966(4) 0.17329(12)
O3 O 0.92085(16) 0.8283(4) 0.20948(12)
O4 O 1.0637(2) 0.7453(5) -0.10412(15)
O5 O 0.9481(2) 0.6539(5) -0.14294(14)
N3 N 0.9937(2) 0.7062(5) -0.09716(17)
C18 C 0.9057(2) 0.7413(6) 0.09517(18)
C19 C 0.8559(2) 0.6865(6) 0.04198(18)
H18 H 0.8021 0.6562 0.0492
C20 C 0.8837(2) 0.6757(6) -0.02135(19)
H19 H 0.8498 0.6394 -0.0580
C21 C 0.9625(2) 0.7197(6) -0.02972(19)
C22 C 1.0137(2) 0.7729(6) 0.0216(2)
H20 H 1.0676 0.8013 0.0142
C23 C 0.9841(2) 0.7838(6) 0.08462(19)
H21 H 1.0181 0.8211 0.1210
C24 C 0.8743(2) 0.7585(6) 0.16516(18)
loop_
_geom_bond_atom_site_label_1
_geom_bond_atom_site_label_2
_geom_bond_site_symmetry_1
_geom_bond_site_symmetry_2
F1 C16 1_555 1_555
F2 C16 1_555 1_555
F3 C16 1_555 1_555
F4 C17 1_555 1_555
F5 C17 1_555 1_555
F6 C17 1_555 1_555
O1 H1 1_555 1_555
N1 C1 1_555 1_555
N2 H2 1_555 1_555
H3 N2 1_555 1_555
C1 C2 1_555 1_555
C2 H4 1_555 1_555
C3 C2 1_555 1_555
C4 C3 1_555 1_555
C5 C4 1_555 1_555
H5 C5 1_555 1_555
C6 C5 1_555 1_555
H6 C6 1_555 1_555
C7 C6 1_555 1_555
H7 C7 1_555 1_555
C8 C7 1_555 1_555
C9 N1 1_555 1_555
C10 O1 1_555 1_555
H8 C10 1_555 1_555
C11 N2 1_555 1_555
H9 C11 1_555 1_555
C12 C11 1_555 1_555
H10 C12 1_555 1_555
H11 C12 1_555 1_555
C13 C12 1_555 1_555
H12 C13 1_555 1_555
H13 C13 1_555 1_555
C14 C13 1_555 1_555
H14 C14 1_555 1_555
H15 C14 1_555 1_555
C15 N2 1_555 1_555
H16 C15 1_555 1_555
H17 C15 1_555 1_555
C16 C1 1_555 1_555
C17 C8 1_555 1_555
O2 C24 1_555 1_555
O3 C24 1_555 1_555
O4 N3 1_555 1_555
O5 N3 1_555 1_555
N3 C21 1_555 1_555
C18 C19 1_555 1_555
C19 H18 1_555 1_555
C20 C19 1_555 1_555
H19 C20 1_555 1_555
C21 C20 1_555 1_555
C22 C21 1_555 1_555
H20 C22 1_555 1_555
C23 C18 1_555 1_555
H21 C23 1_555 1_555
C24 C18 1_555 1_555
C3 C10 1_555 1_555
C4 C9 1_555 1_555
C8 C9 1_555 1_555
C10 C11 1_555 1_555
C14 C15 1_555 1_555
C22 C23 1_555 1_555

#END
