
#######################################################################
#
#                 Cambridge Crystallographic Data Centre
#                                CCDC 
#
#######################################################################
#
# If this CIF has been generated from an entry in the Cambridge 
# Structural Database, then it will include bibliographic, chemical, 
# crystal, experimental, refinement or atomic coordinate data resulting 
# from the CCDC's data processing and validation procedures.
#
#######################################################################

data_OMEROO
_chemical_formula_moiety         'C27 H14 N6'
_chemical_name_systematic        
3-(4-(Diphenylamino)phenyl)buta-1,3-diene-1,1,2,4,4-pentacarbonitrile
_symmetry_cell_setting           monoclinic
_symmetry_space_group_name_H-M   'P 21/n'
_symmetry_Int_Tables_number      14
_space_group_name_Hall           '-P 2yn'
loop_
_symmetry_equiv_pos_site_id
_symmetry_equiv_pos_as_xyz
1 x,y,z
2 1/2-x,1/2+y,1/2-z
3 -x,-y,-z
4 1/2+x,1/2-y,1/2+z
_cell_length_a                   13.556(3)
_cell_length_b                   8.2956(17)
_cell_length_c                   19.778(4)
_cell_angle_alpha                90
_cell_angle_beta                 100.12(3)
_cell_angle_gamma                90
_cell_volume                     2189.53
_exptl_crystal_colour            'blue black'
_exptl_crystal_description       strip
_cell_formula_units_Z            4
loop_
_atom_site_label
_atom_site_type_symbol
_atom_site_fract_x
_atom_site_fract_y
_atom_site_fract_z
N1 N 0.70539(11) 0.70190(17) 0.12432(7)
N2 N 1.09026(13) 0.7153(2) -0.04433(8)
N3 N 1.31754(13) 1.0472(2) 0.05264(9)
N4 N 1.17030(15) 1.3647(2) 0.11239(10)
N5 N 1.21308(14) 1.2670(2) 0.31242(9)
N6 N 1.09450(16) 0.7879(3) 0.27667(10)
C1 C 0.66406(14) 0.5268(2) 0.02306(9)
H1 H 0.6920 0.6035 -0.0039
C2 C 0.62451(16) 0.3829(3) -0.00595(10)
H2 H 0.6276 0.3597 -0.0526
C3 C 0.58085(16) 0.2735(3) 0.03217(11)
H3 H 0.5548 0.1750 0.0120
C4 C 0.57505(16) 0.3075(2) 0.09953(11)
H4 H 0.5429 0.2339 0.1254
C5 C 0.61604(14) 0.4487(2) 0.12977(10)
H5 H 0.6125 0.4713 0.1764
C6 C 0.66224(13) 0.5572(2) 0.09183(9)
C7 C 0.65204(13) 0.7782(2) 0.17263(9)
C8 C 0.56154(14) 0.8543(2) 0.14926(10)
H6 H 0.5345 0.8557 0.1016
C9 C 0.51049(15) 0.9284(2) 0.19555(11)
H7 H 0.4487 0.9815 0.1796
C10 C 0.54949(15) 0.9248(2) 0.26482(11)
H8 H 0.5140 0.9743 0.2967
C11 C 0.63995(15) 0.8494(2) 0.28805(10)
H9 H 0.6669 0.8485 0.3357
C12 C 0.69148(14) 0.7750(2) 0.24205(9)
H10 H 0.7534 0.7223 0.2580
C13 C 0.79814(13) 0.7604(2) 0.11749(8)
C14 C 0.82763(13) 0.9165(2) 0.14188(9)
H11 H 0.7820 0.9817 0.1611
C15 C 0.92068(13) 0.9746(2) 0.13809(9)
H12 H 0.9389 1.0788 0.1560
C16 C 0.99074(13) 0.8848(2) 0.10847(8)
C17 C 0.96119(13) 0.7287(2) 0.08481(8)
H13 H 1.0069 0.6636 0.0656
C18 C 0.86839(13) 0.6686(2) 0.08886(9)
H14 H 0.8509 0.5633 0.0721
C19 C 1.08632(13) 0.9561(2) 0.10232(8)
C20 C 1.14391(13) 0.9198(2) 0.05391(9)
C21 C 1.11340(14) 0.8051(2) -0.00031(9)
C22 C 1.24065(14) 0.9904(2) 0.05378(9)
C23 C 1.12629(12) 1.0824(2) 0.15401(9)
C24 C 1.15254(14) 1.2409(2) 0.13056(9)
C25 C 1.13780(13) 1.0550(2) 0.22222(9)
C26 C 1.17943(14) 1.1748(3) 0.27203(10)
C27 C 1.11247(14) 0.9047(2) 0.25052(9)
loop_
_geom_bond_atom_site_label_1
_geom_bond_atom_site_label_2
_geom_bond_site_symmetry_1
_geom_bond_site_symmetry_2
N1 C6 1_555 1_555
N2 C21 1_555 1_555
N3 C22 1_555 1_555
N4 C24 1_555 1_555
N5 C26 1_555 1_555
N6 C27 1_555 1_555
C1 H1 1_555 1_555
C2 C1 1_555 1_555
H2 C2 1_555 1_555
C3 C2 1_555 1_555
H3 C3 1_555 1_555
C4 C3 1_555 1_555
H4 C4 1_555 1_555
C5 C4 1_555 1_555
H5 C5 1_555 1_555
C6 C1 1_555 1_555
C7 N1 1_555 1_555
C8 C7 1_555 1_555
H6 C8 1_555 1_555
C9 C8 1_555 1_555
H7 C9 1_555 1_555
C10 C9 1_555 1_555
H8 C10 1_555 1_555
C11 C10 1_555 1_555
H9 C11 1_555 1_555
C12 C7 1_555 1_555
H10 C12 1_555 1_555
C13 N1 1_555 1_555
C14 C13 1_555 1_555
H11 C14 1_555 1_555
C15 C14 1_555 1_555
H12 C15 1_555 1_555
C16 C15 1_555 1_555
C17 C16 1_555 1_555
H13 C17 1_555 1_555
C18 C13 1_555 1_555
H14 C18 1_555 1_555
C19 C16 1_555 1_555
C20 C19 1_555 1_555
C21 C20 1_555 1_555
C22 C20 1_555 1_555
C23 C19 1_555 1_555
C24 C23 1_555 1_555
C25 C23 1_555 1_555
C26 C25 1_555 1_555
C27 C25 1_555 1_555
C5 C6 1_555 1_555
C11 C12 1_555 1_555
C17 C18 1_555 1_555

#END
