
#######################################################################
#
#                 Cambridge Crystallographic Data Centre
#                                CCDC 
#
#######################################################################
#
# If this CIF has been generated from an entry in the Cambridge 
# Structural Database, then it will include bibliographic, chemical, 
# crystal, experimental, refinement or atomic coordinate data resulting 
# from the CCDC's data processing and validation procedures.
#
#######################################################################

data_OMIHUP
_chemical_formula_moiety         
'C37 H42 N6 O9,2(C6 H11 N2 1+),O4 P1 3-,C49 H66 K1 N6 O15 1+'
_chemical_name_systematic        
'(18-Crown-6)-(27,30,33,36,39,42-hexaoxa-2,4,11,13,20,22-hexa-azapentacyclo[41.2.2.2^23,26^.0^5,10^.0^14,19^]nonatetraconta-1(45),5,7,9,14,16,18,23,25,43,46,48-dodecaene-3,12,21-trione)-potassium bis(1-ethyl-3-methylimidazolium) 27,30,33,36,39,42-hexaoxa-2,4,11,13,20,22-hexa-azapentacyclo[41.2.2.2^23,26^.0^5,10^.0^14,19^]nonatetraconta-1(45),5,7,9,14,16,18,23,25,43,46,48-dodecaene-3,12,21-trione phosphate'
_symmetry_cell_setting           triclinic
_symmetry_space_group_name_H-M   'P -1'
_symmetry_Int_Tables_number      2
_space_group_name_Hall           '-P 1'
loop_
_symmetry_equiv_pos_site_id
_symmetry_equiv_pos_as_xyz
1 x,y,z
2 -x,-y,-z
_cell_length_a                   14.990(4)
_cell_length_b                   16.270(4)
_cell_length_c                   25.088(6)
_cell_angle_alpha                99.668(4)
_cell_angle_beta                 100.824(4)
_cell_angle_gamma                105.587(4)
_cell_volume                     5632.42
_exptl_crystal_colour            'light yellow'
_exptl_crystal_description       block
_cell_formula_units_Z            2
loop_
_atom_site_label
_atom_site_type_symbol
_atom_site_fract_x
_atom_site_fract_y
_atom_site_fract_z
C1 C 0.8715(7) 0.0728(7) 0.1001(5)
H1 H 0.8125 0.0616 0.0755
N1 N 0.8957(9) 0.1101(7) 0.1583(6)
C2 C 0.9924(9) 0.1160(6) 0.1800(4)
H2 H 1.0264 0.1380 0.2171
C3 C 1.0279(7) 0.0823(7) 0.1353(6)
H3 H 1.0892 0.0784 0.1379
N2 N 0.9532(10) 0.0556(6) 0.0859(4)
C4 C 0.8424(14) 0.1280(14) 0.1843(8)
H4 H 0.7806 0.0884 0.1626
H5 H 0.8423 0.1854 0.1784
C5 C 0.8342(13) 0.1335(12) 0.2403(8)
H6 H 0.7854 0.0825 0.2420
H7 H 0.8176 0.1851 0.2530
H8 H 0.8940 0.1364 0.2637
C6 C 0.9570(15) 0.0085(13) 0.0289(8)
C7 C 0.2690(7) 0.5449(6) 0.8838(5)
H9 H 0.2212 0.4947 0.8836
N3 N 0.2581(7) 0.6089(8) 0.8531(4)
C8 C 0.3480(9) 0.6747(6) 0.8651(5)
H10 H 0.3611 0.7244 0.8506
C9 C 0.4144(6) 0.6514(7) 0.9032(4)
H11 H 0.4786 0.6831 0.9180
N4 N 0.3656(8) 0.5711(7) 0.9147(4)
C10 C 0.1624(14) 0.5894(13) 0.8105(8)
H12 H 0.1392 0.5291 0.7892
H13 H 0.1666 0.6287 0.7853
C11 C 0.0943(14) 0.6091(13) 0.8547(8)
H14 H 0.0919 0.5691 0.8789
H15 H 0.0309 0.6011 0.8337
H16 H 0.1216 0.6682 0.8766
C12 C 0.4002(13) 0.5195(12) 0.9482(7)
H17 H 0.4515 0.5568 0.9789
H18 H 0.4230 0.4792 0.9263
H19 H 0.3496 0.4874 0.9622
C13 C 0.1834(7) 1.1303(7) 0.2889(4)
C14 C 0.0497(7) 1.0161(7) 0.3008(4)
C15 C 0.0271(8) 1.0537(8) 0.3458(5)
H20 H 0.0752 1.0940 0.3747
C16 C -0.0697(8) 1.0331(8) 0.3503(5)
H21 H -0.0869 1.0616 0.3802
C17 C -0.1324(8) 0.9718(8) 0.3100(5)
H22 H -0.1948 0.9546 0.3138
C18 C -0.1155(7) 0.9310(7) 0.2632(5)
H23 H -0.1648 0.8899 0.2354
C19 C -0.0180(7) 0.9538(6) 0.2581(4)
C20 C -0.0417(8) 0.8843(6) 0.1556(4)
C21 C -0.0114(7) 0.8295(6) 0.0657(5)
C22 C -0.1057(8) 0.8121(7) 0.0313(5)
H24 H -0.1549 0.8238 0.0457
C23 C -0.1188(8) 0.7760(7) -0.0262(5)
H25 H -0.1777 0.7688 -0.0497
C24 C -0.0541(9) 0.7512(8) -0.0499(5)
C25 C 0.0389(7) 0.7702(7) -0.0143(4)
H26 H 0.0880 0.7574 -0.0284
C26 C 0.0537(7) 0.8077(6) 0.0406(4)
H27 H 0.1147 0.8193 0.0630
C27 C -0.1435(9) 0.6939(8) -0.1407(5)
H28 H -0.1535 0.7492 -0.1448
H29 H -0.1946 0.6609 -0.1268
C28 C -0.1391(10) 0.6418(8) -0.1960(5)
H30 H -0.1311 0.5867 -0.1898
H31 H -0.2011 0.6278 -0.2217
C29 C -0.0975(11) 0.6278(10) -0.2802(6)
H32 H -0.1619 0.6255 -0.2976
H33 H -0.0974 0.5680 -0.2810
C30 C -0.0328(12) 0.6653(11) -0.3141(6)
H34 H -0.0134 0.7289 -0.3052
H35 H -0.0613 0.6430 -0.3537
C31 C 0.1842(12) 0.6088(11) -0.3228(7)
H36 H 0.2030 0.5909 -0.3567
H37 H 0.1689 0.5578 -0.3069
C32 C 0.0996(13) 0.6306(12) -0.3379(7)
H38 H 0.0577 0.5888 -0.3713
H39 H 0.1146 0.6885 -0.3457
C33 C 0.3379(12) 0.7280(10) -0.2972(6)
H40 H 0.3126 0.7675 -0.3158
H41 H 0.3601 0.6931 -0.3240
C34 C 0.4188(9) 0.7797(8) -0.2519(5)
H42 H 0.4638 0.8189 -0.2667
H43 H 0.4504 0.7406 -0.2372
C35 C 0.4738(8) 0.8837(7) -0.1655(4)
H44 H 0.5193 0.9186 -0.1821
H45 H 0.5043 0.8474 -0.1467
C36 C 0.4449(7) 0.9425(6) -0.1245(4)
H46 H 0.5010 0.9882 -0.1008
H47 H 0.4032 0.9701 -0.1440
C37 C 0.3714(7) 0.9385(6) -0.0485(4)
C38 C 0.3799(7) 1.0252(6) -0.0383(4)
H48 H 0.4061 1.0589 -0.0613
C39 C 0.3510(6) 1.0645(6) 0.0050(4)
H49 H 0.3548 1.1233 0.0094
C40 C 0.3161(7) 1.0189(6) 0.0426(4)
C41 C 0.3055(6) 0.9320(6) 0.0331(4)
H50 H 0.2809 0.9002 0.0574
C42 C 0.3312(6) 0.8872(6) -0.0134(4)
H51 H 0.3219 0.8271 -0.0201
C43 C 0.3129(7) 1.1375(7) 0.1158(4)
C44 C 0.3294(7) 1.2307(7) 0.2084(4)
C45 C 0.3780(7) 1.3134(7) 0.2018(5)
H52 H 0.3893 1.3190 0.1672
C46 C 0.4089(8) 1.3851(8) 0.2445(5)
H53 H 0.4442 1.4381 0.2389
C47 C 0.3907(8) 1.3826(7) 0.2937(5)
H54 H 0.4125 1.4328 0.3224
C48 C 0.3382(7) 1.3030(7) 0.3014(5)
H55 H 0.3198 1.3004 0.3346
C49 C 0.3130(6) 1.2267(6) 0.2593(4)
N5 N 0.0150(6) 0.8681(5) 0.1225(3)
H56 H 0.0750 0.8834 0.1382
N6 N 0.0087(5) 0.9147(4) 0.2126(3)
H57 H 0.0644 0.9080 0.2201
N7 N 0.1462(5) 1.0470(5) 0.2947(3)
H58 H 0.1807 1.0124 0.2947
N8 N 0.2645(5) 1.1452(4) 0.2709(3)
H59 H 0.2888 1.1030 0.2662
N9 N 0.2987(5) 1.1535(5) 0.1677(3)
H60 H 0.2654 1.1086 0.1769
N10 N 0.2881(5) 1.0534(5) 0.0883(3)
H61 H 0.2498 1.0162 0.1009
O1 O -0.1279(4) 0.8737(4) 0.1416(3)
O2 O 0.1449(4) 1.1864(4) 0.2982(3)
O3 O 0.3482(5) 1.2001(4) 0.0941(3)
O4 O 0.3966(4) 0.8920(4) -0.0916(3)
O5 O 0.3964(6) 0.8322(5) -0.2058(3)
O6 O 0.2692(8) 0.6760(7) -0.2830(4)
O7 O 0.0534(8) 0.6293(7) -0.2935(4)
O8 O -0.0732(7) 0.6758(6) -0.2221(4)
O9 O -0.0572(5) 0.7074(5) -0.1062(3)
C50 C 0.3514(5) 0.9041(5) 0.3733(3)
C51 C 0.5025(5) 1.0130(5) 0.3741(3)
C52 C 0.5378(6) 1.0433(5) 0.4315(3)
H62 H 0.4979 1.0324 0.4555
C53 C 0.6351(6) 1.0908(6) 0.4524(4)
H63 H 0.6593 1.1128 0.4907
C54 C 0.6957(7) 1.1057(6) 0.4173(4)
H64 H 0.7604 1.1360 0.4317
C55 C 0.6575(6) 1.0738(5) 0.3594(4)
H65 H 0.6974 1.0836 0.3353
C56 C 0.5609(5) 1.0280(5) 0.3378(3)
C57 C 0.5628(6) 0.9477(5) 0.2468(3)
C58 C 0.5250(6) 0.8481(5) 0.1541(3)
C59 C 0.6177(6) 0.8466(6) 0.1527(4)
H66 H 0.6688 0.8818 0.1819
C60 C 0.6352(7) 0.7933(6) 0.1083(4)
H67 H 0.6969 0.7916 0.1090
C61 C 0.5620(8) 0.7441(7) 0.0642(4)
C62 C 0.4678(7) 0.7477(6) 0.0633(4)
H68 H 0.4171 0.7164 0.0328
C63 C 0.4536(6) 0.7989(6) 0.1090(4)
H69 H 0.3917 0.7996 0.1089
C64 C 0.6606(9) 0.6770(9) 0.0225(5)
H70 H 0.6695 0.6435 0.0505
H71 H 0.7111 0.7327 0.0343
C65 C 0.6654(11) 0.6255(10) -0.0350(6)
H72 H 0.6610 0.6625 -0.0613
H73 H 0.7281 0.6176 -0.0304
C66 C 0.6328(10) 0.5050(9) -0.1024(6)
H74 H 0.6613 0.5460 -0.1230
H75 H 0.6814 0.4807 -0.0866
C67 C 0.5631(10) 0.4413(9) -0.1373(6)
H76 H 0.5388 0.3984 -0.1168
H77 H 0.5901 0.4131 -0.1646
C68 C 0.3494(10) 0.4180(10) -0.2334(6)
H78 H 0.3270 0.3909 -0.2730
H79 H 0.3738 0.4810 -0.2289
C69 C 0.4207(10) 0.3870(10) -0.2091(6)
H80 H 0.4528 0.3672 -0.2365
H81 H 0.3941 0.3384 -0.1931
C70 C 0.2095(8) 0.3153(7) -0.2103(5)
H82 H 0.2378 0.2865 -0.1840
H83 H 0.1954 0.2788 -0.2475
C71 C 0.1210(7) 0.3264(6) -0.1978(4)
H84 H 0.0992 0.3648 -0.2192
H85 H 0.0714 0.2701 -0.2079
C72 C 0.0530(6) 0.3681(6) -0.1236(3)
H86 H 0.0056 0.3105 -0.1354
H87 H 0.0277 0.4080 -0.1418
C73 C 0.0760(6) 0.4001(5) -0.0609(3)
H88 H 0.0173 0.3911 -0.0486
H89 H 0.1128 0.3669 -0.0432
C74 C 0.1435(5) 0.5316(6) 0.0098(4)
C75 C 0.1881(5) 0.6214(6) 0.0234(4)
H90 H 0.2071 0.6503 -0.0035
C76 C 0.2039(5) 0.6682(6) 0.0787(3)
H91 H 0.2334 0.7286 0.0877
C77 C 0.1772(5) 0.6279(6) 0.1202(3)
C78 C 0.1339(6) 0.5386(5) 0.1050(3)
H92 H 0.1159 0.5088 0.1318
C79 C 0.1166(6) 0.4918(6) 0.0503(3)
H93 H 0.0858 0.4317 0.0413
C80 C 0.1567(6) 0.6554(6) 0.2160(3)
C81 C 0.1468(6) 0.7237(5) 0.3104(3)
C82 C 0.0845(6) 0.6482(6) 0.3195(4)
H94 H 0.0511 0.6002 0.2901
C83 C 0.0739(7) 0.6469(7) 0.3739(4)
H95 H 0.0359 0.5966 0.3811
C84 C 0.1192(7) 0.7190(7) 0.4157(4)
H96 H 0.1097 0.7182 0.4512
C85 C 0.1787(6) 0.7930(6) 0.4073(3)
H97 H 0.2085 0.8420 0.4367
C86 C 0.1946(6) 0.7946(6) 0.3537(3)
C87 C 0.3913(10) 0.6784(9) 0.5471(5)
H98 H 0.3614 0.6325 0.5642
H99 H 0.3575 0.7214 0.5487
C88 C 0.4900(10) 0.7192(9) 0.5767(5)
H100 H 0.4920 0.7435 0.6152
H101 H 0.5209 0.6739 0.5769
C89 C 0.6325(9) 0.8257(9) 0.5866(5)
H102 H 0.6653 0.7823 0.5905
H103 H 0.6307 0.8535 0.6236
C90 C 0.6872(9) 0.8936(8) 0.5609(5)
H104 H 0.6566 0.9389 0.5589
H105 H 0.7516 0.9208 0.5841
C91 C 0.7331(10) 0.9151(9) 0.4860(6)
H106 H 0.7989 0.9421 0.5072
H107 H 0.7021 0.9603 0.4861
C92 C 0.7304(10) 0.8742(9) 0.4265(6)
H108 H 0.7692 0.9170 0.4107
H109 H 0.7556 0.8251 0.4258
C93 C 0.6319(8) 0.8085(8) 0.3413(5)
H110 H 0.6550 0.7580 0.3389
H111 H 0.6689 0.8501 0.3240
C94 C 0.5282(8) 0.7807(8) 0.3121(5)
H112 H 0.5034 0.8291 0.3216
H113 H 0.5221 0.7686 0.2722
C95 C 0.3735(8) 0.6798(8) 0.2995(4)
C96 C 0.3316(9) 0.6078(8) 0.3233(5)
H114 H 0.2655 0.5799 0.3028
H115 H 0.3650 0.5646 0.3186
C97 C 0.2894(9) 0.5613(8) 0.4020(5)
H116 H 0.2230 0.5336 0.3821
H117 H 0.3221 0.5173 0.4006
C98 C 0.2971(9) 0.6028(8) 0.4594(5)
H118 H 0.2632 0.6458 0.4588
H119 H 0.2641 0.5584 0.4764
K1 K 0.48458(15) 0.77279(14) 0.44270(8)
N11 N 0.2582(4) 0.8689(4) 0.3448(2)
H120 H 0.2368 0.8937 0.3198
N12 N 0.4016(4) 0.9672(4) 0.3529(2)
H121 H 0.3715 0.9815 0.3250
N13 N 0.5220(4) 0.9919(4) 0.2799(2)
H122 H 0.4688 0.9986 0.2650
N14 N 0.5020(4) 0.8985(4) 0.1967(2)
H123 H 0.4438 0.8990 0.1912
N15 N 0.1931(4) 0.6822(4) 0.1724(3)
H124 H 0.2278 0.7359 0.1782
N16 N 0.1614(4) 0.7244(4) 0.2560(3)
H125 H 0.1748 0.7747 0.2477
O10 O 0.3863(3) 0.8791(3) 0.41410(19)
O11 O 0.6473(4) 0.9501(4) 0.2593(2)
O12 O 0.5714(5) 0.6913(5) 0.0174(3)
O13 O 0.6060(7) 0.5540(6) -0.0560(4)
O14 O 0.4871(6) 0.4602(5) -0.1658(3)
O15 O 0.2734(6) 0.3969(6) -0.2068(3)
O16 O 0.1394(4) 0.3643(4) -0.1381(2)
O17 O 0.1291(4) 0.4905(4) -0.0454(2)
O18 O 0.1269(4) 0.5796(4) 0.2190(2)
O19 O 0.3870(6) 0.6436(6) 0.4931(4)
O20 O 0.5443(7) 0.7863(6) 0.5561(3)
O21 O 0.6904(6) 0.8565(6) 0.5089(4)
O22 O 0.6412(6) 0.8473(5) 0.3973(4)
O23 O 0.4750(6) 0.7100(5) 0.3248(3)
O24 O 0.3348(6) 0.6324(5) 0.3776(4)
O25 O 0.1902(3) 0.8937(3) 0.23983(19)
O26 O 0.3424(3) 1.0090(3) 0.2475(2)
O27 O 0.3047(4) 0.8573(3) 0.1841(2)
O28 O 0.2110(3) 0.9624(4) 0.1596(2)
P1 P 0.26247(15) 0.92919(16) 0.20659(9)
loop_
_geom_bond_atom_site_label_1
_geom_bond_atom_site_label_2
_geom_bond_site_symmetry_1
_geom_bond_site_symmetry_2
C1 H1 1_555 1_555
N1 C1 1_555 1_555
C2 N1 1_555 1_555
H2 C2 1_555 1_555
C3 C2 1_555 1_555
H3 C3 1_555 1_555
N2 C1 1_555 1_555
C4 N1 1_555 1_555
H4 C4 1_555 1_555
H5 C4 1_555 1_555
C5 C4 1_555 1_555
H6 C5 1_555 1_555
H7 C5 1_555 1_555
H8 C5 1_555 1_555
C6 N2 1_555 1_555
C7 H9 1_555 1_555
N3 C7 1_555 1_555
C8 N3 1_555 1_555
H10 C8 1_555 1_555
C9 C8 1_555 1_555
H11 C9 1_555 1_555
N4 C7 1_555 1_555
C10 N3 1_555 1_555
H12 C10 1_555 1_555
H13 C10 1_555 1_555
C11 C10 1_555 1_555
H14 C11 1_555 1_555
H15 C11 1_555 1_555
H16 C11 1_555 1_555
C12 N4 1_555 1_555
H17 C12 1_555 1_555
H18 C12 1_555 1_555
H19 C12 1_555 1_555
C13 N7 1_555 1_555
C14 C15 1_555 1_555
C15 H20 1_555 1_555
C16 C15 1_555 1_555
H21 C16 1_555 1_555
C17 C16 1_555 1_555
H22 C17 1_555 1_555
C18 C17 1_555 1_555
H23 C18 1_555 1_555
C19 C14 1_555 1_555
C20 N5 1_555 1_555
C21 C22 1_555 1_555
C22 H24 1_555 1_555
C23 C22 1_555 1_555
H25 C23 1_555 1_555
C24 C23 1_555 1_555
C25 C24 1_555 1_555
H26 C25 1_555 1_555
C26 C21 1_555 1_555
H27 C26 1_555 1_555
C27 H28 1_555 1_555
H29 C27 1_555 1_555
C28 C27 1_555 1_555
H30 C28 1_555 1_555
H31 C28 1_555 1_555
C29 H32 1_555 1_555
H33 C29 1_555 1_555
C30 C29 1_555 1_555
H34 C30 1_555 1_555
H35 C30 1_555 1_555
C31 H36 1_555 1_555
H37 C31 1_555 1_555
C32 C31 1_555 1_555
H38 C32 1_555 1_555
H39 C32 1_555 1_555
C33 H40 1_555 1_555
H41 C33 1_555 1_555
C34 C33 1_555 1_555
H42 C34 1_555 1_555
H43 C34 1_555 1_555
C35 H44 1_555 1_555
H45 C35 1_555 1_555
C36 C35 1_555 1_555
H46 C36 1_555 1_555
H47 C36 1_555 1_555
C37 C38 1_555 1_555
C38 H48 1_555 1_555
C39 C38 1_555 1_555
H49 C39 1_555 1_555
C40 C39 1_555 1_555
C41 C40 1_555 1_555
H50 C41 1_555 1_555
C42 C37 1_555 1_555
H51 C42 1_555 1_555
C43 N9 1_555 1_555
C44 C45 1_555 1_555
C45 H52 1_555 1_555
C46 C45 1_555 1_555
H53 C46 1_555 1_555
C47 C46 1_555 1_555
H54 C47 1_555 1_555
C48 C47 1_555 1_555
H55 C48 1_555 1_555
C49 C44 1_555 1_555
N5 C21 1_555 1_555
H56 N5 1_555 1_555
N6 C19 1_555 1_555
H57 N6 1_555 1_555
N7 C14 1_555 1_555
H58 N7 1_555 1_555
N8 C13 1_555 1_555
H59 N8 1_555 1_555
N9 C44 1_555 1_555
H60 N9 1_555 1_555
N10 C40 1_555 1_555
H61 N10 1_555 1_555
O1 C20 1_555 1_555
O2 C13 1_555 1_555
O3 C43 1_555 1_555
O4 C36 1_555 1_555
O5 C34 1_555 1_555
O6 C31 1_555 1_555
O7 C30 1_555 1_555
O8 C28 1_555 1_555
O9 C24 1_555 1_555
C50 N11 1_555 1_555
C51 C52 1_555 1_555
C52 H62 1_555 1_555
C53 C52 1_555 1_555
H63 C53 1_555 1_555
C54 C53 1_555 1_555
H64 C54 1_555 1_555
C55 C54 1_555 1_555
H65 C55 1_555 1_555
C56 C51 1_555 1_555
C57 N13 1_555 1_555
C58 C59 1_555 1_555
C59 H66 1_555 1_555
C60 C59 1_555 1_555
H67 C60 1_555 1_555
C61 C60 1_555 1_555
C62 C61 1_555 1_555
H68 C62 1_555 1_555
C63 C58 1_555 1_555
H69 C63 1_555 1_555
C64 H70 1_555 1_555
H71 C64 1_555 1_555
C65 C64 1_555 1_555
H72 C65 1_555 1_555
H73 C65 1_555 1_555
C66 H74 1_555 1_555
H75 C66 1_555 1_555
C67 C66 1_555 1_555
H76 C67 1_555 1_555
H77 C67 1_555 1_555
C68 H78 1_555 1_555
H79 C68 1_555 1_555
C69 C68 1_555 1_555
H80 C69 1_555 1_555
H81 C69 1_555 1_555
C70 H82 1_555 1_555
H83 C70 1_555 1_555
C71 C70 1_555 1_555
H84 C71 1_555 1_555
H85 C71 1_555 1_555
C72 H86 1_555 1_555
H87 C72 1_555 1_555
C73 C72 1_555 1_555
H88 C73 1_555 1_555
H89 C73 1_555 1_555
C74 C75 1_555 1_555
C75 H90 1_555 1_555
C76 C75 1_555 1_555
H91 C76 1_555 1_555
C77 C76 1_555 1_555
C78 C77 1_555 1_555
H92 C78 1_555 1_555
C79 C74 1_555 1_555
H93 C79 1_555 1_555
C80 N15 1_555 1_555
C81 C82 1_555 1_555
C82 H94 1_555 1_555
C83 C82 1_555 1_555
H95 C83 1_555 1_555
C84 C83 1_555 1_555
H96 C84 1_555 1_555
C85 C84 1_555 1_555
H97 C85 1_555 1_555
C86 C81 1_555 1_555
C87 H98 1_555 1_555
H99 C87 1_555 1_555
C88 C87 1_555 1_555
H100 C88 1_555 1_555
H101 C88 1_555 1_555
C89 H102 1_555 1_555
H103 C89 1_555 1_555
C90 C89 1_555 1_555
H104 C90 1_555 1_555
H105 C90 1_555 1_555
C91 H106 1_555 1_555
H107 C91 1_555 1_555
C92 C91 1_555 1_555
H108 C92 1_555 1_555
H109 C92 1_555 1_555
C93 H110 1_555 1_555
H111 C93 1_555 1_555
C94 C93 1_555 1_555
H112 C94 1_555 1_555
H113 C94 1_555 1_555
C95 C96 1_555 1_555
C96 H114 1_555 1_555
H115 C96 1_555 1_555
C97 H116 1_555 1_555
H117 C97 1_555 1_555
C98 C97 1_555 1_555
H118 C98 1_555 1_555
H119 C98 1_555 1_555
K1 O10 1_555 1_555
N11 C86 1_555 1_555
H120 N11 1_555 1_555
N12 C50 1_555 1_555
H121 N12 1_555 1_555
N13 C56 1_555 1_555
H122 N13 1_555 1_555
N14 C57 1_555 1_555
H123 N14 1_555 1_555
N15 C77 1_555 1_555
H124 N15 1_555 1_555
N16 C80 1_555 1_555
H125 N16 1_555 1_555
O10 C50 1_555 1_555
O11 C57 1_555 1_555
O12 C61 1_555 1_555
O13 C65 1_555 1_555
O14 C67 1_555 1_555
O15 C68 1_555 1_555
O16 C71 1_555 1_555
O17 C73 1_555 1_555
O18 C80 1_555 1_555
O19 C87 1_555 1_555
O20 C88 1_555 1_555
O21 C90 1_555 1_555
O22 C92 1_555 1_555
O23 C94 1_555 1_555
O24 C96 1_555 1_555
O25 P1 1_555 1_555
O26 P1 1_555 1_555
O27 P1 1_555 1_555
O28 P1 1_555 1_555
C3 N2 1_555 1_555
C9 N4 1_555 1_555
C18 C19 1_555 1_555
C20 N6 1_555 1_555
C25 C26 1_555 1_555
C27 O9 1_555 1_555
C29 O8 1_555 1_555
C32 O7 1_555 1_555
C33 O6 1_555 1_555
C35 O5 1_555 1_555
C37 O4 1_555 1_555
C41 C42 1_555 1_555
C43 N10 1_555 1_555
C48 C49 1_555 1_555
C49 N8 1_555 1_555
C51 N12 1_555 1_555
C55 C56 1_555 1_555
C58 N14 1_555 1_555
C62 C63 1_555 1_555
C64 O12 1_555 1_555
C66 O13 1_555 1_555
C69 O14 1_555 1_555
C70 O15 1_555 1_555
C72 O16 1_555 1_555
C74 O17 1_555 1_555
C78 C79 1_555 1_555
C81 N16 1_555 1_555
C85 C86 1_555 1_555
C89 O20 1_555 1_555
C91 O21 1_555 1_555
C93 O22 1_555 1_555
C95 O23 1_555 1_555
C97 O24 1_555 1_555
C98 O19 1_555 1_555
K1 O19 1_555 1_555
K1 O20 1_555 1_555
K1 O21 1_555 1_555
K1 O22 1_555 1_555
K1 O23 1_555 1_555
K1 O24 1_555 1_555

#END
