
#######################################################################
#
#                 Cambridge Crystallographic Data Centre
#                                CCDC 
#
#######################################################################
#
# If this CIF has been generated from an entry in the Cambridge 
# Structural Database, then it will include bibliographic, chemical, 
# crystal, experimental, refinement or atomic coordinate data resulting 
# from the CCDC's data processing and validation procedures.
#
#######################################################################

data_OMIJOL
_chemical_formula_moiety         
'C35 H38 N6 O8,C12 H28 N1 1+,3(C1 H3 N1 O2),Cl1 1-'
_chemical_name_systematic        
'27,30,33,36,39-Pentaoxa-2,4,11,13,20,22-hexaazapentacyclo[38.2.2.2^23,26^.0^5,10^.0^14,19^]hexatetraconta-1(42),5,7,9,14,16,18,23,25,40,43,45-dodecaene-3,12,21-trione tetra-n-propylammonium chloride nitromethane solvate'
_symmetry_cell_setting           monoclinic
_symmetry_space_group_name_H-M   'C c'
_symmetry_Int_Tables_number      9
_space_group_name_Hall           'C -2yc'
loop_
_symmetry_equiv_pos_site_id
_symmetry_equiv_pos_as_xyz
1 x,y,z
2 x,-y,1/2+z
3 1/2+x,1/2+y,z
4 1/2+x,1/2-y,1/2+z
_cell_length_a                   20.611(5)
_cell_length_b                   31.842(8)
_cell_length_c                   8.872(2)
_cell_angle_alpha                90
_cell_angle_beta                 104.307(5)
_cell_angle_gamma                90
_cell_volume                     5642.07
_exptl_crystal_colour            colorless
_exptl_crystal_description       block
_cell_formula_units_Z            4
loop_
_atom_site_label
_atom_site_type_symbol
_atom_site_fract_x
_atom_site_fract_y
_atom_site_fract_z
Cl1 Cl 0.41860(5) 0.10281(3) 0.01075(11)
N1 N 0.36999(16) 0.01022(10) 0.7548(4)
H1 H 0.3729 0.0097 0.8531
N2 N 0.48578(17) 0.01255(9) 0.8163(4)
H2 H 0.4853 0.0107 0.9127
N3 N 0.55380(16) 0.08766(10) 0.8534(4)
H3 H 0.5187 0.0820 0.8855
N4 N 0.53063(17) 0.15414(9) 0.9178(4)
H4 H 0.4956 0.1423 0.9345
N5 N 0.28976(18) 0.08173(10) 0.7047(4)
H5 H 0.3196 0.0787 0.7908
N6 N 0.3016(2) 0.15193(10) 0.7640(4)
H6 H 0.3266 0.1436 0.8515
O1 O 0.42656(13) 0.01637(9) 0.5649(3)
O2 O 0.62823(14) 0.14122(8) 0.8461(3)
O3 O 0.22987(16) 0.13094(9) 0.5380(4)
O4 O 0.53035(14) 0.32601(8) 1.0419(4)
O5 O 0.54297(16) 0.41417(8) 1.0267(4)
O6 O 0.42477(16) 0.45955(9) 0.8603(4)
O7 O 0.33372(15) 0.41121(9) 0.6382(4)
O8 O 0.28879(16) 0.32637(9) 0.6878(4)
C1 C 0.42644(19) 0.01271(11) 0.7034(4)
C2 C 0.54839(19) 0.01546(11) 0.7743(4)
C3 C 0.5736(2) -0.01907(12) 0.7102(5)
H7 H 0.5510 -0.0446 0.7014
C4 C 0.6317(2) -0.01567(13) 0.6597(5)
H8 H 0.6477 -0.0386 0.6147
C5 C 0.6659(2) 0.02211(12) 0.6768(5)
H9 H 0.7053 0.0243 0.6442
C6 C 0.6422(2) 0.05686(13) 0.7419(5)
H10 H 0.6661 0.0819 0.7545
C7 C 0.5820(2) 0.05392(12) 0.7886(4)
C8 C 0.30561(19) 0.00844(12) 0.6481(5)
C9 C 0.2846(2) -0.02811(14) 0.5695(5)
H11 H 0.3120 -0.0517 0.5863
C10 C 0.2216(2) -0.02978(15) 0.4636(5)
H12 H 0.2072 -0.0544 0.4089
C11 C 0.1818(2) 0.00456(15) 0.4418(6)
H13 H 0.1399 0.0030 0.3723
C12 C 0.2015(2) 0.04220(14) 0.5200(5)
H14 H 0.1729 0.0652 0.5045
C13 C 0.2652(2) 0.04471(13) 0.6224(5)
C14 C 0.5759(2) 0.12871(12) 0.8715(4)
C15 C 0.2704(2) 0.12201(14) 0.6601(5)
C16 C 0.5365(2) 0.19859(11) 0.9410(4)
C17 C 0.5959(2) 0.21930(11) 1.0013(4)
H15 H 0.6360 0.2045 1.0219
C18 C 0.5966(2) 0.26237(12) 1.0320(5)
H16 H 0.6371 0.2762 1.0702
C19 C 0.5374(2) 0.28440(12) 1.0056(5)
C20 C 0.4773(2) 0.26418(13) 0.9384(5)
H17 H 0.4373 0.2791 0.9150
C21 C 0.4776(2) 0.22155(12) 0.9067(4)
H18 H 0.4374 0.2081 0.8615
C22 C 0.2932(2) 0.22267(13) 0.8592(5)
H19 H 0.2932 0.2114 0.9559
C23 C 0.2955(2) 0.19557(13) 0.7367(5)
C24 C 0.2943(2) 0.21356(14) 0.5934(5)
H20 H 0.2946 0.1962 0.5091
C25 C 0.2926(2) 0.25686(13) 0.5730(5)
H21 H 0.2928 0.2682 0.4766
C26 C 0.2908(2) 0.28321(13) 0.6975(5)
C27 C 0.5903(2) 0.34787(13) 1.1181(6)
H22 H 0.6196 0.3507 1.0483
H23 H 0.6139 0.3324 1.2093
C28 C 0.5709(3) 0.39060(13) 1.1648(6)
H24 H 0.5383 0.3879 1.2265
H25 H 0.6100 0.4049 1.2270
C29 C 0.5263(3) 0.45606(13) 1.0608(6)
H26 H 0.5666 0.4715 1.1094
H27 H 0.4974 0.4556 1.1321
C30 C 0.4910(2) 0.47713(13) 0.9115(6)
H28 H 0.4882 0.5071 0.9279
H29 H 0.5158 0.4726 0.8330
C31 C 0.3887(3) 0.47657(14) 0.7143(6)
H30 H 0.4143 0.4727 0.6372
H31 H 0.3817 0.5064 0.7251
C32 C 0.3234(2) 0.45493(13) 0.6633(7)
H32 H 0.2984 0.4580 0.7421
H33 H 0.2975 0.4675 0.5678
C33 C 0.2747(2) 0.39188(14) 0.5505(6)
H34 H 0.2625 0.4040 0.4470
H35 H 0.2383 0.3970 0.5998
C34 C 0.2850(2) 0.34523(14) 0.5388(5)
H36 H 0.2480 0.3332 0.4614
H37 H 0.3260 0.3399 0.5071
C35 C 0.2911(2) 0.26551(12) 0.8404(5)
H38 H 0.2898 0.2828 0.9242
N7 N 0.0323(2) 0.30729(11) 0.9350(4)
C36 C 0.0671(2) 0.33393(14) 0.8358(5)
H39 H 0.0330 0.3467 0.7531
H40 H 0.0935 0.3155 0.7875
C37 C 0.1131(2) 0.36901(15) 0.9216(5)
H41 H 0.0865 0.3926 0.9407
H42 H 0.1394 0.3588 1.0209
C38 C 0.1591(3) 0.38270(16) 0.8206(6)
H43 H 0.1896 0.3604 0.8147
H44 H 0.1838 0.4071 0.8653
H45 H 0.1328 0.3892 0.7180
C39 C -0.0125(2) 0.33476(15) 1.0069(5)
H46 H -0.0264 0.3185 1.0859
H47 H 0.0139 0.3582 1.0587
C40 C -0.0747(3) 0.35202(18) 0.8945(6)
H48 H -0.0629 0.3637 0.8039
H49 H -0.1068 0.3296 0.8600
C41 C -0.1051(3) 0.38548(19) 0.9747(9)
H50 H -0.1171 0.3736 1.0636
H51 H -0.1444 0.3965 0.9040
H52 H -0.0733 0.4077 1.0079
C42 C -0.0080(3) 0.27478(16) 0.8291(6)
H53 H 0.0223 0.2588 0.7830
H54 H -0.0392 0.2892 0.7453
C43 C -0.0475(3) 0.24396(17) 0.9030(7)
H55 H -0.0709 0.2589 0.9690
H56 H -0.0174 0.2238 0.9665
C44 C -0.0981(4) 0.2211(2) 0.7719(7)
H57 H -0.1282 0.2412 0.7108
H58 H -0.1231 0.2012 0.8164
H59 H -0.0746 0.2066 0.7067
C45 C 0.0823(3) 0.28637(14) 1.0685(5)
H60 H 0.0578 0.2676 1.1207
H61 H 0.1023 0.3080 1.1425
C46 C 0.1391(3) 0.26118(17) 1.0273(6)
H62 H 0.1206 0.2373 0.9628
H63 H 0.1625 0.2788 0.9686
C47 C 0.1875(4) 0.2460(2) 1.1730(8)
H64 H 0.2082 0.2696 1.2329
H65 H 0.2212 0.2289 1.1457
H66 H 0.1638 0.2297 1.2333
N8 N 0.3157(2) 0.38381(14) 0.1139(5)
O9 O 0.3028(3) 0.41837(15) 0.1561(7)
O10 O 0.2866(2) 0.35166(14) 0.1339(5)
C48 C 0.3684(3) 0.38045(16) 0.0288(6)
H67 H 0.3806 0.4080 0.0020
H68 H 0.3520 0.3643 -0.0642
H69 H 0.4069 0.3668 0.0933
N9 N 0.4720(3) 0.38683(16) 0.5468(6)
O11 O 0.4402(3) 0.3704(2) 0.4288(5)
O12 O 0.5041(3) 0.41970(14) 0.5501(7)
C49 C 0.4767(3) 0.36594(16) 0.6954(6)
H70 H 0.4325 0.3613 0.7093
H71 H 0.5016 0.3833 0.7783
H72 H 0.4991 0.3395 0.6965
N10 N 0.1540(3) 0.14026(18) 0.0672(6)
O13 O 0.1971(3) 0.14681(19) -0.0041(8)
O14 O 0.0990(3) 0.15719(15) 0.0310(6)
C50 C 0.1689(5) 0.1083(3) 0.1947(8)
H73 H 0.1586 0.1198 0.2862
H74 H 0.2154 0.1009 0.2175
H75 H 0.1421 0.0837 0.1623
loop_
_geom_bond_atom_site_label_1
_geom_bond_atom_site_label_2
_geom_bond_site_symmetry_1
_geom_bond_site_symmetry_2
N1 H1 1_555 1_555
N2 H2 1_555 1_555
N3 H3 1_555 1_555
N4 H4 1_555 1_555
N5 H5 1_555 1_555
N6 H6 1_555 1_555
O1 C1 1_555 1_555
O2 C14 1_555 1_555
O3 C15 1_555 1_555
O4 C19 1_555 1_555
O5 C28 1_555 1_555
O6 C30 1_555 1_555
O7 C32 1_555 1_555
O8 C26 1_555 1_555
C1 N1 1_555 1_555
C2 N2 1_555 1_555
C3 C2 1_555 1_555
H7 C3 1_555 1_555
C4 C3 1_555 1_555
H8 C4 1_555 1_555
C5 C4 1_555 1_555
H9 C5 1_555 1_555
C6 C5 1_555 1_555
H10 C6 1_555 1_555
C7 N3 1_555 1_555
C8 N1 1_555 1_555
C9 C8 1_555 1_555
H11 C9 1_555 1_555
C10 C9 1_555 1_555
H12 C10 1_555 1_555
C11 C10 1_555 1_555
H13 C11 1_555 1_555
C12 C11 1_555 1_555
H14 C12 1_555 1_555
C13 N5 1_555 1_555
C14 N3 1_555 1_555
C15 N5 1_555 1_555
C16 N4 1_555 1_555
C17 C16 1_555 1_555
H15 C17 1_555 1_555
C18 C17 1_555 1_555
H16 C18 1_555 1_555
C19 C18 1_555 1_555
C20 C19 1_555 1_555
H17 C20 1_555 1_555
C21 C16 1_555 1_555
H18 C21 1_555 1_555
C22 H19 1_555 1_555
C23 N6 1_555 1_555
C24 C23 1_555 1_555
H20 C24 1_555 1_555
C25 C24 1_555 1_555
H21 C25 1_555 1_555
C26 C25 1_555 1_555
C27 O4 1_555 1_555
H22 C27 1_555 1_555
H23 C27 1_555 1_555
C28 C27 1_555 1_555
H24 C28 1_555 1_555
H25 C28 1_555 1_555
C29 O5 1_555 1_555
H26 C29 1_555 1_555
H27 C29 1_555 1_555
C30 C29 1_555 1_555
H28 C30 1_555 1_555
H29 C30 1_555 1_555
C31 O6 1_555 1_555
H30 C31 1_555 1_555
H31 C31 1_555 1_555
C32 C31 1_555 1_555
H32 C32 1_555 1_555
H33 C32 1_555 1_555
C33 O7 1_555 1_555
H34 C33 1_555 1_555
H35 C33 1_555 1_555
C34 O8 1_555 1_555
H36 C34 1_555 1_555
H37 C34 1_555 1_555
C35 C22 1_555 1_555
H38 C35 1_555 1_555
N7 C36 1_555 1_555
C36 H39 1_555 1_555
H40 C36 1_555 1_555
C37 C36 1_555 1_555
H41 C37 1_555 1_555
H42 C37 1_555 1_555
C38 C37 1_555 1_555
H43 C38 1_555 1_555
H44 C38 1_555 1_555
H45 C38 1_555 1_555
C39 N7 1_555 1_555
H46 C39 1_555 1_555
H47 C39 1_555 1_555
C40 C39 1_555 1_555
H48 C40 1_555 1_555
H49 C40 1_555 1_555
C41 C40 1_555 1_555
H50 C41 1_555 1_555
H51 C41 1_555 1_555
H52 C41 1_555 1_555
C42 N7 1_555 1_555
H53 C42 1_555 1_555
H54 C42 1_555 1_555
C43 C42 1_555 1_555
H55 C43 1_555 1_555
H56 C43 1_555 1_555
C44 C43 1_555 1_555
H57 C44 1_555 1_555
H58 C44 1_555 1_555
H59 C44 1_555 1_555
C45 N7 1_555 1_555
H60 C45 1_555 1_555
H61 C45 1_555 1_555
C46 C45 1_555 1_555
H62 C46 1_555 1_555
H63 C46 1_555 1_555
C47 C46 1_555 1_555
H64 C47 1_555 1_555
H65 C47 1_555 1_555
H66 C47 1_555 1_555
N8 O9 1_555 1_555
O10 N8 1_555 1_555
C48 N8 1_555 1_555
H67 C48 1_555 1_555
H68 C48 1_555 1_555
H69 C48 1_555 1_555
N9 O11 1_555 1_555
O12 N9 1_555 1_555
C49 N9 1_555 1_555
H70 C49 1_555 1_555
H71 C49 1_555 1_555
H72 C49 1_555 1_555
N10 O13 1_555 1_555
O14 N10 1_555 1_555
C50 N10 1_555 1_555
H73 C50 1_555 1_555
H74 C50 1_555 1_555
H75 C50 1_555 1_555
N2 C1 1_555 1_555
N4 C14 1_555 1_555
N6 C15 1_555 1_555
C2 C7 1_555 1_555
C6 C7 1_555 1_555
C8 C13 1_555 1_555
C12 C13 1_555 1_555
C20 C21 1_555 1_555
C22 C23 1_555 1_555
C26 C35 1_555 1_555
C33 C34 1_555 1_555

#END
