
#######################################################################
#
#                 Cambridge Crystallographic Data Centre
#                                CCDC 
#
#######################################################################
#
# If this CIF has been generated from an entry in the Cambridge 
# Structural Database, then it will include bibliographic, chemical, 
# crystal, experimental, refinement or atomic coordinate data resulting 
# from the CCDC's data processing and validation procedures.
#
#######################################################################

data_OMIJUR
_chemical_formula_moiety         
'C37 H42 N6 O9,C8 H20 N1 1+,C4 H10 O1,2(C1 H3 N1 O2),Cl1 1-'
_chemical_name_systematic        
'27,30,33,36,39,42-hexaoxa-2,4,11,13,20,22-hexaazapentacyclo[41.2.2.2^23,26^.0^5,10^.0^14,19^]nonatetraconta-1(45),5,7,9,14,16,18,23,25,43,46,48-dodecaene-3,12,21-trione tetraethylammonium chloride diethyl ether nitromethane solvate'
_symmetry_cell_setting           monoclinic
_symmetry_space_group_name_H-M   'P 21/c'
_symmetry_Int_Tables_number      14
_space_group_name_Hall           '-P 2ybc'
loop_
_symmetry_equiv_pos_site_id
_symmetry_equiv_pos_as_xyz
1 x,y,z
2 -x,1/2+y,1/2-z
3 -x,-y,-z
4 x,1/2-y,1/2+z
_cell_length_a                   18.572(5)
_cell_length_b                   34.162(8)
_cell_length_c                   8.774(2)
_cell_angle_alpha                90
_cell_angle_beta                 94.732(4)
_cell_angle_gamma                90
_cell_volume                     5547.75
_exptl_crystal_colour            'light yellow'
_exptl_crystal_description       block
_cell_formula_units_Z            4
loop_
_atom_site_label
_atom_site_type_symbol
_atom_site_fract_x
_atom_site_fract_y
_atom_site_fract_z
Cl1 Cl 0.25840(12) 0.34317(6) 0.3343(3)
O1 O 0.0152(8) 0.3646(5) 0.5358(19)
O2 O 0.0165(7) 0.5250(4) 0.1774(16)
O3 O 0.0917(5) 0.6190(2) 0.0928(11)
O4 O 0.1788(5) 0.6791(2) -0.0418(11)
O5 O 0.3319(5) 0.6751(2) -0.0884(10)
O6 O 0.4133(4) 0.60474(18) -0.0493(8)
O7 O 0.4843(4) 0.52538(19) 0.1803(8)
O8 O 0.5031(4) 0.3687(2) 0.6030(9)
O9 O 0.2571(3) 0.27137(17) 0.7776(6)
N1 N 0.1088(6) 0.3224(4) 0.5179(14)
H1 H 0.1543 0.3217 0.4968
N2 N 0.1074(9) 0.3794(4) 0.3937(19)
H2 H 0.1512 0.3726 0.3722
N3 N 0.4073(4) 0.3840(2) 0.4396(9)
H3 H 0.3647 0.3752 0.4037
N4 N 0.4063(4) 0.3278(2) 0.5783(8)
H4 H 0.3606 0.3269 0.5428
N5 N 0.1984(4) 0.2587(2) 0.5464(8)
H5 H 0.2021 0.2562 0.4476
N6 N 0.3212(4) 0.26080(19) 0.5712(8)
H6 H 0.3199 0.2585 0.4712
C1 C 0.1281(5) 0.2576(3) 0.6043(11)
C2 C 0.1046(6) 0.2231(4) 0.6719(12)
H7 H 0.1357 0.2011 0.6834
C3 C 0.0349(6) 0.2215(4) 0.7223(14)
H8 H 0.0186 0.1987 0.7707
C4 C -0.0086(8) 0.2533(4) 0.7005(17)
H9 H -0.0564 0.2517 0.7315
C5 C 0.0119(7) 0.2862(5) 0.6385(16)
H10 H -0.0204 0.3078 0.6276
C6 C 0.0821(6) 0.2893(4) 0.5883(15)
C7 C 0.0715(10) 0.3552(5) 0.479(2)
C8 C 0.0801(7) 0.4143(4) 0.3370(17)
C9 C 0.0072(7) 0.4264(4) 0.3238(17)
H11 H -0.0293 0.4091 0.3532
C10 C -0.0114(7) 0.4639(4) 0.2670(17)
H12 H -0.0605 0.4720 0.2581
C11 C 0.0429(7) 0.4895(4) 0.2234(17)
C12 C 0.1158(7) 0.4775(4) 0.2367(16)
H13 H 0.1523 0.4947 0.2073
C13 C 0.1344(7) 0.4399(4) 0.2935(17)
H14 H 0.1835 0.4318 0.3024
C14 C 0.0726(11) 0.5518(6) 0.142(2)
H15 H 0.0983 0.5422 0.0547
H16 H 0.1079 0.5558 0.2311
C15 C 0.0321(9) 0.5897(5) 0.100(2)
H17 H 0.0036 0.5873 -0.0002
H18 H -0.0007 0.5969 0.1788
C16 C 0.0664(7) 0.6559(4) 0.0382(17)
H19 H 0.0247 0.6639 0.0942
H20 H 0.0496 0.6536 -0.0715
C17 C 0.1234(7) 0.6865(4) 0.0574(16)
H21 H 0.1018 0.7125 0.0340
H22 H 0.1444 0.6867 0.1648
C18 C 0.2251(8) 0.7111(4) -0.0511(18)
H23 H 0.2474 0.7176 0.0522
H24 H 0.1970 0.7342 -0.0904
C19 C 0.2833(8) 0.7022(4) -0.1554(17)
H25 H 0.2611 0.6916 -0.2534
H26 H 0.3093 0.7266 -0.1775
C20 C 0.3805(6) 0.6605(3) -0.1954(13)
H27 H 0.3991 0.6826 -0.2535
H28 H 0.3542 0.6426 -0.2690
C21 C 0.4407(6) 0.6398(3) -0.1130(13)
H29 H 0.4778 0.6332 -0.1838
H30 H 0.4634 0.6566 -0.0305
C22 C 0.4681(6) 0.5832(3) 0.0356(13)
H31 H 0.4897 0.5990 0.1223
H32 H 0.5068 0.5760 -0.0303
C23 C 0.4330(6) 0.5469(3) 0.0938(13)
H33 H 0.3934 0.5543 0.1569
H34 H 0.4123 0.5310 0.0065
C24 C 0.4622(5) 0.4912(3) 0.2465(11)
C25 C 0.5144(6) 0.4698(3) 0.3287(13)
H35 H 0.5624 0.4796 0.3406
C26 C 0.4991(6) 0.4339(3) 0.3955(13)
H36 H 0.5363 0.4192 0.4499
C27 C 0.4287(5) 0.4204(3) 0.3807(11)
C28 C 0.3761(5) 0.4424(3) 0.3010(11)
H37 H 0.3277 0.4330 0.2913
C29 C 0.3922(5) 0.4778(3) 0.2345(11)
H38 H 0.3551 0.4928 0.1811
C30 C 0.4441(5) 0.3611(2) 0.5435(10)
C31 C 0.4327(5) 0.2953(2) 0.6642(10)
C32 C 0.4976(5) 0.2955(3) 0.7503(10)
H39 H 0.5267 0.3184 0.7552
C33 C 0.5213(5) 0.2617(3) 0.8319(10)
H40 H 0.5665 0.2619 0.8913
C34 C 0.4799(5) 0.2285(3) 0.8262(10)
H41 H 0.4963 0.2057 0.8805
C35 C 0.4138(5) 0.2284(3) 0.7405(9)
H42 H 0.3846 0.2055 0.7371
C36 C 0.3898(4) 0.2617(2) 0.6593(9)
C37 C 0.2575(4) 0.2634(2) 0.6397(10)
O10 O 0.2227(10) 0.5312(5) 0.839(2)
O11 O 0.2511(8) 0.5378(4) 1.049(2)
N7 N 0.2411(8) 0.5516(4) 0.9359(19)
C38 C 0.2366(8) 0.5934(4) 0.9153(17)
H43 H 0.2053 0.6046 0.9888
H44 H 0.2165 0.5993 0.8111
H45 H 0.2850 0.6048 0.9321
O12 O 0.3484(11) 0.6974(6) 0.449(2)
O13 O 0.2524(13) 0.6988(7) 0.339(3)
N8 N 0.3136(13) 0.6809(7) 0.363(3)
C39 C 0.3227(11) 0.6442(6) 0.287(2)
H46 H 0.3726 0.6419 0.2591
H47 H 0.2896 0.6431 0.1938
H48 H 0.3121 0.6226 0.3548
O14 O 0.2201(10) 0.6070(5) 0.524(2)
C40 C 0.2997(12) 0.5535(7) 0.501(3)
H49 H 0.3292 0.5718 0.4471
H50 H 0.3091 0.5267 0.4687
H51 H 0.3122 0.5558 0.6118
C41 C 0.2211(13) 0.5630(7) 0.466(3)
H52 H 0.1897 0.5460 0.5232
H53 H 0.2066 0.5611 0.3551
C42 C 0.1449(15) 0.6208(8) 0.499(3)
H54 H 0.1117 0.6041 0.5533
H55 H 0.1285 0.6216 0.3889
C43 C 0.1510(15) 0.6628(8) 0.569(3)
H56 H 0.1595 0.6609 0.6809
H57 H 0.1060 0.6771 0.5430
H58 H 0.1913 0.6767 0.5285
N9 N 0.2530(6) 0.4004(3) 0.8460(12)
C44 C 0.2102(8) 0.3656(4) 0.8032(17)
H59 H 0.2437 0.3448 0.7747
H60 H 0.1783 0.3719 0.7106
C45 C 0.1638(8) 0.3489(4) 0.9214(19)
H61 H 0.1922 0.3474 1.0205
H62 H 0.1473 0.3227 0.8899
H63 H 0.1219 0.3659 0.9304
C46 C 0.2107(9) 0.4336(4) 0.9052(19)
H64 H 0.2429 0.4559 0.9352
H65 H 0.1856 0.4253 0.9951
C47 C 0.1480(11) 0.4467(6) 0.752(3)
H66 H 0.1738 0.4567 0.6674
H67 H 0.1157 0.4671 0.7861
H68 H 0.1196 0.4237 0.7185
C48 C 0.2934(7) 0.4126(4) 0.7124(15)
H69 H 0.2581 0.4184 0.6246
H70 H 0.3236 0.3904 0.6829
C49 C 0.3417(7) 0.4482(4) 0.7424(16)
H71 H 0.3118 0.4711 0.7602
H72 H 0.3692 0.4530 0.6536
H73 H 0.3751 0.4435 0.8328
C50 C 0.3111(8) 0.3893(4) 0.9850(16)
H74 H 0.3436 0.4119 1.0072
H75 H 0.2854 0.3841 1.0774
C51 C 0.3543(8) 0.3551(4) 0.9522(16)
H76 H 0.3229 0.3321 0.9381
H77 H 0.3907 0.3505 1.0378
H78 H 0.3785 0.3597 0.8587
loop_
_geom_bond_atom_site_label_1
_geom_bond_atom_site_label_2
_geom_bond_site_symmetry_1
_geom_bond_site_symmetry_2
O1 C7 1_555 1_555
O2 C11 1_555 1_555
O3 C15 1_555 1_555
O4 C17 1_555 1_555
O5 C19 1_555 1_555
O6 C21 1_555 1_555
O7 C23 1_555 1_555
O8 C30 1_555 1_555
O9 C37 1_555 1_555
N1 H1 1_555 1_555
N2 H2 1_555 1_555
N3 H3 1_555 1_555
N4 H4 1_555 1_555
N5 H5 1_555 1_555
N6 H6 1_555 1_555
C1 N5 1_555 1_555
C2 C1 1_555 1_555
H7 C2 1_555 1_555
C3 C2 1_555 1_555
H8 C3 1_555 1_555
C4 C3 1_555 1_555
H9 C4 1_555 1_555
C5 C4 1_555 1_555
H10 C5 1_555 1_555
C6 N1 1_555 1_555
C7 N1 1_555 1_555
C8 N2 1_555 1_555
C9 C8 1_555 1_555
H11 C9 1_555 1_555
C10 C9 1_555 1_555
H12 C10 1_555 1_555
C11 C10 1_555 1_555
C12 C11 1_555 1_555
H13 C12 1_555 1_555
C13 C8 1_555 1_555
H14 C13 1_555 1_555
C14 O2 1_555 1_555
H15 C14 1_555 1_555
H16 C14 1_555 1_555
C15 C14 1_555 1_555
H17 C15 1_555 1_555
H18 C15 1_555 1_555
C16 O3 1_555 1_555
H19 C16 1_555 1_555
H20 C16 1_555 1_555
C17 C16 1_555 1_555
H21 C17 1_555 1_555
H22 C17 1_555 1_555
C18 O4 1_555 1_555
H23 C18 1_555 1_555
H24 C18 1_555 1_555
C19 C18 1_555 1_555
H25 C19 1_555 1_555
H26 C19 1_555 1_555
C20 O5 1_555 1_555
H27 C20 1_555 1_555
H28 C20 1_555 1_555
C21 C20 1_555 1_555
H29 C21 1_555 1_555
H30 C21 1_555 1_555
C22 O6 1_555 1_555
H31 C22 1_555 1_555
H32 C22 1_555 1_555
C23 C22 1_555 1_555
H33 C23 1_555 1_555
H34 C23 1_555 1_555
C24 O7 1_555 1_555
C25 C24 1_555 1_555
H35 C25 1_555 1_555
C26 C25 1_555 1_555
H36 C26 1_555 1_555
C27 N3 1_555 1_555
C28 C27 1_555 1_555
H37 C28 1_555 1_555
C29 C24 1_555 1_555
H38 C29 1_555 1_555
C30 N3 1_555 1_555
C31 N4 1_555 1_555
C32 C31 1_555 1_555
H39 C32 1_555 1_555
C33 C32 1_555 1_555
H40 C33 1_555 1_555
C34 C33 1_555 1_555
H41 C34 1_555 1_555
C35 C34 1_555 1_555
H42 C35 1_555 1_555
C36 N6 1_555 1_555
C37 N5 1_555 1_555
O10 N7 1_555 1_555
O11 N7 1_555 1_555
N7 C38 1_555 1_555
C38 H43 1_555 1_555
H44 C38 1_555 1_555
H45 C38 1_555 1_555
O12 N8 1_555 1_555
O13 N8 1_555 1_555
N8 C39 1_555 1_555
C39 H46 1_555 1_555
H47 C39 1_555 1_555
H48 C39 1_555 1_555
O14 C41 1_555 1_555
C40 H49 1_555 1_555
H50 C40 1_555 1_555
H51 C40 1_555 1_555
C41 C40 1_555 1_555
H52 C41 1_555 1_555
H53 C41 1_555 1_555
C42 O14 1_555 1_555
H54 C42 1_555 1_555
H55 C42 1_555 1_555
C43 C42 1_555 1_555
H56 C43 1_555 1_555
H57 C43 1_555 1_555
H58 C43 1_555 1_555
N9 C44 1_555 1_555
C44 H59 1_555 1_555
H60 C44 1_555 1_555
C45 C44 1_555 1_555
H61 C45 1_555 1_555
H62 C45 1_555 1_555
H63 C45 1_555 1_555
C46 N9 1_555 1_555
H64 C46 1_555 1_555
H65 C46 1_555 1_555
C47 C46 1_555 1_555
H66 C47 1_555 1_555
H67 C47 1_555 1_555
H68 C47 1_555 1_555
C48 N9 1_555 1_555
H69 C48 1_555 1_555
H70 C48 1_555 1_555
C49 C48 1_555 1_555
H71 C49 1_555 1_555
H72 C49 1_555 1_555
H73 C49 1_555 1_555
C50 N9 1_555 1_555
H74 C50 1_555 1_555
H75 C50 1_555 1_555
C51 C50 1_555 1_555
H76 C51 1_555 1_555
H77 C51 1_555 1_555
H78 C51 1_555 1_555
N2 C7 1_555 1_555
N4 C30 1_555 1_555
N6 C37 1_555 1_555
C1 C6 1_555 1_555
C5 C6 1_555 1_555
C12 C13 1_555 1_555
C26 C27 1_555 1_555
C28 C29 1_555 1_555
C31 C36 1_555 1_555
C35 C36 1_555 1_555

#END
