
#######################################################################
#
#                 Cambridge Crystallographic Data Centre
#                                CCDC 
#
#######################################################################
#
# If this CIF has been generated from an entry in the Cambridge 
# Structural Database, then it will include bibliographic, chemical, 
# crystal, experimental, refinement or atomic coordinate data resulting 
# from the CCDC's data processing and validation procedures.
#
#######################################################################

data_OMOKUW
_chemical_formula_moiety         'C3 H3 N3 O2 S1,C2 H6 O1'
_chemical_name_systematic        '2-Amino-5-nitrothiazole ethanol solvate'
_symmetry_cell_setting           monoclinic
_symmetry_space_group_name_H-M   'P 21/c'
_symmetry_Int_Tables_number      14
_space_group_name_Hall           '-P 2ybc'
loop_
_symmetry_equiv_pos_site_id
_symmetry_equiv_pos_as_xyz
1 x,y,z
2 x,1/2-y,1/2+z
3 -x,-y,-z
4 -x,1/2+y,1/2-z
_cell_length_a                   13.562(2)
_cell_length_b                   5.3311(8)
_cell_length_c                   13.142(2)
_cell_angle_alpha                90
_cell_angle_beta                 117.900(6)
_cell_angle_gamma                90
_cell_volume                     839.729
_exptl_crystal_colour            colorless
_exptl_crystal_description       needle
_cell_formula_units_Z            4
loop_
_atom_site_label
_atom_site_type_symbol
_atom_site_fract_x
_atom_site_fract_y
_atom_site_fract_z
C1 C 0.3344(4) -0.0905(9) 0.5364(4)
C2 C 0.3698(4) 0.2328(9) 0.4305(4)
C3 C 0.4228(4) 0.0601(9) 0.6007(4)
N1 N 0.2957(3) -0.2868(7) 0.5767(3)
N2 N 0.3705(3) 0.3908(7) 0.3542(3)
N3 N 0.4439(3) 0.2444(7) 0.5433(3)
O1 O 0.3418(3) -0.3402(6) 0.6804(3)
O2 O 0.2118(3) -0.4074(6) 0.5054(3)
S1 S 0.27102(10) -0.0067(2) 0.39302(10)
H1 H 0.4670 0.0369 0.6813
H2 H 0.4208 0.5107 0.3760
H3 H 0.3205 0.3767 0.2814
C4 C 0.0716(4) 0.2864(10) 0.1230(4)
C5 C 0.0552(5) 0.4958(10) 0.1903(4)
O3 O 0.1821(3) 0.3113(7) 0.1364(3)
H4 H 0.0627 0.1219 0.1527
H5 H 0.0159 0.2987 0.0407
H6 H 0.1068 0.4739 0.2723
H7 H -0.0218 0.4929 0.1783
H8 H 0.0699 0.6569 0.1640
H9 H 0.1972 0.1859 0.1075
loop_
_geom_bond_atom_site_label_1
_geom_bond_atom_site_label_2
_geom_bond_site_symmetry_1
_geom_bond_site_symmetry_2
C1 C3 1_555 1_555
C2 N2 1_555 1_555
C3 N3 1_555 1_555
N1 C1 1_555 1_555
N2 H2 1_555 1_555
N3 C2 1_555 1_555
O1 N1 1_555 1_555
O2 N1 1_555 1_555
S1 C1 1_555 1_555
C4 C5 1_555 1_555
C5 H6 1_555 1_555
O3 C4 1_555 1_555
H1 C3 1_555 1_555
H3 N2 1_555 1_555
H4 C4 1_555 1_555
H5 C4 1_555 1_555
H7 C5 1_555 1_555
H8 C5 1_555 1_555
H9 O3 1_555 1_555
C2 S1 1_555 1_555

#END
