
#######################################################################
#
#                 Cambridge Crystallographic Data Centre
#                                CCDC 
#
#######################################################################
#
# If this CIF has been generated from an entry in the Cambridge 
# Structural Database, then it will include bibliographic, chemical, 
# crystal, experimental, refinement or atomic coordinate data resulting 
# from the CCDC's data processing and validation procedures.
#
#######################################################################

data_OMOSOY
_chemical_formula_moiety         'C7 H8 N2 O4 S1'
_chemical_name_systematic        2-Methanesulfonyl-4-nitroaniline
_symmetry_cell_setting           monoclinic
_symmetry_space_group_name_H-M   'I 2/c'
_symmetry_Int_Tables_number      15
_space_group_name_Hall           '-I 2yc'
loop_
_symmetry_equiv_pos_site_id
_symmetry_equiv_pos_as_xyz
1 x,y,z
2 x,-y,1/2+z
3 1/2+x,1/2+y,1/2+z
4 1/2+x,1/2-y,z
5 -x,-y,-z
6 -x,y,1/2-z
7 1/2-x,1/2-y,1/2-z
8 1/2-x,1/2+y,-z
_cell_length_a                   15.8657(5)
_cell_length_b                   7.23660(10)
_cell_length_c                   16.4224(5)
_cell_angle_alpha                90
_cell_angle_beta                 110.3040(10)
_cell_angle_gamma                90
_cell_volume                     1768.36
_exptl_crystal_colour            orange
_exptl_crystal_description       block
_cell_formula_units_Z            8
_exptl_crystal_recrystallization_method 2-ethoxyethanol
loop_
_atom_site_label
_atom_site_type_symbol
_atom_site_fract_x
_atom_site_fract_y
_atom_site_fract_z
C1 C 0.16472(9) -0.01648(19) 0.15027(9)
C2 C 0.14987(9) 0.17737(19) 0.14878(9)
C3 C 0.12714(9) 0.2637(2) 0.21322(9)
C4 C 0.11699(10) 0.1605(2) 0.27969(9)
C5 C 0.12723(10) -0.0314(2) 0.28184(10)
C6 C 0.15004(10) -0.1176(2) 0.21828(10)
N1 N 0.19060(9) -0.10458(17) 0.09107(8)
S1 S 0.15031(2) 0.31417(5) 0.06037(2)
O1 O 0.14908(8) 0.50435(14) 0.08577(7)
O2 O 0.22226(7) 0.25417(16) 0.03171(7)
C7 C 0.04740(10) 0.2650(2) -0.02187(10)
N2 N 0.09164(9) 0.2524(2) 0.34578(8)
O3 O 0.08705(9) 0.42239(17) 0.34441(8)
O4 O 0.07460(8) 0.15751(19) 0.40023(7)
H1 H 0.1185 0.3938 0.2117
H2 H 0.1184 -0.1016 0.3271
H3 H 0.1562 -0.2482 0.2197
H4 H 0.1985 -0.2251 0.0943
H5 H 0.1997 -0.0419 0.0489
H6 H 0.0452 0.1337 -0.0371
H7 H 0.0416 0.3401 -0.0732
H8 H -0.0021 0.2938 -0.0012
loop_
_geom_bond_atom_site_label_1
_geom_bond_atom_site_label_2
_geom_bond_site_symmetry_1
_geom_bond_site_symmetry_2
C1 C2 1_555 1_555
C2 C3 1_555 1_555
C3 C4 1_555 1_555
C4 C5 1_555 1_555
C5 C6 1_555 1_555
C6 C1 1_555 1_555
N1 C1 1_555 1_555
S1 C2 1_555 1_555
O1 S1 1_555 1_555
O2 S1 1_555 1_555
C7 S1 1_555 1_555
N2 C4 1_555 1_555
O3 N2 1_555 1_555
O4 N2 1_555 1_555
H1 C3 1_555 1_555
H2 C5 1_555 1_555
H3 C6 1_555 1_555
H4 N1 1_555 1_555
H5 N1 1_555 1_555
H6 C7 1_555 1_555
H7 C7 1_555 1_555
H8 C7 1_555 1_555

#END
