
#######################################################################
#
#                 Cambridge Crystallographic Data Centre
#                                CCDC 
#
#######################################################################
#
# If this CIF has been generated from an entry in the Cambridge 
# Structural Database, then it will include bibliographic, chemical, 
# crystal, experimental, refinement or atomic coordinate data resulting 
# from the CCDC's data processing and validation procedures.
#
#######################################################################

data_OMTCTD10
_chemical_formula_moiety         'C20 H32 S2'
_chemical_name_systematic        
'3,3,7,7,10,10,14,14-Octamethyl-5,12-dithiatricyclo(7.5.0.0^2,8^) tetradeca-1(9),2(8)-diene'
_symmetry_cell_setting           triclinic
_symmetry_space_group_name_H-M   'P -1'
_symmetry_Int_Tables_number      2
_space_group_name_Hall           '-P 1'
loop_
_symmetry_equiv_pos_site_id
_symmetry_equiv_pos_as_xyz
1 x,y,z
2 -x,-y,-z
_cell_length_a                   14.925(4)
_cell_length_b                   10.457(1)
_cell_length_c                   6.397(4)
_cell_angle_alpha                101.11(2)
_cell_angle_beta                 103.77(4)
_cell_angle_gamma                90.86(2)
_cell_volume                     949.574
_cell_formula_units_Z            2
loop_
_atom_site_label
_atom_site_type_symbol
_atom_site_fract_x
_atom_site_fract_y
_atom_site_fract_z
C1 C 0.06315(11) -0.02325(16) 0.09163(27)
C2 C 0.15143(12) -0.03999(17) 0.25836(30)
C3 C 0.18952(13) -0.17494(20) 0.20861(41)
S1 S 0.11731(4) -0.31575(5) 0.19967(10)
C4 C 0.05120(15) -0.33307(19) -0.07827(35)
C5 C -0.03139(12) -0.24786(16) -0.12370(29)
C6 C -0.00541(11) -0.10163(16) -0.05284(26)
C7 C 0.13257(18) -0.01825(25) 0.48731(36)
C8 C 0.23165(14) 0.05365(23) 0.25664(45)
C9 C -0.10200(15) -0.28286(22) -0.00075(40)
C10 C -0.07047(19) -0.28988(23) -0.37269(37)
H1 H 0.2457(15) -0.1784(20) 0.3194(35)
H2 H 0.2055(14) -0.1888(20) 0.0651(35)
H3 H 0.0275(14) -0.4258(24) -0.1256(33)
H4 H 0.0928(14) -0.3183(21) -0.1659(35)
H5 H 0.0872(15) -0.0854(23) 0.4934(36)
H6 H 0.1868(18) -0.0207(24) 0.5983(42)
H7 H 0.1035(17) 0.0667(26) 0.5292(39)
H8 H 0.2454(15) 0.0388(22) 0.1144(39)
H9 H 0.2840(15) 0.0383(21) 0.3595(35)
H10 H 0.2169(16) 0.1473(26) 0.2903(38)
H11 H -0.0707(16) -0.2724(23) 0.1526(42)
H12 H -0.1240(14) -0.3709(23) -0.0664(36)
H13 H -0.1524(16) -0.2242(23) -0.0042(36)
H14 H -0.0221(17) -0.2693(23) -0.4570(39)
H15 H -0.0793(15) -0.3837(25) -0.4136(37)
H16 H -0.1270(16) -0.2516(22) -0.4299(36)
C6A C 0.00541(11) 0.10163(16) 0.05284(26)
C1A C -0.06315(11) 0.02325(16) -0.09163(27)
C5A C 0.03139(12) 0.24786(16) 0.12370(29)
C2A C -0.15143(12) 0.03999(17) -0.25836(30)
C4A C -0.05120(15) 0.33307(19) 0.07827(35)
C9A C 0.10200(15) 0.28286(22) 0.00075(40)
C10A C 0.07047(19) 0.28988(23) 0.37269(37)
C3A C -0.18952(13) 0.17494(20) -0.20861(41)
C7A C -0.13257(18) 0.01825(25) -0.48731(36)
C8A C -0.23165(14) -0.05365(23) -0.25664(45)
S1A S -0.11731(4) 0.31575(5) -0.19967(10)
H3A H -0.0275(14) 0.4258(24) 0.1256(33)
H4A H -0.0928(14) 0.3183(21) 0.1659(35)
H11A H 0.0707(16) 0.2724(23) -0.1526(42)
H12A H 0.1240(14) 0.3709(23) 0.0664(36)
H13A H 0.1524(16) 0.2242(23) 0.0042(36)
H14A H 0.0221(17) 0.2693(23) 0.4570(39)
H15A H 0.0793(15) 0.3837(25) 0.4136(37)
H16A H 0.1270(16) 0.2516(22) 0.4299(36)
H1A H -0.2457(15) 0.1784(20) -0.3194(35)
H2A H -0.2055(14) 0.1888(20) -0.0651(35)
H5A H -0.0872(15) 0.0854(23) -0.4934(36)
H6A H -0.1868(18) 0.0207(24) -0.5983(42)
H7A H -0.1035(17) -0.0667(26) -0.5292(39)
H8A H -0.2454(15) -0.0388(22) -0.1144(39)
H9A H -0.2840(15) -0.0383(21) -0.3595(35)
H10A H -0.2169(16) -0.1473(26) -0.2903(38)
C11 C 0.55175(11) 0.48080(16) 0.12950(27)
C12 C 0.63953(12) 0.46627(18) 0.29835(30)
C13 C 0.63687(19) 0.34370(21) 0.39553(39)
S2 S 0.61813(4) 0.18685(5) 0.21136(11)
C14 C 0.49469(16) 0.18731(19) 0.12265(36)
C15 C 0.45390(12) 0.25638(16) -0.06525(28)
C16 C 0.48214(11) 0.40161(15) -0.00955(27)
C17 C 0.65650(17) 0.57731(23) 0.50433(36)
C18 C 0.72068(16) 0.46226(27) 0.19004(48)
C19 C 0.34894(15) 0.22936(23) -0.10420(41)
C20 C 0.48662(19) 0.19161(23) -0.26816(39)
H17 H 0.6996(16) 0.3382(22) 0.4951(37)
H18 H 0.5873(16) 0.3454(23) 0.4748(39)
H19 H 0.4699(15) 0.0969(22) 0.0753(34)
H20 H 0.4714(13) 0.2239(20) 0.2509(34)
H21 H 0.6046(16) 0.5787(22) 0.5749(36)
H22 H 0.7162(16) 0.5639(22) 0.6052(39)
H23 H 0.6672(15) 0.6627(24) 0.4715(35)
H24 H 0.7167(17) 0.3894(26) 0.0756(42)
H25 H 0.7790(18) 0.4590(25) 0.2966(42)
H26 H 0.7278(17) 0.5387(27) 0.1266(41)
H27 H 0.3257(16) 0.2668(22) 0.0254(39)
H28 H 0.3330(15) 0.1351(25) -0.1375(38)
H29 H 0.3110(15) 0.2699(22) -0.2291(38)
H30 H 0.5596(17) 0.1923(24) -0.2354(39)
H31 H 0.4655(15) 0.1064(25) -0.3150(37)
H32 H 0.4613(18) 0.2288(26) -0.3933(43)
C16A C 0.51786(11) 0.59839(15) 0.00955(27)
C11A C 0.44825(11) 0.51920(16) -0.12950(27)
C15A C 0.54610(12) 0.74362(16) 0.06525(28)
C12A C 0.36047(12) 0.53373(18) -0.29835(30)
C14A C 0.50531(16) 0.81269(19) -0.12265(36)
C19A C 0.65106(15) 0.77064(23) 0.10420(41)
C20A C 0.51338(19) 0.80839(23) 0.26816(39)
C13A C 0.36313(19) 0.65630(21) -0.39553(39)
C17A C 0.34350(17) 0.42269(23) -0.50433(36)
C18A C 0.27932(16) 0.53774(27) -0.19004(48)
S2A S 0.38187(4) 0.81315(5) -0.21136(11)
H19A H 0.5301(15) 0.9031(22) -0.0753(34)
H20A H 0.5286(13) 0.7761(20) -0.2509(34)
H27A H 0.6743(16) 0.7332(22) -0.0254(39)
H28A H 0.6670(15) 0.8649(25) 0.1375(38)
H29A H 0.6890(15) 0.7301(22) 0.2291(38)
H30A H 0.4404(17) 0.8077(24) 0.2354(39)
H31A H 0.5345(15) 0.8936(25) 0.3150(37)
H32A H 0.5387(18) 0.7712(26) 0.3933(43)
H17A H 0.3004(16) 0.6618(22) -0.4951(37)
H18A H 0.4127(16) 0.6546(23) -0.4748(39)
H21A H 0.3954(16) 0.4213(22) -0.5749(36)
H22A H 0.2838(16) 0.4361(22) -0.6052(39)
H23A H 0.3328(15) 0.3373(24) -0.4715(35)
H24A H 0.2833(17) 0.6106(26) -0.0756(42)
H25A H 0.2210(18) 0.5410(25) -0.2966(42)
H26A H 0.2722(17) 0.4613(27) -0.1266(41)
loop_
_geom_bond_atom_site_label_1
_geom_bond_atom_site_label_2
_geom_bond_site_symmetry_1
_geom_bond_site_symmetry_2
C1 C2 1_555 1_555
C2 C3 1_555 1_555
C3 S1 1_555 1_555
S1 C4 1_555 1_555
C4 C5 1_555 1_555
C5 C6 1_555 1_555
C6 C1 1_555 1_555
C7 C2 1_555 1_555
C8 C2 1_555 1_555
C9 C5 1_555 1_555
C10 C5 1_555 1_555
H1 C3 1_555 1_555
H2 C3 1_555 1_555
H3 C4 1_555 1_555
H4 C4 1_555 1_555
H5 C7 1_555 1_555
H6 C7 1_555 1_555
H7 C7 1_555 1_555
H8 C8 1_555 1_555
H9 C8 1_555 1_555
H10 C8 1_555 1_555
H11 C9 1_555 1_555
H12 C9 1_555 1_555
H13 C9 1_555 1_555
H14 C10 1_555 1_555
H15 C10 1_555 1_555
H16 C10 1_555 1_555
C11 C12 1_555 1_555
C12 C13 1_555 1_555
C13 S2 1_555 1_555
S2 C14 1_555 1_555
C14 C15 1_555 1_555
C15 C16 1_555 1_555
C16 C11 1_555 1_555
C17 C12 1_555 1_555
C18 C12 1_555 1_555
C19 C15 1_555 1_555
C20 C15 1_555 1_555
H17 C13 1_555 1_555
H18 C13 1_555 1_555
H19 C14 1_555 1_555
H20 C14 1_555 1_555
H21 C17 1_555 1_555
H22 C17 1_555 1_555
H23 C17 1_555 1_555
H24 C18 1_555 1_555
H25 C18 1_555 1_555
H26 C18 1_555 1_555
H27 C19 1_555 1_555
H28 C19 1_555 1_555
H29 C19 1_555 1_555
H30 C20 1_555 1_555
H31 C20 1_555 1_555
H32 C20 1_555 1_555
C6A C1 1_555 1_555
C1A C6 1_555 1_555
C5A C6A 1_555 1_555
C2A C1A 1_555 1_555
C4A C5A 1_555 1_555
C9A C5A 1_555 1_555
C10A C5A 1_555 1_555
C3A C2A 1_555 1_555
C7A C2A 1_555 1_555
C8A C2A 1_555 1_555
S1A C4A 1_555 1_555
H3A C4A 1_555 1_555
H4A C4A 1_555 1_555
H11A C9A 1_555 1_555
H12A C9A 1_555 1_555
H13A C9A 1_555 1_555
H14A C10A 1_555 1_555
H15A C10A 1_555 1_555
H16A C10A 1_555 1_555
H1A C3A 1_555 1_555
H2A C3A 1_555 1_555
H5A C7A 1_555 1_555
H6A C7A 1_555 1_555
H7A C7A 1_555 1_555
H8A C8A 1_555 1_555
H9A C8A 1_555 1_555
H10A C8A 1_555 1_555
C16A C11 1_555 1_555
C11A C16 1_555 1_555
C15A C16A 1_555 1_555
C12A C11A 1_555 1_555
C14A C15A 1_555 1_555
C19A C15A 1_555 1_555
C20A C15A 1_555 1_555
C13A C12A 1_555 1_555
C17A C12A 1_555 1_555
C18A C12A 1_555 1_555
S2A C14A 1_555 1_555
H19A C14A 1_555 1_555
H20A C14A 1_555 1_555
H27A C19A 1_555 1_555
H28A C19A 1_555 1_555
H29A C19A 1_555 1_555
H30A C20A 1_555 1_555
H31A C20A 1_555 1_555
H32A C20A 1_555 1_555
H17A C13A 1_555 1_555
H18A C13A 1_555 1_555
H21A C17A 1_555 1_555
H22A C17A 1_555 1_555
H23A C17A 1_555 1_555
H24A C18A 1_555 1_555
H25A C18A 1_555 1_555
H26A C18A 1_555 1_555
C6A C1A 1_555 1_555
C3A S1A 1_555 1_555
C16A C11A 1_555 1_555
C13A S2A 1_555 1_555

#END
