
#######################################################################
#
#                 Cambridge Crystallographic Data Centre
#                                CCDC 
#
#######################################################################
#
# If this CIF has been generated from an entry in the Cambridge 
# Structural Database, then it will include bibliographic, chemical, 
# crystal, experimental, refinement or atomic coordinate data resulting 
# from the CCDC's data processing and validation procedures.
#
#######################################################################

data_ONACOX
_chemical_formula_moiety         
'2(C22 H26 I1 N2 1+),x(I3 1-),x(I1 1-),2(C1 H2 Cl2)'
_chemical_name_systematic        
'bis(2-iodo-1,3-dimesityl-4-methyl-1H-imidazol-3-ium) iodide triiodide dichloromethane solvate'
_symmetry_cell_setting           triclinic
_symmetry_space_group_name_H-M   'P -1'
_symmetry_Int_Tables_number      2
_space_group_name_Hall           '-P 1'
loop_
_symmetry_equiv_pos_site_id
_symmetry_equiv_pos_as_xyz
1 x,y,z
2 -x,-y,-z
_cell_length_a                   10.295(2)
_cell_length_b                   16.690(4)
_cell_length_c                   18.369(4)
_cell_angle_alpha                65.830(3)
_cell_angle_beta                 81.623(3)
_cell_angle_gamma                72.426(3)
_cell_volume                     2744.26
_exptl_crystal_colour            orange
_exptl_crystal_description       prism
_cell_formula_units_Z            2
loop_
_atom_site_label
_atom_site_type_symbol
_atom_site_fract_x
_atom_site_fract_y
_atom_site_fract_z
I1 I 0.69008(5) 0.99277(4) 0.13330(3)
N1 N 0.8357(7) 0.9312(5) 0.2907(4)
N2 N 0.8987(7) 1.0443(5) 0.1962(4)
C1 C 0.8174(7) 0.9894(6) 0.2137(5)
C2 C 0.9332(9) 0.9496(7) 0.3211(6)
C3 C 0.9704(8) 1.0185(7) 0.2645(6)
H1 H 1.0347 1.0459 0.2692
C4 C 0.7617(8) 0.8646(6) 0.3350(5)
C5 C 0.8036(10) 0.7816(7) 0.3285(6)
C6 C 0.7294(13) 0.7170(7) 0.3736(7)
H2 H 0.7536 0.6599 0.3697
C7 C 0.6194(10) 0.7380(7) 0.4245(7)
C8 C 0.5864(10) 0.8211(7) 0.4298(6)
H3 H 0.5168 0.8340 0.4658
C9 C 0.6525(9) 0.8864(6) 0.3838(5)
C10 C 0.9229(13) 0.7573(9) 0.2745(8)
H4 H 0.8920 0.7395 0.2373
H5 H 0.9941 0.7071 0.3068
H6 H 0.9583 0.8098 0.2451
C11 C 0.5457(14) 0.6667(9) 0.4729(9)
H7 H 0.6095 0.6067 0.4875
H8 H 0.4738 0.6711 0.4417
H9 H 0.5065 0.6764 0.5209
C12 C 0.6043(9) 0.9813(7) 0.3841(6)
H10 H 0.5591 0.9787 0.4349
H11 H 0.5409 1.0203 0.3413
H12 H 0.6819 1.0058 0.3763
C13 C 0.9844(11) 0.8938(9) 0.4052(6)
H13 H 1.0773 0.8951 0.4071
H14 H 0.9817 0.8313 0.4209
H15 H 0.9269 0.9192 0.4415
C14 C 0.9208(8) 1.1113(6) 0.1206(5)
C15 C 1.0307(9) 1.0837(7) 0.0722(6)
C16 C 1.0539(10) 1.1537(8) -0.0006(6)
H16 H 1.1246 1.1385 -0.0352
C17 C 0.9777(12) 1.2426(8) -0.0227(6)
C18 C 0.8714(11) 1.2629(7) 0.0262(6)
H17 H 0.8165 1.3233 0.0099
C19 C 0.8397(9) 1.1999(7) 0.0981(6)
C20 C 1.1075(10) 0.9879(8) 0.0937(6)
H18 H 1.1297 0.9610 0.1497
H19 H 1.1908 0.9842 0.0615
H20 H 1.0527 0.9552 0.0842
C21 C 1.0180(16) 1.3152(8) -0.0964(7)
H21 H 0.9539 1.3352 -0.1381
H22 H 1.1088 1.2906 -0.1143
H23 H 1.0172 1.3666 -0.0841
C22 C 0.7156(10) 1.2250(8) 0.1506(6)
H24 H 0.7449 1.2379 0.1915
H25 H 0.6748 1.1744 0.1756
H26 H 0.6490 1.2784 0.1176
I2 I 0.5000 0.0000 0.0000
I3 I 0.45361(6) 0.24027(4) 0.33416(3)
N3 N 0.1918(7) 0.2483(5) 0.2626(4)
N4 N 0.1704(8) 0.3719(5) 0.2815(5)
C23 C 0.2551(9) 0.2897(6) 0.2891(5)
C24 C 0.0651(10) 0.3074(7) 0.2356(6)
C25 C 0.0479(11) 0.3823(7) 0.2480(7)
H27 H -0.0297 0.4324 0.2368
C26 C 0.2423(8) 0.1569(6) 0.2638(5)
C27 C 0.2335(8) 0.0851(6) 0.3382(5)
C28 C 0.2754(8) -0.0022(6) 0.3380(5)
H28 H 0.2728 -0.0521 0.3864
C29 C 0.3218(8) -0.0191(6) 0.2678(6)
C30 C 0.3245(9) 0.0544(7) 0.1972(6)
H29 H 0.3503 0.0447 0.1496
C31 C 0.2896(9) 0.1435(6) 0.1946(5)
C32 C 0.1807(9) 0.1007(7) 0.4126(5)
H30 H 0.2424 0.1250 0.4276
H31 H 0.1741 0.0435 0.4553
H32 H 0.0912 0.1439 0.4034
C33 C 0.3653(13) -0.1144(7) 0.2694(8)
H33 H 0.3270 -0.1151 0.2244
H34 H 0.3328 -0.1552 0.3187
H35 H 0.4639 -0.1344 0.2659
C34 C 0.2987(14) 0.2227(8) 0.1157(6)
H36 H 0.2266 0.2336 0.0814
H37 H 0.3864 0.2078 0.0898
H38 H 0.2889 0.2770 0.1257
C35 C -0.0295(13) 0.2813(8) 0.2028(7)
H39 H -0.0737 0.2405 0.2460
H40 H 0.0204 0.2506 0.1682
H41 H -0.0978 0.3354 0.1723
C36 C 0.1968(11) 0.4367(7) 0.3078(6)
C37 C 0.2589(11) 0.5003(7) 0.2562(7)
C38 C 0.2791(13) 0.5627(8) 0.2828(8)
H42 H 0.3224 0.6075 0.2490
C39 C 0.2355(14) 0.5589(9) 0.3589(10)
C40 C 0.1685(12) 0.4946(9) 0.4083(8)
H43 H 0.1363 0.4952 0.4587
C41 C 0.1473(11) 0.4301(8) 0.3866(7)
C42 C 0.3172(17) 0.4995(9) 0.1752(8)
H44 H 0.4080 0.4581 0.1817
H45 H 0.3217 0.5604 0.1394
H46 H 0.2589 0.4795 0.1530
C43 C 0.2580(18) 0.6277(13) 0.3873(12)
H47 H 0.1752 0.6513 0.4132
H48 H 0.2815 0.6776 0.3419
H49 H 0.3316 0.5981 0.4248
C44 C 0.0826(13) 0.3616(10) 0.4367(7)
H50 H -0.0025 0.3895 0.4581
H51 H 0.1418 0.3177 0.4803
H52 H 0.0642 0.3310 0.4061
I4 I 0.75883(6) 0.16754(5) 0.40946(4)
I5 I 1.0000 0.5000 0.0000
I6 I 0.7100(5) 0.5222(2) 0.0340(3)
I6A I 1.2900(5) 0.4778(2) -0.0340(3)
C45 C 0.641(2) 0.4288(13) 0.3394(10)
H53 H 0.5424 0.4425 0.3504
H54 H 0.6796 0.3628 0.3656
Cl1 Cl 0.6722(6) 0.4631(3) 0.2372(3)
Cl2 Cl 0.7114(14) 0.4835(5) 0.3769(6)
C46 C 0.5502(16) 0.7366(12) 0.1016(10)
H55 H 0.6042 0.6846 0.0886
H56 H 0.5801 0.7903 0.0653
Cl3 Cl 0.5821(7) 0.7161(4) 0.1959(3)
Cl4 Cl 0.3790(8) 0.7552(4) 0.0852(5)
I7? I 0.9023(17) 0.5115(6) 0.0002(4)
I8? I 0.6120(18) 0.5389(7) 0.0154(6)
I9? I 1.2008(17) 0.4777(4) -0.0182(6)
loop_
_geom_bond_atom_site_label_1
_geom_bond_atom_site_label_2
_geom_bond_site_symmetry_1
_geom_bond_site_symmetry_2
I1 C1 1_555 1_555
N1 C1 1_555 1_555
N2 C1 1_555 1_555
C2 N1 1_555 1_555
C3 N2 1_555 1_555
H1 C3 1_555 1_555
C4 N1 1_555 1_555
C5 C4 1_555 1_555
C6 C5 1_555 1_555
H2 C6 1_555 1_555
C7 C6 1_555 1_555
C8 C7 1_555 1_555
H3 C8 1_555 1_555
C9 C4 1_555 1_555
C10 C5 1_555 1_555
H4 C10 1_555 1_555
H5 C10 1_555 1_555
H6 C10 1_555 1_555
C11 C7 1_555 1_555
H7 C11 1_555 1_555
H8 C11 1_555 1_555
H9 C11 1_555 1_555
C12 C9 1_555 1_555
H10 C12 1_555 1_555
H11 C12 1_555 1_555
H12 C12 1_555 1_555
C13 C2 1_555 1_555
H13 C13 1_555 1_555
H14 C13 1_555 1_555
H15 C13 1_555 1_555
C14 N2 1_555 1_555
C15 C14 1_555 1_555
C16 C15 1_555 1_555
H16 C16 1_555 1_555
C17 C16 1_555 1_555
C18 C17 1_555 1_555
H17 C18 1_555 1_555
C19 C14 1_555 1_555
C20 C15 1_555 1_555
H18 C20 1_555 1_555
H19 C20 1_555 1_555
H20 C20 1_555 1_555
C21 C17 1_555 1_555
H21 C21 1_555 1_555
H22 C21 1_555 1_555
H23 C21 1_555 1_555
C22 C19 1_555 1_555
H24 C22 1_555 1_555
H25 C22 1_555 1_555
H26 C22 1_555 1_555
I3 C23 1_555 1_555
N3 C23 1_555 1_555
N4 C23 1_555 1_555
C24 N3 1_555 1_555
C25 N4 1_555 1_555
H27 C25 1_555 1_555
C26 N3 1_555 1_555
C27 C26 1_555 1_555
C28 C27 1_555 1_555
H28 C28 1_555 1_555
C29 C28 1_555 1_555
C30 C29 1_555 1_555
H29 C30 1_555 1_555
C31 C26 1_555 1_555
C32 C27 1_555 1_555
H30 C32 1_555 1_555
H31 C32 1_555 1_555
H32 C32 1_555 1_555
C33 C29 1_555 1_555
H33 C33 1_555 1_555
H34 C33 1_555 1_555
H35 C33 1_555 1_555
C34 C31 1_555 1_555
H36 C34 1_555 1_555
H37 C34 1_555 1_555
H38 C34 1_555 1_555
C35 C24 1_555 1_555
H39 C35 1_555 1_555
H40 C35 1_555 1_555
H41 C35 1_555 1_555
C36 N4 1_555 1_555
C37 C36 1_555 1_555
C38 C37 1_555 1_555
H42 C38 1_555 1_555
C39 C38 1_555 1_555
C40 C39 1_555 1_555
H43 C40 1_555 1_555
C41 C36 1_555 1_555
C42 C37 1_555 1_555
H44 C42 1_555 1_555
H45 C42 1_555 1_555
H46 C42 1_555 1_555
C43 C39 1_555 1_555
H47 C43 1_555 1_555
H48 C43 1_555 1_555
H49 C43 1_555 1_555
C44 C41 1_555 1_555
H50 C44 1_555 1_555
H51 C44 1_555 1_555
H52 C44 1_555 1_555
I5 I6 1_555 1_555
C45 H53 1_555 1_555
H54 C45 1_555 1_555
Cl1 C45 1_555 1_555
Cl2 C45 1_555 1_555
C46 H55 1_555 1_555
H56 C46 1_555 1_555
Cl3 C46 1_555 1_555
Cl4 C46 1_555 1_555
I6A I5 1_555 1_555
C2 C3 1_555 1_555
C8 C9 1_555 1_555
C18 C19 1_555 1_555
C24 C25 1_555 1_555
C30 C31 1_555 1_555
C40 C41 1_555 1_555

#END
