
#######################################################################
#
#                 Cambridge Crystallographic Data Centre
#                                CCDC 
#
#######################################################################
#
# If this CIF has been generated from an entry in the Cambridge 
# Structural Database, then it will include bibliographic, chemical, 
# crystal, experimental, refinement or atomic coordinate data resulting 
# from the CCDC's data processing and validation procedures.
#
#######################################################################

data_ONECAM
_chemical_formula_moiety         'C33 H30 N12 S3,0.5(C8 H10)'
_chemical_name_systematic        
'syn-2,4,6-tris(((1-Phenyl-1H-tetrazol-5-yl)sulfanyl)methyl)-1,3,5-trimethylbenzene hemikis(p-xylene) clathrate'
_symmetry_cell_setting           triclinic
_symmetry_space_group_name_H-M   'P -1'
_symmetry_Int_Tables_number      2
_space_group_name_Hall           '-P 1'
loop_
_symmetry_equiv_pos_site_id
_symmetry_equiv_pos_as_xyz
1 x,y,z
2 -x,-y,-z
_cell_length_a                   13.0908(13)
_cell_length_b                   13.5630(13)
_cell_length_c                   22.536(2)
_cell_angle_alpha                90.560(2)
_cell_angle_beta                 95.241(2)
_cell_angle_gamma                108.149(2)
_cell_volume                     3783.23
_exptl_crystal_colour            colorless
_exptl_crystal_description       prism
_cell_formula_units_Z            4
loop_
_atom_site_label
_atom_site_type_symbol
_atom_site_fract_x
_atom_site_fract_y
_atom_site_fract_z
S1 S -0.26272(17) 0.18700(17) 0.04517(11)
N1 N -0.4469(5) 0.0384(6) 0.0707(3)
S2 S 0.21439(18) 0.35749(15) 0.11221(9)
N2 N -0.5476(6) 0.0369(8) 0.0850(4)
C1 C -0.0858(5) 0.0952(4) -0.0271(3)
S3 S 0.0282(2) 0.21859(17) -0.14954(9)
N3 N -0.5519(6) 0.1325(7) 0.0864(4)
C2 C -0.1027(5) 0.1064(5) 0.0325(3)
N4 N -0.4568(6) 0.1941(6) 0.0724(3)
C3 C -0.2183(5) 0.0728(6) 0.0504(3)
H1 H -0.2198 0.0487 0.0908
H2 H -0.2649 0.0171 0.0237
N5 N 0.3559(5) 0.3241(5) 0.2021(3)
C4 C -0.3925(7) 0.1363(7) 0.0631(3)
N6 N 0.4331(6) 0.3868(6) 0.2423(3)
C5 C -0.4301(8) 0.3033(8) 0.0723(5)
N7 N 0.4432(6) 0.4825(6) 0.2366(3)
C6 C -0.4227(10) 0.3593(9) 0.1251(6)
H3 H -0.4385 0.3250 0.1603
N8 N 0.3683(5) 0.4865(5) 0.1909(3)
C7 C -0.3913(12) 0.4675(12) 0.1254(7)
H4 H -0.3881 0.5041 0.1610
N9 N 0.0363(7) 0.0805(7) -0.2384(3)
C8 C -0.3665(19) 0.5189(13) 0.0775(12)
H5 H -0.3461 0.5911 0.0792
N10 N 0.0477(8) 0.0884(10) -0.2982(4)
C9 C -0.3704(18) 0.4670(15) 0.0254(9)
H6 H -0.3536 0.5031 -0.0091
N11 N 0.0514(9) 0.1761(12) -0.3158(4)
C10 C -0.4002(15) 0.3582(12) 0.0238(6)
H7 H -0.3992 0.3231 -0.0117
N12 N 0.0419(7) 0.2348(7) -0.2675(4)
C11 C -0.0354(7) 0.1635(6) 0.1400(3)
H8 H -0.1047 0.1733 0.1412
H9 H 0.0201 0.2240 0.1572
H10 H -0.0332 0.1040 0.1622
C12 C -0.0168(6) 0.1462(5) 0.0755(3)
C13 C 0.0890(5) 0.1757(4) 0.0597(3)
C14 C 0.1844(6) 0.2195(5) 0.1061(3)
H11 H 0.2466 0.2024 0.0945
H12 H 0.1673 0.1896 0.1443
C15 C 0.3150(6) 0.3880(5) 0.1700(3)
C16 C 0.3591(7) 0.5829(7) 0.1690(3)
C17 C 0.4507(8) 0.6596(7) 0.1590(4)
H13 H 0.5179 0.6499 0.1664
C18 C 0.4422(9) 0.7512(7) 0.1377(4)
H14 H 0.5054 0.8046 0.1329
C19 C 0.3487(11) 0.7677(8) 0.1236(5)
H15 H 0.3457 0.8289 0.1063
C20 C 0.2553(12) 0.6909(10) 0.1354(6)
H16 H 0.1893 0.7030 0.1281
C21 C 0.2574(8) 0.5955(8) 0.1582(5)
H17 H 0.1947 0.5437 0.1656
C22 C 0.2220(6) 0.2052(7) -0.0182(3)
H18 H 0.2512 0.1486 -0.0204
H19 H 0.2661 0.2566 0.0109
H20 H 0.2212 0.2357 -0.0565
C23 C 0.1077(5) 0.1652(5) -0.0004(3)
C24 C 0.0192(5) 0.1232(5) -0.0430(3)
C25 C 0.0374(6) 0.1078(5) -0.1072(3)
H21 H -0.0164 0.0451 -0.1244
H22 H 0.1082 0.0998 -0.1090
C26 C 0.0371(6) 0.1721(8) -0.2204(3)
C27 C 0.0397(9) 0.3384(9) -0.2709(5)
C28 C -0.0471(13) 0.3679(12) -0.2754(6)
H23 H -0.1141 0.3167 -0.2782
C29 C -0.0451(12) 0.4691(11) -0.2764(6)
H24 H -0.1091 0.4858 -0.2809
C30 C 0.049(2) 0.543(2) -0.2707(10)
H25 H 0.0531 0.6120 -0.2644
C31 C 0.142(3) 0.517(3) -0.2741(13)
H26 H 0.2053 0.5714 -0.2777
C32 C 0.153(2) 0.4091(19) -0.2725(10)
H27 H 0.2155 0.3907 -0.2726
C70 C -0.1788(6) 0.0547(6) -0.0738(3)
H58 H -0.1888 -0.0171 -0.0831
H59 H -0.1643 0.0938 -0.1090
H60 H -0.2431 0.0613 -0.0592
S4 S -0.78846(17) -0.32004(16) 0.45217(11)
S5 S -0.3485(2) -0.22539(17) 0.59772(10)
S6 S -0.3787(2) -0.1620(2) 0.32562(11)
N13 N -0.9786(6) -0.4760(7) 0.4249(3)
N14 N -1.0844(7) -0.4908(8) 0.4326(4)
N15 N -1.0963(6) -0.4107(8) 0.4587(4)
N16 N -0.9956(6) -0.3398(6) 0.4697(3)
N17 N -0.2178(6) -0.3168(5) 0.6634(3)
N18 N -0.1501(7) -0.2913(7) 0.7138(3)
N19 N -0.1460(6) -0.1999(7) 0.7353(3)
N20 N -0.2143(5) -0.1653(5) 0.6986(3)
N21 N -0.3126(8) -0.2332(13) 0.2257(5)
N22 N -0.2771(13) -0.180(2) 0.1741(6)
N23 N -0.2757(17) -0.092(2) 0.1733(10)
N24 N -0.3043(6) -0.0666(14) 0.2259(5)
C33 C -0.6391(6) -0.3655(7) 0.3340(3)
H28 H -0.6601 -0.4342 0.3160
H29 H -0.5987 -0.3168 0.3074
H30 H -0.7024 -0.3480 0.3417
C34 C -0.5694(5) -0.3615(5) 0.3923(3)
C35 C -0.6184(6) -0.3905(5) 0.4436(3)
C36 C -0.7408(6) -0.4304(6) 0.4407(3)
H31 H -0.7632 -0.4802 0.4713
H32 H -0.7708 -0.4646 0.4021
C37 C -0.9247(7) -0.3816(7) 0.4488(4)
C38 C -0.9751(8) -0.2438(9) 0.5021(4)
C39 C -1.0116(9) -0.2456(12) 0.5578(5)
H33 H -1.0514 -0.3079 0.5729
C40 C -0.9886(9) -0.1551(12) 0.5901(6)
H34 H -1.0115 -0.1556 0.6280
C41 C -0.9345(11) -0.0672(10) 0.5684(6)
H35 H -0.9195 -0.0057 0.5910
C42 C -0.8994(14) -0.0648(11) 0.5122(7)
H36 H -0.8609 -0.0018 0.4973
C43 C -0.9209(12) -0.1545(10) 0.4784(5)
H37 H -0.8988 -0.1537 0.4403
C44 C -0.6124(8) -0.4147(7) 0.5557(3)
H38 H -0.6005 -0.4772 0.5698
H39 H -0.6885 -0.4262 0.5474
H40 H -0.5829 -0.3599 0.5857
C45 C -0.5574(7) -0.3843(5) 0.4992(3)
C46 C -0.4470(6) -0.3517(5) 0.5017(3)
C47 C -0.3780(7) -0.3516(6) 0.5585(3)
H41 H -0.3113 -0.3631 0.5498
H42 H -0.4157 -0.4068 0.5832
C48 C -0.2571(6) -0.2405(7) 0.6550(3)
C49 C -0.2378(7) -0.0728(6) 0.7096(3)
C50 C -0.2801(7) -0.0585(7) 0.7639(4)
H43 H -0.2883 -0.1084 0.7926
C51 C -0.3082(7) 0.0273(8) 0.7735(4)
H44 H -0.3364 0.0365 0.8088
C52 C -0.2947(9) 0.1030(7) 0.7302(5)
H45 H -0.3132 0.1628 0.7370
C53 C -0.2542(11) 0.0888(8) 0.6778(5)
H46 H -0.2445 0.1393 0.6494
C54 C -0.2275(9) -0.0014(7) 0.6671(4)
H47 H -0.2028 -0.0123 0.6310
C55 C -0.2736(7) -0.2680(8) 0.4529(4)
H48 H -0.2410 -0.3219 0.4498
H49 H -0.2481 -0.2302 0.4904
H50 H -0.2547 -0.2215 0.4209
C56 C -0.3923(5) -0.3145(5) 0.4492(3)
C57 C -0.4541(6) -0.3227(5) 0.3948(3)
C58 C -0.4013(7) -0.2980(7) 0.3388(4)
H51 H -0.4473 -0.3402 0.3057
H52 H -0.3331 -0.3126 0.3424
C59 C -0.3296(8) -0.1569(11) 0.2561(5)
C60 C -0.3086(16) 0.0239(15) 0.2406(7)
C61 C -0.3988(19) 0.0588(18) 0.2277(8)
H53 H -0.4603 0.0136 0.2066
C62 C -0.4007(15) 0.1407(16) 0.2419(8)
H54 H -0.4604 0.1550 0.2230
C63 C -0.338(3) 0.223(2) 0.2793(13)
H55 H -0.3503 0.2806 0.2956
C64 C -0.229(3) 0.179(3) 0.2848(13)
H56 H -0.1667 0.2277 0.3032
C65 C -0.213(2) 0.095(2) 0.2691(10)
H57 H -0.1478 0.0812 0.2757
C66 C 0.0339(11) 0.4262(10) -0.0262(6)
C67 C -0.0119(11) 0.4055(10) 0.0248(6)
C68 C -0.0368(11) 0.4850(10) 0.0550(6)
C69 C -0.0835(17) 0.4667(17) 0.1136(8)
C66A C -0.0339(11) 0.5738(10) 0.0262(6)
C67A C 0.0119(11) 0.5945(10) -0.0248(6)
C68A C 0.0368(11) 0.5150(10) -0.0550(6)
C69A C 0.0835(17) 0.5333(17) -0.1136(8)
C71 C -0.448(2) 0.043(3) 0.4446(15)
C72 C -0.5254(18) -0.1056(17) 0.5046(12)
C73 C -0.491(2) -0.064(2) 0.4548(12)
C74 C -0.397(3) 0.111(3) 0.3982(16)
C71A C -0.552(2) -0.043(3) 0.5554(15)
C72A C -0.4746(18) 0.1056(17) 0.4954(12)
C73A C -0.509(2) 0.064(2) 0.5452(12)
C74A C -0.603(3) -0.111(3) 0.6018(16)
loop_
_geom_bond_atom_site_label_1
_geom_bond_atom_site_label_2
_geom_bond_site_symmetry_1
_geom_bond_site_symmetry_2
S1 C3 1_555 1_555
N1 N2 1_555 1_555
S2 C14 1_555 1_555
N2 N3 1_555 1_555
C1 C2 1_555 1_555
S3 C25 1_555 1_555
N3 N4 1_555 1_555
C2 C3 1_555 1_555
S4 C36 1_555 1_555
N4 C4 1_555 1_555
C3 H1 1_555 1_555
H2 C3 1_555 1_555
S5 C47 1_555 1_555
N5 N6 1_555 1_555
C4 S1 1_555 1_555
S6 C58 1_555 1_555
N6 N7 1_555 1_555
C5 N4 1_555 1_555
N7 N8 1_555 1_555
C6 C5 1_555 1_555
H3 C6 1_555 1_555
N8 C15 1_555 1_555
C7 C6 1_555 1_555
H4 C7 1_555 1_555
N9 N10 1_555 1_555
C8 C7 1_555 1_555
H5 C8 1_555 1_555
N10 N11 1_555 1_555
C9 C8 1_555 1_555
H6 C9 1_555 1_555
N11 N12 1_555 1_555
C10 C5 1_555 1_555
H7 C10 1_555 1_555
N12 C26 1_555 1_555
C11 H8 1_555 1_555
H9 C11 1_555 1_555
H10 C11 1_555 1_555
N13 N14 1_555 1_555
C12 C2 1_555 1_555
N14 N15 1_555 1_555
C13 C12 1_555 1_555
N15 N16 1_555 1_555
C14 C13 1_555 1_555
H11 C14 1_555 1_555
H12 C14 1_555 1_555
N16 C37 1_555 1_555
C15 S2 1_555 1_555
N17 N18 1_555 1_555
C16 N8 1_555 1_555
N18 N19 1_555 1_555
C17 C16 1_555 1_555
H13 C17 1_555 1_555
N19 N20 1_555 1_555
C18 C17 1_555 1_555
H14 C18 1_555 1_555
N20 C48 1_555 1_555
C19 C18 1_555 1_555
H15 C19 1_555 1_555
N21 N22 1_555 1_555
C20 C19 1_555 1_555
H16 C20 1_555 1_555
N22 N23 1_555 1_555
C21 C16 1_555 1_555
H17 C21 1_555 1_555
N23 N24 1_555 1_555
C22 H18 1_555 1_555
H19 C22 1_555 1_555
H20 C22 1_555 1_555
N24 C59 1_555 1_555
C23 C13 1_555 1_555
C24 C1 1_555 1_555
C25 C24 1_555 1_555
H21 C25 1_555 1_555
H22 C25 1_555 1_555
C26 S3 1_555 1_555
C27 N12 1_555 1_555
C28 C27 1_555 1_555
H23 C28 1_555 1_555
C29 C28 1_555 1_555
H24 C29 1_555 1_555
C30 C29 1_555 1_555
H25 C30 1_555 1_555
C31 C30 1_555 1_555
H26 C31 1_555 1_555
C32 C27 1_555 1_555
H27 C32 1_555 1_555
C33 H28 1_555 1_555
H29 C33 1_555 1_555
H30 C33 1_555 1_555
C34 C33 1_555 1_555
C35 C34 1_555 1_555
C36 C35 1_555 1_555
H31 C36 1_555 1_555
H32 C36 1_555 1_555
C37 S4 1_555 1_555
C38 N16 1_555 1_555
C39 C38 1_555 1_555
H33 C39 1_555 1_555
C40 C39 1_555 1_555
H34 C40 1_555 1_555
C41 C40 1_555 1_555
H35 C41 1_555 1_555
C42 C41 1_555 1_555
H36 C42 1_555 1_555
C43 C38 1_555 1_555
H37 C43 1_555 1_555
C44 H38 1_555 1_555
H39 C44 1_555 1_555
H40 C44 1_555 1_555
C45 C35 1_555 1_555
C46 C45 1_555 1_555
C47 C46 1_555 1_555
H41 C47 1_555 1_555
H42 C47 1_555 1_555
C48 S5 1_555 1_555
C49 N20 1_555 1_555
C50 C49 1_555 1_555
H43 C50 1_555 1_555
C51 C50 1_555 1_555
H44 C51 1_555 1_555
C52 C51 1_555 1_555
H45 C52 1_555 1_555
C53 C52 1_555 1_555
H46 C53 1_555 1_555
C54 C49 1_555 1_555
H47 C54 1_555 1_555
C55 H48 1_555 1_555
H49 C55 1_555 1_555
H50 C55 1_555 1_555
C56 C46 1_555 1_555
C57 C34 1_555 1_555
C58 C57 1_555 1_555
H51 C58 1_555 1_555
H52 C58 1_555 1_555
C59 S6 1_555 1_555
C60 N24 1_555 1_555
C61 C60 1_555 1_555
H53 C61 1_555 1_555
C62 C61 1_555 1_555
H54 C62 1_555 1_555
C63 C62 1_555 1_555
H55 C63 1_555 1_555
C64 C63 1_555 1_555
H56 C64 1_555 1_555
C65 C60 1_555 1_555
H57 C65 1_555 1_555
C66 C67 1_555 1_555
C67 C68 1_555 1_555
C68 C69 1_555 1_555
C70 C1 1_555 1_555
H58 C70 1_555 1_555
H59 C70 1_555 1_555
H60 C70 1_555 1_555
C71 C73 1_555 1_555
C72 C73 1_555 1_555
C74 C71 1_555 1_555
C66A C68 1_555 1_555
C67A C66A 1_555 1_555
C68A C66 1_555 1_555
C69A C68A 1_555 1_555
C71A C72 1_555 1_555
C72A C71 1_555 1_555
C73A C71A 1_555 1_555
C74A C71A 1_555 1_555
N1 C4 1_555 1_555
N5 C15 1_555 1_555
N9 C26 1_555 1_555
C9 C10 1_555 1_555
C11 C12 1_555 1_555
N13 C37 1_555 1_555
N17 C48 1_555 1_555
N21 C59 1_555 1_555
C20 C21 1_555 1_555
C22 C23 1_555 1_555
C23 C24 1_555 1_555
C31 C32 1_555 1_555
C42 C43 1_555 1_555
C44 C45 1_555 1_555
C53 C54 1_555 1_555
C55 C56 1_555 1_555
C56 C57 1_555 1_555
C64 C65 1_555 1_555
C67A C68A 1_555 1_555
C72A C73A 1_555 1_555

#END
