
#######################################################################
#
#                 Cambridge Crystallographic Data Centre
#                                CCDC 
#
#######################################################################
#
# If this CIF has been generated from an entry in the Cambridge 
# Structural Database, then it will include bibliographic, chemical, 
# crystal, experimental, refinement or atomic coordinate data resulting 
# from the CCDC's data processing and validation procedures.
#
#######################################################################

data_ONECUG01
_chemical_formula_moiety         'C33 H30 N12 S3,C6 H6'
_chemical_name_systematic        
'syn-2,4,6-tris(((1-Phenyl-1H-tetrazol-5-yl)sulfanyl)methyl)-1,3,5-trimethylbenzene benzene clathrate'
_symmetry_cell_setting           trigonal
_symmetry_space_group_name_H-M   'P -3 c 1'
_symmetry_Int_Tables_number      165
_space_group_name_Hall           '-P 3 2"c'
loop_
_symmetry_equiv_pos_site_id
_symmetry_equiv_pos_as_xyz
1 x,y,z
2 -y,x-y,z
3 -x+y,-x,z
4 x-y,-y,1/2-z
5 -x,-x+y,1/2-z
6 y,x,1/2-z
7 -x,-y,-z
8 y,-x+y,-z
9 x-y,x,-z
10 -x+y,y,1/2+z
11 x,x-y,1/2+z
12 -y,-x,1/2+z
_cell_length_a                   13.0346(4)
_cell_length_b                   13.0346(4)
_cell_length_c                   27.2151(16)
_cell_angle_alpha                90
_cell_angle_beta                 90
_cell_angle_gamma                120
_cell_volume                     4004.39
_exptl_crystal_colour            colorless
_exptl_crystal_description       prism
_cell_formula_units_Z            4
loop_
_atom_site_label
_atom_site_type_symbol
_atom_site_fract_x
_atom_site_fract_y
_atom_site_fract_z
S1 S 0.39052(6) 0.42701(5) 0.132557(18)
N1 N 0.4265(3) 0.2734(2) 0.18876(8)
C1 C 0.1405(2) 0.42114(19) 0.19154(9)
H1 H 0.1660 0.3723 0.1754
H2 H 0.0735 0.4157 0.1744
H3 H 0.1184 0.3946 0.2248
N2 N 0.4464(4) 0.1826(3) 0.17932(10)
C2 C 0.24030(16) 0.54832(16) 0.19157(6)
N3 N 0.4507(4) 0.1662(3) 0.13322(10)
C3 C 0.35853(17) 0.57445(16) 0.19208(6)
N4 N 0.4328(2) 0.24882(18) 0.11040(7)
C4 C 0.3859(2) 0.47518(19) 0.19507(7)
H4 H 0.3253 0.4098 0.2139
H5 H 0.4617 0.5025 0.2111
C5 C 0.4189(2) 0.3136(2) 0.14544(8)
C6 C 0.4302(2) 0.2549(2) 0.05808(9)
C7 C 0.3527(3) 0.1549(3) 0.03278(12)
H6 H 0.3009 0.0854 0.0492
C8 C 0.3539(4) 0.1607(4) -0.01832(13)
H7 H 0.3034 0.0936 -0.0364
C9 C 0.4283(4) 0.2639(4) -0.04222(12)
H8 H 0.4279 0.2669 -0.0764
C10 C 0.5032(3) 0.3622(3) -0.01605(11)
H9 H 0.5530 0.4324 -0.0325
C11 C 0.5061(3) 0.3590(3) 0.03460(10)
H10 H 0.5582 0.4259 0.0524
S1A S 0.57299(5) 0.96351(8) 0.132557(18)
S1B S 0.03649(8) 0.60948(6) 0.132557(18)
N1A N 0.7266(2) 1.1531(4) 0.18876(8)
N1B N -0.1531(4) 0.5735(3) 0.18876(8)
C1A C 0.57886(19) 0.71936(28) 0.19154(9)
C1B C 0.28064(28) 0.8595(2) 0.19154(9)
H1A H 0.6277 0.7937 0.1754
H1B H 0.2063 0.8340 0.1754
H2A H 0.5843 0.6578 0.1744
H2B H 0.3422 0.9265 0.1744
H3A H 0.6054 0.7238 0.2248
H3B H 0.2762 0.8816 0.2248
N2A N 0.8174(3) 1.2638(5) 0.17932(10)
N2B N -0.2638(5) 0.5536(4) 0.17932(10)
C2A C 0.45168(16) 0.69198(23) 0.19157(6)
C2B C 0.30802(23) 0.75970(16) 0.19157(6)
N3A N 0.8338(3) 1.2845(5) 0.13322(10)
N3B N -0.2845(5) 0.5493(4) 0.13322(10)
C3A C 0.42555(16) 0.78408(23) 0.19208(6)
C3B C 0.21592(23) 0.64147(17) 0.19208(6)
N4A N 0.75118(18) 1.18398(27) 0.11040(7)
N4B N -0.18398(27) 0.5672(2) 0.11040(7)
C4A C 0.52482(19) 0.91072(28) 0.19507(7)
C4B C 0.08928(28) 0.6141(2) 0.19507(7)
H4A H 0.5902 0.9155 0.2139
H4B H 0.0845 0.6747 0.2139
H5A H 0.4975 0.9592 0.2111
H5B H 0.0408 0.5383 0.2111
C5A C 0.6864(2) 1.1053(3) 0.14544(8)
C5B C -0.1053(3) 0.5811(2) 0.14544(8)
C6A C 0.7451(2) 1.1753(3) 0.05808(9)
C6B C -0.1753(3) 0.5698(2) 0.05808(9)
C7A C 0.8451(3) 1.1978(4) 0.03278(12)
C7B C -0.1978(4) 0.6473(3) 0.03278(12)
H6A H 0.9146 1.2155 0.0492
H6B H -0.2155 0.6991 0.0492
C8A C 0.8393(4) 1.1932(6) -0.01832(13)
C8B C -0.1932(6) 0.6461(4) -0.01832(13)
H7A H 0.9064 1.2098 -0.0364
H7B H -0.2098 0.6966 -0.0364
C9A C 0.7361(4) 1.1644(6) -0.04222(12)
C9B C -0.1644(6) 0.5717(4) -0.04222(12)
H8A H 0.7331 1.1610 -0.0764
H8B H -0.1610 0.5721 -0.0764
C10A C 0.6378(3) 1.1410(4) -0.01605(11)
C10B C -0.1410(4) 0.4968(3) -0.01605(11)
H9A H 0.5676 1.1206 -0.0325
H9B H -0.1206 0.4470 -0.0325
C11A C 0.6410(3) 1.1471(4) 0.03460(10)
C11B C -0.1471(4) 0.4939(3) 0.03460(10)
H10A H 0.5741 1.1323 0.0524
H10B H -0.1323 0.4418 0.0524
C12 C 0.1070(3) 0.1070(3) 0.25000(10)
C13 C 0.0000(3) 0.1067(3) 0.25000(10)
C12A C -0.1070(3) 0.0000(4) 0.25000(10)
C12B C 0.0000(4) -0.1070(3) 0.25000(10)
C13A C -0.1067(3) -0.1067(4) 0.25000(10)
C13B C 0.1067(4) 0.0000(3) 0.25000(10)
loop_
_geom_bond_atom_site_label_1
_geom_bond_atom_site_label_2
_geom_bond_site_symmetry_1
_geom_bond_site_symmetry_2
S1 C4 1_555 1_555
N1 N2 1_555 1_555
C1 H1 1_555 1_555
H2 C1 1_555 1_555
H3 C1 1_555 1_555
N2 N3 1_555 1_555
C2 C1 1_555 1_555
N3 N4 1_555 1_555
C3 C2 1_555 1_555
N4 C5 1_555 1_555
C4 C3 1_555 1_555
H4 C4 1_555 1_555
H5 C4 1_555 1_555
C5 S1 1_555 1_555
C6 N4 1_555 1_555
C7 C6 1_555 1_555
H6 C7 1_555 1_555
C8 C7 1_555 1_555
H7 C8 1_555 1_555
C9 C8 1_555 1_555
H8 C9 1_555 1_555
C10 C9 1_555 1_555
H9 C10 1_555 1_555
C11 C6 1_555 1_555
H10 C11 1_555 1_555
C12 C13 1_555 1_555
C13 C12A 1_555 1_555
S1A C4A 1_555 1_555
S1B C4B 1_555 1_555
N1A N2A 1_555 1_555
N1B N2B 1_555 1_555
C1A H1A 1_555 1_555
C1B H1B 1_555 1_555
H2A C1A 1_555 1_555
H2B C1B 1_555 1_555
H3A C1A 1_555 1_555
H3B C1B 1_555 1_555
N2A N3A 1_555 1_555
N2B N3B 1_555 1_555
C2A C3 1_555 1_555
C2B C1B 1_555 1_555
N3A N4A 1_555 1_555
N3B N4B 1_555 1_555
C3A C2A 1_555 1_555
C3B C2 1_555 1_555
N4A C5A 1_555 1_555
N4B C5B 1_555 1_555
C4A C3A 1_555 1_555
C4B C3B 1_555 1_555
H4A C4A 1_555 1_555
H4B C4B 1_555 1_555
H5A C4A 1_555 1_555
H5B C4B 1_555 1_555
C5A S1A 1_555 1_555
C5B S1B 1_555 1_555
C6A N4A 1_555 1_555
C6B N4B 1_555 1_555
C7A C6A 1_555 1_555
C7B C6B 1_555 1_555
H6A C7A 1_555 1_555
H6B C7B 1_555 1_555
C8A C7A 1_555 1_555
C8B C7B 1_555 1_555
H7A C8A 1_555 1_555
H7B C8B 1_555 1_555
C9A C8A 1_555 1_555
C9B C8B 1_555 1_555
H8A C9A 1_555 1_555
H8B C9B 1_555 1_555
C10A C9A 1_555 1_555
C10B C9B 1_555 1_555
H9A C10A 1_555 1_555
H9B C10B 1_555 1_555
C11A C6A 1_555 1_555
C11B C6B 1_555 1_555
H10A C11A 1_555 1_555
H10B C11B 1_555 1_555
C12A C13A 1_555 1_555
C12B C13A 1_555 1_555
C13B C12 1_555 1_555
N1 C5 1_555 1_555
C10 C11 1_555 1_555
N1A C5A 1_555 1_555
N1B C5B 1_555 1_555
C1A C2A 1_555 1_555
C2B C3A 1_555 1_555
C2B C3B 1_555 1_555
C10A C11A 1_555 1_555
C10B C11B 1_555 1_555
C12B C13B 1_555 1_555

#END
