
#######################################################################
#
#                 Cambridge Crystallographic Data Centre
#                                CCDC 
#
#######################################################################
#
# If this CIF has been generated from an entry in the Cambridge 
# Structural Database, then it will include bibliographic, chemical, 
# crystal, experimental, refinement or atomic coordinate data resulting 
# from the CCDC's data processing and validation procedures.
#
#######################################################################

data_ONEDUH
_chemical_formula_moiety         'C33 H30 N12 S3,C7 H5 N1'
_chemical_name_systematic        
'syn-2,4,6-tris(((1-Phenyl-1H-tetrazol-5-yl)sulfanyl)methyl)-1,3,5-trimethylbenzene benzonitrile clathrate'
_symmetry_cell_setting           trigonal
_symmetry_space_group_name_H-M   'P -3 c 1'
_symmetry_Int_Tables_number      165
_space_group_name_Hall           '-P 3 2"c'
loop_
_symmetry_equiv_pos_site_id
_symmetry_equiv_pos_as_xyz
1 x,y,z
2 -y,x-y,z
3 -x+y,-x,z
4 x-y,-y,1/2-z
5 -x,-x+y,1/2-z
6 y,x,1/2-z
7 -x,-y,-z
8 y,-x+y,-z
9 x-y,x,-z
10 -x+y,y,1/2+z
11 x,x-y,1/2+z
12 -y,-x,1/2+z
_cell_length_a                   13.1288(6)
_cell_length_b                   13.1288(6)
_cell_length_c                   27.313(2)
_cell_angle_alpha                90
_cell_angle_beta                 90
_cell_angle_gamma                120
_cell_volume                     4077.09
_exptl_crystal_colour            colorless
_exptl_crystal_description       prism
_cell_formula_units_Z            4
loop_
_atom_site_label
_atom_site_type_symbol
_atom_site_fract_x
_atom_site_fract_y
_atom_site_fract_z
C12 C -0.0569(3) 0.8763(3) 0.17159(11)
C13 C 0.0000(3) 1.0000(3) 0.15589(11)
C14 C -0.1436(15) 0.9932(17) 0.2225(6)
C15 C -0.0965(16) 0.8378(15) 0.2058(6)
C16 C -0.1476(18) 0.8946(18) 0.2311(7)
N5 N 0.0000 1.0000 0.0509(10)
C17 C 0.0000 1.0000 0.1070(13)
C12A C 0.1237(3) 1.0668(4) 0.17159(11)
C12B C -0.0668(4) 1.0569(3) 0.17159(11)
C12C C 0.0668(4) 1.1237(3) 0.32841(11)
C12D C 0.0569(3) 0.9332(4) 0.32841(11)
C12E C -0.1237(3) 0.9431(3) 0.32841(11)
C13C C 0.0000(4) 1.0000(3) 0.34411(11)
C14A C 0.0068(17) 0.8632(23) 0.2225(6)
C14B C 0.1368(23) 1.1436(15) 0.2225(6)
C14C C -0.1368(23) 1.0068(17) 0.2775(6)
C14D C 0.1436(15) 1.1368(23) 0.2775(6)
C14E C -0.0068(17) 0.8564(15) 0.2775(6)
C15A C 0.1622(15) 1.0657(22) 0.2058(6)
C15B C -0.0657(22) 1.0965(16) 0.2058(6)
C15C C 0.0657(22) 1.1622(15) 0.2942(6)
C15D C 0.0965(16) 0.9343(22) 0.2942(6)
C15E C -0.1622(15) 0.9035(16) 0.2942(6)
C16A C 0.1054(18) 0.9578(25) 0.2311(7)
C16B C 0.0422(25) 1.1476(18) 0.2311(7)
C16C C -0.0422(25) 1.1054(18) 0.2689(7)
C16D C 0.1476(18) 1.0422(25) 0.2689(7)
C16E C -0.1054(18) 0.8524(18) 0.2689(7)
N5C N 0.0000 1.0000 0.4491(10)
C17C C 0.0000 1.0000 0.3930(13)
S1 S 0.03695(4) 0.60929(5) 0.132235(15)
N1 N -0.15227(19) 0.5689(3) 0.18884(7)
N2 N -0.2631(2) 0.5484(4) 0.17966(9)
N3 N -0.2839(2) 0.5441(3) 0.13379(9)
N4 N -0.18331(15) 0.5647(2) 0.11059(7)
C1 C 0.28216(19) 0.85920(18) 0.19086(8)
H1 H 0.2055 0.8324 0.1772
H2 H 0.3400 0.9232 0.1716
H3 H 0.2843 0.8852 0.2239
C2 C 0.30850(15) 0.75935(14) 0.19067(5)
C3 C 0.21705(14) 0.64220(15) 0.19122(5)
C4 C 0.09111(15) 0.61535(18) 0.19450(6)
H4 H 0.0870 0.6761 0.2131
H5 H 0.0432 0.5406 0.2109
C5 C -0.10458(17) 0.5787(2) 0.14549(7)
C6 C -0.17464(17) 0.5686(2) 0.05839(8)
C7 C -0.1466(2) 0.4937(2) 0.03476(8)
H6 H -0.1314 0.4422 0.0525
C8 C -0.1412(2) 0.4961(3) -0.01567(10)
H7 H -0.1225 0.4456 -0.0321
C9 C -0.1631(3) 0.5719(4) -0.04164(11)
H8 H -0.1600 0.5725 -0.0757
C10 C -0.1896(3) 0.6469(4) -0.01748(13)
H9 H -0.2044 0.6985 -0.0353
C11 C -0.1948(3) 0.6471(3) 0.03306(11)
H10 H -0.2114 0.6992 0.0495
S1A S 0.39071(5) 0.42766(6) 0.132235(15)
S1B S 0.57234(6) 0.96305(4) 0.132235(15)
N1A N 0.4311(3) 0.27883(36) 0.18884(7)
N1B N 0.72117(36) 1.15227(19) 0.18884(7)
N2A N 0.4516(4) 0.1885(4) 0.17966(9)
N2B N 0.8115(4) 1.2631(2) 0.17966(9)
N3A N 0.4559(3) 0.1720(4) 0.13379(9)
N3B N 0.8280(4) 1.2839(2) 0.13379(9)
N4A N 0.4353(2) 0.25199(25) 0.11059(7)
N4B N 0.74801(25) 1.18331(15) 0.11059(7)
C1A C 0.14080(18) 0.42296(26) 0.19086(8)
C1B C 0.57704(26) 0.71784(19) 0.19086(8)
H1A H 0.1676 0.3731 0.1772
H1B H 0.6269 0.7945 0.1772
H2A H 0.0768 0.4168 0.1716
H2B H 0.5832 0.6600 0.1716
H3A H 0.1148 0.3991 0.2239
H3B H 0.6009 0.7157 0.2239
C2A C 0.24065(14) 0.54915(21) 0.19067(5)
C2B C 0.45085(21) 0.69150(15) 0.19067(5)
C3A C 0.35780(15) 0.57485(21) 0.19122(5)
C3B C 0.42515(21) 0.78295(14) 0.19122(5)
C4A C 0.38465(18) 0.47576(23) 0.19450(6)
C4B C 0.52424(23) 0.90889(15) 0.19450(6)
H4A H 0.3239 0.4109 0.2131
H4B H 0.5891 0.9130 0.2131
H5A H 0.4594 0.5026 0.2109
H5B H 0.4974 0.9568 0.2109
C5A C 0.4213(2) 0.31672(26) 0.14549(7)
C5B C 0.68328(26) 1.10458(17) 0.14549(7)
C6A C 0.4314(2) 0.25676(26) 0.05839(8)
C6B C 0.74324(26) 1.17464(17) 0.05839(8)
C7A C 0.5063(2) 0.3597(3) 0.03476(8)
C7B C 0.6403(3) 1.1466(2) 0.03476(8)
H6A H 0.5578 0.4264 0.0525
H6B H 0.5736 1.1314 0.0525
C8A C 0.5039(3) 0.3627(4) -0.01567(10)
C8B C 0.6373(4) 1.1412(2) -0.01567(10)
H7A H 0.5544 0.4319 -0.0321
H7B H 0.5681 1.1225 -0.0321
C9A C 0.4281(4) 0.2650(5) -0.04164(11)
C9B C 0.7350(5) 1.1631(3) -0.04164(11)
H8A H 0.4275 0.2675 -0.0757
H8B H 0.7325 1.1600 -0.0757
C10A C 0.3531(4) 0.1635(5) -0.01748(13)
C10B C 0.8365(5) 1.1896(3) -0.01748(13)
H9A H 0.3015 0.0971 -0.0353
H9B H 0.9029 1.2044 -0.0353
C11A C 0.3529(3) 0.1581(4) 0.03306(11)
C11B C 0.8419(4) 1.1948(3) 0.03306(11)
H10A H 0.3008 0.0894 0.0495
H10B H 0.9106 1.2114 0.0495
loop_
_geom_bond_atom_site_label_1
_geom_bond_atom_site_label_2
_geom_bond_site_symmetry_1
_geom_bond_site_symmetry_2
S1 C4 1_555 1_555
N1 N2 1_555 1_555
N2 N3 1_555 1_555
N3 N4 1_555 1_555
N4 C5 1_555 1_555
C1 H1 1_555 1_555
H2 C1 1_555 1_555
H3 C1 1_555 1_555
C2 C1 1_555 1_555
C3 C2 1_555 1_555
C4 C3 1_555 1_555
H4 C4 1_555 1_555
H5 C4 1_555 1_555
C5 S1 1_555 1_555
C6 N4 1_555 1_555
C7 C6 1_555 1_555
H6 C7 1_555 1_555
C8 C7 1_555 1_555
H7 C8 1_555 1_555
C9 C8 1_555 1_555
H8 C9 1_555 1_555
C10 C9 1_555 1_555
H9 C10 1_555 1_555
C11 C6 1_555 1_555
H10 C11 1_555 1_555
C12 C13 1_555 1_555
C13 C17 1_555 1_555
C14 C16 1_555 1_555
C15 C12 1_555 1_555
C16 C15 1_555 1_555
N5 C17 1_555 1_555
S1A C4A 1_555 1_555
S1B C4B 1_555 1_555
N1A N2A 1_555 1_555
N1B N2B 1_555 1_555
N2A N3A 1_555 1_555
N2B N3B 1_555 1_555
N3A N4A 1_555 1_555
N3B N4B 1_555 1_555
N4A C5A 1_555 1_555
N4B C5B 1_555 1_555
C1A H1A 1_555 1_555
C1B H1B 1_555 1_555
H2A C1A 1_555 1_555
H2B C1B 1_555 1_555
H3A C1A 1_555 1_555
H3B C1B 1_555 1_555
C2A C3 1_555 1_555
C2B C1B 1_555 1_555
C3A C2A 1_555 1_555
C3B C2 1_555 1_555
C4A C3A 1_555 1_555
C4B C3B 1_555 1_555
H4A C4A 1_555 1_555
H4B C4B 1_555 1_555
H5A C4A 1_555 1_555
H5B C4B 1_555 1_555
C5A S1A 1_555 1_555
C5B S1B 1_555 1_555
C6A N4A 1_555 1_555
C6B N4B 1_555 1_555
C7A C6A 1_555 1_555
C7B C6B 1_555 1_555
H6A C7A 1_555 1_555
H6B C7B 1_555 1_555
C8A C7A 1_555 1_555
C8B C7B 1_555 1_555
H7A C8A 1_555 1_555
H7B C8B 1_555 1_555
C9A C8A 1_555 1_555
C9B C8B 1_555 1_555
H8A C9A 1_555 1_555
H8B C9B 1_555 1_555
C10A C9A 1_555 1_555
C10B C9B 1_555 1_555
H9A C10A 1_555 1_555
H9B C10B 1_555 1_555
C11A C6A 1_555 1_555
C11B C6B 1_555 1_555
H10A C11A 1_555 1_555
H10B C11B 1_555 1_555
C12A C13 1_555 1_555
C12B C13 1_555 1_555
C12C C13C 1_555 1_555
C12D C13C 1_555 1_555
C12E C13C 1_555 1_555
C13C C17C 1_555 1_555
C14A C12 1_555 1_555
C14B C12A 1_555 1_555
C14C C14 1_555 1_555
C14D C12C 1_555 1_555
C14E C12D 1_555 1_555
C15A C12A 1_555 1_555
C15B C14 1_555 1_555
C15C C12C 1_555 1_555
C15D C12D 1_555 1_555
C15E C16 1_555 1_555
C16A C14A 1_555 1_555
C16B C14B 1_555 1_555
C16C C14C 1_555 1_555
C16D C14D 1_555 1_555
C16E C15 1_555 1_555
N5C C17C 1_555 1_555
N1 C5 1_555 1_555
C10 C11 1_555 1_555
C14 C12B 1_555 1_555
C15 C14A 1_555 1_555
C16 C16E 1_555 1_555
N1A C5A 1_555 1_555
N1B C5B 1_555 1_555
C1A C2A 1_555 1_555
C2B C3A 1_555 1_555
C2B C3B 1_555 1_555
C10A C11A 1_555 1_555
C10B C11B 1_555 1_555
C12B C15B 1_555 1_555
C12E C14C 1_555 1_555
C12E C15E 1_555 1_555
C14A C14E 1_555 1_555
C14B C14D 1_555 1_555
C14B C15A 1_555 1_555
C14C C15E 1_555 1_555
C14D C15C 1_555 1_555
C14E C15D 1_555 1_555
C14E C16E 1_555 1_555
C15A C16A 1_555 1_555
C15A C16D 1_555 1_555
C15B C16B 1_555 1_555
C15B C16C 1_555 1_555
C15C C16B 1_555 1_555
C15C C16C 1_555 1_555
C15D C16A 1_555 1_555
C15D C16D 1_555 1_555
C15E C16E 1_555 1_555
C16A C16D 1_555 1_555
C16B C16C 1_555 1_555

#END
