
#######################################################################
#
#                 Cambridge Crystallographic Data Centre
#                                CCDC 
#
#######################################################################
#
# If this CIF has been generated from an entry in the Cambridge 
# Structural Database, then it will include bibliographic, chemical, 
# crystal, experimental, refinement or atomic coordinate data resulting 
# from the CCDC's data processing and validation procedures.
#
#######################################################################

data_ONILII
_chemical_formula_moiety         'C28 H34 N4'
_chemical_name_systematic        
2,2,7,8,12,12,17,18-octamethyl-2,3,12,13-tetrahydroporphyrin
_symmetry_cell_setting           monoclinic
_symmetry_space_group_name_H-M   'P 21/c'
_symmetry_Int_Tables_number      14
_space_group_name_Hall           '-P 2ybc'
loop_
_symmetry_equiv_pos_site_id
_symmetry_equiv_pos_as_xyz
1 x,y,z
2 -x,1/2+y,1/2-z
3 -x,-y,-z
4 x,1/2-y,1/2+z
_cell_length_a                   7.6659(13)
_cell_length_b                   15.982(3)
_cell_length_c                   9.5235(15)
_cell_angle_alpha                90
_cell_angle_beta                 92.263(8)
_cell_angle_gamma                90
_cell_volume                     1165.88
_exptl_crystal_colour            'dark green'
_exptl_crystal_description       block
_cell_formula_units_Z            2
loop_
_atom_site_label
_atom_site_type_symbol
_atom_site_fract_x
_atom_site_fract_y
_atom_site_fract_z
N1 N 0.25752(10) 0.45189(5) 0.55468(8)
H1 H 0.358(2) 0.4738(9) 0.5317(16)
N2 N 0.51231(10) 0.56815(5) 0.68891(8)
C1 C 0.16022(12) 0.39703(6) 0.47267(10)
C2 C 0.00563(12) 0.37903(6) 0.54626(10)
C3 C 0.01375(12) 0.42319(6) 0.67070(10)
C4 C 0.17376(12) 0.46967(6) 0.67623(10)
C5 C 0.23706(12) 0.52231(6) 0.78310(10)
H2 H 0.1643 0.5288 0.8608
C6 C 0.39302(12) 0.56655(6) 0.79048(10)
C7 C 0.45069(14) 0.61755(6) 0.91838(10)
H3 H 0.4827 0.5808 0.999
H4 H 0.3575 0.6564 0.9459
C8 C 0.61046(13) 0.66567(6) 0.86863(10)
C9 C 0.64340(12) 0.62073(6) 0.72995(9)
C10 C 0.79219(12) 0.63592(6) 0.65593(10)
H5 H 0.873 0.6741 0.6987
C11 C -0.13976(13) 0.32309(7) 0.49573(11)
H6 H -0.2449 0.3566 0.4758
H7 H -0.1633 0.2816 0.5684
H8 H -0.1064 0.2944 0.4099
C12 C -0.12067(13) 0.42320(7) 0.78071(11)
H9 H -0.1167 0.3697 0.8311
H10 H -0.2368 0.4309 0.7359
H11 H -0.0964 0.469 0.8471
C13 C 0.76717(15) 0.65959(7) 0.97297(11)
H12 H 0.867 0.689 0.9349
H13 H 0.7975 0.6006 0.9884
H14 H 0.7373 0.6852 1.0624
C14 C 0.56553(14) 0.75771(6) 0.83907(11)
H15 H 0.5349 0.7852 0.9267
H16 H 0.4664 0.7609 0.7711
H17 H 0.6667 0.7858 0.8005
N1B N 0.74248(10) 0.54811(5) 0.44532(8)
H1B H 0.642(2) 0.5262(9) 0.4683(16)
N2B N 0.48769(10) 0.43185(5) 0.31109(8)
C1B C 0.83978(12) 0.60297(6) 0.52733(10)
C2B C 0.99437(12) 0.62097(6) 0.45374(10)
C3B C 0.98625(12) 0.57681(6) 0.32930(10)
C4B C 0.82624(12) 0.53033(6) 0.32377(10)
C5B C 0.76294(12) 0.47769(6) 0.21690(10)
H2B H 0.8357 0.4712 0.1392
C6B C 0.60698(12) 0.43345(6) 0.20952(10)
C7B C 0.54931(14) 0.38245(6) 0.08162(10)
H3B H 0.5173 0.4192 0.001
H4B H 0.6425 0.3436 0.0541
C8B C 0.38954(13) 0.33433(6) 0.13137(10)
C9B C 0.35660(12) 0.37927(6) 0.27005(9)
C10B C 0.20781(12) 0.36408(6) 0.34407(10)
H5B H 0.127 0.3259 0.3013
C11B C 1.13976(13) 0.67691(7) 0.50427(11)
H6B H 1.2449 0.6434 0.5242
H7B H 1.1633 0.7184 0.4316
H8B H 1.1064 0.7056 0.5901
C12B C 1.12067(13) 0.57680(7) 0.21929(11)
H9B H 1.1167 0.6303 0.1689
H10B H 1.2368 0.5691 0.2641
H11B H 1.0964 0.531 0.1529
C13B C 0.23283(15) 0.34041(7) 0.02703(11)
H12B H 0.133 0.311 0.0651
H13B H 0.2025 0.3994 0.0116
H14B H 0.2627 0.3148 -0.0624
C14B C 0.43447(14) 0.24229(6) 0.16093(11)
H15B H 0.4651 0.2148 0.0733
H16B H 0.5336 0.2391 0.2289
H17B H 0.3333 0.2142 0.1995
loop_
_geom_bond_atom_site_label_1
_geom_bond_atom_site_label_2
_geom_bond_site_symmetry_1
_geom_bond_site_symmetry_2
N1 H1 1_555 1_555
N2 C6 1_555 1_555
C1 N1 1_555 1_555
C2 C1 1_555 1_555
C3 C2 1_555 1_555
C4 N1 1_555 1_555
C5 C4 1_555 1_555
H2 C5 1_555 1_555
C6 C5 1_555 1_555
C7 C6 1_555 1_555
H3 C7 1_555 1_555
H4 C7 1_555 1_555
C8 C7 1_555 1_555
C9 N2 1_555 1_555
C10 C9 1_555 1_555
H5 C10 1_555 1_555
C11 C2 1_555 1_555
H6 C11 1_555 1_555
H7 C11 1_555 1_555
H8 C11 1_555 1_555
C12 C3 1_555 1_555
H9 C12 1_555 1_555
H10 C12 1_555 1_555
H11 C12 1_555 1_555
C13 C8 1_555 1_555
H12 C13 1_555 1_555
H13 C13 1_555 1_555
H14 C13 1_555 1_555
C14 C8 1_555 1_555
H15 C14 1_555 1_555
H16 C14 1_555 1_555
H17 C14 1_555 1_555
N1B H1B 1_555 1_555
N2B C6B 1_555 1_555
C1B C10 1_555 1_555
C2B C1B 1_555 1_555
C3B C2B 1_555 1_555
C4B N1B 1_555 1_555
C5B C4B 1_555 1_555
H2B C5B 1_555 1_555
C6B C5B 1_555 1_555
C7B C6B 1_555 1_555
H3B C7B 1_555 1_555
H4B C7B 1_555 1_555
C8B C7B 1_555 1_555
C9B N2B 1_555 1_555
C10B C1 1_555 1_555
H5B C10B 1_555 1_555
C11B C2B 1_555 1_555
H6B C11B 1_555 1_555
H7B C11B 1_555 1_555
H8B C11B 1_555 1_555
C12B C3B 1_555 1_555
H9B C12B 1_555 1_555
H10B C12B 1_555 1_555
H11B C12B 1_555 1_555
C13B C8B 1_555 1_555
H12B C13B 1_555 1_555
H13B C13B 1_555 1_555
H14B C13B 1_555 1_555
C14B C8B 1_555 1_555
H15B C14B 1_555 1_555
H16B C14B 1_555 1_555
H17B C14B 1_555 1_555
C3 C4 1_555 1_555
C8 C9 1_555 1_555
N1B C1B 1_555 1_555
C3B C4B 1_555 1_555
C8B C9B 1_555 1_555
C9B C10B 1_555 1_555

#END
