
#######################################################################
#
#                 Cambridge Crystallographic Data Centre
#                                CCDC 
#
#######################################################################
#
# If this CIF has been generated from an entry in the Cambridge 
# Structural Database, then it will include bibliographic, chemical, 
# crystal, experimental, refinement or atomic coordinate data resulting 
# from the CCDC's data processing and validation procedures.
#
#######################################################################

data_ONITUB
_chemical_formula_moiety         'C12 H10 N4'
_chemical_name_systematic        3-(1H-Benzimidazol-2-yl)pyridin-2-amine
_symmetry_cell_setting           rhombohedral
_symmetry_space_group_name_H-M   'R -3'
_symmetry_Int_Tables_number      148
_space_group_name_Hall           '-R 3'
loop_
_symmetry_equiv_pos_site_id
_symmetry_equiv_pos_as_xyz
1 x,y,z
2 -y,x-y,z
3 -x+y,-x,z
4 2/3+x,1/3+y,1/3+z
5 2/3-y,1/3+x-y,1/3+z
6 2/3-x+y,1/3-x,1/3+z
7 1/3+x,2/3+y,2/3+z
8 1/3-y,2/3+x-y,2/3+z
9 1/3-x+y,2/3-x,2/3+z
10 -x,-y,-z
11 y,-x+y,-z
12 x-y,x,-z
13 1/3-x,2/3-y,2/3-z
14 1/3+y,2/3-x+y,2/3-z
15 1/3+x-y,2/3+x,2/3-z
16 2/3-x,1/3-y,1/3-z
17 2/3+y,1/3-x+y,1/3-z
18 2/3+x-y,1/3+x,1/3-z
_cell_length_a                   18.337(3)
_cell_length_b                   18.337(3)
_cell_length_c                   17.777(4)
_cell_angle_alpha                90
_cell_angle_beta                 90
_cell_angle_gamma                120
_cell_volume                     5176.61
_cell_formula_units_Z            18
loop_
_atom_site_label
_atom_site_type_symbol
_atom_site_fract_x
_atom_site_fract_y
_atom_site_fract_z
N1 N 0.92598(10) 0.49141(10) 0.07169(8)
H1 H 0.9577(14) 0.5335(14) 0.1066(13)
N2 N 0.85464(10) 0.42489(10) -0.03252(8)
N3 N 0.93039(10) 0.66665(10) -0.13757(8)
N4 N 0.86011(11) 0.52294(11) -0.15273(9)
H2 H 0.8357(16) 0.5290(16) -0.1962(15)
H3 H 0.8337(16) 0.4643(16) -0.1283(14)
C1 C 0.88601(12) 0.40682(12) 0.08798(10)
C2 C 0.88550(13) 0.36353(13) 0.15257(10)
H4 H 0.9167 0.3923 0.1961
C3 C 0.83742(14) 0.27678(14) 0.15020(12)
H5 H 0.8353 0.2449 0.1931
C4 C 0.79140(15) 0.23455(13) 0.08545(12)
H6 H 0.7586 0.1748 0.0858
C5 C 0.79282(13) 0.27797(13) 0.02123(11)
H7 H 0.7620 0.2490 -0.0224
C6 C 0.84092(12) 0.36552(12) 0.02280(10)
C7 C 0.90509(11) 0.49932(11) -0.00065(9)
C8 C 0.93332(11) 0.58177(12) -0.03449(9)
C9 C 0.98405(13) 0.65543(13) 0.00517(10)
H8 H 1.0029 0.6522 0.0542
C10 C 1.00762(15) 0.73358(13) -0.02570(12)
H9 H 1.0424 0.7841 0.0012
C11 C 0.97878(14) 0.73534(13) -0.09660(11)
H10 H 0.9942 0.7887 -0.1178
C12 C 0.90773(11) 0.59021(12) -0.10821(9)
loop_
_geom_bond_atom_site_label_1
_geom_bond_atom_site_label_2
_geom_bond_site_symmetry_1
_geom_bond_site_symmetry_2
N1 H1 1_555 1_555
N2 C6 1_555 1_555
N3 C11 1_555 1_555
N4 H2 1_555 1_555
H3 N4 1_555 1_555
C1 N1 1_555 1_555
C2 C1 1_555 1_555
H4 C2 1_555 1_555
C3 C2 1_555 1_555
H5 C3 1_555 1_555
C4 C3 1_555 1_555
H6 C4 1_555 1_555
C5 C4 1_555 1_555
H7 C5 1_555 1_555
C6 C1 1_555 1_555
C7 N1 1_555 1_555
C8 C7 1_555 1_555
C9 C8 1_555 1_555
H8 C9 1_555 1_555
C10 C9 1_555 1_555
H9 C10 1_555 1_555
C11 C10 1_555 1_555
H10 C11 1_555 1_555
C12 N3 1_555 1_555
N2 C7 1_555 1_555
N4 C12 1_555 1_555
C5 C6 1_555 1_555
C8 C12 1_555 1_555

#END
