
#######################################################################
#
#                 Cambridge Crystallographic Data Centre
#                                CCDC 
#
#######################################################################
#
# If this CIF has been generated from an entry in the Cambridge 
# Structural Database, then it will include bibliographic, chemical, 
# crystal, experimental, refinement or atomic coordinate data resulting 
# from the CCDC's data processing and validation procedures.
#
#######################################################################

data_ONODUS
_chemical_formula_moiety         'C16 H14 I1 N5'
_chemical_name_systematic        
5-(3-iodophenyl)-7-phenyl-4,5,6,7-tetrahydrotetrazolo[1,5-a]pyrimidine
_chemical_properties_biological  'HIF-2 inhibitor activity'
_symmetry_cell_setting           monoclinic
_symmetry_space_group_name_H-M   'P 21'
_symmetry_Int_Tables_number      4
_space_group_name_Hall           'P 2yb'
loop_
_symmetry_equiv_pos_site_id
_symmetry_equiv_pos_as_xyz
1 x,y,z
2 -x,1/2+y,-z
_cell_length_a                   8.499
_cell_length_b                   8.394
_cell_length_c                   11.730
_cell_angle_alpha                90
_cell_angle_beta                 104.19
_cell_angle_gamma                90
_cell_volume                     811.292
_cell_formula_units_Z            2
loop_
_atom_site_label
_atom_site_type_symbol
_atom_site_fract_x
_atom_site_fract_y
_atom_site_fract_z
I1 I 0.67830(8) 1.06739(15) 0.54105(4)
N1 N 0.8482(11) 0.4317(12) 0.8828(8)
N2 N 0.6722(9) 0.2749(8) 0.9609(6)
N3 N 0.6896(9) 0.1525(13) 1.0397(6)
N4 N 0.8415(12) 0.1363(10) 1.0809(8)
N5 N 0.9328(10) 0.2401(11) 1.0332(7)
C1 C 0.7390(10) 0.8296(10) 0.5834(7)
C2 C 0.7092(10) 0.7638(10) 0.6840(7)
H1 H 0.6608 0.8253 0.7318
C3 C 0.7502(11) 0.6093(9) 0.7141(7)
C4 C 0.8255(13) 0.5198(12) 0.6438(9)
H2 H 0.8540 0.4145 0.6632
C5 C 0.8590(13) 0.5884(15) 0.5425(8)
H3 H 0.9150 0.5299 0.4978
C6 C 0.8096(13) 0.7406(13) 0.5096(9)
H4 H 0.8231 0.7832 0.4394
C7 C 0.7124(11) 0.5349(10) 0.8231(7)
H5 H 0.6950 0.6188 0.8768
C8 C 0.5590(10) 0.4280(10) 0.7873(7)
H6 H 0.4668 0.4940 0.7506
H7 H 0.5747 0.3511 0.7293
C9 C 0.5197(10) 0.3386(10) 0.8904(6)
H8 H 0.4765 0.4147 0.9383
C10 C 0.8189(9) 0.3166(13) 0.9564(6)
C11 C 0.3948(11) 0.2087(10) 0.8492(7)
C12 C 0.2369(14) 0.2232(14) 0.8523(9)
H9 H 0.2054 0.3148 0.8854
C13 C 0.1212(14) 0.1101(13) 0.8092(11)
H10 H 0.0139 0.1275 0.8115
C14 C 0.1630(13) -0.0263(12) 0.7636(7)
H11 H 0.0853 -0.1041 0.7351
C15 C 0.3234(16) -0.0494(16) 0.7596(11)
H12 H 0.3539 -0.1430 0.7283
C16 C 0.4399(11) 0.0696(16) 0.8031(8)
H13 H 0.5474 0.0544 0.8006
H14 H 0.927(7) 0.479(10) 0.879(8)
loop_
_geom_bond_atom_site_label_1
_geom_bond_atom_site_label_2
_geom_bond_site_symmetry_1
_geom_bond_site_symmetry_2
I1 C1 1_555 1_555
N1 C7 1_555 1_555
N2 N3 1_555 1_555
N3 N4 1_555 1_555
N4 N5 1_555 1_555
N5 C10 1_555 1_555
C1 C2 1_555 1_555
C2 H1 1_555 1_555
C3 C2 1_555 1_555
C4 C3 1_555 1_555
H2 C4 1_555 1_555
C5 C4 1_555 1_555
H3 C5 1_555 1_555
C6 C1 1_555 1_555
H4 C6 1_555 1_555
C7 C3 1_555 1_555
H5 C7 1_555 1_555
C8 C7 1_555 1_555
H6 C8 1_555 1_555
H7 C8 1_555 1_555
C9 N2 1_555 1_555
H8 C9 1_555 1_555
C10 N1 1_555 1_555
C11 C9 1_555 1_555
C12 C11 1_555 1_555
H9 C12 1_555 1_555
C13 C12 1_555 1_555
H10 C13 1_555 1_555
C14 C13 1_555 1_555
H11 C14 1_555 1_555
C15 C14 1_555 1_555
H12 C15 1_555 1_555
C16 C11 1_555 1_555
H13 C16 1_555 1_555
H14 N1 1_555 1_555
N2 C10 1_555 1_555
C5 C6 1_555 1_555
C8 C9 1_555 1_555
C15 C16 1_555 1_555

#END
