
#######################################################################
#
#                 Cambridge Crystallographic Data Centre
#                                CCDC 
#
#######################################################################
#
# If this CIF has been generated from an entry in the Cambridge 
# Structural Database, then it will include bibliographic, chemical, 
# crystal, experimental, refinement or atomic coordinate data resulting 
# from the CCDC's data processing and validation procedures.
#
#######################################################################

data_ONOSAN
_chemical_formula_moiety         'C19 H22 N2 O3,C7 H8'
_chemical_name_systematic        
'12a-ethyl-7-hydroxy-1,2,3,5,5a,11,12,12a-octahydro-4H,10H-3a,9b-diazaindeno[7,1-jk]fluorene-4,10-dione toluene solvate'
_symmetry_cell_setting           monoclinic
_symmetry_space_group_name_H-M   'P 21/c'
_symmetry_Int_Tables_number      14
_space_group_name_Hall           '-P 2ybc'
loop_
_symmetry_equiv_pos_site_id
_symmetry_equiv_pos_as_xyz
1 x,y,z
2 -x,1/2+y,1/2-z
3 -x,-y,-z
4 x,1/2-y,1/2+z
_cell_length_a                   6.7177(7)
_cell_length_b                   27.310(3)
_cell_length_c                   11.8448(9)
_cell_angle_alpha                90
_cell_angle_beta                 99.883(7)
_cell_angle_gamma                90
_cell_volume                     2140.8
_exptl_crystal_colour            colorless
_exptl_crystal_description       prism
_cell_formula_units_Z            4
loop_
_atom_site_label
_atom_site_type_symbol
_atom_site_fract_x
_atom_site_fract_y
_atom_site_fract_z
O1 O 0.46909(14) -0.03486(3) 0.26471(8)
O2 O 0.16484(15) 0.07016(4) -0.24850(8)
H1 H 0.296(3) 0.0601(8) -0.2496(18)
O3 O -0.15523(14) 0.16040(4) 0.18003(9)
N1 N 0.29161(15) 0.03554(4) 0.28095(8)
N2 N 0.10744(16) 0.10741(4) 0.20524(9)
C1 C 0.30609(17) 0.08900(4) 0.26457(10)
C2 C 0.44062(18) 0.00941(4) 0.24662(10)
C3 C 0.56712(18) 0.04300(4) 0.18644(10)
H2 H 0.5860 0.0292 0.1117
H3 H 0.7012 0.0488 0.2340
C4 C 0.44344(17) 0.09019(4) 0.17016(10)
H4 H 0.5297 0.1202 0.1745
C5 C 0.28668(18) 0.08811(4) 0.06196(10)
C6 C 0.31599(18) 0.07899(4) -0.04930(10)
H5 H 0.4476 0.0732 -0.0656
C7 C 0.14734(19) 0.07845(5) -0.13694(10)
C8 C -0.04564(19) 0.08670(5) -0.11232(11)
H6 H -0.1590 0.0862 -0.1726
C9 C -0.07393(19) 0.09563(5) -0.00033(11)
H7 H -0.2053 0.1011 0.0166
C10 C 0.09415(18) 0.09626(4) 0.08560(10)
C11 C 0.00898(19) 0.14895(5) 0.23474(11)
C12 C 0.1132(2) 0.18013(5) 0.33191(12)
H8 H 0.0434 0.1758 0.3984
H9 H 0.0993 0.2149 0.3084
C13 C 0.3360(2) 0.16879(4) 0.36964(11)
H10 H 0.3852 0.1853 0.4436
H11 H 0.4132 0.1819 0.3123
C14 C 0.37402(18) 0.11365(4) 0.38312(10)
C15 C 0.2446(2) 0.09323(5) 0.46930(10)
H12 H 0.2970 0.1069 0.5461
H13 H 0.1041 0.1050 0.4464
C16 C 0.2409(2) 0.03780(5) 0.47826(11)
H14 H 0.1497 0.0278 0.5315
H15 H 0.3782 0.0255 0.5089
C17 C 0.16753(19) 0.01589(4) 0.36017(10)
H16 H 0.1793 -0.0202 0.3636
H17 H 0.0239 0.0245 0.3337
C18 C 0.60094(19) 0.10348(5) 0.42404(11)
H18 H 0.6232 0.0677 0.4226
H19 H 0.6777 0.1185 0.3687
C19 C 0.6875(2) 0.12245(6) 0.54406(12)
H20 H 0.6689 0.1580 0.5466
H21 H 0.8320 0.1147 0.5621
H22 H 0.6171 0.1068 0.6004
C20 C 0.4172(4) 0.28675(8) 0.2044(2)
C21 C 0.5169(3) 0.25005(9) 0.1549(2)
H23 H 0.6587 0.2460 0.1771
C22 C 0.4092(4) 0.21931(7) 0.0728(2)
H24 H 0.4773 0.1942 0.0389
C23 C 0.2018(4) 0.22527(12) 0.0402(3)
H25 H 0.1282 0.2043 -0.0159
C24 C 0.1021(3) 0.26197(13) 0.0897(3)
H26 H -0.0397 0.2660 0.0675
C25 C 0.2098(4) 0.29271(10) 0.1718(3)
H27 H 0.1417 0.3178 0.2057
C26 C 0.5343(7) 0.31862(14) 0.2976(3)
H28 H 0.6791 0.3117 0.3044
H29 H 0.4906 0.3115 0.3707
H30 H 0.5090 0.3532 0.2780
C27? C 0.4707(4) 0.27512(11) 0.2106(3)
C28? C 0.4351(4) 0.23779(11) 0.1299(3)
H31? H 0.5427 0.2172 0.1169
C29? C 0.2418(5) 0.23065(13) 0.0681(3)
H32? H 0.2174 0.2051 0.0129
C30? C 0.0843(4) 0.26085(16) 0.0871(3)
H33? H -0.0478 0.2560 0.0448
C31? C 0.1199(4) 0.29818(13) 0.1678(3)
H34? H 0.0123 0.3188 0.1807
C32? C 0.3132(5) 0.30531(9) 0.2295(3)
H35? H 0.3376 0.3308 0.2847
C33? C 0.6771(7) 0.28123(18) 0.2816(4)
H36? H 0.6687 0.2770 0.3628
H37? H 0.7285 0.3140 0.2694
H38? H 0.7688 0.2566 0.2590
loop_
_geom_bond_atom_site_label_1
_geom_bond_atom_site_label_2
_geom_bond_site_symmetry_1
_geom_bond_site_symmetry_2
O1 C2 1_555 1_555
O2 H1 1_555 1_555
O3 C11 1_555 1_555
N1 C1 1_555 1_555
N2 C1 1_555 1_555
C1 C4 1_555 1_555
C2 N1 1_555 1_555
C3 C2 1_555 1_555
H2 C3 1_555 1_555
H3 C3 1_555 1_555
C4 C3 1_555 1_555
H4 C4 1_555 1_555
C5 C4 1_555 1_555
C6 C5 1_555 1_555
H5 C6 1_555 1_555
C7 O2 1_555 1_555
C8 C7 1_555 1_555
H6 C8 1_555 1_555
C9 C8 1_555 1_555
H7 C9 1_555 1_555
C10 N2 1_555 1_555
C11 N2 1_555 1_555
C12 C11 1_555 1_555
H8 C12 1_555 1_555
H9 C12 1_555 1_555
C13 C12 1_555 1_555
H10 C13 1_555 1_555
H11 C13 1_555 1_555
C14 C1 1_555 1_555
C15 C14 1_555 1_555
H12 C15 1_555 1_555
H13 C15 1_555 1_555
C16 C15 1_555 1_555
H14 C16 1_555 1_555
H15 C16 1_555 1_555
C17 N1 1_555 1_555
H16 C17 1_555 1_555
H17 C17 1_555 1_555
C18 C14 1_555 1_555
H18 C18 1_555 1_555
H19 C18 1_555 1_555
C19 C18 1_555 1_555
H20 C19 1_555 1_555
H21 C19 1_555 1_555
H22 C19 1_555 1_555
C20 C21 1_555 1_555
C21 H23 1_555 1_555
C22 C21 1_555 1_555
H24 C22 1_555 1_555
C23 C22 1_555 1_555
H25 C23 1_555 1_555
C24 C23 1_555 1_555
H26 C24 1_555 1_555
C25 C20 1_555 1_555
H27 C25 1_555 1_555
C26 C20 1_555 1_555
H28 C26 1_555 1_555
H29 C26 1_555 1_555
H30 C26 1_555 1_555
C5 C10 1_555 1_555
C6 C7 1_555 1_555
C9 C10 1_555 1_555
C13 C14 1_555 1_555
C16 C17 1_555 1_555
C24 C25 1_555 1_555

#END
