
#######################################################################
#
#                 Cambridge Crystallographic Data Centre
#                                CCDC 
#
#######################################################################
#
# If this CIF has been generated from an entry in the Cambridge 
# Structural Database, then it will include bibliographic, chemical, 
# crystal, experimental, refinement or atomic coordinate data resulting 
# from the CCDC's data processing and validation procedures.
#
#######################################################################

data_ONOWIY
_chemical_formula_moiety         'C29 H41 B1 N2 O1'
_chemical_name_systematic        
1,3-bis(2,6-diisopropylphenyl)-6-methyl-4-methylene-3,4-dihydro-1,3,2-diazaborinin-2(1H)-ol
_symmetry_cell_setting           hexagonal
_symmetry_space_group_name_H-M   'P 63 c m'
_symmetry_Int_Tables_number      185
_space_group_name_Hall           "P 6c -2'"
loop_
_symmetry_equiv_pos_site_id
_symmetry_equiv_pos_as_xyz
1 x,y,z
2 -y,x-y,z
3 -x+y,-x,z
4 -x,-y,1/2+z
5 y,-x+y,1/2+z
6 x-y,x,1/2+z
7 -y,-x,1/2+z
8 -x+y,y,1/2+z
9 x,x-y,1/2+z
10 y,x,z
11 x-y,-y,z
12 -x,-x+y,z
_cell_length_a                   20.368(3)
_cell_length_b                   20.368(3)
_cell_length_c                   12.174(2)
_cell_angle_alpha                90
_cell_angle_beta                 90
_cell_angle_gamma                120
_cell_volume                     4373.82
_exptl_crystal_colour            colorless
_exptl_crystal_description       prism
_chemical_melting_point          202deg.C
_cell_formula_units_Z            6
loop_
_atom_site_label
_atom_site_type_symbol
_atom_site_fract_x
_atom_site_fract_y
_atom_site_fract_z
B1 B 0.0000 0.3818(2) 0.2725(4)
O1 O 0.0000 0.41810(14) 0.1777(3)
H1 H 0.0000 0.3928 0.1232
N1 N 0.0000 0.31135(14) 0.2752(3)
N2 N 0.0000 0.41608(15) 0.3752(3)
C1 C 0.0000 0.2087(2) 0.3774(4)
H2 H 0.0000 0.1859 0.4455
H3 H 0.0000 0.1849 0.3103
C2 C 0.0000 0.27596(18) 0.3760(3)
C3 C 0.0000 0.3151(2) 0.4723(3)
H4 H 0.0000 0.2930 0.5409
C4 C 0.0000 0.3810(2) 0.4741(3)
C5 C 0.0000 0.4179(3) 0.5796(4)
H5 H 0.0000 0.4652 0.5645
H6 H 0.0454 0.4291 0.6220
C6 C 0.0000 0.27447(18) 0.1735(3)
C7 C 0.07005(18) 0.2924(2) 0.1265(3)
C8 C 0.0682(2) 0.2554(3) 0.0285(3)
H7 H 0.1144 0.2656 -0.0055
C9 C 0.0000 0.2042(2) -0.0192(4)
H8 H 0.0000 0.1801 -0.0861
C10 C 0.14456(19) 0.3472(3) 0.1795(3)
H9 H 0.1344 0.3704 0.2450
C11 C 0.1846(3) 0.3032(5) 0.2184(5)
H10 H 0.1559 0.2695 0.2792
H11 H 0.2361 0.3393 0.2431
H12 H 0.1869 0.2731 0.1573
C12 C 0.1964(3) 0.4097(3) 0.1019(5)
H13 H 0.2044 0.3874 0.0356
H14 H 0.2452 0.4421 0.1380
H15 H 0.1731 0.4401 0.0818
C13 C 0.0000 0.48713(19) 0.3793(3)
C14 C 0.06911(13) 0.55543(15) 0.3824(3)
C15 C 0.06675(16) 0.62182(16) 0.3916(3)
H16 H 0.1130 0.6688 0.3946
C16 C 0.0000 0.6219(2) 0.3966(3)
H17 H 0.0000 0.6684 0.4035
C17 C 0.14504(16) 0.5566(2) 0.3772(4)
H18 H 0.1361(5) 0.508(2) 0.3474(15)
C18 C 0.1768(4) 0.5746(6) 0.2638(6)
H19 H 0.1372 0.5430 0.2109
H20 H 0.2190 0.5646 0.2579
H21 H 0.1951 0.6282 0.2480
C19 C 0.2036(3) 0.6125(6) 0.4605(7)
H22 H 0.2511 0.6116 0.4534
H23 H 0.1838 0.5975 0.5352
H24 H 0.2132 0.6638 0.4457
H6K H -0.0454 0.3837 0.6220
C7K C -0.07005(18) 0.22235(27) 0.1265(3)
C8K C -0.0682(2) 0.1872(4) 0.0285(3)
H7K H -0.1144 0.1512 -0.0055
C10K C -0.14456(19) 0.20264(36) 0.1795(3)
H9K H -0.1344 0.2360 0.2450
C11K C -0.1846(3) 0.1186(6) 0.2184(5)
H10K H -0.1559 0.1136 0.2792
H11K H -0.2361 0.1032 0.2431
H12K H -0.1869 0.0862 0.1573
C12K C -0.1964(3) 0.2133(4) 0.1019(5)
H13K H -0.2044 0.1830 0.0356
H14K H -0.2452 0.1969 0.1380
H15K H -0.1731 0.2670 0.0818
C14K C -0.06911(13) 0.48632(20) 0.3824(3)
C15K C -0.06675(16) 0.55507(23) 0.3916(3)
H16K H -0.1130 0.5558 0.3946
C17K C -0.14504(16) 0.41156(26) 0.3772(4)
H18K H -0.1361(5) 0.3719(21) 0.3474(15)
C18K C -0.1768(4) 0.3978(7) 0.2638(6)
H19K H -0.1372 0.4058 0.2109
H20K H -0.2190 0.3456 0.2579
H21K H -0.1951 0.4331 0.2480
C19K C -0.2036(3) 0.4089(7) 0.4605(7)
H22K H -0.2511 0.3605 0.4534
H23K H -0.1838 0.4137 0.5352
H24K H -0.2132 0.4506 0.4457
C20? C 0.1950(9) 0.6199(10) 0.2964(16)
C21? C 0.1864(13) 0.5711(18) 0.4859(11)
H25? H 0.2243 0.6037 0.2516
H26? H 0.2296 0.6657 0.3374
H27? H 0.1628 0.6307 0.2485
H28? H 0.2346 0.5723 0.4746
H29? H 0.1550 0.5305 0.5377
H30? H 0.1962 0.6199 0.5158
loop_
_geom_bond_atom_site_label_1
_geom_bond_atom_site_label_2
_geom_bond_site_symmetry_1
_geom_bond_site_symmetry_2
B1 O1 1_555 1_555
O1 H1 1_555 1_555
N1 B1 1_555 1_555
N2 B1 1_555 1_555
C1 H2 1_555 1_555
H3 C1 1_555 1_555
C2 N1 1_555 1_555
C3 C2 1_555 1_555
H4 C3 1_555 1_555
C4 N2 1_555 1_555
C5 C4 1_555 1_555
H5 C5 1_555 1_555
H6 C5 1_555 1_555
C6 N1 1_555 1_555
C7 C6 1_555 1_555
C8 C7 1_555 1_555
H7 C8 1_555 1_555
C9 C8 1_555 1_555
H8 C9 1_555 1_555
C10 C7 1_555 1_555
H9 C10 1_555 1_555
C11 C10 1_555 1_555
H10 C11 1_555 1_555
H11 C11 1_555 1_555
H12 C11 1_555 1_555
C12 C10 1_555 1_555
H13 C12 1_555 1_555
H14 C12 1_555 1_555
H15 C12 1_555 1_555
C13 N2 1_555 1_555
C14 C13 1_555 1_555
C15 C14 1_555 1_555
H16 C15 1_555 1_555
C16 C15 1_555 1_555
H17 C16 1_555 1_555
C17 C14 1_555 1_555
H18 C17 1_555 1_555
C18 C17 1_555 1_555
H19 C18 1_555 1_555
H20 C18 1_555 1_555
H21 C18 1_555 1_555
C19 C17 1_555 1_555
H22 C19 1_555 1_555
H23 C19 1_555 1_555
H24 C19 1_555 1_555
H6K C5 1_555 1_555
C7K C6 1_555 1_555
C8K C9 1_555 1_555
H7K C8K 1_555 1_555
C10K C7K 1_555 1_555
H9K C10K 1_555 1_555
C11K C10K 1_555 1_555
H10K C11K 1_555 1_555
H11K C11K 1_555 1_555
H12K C11K 1_555 1_555
C12K C10K 1_555 1_555
H13K C12K 1_555 1_555
H14K C12K 1_555 1_555
H15K C12K 1_555 1_555
C14K C13 1_555 1_555
C15K C16 1_555 1_555
H16K C15K 1_555 1_555
C17K C14K 1_555 1_555
H18K C17K 1_555 1_555
C18K C17K 1_555 1_555
H19K C18K 1_555 1_555
H20K C18K 1_555 1_555
H21K C18K 1_555 1_555
C19K C17K 1_555 1_555
H22K C19K 1_555 1_555
H23K C19K 1_555 1_555
H24K C19K 1_555 1_555
C1 C2 1_555 1_555
C3 C4 1_555 1_555
C7K C8K 1_555 1_555
C14K C15K 1_555 1_555

#END
