
#######################################################################
#
#                 Cambridge Crystallographic Data Centre
#                                CCDC 
#
#######################################################################
#
# If this CIF has been generated from an entry in the Cambridge 
# Structural Database, then it will include bibliographic, chemical, 
# crystal, experimental, refinement or atomic coordinate data resulting 
# from the CCDC's data processing and validation procedures.
#
#######################################################################

data_ONOYOG01
_chemical_formula_moiety         'C38 H51 N1 O6 Si2'
_chemical_name_systematic        
8-(((t-Butyl(diphenyl)silyl)oxy)methyl)-8-hydroxy-2-(4-methoxyphenyl)-4-methyl-9-((triethylsilyl)oxy)-3-oxa-1-azaspiro[4.4]non-1-en-6-one
_symmetry_cell_setting           monoclinic
_symmetry_space_group_name_H-M   'P 21'
_symmetry_Int_Tables_number      4
_space_group_name_Hall           'P 2yb'
loop_
_symmetry_equiv_pos_site_id
_symmetry_equiv_pos_as_xyz
1 x,y,z
2 -x,1/2+y,-z
_cell_length_a                   13.6063(2)
_cell_length_b                   9.6562(1)
_cell_length_c                   14.2364(3)
_cell_angle_alpha                90
_cell_angle_beta                 98.806(1)
_cell_angle_gamma                90
_cell_volume                     1848.4
_exptl_crystal_colour            colorless
_exptl_crystal_description       block
_cell_formula_units_Z            2
loop_
_atom_site_label
_atom_site_type_symbol
_atom_site_fract_x
_atom_site_fract_y
_atom_site_fract_z
Si1 Si 0.30388(3) 0.23534(4) 0.42409(2)
Si2 Si -0.06604(3) 0.00218(4) 0.12663(2)
O1 O -0.11062(8) 0.43266(12) 0.44713(7)
O2 O 0.02132(7) 0.00253(11) 0.36513(7)
H1 H 0.0577 -0.0166 0.4166
O3 O 0.19080(7) 0.16787(10) 0.40368(7)
O4 O -0.05675(7) 0.15592(10) 0.18157(7)
O5 O -0.14591(7) 0.50275(11) 0.17497(7)
O6 O -0.60867(8) 0.63658(13) 0.05377(9)
N1 N -0.21410(8) 0.34648(13) 0.26482(8)
C1 C -0.10591(9) 0.32885(14) 0.29237(9)
C2 C -0.07903(10) 0.34246(16) 0.40092(10)
C3 C -0.01222(10) 0.22441(16) 0.44027(9)
H2 H -0.0477 0.1613 0.4784
H3 H 0.0479 0.2601 0.4811
C4 C 0.01609(10) 0.14853(14) 0.35342(9)
C5 C -0.07332(10) 0.17928(14) 0.27583(9)
H4 H -0.1288 0.1169 0.2876
C6 C 0.11388(10) 0.20272(15) 0.32816(10)
H5 H 0.1272 0.1602 0.2681
H6 H 0.1105 0.3044 0.3196
C7 C -0.05919(10) 0.44349(15) 0.23502(10)
H7 H -0.0146 0.3992 0.1940
C8 C -0.00454(12) 0.56166(17) 0.29041(12)
H8 H 0.0154 0.6300 0.2460
H9 H 0.0548 0.5257 0.3308
H10 H -0.0484 0.6057 0.3302
C9 C -0.22695(10) 0.44212(15) 0.20253(9)
C10 C -0.32461(10) 0.49527(16) 0.15867(9)
C11 C -0.40916(11) 0.44663(17) 0.19259(10)
H11 H -0.4024 0.3791 0.2417
C12 C -0.50221(11) 0.49523(18) 0.15584(11)
H12 H -0.5592 0.4611 0.1794
C13 C -0.51285(11) 0.59492(16) 0.08371(11)
C14 C -0.42993(11) 0.64337(16) 0.04797(10)
H13 H -0.4370 0.7098 -0.0018
C15 C -0.33581(11) 0.59323(15) 0.08609(10)
H14 H -0.2788 0.6265 0.0621
C16 C -0.62324(12) 0.74075(19) -0.01797(12)
H15 H -0.5849 0.8235 0.0044
H16 H -0.6940 0.7644 -0.0319
H17 H -0.6008 0.7060 -0.0758
C17 C 0.29352(10) 0.42807(16) 0.40561(11)
C18 C 0.28091(13) 0.52143(17) 0.47798(13)
H18 H 0.2831 0.4882 0.5411
C19 C 0.26515(14) 0.66200(19) 0.45952(18)
H19 H 0.2563 0.7234 0.5097
C20 C 0.26245(14) 0.71198(19) 0.36867(17)
H20 H 0.2517 0.8079 0.3561
C21 C 0.27538(15) 0.6231(2) 0.29591(16)
H21 H 0.2735 0.6576 0.2332
C22 C 0.29115(12) 0.48283(18) 0.31425(13)
H22 H 0.3005 0.4227 0.2636
C23 C 0.37840(11) 0.15654(15) 0.33658(11)
C24 C 0.47869(12) 0.18865(17) 0.33640(13)
H23 H 0.5089 0.2599 0.3769
C25 C 0.53500(12) 0.11824(19) 0.27796(13)
H24 H 0.6034 0.1400 0.2800
C26 C 0.49153(13) 0.0167(2) 0.21690(12)
H25 H 0.5296 -0.0301 0.1761
C27 C 0.39233(13) -0.0165(2) 0.21549(13)
H26 H 0.3623 -0.0867 0.1740
C28 C 0.33704(12) 0.05269(18) 0.27464(11)
H27 H 0.2691 0.0289 0.2730
C29 C 0.35491(11) 0.17867(15) 0.54856(11)
C30 C 0.28101(12) 0.20832(18) 0.61774(11)
H28 H 0.2175 0.1628 0.5948
H29 H 0.2706 0.3085 0.6216
H30 H 0.3079 0.1726 0.6809
C31 C 0.45525(13) 0.2485(2) 0.58526(13)
H31 H 0.4800 0.2152 0.6496
H32 H 0.4462 0.3491 0.5866
H33 H 0.5034 0.2255 0.5430
C32 C 0.37033(15) 0.02122(19) 0.54587(12)
H34 H 0.3954 -0.0123 0.6100
H35 H 0.4185 -0.0004 0.5034
H36 H 0.3068 -0.0240 0.5224
C33 C -0.15458(11) -0.11241(16) 0.17813(11)
H37 H -0.1527 -0.2057 0.1497
H38 H -0.1317 -0.1215 0.2473
C34 C -0.26274(11) -0.06091(19) 0.16260(12)
H39 H -0.2665 0.0278 0.1953
H40 H -0.3050 -0.1290 0.1882
H41 H -0.2856 -0.0487 0.0944
C35 C -0.11320(12) 0.04200(18) -0.00098(10)
H42 H -0.1752 0.0967 -0.0049
H43 H -0.0635 0.0994 -0.0271
C36 C -0.13392(15) -0.0893(2) -0.06180(12)
H44 H -0.0754 -0.1497 -0.0517
H45 H -0.1486 -0.0635 -0.1291
H46 H -0.1911 -0.1384 -0.0434
C37 C 0.05798(11) -0.08535(17) 0.13552(11)
H47 H 0.0891 -0.0861 0.2031
H48 H 0.0470 -0.1829 0.1152
C38 C 0.13099(13) -0.0197(3) 0.07697(13)
H49 H 0.1028 -0.0228 0.0094
H50 H 0.1938 -0.0711 0.0873
H51 H 0.1432 0.0768 0.0967
loop_
_geom_bond_atom_site_label_1
_geom_bond_atom_site_label_2
_geom_bond_site_symmetry_1
_geom_bond_site_symmetry_2
Si1 O3 1_555 1_555
Si2 O4 1_555 1_555
O1 C2 1_555 1_555
O2 H1 1_555 1_555
O3 C6 1_555 1_555
O4 C5 1_555 1_555
O5 C7 1_555 1_555
O6 C13 1_555 1_555
N1 C1 1_555 1_555
C1 C2 1_555 1_555
C2 C3 1_555 1_555
C3 H2 1_555 1_555
H3 C3 1_555 1_555
C4 O2 1_555 1_555
C5 C1 1_555 1_555
H4 C5 1_555 1_555
C6 C4 1_555 1_555
H5 C6 1_555 1_555
H6 C6 1_555 1_555
C7 C1 1_555 1_555
H7 C7 1_555 1_555
C8 C7 1_555 1_555
H8 C8 1_555 1_555
H9 C8 1_555 1_555
H10 C8 1_555 1_555
C9 O5 1_555 1_555
C10 C9 1_555 1_555
C11 C10 1_555 1_555
H11 C11 1_555 1_555
C12 C11 1_555 1_555
H12 C12 1_555 1_555
C13 C12 1_555 1_555
C14 C13 1_555 1_555
H13 C14 1_555 1_555
C15 C10 1_555 1_555
H14 C15 1_555 1_555
C16 O6 1_555 1_555
H15 C16 1_555 1_555
H16 C16 1_555 1_555
H17 C16 1_555 1_555
C17 Si1 1_555 1_555
C18 C17 1_555 1_555
H18 C18 1_555 1_555
C19 C18 1_555 1_555
H19 C19 1_555 1_555
C20 C19 1_555 1_555
H20 C20 1_555 1_555
C21 C20 1_555 1_555
H21 C21 1_555 1_555
C22 C17 1_555 1_555
H22 C22 1_555 1_555
C23 Si1 1_555 1_555
C24 C23 1_555 1_555
H23 C24 1_555 1_555
C25 C24 1_555 1_555
H24 C25 1_555 1_555
C26 C25 1_555 1_555
H25 C26 1_555 1_555
C27 C26 1_555 1_555
H26 C27 1_555 1_555
C28 C23 1_555 1_555
H27 C28 1_555 1_555
C29 Si1 1_555 1_555
C30 C29 1_555 1_555
H28 C30 1_555 1_555
H29 C30 1_555 1_555
H30 C30 1_555 1_555
C31 C29 1_555 1_555
H31 C31 1_555 1_555
H32 C31 1_555 1_555
H33 C31 1_555 1_555
C32 C29 1_555 1_555
H34 C32 1_555 1_555
H35 C32 1_555 1_555
H36 C32 1_555 1_555
C33 Si2 1_555 1_555
H37 C33 1_555 1_555
H38 C33 1_555 1_555
C34 C33 1_555 1_555
H39 C34 1_555 1_555
H40 C34 1_555 1_555
H41 C34 1_555 1_555
C35 Si2 1_555 1_555
H42 C35 1_555 1_555
H43 C35 1_555 1_555
C36 C35 1_555 1_555
H44 C36 1_555 1_555
H45 C36 1_555 1_555
H46 C36 1_555 1_555
C37 Si2 1_555 1_555
H47 C37 1_555 1_555
H48 C37 1_555 1_555
C38 C37 1_555 1_555
H49 C38 1_555 1_555
H50 C38 1_555 1_555
H51 C38 1_555 1_555
N1 C9 1_555 1_555
C3 C4 1_555 1_555
C4 C5 1_555 1_555
C14 C15 1_555 1_555
C21 C22 1_555 1_555
C27 C28 1_555 1_555

#END
