
#######################################################################
#
#                 Cambridge Crystallographic Data Centre
#                                CCDC 
#
#######################################################################
#
# If this CIF has been generated from an entry in the Cambridge 
# Structural Database, then it will include bibliographic, chemical, 
# crystal, experimental, refinement or atomic coordinate data resulting 
# from the CCDC's data processing and validation procedures.
#
#######################################################################

data_ONOZIB
_chemical_formula_moiety         'C43 H49 N5 O7 Si1,3(C4 H8 O1)'
_chemical_name_systematic        
'1-(6-Azido-1-(((t-butyl(diphenyl)silyl)oxy)methyl)-8-hydroxy-8-methyl-3-oxo-7-((3-(prop-1-en-2-yl)phenyl)amino)-2-oxa-4-azabicyclo[3.2.1]oct-5-yl)ethyl 4-methoxybenzoate tetrahydrofuran solvate'
_symmetry_cell_setting           monoclinic
_symmetry_space_group_name_H-M   'P 21'
_symmetry_Int_Tables_number      4
_space_group_name_Hall           'P 2yb'
loop_
_symmetry_equiv_pos_site_id
_symmetry_equiv_pos_as_xyz
1 x,y,z
2 -x,1/2+y,-z
_cell_length_a                   15.1190(19)
_cell_length_b                   8.9169(11)
_cell_length_c                   40.931(4)
_cell_angle_alpha                90
_cell_angle_beta                 90.158(5)
_cell_angle_gamma                90
_cell_volume                     5518.08
_exptl_crystal_colour            colorless
_exptl_crystal_description       needle
_cell_formula_units_Z            4
loop_
_atom_site_label
_atom_site_type_symbol
_atom_site_fract_x
_atom_site_fract_y
_atom_site_fract_z
O8 O 0.472(5) 1.365(7) 0.6129(14)
O9 O 0.485(4) 1.126(7) 0.6239(13)
O10 O 0.498(4) 0.802(6) 0.5687(14)
H50 H 0.4596 0.7394 0.5742
O11 O 0.478(4) 0.965(7) 0.4690(15)
O12 O 0.466(4) 1.106(6) 0.5125(14)
O13 O 0.102(6) 1.256(12) 0.448(2)
N6 N 0.516(5) 1.211(8) 0.5735(17)
H51 H 0.5200 1.2853 0.5595
N7 N 0.689(6) 1.131(10) 0.582(2)
N8 N 0.769(7) 1.106(14) 0.582(3)
N9 N 0.843(7) 1.084(19) 0.580(4)
C44 C 0.539(2) 1.059(10) 0.562(2)
C45 C 0.629(5) 1.001(9) 0.5790(17)
H52 H 0.6575 0.9183 0.5662
C46 C 0.602(7) 0.946(10) 0.6143(19)
H53 H 0.6312 1.0064 0.6319
C47 C 0.499(6) 0.968(9) 0.615(2)
C48 C 0.470(7) 0.954(10) 0.5792(18)
C49 C 0.376(7) 0.979(10) 0.573(2)
H54 H 0.3408 0.9191 0.5883
H55 H 0.3615 0.9497 0.5506
H56 H 0.3623 1.0856 0.5761
C50 C 0.547(8) 1.046(11) 0.525(2)
H57 H 0.5520 0.9376 0.5192
C51 C 0.626(7) 1.134(10) 0.511(2)
H58 H 0.6193 1.1406 0.4868
H59 H 0.6818 1.0816 0.5157
H60 H 0.6282 1.2352 0.5198
C52 C 0.490(7) 1.242(11) 0.602(2)
C53 C 0.436(8) 1.061(10) 0.484(2)
C54 C 0.350(4) 1.111(8) 0.4749(16)
C55 C 0.306(5) 1.218(8) 0.4932(14)
H61 H 0.3322 1.2575 0.5124
C56 C 0.222(5) 1.266(8) 0.4834(19)
H62 H 0.1919 1.3392 0.4960
C57 C 0.184(4) 1.208(9) 0.455(2)
C58 C 0.228(5) 1.101(9) 0.4370(14)
H63 H 0.2021 1.0606 0.4178
C59 C 0.312(5) 1.052(7) 0.4468(15)
H64 H 0.3424 0.9789 0.4343
C60 C 0.056(9) 1.20(2) 0.419(3)
H65 H -0.0030 1.2499 0.4181
H66 H 0.0504 1.0949 0.4195
H67 H 0.0892 1.2334 0.3992
C61 C 0.444(8) 0.873(18) 0.6375(10)
H68 H 0.3819 0.9060 0.6371
H69 H 0.4469 0.7660 0.6309
O14 O 0.481(4) 0.893(7) 0.6689(7)
Si2 Si 0.4524(2) 0.8453(6) 0.7061(2)
C62 C 0.5457(7) 0.905(2) 0.7337(4)
C63 C 0.5330(14) 0.946(4) 0.7661(4)
H70 H 0.4751 0.9468 0.7750
C64 C 0.6051(18) 0.985(5) 0.7854(6)
H71 H 0.5965 1.0131 0.8076
C65 C 0.6899(16) 0.983(6) 0.7723(8)
H72 H 0.7391 1.0104 0.7855
C66 C 0.7025(10) 0.942(6) 0.7399(8)
H73 H 0.7604 0.9413 0.7310
C67 C 0.6304(5) 0.903(4) 0.7206(6)
H74 H 0.6390 0.8749 0.6984
C68 C 0.3495(9) 0.952(3) 0.7170(5)
C69 C 0.2957(9) 0.908(5) 0.7428(5)
H75 H 0.3113 0.8240 0.7558
C70 C 0.2191(14) 0.989(7) 0.7497(8)
H76 H 0.1824 0.9588 0.7673
C71 C 0.196(2) 1.112(7) 0.7308(11)
H77 H 0.1440 1.1669 0.7355
C72 C 0.250(2) 1.156(5) 0.7050(11)
H78 H 0.2346 1.2401 0.6920
C73 C 0.3267(19) 1.076(3) 0.6981(8)
H79 H 0.3635 1.1053 0.6805
C74 C 0.435(3) 0.637(2) 0.7086(12)
C75 C 0.347(4) 0.591(8) 0.692(2)
H80 H 0.3355 0.4845 0.6968
H81 H 0.3505 0.6069 0.6688
H82 H 0.2987 0.6514 0.7014
C76 C 0.433(7) 0.584(8) 0.7444(15)
H83 H 0.4936 0.5845 0.7533
H84 H 0.4089 0.4827 0.7455
H85 H 0.3963 0.6525 0.7573
C77 C 0.511(5) 0.555(7) 0.691(2)
H86 H 0.5025 0.4461 0.6934
H87 H 0.5673 0.5842 0.7006
H88 H 0.5099 0.5808 0.6677
N10 N 0.623(8) 0.788(11) 0.617(3)
H89 H 0.5904 0.7233 0.6060
C78 C 0.695(7) 0.735(9) 0.636(3)
C79 C 0.697(6) 0.583(9) 0.644(3)
H90 H 0.6523 0.5176 0.6359
C80 C 0.766(7) 0.528(8) 0.663(3)
C81 C 0.831(6) 0.624(11) 0.674(3)
H91 H 0.8782 0.5858 0.6873
C82 C 0.829(7) 0.775(10) 0.666(3)
H92 H 0.8740 0.8406 0.6737
C83 C 0.761(8) 0.830(8) 0.647(3)
H93 H 0.7590 0.9339 0.6412
C84 C 0.761(2) 0.379(4) 0.6752(17)
C85 C 0.830(6) 0.303(14) 0.696(3)
H94 H 0.8798 0.2729 0.6823
H95 H 0.8042 0.2147 0.7064
H96 H 0.8506 0.3733 0.7128
C86 C 0.701(6) 0.273(10) 0.669(3)
H97 H 0.6538 0.2930 0.6541
H98 H 0.7062 0.1768 0.6787
O1 O -0.028(5) 0.133(8) 0.8876(13)
O2 O -0.015(4) 0.371(6) 0.8753(13)
O3 O -0.004(4) 0.696(6) 0.9321(13)
H1 H -0.0232 0.7603 0.9188
O4 O -0.020(4) 0.532(7) 1.0318(14)
O5 O -0.034(4) 0.389(6) 0.9873(12)
O6 O -0.396(6) 0.233(11) 1.052(2)
N1 N 0.018(5) 0.288(8) 0.9275(17)
H2 H 0.0214 0.2143 0.9416
N2 N 0.185(7) 0.363(12) 0.917(2)
N3 N 0.262(8) 0.390(15) 0.919(3)
N4 N 0.341(8) 0.411(19) 0.919(4)
C1 C 0.041(6) 0.441(10) 0.938(2)
C2 C 0.131(6) 0.498(12) 0.920(2)
H3 H 0.1622 0.5780 0.9331
C3 C 0.100(7) 0.554(10) 0.886(2)
H4 H 0.1285 0.4942 0.8679
C4 C 0.002(7) 0.533(9) 0.885(2)
C5 C -0.030(7) 0.545(10) 0.921(2)
C6 C -0.125(7) 0.521(10) 0.929(2)
H5 H -0.1393 0.5691 0.9494
H6 H -0.1372 0.4131 0.9301
H7 H -0.1618 0.5645 0.9112
C7 C 0.047(7) 0.450(10) 0.9741(19)
H8 H 0.0513 0.5580 0.9805
C8 C 0.126(7) 0.365(11) 0.990(2)
H9 H 0.1163 0.3566 1.0132
H10 H 0.1805 0.4200 0.9854
H11 H 0.1296 0.2645 0.9801
C9 C -0.009(7) 0.259(11) 0.897(2)
C10 C -0.063(7) 0.441(10) 1.016(2)
C11 C -0.150(4) 0.386(7) 1.0248(15)
C12 C -0.187(5) 0.444(7) 1.0531(14)
H12 H -0.1561 0.5163 1.0657
C13 C -0.270(5) 0.395(8) 1.0630(14)
H13 H -0.2960 0.4347 1.0824
C14 C -0.316(4) 0.289(9) 1.0446(18)
C15 C -0.278(5) 0.232(8) 1.0163(17)
H14 H -0.3094 0.1594 1.0037
C16 C -0.195(5) 0.280(7) 1.0064(13)
H15 H -0.1695 0.2409 0.9871
C17 C -0.445(9) 0.303(18) 1.081(3)
H16 H -0.5084 0.2835 1.0788
H17 H -0.4347 0.4120 1.0810
H18 H -0.4228 0.2599 1.1012
C18 C -0.053(7) 0.621(18) 0.8608(11)
H19 H -0.1132 0.5767 0.8586
H20 H -0.0593 0.7272 0.8675
O7 O -0.006(4) 0.609(7) 0.8313(7)
Si1 Si -0.0319(2) 0.6303(3) 0.7923(3)
C19 C -0.0249(13) 0.8373(6) 0.7841(7)
C20 C -0.014(2) 0.9433(12) 0.8087(9)
H21 H -0.0024 0.9120 0.8304
C21 C -0.021(3) 1.0952(8) 0.8014(14)
H22 H -0.0140 1.1677 0.8182
C22 C -0.039(3) 1.1410(14) 0.7696(15)
H23 H -0.0434 1.2448 0.7646
C23 C -0.049(3) 1.035(3) 0.7450(12)
H24 H -0.0611 1.0662 0.7232
C24 C -0.042(3) 0.883(2) 0.7522(8)
H25 H -0.0495 0.8106 0.7354
C25 C -0.1456(6) 0.549(2) 0.7863(9)
C26 C -0.2157(11) 0.625(3) 0.7717(13)
H26 H -0.2074 0.7243 0.7637
C27 C -0.2977(13) 0.556(5) 0.7688(19)
H27 H -0.3456 0.6080 0.7588
C28 C -0.3097(14) 0.411(5) 0.780(2)
H28 H -0.3658 0.3640 0.7785
C29 C -0.2397(17) 0.335(3) 0.7950(17)
H29 H -0.2479 0.2363 0.8030
C30 C -0.1576(14) 0.404(2) 0.7979(11)
H30 H -0.1097 0.3525 0.8079
C31 C 0.052(2) 0.527(4) 0.7669(11)
C32 C 0.042(7) 0.356(5) 0.771(3)
H31 H 0.0796 0.3209 0.7885
H32 H 0.0594 0.3071 0.7502
H33 H -0.0200 0.3325 0.7754
C33 C 0.042(7) 0.568(13) 0.7306(12)
H34 H 0.0924 0.5286 0.7183
H35 H 0.0396 0.6772 0.7282
H36 H -0.0129 0.5239 0.7220
C34 C 0.146(3) 0.571(12) 0.778(2)
H37 H 0.1895 0.5294 0.7626
H38 H 0.1576 0.5301 0.7998
H39 H 0.1517 0.6801 0.7785
N5 N 0.122(9) 0.710(12) 0.883(4)
H40 H 0.0900 0.7757 0.8937
C35 C 0.193(7) 0.765(10) 0.864(3)
C36 C 0.195(7) 0.917(9) 0.856(3)
H41 H 0.1503 0.9815 0.8639
C37 C 0.264(7) 0.974(8) 0.837(3)
C38 C 0.330(7) 0.880(11) 0.826(3)
H42 H 0.3766 0.9191 0.8128
C39 C 0.328(7) 0.728(10) 0.833(3)
H43 H 0.3729 0.6632 0.8254
C40 C 0.259(8) 0.670(8) 0.852(3)
H44 H 0.2579 0.5664 0.8572
C41 C 0.258(2) 1.123(4) 0.8249(18)
C42 C 0.326(6) 1.200(14) 0.804(3)
H45 H 0.2985 1.2845 0.7928
H46 H 0.3505 1.1294 0.7885
H47 H 0.3737 1.2381 0.8184
C43 C 0.197(6) 1.227(10) 0.832(3)
H48 H 0.1507 1.2049 0.8464
H49 H 0.2009 1.3231 0.8218
C87? C -0.1578(6) 0.557(2) 0.7810(7)
C88? C -0.1800(13) 0.454(3) 0.8052(10)
C89? C -0.2544(18) 0.364(4) 0.8015(15)
C90? C -0.3066(16) 0.376(5) 0.7737(16)
C91? C -0.2844(16) 0.479(5) 0.7494(13)
C92? C -0.2100(14) 0.569(4) 0.7531(8)
C93? C 0.0368(10) 0.583(3) 0.7648(6)
C94? C 0.028(2) 0.519(6) 0.7339(7)
C95? C 0.104(3) 0.480(8) 0.7163(11)
C96? C 0.187(2) 0.506(7) 0.7295(13)
C97? C 0.1954(11) 0.570(5) 0.7604(13)
C98? C 0.1203(6) 0.608(3) 0.7780(9)
C99? C -0.064(3) 0.860(2) 0.7921(12)
C100? C -0.146(4) 0.913(7) 0.811(2)
C101? C -0.072(7) 0.916(8) 0.7565(15)
C102? C 0.018(5) 0.935(7) 0.808(3)
C103? C -0.055(10) 0.629(18) 0.8622(9)
C104? C 0.706(10) 0.760(13) 0.639(5)
C105? C 0.728(9) 0.609(12) 0.643(5)
C106? C 0.811(9) 0.570(10) 0.654(5)
C107? C 0.872(9) 0.680(13) 0.662(5)
C108? C 0.850(11) 0.831(12) 0.659(5)
C109? C 0.767(12) 0.870(10) 0.647(5)
C110? C 0.831(2) 0.416(4) 0.660(3)
C111? C 0.918(5) 0.352(17) 0.671(5)
C112? C 0.778(8) 0.299(11) 0.655(5)
C113? C 0.204(8) 0.741(12) 0.862(4)
C114? C 0.225(7) 0.891(10) 0.857(4)
C115? C 0.308(8) 0.929(10) 0.844(4)
C116? C 0.369(7) 0.817(12) 0.837(4)
C117? C 0.347(9) 0.668(11) 0.842(4)
C118? C 0.265(10) 0.630(9) 0.855(4)
C119? C 0.327(2) 1.082(4) 0.838(2)
C120? C 0.412(5) 1.147(16) 0.826(4)
C121? C 0.273(7) 1.199(10) 0.843(4)
H99? H -0.1443 0.4458 0.8242
H100? H -0.2695 0.2940 0.8181
H101? H -0.3574 0.3146 0.7712
H102? H -0.3201 0.4871 0.7304
H103? H -0.1949 0.6388 0.7365
H104? H -0.0286 0.5016 0.7249
H105? H 0.0978 0.4366 0.6953
H106? H 0.2383 0.4792 0.7175
H107? H 0.2524 0.5870 0.7694
H108? H 0.1260 0.6520 0.7990
H109? H -0.1387 0.8912 0.8341
H110? H -0.1984 0.8597 0.8025
H111? H -0.1540 1.0209 0.8076
H112? H -0.0357 1.0063 0.7536
H113? H -0.1338 0.9394 0.7516
H114? H -0.0510 0.8376 0.7415
H115? H 0.0014 1.0333 0.8164
H116? H 0.0640 0.9484 0.7909
H117? H 0.0410 0.8717 0.8252
H118? H 0.5788 0.7289 0.6266
H119? H 0.0812 0.7770 0.8794
H120? H -0.1181 0.6055 0.8651
H121? H -0.0455 0.7372 0.8668
H122? H 0.6861 0.5335 0.6375
H123? H 0.9293 0.6533 0.6701
H124? H 0.8918 0.9064 0.6641
H125? H 0.7514 0.9730 0.6448
H126? H 0.7188 0.3138 0.6479
H127? H 0.7983 0.2005 0.6599
H128? H 0.9280 0.3763 0.6937
H129? H 0.9657 0.3950 0.6574
H130? H 0.9171 0.2430 0.6678
H131? H 0.1835 0.9674 0.8617
H132? H 0.4252 0.8433 0.8287
H133? H 0.3891 0.5914 0.8375
H134? H 0.2501 0.5274 0.8583
H135? H 0.2153 1.1834 0.8515
H136? H 0.2928 1.2976 0.8382
H137? H 0.4616 1.0876 0.8337
H138? H 0.4176 1.2509 0.8333
H139? H 0.4110 1.1455 0.8017
N11? N 0.621(11) 0.797(17) 0.627(6)
N12? N 0.120(11) 0.706(15) 0.876(5)
O15? O -0.027(4) 0.594(6) 0.8302(7)
Si3? Si -0.0518(2) 0.6509(6) 0.7933(2)
loop_
_geom_bond_atom_site_label_1
_geom_bond_atom_site_label_2
_geom_bond_site_symmetry_1
_geom_bond_site_symmetry_2
O1 C9 1_555 1_555
O2 C4 1_555 1_555
O3 H1 1_555 1_555
O4 C10 1_555 1_555
O5 C7 1_555 1_555
O6 C14 1_555 1_555
N1 H2 1_555 1_555
N2 N3 1_555 1_555
N3 N4 1_555 1_555
C1 N1 1_555 1_555
C2 N2 1_555 1_555
H3 C2 1_555 1_555
C3 C2 1_555 1_555
H4 C3 1_555 1_555
C4 C3 1_555 1_555
C5 O3 1_555 1_555
C6 C5 1_555 1_555
H5 C6 1_555 1_555
H6 C6 1_555 1_555
H7 C6 1_555 1_555
C7 C1 1_555 1_555
H8 C7 1_555 1_555
C8 C7 1_555 1_555
H9 C8 1_555 1_555
H10 C8 1_555 1_555
H11 C8 1_555 1_555
C9 O2 1_555 1_555
C10 O5 1_555 1_555
C11 C10 1_555 1_555
C12 C11 1_555 1_555
H12 C12 1_555 1_555
C13 C12 1_555 1_555
H13 C13 1_555 1_555
C14 C13 1_555 1_555
C15 C14 1_555 1_555
H14 C15 1_555 1_555
C16 C11 1_555 1_555
H15 C16 1_555 1_555
C17 O6 1_555 1_555
H16 C17 1_555 1_555
H17 C17 1_555 1_555
H18 C17 1_555 1_555
C18 C4 1_555 1_555
H19 C18 1_555 1_555
H20 C18 1_555 1_555
O7 C18 1_555 1_555
Si1 O7 1_555 1_555
C19 Si1 1_555 1_555
C20 C19 1_555 1_555
H21 C20 1_555 1_555
C21 C20 1_555 1_555
H22 C21 1_555 1_555
C22 C21 1_555 1_555
H23 C22 1_555 1_555
C23 C22 1_555 1_555
H24 C23 1_555 1_555
C24 C19 1_555 1_555
H25 C24 1_555 1_555
C25 Si1 1_555 1_555
C26 C25 1_555 1_555
H26 C26 1_555 1_555
C27 C26 1_555 1_555
H27 C27 1_555 1_555
C28 C27 1_555 1_555
H28 C28 1_555 1_555
C29 C28 1_555 1_555
H29 C29 1_555 1_555
C30 C25 1_555 1_555
H30 C30 1_555 1_555
C31 Si1 1_555 1_555
C32 C31 1_555 1_555
H31 C32 1_555 1_555
H32 C32 1_555 1_555
H33 C32 1_555 1_555
C33 C31 1_555 1_555
H34 C33 1_555 1_555
H35 C33 1_555 1_555
H36 C33 1_555 1_555
C34 C31 1_555 1_555
H37 C34 1_555 1_555
H38 C34 1_555 1_555
H39 C34 1_555 1_555
N5 C3 1_555 1_555
H40 N5 1_555 1_555
C35 N5 1_555 1_555
C36 C35 1_555 1_555
H41 C36 1_555 1_555
C37 C36 1_555 1_555
C38 C37 1_555 1_555
H42 C38 1_555 1_555
C39 C38 1_555 1_555
H43 C39 1_555 1_555
C40 C35 1_555 1_555
H44 C40 1_555 1_555
C41 C37 1_555 1_555
C42 C41 1_555 1_555
H45 C42 1_555 1_555
H46 C42 1_555 1_555
H47 C42 1_555 1_555
C43 C41 1_555 1_555
H48 C43 1_555 1_555
H49 C43 1_555 1_555
O8 C52 1_555 1_555
O9 C47 1_555 1_555
O10 H50 1_555 1_555
O11 C53 1_555 1_555
O12 C50 1_555 1_555
O13 C57 1_555 1_555
N6 H51 1_555 1_555
N7 N8 1_555 1_555
N8 N9 1_555 1_555
C44 N6 1_555 1_555
C45 N7 1_555 1_555
H52 C45 1_555 1_555
C46 C45 1_555 1_555
H53 C46 1_555 1_555
C47 C46 1_555 1_555
C48 O10 1_555 1_555
C49 C48 1_555 1_555
H54 C49 1_555 1_555
H55 C49 1_555 1_555
H56 C49 1_555 1_555
C50 C44 1_555 1_555
H57 C50 1_555 1_555
C51 C50 1_555 1_555
H58 C51 1_555 1_555
H59 C51 1_555 1_555
H60 C51 1_555 1_555
C52 O9 1_555 1_555
C53 O12 1_555 1_555
C54 C53 1_555 1_555
C55 C54 1_555 1_555
H61 C55 1_555 1_555
C56 C55 1_555 1_555
H62 C56 1_555 1_555
C57 C56 1_555 1_555
C58 C57 1_555 1_555
H63 C58 1_555 1_555
C59 C54 1_555 1_555
H64 C59 1_555 1_555
C60 O13 1_555 1_555
H65 C60 1_555 1_555
H66 C60 1_555 1_555
H67 C60 1_555 1_555
C61 C47 1_555 1_555
H68 C61 1_555 1_555
H69 C61 1_555 1_555
O14 C61 1_555 1_555
Si2 O14 1_555 1_555
C62 Si2 1_555 1_555
C63 C62 1_555 1_555
H70 C63 1_555 1_555
C64 C63 1_555 1_555
H71 C64 1_555 1_555
C65 C64 1_555 1_555
H72 C65 1_555 1_555
C66 C65 1_555 1_555
H73 C66 1_555 1_555
C67 C62 1_555 1_555
H74 C67 1_555 1_555
C68 Si2 1_555 1_555
C69 C68 1_555 1_555
H75 C69 1_555 1_555
C70 C69 1_555 1_555
H76 C70 1_555 1_555
C71 C70 1_555 1_555
H77 C71 1_555 1_555
C72 C71 1_555 1_555
H78 C72 1_555 1_555
C73 C68 1_555 1_555
H79 C73 1_555 1_555
C74 Si2 1_555 1_555
C75 C74 1_555 1_555
H80 C75 1_555 1_555
H81 C75 1_555 1_555
H82 C75 1_555 1_555
C76 C74 1_555 1_555
H83 C76 1_555 1_555
H84 C76 1_555 1_555
H85 C76 1_555 1_555
C77 C74 1_555 1_555
H86 C77 1_555 1_555
H87 C77 1_555 1_555
H88 C77 1_555 1_555
N10 C46 1_555 1_555
H89 N10 1_555 1_555
C78 N10 1_555 1_555
C79 C78 1_555 1_555
H90 C79 1_555 1_555
C80 C79 1_555 1_555
C81 C80 1_555 1_555
H91 C81 1_555 1_555
C82 C81 1_555 1_555
H92 C82 1_555 1_555
C83 C78 1_555 1_555
H93 C83 1_555 1_555
C84 C80 1_555 1_555
C85 C84 1_555 1_555
H94 C85 1_555 1_555
H95 C85 1_555 1_555
H96 C85 1_555 1_555
C86 C84 1_555 1_555
H97 C86 1_555 1_555
H98 C86 1_555 1_555
N1 C9 1_555 1_555
C1 C2 1_555 1_555
C1 C5 1_555 1_555
C4 C5 1_555 1_555
C15 C16 1_555 1_555
C23 C24 1_555 1_555
C29 C30 1_555 1_555
C39 C40 1_555 1_555
N6 C52 1_555 1_555
C44 C45 1_555 1_555
C44 C48 1_555 1_555
C47 C48 1_555 1_555
C58 C59 1_555 1_555
C66 C67 1_555 1_555
C72 C73 1_555 1_555
C82 C83 1_555 1_555

#END
