
#######################################################################
#
#                 Cambridge Crystallographic Data Centre
#                                CCDC 
#
#######################################################################
#
# If this CIF has been generated from an entry in the Cambridge 
# Structural Database, then it will include bibliographic, chemical, 
# crystal, experimental, refinement or atomic coordinate data resulting 
# from the CCDC's data processing and validation procedures.
#
#######################################################################

data_ONUGIP
_chemical_formula_moiety         'C60 H38 N4'
_chemical_name_systematic        
'5,10,15,20-tetrakis(2-naphthyl)porphyrin unknown solvate'
_symmetry_cell_setting           monoclinic
_symmetry_space_group_name_H-M   'P 21/n'
_symmetry_Int_Tables_number      14
_space_group_name_Hall           '-P 2yn'
loop_
_symmetry_equiv_pos_site_id
_symmetry_equiv_pos_as_xyz
1 x,y,z
2 1/2-x,1/2+y,1/2-z
3 -x,-y,-z
4 1/2+x,1/2-y,1/2+z
_cell_length_a                   14.3503(7)
_cell_length_b                   9.2413(4)
_cell_length_c                   20.0339(15)
_cell_angle_alpha                90
_cell_angle_beta                 107.231(6)
_cell_angle_gamma                90
_cell_volume                     2537.56
_exptl_crystal_colour            purple
_exptl_crystal_description       block
_cell_formula_units_Z            2
loop_
_atom_site_label
_atom_site_type_symbol
_atom_site_fract_x
_atom_site_fract_y
_atom_site_fract_z
C1 C 0.1849(5) 0.3103(8) 0.0349(4)
C2 C 0.2820(4) 0.3029(9) 0.0859(4)
H1 H 0.3272 0.2287 0.0901
C3 C 0.2937(4) 0.4210(8) 0.1248(4)
H2 H 0.3497 0.4473 0.1600
C4 C 0.2035(4) 0.5016(7) 0.1027(4)
C5 C 0.1894(5) 0.6366(8) 0.1339(4)
C6 C 0.1019(5) 0.7089(7) 0.1164(4)
C7 C 0.0812(5) 0.8375(8) 0.1515(4)
H3 H 0.1246 0.8830 0.1895
C8 C -0.0107(6) 0.8799(8) 0.1200(4)
H4 H -0.0420 0.9578 0.1334
C9 C -0.0543(5) 0.7820(7) 0.0602(4)
C10 C 0.5085(6) 0.8813(10) 0.3408(5)
H5 H 0.5262 0.8471 0.3865
C11 C 0.5613(6) 0.9920(12) 0.3235(7)
H6 H 0.6139 1.0324 0.3573
C12 C 0.5351(6) 1.0438(11) 0.2538(7)
H7 H 0.5709 1.1184 0.2421
C13 C 0.4584(6) 0.9859(10) 0.2039(6)
H8 H 0.4417 1.0206 0.1583
C14 C 0.4049(5) 0.8739(8) 0.2217(5)
C15 C 0.4295(5) 0.8200(9) 0.2914(4)
C16 C 0.3733(6) 0.7143(10) 0.3077(4)
H9 H 0.3876 0.6836 0.3539
C17 C 0.2965(6) 0.6520(10) 0.2584(5)
H10 H 0.2617 0.5776 0.2713
C18 C 0.2701(5) 0.6983(7) 0.1897(4)
C19 C 0.3222(5) 0.8096(8) 0.1720(4)
H11 H 0.3030 0.8441 0.1264
C20 C -0.1410(6) 0.7899(8) 0.0167(4)
C21 C -0.1936(4) 1.1990(7) 0.0127(3)
H12 H -0.1646 1.2839 0.0038
C22 C -0.1513(4) 1.0659(8) 0.0073(3)
H13 H -0.0939 1.0618 -0.0053
C23 C -0.1946(5) 0.9391(6) 0.0207(3)
C24 C -0.2803(5) 0.9453(5) 0.0395(4)
H14 H -0.3094 0.8605 0.0484
C25 C -0.3227(4) 1.0784(6) 0.0449(3)
C26 C -0.2793(3) 1.2052(5) 0.0315(2)
C27 C -0.3216(4) 1.3383(6) 0.0369(3)
H15 H -0.2926 1.4232 0.0280
C28 C -0.4073(4) 1.3445(8) 0.0557(3)
H16 H -0.4356 1.4336 0.0594
C29 C -0.4507(4) 1.2177(9) 0.0691(4)
H17 H -0.5080 1.2219 0.0817
C30 C -0.4084(4) 1.0846(8) 0.0637(4)
H18 H -0.4374 0.9998 0.0727
N1 N 0.1404(4) 0.4329(6) 0.0481(3)
N2 N 0.0191(4) 0.6823(6) 0.0617(3)
H19 H 0.0135 0.6128 0.0322
C1B C -0.1849(5) 0.6897(8) -0.0349(4)
C2B C -0.2820(4) 0.6971(9) -0.0859(4)
H1B H -0.3272 0.7713 -0.0901
C3B C -0.2937(4) 0.5790(8) -0.1248(4)
H2B H -0.3497 0.5527 -0.1600
C4B C -0.2035(4) 0.4984(7) -0.1027(4)
C5B C -0.1894(5) 0.3634(8) -0.1339(4)
C6B C -0.1019(5) 0.2911(7) -0.1164(4)
C7B C -0.0812(5) 0.1625(8) -0.1515(4)
H3B H -0.1246 0.1170 -0.1895
C8B C 0.0107(6) 0.1201(8) -0.1200(4)
H4B H 0.0420 0.0422 -0.1334
C9B C 0.0543(5) 0.2180(7) -0.0602(4)
C10B C -0.5085(6) 0.1187(10) -0.3408(5)
H5B H -0.5262 0.1529 -0.3865
C11B C -0.5613(6) 0.0080(12) -0.3235(7)
H6B H -0.6139 -0.0324 -0.3573
C12B C -0.5351(6) -0.0438(11) -0.2538(7)
H7B H -0.5709 -0.1184 -0.2421
C13B C -0.4584(6) 0.0141(10) -0.2039(6)
H8B H -0.4417 -0.0206 -0.1583
C14B C -0.4049(5) 0.1261(8) -0.2217(5)
C15B C -0.4295(5) 0.1800(9) -0.2914(4)
C16B C -0.3733(6) 0.2857(10) -0.3077(4)
H9B H -0.3876 0.3164 -0.3539
C17B C -0.2965(6) 0.3480(10) -0.2584(5)
H10B H -0.2617 0.4224 -0.2713
C18B C -0.2701(5) 0.3017(7) -0.1897(4)
C19B C -0.3222(5) 0.1904(8) -0.1720(4)
H11B H -0.3030 0.1559 -0.1264
C20B C 0.1410(6) 0.2101(8) -0.0167(4)
C21B C 0.1936(4) -0.1990(7) -0.0127(3)
H12B H 0.1646 -0.2839 -0.0038
C22B C 0.1513(4) -0.0659(8) -0.0073(3)
H13B H 0.0939 -0.0618 0.0053
C23B C 0.1946(5) 0.0609(6) -0.0207(3)
C24B C 0.2803(5) 0.0547(5) -0.0395(4)
H14B H 0.3094 0.1395 -0.0484
C25B C 0.3227(4) -0.0784(6) -0.0449(3)
C26B C 0.2793(3) -0.2052(5) -0.0315(2)
C27B C 0.3216(4) -0.3383(6) -0.0369(3)
H15B H 0.2926 -0.4232 -0.0280
C28B C 0.4073(4) -0.3445(8) -0.0557(3)
H16B H 0.4356 -0.4336 -0.0594
C29B C 0.4507(4) -0.2177(9) -0.0691(4)
H17B H 0.5080 -0.2219 -0.0817
C30B C 0.4084(4) -0.0846(8) -0.0637(4)
H18B H 0.4374 0.0002 -0.0727
N1B N -0.1404(4) 0.5671(6) -0.0481(3)
N2B N -0.0191(4) 0.3177(6) -0.0617(3)
H19B H -0.0135 0.3872 -0.0322
loop_
_geom_bond_atom_site_label_1
_geom_bond_atom_site_label_2
_geom_bond_site_symmetry_1
_geom_bond_site_symmetry_2
C1 C2 1_555 1_555
C2 H1 1_555 1_555
C3 C2 1_555 1_555
H2 C3 1_555 1_555
C4 C3 1_555 1_555
C5 C4 1_555 1_555
C6 C5 1_555 1_555
C7 C6 1_555 1_555
H3 C7 1_555 1_555
C8 C7 1_555 1_555
H4 C8 1_555 1_555
C9 C8 1_555 1_555
C10 H5 1_555 1_555
C11 C10 1_555 1_555
H6 C11 1_555 1_555
C12 C11 1_555 1_555
H7 C12 1_555 1_555
C13 C12 1_555 1_555
H8 C13 1_555 1_555
C14 C13 1_555 1_555
C15 C10 1_555 1_555
C16 C15 1_555 1_555
H9 C16 1_555 1_555
C17 C16 1_555 1_555
H10 C17 1_555 1_555
C18 C5 1_555 1_555
C19 C14 1_555 1_555
H11 C19 1_555 1_555
C20 C9 1_555 1_555
C21 H12 1_555 1_555
C22 C21 1_555 1_555
H13 C22 1_555 1_555
C23 C20 1_555 1_555
C24 C23 1_555 1_555
H14 C24 1_555 1_555
C25 C24 1_555 1_555
C26 C21 1_555 1_555
C27 C26 1_555 1_555
H15 C27 1_555 1_555
C28 C27 1_555 1_555
H16 C28 1_555 1_555
C29 C28 1_555 1_555
H17 C29 1_555 1_555
C30 C25 1_555 1_555
H18 C30 1_555 1_555
N1 C1 1_555 1_555
N2 C6 1_555 1_555
H19 N2 1_555 1_555
C1B C20 1_555 1_555
C2B C1B 1_555 1_555
H1B C2B 1_555 1_555
C3B C2B 1_555 1_555
H2B C3B 1_555 1_555
C4B C3B 1_555 1_555
C5B C4B 1_555 1_555
C6B C5B 1_555 1_555
C7B C6B 1_555 1_555
H3B C7B 1_555 1_555
C8B C7B 1_555 1_555
H4B C8B 1_555 1_555
C9B C8B 1_555 1_555
C10B H5B 1_555 1_555
C11B C10B 1_555 1_555
H6B C11B 1_555 1_555
C12B C11B 1_555 1_555
H7B C12B 1_555 1_555
C13B C12B 1_555 1_555
H8B C13B 1_555 1_555
C14B C13B 1_555 1_555
C15B C10B 1_555 1_555
C16B C15B 1_555 1_555
H9B C16B 1_555 1_555
C17B C16B 1_555 1_555
H10B C17B 1_555 1_555
C18B C5B 1_555 1_555
C19B C14B 1_555 1_555
H11B C19B 1_555 1_555
C20B C1 1_555 1_555
C21B H12B 1_555 1_555
C22B C21B 1_555 1_555
H13B C22B 1_555 1_555
C23B C20B 1_555 1_555
C24B C23B 1_555 1_555
H14B C24B 1_555 1_555
C25B C24B 1_555 1_555
C26B C21B 1_555 1_555
C27B C26B 1_555 1_555
H15B C27B 1_555 1_555
C28B C27B 1_555 1_555
H16B C28B 1_555 1_555
C29B C28B 1_555 1_555
H17B C29B 1_555 1_555
C30B C25B 1_555 1_555
H18B C30B 1_555 1_555
N1B C1B 1_555 1_555
N2B C6B 1_555 1_555
H19B N2B 1_555 1_555
C4 N1 1_555 1_555
C9 N2 1_555 1_555
C14 C15 1_555 1_555
C17 C18 1_555 1_555
C18 C19 1_555 1_555
C22 C23 1_555 1_555
C25 C26 1_555 1_555
C29 C30 1_555 1_555
C4B N1B 1_555 1_555
C9B C20B 1_555 1_555
C9B N2B 1_555 1_555
C14B C15B 1_555 1_555
C17B C18B 1_555 1_555
C18B C19B 1_555 1_555
C22B C23B 1_555 1_555
C25B C26B 1_555 1_555
C29B C30B 1_555 1_555

#END
