
#######################################################################
#
#                 Cambridge Crystallographic Data Centre
#                                CCDC 
#
#######################################################################
#
# If this CIF has been generated from an entry in the Cambridge 
# Structural Database, then it will include bibliographic, chemical, 
# crystal, experimental, refinement or atomic coordinate data resulting 
# from the CCDC's data processing and validation procedures.
#
#######################################################################

data_OPASAB
_chemical_formula_moiety         'C15 H14 N2 S1'
_chemical_name_systematic        
3-(4-(dimethylamino)phenyl)-2-(2-thienyl)acrylonitrile
_symmetry_cell_setting           orthorhombic
_symmetry_space_group_name_H-M   'P 21 21 21'
_symmetry_Int_Tables_number      19
_space_group_name_Hall           'P 2ac 2ab'
loop_
_symmetry_equiv_pos_site_id
_symmetry_equiv_pos_as_xyz
1 x,y,z
2 1/2-x,-y,1/2+z
3 -x,1/2+y,1/2-z
4 1/2+x,1/2-y,-z
_cell_length_a                   5.8364(3)
_cell_length_b                   11.1486(4)
_cell_length_c                   19.6062(8)
_cell_angle_alpha                90
_cell_angle_beta                 90
_cell_angle_gamma                90
_cell_volume                     1275.73
_exptl_crystal_colour            yellow
_exptl_crystal_description       plate
_cell_formula_units_Z            4
loop_
_atom_site_label
_atom_site_type_symbol
_atom_site_fract_x
_atom_site_fract_y
_atom_site_fract_z
C1 C 0.6483(11) 0.5053(5) 0.7916(3)
H1 H 0.7398 0.4372 0.7814
C2 C 0.4493(11) 0.5325(6) 0.7585(4)
H2 H 0.3863 0.4867 0.7222
C3 C 0.3500(12) 0.6376(7) 0.7852(3)
H3 H 0.2105 0.6703 0.7686
S1 S 0.71503(17) 0.60833(10) 0.85423(5)
C4 C 0.4736(3) 0.68867(13) 0.83781(8)
C5 C 0.4112(3) 0.79540(14) 0.87832(8)
C6 C 0.1975(3) 0.84960(13) 0.85909(8)
C7 C 0.5432(3) 0.83734(14) 0.93022(8)
H4 H 0.6778 0.7915 0.9382
C8 C 0.5169(3) 0.93915(13) 0.97584(8)
C9 C 0.3389(3) 1.02475(14) 0.97408(8)
H5 H 0.2204 1.0166 0.9412
C10 C 0.3327(3) 1.11992(14) 1.01898(8)
H6 H 0.2103 1.1759 1.0163
C11 C 0.5053(3) 1.13608(13) 1.06907(8)
C12 C 0.6825(3) 1.04985(14) 1.07174(8)
H7 H 0.7996 1.0567 1.1052
C13 C 0.6864(3) 0.95573(14) 1.02608(8)
H8 H 0.8087 0.8997 1.0286
C14 C 0.6690(3) 1.24401(16) 1.16641(9)
H9 H 0.6460 1.1798 1.1999
H10 H 0.6505 1.3220 1.1888
H11 H 0.8237 1.2381 1.1472
C15 C 0.3258(3) 1.32330(15) 1.10604(9)
H12 H 0.3160 1.3498 1.0585
H13 H 0.3641 1.3918 1.1352
H14 H 0.1781 1.2897 1.1202
N1 N 0.0257(3) 0.88942(13) 0.84131(7)
N2 N 0.5022(3) 1.23243(12) 1.11236(7)
C16? C 0.487(3) 0.5203(12) 0.7591(9)
H15? H 0.4580 0.4623 0.7247
C17? C 0.677(3) 0.5179(16) 0.7999(9)
H16? H 0.7964 0.4600 0.7982
C18? C 0.6659(19) 0.6132(12) 0.8435(7)
H17? H 0.7826 0.6278 0.8763
S2? S 0.3068(7) 0.6378(4) 0.77595(18)
loop_
_geom_bond_atom_site_label_1
_geom_bond_atom_site_label_2
_geom_bond_site_symmetry_1
_geom_bond_site_symmetry_2
C1 H1 1_555 1_555
C2 C1 1_555 1_555
H2 C2 1_555 1_555
C3 C2 1_555 1_555
H3 C3 1_555 1_555
S1 C1 1_555 1_555
C4 C3 1_555 1_555
C5 C4 1_555 1_555
C6 C5 1_555 1_555
C7 C5 1_555 1_555
H4 C7 1_555 1_555
C8 C7 1_555 1_555
C9 C8 1_555 1_555
H5 C9 1_555 1_555
C10 C9 1_555 1_555
H6 C10 1_555 1_555
C11 C10 1_555 1_555
C12 C11 1_555 1_555
H7 C12 1_555 1_555
C13 C8 1_555 1_555
H8 C13 1_555 1_555
C14 H9 1_555 1_555
H10 C14 1_555 1_555
H11 C14 1_555 1_555
C15 H12 1_555 1_555
H13 C15 1_555 1_555
H14 C15 1_555 1_555
N1 C6 1_555 1_555
N2 C11 1_555 1_555
S1 C4 1_555 1_555
C12 C13 1_555 1_555
C14 N2 1_555 1_555
C15 N2 1_555 1_555

#END
