
#######################################################################
#
#                 Cambridge Crystallographic Data Centre
#                                CCDC 
#
#######################################################################
#
# If this CIF has been generated from an entry in the Cambridge 
# Structural Database, then it will include bibliographic, chemical, 
# crystal, experimental, refinement or atomic coordinate data resulting 
# from the CCDC's data processing and validation procedures.
#
#######################################################################

data_OPEGEX
_chemical_formula_moiety         'C17 H19 Br1 N2 O6'
_chemical_name_systematic        
'ethyl 2-(3-bromophenyl)-4-hydroxy-1-isopropyl-4-(nitromethyl)-5-oxo-4,5-dihydro-1H-pyrrole-3-carboxylate'
_symmetry_cell_setting           triclinic
_symmetry_space_group_name_H-M   'P 1'
_symmetry_Int_Tables_number      1
_space_group_name_Hall           'P 1'
loop_
_symmetry_equiv_pos_site_id
_symmetry_equiv_pos_as_xyz
1 x,y,z
_cell_length_a                   9.380(4)
_cell_length_b                   9.756(4)
_cell_length_c                   10.518(5)
_cell_angle_alpha                94.969(6)
_cell_angle_beta                 90.378(6)
_cell_angle_gamma                103.743(6)
_cell_volume                     931.079
_exptl_crystal_colour            colorless
_exptl_crystal_description       sheet
_cell_formula_units_Z            2
loop_
_atom_site_label
_atom_site_type_symbol
_atom_site_fract_x
_atom_site_fract_y
_atom_site_fract_z
Br1 Br 0.92095(8) 1.30047(8) 0.72640(7)
O1 O 0.3625(6) 1.0633(6) 0.5671(5)
O2 O 0.5186(5) 0.5658(5) 0.3121(5)
O3 O 0.1872(6) 0.9439(6) 0.4234(5)
O4 O 0.3826(5) 0.7919(5) 0.2304(4)
H1 H 0.4703 0.8327 0.2185
O5 O 0.2870(6) 0.5588(6) 0.5379(5)
O6 O 0.0542(6) 0.5209(6) 0.4886(5)
N1 N 0.5784(6) 0.7376(6) 0.4811(5)
C1 C 0.6981(8) 1.1243(8) 0.8615(7)
H2 H 0.7354 1.1875 0.9343
C2 C 0.7596(8) 1.1449(9) 0.7434(8)
C3 C 0.7044(7) 1.0529(7) 0.6338(7)
H3 H 0.7487 1.0678 0.5536
C4 C 0.5843(7) 0.9404(7) 0.6452(6)
C5 C 0.5182(7) 0.8491(7) 0.5288(6)
C6 C 0.3950(7) 0.8546(7) 0.4615(6)
C7 C 0.3053(8) 0.9549(7) 0.4829(7)
C8 C 0.2829(9) 1.1749(8) 0.5937(7)
H4 H 0.2878 1.2317 0.5195
H5 H 0.1784 1.1318 0.6086
C9 C 0.3491(8) 1.2656(8) 0.7061(7)
H6 H 0.3299 1.2126 0.7817
H7 H 0.3068 1.3484 0.7167
H8 H 0.4553 1.2969 0.6957
C10 C 0.5797(9) 1.0081(9) 0.8709(7)
H9 H 0.5364 0.9923 0.9513
C11 C 0.5239(8) 0.9148(8) 0.7644(7)
H10 H 0.4454 0.8345 0.7729
C12 C 0.4949(7) 0.6655(7) 0.3751(6)
C13 C 0.3711(7) 0.7407(7) 0.3541(6)
C14 C 0.2228(8) 0.6347(8) 0.3459(7)
H11 H 0.1461 0.6837 0.3240
H12 H 0.2237 0.5600 0.2762
N2 N 0.1841(7) 0.5672(7) 0.4666(6)
C15 C 0.7100(8) 0.6990(8) 0.5309(8)
H13 H 0.7469 0.7646 0.6088
C16 C 0.8294(8) 0.7208(10) 0.4344(9)
H14 H 0.8029 0.6473 0.3629
H15 H 0.9220 0.7149 0.4746
H16 H 0.8408 0.8143 0.4028
C17 C 0.6688(9) 0.5481(9) 0.5713(8)
H17 H 0.5904 0.5402 0.6333
H18 H 0.7549 0.5260 0.6102
H19 H 0.6346 0.4812 0.4962
Br2 Br 0.24316(8) 0.58773(8) -0.09772(7)
O7 O -0.2040(6) 0.8086(6) 0.0695(5)
C18 C -0.3004(11) 0.6075(10) -0.0710(9)
H20 H -0.2543 0.6658 -0.1377
H21 H -0.3901 0.5407 -0.1059
H22 H -0.2322 0.5547 -0.0404
O8 O 0.1994(5) 1.3105(5) 0.3260(5)
O9 O -0.3203(5) 0.9320(6) 0.2087(5)
O10 O -0.0400(7) 1.3246(7) 0.1107(6)
O11 O -0.0425(5) 1.0767(5) 0.4070(4)
H23 H 0.0192 1.0273 0.4114
N3 N 0.1735(6) 1.1357(6) 0.1591(5)
N4 N -0.1334(7) 1.3226(7) 0.1892(7)
O12 O -0.2271(8) 1.3889(9) 0.1879(9)
C19 C 0.1028(8) 0.7648(9) -0.2271(7)
H24 H 0.1081 0.7020 -0.3003
C20 C 0.0416(9) 0.8817(9) -0.2383(7)
H25 H 0.0087 0.9014 -0.3189
C21 C 0.0304(8) 0.9684(8) -0.1273(7)
H26 H -0.0114 1.0474 -0.1330
C22 C 0.0780(7) 0.9419(7) -0.0115(6)
C23 C 0.0552(7) 1.0271(7) 0.1062(6)
C24 C -0.0673(7) 1.0213(7) 0.1758(7)
C25 C -0.2091(8) 0.9197(7) 0.1538(7)
C26 C -0.3385(8) 0.7013(8) 0.0382(7)
H27 H -0.4180 0.7450 0.0124
H28 H -0.3706 0.6465 0.1122
C27 C 0.1547(8) 0.7414(8) -0.1113(7)
C28 C 0.1440(8) 0.8273(7) -0.0018(7)
H29 H 0.1804 0.8096 0.0781
C29 C 0.3215(7) 1.1757(8) 0.1069(7)
H30 H 0.3267 1.1069 0.0318
C30 C 0.3493(9) 1.3205(9) 0.0615(8)
H31 H 0.2650 1.3280 0.0094
H32 H 0.4376 1.3370 0.0103
H33 H 0.3635 1.3914 0.1353
C31 C 0.4365(8) 1.1640(9) 0.2080(8)
H34 H 0.4436 1.2399 0.2769
H35 H 0.5322 1.1727 0.1685
H36 H 0.4068 1.0719 0.2430
C32 C 0.1260(7) 1.2101(7) 0.2626(6)
C33 C -0.0350(7) 1.1327(7) 0.2859(6)
C34 C -0.1325(8) 1.2361(8) 0.2998(7)
H37 H -0.2343 1.1823 0.3126
H38 H -0.1004 1.3012 0.3776
loop_
_geom_bond_atom_site_label_1
_geom_bond_atom_site_label_2
_geom_bond_site_symmetry_1
_geom_bond_site_symmetry_2
Br1 C2 1_555 1_555
O1 C7 1_555 1_555
O2 C12 1_555 1_555
O3 C7 1_555 1_555
O4 H1 1_555 1_555
O5 N2 1_555 1_555
O6 N2 1_555 1_555
N1 C5 1_555 1_555
C1 H2 1_555 1_555
C2 C1 1_555 1_555
C3 C2 1_555 1_555
H3 C3 1_555 1_555
C4 C3 1_555 1_555
C5 C4 1_555 1_555
C6 C5 1_555 1_555
C7 C6 1_555 1_555
C8 O1 1_555 1_555
H4 C8 1_555 1_555
H5 C8 1_555 1_555
C9 C8 1_555 1_555
H6 C9 1_555 1_555
H7 C9 1_555 1_555
H8 C9 1_555 1_555
C10 C1 1_555 1_555
H9 C10 1_555 1_555
C11 C4 1_555 1_555
H10 C11 1_555 1_555
C12 N1 1_555 1_555
C13 O4 1_555 1_555
C14 C13 1_555 1_555
H11 C14 1_555 1_555
H12 C14 1_555 1_555
N2 C14 1_555 1_555
C15 N1 1_555 1_555
H13 C15 1_555 1_555
C16 C15 1_555 1_555
H14 C16 1_555 1_555
H15 C16 1_555 1_555
H16 C16 1_555 1_555
C17 C15 1_555 1_555
H17 C17 1_555 1_555
H18 C17 1_555 1_555
H19 C17 1_555 1_555
Br2 C27 1_555 1_555
O7 C25 1_555 1_555
C18 H20 1_555 1_555
H21 C18 1_555 1_555
H22 C18 1_555 1_555
O8 C32 1_555 1_555
O9 C25 1_555 1_555
O10 N4 1_555 1_555
O11 H23 1_555 1_555
N3 C23 1_555 1_555
N4 O12 1_555 1_555
C19 H24 1_555 1_555
C20 C19 1_555 1_555
H25 C20 1_555 1_555
C21 C20 1_555 1_555
H26 C21 1_555 1_555
C22 C21 1_555 1_555
C23 C22 1_555 1_555
C24 C23 1_555 1_555
C25 C24 1_555 1_555
C26 O7 1_555 1_555
H27 C26 1_555 1_555
H28 C26 1_555 1_555
C27 C19 1_555 1_555
C28 C22 1_555 1_555
H29 C28 1_555 1_555
C29 N3 1_555 1_555
H30 C29 1_555 1_555
C30 C29 1_555 1_555
H31 C30 1_555 1_555
H32 C30 1_555 1_555
H33 C30 1_555 1_555
C31 C29 1_555 1_555
H34 C31 1_555 1_555
H35 C31 1_555 1_555
H36 C31 1_555 1_555
C32 N3 1_555 1_555
C33 O11 1_555 1_555
C34 N4 1_555 1_555
H37 C34 1_555 1_555
H38 C34 1_555 1_555
C6 C13 1_555 1_555
C10 C11 1_555 1_555
C12 C13 1_555 1_555
C18 C26 1_555 1_555
C24 C33 1_555 1_555
C27 C28 1_555 1_555
C32 C33 1_555 1_555
C33 C34 1_555 1_555

#END
