
#######################################################################
#
#                 Cambridge Crystallographic Data Centre
#                                CCDC 
#
#######################################################################
#
# If this CIF has been generated from an entry in the Cambridge 
# Structural Database, then it will include bibliographic, chemical, 
# crystal, experimental, refinement or atomic coordinate data resulting 
# from the CCDC's data processing and validation procedures.
#
#######################################################################

data_OPEHUN
_chemical_formula_moiety         'C19 H24 N2 O6 S1,H2 O1'
_chemical_name_systematic        
'Dimethyl N-((5-(dimethylamino)-1-naphthyl)sulfonyl)glutamate monohydrate'
_symmetry_cell_setting           orthorhombic
_symmetry_space_group_name_H-M   'P 21 21 21'
_symmetry_Int_Tables_number      19
_space_group_name_Hall           'P 2ac 2ab'
loop_
_symmetry_equiv_pos_site_id
_symmetry_equiv_pos_as_xyz
1 x,y,z
2 1/2-x,-y,1/2+z
3 -x,1/2+y,1/2-z
4 1/2+x,1/2-y,-z
_cell_length_a                   6.867(2)
_cell_length_b                   8.766(4)
_cell_length_c                   35.1683(11)
_cell_angle_alpha                90
_cell_angle_beta                 90
_cell_angle_gamma                90
_cell_volume                     2117
_exptl_crystal_colour            yellow
_exptl_crystal_description       block
_cell_formula_units_Z            4
loop_
_atom_site_label
_atom_site_type_symbol
_atom_site_fract_x
_atom_site_fract_y
_atom_site_fract_z
C1 C 0.7558(4) 0.8632(3) 0.89897(7)
C2 C 0.8694(4) 0.7543(4) 0.88187(7)
H1 H 0.9827 0.7822 0.8692
C3 C 0.8140(4) 0.6013(3) 0.88365(8)
H2 H 0.8869 0.5282 0.8708
C4 C 0.6555(4) 0.5578(3) 0.90385(7)
H3 H 0.6238 0.4548 0.9051
C5 C 0.5367(4) 0.6649(3) 0.92303(6)
C6 C 0.3672(4) 0.6211(3) 0.94463(7)
C7 C 0.2477(5) 0.7313(4) 0.95864(9)
H4 H 0.1370 0.7035 0.9722
C8 C 0.2885(5) 0.8844(4) 0.95300(9)
H5 H 0.2013 0.9570 0.9620
C9 C 0.4511(4) 0.9316(4) 0.93480(8)
H6 H 0.4771 1.0353 0.9325
C10 C 0.5824(4) 0.8230(3) 0.91913(7)
C11 C 0.4673(6) 0.3845(4) 0.97447(8)
H7 H 0.4403 0.4123 1.0003
H8 H 0.5978 0.4144 0.9681
H9 H 0.4541 0.2761 0.9716
C12 C 0.1293(5) 0.4241(4) 0.96092(10)
H10 H 0.0385 0.4778 0.9450
H11 H 0.1101 0.4535 0.9869
H12 H 0.1087 0.3162 0.9584
C13 C 0.6988(4) 1.0887(3) 0.82246(6)
H13 H 0.7532 0.9856 0.8207
C14 C 0.8328(4) 1.1975(3) 0.80189(8)
C15 C 1.0412(5) 1.2187(5) 0.74845(10)
H14 H 1.1487 1.2552 0.7634
H15 H 0.9703 1.3039 0.7383
H16 H 1.0894 1.1572 0.7279
C16 C 0.4965(4) 1.0891(3) 0.80410(7)
H17 H 0.4345 1.1868 0.8089
H18 H 0.5104 1.0775 0.7768
C17 C 0.3661(4) 0.9620(3) 0.81927(8)
H19 H 0.3691 0.9646 0.8468
H20 H 0.2332 0.9820 0.8114
C18 C 0.4214(4) 0.8071(4) 0.80648(7)
C19 C 0.3601(6) 0.5436(4) 0.81448(11)
H21 H 0.4980 0.5256 0.8147
H22 H 0.3097 0.5238 0.7895
H23 H 0.2979 0.4772 0.8325
N1 N 0.3300(3) 0.4620(3) 0.94922(6)
N2 N 0.6835(3) 1.1307(2) 0.86259(6)
H24 H 0.5796 1.1684 0.8680
O1 O 1.0172(3) 1.0528(3) 0.87645(6)
O2 O 0.7989(3) 1.1382(2) 0.92785(5)
O3 O 0.8602(5) 1.3273(3) 0.80970(8)
O4 O 0.9140(3) 1.1284(3) 0.77211(5)
O5 O 0.5361(4) 0.7784(3) 0.78218(8)
O6 O 0.3220(4) 0.7005(3) 0.82464(6)
S1 S 0.82694(9) 1.05666(8) 0.893152(18)
O7 O 0.3279(3) 0.2686(2) 0.88340(6)
H25 H 0.2174 0.2251 0.8823
H26 H 0.3233 0.3406 0.8996
loop_
_geom_bond_atom_site_label_1
_geom_bond_atom_site_label_2
_geom_bond_site_symmetry_1
_geom_bond_site_symmetry_2
C1 C2 1_555 1_555
C2 H1 1_555 1_555
C3 C2 1_555 1_555
H2 C3 1_555 1_555
C4 C3 1_555 1_555
H3 C4 1_555 1_555
C5 C4 1_555 1_555
C6 C5 1_555 1_555
C7 C6 1_555 1_555
H4 C7 1_555 1_555
C8 C7 1_555 1_555
H5 C8 1_555 1_555
C9 C8 1_555 1_555
H6 C9 1_555 1_555
C10 C1 1_555 1_555
C11 H7 1_555 1_555
H8 C11 1_555 1_555
H9 C11 1_555 1_555
C12 H10 1_555 1_555
H11 C12 1_555 1_555
H12 C12 1_555 1_555
C13 H13 1_555 1_555
C14 C13 1_555 1_555
C15 H14 1_555 1_555
H15 C15 1_555 1_555
H16 C15 1_555 1_555
C16 C13 1_555 1_555
H17 C16 1_555 1_555
H18 C16 1_555 1_555
C17 C16 1_555 1_555
H19 C17 1_555 1_555
H20 C17 1_555 1_555
C18 C17 1_555 1_555
C19 H21 1_555 1_555
H22 C19 1_555 1_555
H23 C19 1_555 1_555
N1 C6 1_555 1_555
N2 C13 1_555 1_555
H24 N2 1_555 1_555
O1 S1 1_555 1_555
O2 S1 1_555 1_555
O3 C14 1_555 1_555
O4 C14 1_555 1_555
O5 C18 1_555 1_555
O6 C18 1_555 1_555
S1 C1 1_555 1_555
O7 H25 1_555 1_555
H26 O7 1_555 1_555
C5 C10 1_555 1_555
C9 C10 1_555 1_555
C11 N1 1_555 1_555
C12 N1 1_555 1_555
C15 O4 1_555 1_555
C19 O6 1_555 1_555
N2 S1 1_555 1_555

#END
