
#######################################################################
#
#                 Cambridge Crystallographic Data Centre
#                                CCDC 
#
#######################################################################
#
# If this CIF has been generated from an entry in the Cambridge 
# Structural Database, then it will include bibliographic, chemical, 
# crystal, experimental, refinement or atomic coordinate data resulting 
# from the CCDC's data processing and validation procedures.
#
#######################################################################

data_OPESEI
_chemical_formula_moiety         'C21 H32 Cl1 Mg1 N2 O3 1+,Br1 1-'
_chemical_name_systematic        
'Chloro-(quinolin-8-amine)-tris(tetrahydrofuran)-magnesium bromide'
_symmetry_cell_setting           monoclinic
_symmetry_space_group_name_H-M   'P 21/n'
_symmetry_Int_Tables_number      14
_space_group_name_Hall           '-P 2yn'
loop_
_symmetry_equiv_pos_site_id
_symmetry_equiv_pos_as_xyz
1 x,y,z
2 1/2-x,1/2+y,1/2-z
3 -x,-y,-z
4 1/2+x,1/2-y,1/2+z
_cell_length_a                   9.3929(14)
_cell_length_b                   10.0964(16)
_cell_length_c                   26.204(4)
_cell_angle_alpha                90
_cell_angle_beta                 90.701(3)
_cell_angle_gamma                90
_cell_volume                     2484.86
_exptl_crystal_colour            'orange yellow'
_exptl_crystal_description       block
_cell_formula_units_Z            4
loop_
_atom_site_label
_atom_site_type_symbol
_atom_site_fract_x
_atom_site_fract_y
_atom_site_fract_z
Br1 Br 0.23071(8) 0.07325(7) 0.44779(3)
Mg1 Mg 0.1661(4) 0.1723(3) 0.64602(13)
Cl1 Cl 0.2731(2) 0.20472(18) 0.73339(7)
O1 O -0.0143(8) 0.0765(7) 0.6768(3)
O2 O 0.2610(8) -0.0126(7) 0.6339(3)
O3 O 0.3375(8) 0.2630(8) 0.6096(3)
N1 N 0.0535(9) 0.3612(9) 0.6431(3)
N2 N 0.0536(10) 0.1627(9) 0.5714(3)
H1 H 0.1183 0.1460 0.5461
H2 H -0.0109 0.0941 0.5717
C1 C 0.0517(12) 0.4566(10) 0.6790(4)
H3 H 0.1003 0.4401 0.7104
C2 C -0.0164(13) 0.5771(10) 0.6730(5)
H4 H -0.0135 0.6417 0.6994
C3 C -0.0871(13) 0.6008(11) 0.6289(4)
H5 H -0.1346 0.6831 0.6245
C4 C -0.0928(12) 0.5078(11) 0.5893(4)
C5 C -0.1623(12) 0.5260(11) 0.5427(4)
H6 H -0.2118 0.6065 0.5362
C6 C -0.1605(13) 0.4295(11) 0.5056(5)
H7 H -0.2061 0.4447 0.4736
C7 C -0.0908(12) 0.3075(12) 0.5151(4)
H8 H -0.0927 0.2400 0.4899
C8 C -0.0211(11) 0.2866(10) 0.5602(4)
C9 C -0.0187(11) 0.3846(10) 0.5990(4)
C10 C 0.0024(16) -0.0363(14) 0.7103(7)
H9 H 0.0882 -0.0260 0.7323
H10 H 0.0116 -0.1190 0.6903
C11 C -0.128(2) -0.040(3) 0.7416(8)
H11 H -0.1126 0.0079 0.7742
H12 H -0.1560 -0.1322 0.7490
C12 C -0.2420(16) 0.031(2) 0.7081(7)
H13 H -0.2869 -0.0313 0.6835
H14 H -0.3166 0.0718 0.7292
C13 C -0.1561(13) 0.1320(15) 0.6818(5)
H15 H -0.1977 0.1521 0.6478
H16 H -0.1525 0.2147 0.7021
C14 C 0.2208(13) -0.1061(12) 0.5947(5)
H17 H 0.2464 -0.0719 0.5606
H18 H 0.1169 -0.1226 0.5952
C15 C 0.3010(19) -0.2305(17) 0.6063(9)
H19 H 0.3366 -0.2704 0.5745
H20 H 0.2380 -0.2954 0.6232
C16 C 0.4233(16) -0.1952(14) 0.6411(6)
H21 H 0.5123 -0.1851 0.6216
H22 H 0.4377 -0.2638 0.6676
C17 C 0.3801(16) -0.0657(13) 0.6646(6)
H23 H 0.3501 -0.0796 0.7003
H24 H 0.4610 -0.0029 0.6646
C18 C 0.3911(16) 0.3951(14) 0.6242(7)
H25 H 0.4026 0.4023 0.6617
H26 H 0.3253 0.4654 0.6121
C19 C 0.531(2) 0.406(2) 0.5986(10)
H27 H 0.6093 0.3809 0.6224
H28 H 0.5474 0.4980 0.5869
C20 C 0.525(2) 0.311(2) 0.5528(10)
H29 H 0.4813 0.3526 0.5223
H30 H 0.6209 0.2766 0.5442
C21 C 0.4315(15) 0.2033(15) 0.5747(7)
H31 H 0.3769 0.1592 0.5469
H32 H 0.4907 0.1358 0.5923
loop_
_geom_bond_atom_site_label_1
_geom_bond_atom_site_label_2
_geom_bond_site_symmetry_1
_geom_bond_site_symmetry_2
Mg1 Cl1 1_555 1_555
O1 Mg1 1_555 1_555
O2 Mg1 1_555 1_555
O3 Mg1 1_555 1_555
N1 Mg1 1_555 1_555
N2 Mg1 1_555 1_555
H1 N2 1_555 1_555
H2 N2 1_555 1_555
C1 N1 1_555 1_555
H3 C1 1_555 1_555
C2 C1 1_555 1_555
H4 C2 1_555 1_555
C3 C2 1_555 1_555
H5 C3 1_555 1_555
C4 C3 1_555 1_555
C5 C4 1_555 1_555
H6 C5 1_555 1_555
C6 C5 1_555 1_555
H7 C6 1_555 1_555
C7 C6 1_555 1_555
H8 C7 1_555 1_555
C8 N2 1_555 1_555
C9 N1 1_555 1_555
C10 O1 1_555 1_555
H9 C10 1_555 1_555
H10 C10 1_555 1_555
C11 C10 1_555 1_555
H11 C11 1_555 1_555
H12 C11 1_555 1_555
C12 C11 1_555 1_555
H13 C12 1_555 1_555
H14 C12 1_555 1_555
C13 O1 1_555 1_555
H15 C13 1_555 1_555
H16 C13 1_555 1_555
C14 O2 1_555 1_555
H17 C14 1_555 1_555
H18 C14 1_555 1_555
C15 C14 1_555 1_555
H19 C15 1_555 1_555
H20 C15 1_555 1_555
C16 C15 1_555 1_555
H21 C16 1_555 1_555
H22 C16 1_555 1_555
C17 O2 1_555 1_555
H23 C17 1_555 1_555
H24 C17 1_555 1_555
C18 O3 1_555 1_555
H25 C18 1_555 1_555
H26 C18 1_555 1_555
C19 C18 1_555 1_555
H27 C19 1_555 1_555
H28 C19 1_555 1_555
C20 C19 1_555 1_555
H29 C20 1_555 1_555
H30 C20 1_555 1_555
C21 O3 1_555 1_555
H31 C21 1_555 1_555
H32 C21 1_555 1_555
C4 C9 1_555 1_555
C7 C8 1_555 1_555
C8 C9 1_555 1_555
C12 C13 1_555 1_555
C16 C17 1_555 1_555
C20 C21 1_555 1_555

#END
