
#######################################################################
#
#                 Cambridge Crystallographic Data Centre
#                                CCDC 
#
#######################################################################
#
# If this CIF has been generated from an entry in the Cambridge 
# Structural Database, then it will include bibliographic, chemical, 
# crystal, experimental, refinement or atomic coordinate data resulting 
# from the CCDC's data processing and validation procedures.
#
#######################################################################

data_OPICAS
_chemical_formula_moiety         'C21 H17 N1 O2'
_chemical_name_systematic        
'Ethyl 3-phenyl-1H-benzo[g]indole-2-carboxylate'
_symmetry_cell_setting           monoclinic
_symmetry_space_group_name_H-M   'P 21/n'
_symmetry_Int_Tables_number      14
_space_group_name_Hall           '-P 2yn'
loop_
_symmetry_equiv_pos_site_id
_symmetry_equiv_pos_as_xyz
1 x,y,z
2 1/2-x,1/2+y,1/2-z
3 -x,-y,-z
4 1/2+x,1/2-y,1/2+z
_cell_length_a                   15.8403(12)
_cell_length_b                   9.3434(7)
_cell_length_c                   22.2175(16)
_cell_angle_alpha                90
_cell_angle_beta                 99.239(2)
_cell_angle_gamma                90
_cell_volume                     3245.58
_exptl_crystal_colour            colorless
_exptl_crystal_description       prismatic
_cell_formula_units_Z            8
loop_
_atom_site_label
_atom_site_type_symbol
_atom_site_fract_x
_atom_site_fract_y
_atom_site_fract_z
N1 N 0.73760(12) 0.89244(19) 0.90073(8)
O1 O 0.88399(10) 0.78399(17) 0.97257(7)
O2 O 0.80222(9) 0.66414(16) 1.02894(6)
C1 C 0.73342(14) 0.8032(2) 0.94978(9)
C2 C 0.64902(13) 0.7860(2) 0.95718(9)
C3 C 0.59964(14) 0.8670(2) 0.90947(9)
C4 C 0.65610(14) 0.9325(2) 0.87596(9)
C5 C 0.62753(14) 1.0191(2) 0.82336(9)
C6 C 0.68230(16) 1.0858(2) 0.78841(10)
H1 H 0.7412 1.0758 0.7992
C7 C 0.64941(19) 1.1659(3) 0.73829(11)
H2 H 0.6861 1.2104 0.7153
C8 C 0.56104(19) 1.1808(3) 0.72169(11)
H3 H 0.5391 1.2349 0.6876
C9 C 0.50686(17) 1.1167(2) 0.75494(10)
H4 H 0.4482 1.1283 0.7433
C10 C 0.53739(15) 1.0333(2) 0.80664(10)
C11 C 0.48068(15) 0.9634(2) 0.84094(10)
H5 H 0.4220 0.9730 0.8286
C12 C 0.50966(14) 0.8834(2) 0.89101(10)
H6 H 0.4714 0.8399 0.9130
C13 C 0.81494(15) 0.7511(2) 0.98426(9)
C14 C 0.87730(15) 0.6006(2) 1.06531(10)
H7 H 0.9111 0.6738 1.0890
H8 H 0.9125 0.5546 1.0390
C15 C 0.84685(18) 0.4920(3) 1.10710(11)
H9 H 0.8150 0.5394 1.1345
H10 H 0.8953 0.4442 1.1301
H11 H 0.8109 0.4230 1.0833
C16 C 0.61167(13) 0.7065(2) 1.00414(9)
C17 C 0.62758(14) 0.5616(2) 1.01548(9)
H12 H 0.6636 0.5124 0.9936
C18 C 0.59061(15) 0.4909(3) 1.05862(10)
H13 H 0.6018 0.3941 1.0656
C19 C 0.53742(16) 0.5611(3) 1.09149(10)
H14 H 0.5127 0.5122 1.1207
C20 C 0.52056(15) 0.7047(3) 1.08114(10)
H15 H 0.4843 0.7531 1.1032
C21 C 0.55774(14) 0.7758(2) 1.03788(10)
H16 H 0.5464 0.8727 1.0312
H33 H 0.7843(12) 0.925(2) 0.8874(10)
N2 N 1.03829(12) 0.90277(19) 0.93263(8)
O3 O 0.89523(10) 1.00076(16) 0.85363(7)
O4 O 0.98054(10) 1.14661(16) 0.80974(7)
C22 C 1.04539(14) 0.9873(2) 0.88275(9)
C23 C 1.13140(14) 1.0044(2) 0.87760(9)
C24 C 1.17770(14) 0.9281(2) 0.92822(9)
C25 C 1.11866(14) 0.8662(2) 0.96080(9)
C26 C 1.14297(14) 0.7784(2) 1.01302(9)
C27 C 1.08524(16) 0.7088(2) 1.04444(10)
H17 H 1.0268 0.7217 1.0320
C28 C 1.11323(17) 0.6224(3) 1.09303(11)
H18 H 1.0740 0.5750 1.1129
C29 C 1.20070(18) 0.6053(3) 1.11276(11)
H19 H 1.2196 0.5471 1.1462
C30 C 1.25874(17) 0.6725(3) 1.08370(10)
H20 H 1.3168 0.6609 1.0979
C31 C 1.23217(15) 0.7595(2) 1.03221(10)
C32 C 1.29201(15) 0.8243(2) 0.99884(10)
H21 H 1.3502 0.8119 1.0124
C33 C 1.26653(15) 0.9032(2) 0.94802(11)
H22 H 1.3068 0.9409 0.9262
C34 C 0.96557(15) 1.0432(2) 0.84775(9)
C35 C 0.90842(16) 1.2014(3) 0.76777(12)
H23 H 0.9217 1.2965 0.7544
H24 H 0.8591 1.2088 0.7884
C36 C 0.8876(2) 1.1059(3) 0.71375(12)
H25 H 0.9373 1.0946 0.6945
H26 H 0.8422 1.1476 0.6853
H27 H 0.8699 1.0141 0.7266
C37 C 1.16989(14) 1.0771(2) 0.82977(9)
C38 C 1.14047(15) 1.0539(2) 0.76805(10)
H28 H 1.0946 0.9926 0.7562
C39 C 1.17889(17) 1.1212(3) 0.72439(11)
H29 H 1.1581 1.1051 0.6834
C40 C 1.24702(18) 1.2115(3) 0.74006(12)
H30 H 1.2718 1.2575 0.7101
C41 C 1.27826(16) 1.2330(3) 0.80115(11)
H31 H 1.3253 1.2922 0.8126
C42 C 1.23986(15) 1.1667(2) 0.84515(10)
H32 H 1.2613 1.1825 0.8861
H34 H 0.9914(12) 0.876(2) 0.9456(11)
loop_
_geom_bond_atom_site_label_1
_geom_bond_atom_site_label_2
_geom_bond_site_symmetry_1
_geom_bond_site_symmetry_2
N1 C1 1_555 1_555
N2 C22 1_555 1_555
O1 C13 1_555 1_555
O2 C13 1_555 1_555
O3 C34 1_555 1_555
O4 C34 1_555 1_555
C1 C2 1_555 1_555
C2 C3 1_555 1_555
C3 C4 1_555 1_555
C4 N1 1_555 1_555
C5 C4 1_555 1_555
C6 C5 1_555 1_555
H1 C6 1_555 1_555
C7 C6 1_555 1_555
H2 C7 1_555 1_555
C8 C7 1_555 1_555
H3 C8 1_555 1_555
C9 C8 1_555 1_555
H4 C9 1_555 1_555
C10 C5 1_555 1_555
C11 C10 1_555 1_555
H5 C11 1_555 1_555
C12 C3 1_555 1_555
H6 C12 1_555 1_555
C13 C1 1_555 1_555
C14 O2 1_555 1_555
H7 C14 1_555 1_555
H8 C14 1_555 1_555
C15 C14 1_555 1_555
H9 C15 1_555 1_555
H10 C15 1_555 1_555
H11 C15 1_555 1_555
C16 C2 1_555 1_555
C17 C16 1_555 1_555
H12 C17 1_555 1_555
C18 C17 1_555 1_555
H13 C18 1_555 1_555
C19 C18 1_555 1_555
H14 C19 1_555 1_555
C20 C19 1_555 1_555
H15 C20 1_555 1_555
C21 C16 1_555 1_555
H16 C21 1_555 1_555
C22 C23 1_555 1_555
C23 C24 1_555 1_555
C24 C25 1_555 1_555
C25 N2 1_555 1_555
C26 C25 1_555 1_555
C27 C26 1_555 1_555
H17 C27 1_555 1_555
C28 C27 1_555 1_555
H18 C28 1_555 1_555
C29 C28 1_555 1_555
H19 C29 1_555 1_555
C30 C29 1_555 1_555
H20 C30 1_555 1_555
C31 C26 1_555 1_555
C32 C31 1_555 1_555
H21 C32 1_555 1_555
C33 C24 1_555 1_555
H22 C33 1_555 1_555
C34 C22 1_555 1_555
C35 O4 1_555 1_555
H23 C35 1_555 1_555
H24 C35 1_555 1_555
C36 C35 1_555 1_555
H25 C36 1_555 1_555
H26 C36 1_555 1_555
H27 C36 1_555 1_555
C37 C23 1_555 1_555
C38 C37 1_555 1_555
H28 C38 1_555 1_555
C39 C38 1_555 1_555
H29 C39 1_555 1_555
C40 C39 1_555 1_555
H30 C40 1_555 1_555
C41 C40 1_555 1_555
H31 C41 1_555 1_555
C42 C37 1_555 1_555
H32 C42 1_555 1_555
H33 N1 1_555 1_555
H34 N2 1_555 1_555
C9 C10 1_555 1_555
C11 C12 1_555 1_555
C20 C21 1_555 1_555
C30 C31 1_555 1_555
C32 C33 1_555 1_555
C41 C42 1_555 1_555

#END
