
#######################################################################
#
#                 Cambridge Crystallographic Data Centre
#                                CCDC 
#
#######################################################################
#
# If this CIF has been generated from an entry in the Cambridge 
# Structural Database, then it will include bibliographic, chemical, 
# crystal, experimental, refinement or atomic coordinate data resulting 
# from the CCDC's data processing and validation procedures.
#
#######################################################################

data_OPIJII
_chemical_formula_moiety         'C41 H58 Ca1 N3 O1 P1 Se1 Si2'
_chemical_name_systematic        
'(N,N-bis(trimethylsilyl)amido)-(N-(2-(((2,6-diisopropylphenyl)imino)methyl)phenyl)-P,P-diphenylphosphinoselenoic amidato)-(tetrahydrofuran)-calcium unknown solvate'
_symmetry_cell_setting           triclinic
_symmetry_space_group_name_H-M   'P -1'
_symmetry_Int_Tables_number      2
_space_group_name_Hall           '-P 1'
loop_
_symmetry_equiv_pos_site_id
_symmetry_equiv_pos_as_xyz
1 x,y,z
2 -x,-y,-z
_cell_length_a                   10.204(4)
_cell_length_b                   16.193(7)
_cell_length_c                   17.708(7)
_cell_angle_alpha                65.515(14)
_cell_angle_beta                 85.943(12)
_cell_angle_gamma                73.318(14)
_cell_volume                     2546.84
_exptl_crystal_colour            colorless
_exptl_crystal_description       block
_cell_formula_units_Z            2
loop_
_atom_site_label
_atom_site_type_symbol
_atom_site_fract_x
_atom_site_fract_y
_atom_site_fract_z
Ca1 Ca 0.29825(11) 0.68069(8) 0.69570(7)
Se1 Se 0.07263(5) 0.81960(4) 0.56654(4)
N1 N 0.3225(5) 0.5189(3) 0.7498(3)
Si1 Si 0.48171(18) 0.44301(11) 0.76153(11)
C1 C 0.6103(7) 0.5122(5) 0.7244(5)
H1 H 0.5901 0.5543 0.6653
H2 H 0.7025 0.4685 0.7322
H3 H 0.6053 0.55 0.7563
C2 C 0.5081(8) 0.3713(5) 0.6979(5)
H4 H 0.4606 0.3222 0.7224
H5 H 0.6062 0.3416 0.6975
H6 H 0.4711 0.4128 0.6409
C3 C 0.5366(10) 0.3546(6) 0.8702(5)
H7 H 0.5322 0.3876 0.9063
H8 H 0.6308 0.316 0.8718
H9 H 0.4756 0.3137 0.8897
Si2 Si 0.17681(18) 0.48478(12) 0.77237(11)
C4 C 0.1618(10) 0.3948(7) 0.7343(7)
H10 H 0.1836 0.4151 0.6757
H11 H 0.068 0.3894 0.7401
H12 H 0.226 0.3333 0.7673
C5 C 0.1487(9) 0.4308(7) 0.8871(4)
H13 H 0.2255 0.3745 0.9152
H14 H 0.0632 0.4128 0.8953
H15 H 0.1429 0.477 0.9103
C6 C 0.0246(8) 0.5851(7) 0.7267(6)
H16 H 0.0274 0.6361 0.7422
H17 H -0.0577 0.5651 0.7474
H18 H 0.0227 0.6079 0.6661
O1 O 0.1839(4) 0.7177(3) 0.8049(2)
C7 C 0.2202(11) 0.6681(7) 0.8913(5)
H19 H 0.3085 0.6757 0.9029
H20 H 0.2323 0.5998 0.9083
C8 C 0.1162(12) 0.7030(8) 0.9389(6)
H21 H 0.1567 0.7034 0.9878
H22 H 0.0497 0.6654 0.9573
C9 C 0.0493(10) 0.8049(8) 0.8735(6)
H23 H -0.0493 0.8265 0.8825
H24 H 0.0954 0.8499 0.8761
C10 C 0.0684(8) 0.7970(5) 0.7924(5)
H25 H -0.014 0.7875 0.7748
H26 H 0.085 0.8552 0.749
N2 N 0.4680(4) 0.7641(3) 0.6995(3)
C11 C 0.4585(6) 0.8030(4) 0.7615(4)
C12 C 0.5385(7) 0.7482(4) 0.8375(4)
C13 C 0.5222(8) 0.7837(5) 0.8977(4)
H27 H 0.573 0.7478 0.9496
C14 C 0.4299(8) 0.8734(6) 0.8816(4)
H28 H 0.4177 0.8973 0.9232
C15 C 0.3566(7) 0.9273(5) 0.8055(4)
H29 H 0.2974 0.9886 0.7948
C16 C 0.3692(6) 0.8922(4) 0.7443(4)
C17 C 0.6464(9) 0.6522(5) 0.8550(5)
H30 H 0.6525 0.6428 0.8024
C18 C 0.7917(9) 0.6542(7) 0.8761(6)
H31 H 0.782 0.6951 0.9055
H32 H 0.838 0.6788 0.8246
H33 H 0.846 0.5899 0.9115
C19 C 0.6082(10) 0.5676(6) 0.9222(6)
H34 H 0.582 0.5804 0.9714
H35 H 0.687 0.5111 0.9371
H36 H 0.5311 0.5569 0.9012
C20 C 0.2939(6) 0.9531(4) 0.6588(4)
H37 H 0.2688 0.9099 0.6388
C21 C 0.1614(7) 1.0276(5) 0.6596(5)
H38 H 0.1043 0.9973 0.703
H39 H 0.1112 1.0567 0.6054
H40 H 0.1841 1.0765 0.6708
C22 C 0.3874(6) 1.0035(4) 0.5955(4)
H41 H 0.4109 1.0481 0.6126
H42 H 0.3394 1.038 0.5405
H43 H 0.4713 0.9565 0.5932
C23 C 0.5700(6) 0.7726(4) 0.6538(3)
H44 H 0.6315 0.7991 0.6677
C24 C 0.6062(6) 0.7472(4) 0.5826(3)
C25 C 0.7422(6) 0.7427(4) 0.5589(4)
H45 H 0.8023 0.7536 0.5901
C26 C 0.7900(6) 0.7229(4) 0.4919(4)
H46 H 0.8828 0.7176 0.4779
C27 C 0.6977(6) 0.7106(4) 0.4445(4)
H47 H 0.7282 0.6976 0.3976
C28 C 0.5646(6) 0.7174(4) 0.4654(4)
H48 H 0.5043 0.7105 0.4314
C29 C 0.5137(5) 0.7342(4) 0.5346(4)
N3 N 0.3784(4) 0.7405(3) 0.5584(3)
P1 P 0.24410(13) 0.78671(9) 0.49557(9)
C30 C 0.2560(5) 0.8921(4) 0.4042(3)
C31 C 0.2124(5) 0.9793(4) 0.4088(4)
H49 H 0.1707 0.9843 0.457
C32 C 0.2300(6) 1.0593(4) 0.3426(4)
H50 H 0.2009 1.1188 0.346
C33 C 0.2888(6) 1.0532(4) 0.2724(4)
H51 H 0.3012 1.1083 0.2278
C34 C 0.3301(7) 0.9675(5) 0.2664(4)
H52 H 0.3686 0.9638 0.2171
C35 C 0.3153(6) 0.8858(4) 0.3328(4)
H53 H 0.3456 0.8263 0.3293
C36 C 0.2142(5) 0.7058(4) 0.4558(4)
C37 C 0.1212(6) 0.7383(4) 0.3886(4)
H54 H 0.0808 0.8042 0.358
C38 C 0.0881(7) 0.6723(6) 0.3667(5)
H55 H 0.0236 0.6936 0.3217
C39 C 0.1489(8) 0.5768(5) 0.4103(5)
H56 H 0.1276 0.5324 0.3947
C40 C 0.2387(9) 0.5464(5) 0.4752(5)
H57 H 0.2799 0.4805 0.5053
C41 C 0.2716(8) 0.6099(5) 0.4985(4)
H58 H 0.3345 0.5871 0.5446
loop_
_geom_bond_atom_site_label_1
_geom_bond_atom_site_label_2
_geom_bond_site_symmetry_1
_geom_bond_site_symmetry_2
Ca1 Se1 1_555 1_555
Se1 P1 1_555 1_555
N1 Ca1 1_555 1_555
Si1 N1 1_555 1_555
C1 Si1 1_555 1_555
H1 C1 1_555 1_555
H2 C1 1_555 1_555
H3 C1 1_555 1_555
C2 Si1 1_555 1_555
H4 C2 1_555 1_555
H5 C2 1_555 1_555
H6 C2 1_555 1_555
C3 Si1 1_555 1_555
H7 C3 1_555 1_555
H8 C3 1_555 1_555
H9 C3 1_555 1_555
Si2 N1 1_555 1_555
C4 Si2 1_555 1_555
H10 C4 1_555 1_555
H11 C4 1_555 1_555
H12 C4 1_555 1_555
C5 Si2 1_555 1_555
H13 C5 1_555 1_555
H14 C5 1_555 1_555
H15 C5 1_555 1_555
C6 Si2 1_555 1_555
H16 C6 1_555 1_555
H17 C6 1_555 1_555
H18 C6 1_555 1_555
O1 Ca1 1_555 1_555
C7 O1 1_555 1_555
H19 C7 1_555 1_555
H20 C7 1_555 1_555
C8 C7 1_555 1_555
H21 C8 1_555 1_555
H22 C8 1_555 1_555
C9 C8 1_555 1_555
H23 C9 1_555 1_555
H24 C9 1_555 1_555
C10 O1 1_555 1_555
H25 C10 1_555 1_555
H26 C10 1_555 1_555
N2 Ca1 1_555 1_555
C11 N2 1_555 1_555
C12 C11 1_555 1_555
C13 C12 1_555 1_555
H27 C13 1_555 1_555
C14 C13 1_555 1_555
H28 C14 1_555 1_555
C15 C14 1_555 1_555
H29 C15 1_555 1_555
C16 C11 1_555 1_555
C17 C12 1_555 1_555
H30 C17 1_555 1_555
C18 C17 1_555 1_555
H31 C18 1_555 1_555
H32 C18 1_555 1_555
H33 C18 1_555 1_555
C19 C17 1_555 1_555
H34 C19 1_555 1_555
H35 C19 1_555 1_555
H36 C19 1_555 1_555
C20 C16 1_555 1_555
H37 C20 1_555 1_555
C21 C20 1_555 1_555
H38 C21 1_555 1_555
H39 C21 1_555 1_555
H40 C21 1_555 1_555
C22 C20 1_555 1_555
H41 C22 1_555 1_555
H42 C22 1_555 1_555
H43 C22 1_555 1_555
C23 N2 1_555 1_555
H44 C23 1_555 1_555
C24 C23 1_555 1_555
C25 C24 1_555 1_555
H45 C25 1_555 1_555
C26 C25 1_555 1_555
H46 C26 1_555 1_555
C27 C26 1_555 1_555
H47 C27 1_555 1_555
C28 C27 1_555 1_555
H48 C28 1_555 1_555
C29 C24 1_555 1_555
N3 Ca1 1_555 1_555
P1 N3 1_555 1_555
C30 P1 1_555 1_555
C31 C30 1_555 1_555
H49 C31 1_555 1_555
C32 C31 1_555 1_555
H50 C32 1_555 1_555
C33 C32 1_555 1_555
H51 C33 1_555 1_555
C34 C33 1_555 1_555
H52 C34 1_555 1_555
C35 C30 1_555 1_555
H53 C35 1_555 1_555
C36 P1 1_555 1_555
C37 C36 1_555 1_555
H54 C37 1_555 1_555
C38 C37 1_555 1_555
H55 C38 1_555 1_555
C39 C38 1_555 1_555
H56 C39 1_555 1_555
C40 C39 1_555 1_555
H57 C40 1_555 1_555
C41 C36 1_555 1_555
H58 C41 1_555 1_555
C9 C10 1_555 1_555
C15 C16 1_555 1_555
C28 C29 1_555 1_555
C29 N3 1_555 1_555
C34 C35 1_555 1_555
C40 C41 1_555 1_555

#END
