
#######################################################################
#
#                 Cambridge Crystallographic Data Centre
#                                CCDC 
#
#######################################################################
#
# If this CIF has been generated from an entry in the Cambridge 
# Structural Database, then it will include bibliographic, chemical, 
# crystal, experimental, refinement or atomic coordinate data resulting 
# from the CCDC's data processing and validation procedures.
#
#######################################################################

data_OPOPIT
_chemical_name_common            "(+)-12,12'-dideoxychetracin A acetone solvate"
_chemical_formula_moiety         'C30 H28 N6 O6 S8,C3 H6 O1'
_chemical_name_systematic        
"14,14'-bis(hydroxymethyl)-20,20'-dimethyl-3,3'-bi(15,16,17,18-tetrathia-10,12,20-triazapentacyclo[12.4.2.0^1,12^.0^3,11^.0^4,9^]icosane)-4,4',6,6',8,8'-hexaene-13,13',19,19'-tetrone acetone solvate"
_symmetry_cell_setting           orthorhombic
_symmetry_space_group_name_H-M   'P 21 21 21'
_symmetry_Int_Tables_number      19
_space_group_name_Hall           'P 2ac 2ab'
loop_
_symmetry_equiv_pos_site_id
_symmetry_equiv_pos_as_xyz
1 x,y,z
2 1/2-x,-y,1/2+z
3 -x,1/2+y,1/2-z
4 1/2+x,1/2-y,-z
_cell_length_a                   7.78280(10)
_cell_length_b                   19.4165(4)
_cell_length_c                   24.7658(5)
_cell_angle_alpha                90
_cell_angle_beta                 90
_cell_angle_gamma                90
_cell_volume                     3742.48
_exptl_crystal_colour            colorless
_exptl_crystal_description       block
_cell_formula_units_Z            4
loop_
_atom_site_label
_atom_site_type_symbol
_atom_site_fract_x
_atom_site_fract_y
_atom_site_fract_z
S1 S 0.58475(15) 0.35331(5) 0.27704(4)
S2 S 0.8042(2) 0.30590(7) 0.29627(7)
S3 S 0.9065(2) 0.36340(8) 0.35955(7)
S4 S 1.0946(2) 0.41738(8) 0.32223(6)
O1 O 0.5237(4) 0.51540(18) 0.29609(13)
O2 O 1.0844(4) 0.4242(3) 0.19700(15)
O3 O 1.0456(9) 0.5801(4) 0.2282(3)
H1 H 0.9490 0.5956 0.2372
N1 N 0.8232(6) 0.3301(2) 0.14029(17)
H2 H 0.930(4) 0.320(3) 0.151(2)
C1 C 0.7713(5) 0.4018(2) 0.14983(16)
H3 H 0.8261 0.4336 0.1232
C2 C 0.5718(5) 0.4021(2) 0.14402(15)
C3 C 0.5309(6) 0.3254(2) 0.14928(16)
C4 C 0.3746(7) 0.2934(2) 0.15779(19)
H4 H 0.2713 0.3195 0.1586
C5 C 0.3714(9) 0.2224(3) 0.1651(2)
H5 H 0.2652 0.1998 0.1715
C6 C 0.5206(9) 0.1849(3) 0.1631(2)
H6 H 0.5156 0.1363 0.1673
C7 C 0.6779(9) 0.2162(2) 0.1552(2)
H7 H 0.7803 0.1896 0.1539
C8 C 0.6840(7) 0.2881(2) 0.14892(17)
N2 N 0.7994(4) 0.42552(18) 0.20580(13)
C9 C 0.6440(5) 0.4336(2) 0.23699(16)
C10 C 0.5070(5) 0.4436(2) 0.19354(16)
H8 H 0.4946 0.4929 0.1844
H9 H 0.3946 0.4258 0.2060
C11 C 0.6556(5) 0.4888(2) 0.27944(17)
N3 N 0.8136(5) 0.50241(19) 0.29951(14)
C12 C 0.9712(6) 0.4769(3) 0.2784(2)
C13 C 0.9571(6) 0.4391(3) 0.22378(19)
C14 C 1.1086(9) 0.5383(3) 0.2691(3)
H10 H 1.1233 0.5652 0.3027
H11 H 1.2216 0.5190 0.2587
C15 C 0.8222(8) 0.5462(3) 0.3478(2)
H12 H 0.8366 0.5944 0.3369
H13 H 0.9200 0.5321 0.3701
H14 H 0.7158 0.5414 0.3686
S7 S 0.47322(16) 0.51744(6) -0.03090(4)
S8 S 0.2383(2) 0.49558(8) -0.06248(5)
S9 S 0.1301(2) 0.59180(9) -0.07794(6)
S10 S -0.04132(17) 0.60576(7) -0.01734(5)
O4 O 0.5478(4) 0.64996(17) 0.04803(16)
O5 O -0.0066(4) 0.49970(19) 0.07470(17)
O6 O 0.0784(7) 0.6479(4) 0.13517(18)
H15 H 0.1050 0.6081 0.1455
N4 N 0.2581(5) 0.37897(19) 0.05112(15)
H16 H 0.153(3) 0.376(3) 0.039(2)
C16 C 0.3093(5) 0.43524(19) 0.08531(16)
H17 H 0.2562 0.4308 0.1219
C17 C 0.5098(5) 0.4319(2) 0.08915(16)
C18 C 0.5501(6) 0.3839(2) 0.04151(16)
C19 C 0.7067(7) 0.3710(2) 0.01690(18)
H18 H 0.8101 0.3900 0.0308
C20 C 0.7078(8) 0.3287(3) -0.0296(2)
H19 H 0.8126 0.3191 -0.0478
C21 C 0.5574(10) 0.3019(3) -0.0481(2)
H20 H 0.5607 0.2727 -0.0788
C22 C 0.3996(8) 0.3150(3) -0.0243(2)
H21 H 0.2966 0.2960 -0.0385
C23 C 0.3978(6) 0.3570(2) 0.02136(17)
N5 N 0.2776(4) 0.50472(17) 0.06263(13)
C24 C 0.4279(5) 0.5374(2) 0.04328(16)
C25 C 0.5712(5) 0.50656(19) 0.07768(16)
H22 H 0.5856 0.5327 0.1117
H23 H 0.6816 0.5065 0.0578
C26 C 0.4179(5) 0.6154(2) 0.04432(18)
N6 N 0.2582(5) 0.64361(19) 0.03746(17)
C27 C 0.0999(6) 0.6077(2) 0.04480(18)
C28 C 0.1182(6) 0.5317(2) 0.06121(18)
C29 C -0.0143(6) 0.6436(3) 0.0870(2)
H24 H -0.0459 0.6903 0.0743
H25 H -0.1211 0.6169 0.0926
C30 C 0.2500(7) 0.7183(2) 0.0279(3)
H26 H 0.2566 0.7427 0.0624
H27 H 0.1416 0.7297 0.0099
H28 H 0.3465 0.7322 0.0049
O7 O 0.2195(6) 0.8992(2) 0.8025(2)
C31 C 0.2332(10) 0.7781(3) 0.8122(4)
H29 H 0.3574 0.7864 0.8117
H30 H 0.2018 0.7482 0.7819
H31 H 0.2013 0.7558 0.8462
C32 C 0.1397(8) 0.8456(3) 0.8072(2)
C33 C -0.0481(9) 0.8444(4) 0.8093(3)
H32 H -0.0912 0.8910 0.8164
H33 H -0.0856 0.8134 0.8382
H34 H -0.0933 0.8280 0.7747
S5? S 0.7304(10) 0.3750(4) 0.3469(2)
S6? S 0.9825(9) 0.3829(5) 0.3257(2)
loop_
_geom_bond_atom_site_label_1
_geom_bond_atom_site_label_2
_geom_bond_site_symmetry_1
_geom_bond_site_symmetry_2
S1 S2 1_555 1_555
S2 S3 1_555 1_555
S3 S4 1_555 1_555
S4 C12 1_555 1_555
O1 C11 1_555 1_555
O2 C13 1_555 1_555
O3 H1 1_555 1_555
N1 H2 1_555 1_555
C1 N1 1_555 1_555
H3 C1 1_555 1_555
C2 C1 1_555 1_555
C3 C2 1_555 1_555
C4 C3 1_555 1_555
H4 C4 1_555 1_555
C5 C4 1_555 1_555
H5 C5 1_555 1_555
C6 C5 1_555 1_555
H6 C6 1_555 1_555
C7 C6 1_555 1_555
H7 C7 1_555 1_555
C8 N1 1_555 1_555
N2 C1 1_555 1_555
C9 S1 1_555 1_555
C10 C2 1_555 1_555
H8 C10 1_555 1_555
H9 C10 1_555 1_555
C11 C9 1_555 1_555
N3 C11 1_555 1_555
C12 N3 1_555 1_555
C13 N2 1_555 1_555
C14 O3 1_555 1_555
H10 C14 1_555 1_555
H11 C14 1_555 1_555
C15 N3 1_555 1_555
H12 C15 1_555 1_555
H13 C15 1_555 1_555
H14 C15 1_555 1_555
S7 S8 1_555 1_555
S8 S9 1_555 1_555
S9 S10 1_555 1_555
S10 C27 1_555 1_555
O4 C26 1_555 1_555
O5 C28 1_555 1_555
O6 H15 1_555 1_555
N4 H16 1_555 1_555
C16 N4 1_555 1_555
H17 C16 1_555 1_555
C17 C2 1_555 1_555
C18 C17 1_555 1_555
C19 C18 1_555 1_555
H18 C19 1_555 1_555
C20 C19 1_555 1_555
H19 C20 1_555 1_555
C21 C20 1_555 1_555
H20 C21 1_555 1_555
C22 C21 1_555 1_555
H21 C22 1_555 1_555
C23 N4 1_555 1_555
N5 C16 1_555 1_555
C24 S7 1_555 1_555
C25 C17 1_555 1_555
H22 C25 1_555 1_555
H23 C25 1_555 1_555
C26 C24 1_555 1_555
N6 C26 1_555 1_555
C27 N6 1_555 1_555
C28 N5 1_555 1_555
C29 O6 1_555 1_555
H24 C29 1_555 1_555
H25 C29 1_555 1_555
C30 N6 1_555 1_555
H26 C30 1_555 1_555
H27 C30 1_555 1_555
H28 C30 1_555 1_555
O7 C32 1_555 1_555
C31 H29 1_555 1_555
H30 C31 1_555 1_555
H31 C31 1_555 1_555
C32 C31 1_555 1_555
C33 C32 1_555 1_555
H32 C33 1_555 1_555
H33 C33 1_555 1_555
H34 C33 1_555 1_555
C3 C8 1_555 1_555
C7 C8 1_555 1_555
N2 C9 1_555 1_555
C9 C10 1_555 1_555
C12 C13 1_555 1_555
C12 C14 1_555 1_555
C16 C17 1_555 1_555
C18 C23 1_555 1_555
C22 C23 1_555 1_555
N5 C24 1_555 1_555
C24 C25 1_555 1_555
C27 C28 1_555 1_555
C27 C29 1_555 1_555

#END
