
#######################################################################
#
#                 Cambridge Crystallographic Data Centre
#                                CCDC 
#
#######################################################################
#
# If this CIF has been generated from an entry in the Cambridge 
# Structural Database, then it will include bibliographic, chemical, 
# crystal, experimental, refinement or atomic coordinate data resulting 
# from the CCDC's data processing and validation procedures.
#
#######################################################################

data_OPUWON
_chemical_formula_moiety         'C16 H15 F3 O3 S1'
_chemical_name_systematic        
7-methoxy-9,9-dimethyl-4-((trifluoromethyl)sulfanyl)-9,9a-dihydroindeno[2,1-c]pyran-3(1H)-one
_symmetry_cell_setting           monoclinic
_symmetry_space_group_name_H-M   'P 21/c'
_symmetry_Int_Tables_number      14
_space_group_name_Hall           '-P 2ybc'
loop_
_symmetry_equiv_pos_site_id
_symmetry_equiv_pos_as_xyz
1 x,y,z
2 -x,1/2+y,1/2-z
3 -x,-y,-z
4 x,1/2-y,1/2+z
_cell_length_a                   9.9242(4)
_cell_length_b                   15.9342(6)
_cell_length_c                   10.0614(4)
_cell_angle_alpha                90
_cell_angle_beta                 106.109(4)
_cell_angle_gamma                90
_cell_volume                     1528.58
_exptl_crystal_colour            colorless
_exptl_crystal_description       block
_cell_formula_units_Z            4
loop_
_atom_site_label
_atom_site_type_symbol
_atom_site_fract_x
_atom_site_fract_y
_atom_site_fract_z
S1 S 0.30486(6) 0.13396(4) 0.76356(6)
F1 F 0.33229(18) 0.25588(10) 0.94468(18)
F2 F 0.44177(17) 0.27090(11) 0.7897(2)
F3 F 0.22014(18) 0.28990(10) 0.7399(2)
O1 O 0.05705(16) 0.09378(10) 1.00975(15)
O2 O 0.28300(17) 0.07394(11) 1.04116(16)
O3 O -0.24935(15) 0.09728(10) 0.15892(14)
C1 C 0.1716(2) 0.09281(14) 0.9618(2)
C2 C 0.1512(2) 0.11262(14) 0.8130(2)
C3 C 0.0237(2) 0.10294(13) 0.7224(2)
C4 C -0.0979(2) 0.08063(14) 0.7793(2)
H1 H -0.0959 0.0185 0.7942
C5 C -0.0752(2) 0.12231(16) 0.9185(2)
H2 H -0.0735 0.1840 0.9079
H3 H -0.1529 0.1078 0.9583
C6 C -0.2325(2) 0.10156(14) 0.6623(2)
C7 C -0.1767(2) 0.10038(13) 0.5365(2)
C8 C -0.2560(2) 0.09729(13) 0.3989(2)
H4 H -0.3552 0.0922 0.3751
C9 C -0.1859(2) 0.10187(13) 0.2970(2)
C10 C -0.0401(2) 0.11285(14) 0.3322(2)
H5 H 0.0055 0.1186 0.2612
C11 C 0.0375(2) 0.11539(14) 0.4685(2)
H6 H 0.1364 0.1222 0.4918
C12 C -0.0306(2) 0.10783(13) 0.5727(2)
C13 C -0.2872(3) 0.19009(16) 0.6771(3)
H7 H -0.3165 0.1934 0.7623
H8 H -0.3675 0.2023 0.5974
H9 H -0.2126 0.2311 0.6809
C14 C -0.3483(2) 0.03725(18) 0.6557(2)
H10 H -0.3168 -0.0182 0.6345
H11 H -0.4327 0.0534 0.5832
H12 H -0.3696 0.0352 0.7451
C15 C 0.3242(3) 0.24220(16) 0.8120(3)
C16 C -0.3993(2) 0.08934(15) 0.1137(2)
H13 H -0.4305 0.0867 0.0125
H14 H -0.4423 0.1379 0.1456
H15 H -0.4275 0.0379 0.1522
loop_
_geom_bond_atom_site_label_1
_geom_bond_atom_site_label_2
_geom_bond_site_symmetry_1
_geom_bond_site_symmetry_2
S1 C2 1_555 1_555
F1 C15 1_555 1_555
F2 C15 1_555 1_555
F3 C15 1_555 1_555
O1 C1 1_555 1_555
O2 C1 1_555 1_555
O3 C9 1_555 1_555
C1 C2 1_555 1_555
C2 C3 1_555 1_555
C3 C4 1_555 1_555
C4 H1 1_555 1_555
C5 O1 1_555 1_555
H2 C5 1_555 1_555
H3 C5 1_555 1_555
C6 C4 1_555 1_555
C7 C6 1_555 1_555
C8 C7 1_555 1_555
H4 C8 1_555 1_555
C9 C8 1_555 1_555
C10 C9 1_555 1_555
H5 C10 1_555 1_555
C11 C10 1_555 1_555
H6 C11 1_555 1_555
C12 C3 1_555 1_555
C13 C6 1_555 1_555
H7 C13 1_555 1_555
H8 C13 1_555 1_555
H9 C13 1_555 1_555
C14 C6 1_555 1_555
H10 C14 1_555 1_555
H11 C14 1_555 1_555
H12 C14 1_555 1_555
C15 S1 1_555 1_555
C16 O3 1_555 1_555
H13 C16 1_555 1_555
H14 C16 1_555 1_555
H15 C16 1_555 1_555
C4 C5 1_555 1_555
C7 C12 1_555 1_555
C11 C12 1_555 1_555

#END
