
#######################################################################
#
#                 Cambridge Crystallographic Data Centre
#                                CCDC 
#
#######################################################################
#
# If this CIF has been generated from an entry in the Cambridge 
# Structural Database, then it will include bibliographic, chemical, 
# crystal, experimental, refinement or atomic coordinate data resulting 
# from the CCDC's data processing and validation procedures.
#
#######################################################################

data_OQAZAI
_chemical_name_common            
'5,15-bis(4-fluorophenyl)-5,10,10,15,20,20-hexamethyl-calix(4)pyrrole dimethyl sulfoxide solvate'
_chemical_formula_moiety         'C38 H38 F2 N4,2(C2 H6 O1 S1)'
_chemical_name_systematic        
'5,15-bis(4-fluorophenyl)-5,10,10,15,20,20-hexamethyl-5,10,15,20,22,24-hexahydroporphyrin dimethyl sulfoxide solvate'
_symmetry_cell_setting           monoclinic
_symmetry_space_group_name_H-M   'P 21/c'
_symmetry_Int_Tables_number      14
_space_group_name_Hall           '-P 2ybc'
loop_
_symmetry_equiv_pos_site_id
_symmetry_equiv_pos_as_xyz
1 x,y,z
2 -x,1/2+y,1/2-z
3 -x,-y,-z
4 x,1/2-y,1/2+z
_cell_length_a                   10.1075(16)
_cell_length_b                   18.636(3)
_cell_length_c                   21.038(3)
_cell_angle_alpha                90
_cell_angle_beta                 99.568(3)
_cell_angle_gamma                90
_cell_volume                     3907.66
_exptl_crystal_colour            colorless
_exptl_crystal_description       rod
_cell_formula_units_Z            4
loop_
_atom_site_label
_atom_site_type_symbol
_atom_site_fract_x
_atom_site_fract_y
_atom_site_fract_z
N1 N 0.3389(3) 0.28734(13) 0.99338(11)
H1 H 0.2798 0.2748 1.0163
N2 N 0.2894(2) 0.11751(13) 0.93973(11)
H2 H 0.2987 0.1454 0.9082
N3 N 0.0144(3) 0.15759(13) 0.83767(12)
H3 H 0.0898 0.1765 0.8331
N4 N 0.0712(2) 0.33018(13) 0.88503(11)
H4 H 0.1339 0.3097 0.8686
F1 F 0.3517(3) 0.65115(12) 0.82470(11)
F2 F 0.4033(3) -0.02439(13) 0.67087(10)
C1 C 0.2300(3) 0.40694(16) 0.96373(14)
C2 C 0.3376(3) 0.35149(16) 0.96007(14)
C3 C 0.4482(3) 0.35060(18) 0.93036(15)
H5 H 0.4738 0.3867 0.9044
C4 C 0.5167(3) 0.28550(18) 0.94599(15)
H6 H 0.5956 0.2713 0.9323
C5 C 0.4472(3) 0.24684(17) 0.98480(14)
C6 C 0.4752(3) 0.17535(17) 1.01771(15)
C7 C 0.3580(3) 0.12424(17) 1.00141(14)
C8 C 0.3137(4) 0.07125(18) 1.03693(15)
H7 H 0.3417 0.0632 1.0807
C9 C 0.2173(4) 0.03042(17) 0.99545(15)
H8 H 0.1715 -0.0094 1.0072
C10 C 0.2035(3) 0.05969(16) 0.93558(14)
C11 C 0.1150(3) 0.03676(16) 0.87321(14)
C12 C -0.0016(3) 0.08758(16) 0.85584(14)
C13 C -0.1357(3) 0.07930(18) 0.85748(15)
H9 H -0.1770 0.0374 0.8680
C14 C -0.2001(3) 0.14515(18) 0.84057(15)
H10 H -0.2913 0.1542 0.8385
C15 C -0.1072(3) 0.19341(17) 0.82780(14)
C16 C -0.1198(3) 0.27119(17) 0.80858(15)
C17 C -0.0641(3) 0.31970(16) 0.86453(15)
C18 C -0.1285(3) 0.36206(17) 0.90284(16)
H11 H -0.2209 0.3664 0.9001
C19 C -0.0312(3) 0.39791(17) 0.94692(16)
H12 H -0.0482 0.4298 0.9786
C20 C 0.0921(3) 0.37813(16) 0.93552(14)
C21 C 0.2608(3) 0.47395(16) 0.92606(15)
C22 C 0.2132(4) 0.48103(19) 0.86079(16)
H13 H 0.1588 0.4452 0.8396
C23 C 0.2441(4) 0.5396(2) 0.82638(18)
H14 H 0.2121 0.5433 0.7824
C24 C 0.3230(4) 0.59258(19) 0.85799(19)
C25 C 0.3704(4) 0.5883(2) 0.92188(19)
H15 H 0.4233 0.6249 0.9428
C26 C 0.3389(4) 0.52888(18) 0.95558(17)
H16 H 0.3714 0.5259 0.9995
C27 C 0.2298(4) 0.42473(18) 1.03604(14)
H17 H 0.1985 0.3838 1.0570
H18 H 0.1714 0.4648 1.0392
H19 H 0.3192 0.4366 1.0565
C28 C 0.5059(4) 0.1865(2) 1.09105(16)
H20 H 0.5785 0.2199 1.1014
H21 H 0.5305 0.1414 1.1118
H22 H 0.4277 0.2050 1.1058
C29 C 0.5975(4) 0.1407(2) 0.9954(2)
H23 H 0.5813 0.1363 0.9493
H24 H 0.6125 0.0940 1.0145
H25 H 0.6752 0.1701 1.0086
C30 C 0.1977(4) 0.02789(17) 0.81807(15)
C31 C 0.3328(4) 0.01051(17) 0.83051(17)
H26 H 0.3778 0.0105 0.8728
C32 C 0.4020(4) -0.00683(19) 0.78105(18)
H27 H 0.4928 -0.0183 0.7899
C33 C 0.3352(5) -0.00672(19) 0.71953(18)
C34 C 0.2037(5) 0.0098(2) 0.70460(18)
H28 H 0.1601 0.0096 0.6620
C35 C 0.1351(4) 0.02695(19) 0.75462(16)
H29 H 0.0443 0.0381 0.7450
C36 C 0.0577(4) -0.03860(17) 0.88356(16)
H30 H 0.0056 -0.0365 0.9177
H31 H 0.1302 -0.0719 0.8948
H32 H 0.0018 -0.0541 0.8446
C37 C -0.0479(4) 0.28584(19) 0.75098(15)
H33 H 0.0453 0.2734 0.7623
H34 H -0.0558 0.3358 0.7398
H35 H -0.0881 0.2575 0.7148
C38 C -0.2683(3) 0.28924(19) 0.78732(17)
H36 H -0.3065 0.2570 0.7536
H37 H -0.2766 0.3377 0.7717
H38 H -0.3148 0.2843 0.8233
S1 S 0.38096(10) 0.23856(6) 0.79450(4)
O1 O 0.2636(2) 0.22594(12) 0.82909(10)
C39 C 0.3537(5) 0.1857(2) 0.7247(2)
H39 H 0.3535 0.1360 0.7364
H40 H 0.4238 0.1943 0.6999
H41 H 0.2687 0.1980 0.6993
C40 C 0.3536(5) 0.3233(2) 0.75632(19)
H42 H 0.2665 0.3240 0.7299
H43 H 0.4209 0.3316 0.7299
H44 H 0.3585 0.3602 0.7885
S2 S 1.03684(10) 0.21785(5) 0.08236(4)
O2 O 1.1709(3) 0.25398(14) 0.09036(11)
C41 C 0.9175(4) 0.2873(2) 0.0807(2)
H45 H 0.9331 0.3127 0.1209
H46 H 0.8289 0.2670 0.0742
H47 H 0.9255 0.3197 0.0462
C42 C 0.9996(4) 0.1925(2) 0.00020(16)
H48 H 1.0051 0.2338 -0.0265
H49 H 0.9105 0.1729 -0.0088
H50 H 1.0628 0.1570 -0.0087
loop_
_geom_bond_atom_site_label_1
_geom_bond_atom_site_label_2
_geom_bond_site_symmetry_1
_geom_bond_site_symmetry_2
N1 H1 1_555 1_555
N2 H2 1_555 1_555
N3 H3 1_555 1_555
N4 H4 1_555 1_555
F1 C24 1_555 1_555
F2 C33 1_555 1_555
C1 C2 1_555 1_555
C2 N1 1_555 1_555
C3 C2 1_555 1_555
H5 C3 1_555 1_555
C4 C3 1_555 1_555
H6 C4 1_555 1_555
C5 N1 1_555 1_555
C6 C5 1_555 1_555
C7 N2 1_555 1_555
C8 C7 1_555 1_555
H7 C8 1_555 1_555
C9 C8 1_555 1_555
H8 C9 1_555 1_555
C10 N2 1_555 1_555
C11 C10 1_555 1_555
C12 N3 1_555 1_555
C13 C12 1_555 1_555
H9 C13 1_555 1_555
C14 C13 1_555 1_555
H10 C14 1_555 1_555
C15 N3 1_555 1_555
C16 C15 1_555 1_555
C17 N4 1_555 1_555
C18 C17 1_555 1_555
H11 C18 1_555 1_555
C19 C18 1_555 1_555
H12 C19 1_555 1_555
C20 N4 1_555 1_555
C21 C1 1_555 1_555
C22 C21 1_555 1_555
H13 C22 1_555 1_555
C23 C22 1_555 1_555
H14 C23 1_555 1_555
C24 C23 1_555 1_555
C25 C24 1_555 1_555
H15 C25 1_555 1_555
C26 C21 1_555 1_555
H16 C26 1_555 1_555
C27 C1 1_555 1_555
H17 C27 1_555 1_555
H18 C27 1_555 1_555
H19 C27 1_555 1_555
C28 C6 1_555 1_555
H20 C28 1_555 1_555
H21 C28 1_555 1_555
H22 C28 1_555 1_555
C29 C6 1_555 1_555
H23 C29 1_555 1_555
H24 C29 1_555 1_555
H25 C29 1_555 1_555
C30 C11 1_555 1_555
C31 C30 1_555 1_555
H26 C31 1_555 1_555
C32 C31 1_555 1_555
H27 C32 1_555 1_555
C33 C32 1_555 1_555
C34 C33 1_555 1_555
H28 C34 1_555 1_555
C35 C30 1_555 1_555
H29 C35 1_555 1_555
C36 C11 1_555 1_555
H30 C36 1_555 1_555
H31 C36 1_555 1_555
H32 C36 1_555 1_555
C37 C16 1_555 1_555
H33 C37 1_555 1_555
H34 C37 1_555 1_555
H35 C37 1_555 1_555
C38 C16 1_555 1_555
H36 C38 1_555 1_555
H37 C38 1_555 1_555
H38 C38 1_555 1_555
S1 O1 1_555 1_555
S2 O2 1_555 1_555
C39 S1 1_555 1_555
H39 C39 1_555 1_555
H40 C39 1_555 1_555
H41 C39 1_555 1_555
C40 S1 1_555 1_555
H42 C40 1_555 1_555
H43 C40 1_555 1_555
H44 C40 1_555 1_555
C41 S2 1_555 1_555
H45 C41 1_555 1_555
H46 C41 1_555 1_555
H47 C41 1_555 1_555
C42 S2 1_555 1_555
H48 C42 1_555 1_555
H49 C42 1_555 1_555
H50 C42 1_555 1_555
C1 C20 1_555 1_555
C4 C5 1_555 1_555
C6 C7 1_555 1_555
C9 C10 1_555 1_555
C11 C12 1_555 1_555
C14 C15 1_555 1_555
C16 C17 1_555 1_555
C19 C20 1_555 1_555
C25 C26 1_555 1_555
C34 C35 1_555 1_555

#END
