
#######################################################################
#
#                 Cambridge Crystallographic Data Centre
#                                CCDC 
#
#######################################################################
#
# If this CIF has been generated from an entry in the Cambridge 
# Structural Database, then it will include bibliographic, chemical, 
# crystal, experimental, refinement or atomic coordinate data resulting 
# from the CCDC's data processing and validation procedures.
#
#######################################################################

data_OQUHEP
_chemical_formula_moiety         'C70 H46'
_chemical_name_systematic        
2-phenyl-3-(2-(3-(2-(3-(2-(3-phenyl-2-naphthyl)phenyl)-2-naphthyl)phenyl)-2-naphthyl)phenyl)naphthalene
_symmetry_cell_setting           monoclinic
_symmetry_space_group_name_H-M   'C 2/c'
_symmetry_Int_Tables_number      15
_space_group_name_Hall           '-C 2yn'
loop_
_symmetry_equiv_pos_site_id
_symmetry_equiv_pos_as_xyz
1 x,y,z
2 -x,y,1/2-z
3 1/2+x,1/2+y,z
4 1/2-x,1/2+y,1/2-z
5 -x,-y,-z
6 x,-y,1/2+z
7 1/2-x,1/2-y,-z
8 1/2+x,1/2-y,1/2+z
_cell_length_a                   22.5254(5)
_cell_length_b                   17.7308(4)
_cell_length_c                   24.2495(5)
_cell_angle_alpha                90
_cell_angle_beta                 98.6360(10)
_cell_angle_gamma                90
_cell_volume                     9575.28
_exptl_crystal_colour            colorless
_exptl_crystal_description       plate
_cell_formula_units_Z            8
loop_
_atom_site_label
_atom_site_type_symbol
_atom_site_fract_x
_atom_site_fract_y
_atom_site_fract_z
C1 C 0.06469(9) 0.09173(13) 0.01756(9)
C2 C 0.01025(10) 0.12610(14) -0.00123(11)
H1 H -0.0275(11) 0.0938(14) -0.0043(10)
C3 C 0.00793(11) 0.20151(15) -0.01391(11)
H2 H -0.0303(10) 0.2275(13) -0.0263(9)
C4 C 0.05988(10) 0.24337(14) -0.00758(10)
H3 H 0.0586(9) 0.2976(13) -0.0144(9)
C5 C 0.11454(10) 0.20960(12) 0.01090(9)
H4 H 0.1526(9) 0.2418(12) 0.0145(8)
C6 C 0.11771(8) 0.13313(11) 0.02369(7)
C7 C 0.17740(8) 0.09676(10) 0.03987(7)
C8 C 0.22118(9) 0.11029(12) 0.00710(8)
H5 H 0.2119(8) 0.1452(11) -0.0258(8)
C9 C 0.27792(9) 0.07453(11) 0.01604(8)
C10 C 0.32250(10) 0.08682(13) -0.01860(9)
H6 H 0.3126(9) 0.1238(12) -0.0506(9)
C11 C 0.37586(10) 0.04927(14) -0.00900(10)
H7 H 0.4074(9) 0.0588(12) -0.0331(9)
C12 C 0.38746(10) -0.00263(14) 0.03477(9)
H8 H 0.4264(10) -0.0293(13) 0.0410(9)
C13 C 0.34556(9) -0.01599(13) 0.06884(9)
H9 H 0.3521(8) -0.0520(11) 0.0994(8)
C14 C 0.28974(8) 0.02230(11) 0.06054(7)
C15 C 0.24499(8) 0.00995(11) 0.09438(8)
H10 H 0.2529(8) -0.0263(11) 0.1263(8)
C16 C 0.18977(8) 0.04507(10) 0.08568(7)
C17 C 0.14490(8) 0.02290(11) 0.12225(7)
C18 C 0.13272(9) -0.05432(12) 0.12422(9)
H11 H 0.1537(8) -0.0882(10) 0.1003(7)
C19 C 0.09153(10) -0.08295(14) 0.15580(9)
H12 H 0.0838(9) -0.1334(13) 0.1546(9)
C20 C 0.06173(10) -0.03462(13) 0.18676(9)
H13 H 0.0311(9) -0.0550(12) 0.2118(9)
C21 C 0.07322(9) 0.04148(13) 0.18566(8)
H14 H 0.0519(9) 0.0772(11) 0.2089(8)
C22 C 0.11460(8) 0.07219(11) 0.15382(7)
C23 C 0.12017(8) 0.15600(11) 0.15400(7)
C24 C 0.06759(9) 0.19710(13) 0.14239(8)
H15 H 0.0290(9) 0.1695(11) 0.1327(8)
C25 C 0.06662(10) 0.27671(13) 0.14168(8)
C26 C 0.01201(12) 0.31889(18) 0.13425(10)
H16 H -0.0250(10) 0.2867(13) 0.1239(9)
C27 C 0.01394(17) 0.39595(19) 0.13705(11)
H17 H -0.0237(11) 0.4246(14) 0.1334(10)
C28 C 0.06900(17) 0.43468(18) 0.14646(11)
H18 H 0.0677(12) 0.4926(18) 0.1465(12)
C29 C 0.12158(14) 0.39623(13) 0.15257(9)
H19 H 0.1612(11) 0.4240(15) 0.1581(10)
C30 C 0.12166(10) 0.31619(12) 0.15113(8)
C31 C 0.17486(10) 0.27356(11) 0.16250(8)
H20 H 0.2139(9) 0.3018(11) 0.1708(8)
C32 C 0.17566(8) 0.19627(10) 0.16633(7)
C33 C 0.23546(8) 0.15984(10) 0.18297(7)
C34 C 0.28002(9) 0.17860(11) 0.15073(9)
H21 H 0.2686(8) 0.2139(12) 0.1182(9)
C35 C 0.33707(9) 0.14863(12) 0.16144(10)
H22 H 0.3671(9) 0.1616(11) 0.1370(8)
C36 C 0.35178(9) 0.09990(12) 0.20561(9)
H23 H 0.3928(9) 0.0782(11) 0.2143(8)
C37 C 0.30900(8) 0.08225(11) 0.23888(9)
H24 H 0.3192(7) 0.0495(10) 0.2726(7)
C38 C 0.25019(7) 0.11112(10) 0.22874(7)
C39 C 0.20823(7) 0.08344(10) 0.26653(7)
C40 C 0.20439(8) 0.00652(11) 0.27256(8)
H25 H 0.2281(8) -0.0264(10) 0.2507(7)
C41 C 0.16680(8) -0.02831(10) 0.30630(8)
C42 C 0.16316(10) -0.10777(12) 0.31162(9)
H26 H 0.1894(9) -0.1402(11) 0.2898(8)
C43 C 0.12525(11) -0.13906(14) 0.34395(10)
H27 H 0.1225(10) -0.1941(13) 0.3478(9)
C44 C 0.08936(11) -0.09354(13) 0.37282(10)
H28 H 0.0633(10) -0.1159(13) 0.3965(9)
C45 C 0.09157(10) -0.01669(13) 0.36860(9)
H29 H 0.0667(9) 0.0173(11) 0.3872(8)
C46 C 0.13015(8) 0.01776(10) 0.33503(7)
C47 C 0.13471(8) 0.09660(11) 0.32911(8)
H30 H 0.1121(8) 0.1286(11) 0.3502(8)
C48 C 0.17285(7) 0.13049(10) 0.29722(7)
C49 C 0.17460(8) 0.21443(10) 0.29676(7)
C50 C 0.12031(8) 0.25354(11) 0.28303(7)
H31 H 0.0827(8) 0.2230(10) 0.2731(7)
C51 C 0.11800(9) 0.33132(11) 0.28198(8)
H32 H 0.0798(9) 0.3579(11) 0.2724(8)
C52 C 0.17054(9) 0.37242(11) 0.29335(8)
H33 H 0.1699(8) 0.4297(12) 0.2918(8)
C53 C 0.22453(9) 0.33493(11) 0.30810(8)
H34 H 0.2634(8) 0.3650(11) 0.3178(7)
C54 C 0.22742(8) 0.25665(10) 0.31214(7)
C55 C 0.28587(8) 0.22193(9) 0.33696(7)
C56 C 0.33583(8) 0.23191(10) 0.31185(8)
H35 H 0.3320(8) 0.2621(10) 0.2757(8)
C57 C 0.39242(8) 0.20108(10) 0.33376(7)
C58 C 0.44412(9) 0.21140(12) 0.30800(9)
H36 H 0.4399(8) 0.2435(12) 0.2733(8)
C59 C 0.49733(9) 0.17899(13) 0.32962(10)
H37 H 0.5334(10) 0.1870(12) 0.3116(9)
C60 C 0.50185(9) 0.13453(12) 0.37793(9)
H38 H 0.5408(9) 0.1111(11) 0.3928(8)
C61 C 0.45316(9) 0.12456(11) 0.40442(9)
H39 H 0.4563(8) 0.0950(10) 0.4389(8)
C62 C 0.39699(8) 0.15721(10) 0.38290(7)
C63 C 0.34548(8) 0.14846(11) 0.40901(8)
H40 H 0.3485(8) 0.1204(11) 0.4444(8)
C64 C 0.29096(8) 0.18084(10) 0.38857(7)
C65 C 0.24085(8) 0.17556(11) 0.42175(7)
C66 C 0.22739(9) 0.10697(13) 0.44488(8)
H41 H 0.2502(9) 0.0588(12) 0.4356(8)
C67 C 0.18228(10) 0.10250(17) 0.47777(10)
H42 H 0.1713(11) 0.0529(14) 0.4916(10)
C68 C 0.15047(11) 0.16569(17) 0.48789(10)
H43 H 0.1172(11) 0.1642(13) 0.5119(10)
C69 C 0.16312(10) 0.23426(16) 0.46532(9)
H44 H 0.1395(10) 0.2802(13) 0.4719(9)
C70 C 0.20815(9) 0.23934(13) 0.43264(8)
H45 H 0.2179(8) 0.2905(12) 0.4182(8)
H46 H 0.0662(8) 0.0372(12) 0.0258(8)
loop_
_geom_bond_atom_site_label_1
_geom_bond_atom_site_label_2
_geom_bond_site_symmetry_1
_geom_bond_site_symmetry_2
C1 C2 1_555 1_555
C2 H1 1_555 1_555
C3 C2 1_555 1_555
H2 C3 1_555 1_555
C4 C3 1_555 1_555
H3 C4 1_555 1_555
C5 C4 1_555 1_555
H4 C5 1_555 1_555
C6 C1 1_555 1_555
C7 C6 1_555 1_555
C8 C7 1_555 1_555
H5 C8 1_555 1_555
C9 C8 1_555 1_555
C10 C9 1_555 1_555
H6 C10 1_555 1_555
C11 C10 1_555 1_555
H7 C11 1_555 1_555
C12 C11 1_555 1_555
H8 C12 1_555 1_555
C13 C12 1_555 1_555
H9 C13 1_555 1_555
C14 C9 1_555 1_555
C15 C14 1_555 1_555
H10 C15 1_555 1_555
C16 C7 1_555 1_555
C17 C16 1_555 1_555
C18 C17 1_555 1_555
H11 C18 1_555 1_555
C19 C18 1_555 1_555
H12 C19 1_555 1_555
C20 C19 1_555 1_555
H13 C20 1_555 1_555
C21 C20 1_555 1_555
H14 C21 1_555 1_555
C22 C17 1_555 1_555
C23 C22 1_555 1_555
C24 C23 1_555 1_555
H15 C24 1_555 1_555
C25 C24 1_555 1_555
C26 C25 1_555 1_555
H16 C26 1_555 1_555
C27 C26 1_555 1_555
H17 C27 1_555 1_555
C28 C27 1_555 1_555
H18 C28 1_555 1_555
C29 C28 1_555 1_555
H19 C29 1_555 1_555
C30 C25 1_555 1_555
C31 C30 1_555 1_555
H20 C31 1_555 1_555
C32 C23 1_555 1_555
C33 C32 1_555 1_555
C34 C33 1_555 1_555
H21 C34 1_555 1_555
C35 C34 1_555 1_555
H22 C35 1_555 1_555
C36 C35 1_555 1_555
H23 C36 1_555 1_555
C37 C36 1_555 1_555
H24 C37 1_555 1_555
C38 C33 1_555 1_555
C39 C38 1_555 1_555
C40 C39 1_555 1_555
H25 C40 1_555 1_555
C41 C40 1_555 1_555
C42 C41 1_555 1_555
H26 C42 1_555 1_555
C43 C42 1_555 1_555
H27 C43 1_555 1_555
C44 C43 1_555 1_555
H28 C44 1_555 1_555
C45 C44 1_555 1_555
H29 C45 1_555 1_555
C46 C41 1_555 1_555
C47 C46 1_555 1_555
H30 C47 1_555 1_555
C48 C39 1_555 1_555
C49 C48 1_555 1_555
C50 C49 1_555 1_555
H31 C50 1_555 1_555
C51 C50 1_555 1_555
H32 C51 1_555 1_555
C52 C51 1_555 1_555
H33 C52 1_555 1_555
C53 C52 1_555 1_555
H34 C53 1_555 1_555
C54 C49 1_555 1_555
C55 C54 1_555 1_555
C56 C55 1_555 1_555
H35 C56 1_555 1_555
C57 C56 1_555 1_555
C58 C57 1_555 1_555
H36 C58 1_555 1_555
C59 C58 1_555 1_555
H37 C59 1_555 1_555
C60 C59 1_555 1_555
H38 C60 1_555 1_555
C61 C60 1_555 1_555
H39 C61 1_555 1_555
C62 C57 1_555 1_555
C63 C62 1_555 1_555
H40 C63 1_555 1_555
C64 C55 1_555 1_555
C65 C64 1_555 1_555
C66 C65 1_555 1_555
H41 C66 1_555 1_555
C67 C66 1_555 1_555
H42 C67 1_555 1_555
C68 C67 1_555 1_555
H43 C68 1_555 1_555
C69 C68 1_555 1_555
H44 C69 1_555 1_555
C70 C65 1_555 1_555
H45 C70 1_555 1_555
H46 C1 1_555 1_555
C5 C6 1_555 1_555
C13 C14 1_555 1_555
C15 C16 1_555 1_555
C21 C22 1_555 1_555
C29 C30 1_555 1_555
C31 C32 1_555 1_555
C37 C38 1_555 1_555
C45 C46 1_555 1_555
C47 C48 1_555 1_555
C53 C54 1_555 1_555
C61 C62 1_555 1_555
C63 C64 1_555 1_555
C69 C70 1_555 1_555

#END
