
#######################################################################
#
#                 Cambridge Crystallographic Data Centre
#                                CCDC 
#
#######################################################################
#
# If this CIF has been generated from an entry in the Cambridge 
# Structural Database, then it will include bibliographic, chemical, 
# crystal, experimental, refinement or atomic coordinate data resulting 
# from the CCDC's data processing and validation procedures.
#
#######################################################################

data_ORERIO
_chemical_formula_moiety         'C4 H1 N7 O8 2-,2(H4 N1 1+),H2 O1'
_chemical_name_systematic        
'bis(ammonium) (3-(dinitromethanidyl)-1H-1,2,4-triazol-5-yl)(dinitro)methanide monohydrate'
_symmetry_cell_setting           orthorhombic
_symmetry_space_group_name_H-M   'P c a 21'
_symmetry_Int_Tables_number      29
_space_group_name_Hall           'P 2c -2ac'
loop_
_symmetry_equiv_pos_site_id
_symmetry_equiv_pos_as_xyz
1 x,y,z
2 -x,-y,1/2+z
3 1/2+x,-y,z
4 1/2-x,y,1/2+z
_cell_length_a                   19.255(3)
_cell_length_b                   8.1379(13)
_cell_length_c                   7.8604(13)
_cell_angle_alpha                90
_cell_angle_beta                 90
_cell_angle_gamma                90
_cell_volume                     1231.69
_exptl_crystal_colour            colorless
_exptl_crystal_description       rod
_cell_formula_units_Z            4
loop_
_atom_site_label
_atom_site_type_symbol
_atom_site_fract_x
_atom_site_fract_y
_atom_site_fract_z
N1 N 0.59450(6) 0.70556(16) 0.3949(8)
C1 C 0.65798(8) 0.77832(18) 0.3956(10)
N2 N 0.71129(7) 0.67523(16) 0.3937(10)
N3 N 0.67965(7) 0.52647(16) 0.3926(9)
H1 H 0.7049(12) 0.432(3) 0.417(4)
C2 C 0.61048(8) 0.54689(18) 0.3935(10)
C3 C 0.56163(8) 0.40868(18) 0.3971(9)
N4 N 0.5421(3) 0.3403(6) 0.2380(5)
O1 O 0.5040(2) 0.2171(5) 0.2287(5)
O2 O 0.5648(2) 0.4108(5) 0.1099(5)
O3 O 0.5045(2) 0.2161(5) 0.5579(5)
N5 N 0.5427(2) 0.3432(5) 0.5453(6)
O4 O 0.5646(2) 0.4098(5) 0.6801(5)
C4 C 0.66766(8) 0.95729(19) 0.3974(10)
N6 N 0.6691(2) 1.0389(5) 0.2375(6)
O5 O 0.6621(3) 0.9518(6) 0.1095(6)
O6 O 0.6768(2) 1.1895(4) 0.2266(5)
N7 N 0.6691(3) 1.0383(5) 0.5461(6)
O7 O 0.6611(3) 0.9520(6) 0.6813(5)
O8 O 0.6764(2) 1.1912(4) 0.5590(5)
N8 N 0.53860(7) 0.08980(17) 0.8950(9)
H2 H 0.5400(14) 0.139(3) 0.791(3)
H3 H 0.5147(13) 0.142(3) 0.970(3)
H4 H 0.5831(9) 0.073(3) 0.930(3)
H5 H 0.5206(11) -0.012(2) 0.874(4)
N9 N 0.86367(7) 0.65989(17) 0.3928(9)
H6 H 0.8201(9) 0.701(3) 0.364(3)
H7 H 0.8600(11) 0.5508(18) 0.406(5)
H8 H 0.8941(12) 0.689(3) 0.314(3)
H9 H 0.8733(13) 0.710(3) 0.494(3)
O9 O 0.80541(6) 0.34114(14) 0.3940(7)
H10 H 0.8006(19) 0.268(6) 0.312(6)
H11 H 0.8158(19) 0.286(6) 0.479(6)
loop_
_geom_bond_atom_site_label_1
_geom_bond_atom_site_label_2
_geom_bond_site_symmetry_1
_geom_bond_site_symmetry_2
N1 C1 1_555 1_555
C1 N2 1_555 1_555
N2 N3 1_555 1_555
N3 H1 1_555 1_555
C2 N1 1_555 1_555
C3 C2 1_555 1_555
N4 C3 1_555 1_555
O1 N4 1_555 1_555
O2 N4 1_555 1_555
O3 N5 1_555 1_555
N5 C3 1_555 1_555
O4 N5 1_555 1_555
C4 C1 1_555 1_555
N6 C4 1_555 1_555
O5 N6 1_555 1_555
O6 N6 1_555 1_555
N7 C4 1_555 1_555
O7 N7 1_555 1_555
O8 N7 1_555 1_555
N8 H2 1_555 1_555
H3 N8 1_555 1_555
H4 N8 1_555 1_555
H5 N8 1_555 1_555
N9 H6 1_555 1_555
H7 N9 1_555 1_555
H8 N9 1_555 1_555
H9 N9 1_555 1_555
O9 H10 1_555 1_555
H11 O9 1_555 1_555
N3 C2 1_555 1_555

#END
