
#######################################################################
#
#                 Cambridge Crystallographic Data Centre
#                                CCDC 
#
#######################################################################
#
# If this CIF has been generated from an entry in the Cambridge 
# Structural Database, then it will include bibliographic, chemical, 
# crystal, experimental, refinement or atomic coordinate data resulting 
# from the CCDC's data processing and validation procedures.
#
#######################################################################

data_OREWOZ
_chemical_formula_moiety         'C102 H90 N6 O6,3(C7 H8)'
_chemical_name_systematic        
"cyclo[3](9,9'-dibutyl-9H,9'H-3,3'-bicarbazole-2,7-dicarbaldehyde) toluene unknown solvate"
_symmetry_cell_setting           tetragonal
_symmetry_space_group_name_H-M   'P 4/n'
_symmetry_Int_Tables_number      85
_space_group_name_Hall           '-P 4a'
loop_
_symmetry_equiv_pos_site_id
_symmetry_equiv_pos_as_xyz
1 x,y,z
2 1/2-x,1/2-y,z
3 1/2-y,x,z
4 y,1/2-x,z
5 -x,-y,-z
6 1/2+x,1/2+y,-z
7 1/2+y,-x,-z
8 -y,1/2+x,-z
_cell_length_a                   38.5230(6)
_cell_length_b                   38.5230(6)
_cell_length_c                   14.3978(3)
_cell_angle_alpha                90
_cell_angle_beta                 90
_cell_angle_gamma                90
_cell_volume                     21366.6
_exptl_crystal_colour            yellow
_exptl_crystal_description       block
_cell_formula_units_Z            8
loop_
_atom_site_label
_atom_site_type_symbol
_atom_site_fract_x
_atom_site_fract_y
_atom_site_fract_z
O1 O 0.40902(7) 0.43605(7) 0.6347(2)
O2 O 0.27406(8) 0.90721(8) 0.6682(2)
O3 O 0.42022(10) 0.64091(8) 0.1587(2)
O4 O 0.48027(8) 0.90191(9) 0.2053(2)
O5 O 0.64893(10) 0.64222(13) 1.0690(5)
O6 O 0.45242(18) 0.83006(12) 1.1313(4)
N1 N 0.37931(8) 0.90370(7) 0.43786(19)
N2 N 0.41484(7) 0.53926(7) 0.39790(18)
N3 N 0.54521(8) 0.48756(7) 0.9646(2)
N4 N 0.57001(8) 0.73930(9) 0.3483(3)
N5 N 0.55076(12) 0.73510(9) 1.1114(3)
N6 N 0.31265(9) 0.73302(8) 0.8999(2)
C1 C 0.53612(9) 0.57978(9) 0.9435(3)
H1 H 0.5251 0.5953 0.9016
C2 C 0.44135(9) 0.48724(8) 0.6039(2)
C3 C 0.45993(8) 0.54540(8) 0.5006(2)
C4 C 0.47934(8) 0.53666(8) 0.5781(2)
H2 H 0.4991 0.5502 0.5942
C5 C 0.46136(9) 0.57339(8) 0.4347(2)
C6 C 0.48345(9) 0.60144(8) 0.4233(2)
H3 H 0.5024 0.6044 0.4649
C7 C 0.43121(9) 0.52416(8) 0.4738(2)
C8 C 0.41215(9) 0.85611(8) 0.4713(2)
C9 C 0.47021(8) 0.50801(8) 0.6333(2)
C10 C 0.42284(9) 0.49505(8) 0.5241(2)
H4 H 0.4045 0.4804 0.5043
C11 C 0.36368(9) 0.88710(8) 0.5124(2)
C12 C 0.38450(9) 0.85752(8) 0.5360(2)
C13 C 0.35525(10) 0.80745(9) 0.8008(2)
H5 H 0.3762 0.8197 0.8120
C14 C 0.49012(8) 0.50110(8) 0.7189(2)
C15 C 0.47841(9) 0.62545(8) 0.3520(2)
C16 C 0.51903(9) 0.52209(9) 0.8563(2)
C17 C 0.40837(9) 0.88522(8) 0.4126(2)
C18 C 0.53420(9) 0.54436(9) 0.9284(2)
C19 C 0.43293(9) 0.56898(8) 0.3738(2)
C20 C 0.43932(10) 0.83246(9) 0.4563(2)
H6 H 0.4415 0.8127 0.4953
C21 C 0.31554(11) 0.76118(10) 0.8381(3)
C22 C 0.50033(9) 0.52834(9) 0.7765(2)
H7 H 0.4943 0.5515 0.7605
C23 C 0.42829(9) 0.45851(9) 0.6628(3)
H8 H 0.4354 0.4577 0.7260
C24 C 0.46280(9) 0.83763(8) 0.3853(2)
C25 C 0.43182(10) 0.89106(8) 0.3417(2)
H9 H 0.4296 0.9109 0.3030
C26 C 0.33417(10) 0.89496(8) 0.5611(2)
H10 H 0.3207 0.9147 0.5451
C27 C 0.37408(10) 0.83646(9) 0.6106(2)
H11 H 0.3877 0.8169 0.6275
C28 C 0.34649(11) 0.77914(9) 0.8556(2)
C29 C 0.50298(10) 0.65498(9) 0.3433(2)
C30 C 0.45004(10) 0.62037(8) 0.2917(2)
C31 C 0.48537(9) 0.77722(9) 0.3618(2)
H12 H 0.4622 0.7689 0.3601
C32 C 0.49124(9) 0.68951(8) 0.3462(2)
H13 H 0.4671 0.6945 0.3475
C33 C 0.38441(9) 0.52563(9) 0.3507(3)
H14 H 0.3707 0.5452 0.3253
H15 H 0.3697 0.5132 0.3962
C34 C 0.52675(9) 0.48773(9) 0.8824(2)
C35 C 0.55539(10) 0.63049(10) 1.0406(3)
C36 C 0.34440(10) 0.84380(9) 0.6595(2)
C37 C 0.55677(10) 0.45632(9) 1.0134(3)
H16 H 0.5389 0.4381 1.0067
H17 H 0.5591 0.4617 1.0804
C38 C 0.55419(10) 0.59293(10) 1.0200(3)
C39 C 0.53886(11) 0.64843(10) 0.3381(3)
H18 H 0.5466 0.6250 0.3347
C40 C 0.51575(9) 0.71665(9) 0.3471(3)
C41 C 0.55042(9) 0.52149(9) 0.9922(3)
C42 C 0.49868(12) 0.70968(10) 1.0759(3)
C43 C 0.42704(10) 0.59225(9) 0.3026(2)
H19 H 0.4079 0.5894 0.2617
C44 C 0.33330(10) 0.81774(9) 0.7296(3)
C45 C 0.49918(9) 0.46703(9) 0.7460(3)
H20 H 0.4928 0.4483 0.7067
C46 C 0.57055(10) 0.56934(10) 1.0811(3)
H21 H 0.5834 0.5783 1.1320
C47 C 0.56858(10) 0.53421(10) 1.0697(3)
H22 H 0.5792 0.5188 1.1128
C48 C 0.51284(9) 0.75418(9) 0.3548(3)
C49 C 0.36415(11) 0.76036(9) 0.9299(2)
C50 C 0.39616(12) 0.76374(10) 0.9705(2)
H23 H 0.4108 0.7827 0.9550
C51 C 0.49175(10) 0.81283(9) 0.3714(3)
C52 C 0.32427(10) 0.87371(9) 0.6338(2)
C53 C 0.30220(11) 0.79979(11) 0.7160(3)
H24 H 0.2862 0.8071 0.6697
C54 C 0.59073(11) 0.44258(11) 0.9782(3)
H25 H 0.6089 0.4604 0.9869
H26 H 0.5887 0.4378 0.9108
C55 C 0.40704(13) 0.73892(11) 1.0351(3)
C56 C 0.52507(11) 0.64927(9) 1.0450(3)
H27 H 0.5036 0.6382 1.0318
C57 C 0.29283(11) 0.88300(10) 0.6868(3)
H28 H 0.2869 0.8691 0.7389
C58 C 0.51694(9) 0.45981(9) 0.8272(3)
H29 H 0.5223 0.4366 0.8446
C59 C 0.52563(11) 0.68428(10) 1.0686(3)
C60 C 0.44497(13) 0.64282(9) 0.2104(3)
H30 H 0.4621 0.6599 0.1975
C61 C 0.38498(14) 0.71155(11) 1.0578(3)
H31 H 0.3928 0.6947 1.1012
C62 C 0.46335(13) 0.70906(10) 1.0597(2)
H32 H 0.4523 0.6880 1.0423
C63 C 0.29540(7) 0.77256(11) 0.7684(3)
H33 H 0.2747 0.7600 0.7560
C64 C 0.48158(11) 0.87489(11) 0.2495(3)
H34 H 0.4982 0.8579 0.2324
C65 C 0.34221(11) 0.73215(10) 0.9530(3)
C66 C 0.55121(10) 0.70873(10) 0.3438(3)
C67 C 0.56305(11) 0.67440(11) 0.3377(3)
H35 H 0.5871 0.6693 0.3334
C68 C 0.35229(14) 0.70786(11) 1.0199(3)
H36 H 0.3373 0.6896 1.0386
C69 C 0.58739(12) 0.64817(12) 1.0592(3)
C70 C 0.55735(12) 0.70079(11) 1.0896(3)
C71 C 0.51526(14) 0.74119(11) 1.1029(3)
C72 C 0.52648(11) 0.82443(10) 0.3736(3)
H37 H 0.5309 0.8486 0.3802
C73 C 0.39392(12) 0.50092(13) 0.2718(3)
H38 H 0.4094 0.5131 0.2275
H39 H 0.4068 0.4809 0.2975
C74 C 0.54714(10) 0.76674(10) 0.3563(3)
C75 C 0.44403(13) 0.73934(11) 1.0688(3)
C76 C 0.55409(10) 0.80218(10) 0.3665(3)
H40 H 0.5773 0.8106 0.3684
C77 C 0.46027(17) 0.77004(12) 1.1006(3)
C78 C 0.58804(13) 0.68281(12) 1.0842(3)
H41 H 0.6094 0.6940 1.0976
C79 C 0.62042(13) 0.63034(15) 1.0452(5)
H42 H 0.6200 0.6082 1.0161
C80 C 0.49658(16) 0.77134(12) 1.1166(3)
H43 H 0.5076 0.7922 1.1361
C81 C 0.60132(17) 0.40968(15) 1.0282(4)
H44 H 0.5826 0.3922 1.0226
H45 H 0.6048 0.4147 1.0950
C82 C 0.60803(12) 0.74123(14) 0.3607(5)
H46 H 0.6164 0.7645 0.3417
H47 H 0.6194 0.7238 0.3205
C83 C 0.4399(2) 0.80157(16) 1.1221(4)
H48 H 0.4155 0.7993 1.1291
C84 C 0.36219(15) 0.4878(2) 0.2203(4)
H49 H 0.3468 0.4757 0.2647
H50 H 0.3492 0.5080 0.1952
C85 C 0.61771(18) 0.7347(2) 0.4606(7)
H51 H 0.6149 0.7094 0.4711
H52 H 0.6428 0.7397 0.4659
C86 C 0.6349(2) 0.3950(2) 0.9871(7)
H53 H 0.6414 0.3738 1.0204
H54 H 0.6314 0.3897 0.9212
H55 H 0.6536 0.4122 0.9935
C87 C 0.3710(2) 0.4635(3) 0.1415(6)
H56 H 0.3496 0.4559 0.1109
H57 H 0.3858 0.4756 0.0965
H58 H 0.3834 0.4432 0.1661
C88 C 0.6020(3) 0.7509(4) 0.5345(7)
H59 H 0.5773 0.7439 0.5356
H60 H 0.6027 0.7763 0.5234
C89 C 0.45837(10) 0.86783(9) 0.3278(2)
C90 C 0.6167(3) 0.7442(4) 0.6259(8)
H61 H 0.6036 0.7571 0.6730
H62 H 0.6155 0.7193 0.6393
H63 H 0.6410 0.7518 0.6270
C91 C 0.57736(19) 0.76213(15) 1.1256(5)
H64 H 0.5942 0.7538 1.1725
H65 H 0.5660 0.7832 1.1510
C92 C 0.5970(4) 0.7720(4) 1.0378(9)
H66 H 0.6080 0.7511 1.0111
H67 H 0.6156 0.7887 1.0535
C93 C 0.5727(4) 0.7882(4) 0.9659(10)
H68 H 0.5639 0.8106 0.9903
H69 H 0.5525 0.7727 0.9567
C94 C 0.5906(5) 0.7946(6) 0.8703(10)
H70 H 0.5739 0.8050 0.8271
H71 H 0.6103 0.8104 0.8786
H72 H 0.5989 0.7725 0.8450
C95 C 0.28564(13) 0.70733(12) 0.9005(3)
H73 H 0.2629 0.7191 0.8939
H74 H 0.2858 0.6952 0.9611
C96 C 0.2893(3) 0.6817(3) 0.8265(7)
H75 H 0.2974 0.6610 0.8609
H76 H 0.2648 0.6767 0.8105
C97 C 0.3045(3) 0.6782(2) 0.7482(6)
H77 H 0.3262 0.6918 0.7528
H78 H 0.2897 0.6905 0.7025
C98 C 0.3145(5) 0.6440(3) 0.7025(9)
H79 H 0.3258 0.6486 0.6428
H80 H 0.3305 0.6313 0.7431
H81 H 0.2936 0.6300 0.6922
C99 C 0.36678(11) 0.93508(9) 0.3904(3)
H82 H 0.3866 0.9509 0.3797
H83 H 0.3501 0.9472 0.4313
C100 C 0.34928(13) 0.92745(12) 0.2974(3)
H84 H 0.3654 0.9139 0.2581
H85 H 0.3284 0.9131 0.3085
C101 C 0.33910(19) 0.95914(19) 0.2476(4)
H86 H 0.3198 0.9698 0.2830
H87 H 0.3590 0.9754 0.2513
C102 C 0.3283(3) 0.9579(3) 0.1504(5)
H88 H 0.3225 0.9813 0.1291
H89 H 0.3472 0.9485 0.1125
H90 H 0.3078 0.9429 0.1444
C110 C 0.3825(2) 0.7384(2) 0.6093(7)
H114 H 0.3817 0.7333 0.5426
H115 H 0.3727 0.7188 0.6440
H116 H 0.3689 0.7594 0.6221
C111 C 0.4198(2) 0.7441(3) 0.6388(5)
C112 C 0.4275(2) 0.7517(3) 0.7308(4)
H117 H 0.4098 0.7506 0.7767
C113 C 0.4611(3) 0.7610(2) 0.7557(4)
H118 H 0.4663 0.7663 0.8186
C114 C 0.4869(2) 0.7627(2) 0.6886(6)
H119 H 0.5099 0.7690 0.7056
C115 C 0.4792(2) 0.7550(2) 0.5965(5)
H120 H 0.4969 0.7561 0.5506
C116 C 0.4456(3) 0.7457(2) 0.5716(4)
H121 H 0.4404 0.7405 0.5087
C124 C 0.55960(19) 0.66853(17) 0.7467(4)
C125 C 0.56997(19) 0.63475(19) 0.7662(4)
H130 H 0.5775 0.6288 0.8270
C126 C 0.5693(2) 0.60967(16) 0.6968(6)
H131 H 0.5764 0.5866 0.7102
C127 C 0.5583(2) 0.61837(19) 0.6079(5)
H132 H 0.5579 0.6012 0.5605
C128 C 0.54794(19) 0.6522(2) 0.5883(4)
H133 H 0.5404 0.6581 0.5275
C129 C 0.54859(19) 0.67723(16) 0.6577(4)
H134 H 0.5415 0.7003 0.6443
C130 C 0.5591(4) 0.6954(2) 0.8230(6)
H135 H 0.5512 0.7177 0.7977
H136 H 0.5432 0.6879 0.8722
H137 H 0.5825 0.6980 0.8486
C138 C 0.6644(5) 0.6531(5) 0.5776(7)
H146 H 0.6477 0.6365 0.6030
H147 H 0.6877 0.6478 0.6010
H148 H 0.6579 0.6767 0.5966
C139 C 0.6643(3) 0.6510(3) 0.4812(6)
C140 C 0.6872(3) 0.6737(3) 0.4377(8)
H149 H 0.7016 0.6884 0.4738
C141 C 0.6889(3) 0.6748(3) 0.3413(8)
H150 H 0.7046 0.6903 0.3115
C142 C 0.6678(4) 0.6532(4) 0.2884(6)
H151 H 0.6690 0.6540 0.2226
C143 C 0.6449(3) 0.6306(3) 0.3320(9)
H152 H 0.6305 0.6158 0.2959
C144 C 0.6432(3) 0.6295(3) 0.4284(9)
H153 H 0.6275 0.6140 0.4581
H91? H 0.6004 0.7513 1.1353
H92? H 0.5717 0.7762 1.1810
C103? C 0.5780(6) 0.7860(5) 1.0353(11)
H93? H 0.5540 0.7908 1.0146
H94? H 0.5894 0.8084 1.0496
C104? C 0.5980(6) 0.7671(4) 0.9584(13)
H95? H 0.5821 0.7511 0.9257
H96? H 0.6168 0.7531 0.9867
C105? C 0.6142(7) 0.7929(7) 0.8867(15)
H97? H 0.6267 0.7799 0.8389
H98? H 0.5956 0.8066 0.8576
H99? H 0.6303 0.8086 0.9187
H100? H 0.2656 0.7167 0.8655
H101? H 0.2780 0.7038 0.9655
C106? C 0.2947(4) 0.6731(3) 0.8609(10)
H102? H 0.2951 0.6577 0.9159
H103? H 0.2735 0.6665 0.8263
C107? C 0.3191(4) 0.6612(4) 0.8105(10)
H104? H 0.3357 0.6508 0.8548
H105? H 0.3308 0.6820 0.7850
C108? C 0.3175(9) 0.6358(4) 0.7297(8)
H106? H 0.3409 0.6319 0.7055
H107? H 0.3077 0.6137 0.7512
H108? H 0.3028 0.6453 0.6805
H109? H 0.3211 0.9531 0.2011
H110? H 0.3286 0.9756 0.2924
C109? C 0.3679(7) 0.9764(9) 0.200(3)
H111? H 0.3593 0.9972 0.1686
H112? H 0.3856 0.9830 0.2459
H113? H 0.3781 0.9605 0.1546
C117? C 0.4846(5) 0.7696(5) 0.8423(9)
H122? H 0.4643 0.7739 0.8819
H123? H 0.4983 0.7505 0.8681
H124? H 0.4989 0.7907 0.8396
C118? C 0.4727(5) 0.7603(3) 0.7463(8)
C119? C 0.4966(5) 0.7530(5) 0.6764(11)
H125? H 0.5207 0.7539 0.6891
C120? C 0.4850(6) 0.7444(5) 0.5879(10)
H126? H 0.5013 0.7395 0.5402
C121? C 0.4496(6) 0.7431(5) 0.5693(9)
H127? H 0.4417 0.7372 0.5088
C122? C 0.4258(5) 0.7504(7) 0.6392(12)
H128? H 0.4016 0.7495 0.6264
C123? C 0.4374(5) 0.7590(6) 0.7277(10)
H129? H 0.4211 0.7640 0.7754
C131? C 0.6381(5) 0.6239(5) 0.2661(14)
H138? H 0.6430 0.6285 0.2005
H139? H 0.6432 0.5996 0.2804
H140? H 0.6135 0.6286 0.2788
C132? C 0.6597(4) 0.6465(4) 0.3243(9)
C133? C 0.6571(4) 0.6445(4) 0.4204(10)
H141? H 0.6413 0.6286 0.4480
C134? C 0.6775(4) 0.6658(4) 0.4761(7)
H142? H 0.6757 0.6644 0.5418
C135? C 0.7006(4) 0.6891(4) 0.4357(10)
H143? H 0.7145 0.7036 0.4737
C136? C 0.7032(4) 0.6911(4) 0.3395(10)
H144? H 0.7190 0.7070 0.3119
C137? C 0.6828(4) 0.6698(4) 0.2838(8)
H145? H 0.6846 0.6712 0.2181
loop_
_geom_bond_atom_site_label_1
_geom_bond_atom_site_label_2
_geom_bond_site_symmetry_1
_geom_bond_site_symmetry_2
O1 C23 1_555 1_555
O2 C57 1_555 1_555
O3 C60 1_555 1_555
O4 C64 1_555 1_555
O5 C79 1_555 1_555
O6 C83 1_555 1_555
N1 C11 1_555 1_555
N2 C7 1_555 1_555
N3 C34 1_555 1_555
N4 C66 1_555 1_555
N5 C70 1_555 1_555
N6 C21 1_555 1_555
C1 H1 1_555 1_555
C2 C9 1_555 1_555
C3 C4 1_555 1_555
C4 H2 1_555 1_555
C5 C3 1_555 1_555
C6 C5 1_555 1_555
H3 C6 1_555 1_555
C7 C3 1_555 1_555
C8 C12 1_555 1_555
C9 C4 1_555 1_555
C10 C2 1_555 1_555
H4 C10 1_555 1_555
C11 C12 1_555 1_555
C12 C27 1_555 1_555
C13 H5 1_555 1_555
C14 C9 1_555 1_555
C15 C6 1_555 1_555
C16 C18 1_555 1_555
C17 N1 1_555 1_555
C18 C1 1_555 1_555
C19 N2 1_555 1_555
C20 C8 1_555 1_555
H6 C20 1_555 1_555
C21 C28 1_555 1_555
C22 C14 1_555 1_555
H7 C22 1_555 1_555
C23 C2 1_555 1_555
H8 C23 1_555 1_555
C24 C20 1_555 1_555
C25 C17 1_555 1_555
H9 C25 1_555 1_555
C26 C11 1_555 1_555
H10 C26 1_555 1_555
C27 H11 1_555 1_555
C28 C13 1_555 1_555
C29 C15 1_555 1_555
C30 C15 1_555 1_555
C31 H12 1_555 1_555
C32 C29 1_555 1_555
H13 C32 1_555 1_555
C33 N2 1_555 1_555
H14 C33 1_555 1_555
H15 C33 1_555 1_555
C34 C16 1_555 1_555
C35 C38 1_555 1_555
C36 C27 1_555 1_555
C37 N3 1_555 1_555
H16 C37 1_555 1_555
H17 C37 1_555 1_555
C38 C1 1_555 1_555
C39 C29 1_555 1_555
H18 C39 1_555 1_555
C40 C32 1_555 1_555
C41 N3 1_555 1_555
C42 C59 1_555 1_555
C43 C19 1_555 1_555
H19 C43 1_555 1_555
C44 C13 1_555 1_555
C45 C14 1_555 1_555
H20 C45 1_555 1_555
C46 C38 1_555 1_555
H21 C46 1_555 1_555
C47 C41 1_555 1_555
H22 C47 1_555 1_555
C48 C31 1_555 1_555
C49 C28 1_555 1_555
C50 C49 1_555 1_555
H23 C50 1_555 1_555
C51 C24 1_555 1_555
C52 C26 1_555 1_555
C53 C44 1_555 1_555
H24 C53 1_555 1_555
C54 C37 1_555 1_555
H25 C54 1_555 1_555
H26 C54 1_555 1_555
C55 C50 1_555 1_555
C56 C35 1_555 1_555
H27 C56 1_555 1_555
C57 C52 1_555 1_555
H28 C57 1_555 1_555
C58 C34 1_555 1_555
H29 C58 1_555 1_555
C59 C56 1_555 1_555
C60 C30 1_555 1_555
H30 C60 1_555 1_555
C61 C55 1_555 1_555
H31 C61 1_555 1_555
C62 C42 1_555 1_555
H32 C62 1_555 1_555
C63 C21 1_555 1_555
H33 C63 1_555 1_555
C64 H34 1_555 1_555
C65 N6 1_555 1_555
C66 C40 1_555 1_555
C67 C39 1_555 1_555
H35 C67 1_555 1_555
C68 C61 1_555 1_555
H36 C68 1_555 1_555
C69 C35 1_555 1_555
C70 C59 1_555 1_555
C71 N5 1_555 1_555
C72 C51 1_555 1_555
H37 C72 1_555 1_555
C73 C33 1_555 1_555
H38 C73 1_555 1_555
H39 C73 1_555 1_555
C74 N4 1_555 1_555
C75 C55 1_555 1_555
C76 C72 1_555 1_555
H40 C76 1_555 1_555
C77 C75 1_555 1_555
C78 C69 1_555 1_555
H41 C78 1_555 1_555
C79 C69 1_555 1_555
H42 C79 1_555 1_555
C80 C71 1_555 1_555
H43 C80 1_555 1_555
C81 C54 1_555 1_555
H44 C81 1_555 1_555
H45 C81 1_555 1_555
C82 N4 1_555 1_555
H46 C82 1_555 1_555
H47 C82 1_555 1_555
C83 C77 1_555 1_555
H48 C83 1_555 1_555
C84 C73 1_555 1_555
H49 C84 1_555 1_555
H50 C84 1_555 1_555
C85 C82 1_555 1_555
H51 C85 1_555 1_555
H52 C85 1_555 1_555
C86 C81 1_555 1_555
H53 C86 1_555 1_555
H54 C86 1_555 1_555
H55 C86 1_555 1_555
C87 C84 1_555 1_555
H56 C87 1_555 1_555
H57 C87 1_555 1_555
H58 C87 1_555 1_555
C88 C85 1_555 1_555
H59 C88 1_555 1_555
H60 C88 1_555 1_555
C89 C24 1_555 1_555
C90 C88 1_555 1_555
H61 C90 1_555 1_555
H62 C90 1_555 1_555
H63 C90 1_555 1_555
C91 N5 1_555 1_555
H64 C91 1_555 1_555
H65 C91 1_555 1_555
C92 C91 1_555 1_555
H66 C92 1_555 1_555
H67 C92 1_555 1_555
C93 C92 1_555 1_555
H68 C93 1_555 1_555
H69 C93 1_555 1_555
C94 C93 1_555 1_555
H70 C94 1_555 1_555
H71 C94 1_555 1_555
H72 C94 1_555 1_555
C95 N6 1_555 1_555
H73 C95 1_555 1_555
H74 C95 1_555 1_555
C96 C95 1_555 1_555
H75 C96 1_555 1_555
H76 C96 1_555 1_555
C97 C96 1_555 1_555
H77 C97 1_555 1_555
H78 C97 1_555 1_555
C98 C97 1_555 1_555
H79 C98 1_555 1_555
H80 C98 1_555 1_555
H81 C98 1_555 1_555
C99 N1 1_555 1_555
H82 C99 1_555 1_555
H83 C99 1_555 1_555
C100 C99 1_555 1_555
H84 C100 1_555 1_555
H85 C100 1_555 1_555
C101 C100 1_555 1_555
H86 C101 1_555 1_555
H87 C101 1_555 1_555
C102 C101 1_555 1_555
H88 C102 1_555 1_555
H89 C102 1_555 1_555
H90 C102 1_555 1_555
C110 H114 1_555 1_555
H115 C110 1_555 1_555
H116 C110 1_555 1_555
C111 C110 1_555 1_555
C112 C111 1_555 1_555
H117 C112 1_555 1_555
C113 C112 1_555 1_555
H118 C113 1_555 1_555
C114 C113 1_555 1_555
H119 C114 1_555 1_555
C115 C114 1_555 1_555
H120 C115 1_555 1_555
C116 C111 1_555 1_555
H121 C116 1_555 1_555
C124 C125 1_555 1_555
C125 H130 1_555 1_555
C126 C125 1_555 1_555
H131 C126 1_555 1_555
C127 C126 1_555 1_555
H132 C127 1_555 1_555
C128 C127 1_555 1_555
H133 C128 1_555 1_555
C129 C124 1_555 1_555
H134 C129 1_555 1_555
C130 C124 1_555 1_555
H135 C130 1_555 1_555
H136 C130 1_555 1_555
H137 C130 1_555 1_555
C138 H146 1_555 1_555
H147 C138 1_555 1_555
H148 C138 1_555 1_555
C139 C138 1_555 1_555
C140 C139 1_555 1_555
H149 C140 1_555 1_555
C141 C140 1_555 1_555
H150 C141 1_555 1_555
C142 C141 1_555 1_555
H151 C142 1_555 1_555
C143 C142 1_555 1_555
H152 C143 1_555 1_555
C144 C139 1_555 1_555
H153 C144 1_555 1_555
C5 C19 1_555 1_555
C7 C10 1_555 1_555
C8 C17 1_555 1_555
C16 C22 1_555 1_555
C18 C41 1_555 1_555
C25 C89 1_555 1_555
C30 C43 1_555 1_555
C31 C51 1_555 1_555
C36 C44 1_555 1_555
C36 C52 1_555 1_555
C40 C48 1_555 1_555
C42 C71 1_555 1_555
C45 C58 1_555 1_555
C46 C47 1_555 1_555
C48 C74 1_555 1_555
C49 C65 1_555 1_555
C53 C63 1_555 1_555
C62 C75 1_555 1_555
C64 C89 1_555 1_555
C65 C68 1_555 1_555
C66 C67 1_555 1_555
C70 C78 1_555 1_555
C74 C76 1_555 1_555
C77 C80 1_555 1_555
C115 C116 1_555 1_555
C128 C129 1_555 1_555
C143 C144 1_555 1_555

#END
