
#######################################################################
#
#                 Cambridge Crystallographic Data Centre
#                                CCDC 
#
#######################################################################
#
# If this CIF has been generated from an entry in the Cambridge 
# Structural Database, then it will include bibliographic, chemical, 
# crystal, experimental, refinement or atomic coordinate data resulting 
# from the CCDC's data processing and validation procedures.
#
#######################################################################

data_OROGAF
_chemical_formula_moiety         'C23 H19 N1 O1'
_chemical_name_systematic        
12-(4-methoxyphenyl)-5,6-dihydroindolo[2,1-a]isoquinoline
_symmetry_cell_setting           monoclinic
_symmetry_space_group_name_H-M   'P 21/c'
_symmetry_Int_Tables_number      14
_space_group_name_Hall           '-P 2ybc'
loop_
_symmetry_equiv_pos_site_id
_symmetry_equiv_pos_as_xyz
1 x,y,z
2 -x,1/2+y,1/2-z
3 -x,-y,-z
4 x,1/2-y,1/2+z
_cell_length_a                   8.9320(15)
_cell_length_b                   6.9867(12)
_cell_length_c                   27.957(5)
_cell_angle_alpha                90
_cell_angle_beta                 96.869(3)
_cell_angle_gamma                90
_cell_volume                     1732.14
_exptl_crystal_colour            colorless
_exptl_crystal_description       cubic
_chemical_melting_point          '208.5-209.2 deg.C'
_cell_formula_units_Z            4
_exptl_crystal_recrystallization_method n-pentane/acetone
loop_
_atom_site_label
_atom_site_type_symbol
_atom_site_fract_x
_atom_site_fract_y
_atom_site_fract_z
O1 O -0.19438(16) -0.51546(17) 0.46665(4)
N1 N 0.05912(13) 0.34852(17) 0.31631(4)
C1 C -0.08479(16) 0.3433(2) 0.29270(5)
C2 C -0.15091(18) 0.4521(2) 0.25373(5)
H1 H -0.0954 0.5443 0.2388
C3 C -0.30146(18) 0.4181(2) 0.23811(6)
H2 H -0.3492 0.4885 0.2119
C4 C -0.38469(18) 0.2807(3) 0.26046(6)
H3 H -0.4873 0.2628 0.2494
C5 C -0.31836(17) 0.1715(2) 0.29837(5)
H4 H -0.3748 0.0793 0.3130
C6 C -0.16506(16) 0.2003(2) 0.31479(5)
C7 C -0.06248(16) 0.1150(2) 0.35219(5)
C8 C 0.07411(16) 0.20838(19) 0.35184(5)
C9 C 0.22328(16) 0.1828(2) 0.37919(5)
C10 C 0.26231(19) 0.0181(2) 0.40641(6)
H5 H 0.1912 -0.0803 0.4078
C11 C 0.4055(2) -0.0003(3) 0.43138(7)
H6 H 0.4308 -0.1112 0.4496
C12 C 0.5112(2) 0.1436(4) 0.42957(8)
H7 H 0.6077 0.1312 0.4468
C13 C 0.4746(2) 0.3052(3) 0.40237(7)
H8 H 0.5471 0.4018 0.4009
C14 C 0.33194(18) 0.3274(2) 0.37708(6)
C15 C 0.2900(2) 0.5053(3) 0.34826(7)
H9 H 0.3817 0.5660 0.3394
H10 H 0.2408 0.5960 0.3681
C16 C 0.18497(18) 0.4610(2) 0.30302(6)
H11 H 0.1478 0.5801 0.2874
H12 H 0.2389 0.3888 0.2804
C17 C -0.09982(16) -0.0451(2) 0.38347(5)
C18 C -0.10926(17) -0.0212(2) 0.43228(5)
H13 H -0.0932 0.1010 0.4460
C19 C -0.14185(18) -0.1732(2) 0.46144(5)
H14 H -0.1478 -0.1536 0.4944
C20 C -0.16544(17) -0.3537(2) 0.44153(5)
C21 C -0.1590(2) -0.3805(2) 0.39256(6)
H15 H -0.1763 -0.5025 0.3788
C22 C -0.1272(2) -0.2277(2) 0.36403(5)
H16 H -0.1239 -0.2470 0.3309
C23 C -0.2170(3) -0.4917(3) 0.51585(7)
H17 H -0.1281 -0.4339 0.5333
H18 H -0.2350 -0.6155 0.5298
H19 H -0.3035 -0.4094 0.5179
loop_
_geom_bond_atom_site_label_1
_geom_bond_atom_site_label_2
_geom_bond_site_symmetry_1
_geom_bond_site_symmetry_2
O1 C20 1_555 1_555
N1 C1 1_555 1_555
C1 C2 1_555 1_555
C2 H1 1_555 1_555
C3 C2 1_555 1_555
H2 C3 1_555 1_555
C4 C3 1_555 1_555
H3 C4 1_555 1_555
C5 C4 1_555 1_555
H4 C5 1_555 1_555
C6 C1 1_555 1_555
C7 C6 1_555 1_555
C8 N1 1_555 1_555
C9 C8 1_555 1_555
C10 C9 1_555 1_555
H5 C10 1_555 1_555
C11 C10 1_555 1_555
H6 C11 1_555 1_555
C12 C11 1_555 1_555
H7 C12 1_555 1_555
C13 C12 1_555 1_555
H8 C13 1_555 1_555
C14 C9 1_555 1_555
C15 C14 1_555 1_555
H9 C15 1_555 1_555
H10 C15 1_555 1_555
C16 N1 1_555 1_555
H11 C16 1_555 1_555
H12 C16 1_555 1_555
C17 C7 1_555 1_555
C18 C17 1_555 1_555
H13 C18 1_555 1_555
C19 C18 1_555 1_555
H14 C19 1_555 1_555
C20 C19 1_555 1_555
C21 C20 1_555 1_555
H15 C21 1_555 1_555
C22 C17 1_555 1_555
H16 C22 1_555 1_555
C23 O1 1_555 1_555
H17 C23 1_555 1_555
H18 C23 1_555 1_555
H19 C23 1_555 1_555
C5 C6 1_555 1_555
C7 C8 1_555 1_555
C13 C14 1_555 1_555
C15 C16 1_555 1_555
C21 C22 1_555 1_555

#END
