
#######################################################################
#
#                 Cambridge Crystallographic Data Centre
#                                CCDC 
#
#######################################################################
#
# If this CIF has been generated from an entry in the Cambridge 
# Structural Database, then it will include bibliographic, chemical, 
# crystal, experimental, refinement or atomic coordinate data resulting 
# from the CCDC's data processing and validation procedures.
#
#######################################################################

data_OROQET
_chemical_formula_moiety         'C10 H10 D2 N2 O2'
_chemical_name_systematic        
4-deuteroxy-N'-isopropylidene-deuterobenzohydrazide
_symmetry_cell_setting           orthorhombic
_symmetry_space_group_name_H-M   'P n a 21'
_symmetry_Int_Tables_number      33
_space_group_name_Hall           'P 2c -2n'
loop_
_symmetry_equiv_pos_site_id
_symmetry_equiv_pos_as_xyz
1 x,y,z
2 -x,-y,1/2+z
3 1/2+x,1/2-y,z
4 1/2-x,1/2+y,1/2+z
_cell_length_a                   9.1449(11)
_cell_length_b                   7.1836(9)
_cell_length_c                   15.6418(19)
_cell_angle_alpha                90
_cell_angle_beta                 90
_cell_angle_gamma                90
_cell_volume                     1027.56
_exptl_crystal_colour            colorless
_exptl_crystal_description       Prismatic
_cell_formula_units_Z            4
loop_
_atom_site_label
_atom_site_type_symbol
_atom_site_fract_x
_atom_site_fract_y
_atom_site_fract_z
O1 O 0.67883(15) 0.0845(2) 0.55817(10)
O2 O 0.25240(16) -0.1434(3) 0.25433(10)
D1 D 0.3094 -0.1868 0.2191
N1 N 0.49429(17) 0.2875(2) 0.57843(10)
D2 D 0.4136 0.3345 0.5602
N2 N 0.56517(18) 0.3602(2) 0.65013(11)
C1 C 0.47310(19) 0.0586(3) 0.46631(12)
C2 C 0.55699(19) 0.1401(2) 0.53856(12)
C3 C 0.3279(2) -0.0844(3) 0.32374(12)
C4 C 0.55021(19) -0.0213(3) 0.39937(14)
H1 H 0.6517 -0.0277 0.4024
C5 C 0.3207(2) 0.0574(3) 0.46241(13)
H2 H 0.2667 0.1052 0.5078
C6 C 0.5433(2) 0.5316(3) 0.66689(13)
C7 C 0.4798(2) -0.0913(3) 0.32851(13)
H3 H 0.5336 -0.1430 0.2840
C8 C 0.24935(19) -0.0137(3) 0.39213(14)
H4 H 0.1477 -0.0143 0.3906
C9 C 0.6133(3) 0.6051(4) 0.7467(2)
H5 H 0.5389 0.6476 0.7854
H6 H 0.6769 0.7068 0.7325
H7 H 0.6691 0.5079 0.7734
C10 C 0.4566(4) 0.6640(4) 0.6141(2)
H8 H 0.4800 0.6465 0.5548
H9 H 0.4797 0.7893 0.6306
H10 H 0.3542 0.6416 0.6228
loop_
_geom_bond_atom_site_label_1
_geom_bond_atom_site_label_2
_geom_bond_site_symmetry_1
_geom_bond_site_symmetry_2
O1 C2 1_555 1_555
O2 D1 1_555 1_555
N1 D2 1_555 1_555
N2 N1 1_555 1_555
C1 C2 1_555 1_555
C2 N1 1_555 1_555
C3 O2 1_555 1_555
C4 C1 1_555 1_555
H1 C4 1_555 1_555
C5 C1 1_555 1_555
H2 C5 1_555 1_555
C6 N2 1_555 1_555
C7 C3 1_555 1_555
H3 C7 1_555 1_555
C8 C3 1_555 1_555
H4 C8 1_555 1_555
C9 C6 1_555 1_555
H5 C9 1_555 1_555
H6 C9 1_555 1_555
H7 C9 1_555 1_555
C10 C6 1_555 1_555
H8 C10 1_555 1_555
H9 C10 1_555 1_555
H10 C10 1_555 1_555
C4 C7 1_555 1_555
C5 C8 1_555 1_555

#END
