
#######################################################################
#
#                 Cambridge Crystallographic Data Centre
#                                CCDC 
#
#######################################################################
#
# If this CIF has been generated from an entry in the Cambridge 
# Structural Database, then it will include bibliographic, chemical, 
# crystal, experimental, refinement or atomic coordinate data resulting 
# from the CCDC's data processing and validation procedures.
#
#######################################################################

data_OROYOL
_chemical_formula_moiety         'C23 H19 Br1 O1'
_chemical_name_systematic        
3-(4-bromophenyl)-5-methyl-2-(4-methylphenyl)indan-1-one
_symmetry_cell_setting           monoclinic
_symmetry_space_group_name_H-M   'P 21/n'
_symmetry_Int_Tables_number      14
_space_group_name_Hall           '-P 2yn'
loop_
_symmetry_equiv_pos_site_id
_symmetry_equiv_pos_as_xyz
1 x,y,z
2 1/2-x,1/2+y,1/2-z
3 -x,-y,-z
4 1/2+x,1/2-y,1/2+z
_cell_length_a                   10.005(2)
_cell_length_b                   9.977(2)
_cell_length_c                   18.125(4)
_cell_angle_alpha                90
_cell_angle_beta                 92.34(3)
_cell_angle_gamma                90
_cell_volume                     1807.73
_exptl_crystal_colour            colorless
_exptl_crystal_description       block
_cell_formula_units_Z            4
loop_
_atom_site_label
_atom_site_type_symbol
_atom_site_fract_x
_atom_site_fract_y
_atom_site_fract_z
Br1 Br 0.19169(5) 0.81842(5) 0.11162(3)
C1 C -0.0452(5) 0.6936(5) 0.1607(3)
H1 H -0.0860 0.7287 0.1165
O1 O -0.1615(4) 0.4542(4) 0.52521(18)
C2 C 0.0896(5) 0.7166(5) 0.1779(3)
C3 C -0.1187(5) 0.6194(5) 0.2085(3)
H2 H -0.2109 0.6038 0.1971
C4 C -0.0901(5) 0.3253(5) 0.4218(3)
C5 C -0.0604(5) 0.5664(5) 0.2735(2)
C6 C -0.2820(5) 0.6401(5) 0.4091(2)
C7 C -0.1389(5) 0.4450(6) 0.4596(3)
C8 C -0.5212(6) 0.6554(6) 0.4199(3)
H3 H -0.6049 0.6113 0.4233
C9 C -0.1559(5) 0.5561(5) 0.4023(3)
H4 H -0.0777 0.6179 0.4094
C10 C -0.1430(5) 0.4866(5) 0.3257(2)
H5 H -0.2348 0.4756 0.3026
C11 C -0.0887(5) 0.3479(5) 0.3458(3)
C12 C 0.1498(5) 0.6679(5) 0.2420(3)
H6 H 0.2416 0.6854 0.2535
C13 C -0.0106(6) 0.1033(5) 0.4059(3)
H7 H 0.0168 0.0192 0.4259
C14 C 0.0745(5) 0.5927(5) 0.2898(3)
H8 H 0.1155 0.5588 0.3342
C15 C -0.5170(6) 0.7946(6) 0.4200(3)
C16 C -0.0474(5) 0.2473(5) 0.2994(3)
H9 H -0.0448 0.2625 0.2478
C17 C -0.0094(5) 0.1229(5) 0.3292(3)
C18 C -0.2760(6) 0.7790(6) 0.4098(3)
H10 H -0.1920 0.8226 0.4068
C19 C -0.0502(6) 0.2021(6) 0.4526(3)
H11 H -0.0507 0.1876 0.5044
C20 C -0.3915(6) 0.8549(6) 0.4149(3)
H12 H -0.3851 0.9499 0.4149
C21 C 0.0297(6) 0.0072(6) 0.2813(3)
H13 H -0.0404 -0.0613 0.2811
H14 H 0.1141 -0.0313 0.3008
H15 H 0.0410 0.0390 0.2308
C22 C -0.4056(5) 0.5794(5) 0.4150(3)
H16 H -0.4113 0.4843 0.4157
C23 C -0.6463(7) 0.8740(8) 0.4243(4)
H17 H -0.7110 0.8420 0.3862
H18 H -0.6281 0.9693 0.4163
H19 H -0.6832 0.8617 0.4731
loop_
_geom_bond_atom_site_label_1
_geom_bond_atom_site_label_2
_geom_bond_site_symmetry_1
_geom_bond_site_symmetry_2
Br1 C2 1_555 1_555
C1 H1 1_555 1_555
O1 C7 1_555 1_555
C2 C1 1_555 1_555
C3 C1 1_555 1_555
H2 C3 1_555 1_555
C4 C7 1_555 1_555
C5 C3 1_555 1_555
C6 C9 1_555 1_555
C7 C9 1_555 1_555
C8 H3 1_555 1_555
C9 H4 1_555 1_555
C10 C5 1_555 1_555
H5 C10 1_555 1_555
C11 C4 1_555 1_555
C12 C2 1_555 1_555
H6 C12 1_555 1_555
C13 H7 1_555 1_555
C14 C5 1_555 1_555
H8 C14 1_555 1_555
C15 C8 1_555 1_555
C16 C11 1_555 1_555
H9 C16 1_555 1_555
C17 C13 1_555 1_555
C18 C6 1_555 1_555
H10 C18 1_555 1_555
C19 C4 1_555 1_555
H11 C19 1_555 1_555
C20 C15 1_555 1_555
H12 C20 1_555 1_555
C21 C17 1_555 1_555
H13 C21 1_555 1_555
H14 C21 1_555 1_555
H15 C21 1_555 1_555
C22 C6 1_555 1_555
H16 C22 1_555 1_555
C23 C15 1_555 1_555
H17 C23 1_555 1_555
H18 C23 1_555 1_555
H19 C23 1_555 1_555
C8 C22 1_555 1_555
C9 C10 1_555 1_555
C10 C11 1_555 1_555
C12 C14 1_555 1_555
C13 C19 1_555 1_555
C16 C17 1_555 1_555
C18 C20 1_555 1_555

#END
