
#######################################################################
#
#                 Cambridge Crystallographic Data Centre
#                                CCDC 
#
#######################################################################
#
# If this CIF has been generated from an entry in the Cambridge 
# Structural Database, then it will include bibliographic, chemical, 
# crystal, experimental, refinement or atomic coordinate data resulting 
# from the CCDC's data processing and validation procedures.
#
#######################################################################

data_ORUTIG
_chemical_formula_moiety         'C32 H25 N3'
_chemical_name_systematic        
31,32-dimethyl-31,32,33-triazaheptacyclo[26.2.1.1^8,11^.1^18,21^.0^2,7^.0^12,17^.0^22,27^]tritriaconta-1(30),2,4,6,8,10,12,14,16,18,20,22,24,26,28-pentadecaene
_symmetry_cell_setting           monoclinic
_symmetry_space_group_name_H-M   'P 21/n'
_symmetry_Int_Tables_number      14
_space_group_name_Hall           '-P 2yn'
loop_
_symmetry_equiv_pos_site_id
_symmetry_equiv_pos_as_xyz
1 x,y,z
2 1/2-x,1/2+y,1/2-z
3 -x,-y,-z
4 1/2+x,1/2-y,1/2+z
_cell_length_a                   9.043(3)
_cell_length_b                   14.445(5)
_cell_length_c                   17.921(5)
_cell_angle_alpha                90
_cell_angle_beta                 95.426(12)
_cell_angle_gamma                90
_cell_volume                     2330.46
_exptl_crystal_colour            colorless
_exptl_crystal_description       prism
_cell_formula_units_Z            4
_exptl_crystal_recrystallization_method 'Vapour deposition'
loop_
_atom_site_label
_atom_site_type_symbol
_atom_site_fract_x
_atom_site_fract_y
_atom_site_fract_z
C1 C 0.67489(13) 0.36404(8) 0.64508(6)
C2 C 0.76655(14) 0.29119(9) 0.66633(7)
H1 H 0.8513 0.2935 0.7019
C3 C 0.71253(14) 0.21189(9) 0.62589(7)
H2 H 0.7546 0.1516 0.6294
C4 C 0.58848(13) 0.23794(8) 0.58078(6)
C5 C 0.48715(14) 0.18377(8) 0.52708(7)
C6 C 0.53426(15) 0.15666(9) 0.45836(7)
H3 H 0.6326 0.1706 0.4474
C7 C 0.43952(16) 0.10968(9) 0.40581(7)
H4 H 0.4728 0.0926 0.3590
C8 C 0.29691(15) 0.08764(9) 0.42139(7)
H5 H 0.2322 0.0553 0.3856
C9 C 0.24893(14) 0.11320(9) 0.48986(7)
H6 H 0.1512 0.0976 0.5007
C10 C 0.34207(14) 0.16147(8) 0.54308(7)
C11 C 0.28636(13) 0.19277(8) 0.61389(7)
C12 C 0.18212(14) 0.25922(9) 0.62490(7)
H7 H 0.1210 0.2905 0.5868
C13 C 0.18192(14) 0.27284(9) 0.70304(7)
H8 H 0.1220 0.3156 0.7269
C14 C 0.28419(13) 0.21302(8) 0.73804(7)
C15 C 0.32263(13) 0.19733(9) 0.81912(7)
C16 C 0.38119(13) 0.26966(8) 0.86566(7)
C17 C 0.39913(13) 0.25501(9) 0.94330(7)
H9 H 0.4370 0.3037 0.9753
C18 C 0.36287(14) 0.17122(9) 0.97448(7)
H10 H 0.3737 0.1633 1.0273
C19 C 0.31055(15) 0.09890(9) 0.92818(7)
H11 H 0.2890 0.0405 0.9491
C20 C 0.28988(14) 0.11238(9) 0.85110(7)
H12 H 0.2529 0.0630 0.8196
C21 C 0.41809(13) 0.36186(9) 0.83714(6)
C22 C 0.38607(14) 0.44707(9) 0.86605(7)
H13 H 0.3333 0.4578 0.9086
C23 C 0.44521(14) 0.51541(9) 0.82157(7)
H14 H 0.4388 0.5804 0.8286
C24 C 0.51456(13) 0.47132(8) 0.76554(6)
C25 C 0.60420(13) 0.51374(8) 0.71019(6)
C26 C 0.61202(14) 0.61111(9) 0.70938(7)
H15 H 0.5527 0.6454 0.7406
C27 C 0.70286(15) 0.65849(9) 0.66478(7)
H16 H 0.7038 0.7242 0.6649
C28 C 0.79269(14) 0.61009(9) 0.61985(7)
H17 H 0.8595 0.6420 0.5910
C29 C 0.78336(14) 0.51457(9) 0.61777(7)
H18 H 0.8438 0.4814 0.5864
C30 C 0.68787(13) 0.46513(8) 0.66029(6)
C31 C 0.45547(15) 0.38787(9) 0.54942(8)
H19 H 0.4816 0.3928 0.4977
H20 H 0.4539 0.4498 0.5717
H21 H 0.3571 0.3594 0.5496
N1 N 0.56500(11) 0.33088(7) 0.59281(5)
N2 N 0.34867(11) 0.16430(7) 0.68355(5)
C32 C 0.44911(14) 0.08602(9) 0.69745(7)
H22 H 0.3926 0.0316 0.7108
H23 H 0.5242 0.1011 0.7387
H24 H 0.4981 0.0728 0.6521
N3 N 0.49584(11) 0.37749(7) 0.77603(5)
H25 H 0.5290 0.3339 0.7476
loop_
_geom_bond_atom_site_label_1
_geom_bond_atom_site_label_2
_geom_bond_site_symmetry_1
_geom_bond_site_symmetry_2
C1 C2 1_555 1_555
C2 H1 1_555 1_555
C3 C2 1_555 1_555
H2 C3 1_555 1_555
C4 C3 1_555 1_555
C5 C4 1_555 1_555
C6 C5 1_555 1_555
H3 C6 1_555 1_555
C7 C6 1_555 1_555
H4 C7 1_555 1_555
C8 C7 1_555 1_555
H5 C8 1_555 1_555
C9 C8 1_555 1_555
H6 C9 1_555 1_555
C10 C5 1_555 1_555
C11 C10 1_555 1_555
C12 C11 1_555 1_555
H7 C12 1_555 1_555
C13 C12 1_555 1_555
H8 C13 1_555 1_555
C14 C13 1_555 1_555
C15 C14 1_555 1_555
C16 C15 1_555 1_555
C17 C16 1_555 1_555
H9 C17 1_555 1_555
C18 C17 1_555 1_555
H10 C18 1_555 1_555
C19 C18 1_555 1_555
H11 C19 1_555 1_555
C20 C15 1_555 1_555
H12 C20 1_555 1_555
C21 C16 1_555 1_555
C22 C21 1_555 1_555
H13 C22 1_555 1_555
C23 C22 1_555 1_555
H14 C23 1_555 1_555
C24 C23 1_555 1_555
C25 C24 1_555 1_555
C26 C25 1_555 1_555
H15 C26 1_555 1_555
C27 C26 1_555 1_555
H16 C27 1_555 1_555
C28 C27 1_555 1_555
H17 C28 1_555 1_555
C29 C28 1_555 1_555
H18 C29 1_555 1_555
C30 C1 1_555 1_555
C31 H19 1_555 1_555
H20 C31 1_555 1_555
H21 C31 1_555 1_555
N1 C1 1_555 1_555
N2 C11 1_555 1_555
C32 N2 1_555 1_555
H22 C32 1_555 1_555
H23 C32 1_555 1_555
H24 C32 1_555 1_555
N3 C21 1_555 1_555
H25 N3 1_555 1_555
C4 N1 1_555 1_555
C9 C10 1_555 1_555
C14 N2 1_555 1_555
C19 C20 1_555 1_555
C24 N3 1_555 1_555
C25 C30 1_555 1_555
C29 C30 1_555 1_555
C31 N1 1_555 1_555

#END
