
#######################################################################
#
#                 Cambridge Crystallographic Data Centre
#                                CCDC 
#
#######################################################################
#
# If this CIF has been generated from an entry in the Cambridge 
# Structural Database, then it will include bibliographic, chemical, 
# crystal, experimental, refinement or atomic coordinate data resulting 
# from the CCDC's data processing and validation procedures.
#
#######################################################################

data_OSEGAW
_chemical_formula_moiety         'C26 H20 O1 S2'
_chemical_name_systematic        
11-methoxy-9-phenyl-2,3-dihydro-9H-benzo[1,2]fluoreno[3,4-b][1,4]dithiine
_symmetry_cell_setting           monoclinic
_symmetry_space_group_name_H-M   'P 21'
_symmetry_Int_Tables_number      4
_space_group_name_Hall           'P 2yb'
loop_
_symmetry_equiv_pos_site_id
_symmetry_equiv_pos_as_xyz
1 x,y,z
2 -x,1/2+y,-z
_cell_length_a                   10.601(2)
_cell_length_b                   19.272(4)
_cell_length_c                   11.193(2)
_cell_angle_alpha                90
_cell_angle_beta                 117.501(4)
_cell_angle_gamma                90
_cell_volume                     2028.36
_exptl_crystal_colour            colorless
_exptl_crystal_description       prismatic
_cell_formula_units_Z            4
loop_
_atom_site_label
_atom_site_type_symbol
_atom_site_fract_x
_atom_site_fract_y
_atom_site_fract_z
S1 S 0.0643(4) 0.2781(2) 0.2690(4)
S2 S 0.347(7) 0.165(4) 0.345(5)
O1 O 1.0490(9) 0.1813(5) 0.5646(9)
C1 C 0.7394(12) 0.2939(5) 0.4809(9)
C2 C 0.8800(12) 0.2762(6) 0.5229(10)
H1 H 0.9507 0.3100 0.5512
C3 C 0.9130(13) 0.2060(7) 0.5214(11)
C4 C 0.8081(13) 0.1557(6) 0.4683(12)
H2 H 0.8312 0.1099 0.4608
C5 C 0.6674(12) 0.1750(6) 0.4263(10)
H3 H 0.5967 0.1413 0.3931
C6 C 0.6295(12) 0.2445(6) 0.4328(9)
C7 C 0.4942(11) 0.2811(6) 0.3971(9)
C8 C 0.5254(11) 0.3529(5) 0.4186(9)
C9 C 0.6795(11) 0.3658(6) 0.4691(10)
H4 H 0.7186 0.3869 0.5587
C10 C 0.7140(10) 0.4126(5) 0.3751(10)
C11 C 0.7909(13) 0.4730(6) 0.4200(15)
H5 H 0.8223 0.4870 0.5087
C12 C 0.8227(14) 0.5137(7) 0.3327(19)
H6 H 0.8755 0.5543 0.3625
C13 C 0.7733(15) 0.4915(8) 0.2025(17)
H7 H 0.7933 0.5179 0.1438
C14 C 0.6984(13) 0.4341(8) 0.1572(13)
H8 H 0.6674 0.4203 0.0684
C15 C 0.6662(11) 0.3943(6) 0.2425(11)
H9 H 0.6112 0.3545 0.2095
C16 C 0.3556(12) 0.2559(6) 0.3582(10)
C17 C 0.1713(14) 0.1451(7) 0.3369(13)
H10 H 0.1501 0.0967 0.3117
H11 H 0.1645 0.1519 0.4197
C18 C 0.0586(15) 0.1887(8) 0.2301(15)
H12 H -0.0337 0.1705 0.2126
H13 H 0.0670 0.1839 0.1477
C19 C 0.2445(12) 0.3009(6) 0.3250(10)
C20 C 0.2730(11) 0.3743(7) 0.3421(10)
C21 C 0.4134(12) 0.4000(6) 0.3929(9)
C22 C 0.4416(12) 0.4721(6) 0.4152(10)
H14 H 0.5332 0.4896 0.4465
C23 C 0.3291(13) 0.5148(7) 0.3890(10)
H15 H 0.3474 0.5617 0.4091
C24 C 0.1925(16) 0.4931(8) 0.3357(13)
H16 H 0.1201 0.5251 0.3167
C25 C 0.1606(14) 0.4246(7) 0.3100(12)
H17 H 0.0664 0.4101 0.2716
C26 C 1.1621(14) 0.2288(9) 0.6333(13)
H18 H 1.1657 0.2614 0.5701
H19 H 1.2504 0.2039 0.6762
H20 H 1.1467 0.2532 0.7002
S4 S 1.301(8) 0.384(5) 1.012(8)
S5 S 1.015(5) 0.493(3) 0.889(4)
O2 O 0.3086(9) 0.4748(5) 0.6952(8)
C27 C 0.6195(11) 0.3644(6) 0.7759(10)
C28 C 0.4780(12) 0.3808(7) 0.7328(10)
H21 H 0.4081 0.3467 0.7029
C29 C 0.4447(14) 0.4493(7) 0.7358(11)
C30 C 0.5495(15) 0.5003(7) 0.7777(12)
H22 H 0.5253 0.5467 0.7779
C31 C 0.6880(13) 0.4822(6) 0.8184(11)
H23 H 0.7575 0.5165 0.8470
C32 C 0.7260(12) 0.4152(6) 0.8181(10)
C33 C 0.8606(11) 0.3766(6) 0.8569(9)
C34 C 0.8385(10) 0.3075(5) 0.8422(9)
C35 C 0.6818(11) 0.2914(5) 0.7827(9)
H24 H 0.6475 0.2727 0.6915
C36 C 0.6412(11) 0.2423(6) 0.8666(12)
C37 C 0.5572(13) 0.1857(7) 0.8087(15)
H25 H 0.5282 0.1769 0.7181
C38 C 0.5141(15) 0.1418(9) 0.878(2)
H26 H 0.4529 0.1053 0.8338
C39 C 0.5611(18) 0.1517(9) 1.012(3)
H27 H 0.5362 0.1204 1.0611
C40 C 0.6474(17) 0.2094(9) 1.0774(16)
H28 H 0.6767 0.2172 1.1684
C41 C 0.6888(14) 0.2549(7) 1.0044(11)
H29 H 0.7469 0.2928 1.0463
C42 C 1.0041(12) 0.4043(6) 0.9014(10)
C43 C 1.1964(17) 0.5157(9) 0.957(2)
H30 H 1.2019 0.5103 0.8730
H31 H 1.2207 0.5634 0.9857
C44 C 1.3034(17) 0.4708(7) 1.0530(17)
H32 H 1.2948 0.4748 1.1353
H33 H 1.3964 0.4886 1.0719
C45 C 1.1166(11) 0.3567(6) 0.9437(10)
C46 C 1.0940(11) 0.2841(5) 0.9339(10)
C47 C 0.9485(11) 0.2587(5) 0.8765(10)
C48 C 0.9297(13) 0.1865(6) 0.8569(12)
H34 H 0.8377 0.1688 0.8145
C49 C 1.0409(14) 0.1414(6) 0.8975(12)
H35 H 1.0244 0.0939 0.8856
C50 C 1.1771(13) 0.1665(7) 0.9560(13)
H36 H 1.2523 0.1353 0.9837
C51 C 1.2052(13) 0.2339(6) 0.9744(12)
H37 H 1.2994 0.2487 1.0146
C52 C 0.1940(13) 0.4262(9) 0.6411(13)
H38 H 0.1893 0.4057 0.5610
H39 H 0.1063 0.4497 0.6195
H40 H 0.2095 0.3906 0.7064
S3? S 0.339(7) 0.160(4) 0.368(5)
S6? S 1.296(8) 0.378(4) 0.998(8)
S7? S 1.027(8) 0.498(4) 0.921(6)
loop_
_geom_bond_atom_site_label_1
_geom_bond_atom_site_label_2
_geom_bond_site_symmetry_1
_geom_bond_site_symmetry_2
S1 C18 1_555 1_555
S2 C16 1_555 1_555
O1 C3 1_555 1_555
C1 C2 1_555 1_555
C2 H1 1_555 1_555
C3 C2 1_555 1_555
C4 C3 1_555 1_555
H2 C4 1_555 1_555
C5 C4 1_555 1_555
H3 C5 1_555 1_555
C6 C1 1_555 1_555
C7 C6 1_555 1_555
C8 C7 1_555 1_555
C9 C1 1_555 1_555
H4 C9 1_555 1_555
C10 C9 1_555 1_555
C11 C10 1_555 1_555
H5 C11 1_555 1_555
C12 C11 1_555 1_555
H6 C12 1_555 1_555
C13 C12 1_555 1_555
H7 C13 1_555 1_555
C14 C13 1_555 1_555
H8 C14 1_555 1_555
C15 C10 1_555 1_555
H9 C15 1_555 1_555
C16 C7 1_555 1_555
C17 S2 1_555 1_555
H10 C17 1_555 1_555
H11 C17 1_555 1_555
C18 C17 1_555 1_555
H12 C18 1_555 1_555
H13 C18 1_555 1_555
C19 S1 1_555 1_555
C20 C19 1_555 1_555
C21 C8 1_555 1_555
C22 C21 1_555 1_555
H14 C22 1_555 1_555
C23 C22 1_555 1_555
H15 C23 1_555 1_555
C24 C23 1_555 1_555
H16 C24 1_555 1_555
C25 C20 1_555 1_555
H17 C25 1_555 1_555
C26 O1 1_555 1_555
H18 C26 1_555 1_555
H19 C26 1_555 1_555
H20 C26 1_555 1_555
S4 C44 1_555 1_555
S5 C42 1_555 1_555
O2 C29 1_555 1_555
C27 C28 1_555 1_555
C28 H21 1_555 1_555
C29 C28 1_555 1_555
C30 C29 1_555 1_555
H22 C30 1_555 1_555
C31 C30 1_555 1_555
H23 C31 1_555 1_555
C32 C27 1_555 1_555
C33 C32 1_555 1_555
C34 C33 1_555 1_555
C35 C27 1_555 1_555
H24 C35 1_555 1_555
C36 C35 1_555 1_555
C37 C36 1_555 1_555
H25 C37 1_555 1_555
C38 C37 1_555 1_555
H26 C38 1_555 1_555
C39 C38 1_555 1_555
H27 C39 1_555 1_555
C40 C39 1_555 1_555
H28 C40 1_555 1_555
C41 C36 1_555 1_555
H29 C41 1_555 1_555
C42 C33 1_555 1_555
C43 S5 1_555 1_555
H30 C43 1_555 1_555
H31 C43 1_555 1_555
C44 C43 1_555 1_555
H32 C44 1_555 1_555
H33 C44 1_555 1_555
C45 S4 1_555 1_555
C46 C45 1_555 1_555
C47 C34 1_555 1_555
C48 C47 1_555 1_555
H34 C48 1_555 1_555
C49 C48 1_555 1_555
H35 C49 1_555 1_555
C50 C49 1_555 1_555
H36 C50 1_555 1_555
C51 C46 1_555 1_555
H37 C51 1_555 1_555
C52 O2 1_555 1_555
H38 C52 1_555 1_555
H39 C52 1_555 1_555
H40 C52 1_555 1_555
C5 C6 1_555 1_555
C8 C9 1_555 1_555
C14 C15 1_555 1_555
C16 C19 1_555 1_555
C20 C21 1_555 1_555
C24 C25 1_555 1_555
C31 C32 1_555 1_555
C34 C35 1_555 1_555
C40 C41 1_555 1_555
C42 C45 1_555 1_555
C46 C47 1_555 1_555
C50 C51 1_555 1_555

#END
