
#######################################################################
#
#                 Cambridge Crystallographic Data Centre
#                                CCDC 
#
#######################################################################
#
# If this CIF has been generated from an entry in the Cambridge 
# Structural Database, then it will include bibliographic, chemical, 
# crystal, experimental, refinement or atomic coordinate data resulting 
# from the CCDC's data processing and validation procedures.
#
#######################################################################

data_OSIFIG
_chemical_formula_moiety         'C30 H48 Cl2 N4 O1 Si2'
_chemical_name_systematic        
2,2'-oxybis(1,3-di-tert-butyl-2-chloro-4-phenyl-1,3,2-diazasiletidine)
_symmetry_cell_setting           monoclinic
_symmetry_space_group_name_H-M   'P 21/c'
_symmetry_Int_Tables_number      14
_space_group_name_Hall           '-P 2ybc'
loop_
_symmetry_equiv_pos_site_id
_symmetry_equiv_pos_as_xyz
1 x,y,z
2 -x,1/2+y,1/2-z
3 -x,-y,-z
4 x,1/2-y,1/2+z
_cell_length_a                   12.1593(5)
_cell_length_b                   16.2045(6)
_cell_length_c                   17.1248(7)
_cell_angle_alpha                90
_cell_angle_beta                 98.177(4)
_cell_angle_gamma                90
_cell_volume                     3339.89
_exptl_crystal_colour            colorless
_exptl_crystal_description       plate
_cell_formula_units_Z            4
loop_
_atom_site_label
_atom_site_type_symbol
_atom_site_fract_x
_atom_site_fract_y
_atom_site_fract_z
Cl1 Cl 0.55379(7) 0.77597(5) 0.19358(6)
Cl2 Cl 0.83918(9) 0.59694(5) 0.42211(5)
Si1 Si 0.82133(6) 0.58900(5) 0.29257(5)
H1 H 0.9129(19) 0.6434(14) 0.2926(13)
N1 N 0.83656(17) 0.47904(13) 0.28507(12)
N2 N 0.84259(17) 0.55783(13) 0.18467(12)
C1 C 0.4385(2) 0.61498(17) 0.30151(16)
C2 C 0.3399(2) 0.57739(17) 0.32998(15)
C3 C 0.2420(2) 0.62143(19) 0.32578(17)
H2 H 0.2363 0.6746 0.3022
C4 C 0.1519(3) 0.5876(2) 0.35623(19)
H3 H 0.0848 0.6181 0.3541
C5 C 0.1596(3) 0.5105(3) 0.3893(2)
H4 H 0.0984 0.4880 0.4109
C6 C 0.2557(3) 0.4657(2) 0.3913(2)
H5 H 0.2597 0.4115 0.4125
C7 C 0.3464(3) 0.49886(18) 0.36266(17)
H6 H 0.4133 0.4680 0.3653
Si2 Si 0.59995(11) 0.68958(10) 0.27814(11)
H7 H 0.675(3) 0.750(3) 0.319(2)
O1 O 0.7028(7) 0.6309(5) 0.2850(4)
N3 N 0.4777(5) 0.6121(3) 0.2376(3)
N4 N 0.5108(8) 0.6736(6) 0.3484(5)
C8 C 0.4280(5) 0.5681(4) 0.1641(4)
C9 C 0.5195(5) 0.5659(4) 0.1113(3)
H8 H 0.5819 0.5327 0.1368
H9 H 0.5450 0.6222 0.1032
H10 H 0.4902 0.5413 0.0603
C10 C 0.3272(5) 0.6182(5) 0.1246(3)
H11 H 0.2720 0.6227 0.1609
H12 H 0.2939 0.5902 0.0762
H13 H 0.3516 0.6735 0.1116
C11 C 0.3916(6) 0.4809(4) 0.1799(4)
H14 H 0.3294 0.4828 0.2105
H15 H 0.4538 0.4509 0.2097
H16 H 0.3681 0.4528 0.1296
C12 C 0.5063(7) 0.6990(6) 0.4302(6)
C13 C 0.4223(7) 0.7698(5) 0.4136(6)
H17 H 0.3474 0.7469 0.3999
H18 H 0.4411 0.8032 0.3697
H19 H 0.4249 0.8044 0.4608
C14 C 0.4962(8) 0.6286(7) 0.4834(7)
H20 H 0.5502 0.5859 0.4745
H21 H 0.4209 0.6058 0.4727
H22 H 0.5108 0.6473 0.5383
C15 C 0.6065(5) 0.7516(4) 0.4618(4)
H23 H 0.6745 0.7193 0.4615
H24 H 0.6005 0.7688 0.5159
H25 H 0.6088 0.8005 0.4284
C16 C 0.8604(2) 0.48204(16) 0.20952(16)
C17 C 0.9093(2) 0.41363(17) 0.16787(16)
C18 C 1.0168(3) 0.38838(18) 0.19516(19)
H26 H 1.0583 0.4141 0.2398
C19 C 1.0633(3) 0.3244(2) 0.1557(3)
H27 H 1.1374 0.3068 0.1727
C20 C 1.0002(4) 0.2867(2) 0.0916(2)
H28 H 1.0316 0.2431 0.0651
C21 C 0.8939(4) 0.3113(2) 0.0658(2)
H29 H 0.8516 0.2844 0.0223
C22 C 0.8485(3) 0.37500(18) 0.10333(17)
H30 H 0.7749 0.3928 0.0850
C23 C 0.8834(2) 0.60139(18) 0.11760(16)
C24 C 0.8240(3) 0.5701(2) 0.03861(18)
H31 H 0.8475 0.5133 0.0300
H32 H 0.8428 0.6055 -0.0040
H33 H 0.7435 0.5713 0.0391
C25 C 0.8548(3) 0.69220(19) 0.1261(2)
H34 H 0.7745 0.6981 0.1257
H35 H 0.8775 0.7235 0.0820
H36 H 0.8941 0.7135 0.1759
C26 C 1.0091(3) 0.5927(2) 0.1220(2)
H37 H 1.0451 0.6090 0.1746
H38 H 1.0353 0.6283 0.0822
H39 H 1.0277 0.5352 0.1120
C27 C 0.8020(2) 0.40621(17) 0.33020(17)
C28 C 0.7809(3) 0.32971(19) 0.2788(2)
H40 H 0.7280 0.3430 0.2318
H41 H 0.7503 0.2859 0.3087
H42 H 0.8510 0.3110 0.2627
C29 C 0.6921(3) 0.4278(2) 0.3596(2)
H43 H 0.7038 0.4745 0.3962
H44 H 0.6659 0.3801 0.3868
H45 H 0.6366 0.4427 0.3146
C30 C 0.8922(3) 0.3870(2) 0.39911(19)
H46 H 0.9607 0.3713 0.3789
H47 H 0.8678 0.3413 0.4301
H48 H 0.9061 0.4359 0.4327
C31? C 0.3615(12) 0.6012(8) 0.1004(7)
C32? C 0.3244(9) 0.4780(6) 0.1774(6)
C33? C 0.5147(9) 0.7034(7) 0.4136(9)
C34? C 0.4018(9) 0.7424(7) 0.4433(7)
C35? C 0.5345(10) 0.6322(8) 0.4754(9)
C36? C 0.6294(7) 0.7504(6) 0.4182(6)
C37? C 0.4123(9) 0.5370(7) 0.1591(6)
C38? C 0.4992(9) 0.4866(7) 0.1240(7)
H49? H 0.3326 0.5742 0.0505
H50? H 0.4183 0.6416 0.0914
H51? H 0.3006 0.6294 0.1215
H52? H 0.3573 0.4379 0.2168
H53? H 0.2929 0.4489 0.1292
H54? H 0.2654 0.5086 0.1983
H55? H 0.3741 0.7883 0.4088
H56? H 0.4199 0.7623 0.4977
H57? H 0.3446 0.6995 0.4411
H58? H 0.5976 0.5985 0.4645
H59? H 0.4678 0.5976 0.4718
H60? H 0.5506 0.6556 0.5285
H61? H 0.6899 0.7101 0.4208
H62? H 0.6403 0.7852 0.4655
H63? H 0.6290 0.7850 0.3712
H64? H 0.620(5) 0.639(4) 0.161(4)
H65? H 0.5240 0.4407 0.1594
H66? H 0.5627 0.5219 0.1176
H67? H 0.4666 0.4648 0.0725
N5? N 0.4713(10) 0.5817(6) 0.2274(6)
N6? N 0.5041(13) 0.6630(9) 0.3306(8)
O2? O 0.6910(10) 0.6175(7) 0.2572(4)
Si3? Si 0.58869(15) 0.65311(15) 0.23482(15)
loop_
_geom_bond_atom_site_label_1
_geom_bond_atom_site_label_2
_geom_bond_site_symmetry_1
_geom_bond_site_symmetry_2
Cl1 Si2 1_555 1_555
Cl2 Si1 1_555 1_555
Si1 H1 1_555 1_555
N1 Si1 1_555 1_555
N2 Si1 1_555 1_555
C1 C2 1_555 1_555
C2 C3 1_555 1_555
C3 H2 1_555 1_555
C4 C3 1_555 1_555
H3 C4 1_555 1_555
C5 C4 1_555 1_555
H4 C5 1_555 1_555
C6 C5 1_555 1_555
H5 C6 1_555 1_555
C7 C2 1_555 1_555
H6 C7 1_555 1_555
Si2 H7 1_555 1_555
O1 Si1 1_555 1_555
N3 C1 1_555 1_555
N4 C1 1_555 1_555
C8 N3 1_555 1_555
C9 C8 1_555 1_555
H8 C9 1_555 1_555
H9 C9 1_555 1_555
H10 C9 1_555 1_555
C10 C8 1_555 1_555
H11 C10 1_555 1_555
H12 C10 1_555 1_555
H13 C10 1_555 1_555
C11 C8 1_555 1_555
H14 C11 1_555 1_555
H15 C11 1_555 1_555
H16 C11 1_555 1_555
C12 N4 1_555 1_555
C13 C12 1_555 1_555
H17 C13 1_555 1_555
H18 C13 1_555 1_555
H19 C13 1_555 1_555
C14 C12 1_555 1_555
H20 C14 1_555 1_555
H21 C14 1_555 1_555
H22 C14 1_555 1_555
C15 C12 1_555 1_555
H23 C15 1_555 1_555
H24 C15 1_555 1_555
H25 C15 1_555 1_555
C16 N1 1_555 1_555
C17 C16 1_555 1_555
C18 C17 1_555 1_555
H26 C18 1_555 1_555
C19 C18 1_555 1_555
H27 C19 1_555 1_555
C20 C19 1_555 1_555
H28 C20 1_555 1_555
C21 C20 1_555 1_555
H29 C21 1_555 1_555
C22 C17 1_555 1_555
H30 C22 1_555 1_555
C23 N2 1_555 1_555
C24 C23 1_555 1_555
H31 C24 1_555 1_555
H32 C24 1_555 1_555
H33 C24 1_555 1_555
C25 C23 1_555 1_555
H34 C25 1_555 1_555
H35 C25 1_555 1_555
H36 C25 1_555 1_555
C26 C23 1_555 1_555
H37 C26 1_555 1_555
H38 C26 1_555 1_555
H39 C26 1_555 1_555
C27 N1 1_555 1_555
C28 C27 1_555 1_555
H40 C28 1_555 1_555
H41 C28 1_555 1_555
H42 C28 1_555 1_555
C29 C27 1_555 1_555
H43 C29 1_555 1_555
H44 C29 1_555 1_555
H45 C29 1_555 1_555
C30 C27 1_555 1_555
H46 C30 1_555 1_555
H47 C30 1_555 1_555
H48 C30 1_555 1_555
N2 C16 1_555 1_555
C6 C7 1_555 1_555
Si2 O1 1_555 1_555
Si2 N3 1_555 1_555
Si2 N4 1_555 1_555
C21 C22 1_555 1_555

#END
