
#######################################################################
#
#                 Cambridge Crystallographic Data Centre
#                                CCDC 
#
#######################################################################
#
# If this CIF has been generated from an entry in the Cambridge 
# Structural Database, then it will include bibliographic, chemical, 
# crystal, experimental, refinement or atomic coordinate data resulting 
# from the CCDC's data processing and validation procedures.
#
#######################################################################

data_OSINOV
_chemical_formula_moiety         'C37 H11 F15 N4,C3 H7 N1 O1'
_chemical_name_systematic        
'4-(pentafluorophenyl)-2-((pentafluorophenyl)(1H-pyrrol-2-yl)methylene)-7-((pentafluorophenyl)(1H-pyrrol-3-yl)methylene)-2,7-dihydropyrrolo[3,2-b]pyrrolizine N,N-dimethylformamide solvate'
_symmetry_cell_setting           monoclinic
_symmetry_space_group_name_H-M   'P 21/n'
_symmetry_Int_Tables_number      14
_space_group_name_Hall           '-P 2yn'
loop_
_symmetry_equiv_pos_site_id
_symmetry_equiv_pos_as_xyz
1 x,y,z
2 1/2-x,1/2+y,1/2-z
3 -x,-y,-z
4 1/2+x,1/2-y,1/2+z
_cell_length_a                   16.2619(11)
_cell_length_b                   30.2509(7)
_cell_length_c                   10.0784(7)
_cell_angle_alpha                90
_cell_angle_beta                 133.451(11)
_cell_angle_gamma                90
_cell_volume                     3599.28
_exptl_crystal_colour            black
_exptl_crystal_description       strip
_cell_formula_units_Z            4
loop_
_atom_site_label
_atom_site_type_symbol
_atom_site_fract_x
_atom_site_fract_y
_atom_site_fract_z
F1 F 0.56872(10) 0.68920(4) 0.23559(15)
F2 F 0.98375(10) 0.82985(4) 1.21141(16)
F3 F 1.10253(10) 0.72332(4) 1.02669(15)
F4 F 0.42955(11) 0.63531(4) -0.05126(16)
F5 F 1.25123(11) 0.69205(4) 1.36639(18)
F6 F 1.06329(11) 0.55637(4) 1.40078(18)
F7 F 0.68302(14) 0.51703(4) 0.2959(2)
F8 F 0.48276(14) 0.54881(5) -0.02430(19)
F9 F 0.67852(11) 0.59842(4) 0.95162(18)
F10 F 0.82435(11) 0.57112(4) 0.58510(17)
F11 F 0.61727(12) 0.51369(5) 0.9158(2)
F12 F 1.28047(11) 0.73284(5) 1.63699(16)
F13 F 1.14731(12) 0.80280(5) 1.55542(16)
F14 F 0.77767(15) 0.44999(4) 1.1257(2)
N1 N 0.91246(14) 0.68880(5) 1.0364(2)
F15 F 1.00038(14) 0.47207(4) 1.3665(2)
N2 N 0.86228(14) 0.72348(5) 0.7636(2)
N3 N 1.02467(18) 0.91232(6) 0.9656(3)
C1 C 0.88943(17) 0.64380(6) 1.0444(3)
C2 C 1.05085(17) 0.79698(6) 1.2442(3)
N4 N 0.97902(16) 0.69531(6) 1.3731(2)
C3 C 0.88659(16) 0.76839(6) 0.7650(3)
C4 C 0.83146(17) 0.77698(7) 0.5775(2)
C5 C 0.83805(17) 0.62009(7) 0.8765(3)
C6 C 1.04847(19) 0.87023(7) 1.0279(3)
C7 C 0.77572(17) 0.66104(6) 0.5821(3)
C8 C 0.90719(17) 0.62735(6) 1.1891(3)
C9 C 0.87474(16) 0.69107(6) 0.8725(3)
C10 C 0.79879(16) 0.70512(6) 0.5871(2)
C11 C 0.95457(16) 0.79576(6) 0.9124(2)
C12 C 1.18782(17) 0.72725(7) 1.3281(3)
C13 C 0.9207(2) 0.50329(7) 1.2633(3)
C14 C 0.76053(18) 0.56792(7) 1.0561(3)
C15 C 1.03559(16) 0.77812(6) 1.1019(2)
C16 C 0.95844(17) 0.84328(6) 0.8932(3)
C17 C 0.72729(19) 0.52448(7) 1.0363(3)
C18 C 0.5545(2) 0.57567(7) 0.1180(3)
C19 C 1.10791(16) 0.74303(6) 1.1517(3)
C20 C 0.52792(18) 0.61967(7) 0.1047(3)
C21 C 0.60098(17) 0.64711(6) 0.2537(3)
C22 C 0.78251(17) 0.73981(7) 0.4754(3)
C23 C 0.70323(17) 0.63249(6) 0.4214(3)
C24 C 0.82581(16) 0.65074(6) 0.7646(3)
C25 C 0.8761(2) 0.87174(7) 0.7428(3)
C26 C 0.95114(17) 0.65109(6) 1.3485(3)
C27 C 0.87318(17) 0.58037(6) 1.1760(3)
C28 C 0.72724(18) 0.58781(7) 0.4283(3)
C29 C 1.13391(18) 0.78287(7) 1.4225(3)
C30 C 0.97371(19) 0.63725(7) 1.5031(3)
C31 C 1.0160(2) 0.67366(8) 1.6198(3)
C32 C 0.6555(2) 0.55977(7) 0.2813(3)
C33 C 0.8087(2) 0.49210(7) 1.1419(3)
C34 C 1.20237(18) 0.74754(7) 1.4652(3)
C35 C 1.0175(2) 0.70901(8) 1.5359(3)
C36 C 0.9199(2) 0.91357(7) 0.7919(3)
C37 C 0.95221(18) 0.54686(7) 1.2797(3)
H1 H 0.817(2) 0.5903(9) 0.846(3)
H2 H 0.836(2) 0.8046(9) 0.537(3)
H3 H 0.745(2) 0.7363(9) 0.353(4)
H4 H 1.119(2) 0.8629(8) 1.148(4)
H5 H 0.802(3) 0.8642(10) 0.634(4)
H6 H 0.959(2) 0.6056(9) 1.519(4)
H7 H 1.045(3) 0.6739(10) 1.743(4)
H8 H 0.888(2) 0.9417(10) 0.727(4)
H9 H 1.043(2) 0.7396(9) 1.581(4)
H10 H 1.074(3) 0.9355(11) 1.036(4)
H11 H 0.965(2) 0.7113(10) 1.280(4)
O1 O 0.31705(17) 0.48197(5) 0.3299(3)
N5 N 0.2716(2) 0.54698(7) 0.3796(3)
C38 C 0.3387(2) 0.51307(8) 0.4293(4)
H12 H 0.4084 0.5125 0.5496
C39 C 0.1645(3) 0.55085(11) 0.1932(4)
H13 H 0.1713 0.5717 0.1294
H14 H 0.1078 0.5609 0.1917
H15 H 0.1429 0.5225 0.1344
C40 C 0.3091(3) 0.58357(9) 0.5052(5)
H16 H 0.3827 0.5770 0.6223
H17 H 0.2563 0.5876 0.5180
H18 H 0.3130 0.6101 0.4576
loop_
_geom_bond_atom_site_label_1
_geom_bond_atom_site_label_2
_geom_bond_site_symmetry_1
_geom_bond_site_symmetry_2
F1 C21 1_555 1_555
F2 C2 1_555 1_555
F3 C19 1_555 1_555
F4 C20 1_555 1_555
F5 C12 1_555 1_555
F6 C37 1_555 1_555
F7 C32 1_555 1_555
F8 C18 1_555 1_555
F9 C14 1_555 1_555
F10 C28 1_555 1_555
F11 C17 1_555 1_555
F12 C34 1_555 1_555
F13 C29 1_555 1_555
F14 C33 1_555 1_555
N1 C1 1_555 1_555
F15 C13 1_555 1_555
N2 C3 1_555 1_555
N3 C6 1_555 1_555
C1 C5 1_555 1_555
C2 C15 1_555 1_555
N4 C26 1_555 1_555
C3 C4 1_555 1_555
C4 C22 1_555 1_555
C5 C24 1_555 1_555
C6 C16 1_555 1_555
C7 C10 1_555 1_555
C8 C1 1_555 1_555
C9 N1 1_555 1_555
C10 N2 1_555 1_555
C11 C3 1_555 1_555
C12 C19 1_555 1_555
C13 C33 1_555 1_555
C14 C17 1_555 1_555
C15 C11 1_555 1_555
C16 C11 1_555 1_555
C17 C33 1_555 1_555
C18 C20 1_555 1_555
C19 C15 1_555 1_555
C20 C21 1_555 1_555
C21 C23 1_555 1_555
C22 C10 1_555 1_555
C23 C7 1_555 1_555
C24 C7 1_555 1_555
C25 C16 1_555 1_555
C26 C8 1_555 1_555
C27 C8 1_555 1_555
C28 C23 1_555 1_555
C29 C2 1_555 1_555
C30 C26 1_555 1_555
C31 C30 1_555 1_555
C32 C18 1_555 1_555
C34 C12 1_555 1_555
C35 N4 1_555 1_555
C36 N3 1_555 1_555
C37 C13 1_555 1_555
H1 C5 1_555 1_555
H2 C4 1_555 1_555
H3 C22 1_555 1_555
H4 C6 1_555 1_555
H5 C25 1_555 1_555
H6 C30 1_555 1_555
H7 C31 1_555 1_555
H8 C36 1_555 1_555
H9 C35 1_555 1_555
H10 N3 1_555 1_555
H11 N4 1_555 1_555
O1 C38 1_555 1_555
N5 C38 1_555 1_555
C38 H12 1_555 1_555
C39 N5 1_555 1_555
H13 C39 1_555 1_555
H14 C39 1_555 1_555
H15 C39 1_555 1_555
C40 N5 1_555 1_555
H16 C40 1_555 1_555
H17 C40 1_555 1_555
H18 C40 1_555 1_555
N2 C9 1_555 1_555
C9 C24 1_555 1_555
C14 C27 1_555 1_555
C25 C36 1_555 1_555
C27 C37 1_555 1_555
C28 C32 1_555 1_555
C29 C34 1_555 1_555
C31 C35 1_555 1_555

#END
