
#######################################################################
#
#                 Cambridge Crystallographic Data Centre
#                                CCDC 
#
#######################################################################
#
# If this CIF has been generated from an entry in the Cambridge 
# Structural Database, then it will include bibliographic, chemical, 
# crystal, experimental, refinement or atomic coordinate data resulting 
# from the CCDC's data processing and validation procedures.
#
#######################################################################

data_OSOTUM
_chemical_formula_moiety         'C43 H54 N6 O9,2(C1 H4 O1)'
_chemical_name_systematic        
'24-Methoxy-10-(4-methoxybenzyl)-3,4,7,9,12,13,15,29-octamethyl-22-oxa-3,6,9,12,15,29-hexaazatetracyclo-[14.12.2.2^18,21^.1^23,27^]tritriaconta-18,20,23(31),24,26,32-hexaene-2,5,8,11,14,30-hexone methanol solvate'
_symmetry_cell_setting           orthorhombic
_symmetry_space_group_name_H-M   'P 21 21 21'
_symmetry_Int_Tables_number      19
_space_group_name_Hall           'P 2ac 2ab'
loop_
_symmetry_equiv_pos_site_id
_symmetry_equiv_pos_as_xyz
1 x,y,z
2 1/2+x,1/2-y,-z
3 -x,1/2+y,1/2-z
4 1/2-x,-y,1/2+z
_cell_length_a                   15.685(2)
_cell_length_b                   15.782(2)
_cell_length_c                   18.147(3)
_cell_angle_alpha                90
_cell_angle_beta                 90
_cell_angle_gamma                90
_cell_volume                     4492.12
_exptl_crystal_colour            colorless
_exptl_crystal_description       plate
_cell_formula_units_Z            4
loop_
_atom_site_label
_atom_site_type_symbol
_atom_site_fract_x
_atom_site_fract_y
_atom_site_fract_z
O1 O 0.17458(9) 0.37403(9) -0.05970(11)
O2 O -0.00497(9) 0.34726(9) 0.14073(9)
O3 O -0.05884(10) 0.61692(9) -0.14618(8)
O5 O 0.01105(9) 0.65550(9) 0.14377(8)
O6 O 0.23332(9) 0.50755(8) 0.17631(8)
O7 O -0.41438(8) 0.62120(8) 0.20105(7)
O8 O 0.73000(8) 0.32447(8) 0.03176(7)
O9 O 0.61096(8) 0.37449(8) -0.05828(7)
O10 O 0.34925(8) 0.62949(8) 0.00109(7)
N1 N 0.02911(9) 0.48396(9) 0.16311(8)
H2 H 0.0688 0.5190 0.1789
N2 N 0.36075(9) 0.51502(9) 0.07407(8)
N3 N -0.04470(9) 0.62820(8) 0.03226(8)
N4 N 0.01563(9) 0.50746(9) -0.10051(8)
N5 N 0.19044(9) 0.51185(9) -0.03133(8)
N6 N 0.19693(9) 0.37198(9) 0.15041(8)
C1 C -0.43628(19) 0.69750(15) 0.23779(14)
H3 H -0.3861 0.7198 0.2634
H4 H -0.4816 0.6862 0.2736
H5 H -0.4563 0.7392 0.2017
C3 C -0.11706(13) 0.52987(15) 0.19504(11)
H9 H -0.1300 0.4744 0.2166
H10 H -0.1692 0.5545 0.1744
H11 H -0.0944 0.5675 0.2333
C4 C 0.79725(12) 0.29750(14) 0.07958(12)
H12 H 0.8069 0.3406 0.1175
H13 H 0.8496 0.2896 0.0509
H14 H 0.7814 0.2439 0.1030
C5 C 0.05428(13) 0.49612(13) -0.17329(9)
H15 H 0.0097 0.4976 -0.2111
H16 H 0.0837 0.4414 -0.1751
H17 H 0.0953 0.5418 -0.1823
C6 C 0.41031(13) 0.56686(12) 0.12569(11)
H18 H 0.4413 0.6107 0.0984
H19 H 0.4510 0.5308 0.1521
H20 H 0.3717 0.5938 0.1611
C7 C 0.15608(11) 0.59563(12) -0.01386(12)
H21 H 0.1500 0.6286 -0.0593
H22 H 0.1950 0.6250 0.0197
H23 H 0.1002 0.5894 0.0097
C8 C -0.25197(12) 0.69602(11) 0.06885(11)
H24 H -0.2207 0.7456 0.0566
C9 C -0.02066(12) 0.71489(11) 0.01081(11)
H25 H -0.0561 0.7556 0.0377
H26 H -0.0294 0.7222 -0.0423
H27 H 0.0395 0.7246 0.0227
C10 C -0.34224(12) 0.55146(11) 0.10658(11)
H28 H -0.3726 0.5015 0.1195
C11 C 0.20327(12) 0.29540(11) 0.10522(11)
H29 H 0.2297 0.3095 0.0579
H30 H 0.1461 0.2723 0.0967
H31 H 0.2382 0.2532 0.1309
C12 C -0.30961(12) 0.69841(11) 0.12749(11)
H32 H -0.3175 0.7492 0.1547
C13 C -0.28477(11) 0.55027(11) 0.04870(10)
H33 H -0.2759 0.4990 0.0223
C14 C 0.11765(12) 0.29347(11) 0.24796(10)
H34 H 0.1027 0.2476 0.2139
H35 H 0.0725 0.2998 0.2849
H36 H 0.1715 0.2799 0.2726
C15 C 0.63237(12) 0.32762(11) 0.13769(10)
H37 H 0.6753 0.3096 0.1711
C16 C 0.00201(11) 0.36360(11) -0.04601(10)
H38 H -0.0601 0.3701 -0.0474
H39 H 0.0180 0.3297 -0.0029
H40 H 0.0213 0.3350 -0.0910
C17 C -0.18078(11) 0.62108(12) -0.03765(10)
H41 H -0.1706 0.6799 -0.0544
H42 H -0.2092 0.5902 -0.0783
C18 C 0.39528(11) 0.38168(11) 0.14477(9)
H43 H 0.3999 0.4107 0.1930
H44 H 0.3707 0.3249 0.1543
C19 C 0.55014(11) 0.34528(11) 0.16364(9)
H45 H 0.5385 0.3411 0.2149
C20 C -0.35541(11) 0.62600(11) 0.14577(10)
C21 C -0.23942(10) 0.62280(11) 0.02812(10)
C22 C 0.54387(10) 0.50501(11) -0.09278(9)
H46 H 0.5919 0.5366 -0.0767
C23 C -0.04394(11) 0.56963(11) -0.09425(9)
C24 C 0.46825(11) 0.54547(11) -0.11162(9)
H47 H 0.4646 0.6055 -0.1086
C25 C 0.48364(11) 0.37133(11) -0.13251(9)
H48 H 0.4910 0.3129 -0.1432
C26 C -0.02702(11) 0.60666(11) 0.10262(10)
C27 C 0.65133(11) 0.33640(10) 0.06308(10)
C28 C 0.48510(11) 0.36892(10) 0.11554(9)
C29 C 0.40818(11) 0.41313(11) -0.15109(9)
H49 H 0.3636 0.3829 -0.1750
C30 C -0.05044(11) 0.51929(11) 0.13366(9)
H50 H -0.0733 0.4821 0.0936
C31 C 0.54753(10) 0.41733(11) -0.09797(9)
C32 C 0.50450(11) 0.37732(10) 0.04073(9)
H51 H 0.4610 0.3931 0.0070
C33 C 0.30809(10) 0.53273(11) -0.12421(9)
H52 H 0.2688 0.5087 -0.1615
H53 H 0.3072 0.5953 -0.1283
C34 C 0.14236(11) 0.44193(11) -0.04448(9)
C35 C 0.24822(11) 0.44082(10) 0.14372(9)
C36 C 0.58666(11) 0.36286(10) 0.01533(9)
C37 C 0.39773(10) 0.49890(11) -0.13485(9)
C38 C 0.33053(11) 0.43145(10) 0.09769(9)
H54 H 0.3171 0.3973 0.0528
C39 C 0.04366(10) 0.40005(11) 0.16679(9)
C40 C 0.33317(10) 0.55471(10) 0.01237(9)
C41 C -0.09428(11) 0.57869(10) -0.02147(9)
H55 H -0.1048 0.5209 -0.0007
C42 C 0.04374(10) 0.45066(10) -0.04087(9)
H56 H 0.0280 0.4768 0.0074
C43 C 0.12737(10) 0.37572(10) 0.20528(9)
H57 H 0.1415 0.4215 0.2413
C44 C 0.28224(10) 0.50422(10) -0.04568(8)
H58 H 0.2980 0.4431 -0.0404
O4 O 0.30030(9) 0.08754(10) 0.09729(8)
H1 H 0.2616 0.1124 0.0737
C2 C 0.26861(14) 0.06207(14) 0.16676(11)
H6 H 0.3142 0.0344 0.1948
H7 H 0.2213 0.0223 0.1598
H8 H 0.2484 0.1119 0.1939
O11 O 0.1267(6) 0.7919(5) 0.1396(5)
H59 H 0.1609 0.8105 0.1078
C45 C 0.1714(10) 0.7744(8) 0.2056(6)
H60 H 0.1582 0.8181 0.2422
H61 H 0.2328 0.7742 0.1958
H62 H 0.1540 0.7188 0.2245
C46? C 0.2253(8) 0.7253(6) 0.1932(5)
H63? H 0.2718 0.6224 0.2252
H64? H 0.2108 0.6941 0.1482
H65? H 0.2673 0.7692 0.1816
H66? H 0.1738 0.7517 0.2133
O12? O 0.2600(5) 0.6686(4) 0.2457(4)
loop_
_geom_bond_atom_site_label_1
_geom_bond_atom_site_label_2
_geom_bond_site_symmetry_1
_geom_bond_site_symmetry_2
O1 C34 1_555 1_555
O2 C39 1_555 1_555
O3 C23 1_555 1_555
O4 H1 1_555 1_555
O5 C26 1_555 1_555
O6 C35 1_555 1_555
O7 C1 1_555 1_555
O8 C4 1_555 1_555
O9 C31 1_555 1_555
O10 C40 1_555 1_555
N1 H2 1_555 1_555
N2 C6 1_555 1_555
N3 C9 1_555 1_555
N4 C5 1_555 1_555
N5 C7 1_555 1_555
N6 C11 1_555 1_555
C1 H3 1_555 1_555
H4 C1 1_555 1_555
H5 C1 1_555 1_555
C2 O4 1_555 1_555
H6 C2 1_555 1_555
H7 C2 1_555 1_555
H8 C2 1_555 1_555
C3 H9 1_555 1_555
H10 C3 1_555 1_555
H11 C3 1_555 1_555
C4 H12 1_555 1_555
H13 C4 1_555 1_555
H14 C4 1_555 1_555
C5 H15 1_555 1_555
H16 C5 1_555 1_555
H17 C5 1_555 1_555
C6 H18 1_555 1_555
H19 C6 1_555 1_555
H20 C6 1_555 1_555
C7 H21 1_555 1_555
H22 C7 1_555 1_555
H23 C7 1_555 1_555
C8 H24 1_555 1_555
C9 H25 1_555 1_555
H26 C9 1_555 1_555
H27 C9 1_555 1_555
C10 H28 1_555 1_555
C11 H29 1_555 1_555
H30 C11 1_555 1_555
H31 C11 1_555 1_555
C12 C8 1_555 1_555
H32 C12 1_555 1_555
C13 C10 1_555 1_555
H33 C13 1_555 1_555
C14 H34 1_555 1_555
H35 C14 1_555 1_555
H36 C14 1_555 1_555
C15 H37 1_555 1_555
C16 H38 1_555 1_555
H39 C16 1_555 1_555
H40 C16 1_555 1_555
C17 H41 1_555 1_555
H42 C17 1_555 1_555
C18 H43 1_555 1_555
H44 C18 1_555 1_555
C19 C15 1_555 1_555
H45 C19 1_555 1_555
C20 O7 1_555 1_555
C21 C8 1_555 1_555
C22 H46 1_555 1_555
C23 N4 1_555 1_555
C24 C22 1_555 1_555
H47 C24 1_555 1_555
C25 H48 1_555 1_555
C26 N3 1_555 1_555
C27 O8 1_555 1_555
C28 C18 1_555 1_555
C29 C25 1_555 1_555
H49 C29 1_555 1_555
C30 N1 1_555 1_555
H50 C30 1_555 1_555
C31 C22 1_555 1_555
C32 C28 1_555 1_555
H51 C32 1_555 1_555
C33 H52 1_555 1_555
H53 C33 1_555 1_555
C34 N5 1_555 1_555
C35 N6 1_555 1_555
C36 O9 1_555 1_555
C37 C24 1_555 1_555
C38 N2 1_555 1_555
H54 C38 1_555 1_555
C39 N1 1_555 1_555
C40 N2 1_555 1_555
C41 N3 1_555 1_555
H55 C41 1_555 1_555
C42 N4 1_555 1_555
H56 C42 1_555 1_555
C43 N6 1_555 1_555
H57 C43 1_555 1_555
C44 N5 1_555 1_555
H58 C44 1_555 1_555
O11 H59 1_555 1_555
C45 O11 1_555 1_555
H60 C45 1_555 1_555
H61 C45 1_555 1_555
H62 C45 1_555 1_555
C3 C30 1_555 1_555
C10 C20 1_555 1_555
C12 C20 1_555 1_555
C13 C21 1_555 1_555
C14 C43 1_555 1_555
C15 C27 1_555 1_555
C16 C42 1_555 1_555
C17 C21 1_555 1_555
C17 C41 1_555 1_555
C18 C38 1_555 1_555
C19 C28 1_555 1_555
C23 C41 1_555 1_555
C25 C31 1_555 1_555
C26 C30 1_555 1_555
C27 C36 1_555 1_555
C29 C37 1_555 1_555
C32 C36 1_555 1_555
C33 C37 1_555 1_555
C33 C44 1_555 1_555
C34 C42 1_555 1_555
C35 C38 1_555 1_555
C39 C43 1_555 1_555
C40 C44 1_555 1_555

#END
