
#######################################################################
#
#                 Cambridge Crystallographic Data Centre
#                                CCDC 
#
#######################################################################
#
# If this CIF has been generated from an entry in the Cambridge 
# Structural Database, then it will include bibliographic, chemical, 
# crystal, experimental, refinement or atomic coordinate data resulting 
# from the CCDC's data processing and validation procedures.
#
#######################################################################

data_OTAJIE
_chemical_formula_moiety         'C37 H35 N1 O4'
_chemical_name_systematic        
'diethyl 12-((2,6-dimethylphenyl)amino)-9-phenyl-9,10-secogona-1(10),2,4,8(14),9,12-hexaen-6-yne-16,16-dicarboxylate'
_symmetry_cell_setting           triclinic
_symmetry_space_group_name_H-M   'P -1'
_symmetry_Int_Tables_number      2
_space_group_name_Hall           '-P 1'
loop_
_symmetry_equiv_pos_site_id
_symmetry_equiv_pos_as_xyz
1 x,y,z
2 -x,-y,-z
_cell_length_a                   11.4621(13)
_cell_length_b                   11.6320(14)
_cell_length_c                   11.9949(14)
_cell_angle_alpha                91.5860(10)
_cell_angle_beta                 97.350(2)
_cell_angle_gamma                106.4660(10)
_cell_volume                     1517.61
_exptl_crystal_colour            colorless
_exptl_crystal_description       block
_cell_formula_units_Z            2
loop_
_atom_site_label
_atom_site_type_symbol
_atom_site_fract_x
_atom_site_fract_y
_atom_site_fract_z
C1 C 0.86376(16) 0.39831(17) 0.80559(15)
C2 C 0.74086(17) 0.31225(18) 0.74342(16)
H1 H 0.7035 0.3530 0.6859
H2 H 0.7547 0.2421 0.7083
C3 C 0.66048(16) 0.27719(16) 0.83414(15)
C4 C 0.53602(16) 0.21083(17) 0.81968(15)
C5 C 0.47878(16) 0.18754(16) 0.91776(15)
C6 C 0.54548(16) 0.23170(17) 1.02274(15)
H3 H 0.5064 0.2162 1.0864
C7 C 0.66896(16) 0.29850(17) 1.03601(15)
C8 C 0.72508(16) 0.31881(16) 0.93910(15)
C9 C 0.85624(17) 0.38659(18) 0.93405(15)
H4 H 0.9112 0.3428 0.9670
H5 H 0.8776 0.4651 0.9737
C10 C 0.88149(18) 0.53020(19) 0.78645(15)
C11 C 0.7806(2) 0.6825(2) 0.7684(2)
H6 H 0.7145 0.6946 0.7153
H7 H 0.8580 0.7306 0.7481
C12 C 0.7681(3) 0.7208(3) 0.8834(3)
H8 H 0.6931 0.6708 0.9044
H9 H 0.7667 0.8029 0.8856
H10 H 0.8365 0.7135 0.9350
C13 C 0.9737(2) 0.3657(2) 0.77251(18)
C14 C 1.0811(3) 0.3458(3) 0.6211(2)
H11 H 1.1576 0.3906 0.6667
H12 H 1.0722 0.2609 0.6273
C15 C 1.0859(4) 0.3727(4) 0.5100(3)
H13 H 1.0116 0.3261 0.4642
H14 H 1.1551 0.3540 0.4848
H15 H 1.0943 0.4566 0.5036
C16 C 0.47082(16) 0.16867(17) 0.70926(16)
C17 C 0.41518(18) 0.13430(18) 0.61774(17)
C18 C 0.34111(17) 0.09166(18) 0.51071(16)
C19 C 0.2158(2) 0.0753(2) 0.49871(19)
H16 H 0.1800 0.0920 0.5602
C20 C 0.1434(2) 0.0345(2) 0.3967(2)
H17 H 0.0593 0.0240 0.3897
C21 C 0.1947(2) 0.0091(2) 0.3052(2)
H18 H 0.1455 -0.0183 0.2364
C22 C 0.3173(2) 0.0242(2) 0.31554(18)
H19 H 0.3519 0.0066 0.2536
C23 C 0.3914(2) 0.0655(2) 0.41753(17)
H20 H 0.4755 0.0757 0.4235
C24 C 0.34842(16) 0.11382(17) 0.91215(16)
C25 C 0.25435(17) 0.1418(2) 0.84495(18)
H21 H 0.2728 0.2069 0.8003
C26 C 0.13421(19) 0.0754(2) 0.8429(2)
H22 H 0.0722 0.0961 0.7976
C27 C 0.1051(2) -0.0211(2) 0.9073(2)
H23 H 0.0236 -0.0665 0.9051
C28 C 0.1970(2) -0.0509(2) 0.9753(2)
H24 H 0.1776 -0.1164 1.0192
C29 C 0.31790(18) 0.01679(19) 0.97823(18)
H25 H 0.3795 -0.0030 1.0251
C30 C 0.68212(17) 0.35277(18) 1.23945(15)
C31 C 0.6131(2) 0.4324(2) 1.2482(2)
C32 C 0.5667(3) 0.4402(3) 1.3495(3)
H26 H 0.5189 0.4916 1.3577
C33 C 0.5907(3) 0.3732(4) 1.4369(3)
H27 H 0.5599 0.3803 1.5040
C34 C 0.6588(3) 0.2970(3) 1.4263(2)
H28 H 0.6748 0.2527 1.4868
C35 C 0.7051(2) 0.2833(2) 1.32771(17)
C36 C 0.5924(3) 0.5100(3) 1.1537(3)
H29 H 0.6698 0.5513 1.1309
H30 H 0.5541 0.5675 1.1789
H31 H 0.5400 0.4605 1.0910
C37 C 0.7757(3) 0.1939(2) 1.3158(2)
H32 H 0.7785 0.1517 1.3833
H33 H 0.8579 0.2352 1.3037
H34 H 0.7360 0.1376 1.2529
N1 N 0.73519(14) 0.34424(15) 1.13975(12)
H35 H 0.8139 0.3693 1.1445
O1 O 0.98067(13) 0.60375(13) 0.79953(13)
O2 O 0.77613(12) 0.55542(13) 0.76298(13)
O3 O 1.0463(2) 0.3344(2) 0.83405(16)
O4 O 0.97941(14) 0.37509(16) 0.66393(13)
loop_
_geom_bond_atom_site_label_1
_geom_bond_atom_site_label_2
_geom_bond_site_symmetry_1
_geom_bond_site_symmetry_2
C1 C2 1_555 1_555
C2 H1 1_555 1_555
H2 C2 1_555 1_555
C3 C2 1_555 1_555
C4 C3 1_555 1_555
C5 C4 1_555 1_555
C6 C5 1_555 1_555
H3 C6 1_555 1_555
C7 C6 1_555 1_555
C8 C3 1_555 1_555
C9 C1 1_555 1_555
H4 C9 1_555 1_555
H5 C9 1_555 1_555
C10 C1 1_555 1_555
C11 H6 1_555 1_555
H7 C11 1_555 1_555
C12 C11 1_555 1_555
H8 C12 1_555 1_555
H9 C12 1_555 1_555
H10 C12 1_555 1_555
C13 C1 1_555 1_555
C14 H11 1_555 1_555
H12 C14 1_555 1_555
C15 C14 1_555 1_555
H13 C15 1_555 1_555
H14 C15 1_555 1_555
H15 C15 1_555 1_555
C16 C4 1_555 1_555
C17 C16 1_555 1_555
C18 C17 1_555 1_555
C19 C18 1_555 1_555
H16 C19 1_555 1_555
C20 C19 1_555 1_555
H17 C20 1_555 1_555
C21 C20 1_555 1_555
H18 C21 1_555 1_555
C22 C21 1_555 1_555
H19 C22 1_555 1_555
C23 C18 1_555 1_555
H20 C23 1_555 1_555
C24 C5 1_555 1_555
C25 C24 1_555 1_555
H21 C25 1_555 1_555
C26 C25 1_555 1_555
H22 C26 1_555 1_555
C27 C26 1_555 1_555
H23 C27 1_555 1_555
C28 C27 1_555 1_555
H24 C28 1_555 1_555
C29 C24 1_555 1_555
H25 C29 1_555 1_555
C30 C31 1_555 1_555
C31 C32 1_555 1_555
C32 H26 1_555 1_555
C33 C32 1_555 1_555
H27 C33 1_555 1_555
C34 C33 1_555 1_555
H28 C34 1_555 1_555
C35 C30 1_555 1_555
C36 C31 1_555 1_555
H29 C36 1_555 1_555
H30 C36 1_555 1_555
H31 C36 1_555 1_555
C37 C35 1_555 1_555
H32 C37 1_555 1_555
H33 C37 1_555 1_555
H34 C37 1_555 1_555
N1 C7 1_555 1_555
H35 N1 1_555 1_555
O1 C10 1_555 1_555
O2 C10 1_555 1_555
O3 C13 1_555 1_555
O4 C13 1_555 1_555
C7 C8 1_555 1_555
C8 C9 1_555 1_555
C11 O2 1_555 1_555
C14 O4 1_555 1_555
C22 C23 1_555 1_555
C28 C29 1_555 1_555
C30 N1 1_555 1_555
C34 C35 1_555 1_555

#END
