
#######################################################################
#
#                 Cambridge Crystallographic Data Centre
#                                CCDC 
#
#######################################################################
#
# If this CIF has been generated from an entry in the Cambridge 
# Structural Database, then it will include bibliographic, chemical, 
# crystal, experimental, refinement or atomic coordinate data resulting 
# from the CCDC's data processing and validation procedures.
#
#######################################################################

data_OTAMUS
_chemical_formula_moiety         'C25 H26 N2 O2 S2'
_chemical_name_systematic        
4-Methyl-N-(2-(phenylsulfanyl)-7-(prop-1-en-2-yl)-1,6,9,9a-tetrahydro-4H-quinolizin-4-ylidene)benzenesulfonamide
_symmetry_cell_setting           triclinic
_symmetry_space_group_name_H-M   'P -1'
_symmetry_Int_Tables_number      2
_space_group_name_Hall           '-P 1'
loop_
_symmetry_equiv_pos_site_id
_symmetry_equiv_pos_as_xyz
1 x,y,z
2 -x,-y,-z
_cell_length_a                   9.6396(2)
_cell_length_b                   9.9284(2)
_cell_length_c                   13.3831(3)
_cell_angle_alpha                78.003(2)
_cell_angle_beta                 77.851(2)
_cell_angle_gamma                66.9950(10)
_cell_volume                     1141.29
_exptl_crystal_colour            yellow
_exptl_crystal_description       prism
_cell_formula_units_Z            2
loop_
_atom_site_label
_atom_site_type_symbol
_atom_site_fract_x
_atom_site_fract_y
_atom_site_fract_z
S1 S 1.30706(9) 0.06824(9) 0.29576(6)
S2 S 0.91713(11) -0.18153(11) 0.22394(7)
O1 O 1.4043(3) 0.1165(3) 0.3368(2)
O2 O 1.3593(3) -0.0871(3) 0.28799(19)
N1 N 1.1430(3) 0.1302(3) 0.36340(19)
N2 N 0.8961(3) 0.1495(3) 0.42081(18)
C1 C 1.2833(4) 0.1673(4) 0.1698(2)
C2 C 1.3200(4) 0.0939(4) 0.0853(3)
H1 H 1.3571 -0.0088 0.0935
C3 C 1.3010(4) 0.1745(4) -0.0115(3)
H2 H 1.3270 0.1246 -0.0683
C4 C 1.2444(4) 0.3274(4) -0.0263(3)
C5 C 1.2240(6) 0.4152(5) -0.1322(3)
H3 H 1.2542 0.3488 -0.1824
H4 H 1.2858 0.4750 -0.1485
H5 H 1.1189 0.4778 -0.1331
C6 C 1.2069(5) 0.3991(4) 0.0605(3)
H6 H 1.1680 0.5018 0.0525
C7 C 1.2264(5) 0.3206(4) 0.1581(3)
H7 H 1.2018 0.3699 0.2151
C8 C 1.0263(3) 0.0947(3) 0.3565(2)
C9 C 1.0286(3) 0.0000(3) 0.2848(2)
H8 H 1.1087 -0.0231 0.2309
C10 C 0.9185(3) -0.0539(3) 0.2952(2)
C11 C 1.0917(4) -0.2210(4) 0.1384(3)
C12 C 1.2315(4) -0.2985(4) 0.1741(3)
H9 H 1.2354 -0.3290 0.2443
C13 C 1.3643(5) -0.3299(5) 0.1045(4)
H10 H 1.4577 -0.3815 0.1281
C14 C 1.3593(6) -0.2855(5) 0.0010(4)
H11 H 1.4491 -0.3050 -0.0454
C15 C 1.2213(6) -0.2122(5) -0.0339(3)
H12 H 1.2182 -0.1838 -0.1044
C16 C 1.0875(5) -0.1801(4) 0.0335(3)
H13 H 0.9947 -0.1311 0.0087
C17 C 0.7831(3) -0.0123(3) 0.3776(2)
H14 H 0.7998 -0.0888 0.4369
H15 H 0.6937 -0.0064 0.3519
C18 C 0.7541(3) 0.1338(3) 0.4108(2)
H16 H 0.6932 0.1358 0.4794
C19 C 0.6681(4) 0.2716(4) 0.3421(2)
H17 H 0.7177 0.2670 0.2712
H18 H 0.5650 0.2762 0.3447
C20 C 0.6635(4) 0.4076(4) 0.3769(2)
H19 H 0.5946 0.4979 0.3513
C21 C 0.7507(4) 0.4090(3) 0.4419(2)
C22 C 0.8718(4) 0.2668(3) 0.4801(2)
H20 H 0.9664 0.2828 0.4741
H21 H 0.8411 0.2368 0.5524
C23 C 0.7327(4) 0.5436(4) 0.4818(2)
C24 C 0.8089(4) 0.5399(4) 0.5550(3)
H22 H 0.8763 0.4503 0.5828
H23 H 0.7948 0.6269 0.5783
C25 C 0.6228(4) 0.6883(4) 0.4372(3)
H24 H 0.5781 0.6717 0.3854
H25 H 0.6760 0.7543 0.4067
H26 H 0.5441 0.7314 0.4911
loop_
_geom_bond_atom_site_label_1
_geom_bond_atom_site_label_2
_geom_bond_site_symmetry_1
_geom_bond_site_symmetry_2
S1 O1 1_555 1_555
S2 C10 1_555 1_555
O2 S1 1_555 1_555
N1 S1 1_555 1_555
N2 C8 1_555 1_555
C1 S1 1_555 1_555
C2 C1 1_555 1_555
H1 C2 1_555 1_555
C3 C2 1_555 1_555
H2 C3 1_555 1_555
C4 C3 1_555 1_555
C5 C4 1_555 1_555
H3 C5 1_555 1_555
H4 C5 1_555 1_555
H5 C5 1_555 1_555
C6 C4 1_555 1_555
H6 C6 1_555 1_555
C7 C1 1_555 1_555
H7 C7 1_555 1_555
C8 N1 1_555 1_555
C9 C8 1_555 1_555
H8 C9 1_555 1_555
C10 C9 1_555 1_555
C11 S2 1_555 1_555
C12 C11 1_555 1_555
H9 C12 1_555 1_555
C13 C12 1_555 1_555
H10 C13 1_555 1_555
C14 C13 1_555 1_555
H11 C14 1_555 1_555
C15 C14 1_555 1_555
H12 C15 1_555 1_555
C16 C11 1_555 1_555
H13 C16 1_555 1_555
C17 C10 1_555 1_555
H14 C17 1_555 1_555
H15 C17 1_555 1_555
C18 N2 1_555 1_555
H16 C18 1_555 1_555
C19 C18 1_555 1_555
H17 C19 1_555 1_555
H18 C19 1_555 1_555
C20 C19 1_555 1_555
H19 C20 1_555 1_555
C21 C20 1_555 1_555
C22 N2 1_555 1_555
H20 C22 1_555 1_555
H21 C22 1_555 1_555
C23 C21 1_555 1_555
C24 C23 1_555 1_555
H22 C24 1_555 1_555
H23 C24 1_555 1_555
C25 C23 1_555 1_555
H24 C25 1_555 1_555
H25 C25 1_555 1_555
H26 C25 1_555 1_555
C6 C7 1_555 1_555
C15 C16 1_555 1_555
C17 C18 1_555 1_555
C21 C22 1_555 1_555

#END
