
#######################################################################
#
#                 Cambridge Crystallographic Data Centre
#                                CCDC 
#
#######################################################################
#
# If this CIF has been generated from an entry in the Cambridge 
# Structural Database, then it will include bibliographic, chemical, 
# crystal, experimental, refinement or atomic coordinate data resulting 
# from the CCDC's data processing and validation procedures.
#
#######################################################################

data_OTANED
_chemical_formula_moiety         'C24 H19 N5 O1 S1'
_chemical_name_systematic        
10-Methyl-4-oxo-2-(phenylsulfanyl)-1,6,6a,9,11,11a-hexahydro-4H-pyrido[1,2-b]isoquinoline-7,7,8,8-tetracarbonitrile
_symmetry_cell_setting           triclinic
_symmetry_space_group_name_H-M   'P -1'
_symmetry_Int_Tables_number      2
_space_group_name_Hall           '-P 1'
loop_
_symmetry_equiv_pos_site_id
_symmetry_equiv_pos_as_xyz
1 x,y,z
2 -x,-y,-z
_cell_length_a                   7.2673(4)
_cell_length_b                   10.7378(5)
_cell_length_c                   14.3866(7)
_cell_angle_alpha                76.189(3)
_cell_angle_beta                 83.686(3)
_cell_angle_gamma                75.661(3)
_cell_volume                     1054.69
_exptl_crystal_colour            colorless
_exptl_crystal_description       prism
_cell_formula_units_Z            2
loop_
_atom_site_label
_atom_site_type_symbol
_atom_site_fract_x
_atom_site_fract_y
_atom_site_fract_z
C1 C 0.1072(4) 0.8444(3) 0.6177(2)
C2 C -0.0645(5) 0.9365(3) 0.6180(2)
H1 H -0.0765 1.0084 0.6478
C3 C -0.2180(5) 0.9240(3) 0.5751(2)
H2 H -0.3363 0.9860 0.5767
C4 C -0.1995(5) 0.8205(4) 0.5295(2)
H3 H -0.3044 0.8122 0.4993
C5 C -0.0286(5) 0.7307(4) 0.5283(2)
H4 H -0.0156 0.6605 0.4968
C6 C 0.1256(5) 0.7409(3) 0.5727(2)
H5 H 0.2428 0.6776 0.5722
C7 C 0.2435(5) 0.8648(3) 0.7862(2)
C8 C 0.0841(5) 0.8379(3) 0.8335(2)
H6 H -0.0038 0.8147 0.8002
C9 C 0.0396(5) 0.8428(3) 0.9347(2)
C10 C 0.3749(5) 0.8541(3) 0.9437(2)
H7 H 0.4349 0.9094 0.9725
C11 C 0.3835(5) 0.9057(3) 0.8358(2)
H8 H 0.3577 1.0031 0.8217
H9 H 0.5136 0.8728 0.8096
C12 C 0.4810(5) 0.7110(3) 0.9770(2)
H10 H 0.4346 0.6554 0.9432
H11 H 0.6181 0.7035 0.9589
C13 C 0.4569(4) 0.6591(3) 1.0839(2)
C14 C 0.2558(4) 0.6983(3) 1.1260(2)
H12 H 0.1797 0.6436 1.1067
C15 C 0.1604(5) 0.8430(3) 1.0860(2)
H13 H 0.0247 0.8609 1.1086
H14 H 0.2230 0.9012 1.1090
C16 C 0.5999(4) 0.5778(3) 1.1357(2)
C17 C 0.8012(4) 0.5369(3) 1.0951(2)
H15 H 0.8807 0.4781 1.1460
H16 H 0.8523 0.6154 1.0691
H17 H 0.8011 0.4910 1.0439
C18 C 0.5752(4) 0.5167(3) 1.2408(2)
H18 H 0.6327 0.5621 1.2783
H19 H 0.6450 0.4232 1.2528
C19 C 0.3649(4) 0.5239(3) 1.2768(2)
C20 C 0.3462(4) 0.4918(3) 1.3830(2)
C21 C 0.2855(5) 0.4309(3) 1.2405(2)
C22 C 0.2465(4) 0.6673(3) 1.2372(2)
C23 C 0.3303(5) 0.7592(3) 1.2730(2)
C24 C 0.0446(5) 0.6813(3) 1.2733(2)
N1 N 0.1760(4) 0.8695(3) 0.98229(17)
N2 N 0.2233(4) 0.3614(3) 1.2126(2)
N3 N 0.3290(4) 0.4700(3) 1.4642(2)
N4 N 0.3957(4) 0.8290(3) 1.3001(2)
N5 N -0.1110(5) 0.6897(3) 1.2975(2)
O1 O -0.1145(3) 0.8279(2) 0.97551(15)
S1 S 0.31082(13) 0.86384(9) 0.66584(6)
loop_
_geom_bond_atom_site_label_1
_geom_bond_atom_site_label_2
_geom_bond_site_symmetry_1
_geom_bond_site_symmetry_2
C1 C2 1_555 1_555
C2 H1 1_555 1_555
C3 C2 1_555 1_555
H2 C3 1_555 1_555
C4 C3 1_555 1_555
H3 C4 1_555 1_555
C5 C4 1_555 1_555
H4 C5 1_555 1_555
C6 C1 1_555 1_555
H5 C6 1_555 1_555
C7 C8 1_555 1_555
C8 H6 1_555 1_555
C9 C8 1_555 1_555
C10 H7 1_555 1_555
C11 C7 1_555 1_555
H8 C11 1_555 1_555
H9 C11 1_555 1_555
C12 C10 1_555 1_555
H10 C12 1_555 1_555
H11 C12 1_555 1_555
C13 C12 1_555 1_555
C14 C13 1_555 1_555
H12 C14 1_555 1_555
C15 C14 1_555 1_555
H13 C15 1_555 1_555
H14 C15 1_555 1_555
C16 C13 1_555 1_555
C17 C16 1_555 1_555
H15 C17 1_555 1_555
H16 C17 1_555 1_555
H17 C17 1_555 1_555
C18 C16 1_555 1_555
H18 C18 1_555 1_555
H19 C18 1_555 1_555
C19 C18 1_555 1_555
C20 C19 1_555 1_555
C21 C19 1_555 1_555
C22 C14 1_555 1_555
C23 C22 1_555 1_555
C24 C22 1_555 1_555
N1 C9 1_555 1_555
N2 C21 1_555 1_555
N3 C20 1_555 1_555
N4 C23 1_555 1_555
N5 C24 1_555 1_555
O1 C9 1_555 1_555
S1 C1 1_555 1_555
C5 C6 1_555 1_555
C7 S1 1_555 1_555
C10 C11 1_555 1_555
C10 N1 1_555 1_555
C15 N1 1_555 1_555
C19 C22 1_555 1_555

#END
