
#######################################################################
#
#                 Cambridge Crystallographic Data Centre
#                                CCDC 
#
#######################################################################
#
# If this CIF has been generated from an entry in the Cambridge 
# Structural Database, then it will include bibliographic, chemical, 
# crystal, experimental, refinement or atomic coordinate data resulting 
# from the CCDC's data processing and validation procedures.
#
#######################################################################

data_OTANIH
_chemical_formula_moiety         'C24 H25 N1 O5 S1'
_chemical_name_systematic        
'Dimethyl 10-methyl-4-oxo-2-(phenylsulfanyl)-1,6,6a,9,11,11a-hexahydro-4H-pyrido[1,2-b]isoquinoline-7,8-dicarboxylate'
_symmetry_cell_setting           triclinic
_symmetry_space_group_name_H-M   'P -1'
_symmetry_Int_Tables_number      2
_space_group_name_Hall           '-P 1'
loop_
_symmetry_equiv_pos_site_id
_symmetry_equiv_pos_as_xyz
1 x,y,z
2 -x,-y,-z
_cell_length_a                   9.0053(6)
_cell_length_b                   11.2138(6)
_cell_length_c                   11.9440(7)
_cell_angle_alpha                95.802(2)
_cell_angle_beta                 100.409(3)
_cell_angle_gamma                112.903(3)
_cell_volume                     1073.04
_exptl_crystal_colour            colorless
_exptl_crystal_description       prism
_cell_formula_units_Z            2
loop_
_atom_site_label
_atom_site_type_symbol
_atom_site_fract_x
_atom_site_fract_y
_atom_site_fract_z
C1 C 0.1042(3) -0.2833(3) 0.3332(2)
C2 C 0.2391(4) -0.3049(3) 0.3129(2)
H1 H 0.3353 -0.2334 0.3055
C3 C 0.2339(4) -0.4304(3) 0.3034(3)
H2 H 0.3261 -0.4453 0.2889
C4 C 0.0948(4) -0.5338(3) 0.3150(3)
H3 H 0.0920 -0.6197 0.3106
C5 C -0.0382(4) -0.5123(3) 0.3327(3)
H4 H -0.1348 -0.5844 0.3387
C6 C -0.0362(4) -0.3878(3) 0.3423(3)
H5 H -0.1301 -0.3743 0.3549
C7 C 0.1945(3) -0.0368(2) 0.4765(2)
C8 C 0.2310(3) 0.0916(2) 0.4948(2)
H6 H 0.2107 0.1307 0.4301
C9 C 0.3011(3) 0.1753(2) 0.6103(2)
C10 C 0.2218(3) -0.0294(2) 0.6891(2)
H7 H 0.1035 -0.0479 0.6881
C11 C 0.2270(4) -0.1015(3) 0.5752(2)
H8 H 0.3374 -0.1032 0.5828
H9 H 0.1426 -0.1938 0.5591
C12 C 0.2914(4) -0.0794(2) 0.7909(2)
H10 H 0.2183 -0.1734 0.7858
H11 H 0.4027 -0.0733 0.7861
C13 C 0.3049(3) -0.0021(2) 0.9058(2)
C14 C 0.4169(3) 0.1420(2) 0.9159(2)
H12 H 0.5275 0.1486 0.9059
C15 C 0.3419(3) 0.1936(2) 0.8167(2)
H13 H 0.2339 0.1908 0.8268
H14 H 0.4167 0.2866 0.8196
C16 C 0.2219(3) -0.0494(2) 0.9837(2)
C17 C 0.1043(4) -0.1918(3) 0.9743(3)
H15 H 0.0594 -0.2014 1.0434
H16 H 0.1642 -0.2478 0.9683
H17 H 0.0130 -0.2183 0.9052
C18 C 0.2403(3) 0.0372(2) 1.0942(2)
H18 H 0.2753 -0.0005 1.1602
H19 H 0.1302 0.0352 1.0970
C19 C 0.3618(3) 0.1785(2) 1.1105(2)
C20 C 0.3791(3) 0.2593(3) 1.2240(2)
C21 C 0.5554(4) 0.3829(3) 1.4041(2)
H20 H 0.6667 0.4045 1.4513
H21 H 0.4723 0.3388 1.4465
H22 H 0.5468 0.4641 1.3874
C22 C 0.4430(3) 0.2261(2) 1.0307(2)
C23 C 0.5622(3) 0.3690(2) 1.0549(2)
C24 C 0.7983(4) 0.5251(3) 1.0090(3)
H23 H 0.8771 0.5291 0.9611
H24 H 0.8584 0.5574 1.0907
H25 H 0.7408 0.5802 0.9854
N1 N 0.3170(3) 0.11484(19) 0.70302(17)
O1 O 0.3459(2) 0.29513(16) 0.62204(16)
O2 O 0.2665(3) 0.2782(2) 1.24845(19)
O3 O 0.5262(2) 0.29588(17) 1.29601(15)
O4 O 0.5548(3) 0.45421(18) 1.11998(17)
O5 O 0.6777(2) 0.38972(17) 0.99402(18)
S1 S 0.10268(10) -0.12525(7) 0.33312(6)
loop_
_geom_bond_atom_site_label_1
_geom_bond_atom_site_label_2
_geom_bond_site_symmetry_1
_geom_bond_site_symmetry_2
C1 C2 1_555 1_555
C2 H1 1_555 1_555
C3 C2 1_555 1_555
H2 C3 1_555 1_555
C4 C3 1_555 1_555
H3 C4 1_555 1_555
C5 C4 1_555 1_555
H4 C5 1_555 1_555
C6 C1 1_555 1_555
H5 C6 1_555 1_555
C7 C8 1_555 1_555
C8 H6 1_555 1_555
C9 C8 1_555 1_555
C10 H7 1_555 1_555
C11 C7 1_555 1_555
H8 C11 1_555 1_555
H9 C11 1_555 1_555
C12 C10 1_555 1_555
H10 C12 1_555 1_555
H11 C12 1_555 1_555
C13 C12 1_555 1_555
C14 C13 1_555 1_555
H12 C14 1_555 1_555
C15 C14 1_555 1_555
H13 C15 1_555 1_555
H14 C15 1_555 1_555
C16 C13 1_555 1_555
C17 C16 1_555 1_555
H15 C17 1_555 1_555
H16 C17 1_555 1_555
H17 C17 1_555 1_555
C18 C16 1_555 1_555
H18 C18 1_555 1_555
H19 C18 1_555 1_555
C19 C18 1_555 1_555
C20 C19 1_555 1_555
C21 H20 1_555 1_555
H21 C21 1_555 1_555
H22 C21 1_555 1_555
C22 C14 1_555 1_555
C23 C22 1_555 1_555
C24 H23 1_555 1_555
H24 C24 1_555 1_555
H25 C24 1_555 1_555
N1 C9 1_555 1_555
O1 C9 1_555 1_555
O2 C20 1_555 1_555
O3 C20 1_555 1_555
O4 C23 1_555 1_555
O5 C23 1_555 1_555
S1 C1 1_555 1_555
C5 C6 1_555 1_555
C7 S1 1_555 1_555
C10 C11 1_555 1_555
C10 N1 1_555 1_555
C15 N1 1_555 1_555
C19 C22 1_555 1_555
C21 O3 1_555 1_555
C24 O5 1_555 1_555

#END
