
#######################################################################
#
#                 Cambridge Crystallographic Data Centre
#                                CCDC 
#
#######################################################################
#
# If this CIF has been generated from an entry in the Cambridge 
# Structural Database, then it will include bibliographic, chemical, 
# crystal, experimental, refinement or atomic coordinate data resulting 
# from the CCDC's data processing and validation procedures.
#
#######################################################################

data_OTIFON
_chemical_formula_moiety         'C21 H24 N2 O4,2.5(H2 O1)'
_chemical_name_systematic        
"1-Methoxy-4'-methyl-2'-vinylspiro[indole-3,7'-[9]oxa[4]azatetracyclo[6.3.1.0^2,6^.0^5,11^]dodecan]-2(1H)-one 4'-oxide hydrate"
_symmetry_cell_setting           monoclinic
_symmetry_space_group_name_H-M   'P 21'
_symmetry_Int_Tables_number      4
_space_group_name_Hall           'P 2yb'
loop_
_symmetry_equiv_pos_site_id
_symmetry_equiv_pos_as_xyz
1 x,y,z
2 -x,1/2+y,-z
_cell_length_a                   9.33100(10)
_cell_length_b                   21.0564(3)
_cell_length_c                   10.9924(2)
_cell_angle_alpha                90
_cell_angle_beta                 90.098(2)
_cell_angle_gamma                90
_cell_volume                     2159.75
_exptl_crystal_colour            colorless
_exptl_crystal_description       block
_cell_formula_units_Z            4
loop_
_atom_site_label
_atom_site_type_symbol
_atom_site_fract_x
_atom_site_fract_y
_atom_site_fract_z
O1 O 0.5051(3) 0.85025(15) -0.4286(3)
O2 O 0.5958(3) 0.76502(18) -0.2515(3)
O3 O 0.1804(3) 0.70091(12) -0.0980(3)
O4 O 0.3948(2) 0.88598(11) 0.1674(2)
N1 N 0.4332(3) 0.83673(16) -0.3212(3)
C1 C 0.4797(4) 0.79139(18) -0.2447(3)
C2 C 0.3205(4) 0.70793(16) -0.1496(4)
H1 H 0.3170 0.6931 -0.2341
N2 N 0.3852(3) 0.82028(13) 0.1843(2)
C3 C 0.3040(3) 0.79077(15) 0.0804(3)
H2 H 0.2092 0.8093 0.0662
C4 C 0.4115(3) 0.80207(14) -0.0232(3)
H3 H 0.4396 0.8469 -0.0258
C5 C 0.3595(3) 0.78011(15) -0.1502(3)
C6 C 0.2403(4) 0.82108(15) -0.2010(3)
C7 C 0.0980(4) 0.83039(19) -0.1685(4)
H4 H 0.0607 0.8097 -0.1008
C8 C 0.0121(4) 0.8701(2) -0.2360(4)
H5 H -0.0827 0.8763 -0.2130
C9 C 0.0646(5) 0.9010(2) -0.3376(5)
H6 H 0.0046 0.9276 -0.3821
C10 C 0.2065(5) 0.89277(18) -0.3743(4)
H7 H 0.2430 0.9131 -0.4427
C11 C 0.2895(4) 0.85308(15) -0.3041(3)
C12 C 0.4306(4) 0.66925(16) -0.0827(4)
H8 H 0.5207 0.6700 -0.1266
H9 H 0.3989 0.6255 -0.0766
C13 C 0.4512(4) 0.69728(15) 0.0447(4)
H10 H 0.4995 0.6673 0.0992
C14 C 0.3034(4) 0.71775(16) 0.0953(3)
H11 H 0.2982 0.7071 0.1819
C15 C 0.1817(4) 0.68672(18) 0.0295(4)
H12 H 0.1882 0.6411 0.0402
H13 H 0.0921 0.7007 0.0651
C16 C 0.7706(4) 0.7169(2) -0.0134(5)
H14 H 0.7436 0.6770 0.0144
H15 H 0.8620 0.7231 -0.0448
C17 C 0.6820(4) 0.76330(19) -0.0085(4)
H16 H 0.7146 0.8022 -0.0376
C18 C 0.5308(3) 0.76179(15) 0.0391(3)
C19 C 0.5314(4) 0.78925(16) 0.1699(3)
H17 H 0.5446 0.7558 0.2294
H18 H 0.6074 0.8203 0.1796
C20 C 0.3194(5) 0.8103(2) 0.3074(3)
H19 H 0.2278 0.8310 0.3105
H20 H 0.3811 0.8279 0.3688
H21 H 0.3072 0.7657 0.3218
C21 C 0.6031(6) 0.9018(3) -0.4085(6)
H22 H 0.6535 0.9109 -0.4826
H23 H 0.6706 0.8902 -0.3464
H24 H 0.5508 0.9388 -0.3833
O5 O 0.7597(3) 0.55489(15) 0.0739(3)
O6 O 0.6684(3) 0.63890(18) 0.2535(3)
O7 O 1.0848(3) 0.70996(12) 0.3980(3)
O8 O 0.8841(2) 0.51988(11) 0.6630(2)
N3 N 0.8344(3) 0.57067(16) 0.1776(3)
C22 C 0.7860(4) 0.61556(18) 0.2584(3)
C23 C 0.9433(4) 0.70035(16) 0.3491(4)
H25 H 0.9421 0.7155 0.2648
N4 N 0.8977(3) 0.58526(13) 0.6838(3)
C24 C 0.9745(3) 0.61581(14) 0.5764(3)
H26 H 1.0696 0.5982 0.5592
C25 C 0.8642(3) 0.60416(13) 0.4777(3)
H27 H 0.8381 0.5591 0.4744
C26 C 0.9080(3) 0.62872(15) 0.3489(3)
C27 C 1.0299(4) 0.58867(15) 0.2942(3)
C28 C 1.1738(4) 0.58235(19) 0.3258(4)
H28 H 1.2108 0.6027 0.3940
C29 C 1.2608(4) 0.5447(2) 0.2521(4)
H29 H 1.3572 0.5400 0.2719
C30 C 1.2072(4) 0.51401(18) 0.1504(4)
H30 H 1.2684 0.4896 0.1028
C31 C 1.0641(5) 0.51898(17) 0.1182(4)
H31 H 1.0268 0.4978 0.0510
C32 C 0.9790(4) 0.55719(15) 0.1914(3)
C33 C 0.8329(4) 0.73778(16) 0.4208(4)
H32 H 0.7408 0.7361 0.3799
H33 H 0.8621 0.7819 0.4269
C34 C 0.8205(3) 0.70865(15) 0.5482(4)
H34 H 0.7731 0.7377 0.6049
C35 C 0.9716(3) 0.68916(14) 0.5949(3)
H35 H 0.9804 0.6992 0.6816
C36 C 1.0887(4) 0.72255(17) 0.5242(4)
H36 H 1.0800 0.7680 0.5368
H37 H 1.1811 0.7094 0.5561
C37 C 0.4980(4) 0.6852(2) 0.4988(5)
H38 H 0.5219 0.7255 0.5265
H39 H 0.4061 0.6772 0.4696
C38 C 0.5919(4) 0.6405(2) 0.5008(4)
H40 H 0.5614 0.6012 0.4719
C39 C 0.7445(3) 0.64364(14) 0.5440(3)
C40 C 0.7515(3) 0.61682(15) 0.6749(3)
H41 H 0.7427 0.6506 0.7343
H42 H 0.6756 0.5862 0.6883
C41 C 0.9698(4) 0.5934(2) 0.8029(3)
H43 H 1.0611 0.5724 0.8014
H44 H 0.9115 0.5753 0.8658
H45 H 0.9837 0.6379 0.8186
C42 C 0.6708(6) 0.4998(3) 0.0947(6)
H46 H 0.6191 0.4897 0.0217
H47 H 0.6041 0.5087 0.1589
H48 H 0.7300 0.4645 0.1174
O9 O 0.8747(4) 0.9508(3) 0.3979(4)
O10 O 0.6428(4) 0.9473(3) 0.0974(4)
O11 O 0.1264(3) 0.93849(15) 0.1359(3)
O12 O -0.1211(7) 0.8721(3) 0.1883(9)
O13 O 0.3353(5) 0.5334(3) 0.6940(8)
O14 O 0.6079(3) 0.47088(14) 0.6326(3)
loop_
_geom_bond_atom_site_label_1
_geom_bond_atom_site_label_2
_geom_bond_site_symmetry_1
_geom_bond_site_symmetry_2
O1 N1 1_555 1_555
O2 C1 1_555 1_555
O3 C2 1_555 1_555
O4 N2 1_555 1_555
N1 C1 1_555 1_555
C1 C5 1_555 1_555
C2 H1 1_555 1_555
N2 C3 1_555 1_555
C3 H2 1_555 1_555
C4 C3 1_555 1_555
H3 C4 1_555 1_555
C5 C2 1_555 1_555
C6 C5 1_555 1_555
C7 C6 1_555 1_555
H4 C7 1_555 1_555
C8 C7 1_555 1_555
H5 C8 1_555 1_555
C9 C8 1_555 1_555
H6 C9 1_555 1_555
C10 C9 1_555 1_555
H7 C10 1_555 1_555
C11 N1 1_555 1_555
C12 C2 1_555 1_555
H8 C12 1_555 1_555
H9 C12 1_555 1_555
C13 C12 1_555 1_555
H10 C13 1_555 1_555
C14 C3 1_555 1_555
H11 C14 1_555 1_555
C15 O3 1_555 1_555
H12 C15 1_555 1_555
H13 C15 1_555 1_555
C16 H14 1_555 1_555
H15 C16 1_555 1_555
C17 C16 1_555 1_555
H16 C17 1_555 1_555
C18 C4 1_555 1_555
C19 N2 1_555 1_555
H17 C19 1_555 1_555
H18 C19 1_555 1_555
C20 N2 1_555 1_555
H19 C20 1_555 1_555
H20 C20 1_555 1_555
H21 C20 1_555 1_555
C21 O1 1_555 1_555
H22 C21 1_555 1_555
H23 C21 1_555 1_555
H24 C21 1_555 1_555
O5 N3 1_555 1_555
O6 C22 1_555 1_555
O7 C23 1_555 1_555
O8 N4 1_555 1_555
N3 C22 1_555 1_555
C22 C26 1_555 1_555
C23 H25 1_555 1_555
N4 C24 1_555 1_555
C24 H26 1_555 1_555
C25 C24 1_555 1_555
H27 C25 1_555 1_555
C26 C23 1_555 1_555
C27 C26 1_555 1_555
C28 C27 1_555 1_555
H28 C28 1_555 1_555
C29 C28 1_555 1_555
H29 C29 1_555 1_555
C30 C29 1_555 1_555
H30 C30 1_555 1_555
C31 C30 1_555 1_555
H31 C31 1_555 1_555
C32 N3 1_555 1_555
C33 C23 1_555 1_555
H32 C33 1_555 1_555
H33 C33 1_555 1_555
C34 C33 1_555 1_555
H34 C34 1_555 1_555
C35 C24 1_555 1_555
H35 C35 1_555 1_555
C36 O7 1_555 1_555
H36 C36 1_555 1_555
H37 C36 1_555 1_555
C37 H38 1_555 1_555
H39 C37 1_555 1_555
C38 C37 1_555 1_555
H40 C38 1_555 1_555
C39 C25 1_555 1_555
C40 N4 1_555 1_555
H41 C40 1_555 1_555
H42 C40 1_555 1_555
C41 N4 1_555 1_555
H43 C41 1_555 1_555
H44 C41 1_555 1_555
H45 C41 1_555 1_555
C42 O5 1_555 1_555
H46 C42 1_555 1_555
H47 C42 1_555 1_555
H48 C42 1_555 1_555
C4 C5 1_555 1_555
C6 C11 1_555 1_555
C10 C11 1_555 1_555
C13 C14 1_555 1_555
C13 C18 1_555 1_555
C14 C15 1_555 1_555
C17 C18 1_555 1_555
C18 C19 1_555 1_555
C25 C26 1_555 1_555
C27 C32 1_555 1_555
C31 C32 1_555 1_555
C34 C35 1_555 1_555
C34 C39 1_555 1_555
C35 C36 1_555 1_555
C38 C39 1_555 1_555
C39 C40 1_555 1_555

#END
