
#######################################################################
#
#                 Cambridge Crystallographic Data Centre
#                                CCDC 
#
#######################################################################
#
# If this CIF has been generated from an entry in the Cambridge 
# Structural Database, then it will include bibliographic, chemical, 
# crystal, experimental, refinement or atomic coordinate data resulting 
# from the CCDC's data processing and validation procedures.
#
#######################################################################

data_OTONUH
_chemical_formula_moiety         'C9 H24 N4 O6 S3'
_chemical_name_systematic        N,N,N-tris(2-(methanesulfonamido)ethyl)amine
_symmetry_cell_setting           monoclinic
_symmetry_space_group_name_H-M   'P 21/c'
_symmetry_Int_Tables_number      14
_space_group_name_Hall           '-P 2ybc'
loop_
_symmetry_equiv_pos_site_id
_symmetry_equiv_pos_as_xyz
1 x,y,z
2 -x,1/2+y,1/2-z
3 -x,-y,-z
4 x,1/2-y,1/2+z
_cell_length_a                   15.802(3)
_cell_length_b                   8.1846(16)
_cell_length_c                   14.456(3)
_cell_angle_alpha                90
_cell_angle_beta                 115.82(3)
_cell_angle_gamma                90
_cell_volume                     1682.99
_exptl_crystal_colour            colorless
_exptl_crystal_description       plate
_cell_formula_units_Z            4
loop_
_atom_site_label
_atom_site_type_symbol
_atom_site_fract_x
_atom_site_fract_y
_atom_site_fract_z
O1 O 0.54886(13) 0.5770(2) 0.35141(15)
O2 O 0.64918(13) 0.4835(2) 0.52741(14)
O3 O 0.98339(13) 0.2082(3) 0.70411(14)
O4 O 1.06978(12) 0.3371(2) 0.61541(15)
O5 O 0.75486(13) 0.1047(2) 0.54088(14)
O6 O 0.63535(13) -0.0523(3) 0.56941(15)
N1 N 0.76432(14) 0.1244(3) 0.32364(16)
N2 N 0.67087(14) 0.3705(3) 0.38180(16)
N3 N 0.93072(16) 0.1666(3) 0.51817(16)
N4 N 0.66685(16) -0.1193(3) 0.42310(17)
S1 S 0.59745(4) 0.44506(8) 0.42042(5)
S2 S 0.98178(4) 0.28868(8) 0.61488(5)
S3 S 0.71011(4) -0.04956(8) 0.53901(5)
C1 C 0.72135(19) 0.2661(3) 0.25700(19)
C2 C 0.63812(19) 0.3320(4) 0.27179(19)
C3 C 0.51416(19) 0.2934(4) 0.4082(2)
C4 C 0.86094(18) 0.0996(3) 0.3369(2)
C5 C 0.93042(19) 0.2096(4) 0.4190(2)
C6 C 0.91087(18) 0.4634(3) 0.5917(2)
C7 C 0.70808(19) -0.0247(3) 0.2838(2)
C8 C 0.7247(2) -0.1502(3) 0.3675(2)
C9 C 0.7989(2) -0.1823(4) 0.6188(2)
H1 H 0.7671 0.3501 0.2735
H2 H 0.7010 0.2343 0.1874
H3 H 0.6147 0.4286 0.2324
H4 H 0.5898 0.2520 0.2509
H5 H 0.8784 -0.0106 0.3567
H6 H 0.8634 0.1203 0.2734
H7 H 0.9917 0.1954 0.4233
H8 H 0.9115 0.3202 0.4026
H9 H 0.7235 -0.0716 0.2330
H10 H 0.6433 0.0038 0.2537
H11 H 0.7890 -0.1447 0.4156
H12 H 0.7111 -0.2560 0.3377
H13 H 0.8254 -0.1418 0.6872
H14 H 0.8464 -0.1895 0.5955
H15 H 0.7729 -0.2876 0.6171
H16 H 0.9393 0.5378 0.6473
H17 H 0.9043 0.5140 0.5298
H18 H 0.8507 0.4329 0.5857
H19 H 0.4701 0.3362 0.4302
H20 H 0.5452 0.2019 0.4495
H21 H 0.4823 0.2603 0.3384
H22 H 0.6980(19) 0.293(4) 0.417(2)
H23 H 0.878(2) 0.140(4) 0.513(2)
H24 H 0.629(2) -0.192(4) 0.414(2)
loop_
_geom_bond_atom_site_label_1
_geom_bond_atom_site_label_2
_geom_bond_site_symmetry_1
_geom_bond_site_symmetry_2
O1 S1 1_555 1_555
O2 S1 1_555 1_555
O3 S2 1_555 1_555
O4 S2 1_555 1_555
O5 S3 1_555 1_555
O6 S3 1_555 1_555
N1 C1 1_555 1_555
N2 S1 1_555 1_555
N3 S2 1_555 1_555
N4 S3 1_555 1_555
S1 C3 1_555 1_555
S2 C6 1_555 1_555
S3 C9 1_555 1_555
C1 C2 1_555 1_555
C2 N2 1_555 1_555
C3 H19 1_555 1_555
C4 N1 1_555 1_555
C5 N3 1_555 1_555
C6 H16 1_555 1_555
C7 N1 1_555 1_555
C8 N4 1_555 1_555
C9 H13 1_555 1_555
H1 C1 1_555 1_555
H2 C1 1_555 1_555
H3 C2 1_555 1_555
H4 C2 1_555 1_555
H5 C4 1_555 1_555
H6 C4 1_555 1_555
H7 C5 1_555 1_555
H8 C5 1_555 1_555
H9 C7 1_555 1_555
H10 C7 1_555 1_555
H11 C8 1_555 1_555
H12 C8 1_555 1_555
H14 C9 1_555 1_555
H15 C9 1_555 1_555
H17 C6 1_555 1_555
H18 C6 1_555 1_555
H20 C3 1_555 1_555
H21 C3 1_555 1_555
H22 N2 1_555 1_555
H23 N3 1_555 1_555
H24 N4 1_555 1_555
C4 C5 1_555 1_555
C7 C8 1_555 1_555

#END
