
#######################################################################
#
#                 Cambridge Crystallographic Data Centre
#                                CCDC 
#
#######################################################################
#
# If this CIF has been generated from an entry in the Cambridge 
# Structural Database, then it will include bibliographic, chemical, 
# crystal, experimental, refinement or atomic coordinate data resulting 
# from the CCDC's data processing and validation procedures.
#
#######################################################################

data_OVAQUY
_chemical_formula_moiety         'C21 H38 B1 N9,C1 H2 Cl2,H2 O1'
_chemical_name_systematic        
'hydrogen tris(5-methyl-3-t-butyl-1H-1,2,4-triazolyl)borate dichloromethane solvate monohydrate'
_symmetry_cell_setting           monoclinic
_symmetry_space_group_name_H-M   'P 21/c'
_symmetry_Int_Tables_number      14
_space_group_name_Hall           '-P 2ybc'
loop_
_symmetry_equiv_pos_site_id
_symmetry_equiv_pos_as_xyz
1 x,y,z
2 -x,1/2+y,1/2-z
3 -x,-y,-z
4 x,1/2-y,1/2+z
_cell_length_a                   16.290(8)
_cell_length_b                   18.323(9)
_cell_length_c                   20.877(10)
_cell_angle_alpha                90
_cell_angle_beta                 93.436(11)
_cell_angle_gamma                90
_cell_volume                     6220.2
_exptl_crystal_colour            colorless
_exptl_crystal_description       block
_cell_formula_units_Z            8
loop_
_atom_site_label
_atom_site_type_symbol
_atom_site_fract_x
_atom_site_fract_y
_atom_site_fract_z
B1 B 0.5327(6) 0.1624(5) 0.0765(4)
H1 H 0.5040 0.1148 0.0685
C1 C 0.6758(6) 0.2711(5) 0.1328(5)
H3 H 0.6554 0.2945 0.0927
H4 H 0.7300 0.2910 0.1461
H5 H 0.6375 0.2806 0.1662
C2 C 0.6827(5) 0.1897(5) 0.1224(4)
C3 C 0.7298(5) 0.0834(5) 0.1151(5)
C4 C 0.7896(6) 0.0201(5) 0.1209(5)
C5 C 0.8586(7) 0.0355(7) 0.0777(8)
H6 H 0.8975 -0.0053 0.0798
H7 H 0.8871 0.0804 0.0919
H8 H 0.8360 0.0416 0.0335
C6 C 0.8217(8) 0.0138(6) 0.1915(6)
H9 H 0.7758 0.0024 0.2181
H10 H 0.8468 0.0602 0.2055
H11 H 0.8628 -0.0252 0.1957
C7 C 0.7461(7) -0.0496(5) 0.1027(7)
H12 H 0.7227 -0.0461 0.0584
H13 H 0.7018 -0.0581 0.1316
H14 H 0.7852 -0.0903 0.1061
C8 C 0.4636(7) 0.1048(5) 0.2014(4)
H15 H 0.4512 0.1024 0.2467
H16 H 0.5202 0.0884 0.1966
H17 H 0.4256 0.0732 0.1761
C9 C 0.4544(5) 0.1810(5) 0.1783(4)
C10 C 0.4262(6) 0.2936(5) 0.1686(4)
C11 C 0.3945(6) 0.3685(5) 0.1842(5)
C12 C 0.4434(9) 0.4001(7) 0.2403(8)
H18 H 0.4422 0.3666 0.2768
H19 H 0.4196 0.4471 0.2518
H20 H 0.5004 0.4073 0.2291
C13 C 0.3072(7) 0.3628(6) 0.2017(7)
H21 H 0.2750 0.3369 0.1677
H22 H 0.2846 0.4119 0.2067
H23 H 0.3048 0.3360 0.2421
C14 C 0.3968(11) 0.4167(7) 0.1239(7)
H24 H 0.4536 0.4212 0.1115
H25 H 0.3751 0.4653 0.1332
H26 H 0.3630 0.3944 0.0887
C15 C 0.3818(6) 0.2084(5) -0.0158(4)
H27 H 0.3774 0.1680 0.0146
H28 H 0.3526 0.1956 -0.0567
H29 H 0.3572 0.2523 0.0018
C16 C 0.4658(5) 0.2217(5) -0.0259(4)
C17 C 0.5768(5) 0.2582(4) -0.0718(4)
C18 C 0.6310(5) 0.2897(4) -0.1195(4)
C19 C 0.6050(6) 0.3706(5) -0.1330(5)
H30 H 0.5461 0.3725 -0.1456
H31 H 0.6363 0.3902 -0.1677
H32 H 0.6161 0.3997 -0.0941
C20 C 0.6184(6) 0.2465(5) -0.1831(4)
H33 H 0.6348 0.1955 -0.1758
H34 H 0.6521 0.2681 -0.2155
H35 H 0.5603 0.2484 -0.1982
C21 C 0.7206(5) 0.2868(5) -0.0954(5)
H36 H 0.7284 0.3158 -0.0561
H37 H 0.7550 0.3065 -0.1282
H38 H 0.7363 0.2360 -0.0862
N1 N 0.6217(4) 0.1473(4) 0.0995(3)
N2 N 0.6526(4) 0.0773(4) 0.0956(3)
N3 N 0.7526(5) 0.1533(4) 0.1335(3)
N4 N 0.4858(4) 0.2060(3) 0.1245(3)
N5 N 0.4665(5) 0.2796(4) 0.1175(4)
N6 N 0.4150(5) 0.2343(4) 0.2077(3)
N7 N 0.5316(4) 0.2066(4) 0.0112(3)
N8 N 0.6016(4) 0.2292(4) -0.0159(3)
N9 N 0.4941(4) 0.2557(3) -0.0792(3)
H79 H 0.4636 0.2726 -0.1121
B2 B 0.9478(6) 0.6365(5) 0.0558(4)
H2 H 0.9743 0.5880 0.0493
C22 C 0.8310(6) 0.7456(5) 0.1292(5)
H39 H 0.7807 0.7701 0.1410
H40 H 0.8549 0.7724 0.0942
H41 H 0.8706 0.7440 0.1664
C23 C 0.8105(5) 0.6679(4) 0.1072(4)
C24 C 0.7493(5) 0.5695(4) 0.0862(4)
C25 C 0.6827(5) 0.5117(4) 0.0873(4)
C26 C 0.6821(8) 0.4803(6) 0.1546(5)
H42 H 0.6394 0.4427 0.1557
H43 H 0.6706 0.5192 0.1849
H44 H 0.7358 0.4585 0.1665
C27 C 0.6999(7) 0.4516(5) 0.0396(5)
H45 H 0.7472 0.4226 0.0560
H46 H 0.7121 0.4734 -0.0016
H47 H 0.6515 0.4199 0.0336
C28 C 0.5996(5) 0.5448(6) 0.0693(7)
H48 H 0.6024 0.5723 0.0292
H49 H 0.5839 0.5776 0.1035
H50 H 0.5586 0.5058 0.0633
C29 C 1.0954(6) 0.6593(6) -0.0343(5)
H51 H 1.1220 0.6723 0.0075
H52 H 1.1296 0.6762 -0.0685
H53 H 1.0890 0.6062 -0.0371
C30 C 1.0135(5) 0.6945(5) -0.0417(4)
C31 C 0.9136(5) 0.7625(4) -0.0782(4)
C32 C 0.8637(5) 0.8168(4) -0.1190(4)
C33 C 0.8606(5) 0.7938(5) -0.1883(4)
H54 H 0.9163 0.7827 -0.2006
H55 H 0.8375 0.8335 -0.2152
H56 H 0.8260 0.7503 -0.1941
C34 C 0.7769(5) 0.8228(5) -0.0964(5)
H57 H 0.7456 0.8585 -0.1229
H58 H 0.7793 0.8385 -0.0515
H59 H 0.7498 0.7751 -0.1003
C35 C 0.9070(7) 0.8928(5) -0.1123(5)
H60 H 0.9630 0.8890 -0.1267
H61 H 0.9093 0.9082 -0.0672
H62 H 0.8760 0.9288 -0.1386
C36 C 0.9914(6) 0.5906(5) 0.1985(5)
H63 H 0.9327 0.5912 0.2065
H64 H 1.0238 0.5828 0.2390
H65 H 1.0023 0.5510 0.1685
C37 C 1.0151(5) 0.6629(4) 0.1696(4)
C38 C 1.0559(5) 0.7701(5) 0.1558(4)
C39 C 1.0870(6) 0.8469(5) 0.1706(5)
C40 C 1.0231(7) 0.8820(6) 0.2125(7)
H66 H 0.9724 0.8916 0.1863
H67 H 1.0450 0.9280 0.2304
H68 H 1.0114 0.8487 0.2476
C41 C 1.0930(8) 0.8888(5) 0.1084(6)
H69 H 1.1311 0.8636 0.0813
H70 H 1.1134 0.9382 0.1179
H71 H 1.0386 0.8916 0.0859
C42 C 1.1700(6) 0.8449(6) 0.2073(5)
H72 H 1.1657 0.8169 0.2470
H73 H 1.1878 0.8948 0.2179
H74 H 1.2103 0.8216 0.1809
N10 N 0.8614(4) 0.6249(4) 0.0745(3)
N11 N 0.8203(4) 0.5605(3) 0.0624(3)
N12 N 0.7408(4) 0.6365(4) 0.1162(3)
N13 N 0.9501(4) 0.6829(4) -0.0083(3)
N14 N 0.8851(4) 0.7255(4) -0.0286(3)
N15 N 0.9918(4) 0.7450(4) -0.0861(3)
H80 H 1.0233 0.7631 -0.1150
N16 N 0.9991(4) 0.6795(3) 0.1084(3)
N17 N 1.0268(4) 0.7502(4) 0.0984(3)
N18 N 1.0525(4) 0.7174(4) 0.2019(3)
C43 C 0.1363(8) 0.4600(6) 0.0881(6)
H75 H 0.0952 0.4706 0.0524
H76 H 0.1792 0.4282 0.0714
Cl3 Cl 0.18159(17) 0.54272(14) 0.11632(14)
Cl4 Cl 0.08801(17) 0.41417(14) 0.14995(13)
Cl1 Cl 0.4804(2) 0.93373(16) 0.09806(17)
C44 C 0.3951(7) 0.9698(12) 0.0555(10)
H77 H 0.4037 1.0226 0.0485
H78 H 0.3884 0.9459 0.0130
Cl2 Cl 0.3071(3) 0.9571(6) 0.0964(3)
O1 O 0.6169(5) 0.7127(5) 0.1681(3)
H81 H 0.664(4) 0.696(7) 0.163(6)
H82 H 0.611(8) 0.716(7) 0.2081(16)
O2 O 0.9041(4) 0.2112(4) 0.1686(3)
H83 H 0.855(3) 0.196(6) 0.169(5)
H84 H 0.916(7) 0.211(6) 0.2085(14)
C45? C 0.3866(17) 0.946(3) 0.0556(18)
Cl5? Cl 0.3132(11) 1.0031(13) 0.0849(7)
H85? H 0.3983 0.9640 0.0124
H86? H 0.3611 0.8972 0.0497
loop_
_geom_bond_atom_site_label_1
_geom_bond_atom_site_label_2
_geom_bond_site_symmetry_1
_geom_bond_site_symmetry_2
B1 H1 1_555 1_555
B2 H2 1_555 1_555
C1 H3 1_555 1_555
H4 C1 1_555 1_555
H5 C1 1_555 1_555
C2 C1 1_555 1_555
C3 C4 1_555 1_555
C4 C5 1_555 1_555
C5 H6 1_555 1_555
H7 C5 1_555 1_555
H8 C5 1_555 1_555
C6 C4 1_555 1_555
H9 C6 1_555 1_555
H10 C6 1_555 1_555
H11 C6 1_555 1_555
C7 C4 1_555 1_555
H12 C7 1_555 1_555
H13 C7 1_555 1_555
H14 C7 1_555 1_555
C8 H15 1_555 1_555
H16 C8 1_555 1_555
H17 C8 1_555 1_555
C9 C8 1_555 1_555
C10 C11 1_555 1_555
C11 C12 1_555 1_555
C12 H18 1_555 1_555
H19 C12 1_555 1_555
H20 C12 1_555 1_555
C13 C11 1_555 1_555
H21 C13 1_555 1_555
H22 C13 1_555 1_555
H23 C13 1_555 1_555
C14 C11 1_555 1_555
H24 C14 1_555 1_555
H25 C14 1_555 1_555
H26 C14 1_555 1_555
C15 H27 1_555 1_555
H28 C15 1_555 1_555
H29 C15 1_555 1_555
C16 C15 1_555 1_555
C17 C18 1_555 1_555
C18 C19 1_555 1_555
C19 H30 1_555 1_555
H31 C19 1_555 1_555
H32 C19 1_555 1_555
C20 C18 1_555 1_555
H33 C20 1_555 1_555
H34 C20 1_555 1_555
H35 C20 1_555 1_555
C21 C18 1_555 1_555
H36 C21 1_555 1_555
H37 C21 1_555 1_555
H38 C21 1_555 1_555
C22 H39 1_555 1_555
H40 C22 1_555 1_555
H41 C22 1_555 1_555
C23 C22 1_555 1_555
C24 C25 1_555 1_555
C25 C26 1_555 1_555
C26 H42 1_555 1_555
H43 C26 1_555 1_555
H44 C26 1_555 1_555
C27 C25 1_555 1_555
H45 C27 1_555 1_555
H46 C27 1_555 1_555
H47 C27 1_555 1_555
C28 C25 1_555 1_555
H48 C28 1_555 1_555
H49 C28 1_555 1_555
H50 C28 1_555 1_555
C29 H51 1_555 1_555
H52 C29 1_555 1_555
H53 C29 1_555 1_555
C30 C29 1_555 1_555
C31 C32 1_555 1_555
C32 C33 1_555 1_555
C33 H54 1_555 1_555
H55 C33 1_555 1_555
H56 C33 1_555 1_555
C34 C32 1_555 1_555
H57 C34 1_555 1_555
H58 C34 1_555 1_555
H59 C34 1_555 1_555
C35 C32 1_555 1_555
H60 C35 1_555 1_555
H61 C35 1_555 1_555
H62 C35 1_555 1_555
C36 H63 1_555 1_555
H64 C36 1_555 1_555
H65 C36 1_555 1_555
C37 C36 1_555 1_555
C38 C39 1_555 1_555
C39 C40 1_555 1_555
C40 H66 1_555 1_555
H67 C40 1_555 1_555
H68 C40 1_555 1_555
C41 C39 1_555 1_555
H69 C41 1_555 1_555
H70 C41 1_555 1_555
H71 C41 1_555 1_555
C42 C39 1_555 1_555
H72 C42 1_555 1_555
H73 C42 1_555 1_555
H74 C42 1_555 1_555
C43 H75 1_555 1_555
H76 C43 1_555 1_555
Cl1 C44 1_555 1_555
C44 H77 1_555 1_555
H78 C44 1_555 1_555
Cl2 C44 1_555 1_555
Cl3 C43 1_555 1_555
Cl4 C43 1_555 1_555
N1 B1 1_555 1_555
N2 C3 1_555 1_555
N3 C2 1_555 1_555
N4 B1 1_555 1_555
N5 C10 1_555 1_555
N6 C9 1_555 1_555
N7 B1 1_555 1_555
N8 C17 1_555 1_555
N9 C16 1_555 1_555
H79 N9 1_555 1_555
N10 B2 1_555 1_555
N11 C24 1_555 1_555
N12 C23 1_555 1_555
N13 B2 1_555 1_555
N14 C31 1_555 1_555
N15 C30 1_555 1_555
H80 N15 1_555 1_555
N16 B2 1_555 1_555
N17 C38 1_555 1_555
N18 C37 1_555 1_555
O1 H81 1_555 1_555
H82 O1 1_555 1_555
O2 H83 1_555 1_555
H84 O2 1_555 1_555
C2 N1 1_555 1_555
C3 N3 1_555 1_555
C9 N4 1_555 1_555
C10 N6 1_555 1_555
C16 N7 1_555 1_555
C17 N9 1_555 1_555
C23 N10 1_555 1_555
C24 N12 1_555 1_555
C30 N13 1_555 1_555
C31 N15 1_555 1_555
C37 N16 1_555 1_555
C38 N18 1_555 1_555
N1 N2 1_555 1_555
N4 N5 1_555 1_555
N7 N8 1_555 1_555
N10 N11 1_555 1_555
N13 N14 1_555 1_555
N16 N17 1_555 1_555

#END
