
#######################################################################
#
#                 Cambridge Crystallographic Data Centre
#                                CCDC 
#
#######################################################################
#
# If this CIF has been generated from an entry in the Cambridge 
# Structural Database, then it will include bibliographic, chemical, 
# crystal, experimental, refinement or atomic coordinate data resulting 
# from the CCDC's data processing and validation procedures.
#
#######################################################################

data_OVEFAY
_chemical_formula_moiety         'C27 H25 N3'
_chemical_name_systematic        
4-(((4-(dimethylamino)phenyl)imino)methyl)-N,N-diphenylaniline
_symmetry_cell_setting           monoclinic
_symmetry_space_group_name_H-M   'P 21/c'
_symmetry_Int_Tables_number      14
_space_group_name_Hall           '-P 2ybc'
loop_
_symmetry_equiv_pos_site_id
_symmetry_equiv_pos_as_xyz
1 x,y,z
2 -x,1/2+y,1/2-z
3 -x,-y,-z
4 x,1/2-y,1/2+z
_cell_length_a                   7.6197(18)
_cell_length_b                   18.829(5)
_cell_length_c                   15.360(4)
_cell_angle_alpha                90
_cell_angle_beta                 90.93(2)
_cell_angle_gamma                90
_cell_volume                     2203.43
_cell_formula_units_Z            4
loop_
_atom_site_label
_atom_site_type_symbol
_atom_site_fract_x
_atom_site_fract_y
_atom_site_fract_z
C1 C 0.3206(5) 0.6006(2) 0.32637(19)
C2 C 0.4189(5) 0.6608(2) 0.3437(2)
H1 H 0.5381 0.6570 0.3569
C3 C 0.3383(7) 0.7272(2) 0.3414(2)
H2 H 0.4043 0.7679 0.3520
C4 C 0.1628(8) 0.7328(3) 0.3237(3)
H3 H 0.1091 0.7771 0.3229
C5 C 0.0659(6) 0.6728(3) 0.3071(2)
H4 H -0.0538 0.6768 0.2952
C6 C 0.1438(5) 0.6070(2) 0.3077(2)
H5 H 0.0771 0.5667 0.2955
C7 C 0.3075(4) 0.4778(2) 0.3762(2)
C8 C 0.2705(4) 0.4901(2) 0.4627(2)
H6 H 0.3103 0.5313 0.4900
C9 C 0.1743(5) 0.4411(3) 0.5081(3)
H7 H 0.1494 0.4495 0.5663
C10 C 0.1153(5) 0.3808(3) 0.4694(3)
H8 H 0.0495 0.3484 0.5007
C11 C 0.1531(5) 0.3676(2) 0.3832(3)
H9 H 0.1142 0.3261 0.3565
C12 C 0.2498(4) 0.4170(2) 0.3367(2)
H10 H 0.2753 0.4085 0.2786
C13 C 0.5485(4) 0.51452(17) 0.28047(18)
C14 C 0.6427(4) 0.45276(17) 0.29853(19)
H11 H 0.6083 0.4236 0.3441
C15 C 0.7854(4) 0.43419(17) 0.25009(19)
H12 H 0.8450 0.3922 0.2626
C16 C 0.8423(4) 0.47714(18) 0.18262(18)
C17 C 0.7508(4) 0.53968(18) 0.16568(19)
H13 H 0.7881 0.5696 0.1215
C18 C 0.6054(4) 0.55822(17) 0.21335(19)
H14 H 0.5453 0.6000 0.2006
C19 C 0.9902(4) 0.45615(18) 0.12998(18)
H15 H 1.0376 0.4893 0.0921
C20 C 1.2060(4) 0.37680(17) 0.08231(18)
C21 C 1.2102(4) 0.31141(18) 0.0422(2)
H16 H 1.1161 0.2806 0.0491
C22 C 1.3487(4) 0.29032(17) -0.0076(2)
H17 H 1.3450 0.2465 -0.0354
C23 C 1.4942(4) 0.33379(18) -0.01688(19)
C24 C 1.4947(4) 0.39923(18) 0.02573(19)
H18 H 1.5919 0.4288 0.0218
C25 C 1.3513(4) 0.42059(17) 0.07390(18)
H19 H 1.3527 0.4648 0.1009
C26 C 1.6434(5) 0.2407(2) -0.0985(3)
H20 H 1.6457 0.2084 -0.0501
H21 H 1.7479 0.2347 -0.1318
H22 H 1.5424 0.2310 -0.1347
C27 C 1.7893(4) 0.3555(2) -0.0709(2)
H23 H 1.7583 0.4016 -0.0929
H24 H 1.8729 0.3338 -0.1087
H25 H 1.8400 0.3602 -0.0135
N1 N 0.3992(3) 0.53159(15) 0.32908(16)
N2 N 1.0578(3) 0.39439(15) 0.13353(16)
N3 N 1.6348(3) 0.31197(16) -0.06707(18)
loop_
_geom_bond_atom_site_label_1
_geom_bond_atom_site_label_2
_geom_bond_site_symmetry_1
_geom_bond_site_symmetry_2
C1 C2 1_555 1_555
C2 H1 1_555 1_555
C3 C2 1_555 1_555
H2 C3 1_555 1_555
C4 C3 1_555 1_555
H3 C4 1_555 1_555
C5 C4 1_555 1_555
H4 C5 1_555 1_555
C6 C1 1_555 1_555
H5 C6 1_555 1_555
C7 C8 1_555 1_555
C8 H6 1_555 1_555
C9 C8 1_555 1_555
H7 C9 1_555 1_555
C10 C9 1_555 1_555
H8 C10 1_555 1_555
C11 C10 1_555 1_555
H9 C11 1_555 1_555
C12 C7 1_555 1_555
H10 C12 1_555 1_555
C13 C14 1_555 1_555
C14 H11 1_555 1_555
C15 C14 1_555 1_555
H12 C15 1_555 1_555
C16 C15 1_555 1_555
C17 C16 1_555 1_555
H13 C17 1_555 1_555
C18 C13 1_555 1_555
H14 C18 1_555 1_555
C19 C16 1_555 1_555
H15 C19 1_555 1_555
C20 C21 1_555 1_555
C21 H16 1_555 1_555
C22 C21 1_555 1_555
H17 C22 1_555 1_555
C23 C22 1_555 1_555
C24 C23 1_555 1_555
H18 C24 1_555 1_555
C25 C20 1_555 1_555
H19 C25 1_555 1_555
C26 H20 1_555 1_555
H21 C26 1_555 1_555
H22 C26 1_555 1_555
C27 H23 1_555 1_555
H24 C27 1_555 1_555
H25 C27 1_555 1_555
N1 C1 1_555 1_555
N2 C19 1_555 1_555
N3 C23 1_555 1_555
C5 C6 1_555 1_555
C7 N1 1_555 1_555
C11 C12 1_555 1_555
C13 N1 1_555 1_555
C17 C18 1_555 1_555
C20 N2 1_555 1_555
C24 C25 1_555 1_555
C26 N3 1_555 1_555
C27 N3 1_555 1_555

#END
