
#######################################################################
#
#                 Cambridge Crystallographic Data Centre
#                                CCDC 
#
#######################################################################
#
# If this CIF has been generated from an entry in the Cambridge 
# Structural Database, then it will include bibliographic, chemical, 
# crystal, experimental, refinement or atomic coordinate data resulting 
# from the CCDC's data processing and validation procedures.
#
#######################################################################

data_OVEPIQ
_chemical_formula_moiety         'C28 H24'
_chemical_name_systematic        2,7,10,15-tetramethyltetraphenylene
_symmetry_cell_setting           monoclinic
_symmetry_space_group_name_H-M   'P 21/n'
_symmetry_Int_Tables_number      14
_space_group_name_Hall           '-P 2yn'
loop_
_symmetry_equiv_pos_site_id
_symmetry_equiv_pos_as_xyz
1 x,y,z
2 1/2-x,1/2+y,1/2-z
3 -x,-y,-z
4 1/2+x,1/2-y,1/2+z
_cell_length_a                   9.1784(16)
_cell_length_b                   15.857(3)
_cell_length_c                   14.243(2)
_cell_angle_alpha                90
_cell_angle_beta                 94.429(3)
_cell_angle_gamma                90
_cell_volume                     2066.76
_exptl_crystal_colour            colorless
_exptl_crystal_description       block
_cell_formula_units_Z            4
loop_
_atom_site_label
_atom_site_type_symbol
_atom_site_fract_x
_atom_site_fract_y
_atom_site_fract_z
C1 C 0.6545(6) 0.0703(4) 1.1435(4)
H1 H 0.7393 0.0349 1.1521
H2 H 0.5691 0.0358 1.1314
H3 H 0.6453 0.1030 1.1994
C2 C 0.6695(5) 0.1276(3) 1.0625(3)
C3 C 0.5643(5) 0.1296(3) 0.9882(4)
H4 H 0.4835 0.0942 0.9886
C4 C 0.5771(5) 0.1836(3) 0.9131(3)
H5 H 0.5043 0.1839 0.8639
C5 C 0.6987(4) 0.2387(3) 0.9092(3)
C6 C 0.8070(4) 0.2362(3) 0.9838(3)
C7 C 0.7893(5) 0.1811(3) 1.0589(3)
H6 H 0.8610 0.1801 1.1088
C8 C 0.9302(4) 0.2946(3) 0.9890(3)
C9 C 1.0316(4) 0.2983(3) 0.9202(3)
C10 C 1.1459(5) 0.3570(3) 0.9316(3)
H7 H 1.2132 0.3605 0.8862
C11 C 1.1605(5) 0.4100(3) 1.0093(4)
H8 H 1.2361 0.4492 1.0144
C12 C 1.0652(5) 0.4053(3) 1.0783(3)
C13 C 0.9514(5) 0.3472(3) 1.0676(3)
H9 H 0.8869 0.3432 1.1147
C14 C 1.0852(7) 0.4608(4) 1.1652(4)
H10 H 1.1168 0.4269 1.2188
H11 H 0.9941 0.4875 1.1760
H12 H 1.1574 0.5032 1.1558
C15 C 0.6953(4) 0.2991(3) 0.8305(3)
C16 C 0.5811(5) 0.3578(3) 0.8209(3)
H13 H 0.5130 0.3594 0.8659
C17 C 0.5669(5) 0.4134(3) 0.7460(4)
H14 H 0.4903 0.4520 0.7424
C18 C 0.6635(5) 0.4131(3) 0.6767(4)
C19 C 0.7760(5) 0.3539(3) 0.6852(3)
H15 H 0.8404 0.3510 0.6381
C20 C 0.7962(4) 0.2984(3) 0.7618(3)
C21 C 0.9228(5) 0.2391(3) 0.7644(3)
C22 C 0.9370(5) 0.1866(3) 0.6878(3)
H16 H 0.8643 0.1867 0.6385
C23 C 1.0576(5) 0.1336(3) 0.6828(3)
C24 C 1.1624(5) 0.1333(3) 0.7568(4)
H17 H 1.2434 0.0982 0.7549
C25 C 1.1490(5) 0.1849(3) 0.8346(3)
H18 H 1.2203 0.1827 0.8846
C26 C 1.0320(4) 0.2395(3) 0.8395(3)
C27 C 0.6461(7) 0.4720(5) 0.5951(5)
H19 H 0.6040 0.4424 0.5408
H20 H 0.7399 0.4939 0.5821
H21 H 0.5831 0.5177 0.6098
C28 C 1.0746(7) 0.0786(4) 0.5986(4)
H22 H 1.1599 0.0439 0.6098
H23 H 1.0849 0.1134 0.5443
H24 H 0.9899 0.0434 0.5877
loop_
_geom_bond_atom_site_label_1
_geom_bond_atom_site_label_2
_geom_bond_site_symmetry_1
_geom_bond_site_symmetry_2
C1 H1 1_555 1_555
H2 C1 1_555 1_555
H3 C1 1_555 1_555
C2 C1 1_555 1_555
C3 C2 1_555 1_555
H4 C3 1_555 1_555
C4 C3 1_555 1_555
H5 C4 1_555 1_555
C5 C4 1_555 1_555
C6 C5 1_555 1_555
C7 C2 1_555 1_555
H6 C7 1_555 1_555
C8 C6 1_555 1_555
C9 C8 1_555 1_555
C10 C9 1_555 1_555
H7 C10 1_555 1_555
C11 C10 1_555 1_555
H8 C11 1_555 1_555
C12 C11 1_555 1_555
C13 C8 1_555 1_555
H9 C13 1_555 1_555
C14 C12 1_555 1_555
H10 C14 1_555 1_555
H11 C14 1_555 1_555
H12 C14 1_555 1_555
C15 C5 1_555 1_555
C16 C15 1_555 1_555
H13 C16 1_555 1_555
C17 C16 1_555 1_555
H14 C17 1_555 1_555
C18 C17 1_555 1_555
C19 C18 1_555 1_555
H15 C19 1_555 1_555
C20 C15 1_555 1_555
C21 C20 1_555 1_555
C22 C21 1_555 1_555
H16 C22 1_555 1_555
C23 C22 1_555 1_555
C24 C23 1_555 1_555
H17 C24 1_555 1_555
C25 C24 1_555 1_555
H18 C25 1_555 1_555
C26 C9 1_555 1_555
C27 C18 1_555 1_555
H19 C27 1_555 1_555
H20 C27 1_555 1_555
H21 C27 1_555 1_555
C28 C23 1_555 1_555
H22 C28 1_555 1_555
H23 C28 1_555 1_555
H24 C28 1_555 1_555
C6 C7 1_555 1_555
C12 C13 1_555 1_555
C19 C20 1_555 1_555
C21 C26 1_555 1_555
C25 C26 1_555 1_555

#END
