
#######################################################################
#
#                 Cambridge Crystallographic Data Centre
#                                CCDC 
#
#######################################################################
#
# If this CIF has been generated from an entry in the Cambridge 
# Structural Database, then it will include bibliographic, chemical, 
# crystal, experimental, refinement or atomic coordinate data resulting 
# from the CCDC's data processing and validation procedures.
#
#######################################################################

data_OVEQIR
_chemical_formula_moiety         'C26 H20 O2'
_chemical_name_systematic        2,10-dimethoxytetraphenylene
_symmetry_cell_setting           monoclinic
_symmetry_space_group_name_H-M   'C 2/c'
_symmetry_Int_Tables_number      15
_space_group_name_Hall           '-C 2yn'
loop_
_symmetry_equiv_pos_site_id
_symmetry_equiv_pos_as_xyz
1 x,y,z
2 -x,y,1/2-z
3 1/2+x,1/2+y,z
4 1/2-x,1/2+y,1/2-z
5 -x,-y,-z
6 x,-y,1/2+z
7 1/2-x,1/2-y,-z
8 1/2+x,1/2-y,1/2+z
_cell_length_a                   15.011(4)
_cell_length_b                   14.309(4)
_cell_length_c                   18.446(6)
_cell_angle_alpha                90
_cell_angle_beta                 92.939(9)
_cell_angle_gamma                90
_cell_volume                     3956.85
_cell_formula_units_Z            8
loop_
_atom_site_label
_atom_site_type_symbol
_atom_site_fract_x
_atom_site_fract_y
_atom_site_fract_z
C1 C 0.7095(4) 0.9049(4) 0.5048(2)
H1 H 0.7644 0.8708 0.5121
H2 H 0.6667 0.8816 0.5372
H3 H 0.7202 0.9700 0.5143
C2 C 0.7221(2) 0.9297(2) 0.37776(16)
C3 C 0.6854(2) 0.9137(2) 0.30857(16)
H4 H 0.6320 0.8807 0.3030
C4 C 0.72574(18) 0.94531(19) 0.24710(15)
C5 C 0.80567(19) 0.99611(19) 0.25517(16)
C6 C 0.8412(2) 1.0121(2) 0.32530(17)
H5 H 0.8939 1.0461 0.3313
C7 C 0.8012(2) 0.9793(2) 0.38647(17)
H6 H 0.8271 0.9904 0.4326
C8 C 0.85177(18) 1.0354(2) 0.19222(16)
C9 C 0.8663(2) 1.1318(2) 0.18833(19)
H7 H 0.8446 1.1705 0.2239
C10 C 0.9120(2) 1.1707(2) 0.1328(2)
H8 H 0.9209 1.2350 0.1313
C11 C 0.9449(2) 1.1145(3) 0.0794(2)
H9 H 0.9753 1.1403 0.0416
C12 C 0.9315(2) 1.0186(2) 0.08322(18)
H10 H 0.9540 0.9804 0.0477
C13 C 0.88547(18) 0.9782(2) 0.13848(16)
C14 C 0.88273(18) 0.8734(2) 0.14255(15)
C15 C 0.9645(2) 0.8267(2) 0.15036(16)
H11 H 1.0170 0.8612 0.1545
C16 C 0.9687(2) 0.7303(2) 0.15198(17)
C17 C 0.8894(2) 0.6792(2) 0.14589(17)
H12 H 0.8911 0.6143 0.1476
C18 C 0.8093(2) 0.7247(2) 0.13745(17)
H13 H 0.7572 0.6896 0.1327
C19 C 0.80314(19) 0.8222(2) 0.13572(15)
C20 C 0.71404(19) 0.8672(2) 0.12349(16)
C21 C 0.6619(2) 0.8444(3) 0.06112(18)
H14 H 0.6845 0.8040 0.0271
C22 C 0.5774(3) 0.8809(3) 0.0492(2)
H15 H 0.5433 0.8647 0.0076
C23 C 0.5436(2) 0.9412(3) 0.09876(19)
H16 H 0.4872 0.9671 0.0901
C24 C 0.5932(2) 0.9635(2) 0.16140(17)
H17 H 0.5696 1.0038 0.1950
C25 C 0.67835(19) 0.9263(2) 0.17487(15)
C26 C 1.1277(2) 0.7305(3) 0.1645(2)
H18 H 1.1333 0.7672 0.1214
H19 H 1.1763 0.6869 0.1693
H20 H 1.1289 0.7709 0.2060
O1 O 0.67615(18) 0.8933(2) 0.43217(12)
O2 O 1.04552(15) 0.68066(16) 0.15952(15)
loop_
_geom_bond_atom_site_label_1
_geom_bond_atom_site_label_2
_geom_bond_site_symmetry_1
_geom_bond_site_symmetry_2
C1 H1 1_555 1_555
H2 C1 1_555 1_555
H3 C1 1_555 1_555
C2 C3 1_555 1_555
C3 H4 1_555 1_555
C4 C3 1_555 1_555
C5 C4 1_555 1_555
C6 C5 1_555 1_555
H5 C6 1_555 1_555
C7 C2 1_555 1_555
H6 C7 1_555 1_555
C8 C5 1_555 1_555
C9 C8 1_555 1_555
H7 C9 1_555 1_555
C10 C9 1_555 1_555
H8 C10 1_555 1_555
C11 C10 1_555 1_555
H9 C11 1_555 1_555
C12 C11 1_555 1_555
H10 C12 1_555 1_555
C13 C8 1_555 1_555
C14 C13 1_555 1_555
C15 C14 1_555 1_555
H11 C15 1_555 1_555
C16 C15 1_555 1_555
C17 C16 1_555 1_555
H12 C17 1_555 1_555
C18 C17 1_555 1_555
H13 C18 1_555 1_555
C19 C14 1_555 1_555
C20 C19 1_555 1_555
C21 C20 1_555 1_555
H14 C21 1_555 1_555
C22 C21 1_555 1_555
H15 C22 1_555 1_555
C23 C22 1_555 1_555
H16 C23 1_555 1_555
C24 C23 1_555 1_555
H17 C24 1_555 1_555
C25 C4 1_555 1_555
C26 H18 1_555 1_555
H19 C26 1_555 1_555
H20 C26 1_555 1_555
O1 C1 1_555 1_555
O2 C16 1_555 1_555
C2 O1 1_555 1_555
C6 C7 1_555 1_555
C12 C13 1_555 1_555
C18 C19 1_555 1_555
C20 C25 1_555 1_555
C24 C25 1_555 1_555
C26 O2 1_555 1_555

#END
