
#######################################################################
#
#                 Cambridge Crystallographic Data Centre
#                                CCDC 
#
#######################################################################
#
# If this CIF has been generated from an entry in the Cambridge 
# Structural Database, then it will include bibliographic, chemical, 
# crystal, experimental, refinement or atomic coordinate data resulting 
# from the CCDC's data processing and validation procedures.
#
#######################################################################

data_OVIKEL
_chemical_formula_moiety         'C27 H24 O2 Si1'
_chemical_name_systematic        
(R)-(3,4-dihydro-2H-chromen-4-yloxy)(triphenyl)silane
_symmetry_cell_setting           monoclinic
_symmetry_space_group_name_H-M   'P 21'
_symmetry_Int_Tables_number      4
_space_group_name_Hall           'P 2yb'
loop_
_symmetry_equiv_pos_site_id
_symmetry_equiv_pos_as_xyz
1 x,y,z
2 -x,1/2+y,-z
_cell_length_a                   11.0421(6)
_cell_length_b                   7.5831(4)
_cell_length_c                   12.9825(7)
_cell_angle_alpha                90
_cell_angle_beta                 92.9590(10)
_cell_angle_gamma                90
_cell_volume                     1085.62
_exptl_crystal_colour            colorless
_exptl_crystal_description       plate
_cell_formula_units_Z            2
loop_
_atom_site_label
_atom_site_type_symbol
_atom_site_fract_x
_atom_site_fract_y
_atom_site_fract_z
Si1 Si 0.24403(4) 0.57150(6) 0.23139(4)
O1 O 0.31460(10) 0.45609(16) 0.32243(9)
O2 O 0.50416(12) 0.1866(2) 0.50339(11)
C1 C 0.37298(16) 0.2868(2) 0.31280(15)
H1 H 0.3537 0.2380 0.2423
C2 C 0.32378(17) 0.1650(3) 0.39225(15)
H2 H 0.2343 0.1739 0.3907
H3 H 0.3456 0.0416 0.3766
C3 C 0.37631(17) 0.2152(3) 0.49738(15)
H4 H 0.3591 0.3410 0.5109
H5 H 0.3380 0.1438 0.5506
C4 C 0.56533(16) 0.2487(2) 0.42249(16)
C5 C 0.69109(18) 0.2495(3) 0.43587(18)
H6 H 0.7292 0.2082 0.4986
C6 C 0.75941(19) 0.3096(3) 0.3588(2)
H7 H 0.8453 0.3094 0.3681
C7 C 0.7055(2) 0.3706(3) 0.2675(2)
H8 H 0.7536 0.4155 0.2149
C8 C 0.58087(19) 0.3657(3) 0.25331(17)
H9 H 0.5437 0.4051 0.1898
C9 C 0.50833(16) 0.3040(2) 0.33039(14)
C10 C 0.34687(18) 0.7382(2) 0.17735(15)
C11 C 0.45520(18) 0.7825(3) 0.23114(17)
H10 H 0.4782 0.7218 0.2931
C12 C 0.5298(2) 0.9138(3) 0.1955(2)
H11 H 0.6035 0.9420 0.2329
C13 C 0.4975(3) 1.0033(3) 0.1062(3)
H12 H 0.5483 1.0943 0.0827
C14 C 0.3920(3) 0.9616(3) 0.0510(2)
H13 H 0.3702 1.0221 -0.0113
C15 C 0.3181(2) 0.8311(3) 0.08668(16)
H14 H 0.2450 0.8035 0.0482
C16 C 0.18067(18) 0.4223(2) 0.12741(16)
C17 C 0.2336(2) 0.4057(3) 0.03232(17)
H15 H 0.3044 0.4720 0.0202
C18 C 0.1860(3) 0.2959(4) -0.0445(2)
H16 H 0.2236 0.2878 -0.1085
C19 C 0.0844(3) 0.1992(4) -0.0278(2)
H17 H 0.0506 0.1248 -0.0807
C20 C 0.0312(3) 0.2092(3) 0.0651(2)
H18 H -0.0383 0.1398 0.0771
C21 C 0.0788(2) 0.3207(3) 0.14166(18)
H19 H 0.0405 0.3275 0.2054
C22 C 0.11740(15) 0.6841(3) 0.29512(14)
C23 C 0.05827(16) 0.6039(3) 0.37475(16)
H20 H 0.0865 0.4929 0.3999
C24 C -0.03950(18) 0.6801(3) 0.41806(18)
H21 H -0.0779 0.6215 0.4722
C25 C -0.08230(19) 0.8415(3) 0.38335(18)
H22 H -0.1507 0.8940 0.4125
C26 C -0.0246(2) 0.9248(3) 0.30621(17)
H23 H -0.0529 1.0366 0.2822
C27 C 0.07426(19) 0.8481(3) 0.26285(15)
H24 H 0.1135 0.9087 0.2099
loop_
_geom_bond_atom_site_label_1
_geom_bond_atom_site_label_2
_geom_bond_site_symmetry_1
_geom_bond_site_symmetry_2
Si1 O1 1_555 1_555
O1 C1 1_555 1_555
O2 C3 1_555 1_555
C1 H1 1_555 1_555
C2 C1 1_555 1_555
H2 C2 1_555 1_555
H3 C2 1_555 1_555
C3 C2 1_555 1_555
H4 C3 1_555 1_555
H5 C3 1_555 1_555
C4 O2 1_555 1_555
C5 C4 1_555 1_555
H6 C5 1_555 1_555
C6 C5 1_555 1_555
H7 C6 1_555 1_555
C7 C6 1_555 1_555
H8 C7 1_555 1_555
C8 C7 1_555 1_555
H9 C8 1_555 1_555
C9 C1 1_555 1_555
C10 Si1 1_555 1_555
C11 C10 1_555 1_555
H10 C11 1_555 1_555
C12 C11 1_555 1_555
H11 C12 1_555 1_555
C13 C12 1_555 1_555
H12 C13 1_555 1_555
C14 C13 1_555 1_555
H13 C14 1_555 1_555
C15 C10 1_555 1_555
H14 C15 1_555 1_555
C16 Si1 1_555 1_555
C17 C16 1_555 1_555
H15 C17 1_555 1_555
C18 C17 1_555 1_555
H16 C18 1_555 1_555
C19 C18 1_555 1_555
H17 C19 1_555 1_555
C20 C19 1_555 1_555
H18 C20 1_555 1_555
C21 C16 1_555 1_555
H19 C21 1_555 1_555
C22 Si1 1_555 1_555
C23 C22 1_555 1_555
H20 C23 1_555 1_555
C24 C23 1_555 1_555
H21 C24 1_555 1_555
C25 C24 1_555 1_555
H22 C25 1_555 1_555
C26 C25 1_555 1_555
H23 C26 1_555 1_555
C27 C22 1_555 1_555
H24 C27 1_555 1_555
C4 C9 1_555 1_555
C8 C9 1_555 1_555
C14 C15 1_555 1_555
C20 C21 1_555 1_555
C26 C27 1_555 1_555

#END
