
#######################################################################
#
#                 Cambridge Crystallographic Data Centre
#                                CCDC 
#
#######################################################################
#
# If this CIF has been generated from an entry in the Cambridge 
# Structural Database, then it will include bibliographic, chemical, 
# crystal, experimental, refinement or atomic coordinate data resulting 
# from the CCDC's data processing and validation procedures.
#
#######################################################################

data_OVINOX
_chemical_formula_moiety         'C31 H35 N2 S1 1+,Cl1 1-'
_chemical_name_systematic        
'2,6-Di-isopropyl-N-(2-((2-(phenylsulfanyl)phenyl)amino)benzyl)anilinium chloride'
_symmetry_cell_setting           monoclinic
_symmetry_space_group_name_H-M   'P 21/n'
_symmetry_Int_Tables_number      14
_space_group_name_Hall           '-P 2yn'
loop_
_symmetry_equiv_pos_site_id
_symmetry_equiv_pos_as_xyz
1 x,y,z
2 1/2-x,1/2+y,1/2-z
3 -x,-y,-z
4 1/2+x,1/2-y,1/2+z
_cell_length_a                   11.802(5)
_cell_length_b                   10.335(5)
_cell_length_c                   23.884(11)
_cell_angle_alpha                90
_cell_angle_beta                 103.704(7)
_cell_angle_gamma                90
_cell_volume                     2830.29
_exptl_crystal_colour            yellow
_exptl_crystal_description       block
_cell_formula_units_Z            4
loop_
_atom_site_label
_atom_site_type_symbol
_atom_site_fract_x
_atom_site_fract_y
_atom_site_fract_z
Cl1 Cl 0.50401(8) 0.69039(9) 0.01153(4)
N1 N 0.2284(3) 0.7442(3) -0.03635(14)
H1 H 0.301(3) 0.724(3) -0.0204(13)
N2 N 0.3623(3) 0.4816(3) 0.05702(12)
H2 H 0.400(3) 0.566(4) 0.0522(15)
H3 H 0.403(3) 0.416(3) 0.0441(14)
S1 S 0.02370(9) 0.74809(12) -0.14313(5)
C1 C 0.1034(4) 0.6354(4) -0.17422(16)
C2 C 0.2181(4) 0.6499(4) -0.17644(18)
H4 H 0.2595 0.7226 -0.1601
C3 C 0.2721(5) 0.5577(6) -0.2026(2)
H5 H 0.3498 0.5682 -0.2037
C4 C 0.2119(7) 0.4508(6) -0.2269(3)
H6 H 0.2486 0.3886 -0.2445
C5 C 0.0976(7) 0.4354(6) -0.2253(2)
H7 H 0.0566 0.3626 -0.2419
C6 C 0.0429(5) 0.5273(5) -0.1992(2)
H8 H -0.0349 0.5166 -0.1983
C7 C 0.1257(3) 0.8730(4) -0.11847(16)
C8 C 0.2133(3) 0.8604(4) -0.06850(15)
C9 C 0.2930(4) 0.9598(4) -0.05269(18)
H9 H 0.3533 0.9511 -0.0199
C10 C 0.2842(4) 1.0723(5) -0.0851(2)
H10 H 0.3381 1.1386 -0.0740
C11 C 0.1960(5) 1.0852(5) -0.1333(2)
H11 H 0.1894 1.1609 -0.1549
C12 C 0.1170(4) 0.9872(4) -0.15022(18)
H12 H 0.0572 0.9971 -0.1832
C13 C 0.1551(3) 0.7132(4) 0.00081(14)
C14 C 0.1644(3) 0.5921(4) 0.02756(14)
C15 C 0.0901(3) 0.5629(4) 0.06340(16)
H13 H 0.0946 0.4822 0.0810
C16 C 0.0100(3) 0.6527(5) 0.07301(17)
H14 H -0.0382 0.6326 0.0974
C17 C 0.0016(3) 0.7702(5) 0.04692(16)
H15 H -0.0526 0.8304 0.0533
C18 C 0.0734(3) 0.8000(4) 0.01093(16)
H16 H 0.0667 0.8805 -0.0070
C19 C 0.2442(3) 0.4887(3) 0.01465(15)
H17 H 0.2564 0.5038 -0.0236
H18 H 0.2058 0.4056 0.0141
C20 C 0.3586(3) 0.4531(4) 0.11746(14)
C21 C 0.3448(3) 0.3254(4) 0.13228(15)
C22 C 0.3408(3) 0.3023(4) 0.18964(18)
H19 H 0.3312 0.2182 0.2016
C23 C 0.3510(4) 0.4022(5) 0.22845(17)
H20 H 0.3488 0.3850 0.2664
C24 C 0.3644(3) 0.5258(4) 0.21202(17)
H21 H 0.3709 0.5918 0.2391
C25 C 0.3686(3) 0.5569(4) 0.15599(15)
C26 C 0.3376(3) 0.2101(4) 0.09230(16)
H22 H 0.3368 0.2435 0.0538
C27 C 0.2262(3) 0.1329(4) 0.08769(19)
H23 H 0.2253 0.0972 0.1247
H24 H 0.2230 0.0640 0.0604
H25 H 0.1600 0.1886 0.0751
C28 C 0.4452(3) 0.1233(4) 0.11087(19)
H26 H 0.5142 0.1732 0.1118
H27 H 0.4404 0.0535 0.0839
H28 H 0.4483 0.0889 0.1485
C29 C 0.3885(3) 0.6972(4) 0.14111(16)
H29 H 0.3720 0.7048 0.0991
C30 C 0.5145(3) 0.7354(4) 0.16552(18)
H30 H 0.5340 0.7229 0.2065
H31 H 0.5250 0.8248 0.1570
H32 H 0.5644 0.6828 0.1485
C31 C 0.3069(4) 0.7882(4) 0.16273(19)
H33 H 0.2277 0.7606 0.1482
H34 H 0.3160 0.8744 0.1496
H35 H 0.3253 0.7870 0.2041
loop_
_geom_bond_atom_site_label_1
_geom_bond_atom_site_label_2
_geom_bond_site_symmetry_1
_geom_bond_site_symmetry_2
N1 H1 1_555 1_555
N2 H2 1_555 1_555
H3 N2 1_555 1_555
S1 C1 1_555 1_555
C1 C2 1_555 1_555
C2 H4 1_555 1_555
C3 C2 1_555 1_555
H5 C3 1_555 1_555
C4 C3 1_555 1_555
H6 C4 1_555 1_555
C5 C4 1_555 1_555
H7 C5 1_555 1_555
C6 C1 1_555 1_555
H8 C6 1_555 1_555
C7 S1 1_555 1_555
C8 N1 1_555 1_555
C9 C8 1_555 1_555
H9 C9 1_555 1_555
C10 C9 1_555 1_555
H10 C10 1_555 1_555
C11 C10 1_555 1_555
H11 C11 1_555 1_555
C12 C7 1_555 1_555
H12 C12 1_555 1_555
C13 N1 1_555 1_555
C14 C13 1_555 1_555
C15 C14 1_555 1_555
H13 C15 1_555 1_555
C16 C15 1_555 1_555
H14 C16 1_555 1_555
C17 C16 1_555 1_555
H15 C17 1_555 1_555
C18 C13 1_555 1_555
H16 C18 1_555 1_555
C19 N2 1_555 1_555
H17 C19 1_555 1_555
H18 C19 1_555 1_555
C20 N2 1_555 1_555
C21 C20 1_555 1_555
C22 C21 1_555 1_555
H19 C22 1_555 1_555
C23 C22 1_555 1_555
H20 C23 1_555 1_555
C24 C23 1_555 1_555
H21 C24 1_555 1_555
C25 C20 1_555 1_555
C26 C21 1_555 1_555
H22 C26 1_555 1_555
C27 C26 1_555 1_555
H23 C27 1_555 1_555
H24 C27 1_555 1_555
H25 C27 1_555 1_555
C28 C26 1_555 1_555
H26 C28 1_555 1_555
H27 C28 1_555 1_555
H28 C28 1_555 1_555
C29 C25 1_555 1_555
H29 C29 1_555 1_555
C30 C29 1_555 1_555
H30 C30 1_555 1_555
H31 C30 1_555 1_555
H32 C30 1_555 1_555
C31 C29 1_555 1_555
H33 C31 1_555 1_555
H34 C31 1_555 1_555
H35 C31 1_555 1_555
C5 C6 1_555 1_555
C7 C8 1_555 1_555
C11 C12 1_555 1_555
C14 C19 1_555 1_555
C17 C18 1_555 1_555
C24 C25 1_555 1_555

#END
