
#######################################################################
#
#                 Cambridge Crystallographic Data Centre
#                                CCDC 
#
#######################################################################
#
# If this CIF has been generated from an entry in the Cambridge 
# Structural Database, then it will include bibliographic, chemical, 
# crystal, experimental, refinement or atomic coordinate data resulting 
# from the CCDC's data processing and validation procedures.
#
#######################################################################

data_OVOFIP
_chemical_compound_source        'roots of Iris tenuifolia'
_chemical_name_common            5,2',3'-trihydroxy-7-methoxyflavanone
_chemical_formula_moiety         'C16 H14 O6'
_chemical_name_systematic        
2-(2,3-Dihydroxyphenyl)-5-hydroxy-7-methoxy-2,3-dihydro-4H-chromen-4-one
_symmetry_cell_setting           orthorhombic
_symmetry_space_group_name_H-M   'P 21 21 21'
_symmetry_Int_Tables_number      19
_space_group_name_Hall           'P 2ac 2ab'
loop_
_symmetry_equiv_pos_site_id
_symmetry_equiv_pos_as_xyz
1 x,y,z
2 1/2-x,-y,1/2+z
3 -x,1/2+y,1/2-z
4 1/2+x,1/2-y,-z
_cell_length_a                   7.6371(4)
_cell_length_b                   7.7477(4)
_cell_length_c                   23.9693(13)
_cell_angle_alpha                90
_cell_angle_beta                 90
_cell_angle_gamma                90
_cell_volume                     1418.26
_cell_formula_units_Z            4
loop_
_atom_site_label
_atom_site_type_symbol
_atom_site_fract_x
_atom_site_fract_y
_atom_site_fract_z
C1 C 0.41284(19) 0.42743(18) 0.13119(6)
O1 O 0.29226(15) 0.35861(17) 0.04134(4)
H1 H 0.218(2) 0.317(3) 0.0651(7)
C2 C 0.4260(2) 0.4239(2) 0.07178(5)
O2 O 0.84808(17) 0.60738(18) 0.04632(5)
C3 C 0.5730(2) 0.4841(2) 0.04532(6)
H2 H 0.5803 0.4815 0.0066
O3 O 0.55643(12) 0.49514(15) 0.21764(3)
C4 C 0.7106(2) 0.5488(2) 0.07671(6)
O4 O 0.13775(14) 0.29462(17) 0.13399(4)
C5 C 0.7054(2) 0.5515(2) 0.13483(6)
H3 H 0.8000 0.5922 0.1554
O5 O 0.12642(15) 0.61784(17) 0.31369(4)
H4 H 0.059(2) 0.664(3) 0.3376(7)
C6 C 0.55632(18) 0.49212(19) 0.16095(5)
O6 O 0.15568(16) 0.62808(18) 0.42648(4)
H5 H 0.192(3) 0.636(3) 0.4604(5)
C7 C 0.38492(18) 0.5044(2) 0.24330(5)
H6 H 0.3308 0.6145 0.2329
C8 C 0.26968(18) 0.35910(19) 0.22217(5)
H7 H 0.3147 0.2497 0.2356
H8 H 0.1520 0.3735 0.2367
C9 C 0.26395(18) 0.35693(19) 0.15958(5)
C10 C 0.41107(18) 0.50213(19) 0.30582(5)
C11 C 0.5649(2) 0.4447(2) 0.33065(6)
H9 H 0.6566 0.4051 0.3086
C12 C 0.5820(2) 0.4463(2) 0.38808(6)
H10 H 0.6847 0.4066 0.4045
C13 C 0.4471(2) 0.5065(2) 0.42107(6)
H11 H 0.4593 0.5076 0.4597
C14 C 0.2947(2) 0.5649(2) 0.39710(5)
C15 C 0.27569(19) 0.56228(19) 0.33893(5)
C16 C 0.9904(2) 0.6875(3) 0.07442(8)
H12 H 1.0767 0.7229 0.0477
H13 H 1.0418 0.6070 0.1001
H14 H 0.9487 0.7866 0.0945
loop_
_geom_bond_atom_site_label_1
_geom_bond_atom_site_label_2
_geom_bond_site_symmetry_1
_geom_bond_site_symmetry_2
C1 C2 1_555 1_555
O1 H1 1_555 1_555
C2 O1 1_555 1_555
O2 C4 1_555 1_555
C3 C2 1_555 1_555
H2 C3 1_555 1_555
O3 C6 1_555 1_555
C4 C3 1_555 1_555
O4 C9 1_555 1_555
C5 C4 1_555 1_555
H3 C5 1_555 1_555
O5 H4 1_555 1_555
C6 C1 1_555 1_555
O6 H5 1_555 1_555
C7 O3 1_555 1_555
H6 C7 1_555 1_555
C8 C7 1_555 1_555
H7 C8 1_555 1_555
H8 C8 1_555 1_555
C9 C1 1_555 1_555
C10 C7 1_555 1_555
C11 C10 1_555 1_555
H9 C11 1_555 1_555
C12 C11 1_555 1_555
H10 C12 1_555 1_555
C13 C12 1_555 1_555
H11 C13 1_555 1_555
C14 O6 1_555 1_555
C15 O5 1_555 1_555
C16 O2 1_555 1_555
H12 C16 1_555 1_555
H13 C16 1_555 1_555
H14 C16 1_555 1_555
C5 C6 1_555 1_555
C8 C9 1_555 1_555
C10 C15 1_555 1_555
C13 C14 1_555 1_555
C14 C15 1_555 1_555

#END
