
#######################################################################
#
#                 Cambridge Crystallographic Data Centre
#                                CCDC 
#
#######################################################################
#
# If this CIF has been generated from an entry in the Cambridge 
# Structural Database, then it will include bibliographic, chemical, 
# crystal, experimental, refinement or atomic coordinate data resulting 
# from the CCDC's data processing and validation procedures.
#
#######################################################################

data_OVOLIW
_chemical_formula_moiety         'C17 H18 O2'
_chemical_name_systematic        (1R,2S,3R)-1,3-diphenylpent-4-ene-1,2-diol
_symmetry_cell_setting           orthorhombic
_symmetry_space_group_name_H-M   'P 21 21 2'
_symmetry_Int_Tables_number      18
_space_group_name_Hall           'P 2 2ab'
loop_
_symmetry_equiv_pos_site_id
_symmetry_equiv_pos_as_xyz
1 x,y,z
2 -x,-y,z
3 1/2+x,1/2-y,-z
4 1/2-x,1/2+y,-z
_cell_length_a                   14.8428(4)
_cell_length_b                   18.9967(6)
_cell_length_c                   10.3327(3)
_cell_angle_alpha                90
_cell_angle_beta                 90
_cell_angle_gamma                90
_cell_volume                     2913.45
_exptl_crystal_colour            colorless
_exptl_crystal_description       block
_cell_formula_units_Z            8
loop_
_atom_site_label
_atom_site_type_symbol
_atom_site_fract_x
_atom_site_fract_y
_atom_site_fract_z
C1 C 0.05697(10) 0.15226(8) 0.32796(15)
O1 O 0.05465(7) 0.09694(5) 0.54199(10)
H1 H -0.0021(18) 0.0898(8) 0.5243(17)
C2 C 0.01254(13) 0.20856(9) 0.27073(18)
H2 H 0.0006 0.2488 0.3190
O2 O 0.22555(8) 0.21322(6) 0.41128(11)
H3 H 0.2240 0.2053 0.3333
C3 C -0.01424(15) 0.20536(11) 0.1422(2)
H4 H -0.0438 0.2435 0.1049
C4 C 0.00276(14) 0.14605(11) 0.06954(17)
H5 H -0.0154 0.1439 -0.0165
C5 C 0.04687(13) 0.08980(10) 0.12532(17)
H6 H 0.0587 0.0498 0.0764
C6 C 0.07367(11) 0.09246(9) 0.25346(16)
H7 H 0.1030 0.0541 0.2902
C7 C 0.08695(10) 0.15551(7) 0.46811(15)
H8 H 0.0642 0.1991 0.5069
C8 C 0.18973(10) 0.15417(7) 0.48005(14)
H9 H 0.2124 0.1108 0.4403
C9 C 0.22249(10) 0.15748(8) 0.62073(14)
H10 H 0.1866 0.1232 0.6693
C10 C 0.32089(11) 0.13644(8) 0.63788(16)
C11 C 0.34917(14) 0.11548(13) 0.7601(2)
H11 H 0.3081 0.1153 0.8281
C12 C 0.43746(15) 0.09482(15) 0.7828(3)
H12 H 0.4549 0.0809 0.8654
C13 C 0.49934(13) 0.09486(12) 0.6832(2)
H13 H 0.5583 0.0803 0.6978
C14 C 0.47286(13) 0.11663(11) 0.5626(2)
H14 H 0.5145 0.1174 0.4954
C15 C 0.38445(12) 0.13758(10) 0.53952(18)
H15 H 0.3678 0.1525 0.4572
C16 C 0.20475(12) 0.22847(9) 0.68154(16)
H16 H 0.2341 0.2675 0.6471
C17 C 0.15026(14) 0.23846(13) 0.78020(19)
H17 H 0.1199 0.2005 0.8167
H18 H 0.1420 0.2835 0.8135
O3 O 0.39398(7) 0.46199(6) 0.48940(12)
H19 H 0.4012(3) 0.5040(15) 0.480(2)
O4 O 0.20122(7) 0.35864(6) 0.39857(12)
H20 H 0.1938 0.3164 0.4110
C18 C 0.25734(10) 0.44402(8) 0.61243(16)
C19 C 0.17239(13) 0.47244(11) 0.6322(2)
H21 H 0.1408 0.4920 0.5633
C20 C 0.18004(16) 0.44243(14) 0.8582(2)
H22 H 0.1541 0.4421 0.9401
C21 C 0.13451(15) 0.47164(14) 0.7551(2)
H23 H 0.0777 0.4911 0.7680
C22 C 0.26398(15) 0.41377(12) 0.83910(19)
H24 H 0.2950 0.3937 0.9081
C23 C 0.30235(12) 0.41472(9) 0.71723(17)
H25 H 0.3593 0.3954 0.7052
C24 C 0.30027(10) 0.44578(8) 0.47961(15)
H26 H 0.2705 0.4820 0.4272
C25 C 0.29390(10) 0.37501(8) 0.40940(15)
H27 H 0.3236 0.3388 0.4619
C26 C 0.33972(11) 0.37795(8) 0.27395(15)
H28 H 0.4033 0.3896 0.2877
C27 C 0.33632(11) 0.30544(9) 0.21178(14)
C28 C 0.26268(14) 0.28168(11) 0.14069(16)
H29 H 0.2151 0.3121 0.1233
C29 C 0.33061(18) 0.16726(11) 0.11818(18)
H30 H 0.3283 0.1212 0.0879
C30 C 0.40480(16) 0.19050(11) 0.18607(19)
H31 H 0.4530 0.1603 0.2010
C31 C 0.40745(12) 0.25915(10) 0.23215(17)
H32 H 0.4579 0.2745 0.2776
C32 C 0.29963(14) 0.43539(10) 0.19193(17)
H33 H 0.2391 0.4320 0.1697
C33 C 0.34526(18) 0.49020(11) 0.1497(2)
H34 H 0.4059 0.4950 0.1704
H35 H 0.3168 0.5241 0.0993
C34 C 0.25969(16) 0.21254(11) 0.09525(18)
H36 H 0.2097 0.1969 0.0493
loop_
_geom_bond_atom_site_label_1
_geom_bond_atom_site_label_2
_geom_bond_site_symmetry_1
_geom_bond_site_symmetry_2
C1 C2 1_555 1_555
O1 H1 1_555 1_555
C2 H2 1_555 1_555
O2 H3 1_555 1_555
C3 C2 1_555 1_555
H4 C3 1_555 1_555
C4 C3 1_555 1_555
H5 C4 1_555 1_555
C5 C4 1_555 1_555
H6 C5 1_555 1_555
C6 C1 1_555 1_555
H7 C6 1_555 1_555
C7 C1 1_555 1_555
H8 C7 1_555 1_555
C8 O2 1_555 1_555
H9 C8 1_555 1_555
C9 C8 1_555 1_555
H10 C9 1_555 1_555
C10 C9 1_555 1_555
C11 C10 1_555 1_555
H11 C11 1_555 1_555
C12 C11 1_555 1_555
H12 C12 1_555 1_555
C13 C12 1_555 1_555
H13 C13 1_555 1_555
C14 C13 1_555 1_555
H14 C14 1_555 1_555
C15 C10 1_555 1_555
H15 C15 1_555 1_555
C16 C9 1_555 1_555
H16 C16 1_555 1_555
C17 C16 1_555 1_555
H17 C17 1_555 1_555
H18 C17 1_555 1_555
O3 H19 1_555 1_555
O4 H20 1_555 1_555
C18 C19 1_555 1_555
C19 H21 1_555 1_555
C20 H22 1_555 1_555
C21 C19 1_555 1_555
H23 C21 1_555 1_555
C22 C20 1_555 1_555
H24 C22 1_555 1_555
C23 C18 1_555 1_555
H25 C23 1_555 1_555
C24 O3 1_555 1_555
H26 C24 1_555 1_555
C25 O4 1_555 1_555
H27 C25 1_555 1_555
C26 C25 1_555 1_555
H28 C26 1_555 1_555
C27 C26 1_555 1_555
C28 C27 1_555 1_555
H29 C28 1_555 1_555
C29 H30 1_555 1_555
C30 C29 1_555 1_555
H31 C30 1_555 1_555
C31 C27 1_555 1_555
H32 C31 1_555 1_555
C32 C26 1_555 1_555
H33 C32 1_555 1_555
C33 C32 1_555 1_555
H34 C33 1_555 1_555
H35 C33 1_555 1_555
C34 C28 1_555 1_555
H36 C34 1_555 1_555
O1 C7 1_555 1_555
C5 C6 1_555 1_555
C7 C8 1_555 1_555
C14 C15 1_555 1_555
C18 C24 1_555 1_555
C20 C21 1_555 1_555
C22 C23 1_555 1_555
C24 C25 1_555 1_555
C29 C34 1_555 1_555
C30 C31 1_555 1_555

#END
