
#######################################################################
#
#                 Cambridge Crystallographic Data Centre
#                                CCDC 
#
#######################################################################
#
# If this CIF has been generated from an entry in the Cambridge 
# Structural Database, then it will include bibliographic, chemical, 
# crystal, experimental, refinement or atomic coordinate data resulting 
# from the CCDC's data processing and validation procedures.
#
#######################################################################

data_OVUCAL
_chemical_formula_moiety         'C32 H48 N2 Si3'
_chemical_name_systematic        
(1-(1,3-diisopropyl-4,5-dimethyl-1H-imidazol-3-ium-2-yl)-2,3-diphenyl-1H-siliren-1-yl)(bis(trimethylsilyl))methanide
_symmetry_cell_setting           orthorhombic
_symmetry_space_group_name_H-M   'P 21 21 21'
_symmetry_Int_Tables_number      19
_space_group_name_Hall           'P 2ac 2ab'
loop_
_symmetry_equiv_pos_site_id
_symmetry_equiv_pos_as_xyz
1 x,y,z
2 1/2-x,-y,1/2+z
3 -x,1/2+y,1/2-z
4 1/2+x,1/2-y,-z
_cell_length_a                   9.8511(14)
_cell_length_b                   16.512(3)
_cell_length_c                   20.180(3)
_cell_angle_alpha                90
_cell_angle_beta                 90
_cell_angle_gamma                90
_cell_volume                     3282.51
_exptl_crystal_colour            red
_exptl_crystal_description       prism
_cell_formula_units_Z            4
loop_
_atom_site_label
_atom_site_type_symbol
_atom_site_fract_x
_atom_site_fract_y
_atom_site_fract_z
Si1 Si 0.40827(7) 0.49608(4) 0.20471(3)
Si2 Si 0.67618(7) 0.49289(5) 0.29376(4)
Si3 Si 0.68556(8) 0.51380(5) 0.14079(4)
N1 N 0.2573(2) 0.41557(14) 0.31166(11)
N2 N 0.2631(2) 0.54556(14) 0.32480(12)
C1 C 0.3052(3) 0.48476(16) 0.28490(13)
C2 C 0.2945(3) 0.53350(18) 0.13993(15)
C3 C 0.2453(3) 0.38257(17) 0.10324(13)
C4 C 0.2365(3) 0.59801(18) 0.09834(14)
C5 C 0.3013(3) 0.45162(17) 0.13939(14)
C6 C 0.3275(3) 0.31628(18) 0.08808(15)
H1 H 0.4214 0.3180 0.0988
C7 C 0.1471(3) 0.58265(19) 0.04565(14)
H2 H 0.1248 0.5284 0.0345
C8 C 0.5750(3) 0.4679(2) 0.37014(16)
H3 H 0.5095 0.5113 0.3788
H4 H 0.6364 0.4625 0.4081
H5 H 0.5264 0.4168 0.3633
C9 C 0.1371(4) 0.2436(2) 0.04301(16)
H6 H 0.1009 0.1970 0.0219
C10 C 0.1417(3) 0.3009(2) 0.25532(17)
H7 H 0.0908 0.2792 0.2930
H8 H 0.1586 0.2576 0.2232
H9 H 0.0890 0.3441 0.2342
C11 C 0.1070(3) 0.37703(19) 0.08850(15)
H10 H 0.0488 0.4212 0.0985
C12 C 0.2767(3) 0.33492(17) 0.27945(15)
H11 H 0.3337 0.3443 0.2392
C13 C 0.2745(4) 0.2480(2) 0.05765(16)
H12 H 0.3326 0.2040 0.0468
C14 C 0.1881(3) 0.51415(19) 0.37701(14)
C15 C 0.1840(3) 0.43289(17) 0.36913(14)
C16 C 0.0910(3) 0.6460(2) 0.00961(16)
H13 H 0.0295 0.6347 -0.0255
C17 C 0.2702(4) 0.67865(19) 0.11156(17)
H14 H 0.3316 0.6905 0.1465
C18 C 0.2874(3) 0.63208(18) 0.30743(16)
H15 H 0.3499 0.6320 0.2684
C19 C 0.2157(4) 0.7419(2) 0.07474(17)
H16 H 0.2413 0.7962 0.0840
C20 C 0.1240(4) 0.7255(2) 0.02440(17)
H17 H 0.0839 0.7686 0.0002
C21 C 0.5837(3) 0.50532(17) 0.21657(13)
C22 C 0.8547(3) 0.5651(2) 0.15309(18)
H18 H 0.8403 0.6198 0.1707
H19 H 0.9023 0.5686 0.1105
H20 H 0.9095 0.5337 0.1844
C23 C 0.6008(4) 0.5732(2) 0.07285(17)
H21 H 0.5220 0.5431 0.0564
H22 H 0.6652 0.5819 0.0365
H23 H 0.5709 0.6257 0.0902
C24 C 0.1568(4) 0.6717(2) 0.28447(19)
H24 H 0.1154 0.6388 0.2495
H25 H 0.1767 0.7259 0.2671
H26 H 0.0939 0.6762 0.3219
C25 C 0.7255(4) 0.4130(2) 0.10154(19)
H27 H 0.7836 0.3815 0.1314
H28 H 0.7729 0.4218 0.0594
H29 H 0.6410 0.3834 0.0934
C26 C 0.1135(3) 0.3714(2) 0.41125(16)
H30 H 0.0599 0.3990 0.4453
H31 H 0.1811 0.3364 0.4325
H32 H 0.0534 0.3384 0.3835
C27 C 0.0535(3) 0.3076(2) 0.05941(16)
H33 H -0.0412 0.3043 0.0508
C28 C 0.1267(4) 0.5637(2) 0.43145(17)
H34 H 0.0664 0.5296 0.4581
H35 H 0.0746 0.6085 0.4122
H36 H 0.1990 0.5856 0.4596
C29 C 0.3596(4) 0.6786(2) 0.3619(2)
H37 H 0.2969 0.6879 0.3988
H38 H 0.3910 0.7308 0.3445
H39 H 0.4377 0.6472 0.3776
C30 C 0.8063(5) 0.4097(3) 0.2889(2)
H40 H 0.7603 0.3575 0.2836
H41 H 0.8603 0.4091 0.3296
H42 H 0.8660 0.4192 0.2508
C31 C 0.7730(4) 0.5860(2) 0.32031(19)
H43 H 0.8426 0.5987 0.2872
H44 H 0.8165 0.5760 0.3632
H45 H 0.7103 0.6318 0.3243
C32 C 0.3544(4) 0.2760(2) 0.3231(2)
H46 H 0.4412 0.3003 0.3362
H47 H 0.3714 0.2258 0.2985
H48 H 0.3009 0.2638 0.3628
loop_
_geom_bond_atom_site_label_1
_geom_bond_atom_site_label_2
_geom_bond_site_symmetry_1
_geom_bond_site_symmetry_2
Si1 C1 1_555 1_555
Si2 C8 1_555 1_555
Si3 C21 1_555 1_555
N1 C1 1_555 1_555
N2 C1 1_555 1_555
C2 Si1 1_555 1_555
C3 C5 1_555 1_555
C4 C2 1_555 1_555
C5 Si1 1_555 1_555
C6 C3 1_555 1_555
H1 C6 1_555 1_555
C7 C4 1_555 1_555
H2 C7 1_555 1_555
C8 H3 1_555 1_555
H4 C8 1_555 1_555
H5 C8 1_555 1_555
C9 H6 1_555 1_555
C10 H7 1_555 1_555
H8 C10 1_555 1_555
H9 C10 1_555 1_555
C11 C3 1_555 1_555
H10 C11 1_555 1_555
C12 N1 1_555 1_555
H11 C12 1_555 1_555
C13 C6 1_555 1_555
H12 C13 1_555 1_555
C14 N2 1_555 1_555
C15 N1 1_555 1_555
C16 C7 1_555 1_555
H13 C16 1_555 1_555
C17 C4 1_555 1_555
H14 C17 1_555 1_555
C18 N2 1_555 1_555
H15 C18 1_555 1_555
C19 C17 1_555 1_555
H16 C19 1_555 1_555
C20 C16 1_555 1_555
H17 C20 1_555 1_555
C21 Si1 1_555 1_555
C22 Si3 1_555 1_555
H18 C22 1_555 1_555
H19 C22 1_555 1_555
H20 C22 1_555 1_555
C23 Si3 1_555 1_555
H21 C23 1_555 1_555
H22 C23 1_555 1_555
H23 C23 1_555 1_555
C24 C18 1_555 1_555
H24 C24 1_555 1_555
H25 C24 1_555 1_555
H26 C24 1_555 1_555
C25 Si3 1_555 1_555
H27 C25 1_555 1_555
H28 C25 1_555 1_555
H29 C25 1_555 1_555
C26 C15 1_555 1_555
H30 C26 1_555 1_555
H31 C26 1_555 1_555
H32 C26 1_555 1_555
C27 C9 1_555 1_555
H33 C27 1_555 1_555
C28 C14 1_555 1_555
H34 C28 1_555 1_555
H35 C28 1_555 1_555
H36 C28 1_555 1_555
C29 C18 1_555 1_555
H37 C29 1_555 1_555
H38 C29 1_555 1_555
H39 C29 1_555 1_555
C30 Si2 1_555 1_555
H40 C30 1_555 1_555
H41 C30 1_555 1_555
H42 C30 1_555 1_555
C31 Si2 1_555 1_555
H43 C31 1_555 1_555
H44 C31 1_555 1_555
H45 C31 1_555 1_555
C32 C12 1_555 1_555
H46 C32 1_555 1_555
H47 C32 1_555 1_555
H48 C32 1_555 1_555
Si2 C21 1_555 1_555
C2 C5 1_555 1_555
C9 C13 1_555 1_555
C10 C12 1_555 1_555
C11 C27 1_555 1_555
C14 C15 1_555 1_555
C19 C20 1_555 1_555

#END
