
#######################################################################
#
#                 Cambridge Crystallographic Data Centre
#                                CCDC 
#
#######################################################################
#
# If this CIF has been generated from an entry in the Cambridge 
# Structural Database, then it will include bibliographic, chemical, 
# crystal, experimental, refinement or atomic coordinate data resulting 
# from the CCDC's data processing and validation procedures.
#
#######################################################################

data_OVUDOZ
_chemical_formula_moiety         'C27 H53 N2 1+,I5 1-'
_chemical_name_systematic        '1,3-Didodecyl-1H-imidazol-3-ium pentaiodide'
_symmetry_cell_setting           monoclinic
_symmetry_space_group_name_H-M   'P 21/n'
_symmetry_Int_Tables_number      14
_space_group_name_Hall           '-P 2yn'
loop_
_symmetry_equiv_pos_site_id
_symmetry_equiv_pos_as_xyz
1 x,y,z
2 1/2-x,1/2+y,1/2-z
3 -x,-y,-z
4 1/2+x,1/2-y,1/2+z
_cell_length_a                   5.2631(4)
_cell_length_b                   41.705(5)
_cell_length_c                   33.069(4)
_cell_angle_alpha                90
_cell_angle_beta                 92.528(9)
_cell_angle_gamma                90
_cell_volume                     7251.5
_exptl_crystal_colour            red-brown
_exptl_crystal_description       plate
_cell_formula_units_Z            8
loop_
_atom_site_label
_atom_site_type_symbol
_atom_site_fract_x
_atom_site_fract_y
_atom_site_fract_z
I1 I 0.35499(7) 0.749691(8) 0.808809(10)
I2 I 0.67826(7) 0.808227(8) 0.842429(9)
I3 I 0.67566(7) 0.692197(8) 0.842208(10)
I4 I 0.95873(8) 0.860202(9) 0.870691(11)
I5 I 0.96047(8) 0.640238(9) 0.870969(11)
I6 I 0.10816(7) 0.737456(9) 0.559017(10)
I7 I 0.42542(7) 0.795901(8) 0.590866(9)
I8 I 0.70785(8) 0.848468(9) 0.618073(11)
I9 I 0.43041(7) 0.679443(9) 0.594036(10)
I10 I 0.70977(8) 0.627800(10) 0.623729(11)
N1 N -0.1137(8) 0.76411(9) 0.70663(12)
N2 N -0.1039(7) 0.71240(9) 0.70838(11)
C1 C -0.1397(9) 0.73867(11) 0.73008(14)
H1 H -0.1777 0.7391 0.7579
C2 C -0.0541(10) 0.72148(11) 0.66942(14)
H2 H -0.0219 0.7076 0.6474
C3 C -0.0600(11) 0.75363(12) 0.66858(15)
H3 H -0.0319 0.7668 0.6458
C4 C -0.1282(9) 0.79786(11) 0.72036(15)
H4 H -0.1938 0.7984 0.7480
H5 H -0.2490 0.8098 0.7021
C5 C 0.1298(9) 0.81416(11) 0.72071(14)
H6 H 0.1886 0.8154 0.6927
H7 H 0.2546 0.8012 0.7370
C6 C 0.1167(9) 0.84778(11) 0.73839(14)
H8 H 0.0439 0.8466 0.7654
H9 H 0.0012 0.8610 0.7208
C7 C 0.3759(9) 0.86401(11) 0.74231(14)
H10 H 0.4454 0.8660 0.7151
H11 H 0.4934 0.8503 0.7589
C8 C 0.3658(9) 0.89720(11) 0.76166(14)
H12 H 0.2553 0.9112 0.7443
H13 H 0.2872 0.8953 0.7882
C9 C 0.6239(9) 0.91299(11) 0.76785(14)
H14 H 0.7062 0.9140 0.7415
H15 H 0.7320 0.8995 0.7863
C10 C 0.6101(9) 0.94673(11) 0.78538(14)
H16 H 0.5055 0.9603 0.7665
H17 H 0.5230 0.9457 0.8113
C11 C 0.8681(9) 0.96265(11) 0.79288(14)
H18 H 0.9716 0.9493 0.8121
H19 H 0.9565 0.9633 0.7671
C12 C 0.8533(9) 0.99641(11) 0.80962(15)
H20 H 0.7600 0.9957 0.8350
H21 H 0.7532 1.0098 0.7900
C13 C 1.1093(9) 1.01244(11) 0.81841(14)
H22 H 1.2084 0.9994 0.8385
H23 H 1.2042 1.0128 0.7932
C14 C 1.0898(9) 1.04643(11) 0.83442(15)
H24 H 0.9947 1.0461 0.8596
H25 H 0.9915 1.0596 0.8143
C15 C 1.3469(10) 1.06218(13) 0.84323(17)
H26 H 1.3217 1.0843 0.8522
H27 H 1.4440 1.0622 0.8186
H28 H 1.4408 1.0502 0.8646
C16 C -0.1077(9) 0.67926(11) 0.72412(14)
H29 H -0.2089 0.6656 0.7050
H30 H -0.1921 0.6791 0.7503
C17 C 0.1577(9) 0.66522(11) 0.73017(15)
H31 H 0.2423 0.6650 0.7040
H32 H 0.2599 0.6788 0.7493
C18 C 0.1457(9) 0.63145(11) 0.74657(15)
H33 H 0.0488 0.6179 0.7267
H34 H 0.0510 0.6318 0.7718
C19 C 0.4046(9) 0.61613(11) 0.75554(14)
H35 H 0.4971 0.6150 0.7301
H36 H 0.5041 0.6300 0.7747
C20 C 0.3885(9) 0.58266(11) 0.77338(14)
H37 H 0.2970 0.5839 0.7989
H38 H 0.2872 0.5689 0.7543
C21 C 0.6449(9) 0.56693(11) 0.78216(14)
H39 H 0.7428 0.5800 0.8024
H40 H 0.7402 0.5667 0.7570
C22 C 0.6273(9) 0.53287(11) 0.79798(14)
H41 H 0.5265 0.5199 0.7781
H42 H 0.5352 0.5331 0.8234
C23 C 0.8859(9) 0.51683(11) 0.80600(15)
H43 H 0.9873 0.5299 0.8258
H44 H 0.9777 0.5164 0.7805
C24 C 0.8673(9) 0.48254(11) 0.82217(14)
H45 H 0.7747 0.4830 0.8476
H46 H 0.7657 0.4696 0.8023
C25 C 1.1219(9) 0.46619(11) 0.83042(14)
H47 H 1.2229 0.4790 0.8506
H48 H 1.2155 0.4659 0.8051
C26 C 1.1007(9) 0.43205(11) 0.84602(15)
H49 H 1.0089 0.4323 0.8715
H50 H 0.9983 0.4193 0.8260
C27 C 1.3548(10) 0.41586(13) 0.85372(16)
H51 H 1.3280 0.3937 0.8624
H52 H 1.4524 0.4274 0.8750
H53 H 1.4488 0.4159 0.8288
N3 N -0.3565(7) 0.77602(9) 0.45766(11)
N4 N -0.3591(7) 0.72422(9) 0.45769(11)
C28 C -0.3841(9) 0.75005(10) 0.48020(15)
H54 H -0.4168 0.7500 0.5082
C29 C -0.3095(10) 0.73410(12) 0.41919(15)
H55 H -0.2817 0.7206 0.3967
C30 C -0.3076(10) 0.76633(11) 0.41923(14)
H56 H -0.2779 0.7798 0.3968
C31 C -0.3623(9) 0.80927(11) 0.47238(14)
H57 H -0.4493 0.8099 0.4983
H58 H -0.4620 0.8226 0.4526
C32 C -0.0987(9) 0.82348(11) 0.47866(14)
H59 H -0.0120 0.8233 0.4527
H60 H 0.0021 0.8102 0.4983
C33 C -0.1107(9) 0.85785(11) 0.49442(15)
H61 H -0.2065 0.8711 0.4742
H62 H -0.2058 0.8580 0.5196
C34 C 0.1485(9) 0.87287(11) 0.50306(16)
H63 H 0.2424 0.8734 0.4778
H64 H 0.2463 0.8594 0.5229
C35 C 0.1303(9) 0.90686(11) 0.51969(15)
H65 H 0.0374 0.9062 0.5451
H66 H 0.0300 0.9201 0.5000
C36 C 0.3879(9) 0.92279(11) 0.52824(15)
H67 H 0.4847 0.9224 0.5033
H68 H 0.4845 0.9102 0.5491
C37 C 0.3680(9) 0.95765(11) 0.54281(14)
H69 H 0.2691 0.9702 0.5222
H70 H 0.2739 0.9581 0.5681
C38 C 0.6273(9) 0.97360(12) 0.55065(15)
H71 H 0.7275 0.9609 0.5710
H72 H 0.7205 0.9736 0.5253
C39 C 0.6046(9) 1.00786(11) 0.56568(14)
H73 H 0.5102 1.0078 0.5909
H74 H 0.5044 1.0205 0.5452
C40 C 0.8600(9) 1.02421(11) 0.57386(14)
H75 H 0.9543 1.0242 0.5486
H76 H 0.9601 1.0116 0.5943
C41 C 0.8384(9) 1.05860(11) 0.58891(15)
H77 H 0.7384 1.0713 0.5685
H78 H 0.7447 1.0586 0.6142
C42 C 1.0951(10) 1.07457(13) 0.59686(17)
H79 H 1.0699 1.0965 0.6067
H80 H 1.1867 1.0753 0.5717
H81 H 1.1944 1.0623 0.6173
C43 C -0.3682(9) 0.69067(11) 0.47198(14)
H82 H -0.4923 0.6785 0.4546
H83 H -0.4282 0.6904 0.4999
C44 C -0.1133(9) 0.67435(11) 0.47139(14)
H84 H 0.0156 0.6876 0.4863
H85 H -0.0620 0.6723 0.4431
C45 C -0.1219(10) 0.64133(11) 0.49067(15)
H86 H -0.2408 0.6276 0.4743
H87 H -0.1892 0.6434 0.5180
C46 C 0.1372(9) 0.62501(11) 0.49411(14)
H88 H 0.2014 0.6221 0.4666
H89 H 0.2581 0.6391 0.5095
C47 C 0.1292(9) 0.59252(11) 0.51497(15)
H90 H 0.0547 0.5953 0.5417
H91 H 0.0151 0.5782 0.4987
C48 C 0.3868(9) 0.57635(11) 0.52105(14)
H92 H 0.4998 0.5904 0.5380
H93 H 0.4636 0.5740 0.4944
C49 C 0.3740(9) 0.54327(11) 0.54115(14)
H94 H 0.2929 0.5455 0.5674
H95 H 0.2650 0.5291 0.5238
C50 C 0.6334(9) 0.52744(11) 0.54831(14)
H96 H 0.7177 0.5259 0.5222
H97 H 0.7405 0.5412 0.5666
C51 C 0.6157(9) 0.49408(11) 0.56679(14)
H98 H 0.5299 0.4957 0.5928
H99 H 0.5091 0.4804 0.5484
C52 C 0.8731(9) 0.47797(11) 0.57442(15)
H100 H 0.9796 0.4915 0.5930
H101 H 0.9597 0.4764 0.5485
C53 C 0.8517(9) 0.44459(11) 0.59265(14)
H102 H 0.7659 0.4463 0.6186
H103 H 0.7433 0.4312 0.5742
C54 C 1.1057(9) 0.42783(12) 0.60024(16)
H104 H 1.0769 0.4062 0.6107
H105 H 1.2099 0.4401 0.6201
H106 H 1.1940 0.4264 0.5748
loop_
_geom_bond_atom_site_label_1
_geom_bond_atom_site_label_2
_geom_bond_site_symmetry_1
_geom_bond_site_symmetry_2
I1 I2 1_555 1_555
I2 I4 1_555 1_555
I3 I1 1_555 1_555
I5 I3 1_555 1_555
I6 I7 1_555 1_555
I7 I8 1_555 1_555
I9 I6 1_555 1_555
I10 I9 1_555 1_555
N1 C1 1_555 1_555
N2 C1 1_555 1_555
C1 H1 1_555 1_555
C2 N2 1_555 1_555
H2 C2 1_555 1_555
C3 N1 1_555 1_555
H3 C3 1_555 1_555
C4 N1 1_555 1_555
H4 C4 1_555 1_555
H5 C4 1_555 1_555
C5 C4 1_555 1_555
H6 C5 1_555 1_555
H7 C5 1_555 1_555
C6 C5 1_555 1_555
H8 C6 1_555 1_555
H9 C6 1_555 1_555
C7 C6 1_555 1_555
H10 C7 1_555 1_555
H11 C7 1_555 1_555
C8 C7 1_555 1_555
H12 C8 1_555 1_555
H13 C8 1_555 1_555
C9 C8 1_555 1_555
H14 C9 1_555 1_555
H15 C9 1_555 1_555
C10 C9 1_555 1_555
H16 C10 1_555 1_555
H17 C10 1_555 1_555
C11 C10 1_555 1_555
H18 C11 1_555 1_555
H19 C11 1_555 1_555
C12 C11 1_555 1_555
H20 C12 1_555 1_555
H21 C12 1_555 1_555
C13 C12 1_555 1_555
H22 C13 1_555 1_555
H23 C13 1_555 1_555
C14 C13 1_555 1_555
H24 C14 1_555 1_555
H25 C14 1_555 1_555
C15 C14 1_555 1_555
H26 C15 1_555 1_555
H27 C15 1_555 1_555
H28 C15 1_555 1_555
C16 N2 1_555 1_555
H29 C16 1_555 1_555
H30 C16 1_555 1_555
C17 C16 1_555 1_555
H31 C17 1_555 1_555
H32 C17 1_555 1_555
C18 C17 1_555 1_555
H33 C18 1_555 1_555
H34 C18 1_555 1_555
C19 C18 1_555 1_555
H35 C19 1_555 1_555
H36 C19 1_555 1_555
C20 C19 1_555 1_555
H37 C20 1_555 1_555
H38 C20 1_555 1_555
C21 C20 1_555 1_555
H39 C21 1_555 1_555
H40 C21 1_555 1_555
C22 C21 1_555 1_555
H41 C22 1_555 1_555
H42 C22 1_555 1_555
C23 C22 1_555 1_555
H43 C23 1_555 1_555
H44 C23 1_555 1_555
C24 C23 1_555 1_555
H45 C24 1_555 1_555
H46 C24 1_555 1_555
C25 C24 1_555 1_555
H47 C25 1_555 1_555
H48 C25 1_555 1_555
C26 C25 1_555 1_555
H49 C26 1_555 1_555
H50 C26 1_555 1_555
C27 C26 1_555 1_555
H51 C27 1_555 1_555
H52 C27 1_555 1_555
H53 C27 1_555 1_555
N3 C28 1_555 1_555
N4 C28 1_555 1_555
C28 H54 1_555 1_555
C29 N4 1_555 1_555
H55 C29 1_555 1_555
C30 N3 1_555 1_555
H56 C30 1_555 1_555
C31 N3 1_555 1_555
H57 C31 1_555 1_555
H58 C31 1_555 1_555
C32 C31 1_555 1_555
H59 C32 1_555 1_555
H60 C32 1_555 1_555
C33 C32 1_555 1_555
H61 C33 1_555 1_555
H62 C33 1_555 1_555
C34 C33 1_555 1_555
H63 C34 1_555 1_555
H64 C34 1_555 1_555
C35 C34 1_555 1_555
H65 C35 1_555 1_555
H66 C35 1_555 1_555
C36 C35 1_555 1_555
H67 C36 1_555 1_555
H68 C36 1_555 1_555
C37 C36 1_555 1_555
H69 C37 1_555 1_555
H70 C37 1_555 1_555
C38 C37 1_555 1_555
H71 C38 1_555 1_555
H72 C38 1_555 1_555
C39 C38 1_555 1_555
H73 C39 1_555 1_555
H74 C39 1_555 1_555
C40 C39 1_555 1_555
H75 C40 1_555 1_555
H76 C40 1_555 1_555
C41 C40 1_555 1_555
H77 C41 1_555 1_555
H78 C41 1_555 1_555
C42 C41 1_555 1_555
H79 C42 1_555 1_555
H80 C42 1_555 1_555
H81 C42 1_555 1_555
C43 N4 1_555 1_555
H82 C43 1_555 1_555
H83 C43 1_555 1_555
C44 C43 1_555 1_555
H84 C44 1_555 1_555
H85 C44 1_555 1_555
C45 C44 1_555 1_555
H86 C45 1_555 1_555
H87 C45 1_555 1_555
C46 C45 1_555 1_555
H88 C46 1_555 1_555
H89 C46 1_555 1_555
C47 C46 1_555 1_555
H90 C47 1_555 1_555
H91 C47 1_555 1_555
C48 C47 1_555 1_555
H92 C48 1_555 1_555
H93 C48 1_555 1_555
C49 C48 1_555 1_555
H94 C49 1_555 1_555
H95 C49 1_555 1_555
C50 C49 1_555 1_555
H96 C50 1_555 1_555
H97 C50 1_555 1_555
C51 C50 1_555 1_555
H98 C51 1_555 1_555
H99 C51 1_555 1_555
C52 C51 1_555 1_555
H100 C52 1_555 1_555
H101 C52 1_555 1_555
C53 C52 1_555 1_555
H102 C53 1_555 1_555
H103 C53 1_555 1_555
C54 C53 1_555 1_555
H104 C54 1_555 1_555
H105 C54 1_555 1_555
H106 C54 1_555 1_555
C2 C3 1_555 1_555
C29 C30 1_555 1_555

#END
