
#######################################################################
#
#                 Cambridge Crystallographic Data Centre
#                                CCDC 
#
#######################################################################
#
# If this CIF has been generated from an entry in the Cambridge 
# Structural Database, then it will include bibliographic, chemical, 
# crystal, experimental, refinement or atomic coordinate data resulting 
# from the CCDC's data processing and validation procedures.
#
#######################################################################

data_OVUJOF
_chemical_formula_moiety         'C17 H19 N1 O6'
_chemical_name_systematic        
6-Methoxy-2-phenyldihydro-5'H-spiro[pyrano[3,2-d][1,3]dioxine-7,3'-pyrrolidine]-5',8(4H)-dione
_symmetry_cell_setting           orthorhombic
_symmetry_space_group_name_H-M   'P 21 21 21'
_symmetry_Int_Tables_number      19
_space_group_name_Hall           'P 2ac 2ab'
loop_
_symmetry_equiv_pos_site_id
_symmetry_equiv_pos_as_xyz
1 x,y,z
2 1/2-x,-y,1/2+z
3 -x,1/2+y,1/2-z
4 1/2+x,1/2-y,-z
_cell_length_a                   6.1840(12)
_cell_length_b                   10.372(2)
_cell_length_c                   25.702(5)
_cell_angle_alpha                90
_cell_angle_beta                 90
_cell_angle_gamma                90
_cell_volume                     1648.54
_exptl_crystal_description       prismatic
_chemical_melting_point          '135-137 deg.C'
_cell_formula_units_Z            4
_exptl_crystal_recrystallization_method methanol
loop_
_atom_site_label
_atom_site_type_symbol
_atom_site_fract_x
_atom_site_fract_y
_atom_site_fract_z
O1 O 1.1028(3) 0.9422(2) 0.14668(8)
O2 O 0.4840(4) 1.1609(3) 0.02710(9)
O3 O 0.8772(4) 1.2205(2) 0.21621(8)
O4 O 0.6575(3) 1.05580(19) 0.28213(7)
O5 O 0.7598(3) 0.8639(2) 0.16574(8)
O6 O 0.6261(4) 0.8384(2) 0.30342(8)
C1 C 0.8825(5) 0.9489(3) 0.13462(12)
H1 H 0.8643 0.9233 0.0982
C2 C 0.8074(5) 1.0904(3) 0.14006(11)
C3 C 0.7946(5) 1.1257(3) 0.19767(11)
C4 C 0.6686(5) 1.0279(3) 0.22792(10)
H2 H 0.5210 1.0254 0.2141
C5 C 0.7710(5) 0.8959(3) 0.21975(11)
H3 H 0.9221 0.8972 0.2312
C6 C 0.6453(5) 0.7970(3) 0.25054(12)
H4 H 0.5025 0.7863 0.2355
H5 H 0.7190 0.7146 0.2492
C7 C 1.1904(6) 0.8167(3) 0.13643(14)
H6 H 1.3412 0.8156 0.1453
H7 H 1.1734 0.7967 0.1002
H8 H 1.1151 0.7537 0.1570
C8 C 0.5800(5) 1.1038(3) 0.11527(11)
H9 H 0.5088 1.0206 0.1133
H10 H 0.4904 1.1620 0.1355
C9 C 0.6190(6) 1.1572(3) 0.06188(13)
C10 C 0.5274(5) 0.9611(3) 0.30689(12)
H11 H 0.3856 0.9581 0.2899
C11 C 0.4984(6) 0.9961(3) 0.36284(13)
C12 C 0.3053(7) 1.0440(5) 0.37960(14)
H12 H 0.1922 1.0551 0.3562
C13 C 0.2772(9) 1.0761(6) 0.43148(18)
H13 H 0.1452 1.1090 0.4426
C14 C 0.4388(9) 1.0602(6) 0.46595(16)
H14 H 0.4179 1.0816 0.5007
C15 C 0.6310(8) 1.0131(5) 0.45010(15)
H15 H 0.7426 1.0017 0.4739
C16 C 0.6618(7) 0.9814(4) 0.39790(13)
H16 H 0.7950 0.9499 0.3869
C17 C 0.9449(6) 1.1837(3) 0.10738(12)
H17 H 0.9615 1.2658 0.1250
H18 H 1.0870 1.1478 0.1006
N1 N 0.8238(5) 1.1985(3) 0.05953(11)
H19 H 0.885(6) 1.237(4) 0.0318(12)
loop_
_geom_bond_atom_site_label_1
_geom_bond_atom_site_label_2
_geom_bond_site_symmetry_1
_geom_bond_site_symmetry_2
O1 C1 1_555 1_555
O2 C9 1_555 1_555
O3 C3 1_555 1_555
O4 C4 1_555 1_555
O5 C1 1_555 1_555
O6 C6 1_555 1_555
C1 H1 1_555 1_555
C2 C1 1_555 1_555
C3 C2 1_555 1_555
C4 C3 1_555 1_555
H2 C4 1_555 1_555
C5 O5 1_555 1_555
H3 C5 1_555 1_555
C6 C5 1_555 1_555
H4 C6 1_555 1_555
H5 C6 1_555 1_555
C7 O1 1_555 1_555
H6 C7 1_555 1_555
H7 C7 1_555 1_555
H8 C7 1_555 1_555
C8 C2 1_555 1_555
H9 C8 1_555 1_555
H10 C8 1_555 1_555
C9 C8 1_555 1_555
C10 O4 1_555 1_555
H11 C10 1_555 1_555
C11 C10 1_555 1_555
C12 C11 1_555 1_555
H12 C12 1_555 1_555
C13 C12 1_555 1_555
H13 C13 1_555 1_555
C14 C13 1_555 1_555
H14 C14 1_555 1_555
C15 C14 1_555 1_555
H15 C15 1_555 1_555
C16 C11 1_555 1_555
H16 C16 1_555 1_555
C17 C2 1_555 1_555
H17 C17 1_555 1_555
H18 C17 1_555 1_555
N1 C9 1_555 1_555
H19 N1 1_555 1_555
O6 C10 1_555 1_555
C4 C5 1_555 1_555
C15 C16 1_555 1_555
C17 N1 1_555 1_555

#END
