
#######################################################################
#
#                 Cambridge Crystallographic Data Centre
#                                CCDC 
#
#######################################################################
#
# If this CIF has been generated from an entry in the Cambridge 
# Structural Database, then it will include bibliographic, chemical, 
# crystal, experimental, refinement or atomic coordinate data resulting 
# from the CCDC's data processing and validation procedures.
#
#######################################################################

data_OVULAU
_chemical_formula_moiety         'C41 H41 Cl1 N4 O1,C1 H1 Cl3'
_chemical_name_systematic        
'(4-(2-(2-chloro-3-(2-(1-ethyl-5-mesityl-3,3-dimethyl-1,3-dihydro-2H-indol-2-ylidene)ethylidene)cyclohex-1-en-1-yl)vinyl)-3-cyano-5,5-dimethylfuran-2(5H)-ylidene)malononitrile chloroform unknown solvate'
_symmetry_cell_setting           triclinic
_symmetry_space_group_name_H-M   'P -1'
_symmetry_Int_Tables_number      2
_space_group_name_Hall           '-P 1'
loop_
_symmetry_equiv_pos_site_id
_symmetry_equiv_pos_as_xyz
1 x,y,z
2 -x,-y,-z
_cell_length_a                   15.619(3)
_cell_length_b                   15.985(3)
_cell_length_c                   19.520(3)
_cell_angle_alpha                90.505(3)
_cell_angle_beta                 106.024(3)
_cell_angle_gamma                111.977(3)
_cell_volume                     4309.31
_exptl_crystal_colour            'dull green'
_exptl_crystal_description       block
_cell_formula_units_Z            4
_exptl_crystal_recrystallization_method chloroform/hexane
loop_
_atom_site_label
_atom_site_type_symbol
_atom_site_fract_x
_atom_site_fract_y
_atom_site_fract_z
Cl1 Cl 0.35673(9) 0.84012(8) -0.01874(6)
O1 O 0.4586(3) 1.3287(2) -0.00051(17)
N1 N 0.2911(3) 0.4767(3) 0.1508(2)
C1 C 0.3472(3) 0.7066(3) 0.0897(3)
H1 H 0.3232 0.6925 0.0389
C2 C 0.4578(4) 1.2789(3) 0.0627(2)
C3 C 0.4262(3) 1.1817(3) 0.0305(2)
C4 C 0.4264(4) 1.2711(3) -0.0607(2)
C5 C 0.3850(3) 0.7969(3) 0.1175(2)
C6 C 0.2911(4) 0.5436(3) 0.1065(3)
C7 C 0.4193(4) 1.3052(3) -0.1244(3)
C8 C 0.4082(3) 1.0249(3) 0.0536(3)
H2 H 0.3943 1.0082 0.0037
C9 C 0.3414(4) 0.6341(3) 0.1302(3)
H3 H 0.3765 0.6496 0.1799
C10 C 0.4055(3) 1.1796(3) -0.0432(2)
C11 C 0.3840(4) 1.2916(3) 0.0940(3)
H4 H 0.4035 1.3564 0.1088
H5 H 0.3806 1.2584 0.1357
H6 H 0.3203 1.2682 0.0576
C12 C 0.2259(4) 0.4981(3) 0.0315(3)
C13 C 0.3898(4) 1.2530(4) -0.1916(3)
C14 C 0.4105(3) 0.9579(3) 0.0991(3)
C15 C 0.4244(3) 1.1127(3) 0.0758(3)
H7 H 0.4352 1.1284 0.1254
C16 C 0.0880(4) 0.2386(3) 0.0246(3)
C17 C 0.1160(4) 0.3239(3) -0.0013(3)
H8 H 0.0884 0.3292 -0.0501
C18 C 0.2246(4) 0.3916(3) 0.1162(3)
C19 C 0.5591(4) 1.3169(3) 0.1140(3)
H9 H 0.6030 1.3050 0.0916
H10 H 0.5599 1.2877 0.1580
H11 H 0.5802 1.3826 0.1259
C20 C 0.3872(3) 0.8683(3) 0.0742(2)
C21 C 0.3693(4) 1.1019(4) -0.0943(3)
C22 C 0.1827(4) 0.3983(3) 0.0447(3)
N2 N 0.3389(4) 1.0369(4) -0.1343(3)
C23 C 0.4386(4) 0.9832(3) 0.1804(3)
H12 H 0.3802 0.9753 0.1946
H13 H 0.4840 1.0476 0.1940
N3 N 0.3687(4) 1.2158(4) -0.2484(3)
C24 C 0.1984(4) 0.3088(4) 0.1426(3)
H14 H 0.2268 0.3038 0.1914
C25 C 0.0106(4) 0.1574(4) -0.0260(3)
C26 C 0.4466(5) 1.4006(4) -0.1257(3)
C27 C 0.2851(4) 0.5073(4) -0.0208(3)
H15 H 0.3103 0.5707 -0.0304
H16 H 0.2436 0.4680 -0.0659
H17 H 0.3392 0.4893 0.0003
C28 C 0.1439(4) 0.5315(4) 0.0035(3)
H18 H 0.1089 0.5261 0.0390
H19 H 0.0992 0.4945 -0.0418
H20 H 0.1712 0.5953 -0.0045
C29 C 0.4193(4) 0.8234(3) 0.1976(3)
H21 H 0.3623 0.8137 0.2144
H22 H 0.4503 0.7829 0.2210
C30 C 0.1289(4) 0.2328(4) 0.0956(3)
H23 H 0.1093 0.1754 0.1130
N4 N 0.4696(5) 1.4773(4) -0.1284(3)
C31 C -0.0876(4) 0.1387(5) -0.0326(3)
C32 C -0.1365(4) 0.0127(4) -0.1250(4)
C33 C -0.1571(4) 0.0654(5) -0.0818(4)
H24 H -0.2232 0.0509 -0.0856
C34 C 0.0336(4) 0.1055(4) -0.0668(4)
C35 C -0.0393(4) 0.0339(4) -0.1166(4)
H25 H -0.0219 -0.0013 -0.1455
C36 C 0.4887(5) 0.9191(5) 0.2209(3)
H26 H 0.5489 0.9288 0.2086
H27 H 0.5056 0.9335 0.2736
C37 C -0.1158(5) 0.2019(7) 0.0067(4)
H28 H -0.0667 0.2278 0.0534
H29 H -0.1786 0.1676 0.0140
H30 H -0.1202 0.2510 -0.0219
C38 C -0.2148(5) -0.0632(4) -0.1814(4)
H31 H -0.2502 -0.1124 -0.1576
H32 H -0.1851 -0.0866 -0.2109
H33 H -0.2597 -0.0397 -0.2120
C39 C 0.1386(5) 0.1231(5) -0.0602(6)
H34 H 0.1709 0.1847 -0.0711
H35 H 0.1406 0.0788 -0.0941
H36 H 0.1719 0.1172 -0.0111
C40 C 0.3513(5) 0.4933(4) 0.2250(3)
H37 H 0.4142 0.5438 0.2298
H38 H 0.3643 0.4383 0.2374
C41 C 0.3060(6) 0.5170(5) 0.2782(3)
H39 H 0.2893 0.5691 0.2646
H40 H 0.3522 0.5324 0.3266
H41 H 0.2472 0.4647 0.2776
Cl2 Cl 0.33949(11) 0.54928(9) 0.46612(7)
O2 O 0.4634(3) 0.1479(2) 0.50051(16)
C42 C 0.4323(4) 0.2675(3) 0.4558(2)
C43 C 0.4551(4) 0.1919(3) 0.4433(2)
C44 C 0.4249(4) 0.2714(3) 0.5250(3)
N5 N 0.1899(4) 0.8318(3) 0.5826(2)
C45 C 0.4138(4) 0.3246(4) 0.4034(3)
C46 C 0.4655(4) 0.1555(3) 0.3826(3)
C47 C 0.4458(4) 0.1933(3) 0.5591(3)
C48 C 0.4038(4) 0.3301(3) 0.5652(3)
H42 H 0.4014 0.3169 0.6121
N6 N 0.4608(4) 0.2218(3) 0.2634(2)
C49 C 0.3863(4) 0.4048(3) 0.5430(3)
H43 H 0.3868 0.4169 0.4955
C50 C 0.0902(4) 0.9647(4) 0.4160(3)
C51 C -0.0544(4) 0.9557(4) 0.3159(3)
C52 C 0.3431(4) 0.5345(4) 0.5554(3)
N7 N 0.3962(4) 0.3703(3) 0.3606(3)
C53 C 0.3597(4) 0.1225(3) 0.5750(3)
H44 H 0.3036 0.1033 0.5317
H45 H 0.3450 0.1484 0.6138
H46 H 0.3747 0.0698 0.5897
C54 C 0.1593(4) 0.8595(4) 0.4658(3)
C55 C 0.1577(4) 0.8854(4) 0.5329(3)
C56 C 0.2197(4) 0.7752(4) 0.5515(3)
C57 C 0.3677(4) 0.4647(4) 0.5835(3)
C58 C 0.2045(4) 0.7891(4) 0.4717(3)
C59 C 0.2860(4) 0.6578(4) 0.5585(3)
C60 C 0.3177(4) 0.5949(4) 0.5924(3)
C61 C 0.0443(4) 1.0025(4) 0.3537(3)
C62 C 0.4628(4) 0.1951(3) 0.3177(3)
C63 C 0.1278(4) 0.9541(4) 0.5450(3)
H47 H 0.1289 0.9737 0.5915
C64 C 0.3709(5) 0.4518(4) 0.6603(3)
H48 H 0.4210 0.4281 0.6822
H49 H 0.3076 0.4069 0.6619
C65 C 0.2553(5) 0.7162(4) 0.5889(3)
H50 H 0.2591 0.7156 0.6383
C66 C 0.5370(4) 0.2256(4) 0.6211(3)
H51 H 0.5532 0.1737 0.6363
H52 H 0.5275 0.2548 0.6612
H53 H 0.5900 0.2696 0.6063
C67 C 0.4806(5) 0.0728(4) 0.3840(3)
C68 C 0.1250(4) 0.8972(4) 0.4068(3)
H54 H 0.1247 0.8779 0.3606
C69 C 0.0960(4) 0.9924(4) 0.4844(3)
H55 H 0.0769 1.0411 0.4908
C70 C 0.1926(5) 0.8389(4) 0.6572(3)
H56 H 0.1783 0.7783 0.6740
H57 H 0.1427 0.8605 0.6621
C71 C -0.0972(4) 0.9960(5) 0.2613(3)
H58 H -0.1646 0.9658 0.2373
C72 C 0.3227(5) 0.5833(4) 0.6699(3)
H59 H 0.3418 0.6432 0.6972
H60 H 0.2579 0.5434 0.6726
C73 C -0.0475(4) 1.0766(4) 0.2406(3)
C74 C 0.0499(5) 1.1199(4) 0.2766(4)
H61 H 0.0860 1.1752 0.2620
N8 N 0.4911(6) 0.0058(4) 0.3841(3)
C75 C -0.1125(5) 0.8669(4) 0.3362(3)
H62 H -0.0884 0.8209 0.3266
H63 H -0.1807 0.8474 0.3079
H64 H -0.1064 0.8741 0.3874
C76 C 0.3031(5) 0.8328(5) 0.4579(4)
H65 H 0.2933 0.8466 0.4082
H66 H 0.3360 0.7906 0.4659
H67 H 0.3428 0.8891 0.4909
C77 C 0.1357(5) 0.7024(4) 0.4208(3)
H68 H 0.0740 0.6783 0.4318
H69 H 0.1646 0.6570 0.4268
H70 H 0.1244 0.7162 0.3711
C78 C 0.0976(4) 1.0859(4) 0.3337(3)
C79 C 0.3941(6) 0.5428(5) 0.7032(4)
H71 H 0.3932 0.5329 0.7530
H72 H 0.4600 0.5857 0.7052
C80 C -0.0961(5) 1.1160(5) 0.1789(4)
H73 H -0.0891 1.0951 0.1341
H74 H -0.0656 1.1825 0.1878
H75 H -0.1650 1.0958 0.1748
C81 C 0.2883(5) 0.9024(5) 0.7010(4)
H76 H 0.3011 0.9629 0.6855
H77 H 0.3376 0.8813 0.6954
H78 H 0.2902 0.9055 0.7516
C82 C 0.2023(5) 1.1375(5) 0.3728(4)
H79 H 0.2093 1.1588 0.4221
H80 H 0.2288 1.1899 0.3482
H81 H 0.2374 1.0978 0.3738
Cl3 Cl 0.21450(18) 0.84717(17) 0.25846(12)
Cl4 Cl 0.00766(19) 0.7353(2) 0.22103(13)
Cl5 Cl 0.1292(2) 0.6842(2) 0.15853(17)
C83 C 0.1075(6) 0.7690(7) 0.1928(4)
H82 H 0.0942 0.8043 0.1519
Cl6 Cl 0.0404(3) 0.4209(3) 0.4617(3)
Cl7 Cl 0.1014(3) 0.2929(3) 0.5384(3)
C84 C 0.1108(7) 0.3586(7) 0.4717(6)
H83 H 0.1798 0.4023 0.4835
Cl8 Cl 0.0836(3) 0.2912(3) 0.3933(3)
H84? H 0.2316 0.6231 0.5154
H85? H 0.3390 0.6972 0.5405
loop_
_geom_bond_atom_site_label_1
_geom_bond_atom_site_label_2
_geom_bond_site_symmetry_1
_geom_bond_site_symmetry_2
Cl1 C20 1_555 1_555
O1 C2 1_555 1_555
N1 C6 1_555 1_555
C1 H1 1_555 1_555
C2 C3 1_555 1_555
C3 C10 1_555 1_555
C4 O1 1_555 1_555
C5 C1 1_555 1_555
C6 C9 1_555 1_555
C7 C4 1_555 1_555
C8 H2 1_555 1_555
C9 C1 1_555 1_555
H3 C9 1_555 1_555
C10 C4 1_555 1_555
C11 C2 1_555 1_555
H4 C11 1_555 1_555
H5 C11 1_555 1_555
H6 C11 1_555 1_555
C12 C6 1_555 1_555
C13 C7 1_555 1_555
C14 C8 1_555 1_555
C15 C3 1_555 1_555
H7 C15 1_555 1_555
C16 C17 1_555 1_555
C17 H8 1_555 1_555
C18 N1 1_555 1_555
C19 C2 1_555 1_555
H9 C19 1_555 1_555
H10 C19 1_555 1_555
H11 C19 1_555 1_555
C20 C5 1_555 1_555
C21 C10 1_555 1_555
C22 C12 1_555 1_555
N2 C21 1_555 1_555
C23 C14 1_555 1_555
H12 C23 1_555 1_555
H13 C23 1_555 1_555
N3 C13 1_555 1_555
C24 C18 1_555 1_555
H14 C24 1_555 1_555
C25 C16 1_555 1_555
C26 C7 1_555 1_555
C27 C12 1_555 1_555
H15 C27 1_555 1_555
H16 C27 1_555 1_555
H17 C27 1_555 1_555
C28 C12 1_555 1_555
H18 C28 1_555 1_555
H19 C28 1_555 1_555
H20 C28 1_555 1_555
C29 C5 1_555 1_555
H21 C29 1_555 1_555
H22 C29 1_555 1_555
C30 C16 1_555 1_555
H23 C30 1_555 1_555
N4 C26 1_555 1_555
C31 C25 1_555 1_555
C32 C33 1_555 1_555
C33 C31 1_555 1_555
H24 C33 1_555 1_555
C34 C25 1_555 1_555
C35 C32 1_555 1_555
H25 C35 1_555 1_555
C36 C23 1_555 1_555
H26 C36 1_555 1_555
H27 C36 1_555 1_555
C37 C31 1_555 1_555
H28 C37 1_555 1_555
H29 C37 1_555 1_555
H30 C37 1_555 1_555
C38 C32 1_555 1_555
H31 C38 1_555 1_555
H32 C38 1_555 1_555
H33 C38 1_555 1_555
C39 C34 1_555 1_555
H34 C39 1_555 1_555
H35 C39 1_555 1_555
H36 C39 1_555 1_555
C40 N1 1_555 1_555
H37 C40 1_555 1_555
H38 C40 1_555 1_555
C41 C40 1_555 1_555
H39 C41 1_555 1_555
H40 C41 1_555 1_555
H41 C41 1_555 1_555
Cl2 C52 1_555 1_555
O2 C43 1_555 1_555
C42 C43 1_555 1_555
C43 C46 1_555 1_555
C44 C42 1_555 1_555
N5 C55 1_555 1_555
C45 C42 1_555 1_555
C46 C62 1_555 1_555
C47 O2 1_555 1_555
C48 C44 1_555 1_555
H42 C48 1_555 1_555
N6 C62 1_555 1_555
C49 C48 1_555 1_555
H43 C49 1_555 1_555
C50 C61 1_555 1_555
C51 C61 1_555 1_555
C52 C57 1_555 1_555
N7 C45 1_555 1_555
C53 C47 1_555 1_555
H44 C53 1_555 1_555
H45 C53 1_555 1_555
H46 C53 1_555 1_555
C54 C55 1_555 1_555
C55 C63 1_555 1_555
C56 N5 1_555 1_555
C57 C49 1_555 1_555
C58 C54 1_555 1_555
C59 C60 1_555 1_555
C60 C52 1_555 1_555
C61 C78 1_555 1_555
C63 H47 1_555 1_555
C64 C57 1_555 1_555
H48 C64 1_555 1_555
H49 C64 1_555 1_555
C65 C56 1_555 1_555
H50 C65 1_555 1_555
C66 C47 1_555 1_555
H51 C66 1_555 1_555
H52 C66 1_555 1_555
H53 C66 1_555 1_555
C67 C46 1_555 1_555
C68 C50 1_555 1_555
H54 C68 1_555 1_555
C69 C50 1_555 1_555
H55 C69 1_555 1_555
C70 N5 1_555 1_555
H56 C70 1_555 1_555
H57 C70 1_555 1_555
C71 C51 1_555 1_555
H58 C71 1_555 1_555
C72 C60 1_555 1_555
H59 C72 1_555 1_555
H60 C72 1_555 1_555
C73 C71 1_555 1_555
C74 C73 1_555 1_555
H61 C74 1_555 1_555
N8 C67 1_555 1_555
C75 C51 1_555 1_555
H62 C75 1_555 1_555
H63 C75 1_555 1_555
H64 C75 1_555 1_555
C76 C58 1_555 1_555
H65 C76 1_555 1_555
H66 C76 1_555 1_555
H67 C76 1_555 1_555
C77 C58 1_555 1_555
H68 C77 1_555 1_555
H69 C77 1_555 1_555
H70 C77 1_555 1_555
C78 C74 1_555 1_555
C79 C64 1_555 1_555
H71 C79 1_555 1_555
H72 C79 1_555 1_555
C80 C73 1_555 1_555
H73 C80 1_555 1_555
H74 C80 1_555 1_555
H75 C80 1_555 1_555
C81 C70 1_555 1_555
H76 C81 1_555 1_555
H77 C81 1_555 1_555
H78 C81 1_555 1_555
C82 C78 1_555 1_555
H79 C82 1_555 1_555
H80 C82 1_555 1_555
H81 C82 1_555 1_555
Cl3 C83 1_555 1_555
Cl4 C83 1_555 1_555
Cl5 C83 1_555 1_555
C83 H82 1_555 1_555
Cl6 C84 1_555 1_555
Cl7 C84 1_555 1_555
C84 H83 1_555 1_555
Cl8 C84 1_555 1_555
C8 C15 1_555 1_555
C14 C20 1_555 1_555
C17 C22 1_555 1_555
C18 C22 1_555 1_555
C24 C30 1_555 1_555
C29 C36 1_555 1_555
C34 C35 1_555 1_555
C44 C47 1_555 1_555
C54 C68 1_555 1_555
C56 C58 1_555 1_555
C59 C65 1_555 1_555
C63 C69 1_555 1_555
C72 C79 1_555 1_555

#END
