
#######################################################################
#
#                 Cambridge Crystallographic Data Centre
#                                CCDC 
#
#######################################################################
#
# If this CIF has been generated from an entry in the Cambridge 
# Structural Database, then it will include bibliographic, chemical, 
# crystal, experimental, refinement or atomic coordinate data resulting 
# from the CCDC's data processing and validation procedures.
#
#######################################################################

data_OVUVOR
_chemical_formula_moiety         'C26 H34 F1 N1 O4 Si1'
_chemical_name_systematic        
'(Z)-Methyl 2-(((benzyloxy)carbonyl)amino)-3-(4-(di-t-butyl(fluoro)silyl)phenyl)acrylate'
_symmetry_cell_setting           triclinic
_symmetry_space_group_name_H-M   'P -1'
_symmetry_Int_Tables_number      2
_space_group_name_Hall           '-P 1'
loop_
_symmetry_equiv_pos_site_id
_symmetry_equiv_pos_as_xyz
1 x,y,z
2 -x,-y,-z
_cell_length_a                   7.8992(8)
_cell_length_b                   9.2159(10)
_cell_length_c                   19.301(2)
_cell_angle_alpha                83.149(3)
_cell_angle_beta                 79.017(3)
_cell_angle_gamma                72.545(3)
_cell_volume                     1312.93
_exptl_crystal_colour            colorless
_chemical_melting_point          '307 K'
_cell_formula_units_Z            2
loop_
_atom_site_label
_atom_site_type_symbol
_atom_site_fract_x
_atom_site_fract_y
_atom_site_fract_z
Si1 Si 0.7456(3) 0.6976(2) 0.14293(8)
F1 F 0.9098(5) 0.5584(4) 0.1104(2)
C1 C 0.8176(6) 0.8690(5) 0.1555(2)
C2 C 0.7106(7) 0.9857(5) 0.2093(3)
H1 H 0.5943 0.9667 0.2281
H2 H 0.6908 1.0886 0.1862
H3 H 0.7781 0.9765 0.2480
C3 C 0.9902(6) 0.7796(5) 0.1847(2)
H4 H 0.9919 0.6724 0.1949
H5 H 0.9933 0.8227 0.2283
H6 H 1.0954 0.7865 0.1497
C4 C 0.8702(8) 0.9491(7) 0.0840(3)
H7 H 0.8198 0.9178 0.0476
H8 H 1.0016 0.9212 0.0715
H9 H 0.8230 1.0598 0.0871
C5 C 0.5759(10) 0.7303(8) 0.0819(3)
C6 C 0.5253(8) 0.5688(6) 0.0927(2)
H10 H 0.4713 0.5528 0.1420
H11 H 0.6347 0.4851 0.0809
H12 H 0.4396 0.5715 0.0616
C7 C 0.6554(6) 0.7440(5) 0.00698(17)
H13 H 0.7534 0.6515 -0.0048
H14 H 0.7028 0.8325 -0.0016
H15 H 0.5631 0.7570 -0.0226
C8 C 0.4220(9) 0.8766(8) 0.0992(4)
H16 H 0.3663 0.8683 0.1489
H17 H 0.3317 0.8898 0.0688
H18 H 0.4703 0.9646 0.0910
C9 C 0.6273(6) 0.6378(4) 0.23696(16)
C10 C 0.4847(6) 0.7120(4) 0.28637(18)
H19 H 0.4201 0.8145 0.2754
C11 C 0.4339(5) 0.6417(3) 0.35098(16)
H20 H 0.3358 0.6969 0.3833
C12 C 0.5238(3) 0.4913(3) 0.36971(13)
C13 C 0.6682(4) 0.4155(4) 0.32074(14)
H21 H 0.7330 0.3129 0.3315
C14 C 0.7174(4) 0.4889(4) 0.25675(15)
H22 H 0.8174 0.4350 0.2248
C15 C 0.4481(3) 0.4238(3) 0.43634(12)
H23 H 0.3457 0.4912 0.4618
C16 C 0.4984(3) 0.2824(3) 0.46797(12)
N1 N 0.6573(3) 0.1678(2) 0.44524(10)
H24 H 0.6496 0.0680 0.4397
C17 C 0.8231(3) 0.1842(3) 0.44509(12)
O1 O 0.8538(2) 0.2940(2) 0.46203(10)
O2 O 0.9498(2) 0.05847(18) 0.42079(9)
C18 C 1.1316(3) 0.0737(3) 0.40503(14)
H25 H 1.2194 -0.0288 0.4053
H26 H 1.1505 0.1301 0.4421
C19 C 1.1629(3) 0.1567(3) 0.33412(13)
C20 C 1.2308(4) 0.2800(4) 0.32676(16)
H27 H 1.2565 0.3129 0.3674
C21 C 1.2625(5) 0.3570(4) 0.26198(18)
H28 H 1.3089 0.4421 0.2583
C22 C 1.2261(3) 0.3093(3) 0.20241(11)
H29 H 1.2494 0.3604 0.1574
C23 C 1.1568(3) 0.1887(3) 0.20870(11)
H30 H 1.1301 0.1567 0.1681
C24 C 1.1249(4) 0.1124(3) 0.27413(15)
H31 H 1.0763 0.0287 0.2778
C25 C 0.3814(3) 0.2352(3) 0.53079(12)
O3 O 0.4259(3) 0.1154(2) 0.56519(9)
O4 O 0.2227(2) 0.3380(2) 0.54355(10)
C26 C 0.1007(4) 0.3093(4) 0.60600(17)
H32 H 0.0767 0.2119 0.6033
H33 H -0.0123 0.3915 0.6089
H34 H 0.1551 0.3048 0.6481
C27? C 0.6858(10) 0.6393(9) 0.0788(3)
C28? C 0.8810(13) 0.5397(11) 0.0651(5)
F2? F 0.4433(5) 0.8873(4) 0.1477(2)
H35? H 0.5843 0.9855 0.2184
H36? H 0.7189 1.0873 0.1905
H37? H 0.7600 0.9590 0.2535
H38? H 0.9990 0.6706 0.1896
H39? H 0.9866 0.8147 0.2311
H40? H 1.0950 0.7964 0.1522
H41? H 0.8047 0.9306 0.0492
H42? H 0.9999 0.9092 0.0680
H43? H 0.8398 1.0590 0.0890
H44? H 0.4118 0.6503 0.0997
H45? H 0.5337 0.4987 0.1351
H46? H 0.5294 0.5130 0.0520
H47? H 0.5321 0.8116 0.0124
H48? H 0.6751 0.6789 -0.0321
H49? H 0.7405 0.8053 -0.0032
H50? H 0.9621 0.6044 0.0574
H51? H 0.8998 0.4830 0.0231
H52? H 0.9061 0.4678 0.1061
Si2? Si 0.6335(3) 0.7660(2) 0.15572(9)
loop_
_geom_bond_atom_site_label_1
_geom_bond_atom_site_label_2
_geom_bond_site_symmetry_1
_geom_bond_site_symmetry_2
Si1 F1 1_555 1_555
C1 Si1 1_555 1_555
C2 C1 1_555 1_555
H1 C2 1_555 1_555
H2 C2 1_555 1_555
H3 C2 1_555 1_555
C3 C1 1_555 1_555
H4 C3 1_555 1_555
H5 C3 1_555 1_555
H6 C3 1_555 1_555
C4 C1 1_555 1_555
H7 C4 1_555 1_555
H8 C4 1_555 1_555
H9 C4 1_555 1_555
C5 Si1 1_555 1_555
C6 C5 1_555 1_555
H10 C6 1_555 1_555
H11 C6 1_555 1_555
H12 C6 1_555 1_555
C7 C5 1_555 1_555
H13 C7 1_555 1_555
H14 C7 1_555 1_555
H15 C7 1_555 1_555
C8 C5 1_555 1_555
H16 C8 1_555 1_555
H17 C8 1_555 1_555
H18 C8 1_555 1_555
C9 Si1 1_555 1_555
C10 C9 1_555 1_555
H19 C10 1_555 1_555
C11 C10 1_555 1_555
H20 C11 1_555 1_555
C12 C11 1_555 1_555
C13 C12 1_555 1_555
H21 C13 1_555 1_555
C14 C9 1_555 1_555
H22 C14 1_555 1_555
C15 C12 1_555 1_555
H23 C15 1_555 1_555
C16 C15 1_555 1_555
N1 C16 1_555 1_555
H24 N1 1_555 1_555
C17 N1 1_555 1_555
O1 C17 1_555 1_555
O2 C17 1_555 1_555
C18 O2 1_555 1_555
H25 C18 1_555 1_555
H26 C18 1_555 1_555
C19 C18 1_555 1_555
C20 C19 1_555 1_555
H27 C20 1_555 1_555
C21 C20 1_555 1_555
H28 C21 1_555 1_555
C22 C21 1_555 1_555
H29 C22 1_555 1_555
C23 C22 1_555 1_555
H30 C23 1_555 1_555
C24 C19 1_555 1_555
H31 C24 1_555 1_555
C25 C16 1_555 1_555
O3 C25 1_555 1_555
O4 C25 1_555 1_555
C26 O4 1_555 1_555
H32 C26 1_555 1_555
H33 C26 1_555 1_555
H34 C26 1_555 1_555
C13 C14 1_555 1_555
C23 C24 1_555 1_555

#END
