
#######################################################################
#
#                 Cambridge Crystallographic Data Centre
#                                CCDC 
#
#######################################################################
#
# If this CIF has been generated from an entry in the Cambridge 
# Structural Database, then it will include bibliographic, chemical, 
# crystal, experimental, refinement or atomic coordinate data resulting 
# from the CCDC's data processing and validation procedures.
#
#######################################################################

data_OWAYUI
_chemical_formula_moiety         'C14 H19 Br1 S3 Si2'
_chemical_name_systematic        
(2-bromobisthieno[3,2-b:3',4'-d]thiene-5,7-diyl)bis(trimethylsilane)
_symmetry_cell_setting           monoclinic
_symmetry_space_group_name_H-M   'C 2/c'
_symmetry_Int_Tables_number      15
_space_group_name_Hall           '-C 2yn'
loop_
_symmetry_equiv_pos_site_id
_symmetry_equiv_pos_as_xyz
1 x,y,z
2 -x,y,1/2-z
3 1/2+x,1/2+y,z
4 1/2-x,1/2+y,1/2-z
5 -x,-y,-z
6 x,-y,1/2+z
7 1/2-x,1/2-y,-z
8 1/2+x,1/2-y,1/2+z
_cell_length_a                   20.362(6)
_cell_length_b                   9.842(3)
_cell_length_c                   19.635(6)
_cell_angle_alpha                90
_cell_angle_beta                 93.532(5)
_cell_angle_gamma                90
_cell_volume                     3927.43
_exptl_crystal_colour            yellow
_exptl_crystal_description       block
_cell_formula_units_Z            8
loop_
_atom_site_label
_atom_site_type_symbol
_atom_site_fract_x
_atom_site_fract_y
_atom_site_fract_z
Br1 Br 0.084956(18) 0.85730(5) 0.06259(2)
S1 S 0.45601(4) 0.54996(9) 0.15483(5)
S2 S 0.36694(4) 0.91918(9) 0.08360(5)
S3 S 0.20308(4) 0.66879(9) 0.10585(4)
Si1 Si 0.54272(5) 0.80408(12) 0.12236(6)
Si2 Si 0.32853(5) 0.38157(10) 0.17418(5)
C1 C 0.5679(2) 0.7924(7) 0.0333(2)
H1 H 0.5361 0.8382 0.0033
H2 H 0.5705 0.6987 0.0202
H3 H 0.6101 0.8345 0.0302
C2 C 0.6042(2) 0.7167(6) 0.1795(2)
H4 H 0.5914 0.7227 0.2257
H5 H 0.6464 0.7589 0.1762
H6 H 0.6068 0.6229 0.1665
C3 C 0.5330(3) 0.9849(5) 0.1453(4)
H7 H 0.5007 1.0263 0.1142
H8 H 0.5743 1.0309 0.1426
H9 H 0.5189 0.9913 0.1909
C4 C 0.46154(16) 0.7172(3) 0.12826(16)
C5 C 0.39791(14) 0.7612(3) 0.11378(15)
C6 C 0.34749(14) 0.6635(3) 0.12408(15)
C7 C 0.37131(14) 0.5393(3) 0.14700(15)
C8 C 0.2824(2) 0.3038(4) 0.0981(2)
H10 H 0.2500 0.3669 0.0798
H11 H 0.2611 0.2220 0.1117
H12 H 0.3126 0.2827 0.0640
C9 C 0.3919(2) 0.2609(4) 0.2110(3)
H13 H 0.4151 0.3021 0.2497
H14 H 0.4224 0.2395 0.1772
H15 H 0.3708 0.1792 0.2250
C10 C 0.27066(19) 0.4276(4) 0.23980(18)
H16 H 0.2948 0.4661 0.2787
H17 H 0.2479 0.3477 0.2535
H18 H 0.2394 0.4927 0.2212
C11 C 0.28351(14) 0.7238(3) 0.10643(15)
C12 C 0.28672(16) 0.8564(3) 0.08431(16)
C13 C 0.22449(16) 0.9159(4) 0.06628(16)
H19 H 0.2181 1.0042 0.0503
C14 C 0.17590(16) 0.8256(4) 0.07570(16)
loop_
_geom_bond_atom_site_label_1
_geom_bond_atom_site_label_2
_geom_bond_site_symmetry_1
_geom_bond_site_symmetry_2
Br1 C14 1_555 1_555
S1 C4 1_555 1_555
S2 C5 1_555 1_555
S3 C11 1_555 1_555
Si1 C1 1_555 1_555
Si2 C7 1_555 1_555
C1 H1 1_555 1_555
H2 C1 1_555 1_555
H3 C1 1_555 1_555
C2 Si1 1_555 1_555
H4 C2 1_555 1_555
H5 C2 1_555 1_555
H6 C2 1_555 1_555
C3 Si1 1_555 1_555
H7 C3 1_555 1_555
H8 C3 1_555 1_555
H9 C3 1_555 1_555
C4 Si1 1_555 1_555
C5 C4 1_555 1_555
C6 C5 1_555 1_555
C7 S1 1_555 1_555
C8 Si2 1_555 1_555
H10 C8 1_555 1_555
H11 C8 1_555 1_555
H12 C8 1_555 1_555
C9 Si2 1_555 1_555
H13 C9 1_555 1_555
H14 C9 1_555 1_555
H15 C9 1_555 1_555
C10 Si2 1_555 1_555
H16 C10 1_555 1_555
H17 C10 1_555 1_555
H18 C10 1_555 1_555
C11 C6 1_555 1_555
C12 S2 1_555 1_555
C13 C12 1_555 1_555
H19 C13 1_555 1_555
C14 S3 1_555 1_555
C6 C7 1_555 1_555
C11 C12 1_555 1_555
C13 C14 1_555 1_555

#END
