
#######################################################################
#
#                 Cambridge Crystallographic Data Centre
#                                CCDC 
#
#######################################################################
#
# If this CIF has been generated from an entry in the Cambridge 
# Structural Database, then it will include bibliographic, chemical, 
# crystal, experimental, refinement or atomic coordinate data resulting 
# from the CCDC's data processing and validation procedures.
#
#######################################################################

data_OWIMOY
_chemical_formula_moiety         'C50 H56 I1 Li1 N8 O4,3(C2 H3 N1)'
_chemical_name_systematic        
'iodo-(methanol)-(49-(methoxy)-1,25,30,30,39,39-hexamethyl-5,21,44,45,46,47,48,50-octaazanonacyclo[23.9.9.1^6,10^.1^11,15^.1^16,20^.1^26,29^.1^31,34^.1^35,38^.1^40,43^]pentaconta-6(50),7,9,11(49),12,14,16(48),17,19,26,28,31,33,35,37,40,42-heptadecaene-4,22-dione)-lithium acetonitrile solvate'
_symmetry_cell_setting           triclinic
_symmetry_space_group_name_H-M   'P -1'
_symmetry_Int_Tables_number      2
_space_group_name_Hall           '-P 1'
loop_
_symmetry_equiv_pos_site_id
_symmetry_equiv_pos_as_xyz
1 x,y,z
2 -x,-y,-z
_cell_length_a                   13.8691(14)
_cell_length_b                   13.9169(14)
_cell_length_c                   14.7837(14)
_cell_angle_alpha                87.019(3)
_cell_angle_beta                 83.805(3)
_cell_angle_gamma                69.563(3)
_cell_volume                     2657.94
_exptl_crystal_colour            colorless
_exptl_crystal_description       Prism
_cell_formula_units_Z            2
loop_
_atom_site_label
_atom_site_type_symbol
_atom_site_fract_x
_atom_site_fract_y
_atom_site_fract_z
I1 I 0.20097(2) 0.47505(2) 0.27940(2)
C1 C 0.4956(2) 0.2092(2) 0.3853(2)
Li1 Li 0.3406(5) 0.5614(5) 0.1512(4)
N1 N 0.4029(2) 0.2026(2) 0.24845(18)
H1 H 0.3528 0.2615 0.2600
N2 N 0.3130(2) 0.2782(2) 0.46462(18)
H2 H 0.2906 0.3276 0.4242
N3 N 0.0734(2) 0.3098(2) 0.41393(18)
H3 H 0.1192 0.3296 0.3796
N4 N 0.1603(2) 0.2408(2) 0.19981(18)
H4 H 0.1687 0.2977 0.2141
N5 N 0.5475(2) 0.5103(2) 0.2561(2)
H5 H 0.5923 0.4941 0.2971
N6 N 0.4435(2) 0.6448(2) 0.16753(18)
N7 N 0.0703(2) 0.6867(2) 0.06371(18)
N8 N -0.0069(2) 0.5675(2) 0.10374(19)
C2 C 0.4131(3) 0.2087(2) 0.4614(2)
C3 C 0.4160(3) 0.1440(3) 0.5354(2)
H6 H 0.4745 0.0879 0.5513
C4 C 0.3166(3) 0.1757(3) 0.5835(2)
H7 H 0.2968 0.1442 0.6374
C5 C 0.2534(3) 0.2596(3) 0.5393(2)
C6 C 0.1423(3) 0.3268(3) 0.5629(2)
C7 C 0.0688(3) 0.3005(3) 0.5072(2)
C8 C -0.0115(3) 0.2678(3) 0.5339(2)
H8 H -0.0336 0.2549 0.5949
C9 C -0.0567(3) 0.2562(3) 0.4557(2)
H9 H -0.1136 0.2334 0.4549
C10 C -0.0038(3) 0.2837(2) 0.3817(2)
C11 C -0.0201(3) 0.2883(2) 0.2812(2)
C12 C 0.0739(2) 0.2154(2) 0.2273(2)
C13 C 0.0910(3) 0.1209(3) 0.1922(2)
H10 H 0.0449 0.0837 0.1999
C14 C 0.1902(3) 0.0887(3) 0.1424(2)
H11 H 0.2222 0.0256 0.1115
C15 C 0.2316(2) 0.1647(2) 0.1469(2)
C16 C 0.3331(2) 0.1732(2) 0.1056(2)
C17 C 0.4121(2) 0.1422(2) 0.1747(2)
C18 C 0.4988(3) 0.0574(2) 0.1820(2)
H12 H 0.5245 0.0017 0.1410
C19 C 0.5435(3) 0.0674(2) 0.2616(2)
H13 H 0.6045 0.0196 0.2832
C20 C 0.4835(2) 0.1577(2) 0.3016(2)
C21 C 0.4868(3) 0.3213(2) 0.3601(2)
H14 H 0.4160 0.3594 0.3435
H15 H 0.4971 0.3540 0.4144
C22 C 0.5652(3) 0.3310(3) 0.2807(2)
H16 H 0.6302 0.3283 0.3044
H17 H 0.5814 0.2735 0.2382
C23 C 0.5181(3) 0.4322(3) 0.2315(2)
C24 C 0.5163(3) 0.6131(3) 0.2251(2)
C25 C 0.5625(3) 0.6758(3) 0.2590(3)
H18 H 0.6136 0.6495 0.3006
C26 C 0.5324(3) 0.7771(3) 0.2309(3)
H19 H 0.5621 0.8223 0.2531
C27 C 0.4580(3) 0.8121(3) 0.1695(2)
H20 H 0.4355 0.8817 0.1495
C28 C 0.4172(3) 0.7441(3) 0.1380(2)
C29 C 0.3385(3) 0.7787(2) 0.0710(2)
C30 C 0.3578(3) 0.8291(3) -0.0098(2)
H21 H 0.4222 0.8391 -0.0227
C31 C 0.2836(3) 0.8645(3) -0.0708(2)
H22 H 0.2976 0.8980 -0.1256
C32 C 0.1889(3) 0.8512(3) -0.0523(2)
H23 H 0.1378 0.8772 -0.0938
C33 C 0.1681(3) 0.7997(2) 0.0273(2)
C34 C 0.2443(3) 0.7645(2) 0.0880(2)
C35 C 0.0672(3) 0.7841(3) 0.0477(2)
C36 C -0.0243(3) 0.8666(3) 0.0525(2)
H24 H -0.0243 0.9342 0.0395
C37 C -0.1159(3) 0.8492(3) 0.0765(2)
H25 H -0.1795 0.9051 0.0807
C38 C -0.1149(3) 0.7504(3) 0.0944(2)
H26 H -0.1769 0.7368 0.1114
C39 C -0.0191(3) 0.6716(3) 0.0865(2)
C40 C -0.0458(3) 0.4123(3) 0.1417(2)
H27 H -0.0918 0.3790 0.1206
H28 H 0.0243 0.3808 0.1103
C41 C -0.0429(3) 0.4000(2) 0.2453(2)
H29 H -0.1103 0.4438 0.2750
H30 H 0.0108 0.4251 0.2633
C42 C 0.6021(3) 0.1512(3) 0.4177(2)
H31 H 0.6074 0.0805 0.4342
H32 H 0.6111 0.1852 0.4709
H33 H 0.6559 0.1507 0.3688
C43 C 0.1123(3) 0.3106(3) 0.6645(2)
H34 H 0.1211 0.2382 0.6762
H35 H 0.0399 0.3529 0.6805
H36 H 0.1568 0.3303 0.7014
C44 C 0.1303(3) 0.4404(3) 0.5479(2)
H37 H 0.1795 0.4563 0.5820
H38 H 0.0597 0.4835 0.5691
H39 H 0.1441 0.4538 0.4829
C45 C -0.1141(3) 0.2569(3) 0.2716(2)
H40 H -0.1262 0.2598 0.2073
H41 H -0.1751 0.3039 0.3061
H42 H -0.1009 0.1868 0.2954
C46 C 0.3734(3) 0.1007(3) 0.0246(2)
H43 H 0.3812 0.0305 0.0453
H44 H 0.4405 0.1032 -0.0015
H45 H 0.3241 0.1220 -0.0216
C47 C 0.3188(3) 0.2830(2) 0.0693(2)
H46 H 0.2670 0.3027 0.0252
H47 H 0.3847 0.2851 0.0397
H48 H 0.2955 0.3309 0.1201
C48 C 0.1610(4) 0.7740(3) 0.2378(3)
H49 H 0.1941 0.8196 0.2586
H50 H 0.1489 0.7303 0.2886
H51 H 0.0949 0.8152 0.2151
C49 C 0.3303(3) 0.5379(3) -0.0452(3)
H52 H 0.3178 0.6071 -0.0707
H53 H 0.3017 0.5002 -0.0825
H54 H 0.4048 0.5018 -0.0445
O1 O -0.1786(6) 0.5788(6) 0.1234(4)
C50 C -0.0876(7) 0.5283(7) 0.1222(2)
O2 O 0.22661(18) 0.71165(18) 0.16663(15)
O3 O 0.45515(19) 0.44144(19) 0.17689(17)
H55 H 0.232(4) 0.569(4) 0.050(3)
O4 O 0.28175(19) 0.5444(2) 0.04521(17)
N9 N 0.2216(4) -0.1006(3) 0.4081(3)
C52 C 0.2469(3) -0.0319(3) 0.3910(3)
C53 C 0.2779(3) 0.0574(3) 0.3716(3)
H58 H 0.2234 0.1110 0.3422
H59 H 0.3421 0.0380 0.3311
H60 H 0.2889 0.0833 0.4286
N10 N 0.6550(3) 0.4630(3) 0.4230(3)
C54 C 0.6636(3) 0.4213(3) 0.4911(3)
C55 C 0.6759(4) 0.3666(4) 0.5775(3)
H61 H 0.7195 0.2948 0.5673
H62 H 0.6079 0.3699 0.6066
H63 H 0.7086 0.3981 0.6169
N11 N -0.1566(3) 0.9946(3) 0.2589(3)
C56 C -0.1142(4) 0.9916(3) 0.3203(3)
C57 C -0.0579(6) 0.9891(4) 0.3984(4)
H64 H 0.0092 0.9953 0.3776
H65 H -0.0471 0.9240 0.4318
H66 H -0.0979 1.0461 0.4385
H56? H 0.0232 0.3726 0.1120
H57? H -0.0957 0.3824 0.1232
O5? O -0.1613(10) 0.5652(10) 0.0845(7)
C51? C -0.0755(10) 0.5212(11) 0.1076(4)
loop_
_geom_bond_atom_site_label_1
_geom_bond_atom_site_label_2
_geom_bond_site_symmetry_1
_geom_bond_site_symmetry_2
I1 Li1 1_555 1_555
C1 C2 1_555 1_555
Li1 N6 1_555 1_555
N1 H1 1_555 1_555
N2 H2 1_555 1_555
N3 H3 1_555 1_555
N4 H4 1_555 1_555
N5 H5 1_555 1_555
N6 C24 1_555 1_555
N7 C35 1_555 1_555
N8 C39 1_555 1_555
C2 N2 1_555 1_555
C3 C2 1_555 1_555
H6 C3 1_555 1_555
C4 C3 1_555 1_555
H7 C4 1_555 1_555
C5 N2 1_555 1_555
C6 C5 1_555 1_555
C7 N3 1_555 1_555
C8 C7 1_555 1_555
H8 C8 1_555 1_555
C9 C8 1_555 1_555
H9 C9 1_555 1_555
C10 N3 1_555 1_555
C11 C10 1_555 1_555
C12 N4 1_555 1_555
C13 C12 1_555 1_555
H10 C13 1_555 1_555
C14 C13 1_555 1_555
H11 C14 1_555 1_555
C15 N4 1_555 1_555
C16 C15 1_555 1_555
C17 N1 1_555 1_555
C18 C17 1_555 1_555
H12 C18 1_555 1_555
C19 C18 1_555 1_555
H13 C19 1_555 1_555
C20 C1 1_555 1_555
C21 C1 1_555 1_555
H14 C21 1_555 1_555
H15 C21 1_555 1_555
C22 C21 1_555 1_555
H16 C22 1_555 1_555
H17 C22 1_555 1_555
C23 N5 1_555 1_555
C24 N5 1_555 1_555
C25 C24 1_555 1_555
H18 C25 1_555 1_555
C26 C25 1_555 1_555
H19 C26 1_555 1_555
C27 C26 1_555 1_555
H20 C27 1_555 1_555
C28 N6 1_555 1_555
C29 C28 1_555 1_555
C30 C29 1_555 1_555
H21 C30 1_555 1_555
C31 C30 1_555 1_555
H22 C31 1_555 1_555
C32 C31 1_555 1_555
H23 C32 1_555 1_555
C33 C32 1_555 1_555
C34 C29 1_555 1_555
C35 C33 1_555 1_555
C36 C35 1_555 1_555
H24 C36 1_555 1_555
C37 C36 1_555 1_555
H25 C37 1_555 1_555
C38 C37 1_555 1_555
H26 C38 1_555 1_555
C39 N7 1_555 1_555
C40 H27 1_555 1_555
H28 C40 1_555 1_555
C41 C11 1_555 1_555
H29 C41 1_555 1_555
H30 C41 1_555 1_555
C42 C1 1_555 1_555
H31 C42 1_555 1_555
H32 C42 1_555 1_555
H33 C42 1_555 1_555
C43 C6 1_555 1_555
H34 C43 1_555 1_555
H35 C43 1_555 1_555
H36 C43 1_555 1_555
C44 C6 1_555 1_555
H37 C44 1_555 1_555
H38 C44 1_555 1_555
H39 C44 1_555 1_555
C45 C11 1_555 1_555
H40 C45 1_555 1_555
H41 C45 1_555 1_555
H42 C45 1_555 1_555
C46 C16 1_555 1_555
H43 C46 1_555 1_555
H44 C46 1_555 1_555
H45 C46 1_555 1_555
C47 C16 1_555 1_555
H46 C47 1_555 1_555
H47 C47 1_555 1_555
H48 C47 1_555 1_555
C48 H49 1_555 1_555
H50 C48 1_555 1_555
H51 C48 1_555 1_555
C49 H52 1_555 1_555
H53 C49 1_555 1_555
H54 C49 1_555 1_555
O1 C50 1_555 1_555
C50 N8 1_555 1_555
O2 Li1 1_555 1_555
O3 Li1 1_555 1_555
H55 O4 1_555 1_555
O4 Li1 1_555 1_555
N9 C52 1_555 1_555
C52 C53 1_555 1_555
C53 H58 1_555 1_555
H59 C53 1_555 1_555
H60 C53 1_555 1_555
N10 C54 1_555 1_555
C54 C55 1_555 1_555
C55 H61 1_555 1_555
H62 C55 1_555 1_555
H63 C55 1_555 1_555
N11 C56 1_555 1_555
C56 C57 1_555 1_555
C57 H64 1_555 1_555
H65 C57 1_555 1_555
H66 C57 1_555 1_555
N1 C20 1_555 1_555
C4 C5 1_555 1_555
C6 C7 1_555 1_555
C9 C10 1_555 1_555
C11 C12 1_555 1_555
C14 C15 1_555 1_555
C16 C17 1_555 1_555
C19 C20 1_555 1_555
C22 C23 1_555 1_555
C23 O3 1_555 1_555
C27 C28 1_555 1_555
C33 C34 1_555 1_555
C34 O2 1_555 1_555
C38 C39 1_555 1_555
C40 C41 1_555 1_555
C40 C50 1_555 1_555
C48 O2 1_555 1_555
C49 O4 1_555 1_555

#END
