
#######################################################################
#
#                 Cambridge Crystallographic Data Centre
#                                CCDC 
#
#######################################################################
#
# If this CIF has been generated from an entry in the Cambridge 
# Structural Database, then it will include bibliographic, chemical, 
# crystal, experimental, refinement or atomic coordinate data resulting 
# from the CCDC's data processing and validation procedures.
#
#######################################################################

data_OWOGIS
_chemical_formula_moiety         'C22 H18 Br1 N1'
_chemical_name_systematic        6-bromo-1-ethyl-2,3-diphenyl-1H-indole
_symmetry_cell_setting           monoclinic
_symmetry_space_group_name_H-M   'P 21/n'
_symmetry_Int_Tables_number      14
_space_group_name_Hall           '-P 2yn'
loop_
_symmetry_equiv_pos_site_id
_symmetry_equiv_pos_as_xyz
1 x,y,z
2 1/2-x,1/2+y,1/2-z
3 -x,-y,-z
4 1/2+x,1/2-y,1/2+z
_cell_length_a                   9.6700(18)
_cell_length_b                   19.620(3)
_cell_length_c                   9.9545(18)
_cell_angle_alpha                90
_cell_angle_beta                 112.567(3)
_cell_angle_gamma                90
_cell_volume                     1744.01
_exptl_crystal_colour            colorless
_exptl_crystal_description       prism
_cell_formula_units_Z            4
loop_
_atom_site_label
_atom_site_type_symbol
_atom_site_fract_x
_atom_site_fract_y
_atom_site_fract_z
Br1 Br -0.586397(15) 1.014149(8) 0.205727(14)
N1 N -0.11636(12) 0.86369(6) 0.22767(11)
C1 C -0.20185(14) 0.90216(6) 0.28239(13)
C2 C 0.09309(15) 0.74039(7) 0.24324(14)
H1 H -0.0064 0.7235 0.2116
C3 C 0.11691(13) 0.85463(7) 0.62189(13)
C4 C -0.34141(14) 0.93303(7) 0.20955(13)
H2 H -0.3924 0.9302 0.1070
C5 C -0.40044(14) 0.96787(7) 0.29603(14)
C6 C 0.29166(15) 0.83090(8) 0.91628(15)
H3 H 0.3494 0.8228 1.0163
C7 C 0.01158(13) 0.86801(6) 0.47138(13)
C8 C 0.12943(14) 0.80256(7) 0.31667(13)
C9 C -0.19215(14) 0.94117(7) 0.51761(13)
H4 H -0.1435 0.9435 0.6205
C10 C -0.12554(14) 0.90594(6) 0.43516(13)
C11 C 0.16342(14) 0.78871(7) 0.67218(14)
H5 H 0.1364 0.7515 0.6059
C12 C 0.34747(16) 0.72722(8) 0.26311(15)
H6 H 0.4217 0.7017 0.2444
C13 C 0.01384(14) 0.84382(6) 0.34263(13)
C14 C 0.20226(16) 0.70308(8) 0.21614(15)
H7 H 0.1769 0.6610 0.1653
C15 C 0.24903(15) 0.77716(7) 0.81865(15)
H8 H 0.2785 0.7320 0.8520
C16 C -0.14087(15) 0.86083(7) 0.07324(13)
H9 H -0.2495 0.8644 0.0140
H10 H -0.1058 0.8163 0.0518
C17 C 0.16212(15) 0.90840(7) 0.72113(14)
H11 H 0.1328 0.9536 0.6886
C18 C -0.32923(15) 0.97240(7) 0.44739(14)
H12 H -0.3749 0.9969 0.5018
C19 C 0.24923(16) 0.89665(8) 0.86656(15)
H13 H 0.2800 0.9339 0.9325
C20 C 0.27665(15) 0.82624(7) 0.36436(14)
H14 H 0.3028 0.8682 0.4154
C21 C 0.38523(16) 0.78866(8) 0.33751(16)
H15 H 0.4852 0.8050 0.3701
C22 C -0.05911(17) 0.91758(8) 0.03095(16)
H16 H -0.0907 0.9617 0.0556
H17 H -0.0829 0.9156 -0.0739
H18 H 0.0491 0.9121 0.0838
loop_
_geom_bond_atom_site_label_1
_geom_bond_atom_site_label_2
_geom_bond_site_symmetry_1
_geom_bond_site_symmetry_2
Br1 C5 1_555 1_555
N1 C1 1_555 1_555
C1 C4 1_555 1_555
C2 H1 1_555 1_555
C3 C7 1_555 1_555
C4 H2 1_555 1_555
C5 C4 1_555 1_555
C6 H3 1_555 1_555
C7 C10 1_555 1_555
C8 C2 1_555 1_555
C9 H4 1_555 1_555
C10 C1 1_555 1_555
C11 C3 1_555 1_555
H5 C11 1_555 1_555
C12 H6 1_555 1_555
C13 N1 1_555 1_555
C14 C2 1_555 1_555
H7 C14 1_555 1_555
C15 C6 1_555 1_555
H8 C15 1_555 1_555
C16 N1 1_555 1_555
H9 C16 1_555 1_555
H10 C16 1_555 1_555
C17 C3 1_555 1_555
H11 C17 1_555 1_555
C18 C5 1_555 1_555
H12 C18 1_555 1_555
C19 C6 1_555 1_555
H13 C19 1_555 1_555
C20 C8 1_555 1_555
H14 C20 1_555 1_555
C21 C12 1_555 1_555
H15 C21 1_555 1_555
C22 C16 1_555 1_555
H16 C22 1_555 1_555
H17 C22 1_555 1_555
H18 C22 1_555 1_555
C7 C13 1_555 1_555
C8 C13 1_555 1_555
C9 C10 1_555 1_555
C9 C18 1_555 1_555
C11 C15 1_555 1_555
C12 C14 1_555 1_555
C17 C19 1_555 1_555
C20 C21 1_555 1_555

#END
