
#######################################################################
#
#                 Cambridge Crystallographic Data Centre
#                                CCDC 
#
#######################################################################
#
# If this CIF has been generated from an entry in the Cambridge 
# Structural Database, then it will include bibliographic, chemical, 
# crystal, experimental, refinement or atomic coordinate data resulting 
# from the CCDC's data processing and validation procedures.
#
#######################################################################

data_OWOZIK
_chemical_formula_moiety         'C16 H16 N5 O2 1+,Cl1 1-'
_chemical_name_systematic        
'(2-(3-(3-nitrophenyl)-1-phenylprop-2-en-1-ylidene)hydrazinecarboxamidimidium) chloride'
_chemical_properties_biological  'anti-proliferative and anti-tubulin agent'
_symmetry_cell_setting           monoclinic
_symmetry_space_group_name_H-M   'C 2/c'
_symmetry_Int_Tables_number      15
_space_group_name_Hall           '-C 2yn'
loop_
_symmetry_equiv_pos_site_id
_symmetry_equiv_pos_as_xyz
1 x,y,z
2 -x,y,1/2-z
3 1/2+x,1/2+y,z
4 1/2-x,1/2+y,1/2-z
5 -x,-y,-z
6 x,-y,1/2+z
7 1/2-x,1/2-y,-z
8 1/2+x,1/2-y,1/2+z
_cell_length_a                   11.127(2)
_cell_length_b                   11.932(2)
_cell_length_c                   25.889(5)
_cell_angle_alpha                90
_cell_angle_beta                 91.71(3)
_cell_angle_gamma                90
_cell_volume                     3435.68
_cell_formula_units_Z            8
loop_
_atom_site_label
_atom_site_type_symbol
_atom_site_fract_x
_atom_site_fract_y
_atom_site_fract_z
Cl1 Cl 0.19728(14) 0.94128(10) 0.22976(6)
N1 N 0.5440(4) 0.6413(4) 0.54287(18)
O1 O 0.5507(4) 0.7126(4) 0.5105(2)
C1 C 1.1657(7) 0.2417(6) 0.3722(3)
H1 H 1.2398 0.2174 0.3855
N2 N 1.0038(4) 0.5922(3) 0.35668(15)
O2 O 0.4712(4) 0.6436(4) 0.57723(16)
C2 C 1.1224(6) 0.3447(5) 0.3862(2)
H2 H 1.1651 0.3868 0.4108
N3 N 1.0819(3) 0.5860(3) 0.31708(14)
H3 H 1.1096 0.5228 0.3069
C3 C 1.0196(4) 0.3863(3) 0.36516(16)
N4 N 1.0661(4) 0.7777(3) 0.30964(16)
H4 H 1.0851 0.8397 0.2950
H5 H 1.0157 0.7777 0.3342
C4 C 0.9558(5) 0.3213(5) 0.3302(2)
H6 H 0.8851 0.3478 0.3145
N5 N 1.1919(4) 0.6784(3) 0.25709(15)
H7 H 1.2038 0.7364 0.2473
C5 C 0.9996(8) 0.2144(6) 0.3186(3)
H8 H 0.9557 0.1690 0.2958
C6 C 1.1021(8) 0.1758(5) 0.3395(3)
H9 H 1.1293 0.1043 0.3316
C7 C 0.9752(4) 0.4996(4) 0.37932(17)
C8 C 0.8957(4) 0.5125(4) 0.42212(18)
H10 H 0.8656 0.5840 0.4278
C9 C 0.8614(4) 0.4326(4) 0.45408(17)
H11 H 0.8914 0.3610 0.4486
C10 C 0.7804(4) 0.4468(3) 0.49733(17)
C11 C 0.7816(4) 0.3691(4) 0.53791(18)
H12 H 0.8348 0.3090 0.5373
C12 C 0.7058(5) 0.3798(4) 0.57862(19)
H13 H 0.7086 0.3272 0.6051
C13 C 0.6254(5) 0.4681(4) 0.58053(19)
H14 H 0.5737 0.4759 0.6079
C14 C 0.6250(4) 0.5433(4) 0.54066(18)
C15 C 0.6991(4) 0.5349(4) 0.49947(18)
H15 H 0.6950 0.5878 0.4731
C16 C 1.1139(4) 0.6835(3) 0.29455(18)
loop_
_geom_bond_atom_site_label_1
_geom_bond_atom_site_label_2
_geom_bond_site_symmetry_1
_geom_bond_site_symmetry_2
N1 O1 1_555 1_555
C1 H1 1_555 1_555
N2 N3 1_555 1_555
O2 N1 1_555 1_555
C2 C1 1_555 1_555
H2 C2 1_555 1_555
N3 H3 1_555 1_555
C3 C2 1_555 1_555
N4 H4 1_555 1_555
H5 N4 1_555 1_555
C4 C3 1_555 1_555
H6 C4 1_555 1_555
N5 H7 1_555 1_555
C5 C4 1_555 1_555
H8 C5 1_555 1_555
C6 C1 1_555 1_555
H9 C6 1_555 1_555
C7 N2 1_555 1_555
C8 C7 1_555 1_555
H10 C8 1_555 1_555
C9 C8 1_555 1_555
H11 C9 1_555 1_555
C10 C9 1_555 1_555
C11 C10 1_555 1_555
H12 C11 1_555 1_555
C12 C11 1_555 1_555
H13 C12 1_555 1_555
C13 C12 1_555 1_555
H14 C13 1_555 1_555
C14 N1 1_555 1_555
C15 C10 1_555 1_555
H15 C15 1_555 1_555
C16 N3 1_555 1_555
C3 C7 1_555 1_555
N4 C16 1_555 1_555
N5 C16 1_555 1_555
C5 C6 1_555 1_555
C13 C14 1_555 1_555
C14 C15 1_555 1_555

#END
