
#######################################################################
#
#                 Cambridge Crystallographic Data Centre
#                                CCDC 
#
#######################################################################
#
# If this CIF has been generated from an entry in the Cambridge 
# Structural Database, then it will include bibliographic, chemical, 
# crystal, experimental, refinement or atomic coordinate data resulting 
# from the CCDC's data processing and validation procedures.
#
#######################################################################

data_OWOZOQ
_chemical_formula_moiety         'C15 H12 Cl1 N3 O2 S1'
_chemical_name_systematic        
2-Chloro-5-(((5-(4-methoxyphenyl)-1,3,4-oxadiazol-2-yl)sulfanyl)methyl)pyridine
_symmetry_cell_setting           orthorhombic
_symmetry_space_group_name_H-M   'P b c a'
_symmetry_Int_Tables_number      61
_space_group_name_Hall           '-P 2ac 2ab'
loop_
_symmetry_equiv_pos_site_id
_symmetry_equiv_pos_as_xyz
1 x,y,z
2 1/2-x,-y,1/2+z
3 -x,1/2+y,1/2-z
4 1/2+x,1/2-y,-z
5 -x,-y,-z
6 1/2+x,y,1/2-z
7 x,1/2-y,1/2+z
8 1/2-x,1/2+y,z
_cell_length_a                   12.311(3)
_cell_length_b                   8.1230(16)
_cell_length_c                   29.956(6)
_cell_angle_alpha                90
_cell_angle_beta                 90
_cell_angle_gamma                90
_cell_volume                     2995.67
_cell_formula_units_Z            8
loop_
_atom_site_label
_atom_site_type_symbol
_atom_site_fract_x
_atom_site_fract_y
_atom_site_fract_z
S1 S 0.05257(9) 0.22470(15) 0.48349(4)
Cl1 Cl 0.26559(11) -0.01868(17) 0.68837(4)
N1 N 0.3413(3) 0.1275(4) 0.44088(11)
N2 N 0.2722(3) 0.2060(5) 0.47187(10)
N3 N 0.2897(3) 0.1545(5) 0.61607(12)
O1 O 0.4021(3) -0.3058(5) 0.26193(11)
O2 O 0.1718(2) 0.0682(3) 0.42356(9)
C1 C 0.5090(4) -0.2989(6) 0.24567(17)
H1 H 0.5146 -0.3641 0.2190
H2 H 0.5579 -0.3410 0.2679
H3 H 0.5275 -0.1867 0.2390
C2 C 0.3780(3) -0.2211(6) 0.29961(14)
C3 C 0.4536(3) -0.1654(5) 0.33007(14)
H4 H 0.5270 -0.1859 0.3255
C4 C 0.4201(3) -0.0794(5) 0.36729(13)
H5 H 0.4714 -0.0414 0.3876
C5 C 0.3108(3) -0.0487(5) 0.37483(13)
C6 C 0.2359(3) -0.1102(6) 0.34479(14)
H6 H 0.1622 -0.0934 0.3497
C7 C 0.2693(4) -0.1962(6) 0.30773(15)
H7 H 0.2179 -0.2378 0.2880
C8 C 0.2797(3) 0.0489(5) 0.41333(13)
C9 C 0.1752(3) 0.1675(5) 0.46013(13)
C10 C 0.1053(4) 0.3455(5) 0.52962(12)
H8 H 0.1657 0.4114 0.5189
H9 H 0.0491 0.4204 0.5397
C11 C 0.1431(3) 0.2446(5) 0.56862(12)
C12 C 0.2518(3) 0.2351(6) 0.57984(13)
H10 H 0.3018 0.2874 0.5614
C13 C 0.2170(4) 0.0809(5) 0.64103(14)
C14 C 0.1079(4) 0.0774(6) 0.63218(14)
H11 H 0.0603 0.0203 0.6507
C15 C 0.0706(3) 0.1604(5) 0.59532(14)
H12 H -0.0030 0.1599 0.5884
loop_
_geom_bond_atom_site_label_1
_geom_bond_atom_site_label_2
_geom_bond_site_symmetry_1
_geom_bond_site_symmetry_2
S1 C9 1_555 1_555
Cl1 C13 1_555 1_555
N1 N2 1_555 1_555
N2 C9 1_555 1_555
N3 C12 1_555 1_555
O1 C1 1_555 1_555
O2 C8 1_555 1_555
C1 H1 1_555 1_555
H2 C1 1_555 1_555
H3 C1 1_555 1_555
C2 O1 1_555 1_555
C3 C2 1_555 1_555
H4 C3 1_555 1_555
C4 C3 1_555 1_555
H5 C4 1_555 1_555
C5 C4 1_555 1_555
C6 C5 1_555 1_555
H6 C6 1_555 1_555
C7 C2 1_555 1_555
H7 C7 1_555 1_555
C8 N1 1_555 1_555
C9 O2 1_555 1_555
C10 S1 1_555 1_555
H8 C10 1_555 1_555
H9 C10 1_555 1_555
C11 C10 1_555 1_555
C12 C11 1_555 1_555
H10 C12 1_555 1_555
C13 N3 1_555 1_555
C14 C13 1_555 1_555
H11 C14 1_555 1_555
C15 C11 1_555 1_555
H12 C15 1_555 1_555
C5 C8 1_555 1_555
C6 C7 1_555 1_555
C14 C15 1_555 1_555

#END
