
#######################################################################
#
#                 Cambridge Crystallographic Data Centre
#                                CCDC 
#
#######################################################################
#
# If this CIF has been generated from an entry in the Cambridge 
# Structural Database, then it will include bibliographic, chemical, 
# crystal, experimental, refinement or atomic coordinate data resulting 
# from the CCDC's data processing and validation procedures.
#
#######################################################################

data_OWUKIC
_chemical_formula_moiety         'C16 H16 O2'
_chemical_name_systematic        
5,6,7,8-tetrahydrodibenzo[a,c][8]annulene-1,12-diol
_symmetry_cell_setting           orthorhombic
_symmetry_space_group_name_H-M   'C 2 2 21'
_symmetry_Int_Tables_number      20
_space_group_name_Hall           'C 2n 2'
loop_
_symmetry_equiv_pos_site_id
_symmetry_equiv_pos_as_xyz
1 x,y,z
2 -x,-y,1/2+z
3 x,-y,-z
4 -x,y,1/2-z
5 1/2+x,1/2+y,z
6 1/2-x,1/2-y,1/2+z
7 1/2+x,1/2-y,-z
8 1/2-x,1/2+y,1/2-z
_cell_length_a                   11.0122(14)
_cell_length_b                   11.5476(14)
_cell_length_c                   9.7369(12)
_cell_angle_alpha                90
_cell_angle_beta                 90
_cell_angle_gamma                90
_cell_volume                     1238.19
_exptl_crystal_colour            colorless
_exptl_crystal_description       'column crystal'
_chemical_melting_point          '451-452 K'
_cell_formula_units_Z            4
_exptl_crystal_recrystallization_method 'dichloromethane/petroleum ether'
loop_
_atom_site_label
_atom_site_type_symbol
_atom_site_fract_x
_atom_site_fract_y
_atom_site_fract_z
O1 O 0.4224(3) 0.0038(3) 0.1385(3)
H1 H 0.4530 0.0067 0.2152
C1 C 0.2289(4) -0.0517(3) 0.0463(4)
C2 C 0.1320(4) -0.1315(3) 0.0447(4)
C3 C 0.3237(4) -0.0705(3) 0.1406(4)
C4 C 0.0259(4) -0.1192(4) -0.0532(5)
H2 H 0.0526 -0.0751 -0.1325
H3 H 0.0031 -0.1957 -0.0853
C5 C 0.1330(4) -0.2249(3) 0.1371(5)
H4 H 0.0700 -0.2784 0.1348
C6 C 0.3206(4) -0.1619(4) 0.2321(4)
H5 H 0.3833 -0.1714 0.2951
C7 C 0.2252(4) -0.2389(4) 0.2306(5)
H6 H 0.2231 -0.3001 0.2926
C8 C -0.0835(5) -0.0621(6) 0.0050(6)
H7 H -0.1547 -0.0917 -0.0420
H8 H -0.0904 -0.0834 0.1011
O1B O 0.4224(3) -0.0038(3) -0.1385(3)
H1B H 0.4530 -0.0067 -0.2152
C1B C 0.2289(4) 0.0517(3) -0.0463(4)
C2B C 0.1320(4) 0.1315(3) -0.0447(4)
C3B C 0.3237(4) 0.0705(3) -0.1406(4)
C4B C 0.0259(4) 0.1192(4) 0.0532(5)
H2B H 0.0526 0.0751 0.1325
H3B H 0.0031 0.1957 0.0853
C5B C 0.1330(4) 0.2249(3) -0.1371(5)
H4B H 0.0700 0.2784 -0.1348
C6B C 0.3206(4) 0.1619(4) -0.2321(4)
H5B H 0.3833 0.1714 -0.2951
C7B C 0.2252(4) 0.2389(4) -0.2306(5)
H6B H 0.2231 0.3001 -0.2926
C8B C -0.0835(5) 0.0621(6) -0.0050(6)
H7B H -0.1547 0.0917 0.0420
H8B H -0.0904 0.0834 -0.1011
loop_
_geom_bond_atom_site_label_1
_geom_bond_atom_site_label_2
_geom_bond_site_symmetry_1
_geom_bond_site_symmetry_2
O1 H1 1_555 1_555
C1 C2 1_555 1_555
C2 C4 1_555 1_555
C3 O1 1_555 1_555
C4 H2 1_555 1_555
H3 C4 1_555 1_555
C5 C2 1_555 1_555
H4 C5 1_555 1_555
C6 C3 1_555 1_555
H5 C6 1_555 1_555
C7 C5 1_555 1_555
H6 C7 1_555 1_555
C8 C4 1_555 1_555
H7 C8 1_555 1_555
H8 C8 1_555 1_555
O1B H1B 1_555 1_555
C1B C1 1_555 1_555
C2B C1B 1_555 1_555
C3B O1B 1_555 1_555
C4B C2B 1_555 1_555
H2B C4B 1_555 1_555
H3B C4B 1_555 1_555
C5B C2B 1_555 1_555
H4B C5B 1_555 1_555
C6B C3B 1_555 1_555
H5B C6B 1_555 1_555
C7B C5B 1_555 1_555
H6B C7B 1_555 1_555
C8B C8 1_555 1_555
H7B C8B 1_555 1_555
H8B C8B 1_555 1_555
C1 C3 1_555 1_555
C6 C7 1_555 1_555
C1B C3B 1_555 1_555
C4B C8B 1_555 1_555
C6B C7B 1_555 1_555

#END
