
#######################################################################
#
#                 Cambridge Crystallographic Data Centre
#                                CCDC 
#
#######################################################################
#
# If this CIF has been generated from an entry in the Cambridge 
# Structural Database, then it will include bibliographic, chemical, 
# crystal, experimental, refinement or atomic coordinate data resulting 
# from the CCDC's data processing and validation procedures.
#
#######################################################################

data_OXOHUG
_chemical_formula_moiety         '2(C6 H7 N2 O1 1+),C2 O4 2-'
_chemical_name_systematic        'bis(3-carbamoylpyridin-1-ium) oxalate'
_symmetry_cell_setting           orthorhombic
_symmetry_space_group_name_H-M   'P b c a'
_symmetry_Int_Tables_number      61
_space_group_name_Hall           '-P 2ac 2ab'
loop_
_symmetry_equiv_pos_site_id
_symmetry_equiv_pos_as_xyz
1 x,y,z
2 1/2-x,-y,1/2+z
3 -x,1/2+y,1/2-z
4 1/2+x,1/2-y,-z
5 -x,-y,-z
6 1/2+x,y,1/2-z
7 x,1/2-y,1/2+z
8 1/2-x,1/2+y,z
_cell_length_a                   7.2149(4)
_cell_length_b                   12.4451(7)
_cell_length_c                   15.6775(8)
_cell_angle_alpha                90
_cell_angle_beta                 90
_cell_angle_gamma                90
_cell_volume                     1407.69
_exptl_crystal_colour            colorless
_exptl_crystal_description       needle
_cell_formula_units_Z            4
loop_
_atom_site_label
_atom_site_type_symbol
_atom_site_fract_x
_atom_site_fract_y
_atom_site_fract_z
O1 O 0.5157(3) 0.64013(14) 0.51364(10)
O2 O 0.4282(3) 0.54498(14) 0.40041(10)
C1 C 0.4832(3) 0.55206(19) 0.47431(14)
O1D O 0.4843(3) 0.35987(14) 0.48636(10)
O2D O 0.5718(3) 0.45502(14) 0.59959(10)
C1D C 0.5168(3) 0.44794(19) 0.52569(14)
O3 O 0.5697(3) 0.48974(14) 0.88571(10)
N1 N 0.6135(3) 0.67392(16) 0.66842(12)
N2 N 0.5169(3) 0.63752(17) 0.96592(11)
H1 H 0.4878 0.5998 1.0115
H2 H 0.5151 0.7082 0.9680
C2 C 0.5777(3) 0.61581(18) 0.73842(13)
H3 H 0.5309 0.5448 0.7329
C3 C 0.6085(3) 0.65848(19) 0.81917(13)
C4 C 0.5634(3) 0.58806(19) 0.89442(14)
C5 C 0.7172(3) 0.81982(19) 0.75215(14)
H4 H 0.7666 0.8904 0.7558
C6 C 0.6785(3) 0.7623(2) 0.82512(14)
H5 H 0.6997 0.7937 0.8795
C7 C 0.6833(3) 0.7737(2) 0.67369(14)
H6 H 0.7096 0.8128 0.6231
H7 H 0.586(4) 0.642(3) 0.6165(14)
loop_
_geom_bond_atom_site_label_1
_geom_bond_atom_site_label_2
_geom_bond_site_symmetry_1
_geom_bond_site_symmetry_2
O1 C1 1_555 1_555
O2 C1 1_555 1_555
C1 C1D 1_555 1_555
O3 C4 1_555 1_555
N1 C2 1_555 1_555
N2 H1 1_555 1_555
H2 N2 1_555 1_555
C2 H3 1_555 1_555
C3 C2 1_555 1_555
C4 N2 1_555 1_555
C5 H4 1_555 1_555
C6 C3 1_555 1_555
H5 C6 1_555 1_555
C7 N1 1_555 1_555
H6 C7 1_555 1_555
H7 N1 1_555 1_555
O1D C1D 1_555 1_555
O2D C1D 1_555 1_555
C3 C4 1_555 1_555
C5 C6 1_555 1_555
C5 C7 1_555 1_555

#END
