
#######################################################################
#
#                 Cambridge Crystallographic Data Centre
#                                CCDC 
#
#######################################################################
#
# If this CIF has been generated from an entry in the Cambridge 
# Structural Database, then it will include bibliographic, chemical, 
# crystal, experimental, refinement or atomic coordinate data resulting 
# from the CCDC's data processing and validation procedures.
#
#######################################################################

data_OXUBUF
_chemical_formula_moiety         'C14 H20 O2 S1'
_chemical_name_systematic        
3-(3-(Phenylsulfanyl)tetrahydro-2H-pyran-2-yl)propan-1-ol
_symmetry_cell_setting           monoclinic
_symmetry_space_group_name_H-M   'P 21/c'
_symmetry_Int_Tables_number      14
_space_group_name_Hall           '-P 2ybc'
loop_
_symmetry_equiv_pos_site_id
_symmetry_equiv_pos_as_xyz
1 x,y,z
2 -x,1/2+y,1/2-z
3 -x,-y,-z
4 x,1/2-y,1/2+z
_cell_length_a                   12.116(2)
_cell_length_b                   6.5574(13)
_cell_length_c                   17.062(3)
_cell_angle_alpha                90
_cell_angle_beta                 104.09(3)
_cell_angle_gamma                90
_cell_volume                     1314.78
_exptl_crystal_colour            colorless
_exptl_crystal_description       plate
_cell_formula_units_Z            4
loop_
_atom_site_label
_atom_site_type_symbol
_atom_site_fract_x
_atom_site_fract_y
_atom_site_fract_z
S1 S 0.84665(5) 0.61477(9) 0.07390(4)
O1 O 0.54520(17) 0.3103(3) 0.14968(13)
H1 H 0.4874 0.2705 0.1151
O2 O 0.64587(15) 0.8612(3) -0.04130(12)
C1 C 0.6609(2) 0.8657(4) 0.04517(16)
H2 H 0.6271 0.9957 0.0594
C2 C 0.7876(2) 0.8644(4) 0.08859(15)
H3 H 0.7948 0.8851 0.1477
C3 C 0.8484(2) 1.0390(4) 0.05733(17)
H4 H 0.8228 1.1704 0.0753
H5 H 0.9313 1.0271 0.0806
C4 C 0.8247(2) 1.0373(4) -0.03450(17)
H6 H 0.8580 1.1606 -0.0532
H7 H 0.8607 0.9161 -0.0524
C5 C 0.6983(2) 1.0327(5) -0.07094(18)
H8 H 0.6637 1.1607 -0.0574
H9 H 0.6839 1.0239 -0.1305
C6 C 0.5907(2) 0.6893(4) 0.06551(16)
H10 H 0.6190 0.5605 0.0473
H11 H 0.5107 0.7068 0.0348
C7 C 0.5935(2) 0.6703(5) 0.15527(17)
H12 H 0.6719 0.6365 0.1857
H13 H 0.5729 0.8032 0.1753
C8 C 0.5127(3) 0.5081(5) 0.17123(19)
H14 H 0.5126 0.5094 0.2292
H15 H 0.4346 0.5390 0.1396
C9 C 0.9875(2) 0.6265(4) 0.13431(14)
C10 C 1.0258(2) 0.7622(4) 0.19834(15)
H16 H 0.9742 0.8554 0.2130
C11 C 1.1392(2) 0.7607(4) 0.24044(16)
H17 H 1.1651 0.8553 0.2831
C12 C 1.2151(2) 0.6233(4) 0.22114(16)
H18 H 1.2928 0.6244 0.2500
C13 C 1.1769(2) 0.4845(4) 0.15961(16)
H19 H 1.2282 0.3872 0.1471
C14 C 1.0641(2) 0.4864(4) 0.11590(15)
H20 H 1.0389 0.3916 0.0732
loop_
_geom_bond_atom_site_label_1
_geom_bond_atom_site_label_2
_geom_bond_site_symmetry_1
_geom_bond_site_symmetry_2
S1 C2 1_555 1_555
O1 H1 1_555 1_555
O2 C1 1_555 1_555
C1 H2 1_555 1_555
C2 C1 1_555 1_555
H3 C2 1_555 1_555
C3 C2 1_555 1_555
H4 C3 1_555 1_555
H5 C3 1_555 1_555
C4 C3 1_555 1_555
H6 C4 1_555 1_555
H7 C4 1_555 1_555
C5 O2 1_555 1_555
H8 C5 1_555 1_555
H9 C5 1_555 1_555
C6 C1 1_555 1_555
H10 C6 1_555 1_555
H11 C6 1_555 1_555
C7 C6 1_555 1_555
H12 C7 1_555 1_555
H13 C7 1_555 1_555
C8 O1 1_555 1_555
H14 C8 1_555 1_555
H15 C8 1_555 1_555
C9 S1 1_555 1_555
C10 C9 1_555 1_555
H16 C10 1_555 1_555
C11 C10 1_555 1_555
H17 C11 1_555 1_555
C12 C11 1_555 1_555
H18 C12 1_555 1_555
C13 C12 1_555 1_555
H19 C13 1_555 1_555
C14 C9 1_555 1_555
H20 C14 1_555 1_555
C4 C5 1_555 1_555
C7 C8 1_555 1_555
C13 C14 1_555 1_555

#END
