
#######################################################################
#
#                 Cambridge Crystallographic Data Centre
#                                CCDC 
#
#######################################################################
#
# If this CIF has been generated from an entry in the Cambridge 
# Structural Database, then it will include bibliographic, chemical, 
# crystal, experimental, refinement or atomic coordinate data resulting 
# from the CCDC's data processing and validation procedures.
#
#######################################################################

data_OXUBOZ
_chemical_formula_moiety         'C19 H21 Br1 O1 S1'
_chemical_name_systematic        3-(Benzylsulfanyl)-6-bromo-2-propylchromane
_symmetry_cell_setting           triclinic
_symmetry_space_group_name_H-M   'P -1'
_symmetry_Int_Tables_number      2
_space_group_name_Hall           '-P 1'
loop_
_symmetry_equiv_pos_site_id
_symmetry_equiv_pos_as_xyz
1 x,y,z
2 -x,-y,-z
_cell_length_a                   5.8183(9)
_cell_length_b                   11.2510(15)
_cell_length_c                   14.411(2)
_cell_angle_alpha                72.270(7)
_cell_angle_beta                 82.260(8)
_cell_angle_gamma                76.860(7)
_cell_volume                     872.853
_exptl_crystal_colour            colorless
_exptl_crystal_description       plate
_cell_formula_units_Z            2
loop_
_atom_site_label
_atom_site_type_symbol
_atom_site_fract_x
_atom_site_fract_y
_atom_site_fract_z
Br1 Br 0.88002(6) 0.29795(3) -0.34736(2)
S1 S 0.98858(12) 0.36285(6) 0.10056(5)
O1 O 1.2238(3) 0.10648(17) 0.05733(13)
C1 C 0.9849(5) 0.2410(2) -0.2189(2)
C2 C 1.2211(5) 0.1851(2) -0.2055(2)
H1 H 1.3301 0.1777 -0.2598
C3 C 1.2941(4) 0.1404(2) -0.11169(19)
H2 H 1.4550 0.1018 -0.1010
C4 C 1.1324(4) 0.1517(2) -0.03237(19)
C5 C 0.8970(4) 0.2095(2) -0.04623(19)
C6 C 0.8247(5) 0.2548(2) -0.1410(2)
H3 H 0.6648 0.2953 -0.1522
C7 C 1.0608(4) 0.1021(2) 0.14332(19)
H4 H 0.9866 0.0262 0.1563
C8 C 0.8651(4) 0.2202(2) 0.1260(2)
H5 H 0.7546 0.2140 0.1860
C9 C 0.7283(4) 0.2236(3) 0.0408(2)
H6 H 0.6388 0.1537 0.0613
H7 H 0.6137 0.3053 0.0225
C10 C 1.2154(5) 0.0796(3) 0.22599(19)
H8 H 1.3051 0.1492 0.2092
H9 H 1.3317 -0.0008 0.2303
C11 C 1.0869(6) 0.0720(3) 0.3262(2)
H10 H 0.9741 0.0139 0.3393
H11 H 0.9957 0.1573 0.3275
C12 C 1.2627(7) 0.0236(4) 0.4054(2)
H12 H 1.1793 0.0293 0.4681
H13 H 1.3845 0.0756 0.3886
H14 H 1.3371 -0.0653 0.4103
C13 C 0.7263(5) 0.4730(3) 0.1310(2)
H15 H 0.7598 0.5601 0.1102
H16 H 0.5942 0.4734 0.0940
C14 C 0.6511(5) 0.4387(2) 0.2383(2)
C15 C 0.7793(5) 0.4613(3) 0.3034(2)
H17 H 0.9120 0.5008 0.2795
C16 C 0.7166(5) 0.4273(3) 0.4024(2)
H18 H 0.8058 0.4437 0.4461
C17 C 0.5243(6) 0.3694(3) 0.4381(2)
H19 H 0.4824 0.3447 0.5063
C18 C 0.3948(5) 0.3480(3) 0.3742(2)
H20 H 0.2612 0.3094 0.3984
C19 C 0.4564(5) 0.3820(3) 0.2747(2)
H21 H 0.3652 0.3665 0.2313
loop_
_geom_bond_atom_site_label_1
_geom_bond_atom_site_label_2
_geom_bond_site_symmetry_1
_geom_bond_site_symmetry_2
Br1 C1 1_555 1_555
S1 C8 1_555 1_555
O1 C4 1_555 1_555
C1 C2 1_555 1_555
C2 H1 1_555 1_555
C3 C2 1_555 1_555
H2 C3 1_555 1_555
C4 C3 1_555 1_555
C5 C4 1_555 1_555
C6 C1 1_555 1_555
H3 C6 1_555 1_555
C7 O1 1_555 1_555
H4 C7 1_555 1_555
C8 C7 1_555 1_555
H5 C8 1_555 1_555
C9 C5 1_555 1_555
H6 C9 1_555 1_555
H7 C9 1_555 1_555
C10 C7 1_555 1_555
H8 C10 1_555 1_555
H9 C10 1_555 1_555
C11 C10 1_555 1_555
H10 C11 1_555 1_555
H11 C11 1_555 1_555
C12 C11 1_555 1_555
H12 C12 1_555 1_555
H13 C12 1_555 1_555
H14 C12 1_555 1_555
C13 S1 1_555 1_555
H15 C13 1_555 1_555
H16 C13 1_555 1_555
C14 C13 1_555 1_555
C15 C14 1_555 1_555
H17 C15 1_555 1_555
C16 C15 1_555 1_555
H18 C16 1_555 1_555
C17 C16 1_555 1_555
H19 C17 1_555 1_555
C18 C17 1_555 1_555
H20 C18 1_555 1_555
C19 C14 1_555 1_555
H21 C19 1_555 1_555
C5 C6 1_555 1_555
C8 C9 1_555 1_555
C18 C19 1_555 1_555

#END
