
#######################################################################
#
#                 Cambridge Crystallographic Data Centre
#                                CCDC 
#
#######################################################################
#
# If this CIF has been generated from an entry in the Cambridge 
# Structural Database, then it will include bibliographic, chemical, 
# crystal, experimental, refinement or atomic coordinate data resulting 
# from the CCDC's data processing and validation procedures.
#
#######################################################################

data_OXULEA
_chemical_compound_source        'Dodonaea viscosa'
_chemical_formula_moiety         'C18 H24 O2'
_chemical_name_systematic        
7-(but-3-yn-1-yl)-7,8-dimethyl-6,6a,7,8,9,10-hexahydronaphtho[1,8a-c]furan-3(5H)-one
_symmetry_cell_setting           monoclinic
_symmetry_space_group_name_H-M   'P 21'
_symmetry_Int_Tables_number      4
_space_group_name_Hall           'P 2yb'
loop_
_symmetry_equiv_pos_site_id
_symmetry_equiv_pos_as_xyz
1 x,y,z
2 -x,1/2+y,-z
_cell_length_a                   10.3373(8)
_cell_length_b                   11.0854(8)
_cell_length_c                   13.1877(11)
_cell_angle_alpha                90
_cell_angle_beta                 90.193(6)
_cell_angle_gamma                90
_cell_volume                     1511.21
_exptl_crystal_colour            colorless
_exptl_crystal_description       block
_chemical_melting_point          '150-152 deg.C'
_cell_formula_units_Z            4
loop_
_atom_site_label
_atom_site_type_symbol
_atom_site_fract_x
_atom_site_fract_y
_atom_site_fract_z
O1 O -0.2814(3) 0.1522(3) 0.5515(2)
O2 O -0.4714(3) 0.1679(3) 0.4704(2)
C1 C -0.3215(4) 0.2109(3) 0.1695(3)
H1 H -0.3703 0.2807 0.1964
H2 H -0.3142 0.2202 0.0951
C2 C -0.1861(4) 0.2070(4) 0.2175(3)
H3 H -0.1339 0.1434 0.1845
H4 H -0.1421 0.2853 0.2070
C3 C -0.1963(3) 0.1815(3) 0.3283(3)
H5 H -0.1271 0.2044 0.3717
C4 C -0.2990(4) 0.1278(3) 0.3682(3)
C5 C -0.4164(3) 0.0831(3) 0.3101(3)
C6 C -0.4470(4) -0.0496(3) 0.3326(3)
H6 H -0.3706 -0.0998 0.3164
H7 H -0.4657 -0.0592 0.4057
C7 C -0.5631(4) -0.0929(4) 0.2705(3)
H8 H -0.6415 -0.0504 0.2942
H9 H -0.5758 -0.1802 0.2828
C8 C -0.5484(4) -0.0719(4) 0.1554(3)
H10 H -0.4750 -0.1239 0.1325
C9 C -0.5116(3) 0.0599(3) 0.1287(3)
C10 C -0.3928(3) 0.0942(3) 0.1943(3)
H11 H -0.3282 0.0295 0.1794
C11 C -0.4770(4) 0.0690(4) 0.0150(3)
H12 H -0.5520 0.0389 -0.0244
H13 H -0.4669 0.1556 -0.0017
C12 C -0.3554(4) 0.0025(4) -0.0236(3)
H14 H -0.2783 0.0321 0.0135
H15 H -0.3642 -0.0850 -0.0100
C13 C -0.3376(4) 0.0215(4) -0.1316(3)
C14 C -0.3281(4) 0.0421(4) -0.2192(3)
H16 H -0.3205 0.0588 -0.2896
C15 C -0.3409(4) 0.1476(4) 0.4739(3)
C16 C -0.6702(4) -0.1187(4) 0.1012(4)
H17 H -0.7455 -0.0719 0.1233
H18 H -0.6833 -0.2039 0.1181
H19 H -0.6597 -0.1101 0.0278
C17 C -0.5173(4) 0.1628(4) 0.3645(3)
H20 H -0.5204 0.2445 0.3343
H21 H -0.6045 0.1263 0.3605
C18 C -0.6253(4) 0.1470(4) 0.1447(3)
H22 H -0.6663 0.1301 0.2101
H23 H -0.6888 0.1363 0.0901
H24 H -0.5934 0.2303 0.1441
O3 O 0.0468(3) 0.3507(3) 0.0602(2)
O4 O 0.0247(3) 0.1726(3) -0.0172(2)
C19 C -0.0359(3) 0.3049(3) -0.3195(3)
H25 H -0.1098 0.2613 -0.2891
H26 H -0.0498 0.3095 -0.3937
C20 C -0.0259(4) 0.4326(3) -0.2745(3)
H27 H 0.0419 0.4787 -0.3105
H28 H -0.1092 0.4754 -0.2837
C21 C 0.0065(4) 0.4260(3) -0.1638(3)
H29 H -0.0139 0.4923 -0.1211
C22 C 0.0632(4) 0.3295(3) -0.1244(3)
C23 C 0.1061(3) 0.2186(3) -0.1808(3)
C24 C 0.2503(4) 0.1902(3) -0.1611(3)
H30 H 0.3035 0.2610 -0.1798
H31 H 0.2638 0.1740 -0.0880
C25 C 0.2938(4) 0.0808(4) -0.2226(3)
H32 H 0.2466 0.0086 -0.1986
H33 H 0.3872 0.0670 -0.2105
C26 C 0.2706(3) 0.0956(3) -0.3368(3)
H34 H 0.3238 0.1660 -0.3591
C27 C 0.1264(3) 0.1271(3) -0.3619(3)
C28 C 0.0910(3) 0.2380(3) -0.2963(3)
H35 H 0.1596 0.2983 -0.3129
C29 C 0.1121(4) 0.1571(3) -0.4756(3)
H36 H 0.1411 0.0860 -0.5148
H37 H 0.0189 0.1685 -0.4903
C30 C 0.1850(4) 0.2680(3) -0.5154(3)
H38 H 0.1525 0.3415 -0.4813
H39 H 0.2783 0.2600 -0.4998
C31 C 0.1664(3) 0.2788(3) -0.6250(3)
C32 C 0.1459(4) 0.2852(4) -0.7138(3)
H40 H 0.1295 0.2904 -0.7846
C33 C 0.0465(4) 0.2926(4) -0.0173(3)
C34 C 0.3229(4) -0.0149(4) -0.3927(3)
H41 H 0.2789 -0.0875 -0.3681
H42 H 0.4161 -0.0222 -0.3800
H43 H 0.3073 -0.0058 -0.4656
C35 C 0.0240(4) 0.1264(3) -0.1224(3)
H44 H -0.0651 0.1228 -0.1498
H45 H 0.0630 0.0449 -0.1258
C36 C 0.0350(4) 0.0201(3) -0.3432(3)
H46 H 0.0492 -0.0114 -0.2747
H47 H 0.0526 -0.0435 -0.3929
H48 H -0.0549 0.0470 -0.3502
loop_
_geom_bond_atom_site_label_1
_geom_bond_atom_site_label_2
_geom_bond_site_symmetry_1
_geom_bond_site_symmetry_2
O1 C15 1_555 1_555
O2 C15 1_555 1_555
C1 H1 1_555 1_555
H2 C1 1_555 1_555
C2 C1 1_555 1_555
H3 C2 1_555 1_555
H4 C2 1_555 1_555
C3 C2 1_555 1_555
H5 C3 1_555 1_555
C4 C3 1_555 1_555
C5 C4 1_555 1_555
C6 C5 1_555 1_555
H6 C6 1_555 1_555
H7 C6 1_555 1_555
C7 C6 1_555 1_555
H8 C7 1_555 1_555
H9 C7 1_555 1_555
C8 C7 1_555 1_555
H10 C8 1_555 1_555
C9 C8 1_555 1_555
C10 C1 1_555 1_555
H11 C10 1_555 1_555
C11 C9 1_555 1_555
H12 C11 1_555 1_555
H13 C11 1_555 1_555
C12 C11 1_555 1_555
H14 C12 1_555 1_555
H15 C12 1_555 1_555
C13 C12 1_555 1_555
C14 C13 1_555 1_555
H16 C14 1_555 1_555
C15 C4 1_555 1_555
C16 C8 1_555 1_555
H17 C16 1_555 1_555
H18 C16 1_555 1_555
H19 C16 1_555 1_555
C17 O2 1_555 1_555
H20 C17 1_555 1_555
H21 C17 1_555 1_555
C18 C9 1_555 1_555
H22 C18 1_555 1_555
H23 C18 1_555 1_555
H24 C18 1_555 1_555
O3 C33 1_555 1_555
O4 C33 1_555 1_555
C19 H25 1_555 1_555
H26 C19 1_555 1_555
C20 C19 1_555 1_555
H27 C20 1_555 1_555
H28 C20 1_555 1_555
C21 C20 1_555 1_555
H29 C21 1_555 1_555
C22 C21 1_555 1_555
C23 C22 1_555 1_555
C24 C23 1_555 1_555
H30 C24 1_555 1_555
H31 C24 1_555 1_555
C25 C24 1_555 1_555
H32 C25 1_555 1_555
H33 C25 1_555 1_555
C26 C25 1_555 1_555
H34 C26 1_555 1_555
C27 C26 1_555 1_555
C28 C19 1_555 1_555
H35 C28 1_555 1_555
C29 C27 1_555 1_555
H36 C29 1_555 1_555
H37 C29 1_555 1_555
C30 C29 1_555 1_555
H38 C30 1_555 1_555
H39 C30 1_555 1_555
C31 C30 1_555 1_555
C32 C31 1_555 1_555
H40 C32 1_555 1_555
C33 C22 1_555 1_555
C34 C26 1_555 1_555
H41 C34 1_555 1_555
H42 C34 1_555 1_555
H43 C34 1_555 1_555
C35 O4 1_555 1_555
H44 C35 1_555 1_555
H45 C35 1_555 1_555
C36 C27 1_555 1_555
H46 C36 1_555 1_555
H47 C36 1_555 1_555
H48 C36 1_555 1_555
C5 C10 1_555 1_555
C5 C17 1_555 1_555
C9 C10 1_555 1_555
C23 C28 1_555 1_555
C23 C35 1_555 1_555
C27 C28 1_555 1_555

#END
