
#######################################################################
#
#                 Cambridge Crystallographic Data Centre
#                                CCDC 
#
#######################################################################
#
# If this CIF has been generated from an entry in the Cambridge 
# Structural Database, then it will include bibliographic, chemical, 
# crystal, experimental, refinement or atomic coordinate data resulting 
# from the CCDC's data processing and validation procedures.
#
#######################################################################

data_OXUMIF
_chemical_compound_source        'whole plant of Scrophularia dentata'
_chemical_name_common            'Scrodentoid F'
_chemical_formula_moiety         'C20 H28 O4'
_chemical_name_systematic        
7-methoxy-1,1,4a,7-tetramethyl-1,2,3,4,4a,6a,7,10,11,11a-decahydrobenzo[4,5]indeno[7a,1-b]furan-6,8-dione
_chemical_properties_biological  
'tested for farnesoid X-activate receptor (FXR) agonistic activity'
_symmetry_cell_setting           orthorhombic
_symmetry_space_group_name_H-M   'P 21 21 21'
_symmetry_Int_Tables_number      19
_space_group_name_Hall           'P 2ac 2ab'
loop_
_symmetry_equiv_pos_site_id
_symmetry_equiv_pos_as_xyz
1 x,y,z
2 1/2-x,-y,1/2+z
3 -x,1/2+y,1/2-z
4 1/2+x,1/2-y,-z
_cell_length_a                   7.28960(10)
_cell_length_b                   10.4785(2)
_cell_length_c                   23.4093(4)
_cell_angle_alpha                90
_cell_angle_beta                 90
_cell_angle_gamma                90
_cell_volume                     1788.1
_exptl_crystal_colour            colorless
_exptl_crystal_description       column
_cell_formula_units_Z            4
loop_
_atom_site_label
_atom_site_type_symbol
_atom_site_fract_x
_atom_site_fract_y
_atom_site_fract_z
O1 O 0.6791(2) 0.87817(12) 0.74827(6)
O2 O 0.7830(2) 0.37062(12) 0.80771(6)
O3 O 0.81843(17) 0.45687(9) 0.72203(5)
O4 O 0.8908(2) 0.62429(14) 0.84866(5)
C1 C 0.5650(2) 0.62278(17) 0.55836(7)
H1 H 0.4408 0.6228 0.5733
H2 H 0.6061 0.7107 0.5563
C2 C 0.5641(2) 0.5656(2) 0.49840(8)
H3 H 0.5123 0.4804 0.4998
H4 H 0.4873 0.6173 0.4737
C3 C 0.7563(3) 0.5591(2) 0.47377(8)
H5 H 0.8027 0.6453 0.4692
H6 H 0.7504 0.5205 0.4362
C4 C 0.8913(2) 0.48308(17) 0.51063(7)
C5 C 0.88671(19) 0.53892(13) 0.57223(6)
H7 H 0.9255 0.6278 0.5675
C6 C 1.0263(2) 0.48277(15) 0.61396(7)
H8 H 0.9870 0.3981 0.6254
H9 H 1.1443 0.4749 0.5951
C7 C 1.0464(2) 0.56685(17) 0.66689(7)
H10 H 1.1341 0.5286 0.6929
H11 H 1.0926 0.6500 0.6558
C8 C 0.8630(2) 0.58217(13) 0.69683(6)
C9 C 0.71623(19) 0.62279(13) 0.65439(6)
C10 C 0.68992(19) 0.54884(13) 0.59953(6)
C11 C 0.6376(3) 0.73221(15) 0.67071(7)
H12 H 0.5461 0.7738 0.6502
C12 C 0.7129(3) 0.77825(14) 0.72463(8)
C13 C 0.8507(2) 0.67872(14) 0.74592(7)
H13 H 0.9705 0.7181 0.7530
C14 C 0.7854(2) 0.60310(15) 0.79889(7)
C15 C 0.7963(2) 0.46370(15) 0.77858(7)
C16 C 0.5872(3) 0.6260(2) 0.81613(10)
H14 H 0.5732 0.7124 0.8290
H15 H 0.5545 0.5685 0.8464
H16 H 0.5086 0.6115 0.7839
C17 C 1.0850(3) 0.5037(2) 0.48569(8)
H17 H 1.0900 0.4695 0.4477
H18 H 1.1736 0.4611 0.5092
H19 H 1.1118 0.5934 0.4846
C18 C 0.8505(3) 0.33953(18) 0.50744(9)
H20 H 0.8566 0.3119 0.4684
H21 H 0.7300 0.3233 0.5223
H22 H 0.9395 0.2937 0.5297
C19 C 0.5993(2) 0.42089(16) 0.61521(8)
H23 H 0.4807 0.4365 0.6316
H24 H 0.6747 0.3766 0.6424
H25 H 0.5860 0.3697 0.5814
C20 C 1.0767(4) 0.5875(3) 0.84595(11)
H26 H 1.1352 0.6057 0.8818
H27 H 1.1369 0.6341 0.8160
H28 H 1.0845 0.4977 0.8382
loop_
_geom_bond_atom_site_label_1
_geom_bond_atom_site_label_2
_geom_bond_site_symmetry_1
_geom_bond_site_symmetry_2
O1 C12 1_555 1_555
O2 C15 1_555 1_555
O3 C8 1_555 1_555
O4 C14 1_555 1_555
C1 H1 1_555 1_555
H2 C1 1_555 1_555
C2 C1 1_555 1_555
H3 C2 1_555 1_555
H4 C2 1_555 1_555
C3 C2 1_555 1_555
H5 C3 1_555 1_555
H6 C3 1_555 1_555
C4 C3 1_555 1_555
C5 C4 1_555 1_555
H7 C5 1_555 1_555
C6 C5 1_555 1_555
H8 C6 1_555 1_555
H9 C6 1_555 1_555
C7 C6 1_555 1_555
H10 C7 1_555 1_555
H11 C7 1_555 1_555
C8 C7 1_555 1_555
C9 C8 1_555 1_555
C10 C1 1_555 1_555
C11 C9 1_555 1_555
H12 C11 1_555 1_555
C12 C11 1_555 1_555
C13 C8 1_555 1_555
H13 C13 1_555 1_555
C14 C13 1_555 1_555
C15 O3 1_555 1_555
C16 C14 1_555 1_555
H14 C16 1_555 1_555
H15 C16 1_555 1_555
H16 C16 1_555 1_555
C17 C4 1_555 1_555
H17 C17 1_555 1_555
H18 C17 1_555 1_555
H19 C17 1_555 1_555
C18 C4 1_555 1_555
H20 C18 1_555 1_555
H21 C18 1_555 1_555
H22 C18 1_555 1_555
C19 C10 1_555 1_555
H23 C19 1_555 1_555
H24 C19 1_555 1_555
H25 C19 1_555 1_555
C20 O4 1_555 1_555
H26 C20 1_555 1_555
H27 C20 1_555 1_555
H28 C20 1_555 1_555
C5 C10 1_555 1_555
C9 C10 1_555 1_555
C12 C13 1_555 1_555
C14 C15 1_555 1_555

#END
