
#######################################################################
#
#                 Cambridge Crystallographic Data Centre
#                                CCDC 
#
#######################################################################
#
# If this CIF has been generated from an entry in the Cambridge 
# Structural Database, then it will include bibliographic, chemical, 
# crystal, experimental, refinement or atomic coordinate data resulting 
# from the CCDC's data processing and validation procedures.
#
#######################################################################

data_OXUTAE
_chemical_formula_moiety         'C19 H31 N1 O3'
_chemical_name_systematic        
4-hydroxy-9-(2-hydroxypropyl)-2-methyldecahydro-5H,9H,12H-indeno[7a,1-h]indolizin-12-one
_symmetry_cell_setting           orthorhombic
_symmetry_space_group_name_H-M   'P 21 21 21'
_symmetry_Int_Tables_number      19
_space_group_name_Hall           'P 2ac 2ab'
loop_
_symmetry_equiv_pos_site_id
_symmetry_equiv_pos_as_xyz
1 x,y,z
2 1/2+x,1/2-y,-z
3 -x,1/2+y,1/2-z
4 1/2-x,-y,1/2+z
_cell_length_a                   9.5904(3)
_cell_length_b                   13.2775(4)
_cell_length_c                   14.1768(5)
_cell_angle_alpha                90
_cell_angle_beta                 90
_cell_angle_gamma                90
_cell_volume                     1805.22
_exptl_crystal_colour            yellow
_exptl_crystal_description       block
_cell_formula_units_Z            4
loop_
_atom_site_label
_atom_site_type_symbol
_atom_site_fract_x
_atom_site_fract_y
_atom_site_fract_z
O1 O 0.2727(2) 0.31856(15) 0.75373(14)
H1 H 0.3062 0.3626 0.7178
O2 O 0.2105(2) 0.64433(15) 0.44709(13)
H2 H 0.2089 0.6539 0.3885
O3 O 0.0818(2) 0.43559(16) 0.51804(15)
N1 N 0.3885(2) 0.39700(16) 0.59631(15)
C1 C 0.2625(3) 0.2244(2) 0.7038(2)
H3 H 0.3514 0.1861 0.7127
C2 C 0.2398(3) 0.2413(2) 0.5995(2)
H4 H 0.1522 0.2797 0.5910
H5 H 0.2274 0.1750 0.5686
C3 C 0.3578(3) 0.2978(2) 0.54924(18)
H6 H 0.4438 0.2554 0.5528
C4 C 0.3308(3) 0.4764(2) 0.53181(17)
C5 C 0.3829(3) 0.58291(19) 0.56007(18)
C6 C 0.3498(3) 0.6603(2) 0.48186(19)
H7 H 0.4170 0.6504 0.4287
C7 C 0.3630(3) 0.7690(2) 0.5176(2)
H8 H 0.4614 0.7822 0.5349
H9 H 0.3377 0.8158 0.4660
C8 C 0.2704(4) 0.7901(2) 0.6026(2)
H10 H 0.1708 0.7811 0.5834
C9 C 0.2906(5) 0.8984(3) 0.6371(3)
H11 H 0.3879 0.9083 0.6561
H12 H 0.2293 0.9110 0.6912
H13 H 0.2675 0.9454 0.5861
C10 C 0.1446(3) 0.1651(2) 0.7479(2)
H14 H 0.1657 0.1523 0.8144
H15 H 0.1339 0.1008 0.7147
H16 H 0.0578 0.2037 0.7430
C11 C 0.5408(3) 0.5870(2) 0.5789(2)
H17 H 0.5912 0.5802 0.5183
H18 H 0.5648 0.6533 0.6062
C12 C 0.5885(3) 0.5048(2) 0.6454(2)
H19 H 0.6914 0.5061 0.6509
H20 H 0.5484 0.5163 0.7089
C13 C 0.5421(3) 0.4035(2) 0.60865(19)
H21 H 0.5879 0.3906 0.5473
H22 H 0.5726 0.3504 0.6532
C14 C 0.3031(4) 0.7159(2) 0.6819(2)
H23 H 0.2357 0.7264 0.7338
H24 H 0.3974 0.7307 0.7068
C15 C 0.2976(3) 0.6051(2) 0.65149(18)
H25 H 0.3394 0.5642 0.7035
C16 C 0.1520(3) 0.5621(2) 0.63125(19)
H26 H 0.1124 0.5307 0.6887
H27 H 0.0882 0.6159 0.6095
C17 C 0.1726(3) 0.4841(2) 0.55476(18)
C18 C 0.3566(3) 0.4348(2) 0.43271(17)
H28 H 0.4537 0.4475 0.4121
H29 H 0.2917 0.4650 0.3864
C19 C 0.3293(3) 0.3216(2) 0.44441(19)
H30 H 0.3922 0.2821 0.4032
H31 H 0.2316 0.3053 0.4279
loop_
_geom_bond_atom_site_label_1
_geom_bond_atom_site_label_2
_geom_bond_site_symmetry_1
_geom_bond_site_symmetry_2
O1 H1 1_555 1_555
O2 H2 1_555 1_555
O3 C17 1_555 1_555
N1 C3 1_555 1_555
C1 O1 1_555 1_555
H3 C1 1_555 1_555
C2 C1 1_555 1_555
H4 C2 1_555 1_555
H5 C2 1_555 1_555
C3 C2 1_555 1_555
H6 C3 1_555 1_555
C4 N1 1_555 1_555
C5 C4 1_555 1_555
C6 O2 1_555 1_555
H7 C6 1_555 1_555
C7 C6 1_555 1_555
H8 C7 1_555 1_555
H9 C7 1_555 1_555
C8 C7 1_555 1_555
H10 C8 1_555 1_555
C9 C8 1_555 1_555
H11 C9 1_555 1_555
H12 C9 1_555 1_555
H13 C9 1_555 1_555
C10 C1 1_555 1_555
H14 C10 1_555 1_555
H15 C10 1_555 1_555
H16 C10 1_555 1_555
C11 C5 1_555 1_555
H17 C11 1_555 1_555
H18 C11 1_555 1_555
C12 C11 1_555 1_555
H19 C12 1_555 1_555
H20 C12 1_555 1_555
C13 N1 1_555 1_555
H21 C13 1_555 1_555
H22 C13 1_555 1_555
C14 C8 1_555 1_555
H23 C14 1_555 1_555
H24 C14 1_555 1_555
C15 C5 1_555 1_555
H25 C15 1_555 1_555
C16 C15 1_555 1_555
H26 C16 1_555 1_555
H27 C16 1_555 1_555
C17 C4 1_555 1_555
C18 C4 1_555 1_555
H28 C18 1_555 1_555
H29 C18 1_555 1_555
C19 C3 1_555 1_555
H30 C19 1_555 1_555
H31 C19 1_555 1_555
C5 C6 1_555 1_555
C12 C13 1_555 1_555
C14 C15 1_555 1_555
C16 C17 1_555 1_555
C18 C19 1_555 1_555

#END
