
#######################################################################
#
#                 Cambridge Crystallographic Data Centre
#                                CCDC 
#
#######################################################################
#
# If this CIF has been generated from an entry in the Cambridge 
# Structural Database, then it will include bibliographic, chemical, 
# crystal, experimental, refinement or atomic coordinate data resulting 
# from the CCDC's data processing and validation procedures.
#
#######################################################################

data_OYADOI
_chemical_name_common            
9,10-Dibromo-6,13-bis(tri-isopropylsilylethynyl)-1-azapentacene
_chemical_formula_moiety         'C43 H51 Br2 N1 Si2'
_chemical_name_systematic        
9,10-Dibromo-6,13-bis((tri-isopropylsilyl)ethynyl)anthra[2,3-g]quinoline
_symmetry_cell_setting           triclinic
_symmetry_space_group_name_H-M   'P -1'
_symmetry_Int_Tables_number      2
_space_group_name_Hall           '-P 1'
loop_
_symmetry_equiv_pos_site_id
_symmetry_equiv_pos_as_xyz
1 x,y,z
2 -x,-y,-z
_cell_length_a                   8.054(7)
_cell_length_b                   15.351(13)
_cell_length_c                   17.569(15)
_cell_angle_alpha                78.327(16)
_cell_angle_beta                 87.401(17)
_cell_angle_gamma                88.636(14)
_cell_volume                     2124.83
_exptl_crystal_colour            yellow
_exptl_crystal_description       block
_chemical_melting_point          '293-295 deg.C'
_cell_formula_units_Z            2
_exptl_crystal_recrystallization_method toluene
loop_
_atom_site_label
_atom_site_type_symbol
_atom_site_fract_x
_atom_site_fract_y
_atom_site_fract_z
Br1 Br 0.44407(15) 0.71939(7) 1.08067(9)
Br2 Br 0.51948(16) 0.75289(7) 0.88679(9)
C1 C 0.3771(13) 0.6367(7) 1.0230(8)
C2 C 0.2925(12) 0.5643(7) 1.0601(7)
H1 H 0.2679 0.5571 1.1132
C3 C 0.2398(12) 0.4982(6) 1.0193(8)
C4 C 0.1517(11) 0.4238(6) 1.0566(6)
H2 H 0.1232 0.4170 1.1093
C5 C 0.1045(10) 0.3580(6) 1.0161(7)
C6 C 0.0201(12) 0.2804(7) 1.0558(8)
C7 C -0.0313(12) 0.2168(5) 1.0114(8)
C8 C -0.1203(12) 0.1407(7) 1.0486(7)
H3 H -0.1457 0.1326 1.1017
C9 C -0.1706(13) 0.0780(7) 1.0086(9)
C10 C -0.2587(13) 0.0020(7) 1.0453(7)
H4 H -0.2853 -0.0080 1.0984
C11 C -0.3036(17) -0.0558(9) 1.0027(12)
H5 H -0.3569 -0.1079 1.0267
C12 C -0.2711(18) -0.0385(10) 0.9225(13)
H6 H -0.3125 -0.0783 0.8948
C13 C -0.1382(13) 0.0922(7) 0.9273(9)
C14 C -0.0475(13) 0.1672(7) 0.8881(6)
H7 H -0.0225 0.1739 0.8350
C15 C 0.0058(11) 0.2322(6) 0.9281(7)
C16 C 0.0961(12) 0.3075(6) 0.8901(7)
C17 C 0.1381(11) 0.3731(6) 0.9332(7)
C18 C 0.2231(11) 0.4482(6) 0.8961(6)
H8 H 0.2472 0.4568 0.8429
C19 C 0.2734(11) 0.5113(6) 0.9371(7)
C20 C 0.3563(12) 0.5903(7) 0.9003(7)
H9 H 0.3796 0.6009 0.8469
C21 C 0.4035(12) 0.6529(6) 0.9437(8)
C22 C 0.1481(14) 0.3140(6) 0.8091(9)
C23 C 0.2037(14) 0.3120(7) 0.7464(7)
C24 C 0.419(3) 0.3931(14) 0.6080(14)
H10 H 0.3300 0.4373 0.5940
C25 C 0.518(3) 0.4317(18) 0.6632(13)
H11 H 0.6192 0.3982 0.6733
H12 H 0.4541 0.4292 0.7111
H13 H 0.5429 0.4925 0.6406
C26 C 0.500(4) 0.385(2) 0.5301(14)
H14 H 0.5927 0.4245 0.5185
H15 H 0.4204 0.4012 0.4903
H16 H 0.5376 0.3251 0.5320
C27 C 0.376(3) 0.1711(12) 0.6863(14)
H17 H 0.2846 0.1370 0.7164
C28 C 0.526(3) 0.168(2) 0.7404(14)
H18 H 0.5893 0.1139 0.7403
H19 H 0.4852 0.1688 0.7924
H20 H 0.5953 0.2181 0.7215
C29 C 0.421(3) 0.1293(19) 0.6155(13)
H21 H 0.4706 0.1733 0.5747
H22 H 0.3222 0.1076 0.5975
H23 H 0.4982 0.0809 0.6302
C30 C 0.126(3) 0.2857(17) 0.5942(16)
H24 H 0.1741 0.2705 0.5462
C31 C 0.011(4) 0.2072(15) 0.6334(16)
H25 H -0.0767 0.2292 0.6638
H26 H 0.0746 0.1626 0.6666
H27 H -0.0368 0.1817 0.5940
C32 C 0.020(3) 0.3722(15) 0.5698(18)
H28 H -0.0384 0.3690 0.5241
H29 H 0.0917 0.4227 0.5591
H30 H -0.0584 0.3780 0.6113
C33 C -0.0042(13) 0.2639(7) 1.1404(9)
C34 C -0.0191(15) 0.2483(8) 1.2096(8)
C35 C -0.031(3) 0.3172(12) 1.3607(14)
H31 H -0.0299 0.2972 1.4173
C36 C -0.191(3) 0.3700(19) 1.3389(16)
H32 H -0.1986 0.4195 1.3646
H33 H -0.2849 0.3322 1.3547
H34 H -0.1898 0.3913 1.2836
C37 C 0.130(3) 0.3658(18) 1.3308(17)
H35 H 0.1570 0.3578 1.2789
H36 H 0.2180 0.3421 1.3642
H37 H 0.1148 0.4281 1.3307
C38 C 0.112(3) 0.1203(14) 1.3508(15)
H38 H 0.2245 0.1403 1.3326
C39 C 0.118(4) 0.105(2) 1.4390(14)
H39 H 0.0075 0.0927 1.4615
H40 H 0.1592 0.1565 1.4538
H41 H 0.1892 0.0546 1.4572
C40 C 0.090(4) 0.0401(18) 1.3161(15)
H42 H 0.1859 0.0016 1.3254
H43 H 0.0774 0.0585 1.2611
H44 H -0.0071 0.0089 1.3396
C41 C -0.251(2) 0.2030(19) 1.3463(16)
H45 H -0.2998 0.2610 1.3233
C42 C -0.303(4) 0.195(2) 1.4311(15)
H46 H -0.3128 0.2529 1.4432
H47 H -0.2211 0.1604 1.4627
H48 H -0.4083 0.1657 1.4412
C43 C -0.346(4) 0.140(2) 1.3066(15)
H49 H -0.3213 0.0797 1.3305
H50 H -0.3131 0.1504 1.2524
H51 H -0.4634 0.1514 1.3121
N1 N -0.1827(14) 0.0329(7) 0.8806(7)
Si1 Si 0.3048(5) 0.2917(2) 0.6587(2)
Si2 Si -0.0241(5) 0.2189(2) 1.3131(2)
C44? C 0.482(3) 0.3706(16) 0.6293(14)
C45? C 0.581(3) 0.390(2) 0.6944(13)
C46? C 0.575(3) 0.371(2) 0.5523(13)
C47? C 0.441(3) 0.1912(14) 0.6795(14)
C48? C 0.419(4) 0.1301(18) 0.7594(12)
C49? C 0.513(3) 0.149(2) 0.6149(13)
C50? C 0.157(3) 0.3009(17) 0.5779(14)
C51? C 0.008(3) 0.2366(15) 0.5979(17)
C52? C 0.093(3) 0.3986(14) 0.5515(19)
C53? C 0.061(3) 0.3192(12) 1.3437(16)
C54? C -0.042(3) 0.4024(18) 1.3081(15)
C55? C 0.250(3) 0.3322(19) 1.3204(17)
C56? C 0.164(3) 0.1442(16) 1.3396(16)
C57? C 0.213(3) 0.110(2) 1.4235(13)
C58? C 0.198(4) 0.0782(19) 1.2876(13)
C59? C -0.221(3) 0.1576(16) 1.3492(15)
C60? C -0.259(4) 0.1314(19) 1.4344(14)
C61? C -0.273(4) 0.0901(19) 1.3008(14)
H52? H 0.4197 0.4268 0.6158
H53? H 0.6968 0.3944 0.6784
H54? H 0.5663 0.3437 0.7394
H55? H 0.5433 0.4459 0.7067
H56? H 0.6501 0.4198 0.5411
H57? H 0.4965 0.3771 0.5118
H58? H 0.6360 0.3160 0.5551
H59? H 0.5420 0.2207 0.6895
H60? H 0.3055 0.1117 0.7678
H61? H 0.4474 0.1616 0.7989
H62? H 0.4904 0.0788 0.7617
H63? H 0.6045 0.1834 0.5891
H64? H 0.4289 0.1469 0.5782
H65? H 0.5508 0.0896 0.6360
H66? H 0.2196 0.2849 0.5334
H67? H -0.0631 0.2546 0.6375
H68? H 0.0486 0.1771 0.6164
H69? H -0.0538 0.2383 0.5521
H70? H 0.0041 0.4000 0.5169
H71? H 0.1824 0.4348 0.5253
H72? H 0.0540 0.4213 0.5963
H73? H 0.0485 0.3103 1.4005
H74? H 0.0294 0.4530 1.2950
H75? H -0.1273 0.4133 1.3452
H76? H -0.0921 0.3928 1.2620
H77? H 0.2618 0.3625 1.2670
H78? H 0.3048 0.2752 1.3268
H79? H 0.2984 0.3670 1.3530
H80? H 0.2533 0.1864 1.3210
H81? H 0.1340 0.0672 1.4496
H82? H 0.2150 0.1589 1.4500
H83? H 0.3216 0.0826 1.4236
H84? H 0.2073 0.0195 1.3189
H85? H 0.2992 0.0930 1.2576
H86? H 0.1075 0.0802 1.2533
H87? H -0.3040 0.2049 1.3345
H88? H -0.3716 0.1483 1.4456
H89? H -0.1847 0.1608 1.4617
H90? H -0.2456 0.0681 1.4506
H91? H -0.1943 0.0416 1.3061
H92? H -0.2772 0.1189 1.2470
H93? H -0.3814 0.0677 1.3191
loop_
_geom_bond_atom_site_label_1
_geom_bond_atom_site_label_2
_geom_bond_site_symmetry_1
_geom_bond_site_symmetry_2
Br1 C1 1_555 1_555
Br2 C21 1_555 1_555
C1 C2 1_555 1_555
C2 H1 1_555 1_555
C3 C2 1_555 1_555
C4 C3 1_555 1_555
H2 C4 1_555 1_555
C5 C4 1_555 1_555
C6 C5 1_555 1_555
C7 C6 1_555 1_555
C8 C7 1_555 1_555
H3 C8 1_555 1_555
C9 C8 1_555 1_555
C10 C9 1_555 1_555
H4 C10 1_555 1_555
C11 C10 1_555 1_555
H5 C11 1_555 1_555
C12 C11 1_555 1_555
H6 C12 1_555 1_555
C13 C9 1_555 1_555
C14 C13 1_555 1_555
H7 C14 1_555 1_555
C15 C7 1_555 1_555
C16 C15 1_555 1_555
C17 C5 1_555 1_555
C18 C17 1_555 1_555
H8 C18 1_555 1_555
C19 C3 1_555 1_555
C20 C19 1_555 1_555
H9 C20 1_555 1_555
C21 C1 1_555 1_555
C22 C16 1_555 1_555
C23 C22 1_555 1_555
C24 H10 1_555 1_555
C25 C24 1_555 1_555
H11 C25 1_555 1_555
H12 C25 1_555 1_555
H13 C25 1_555 1_555
C26 C24 1_555 1_555
H14 C26 1_555 1_555
H15 C26 1_555 1_555
H16 C26 1_555 1_555
C27 H17 1_555 1_555
C28 C27 1_555 1_555
H18 C28 1_555 1_555
H19 C28 1_555 1_555
H20 C28 1_555 1_555
C29 C27 1_555 1_555
H21 C29 1_555 1_555
H22 C29 1_555 1_555
H23 C29 1_555 1_555
C30 H24 1_555 1_555
C31 C30 1_555 1_555
H25 C31 1_555 1_555
H26 C31 1_555 1_555
H27 C31 1_555 1_555
C32 C30 1_555 1_555
H28 C32 1_555 1_555
H29 C32 1_555 1_555
H30 C32 1_555 1_555
C33 C6 1_555 1_555
C34 C33 1_555 1_555
C35 H31 1_555 1_555
C36 C35 1_555 1_555
H32 C36 1_555 1_555
H33 C36 1_555 1_555
H34 C36 1_555 1_555
C37 C35 1_555 1_555
H35 C37 1_555 1_555
H36 C37 1_555 1_555
H37 C37 1_555 1_555
C38 H38 1_555 1_555
C39 C38 1_555 1_555
H39 C39 1_555 1_555
H40 C39 1_555 1_555
H41 C39 1_555 1_555
C40 C38 1_555 1_555
H42 C40 1_555 1_555
H43 C40 1_555 1_555
H44 C40 1_555 1_555
C41 H45 1_555 1_555
C42 C41 1_555 1_555
H46 C42 1_555 1_555
H47 C42 1_555 1_555
H48 C42 1_555 1_555
C43 C41 1_555 1_555
H49 C43 1_555 1_555
H50 C43 1_555 1_555
H51 C43 1_555 1_555
N1 C12 1_555 1_555
Si1 C23 1_555 1_555
Si2 C34 1_555 1_555
C13 N1 1_555 1_555
C14 C15 1_555 1_555
C16 C17 1_555 1_555
C18 C19 1_555 1_555
C20 C21 1_555 1_555
C24 Si1 1_555 1_555
C27 Si1 1_555 1_555
C30 Si1 1_555 1_555
C35 Si2 1_555 1_555
C38 Si2 1_555 1_555
C41 Si2 1_555 1_555

#END
