
#######################################################################
#
#                 Cambridge Crystallographic Data Centre
#                                CCDC 
#
#######################################################################
#
# If this CIF has been generated from an entry in the Cambridge 
# Structural Database, then it will include bibliographic, chemical, 
# crystal, experimental, refinement or atomic coordinate data resulting 
# from the CCDC's data processing and validation procedures.
#
#######################################################################

data_OYARUD
_chemical_formula_moiety         'C25 H27 O6'
_chemical_name_systematic        
7-methoxy-4,13,13,14a-tetramethyl-3a,4,5,5a,13,14,14a,14b-octahydro-1H,3H,6H-cyclopenta[4',5']isochromeno[6',5':4,5]furo[2,3-b]chromene-3,6-dione
_symmetry_cell_setting           monoclinic
_symmetry_space_group_name_H-M   'P 21/c'
_symmetry_Int_Tables_number      14
_space_group_name_Hall           '-P 2ybc'
loop_
_symmetry_equiv_pos_site_id
_symmetry_equiv_pos_as_xyz
1 x,y,z
2 -x,1/2+y,1/2-z
3 -x,-y,-z
4 x,1/2-y,1/2+z
_cell_length_a                   11.4810(2)
_cell_length_b                   13.8874(3)
_cell_length_c                   14.2299(10)
_cell_angle_alpha                90
_cell_angle_beta                 111.405(8)
_cell_angle_gamma                90
_cell_volume                     2112.34
_exptl_crystal_colour            colorless
_exptl_crystal_description       block
_cell_formula_units_Z            4
loop_
_atom_site_label
_atom_site_type_symbol
_atom_site_fract_x
_atom_site_fract_y
_atom_site_fract_z
O1 O 0.0379(2) 0.63967(13) 0.61167(13)
O2 O 0.28851(16) -0.07204(10) 0.73276(14)
O3 O 0.11838(14) 0.67024(10) 0.77355(12)
O4 O 0.35498(11) 0.35883(9) 0.87275(10)
O5 O 0.47116(12) 0.22690(11) 0.88598(12)
O6 O 0.14712(14) 0.08357(10) 0.71733(12)
C1 C 0.0842(2) 0.60779(15) 0.69547(17)
C2 C 0.11135(18) 0.50399(13) 0.71826(14)
C3 C 0.04822(19) 0.43079(14) 0.63742(14)
H1 H 0.0532 0.4544 0.5741
C4 C 0.11926(18) 0.33567(13) 0.66305(14)
H2 H 0.1970 0.3426 0.6514
H3 H 0.0700 0.2866 0.6171
C5 C 0.14981(16) 0.30037(12) 0.77193(13)
H4 H 0.0745 0.2784 0.7826
C6 C 0.24865(16) 0.22305(13) 0.79848(13)
C7 C 0.24402(17) 0.12387(13) 0.76909(14)
C8 C 0.37021(19) 0.07694(14) 0.80743(15)
C9 C 0.3906(2) -0.02119(16) 0.78936(18)
C10 C 0.3035(3) -0.16933(18) 0.7086(3)
H5 H 0.3323 -0.2070 0.7694
H6 H 0.3637 -0.1727 0.6763
H7 H 0.2247 -0.1941 0.6639
C11 C 0.1514(2) 0.63159(15) 0.87448(16)
H8 H 0.0767 0.6072 0.8831
H9 H 0.1855 0.6826 0.9234
C12 C 0.24657(17) 0.55121(13) 0.89391(15)
C13 C 0.3730(2) 0.59085(16) 0.89797(19)
H10 H 0.3614 0.6271 0.8378
H11 H 0.4293 0.5383 0.9028
H12 H 0.4074 0.6319 0.9558
C14 C 0.2582(2) 0.49001(15) 0.98746(15)
H13 H 0.2145 0.5210 1.0260
H14 H 0.3455 0.4830 1.0305
C15 C 0.19958(18) 0.38918(14) 0.95000(14)
C16 C 0.2649(2) 0.31009(17) 1.02525(16)
H15 H 0.2272 0.2491 0.9999
H16 H 0.2565 0.3230 1.0888
H17 H 0.3519 0.3084 1.0345
C17 C 0.21796(15) 0.37999(12) 0.84763(13)
C18 C 0.35758(17) 0.26594(13) 0.85120(14)
C19 C 0.4766(2) 0.12959(16) 0.86348(18)
C20 C -0.0897(2) 0.41989(18) 0.62162(19)
H18 H -0.1306 0.4812 0.6041
H19 H -0.0974 0.3968 0.6827
H20 H -0.1281 0.3748 0.5681
C21 C 0.19276(16) 0.48039(12) 0.80862(13)
H21 H 0.2653 0.4829 0.7879
C22 C 0.5105(3) -0.0595(2) 0.8288(3)
H22 H 0.5231 -0.1239 0.8171
C23 C 0.6107(3) -0.0038(3) 0.8847(3)
H23 H 0.6899 -0.0313 0.9109
C24 C 0.5959(3) 0.0919(2) 0.9026(3)
H24 H 0.6639 0.1299 0.9397
C25 C 0.0593(2) 0.39003(16) 0.93288(17)
H25 H 0.0486 0.4069 0.9947
H26 H 0.0246 0.3273 0.9116
H27 H 0.0173 0.4364 0.8817
loop_
_geom_bond_atom_site_label_1
_geom_bond_atom_site_label_2
_geom_bond_site_symmetry_1
_geom_bond_site_symmetry_2
O1 C1 1_555 1_555
O2 C9 1_555 1_555
O3 C1 1_555 1_555
O4 C17 1_555 1_555
O5 C18 1_555 1_555
O6 C7 1_555 1_555
C1 C2 1_555 1_555
C2 C3 1_555 1_555
C3 H1 1_555 1_555
C4 C3 1_555 1_555
H2 C4 1_555 1_555
H3 C4 1_555 1_555
C5 C4 1_555 1_555
H4 C5 1_555 1_555
C6 C5 1_555 1_555
C7 C6 1_555 1_555
C8 C7 1_555 1_555
C9 C8 1_555 1_555
C10 O2 1_555 1_555
H5 C10 1_555 1_555
H6 C10 1_555 1_555
H7 C10 1_555 1_555
C11 O3 1_555 1_555
H8 C11 1_555 1_555
H9 C11 1_555 1_555
C12 C11 1_555 1_555
C13 C12 1_555 1_555
H10 C13 1_555 1_555
H11 C13 1_555 1_555
H12 C13 1_555 1_555
C14 C12 1_555 1_555
H13 C14 1_555 1_555
H14 C14 1_555 1_555
C15 C14 1_555 1_555
C16 C15 1_555 1_555
H15 C16 1_555 1_555
H16 C16 1_555 1_555
H17 C16 1_555 1_555
C17 C5 1_555 1_555
C18 O4 1_555 1_555
C19 O5 1_555 1_555
C20 C3 1_555 1_555
H18 C20 1_555 1_555
H19 C20 1_555 1_555
H20 C20 1_555 1_555
C21 C2 1_555 1_555
H21 C21 1_555 1_555
C22 C9 1_555 1_555
H22 C22 1_555 1_555
C23 C22 1_555 1_555
H23 C23 1_555 1_555
C24 C19 1_555 1_555
H24 C24 1_555 1_555
C25 C15 1_555 1_555
H25 C25 1_555 1_555
H26 C25 1_555 1_555
H27 C25 1_555 1_555
C6 C18 1_555 1_555
C8 C19 1_555 1_555
C12 C21 1_555 1_555
C15 C17 1_555 1_555
C17 C21 1_555 1_555
C23 C24 1_555 1_555

#END
