
#######################################################################
#
#                 Cambridge Crystallographic Data Centre
#                                CCDC 
#
#######################################################################
#
# If this CIF has been generated from an entry in the Cambridge 
# Structural Database, then it will include bibliographic, chemical, 
# crystal, experimental, refinement or atomic coordinate data resulting 
# from the CCDC's data processing and validation procedures.
#
#######################################################################

data_OYAXIX
_chemical_formula_moiety         'C33 H41 N5 O3'
_chemical_name_systematic        
3-(3',6'-bis(diethylamino)-3-oxospiro[isoindole-1,9'-xanthen]-2(3H)-yl)-1,1-diethylurea
_symmetry_cell_setting           triclinic
_symmetry_space_group_name_H-M   'P -1'
_symmetry_Int_Tables_number      2
_space_group_name_Hall           '-P 1'
loop_
_symmetry_equiv_pos_site_id
_symmetry_equiv_pos_as_xyz
1 x,y,z
2 -x,-y,-z
_cell_length_a                   9.262(3)
_cell_length_b                   11.745(4)
_cell_length_c                   17.080(6)
_cell_angle_alpha                104.110(4)
_cell_angle_beta                 90.264(5)
_cell_angle_gamma                108.099(4)
_cell_volume                     1706.27
_cell_formula_units_Z            2
loop_
_atom_site_label
_atom_site_type_symbol
_atom_site_fract_x
_atom_site_fract_y
_atom_site_fract_z
C1 C 1.3740(9) 1.5088(7) 0.1953(4)
N1 N 1.1319(7) 0.8724(6) 0.1508(4)
O1 O 0.8892(7) 0.8726(5) 0.1767(3)
C2 C 1.2784(9) 1.4350(7) 0.1255(5)
H1 H 1.3016 1.4519 0.0757
O2 O 1.1764(7) 1.3670(6) 0.3464(4)
N2 N 0.9056(12) 1.1559(9) 0.5333(6)
C3 C 1.1525(8) 1.3394(7) 0.1290(4)
H2 H 1.0936 1.2918 0.0811
O3 O 0.8012(6) 0.9739(4) 0.0216(3)
N3 N 1.5106(9) 1.6017(7) 0.1935(5)
C4 C 1.1071(7) 1.3089(6) 0.2021(4)
N4 N 0.9444(6) 1.0925(4) 0.1415(3)
C5 C 1.2009(8) 1.3821(6) 0.2691(4)
N5 N 1.0576(6) 1.0359(5) 0.1370(3)
C6 C 1.3313(9) 1.4790(7) 0.2680(5)
H3 H 1.3911 1.5247 0.3161
C7 C 0.9613(7) 1.2080(6) 0.2063(4)
C8 C 0.9533(8) 1.1885(6) 0.2904(4)
C9 C 1.0501(9) 1.2674(7) 0.3547(4)
C10 C 0.8357(10) 1.0940(8) 0.3100(5)
H4 H 0.7652 1.0363 0.2691
C11 C 0.8222(11) 1.0846(9) 0.3897(6)
H5 H 0.7438 1.0197 0.4002
C12 C 0.9175(11) 1.1652(9) 0.4508(6)
C13 C 1.0390(11) 1.2580(9) 0.4323(6)
H6 H 1.1119 1.3131 0.4731
C14 C 1.0183(14) 1.2389(11) 0.5984(7)
H7 H 1.1178 1.2586 0.5776
H8 H 1.0217 1.1967 0.6403
C15 C 0.9864(18) 1.3557(14) 0.6349(10)
H9 H 1.0638 1.4064 0.6777
H10 H 0.8886 1.3370 0.6563
H11 H 0.9861 1.3994 0.5941
C16 C 0.7310(19) 1.0706(15) 0.5517(11)
H12 H 0.6991 1.1044 0.6038
H13 H 0.6523 1.0520 0.5085
C17 C 0.787(2) 0.9728(19) 0.5507(13)
H14 H 0.7071 0.9041 0.5604
H15 H 0.8695 0.9993 0.5922
H16 H 0.8233 0.9478 0.4988
C18 C 1.6006(13) 1.6829(10) 0.2694(7)
H17 H 1.6157 1.6320 0.3036
H18 H 1.7001 1.7294 0.2568
C19 C 1.5279(19) 1.7687(15) 0.3135(10)
H19 H 1.5901 1.8187 0.3625
H20 H 1.4298 1.7232 0.3268
H21 H 1.5156 1.8213 0.2806
C20 C 1.5770(12) 1.6165(10) 0.1153(6)
H22 H 1.6873 1.6464 0.1241
H23 H 1.5472 1.5364 0.0760
C21 C 1.5263(17) 1.7027(13) 0.0827(9)
H24 H 1.5706 1.7094 0.0326
H25 H 1.5577 1.7827 0.1208
H26 H 1.4171 1.6728 0.0731
C22 C 0.7457(8) 1.1514(6) 0.1101(4)
C23 C 0.8197(8) 1.2349(6) 0.1801(4)
C24 C 0.7640(10) 1.3278(8) 0.2204(5)
H27 H 0.8125 1.3840 0.2687
C25 C 0.6295(11) 1.3327(9) 0.1841(6)
H28 H 0.5877 1.3930 0.2098
C26 C 0.5598(11) 1.2528(8) 0.1136(6)
H29 H 0.4736 1.2613 0.0909
C27 C 0.6125(9) 1.1603(7) 0.0752(5)
H30 H 0.5624 1.1043 0.0272
C28 C 0.8293(8) 1.0609(6) 0.0824(4)
C29 C 1.0177(8) 0.9222(6) 0.1544(4)
C30 C 1.2904(10) 0.9441(8) 0.1467(5)
H31 H 1.2943 0.9960 0.1098
H32 H 1.3468 0.8879 0.1252
C31 C 1.3636(14) 1.0234(11) 0.2274(7)
H33 H 1.4674 1.0689 0.2224
H34 H 1.3615 0.9722 0.2637
H35 H 1.3093 1.0802 0.2483
C32 C 1.0958(11) 0.7480(8) 0.1658(5)
H36 H 1.0166 0.7377 0.2029
H37 H 1.1858 0.7416 0.1913
C33 C 1.0427(15) 0.6446(12) 0.0878(8)
H38 H 1.0209 0.5657 0.1000
H39 H 1.1215 0.6536 0.0512
H40 H 0.9523 0.6493 0.0630
loop_
_geom_bond_atom_site_label_1
_geom_bond_atom_site_label_2
_geom_bond_site_symmetry_1
_geom_bond_site_symmetry_2
C1 C2 1_555 1_555
N1 C29 1_555 1_555
O1 C29 1_555 1_555
C2 H1 1_555 1_555
O2 C5 1_555 1_555
N2 C12 1_555 1_555
C3 C2 1_555 1_555
H2 C3 1_555 1_555
O3 C28 1_555 1_555
N3 C1 1_555 1_555
C4 C3 1_555 1_555
N4 N5 1_555 1_555
C5 C4 1_555 1_555
N5 C29 1_555 1_555
C6 C1 1_555 1_555
H3 C6 1_555 1_555
C7 C4 1_555 1_555
C8 C7 1_555 1_555
C9 O2 1_555 1_555
C10 C8 1_555 1_555
H4 C10 1_555 1_555
C11 C10 1_555 1_555
H5 C11 1_555 1_555
C12 C11 1_555 1_555
C13 C9 1_555 1_555
H6 C13 1_555 1_555
C14 N2 1_555 1_555
H7 C14 1_555 1_555
H8 C14 1_555 1_555
C15 C14 1_555 1_555
H9 C15 1_555 1_555
H10 C15 1_555 1_555
H11 C15 1_555 1_555
C16 N2 1_555 1_555
H12 C16 1_555 1_555
H13 C16 1_555 1_555
C17 C16 1_555 1_555
H14 C17 1_555 1_555
H15 C17 1_555 1_555
H16 C17 1_555 1_555
C18 N3 1_555 1_555
H17 C18 1_555 1_555
H18 C18 1_555 1_555
C19 C18 1_555 1_555
H19 C19 1_555 1_555
H20 C19 1_555 1_555
H21 C19 1_555 1_555
C20 N3 1_555 1_555
H22 C20 1_555 1_555
H23 C20 1_555 1_555
C21 C20 1_555 1_555
H24 C21 1_555 1_555
H25 C21 1_555 1_555
H26 C21 1_555 1_555
C22 C23 1_555 1_555
C23 C7 1_555 1_555
C24 C23 1_555 1_555
H27 C24 1_555 1_555
C25 C24 1_555 1_555
H28 C25 1_555 1_555
C26 C25 1_555 1_555
H29 C26 1_555 1_555
C27 C22 1_555 1_555
H30 C27 1_555 1_555
C28 N4 1_555 1_555
C30 N1 1_555 1_555
H31 C30 1_555 1_555
H32 C30 1_555 1_555
C31 C30 1_555 1_555
H33 C31 1_555 1_555
H34 C31 1_555 1_555
H35 C31 1_555 1_555
C32 N1 1_555 1_555
H36 C32 1_555 1_555
H37 C32 1_555 1_555
C33 C32 1_555 1_555
H38 C33 1_555 1_555
H39 C33 1_555 1_555
H40 C33 1_555 1_555
N4 C7 1_555 1_555
C5 C6 1_555 1_555
C8 C9 1_555 1_555
C12 C13 1_555 1_555
C22 C28 1_555 1_555
C26 C27 1_555 1_555

#END
