
#######################################################################
#
#                 Cambridge Crystallographic Data Centre
#                                CCDC 
#
#######################################################################
#
# If this CIF has been generated from an entry in the Cambridge 
# Structural Database, then it will include bibliographic, chemical, 
# crystal, experimental, refinement or atomic coordinate data resulting 
# from the CCDC's data processing and validation procedures.
#
#######################################################################

data_OYENIR
_chemical_formula_moiety         'C19 H20 N2 O3'
_chemical_name_systematic        
'butyl (5-cyano-9-methyl-4-oxo-1,2-dihydro-4H-pyrrolo[3,2,1-ij]quinolin-6-yl)acetate'
_symmetry_cell_setting           orthorhombic
_symmetry_space_group_name_H-M   'P b c a'
_symmetry_Int_Tables_number      61
_space_group_name_Hall           '-P 2ac 2ab'
loop_
_symmetry_equiv_pos_site_id
_symmetry_equiv_pos_as_xyz
1 x,y,z
2 1/2-x,-y,1/2+z
3 -x,1/2+y,1/2-z
4 1/2+x,1/2-y,-z
5 -x,-y,-z
6 1/2+x,y,1/2-z
7 x,1/2-y,1/2+z
8 1/2-x,1/2+y,z
_cell_length_a                   10.6778(12)
_cell_length_b                   15.1304(17)
_cell_length_c                   20.376(2)
_cell_angle_alpha                90
_cell_angle_beta                 90
_cell_angle_gamma                90
_cell_volume                     3291.93
_exptl_crystal_colour            colorless
_exptl_crystal_description       Prism
_cell_formula_units_Z            8
loop_
_atom_site_label
_atom_site_type_symbol
_atom_site_fract_x
_atom_site_fract_y
_atom_site_fract_z
O1 O 0.22288(7) -0.23876(5) 0.44713(4)
O2 O 0.47333(7) 0.13264(5) 0.32373(4)
O3 O 0.29764(14) 0.06454(12) 0.29092(5)
N1 N 0.07161(8) -0.13516(5) 0.42877(4)
N2 N 0.51572(9) -0.13923(7) 0.43323(5)
C1 C 0.19295(9) -0.16142(6) 0.43562(5)
C2 C 0.28420(9) -0.08940(6) 0.42733(5)
C3 C 0.25306(9) -0.00219(6) 0.41713(4)
C4 C 0.12271(9) 0.02096(6) 0.41524(4)
C5 C 0.07029(9) 0.10663(6) 0.40897(5)
H1 H 0.123435 0.156844 0.406171
C6 C -0.05816(9) 0.11698(6) 0.40693(5)
H2 H -0.091489 0.175050 0.403910
C7 C -0.14255(9) 0.04448(7) 0.40917(5)
C8 C -0.09272(9) -0.03928(6) 0.41665(4)
C9 C 0.03700(9) -0.04837(6) 0.42026(4)
C10 C -0.03978(9) -0.19337(6) 0.43394(5)
H3 H -0.045517 -0.220227 0.478141
H4 H -0.036766 -0.241047 0.400704
C11 C -0.15168(9) -0.13035(7) 0.42112(5)
H5 H -0.194761 -0.145823 0.379666
H6 H -0.212829 -0.133062 0.457589
C12 C 0.41279(9) -0.11707(6) 0.43051(5)
C13 C -0.28111(9) 0.05913(8) 0.40143(6)
H7 H -0.303878 0.116489 0.420322
H8 H -0.326833 0.012100 0.424214
H9 H -0.302875 0.058359 0.354710
C14 C 0.35297(9) 0.06629(6) 0.40615(5)
H10 H 0.433011 0.045170 0.424999
H11 H 0.329450 0.121592 0.429006
C15 C 0.37043(9) 0.08498(7) 0.33355(5)
C16 C 0.50840(12) 0.15223(8) 0.25587(6)
H12 H 0.444914 0.127592 0.225553
H13 H 0.590099 0.124522 0.245664
C17 C 0.51721(12) 0.25078(8) 0.24669(6)
H14 H 0.554107 0.264606 0.203315
H15 H 0.571039 0.276997 0.281125
C18 C 0.3819(7) 0.2891(5) 0.2514(4)
H16 H 0.329055 0.261514 0.217143
H17 H 0.345811 0.273657 0.294671
C19 C 0.3791(12) 0.3897(4) 0.2429(3)
H18 H 0.409600 0.405077 0.199008
H19 H 0.432794 0.417239 0.276074
H20 H 0.292991 0.410991 0.248152
H21? H 0.581419 0.272266 0.277896
H22? H 0.551083 0.260808 0.202079
C20? C 0.4060(8) 0.3102(6) 0.2540(5)
H23? H 0.367610 0.300177 0.297560
H24? H 0.343091 0.294482 0.220223
C21? C 0.4389(14) 0.4072(5) 0.2472(3)
H25? H 0.465684 0.419276 0.202026
H26? H 0.507033 0.421892 0.277492
H27? H 0.365279 0.443288 0.257543
O4? O 0.3411(11) 0.0267(8) 0.2945(4)
loop_
_geom_bond_atom_site_label_1
_geom_bond_atom_site_label_2
_geom_bond_site_symmetry_1
_geom_bond_site_symmetry_2
O1 C1 1_555 1_555
O2 C15 1_555 1_555
O3 C15 1_555 1_555
N1 C1 1_555 1_555
N2 C12 1_555 1_555
C1 C2 1_555 1_555
C2 C3 1_555 1_555
C3 C4 1_555 1_555
C4 C5 1_555 1_555
C5 H1 1_555 1_555
C6 C5 1_555 1_555
H2 C6 1_555 1_555
C7 C6 1_555 1_555
C8 C7 1_555 1_555
C9 N1 1_555 1_555
C10 N1 1_555 1_555
H3 C10 1_555 1_555
H4 C10 1_555 1_555
C11 C8 1_555 1_555
H5 C11 1_555 1_555
H6 C11 1_555 1_555
C12 C2 1_555 1_555
C13 C7 1_555 1_555
H7 C13 1_555 1_555
H8 C13 1_555 1_555
H9 C13 1_555 1_555
C14 C3 1_555 1_555
H10 C14 1_555 1_555
H11 C14 1_555 1_555
C15 C14 1_555 1_555
C16 O2 1_555 1_555
H12 C16 1_555 1_555
H13 C16 1_555 1_555
C17 C16 1_555 1_555
H14 C17 1_555 1_555
H15 C17 1_555 1_555
C18 C17 1_555 1_555
H16 C18 1_555 1_555
H17 C18 1_555 1_555
C19 C18 1_555 1_555
H18 C19 1_555 1_555
H19 C19 1_555 1_555
H20 C19 1_555 1_555
C4 C9 1_555 1_555
C8 C9 1_555 1_555
C10 C11 1_555 1_555

#END
