
#######################################################################
#
#                 Cambridge Crystallographic Data Centre
#                                CCDC 
#
#######################################################################
#
# If this CIF has been generated from an entry in the Cambridge 
# Structural Database, then it will include bibliographic, chemical, 
# crystal, experimental, refinement or atomic coordinate data resulting 
# from the CCDC's data processing and validation procedures.
#
#######################################################################

data_OYENEN
_chemical_formula_moiety         'C25 H16 N2'
_chemical_name_systematic        
6-phenyl-1,2-dihydroindeno[2,1-b]pyrrolo[3,2,1-ij]quinoline-11-carbonitrile
_symmetry_cell_setting           monoclinic
_symmetry_space_group_name_H-M   'P 21/n'
_symmetry_Int_Tables_number      14
_space_group_name_Hall           '-P 2yn'
loop_
_symmetry_equiv_pos_site_id
_symmetry_equiv_pos_as_xyz
1 x,y,z
2 1/2-x,1/2+y,1/2-z
3 -x,-y,-z
4 1/2+x,1/2-y,1/2+z
_cell_length_a                   11.1107(12)
_cell_length_b                   9.7397(10)
_cell_length_c                   15.8289(16)
_cell_angle_alpha                90
_cell_angle_beta                 101.488(2)
_cell_angle_gamma                90
_cell_volume                     1678.61
_exptl_crystal_colour            colorless
_exptl_crystal_description       Prism
_cell_formula_units_Z            4
loop_
_atom_site_label
_atom_site_type_symbol
_atom_site_fract_x
_atom_site_fract_y
_atom_site_fract_z
N1 N 0.09770(8) 0.75186(9) 0.99415(5)
N2 N -0.26251(9) 0.78391(12) 0.98923(7)
C1 C 0.05242(10) 0.66611(11) 1.05868(6)
H1 H -0.0160 0.6063 1.0306
H2 H 0.0239 0.7241 1.1022
C2 C 0.16563(10) 0.57945(11) 1.10074(7)
H3 H 0.1845 0.5921 1.1641
H4 H 0.1513 0.4807 1.0877
C3 C 0.26864(10) 0.63380(11) 1.06064(7)
C4 C 0.39135(10) 0.60268(12) 1.07204(7)
H5 H 0.4270 0.5364 1.1136
C5 C 0.46376(10) 0.67065(12) 1.02106(8)
H6 H 0.5489 0.6499 1.0294
C6 C 0.41459(10) 0.76606(12) 0.95964(7)
H7 H 0.4659 0.8088 0.9260
C7 C 0.28854(9) 0.80120(11) 0.94602(6)
C8 C 0.22098(9) 0.73238(11) 0.99895(6)
C9 C 0.22332(9) 0.89592(10) 0.88300(6)
C10 C 0.28943(9) 0.95938(11) 0.81946(7)
C11 C 0.38295(10) 1.05443(12) 0.84513(7)
H8 H 0.4034 1.0832 0.9036
C12 C 0.44655(10) 1.10737(12) 0.78505(8)
H9 H 0.5100 1.1729 0.8025
C13 C 0.41776(11) 1.06486(12) 0.69971(8)
H10 H 0.4623 1.1003 0.6592
C14 C 0.32418(11) 0.97087(13) 0.67340(7)
H11 H 0.3040 0.9425 0.6149
C15 C 0.25978(11) 0.91813(12) 0.73315(7)
H12 H 0.1954 0.8539 0.7152
C16 C 0.10080(9) 0.91777(10) 0.88103(6)
C17 C 0.00948(9) 1.00853(11) 0.82937(6)
C18 C 0.01800(10) 1.10954(11) 0.76820(7)
H13 H 0.0943 1.1278 0.7520
C19 C -0.08700(11) 1.18319(12) 0.73129(7)
H14 H -0.0821 1.2520 0.6895
C20 C -0.19935(10) 1.15689(12) 0.75504(7)
H15 H -0.2701 1.2072 0.7286
C21 C -0.20929(10) 1.05824(11) 0.81676(7)
H16 H -0.2858 1.0416 0.8330
C22 C -0.10469(9) 0.98394(11) 0.85444(6)
C23 C -0.08856(9) 0.87979(11) 0.92143(6)
C24 C 0.03478(9) 0.84296(10) 0.93798(6)
C25 C -0.18313(10) 0.82676(11) 0.96021(7)
loop_
_geom_bond_atom_site_label_1
_geom_bond_atom_site_label_2
_geom_bond_site_symmetry_1
_geom_bond_site_symmetry_2
N1 C1 1_555 1_555
N2 C25 1_555 1_555
C1 H1 1_555 1_555
H2 C1 1_555 1_555
C2 C1 1_555 1_555
H3 C2 1_555 1_555
H4 C2 1_555 1_555
C3 C2 1_555 1_555
C4 C3 1_555 1_555
H5 C4 1_555 1_555
C5 C4 1_555 1_555
H6 C5 1_555 1_555
C6 C5 1_555 1_555
H7 C6 1_555 1_555
C7 C6 1_555 1_555
C8 N1 1_555 1_555
C9 C7 1_555 1_555
C10 C9 1_555 1_555
C11 C10 1_555 1_555
H8 C11 1_555 1_555
C12 C11 1_555 1_555
H9 C12 1_555 1_555
C13 C12 1_555 1_555
H10 C13 1_555 1_555
C14 C13 1_555 1_555
H11 C14 1_555 1_555
C15 C10 1_555 1_555
H12 C15 1_555 1_555
C16 C9 1_555 1_555
C17 C16 1_555 1_555
C18 C17 1_555 1_555
H13 C18 1_555 1_555
C19 C18 1_555 1_555
H14 C19 1_555 1_555
C20 C19 1_555 1_555
H15 C20 1_555 1_555
C21 C20 1_555 1_555
H16 C21 1_555 1_555
C22 C17 1_555 1_555
C23 C22 1_555 1_555
C24 N1 1_555 1_555
C25 C23 1_555 1_555
C3 C8 1_555 1_555
C7 C8 1_555 1_555
C14 C15 1_555 1_555
C16 C24 1_555 1_555
C21 C22 1_555 1_555
C23 C24 1_555 1_555

#END
