
#######################################################################
#
#                 Cambridge Crystallographic Data Centre
#                                CCDC 
#
#######################################################################
#
# If this CIF has been generated from an entry in the Cambridge 
# Structural Database, then it will include bibliographic, chemical, 
# crystal, experimental, refinement or atomic coordinate data resulting 
# from the CCDC's data processing and validation procedures.
#
#######################################################################

data_OYETUJ
_chemical_compound_source        plant
_chemical_name_common            'viscoterpene A'
_chemical_formula_moiety         'C20 H24 O4'
_chemical_name_systematic        
6,7-dimethyl-7-(2-(2-oxo-2,5-dihydrofuran-3-yl)ethyl)-4,5,6,7,7a,9a-hexahydrocyclobuta[3,4]cycloocta[1,2-c]furan-1(3H)-one
_symmetry_cell_setting           monoclinic
_symmetry_space_group_name_H-M   'P 21'
_symmetry_Int_Tables_number      4
_space_group_name_Hall           'P 2yb'
loop_
_symmetry_equiv_pos_site_id
_symmetry_equiv_pos_as_xyz
1 x,y,z
2 -x,1/2+y,-z
_cell_length_a                   12.8848(3)
_cell_length_b                   7.1338(2)
_cell_length_c                   18.2700(4)
_cell_angle_alpha                90
_cell_angle_beta                 91.1430(10)
_cell_angle_gamma                90
_cell_volume                     1679
_exptl_crystal_colour            colorless
_exptl_crystal_description       block
_chemical_melting_point          '495.13-496.13 K'
_cell_formula_units_Z            4
_chemical_properties_physical    Efflorescent
loop_
_atom_site_label
_atom_site_type_symbol
_atom_site_fract_x
_atom_site_fract_y
_atom_site_fract_z
O1 O 0.37287(8) 0.2935(3) 0.95589(7)
O2 O 0.28641(9) 0.2489(2) 1.05966(7)
O3 O -0.13735(10) -0.2401(2) 0.58616(7)
O4 O 0.01582(10) -0.24755(19) 0.53001(7)
C1 C -0.05306(12) 0.0383(2) 0.79091(9)
H1 H -0.0585 0.0195 0.8422
C2 C -0.11353(12) -0.0097(2) 0.73428(9)
H2 H -0.1756 -0.0812 0.7303
C3 C -0.04798(10) 0.0909(2) 0.67814(8)
H3 H -0.0829 0.2073 0.6596
C4 C -0.00046(11) -0.0175(2) 0.61751(8)
C5 C 0.09336(12) 0.0074(2) 0.58930(8)
C6 C 0.17521(12) 0.1502(3) 0.60515(9)
H4 H 0.2155 0.1675 0.5601
H5 H 0.2232 0.0974 0.6428
C7 C 0.14099(11) 0.3467(2) 0.63167(8)
H6 H 0.0668 0.3629 0.6181
H7 H 0.1804 0.4416 0.6041
C8 C 0.15437(11) 0.3914(2) 0.71448(8)
H8 H 0.2155 0.3175 0.7328
C9 C 0.06080(10) 0.3359(2) 0.76313(8)
C10 C 0.02772(10) 0.13377(19) 0.74460(7)
H9 H 0.0906 0.0523 0.7416
C11 C 0.09133(10) 0.3412(2) 0.84549(8)
H10 H 0.1165 0.4689 0.8574
H11 H 0.0279 0.3195 0.8740
C12 C 0.17442(13) 0.1999(3) 0.87139(9)
H12 H 0.1527 0.0721 0.8566
H13 H 0.2406 0.2283 0.8470
C13 C 0.19170(12) 0.2046(2) 0.95222(9)
C14 C 0.12797(11) 0.1694(3) 1.00704(8)
H14 H 0.0575 0.1323 1.0013
C15 C 0.18263(13) 0.1966(3) 1.07805(9)
H15 H 0.1492 0.2967 1.1067
H16 H 0.1827 0.0793 1.1070
C16 C 0.29306(12) 0.2527(3) 0.98543(9)
C17 C 0.18286(13) 0.5995(2) 0.72363(10)
H17 H 0.2483 0.6247 0.6990
H18 H 0.1908 0.6290 0.7758
H19 H 0.1277 0.6773 0.7019
C18 C -0.05127(13) -0.1748(2) 0.57934(8)
C19 C 0.10906(13) -0.1378(2) 0.53148(9)
H20 H 0.1200 -0.0781 0.4833
H21 H 0.1700 -0.2171 0.5438
C20 C -0.03100(11) 0.4714(2) 0.75234(9)
H22 H -0.0439 0.4917 0.6999
H23 H -0.0146 0.5913 0.7760
H24 H -0.0931 0.4175 0.7743
O5 O 0.63604(10) 0.25576(19) 0.40777(7)
O6 O 0.48637(9) 0.25484(19) 0.46830(6)
O7 O 0.12332(8) 0.6526(3) 0.03838(6)
O8 O 0.21461(9) 0.70349(18) -0.06258(6)
C21 C 0.54168(12) 0.5386(2) 0.20456(8)
H25 H 0.5429 0.5203 0.1531
C22 C 0.60498(11) 0.4847(2) 0.25900(9)
H26 H 0.6654 0.4084 0.2607
C23 C 0.54583(10) 0.5889(2) 0.31764(8)
H27 H 0.5848 0.7021 0.3352
C24 C 0.50025(11) 0.4833(2) 0.37997(8)
C25 C 0.40891(11) 0.5129(2) 0.41126(8)
C26 C 0.32819(12) 0.6600(3) 0.39846(9)
H28 H 0.2913 0.6786 0.4449
H29 H 0.2769 0.6100 0.3624
C27 C 0.36302(11) 0.8549(2) 0.37116(8)
H30 H 0.4380 0.8686 0.3829
H31 H 0.3260 0.9510 0.3997
C28 C 0.34625(11) 0.9009(2) 0.28863(8)
H32 H 0.2843 0.8275 0.2714
C29 C 0.43764(10) 0.8455(2) 0.23815(8)
C30 C 0.46689(10) 0.6397(2) 0.25402(7)
H33 H 0.4023 0.5634 0.2590
C31 C 0.40657(10) 0.8613(2) 0.15605(8)
H34 H 0.3868 0.9931 0.1459
H35 H 0.4687 0.8336 0.1269
C32 C 0.31786(12) 0.7348(2) 0.12851(8)
H36 H 0.3319 0.6042 0.1442
H37 H 0.2523 0.7752 0.1511
C33 C 0.30501(11) 0.7403(2) 0.04721(9)
C34 C 0.37133(11) 0.7774(3) -0.00574(8)
H38 H 0.4415 0.8146 0.0019
C35 C 0.31976(12) 0.7523(3) -0.07841(9)
H39 H 0.3224 0.8696 -0.1072
H40 H 0.3536 0.6510 -0.1063
C36 C 0.20457(12) 0.6948(3) 0.01121(8)
C37 C 0.31780(13) 1.1082(2) 0.28082(9)
H41 H 0.2540 1.1335 0.3074
H42 H 0.3069 1.1386 0.2289
H43 H 0.3743 1.1854 0.3012
C38 C 0.55121(13) 0.3244(2) 0.41687(8)
C39 C 0.39449(12) 0.3679(2) 0.46945(9)
H44 H 0.3868 0.4278 0.5179
H45 H 0.3321 0.2910 0.4587
C40 C 0.53193(11) 0.9743(2) 0.24976(9)
H46 H 0.5463 0.9890 0.3023
H47 H 0.5172 1.0972 0.2279
H48 H 0.5925 0.9188 0.2264
loop_
_geom_bond_atom_site_label_1
_geom_bond_atom_site_label_2
_geom_bond_site_symmetry_1
_geom_bond_site_symmetry_2
O1 C16 1_555 1_555
O2 C15 1_555 1_555
O3 C18 1_555 1_555
O4 C18 1_555 1_555
C1 H1 1_555 1_555
C2 C1 1_555 1_555
H2 C2 1_555 1_555
C3 C2 1_555 1_555
H3 C3 1_555 1_555
C4 C3 1_555 1_555
C5 C4 1_555 1_555
C6 C5 1_555 1_555
H4 C6 1_555 1_555
H5 C6 1_555 1_555
C7 C6 1_555 1_555
H6 C7 1_555 1_555
H7 C7 1_555 1_555
C8 C7 1_555 1_555
H8 C8 1_555 1_555
C9 C8 1_555 1_555
C10 C1 1_555 1_555
H9 C10 1_555 1_555
C11 C9 1_555 1_555
H10 C11 1_555 1_555
H11 C11 1_555 1_555
C12 C11 1_555 1_555
H12 C12 1_555 1_555
H13 C12 1_555 1_555
C13 C12 1_555 1_555
C14 C13 1_555 1_555
H14 C14 1_555 1_555
C15 C14 1_555 1_555
H15 C15 1_555 1_555
H16 C15 1_555 1_555
C16 O2 1_555 1_555
C17 C8 1_555 1_555
H17 C17 1_555 1_555
H18 C17 1_555 1_555
H19 C17 1_555 1_555
C18 C4 1_555 1_555
C19 O4 1_555 1_555
H20 C19 1_555 1_555
H21 C19 1_555 1_555
C20 C9 1_555 1_555
H22 C20 1_555 1_555
H23 C20 1_555 1_555
H24 C20 1_555 1_555
O5 C38 1_555 1_555
O6 C38 1_555 1_555
O7 C36 1_555 1_555
O8 C35 1_555 1_555
C21 H25 1_555 1_555
C22 C21 1_555 1_555
H26 C22 1_555 1_555
C23 C22 1_555 1_555
H27 C23 1_555 1_555
C24 C23 1_555 1_555
C25 C24 1_555 1_555
C26 C25 1_555 1_555
H28 C26 1_555 1_555
H29 C26 1_555 1_555
C27 C26 1_555 1_555
H30 C27 1_555 1_555
H31 C27 1_555 1_555
C28 C27 1_555 1_555
H32 C28 1_555 1_555
C29 C28 1_555 1_555
C30 C21 1_555 1_555
H33 C30 1_555 1_555
C31 C29 1_555 1_555
H34 C31 1_555 1_555
H35 C31 1_555 1_555
C32 C31 1_555 1_555
H36 C32 1_555 1_555
H37 C32 1_555 1_555
C33 C32 1_555 1_555
C34 C33 1_555 1_555
H38 C34 1_555 1_555
C35 C34 1_555 1_555
H39 C35 1_555 1_555
H40 C35 1_555 1_555
C36 O8 1_555 1_555
C37 C28 1_555 1_555
H41 C37 1_555 1_555
H42 C37 1_555 1_555
H43 C37 1_555 1_555
C38 C24 1_555 1_555
C39 O6 1_555 1_555
H44 C39 1_555 1_555
H45 C39 1_555 1_555
C40 C29 1_555 1_555
H46 C40 1_555 1_555
H47 C40 1_555 1_555
H48 C40 1_555 1_555
C3 C10 1_555 1_555
C5 C19 1_555 1_555
C9 C10 1_555 1_555
C13 C16 1_555 1_555
C23 C30 1_555 1_555
C25 C39 1_555 1_555
C29 C30 1_555 1_555
C33 C36 1_555 1_555

#END
