
#######################################################################
#
#                 Cambridge Crystallographic Data Centre
#                                CCDC 
#
#######################################################################
#
# If this CIF has been generated from an entry in the Cambridge 
# Structural Database, then it will include bibliographic, chemical, 
# crystal, experimental, refinement or atomic coordinate data resulting 
# from the CCDC's data processing and validation procedures.
#
#######################################################################

data_OYEYEY
_chemical_formula_moiety         '0.55(C4 H4 Br2 N2),0.45(C3 H1 Br2 Cl1 N2)'
_chemical_name_systematic        
'4,5-dibromo-2-methyl-1H-imidazole 2,4-dibromo-5-chloro-1H-imidazole'
_symmetry_cell_setting           orthorhombic
_symmetry_space_group_name_H-M   'A m a 2'
_symmetry_Int_Tables_number      40
_space_group_name_Hall           'A 2 -2a'
loop_
_symmetry_equiv_pos_site_id
_symmetry_equiv_pos_as_xyz
1 x,y,z
2 -x,-y,z
3 1/2+x,-y,z
4 1/2-x,y,z
5 x,1/2+y,1/2+z
6 -x,1/2-y,1/2+z
7 1/2+x,1/2-y,1/2+z
8 1/2-x,1/2+y,1/2+z
_cell_length_a                   10.0275(5)
_cell_length_b                   16.4911(8)
_cell_length_c                   3.9218(2)
_cell_angle_alpha                90
_cell_angle_beta                 90
_cell_angle_gamma                90
_cell_volume                     648.527
_exptl_crystal_colour            colorless
_exptl_crystal_description       Needle
_cell_formula_units_Z            4
loop_
_atom_site_label
_atom_site_type_symbol
_atom_site_fract_x
_atom_site_fract_y
_atom_site_fract_z
Br1 Br 0.5701(3) 0.6736(2) 0.0052(4)
C1 C 0.7500 0.3964(5) 0.535(5)
C2 C 0.7500 0.48062(17) 0.3771(8)
N1 N 0.63916(16) 0.52212(11) 0.2999(5)
C3 C 0.68227(19) 0.59428(12) 0.1635(6)
Br1C Br 0.9299(3) 0.6736(2) 0.0052(4)
N1C N 0.86084(16) 0.52212(11) 0.2999(5)
C3C C 0.81773(19) 0.59428(12) 0.1635(6)
Cl1? Cl 0.5698(19) 0.6712(12) 0.015(3)
Br2? Br 0.7500 0.37904(4) 0.5473(3)
H1? H 0.5561 0.5064 0.3302
H2? H 0.6913 0.3958 0.7344
H3? H 0.8409 0.3821 0.6045
H4? H 0.7179 0.3569 0.3669
loop_
_geom_bond_atom_site_label_1
_geom_bond_atom_site_label_2
_geom_bond_site_symmetry_1
_geom_bond_site_symmetry_2
Br1 C3 1_555 1_555
C1 C2 1_555 1_555
C2 N1 1_555 1_555
N1 C3 1_555 1_555
C3 C3C 1_555 1_555
Br1C C3C 1_555 1_555
N1C C2 1_555 1_555
C3C N1C 1_555 1_555

#END
