
#######################################################################
#
#                 Cambridge Crystallographic Data Centre
#                                CCDC 
#
#######################################################################
#
# If this CIF has been generated from an entry in the Cambridge 
# Structural Database, then it will include bibliographic, chemical, 
# crystal, experimental, refinement or atomic coordinate data resulting 
# from the CCDC's data processing and validation procedures.
#
#######################################################################

data_OYICUV
_chemical_formula_moiety         'C9 H7 Cl1 N2 O6,C6 H7 B1 N2'
_chemical_name_systematic        
'Ethyl 4-chloro-3,5-dinitrobenzoate 1H-[1,3,2]diazaborolo[1,2-a][1,2]azaborinine'
_symmetry_cell_setting           triclinic
_symmetry_space_group_name_H-M   'P -1'
_symmetry_Int_Tables_number      2
_space_group_name_Hall           '-P 1'
loop_
_symmetry_equiv_pos_site_id
_symmetry_equiv_pos_as_xyz
1 x,y,z
2 -x,-y,-z
_cell_length_a                   6.6731(19)
_cell_length_b                   11.562(3)
_cell_length_c                   11.907(3)
_cell_angle_alpha                77.830(4)
_cell_angle_beta                 76.546(4)
_cell_angle_gamma                80.917(4)
_cell_volume                     867.647
_exptl_crystal_colour            yellow/orange
_exptl_crystal_description       block
_cell_formula_units_Z            2
loop_
_atom_site_label
_atom_site_type_symbol
_atom_site_fract_x
_atom_site_fract_y
_atom_site_fract_z
Cl1 Cl 0.18082(12) 0.84477(7) 1.01042(7)
O1 O 0.3249(5) 0.5980(3) 1.0208(3)
O2 O 0.2483(5) 0.5114(3) 0.8946(3)
O3 O 0.4974(4) 0.6647(2) 0.4875(2)
O4 O 0.4579(4) 0.8633(2) 0.4230(2)
O5 O 0.0906(4) 1.1018(2) 0.7491(3)
O6 O 0.3324(5) 1.0720(3) 0.8492(3)
N3 N 0.2934(5) 0.5986(3) 0.9240(3)
N4 N 0.2289(5) 1.0390(3) 0.7922(3)
C7 C 0.2657(6) 0.8203(4) 0.8648(3)
C8 C 0.3113(6) 0.7074(3) 0.8344(3)
C9 C 0.3697(5) 0.6908(3) 0.7184(3)
C10 C 0.3821(5) 0.7887(3) 0.6281(3)
C11 C 0.3316(5) 0.9026(4) 0.6541(3)
C12 C 0.2777(6) 0.9159(3) 0.7703(3)
C13 C 0.4481(6) 0.7777(3) 0.5022(3)
C14 C 0.5791(7) 0.6467(4) 0.3665(4)
C15 C 0.4080(8) 0.6529(5) 0.3029(4)
H8 H 0.407(7) 0.605(4) 0.700(4)
H9 H 0.337(7) 0.971(4) 0.586(4)
H10 H 0.679(9) 0.710(5) 0.321(5)
H11 H 0.656(6) 0.563(4) 0.369(4)
H12 H 0.297(9) 0.599(5) 0.350(5)
H13 H 0.475(8) 0.633(5) 0.221(5)
H14 H 0.312(8) 0.741(5) 0.302(4)
N1 N 0.1702(5) 0.1769(3) 0.2778(3)
N2 N 0.2096(6) 0.3025(5) 0.1034(4)
H1 H 0.2114 0.3666 0.0481
B1 B 0.1538(7) 0.2998(5) 0.2258(4)
C1 C 0.0868(7) 0.3891(5) 0.3046(6)
H2 H 0.0717 0.4723 0.2748
C2 C 0.0484(8) 0.3446(8) 0.4221(7)
H3 H 0.0068 0.3986 0.4756
C3 C 0.0682(8) 0.2225(9) 0.4666(5)
H4 H 0.0385 0.1967 0.5493
C4 C 0.1278(7) 0.1392(6) 0.3968(5)
H5 H 0.1399 0.0567 0.4297
C5 C 0.2364(7) 0.1094(5) 0.1882(6)
H6 H 0.2596 0.0250 0.1978
C6 C 0.2605(7) 0.1867(7) 0.0866(5)
H7 H 0.3073 0.1642 0.0118
loop_
_geom_bond_atom_site_label_1
_geom_bond_atom_site_label_2
_geom_bond_site_symmetry_1
_geom_bond_site_symmetry_2
Cl1 C7 1_555 1_555
O1 N3 1_555 1_555
O2 N3 1_555 1_555
O3 C13 1_555 1_555
O4 C13 1_555 1_555
O5 N4 1_555 1_555
O6 N4 1_555 1_555
N1 B1 1_555 1_555
N2 H1 1_555 1_555
N3 C8 1_555 1_555
N4 C12 1_555 1_555
B1 N2 1_555 1_555
C1 B1 1_555 1_555
H2 C1 1_555 1_555
C2 C1 1_555 1_555
H3 C2 1_555 1_555
C3 C2 1_555 1_555
H4 C3 1_555 1_555
C4 N1 1_555 1_555
H5 C4 1_555 1_555
C5 N1 1_555 1_555
H6 C5 1_555 1_555
C6 N2 1_555 1_555
H7 C6 1_555 1_555
C7 C8 1_555 1_555
C8 C9 1_555 1_555
C9 C10 1_555 1_555
C10 C11 1_555 1_555
C11 C12 1_555 1_555
C12 C7 1_555 1_555
C13 C10 1_555 1_555
C14 O3 1_555 1_555
C15 C14 1_555 1_555
H8 C9 1_555 1_555
H9 C11 1_555 1_555
H10 C14 1_555 1_555
H11 C14 1_555 1_555
H12 C15 1_555 1_555
H13 C15 1_555 1_555
H14 C15 1_555 1_555
C3 C4 1_555 1_555
C5 C6 1_555 1_555

#END
