
#######################################################################
#
#                 Cambridge Crystallographic Data Centre
#                                CCDC 
#
#######################################################################
#
# If this CIF has been generated from an entry in the Cambridge 
# Structural Database, then it will include bibliographic, chemical, 
# crystal, experimental, refinement or atomic coordinate data resulting 
# from the CCDC's data processing and validation procedures.
#
#######################################################################

data_OYIGEK02
_chemical_formula_moiety         'C3 N8 O1 2-,2(C1 H6 N3 1+),H2 O1'
_chemical_name_systematic        
"bis(guanidinium)  5,5'-carbonylbis(tetrazol-2-ide) monohydrate"
_symmetry_cell_setting           orthorhombic
_symmetry_space_group_name_H-M   'P b c n'
_symmetry_Int_Tables_number      60
_space_group_name_Hall           '-P 2n 2ab'
loop_
_symmetry_equiv_pos_site_id
_symmetry_equiv_pos_as_xyz
1 x,y,z
2 1/2-x,1/2-y,1/2+z
3 -x,y,1/2-z
4 1/2+x,1/2-y,-z
5 -x,-y,-z
6 1/2+x,1/2+y,1/2-z
7 x,-y,1/2+z
8 1/2-x,1/2+y,z
_cell_length_a                   3.6071(14)
_cell_length_b                   19.316(8)
_cell_length_c                   18.825(8)
_cell_angle_alpha                90
_cell_angle_beta                 90
_cell_angle_gamma                90
_cell_volume                     1311.63
_exptl_crystal_colour            colorless
_exptl_crystal_description       Prism
_cell_formula_units_Z            4
loop_
_atom_site_label
_atom_site_type_symbol
_atom_site_fract_x
_atom_site_fract_y
_atom_site_fract_z
O1 O 0.5000 0.25040(7) 0.2500
H1 H 0.657(4) 0.2241(7) 0.2296(10)
H1B H 0.343(4) 0.2241(7) 0.2704(10)
N1 N 0.9495(3) 0.14870(6) 0.17290(6)
O2 O 1.0000 -0.02005(8) 0.2500
N2 N 1.1885(4) 0.05400(6) 0.12427(6)
C1 C 1.0476(4) 0.08270(7) 0.18345(7)
N3 N 1.1780(4) 0.10452(7) 0.07606(6)
N4 N 1.0322(4) 0.16106(6) 0.10493(6)
C2 C 1.0000 0.04333(10) 0.2500
N1B N 1.0505(3) 0.14870(6) 0.32710(6)
N2B N 0.8115(4) 0.05400(6) 0.37573(6)
C1B C 0.9524(4) 0.08270(7) 0.31655(7)
N3B N 0.8220(4) 0.10452(7) 0.42394(6)
N4B N 0.9678(4) 0.16106(6) 0.39507(6)
N5 N 0.2162(4) 0.36024(7) 0.16087(7)
C3 C 0.0693(4) 0.36436(7) 0.09629(7)
N6 N -0.0177(4) 0.30698(7) 0.06027(7)
N7 N 0.0043(4) 0.42543(7) 0.06707(7)
H2 H 0.282(6) 0.3983(11) 0.1800(10)
H3 H 0.289(6) 0.3221(11) 0.1792(10)
H4 H -0.002(6) 0.2649(11) 0.0779(12)
H5 H -0.115(6) 0.3119(11) 0.0185(12)
H6 H 0.094(6) 0.4620(11) 0.0887(12)
H7 H -0.086(6) 0.4271(10) 0.0242(12)
loop_
_geom_bond_atom_site_label_1
_geom_bond_atom_site_label_2
_geom_bond_site_symmetry_1
_geom_bond_site_symmetry_2
O1 H1 1_555 1_555
N1 C1 1_555 1_555
O2 C2 1_555 1_555
N2 C1 1_555 1_555
C1 C2 1_555 1_555
N3 N2 1_555 1_555
N4 N1 1_555 1_555
C2 C1B 1_555 1_555
N5 C3 1_555 1_555
C3 N6 1_555 1_555
N6 H4 1_555 1_555
N7 C3 1_555 1_555
H2 N5 1_555 1_555
H3 N5 1_555 1_555
H5 N6 1_555 1_555
H6 N7 1_555 1_555
H7 N7 1_555 1_555
H1B O1 1_555 1_555
N1B C1B 1_555 1_555
N2B C1B 1_555 1_555
N3B N2B 1_555 1_555
N4B N1B 1_555 1_555
N3 N4 1_555 1_555
N3B N4B 1_555 1_555

#END
