
#######################################################################
#
#                 Cambridge Crystallographic Data Centre
#                                CCDC 
#
#######################################################################
#
# If this CIF has been generated from an entry in the Cambridge 
# Structural Database, then it will include bibliographic, chemical, 
# crystal, experimental, refinement or atomic coordinate data resulting 
# from the CCDC's data processing and validation procedures.
#
#######################################################################

data_OYIQIY
_chemical_formula_moiety         'C32 H29 N1 O6 S1'
_chemical_name_systematic        
N-benzyl-N-(6-(4-methoxyphenyl)-7-methyl-6H-[1,3]dioxolo[4,5-g]chromen-8-yl)-4-methylbenzenesulfonamide
_symmetry_cell_setting           monoclinic
_symmetry_space_group_name_H-M   'P 21/c'
_symmetry_Int_Tables_number      14
_space_group_name_Hall           '-P 2ybc'
loop_
_symmetry_equiv_pos_site_id
_symmetry_equiv_pos_as_xyz
1 x,y,z
2 -x,1/2+y,1/2-z
3 -x,-y,-z
4 x,1/2-y,1/2+z
_cell_length_a                   11.544(2)
_cell_length_b                   14.011(3)
_cell_length_c                   17.128(3)
_cell_angle_alpha                90
_cell_angle_beta                 99.02(3)
_cell_angle_gamma                90
_cell_volume                     2736.07
_exptl_crystal_colour            colorless
_exptl_crystal_description       block
_cell_formula_units_Z            4
loop_
_atom_site_label
_atom_site_type_symbol
_atom_site_fract_x
_atom_site_fract_y
_atom_site_fract_z
S1 S 1.11710(4) 0.18456(4) 0.10989(3)
O1 O 0.58135(15) 0.02769(14) -0.10273(11)
O2 O 0.73818(15) 0.09098(14) -0.15457(10)
O3 O 0.70233(14) 0.17101(10) 0.15298(9)
O4 O 1.05972(16) 0.10252(13) 0.13601(10)
O5 O 1.21052(16) 0.22870(16) 0.16231(11)
O6 O 0.40512(15) 0.55119(14) 0.09372(14)
N1 N 1.01346(14) 0.26275(12) 0.08127(11)
C1 C 0.6461(2) 0.02274(19) -0.16774(15)
H1 H 0.6783 -0.0408 -0.1713
H2 H 0.5949 0.0365 -0.2169
C2 C 0.74499(19) 0.11722(15) -0.07590(13)
C3 C 0.82769(18) 0.17351(15) -0.03216(13)
H3 H 0.8909 0.1978 -0.0534
C4 C 0.81332(17) 0.19331(14) 0.04650(13)
C5 C 0.71523(18) 0.15607(14) 0.07501(13)
C6 C 0.63146(19) 0.09890(15) 0.02976(14)
H4 H 0.5666 0.0750 0.0494
C7 C 0.65103(18) 0.08033(15) -0.04566(14)
C8 C 0.89800(17) 0.24715(14) 0.10210(13)
C9 C 0.86978(18) 0.28050(15) 0.17011(13)
C10 C 0.74522(18) 0.26245(15) 0.18438(13)
H5 H 0.7483 0.2589 0.2418
C11 C 0.65762(18) 0.34045(16) 0.15517(13)
C12 C 0.69014(19) 0.42888(17) 0.12957(15)
H6 H 0.7687 0.4400 0.1263
C13 C 0.6094(2) 0.50126(19) 0.10866(16)
H7 H 0.6340 0.5603 0.0925
C14 C 0.49219(19) 0.48532(18) 0.11192(15)
C15 C 0.45675(19) 0.39631(18) 0.13627(15)
H8 H 0.3778 0.3848 0.1379
C16 C 0.53836(19) 0.32553(16) 0.15781(14)
H9 H 0.5138 0.2668 0.1744
C17 C 0.4381(3) 0.6462(2) 0.0776(2)
H10 H 0.3692 0.6851 0.0657
H11 H 0.4795 0.6460 0.0331
H12 H 0.4880 0.6715 0.1229
C18 C 1.04492(19) 0.35993(15) 0.05748(14)
H13 H 1.1289 0.3686 0.0717
H14 H 1.0066 0.4065 0.0867
C19 C 1.01062(19) 0.37834(14) -0.02960(13)
C20 C 1.0915(2) 0.37151(18) -0.08116(16)
H15 H 1.1691 0.3567 -0.0614
C21 C 1.0591(3) 0.3863(2) -0.16136(17)
H16 H 1.1150 0.3821 -0.1949
C22 C 0.9444(3) 0.40713(18) -0.19182(16)
H17 H 0.9223 0.4160 -0.2459
C23 C 0.8625(2) 0.41477(18) -0.14173(16)
H18 H 0.7850 0.4291 -0.1621
C24 C 0.8953(2) 0.40110(16) -0.06072(15)
H19 H 0.8397 0.4072 -0.0272
C25 C 1.17427(17) 0.15471(15) 0.02342(13)
C26 C 1.10883(19) 0.09650(16) -0.03312(14)
H20 H 1.0371 0.0720 -0.0244
C27 C 1.1512(2) 0.07556(17) -0.10199(15)
H21 H 1.1072 0.0370 -0.1397
C28 C 1.2586(2) 0.11099(17) -0.11612(15)
C29 C 1.3242(2) 0.16504(19) -0.05741(16)
H22 H 1.3980 0.1865 -0.0647
C30 C 1.28293(19) 0.18806(17) 0.01193(16)
H23 H 1.3277 0.2254 0.0502
C31 C 1.3018(3) 0.0890(3) -0.19230(17)
H24 H 1.3716 0.1252 -0.1953
H25 H 1.2424 0.1056 -0.2359
H26 H 1.3190 0.0221 -0.1945
C32 C 0.9497(2) 0.33308(18) 0.23286(14)
H27 H 0.9080 0.3491 0.2754
H28 H 0.9767 0.3905 0.2109
H29 H 1.0157 0.2934 0.2525
loop_
_geom_bond_atom_site_label_1
_geom_bond_atom_site_label_2
_geom_bond_site_symmetry_1
_geom_bond_site_symmetry_2
S1 O4 1_555 1_555
O1 C1 1_555 1_555
O2 C1 1_555 1_555
O3 C5 1_555 1_555
O5 S1 1_555 1_555
O6 C14 1_555 1_555
N1 S1 1_555 1_555
C1 H1 1_555 1_555
H2 C1 1_555 1_555
C2 O2 1_555 1_555
C3 C2 1_555 1_555
H3 C3 1_555 1_555
C4 C3 1_555 1_555
C5 C4 1_555 1_555
C6 C5 1_555 1_555
H4 C6 1_555 1_555
C7 O1 1_555 1_555
C8 N1 1_555 1_555
C9 C8 1_555 1_555
C10 O3 1_555 1_555
H5 C10 1_555 1_555
C11 C10 1_555 1_555
C12 C11 1_555 1_555
H6 C12 1_555 1_555
C13 C12 1_555 1_555
H7 C13 1_555 1_555
C14 C13 1_555 1_555
C15 C14 1_555 1_555
H8 C15 1_555 1_555
C16 C11 1_555 1_555
H9 C16 1_555 1_555
C17 O6 1_555 1_555
H10 C17 1_555 1_555
H11 C17 1_555 1_555
H12 C17 1_555 1_555
C18 N1 1_555 1_555
H13 C18 1_555 1_555
H14 C18 1_555 1_555
C19 C18 1_555 1_555
C20 C19 1_555 1_555
H15 C20 1_555 1_555
C21 C20 1_555 1_555
H16 C21 1_555 1_555
C22 C21 1_555 1_555
H17 C22 1_555 1_555
C23 C22 1_555 1_555
H18 C23 1_555 1_555
C24 C19 1_555 1_555
H19 C24 1_555 1_555
C25 S1 1_555 1_555
C26 C25 1_555 1_555
H20 C26 1_555 1_555
C27 C26 1_555 1_555
H21 C27 1_555 1_555
C28 C27 1_555 1_555
C29 C28 1_555 1_555
H22 C29 1_555 1_555
C30 C25 1_555 1_555
H23 C30 1_555 1_555
C31 C28 1_555 1_555
H24 C31 1_555 1_555
H25 C31 1_555 1_555
H26 C31 1_555 1_555
C32 C9 1_555 1_555
H27 C32 1_555 1_555
H28 C32 1_555 1_555
H29 C32 1_555 1_555
C2 C7 1_555 1_555
C4 C8 1_555 1_555
C6 C7 1_555 1_555
C9 C10 1_555 1_555
C15 C16 1_555 1_555
C23 C24 1_555 1_555
C29 C30 1_555 1_555

#END
