
#######################################################################
#
#                 Cambridge Crystallographic Data Centre
#                                CCDC 
#
#######################################################################
#
# If this CIF has been generated from an entry in the Cambridge 
# Structural Database, then it will include bibliographic, chemical, 
# crystal, experimental, refinement or atomic coordinate data resulting 
# from the CCDC's data processing and validation procedures.
#
#######################################################################

data_OYIRAR
_chemical_formula_moiety         'C31 H25 N1 O7 S1'
_chemical_name_systematic        
N-benzyl-N-(6-(4-methoxybenzoyl)furo[2,3-f][1,3]benzodioxol-7-yl)-4-methylbenzenesulfonamide
_symmetry_cell_setting           triclinic
_symmetry_space_group_name_H-M   'P -1'
_symmetry_Int_Tables_number      2
_space_group_name_Hall           '-P 1'
loop_
_symmetry_equiv_pos_site_id
_symmetry_equiv_pos_as_xyz
1 x,y,z
2 -x,-y,-z
_cell_length_a                   10.0018(6)
_cell_length_b                   11.5034(6)
_cell_length_c                   12.0989(6)
_cell_angle_alpha                88.001(2)
_cell_angle_beta                 75.075(2)
_cell_angle_gamma                78.255(2)
_cell_volume                     1316.69
_exptl_crystal_colour            colorless
_exptl_crystal_description       block
_cell_formula_units_Z            2
loop_
_atom_site_label
_atom_site_type_symbol
_atom_site_fract_x
_atom_site_fract_y
_atom_site_fract_z
S1 S 0.34380(6) 0.23498(5) 0.79782(5)
O1 O 0.4605(2) 0.13730(19) 0.78519(18)
O2 O 0.3655(2) 0.35351(16) 0.79572(16)
O3 O 0.35602(18) 0.64638(16) 0.46479(17)
O4 O 0.12966(18) 0.75200(15) 0.48542(16)
O5 O -0.05899(15) 0.43133(13) 0.70314(13)
O6 O -0.0264(2) 0.13159(15) 0.76694(17)
O7 O -0.5565(2) 0.36423(17) 1.14827(15)
N1 N 0.27059(19) 0.22174(15) 0.69289(15)
C1 C -0.1256(4) 0.1883(4) 1.2149(3)
H1 H -0.1860 0.1454 1.1903
H2 H -0.1776 0.2662 1.2415
H3 H -0.0922 0.1467 1.2758
C2 C -0.0024(3) 0.1987(3) 1.1167(2)
C3 C 0.0267(3) 0.3095(3) 1.0818(2)
H4 H -0.0267 0.3771 1.1236
C4 C 0.1334(3) 0.3206(2) 0.9863(2)
H5 H 0.1499 0.3954 0.9628
C5 C 0.2160(3) 0.2204(2) 0.9255(2)
C6 C 0.1932(3) 0.1090(2) 0.9615(2)
H6 H 0.2504 0.0412 0.9223
C7 C 0.0850(4) 0.0997(3) 1.0559(2)
H7 H 0.0700 0.0247 1.0797
C8 C 0.2852(3) 0.10223(19) 0.6429(2)
H8 H 0.2061 0.0672 0.6830
H9 H 0.3712 0.0512 0.6525
C9 C 0.2894(2) 0.11006(18) 0.51789(19)
C10 C 0.3963(3) 0.1522(2) 0.4410(2)
H10 H 0.4641 0.1797 0.4673
C11 C 0.4032(4) 0.1537(3) 0.3252(3)
H11 H 0.4760 0.1814 0.2738
C12 C 0.3029(5) 0.1144(3) 0.2865(3)
H12 H 0.3071 0.1161 0.2087
C13 C 0.1977(4) 0.0732(3) 0.3606(3)
H13 H 0.1303 0.0460 0.3336
C14 C 0.1896(3) 0.0711(2) 0.4768(2)
H14 H 0.1164 0.0433 0.5273
C15 C 0.1567(2) 0.31547(17) 0.68405(17)
C16 C 0.0154(2) 0.32250(18) 0.72732(17)
C17 C 0.0392(2) 0.49290(18) 0.64278(17)
C18 C 0.1746(2) 0.42580(17) 0.62971(17)
C19 C 0.2934(2) 0.47063(19) 0.56930(19)
H15 H 0.3855 0.4286 0.5600
C20 C 0.2621(2) 0.5803(2) 0.52585(19)
C21 C 0.1244(2) 0.64514(19) 0.53880(19)
C22 C 0.0073(2) 0.60586(19) 0.59832(19)
H16 H -0.0842 0.6496 0.6083
C23 C 0.2740(3) 0.7476(3) 0.4293(3)
H17 H 0.2875 0.7442 0.3470
H18 H 0.3027 0.8185 0.4482
C24 C -0.0692(2) 0.23733(19) 0.78931(19)
C25 C -0.2010(2) 0.28014(19) 0.87772(18)
C26 C -0.3004(3) 0.2078(2) 0.9082(2)
H19 H -0.2864 0.1373 0.8675
C27 C -0.4181(3) 0.2388(2) 0.9968(2)
H20 H -0.4848 0.1907 1.0146
C28 C -0.4383(2) 0.3427(2) 1.06048(19)
C29 C -0.3417(3) 0.4160(2) 1.0317(2)
H21 H -0.3546 0.4855 1.0736
C30 C -0.2257(3) 0.3850(2) 0.9398(2)
H22 H -0.1623 0.4357 0.9190
C31 C -0.5683(3) 0.4548(3) 1.2308(2)
H23 H -0.4874 0.4381 1.2619
H24 H -0.6525 0.4565 1.2912
H25 H -0.5729 0.5305 1.1944
loop_
_geom_bond_atom_site_label_1
_geom_bond_atom_site_label_2
_geom_bond_site_symmetry_1
_geom_bond_site_symmetry_2
S1 O1 1_555 1_555
O2 S1 1_555 1_555
O3 C20 1_555 1_555
O4 C21 1_555 1_555
O5 C16 1_555 1_555
O6 C24 1_555 1_555
O7 C28 1_555 1_555
N1 S1 1_555 1_555
C1 H1 1_555 1_555
H2 C1 1_555 1_555
H3 C1 1_555 1_555
C2 C1 1_555 1_555
C3 C2 1_555 1_555
H4 C3 1_555 1_555
C4 C3 1_555 1_555
H5 C4 1_555 1_555
C5 S1 1_555 1_555
C6 C5 1_555 1_555
H6 C6 1_555 1_555
C7 C2 1_555 1_555
H7 C7 1_555 1_555
C8 N1 1_555 1_555
H8 C8 1_555 1_555
H9 C8 1_555 1_555
C9 C8 1_555 1_555
C10 C9 1_555 1_555
H10 C10 1_555 1_555
C11 C10 1_555 1_555
H11 C11 1_555 1_555
C12 C11 1_555 1_555
H12 C12 1_555 1_555
C13 C12 1_555 1_555
H13 C13 1_555 1_555
C14 C9 1_555 1_555
H14 C14 1_555 1_555
C15 N1 1_555 1_555
C16 C15 1_555 1_555
C17 O5 1_555 1_555
C18 C15 1_555 1_555
C19 C18 1_555 1_555
H15 C19 1_555 1_555
C20 C19 1_555 1_555
C21 C20 1_555 1_555
C22 C17 1_555 1_555
H16 C22 1_555 1_555
C23 O3 1_555 1_555
H17 C23 1_555 1_555
H18 C23 1_555 1_555
C24 C16 1_555 1_555
C25 C24 1_555 1_555
C26 C25 1_555 1_555
H19 C26 1_555 1_555
C27 C26 1_555 1_555
H20 C27 1_555 1_555
C28 C27 1_555 1_555
C29 C28 1_555 1_555
H21 C29 1_555 1_555
C30 C25 1_555 1_555
H22 C30 1_555 1_555
C31 O7 1_555 1_555
H23 C31 1_555 1_555
H24 C31 1_555 1_555
H25 C31 1_555 1_555
O4 C23 1_555 1_555
C4 C5 1_555 1_555
C6 C7 1_555 1_555
C13 C14 1_555 1_555
C17 C18 1_555 1_555
C21 C22 1_555 1_555
C29 C30 1_555 1_555

#END
