
#######################################################################
#
#                 Cambridge Crystallographic Data Centre
#                                CCDC 
#
#######################################################################
#
# If this CIF has been generated from an entry in the Cambridge 
# Structural Database, then it will include bibliographic, chemical, 
# crystal, experimental, refinement or atomic coordinate data resulting 
# from the CCDC's data processing and validation procedures.
#
#######################################################################

data_OYIRIY
_chemical_formula_moiety         'C31 H35 N7 O2'
_chemical_name_systematic        
2-((2-(bis(Pyridin-2-ylmethyl)amino)ethyl)amino)-4-(3,6,6-trimethyl-4-oxo-4,5,6,7-tetrahydro-1H-indazol-1-yl)benzamide
_symmetry_cell_setting           triclinic
_symmetry_space_group_name_H-M   'P -1'
_symmetry_Int_Tables_number      2
_space_group_name_Hall           '-P 1'
loop_
_symmetry_equiv_pos_site_id
_symmetry_equiv_pos_as_xyz
1 x,y,z
2 -x,-y,-z
_cell_length_a                   11.0019(7)
_cell_length_b                   11.6614(7)
_cell_length_c                   13.9428(9)
_cell_angle_alpha                97.2110(10)
_cell_angle_beta                 109.7950(10)
_cell_angle_gamma                96.7920(10)
_cell_volume                     1644.86
_exptl_crystal_colour            colorless
_exptl_crystal_description       block
_cell_formula_units_Z            2
loop_
_atom_site_label
_atom_site_type_symbol
_atom_site_fract_x
_atom_site_fract_y
_atom_site_fract_z
C1 C 0.5868(2) 0.63654(18) 0.66999(14)
C2 C 0.6945(2) 0.7251(2) 0.66698(16)
H1 H 0.7457 0.6851 0.6334
H2 H 0.7518 0.7577 0.7376
C3 C 0.65025(19) 0.82789(18) 0.61053(15)
C4 C 0.7690(2) 0.9043(2) 0.6041(2)
H3 H 0.7407 0.9657 0.5665
H4 H 0.8124 0.8570 0.5691
H5 H 0.8287 0.9382 0.6728
C5 C 0.5839(3) 0.90161(19) 0.67077(18)
H6 H 0.6431 0.9282 0.7409
H7 H 0.5059 0.8546 0.6704
H8 H 0.5611 0.9681 0.6386
C6 C 0.55236(18) 0.77819(17) 0.50023(14)
H9 H 0.5101 0.8403 0.4701
H10 H 0.5988 0.7477 0.4573
C7 C 0.45172(17) 0.68302(15) 0.50283(12)
C8 C 0.46551(18) 0.61845(15) 0.58140(13)
C9 C 0.3424(2) 0.54651(15) 0.55493(14)
C10 C 0.3008(3) 0.4626(2) 0.61503(19)
H11 H 0.2761 0.5046 0.6673
H12 H 0.3723 0.4237 0.6473
H13 H 0.2274 0.4054 0.5691
C11 C 0.26163(17) 0.69861(15) 0.34779(13)
C12 C 0.32112(19) 0.71973(18) 0.27681(14)
H14 H 0.3992 0.6939 0.2807
C13 C 0.26027(18) 0.78034(17) 0.20035(14)
H15 H 0.3005 0.7971 0.1537
C14 C 0.14188(16) 0.81759(14) 0.18970(12)
C15 C 0.08526(17) 0.88999(16) 0.11037(13)
C16 C 0.07803(16) 0.78736(14) 0.25909(13)
C17 C 0.14305(17) 0.73017(15) 0.33923(13)
H16 H 0.1050 0.7134 0.3873
C18 C -0.10824(19) 0.78738(18) 0.31936(16)
H17 H -0.0600 0.8310 0.3887
H18 H -0.1139 0.7043 0.3223
C19 C -0.24492(19) 0.81734(17) 0.28048(16)
H19 H -0.2981 0.7619 0.2182
H20 H -0.2844 0.8091 0.3323
C20 C -0.37875(19) 0.95271(18) 0.19968(15)
H21 H -0.3790 1.0357 0.1985
H22 H -0.4359 0.9274 0.2356
C21 C -0.43349(17) 0.88656(16) 0.08996(14)
C22 C -0.3540(2) 0.86299(19) 0.03368(15)
H23 H -0.2638 0.8887 0.0631
C23 C -0.4092(3) 0.8017(2) -0.06537(17)
H24 H -0.3570 0.7852 -0.1040
C24 C -0.5424(3) 0.7648(2) -0.10720(18)
H25 H -0.5823 0.7217 -0.1739
C25 C -0.6146(2) 0.7936(2) -0.04778(19)
H26 H -0.7051 0.7697 -0.0765
C26 C -0.1860(2) 1.02613(19) 0.35070(16)
H27 H -0.1146 0.9982 0.3995
H28 H -0.2507 1.0371 0.3825
C27 C -0.1346(2) 1.14146(18) 0.33172(14)
C28 C -0.1013(2) 1.15533(19) 0.24651(17)
H29 H -0.1139 1.0909 0.1954
C29 C -0.0493(2) 1.2645(2) 0.2375(2)
H30 H -0.0279 1.2756 0.1798
C30 C -0.0295(2) 1.3572(2) 0.3153(3)
H31 H 0.0066 1.4323 0.3122
C31 C -0.0643(3) 1.3363(2) 0.3976(3)
H32 H -0.0506 1.3995 0.4500
N1 N 0.32760(14) 0.64769(12) 0.43475(11)
N2 N 0.25812(16) 0.56413(13) 0.46681(12)
N3 N 0.15448(17) 0.92441(16) 0.05350(13)
H33 H 0.1239 0.9670 0.0078
H34 H 0.2296 0.9040 0.0626
N4 N -0.04045(15) 0.81598(14) 0.25163(12)
H35 H -0.0771 0.8535 0.2034
N5 N -0.24574(15) 0.93661(13) 0.25771(11)
N6 N -0.56323(16) 0.85390(17) 0.04931(14)
N7 N -0.1159(2) 1.23256(19) 0.40779(15)
O1 O 0.60077(18) 0.58248(17) 0.74198(12)
O2 O -0.02227(14) 0.91999(14) 0.09646(12)
loop_
_geom_bond_atom_site_label_1
_geom_bond_atom_site_label_2
_geom_bond_site_symmetry_1
_geom_bond_site_symmetry_2
C1 C2 1_555 1_555
C2 H1 1_555 1_555
H2 C2 1_555 1_555
C3 C2 1_555 1_555
C4 C3 1_555 1_555
H3 C4 1_555 1_555
H4 C4 1_555 1_555
H5 C4 1_555 1_555
C5 C3 1_555 1_555
H6 C5 1_555 1_555
H7 C5 1_555 1_555
H8 C5 1_555 1_555
C6 C3 1_555 1_555
H9 C6 1_555 1_555
H10 C6 1_555 1_555
C7 C6 1_555 1_555
C8 C1 1_555 1_555
C9 C8 1_555 1_555
C10 C9 1_555 1_555
H11 C10 1_555 1_555
H12 C10 1_555 1_555
H13 C10 1_555 1_555
C11 C12 1_555 1_555
C12 H14 1_555 1_555
C13 C12 1_555 1_555
H15 C13 1_555 1_555
C14 C13 1_555 1_555
C15 C14 1_555 1_555
C16 C14 1_555 1_555
C17 C11 1_555 1_555
H16 C17 1_555 1_555
C18 H17 1_555 1_555
H18 C18 1_555 1_555
C19 C18 1_555 1_555
H19 C19 1_555 1_555
H20 C19 1_555 1_555
C20 H21 1_555 1_555
H22 C20 1_555 1_555
C21 C20 1_555 1_555
C22 C21 1_555 1_555
H23 C22 1_555 1_555
C23 C22 1_555 1_555
H24 C23 1_555 1_555
C24 C23 1_555 1_555
H25 C24 1_555 1_555
C25 C24 1_555 1_555
H26 C25 1_555 1_555
C26 H27 1_555 1_555
H28 C26 1_555 1_555
C27 C26 1_555 1_555
C28 C27 1_555 1_555
H29 C28 1_555 1_555
C29 C28 1_555 1_555
H30 C29 1_555 1_555
C30 C29 1_555 1_555
H31 C30 1_555 1_555
C31 C30 1_555 1_555
H32 C31 1_555 1_555
N1 C7 1_555 1_555
N2 C9 1_555 1_555
N3 C15 1_555 1_555
H33 N3 1_555 1_555
H34 N3 1_555 1_555
N4 C16 1_555 1_555
H35 N4 1_555 1_555
N5 C19 1_555 1_555
N6 C21 1_555 1_555
N7 C27 1_555 1_555
O1 C1 1_555 1_555
O2 C15 1_555 1_555
C7 C8 1_555 1_555
C11 N1 1_555 1_555
C16 C17 1_555 1_555
C18 N4 1_555 1_555
C20 N5 1_555 1_555
C25 N6 1_555 1_555
C26 N5 1_555 1_555
C31 N7 1_555 1_555
N1 N2 1_555 1_555

#END
