
#######################################################################
#
#                 Cambridge Crystallographic Data Centre
#                                CCDC 
#
#######################################################################
#
# If this CIF has been generated from an entry in the Cambridge 
# Structural Database, then it will include bibliographic, chemical, 
# crystal, experimental, refinement or atomic coordinate data resulting 
# from the CCDC's data processing and validation procedures.
#
#######################################################################

data_OYUKAW
_chemical_formula_moiety         'C10 H10 N6 O1'
_chemical_name_systematic        
2-amino-5,7-dimethylpyrido[4,3-d][1,2,4]triazolo[1,5-a]pyrimidin-9(7H)-one
_symmetry_cell_setting           orthorhombic
_symmetry_space_group_name_H-M   'P n m a'
_symmetry_Int_Tables_number      62
_space_group_name_Hall           '-P 2ac 2n'
loop_
_symmetry_equiv_pos_site_id
_symmetry_equiv_pos_as_xyz
1 x,y,z
2 1/2-x,-y,1/2+z
3 1/2+x,1/2-y,1/2-z
4 -x,1/2+y,-z
5 -x,-y,-z
6 1/2+x,y,1/2-z
7 1/2-x,1/2+y,1/2+z
8 x,1/2-y,z
_cell_length_a                   8.215(3)
_cell_length_b                   6.564(3)
_cell_length_c                   18.417(7)
_cell_angle_alpha                90
_cell_angle_beta                 90
_cell_angle_gamma                90
_cell_volume                     993.105
_exptl_crystal_colour            yellow
_exptl_crystal_description       Prism
_cell_formula_units_Z            4
loop_
_atom_site_label
_atom_site_type_symbol
_atom_site_fract_x
_atom_site_fract_y
_atom_site_fract_z
O1 O 0.25068(18) 0.2500 0.13917(8)
N1 N -0.0146(2) 0.2500 0.10070(9)
N2 N -0.0892(2) 0.2500 0.16852(9)
N3 N -0.2786(2) 0.2500 0.07637(9)
N4 N -0.0979(2) 0.2500 -0.02476(9)
N5 N -0.3681(3) 0.2500 0.19860(11)
H1 H -0.3467 0.2500 0.2443
H2 H -0.4676 0.2500 0.1840
N6 N 0.3870(2) 0.2500 -0.08131(9)
C1 C -0.2455(3) 0.2500 0.14965(11)
C2 C -0.1318(2) 0.2500 0.04645(10)
C3 C 0.1509(2) 0.2500 0.08899(10)
C4 C 0.1889(2) 0.2500 0.01152(10)
C5 C 0.0609(2) 0.2500 -0.04129(10)
C6 C 0.3490(2) 0.2500 -0.01091(11)
H3 H 0.4317 0.2500 0.0236
C7 C 0.2670(3) 0.2500 -0.13323(11)
H4 H 0.2970 0.2500 -0.1819
C8 C 0.1071(2) 0.2500 -0.11633(10)
C9 C 0.5582(3) 0.2500 -0.10553(14)
H5 H 0.6275 0.2500 -0.0636
H6 H 0.5794 0.1306 -0.1341
C10 C -0.0196(3) 0.2500 -0.17502(11)
H7 H 0.0331 0.2500 -0.2215
H8 H -0.0864 0.1306 -0.1706
H6G H 0.5794 0.3694 -0.1341
H8G H -0.0864 0.3694 -0.1706
loop_
_geom_bond_atom_site_label_1
_geom_bond_atom_site_label_2
_geom_bond_site_symmetry_1
_geom_bond_site_symmetry_2
O1 C3 1_555 1_555
N1 N2 1_555 1_555
N2 C1 1_555 1_555
N3 C1 1_555 1_555
N4 C2 1_555 1_555
N5 H1 1_555 1_555
H2 N5 1_555 1_555
N6 C6 1_555 1_555
C1 N5 1_555 1_555
C2 N1 1_555 1_555
C3 N1 1_555 1_555
C4 C3 1_555 1_555
C5 N4 1_555 1_555
C6 C4 1_555 1_555
H3 C6 1_555 1_555
C7 N6 1_555 1_555
H4 C7 1_555 1_555
C8 C5 1_555 1_555
C9 N6 1_555 1_555
H5 C9 1_555 1_555
H6 C9 1_555 1_555
C10 C8 1_555 1_555
H7 C10 1_555 1_555
H8 C10 1_555 1_555
H6G C9 1_555 1_555
H8G C10 1_555 1_555
N3 C2 1_555 1_555
C4 C5 1_555 1_555
C7 C8 1_555 1_555

#END
