
#######################################################################
#
#                 Cambridge Crystallographic Data Centre
#                                CCDC 
#
#######################################################################
#
# If this CIF has been generated from an entry in the Cambridge 
# Structural Database, then it will include bibliographic, chemical, 
# crystal, experimental, refinement or atomic coordinate data resulting 
# from the CCDC's data processing and validation procedures.
#
#######################################################################

data_OYUYEN
_chemical_formula_moiety         'C6 H2 F3 O7 S3 1-,C7 H11 N2 1+'
_chemical_name_systematic        
'4-dimethylaminopyridinium 2,4,6-tris(fluorosulfonyl)phenolate'
_symmetry_cell_setting           monoclinic
_symmetry_space_group_name_H-M   'C 2/c'
_symmetry_Int_Tables_number      15
_space_group_name_Hall           '-C 2yn'
loop_
_symmetry_equiv_pos_site_id
_symmetry_equiv_pos_as_xyz
1 x,y,z
2 -x,y,1/2-z
3 1/2+x,1/2+y,z
4 1/2-x,1/2+y,1/2-z
5 -x,-y,-z
6 x,-y,1/2+z
7 1/2-x,1/2-y,-z
8 1/2+x,1/2-y,1/2+z
_cell_length_a                   28.613(2)
_cell_length_b                   8.1044(9)
_cell_length_c                   17.2835(14)
_cell_angle_alpha                90
_cell_angle_beta                 115.878(5)
_cell_angle_gamma                90
_cell_volume                     3606
_exptl_crystal_colour            colorless
_exptl_crystal_description       polyhedron
_cell_formula_units_Z            8
loop_
_atom_site_label
_atom_site_type_symbol
_atom_site_fract_x
_atom_site_fract_y
_atom_site_fract_z
N1 N 1.05425(6) -0.25606(19) 0.55292(9)
C1 C 1.06022(7) -0.3530(3) 0.49468(11)
C2 C 1.01899(7) -0.3935(2) 0.41968(11)
C3 C 0.96877(6) -0.3346(2) 0.40098(10)
C4 C 0.96456(8) -0.2300(2) 0.46381(12)
C5 C 1.00746(8) -0.1964(2) 0.53772(12)
N2 N 0.92713(6) -0.3756(2) 0.32876(9)
C6 C 0.87588(9) -0.3094(3) 0.30912(17)
C7 C 0.93154(10) -0.4825(3) 0.26437(14)
H1 H 0.9313(8) -0.185(2) 0.4554(12)
H4 H 1.0798(10) -0.231(3) 0.6003(16)
H5 H 1.0248(8) -0.472(3) 0.3801(14)
H6 H 0.9497(12) -0.420(4) 0.2339(19)
H7 H 1.0942(9) -0.392(3) 0.5098(13)
H8 H 1.0075(9) -0.131(3) 0.5797(16)
H9 H 0.8635(12) -0.345(4) 0.355(2)
H10 H 0.8782(11) -0.191(4) 0.3146(18)
H11 H 0.8995(14) -0.526(4) 0.228(2)
H12 H 0.9514(13) -0.583(4) 0.291(2)
H13 H 0.8520(13) -0.355(4) 0.259(2)
C8 C 0.85088(7) 0.1114(2) 0.21912(10)
C9 C 0.85006(7) 0.0651(2) 0.13767(10)
C10 C 0.80495(7) 0.0380(2) 0.06403(10)
C11 C 0.75713(6) 0.0575(2) 0.06614(10)
C12 C 0.75457(7) 0.1081(2) 0.14143(10)
C13 C 0.79970(6) 0.1357(2) 0.21421(9)
S1 S 0.794361(17) 0.20686(6) 0.30468(3)
O1 O 0.74196(5) 0.2285(2) 0.28750(8)
O2 O 0.83085(5) 0.33284(19) 0.34742(8)
F1 F 0.81398(5) 0.05399(16) 0.36490(7)
S2 S 0.908953(19) 0.04582(7) 0.13203(3)
O3 O 0.94012(5) 0.18983(18) 0.16613(9)
O4 O 0.90087(6) -0.00601(18) 0.04925(8)
F2 F 0.93592(5) -0.09180(18) 0.19596(9)
S3 S 0.700263(17) 0.01604(6) -0.02381(3)
O5 O 0.65719(5) 0.08767(18) -0.01690(8)
O6 O 0.70680(6) 0.03170(19) -0.09989(8)
F3 F 0.69387(5) -0.17342(14) -0.01387(7)
O7 O 0.89202(5) 0.12580(17) 0.28684(7)
H2 H 0.8058(7) 0.007(2) 0.0140(12)
H3 H 0.7229(8) 0.121(2) 0.1427(12)
loop_
_geom_bond_atom_site_label_1
_geom_bond_atom_site_label_2
_geom_bond_site_symmetry_1
_geom_bond_site_symmetry_2
N1 C1 1_555 1_555
C1 C2 1_555 1_555
C2 C3 1_555 1_555
C3 C4 1_555 1_555
C4 C5 1_555 1_555
C5 N1 1_555 1_555
N2 C3 1_555 1_555
C6 N2 1_555 1_555
C7 N2 1_555 1_555
C8 C9 1_555 1_555
C9 C10 1_555 1_555
C10 C11 1_555 1_555
C11 C12 1_555 1_555
C12 C13 1_555 1_555
C13 C8 1_555 1_555
S1 C13 1_555 1_555
O1 S1 1_555 1_555
O2 S1 1_555 1_555
F1 S1 1_555 1_555
S2 C9 1_555 1_555
O3 S2 1_555 1_555
O4 S2 1_555 1_555
F2 S2 1_555 1_555
S3 C11 1_555 1_555
O5 S3 1_555 1_555
O6 S3 1_555 1_555
F3 S3 1_555 1_555
O7 C8 1_555 1_555
H1 C4 1_555 1_555
H2 C10 1_555 1_555
H3 C12 1_555 1_555
H4 N1 1_555 1_555
H5 C2 1_555 1_555
H6 C7 1_555 1_555
H7 C1 1_555 1_555
H8 C5 1_555 1_555
H9 C6 1_555 1_555
H10 C6 1_555 1_555
H11 C7 1_555 1_555
H12 C7 1_555 1_555
H13 C6 1_555 1_555

#END
