
#######################################################################
#
#                 Cambridge Crystallographic Data Centre
#                                CCDC 
#
#######################################################################
#
# If this CIF has been generated from an entry in the Cambridge 
# Structural Database, then it will include bibliographic, chemical, 
# crystal, experimental, refinement or atomic coordinate data resulting 
# from the CCDC's data processing and validation procedures.
#
#######################################################################

data_OZAHOO
_chemical_formula_moiety         'C36 H26 N2 O6'
_chemical_name_systematic        
"dimethyl 1'-benzyl-2',5-dioxo-1-phenyl-1,1',2',5-tetrahydrospiro[indeno[1,2-b]pyridine-4,3'-indole]-2,3-dicarboxylate unknown solvate"
_symmetry_cell_setting           triclinic
_symmetry_space_group_name_H-M   'P -1'
_symmetry_Int_Tables_number      2
_space_group_name_Hall           '-P 1'
loop_
_symmetry_equiv_pos_site_id
_symmetry_equiv_pos_as_xyz
1 x,y,z
2 -x,-y,-z
_cell_length_a                   8.9050(8)
_cell_length_b                   12.3289(10)
_cell_length_c                   16.1319(14)
_cell_angle_alpha                83.289(3)
_cell_angle_beta                 77.551(3)
_cell_angle_gamma                73.584(3)
_cell_volume                     1656
_exptl_crystal_colour            red
_exptl_crystal_description       block
_cell_formula_units_Z            2
loop_
_atom_site_label
_atom_site_type_symbol
_atom_site_fract_x
_atom_site_fract_y
_atom_site_fract_z
C1 C 0.8732(2) -0.03877(18) 0.23969(13)
H1 H 0.9765 -0.0328 0.2351
C2 C 0.8474(3) -0.13971(18) 0.22691(14)
H2 H 0.9337 -0.2027 0.2147
C3 C 0.6964(3) -0.14823(19) 0.23207(14)
H3 H 0.6799 -0.2173 0.2245
C4 C 0.5675(3) -0.0547(2) 0.24852(14)
H4 H 0.4649 -0.0603 0.2503
C5 C 0.5913(2) 0.04703(18) 0.26233(13)
H5 H 0.5053 0.1104 0.2735
C6 C 0.7453(2) 0.05321(15) 0.25934(11)
C7 C 0.8034(2) 0.23989(15) 0.21964(10)
C8 C 0.7670(2) 0.22575(16) 0.13472(12)
C9 C 0.8716(4) 0.1643(3) -0.00194(15)
H6 H 0.7959 0.1206 0.0031
H7 H 0.9708 0.1264 -0.0363
H8 H 0.8312 0.2378 -0.0281
C10 C 0.8531(2) 0.32782(15) 0.23477(10)
C11 C 0.8822(2) 0.41045(15) 0.16248(11)
C12 C 0.9933(3) 0.56565(19) 0.11855(14)
H9 H 1.0530 0.5307 0.0671
H10 H 1.0548 0.6062 0.1384
H11 H 0.8954 0.6173 0.1076
C13 C 1.3612(2) 0.47886(19) 0.22245(14)
H12 H 1.3823 0.4003 0.2267
C14 C 1.4332(3) 0.5322(2) 0.15132(16)
H13 H 1.5030 0.4898 0.1079
C15 C 1.4013(3) 0.6486(3) 0.14498(17)
H14 H 1.4493 0.6846 0.0969
C16 C 1.2999(3) 0.7114(2) 0.20848(17)
H15 H 1.2789 0.7900 0.2039
C17 C 1.2280(2) 0.65773(17) 0.27998(13)
H16 H 1.1591 0.7005 0.3234
C18 C 1.2581(2) 0.54114(16) 0.28724(12)
C19 C 1.1823(2) 0.48237(16) 0.36599(11)
H17 H 1.2601 0.4141 0.3809
H18 H 1.1531 0.5317 0.4128
C20 C 1.0494(2) 0.35367(15) 0.32192(10)
C21 C 0.8771(2) 0.34815(14) 0.32225(10)
C22 C 0.7797(2) 0.46193(15) 0.35559(10)
C23 C 0.6183(2) 0.50944(17) 0.37047(13)
H19 H 0.5500 0.4716 0.3579
C24 C 0.5578(3) 0.61538(19) 0.40469(14)
H20 H 0.4485 0.6487 0.4151
C25 C 0.6597(3) 0.67029(18) 0.42295(14)
H21 H 0.6176 0.7410 0.4456
C26 C 0.8239(2) 0.62366(16) 0.40878(12)
H22 H 0.8918 0.6617 0.4216
C27 C 0.8822(2) 0.51892(15) 0.37499(10)
C28 C 0.8620(2) 0.23274(15) 0.47048(11)
C29 C 0.8434(2) 0.25079(15) 0.38240(10)
C30 C 0.7951(2) 0.16457(15) 0.36212(11)
C31 C 0.7756(2) 0.08290(15) 0.43755(11)
C32 C 0.7333(2) -0.01798(17) 0.45224(13)
H23 H 0.7039 -0.0478 0.4097
C33 C 0.7357(3) -0.07391(17) 0.53188(13)
H24 H 0.7063 -0.1416 0.5424
C34 C 0.7799(2) -0.03273(17) 0.59545(12)
H25 H 0.7823 -0.0731 0.6478
C35 C 0.8210(2) 0.06934(16) 0.58180(11)
H26 H 0.8498 0.0987 0.6247
C36 C 0.8180(2) 0.12583(15) 0.50334(11)
N1 N 0.77092(18) 0.15627(12) 0.28200(9)
N2 N 1.04073(17) 0.45230(12) 0.35495(9)
O1 O 0.63492(18) 0.25205(13) 0.12129(9)
O2 O 0.89725(18) 0.17632(12) 0.08182(8)
O3 O 0.84599(19) 0.41525(13) 0.09423(8)
O4 O 0.95803(17) 0.47984(11) 0.18224(8)
O5 O 1.17104(15) 0.27980(11) 0.29876(8)
O6 O 0.90840(17) 0.29136(11) 0.51009(8)
loop_
_geom_bond_atom_site_label_1
_geom_bond_atom_site_label_2
_geom_bond_site_symmetry_1
_geom_bond_site_symmetry_2
C1 H1 1_555 1_555
C2 C1 1_555 1_555
H2 C2 1_555 1_555
C3 C2 1_555 1_555
H3 C3 1_555 1_555
C4 C3 1_555 1_555
H4 C4 1_555 1_555
C5 C4 1_555 1_555
H5 C5 1_555 1_555
C6 C1 1_555 1_555
C7 C8 1_555 1_555
C8 O1 1_555 1_555
C9 H6 1_555 1_555
H7 C9 1_555 1_555
H8 C9 1_555 1_555
C10 C7 1_555 1_555
C11 C10 1_555 1_555
C12 H9 1_555 1_555
H10 C12 1_555 1_555
H11 C12 1_555 1_555
C13 H12 1_555 1_555
C14 C13 1_555 1_555
H13 C14 1_555 1_555
C15 C14 1_555 1_555
H14 C15 1_555 1_555
C16 C15 1_555 1_555
H15 C16 1_555 1_555
C17 C16 1_555 1_555
H16 C17 1_555 1_555
C18 C13 1_555 1_555
C19 C18 1_555 1_555
H17 C19 1_555 1_555
H18 C19 1_555 1_555
C20 C21 1_555 1_555
C21 C10 1_555 1_555
C22 C21 1_555 1_555
C23 C22 1_555 1_555
H19 C23 1_555 1_555
C24 C23 1_555 1_555
H20 C24 1_555 1_555
C25 C24 1_555 1_555
H21 C25 1_555 1_555
C26 C25 1_555 1_555
H22 C26 1_555 1_555
C27 C22 1_555 1_555
C28 C29 1_555 1_555
C29 C21 1_555 1_555
C30 C29 1_555 1_555
C31 C30 1_555 1_555
C32 C31 1_555 1_555
H23 C32 1_555 1_555
C33 C32 1_555 1_555
H24 C33 1_555 1_555
C34 C33 1_555 1_555
H25 C34 1_555 1_555
C35 C34 1_555 1_555
H26 C35 1_555 1_555
C36 C28 1_555 1_555
N1 C6 1_555 1_555
N2 C19 1_555 1_555
O2 C8 1_555 1_555
O3 C11 1_555 1_555
O4 C11 1_555 1_555
O5 C20 1_555 1_555
O6 C28 1_555 1_555
C5 C6 1_555 1_555
C7 N1 1_555 1_555
C9 O2 1_555 1_555
C12 O4 1_555 1_555
C17 C18 1_555 1_555
C20 N2 1_555 1_555
C26 C27 1_555 1_555
C27 N2 1_555 1_555
C30 N1 1_555 1_555
C31 C36 1_555 1_555
C35 C36 1_555 1_555

#END
