
#######################################################################
#
#                 Cambridge Crystallographic Data Centre
#                                CCDC 
#
#######################################################################
#
# If this CIF has been generated from an entry in the Cambridge 
# Structural Database, then it will include bibliographic, chemical, 
# crystal, experimental, refinement or atomic coordinate data resulting 
# from the CCDC's data processing and validation procedures.
#
#######################################################################

data_OZAPUC
_chemical_formula_moiety         'C13 H23 B12 N2 O1 S2 1-,C16 H36 N1 1+'
_chemical_name_systematic        
'tetra-n-butylammonium 1,2-((dimethylamino)(iminio)methoxy)-3-(1,2-bis(2-thienyl)ethenyl)-closo-dodecaborate'
_symmetry_cell_setting           triclinic
_symmetry_space_group_name_H-M   'P -1'
_symmetry_Int_Tables_number      2
_space_group_name_Hall           '-P 1'
loop_
_symmetry_equiv_pos_site_id
_symmetry_equiv_pos_as_xyz
1 x,y,z
2 -x,-y,-z
_cell_length_a                   9.6504(16)
_cell_length_b                   12.1911(18)
_cell_length_c                   17.523(3)
_cell_angle_alpha                70.527(14)
_cell_angle_beta                 74.046(14)
_cell_angle_gamma                86.554(13)
_cell_volume                     1867.65
_exptl_crystal_colour            yellow
_exptl_crystal_description       block
_cell_formula_units_Z            2
loop_
_atom_site_label
_atom_site_type_symbol
_atom_site_fract_x
_atom_site_fract_y
_atom_site_fract_z
S1 S 0.10691(15) 0.63093(13) 0.05450(9)
S2 S 0.3992(3) 0.8313(2) 0.00013(15)
N1 N 0.2899(4) 0.9980(3) 0.1347(2)
H1 H 0.3334 1.0421 0.0833
C1 C 0.4465(19) 0.6282(12) 0.0813(10)
H2 H 0.4430 0.5565 0.1255
C2 C -0.1101(5) 0.6674(4) 0.1633(3)
H3 H -0.1689 0.6870 0.2097
C3 C 0.3661(5) 0.7156(4) 0.0950(3)
C4 C 0.2647(5) 0.7298(4) 0.1720(3)
C5 C 0.0383(5) 0.6716(4) 0.1436(3)
N2 N 0.0563(5) 1.0286(4) 0.1202(3)
C6 C 0.1232(5) 0.7064(4) 0.1886(3)
H4 H 0.0677 0.7143 0.2403
C7 C 0.5373(6) 0.6438(5) -0.0004(4)
H5 H 0.5990 0.5877 -0.0176
B1 B 0.5574(7) 0.8163(6) 0.2954(4)
H6 H 0.6711 0.7999 0.2994
C8 C -0.1663(6) 0.6329(4) 0.1110(4)
H7 H -0.2668 0.6270 0.1172
B2 B 0.3691(6) 0.9306(5) 0.1978(4)
B3 B 0.5102(6) 0.8310(5) 0.2012(4)
H8 H 0.5910 0.8246 0.1433
B4 B 0.4433(7) 0.7061(5) 0.2916(4)
H9 H 0.4824 0.6170 0.2937
B5 B 0.2206(7) 0.8696(6) 0.2810(4)
C9 C 0.5207(6) 0.7502(5) -0.0480(4)
H10 H 0.5728 0.7803 -0.1056
C10 C -0.0643(6) 0.6081(4) 0.0498(4)
H11 H -0.0844 0.5811 0.0088
B6 B 0.3281(6) 0.7753(5) 0.2309(3)
C11 C -0.0980(6) 1.0063(6) 0.1573(4)
H12 H -0.1501 1.0607 0.1205
H13 H -0.1252 1.0169 0.2125
H14 H -0.1227 0.9263 0.1638
B7 B 0.5097(7) 0.9548(6) 0.2374(4)
H15 H 0.5899 1.0294 0.2027
B8 B 0.4431(7) 0.9026(7) 0.3496(4)
H16 H 0.4816 0.9417 0.3899
B9 B 0.3303(7) 0.9750(7) 0.2890(5)
H17 H 0.2930 1.0639 0.2888
B10 B 0.2595(7) 0.7298(6) 0.3412(4)
H18 H 0.1758 0.6576 0.3752
C12 C 0.1143(7) 1.0935(5) 0.0318(4)
H19 H 0.1699 1.0419 0.0031
H20 H 0.1773 1.1578 0.0257
H21 H 0.0350 1.1248 0.0069
B11 B 0.2595(7) 0.8515(7) 0.3779(4)
H22 H 0.1767 0.8580 0.4352
B12 B 0.4016(7) 0.7508(7) 0.3824(4)
H23 H 0.4131 0.6900 0.4441
O1 O 0.0991(4) 0.9195(3) 0.2452(2)
C13 C 0.1487(6) 0.9842(4) 0.1644(3)
N3 N 0.2547(4) 1.2886(3) 0.4145(3)
C15 C 0.4721(5) 1.2921(4) 0.2892(3)
H27 H 0.4142 1.3017 0.2489
H28 H 0.4834 1.2079 0.3159
C16 C 0.3970(5) 1.3465(4) 0.3557(3)
H29 H 0.4634 1.3457 0.3901
H30 H 0.3800 1.4289 0.3269
C17 C 0.6200(6) 1.3536(4) 0.2434(3)
H31 H 0.6068 1.4382 0.2200
H32 H 0.6770 1.3418 0.2845
C18 C 0.1217(6) 1.3765(5) 0.3007(4)
H33 H 0.2131 1.4149 0.2606
H34 H 0.0710 1.4323 0.3281
C19 C 0.1547(5) 1.2704(5) 0.3662(3)
H35 H 0.1979 1.2131 0.3383
H36 H 0.0625 1.2354 0.4071
C20 C 0.2705(6) 1.3971(5) 0.5157(3)
H37 H 0.3023 1.3248 0.5522
H38 H 0.3575 1.4449 0.4776
C21 C 0.1843(6) 1.3667(5) 0.4639(3)
H39 H 0.0916 1.3289 0.5025
H40 H 0.1617 1.4403 0.4242
C22 C 0.0274(6) 1.3452(5) 0.2526(3)
H41 H -0.0537 1.2928 0.2934
H42 H -0.0136 1.4170 0.2215
C23 C 0.2845(6) 1.1704(5) 0.4731(3)
H43 H 0.3298 1.1213 0.4386
H44 H 0.3551 1.1825 0.5015
C24 C 0.2640(6) 1.5066(5) 0.6149(3)
H45 H 0.3437 1.5587 0.5740
H46 H 0.3027 1.4401 0.6517
H47 H 0.2005 1.5489 0.6488
C25 C 0.7029(6) 1.3109(6) 0.1738(4)
H48 H 0.6492 1.3255 0.1315
H49 H 0.7167 1.2271 0.1965
H50 H 0.7971 1.3520 0.1477
C26 C 0.1794(6) 1.4636(5) 0.5690(3)
H51 H 0.0977 1.4125 0.6106
H52 H 0.1390 1.5309 0.5327
C27 C 0.1536(7) 1.1044(6) 0.5398(4)
H53 H 0.1015 1.1563 0.5704
H54 H 0.0879 1.0834 0.5119
C28 C 0.1109(8) 1.2863(6) 0.1913(4)
H55 H 0.1929 1.3370 0.1517
H56 H 0.0477 1.2715 0.1604
H57 H 0.1462 1.2124 0.2222
C29 C 0.2789(8) 0.9158(7) 0.5824(5)
H58 H 0.3682 0.9534 0.5411
H59 H 0.2332 0.8695 0.5592
H60 H 0.3013 0.8648 0.6338
C30 C 0.1878(10) 0.9982(7) 0.6007(6)
H61 H 0.2238 1.0244 0.6397
H62 H 0.0942 0.9567 0.6339
H24? H 0.6035 0.5963 -0.0252
H25? H 0.5610 0.7898 -0.1063
S3? S 0.4482(15) 0.5869(10) 0.1021(7)
C14? C 0.418(4) 0.790(3) 0.019(2)
H26? H 0.3900 0.8683 0.0057
loop_
_geom_bond_atom_site_label_1
_geom_bond_atom_site_label_2
_geom_bond_site_symmetry_1
_geom_bond_site_symmetry_2
S1 C5 1_555 1_555
S2 C3 1_555 1_555
N1 H1 1_555 1_555
C1 H2 1_555 1_555
C2 H3 1_555 1_555
C3 C1 1_555 1_555
C4 C3 1_555 1_555
C5 C2 1_555 1_555
N2 C11 1_555 1_555
C6 C4 1_555 1_555
H4 C6 1_555 1_555
C7 C1 1_555 1_555
H5 C7 1_555 1_555
B1 H6 1_555 1_555
C8 C2 1_555 1_555
H7 C8 1_555 1_555
B2 N1 1_555 1_555
B3 B1 1_555 1_555
H8 B3 1_555 1_555
B4 B1 1_555 1_555
H9 B4 1_555 1_555
B5 B2 1_555 1_555
C9 S2 1_555 1_555
H10 C9 1_555 1_555
C10 S1 1_555 1_555
H11 C10 1_555 1_555
B6 C4 1_555 1_555
C11 H12 1_555 1_555
H13 C11 1_555 1_555
H14 C11 1_555 1_555
B7 B1 1_555 1_555
H15 B7 1_555 1_555
B8 B1 1_555 1_555
H16 B8 1_555 1_555
B9 B2 1_555 1_555
H17 B9 1_555 1_555
B10 B4 1_555 1_555
H18 B10 1_555 1_555
C12 N2 1_555 1_555
H19 C12 1_555 1_555
H20 C12 1_555 1_555
H21 C12 1_555 1_555
B11 B5 1_555 1_555
H22 B11 1_555 1_555
B12 B1 1_555 1_555
H23 B12 1_555 1_555
O1 B5 1_555 1_555
C13 N1 1_555 1_555
N3 C16 1_555 1_555
C15 H27 1_555 1_555
H28 C15 1_555 1_555
C16 C15 1_555 1_555
H29 C16 1_555 1_555
H30 C16 1_555 1_555
C17 C15 1_555 1_555
H31 C17 1_555 1_555
H32 C17 1_555 1_555
C18 H33 1_555 1_555
H34 C18 1_555 1_555
C19 N3 1_555 1_555
H35 C19 1_555 1_555
H36 C19 1_555 1_555
C20 H37 1_555 1_555
H38 C20 1_555 1_555
C21 N3 1_555 1_555
H39 C21 1_555 1_555
H40 C21 1_555 1_555
C22 C18 1_555 1_555
H41 C22 1_555 1_555
H42 C22 1_555 1_555
C23 N3 1_555 1_555
H43 C23 1_555 1_555
H44 C23 1_555 1_555
C24 H45 1_555 1_555
H46 C24 1_555 1_555
H47 C24 1_555 1_555
C25 C17 1_555 1_555
H48 C25 1_555 1_555
H49 C25 1_555 1_555
H50 C25 1_555 1_555
C26 C20 1_555 1_555
H51 C26 1_555 1_555
H52 C26 1_555 1_555
C27 C23 1_555 1_555
H53 C27 1_555 1_555
H54 C27 1_555 1_555
C28 C22 1_555 1_555
H55 C28 1_555 1_555
H56 C28 1_555 1_555
H57 C28 1_555 1_555
C29 H58 1_555 1_555
H59 C29 1_555 1_555
H60 C29 1_555 1_555
C30 C27 1_555 1_555
H61 C30 1_555 1_555
H62 C30 1_555 1_555
C5 C6 1_555 1_555
N2 C13 1_555 1_555
C7 C9 1_555 1_555
C8 C10 1_555 1_555
B2 B3 1_555 1_555
B2 B6 1_555 1_555
B2 B7 1_555 1_555
B3 B4 1_555 1_555
B3 B6 1_555 1_555
B3 B7 1_555 1_555
B4 B6 1_555 1_555
B4 B12 1_555 1_555
B5 B6 1_555 1_555
B5 B9 1_555 1_555
B5 B10 1_555 1_555
B6 B10 1_555 1_555
B7 B8 1_555 1_555
B7 B9 1_555 1_555
B8 B9 1_555 1_555
B8 B11 1_555 1_555
B8 B12 1_555 1_555
B9 B11 1_555 1_555
B10 B11 1_555 1_555
B10 B12 1_555 1_555
B11 B12 1_555 1_555
O1 C13 1_555 1_555
C18 C19 1_555 1_555
C20 C21 1_555 1_555
C24 C26 1_555 1_555
C29 C30 1_555 1_555

#END
