
#######################################################################
#
#                 Cambridge Crystallographic Data Centre
#                                CCDC 
#
#######################################################################
#
# If this CIF has been generated from an entry in the Cambridge 
# Structural Database, then it will include bibliographic, chemical, 
# crystal, experimental, refinement or atomic coordinate data resulting 
# from the CCDC's data processing and validation procedures.
#
#######################################################################

data_OZAQIR
_chemical_formula_moiety         
'2(C19 H18 P1 1+),C3 H18 B12 N2 O1 2-,C1 H2 Cl2'
_chemical_name_systematic        
'bis(methyl(triphenyl)phosphonium) 1-(dimethylaminocarbonylamino)-closo-dodecaborate dichloromethane solvate'
_symmetry_cell_setting           triclinic
_symmetry_space_group_name_H-M   'P -1'
_symmetry_Int_Tables_number      2
_space_group_name_Hall           '-P 1'
loop_
_symmetry_equiv_pos_site_id
_symmetry_equiv_pos_as_xyz
1 x,y,z
2 -x,-y,-z
_cell_length_a                   11.2585(7)
_cell_length_b                   13.2803(11)
_cell_length_c                   17.1120(14)
_cell_angle_alpha                96.778(7)
_cell_angle_beta                 105.409(7)
_cell_angle_gamma                105.048(7)
_cell_volume                     2333.42
_exptl_crystal_colour            colorless
_exptl_crystal_description       block
_cell_formula_units_Z            2
loop_
_atom_site_label
_atom_site_type_symbol
_atom_site_fract_x
_atom_site_fract_y
_atom_site_fract_z
P1 P 0.94279(7) 0.75655(6) 0.31857(5)
C1 C 1.0427(3) 0.6814(3) 0.36442(19)
H1 H 0.9884 0.6142 0.3710
H2 H 1.1010 0.7222 0.4187
H3 H 1.0938 0.6665 0.3287
C2 C 1.0426(3) 0.8804(2) 0.30694(18)
C3 C 1.1720(3) 0.8961(3) 0.3156(2)
H4 H 1.2112 0.8429 0.3307
C4 C 1.2446(4) 0.9914(3) 0.3020(2)
H5 H 1.3339 1.0032 0.3083
C5 C 1.1879(5) 1.0681(3) 0.2794(2)
H6 H 1.2381 1.1325 0.2702
C6 C 1.0597(5) 1.0520(3) 0.2701(2)
H7 H 1.0211 1.1052 0.2546
C7 C 0.9862(4) 0.9588(3) 0.2832(2)
H8 H 0.8969 0.9478 0.2761
C8 C 0.8370(3) 0.6835(2) 0.21904(17)
C9 C 0.8814(3) 0.6213(2) 0.16904(19)
H9 H 0.9652 0.6140 0.1891
C10 C 0.8031(3) 0.5706(3) 0.0904(2)
H10 H 0.8336 0.5290 0.0559
C11 C 0.6804(3) 0.5797(3) 0.0611(2)
H11 H 0.6269 0.5444 0.0067
C12 C 0.6354(3) 0.6406(3) 0.1114(2)
H12 H 0.5506 0.6461 0.0915
C13 C 0.7130(3) 0.6927(2) 0.18990(19)
H13 H 0.6825 0.7348 0.2241
C14 C 0.8470(3) 0.7809(3) 0.38317(18)
C15 C 0.7459(3) 0.6956(3) 0.3856(2)
H14 H 0.7265 0.6280 0.3515
C16 C 0.6735(3) 0.7096(3) 0.4379(2)
H15 H 0.6045 0.6517 0.4396
C17 C 0.7023(3) 0.8082(4) 0.4873(2)
H16 H 0.6535 0.8178 0.5236
C18 C 0.8002(4) 0.8918(3) 0.4845(2)
H17 H 0.8183 0.9593 0.5185
C19 C 0.8743(3) 0.8797(3) 0.4325(2)
H18 H 0.9424 0.9384 0.4309
P2 P 0.26069(8) 0.83853(6) 0.04246(5)
C20 C 0.1272(3) 0.7508(3) 0.0626(2)
H19 H 0.0551 0.7221 0.0111
H20 H 0.1001 0.7900 0.1033
H21 H 0.1533 0.6922 0.0843
C21 C 0.3938(3) 0.8926(2) 0.13503(19)
C22 C 0.4155(3) 0.8336(3) 0.1969(2)
H22 H 0.3589 0.7640 0.1902
C23 C 0.5197(3) 0.8769(3) 0.2678(2)
H23 H 0.5341 0.8371 0.3101
C24 C 0.6026(3) 0.9772(3) 0.2777(2)
H24 H 0.6752 1.0057 0.3261
C25 C 0.5805(4) 1.0364(3) 0.2172(2)
H25 H 0.6372 1.1061 0.2247
C26 C 0.4773(3) 0.9954(3) 0.1465(2)
H26 H 0.4625 1.0367 0.1053
C27 C 0.3072(3) 0.7711(2) -0.03553(19)
C28 C 0.4361(3) 0.7785(2) -0.0254(2)
H27 H 0.5008 0.8160 0.0252
C29 C 0.4699(3) 0.7312(3) -0.0889(2)
H28 H 0.5578 0.7353 -0.0817
C30 C 0.3767(3) 0.6782(3) -0.1628(2)
H29 H 0.4007 0.6470 -0.2067
C31 C 0.2487(3) 0.6701(3) -0.1733(2)
H30 H 0.1847 0.6330 -0.2243
C32 C 0.2130(3) 0.7160(2) -0.1096(2)
H31 H 0.1246 0.7098 -0.1165
C33 C 0.2176(3) 0.9500(2) 0.00714(19)
C34 C 0.2397(3) 0.9804(3) -0.0634(2)
H32 H 0.2691 0.9372 -0.0976
C35 C 0.2194(4) 1.0734(3) -0.0846(2)
H33 H 0.2361 1.0946 -0.1327
C36 C 0.1750(3) 1.1352(3) -0.0356(2)
H34 H 0.1599 1.1985 -0.0505
C37 C 0.1524(3) 1.1056(3) 0.0351(2)
H35 H 0.1224 1.1487 0.0689
C38 C 0.1735(3) 1.0131(3) 0.0568(2)
H36 H 0.1580 0.9926 0.1054
O1 O 1.3649(2) 0.76628(19) 0.38130(15)
N1 N 1.3390(3) 0.5970(2) 0.40277(16)
H37 H 1.3424 0.5587 0.4414
N2 N 1.3868(3) 0.7394(3) 0.51127(18)
C39 C 1.3631(3) 0.7025(3) 0.42853(19)
C40 C 1.3980(6) 0.6719(4) 0.5718(3)
H38 H 1.3117 0.6267 0.5678
H39 H 1.4389 0.7163 0.6274
H40 H 1.4509 0.6270 0.5611
C41 C 1.4061(4) 0.8502(3) 0.5372(3)
H41 H 1.4880 0.8814 0.5820
H42 H 1.3348 0.8595 0.5570
H43 H 1.4088 0.8859 0.4904
B1 B 1.3071(3) 0.5373(3) 0.3158(2)
B2 B 1.3880(3) 0.5783(3) 0.2431(2)
H44 H 1.4677 0.6553 0.2586
B3 B 1.2219(3) 0.5734(3) 0.2254(2)
H45 H 1.1916 0.6473 0.2291
B4 B 1.1432(3) 0.4593(3) 0.2587(2)
H46 H 1.0608 0.4576 0.2840
B5 B 1.2616(3) 0.3949(3) 0.2984(2)
H47 H 1.2581 0.3516 0.3504
B6 B 1.4115(3) 0.4680(3) 0.2869(2)
H48 H 1.5069 0.4723 0.3311
B7 B 1.3896(4) 0.4625(3) 0.1804(2)
H49 H 1.4702 0.4629 0.1535
B8 B 1.2744(3) 0.5286(3) 0.1426(2)
H50 H 1.2791 0.5733 0.0914
B9 B 1.1245(3) 0.4549(3) 0.1520(2)
H51 H 1.0301 0.4506 0.1067
B10 B 1.1486(3) 0.3441(3) 0.1978(2)
H52 H 1.0701 0.2666 0.1831
B11 B 1.3128(4) 0.3491(3) 0.2149(2)
H53 H 1.3426 0.2749 0.2115
B12 B 1.2285(4) 0.3867(3) 0.1251(2)
H54 H 1.2023 0.3371 0.0619
Cl1 Cl 1.11402(14) 0.80557(14) 0.61155(11)
Cl2 Cl 0.94547(19) 0.58909(11) 0.54247(9)
C42 C 0.9736(4) 0.7094(3) 0.6065(3)
H55 H 0.8994 0.7367 0.5868
H56 H 0.9780 0.6970 0.6630
loop_
_geom_bond_atom_site_label_1
_geom_bond_atom_site_label_2
_geom_bond_site_symmetry_1
_geom_bond_site_symmetry_2
P1 C1 1_555 1_555
C1 H1 1_555 1_555
H2 C1 1_555 1_555
H3 C1 1_555 1_555
C2 P1 1_555 1_555
C3 C2 1_555 1_555
H4 C3 1_555 1_555
C4 C3 1_555 1_555
H5 C4 1_555 1_555
C5 C4 1_555 1_555
H6 C5 1_555 1_555
C6 C5 1_555 1_555
H7 C6 1_555 1_555
C7 C2 1_555 1_555
H8 C7 1_555 1_555
C8 P1 1_555 1_555
C9 C8 1_555 1_555
H9 C9 1_555 1_555
C10 C9 1_555 1_555
H10 C10 1_555 1_555
C11 C10 1_555 1_555
H11 C11 1_555 1_555
C12 C11 1_555 1_555
H12 C12 1_555 1_555
C13 C8 1_555 1_555
H13 C13 1_555 1_555
C14 P1 1_555 1_555
C15 C14 1_555 1_555
H14 C15 1_555 1_555
C16 C15 1_555 1_555
H15 C16 1_555 1_555
C17 C16 1_555 1_555
H16 C17 1_555 1_555
C18 C17 1_555 1_555
H17 C18 1_555 1_555
C19 C14 1_555 1_555
H18 C19 1_555 1_555
P2 C20 1_555 1_555
C20 H19 1_555 1_555
H20 C20 1_555 1_555
H21 C20 1_555 1_555
C21 P2 1_555 1_555
C22 C21 1_555 1_555
H22 C22 1_555 1_555
C23 C22 1_555 1_555
H23 C23 1_555 1_555
C24 C23 1_555 1_555
H24 C24 1_555 1_555
C25 C24 1_555 1_555
H25 C25 1_555 1_555
C26 C21 1_555 1_555
H26 C26 1_555 1_555
C27 P2 1_555 1_555
C28 C27 1_555 1_555
H27 C28 1_555 1_555
C29 C28 1_555 1_555
H28 C29 1_555 1_555
C30 C29 1_555 1_555
H29 C30 1_555 1_555
C31 C30 1_555 1_555
H30 C31 1_555 1_555
C32 C27 1_555 1_555
H31 C32 1_555 1_555
C33 P2 1_555 1_555
C34 C33 1_555 1_555
H32 C34 1_555 1_555
C35 C34 1_555 1_555
H33 C35 1_555 1_555
C36 C35 1_555 1_555
H34 C36 1_555 1_555
C37 C36 1_555 1_555
H35 C37 1_555 1_555
C38 C33 1_555 1_555
H36 C38 1_555 1_555
O1 C39 1_555 1_555
N1 H37 1_555 1_555
N2 C39 1_555 1_555
C39 N1 1_555 1_555
C40 N2 1_555 1_555
H38 C40 1_555 1_555
H39 C40 1_555 1_555
H40 C40 1_555 1_555
C41 N2 1_555 1_555
H41 C41 1_555 1_555
H42 C41 1_555 1_555
H43 C41 1_555 1_555
B1 N1 1_555 1_555
B2 B1 1_555 1_555
H44 B2 1_555 1_555
B3 B1 1_555 1_555
H45 B3 1_555 1_555
B4 B1 1_555 1_555
H46 B4 1_555 1_555
B5 B1 1_555 1_555
H47 B5 1_555 1_555
B6 B1 1_555 1_555
H48 B6 1_555 1_555
B7 B2 1_555 1_555
H49 B7 1_555 1_555
B8 B2 1_555 1_555
H50 B8 1_555 1_555
B9 B3 1_555 1_555
H51 B9 1_555 1_555
B10 B4 1_555 1_555
H52 B10 1_555 1_555
B11 B5 1_555 1_555
H53 B11 1_555 1_555
B12 B7 1_555 1_555
H54 B12 1_555 1_555
Cl1 C42 1_555 1_555
Cl2 C42 1_555 1_555
C42 H55 1_555 1_555
H56 C42 1_555 1_555
C6 C7 1_555 1_555
C12 C13 1_555 1_555
C18 C19 1_555 1_555
C25 C26 1_555 1_555
C31 C32 1_555 1_555
C37 C38 1_555 1_555
B2 B3 1_555 1_555
B2 B6 1_555 1_555
B3 B4 1_555 1_555
B3 B8 1_555 1_555
B4 B5 1_555 1_555
B4 B9 1_555 1_555
B5 B6 1_555 1_555
B5 B10 1_555 1_555
B6 B7 1_555 1_555
B6 B11 1_555 1_555
B7 B8 1_555 1_555
B7 B11 1_555 1_555
B8 B9 1_555 1_555
B8 B12 1_555 1_555
B9 B10 1_555 1_555
B9 B12 1_555 1_555
B10 B11 1_555 1_555
B10 B12 1_555 1_555
B11 B12 1_555 1_555

#END
