
#######################################################################
#
#                 Cambridge Crystallographic Data Centre
#                                CCDC 
#
#######################################################################
#
# If this CIF has been generated from an entry in the Cambridge 
# Structural Database, then it will include bibliographic, chemical, 
# crystal, experimental, refinement or atomic coordinate data resulting 
# from the CCDC's data processing and validation procedures.
#
#######################################################################

data_OZAQAJ
_chemical_formula_moiety         'C12 H25 B12 N2 O1 1-,C16 H36 N1 1+'
_chemical_name_systematic        
'tetra-n-butylammonium 1,2-((dimethylamino)(iminio)methoxy)-3-(1-phenylpropen-2-yl)-closo-dodecaborate'
_symmetry_cell_setting           triclinic
_symmetry_space_group_name_H-M   'P -1'
_symmetry_Int_Tables_number      2
_space_group_name_Hall           '-P 1'
loop_
_symmetry_equiv_pos_site_id
_symmetry_equiv_pos_as_xyz
1 x,y,z
2 -x,-y,-z
_cell_length_a                   10.4165(6)
_cell_length_b                   12.4906(7)
_cell_length_c                   15.1133(8)
_cell_angle_alpha                101.413(5)
_cell_angle_beta                 97.425(5)
_cell_angle_gamma                107.212(5)
_cell_volume                     1803.76
_exptl_crystal_colour            colorless
_exptl_crystal_description       block
_cell_formula_units_Z            2
loop_
_atom_site_label
_atom_site_type_symbol
_atom_site_fract_x
_atom_site_fract_y
_atom_site_fract_z
N1 N 0.04664(14) 0.72828(11) 0.36808(9)
C1 C 0.16751(18) 0.79035(14) 0.32938(11)
H1 H 0.2101 0.7334 0.3032
H2 H 0.1323 0.8194 0.2783
C2 C 0.2777(2) 0.89093(16) 0.39845(13)
H3 H 0.3038 0.8660 0.4544
H4 H 0.2409 0.9548 0.4167
C3 C 0.40451(19) 0.93428(16) 0.35758(13)
H5 H 0.4782 0.9928 0.4067
H6 H 0.4372 0.8687 0.3363
C4 C 0.3797(2) 0.98703(18) 0.27803(15)
H7 H 0.3125 0.9279 0.2269
H8 H 0.4661 1.0168 0.2577
H9 H 0.3445 1.0506 0.2978
C5 C -0.03136(18) 0.81030(14) 0.39743(11)
H10 H 0.0296 0.8754 0.4486
H11 H -0.0538 0.8428 0.3451
C6 C -0.16282(18) 0.75563(15) 0.42829(12)
H12 H -0.1416 0.7232 0.4809
H13 H -0.2253 0.6912 0.3773
C7 C -0.23420(18) 0.84337(15) 0.45691(12)
H14 H -0.1706 0.9089 0.5066
H15 H -0.2578 0.8741 0.4037
C8 C -0.3638(2) 0.79028(17) 0.49055(14)
H16 H -0.4266 0.7248 0.4418
H17 H -0.4081 0.8486 0.5066
H18 H -0.3402 0.7632 0.5451
C9 C 0.09554(18) 0.68988(15) 0.45193(11)
H19 H 0.1427 0.7596 0.5032
H20 H 0.0142 0.6429 0.4709
C10 C 0.1915(2) 0.62030(16) 0.43846(13)
H21 H 0.1448 0.5488 0.3888
H22 H 0.2736 0.6661 0.4195
C11 C 0.2351(2) 0.58873(18) 0.52653(14)
H23 H 0.1528 0.5421 0.5448
H24 H 0.2798 0.6604 0.5763
C12 C 0.3333(2) 0.52078(18) 0.51601(16)
H25 H 0.2899 0.4502 0.4663
H26 H 0.3564 0.5000 0.5738
H27 H 0.4171 0.5682 0.5011
C13 C -0.04479(19) 0.62159(15) 0.29370(11)
H28 H 0.0131 0.5764 0.2710
H29 H -0.1118 0.5728 0.3225
C14 C -0.1231(2) 0.64385(17) 0.21160(12)
H30 H -0.1757 0.6947 0.2332
H31 H -0.0578 0.6838 0.1770
C15 C -0.2203(3) 0.5311(2) 0.14898(18)
H32 H -0.1655 0.4879 0.1186
H33 H -0.2700 0.4842 0.1874
C16 C -0.3235(3) 0.5426(3) 0.07604(17)
H34 H -0.3741 0.4663 0.0345
H35 H -0.2762 0.5945 0.0409
H36 H -0.3876 0.5745 0.1049
O1 O 0.21558(11) 0.20706(9) 0.26244(7)
N2 N 0.14411(14) 0.11060(12) 0.11197(9)
H37 H 0.1549 0.0822 0.0564
N3 N 0.37828(14) 0.20596(13) 0.17623(9)
C17 C 0.24685(16) 0.17426(14) 0.18157(11)
C18 C 0.48363(18) 0.28230(17) 0.25485(12)
H38 H 0.5256 0.3568 0.2410
H39 H 0.5541 0.2469 0.2675
H40 H 0.4421 0.2947 0.3089
C19 C 0.42103(19) 0.1711(2) 0.08996(13)
H41 H 0.3702 0.0891 0.0613
H42 H 0.5196 0.1828 0.1024
H43 H 0.4020 0.2178 0.0482
C20 C 0.06341(17) 0.33767(14) 0.14457(11)
C21 C 0.16531(17) 0.42508(14) 0.20310(11)
H44 H 0.1812 0.4169 0.2643
C22 C 0.25707(18) 0.53238(14) 0.18779(11)
C23 C 0.21621(19) 0.59548(15) 0.12975(12)
H45 H 0.1234 0.5701 0.0982
C24 C 0.3083(2) 0.69447(16) 0.11718(13)
H46 H 0.2783 0.7353 0.0766
C25 C 0.4436(2) 0.73420(16) 0.16326(13)
H47 H 0.5073 0.8008 0.1533
C26 C 0.4845(2) 0.67593(16) 0.22363(14)
H48 H 0.5765 0.7039 0.2570
C27 C 0.39322(19) 0.57704(15) 0.23628(13)
H49 H 0.4235 0.5386 0.2788
C28 C 0.0251(2) 0.33337(18) 0.04369(13)
H50 H -0.0646 0.3438 0.0314
H51 H 0.0206 0.2583 0.0062
H52 H 0.0943 0.3953 0.0281
B1 B 0.06409(18) 0.16797(16) 0.25371(12)
B2 B 0.00562(19) 0.09253(16) 0.13946(12)
B3 B -0.02123(19) 0.22876(16) 0.17694(12)
B4 B -0.05210(19) 0.23632(17) 0.29123(13)
H53 H -0.0189 0.3206 0.3446
B5 B -0.0490(2) 0.10467(18) 0.32139(13)
H54 H -0.0138 0.1034 0.3943
B6 B -0.0151(2) 0.01552(17) 0.22672(12)
H55 H 0.0425 -0.0450 0.2381
B7 B -0.14819(19) -0.02229(17) 0.12909(13)
H56 H -0.1779 -0.1066 0.0761
B8 B -0.15278(19) 0.10908(16) 0.09824(12)
H57 H -0.1860 0.1101 0.0250
B9 B -0.19019(19) 0.19782(17) 0.19379(13)
H58 H -0.2499 0.2571 0.1834
B10 B -0.2084(2) 0.12238(18) 0.28281(13)
H59 H -0.2797 0.1325 0.3309
B11 B -0.1847(2) -0.01299(17) 0.24244(13)
H60 H -0.2409 -0.0920 0.2638
B12 B -0.26960(19) 0.04400(17) 0.16362(13)
H61 H -0.3817 0.0023 0.1329
loop_
_geom_bond_atom_site_label_1
_geom_bond_atom_site_label_2
_geom_bond_site_symmetry_1
_geom_bond_site_symmetry_2
N1 C1 1_555 1_555
C1 H1 1_555 1_555
H2 C1 1_555 1_555
C2 C1 1_555 1_555
H3 C2 1_555 1_555
H4 C2 1_555 1_555
C3 C2 1_555 1_555
H5 C3 1_555 1_555
H6 C3 1_555 1_555
C4 C3 1_555 1_555
H7 C4 1_555 1_555
H8 C4 1_555 1_555
H9 C4 1_555 1_555
C5 N1 1_555 1_555
H10 C5 1_555 1_555
H11 C5 1_555 1_555
C6 C5 1_555 1_555
H12 C6 1_555 1_555
H13 C6 1_555 1_555
C7 C6 1_555 1_555
H14 C7 1_555 1_555
H15 C7 1_555 1_555
C8 C7 1_555 1_555
H16 C8 1_555 1_555
H17 C8 1_555 1_555
H18 C8 1_555 1_555
C9 N1 1_555 1_555
H19 C9 1_555 1_555
H20 C9 1_555 1_555
C10 C9 1_555 1_555
H21 C10 1_555 1_555
H22 C10 1_555 1_555
C11 C10 1_555 1_555
H23 C11 1_555 1_555
H24 C11 1_555 1_555
C12 C11 1_555 1_555
H25 C12 1_555 1_555
H26 C12 1_555 1_555
H27 C12 1_555 1_555
C13 N1 1_555 1_555
H28 C13 1_555 1_555
H29 C13 1_555 1_555
C14 C13 1_555 1_555
H30 C14 1_555 1_555
H31 C14 1_555 1_555
C15 C14 1_555 1_555
H32 C15 1_555 1_555
H33 C15 1_555 1_555
C16 C15 1_555 1_555
H34 C16 1_555 1_555
H35 C16 1_555 1_555
H36 C16 1_555 1_555
O1 C17 1_555 1_555
N2 H37 1_555 1_555
N3 C17 1_555 1_555
C17 N2 1_555 1_555
C18 N3 1_555 1_555
H38 C18 1_555 1_555
H39 C18 1_555 1_555
H40 C18 1_555 1_555
C19 N3 1_555 1_555
H41 C19 1_555 1_555
H42 C19 1_555 1_555
H43 C19 1_555 1_555
C20 C21 1_555 1_555
C21 H44 1_555 1_555
C22 C21 1_555 1_555
C23 C22 1_555 1_555
H45 C23 1_555 1_555
C24 C23 1_555 1_555
H46 C24 1_555 1_555
C25 C24 1_555 1_555
H47 C25 1_555 1_555
C26 C25 1_555 1_555
H48 C26 1_555 1_555
C27 C22 1_555 1_555
H49 C27 1_555 1_555
C28 C20 1_555 1_555
H50 C28 1_555 1_555
H51 C28 1_555 1_555
H52 C28 1_555 1_555
B1 O1 1_555 1_555
B2 N2 1_555 1_555
B3 C20 1_555 1_555
B4 B1 1_555 1_555
H53 B4 1_555 1_555
B5 B1 1_555 1_555
H54 B5 1_555 1_555
B6 B1 1_555 1_555
H55 B6 1_555 1_555
B7 B2 1_555 1_555
H56 B7 1_555 1_555
B8 B2 1_555 1_555
H57 B8 1_555 1_555
B9 B3 1_555 1_555
H58 B9 1_555 1_555
B10 B4 1_555 1_555
H59 B10 1_555 1_555
B11 B5 1_555 1_555
H60 B11 1_555 1_555
B12 B7 1_555 1_555
H61 B12 1_555 1_555
C26 C27 1_555 1_555
B1 B2 1_555 1_555
B1 B3 1_555 1_555
B2 B3 1_555 1_555
B2 B6 1_555 1_555
B3 B4 1_555 1_555
B3 B8 1_555 1_555
B4 B5 1_555 1_555
B4 B9 1_555 1_555
B5 B6 1_555 1_555
B5 B10 1_555 1_555
B6 B7 1_555 1_555
B6 B11 1_555 1_555
B7 B8 1_555 1_555
B7 B11 1_555 1_555
B8 B9 1_555 1_555
B8 B12 1_555 1_555
B9 B10 1_555 1_555
B9 B12 1_555 1_555
B10 B11 1_555 1_555
B10 B12 1_555 1_555
B11 B12 1_555 1_555

#END
