
#######################################################################
#
#                 Cambridge Crystallographic Data Centre
#                                CCDC 
#
#######################################################################
#
# If this CIF has been generated from an entry in the Cambridge 
# Structural Database, then it will include bibliographic, chemical, 
# crystal, experimental, refinement or atomic coordinate data resulting 
# from the CCDC's data processing and validation procedures.
#
#######################################################################

data_OZAXIY
_chemical_formula_moiety         'C16 H11 Cl1 N2 O5'
_chemical_name_systematic        
2-(2-chlorophenyl)-3-(2,4-dinitrophenyl)cyclopropanecarbaldehyde
_symmetry_cell_setting           orthorhombic
_symmetry_space_group_name_H-M   'P 21 21 21'
_symmetry_Int_Tables_number      19
_space_group_name_Hall           'P 2ac 2ab'
loop_
_symmetry_equiv_pos_site_id
_symmetry_equiv_pos_as_xyz
1 x,y,z
2 1/2-x,-y,1/2+z
3 -x,1/2+y,1/2-z
4 1/2+x,1/2-y,-z
_cell_length_a                   8.3684(10)
_cell_length_b                   13.3489(16)
_cell_length_c                   14.2855(17)
_cell_angle_alpha                90
_cell_angle_beta                 90
_cell_angle_gamma                90
_cell_volume                     1595.82
_exptl_crystal_colour            red
_exptl_crystal_description       prismatic
_cell_formula_units_Z            4
loop_
_atom_site_label
_atom_site_type_symbol
_atom_site_fract_x
_atom_site_fract_y
_atom_site_fract_z
Cl1 Cl -0.26822(12) 0.03832(7) 0.51365(8)
N1 N 0.4593(4) 0.2033(2) 0.18496(18)
N2 N -0.0568(3) 0.0816(2) 0.28643(19)
O1 O -0.0148(3) -0.29912(14) 0.43252(15)
O2 O 0.5964(4) 0.1857(3) 0.16671(18)
O3 O 0.3916(4) 0.2817(2) 0.1663(2)
O4 O -0.1436(3) 0.0104(2) 0.2754(2)
O5 O -0.1015(3) 0.1670(2) 0.2999(2)
C1 C 0.1115(3) -0.2653(2) 0.4544(2)
H1 H 0.1875 -0.3092 0.4784
C2 C 0.1558(3) -0.15927(18) 0.44628(18)
H2 H 0.2636 -0.1409 0.4669
C3 C 0.0882(3) -0.10118(17) 0.36562(17)
H3 H 0.0165 -0.1394 0.3248
C4 C 0.0251(3) -0.08293(18) 0.46285(18)
H4 H -0.0804 -0.1121 0.4747
C5 C 0.0541(4) 0.01338(19) 0.51194(18)
C6 C 0.2058(4) 0.0479(2) 0.5343(2)
H5 H 0.2936 0.0078 0.5204
C7 C 0.2309(6) 0.1396(3) 0.5762(2)
H6 H 0.3341 0.1605 0.5904
C8 C 0.1039(7) 0.1993(3) 0.5968(3)
H7 H 0.1208 0.2620 0.6235
C9 C -0.0488(6) 0.1677(3) 0.5785(3)
H8 H -0.1355 0.2079 0.5943
C10 C -0.0731(4) 0.0755(2) 0.5363(2)
C11 C 0.1843(3) -0.02316(18) 0.31715(16)
C12 C 0.3486(3) -0.0320(2) 0.30822(19)
H9 H 0.3989 -0.0886 0.3321
C13 C 0.4402(3) 0.0406(2) 0.26498(19)
H10 H 0.5499 0.0324 0.2582
C14 C 0.3659(3) 0.1247(2) 0.23241(17)
C15 C 0.2057(3) 0.1394(2) 0.24092(18)
H11 H 0.1575 0.1980 0.2198
C16 C 0.1177(3) 0.0644(2) 0.28199(17)
loop_
_geom_bond_atom_site_label_1
_geom_bond_atom_site_label_2
_geom_bond_site_symmetry_1
_geom_bond_site_symmetry_2
Cl1 C10 1_555 1_555
N1 O2 1_555 1_555
N2 O4 1_555 1_555
O1 C1 1_555 1_555
O3 N1 1_555 1_555
O5 N2 1_555 1_555
C1 H1 1_555 1_555
C2 C1 1_555 1_555
H2 C2 1_555 1_555
C3 C2 1_555 1_555
H3 C3 1_555 1_555
C4 C2 1_555 1_555
H4 C4 1_555 1_555
C5 C4 1_555 1_555
C6 C5 1_555 1_555
H5 C6 1_555 1_555
C7 C6 1_555 1_555
H6 C7 1_555 1_555
C8 C7 1_555 1_555
H7 C8 1_555 1_555
C9 C8 1_555 1_555
H8 C9 1_555 1_555
C10 C5 1_555 1_555
C11 C3 1_555 1_555
C12 C11 1_555 1_555
H9 C12 1_555 1_555
C13 C12 1_555 1_555
H10 C13 1_555 1_555
C14 N1 1_555 1_555
C15 C14 1_555 1_555
H11 C15 1_555 1_555
C16 N2 1_555 1_555
C3 C4 1_555 1_555
C9 C10 1_555 1_555
C11 C16 1_555 1_555
C13 C14 1_555 1_555
C15 C16 1_555 1_555

#END
