
#######################################################################
#
#                 Cambridge Crystallographic Data Centre
#                                CCDC 
#
#######################################################################
#
# If this CIF has been generated from an entry in the Cambridge 
# Structural Database, then it will include bibliographic, chemical, 
# crystal, experimental, refinement or atomic coordinate data resulting 
# from the CCDC's data processing and validation procedures.
#
#######################################################################

data_OZEJEK
_chemical_formula_moiety         'C31 H32 Br1 Cl1 N6 O3,H2 O1'
_chemical_name_systematic        
'ethyl 3-((1-(3-((4-bromobenzyl)oxy)phenyl)-1H-tetrazol-5-yl)(pentylamino)methyl)-6-chloro-1H-indole-2-carboxylate monohydrate'
_symmetry_cell_setting           triclinic
_symmetry_space_group_name_H-M   'P -1'
_symmetry_Int_Tables_number      2
_space_group_name_Hall           '-P 1'
loop_
_symmetry_equiv_pos_site_id
_symmetry_equiv_pos_as_xyz
1 x,y,z
2 -x,-y,-z
_cell_length_a                   8.9485(3)
_cell_length_b                   13.4222(7)
_cell_length_c                   13.7308(6)
_cell_angle_alpha                96.887(4)
_cell_angle_beta                 95.518(3)
_cell_angle_gamma                106.917(4)
_cell_volume                     1551.46
_exptl_crystal_colour            white
_exptl_crystal_description       block
_chemical_melting_point          '197 deg.C'
_cell_formula_units_Z            2
loop_
_atom_site_label
_atom_site_type_symbol
_atom_site_fract_x
_atom_site_fract_y
_atom_site_fract_z
Br1 Br 0.17988(5) 0.59677(3) 0.26650(3)
Cl1 Cl 0.90926(9) 0.29748(6) 0.11955(5)
N1 N 0.4899(2) 0.13218(17) -0.38211(14)
N2 N 0.5897(3) 0.18794(19) -0.43906(15)
N3 N 0.6929(3) 0.13913(19) -0.45215(16)
N4 N 0.6628(2) 0.05151(19) -0.40652(15)
N5 N 0.5212(3) -0.11961(19) -0.30979(18)
N6 N 0.3616(3) 0.07186(17) -0.06500(15)
H1 H 0.3002 0.0819 -0.0229
O1 O 0.2109(2) 0.30161(16) -0.16039(14)
O2 O 0.0470(2) -0.02509(17) -0.13635(15)
O3 O 0.1122(2) -0.10668(16) -0.27135(14)
C1 C 0.2312(3) 0.5209(2) 0.1556(2)
C2 C 0.2043(4) 0.5464(2) 0.0632(2)
H2 H 0.1606 0.6002 0.0544
C3 C 0.2435(4) 0.4908(2) -0.0169(2)
H3 H 0.2263 0.508 -0.0798
C4 C 0.3076(3) 0.4101(2) -0.0052(2)
C5 C 0.3307(3) 0.3851(2) 0.0895(2)
H4 H 0.3723 0.3305 0.0987
C6 C 0.2928(3) 0.4402(2) 0.1698(2)
H5 H 0.3087 0.423 0.2328
C7 C 0.3518(3) 0.3507(2) -0.0917(2)
H6 H 0.4297 0.3986 -0.1226
H7 H 0.3961 0.2979 -0.07
C8 C 0.2219(3) 0.2414(2) -0.24498(19)
C9 C 0.0803(3) 0.1945(2) -0.3080(2)
H8 H -0.0119 0.2065 -0.2912
C10 C 0.0766(3) 0.1308(2) -0.3945(2)
H9 H -0.0184 0.1003 -0.4361
C11 C 0.2124(3) 0.1111(2) -0.4212(2)
H10 H 0.2101 0.0679 -0.48
C12 C 0.3504(3) 0.1577(2) -0.35757(18)
C13 C 0.3597(3) 0.2235(2) -0.27010(19)
H11 H 0.4554 0.2549 -0.2293
C14 C 0.5359(3) 0.0486(2) -0.36409(17)
C15 C 0.4489(3) -0.0339(2) -0.30853(18)
H12 H 0.3401 -0.0636 -0.3419
C16 C 0.4446(3) 0.0139(2) -0.20423(18)
C17 C 0.5783(3) 0.0795(2) -0.13750(18)
C18 C 0.7415(3) 0.1132(2) -0.14160(19)
H13 H 0.7816 0.0915 -0.1976
C19 C 0.8414(3) 0.1787(2) -0.0616(2)
H14 H 0.9496 0.2012 -0.063
C20 C 0.7786(3) 0.2112(2) 0.02179(19)
C21 C 0.6209(3) 0.1810(2) 0.02987(19)
H15 H 0.5824 0.2038 0.0861
C22 C 0.5213(3) 0.1139(2) -0.05139(18)
C23 C 0.3143(3) 0.0108(2) -0.15664(18)
C24 C 0.1442(3) -0.0408(2) -0.1860(2)
C25 C -0.0529(3) -0.1633(3) -0.3064(2)
H16 H -0.1047 -0.1172 -0.3347
H17 H -0.1064 -0.1891 -0.252
C26 C -0.0578(4) -0.2542(3) -0.3837(3)
H18 H 0.0064 -0.2285 -0.4329
H19 H -0.1646 -0.2881 -0.4144
H20 H -0.0184 -0.3039 -0.353
C27 C 0.3990(4) -0.2222(2) -0.3182(2)
H21 H 0.3203 -0.2326 -0.3753
H22 H 0.3472 -0.2266 -0.2592
C28 C 0.4872(17) -0.3054(9) -0.330(3)
H23 H 0.528 -0.3047 -0.3929
H24 H 0.5763 -0.2865 -0.2778
C29 C 0.3807(11) -0.4175(6) -0.3254(7)
H25 H 0.4422 -0.4662 -0.3311
H26 H 0.3421 -0.4188 -0.2618
C30 C 0.2399(10) -0.4538(6) -0.4084(8)
H27 H 0.1716 -0.4099 -0.4001
H28 H 0.2763 -0.4489 -0.4725
C31 C 0.1522(12) -0.5666(6) -0.4015(9)
H29 H 0.0614 -0.5917 -0.4514
H30 H 0.1191 -0.5705 -0.3372
H31 H 0.2203 -0.6094 -0.4115
H32 H 0.564(4) -0.120(2) -0.360(2)
O4 O 0.2769(2) 0.12812(17) 0.12327(14)
H42 H 0.178(2) 0.101(4) 0.119(4)
H43 H 0.317(5) 0.122(5) 0.180(2)
C32? C 0.444(3) -0.3192(13) -0.334(4)
H33? H 0.5186 -0.3198 -0.2779
H34? H 0.4938 -0.3213 -0.393
C33? C 0.2896(17) -0.4216(8) -0.3445(8)
H35? H 0.2335 -0.4141 -0.2884
H36? H 0.2202 -0.4234 -0.4038
C34? C 0.3227(13) -0.5197(8) -0.3496(8)
H37? H 0.3702 -0.5227 -0.2839
H38? H 0.2218 -0.5747 -0.3626
C35? C 0.4171(15) -0.5485(8) -0.4159(6)
H39? H 0.3542 -0.5793 -0.4789
H40? H 0.4619 -0.5988 -0.3909
H41? H 0.5002 -0.4872 -0.4236
loop_
_geom_bond_atom_site_label_1
_geom_bond_atom_site_label_2
_geom_bond_site_symmetry_1
_geom_bond_site_symmetry_2
Br1 C1 1_555 1_555
Cl1 C20 1_555 1_555
N1 N2 1_555 1_555
N2 N3 1_555 1_555
N3 N4 1_555 1_555
N4 C14 1_555 1_555
N5 C15 1_555 1_555
N6 H1 1_555 1_555
O1 C7 1_555 1_555
O2 C24 1_555 1_555
O3 C24 1_555 1_555
C1 C2 1_555 1_555
C2 H2 1_555 1_555
C3 C2 1_555 1_555
H3 C3 1_555 1_555
C4 C3 1_555 1_555
C5 C4 1_555 1_555
H4 C5 1_555 1_555
C6 C1 1_555 1_555
H5 C6 1_555 1_555
C7 C4 1_555 1_555
H6 C7 1_555 1_555
H7 C7 1_555 1_555
C8 O1 1_555 1_555
C9 C8 1_555 1_555
H8 C9 1_555 1_555
C10 C9 1_555 1_555
H9 C10 1_555 1_555
C11 C10 1_555 1_555
H10 C11 1_555 1_555
C12 N1 1_555 1_555
C13 C8 1_555 1_555
H11 C13 1_555 1_555
C14 N1 1_555 1_555
C15 C14 1_555 1_555
H12 C15 1_555 1_555
C16 C15 1_555 1_555
C17 C16 1_555 1_555
C18 C17 1_555 1_555
H13 C18 1_555 1_555
C19 C18 1_555 1_555
H14 C19 1_555 1_555
C20 C19 1_555 1_555
C21 C20 1_555 1_555
H15 C21 1_555 1_555
C22 N6 1_555 1_555
C23 N6 1_555 1_555
C24 C23 1_555 1_555
C25 O3 1_555 1_555
H16 C25 1_555 1_555
H17 C25 1_555 1_555
C26 C25 1_555 1_555
H18 C26 1_555 1_555
H19 C26 1_555 1_555
H20 C26 1_555 1_555
C27 N5 1_555 1_555
H21 C27 1_555 1_555
H22 C27 1_555 1_555
C28 C27 1_555 1_555
H23 C28 1_555 1_555
H24 C28 1_555 1_555
C29 C28 1_555 1_555
H25 C29 1_555 1_555
H26 C29 1_555 1_555
C30 C29 1_555 1_555
H27 C30 1_555 1_555
H28 C30 1_555 1_555
C31 C30 1_555 1_555
H29 C31 1_555 1_555
H30 C31 1_555 1_555
H31 C31 1_555 1_555
H32 N5 1_555 1_555
O4 H42 1_555 1_555
H43 O4 1_555 1_555
C5 C6 1_555 1_555
C11 C12 1_555 1_555
C12 C13 1_555 1_555
C16 C23 1_555 1_555
C17 C22 1_555 1_555
C21 C22 1_555 1_555

#END
