
#######################################################################
#
#                 Cambridge Crystallographic Data Centre
#                                CCDC 
#
#######################################################################
#
# If this CIF has been generated from an entry in the Cambridge 
# Structural Database, then it will include bibliographic, chemical, 
# crystal, experimental, refinement or atomic coordinate data resulting 
# from the CCDC's data processing and validation procedures.
#
#######################################################################

data_OZORUR
_chemical_formula_moiety         'C76 H112 Li2 O6 P2'
_chemical_name_systematic        
'bis(\m~2~-4,6-di-t-butyl-2-((2-hydroxy-3,5-di-t-butylphenyl)(phenyl)phosphino)phenolato)-bis(diethyl ether)-di-lithium'
_symmetry_cell_setting           triclinic
_symmetry_space_group_name_H-M   'P -1'
_symmetry_Int_Tables_number      2
_space_group_name_Hall           '-P 1'
loop_
_symmetry_equiv_pos_site_id
_symmetry_equiv_pos_as_xyz
1 x,y,z
2 -x,-y,-z
_cell_length_a                   10.5366(5)
_cell_length_b                   11.1909(5)
_cell_length_c                   15.9578(9)
_cell_angle_alpha                83.121(2)
_cell_angle_beta                 89.630(2)
_cell_angle_gamma                76.706(2)
_cell_volume                     1817.61
_exptl_crystal_colour            colorless
_exptl_crystal_description       prism
_cell_formula_units_Z            1
loop_
_atom_site_label
_atom_site_type_symbol
_atom_site_fract_x
_atom_site_fract_y
_atom_site_fract_z
P1 P 0.7121(2) 0.34041(18) 0.38444(13)
O1 O 0.5889(6) 0.5612(5) 0.4555(3)
O2 O 0.5719(6) 0.2945(6) 0.2366(4)
H1 H 0.5557 0.3277 0.2797
O3 O 0.3813(7) 0.4832(6) 0.3278(4)
C1 C 0.6553(8) 0.5917(7) 0.3883(5)
C2 C 0.6545(7) 0.7148(7) 0.3588(5)
C3 C 0.5932(8) 0.8241(7) 0.4071(6)
C4 C 0.4439(9) 0.8365(8) 0.4121(6)
H2 H 0.4058 0.9048 0.4423
H3 H 0.4268 0.7617 0.4409
H4 H 0.4065 0.8508 0.3560
C5 C 0.6115(9) 0.9502(7) 0.3656(6)
H5 H 0.5707 1.0135 0.3992
H6 H 0.5723 0.9675 0.3101
H7 H 0.7029 0.9481 0.3618
C6 C 0.6570(10) 0.8028(8) 0.4954(6)
H8 H 0.6190 0.8706 0.5260
H9 H 0.7489 0.7972 0.4904
H10 H 0.6429 0.7272 0.5250
C7 C 0.7151(8) 0.7365(7) 0.2807(5)
H11 H 0.7138 0.8181 0.2599
C8 C 0.7768(8) 0.6436(7) 0.2327(5)
C9 C 0.8256(10) 0.6756(8) 0.1444(5)
C10 C 0.7063(11) 0.7401(11) 0.0868(6)
H12 H 0.7349 0.7606 0.0308
H13 H 0.6613 0.8143 0.1087
H14 H 0.6484 0.6855 0.0852
C11 C 0.9138(10) 0.7696(10) 0.1449(7)
H15 H 0.9430 0.7882 0.0888
H16 H 0.9879 0.7344 0.1819
H17 H 0.8649 0.8442 0.1644
C12 C 0.9012(13) 0.5638(9) 0.1069(7)
H18 H 0.9290 0.5891 0.0515
H19 H 0.8466 0.5067 0.1031
H20 H 0.9762 0.5244 0.1422
C13 C 0.7822(8) 0.5249(7) 0.2678(5)
H21 H 0.8271 0.4606 0.2394
C14 C 0.7240(8) 0.4949(7) 0.3435(5)
C15 C 0.8335(8) 0.2912(8) 0.4698(5)
C16 C 0.8942(10) 0.3717(10) 0.5063(6)
H22 H 0.8762 0.4549 0.4846
C17 C 0.9789(12) 0.3308(11) 0.5731(7)
H23 H 1.0155 0.3868 0.5976
C18 C 1.0116(10) 0.2056(11) 0.6056(7)
H24 H 1.0720 0.1774 0.6499
C19 C 0.9526(10) 0.1245(9) 0.5706(6)
H25 H 0.9723 0.0415 0.5928
C20 C 0.8649(9) 0.1638(8) 0.5035(5)
H26 H 0.8266 0.1076 0.4806
C21 C 0.7851(8) 0.2524(7) 0.2998(5)
C22 C 0.9193(9) 0.2038(7) 0.2955(5)
H27 H 0.9744 0.2076 0.3399
C23 C 0.9706(8) 0.1497(7) 0.2245(5)
C24 C 1.1188(8) 0.1007(8) 0.2142(6)
C25 C 1.1588(10) 0.1765(11) 0.1355(7)
H28 H 1.1090 0.1683 0.0873
H29 H 1.2500 0.1465 0.1260
H30 H 1.1423 0.2621 0.1444
C26 C 1.1998(9) 0.1151(10) 0.2890(7)
H31 H 1.1823 0.2007 0.2978
H32 H 1.2907 0.0866 0.2779
H33 H 1.1776 0.0672 0.3385
C27 C 1.1506(11) -0.0353(9) 0.2013(7)
H34 H 1.1006 -0.0467 0.1540
H35 H 1.1292 -0.0833 0.2511
H36 H 1.2419 -0.0619 0.1907
C28 C 0.8831(9) 0.1420(7) 0.1597(6)
H37 H 0.9170 0.1032 0.1133
C29 C 0.7500(9) 0.1889(7) 0.1616(5)
C30 C 0.6597(9) 0.1887(9) 0.0874(6)
C31 C 0.7372(12) 0.1249(11) 0.0149(6)
H38 H 0.6782 0.1253 -0.0308
H39 H 0.7791 0.0411 0.0357
H40 H 0.8018 0.1691 -0.0047
C32 C 0.5546(10) 0.1194(10) 0.1135(7)
H41 H 0.5004 0.1197 0.0653
H42 H 0.5023 0.1591 0.1563
H43 H 0.5948 0.0356 0.1354
C33 C 0.5998(12) 0.3230(10) 0.0496(7)
H44 H 0.5436 0.3230 0.0025
H45 H 0.6683 0.3629 0.0309
H46 H 0.5503 0.3668 0.0918
C34 C 0.7031(8) 0.2429(7) 0.2346(5)
C35 C 0.2876(11) 0.4229(10) 0.3018(8)
H47 H 0.3237 0.3352 0.3172
H48 H 0.2850 0.4366 0.2406
C36 C 0.156(3) 0.445(2) 0.327(2)
H49 H 0.1118 0.3920 0.3013
H50 H 0.1132 0.5300 0.3095
H51 H 0.1525 0.4285 0.3874
C37 C 0.302(4) 0.600(4) 0.200(3)
H52 H 0.3098 0.6722 0.1631
H53 H 0.2147 0.6121 0.2208
H54 H 0.3215 0.5291 0.1706
C38 C 0.393(4) 0.583(5) 0.271(4)
H55 H 0.4809 0.5691 0.2504
H56 H 0.3759 0.6566 0.2991
Li1 Li 0.4738(16) 0.4556(14) 0.4374(10)
P1A P 0.2879(2) 0.65959(18) 0.61556(13)
O1A O 0.4111(6) 0.4388(5) 0.5445(3)
O2A O 0.4281(6) 0.7055(6) 0.7634(4)
H1A H 0.4443 0.6723 0.7203
O3A O 0.6187(7) 0.5168(6) 0.6722(4)
C1A C 0.3447(8) 0.4083(7) 0.6117(5)
C2A C 0.3455(7) 0.2852(7) 0.6412(5)
C3A C 0.4068(8) 0.1759(7) 0.5929(6)
C4A C 0.5561(9) 0.1635(8) 0.5879(6)
H2A H 0.5942 0.0952 0.5577
H3A H 0.5732 0.2383 0.5591
H4A H 0.5935 0.1492 0.6440
C5A C 0.3885(9) 0.0498(7) 0.6344(6)
H5A H 0.4293 -0.0135 0.6008
H6A H 0.4277 0.0325 0.6899
H7A H 0.2971 0.0519 0.6382
C6A C 0.3430(10) 0.1972(8) 0.5046(6)
H8A H 0.3810 0.1294 0.4740
H9A H 0.2511 0.2028 0.5096
H10A H 0.3571 0.2728 0.4750
C7A C 0.2849(8) 0.2635(7) 0.7193(5)
H11A H 0.2862 0.1819 0.7401
C8A C 0.2232(8) 0.3564(7) 0.7673(5)
C9A C 0.1744(10) 0.3244(8) 0.8556(5)
C10A C 0.2937(11) 0.2599(11) 0.9132(6)
H12A H 0.2651 0.2394 0.9692
H13A H 0.3387 0.1857 0.8913
H14A H 0.3516 0.3145 0.9148
C11A C 0.0862(10) 0.2304(10) 0.8551(7)
H15A H 0.0570 0.2118 0.9112
H16A H 0.0121 0.2656 0.8181
H17A H 0.1351 0.1558 0.8356
C12A C 0.0988(13) 0.4362(9) 0.8931(7)
H18A H 0.0710 0.4109 0.9485
H19A H 0.1534 0.4933 0.8969
H20A H 0.0238 0.4756 0.8578
C13A C 0.2178(8) 0.4751(7) 0.7322(5)
H21A H 0.1729 0.5394 0.7606
C14A C 0.2760(8) 0.5051(7) 0.6565(5)
C15A C 0.1665(8) 0.7088(8) 0.5302(5)
C16A C 0.1058(10) 0.6283(10) 0.4937(6)
H22A H 0.1238 0.5451 0.5154
C17A C 0.0211(12) 0.6692(11) 0.4269(7)
H23A H -0.0155 0.6132 0.4024
C18A C -0.0116(10) 0.7944(11) 0.3944(7)
H24A H -0.0720 0.8226 0.3501
C19A C 0.0474(10) 0.8755(9) 0.4294(6)
H25A H 0.0277 0.9585 0.4072
C20A C 0.1351(9) 0.8362(8) 0.4965(5)
H26A H 0.1734 0.8924 0.5194
C21A C 0.2149(8) 0.7476(7) 0.7002(5)
C22A C 0.0807(9) 0.7962(7) 0.7045(5)
H27A H 0.0256 0.7924 0.6601
C23A C 0.0294(8) 0.8503(7) 0.7755(5)
C24A C -0.1188(8) 0.8993(8) 0.7858(6)
C25A C -0.1588(10) 0.8235(11) 0.8645(7)
H28A H -0.1090 0.8317 0.9127
H29A H -0.2500 0.8535 0.8740
H30A H -0.1423 0.7379 0.8556
C26A C -0.1998(9) 0.8849(10) 0.7110(7)
H31A H -0.1823 0.7993 0.7022
H32A H -0.2907 0.9134 0.7221
H33A H -0.1776 0.9328 0.6615
C27A C -0.1506(11) 1.0353(9) 0.7987(7)
H34A H -0.1006 1.0467 0.8460
H35A H -0.1292 1.0833 0.7489
H36A H -0.2419 1.0619 0.8093
C28A C 0.1169(9) 0.8580(7) 0.8403(6)
H37A H 0.0830 0.8968 0.8867
C29A C 0.2500(9) 0.8111(7) 0.8384(5)
C30A C 0.3403(9) 0.8113(9) 0.9126(6)
C31A C 0.2628(12) 0.8751(11) 0.9851(6)
H38A H 0.3218 0.8747 1.0308
H39A H 0.2209 0.9589 0.9643
H40A H 0.1982 0.8309 1.0047
C32A C 0.4454(10) 0.8806(10) 0.8865(7)
H41A H 0.4996 0.8803 0.9347
H42A H 0.4977 0.8409 0.8437
H43A H 0.4052 0.9644 0.8646
C33A C 0.4002(12) 0.6770(10) 0.9504(7)
H44A H 0.4564 0.6770 0.9975
H45A H 0.3317 0.6371 0.9691
H46A H 0.4497 0.6332 0.9082
C34A C 0.2969(8) 0.7571(7) 0.7654(5)
C35A C 0.7124(11) 0.5771(10) 0.6982(8)
H47A H 0.6763 0.6648 0.6828
H48A H 0.7150 0.5634 0.7594
C36A C 0.844(3) 0.555(2) 0.673(2)
H49A H 0.8882 0.6080 0.6987
H50A H 0.8868 0.4700 0.6905
H51A H 0.8475 0.5715 0.6126
C37A C 0.698(4) 0.400(4) 0.800(3)
H52A H 0.6902 0.3278 0.8369
H53A H 0.7853 0.3879 0.7792
H54A H 0.6785 0.4709 0.8294
C38A C 0.607(4) 0.417(5) 0.729(4)
H55A H 0.5191 0.4309 0.7496
H56A H 0.6241 0.3434 0.7009
Li1A Li 0.5262(16) 0.5444(14) 0.5626(10)
C39? C 0.251(3) 0.485(2) 0.2140(18)
C40? C 0.385(4) 0.611(3) 0.200(2)
C41? C 0.340(4) 0.612(4) 0.283(3)
H57? H 0.1878 0.4481 0.1901
H58? H 0.3268 0.4755 0.1799
H59? H 0.2134 0.5715 0.2158
H60? H 0.3609 0.6926 0.1699
H61? H 0.3459 0.5562 0.1714
H62? H 0.4780 0.5818 0.2005
H63? H 0.2456 0.6396 0.2832
H64? H 0.3771 0.6680 0.3121
loop_
_geom_bond_atom_site_label_1
_geom_bond_atom_site_label_2
_geom_bond_site_symmetry_1
_geom_bond_site_symmetry_2
P1 C14 1_555 1_555
O1 C1 1_555 1_555
O2 H1 1_555 1_555
O3 C35 1_555 1_555
C1 C2 1_555 1_555
C2 C3 1_555 1_555
C3 C4 1_555 1_555
C4 H2 1_555 1_555
H3 C4 1_555 1_555
H4 C4 1_555 1_555
C5 C3 1_555 1_555
H5 C5 1_555 1_555
H6 C5 1_555 1_555
H7 C5 1_555 1_555
C6 C3 1_555 1_555
H8 C6 1_555 1_555
H9 C6 1_555 1_555
H10 C6 1_555 1_555
C7 C2 1_555 1_555
H11 C7 1_555 1_555
C8 C7 1_555 1_555
C9 C8 1_555 1_555
C10 C9 1_555 1_555
H12 C10 1_555 1_555
H13 C10 1_555 1_555
H14 C10 1_555 1_555
C11 C9 1_555 1_555
H15 C11 1_555 1_555
H16 C11 1_555 1_555
H17 C11 1_555 1_555
C12 C9 1_555 1_555
H18 C12 1_555 1_555
H19 C12 1_555 1_555
H20 C12 1_555 1_555
C13 C8 1_555 1_555
H21 C13 1_555 1_555
C14 C1 1_555 1_555
C15 P1 1_555 1_555
C16 C15 1_555 1_555
H22 C16 1_555 1_555
C17 C16 1_555 1_555
H23 C17 1_555 1_555
C18 C17 1_555 1_555
H24 C18 1_555 1_555
C19 C18 1_555 1_555
H25 C19 1_555 1_555
C20 C15 1_555 1_555
H26 C20 1_555 1_555
C21 P1 1_555 1_555
C22 C21 1_555 1_555
H27 C22 1_555 1_555
C23 C22 1_555 1_555
C24 C23 1_555 1_555
C25 C24 1_555 1_555
H28 C25 1_555 1_555
H29 C25 1_555 1_555
H30 C25 1_555 1_555
C26 C24 1_555 1_555
H31 C26 1_555 1_555
H32 C26 1_555 1_555
H33 C26 1_555 1_555
C27 C24 1_555 1_555
H34 C27 1_555 1_555
H35 C27 1_555 1_555
H36 C27 1_555 1_555
C28 C23 1_555 1_555
H37 C28 1_555 1_555
C29 C28 1_555 1_555
C30 C29 1_555 1_555
C31 C30 1_555 1_555
H38 C31 1_555 1_555
H39 C31 1_555 1_555
H40 C31 1_555 1_555
C32 C30 1_555 1_555
H41 C32 1_555 1_555
H42 C32 1_555 1_555
H43 C32 1_555 1_555
C33 C30 1_555 1_555
H44 C33 1_555 1_555
H45 C33 1_555 1_555
H46 C33 1_555 1_555
C34 O2 1_555 1_555
C35 H47 1_555 1_555
H48 C35 1_555 1_555
C36 C35 1_555 1_555
H49 C36 1_555 1_555
H50 C36 1_555 1_555
H51 C36 1_555 1_555
C37 H52 1_555 1_555
H53 C37 1_555 1_555
H54 C37 1_555 1_555
C38 O3 1_555 1_555
H55 C38 1_555 1_555
H56 C38 1_555 1_555
Li1 P1 1_555 1_555
P1A C14A 1_555 1_555
O1A Li1 1_555 1_555
O2A H1A 1_555 1_555
O3A C35A 1_555 1_555
C1A O1A 1_555 1_555
C2A C1A 1_555 1_555
C3A C2A 1_555 1_555
C4A C3A 1_555 1_555
H2A C4A 1_555 1_555
H3A C4A 1_555 1_555
H4A C4A 1_555 1_555
C5A C3A 1_555 1_555
H5A C5A 1_555 1_555
H6A C5A 1_555 1_555
H7A C5A 1_555 1_555
C6A C3A 1_555 1_555
H8A C6A 1_555 1_555
H9A C6A 1_555 1_555
H10A C6A 1_555 1_555
C7A C2A 1_555 1_555
H11A C7A 1_555 1_555
C8A C7A 1_555 1_555
C9A C8A 1_555 1_555
C10A C9A 1_555 1_555
H12A C10A 1_555 1_555
H13A C10A 1_555 1_555
H14A C10A 1_555 1_555
C11A C9A 1_555 1_555
H15A C11A 1_555 1_555
H16A C11A 1_555 1_555
H17A C11A 1_555 1_555
C12A C9A 1_555 1_555
H18A C12A 1_555 1_555
H19A C12A 1_555 1_555
H20A C12A 1_555 1_555
C13A C8A 1_555 1_555
H21A C13A 1_555 1_555
C14A C1A 1_555 1_555
C15A P1A 1_555 1_555
C16A C15A 1_555 1_555
H22A C16A 1_555 1_555
C17A C16A 1_555 1_555
H23A C17A 1_555 1_555
C18A C17A 1_555 1_555
H24A C18A 1_555 1_555
C19A C18A 1_555 1_555
H25A C19A 1_555 1_555
C20A C15A 1_555 1_555
H26A C20A 1_555 1_555
C21A P1A 1_555 1_555
C22A C21A 1_555 1_555
H27A C22A 1_555 1_555
C23A C22A 1_555 1_555
C24A C23A 1_555 1_555
C25A C24A 1_555 1_555
H28A C25A 1_555 1_555
H29A C25A 1_555 1_555
H30A C25A 1_555 1_555
C26A C24A 1_555 1_555
H31A C26A 1_555 1_555
H32A C26A 1_555 1_555
H33A C26A 1_555 1_555
C27A C24A 1_555 1_555
H34A C27A 1_555 1_555
H35A C27A 1_555 1_555
H36A C27A 1_555 1_555
C28A C23A 1_555 1_555
H37A C28A 1_555 1_555
C29A C28A 1_555 1_555
C30A C29A 1_555 1_555
C31A C30A 1_555 1_555
H38A C31A 1_555 1_555
H39A C31A 1_555 1_555
H40A C31A 1_555 1_555
C32A C30A 1_555 1_555
H41A C32A 1_555 1_555
H42A C32A 1_555 1_555
H43A C32A 1_555 1_555
C33A C30A 1_555 1_555
H44A C33A 1_555 1_555
H45A C33A 1_555 1_555
H46A C33A 1_555 1_555
C34A O2A 1_555 1_555
C35A H47A 1_555 1_555
H48A C35A 1_555 1_555
C36A C35A 1_555 1_555
H49A C36A 1_555 1_555
H50A C36A 1_555 1_555
H51A C36A 1_555 1_555
C37A H52A 1_555 1_555
H53A C37A 1_555 1_555
H54A C37A 1_555 1_555
C38A O3A 1_555 1_555
H55A C38A 1_555 1_555
H56A C38A 1_555 1_555
Li1A O1 1_555 1_555
O1 Li1 1_555 1_555
O3 Li1 1_555 1_555
C13 C14 1_555 1_555
C19 C20 1_555 1_555
C21 C34 1_555 1_555
C29 C34 1_555 1_555
C37 C38 1_555 1_555
P1A Li1A 1_555 1_555
O1A Li1A 1_555 1_555
O3A Li1A 1_555 1_555
C13A C14A 1_555 1_555
C19A C20A 1_555 1_555
C21A C34A 1_555 1_555
C29A C34A 1_555 1_555
C37A C38A 1_555 1_555

#END
