
#######################################################################
#
#                 Cambridge Crystallographic Data Centre
#                                CCDC 
#
#######################################################################
#
# If this CIF has been generated from an entry in the Cambridge 
# Structural Database, then it will include bibliographic, chemical, 
# crystal, experimental, refinement or atomic coordinate data resulting 
# from the CCDC's data processing and validation procedures.
#
#######################################################################

data_PABJEK
_chemical_formula_moiety         'C13 H11 Br1 O4'
_chemical_name_systematic        
9-bromo-8-hydroxy-7-phenyl-1,6-dioxaspiro[4.4]non-3-en-2-one
_chemical_properties_biological  'Antitumour activity'
_symmetry_cell_setting           orthorhombic
_symmetry_space_group_name_H-M   'P 21 21 21'
_symmetry_Int_Tables_number      19
_space_group_name_Hall           'P 2ac 2ab'
loop_
_symmetry_equiv_pos_site_id
_symmetry_equiv_pos_as_xyz
1 x,y,z
2 1/2-x,-y,1/2+z
3 1/2+x,1/2-y,-z
4 -x,1/2+y,1/2-z
_cell_length_a                   5.7348(4)
_cell_length_b                   8.7851(4)
_cell_length_c                   24.8860(13)
_cell_angle_alpha                90
_cell_angle_beta                 90
_cell_angle_gamma                90
_cell_volume                     1253.78
_exptl_crystal_colour            colorless
_exptl_crystal_description       prism
_cell_formula_units_Z            4
loop_
_atom_site_label
_atom_site_type_symbol
_atom_site_fract_x
_atom_site_fract_y
_atom_site_fract_z
Br1 Br 0.60320(10) 0.43852(5) 0.244421(17)
O1 O 0.9559(6) 0.3900(3) 0.10449(12)
O2 O 0.6872(5) 0.5713(3) 0.13179(10)
O3 O 0.6071(7) 0.8199(3) 0.12957(12)
O4 O 0.7632(8) 0.0932(3) 0.17494(12)
H1 H 0.7219 0.0242 0.1549
C1 C 0.8798(8) 0.1445(4) 0.06426(13)
C2 C 0.8826(8) 0.4778(4) 0.14771(16)
C3 C 1.1746(9) -0.0452(5) 0.04823(17)
H2 H 1.3126 -0.0929 0.0584
C4 C 0.7779(8) 0.2730(4) 0.09654(15)
H3 H 0.6487 0.3176 0.0761
C5 C 1.0554(10) -0.0935(5) 0.00309(18)
H4 H 1.1143 -0.1731 -0.0175
C6 C 0.7429(9) 0.7209(4) 0.13975(15)
C7 C 0.9840(9) 0.7286(5) 0.16006(18)
H5 H 1.0659 0.8170 0.1682
C8 C 0.8017(8) 0.3585(4) 0.18830(15)
H6 H 0.9406 0.3150 0.2054
C9 C 1.0871(8) 0.0750(5) 0.07840(16)
H7 H 1.1688 0.1090 0.1084
C10 C 0.8516(10) -0.0248(4) -0.01147(18)
H8 H 0.7713 -0.0577 -0.0418
C11 C 0.7646(9) 0.0943(4) 0.01920(16)
H9 H 0.6259 0.1409 0.0091
C12 C 1.0632(9) 0.5887(5) 0.16462(19)
H10 H 1.2115 0.5629 0.1767
C13 C 0.6896(8) 0.2342(4) 0.15359(16)
H11 H 0.5193 0.2421 0.1551
loop_
_geom_bond_atom_site_label_1
_geom_bond_atom_site_label_2
_geom_bond_site_symmetry_1
_geom_bond_site_symmetry_2
Br1 C8 1_555 1_555
O1 C2 1_555 1_555
O2 C2 1_555 1_555
O3 C6 1_555 1_555
O4 H1 1_555 1_555
C1 C4 1_555 1_555
C2 C8 1_555 1_555
C3 H2 1_555 1_555
C4 O1 1_555 1_555
H3 C4 1_555 1_555
C5 C3 1_555 1_555
H4 C5 1_555 1_555
C6 O2 1_555 1_555
C7 C6 1_555 1_555
H5 C7 1_555 1_555
C8 H6 1_555 1_555
C9 C1 1_555 1_555
H7 C9 1_555 1_555
C10 C5 1_555 1_555
H8 C10 1_555 1_555
C11 C1 1_555 1_555
H9 C11 1_555 1_555
C12 C2 1_555 1_555
H10 C12 1_555 1_555
C13 O4 1_555 1_555
H11 C13 1_555 1_555
C3 C9 1_555 1_555
C4 C13 1_555 1_555
C7 C12 1_555 1_555
C8 C13 1_555 1_555
C10 C11 1_555 1_555

#END
