
#######################################################################
#
#                 Cambridge Crystallographic Data Centre
#                                CCDC 
#
#######################################################################
#
# If this CIF has been generated from an entry in the Cambridge 
# Structural Database, then it will include bibliographic, chemical, 
# crystal, experimental, refinement or atomic coordinate data resulting 
# from the CCDC's data processing and validation procedures.
#
#######################################################################

data_PABKUA
_chemical_formula_moiety         'C10 H20 B10 O1'
_chemical_name_systematic        
1,2-(1-Methoxy-4-methylhexa-1,3,5-triene-1,6-diyl)-1,2-dicarba-closo-dodecaborane
_symmetry_cell_setting           monoclinic
_symmetry_space_group_name_H-M   'P 21/n'
_symmetry_Int_Tables_number      14
_space_group_name_Hall           '-P 2yn'
loop_
_symmetry_equiv_pos_site_id
_symmetry_equiv_pos_as_xyz
1 x,y,z
2 1/2-x,1/2+y,1/2-z
3 -x,-y,-z
4 1/2+x,1/2-y,1/2+z
_cell_length_a                   6.9769(2)
_cell_length_b                   12.9283(4)
_cell_length_c                   17.4054(5)
_cell_angle_alpha                90
_cell_angle_beta                 94.1340(10)
_cell_angle_gamma                90
_cell_volume                     1565.87
_exptl_crystal_colour            colorless
_exptl_crystal_description       block
_cell_formula_units_Z            4
loop_
_atom_site_label
_atom_site_type_symbol
_atom_site_fract_x
_atom_site_fract_y
_atom_site_fract_z
O1 O 0.13878(17) 0.87541(10) 0.03748(7)
C1 C 0.39712(19) 0.84663(10) 0.12527(7)
C2 C 0.4767(2) 0.74874(11) 0.18066(8)
C3 C 0.3109(2) 0.82485(11) 0.04487(8)
C4 C 0.3841(2) 0.77199(13) -0.01191(9)
H1 H 0.3073 0.7720 -0.0579
C5 C 0.5636(3) 0.71394(13) -0.01496(9)
H2 H 0.6405 0.7332 -0.0540
C6 C 0.6322(3) 0.63751(13) 0.03027(9)
C7 C 0.5296(3) 0.59452(12) 0.09335(10)
H3 H 0.5101 0.5234 0.0906
C8 C 0.4597(2) 0.63952(11) 0.15363(9)
H4 H 0.3893 0.5964 0.1838
C9 C 0.0284(3) 0.86931(16) -0.03436(11)
H5 H -0.0885 0.9078 -0.0315
H6 H -0.0017 0.7983 -0.0459
H7 H 0.1010 0.8977 -0.0742
C10 C 0.8181(3) 0.58476(19) 0.01706(13)
H8 H 0.8761 0.6175 -0.0250
H9 H 0.7942 0.5133 0.0049
H10 H 0.9032 0.5897 0.0628
B1 B 0.6420(2) 0.83500(14) 0.14723(10)
H11 H 0.7468 0.8160 0.1051
B2 B 0.5253(3) 0.95677(13) 0.14782(10)
H12 H 0.5539 1.0171 0.1056
B3 B 0.2926(3) 0.93995(13) 0.18055(10)
H13 H 0.1718 0.9897 0.1598
B4 B 0.2602(2) 0.80637(13) 0.19849(9)
H14 H 0.1192 0.7687 0.1889
B5 B 0.6635(3) 0.78679(15) 0.24292(10)
H15 H 0.7831 0.7359 0.2631
B6 B 0.6957(3) 0.92074(17) 0.22430(12)
H16 H 0.8371 0.9583 0.2327
B7 B 0.4810(3) 0.98571(15) 0.24514(11)
H17 H 0.4835 1.0655 0.2671
B8 B 0.3161(3) 0.89200(14) 0.27595(10)
H18 H 0.2106 0.9105 0.3179
B9 B 0.4295(3) 0.77033(14) 0.27431(9)
H19 H 0.3977 0.7086 0.3150
B10 B 0.5655(3) 0.88059(16) 0.30350(11)
H20 H 0.6226 0.8918 0.3635
loop_
_geom_bond_atom_site_label_1
_geom_bond_atom_site_label_2
_geom_bond_site_symmetry_1
_geom_bond_site_symmetry_2
O1 C3 1_555 1_555
C1 C2 1_555 1_555
C2 C8 1_555 1_555
C3 C1 1_555 1_555
C4 C3 1_555 1_555
H1 C4 1_555 1_555
C5 C4 1_555 1_555
H2 C5 1_555 1_555
C6 C5 1_555 1_555
C7 C6 1_555 1_555
H3 C7 1_555 1_555
C8 C7 1_555 1_555
H4 C8 1_555 1_555
C9 O1 1_555 1_555
H5 C9 1_555 1_555
H6 C9 1_555 1_555
H7 C9 1_555 1_555
C10 C6 1_555 1_555
H8 C10 1_555 1_555
H9 C10 1_555 1_555
H10 C10 1_555 1_555
B1 C1 1_555 1_555
H11 B1 1_555 1_555
B2 C1 1_555 1_555
H12 B2 1_555 1_555
B3 C1 1_555 1_555
H13 B3 1_555 1_555
B4 C1 1_555 1_555
H14 B4 1_555 1_555
B5 C2 1_555 1_555
H15 B5 1_555 1_555
B6 B1 1_555 1_555
H16 B6 1_555 1_555
B7 B2 1_555 1_555
H17 B7 1_555 1_555
B8 B3 1_555 1_555
H18 B8 1_555 1_555
B9 C2 1_555 1_555
H19 B9 1_555 1_555
B10 B5 1_555 1_555
H20 B10 1_555 1_555
C2 B1 1_555 1_555
C2 B4 1_555 1_555
B1 B2 1_555 1_555
B1 B5 1_555 1_555
B2 B3 1_555 1_555
B2 B6 1_555 1_555
B3 B4 1_555 1_555
B3 B7 1_555 1_555
B4 B8 1_555 1_555
B4 B9 1_555 1_555
B5 B6 1_555 1_555
B5 B9 1_555 1_555
B6 B7 1_555 1_555
B6 B10 1_555 1_555
B7 B8 1_555 1_555
B7 B10 1_555 1_555
B8 B9 1_555 1_555
B8 B10 1_555 1_555
B9 B10 1_555 1_555

#END
