
#######################################################################
#
#                 Cambridge Crystallographic Data Centre
#                                CCDC 
#
#######################################################################
#
# If this CIF has been generated from an entry in the Cambridge 
# Structural Database, then it will include bibliographic, chemical, 
# crystal, experimental, refinement or atomic coordinate data resulting 
# from the CCDC's data processing and validation procedures.
#
#######################################################################

data_PABPOA
_chemical_formula_moiety         'C15 H13 N1 O4 S1'
_chemical_name_systematic        
'2-(3-methoxy-4-methylphenyl)-1,2-benzothiazol-3(2H)-one 1,1-dioxide'
_symmetry_cell_setting           orthorhombic
_symmetry_space_group_name_H-M   'P 21 21 21'
_symmetry_Int_Tables_number      19
_space_group_name_Hall           'P 2ac 2ab'
loop_
_symmetry_equiv_pos_site_id
_symmetry_equiv_pos_as_xyz
1 x,y,z
2 1/2-x,-y,1/2+z
3 -x,1/2+y,1/2-z
4 1/2+x,1/2-y,-z
_cell_length_a                   8.0684(8)
_cell_length_b                   14.8262(14)
_cell_length_c                   23.715(2)
_cell_angle_alpha                90
_cell_angle_beta                 90
_cell_angle_gamma                90
_cell_volume                     2836.88
_exptl_crystal_colour            colorless
_exptl_crystal_description       quadrate
_cell_formula_units_Z            8
loop_
_atom_site_label
_atom_site_type_symbol
_atom_site_fract_x
_atom_site_fract_y
_atom_site_fract_z
C1 C 0.6089(4) 0.5040(3) 0.14129(16)
C2 C 0.6179(4) 0.4231(3) 0.22805(15)
C3 C 0.6236(4) 0.5072(3) 0.20352(16)
C4 C 0.6407(5) 0.5834(3) 0.23600(16)
H1 H 0.6443 0.6404 0.2197
C5 C 0.6309(5) 0.4114(3) 0.28551(16)
H2 H 0.6283 0.3543 0.3017
C6 C 0.6525(5) 0.5722(3) 0.29434(17)
H3 H 0.6634 0.6226 0.3174
C7 C 0.5789(5) 0.3864(2) 0.06632(15)
C8 C 0.5715(5) 0.3337(2) -0.04618(15)
C9 C 0.7147(4) 0.3701(2) -0.02220(14)
C10 C 0.7210(4) 0.3951(2) 0.03368(15)
H4 H 0.8185 0.4175 0.0493
C11 C 0.4331(5) 0.3259(3) -0.01175(17)
H5 H 0.3363 0.3018 -0.0267
C12 C 0.4348(4) 0.3531(3) 0.04434(16)
H6 H 0.3399 0.3487 0.0664
C13 C 0.6480(5) 0.4878(3) 0.31806(19)
H7 H 0.6568 0.4820 0.3570
C14 C 0.5678(5) 0.3050(3) -0.10691(15)
H8 H 0.5742 0.3573 -0.1307
H9 H 0.4665 0.2732 -0.1144
H10 H 0.6604 0.2661 -0.1144
C15 C 0.9994(5) 0.4088(3) -0.03662(17)
H11 H 0.9866 0.4688 -0.0220
H12 H 1.0812 0.4091 -0.0660
H13 H 1.0344 0.3692 -0.0069
N1 N 0.5845(4) 0.4156(2) 0.12439(12)
O1 O 0.6158(3) 0.56654(17) 0.10872(11)
O2 O 0.8456(3) 0.37840(17) -0.05872(10)
O3 O 0.4248(4) 0.29940(18) 0.18268(12)
O4 O 0.7235(4) 0.28095(18) 0.17159(12)
S1 S 0.58448(13) 0.33945(7) 0.17722(4)
C16 C 0.1114(4) 0.4782(3) 0.20885(16)
C17 C 0.0919(5) 0.4019(3) 0.24173(17)
H14 H 0.0635 0.3468 0.2257
C18 C 0.1506(5) 0.5591(2) 0.23414(15)
C19 C 0.1614(5) 0.4913(3) 0.32328(19)
H15 H 0.1801 0.4945 0.3619
C20 C 0.1794(5) 0.5677(3) 0.29110(16)
H16 H 0.2096 0.6226 0.3070
C21 C 0.1163(5) 0.4103(3) 0.29961(17)
H17 H 0.1017 0.3602 0.3227
C22 C 0.0932(5) 0.4848(3) 0.14634(17)
C23 C 0.2510(4) 0.5989(2) 0.03848(14)
H18 H 0.3498 0.5752 0.0522
C24 C 0.1134(5) 0.6057(3) 0.07271(16)
C25 C 0.2386(4) 0.6280(2) -0.01684(15)
C26 C -0.0328(5) 0.6405(3) 0.05399(18)
H19 H -0.1245 0.6436 0.0777
C27 C 0.0919(5) 0.6655(2) -0.03743(15)
C28 C -0.0420(5) 0.6711(3) -0.00092(18)
H20 H -0.1407 0.6961 -0.0138
C29 C 0.0802(5) 0.6996(3) -0.09702(17)
H21 H 0.1574 0.7482 -0.1022
H22 H -0.0302 0.7208 -0.1041
H23 H 0.1061 0.6516 -0.1227
C30 C 0.5212(5) 0.5924(3) -0.03608(17)
H24 H 0.5571 0.6278 -0.0045
H25 H 0.6009 0.5972 -0.0660
H26 H 0.5110 0.5304 -0.0249
N2 N 0.1262(4) 0.5735(2) 0.13051(13)
O5 O 0.3165(4) 0.68596(18) 0.17827(12)
O6 O 0.0181(4) 0.70433(18) 0.18894(13)
O7 O 0.0568(4) 0.42587(18) 0.11405(12)
O8 O 0.3648(3) 0.62456(18) -0.05524(10)
S2 S 0.15783(14) 0.64566(6) 0.18396(4)
loop_
_geom_bond_atom_site_label_1
_geom_bond_atom_site_label_2
_geom_bond_site_symmetry_1
_geom_bond_site_symmetry_2
C1 C3 1_555 1_555
C2 C3 1_555 1_555
C3 C4 1_555 1_555
C4 H1 1_555 1_555
C5 C2 1_555 1_555
H2 C5 1_555 1_555
C6 C4 1_555 1_555
H3 C6 1_555 1_555
C7 C10 1_555 1_555
C8 C9 1_555 1_555
C9 C10 1_555 1_555
C10 H4 1_555 1_555
C11 C8 1_555 1_555
H5 C11 1_555 1_555
C12 C7 1_555 1_555
H6 C12 1_555 1_555
C13 C5 1_555 1_555
H7 C13 1_555 1_555
C14 C8 1_555 1_555
H8 C14 1_555 1_555
H9 C14 1_555 1_555
H10 C14 1_555 1_555
C15 H11 1_555 1_555
H12 C15 1_555 1_555
H13 C15 1_555 1_555
N1 C1 1_555 1_555
O1 C1 1_555 1_555
O2 C9 1_555 1_555
O3 S1 1_555 1_555
O4 S1 1_555 1_555
S1 C2 1_555 1_555
C16 C17 1_555 1_555
C17 H14 1_555 1_555
C18 C16 1_555 1_555
C19 H15 1_555 1_555
C20 C18 1_555 1_555
H16 C20 1_555 1_555
C21 C17 1_555 1_555
H17 C21 1_555 1_555
C22 C16 1_555 1_555
C23 H18 1_555 1_555
C24 C23 1_555 1_555
C25 C23 1_555 1_555
C26 C24 1_555 1_555
H19 C26 1_555 1_555
C27 C25 1_555 1_555
C28 C26 1_555 1_555
H20 C28 1_555 1_555
C29 C27 1_555 1_555
H21 C29 1_555 1_555
H22 C29 1_555 1_555
H23 C29 1_555 1_555
C30 H24 1_555 1_555
H25 C30 1_555 1_555
H26 C30 1_555 1_555
N2 C22 1_555 1_555
O5 S2 1_555 1_555
O6 S2 1_555 1_555
O7 C22 1_555 1_555
O8 C25 1_555 1_555
S2 C18 1_555 1_555
C6 C13 1_555 1_555
C7 N1 1_555 1_555
C11 C12 1_555 1_555
C15 O2 1_555 1_555
N1 S1 1_555 1_555
C19 C20 1_555 1_555
C19 C21 1_555 1_555
C24 N2 1_555 1_555
C27 C28 1_555 1_555
C30 O8 1_555 1_555
N2 S2 1_555 1_555

#END
