
#######################################################################
#
#                 Cambridge Crystallographic Data Centre
#                                CCDC 
#
#######################################################################
#
# If this CIF has been generated from an entry in the Cambridge 
# Structural Database, then it will include bibliographic, chemical, 
# crystal, experimental, refinement or atomic coordinate data resulting 
# from the CCDC's data processing and validation procedures.
#
#######################################################################

data_PABSIU
_chemical_formula_moiety         'C15 H23 B1 N2 O1'
_chemical_name_systematic        
(N-(1(R)-Phenylethyl)-1-azabicyclo(2.2.1)heptane-3-carboxamide)borane
_symmetry_cell_setting           orthorhombic
_symmetry_space_group_name_H-M   'P 21 21 21'
_symmetry_Int_Tables_number      19
_space_group_name_Hall           'P 2ac 2ab'
loop_
_symmetry_equiv_pos_site_id
_symmetry_equiv_pos_as_xyz
1 x,y,z
2 1/2+x,1/2-y,-z
3 -x,1/2+y,1/2-z
4 1/2-x,-y,1/2+z
_cell_length_a                   9.874(3)
_cell_length_b                   17.559(3)
_cell_length_c                   18.179(6)
_cell_angle_alpha                90
_cell_angle_beta                 90
_cell_angle_gamma                90
_cell_volume                     3151.83
_exptl_crystal_colour            colorless
_chemical_melting_point          '151 deg.C'
_cell_formula_units_Z            8
loop_
_atom_site_label
_atom_site_type_symbol
_atom_site_fract_x
_atom_site_fract_y
_atom_site_fract_z
B1 B 0.142(1) 0.5792(9) 1.1563(7)
N1 N 0.0424(8) 0.5446(5) 1.0939(4)
C1 C 0.104(1) 0.4980(6) 1.0360(5)
C2 C 0.0043(9) 0.4944(6) 0.9722(5)
C3 C -0.107(1) 0.5430(7) 0.9995(6)
C4 C -0.181(1) 0.4995(8) 1.0603(6)
C5 C -0.077(1) 0.5040(7) 1.1262(5)
C6 C -0.029(1) 0.6022(6) 1.0448(5)
C7 C 0.064(1) 0.5250(6) 0.8997(6)
O1 O 0.1812(7) 0.5490(4) 0.8951(4)
N2 N -0.0193(7) 0.5167(5) 0.8429(4)
C8 C 0.027(1) 0.5370(6) 0.7694(5)
C9 C -0.059(1) 0.4949(6) 0.7121(6)
C10 C 0.014(1) 0.6227(7) 0.7529(5)
C11 C 0.102(1) 0.6532(7) 0.7040(6)
C12 C 0.097(1) 0.7296(9) 0.6863(8)
C13 C -0.003(1) 0.7731(8) 0.7120(7)
C14 C -0.096(1) 0.7453(7) 0.7626(7)
C15 C -0.086(1) 0.6661(7) 0.7834(6)
H1 H 0.126 0.449 1.054
H2 H 0.184 0.522 1.018
H3 H -0.027 0.444 0.963
H4 H -0.165 0.562 0.962
H5 H -0.193 0.448 1.046
H6 H -0.266 0.522 1.072
H7 H -0.115 0.533 1.166
H8 H -0.051 0.455 1.144
H9 H 0.032 0.631 1.016
H10 H -0.086 0.636 1.072
H11 H 0.119 0.522 0.763
H12 H -0.030 0.507 0.663
H13 H -0.053 0.441 0.720
H14 H -0.149 0.512 0.719
H15 H 0.171 0.622 0.683
H16 H 0.162 0.753 0.655
H17 H -0.015 0.825 0.698
H18 H -0.165 0.776 0.783
H19 H -0.145 0.643 0.818
H20 H 0.077 0.614 1.201
H21 H 0.201 0.528 1.186
H22 H 0.222 0.621 1.127
H23 H -0.139 0.518 0.832
B2 B 0.586(2) 0.2224(8) 0.935(1)
N3 N 0.4995(9) 0.2970(5) 0.9134(5)
C16 C 0.552(1) 0.3459(6) 0.8523(5)
C17 C 0.470(1) 0.4197(5) 0.8551(6)
C18 C 0.388(1) 0.4074(6) 0.9241(7)
C19 C 0.273(1) 0.3535(7) 0.902(1)
C20 C 0.351(1) 0.2776(6) 0.8939(9)
C21 C 0.474(1) 0.3557(6) 0.9719(5)
C22 C 0.554(1) 0.4893(5) 0.8578(5)
O2 O 0.6809(7) 0.4903(4) 0.8631(4)
N4 N 0.4843(8) 0.5527(4) 0.8551(5)
C23 C 0.539(1) 0.6301(6) 0.8574(5)
C24 C 0.447(1) 0.6843(6) 0.8178(5)
C25 C 0.568(1) 0.6565(6) 0.9343(6)
C26 C 0.491(1) 0.6333(5) 0.9955(6)
C27 C 0.516(1) 0.6598(6) 1.0643(6)
C28 C 0.615(1) 0.7138(7) 1.0787(6)
C29 C 0.693(1) 0.7374(7) 1.0169(6)
C30 C 0.667(1) 0.7116(6) 0.9485(6)
H24 H 0.541 0.320 0.807
H25 H 0.645 0.358 0.859
H26 H 0.416 0.425 0.812
H27 H 0.240 0.368 0.855
H28 H 0.200 0.352 0.936
H29 H 0.313 0.242 0.927
H30 H 0.348 0.257 0.845
H31 H 0.555 0.380 0.988
H32 H 0.426 0.336 1.013
H33 H 0.623 0.633 0.832
H34 H 0.481 0.735 0.819
H35 H 0.438 0.668 0.768
H36 H 0.361 0.683 0.841
H37 H 0.419 0.598 0.988
H38 H 0.463 0.642 1.104
H39 H 0.632 0.734 1.127
H40 H 0.766 0.772 1.023
H41 H 0.716 0.731 0.908
H42 H 0.515 0.181 0.970
H43 H 0.621 0.190 0.880
H44 H 0.684 0.239 0.970
H45 H 0.360 0.453 0.947
H46 H 0.359 0.533 0.850
loop_
_geom_bond_atom_site_label_1
_geom_bond_atom_site_label_2
_geom_bond_site_symmetry_1
_geom_bond_site_symmetry_2
B1 N1 1_555 1_555
N1 C1 1_555 1_555
C1 C2 1_555 1_555
C2 C3 1_555 1_555
C3 C4 1_555 1_555
C4 C5 1_555 1_555
C5 N1 1_555 1_555
C6 N1 1_555 1_555
C7 C2 1_555 1_555
O1 C7 1_555 1_555
N2 C7 1_555 1_555
C8 N2 1_555 1_555
C9 C8 1_555 1_555
C10 C8 1_555 1_555
C11 C10 1_555 1_555
C12 C11 1_555 1_555
C13 C12 1_555 1_555
C14 C13 1_555 1_555
C15 C10 1_555 1_555
H1 C1 1_555 1_555
H2 C1 1_555 1_555
H3 C2 1_555 1_555
H4 C3 1_555 1_555
H5 C4 1_555 1_555
H6 C4 1_555 1_555
H7 C5 1_555 1_555
H8 C5 1_555 1_555
H9 C6 1_555 1_555
H10 C6 1_555 1_555
H11 C8 1_555 1_555
H12 C9 1_555 1_555
H13 C9 1_555 1_555
H14 C9 1_555 1_555
H15 C11 1_555 1_555
H16 C12 1_555 1_555
H17 C13 1_555 1_555
H18 C14 1_555 1_555
H19 C15 1_555 1_555
H20 B1 1_555 1_555
H21 B1 1_555 1_555
H22 B1 1_555 1_555
H23 N2 1_555 1_555
B2 N3 1_555 1_555
N3 C16 1_555 1_555
C16 C17 1_555 1_555
C17 C18 1_555 1_555
C18 C19 1_555 1_555
C19 C20 1_555 1_555
C20 N3 1_555 1_555
C21 N3 1_555 1_555
C22 C17 1_555 1_555
O2 C22 1_555 1_555
N4 C22 1_555 1_555
C23 N4 1_555 1_555
C24 C23 1_555 1_555
C25 C23 1_555 1_555
C26 C25 1_555 1_555
C27 C26 1_555 1_555
C28 C27 1_555 1_555
C29 C28 1_555 1_555
C30 C25 1_555 1_555
H24 C16 1_555 1_555
H25 C16 1_555 1_555
H26 C17 1_555 1_555
H27 C19 1_555 1_555
H28 C19 1_555 1_555
H29 C20 1_555 1_555
H30 C20 1_555 1_555
H31 C21 1_555 1_555
H32 C21 1_555 1_555
H33 C23 1_555 1_555
H34 C24 1_555 1_555
H35 C24 1_555 1_555
H36 C24 1_555 1_555
H37 C26 1_555 1_555
H38 C27 1_555 1_555
H39 C28 1_555 1_555
H40 C29 1_555 1_555
H41 C30 1_555 1_555
H42 B2 1_555 1_555
H43 B2 1_555 1_555
H44 B2 1_555 1_555
H45 C18 1_555 1_555
H46 N4 1_555 1_555
C3 C6 1_555 1_555
C14 C15 1_555 1_555
C18 C21 1_555 1_555
C29 C30 1_555 1_555

#END
