
#######################################################################
#
#                 Cambridge Crystallographic Data Centre
#                                CCDC 
#
#######################################################################
#
# If this CIF has been generated from an entry in the Cambridge 
# Structural Database, then it will include bibliographic, chemical, 
# crystal, experimental, refinement or atomic coordinate data resulting 
# from the CCDC's data processing and validation procedures.
#
#######################################################################

data_PABSAP
_chemical_formula_moiety         'C27 H27 N1 O6,C3 H7 N1 O1'
_chemical_name_systematic        
'methyl 11-(2,3-dimethoxyphenyl)-8,8-dimethyl-10-oxo-6,7,8,9,10,11-hexahydrofuro[3,2-a]acridine-2-carboxylate N,N-dimethylformamide solvate'
_symmetry_cell_setting           triclinic
_symmetry_space_group_name_H-M   'P -1'
_symmetry_Int_Tables_number      2
_space_group_name_Hall           '-P 1'
loop_
_symmetry_equiv_pos_site_id
_symmetry_equiv_pos_as_xyz
1 x,y,z
2 -x,-y,-z
_cell_length_a                   10.0590(3)
_cell_length_b                   11.3591(3)
_cell_length_c                   13.6681(4)
_cell_angle_alpha                106.514(2)
_cell_angle_beta                 96.381(2)
_cell_angle_gamma                107.985(2)
_cell_volume                     1389.86
_exptl_crystal_colour            colorless
_exptl_crystal_description       block
_cell_formula_units_Z            2
loop_
_atom_site_label
_atom_site_type_symbol
_atom_site_fract_x
_atom_site_fract_y
_atom_site_fract_z
N1 N 0.00294(13) 0.45189(13) 0.27284(9)
O1 O 0.22712(14) 0.37027(12) 0.55385(9)
O2 O -0.37322(10) -0.05665(10) 0.09430(8)
O3 O 0.27861(12) -0.07553(11) 0.28898(9)
O4 O 0.10015(10) 0.02694(10) 0.37839(8)
O5 O -0.49860(14) -0.32004(12) 0.06433(11)
O6 O -0.33935(13) -0.29621(11) 0.20351(9)
C1 C -0.09076(15) 0.32174(14) 0.22497(10)
C2 C -0.20400(16) 0.29405(16) 0.14076(11)
H1 H -0.2118 0.3617 0.1178
C3 C -0.30262(16) 0.16910(16) 0.09226(12)
H2 H -0.3769 0.1499 0.0365
C4 C -0.28536(15) 0.07383(15) 0.13070(11)
C5 C -0.31788(15) -0.11357(15) 0.15738(11)
C6 C -0.19999(15) -0.02570(14) 0.22982(11)
H3 H -0.1453 -0.0423 0.2802
C7 C -0.17581(14) 0.09734(14) 0.21385(10)
C8 C -0.07359(14) 0.22514(14) 0.26280(10)
C9 C 0.05276(14) 0.25548(13) 0.35049(10)
H4 H 0.0173 0.2118 0.3997
C10 C 0.11833(14) 0.40175(14) 0.40844(10)
C11 C 0.21107(15) 0.44775(15) 0.51113(11)
C12 C 0.28574(18) 0.59413(16) 0.56532(12)
H5 H 0.3771 0.6097 0.6082
H6 H 0.2285 0.6258 0.6116
C13 C 0.31223(16) 0.67425(15) 0.49228(12)
C14 C 0.16901(16) 0.63639(15) 0.41784(12)
H7 H 0.1063 0.6708 0.4566
H8 H 0.1851 0.6769 0.3645
C15 C 0.09635(14) 0.49084(14) 0.36600(10)
C16 C -0.39616(16) -0.25418(16) 0.13452(12)
C17 C -0.4039(2) -0.43354(17) 0.19182(16)
H9 H -0.3536 -0.4519 0.2463
H10 H -0.3984 -0.4869 0.1250
H11 H -0.5024 -0.4531 0.1965
C18 C 0.16190(14) 0.20021(13) 0.30520(10)
C19 C 0.24244(16) 0.25820(15) 0.24316(11)
H12 H 0.2333 0.3334 0.2335
C20 C 0.33514(17) 0.20585(17) 0.19611(12)
H13 H 0.3883 0.2463 0.1555
C21 C 0.34985(16) 0.09367(17) 0.20869(12)
H14 H 0.4111 0.0577 0.1755
C22 C 0.27307(15) 0.03553(15) 0.27071(11)
C23 C 0.17991(14) 0.08990(14) 0.31992(10)
C24 C 0.3573(3) -0.1437(2) 0.23052(19)
H15 H 0.3528 -0.2196 0.2498
H16 H 0.4553 -0.0865 0.2452
H17 H 0.3166 -0.1710 0.1572
C25 C 0.17987(19) 0.0465(2) 0.47959(14)
H18 H 0.1175 0.0004 0.5156
H19 H 0.2187 0.1387 0.5195
H20 H 0.2565 0.0135 0.4711
C26 C 0.3660(2) 0.82115(17) 0.55418(15)
H21 H 0.4557 0.8455 0.6014
H22 H 0.2972 0.8403 0.5932
H23 H 0.3790 0.8700 0.5068
C27 C 0.42404(19) 0.64461(19) 0.43195(16)
H24 H 0.5127 0.6689 0.4803
H25 H 0.4387 0.6940 0.3850
H26 H 0.3909 0.5524 0.3927
H27 H -0.0112(18) 0.5151(17) 0.2458(14)
N2 N 0.07470(15) 0.28320(14) 0.94923(10)
O7 O 0.05665(17) 0.39007(14) 0.83592(11)
C28 C 0.0330(2) 0.28872(19) 0.85635(14)
H28 H -0.0181 0.2098 0.8026
C29 C 0.1606(3) 0.4026(2) 1.03392(15)
H29 H 0.1767 0.4762 1.0096
H30 H 0.2508 0.3969 1.0583
H31 H 0.1113 0.4142 1.0901
C30 C 0.0372(2) 0.16008(18) 0.97020(15)
H32 H -0.0198 0.0892 0.9077
H33 H -0.0164 0.1639 1.0242
H34 H 0.1230 0.1457 0.9926
loop_
_geom_bond_atom_site_label_1
_geom_bond_atom_site_label_2
_geom_bond_site_symmetry_1
_geom_bond_site_symmetry_2
N1 C1 1_555 1_555
O1 C11 1_555 1_555
O2 C4 1_555 1_555
O3 C22 1_555 1_555
O4 C23 1_555 1_555
O5 C16 1_555 1_555
O6 C16 1_555 1_555
C1 C2 1_555 1_555
C2 H1 1_555 1_555
C3 C2 1_555 1_555
H2 C3 1_555 1_555
C4 C3 1_555 1_555
C5 O2 1_555 1_555
C6 C5 1_555 1_555
H3 C6 1_555 1_555
C7 C4 1_555 1_555
C8 C1 1_555 1_555
C9 C8 1_555 1_555
H4 C9 1_555 1_555
C10 C9 1_555 1_555
C11 C10 1_555 1_555
C12 C11 1_555 1_555
H5 C12 1_555 1_555
H6 C12 1_555 1_555
C13 C12 1_555 1_555
C14 C13 1_555 1_555
H7 C14 1_555 1_555
H8 C14 1_555 1_555
C15 N1 1_555 1_555
C16 C5 1_555 1_555
C17 O6 1_555 1_555
H9 C17 1_555 1_555
H10 C17 1_555 1_555
H11 C17 1_555 1_555
C18 C9 1_555 1_555
C19 C18 1_555 1_555
H12 C19 1_555 1_555
C20 C19 1_555 1_555
H13 C20 1_555 1_555
C21 C20 1_555 1_555
H14 C21 1_555 1_555
C22 C21 1_555 1_555
C23 C18 1_555 1_555
C24 O3 1_555 1_555
H15 C24 1_555 1_555
H16 C24 1_555 1_555
H17 C24 1_555 1_555
C25 O4 1_555 1_555
H18 C25 1_555 1_555
H19 C25 1_555 1_555
H20 C25 1_555 1_555
C26 C13 1_555 1_555
H21 C26 1_555 1_555
H22 C26 1_555 1_555
H23 C26 1_555 1_555
C27 C13 1_555 1_555
H24 C27 1_555 1_555
H25 C27 1_555 1_555
H26 C27 1_555 1_555
H27 N1 1_555 1_555
N2 C28 1_555 1_555
O7 C28 1_555 1_555
C28 H28 1_555 1_555
C29 N2 1_555 1_555
H29 C29 1_555 1_555
H30 C29 1_555 1_555
H31 C29 1_555 1_555
C30 N2 1_555 1_555
H32 C30 1_555 1_555
H33 C30 1_555 1_555
H34 C30 1_555 1_555
C6 C7 1_555 1_555
C7 C8 1_555 1_555
C10 C15 1_555 1_555
C14 C15 1_555 1_555
C22 C23 1_555 1_555

#END
