
#######################################################################
#
#                 Cambridge Crystallographic Data Centre
#                                CCDC 
#
#######################################################################
#
# If this CIF has been generated from an entry in the Cambridge 
# Structural Database, then it will include bibliographic, chemical, 
# crystal, experimental, refinement or atomic coordinate data resulting 
# from the CCDC's data processing and validation procedures.
#
#######################################################################

data_PACDEF
_chemical_formula_moiety         'C32 H29 N1 O5'
_chemical_name_systematic        
1,2,4-triphenyl-3-(((3,4,5-trimethoxyphenyl)amino)methylene)butane-1,4-dione
_symmetry_cell_setting           orthorhombic
_symmetry_space_group_name_H-M   'P b c a'
_symmetry_Int_Tables_number      61
_space_group_name_Hall           '-P 2ac 2ab'
loop_
_symmetry_equiv_pos_site_id
_symmetry_equiv_pos_as_xyz
1 x,y,z
2 1/2+x,1/2-y,-z
3 -x,1/2+y,1/2-z
4 1/2-x,-y,1/2+z
5 -x,-y,-z
6 1/2-x,1/2+y,z
7 x,1/2-y,1/2+z
8 1/2+x,y,1/2-z
_cell_length_a                   20.1943(15)
_cell_length_b                   11.2274(9)
_cell_length_c                   22.5064(18)
_cell_angle_alpha                90
_cell_angle_beta                 90
_cell_angle_gamma                90
_cell_volume                     5102.86
_exptl_crystal_colour            colorless
_exptl_crystal_description       block
_cell_formula_units_Z            8
loop_
_atom_site_label
_atom_site_type_symbol
_atom_site_fract_x
_atom_site_fract_y
_atom_site_fract_z
O1 O 0.22255(7) 1.12564(11) 0.96018(5)
O2 O 0.15611(6) 0.74396(10) 0.86161(5)
O3 O 0.07216(6) 0.33071(10) 1.02665(6)
O4 O 0.07446(6) 0.37458(11) 1.14378(6)
O5 O 0.08472(7) 0.59647(11) 1.18513(5)
N1 N 0.12460(7) 0.74249(12) 0.98551(6)
H1 H 0.1138 0.7332 0.9479
C1 C 0.25572(8) 0.96367(15) 1.08856(7)
H2 H 0.2750 0.8975 1.0687
C2 C 0.26408(9) 0.97722(16) 1.14938(8)
H3 H 0.2896 0.9209 1.1710
C3 C 0.23544(9) 1.07220(17) 1.17855(8)
H4 H 0.2409 1.0808 1.2203
C4 C 0.19900(9) 1.15447(16) 1.14722(8)
H5 H 0.1788 1.2192 1.1675
C5 C 0.19173(9) 1.14345(14) 1.08647(8)
H6 H 0.1679 1.2022 1.0649
C6 C 0.21911(8) 1.04692(14) 1.05664(7)
C7 C 0.20771(8) 1.03944(14) 0.99093(7)
C8 C 0.17445(8) 0.93537(14) 0.96549(7)
C9 C 0.15672(8) 0.84295(14) 1.00123(7)
H7 H 0.1683 0.8500 1.0420
C10 C 0.15822(8) 0.94266(13) 0.89995(7)
H8 H 0.1816 1.0146 0.8843
C11 C 0.08530(8) 0.95803(13) 0.88441(7)
C12 C 0.03462(8) 0.95436(15) 0.92574(8)
H9 H 0.0444 0.9393 0.9663
C13 C -0.03082(9) 0.97269(17) 0.90814(8)
H10 H -0.0653 0.9692 0.9368
C14 C -0.04583(9) 0.99589(16) 0.84953(9)
H11 H -0.0905 1.0082 0.8377
C15 C 0.00470(9) 1.00102(15) 0.80811(8)
H12 H -0.0052 1.0176 0.7677
C16 C 0.06959(9) 0.98213(14) 0.82543(7)
H13 H 0.1039 0.9857 0.7966
C17 C 0.18829(8) 0.83512(14) 0.86814(7)
C18 C 0.25767(8) 0.84248(15) 0.84596(7)
C19 C 0.29709(9) 0.94241(17) 0.85462(8)
H14 H 0.2804 1.0086 0.8763
C20 C 0.36095(10) 0.9454(2) 0.83157(9)
H15 H 0.3878 1.0140 0.8371
C21 C 0.38536(10) 0.8492(2) 0.80083(9)
H16 H 0.4293 0.8513 0.7857
C22 C 0.34655(10) 0.74971(19) 0.79180(9)
H17 H 0.3637 0.6838 0.7702
C23 C 0.28284(10) 0.74571(16) 0.81414(8)
H18 H 0.2562 0.6772 0.8079
C24 C 0.10736(8) 0.65145(14) 1.02574(7)
C25 C 0.09629(8) 0.53797(14) 1.00351(7)
H19 H 0.0985 0.5232 0.9620
C26 C 0.08190(8) 0.44591(14) 1.04304(8)
C27 C 0.07946(8) 0.46732(14) 1.10405(8)
C28 C 0.08859(8) 0.58254(15) 1.12495(7)
C29 C 0.10182(8) 0.67546(14) 1.08609(7)
H20 H 0.1070 0.7544 1.1006
C30 C 0.09714(12) 0.71309(17) 1.20766(8)
H21 H 0.1411 0.7397 1.1947
H22 H 0.0954 0.7116 1.2512
H23 H 0.0634 0.7681 1.1926
C31 C 0.00969(9) 0.32662(17) 1.14961(9)
H24 H -0.0196 0.3866 1.1671
H25 H 0.0111 0.2563 1.1754
H26 H -0.0071 0.3039 1.1104
C32 C 0.07567(10) 0.30326(16) 0.96477(9)
H27 H 0.0436 0.3522 0.9430
H28 H 0.0654 0.2188 0.9587
H29 H 0.1204 0.3199 0.9501
loop_
_geom_bond_atom_site_label_1
_geom_bond_atom_site_label_2
_geom_bond_site_symmetry_1
_geom_bond_site_symmetry_2
O1 C7 1_555 1_555
O2 C17 1_555 1_555
O3 C26 1_555 1_555
O4 C27 1_555 1_555
O5 C28 1_555 1_555
N1 H1 1_555 1_555
C1 H2 1_555 1_555
C2 C1 1_555 1_555
H3 C2 1_555 1_555
C3 C2 1_555 1_555
H4 C3 1_555 1_555
C4 C3 1_555 1_555
H5 C4 1_555 1_555
C5 C4 1_555 1_555
H6 C5 1_555 1_555
C6 C1 1_555 1_555
C7 C6 1_555 1_555
C8 C7 1_555 1_555
C9 N1 1_555 1_555
H7 C9 1_555 1_555
C10 C8 1_555 1_555
H8 C10 1_555 1_555
C11 C10 1_555 1_555
C12 C11 1_555 1_555
H9 C12 1_555 1_555
C13 C12 1_555 1_555
H10 C13 1_555 1_555
C14 C13 1_555 1_555
H11 C14 1_555 1_555
C15 C14 1_555 1_555
H12 C15 1_555 1_555
C16 C11 1_555 1_555
H13 C16 1_555 1_555
C17 C10 1_555 1_555
C18 C17 1_555 1_555
C19 C18 1_555 1_555
H14 C19 1_555 1_555
C20 C19 1_555 1_555
H15 C20 1_555 1_555
C21 C20 1_555 1_555
H16 C21 1_555 1_555
C22 C21 1_555 1_555
H17 C22 1_555 1_555
C23 C18 1_555 1_555
H18 C23 1_555 1_555
C24 N1 1_555 1_555
C25 C24 1_555 1_555
H19 C25 1_555 1_555
C26 C25 1_555 1_555
C27 C26 1_555 1_555
C28 C27 1_555 1_555
C29 C24 1_555 1_555
H20 C29 1_555 1_555
C30 O5 1_555 1_555
H21 C30 1_555 1_555
H22 C30 1_555 1_555
H23 C30 1_555 1_555
C31 O4 1_555 1_555
H24 C31 1_555 1_555
H25 C31 1_555 1_555
H26 C31 1_555 1_555
C32 O3 1_555 1_555
H27 C32 1_555 1_555
H28 C32 1_555 1_555
H29 C32 1_555 1_555
C5 C6 1_555 1_555
C8 C9 1_555 1_555
C15 C16 1_555 1_555
C22 C23 1_555 1_555
C28 C29 1_555 1_555

#END
