
#######################################################################
#
#                 Cambridge Crystallographic Data Centre
#                                CCDC 
#
#######################################################################
#
# If this CIF has been generated from an entry in the Cambridge 
# Structural Database, then it will include bibliographic, chemical, 
# crystal, experimental, refinement or atomic coordinate data resulting 
# from the CCDC's data processing and validation procedures.
#
#######################################################################

data_PACNEO
_chemical_formula_moiety         'C20 H21 F2 N3 O3'
_chemical_name_systematic        
N-((4-(2-(t-Butoxyimino)ethyl)phenyl)carbamoyl)-2,6-difluorobenzamide
_chemical_properties_biological  
'tested for larvicidal activity against Oriental armyworm'
_symmetry_cell_setting           monoclinic
_symmetry_space_group_name_H-M   'P 21/c'
_symmetry_Int_Tables_number      14
_space_group_name_Hall           '-P 2ybc'
loop_
_symmetry_equiv_pos_site_id
_symmetry_equiv_pos_as_xyz
1 x,y,z
2 -x,1/2+y,1/2-z
3 -x,-y,-z
4 x,1/2-y,1/2+z
_cell_length_a                   10.128(2)
_cell_length_b                   17.692(3)
_cell_length_c                   12.207(5)
_cell_angle_alpha                90
_cell_angle_beta                 117.05(2)
_cell_angle_gamma                90
_cell_volume                     1948.04
_cell_formula_units_Z            4
loop_
_atom_site_label
_atom_site_type_symbol
_atom_site_fract_x
_atom_site_fract_y
_atom_site_fract_z
F1 F 1.36370(17) 0.02973(9) 1.57952(14)
F2 F 1.28002(18) -0.18135(10) 1.32218(15)
O1 O 1.1596(2) -0.03394(12) 1.24250(16)
O2 O 0.8633(2) 0.03711(13) 1.36776(17)
O3 O 0.1591(2) 0.21848(14) 0.6096(2)
N1 N 1.0775(2) -0.01464(13) 1.3867(2)
H1 H 1.1029 -0.0204 1.4637
N2 N 0.8967(2) 0.02641(14) 1.1955(2)
H2 H 0.9603 0.0122 1.1713
N3 N 0.3021(3) 0.23320(16) 0.6262(2)
C1 C 1.4023(3) -0.04027(15) 1.5601(2)
C2 C 1.5294(3) -0.07254(16) 1.6490(2)
H3 H 1.5853 -0.0479 1.7232
C3 C 1.5722(3) -0.14232(17) 1.6257(3)
H4 H 1.6580 -0.1648 1.6849
C4 C 1.4888(3) -0.17934(17) 1.5153(3)
H5 H 1.5179 -0.2263 1.4995
C5 C 1.3627(3) -0.14498(16) 1.4300(2)
C6 C 1.3143(3) -0.07446(15) 1.4475(2)
C7 C 1.1776(3) -0.03887(15) 1.3487(2)
C8 C 0.9377(3) 0.01868(16) 1.3162(2)
C9 C 0.7610(3) 0.05515(15) 1.1035(2)
C10 C 0.7435(3) 0.05338(15) 0.9834(2)
H6 H 0.8185 0.0336 0.9680
C11 C 0.6160(3) 0.08068(15) 0.8873(2)
H7 H 0.6069 0.0797 0.8080
C12 C 0.5006(3) 0.10967(16) 0.9067(2)
C13 C 0.5193(3) 0.11034(16) 1.0270(3)
H8 H 0.4432 0.1290 1.0419
C14 C 0.6475(3) 0.08416(17) 1.1252(3)
H9 H 0.6574 0.0860 1.2048
C15 C 0.3624(3) 0.1411(2) 0.7986(3)
H10 H 0.3048 0.0992 0.7481
H11 H 0.3021 0.1667 0.8302
C16 C 0.3954(3) 0.19535(18) 0.7191(3)
H12 H 0.4950 0.2023 0.7397
C17 C 0.0515(3) 0.26013(18) 0.4995(3)
C18 C 0.0584(4) 0.2284(2) 0.3871(3)
H13 H 0.1524 0.2406 0.3903
H14 H -0.0198 0.2500 0.3143
H15 H 0.0468 0.1745 0.3853
C19 C -0.0954(4) 0.2391(2) 0.4975(4)
H16 H -0.1086 0.1853 0.4895
H17 H -0.1751 0.2635 0.4291
H18 H -0.0951 0.2553 0.5727
C20 C 0.0785(4) 0.3438(2) 0.5157(4)
H19 H 0.0614 0.3611 0.5828
H20 H 0.0122 0.3694 0.4416
H21 H 0.1791 0.3544 0.5332
loop_
_geom_bond_atom_site_label_1
_geom_bond_atom_site_label_2
_geom_bond_site_symmetry_1
_geom_bond_site_symmetry_2
F1 C1 1_555 1_555
F2 C5 1_555 1_555
O1 C7 1_555 1_555
O2 C8 1_555 1_555
O3 N3 1_555 1_555
N1 H1 1_555 1_555
N2 H2 1_555 1_555
N3 C16 1_555 1_555
C1 C2 1_555 1_555
C2 H3 1_555 1_555
C3 C2 1_555 1_555
H4 C3 1_555 1_555
C4 C3 1_555 1_555
H5 C4 1_555 1_555
C5 C4 1_555 1_555
C6 C1 1_555 1_555
C7 N1 1_555 1_555
C8 N1 1_555 1_555
C9 N2 1_555 1_555
C10 C9 1_555 1_555
H6 C10 1_555 1_555
C11 C10 1_555 1_555
H7 C11 1_555 1_555
C12 C11 1_555 1_555
C13 C12 1_555 1_555
H8 C13 1_555 1_555
C14 C9 1_555 1_555
H9 C14 1_555 1_555
C15 C12 1_555 1_555
H10 C15 1_555 1_555
H11 C15 1_555 1_555
C16 C15 1_555 1_555
H12 C16 1_555 1_555
C17 O3 1_555 1_555
C18 C17 1_555 1_555
H13 C18 1_555 1_555
H14 C18 1_555 1_555
H15 C18 1_555 1_555
C19 C17 1_555 1_555
H16 C19 1_555 1_555
H17 C19 1_555 1_555
H18 C19 1_555 1_555
C20 C17 1_555 1_555
H19 C20 1_555 1_555
H20 C20 1_555 1_555
H21 C20 1_555 1_555
N2 C8 1_555 1_555
C5 C6 1_555 1_555
C6 C7 1_555 1_555
C13 C14 1_555 1_555

#END
