
#######################################################################
#
#                 Cambridge Crystallographic Data Centre
#                                CCDC 
#
#######################################################################
#
# If this CIF has been generated from an entry in the Cambridge 
# Structural Database, then it will include bibliographic, chemical, 
# crystal, experimental, refinement or atomic coordinate data resulting 
# from the CCDC's data processing and validation procedures.
#
#######################################################################

data_PACTCN11
_chemical_formula_moiety         'C6 N4,C18 H20'
_chemical_name_systematic        
'Ethene-1,1,2,2-tetracarbonitrile tricyclo[10.2.2.2^5,8^]octadeca-1(14),5,7,12,15,17-hexaene'
_symmetry_cell_setting           triclinic
_symmetry_space_group_name_H-M   'P -1'
_symmetry_Int_Tables_number      2
_space_group_name_Hall           '-P 1'
loop_
_symmetry_equiv_pos_site_id
_symmetry_equiv_pos_as_xyz
1 x,y,z
2 -x,-y,-z
_cell_length_a                   7.646(4)
_cell_length_b                   8.426(5)
_cell_length_c                   8.482(4)
_cell_angle_alpha                104.19(2)
_cell_angle_beta                 103.51(2)
_cell_angle_gamma                110.72(2)
_cell_volume                     463.564
_exptl_crystal_colour            black
_exptl_crystal_description       needle
_cell_formula_units_Z            1
loop_
_atom_site_label
_atom_site_type_symbol
_atom_site_fract_x
_atom_site_fract_y
_atom_site_fract_z
C1 C 0.13663(19) -0.30100(17) 0.37222(16)
H1 H 0.241(2) -0.245(2) 0.325(2)
H2 H 0.073(2) -0.436(2) 0.306(2)
C2 C 0.23460(19) -0.26794(17) 0.56557(17)
H3 H 0.129(2) -0.318(2) 0.615(2)
H4 H 0.312(2) -0.341(2) 0.572(2)
C3 C 0.37681(19) -0.06912(17) 0.68746(17)
H5 H 0.437(2) -0.071(2) 0.806(2)
H6 H 0.488(2) -0.021(2) 0.642(2)
C4 C 0.27391(18) 0.05493(16) 0.70041(15)
C5 C 0.14837(19) 0.04890(17) 0.79768(16)
H7 H 0.141(2) -0.028(2) 0.871(2)
C6 C 0.02415(18) 0.13588(16) 0.78123(16)
H8 H -0.071(3) 0.122(2) 0.842(2)
C7 C -0.02071(17) -0.23168(16) 0.33245(15)
C8 C -0.16147(18) -0.25345(16) 0.41433(15)
H9 H -0.167(2) -0.324(2) 0.490(2)
C9 C 0.28556(18) 0.16678(16) 0.60213(15)
H10 H 0.377(2) 0.179(2) 0.536(2)
C7A C 0.02071(17) 0.23168(16) 0.66755(15)
C1A C -0.13663(19) 0.30100(17) 0.62778(16)
H1A H -0.241(2) 0.245(2) 0.675(2)
H2A H -0.073(2) 0.436(2) 0.694(2)
C2A C -0.23460(19) 0.26794(17) 0.43443(17)
H3A H -0.129(2) 0.318(2) 0.385(2)
H4A H -0.312(2) 0.341(2) 0.428(2)
C3A C -0.37681(19) 0.06912(17) 0.31254(17)
H5A H -0.437(2) 0.071(2) 0.194(2)
H6A H -0.488(2) 0.021(2) 0.358(2)
C4A C -0.27391(18) -0.05493(16) 0.29959(15)
C5A C -0.14837(19) -0.04890(17) 0.20232(16)
H7A H -0.141(2) 0.028(2) 0.129(2)
C6A C -0.02415(18) -0.13588(16) 0.21877(16)
H8A H 0.071(3) -0.122(2) 0.158(2)
C9A C -0.28556(18) -0.16678(16) 0.39787(15)
H10A H -0.377(2) -0.179(2) 0.464(2)
C8A C 0.16147(18) 0.25345(16) 0.58567(15)
H9A H 0.167(2) 0.324(2) 0.510(2)
C11 C 0.5690(3) 0.4926(2) 0.9648(2)
C12 C 0.6128(2) 0.58458(18) 0.84404(17)
C13 C 0.6701(2) 0.38372(19) 1.01188(18)
N1 N 0.6624(2) 0.64471(18) 0.74867(16)
N2 N 0.76042(18) 0.30459(16) 1.03309(15)
C11A C 0.4310(3) 0.5074(2) 1.0352(2)
C12A C 0.3872(2) 0.41542(18) 1.15596(17)
N1A N 0.3376(2) 0.35529(18) 1.25133(16)
C13A C 0.3299(2) 0.61628(19) 0.98812(18)
N2A N 0.23958(18) 0.69541(16) 0.96691(15)
C10? C 0.4863(7) 0.5535(7) 0.9542(6)
loop_
_geom_bond_atom_site_label_1
_geom_bond_atom_site_label_2
_geom_bond_site_symmetry_1
_geom_bond_site_symmetry_2
C1 H1 1_555 1_555
H2 C1 1_555 1_555
C2 C1 1_555 1_555
H3 C2 1_555 1_555
H4 C2 1_555 1_555
C3 C2 1_555 1_555
H5 C3 1_555 1_555
H6 C3 1_555 1_555
C4 C3 1_555 1_555
C5 C4 1_555 1_555
H7 C5 1_555 1_555
C6 C5 1_555 1_555
H8 C6 1_555 1_555
C7 C1 1_555 1_555
C8 C7 1_555 1_555
H9 C8 1_555 1_555
C9 C4 1_555 1_555
H10 C9 1_555 1_555
C11 C12 1_555 1_555
C12 N1 1_555 1_555
C13 C11 1_555 1_555
N2 C13 1_555 1_555
C7A C6 1_555 1_555
C1A C7A 1_555 1_555
H1A C1A 1_555 1_555
H2A C1A 1_555 1_555
C2A C1A 1_555 1_555
H3A C2A 1_555 1_555
H4A C2A 1_555 1_555
C3A C2A 1_555 1_555
H5A C3A 1_555 1_555
H6A C3A 1_555 1_555
C4A C3A 1_555 1_555
C5A C4A 1_555 1_555
H7A C5A 1_555 1_555
C6A C7 1_555 1_555
H8A C6A 1_555 1_555
C9A C8 1_555 1_555
H10A C9A 1_555 1_555
C8A C9 1_555 1_555
H9A C8A 1_555 1_555
C11A C11 1_555 1_555
C12A C11A 1_555 1_555
N1A C12A 1_555 1_555
C13A C11A 1_555 1_555
N2A C13A 1_555 1_555
C7A C8A 1_555 1_555
C4A C9A 1_555 1_555
C5A C6A 1_555 1_555

#END
