
#######################################################################
#
#                 Cambridge Crystallographic Data Centre
#                                CCDC 
#
#######################################################################
#
# If this CIF has been generated from an entry in the Cambridge 
# Structural Database, then it will include bibliographic, chemical, 
# crystal, experimental, refinement or atomic coordinate data resulting 
# from the CCDC's data processing and validation procedures.
#
#######################################################################

data_PACWOH
_chemical_formula_moiety         'C16 H18 Br1 N1 O4'
_chemical_name_systematic        
'1-(2-(4-Bromophenyl)-5-methyl-4-oxo-4,5-dihydro-1,3-oxazol-5-yl)-2-methylpropyl acetate'
_symmetry_cell_setting           orthorhombic
_symmetry_space_group_name_H-M   'P 21 21 21'
_symmetry_Int_Tables_number      19
_space_group_name_Hall           'P 2ac 2ab'
loop_
_symmetry_equiv_pos_site_id
_symmetry_equiv_pos_as_xyz
1 x,y,z
2 1/2+x,1/2-y,-z
3 -x,1/2+y,1/2-z
4 1/2-x,-y,1/2+z
_cell_length_a                   7.4681(17)
_cell_length_b                   12.7255(16)
_cell_length_c                   17.4475(18)
_cell_angle_alpha                90
_cell_angle_beta                 90
_cell_angle_gamma                90
_cell_volume                     1658.13
_exptl_crystal_description       block
_cell_formula_units_Z            4
loop_
_atom_site_label
_atom_site_type_symbol
_atom_site_fract_x
_atom_site_fract_y
_atom_site_fract_z
Br1 Br 0.32950(12) 0.26556(8) -0.14876(4)
O1 O 0.3496(6) 0.2284(3) 0.2407(2)
O2 O 0.4460(7) 0.4381(4) 0.3617(3)
O3 O 0.0934(6) 0.2984(3) 0.3504(2)
O4 O 0.0607(10) 0.3665(4) 0.4681(3)
N1 N 0.3973(8) 0.4039(4) 0.2331(3)
C1 C 0.3268(9) 0.2791(6) -0.0410(3)
C2 C 0.3165(13) 0.3772(7) -0.0093(4)
C3 C 0.3393(13) 0.1920(6) 0.0040(4)
C4 C 0.3287(13) 0.3893(6) 0.0682(3)
C5 C 0.3467(11) 0.2034(5) 0.0832(3)
C6 C 0.3410(10) 0.3031(5) 0.1150(3)
C7 C 0.3629(9) 0.3160(6) 0.1986(3)
C8 C 0.4140(10) 0.3779(6) 0.3099(4)
C9 C 0.3948(8) 0.2583(5) 0.3182(3)
C10 C 0.5682(9) 0.2046(7) 0.3411(4)
C11 C 0.2462(9) 0.2331(6) 0.3746(3)
C12 C 0.0244(10) 0.3658(6) 0.4024(5)
C13 C -0.1037(13) 0.4380(6) 0.3651(6)
C14 C 0.1863(14) 0.1191(6) 0.3845(4)
C15 C 0.1201(19) 0.0674(8) 0.3155(6)
C16 C 0.0456(15) 0.1119(7) 0.4495(5)
H1 H 0.3047 0.4364 -0.0421
H2 H 0.3365 0.1252 -0.0203
H3 H 0.3273 0.4570 0.0912
H4 H 0.3568 0.1437 0.1157
H5 H 0.6645 0.2505 0.3291
H6 H 0.5679 0.1906 0.3946
H7 H 0.5823 0.1405 0.3138
H8 H 0.2829 0.2578 0.4235
H9 H -0.2205 0.4084 0.3654
H10 H -0.1054 0.5036 0.3912
H11 H -0.0658 0.4484 0.3137
H12 H 0.2874 0.0804 0.4016
H13 H 0.2160 0.0367 0.2875
H14 H 0.0367 0.0144 0.3294
H15 H 0.0622 0.1186 0.2845
H16 H -0.0694 0.1204 0.4270
H17 H 0.0509 0.0464 0.4754
H18 H 0.0666 0.1672 0.4849
loop_
_geom_bond_atom_site_label_1
_geom_bond_atom_site_label_2
_geom_bond_site_symmetry_1
_geom_bond_site_symmetry_2
Br1 C1 1_555 1_555
O1 C7 1_555 1_555
O2 C8 1_555 1_555
O3 C11 1_555 1_555
O4 C12 1_555 1_555
N1 C7 1_555 1_555
C1 C2 1_555 1_555
C2 C4 1_555 1_555
C3 C1 1_555 1_555
C4 C6 1_555 1_555
C5 C3 1_555 1_555
C6 C5 1_555 1_555
C7 C6 1_555 1_555
C8 N1 1_555 1_555
C9 O1 1_555 1_555
C10 C9 1_555 1_555
C11 C9 1_555 1_555
C12 O3 1_555 1_555
C13 C12 1_555 1_555
C14 C11 1_555 1_555
C15 C14 1_555 1_555
C16 C14 1_555 1_555
H1 C2 1_555 1_555
H2 C3 1_555 1_555
H3 C4 1_555 1_555
H4 C5 1_555 1_555
H5 C10 1_555 1_555
H6 C10 1_555 1_555
H7 C10 1_555 1_555
H8 C11 1_555 1_555
H9 C13 1_555 1_555
H10 C13 1_555 1_555
H11 C13 1_555 1_555
H12 C14 1_555 1_555
H13 C15 1_555 1_555
H14 C15 1_555 1_555
H15 C15 1_555 1_555
H16 C16 1_555 1_555
H17 C16 1_555 1_555
H18 C16 1_555 1_555
C8 C9 1_555 1_555

#END
