
#######################################################################
#
#                 Cambridge Crystallographic Data Centre
#                                CCDC 
#
#######################################################################
#
# If this CIF has been generated from an entry in the Cambridge 
# Structural Database, then it will include bibliographic, chemical, 
# crystal, experimental, refinement or atomic coordinate data resulting 
# from the CCDC's data processing and validation procedures.
#
#######################################################################

data_PACYAV
_chemical_formula_moiety         'C18 H30 O3'
_chemical_name_systematic        
2,4-Di-t-butyl-2-(3,3-dimethyl-2-oxobutyl)furan-3(2H)-one
_symmetry_cell_setting           triclinic
_symmetry_space_group_name_H-M   'P -1'
_symmetry_Int_Tables_number      2
_space_group_name_Hall           '-P 1'
loop_
_symmetry_equiv_pos_site_id
_symmetry_equiv_pos_as_xyz
1 x,y,z
2 -x,-y,-z
_cell_length_a                   6.5659(15)
_cell_length_b                   9.962(2)
_cell_length_c                   14.712(3)
_cell_angle_alpha                82.117(16)
_cell_angle_beta                 88.026(17)
_cell_angle_gamma                72.46(2)
_cell_volume                     908.869
_cell_formula_units_Z            2
loop_
_atom_site_label
_atom_site_type_symbol
_atom_site_fract_x
_atom_site_fract_y
_atom_site_fract_z
O1 O 0.4036(3) 0.5929(2) 0.22300(16)
O2 O 0.0281(4) 0.4072(3) 0.21773(16)
O3 O 0.2297(4) 0.4832(2) 0.40536(16)
C1 C 0.5206(5) 0.4529(4) 0.2255(2)
H1 H 0.6721 0.4226 0.2298
C2 C 0.4098(5) 0.3622(4) 0.2215(2)
C3 C 0.1868(5) 0.4443(4) 0.2186(2)
C4 C 0.1821(5) 0.6014(4) 0.2135(2)
C5 C 0.4934(5) 0.2001(4) 0.2256(2)
C6 C 0.7364(5) 0.1501(4) 0.2263(3)
H2 H 0.7891 0.1934 0.1701
H3 H 0.7870 0.0465 0.2293
H4 H 0.7894 0.1784 0.2798
C7 C 0.4116(6) 0.1318(4) 0.3133(3)
H5 H 0.2551 0.1628 0.3127
H6 H 0.4633 0.1609 0.3669
H7 H 0.4641 0.0282 0.3165
C8 C 0.4128(6) 0.1574(4) 0.1407(3)
H8 H 0.4672 0.2014 0.0852
H9 H 0.2563 0.1897 0.1394
H10 H 0.4635 0.0538 0.1430
C9 C 0.1042(5) 0.6883(4) 0.1155(2)
C10 C 0.2174(6) 0.6007(4) 0.0398(2)
H11 H 0.1694 0.6544 -0.0205
H12 H 0.1826 0.5109 0.0461
H13 H 0.3722 0.5810 0.0456
C11 C -0.1361(6) 0.7195(5) 0.1062(3)
H14 H -0.1833 0.7726 0.0456
H15 H -0.2081 0.7760 0.1540
H16 H -0.1716 0.6299 0.1129
C12 C 0.1611(7) 0.8276(4) 0.1046(3)
H17 H 0.1138 0.8808 0.0441
H18 H 0.3161 0.8070 0.1104
H19 H 0.0899 0.8844 0.1524
C13 C 0.0539(5) 0.6727(4) 0.2916(2)
H20 H 0.0404 0.7753 0.2807
H21 H -0.0917 0.6631 0.2906
C14 C 0.1518(5) 0.6118(4) 0.3863(2)
C15 C 0.1470(5) 0.7149(4) 0.4543(2)
C16 C -0.0821(6) 0.8140(5) 0.4619(3)
H22 H -0.1310 0.8671 0.4015
H23 H -0.0839 0.8807 0.5053
H24 H -0.1772 0.7574 0.4837
C17 C 0.2214(6) 0.6341(4) 0.5490(3)
H25 H 0.3678 0.5717 0.5451
H26 H 0.1269 0.5770 0.5707
H27 H 0.2171 0.7019 0.5920
C18 C 0.2997(8) 0.7989(5) 0.4188(3)
H28 H 0.4438 0.7335 0.4144
H29 H 0.3015 0.8664 0.4612
H30 H 0.2519 0.8509 0.3581
loop_
_geom_bond_atom_site_label_1
_geom_bond_atom_site_label_2
_geom_bond_site_symmetry_1
_geom_bond_site_symmetry_2
O1 C1 1_555 1_555
O2 C3 1_555 1_555
O3 C14 1_555 1_555
C1 H1 1_555 1_555
C2 C1 1_555 1_555
C3 C2 1_555 1_555
C4 O1 1_555 1_555
C5 C2 1_555 1_555
C6 C5 1_555 1_555
H2 C6 1_555 1_555
H3 C6 1_555 1_555
H4 C6 1_555 1_555
C7 C5 1_555 1_555
H5 C7 1_555 1_555
H6 C7 1_555 1_555
H7 C7 1_555 1_555
C8 C5 1_555 1_555
H8 C8 1_555 1_555
H9 C8 1_555 1_555
H10 C8 1_555 1_555
C9 C4 1_555 1_555
C10 C9 1_555 1_555
H11 C10 1_555 1_555
H12 C10 1_555 1_555
H13 C10 1_555 1_555
C11 C9 1_555 1_555
H14 C11 1_555 1_555
H15 C11 1_555 1_555
H16 C11 1_555 1_555
C12 C9 1_555 1_555
H17 C12 1_555 1_555
H18 C12 1_555 1_555
H19 C12 1_555 1_555
C13 C4 1_555 1_555
H20 C13 1_555 1_555
H21 C13 1_555 1_555
C14 C13 1_555 1_555
C15 C14 1_555 1_555
C16 C15 1_555 1_555
H22 C16 1_555 1_555
H23 C16 1_555 1_555
H24 C16 1_555 1_555
C17 C15 1_555 1_555
H25 C17 1_555 1_555
H26 C17 1_555 1_555
H27 C17 1_555 1_555
C18 C15 1_555 1_555
H28 C18 1_555 1_555
H29 C18 1_555 1_555
H30 C18 1_555 1_555
C3 C4 1_555 1_555

#END
