
#######################################################################
#
#                 Cambridge Crystallographic Data Centre
#                                CCDC 
#
#######################################################################
#
# If this CIF has been generated from an entry in the Cambridge 
# Structural Database, then it will include bibliographic, chemical, 
# crystal, experimental, refinement or atomic coordinate data resulting 
# from the CCDC's data processing and validation procedures.
#
#######################################################################

data_PADCUV
_chemical_formula_moiety         'C28 H30 N6'
_chemical_name_systematic        
2,3,5,6-tetrakis(3-methylpyridin-2-yl)piperazine
_symmetry_cell_setting           monoclinic
_symmetry_space_group_name_H-M   'P 21/c'
_symmetry_Int_Tables_number      14
_space_group_name_Hall           '-P 2ybc'
loop_
_symmetry_equiv_pos_site_id
_symmetry_equiv_pos_as_xyz
1 x,y,z
2 -x,1/2+y,1/2-z
3 -x,-y,-z
4 x,1/2-y,1/2+z
_cell_length_a                   14.9174(4)
_cell_length_b                   14.2278(4)
_cell_length_c                   11.8413(3)
_cell_angle_alpha                90
_cell_angle_beta                 96.398(2)
_cell_angle_gamma                90
_cell_volume                     2497.57
_cell_formula_units_Z            4
_exptl_crystal_recrystallization_method 'chloroform / diethyl ether'
loop_
_atom_site_label
_atom_site_type_symbol
_atom_site_fract_x
_atom_site_fract_y
_atom_site_fract_z
N1 N 0.09175(9) 0.01235(10) 0.47138(12)
N2 N 0.18352(10) -0.02022(11) 0.68816(13)
C1 C 0.01448(11) 0.04728(11) 0.39574(13)
H1 H -0.0021 -0.0007 0.3378
C2 C 0.06916(11) -0.06733(11) 0.54090(13)
H2 H 0.0554 -0.1214 0.4906
N3 N 0.08184(12) 0.19946(11) 0.40784(13)
C3 C 0.04329(11) 0.13443(11) 0.33686(13)
C4 C 0.02996(12) 0.14729(13) 0.21895(14)
C5 C 0.14994(11) -0.09232(11) 0.62500(14)
C6 C 0.05996(14) 0.23186(15) 0.17838(17)
H3 H 0.0532 0.2432 0.1005
C7 C 0.18366(14) -0.18302(14) 0.6400(2)
C8 C 0.09924(15) 0.29888(15) 0.25047(19)
H4 H 0.1191 0.3555 0.2228
C9 C 0.10839(15) 0.28020(14) 0.36444(19)
H5 H 0.1343 0.3258 0.4141
C10 C -0.01384(15) 0.07455(17) 0.13865(15)
H6 H 0.0129 0.0143 0.1567
H7 H -0.0051 0.0911 0.0620
H8 H -0.0772 0.0719 0.1459
C11 C 0.24981(13) -0.03667(16) 0.77127(18)
H9 H 0.2737 0.0139 0.8144
C12 C 0.28427(14) -0.12424(17) 0.7960(2)
H10 H 0.3284 -0.1338 0.8568
C13 C 0.25198(15) -0.19681(17) 0.7290(2)
H11 H 0.2757 -0.2567 0.7427
C14 C 0.1493(2) -0.26459(18) 0.5661(3)
H12 H 0.0868 -0.2752 0.5744
H13 H 0.1835 -0.3199 0.5888
H14 H 0.1558 -0.2505 0.4882
H15 H 0.1146(13) 0.0573(14) 0.5160(16)
N1B N -0.09175(9) -0.01235(10) 0.52862(12)
N2B N -0.18352(10) 0.02022(11) 0.31184(13)
C1B C -0.01448(11) -0.04728(11) 0.60426(13)
H1B H 0.0021 0.0007 0.6622
C2B C -0.06916(11) 0.06733(11) 0.45910(13)
H2B H -0.0554 0.1214 0.5094
N3B N -0.08184(12) -0.19946(11) 0.59216(13)
C3B C -0.04329(11) -0.13443(11) 0.66314(13)
C4B C -0.02996(12) -0.14729(13) 0.78105(14)
C5B C -0.14994(11) 0.09232(11) 0.37500(14)
C6B C -0.05996(14) -0.23186(15) 0.82162(17)
H3B H -0.0532 -0.2432 0.8995
C7B C -0.18366(14) 0.18302(14) 0.3600(2)
C8B C -0.09924(15) -0.29888(15) 0.74953(19)
H4B H -0.1191 -0.3555 0.7772
C9B C -0.10839(15) -0.28020(14) 0.63556(19)
H5B H -0.1343 -0.3258 0.5859
C10B C 0.01384(15) -0.07455(17) 0.86135(15)
H6B H -0.0129 -0.0143 0.8433
H7B H 0.0051 -0.0911 0.9380
H8B H 0.0772 -0.0719 0.8541
C11B C -0.24981(13) 0.03667(16) 0.22873(18)
H9B H -0.2737 -0.0139 0.1856
C12B C -0.28427(14) 0.12424(17) 0.2040(2)
H10B H -0.3284 0.1338 0.1432
C13B C -0.25198(15) 0.19681(17) 0.2710(2)
H11B H -0.2757 0.2567 0.2573
C14B C -0.1493(2) 0.26459(18) 0.4339(3)
H12B H -0.0868 0.2752 0.4256
H13B H -0.1835 0.3199 0.4112
H14B H -0.1558 0.2505 0.5118
H15B H -0.1146(13) -0.0573(14) 0.4840(16)
N4 N 0.53195(10) 0.09437(10) 0.98010(13)
N5 N 0.37838(11) 0.19372(11) 1.00801(13)
C15 C 0.48325(11) 0.07484(12) 1.07776(14)
H16 H 0.5277 0.0643 1.1440
C16 C 0.57848(11) 0.01332(12) 0.93807(14)
H17 H 0.6306 -0.0018 0.9930
C17 C 0.42812(11) 0.16081(12) 1.10087(14)
C18 C 0.42661(12) 0.20033(13) 1.20848(15)
N6 N 0.55066(12) 0.08261(12) 0.75357(13)
C19 C 0.32580(14) 0.26829(14) 1.01932(18)
H18 H 0.2923 0.2923 0.9548
C20 C 0.31889(15) 0.31122(15) 1.12184(19)
H19 H 0.2807 0.3624 1.1269
C21 C 0.61209(12) 0.03860(12) 0.82563(15)
C22 C 0.69724(14) 0.01382(14) 0.79665(18)
C23 C 0.36959(14) 0.27687(14) 1.21646(18)
H20 H 0.3659 0.3050 1.2867
C24 C 0.48368(16) 0.16515(17) 1.31269(17)
H21 H 0.4604 0.1061 1.3356
H22 H 0.4823 0.2100 1.3731
H23 H 0.5447 0.1570 1.2959
C25 C 0.76763(15) -0.03365(19) 0.8778(2)
H24 H 0.7749 0.0003 0.9483
H25 H 0.8239 -0.0347 0.8456
H26 H 0.7490 -0.0969 0.8913
C26 C 0.71500(19) 0.03456(18) 0.6864(2)
H27 H 0.7703 0.0179 0.6628
C27 C 0.6519(2) 0.0792(2) 0.6124(2)
H28 H 0.6638 0.0933 0.5389
C28 C 0.57085(19) 0.10267(19) 0.64901(19)
H29 H 0.5282 0.1338 0.5992
H30 H 0.4933(13) 0.1168(13) 0.9228(16)
N4B N 0.46805(10) -0.09437(10) 1.01990(13)
N5B N 0.62162(11) -0.19372(11) 0.99199(13)
C15B C 0.51675(11) -0.07484(12) 0.92224(14)
H16B H 0.4723 -0.0643 0.8560
C16B C 0.42152(11) -0.01332(12) 1.06193(14)
H17B H 0.3694 0.0018 1.0070
C17B C 0.57188(11) -0.16081(12) 0.89913(14)
C18B C 0.57339(12) -0.20033(13) 0.79152(15)
N6B N 0.44934(12) -0.08261(12) 1.24643(13)
C19B C 0.67420(14) -0.26829(14) 0.98068(18)
H18B H 0.7077 -0.2923 1.0452
C20B C 0.68111(15) -0.31122(15) 0.87816(19)
H19B H 0.7193 -0.3624 0.8731
C21B C 0.38791(12) -0.03860(12) 1.17437(15)
C22B C 0.30276(14) -0.01382(14) 1.20335(18)
C23B C 0.63041(14) -0.27687(14) 0.78354(18)
H20B H 0.6341 -0.3050 0.7133
C24B C 0.51632(16) -0.16515(17) 0.68731(17)
H21B H 0.5396 -0.1061 0.6644
H22B H 0.5177 -0.2100 0.6269
H23B H 0.4553 -0.1570 0.7041
C25B C 0.23237(15) 0.03365(19) 1.1222(2)
H24B H 0.2251 -0.0003 1.0517
H25B H 0.1761 0.0347 1.1544
H26B H 0.2510 0.0969 1.1087
C26B C 0.28500(19) -0.03456(18) 1.3136(2)
H27B H 0.2297 -0.0179 1.3372
C27B C 0.3481(2) -0.0792(2) 1.3876(2)
H28B H 0.3362 -0.0933 1.4611
C28B C 0.42915(19) -0.10267(19) 1.35099(19)
H29B H 0.4718 -0.1338 1.4008
H30B H 0.5067(13) -0.1168(13) 1.0772(16)
loop_
_geom_bond_atom_site_label_1
_geom_bond_atom_site_label_2
_geom_bond_site_symmetry_1
_geom_bond_site_symmetry_2
N1 C1 1_555 1_555
N2 C5 1_555 1_555
C1 H1 1_555 1_555
C2 N1 1_555 1_555
H2 C2 1_555 1_555
N3 C3 1_555 1_555
C3 C1 1_555 1_555
C4 C3 1_555 1_555
C5 C2 1_555 1_555
C6 C4 1_555 1_555
H3 C6 1_555 1_555
C7 C5 1_555 1_555
C8 C6 1_555 1_555
H4 C8 1_555 1_555
C9 N3 1_555 1_555
H5 C9 1_555 1_555
C10 C4 1_555 1_555
H6 C10 1_555 1_555
H7 C10 1_555 1_555
H8 C10 1_555 1_555
C11 N2 1_555 1_555
H9 C11 1_555 1_555
C12 C11 1_555 1_555
H10 C12 1_555 1_555
C13 C7 1_555 1_555
H11 C13 1_555 1_555
C14 C7 1_555 1_555
H12 C14 1_555 1_555
H13 C14 1_555 1_555
H14 C14 1_555 1_555
H15 N1 1_555 1_555
N4 C15 1_555 1_555
N5 C17 1_555 1_555
C15 H16 1_555 1_555
C16 N4 1_555 1_555
H17 C16 1_555 1_555
C17 C15 1_555 1_555
C18 C17 1_555 1_555
N6 C21 1_555 1_555
C19 N5 1_555 1_555
H18 C19 1_555 1_555
C20 C19 1_555 1_555
H19 C20 1_555 1_555
C21 C16 1_555 1_555
C22 C21 1_555 1_555
C23 C18 1_555 1_555
H20 C23 1_555 1_555
C24 C18 1_555 1_555
H21 C24 1_555 1_555
H22 C24 1_555 1_555
H23 C24 1_555 1_555
C25 C22 1_555 1_555
H24 C25 1_555 1_555
H25 C25 1_555 1_555
H26 C25 1_555 1_555
C26 C22 1_555 1_555
H27 C26 1_555 1_555
C27 C26 1_555 1_555
H28 C27 1_555 1_555
C28 N6 1_555 1_555
H29 C28 1_555 1_555
H30 N4 1_555 1_555
N1B C1B 1_555 1_555
N2B C5B 1_555 1_555
C1B C2 1_555 1_555
H1B C1B 1_555 1_555
C2B C1 1_555 1_555
H2B C2B 1_555 1_555
N3B C3B 1_555 1_555
C3B C1B 1_555 1_555
C4B C3B 1_555 1_555
C5B C2B 1_555 1_555
C6B C4B 1_555 1_555
H3B C6B 1_555 1_555
C7B C5B 1_555 1_555
C8B C6B 1_555 1_555
H4B C8B 1_555 1_555
C9B N3B 1_555 1_555
H5B C9B 1_555 1_555
C10B C4B 1_555 1_555
H6B C10B 1_555 1_555
H7B C10B 1_555 1_555
H8B C10B 1_555 1_555
C11B N2B 1_555 1_555
H9B C11B 1_555 1_555
C12B C11B 1_555 1_555
H10B C12B 1_555 1_555
C13B C7B 1_555 1_555
H11B C13B 1_555 1_555
C14B C7B 1_555 1_555
H12B C14B 1_555 1_555
H13B C14B 1_555 1_555
H14B C14B 1_555 1_555
H15B N1B 1_555 1_555
N4B C15B 1_555 1_555
N5B C17B 1_555 1_555
C15B C16 1_555 1_555
H16B C15B 1_555 1_555
C16B C15 1_555 1_555
H17B C16B 1_555 1_555
C17B C15B 1_555 1_555
C18B C17B 1_555 1_555
N6B C21B 1_555 1_555
C19B N5B 1_555 1_555
H18B C19B 1_555 1_555
C20B C19B 1_555 1_555
H19B C20B 1_555 1_555
C21B C16B 1_555 1_555
C22B C21B 1_555 1_555
C23B C18B 1_555 1_555
H20B C23B 1_555 1_555
C24B C18B 1_555 1_555
H21B C24B 1_555 1_555
H22B C24B 1_555 1_555
H23B C24B 1_555 1_555
C25B C22B 1_555 1_555
H24B C25B 1_555 1_555
H25B C25B 1_555 1_555
H26B C25B 1_555 1_555
C26B C22B 1_555 1_555
H27B C26B 1_555 1_555
C27B C26B 1_555 1_555
H28B C27B 1_555 1_555
C28B N6B 1_555 1_555
H29B C28B 1_555 1_555
H30B N4B 1_555 1_555
C8 C9 1_555 1_555
C12 C13 1_555 1_555
C20 C23 1_555 1_555
C27 C28 1_555 1_555
N1B C2B 1_555 1_555
C8B C9B 1_555 1_555
C12B C13B 1_555 1_555
N4B C16B 1_555 1_555
C20B C23B 1_555 1_555
C27B C28B 1_555 1_555

#END
