
#######################################################################
#
#                 Cambridge Crystallographic Data Centre
#                                CCDC 
#
#######################################################################
#
# If this CIF has been generated from an entry in the Cambridge 
# Structural Database, then it will include bibliographic, chemical, 
# crystal, experimental, refinement or atomic coordinate data resulting 
# from the CCDC's data processing and validation procedures.
#
#######################################################################

data_PADKUD
_chemical_formula_moiety         'C28 H28 N2 O1'
_chemical_name_systematic        
3,3'-((4-methoxyphenyl)methylene)bis(1-ethyl-1H-indole)
_symmetry_cell_setting           monoclinic
_symmetry_space_group_name_H-M   'P 21/c'
_symmetry_Int_Tables_number      14
_space_group_name_Hall           '-P 2ybc'
loop_
_symmetry_equiv_pos_site_id
_symmetry_equiv_pos_as_xyz
1 x,y,z
2 -x,1/2+y,1/2-z
3 -x,-y,-z
4 x,1/2-y,1/2+z
_cell_length_a                   9.2161(3)
_cell_length_b                   26.4436(8)
_cell_length_c                   9.0010(3)
_cell_angle_alpha                90
_cell_angle_beta                 95.3060(10)
_cell_angle_gamma                90
_cell_volume                     2184.21
_exptl_crystal_colour            brown
_exptl_crystal_description       block
_cell_formula_units_Z            4
loop_
_atom_site_label
_atom_site_type_symbol
_atom_site_fract_x
_atom_site_fract_y
_atom_site_fract_z
O1 O 0.13863(16) 0.30609(6) 1.08144(16)
N1 N 0.01325(16) 0.44432(6) 0.40834(17)
N2 N 0.53711(16) 0.31074(6) 0.32171(17)
C1 C 0.24866(19) 0.45490(7) 0.3649(2)
C2 C 0.3619(2) 0.47660(8) 0.2932(2)
H1 H 0.4604 0.4679 0.3223
C3 C 0.3279(2) 0.51092(8) 0.1794(2)
H2 H 0.4039 0.5256 0.1294
C4 C 0.1830(2) 0.52425(8) 0.1368(2)
H3 H 0.1629 0.5482 0.0589
C5 C 0.0691(2) 0.50376(7) 0.2043(2)
H4 H -0.0289 0.5130 0.1747
C6 C 0.10295(19) 0.46877(7) 0.3182(2)
C7 C -0.14511(19) 0.44874(7) 0.4022(2)
H5 H -0.1725 0.4848 0.3905
H6 H -0.1778 0.4368 0.4979
C8 C -0.2229(2) 0.41892(8) 0.2763(2)
H7 H -0.3284 0.4233 0.2777
H8 H -0.1981 0.3830 0.2885
H9 H -0.1928 0.4311 0.1810
C9 C 0.09891(19) 0.41555(7) 0.5096(2)
H10 H 0.0627 0.3948 0.5841
C10 C 0.24335(18) 0.42087(7) 0.4880(2)
C11 C 0.37194(19) 0.39833(7) 0.5833(2)
H11 H 0.4360 0.4272 0.6194
C12 C 0.46309(18) 0.36366(7) 0.4974(2)
C13 C 0.42762(19) 0.34223(7) 0.3611(2)
H12 H 0.3390 0.3482 0.3010
C14 C 0.5382(2) 0.28628(8) 0.1768(2)
H13 H 0.4379 0.2753 0.1430
H14 H 0.6000 0.2557 0.1883
C15 C 0.5933(2) 0.31940(8) 0.0589(2)
H15 H 0.5902 0.3007 -0.0354
H16 H 0.6939 0.3295 0.0896
H17 H 0.5319 0.3496 0.0454
C16 C 0.64844(19) 0.31205(7) 0.4344(2)
C17 C 0.78298(19) 0.28757(7) 0.4469(2)
H18 H 0.8103 0.2657 0.3705
C18 C 0.8752(2) 0.29614(8) 0.5741(2)
H19 H 0.9675 0.2799 0.5854
C19 C 0.8350(2) 0.32843(8) 0.6873(2)
H20 H 0.9008 0.3338 0.7735
C20 C 0.70144(19) 0.35248(7) 0.6755(2)
H21 H 0.6748 0.3740 0.7530
C21 C 0.60587(18) 0.34470(7) 0.5472(2)
C22 C 0.31815(18) 0.37344(7) 0.7209(2)
C23 C 0.28882(19) 0.32214(7) 0.7260(2)
H22 H 0.3101 0.3013 0.6448
C24 C 0.2292(2) 0.30053(7) 0.8466(2)
H23 H 0.2109 0.2652 0.8482
C25 C 0.19642(19) 0.33060(8) 0.9650(2)
C26 C 0.0440(2) 0.33494(9) 1.1642(3)
H24 H 0.0097 0.3139 1.2436
H25 H -0.0396 0.3465 1.0978
H26 H 0.0967 0.3643 1.2085
C27 C 0.2247(2) 0.38206(8) 0.9637(2)
H27 H 0.2023 0.4029 1.0445
C28 C 0.28626(19) 0.40278(7) 0.8423(2)
H28 H 0.3072 0.4380 0.8421
loop_
_geom_bond_atom_site_label_1
_geom_bond_atom_site_label_2
_geom_bond_site_symmetry_1
_geom_bond_site_symmetry_2
O1 C25 1_555 1_555
N1 C6 1_555 1_555
N2 C13 1_555 1_555
C1 C2 1_555 1_555
C2 H1 1_555 1_555
C3 C2 1_555 1_555
H2 C3 1_555 1_555
C4 C3 1_555 1_555
H3 C4 1_555 1_555
C5 C4 1_555 1_555
H4 C5 1_555 1_555
C6 C1 1_555 1_555
C7 N1 1_555 1_555
H5 C7 1_555 1_555
H6 C7 1_555 1_555
C8 C7 1_555 1_555
H7 C8 1_555 1_555
H8 C8 1_555 1_555
H9 C8 1_555 1_555
C9 N1 1_555 1_555
H10 C9 1_555 1_555
C10 C1 1_555 1_555
C11 C10 1_555 1_555
H11 C11 1_555 1_555
C12 C11 1_555 1_555
C13 C12 1_555 1_555
H12 C13 1_555 1_555
C14 N2 1_555 1_555
H13 C14 1_555 1_555
H14 C14 1_555 1_555
C15 C14 1_555 1_555
H15 C15 1_555 1_555
H16 C15 1_555 1_555
H17 C15 1_555 1_555
C16 N2 1_555 1_555
C17 C16 1_555 1_555
H18 C17 1_555 1_555
C18 C17 1_555 1_555
H19 C18 1_555 1_555
C19 C18 1_555 1_555
H20 C19 1_555 1_555
C20 C19 1_555 1_555
H21 C20 1_555 1_555
C21 C12 1_555 1_555
C22 C11 1_555 1_555
C23 C22 1_555 1_555
H22 C23 1_555 1_555
C24 C23 1_555 1_555
H23 C24 1_555 1_555
C25 C24 1_555 1_555
C26 O1 1_555 1_555
H24 C26 1_555 1_555
H25 C26 1_555 1_555
H26 C26 1_555 1_555
C27 C25 1_555 1_555
H27 C27 1_555 1_555
C28 C22 1_555 1_555
H28 C28 1_555 1_555
C5 C6 1_555 1_555
C9 C10 1_555 1_555
C16 C21 1_555 1_555
C20 C21 1_555 1_555
C27 C28 1_555 1_555

#END
