
#######################################################################
#
#                 Cambridge Crystallographic Data Centre
#                                CCDC 
#
#######################################################################
#
# If this CIF has been generated from an entry in the Cambridge 
# Structural Database, then it will include bibliographic, chemical, 
# crystal, experimental, refinement or atomic coordinate data resulting 
# from the CCDC's data processing and validation procedures.
#
#######################################################################

data_PADYEB
_chemical_formula_moiety         'C30 H22 N2 O2,1.5(C1 H4 O1)'
_chemical_name_systematic        
'2-cyano-3-(4-(2-(4-(diphenylamino)phenyl)vinyl)phenyl)acrylic acid methanol solvate'
_symmetry_cell_setting           triclinic
_symmetry_space_group_name_H-M   'P -1'
_symmetry_Int_Tables_number      2
_space_group_name_Hall           '-P 1'
loop_
_symmetry_equiv_pos_site_id
_symmetry_equiv_pos_as_xyz
1 x,y,z
2 -x,-y,-z
_cell_length_a                   9.387(5)
_cell_length_b                   13.810(5)
_cell_length_c                   20.526(5)
_cell_angle_alpha                95.045(5)
_cell_angle_beta                 96.748(5)
_cell_angle_gamma                93.762(5)
_cell_volume                     2624.44
_cell_formula_units_Z            4
loop_
_atom_site_label
_atom_site_type_symbol
_atom_site_fract_x
_atom_site_fract_y
_atom_site_fract_z
O1 O 1.4711(3) 1.10653(15) -0.14051(11)
H1 H 1.5206 1.1504 -0.1534
O2 O 1.4506(3) 1.21921(16) -0.05923(12)
N1 N 0.7257(3) 0.58349(17) 0.37258(12)
N2 N 1.3350(3) 0.8882(2) -0.11407(16)
C1 C 0.6462(5) 0.7444(3) 0.54516(18)
H2 H 0.6275 0.7800 0.5834
C2 C 0.5648(4) 0.6610(3) 0.52192(17)
H3 H 0.4840 0.6415 0.5447
C3 C 0.9420(3) 0.7680(2) 0.16417(15)
H4 H 0.9869 0.7294 0.1345
C4 C 1.3501(3) 1.05980(19) -0.05408(14)
C5 C 0.8721(3) 0.7179(2) 0.21360(14)
C6 C 1.1129(3) 1.0672(2) 0.07838(14)
H5 H 1.1102 1.1346 0.0807
C7 C 0.5908(4) 0.6098(2) 0.46471(16)
H6 H 0.5334 0.5533 0.4489
C8 C 1.2820(3) 1.0821(2) -0.00110(14)
H7 H 1.3000 1.1466 0.0097
C9 C 0.7401(3) 0.4817(2) 0.37855(16)
C10 C 0.8317(4) 0.4532(2) 0.42858(19)
H8 H 0.8866 0.4996 0.4584
C11 C 1.0313(3) 0.9146(2) 0.11457(14)
C12 C 0.7557(4) 0.7759(3) 0.51204(18)
H9 H 0.8123 0.8327 0.5282
C13 C 0.7000(3) 0.6403(2) 0.43021(15)
C14 C 0.8640(3) 0.5812(2) 0.27926(15)
H10 H 0.8938 0.5202 0.2878
C15 C 0.7645(5) 0.2869(3) 0.3920(2)
H11 H 0.7737 0.2210 0.3964
C16 C 1.1182(4) 0.8686(2) 0.07284(15)
H12 H 1.1187 0.8016 0.0628
C17 C 0.7228(3) 0.7146(2) 0.30161(15)
H13 H 0.6554 0.7439 0.3250
C18 C 0.9474(3) 0.8620(2) 0.15769(15)
H14 H 0.8918 0.8990 0.1834
C19 C 1.3432(3) 0.9637(2) -0.08719(16)
C20 C 0.7712(3) 0.6262(2) 0.31843(14)
C21 C 0.7731(3) 0.7595(2) 0.25084(15)
H15 H 0.7403 0.8192 0.2411
C22 C 1.0312(3) 1.0151(2) 0.11622(14)
H16 H 0.9743 1.0479 0.1436
C23 C 1.4281(3) 1.1374(2) -0.08408(16)
C24 C 0.9118(3) 0.6266(2) 0.22792(16)
H17 H 0.9728 0.5950 0.2020
C25 C 0.7832(4) 0.7243(2) 0.45483(17)
H18 H 0.8581 0.7464 0.4328
C26 C 0.8428(5) 0.3555(3) 0.4349(2)
H19 H 0.9052 0.3365 0.4693
C27 C 0.6723(4) 0.3152(2) 0.34255(19)
H20 H 0.6172 0.2684 0.3131
C28 C 1.1998(3) 1.02180(19) 0.03663(14)
C29 C 0.6594(4) 0.4122(2) 0.33554(17)
H21 H 0.5958 0.4308 0.3015
C30 C 1.1996(3) 0.9209(2) 0.03518(15)
H22 H 1.2565 0.8881 0.0078
O3 O 0.8930(3) 0.71076(17) -0.02462(13)
O4 O 0.9580(3) 0.59842(16) -0.09625(14)
H23 H 0.9983 0.6456 -0.1100
N3 N 0.8026(3) 0.3813(2) -0.08922(17)
N4 N 0.0850(3) 0.01558(19) 0.34789(13)
C31 C 0.1606(4) -0.2322(3) 0.3904(2)
H24 H 0.1177 -0.2955 0.3825
C32 C 0.2891(5) -0.2150(3) 0.4279(2)
H25 H 0.3347 -0.2661 0.4460
C33 C 0.0921(4) -0.1569(2) 0.36351(17)
H26 H 0.0039 -0.1697 0.3373
C34 C 0.2844(4) -0.0458(3) 0.41331(17)
H27 H 0.3277 0.0173 0.4215
C35 C 0.4801(3) 0.3933(2) 0.14069(15)
C36 C -0.2790(4) -0.0100(3) 0.3973(2)
H28 H -0.3226 -0.0285 0.4331
C37 C 0.3522(4) -0.1216(3) 0.43938(19)
H29 H 0.4413 -0.1095 0.4649
C38 C -0.0661(3) 0.0179(2) 0.34642(16)
C39 C 0.8892(4) 0.6281(2) -0.04726(18)
C40 C -0.3618(4) 0.0154(3) 0.3431(2)
H30 H -0.4614 0.0134 0.3417
C41 C 0.3089(3) 0.1859(2) 0.22658(15)
C42 C -0.2969(4) 0.0436(2) 0.29132(18)
H31 H -0.3524 0.0622 0.2546
C43 C -0.1329(4) -0.0085(3) 0.39942(17)
H32 H -0.0779 -0.0254 0.4368
C44 C 0.1413(3) 0.1709(2) 0.30593(16)
H33 H 0.0791 0.1998 0.3325
C45 C 0.2134(3) 0.2259(2) 0.26635(16)
H34 H 0.1983 0.2917 0.2660
C46 C 0.1602(3) 0.0727(2) 0.30671(15)
C47 C 0.3264(3) 0.0876(2) 0.22747(15)
H35 H 0.3890 0.0587 0.2011
C48 C 0.2528(3) 0.0315(2) 0.26676(15)
H36 H 0.2657 -0.0347 0.2663
C49 C 0.3888(3) 0.2429(2) 0.18425(16)
H37 H 0.4406 0.2079 0.1556
C50 C 0.3960(3) 0.3384(2) 0.18198(16)
H38 H 0.3420 0.3739 0.2094
C51 C 0.5059(4) 0.4931(2) 0.15456(16)
H39 H 0.4663 0.5244 0.1894
C52 C 0.5886(3) 0.5468(2) 0.11800(16)
H40 H 0.5848 0.6172 0.1255
C53 C 0.6495(3) 0.5035(2) 0.06518(15)
C54 C 0.6208(4) 0.4032(2) 0.05058(16)
H41 H 0.6580 0.3717 0.0151
C55 C 0.5387(4) 0.3506(2) 0.08786(16)
H42 H 0.5218 0.2836 0.0772
C56 C 0.7363(3) 0.5657(2) 0.02989(16)
H43 H 0.7455 0.6310 0.0465
C57 C 0.8059(3) 0.5466(2) -0.02232(16)
C58 C 0.8042(3) 0.4540(2) -0.05845(17)
C59 C 0.1537(3) -0.0627(2) 0.37535(15)
C60 C -0.1508(3) 0.0448(2) 0.29249(15)
H44 H -0.1082 0.0640 0.2565
O5 O 0.6186(4) 0.2480(2) 0.81542(14)
H45 H 0.6747 0.2797 0.8444
C61 C 0.6670(5) 0.2549(3) 0.7566(2)
H46 H 0.6171 0.2052 0.7249
H47 H 0.7683 0.2466 0.7608
H48 H 0.6500 0.3179 0.7422
O6 O 0.1013(3) 0.73284(18) 0.85073(14)
H49 H 0.1615 0.7750 0.8695
C62 C 0.1499(5) 0.6924(3) 0.7940(2)
H50 H 0.2166 0.6449 0.8052
H51 H 0.1971 0.7428 0.7730
H52 H 0.0698 0.6616 0.7644
O7 O 0.1913(15) 0.4780(11) 0.3730(7)
H53 H 0.2010 0.4225 0.3831
C63 C 0.2633(17) 0.4937(8) 0.3290(7)
H54 H 0.2810 0.5628 0.3279
H55 H 0.2125 0.4658 0.2876
H56 H 0.3533 0.4648 0.3368
loop_
_geom_bond_atom_site_label_1
_geom_bond_atom_site_label_2
_geom_bond_site_symmetry_1
_geom_bond_site_symmetry_2
O1 H1 1_555 1_555
O2 C23 1_555 1_555
N1 C9 1_555 1_555
N2 C19 1_555 1_555
C1 H2 1_555 1_555
C2 C1 1_555 1_555
H3 C2 1_555 1_555
C3 H4 1_555 1_555
C4 C8 1_555 1_555
C5 C3 1_555 1_555
C6 H5 1_555 1_555
C7 C2 1_555 1_555
H6 C7 1_555 1_555
C8 H7 1_555 1_555
C9 C10 1_555 1_555
C10 H8 1_555 1_555
C11 C16 1_555 1_555
C12 C1 1_555 1_555
H9 C12 1_555 1_555
C13 N1 1_555 1_555
C14 H10 1_555 1_555
C15 H11 1_555 1_555
C16 H12 1_555 1_555
C17 H13 1_555 1_555
C18 C3 1_555 1_555
H14 C18 1_555 1_555
C19 C4 1_555 1_555
C20 N1 1_555 1_555
C21 C5 1_555 1_555
H15 C21 1_555 1_555
C22 C6 1_555 1_555
H16 C22 1_555 1_555
C23 O1 1_555 1_555
C24 C5 1_555 1_555
H17 C24 1_555 1_555
C25 C12 1_555 1_555
H18 C25 1_555 1_555
C26 C10 1_555 1_555
H19 C26 1_555 1_555
C27 C15 1_555 1_555
H20 C27 1_555 1_555
C28 C6 1_555 1_555
C29 C9 1_555 1_555
H21 C29 1_555 1_555
C30 C16 1_555 1_555
H22 C30 1_555 1_555
O3 C39 1_555 1_555
O4 H23 1_555 1_555
N3 C58 1_555 1_555
N4 C38 1_555 1_555
C31 H24 1_555 1_555
C32 C31 1_555 1_555
H25 C32 1_555 1_555
C33 C31 1_555 1_555
H26 C33 1_555 1_555
C34 H27 1_555 1_555
C35 C50 1_555 1_555
C36 H28 1_555 1_555
C37 C32 1_555 1_555
H29 C37 1_555 1_555
C38 C43 1_555 1_555
C39 O4 1_555 1_555
C40 C36 1_555 1_555
H30 C40 1_555 1_555
C41 C45 1_555 1_555
C42 C40 1_555 1_555
H31 C42 1_555 1_555
C43 C36 1_555 1_555
H32 C43 1_555 1_555
C44 H33 1_555 1_555
C45 C44 1_555 1_555
H34 C45 1_555 1_555
C46 N4 1_555 1_555
C47 C41 1_555 1_555
H35 C47 1_555 1_555
C48 C46 1_555 1_555
H36 C48 1_555 1_555
C49 C41 1_555 1_555
H37 C49 1_555 1_555
C50 C49 1_555 1_555
H38 C50 1_555 1_555
C51 C35 1_555 1_555
H39 C51 1_555 1_555
C52 C51 1_555 1_555
H40 C52 1_555 1_555
C53 C52 1_555 1_555
C54 C53 1_555 1_555
H41 C54 1_555 1_555
C55 C35 1_555 1_555
H42 C55 1_555 1_555
C56 C53 1_555 1_555
H43 C56 1_555 1_555
C57 C39 1_555 1_555
C58 C57 1_555 1_555
C59 N4 1_555 1_555
C60 C38 1_555 1_555
H44 C60 1_555 1_555
O5 H45 1_555 1_555
C61 O5 1_555 1_555
H46 C61 1_555 1_555
H47 C61 1_555 1_555
H48 C61 1_555 1_555
O6 H49 1_555 1_555
C62 O6 1_555 1_555
H50 C62 1_555 1_555
H51 C62 1_555 1_555
H52 C62 1_555 1_555
O7 H53 1_555 1_555
C63 O7 1_555 1_555
H54 C63 1_555 1_555
H55 C63 1_555 1_555
H56 C63 1_555 1_555
C4 C23 1_555 1_555
C7 C13 1_555 1_555
C8 C28 1_555 1_555
C11 C18 1_555 1_555
C11 C22 1_555 1_555
C13 C25 1_555 1_555
C14 C20 1_555 1_555
C14 C24 1_555 1_555
C15 C26 1_555 1_555
C17 C20 1_555 1_555
C17 C21 1_555 1_555
C27 C29 1_555 1_555
C28 C30 1_555 1_555
C33 C59 1_555 1_555
C34 C37 1_555 1_555
C34 C59 1_555 1_555
C42 C60 1_555 1_555
C44 C46 1_555 1_555
C47 C48 1_555 1_555
C54 C55 1_555 1_555
C56 C57 1_555 1_555

#END
