
#######################################################################
#
#                 Cambridge Crystallographic Data Centre
#                                CCDC 
#
#######################################################################
#
# If this CIF has been generated from an entry in the Cambridge 
# Structural Database, then it will include bibliographic, chemical, 
# crystal, experimental, refinement or atomic coordinate data resulting 
# from the CCDC's data processing and validation procedures.
#
#######################################################################

data_PAFGUB
_chemical_formula_moiety         'C17 H13 Br2 N1 O5 S1,C1 H2 Cl2'
_chemical_name_systematic        
"3,5-dibromo-3'-((4-methylphenyl)sulfonyl)-2'H,3H-spiro[1-benzofuran-2,4'-[1,3]oxazolidin]-2'-one dichloromethane solvate"
_symmetry_cell_setting           monoclinic
_symmetry_space_group_name_H-M   'P 21'
_symmetry_Int_Tables_number      4
_space_group_name_Hall           'P 2yb'
loop_
_symmetry_equiv_pos_site_id
_symmetry_equiv_pos_as_xyz
1 x,y,z
2 -x,1/2+y,-z
_cell_length_a                   11.974(2)
_cell_length_b                   5.7044(11)
_cell_length_c                   15.451(3)
_cell_angle_alpha                90
_cell_angle_beta                 95.49(3)
_cell_angle_gamma                90
_cell_volume                     1050.53
_exptl_crystal_colour            colorless
_exptl_crystal_description       plate
_cell_formula_units_Z            2
loop_
_atom_site_label
_atom_site_type_symbol
_atom_site_fract_x
_atom_site_fract_y
_atom_site_fract_z
Br1 Br 0.15906(5) -0.14616(14) 0.25573(4)
Br2 Br -0.15328(7) -0.07568(15) -0.08267(4)
S1 S -0.23622(12) -0.0812(3) 0.36453(10)
O1 O -0.0911(4) -0.5205(8) 0.2699(3)
O2 O -0.0157(4) -0.5149(9) 0.4620(3)
O3 O -0.1727(4) -0.3944(9) 0.5186(3)
O4 O -0.2280(4) 0.0021(9) 0.2778(3)
O5 O -0.2342(4) 0.0807(9) 0.4357(4)
N1 N -0.1236(5) -0.2599(10) 0.3842(3)
C1 C -0.1345(6) -0.2234(13) 0.0280(4)
C2 C -0.0717(5) -0.1079(12) 0.0954(4)
H1 H -0.0375 0.0355 0.0869
C3 C -0.0626(5) -0.2176(12) 0.1765(4)
C4 C -0.1107(6) -0.4332(12) 0.1863(4)
C5 C -0.1731(6) -0.5507(13) 0.1199(4)
H2 H -0.2065 -0.6946 0.1291
C6 C -0.1836(7) -0.4416(14) 0.0380(5)
H3 H -0.2231 -0.5148 -0.0092
C7 C -0.0052(5) -0.1418(13) 0.2613(4)
H4 H -0.0307 0.0142 0.2773
C8 C -0.0430(5) -0.3335(11) 0.3254(4)
C9 C 0.0465(6) -0.4366(13) 0.3907(4)
H5 H 0.0842 -0.5669 0.3656
H6 H 0.1017 -0.3191 0.4103
C10 C -0.1108(5) -0.3891(12) 0.4616(4)
C11 C -0.3541(5) -0.2644(12) 0.3653(4)
C12 C -0.3597(6) -0.4715(13) 0.3178(5)
H7 H -0.2987 -0.5231 0.2900
C13 C -0.4587(6) -0.5992(14) 0.3130(5)
H8 H -0.4637 -0.7373 0.2809
C14 C -0.5501(6) -0.5271(14) 0.3545(5)
C15 C -0.5422(6) -0.3190(14) 0.4012(5)
H9 H -0.6034 -0.2684 0.4291
C16 C -0.4454(6) -0.1848(13) 0.4074(4)
H10 H -0.4412 -0.0453 0.4386
C17 C -0.6559(6) -0.6675(18) 0.3472(7)
H11 H -0.6904 -0.6601 0.2885
H12 H -0.7064 -0.6049 0.3859
H13 H -0.6389 -0.8276 0.3623
Cl1 Cl 0.5798(12) 0.048(3) 0.0466(9)
Cl2 Cl 0.4249(6) -0.121(2) 0.1526(4)
C18 C 0.5514(12) -0.130(4) 0.1164(10)
H14 H 0.6065 -0.1112 0.1662
H15 H 0.5616 -0.2860 0.0934
loop_
_geom_bond_atom_site_label_1
_geom_bond_atom_site_label_2
_geom_bond_site_symmetry_1
_geom_bond_site_symmetry_2
Br1 C7 1_555 1_555
Br2 C1 1_555 1_555
S1 O4 1_555 1_555
O1 C4 1_555 1_555
O2 C9 1_555 1_555
O3 C10 1_555 1_555
O5 S1 1_555 1_555
N1 S1 1_555 1_555
C1 C2 1_555 1_555
C2 H1 1_555 1_555
C3 C2 1_555 1_555
C4 C3 1_555 1_555
C5 C4 1_555 1_555
H2 C5 1_555 1_555
C6 C1 1_555 1_555
H3 C6 1_555 1_555
C7 C3 1_555 1_555
H4 C7 1_555 1_555
C8 O1 1_555 1_555
C9 C8 1_555 1_555
H5 C9 1_555 1_555
H6 C9 1_555 1_555
C10 O2 1_555 1_555
C11 S1 1_555 1_555
C12 C11 1_555 1_555
H7 C12 1_555 1_555
C13 C12 1_555 1_555
H8 C13 1_555 1_555
C14 C13 1_555 1_555
C15 C14 1_555 1_555
H9 C15 1_555 1_555
C16 C11 1_555 1_555
H10 C16 1_555 1_555
C17 C14 1_555 1_555
H11 C17 1_555 1_555
H12 C17 1_555 1_555
H13 C17 1_555 1_555
Cl1 C18 1_555 1_555
Cl2 C18 1_555 1_555
C18 H14 1_555 1_555
H15 C18 1_555 1_555
N1 C8 1_555 1_555
N1 C10 1_555 1_555
C5 C6 1_555 1_555
C7 C8 1_555 1_555
C15 C16 1_555 1_555

#END
