
#######################################################################
#
#                 Cambridge Crystallographic Data Centre
#                                CCDC 
#
#######################################################################
#
# If this CIF has been generated from an entry in the Cambridge 
# Structural Database, then it will include bibliographic, chemical, 
# crystal, experimental, refinement or atomic coordinate data resulting 
# from the CCDC's data processing and validation procedures.
#
#######################################################################

data_PAFHIQ
_chemical_formula_moiety         'C19 H17 Br1 Cl1 N1 O5 S1'
_chemical_name_systematic        
3-bromo-5-chloro-4,6-dimethyl-3'-((4-methylphenyl)sulfonyl)-2'H,3H-spiro[1-benzofuran-2,4'-[1,3]oxazolidin]-2'-one
_symmetry_cell_setting           orthorhombic
_symmetry_space_group_name_H-M   'P 21 21 21'
_symmetry_Int_Tables_number      19
_space_group_name_Hall           'P 2ac 2ab'
loop_
_symmetry_equiv_pos_site_id
_symmetry_equiv_pos_as_xyz
1 x,y,z
2 1/2-x,-y,1/2+z
3 -x,1/2+y,1/2-z
4 1/2+x,1/2-y,-z
_cell_length_a                   9.155(3)
_cell_length_b                   9.470(3)
_cell_length_c                   23.095(7)
_cell_angle_alpha                90
_cell_angle_beta                 90
_cell_angle_gamma                90
_cell_volume                     2002.29
_exptl_crystal_colour            colorless
_exptl_crystal_description       plate
_cell_formula_units_Z            4
loop_
_atom_site_label
_atom_site_type_symbol
_atom_site_fract_x
_atom_site_fract_y
_atom_site_fract_z
Br1 Br 0.67598(7) 0.12398(6) 0.41909(2)
Cl1 Cl 0.6484(2) 0.74268(15) 0.47111(7)
S1 S 0.54434(13) 0.35302(13) 0.21969(5)
O1 O 0.8446(4) 0.3285(4) 0.30215(15)
O2 O 0.8187(4) 0.0515(4) 0.23706(16)
O3 O 0.7165(4) 0.1313(4) 0.15550(16)
O4 O 0.4455(4) 0.2844(4) 0.18135(17)
O5 O 0.4919(4) 0.4218(4) 0.27060(15)
N1 N 0.6551(4) 0.2263(4) 0.24529(17)
C1 C 0.7295(5) 0.2242(5) 0.3016(2)
C2 C 0.6334(5) 0.2568(5) 0.3550(2)
H1 H 0.5294 0.2559 0.3450
C3 C 0.6823(5) 0.4016(5) 0.3719(2)
C4 C 0.8065(5) 0.4325(5) 0.3412(2)
C5 C 0.8846(5) 0.5548(5) 0.3489(2)
H2 H 0.9684 0.5724 0.3272
C6 C 0.8362(6) 0.6508(5) 0.3893(2)
C7 C 0.7084(5) 0.6197(5) 0.4204(2)
C8 C 0.6283(5) 0.4959(6) 0.4132(2)
C9 C 0.4889(6) 0.4657(7) 0.4456(2)
H3 H 0.4157 0.5331 0.4346
H4 H 0.5066 0.4727 0.4865
H5 H 0.4557 0.3722 0.4365
C10 C 0.9196(7) 0.7859(6) 0.3988(3)
H6 H 1.0042 0.7872 0.3743
H7 H 0.9496 0.7916 0.4386
H8 H 0.8581 0.8650 0.3897
C11 C 0.7991(6) 0.0781(5) 0.2977(2)
H9 H 0.8923 0.0766 0.3177
H10 H 0.7359 0.0073 0.3148
C12 C 0.7276(5) 0.1350(5) 0.2063(2)
C13 C 0.6528(5) 0.4707(5) 0.1798(2)
C14 C 0.7121(5) 0.5881(5) 0.2083(2)
H11 H 0.7006 0.5993 0.2481
C15 C 0.7882(6) 0.6872(6) 0.1760(2)
H12 H 0.8275 0.7659 0.1944
C16 C 0.8068(5) 0.6711(5) 0.1168(2)
C17 C 0.7468(6) 0.5522(6) 0.0902(2)
H13 H 0.7589 0.5401 0.0505
C18 C 0.6701(6) 0.4521(5) 0.1211(2)
H14 H 0.6307 0.3736 0.1026
C19 C 0.8879(6) 0.7813(6) 0.0821(3)
H15 H 0.8646 0.8735 0.0967
H16 H 0.8596 0.7751 0.0422
H17 H 0.9912 0.7655 0.0854
loop_
_geom_bond_atom_site_label_1
_geom_bond_atom_site_label_2
_geom_bond_site_symmetry_1
_geom_bond_site_symmetry_2
Br1 C2 1_555 1_555
Cl1 C7 1_555 1_555
S1 O4 1_555 1_555
O1 C1 1_555 1_555
O2 C11 1_555 1_555
O3 C12 1_555 1_555
O5 S1 1_555 1_555
N1 S1 1_555 1_555
C1 N1 1_555 1_555
C2 C1 1_555 1_555
H1 C2 1_555 1_555
C3 C2 1_555 1_555
C4 O1 1_555 1_555
C5 C4 1_555 1_555
H2 C5 1_555 1_555
C6 C5 1_555 1_555
C7 C6 1_555 1_555
C8 C3 1_555 1_555
C9 C8 1_555 1_555
H3 C9 1_555 1_555
H4 C9 1_555 1_555
H5 C9 1_555 1_555
C10 C6 1_555 1_555
H6 C10 1_555 1_555
H7 C10 1_555 1_555
H8 C10 1_555 1_555
C11 C1 1_555 1_555
H9 C11 1_555 1_555
H10 C11 1_555 1_555
C12 O2 1_555 1_555
C13 S1 1_555 1_555
C14 C13 1_555 1_555
H11 C14 1_555 1_555
C15 C14 1_555 1_555
H12 C15 1_555 1_555
C16 C15 1_555 1_555
C17 C16 1_555 1_555
H13 C17 1_555 1_555
C18 C13 1_555 1_555
H14 C18 1_555 1_555
C19 C16 1_555 1_555
H15 C19 1_555 1_555
H16 C19 1_555 1_555
H17 C19 1_555 1_555
N1 C12 1_555 1_555
C3 C4 1_555 1_555
C7 C8 1_555 1_555
C17 C18 1_555 1_555

#END
