
#######################################################################
#
#                 Cambridge Crystallographic Data Centre
#                                CCDC 
#
#######################################################################
#
# If this CIF has been generated from an entry in the Cambridge 
# Structural Database, then it will include bibliographic, chemical, 
# crystal, experimental, refinement or atomic coordinate data resulting 
# from the CCDC's data processing and validation procedures.
#
#######################################################################

data_PAFJEO
_chemical_formula_moiety         'C20 H19 N1 O5 S1'
_chemical_name_systematic        
3-allyl-3'-((4-methylphenyl)sulfonyl)-2'H,3H-spiro[1-benzofuran-2,4'-[1,3]oxazolidin]-2'-one
_symmetry_cell_setting           orthorhombic
_symmetry_space_group_name_H-M   'P 21 21 21'
_symmetry_Int_Tables_number      19
_space_group_name_Hall           'P 2ac 2ab'
loop_
_symmetry_equiv_pos_site_id
_symmetry_equiv_pos_as_xyz
1 x,y,z
2 1/2-x,-y,1/2+z
3 -x,1/2+y,1/2-z
4 1/2+x,1/2-y,-z
_cell_length_a                   7.7017(15)
_cell_length_b                   8.4118(15)
_cell_length_c                   27.288(5)
_cell_angle_alpha                90
_cell_angle_beta                 90
_cell_angle_gamma                90
_cell_volume                     1767.86
_exptl_crystal_colour            colorless
_exptl_crystal_description       plate
_cell_formula_units_Z            4
loop_
_atom_site_label
_atom_site_type_symbol
_atom_site_fract_x
_atom_site_fract_y
_atom_site_fract_z
S1 S 0.80202(8) 0.36425(7) 0.36728(2)
O1 O 0.4033(3) 0.4739(2) 0.35503(7)
O2 O 0.4361(3) 0.1994(3) 0.44734(7)
O3 O 0.7208(3) 0.1980(3) 0.46360(7)
O4 O 0.9245(3) 0.2381(2) 0.37309(7)
O5 O 0.7590(3) 0.4219(2) 0.31956(7)
N1 N 0.6116(3) 0.3013(3) 0.39075(7)
C1 C 0.4427(3) 0.3114(3) 0.36700(10)
C2 C 0.4261(4) 0.2139(3) 0.31835(9)
H1 H 0.5423 0.2033 0.3041
C3 C 0.3246(3) 0.3274(3) 0.28713(9)
C4 C 0.2405(4) 0.3069(4) 0.24285(10)
H2 H 0.2425 0.2090 0.2270
C5 C 0.1530(4) 0.4353(4) 0.22249(10)
H3 H 0.0953 0.4227 0.1928
C6 C 0.1502(4) 0.5813(4) 0.24561(10)
H4 H 0.0918 0.6659 0.2311
C7 C 0.2341(4) 0.6036(3) 0.29052(11)
H5 H 0.2326 0.7013 0.3065
C8 C 0.3190(4) 0.4744(3) 0.31009(9)
C9 C 0.3258(4) 0.2637(4) 0.41042(11)
H6 H 0.2643 0.3559 0.4229
H7 H 0.2412 0.1851 0.4001
C10 C 0.6028(4) 0.2296(3) 0.43691(9)
C11 C 0.3467(4) 0.0476(3) 0.32207(10)
H8 H 0.2283 0.0570 0.3339
H9 H 0.3424 0.0009 0.2896
C12 C 0.4452(4) -0.0614(3) 0.35544(10)
H10 H 0.5643 -0.0690 0.3504
C13 C 0.3807(5) -0.1459(4) 0.39064(11)
H11 H 0.2623 -0.1422 0.3971
H12 H 0.4528 -0.2103 0.4094
C14 C 0.8630(3) 0.5248(3) 0.40456(8)
C15 C 0.8174(4) 0.6777(3) 0.39068(9)
H13 H 0.7525 0.6944 0.3624
C16 C 0.8693(4) 0.8055(3) 0.41922(10)
H14 H 0.8383 0.9080 0.4099
C17 C 0.9671(4) 0.7828(3) 0.46155(9)
C18 C 1.0102(4) 0.6276(3) 0.47507(9)
H15 H 1.0749 0.6107 0.5034
C19 C 0.9587(3) 0.4977(3) 0.44712(9)
H16 H 0.9874 0.3949 0.4566
C20 C 1.0259(4) 0.9218(4) 0.49182(11)
H17 H 0.9729 1.0173 0.4797
H18 H 1.1499 0.9313 0.4898
H19 H 0.9924 0.9056 0.5253
loop_
_geom_bond_atom_site_label_1
_geom_bond_atom_site_label_2
_geom_bond_site_symmetry_1
_geom_bond_site_symmetry_2
S1 O4 1_555 1_555
O1 C1 1_555 1_555
O2 C9 1_555 1_555
O3 C10 1_555 1_555
O5 S1 1_555 1_555
N1 S1 1_555 1_555
C1 N1 1_555 1_555
C2 C1 1_555 1_555
H1 C2 1_555 1_555
C3 C2 1_555 1_555
C4 C3 1_555 1_555
H2 C4 1_555 1_555
C5 C4 1_555 1_555
H3 C5 1_555 1_555
C6 C5 1_555 1_555
H4 C6 1_555 1_555
C7 C6 1_555 1_555
H5 C7 1_555 1_555
C8 O1 1_555 1_555
C9 C1 1_555 1_555
H6 C9 1_555 1_555
H7 C9 1_555 1_555
C10 O2 1_555 1_555
C11 C2 1_555 1_555
H8 C11 1_555 1_555
H9 C11 1_555 1_555
C12 C11 1_555 1_555
H10 C12 1_555 1_555
C13 C12 1_555 1_555
H11 C13 1_555 1_555
H12 C13 1_555 1_555
C14 S1 1_555 1_555
C15 C14 1_555 1_555
H13 C15 1_555 1_555
C16 C15 1_555 1_555
H14 C16 1_555 1_555
C17 C16 1_555 1_555
C18 C17 1_555 1_555
H15 C18 1_555 1_555
C19 C14 1_555 1_555
H16 C19 1_555 1_555
C20 C17 1_555 1_555
H17 C20 1_555 1_555
H18 C20 1_555 1_555
H19 C20 1_555 1_555
N1 C10 1_555 1_555
C3 C8 1_555 1_555
C7 C8 1_555 1_555
C18 C19 1_555 1_555

#END
