
#######################################################################
#
#                 Cambridge Crystallographic Data Centre
#                                CCDC 
#
#######################################################################
#
# If this CIF has been generated from an entry in the Cambridge 
# Structural Database, then it will include bibliographic, chemical, 
# crystal, experimental, refinement or atomic coordinate data resulting 
# from the CCDC's data processing and validation procedures.
#
#######################################################################

data_PAFJOY
_chemical_formula_moiety         'C21 H17 N1 O5 S2'
_chemical_name_systematic        
3'-((4-methylphenyl)sulfonyl)-3-(2-thienyl)-2'H,3H-spiro[1-benzofuran-2,4'-[1,3]oxazolidin]-2'-one
_symmetry_cell_setting           orthorhombic
_symmetry_space_group_name_H-M   'C 2 2 21'
_symmetry_Int_Tables_number      20
_space_group_name_Hall           'C 2n 2'
loop_
_symmetry_equiv_pos_site_id
_symmetry_equiv_pos_as_xyz
1 x,y,z
2 -x,-y,1/2+z
3 x,-y,-z
4 -x,y,1/2-z
5 1/2+x,1/2+y,z
6 1/2-x,1/2-y,1/2+z
7 1/2+x,1/2-y,-z
8 1/2-x,1/2+y,1/2-z
_cell_length_a                   11.289(3)
_cell_length_b                   10.612(3)
_cell_length_c                   32.425(6)
_cell_angle_alpha                90
_cell_angle_beta                 90
_cell_angle_gamma                90
_cell_volume                     3884.48
_exptl_crystal_colour            colorless
_exptl_crystal_description       block
_cell_formula_units_Z            8
loop_
_atom_site_label
_atom_site_type_symbol
_atom_site_fract_x
_atom_site_fract_y
_atom_site_fract_z
S1 S 0.30149(19) 0.1790(2) 0.00981(6)
S2 S 0.36182(11) 0.49880(19) 0.16625(4)
O1 O 0.4959(3) 0.3165(5) 0.10279(12)
O2 O 0.4839(4) 0.5653(5) 0.05875(13)
O3 O 0.4830(5) 0.6936(5) 0.11345(15)
O4 O 0.3044(5) 0.6161(5) 0.17530(14)
O5 O 0.3034(4) 0.3825(5) 0.17354(12)
N1 N 0.3842(4) 0.4988(6) 0.11455(12)
C1 C 0.3953(5) 0.3863(6) 0.08907(15)
C2 C 0.2861(5) 0.2926(6) 0.08782(16)
H1 H 0.2243 0.3225 0.1066
C3 C 0.3411(5) 0.1739(6) 0.10489(16)
C4 C 0.2934(6) 0.0562(7) 0.1120(2)
H2 H 0.2136 0.0406 0.1071
C5 C 0.3670(6) -0.0382(6) 0.1268(2)
H3 H 0.3357 -0.1177 0.1320
C6 C 0.4866(6) -0.0166(7) 0.13394(19)
H4 H 0.5345 -0.0814 0.1437
C7 C 0.5347(6) 0.1016(7) 0.12659(18)
H5 H 0.6145 0.1178 0.1313
C8 C 0.4601(5) 0.1941(6) 0.11204(16)
C9 C 0.2354(5) 0.2781(7) 0.04490(18)
C10 C 0.1374(6) 0.3466(6) 0.02792(17)
H6 H 0.0883 0.4023 0.0420
C11 C 0.1291(7) 0.3126(8) -0.0156(2)
H7 H 0.0729 0.3474 -0.0332
C12 C 0.2095(8) 0.2268(10) -0.0283(2)
H8 H 0.2138 0.1970 -0.0552
C13 C 0.4246(6) 0.4494(6) 0.04810(18)
H9 H 0.4759 0.3961 0.0316
H10 H 0.3529 0.4664 0.0326
C14 C 0.4533(6) 0.5981(7) 0.09748(19)
C15 C 0.5024(5) 0.4988(7) 0.18898(14)
C16 C 0.5577(6) 0.3845(7) 0.19647(18)
H11 H 0.5196 0.3090 0.1905
C17 C 0.6706(6) 0.3848(8) 0.21306(19)
H12 H 0.7080 0.3084 0.2184
C18 C 0.7284(5) 0.4948(11) 0.22185(16)
C19 C 0.6723(7) 0.6079(10) 0.2146(2)
H13 H 0.7113 0.6827 0.2208
C20 C 0.5568(7) 0.6126(8) 0.1981(2)
H14 H 0.5187 0.6890 0.1934
C21 C 0.8533(6) 0.5000(13) 0.2388(2)
H15 H 0.8507 0.5211 0.2676
H16 H 0.8978 0.5629 0.2242
H17 H 0.8905 0.4194 0.2354
loop_
_geom_bond_atom_site_label_1
_geom_bond_atom_site_label_2
_geom_bond_site_symmetry_1
_geom_bond_site_symmetry_2
S1 C9 1_555 1_555
S2 O4 1_555 1_555
O1 C1 1_555 1_555
O2 C13 1_555 1_555
O3 C14 1_555 1_555
O5 S2 1_555 1_555
N1 S2 1_555 1_555
C1 N1 1_555 1_555
C2 C1 1_555 1_555
H1 C2 1_555 1_555
C3 C2 1_555 1_555
C4 C3 1_555 1_555
H2 C4 1_555 1_555
C5 C4 1_555 1_555
H3 C5 1_555 1_555
C6 C5 1_555 1_555
H4 C6 1_555 1_555
C7 C6 1_555 1_555
H5 C7 1_555 1_555
C8 O1 1_555 1_555
C9 C2 1_555 1_555
C10 C9 1_555 1_555
H6 C10 1_555 1_555
C11 C10 1_555 1_555
H7 C11 1_555 1_555
C12 S1 1_555 1_555
H8 C12 1_555 1_555
C13 C1 1_555 1_555
H9 C13 1_555 1_555
H10 C13 1_555 1_555
C14 O2 1_555 1_555
C15 S2 1_555 1_555
C16 C15 1_555 1_555
H11 C16 1_555 1_555
C17 C16 1_555 1_555
H12 C17 1_555 1_555
C18 C17 1_555 1_555
C19 C18 1_555 1_555
H13 C19 1_555 1_555
C20 C15 1_555 1_555
H14 C20 1_555 1_555
C21 C18 1_555 1_555
H15 C21 1_555 1_555
H16 C21 1_555 1_555
H17 C21 1_555 1_555
N1 C14 1_555 1_555
C3 C8 1_555 1_555
C7 C8 1_555 1_555
C11 C12 1_555 1_555
C19 C20 1_555 1_555

#END
