
#######################################################################
#
#                 Cambridge Crystallographic Data Centre
#                                CCDC 
#
#######################################################################
#
# If this CIF has been generated from an entry in the Cambridge 
# Structural Database, then it will include bibliographic, chemical, 
# crystal, experimental, refinement or atomic coordinate data resulting 
# from the CCDC's data processing and validation procedures.
#
#######################################################################

data_PAFXUR
_chemical_formula_moiety         'C88 H80 N4 O12,2(C7 H8)'
_chemical_name_systematic        
'2,8,14,20-tetrahexyl-(4,24:12,16)-bis(benzoquinone-1,4-diolato)-(6,10:18,22)-bis(quinoxaline-1,4-diolato)resorcin(4)arene ditoluene clathrate'
_symmetry_cell_setting           triclinic
_symmetry_space_group_name_H-M   'P -1'
_symmetry_Int_Tables_number      2
_space_group_name_Hall           '-P 1'
loop_
_symmetry_equiv_pos_site_id
_symmetry_equiv_pos_as_xyz
1 x,y,z
2 -x,-y,-z
_cell_length_a                   13.6146(5)
_cell_length_b                   16.9899(9)
_cell_length_c                   19.2669(10)
_cell_angle_alpha                82.896(2)
_cell_angle_beta                 71.301(2)
_cell_angle_gamma                72.418(3)
_cell_volume                     4022.42
_exptl_crystal_colour            brown
_exptl_crystal_description       cube
_cell_formula_units_Z            2
loop_
_atom_site_label
_atom_site_type_symbol
_atom_site_fract_x
_atom_site_fract_y
_atom_site_fract_z
O1 O 0.0482(4) 0.7998(3) 0.3704(2)
O2 O -0.1267(4) 0.7683(3) 0.4719(2)
O3 O -0.1999(3) 0.5887(3) 0.0284(2)
O4 O -0.3561(4) 0.5370(3) 0.1325(2)
O5 O 0.1503(3) 0.7846(3) 0.1091(2)
O6 O -0.4208(3) 0.6684(3) 0.4714(2)
O7 O 0.0502(4) 0.7380(3) 0.0267(2)
O8 O -0.4897(3) 0.5882(3) 0.3903(3)
C1 C -0.0782(13) 0.8592(8) 0.0360(9)
C2 C -0.3499(12) 1.1045(8) 0.3858(6)
H1 H -0.4178 1.1441 0.3901
C3 C -0.1619(13) 1.0681(8) 0.3283(8)
H2 H -0.1004 1.0805 0.2937
C4 C -0.5588(7) 0.8974(5) 0.0285(4)
H3 H -0.5759 0.9514 0.0073
C5 C -0.1495(8) 0.9895(6) 0.3620(5)
C6 C -0.0945(10) 1.0629(7) 0.1204(6)
H4 H -0.0543 1.0817 0.1437
C7 C -0.6158(6) 0.7932(6) 0.1128(4)
H5 H -0.6710 0.7752 0.1496
C8 C -0.0480(6) 0.8603(4) 0.3840(3)
C9 C -0.5895(6) 0.8477(6) 0.3919(4)
C10 C 0.0061(5) 0.8156(4) 0.0557(3)
C11 C -0.7473(7) 0.9348(7) 0.3260(5)
H6 H -0.8024 0.9653 0.3050
C12 C -0.4844(5) 0.7148(4) 0.4288(4)
C13 C -0.2440(10) 1.0917(8) 0.0743(6)
H7 H -0.3074 1.1295 0.0665
C14 C -0.4555(6) 0.8485(5) 0.0067(4)
H8 H -0.4014 0.8682 -0.0295
C15 C -0.4293(5) 0.7691(4) 0.0378(4)
N1 N -0.4822(9) 0.6594(7) 0.1198(6)
C16 C -0.1229(8) 0.9560(7) 0.0650(4)
C17 C -0.0581(8) 0.9798(6) 0.0994(5)
C18 C -0.3008(5) 0.6423(4) 0.0499(4)
C19 C -0.3479(10) 1.0329(7) 0.4200(5)
H9 H -0.4127 1.0207 0.4493
C20 C -0.4022(5) 0.5575(4) 0.3278(4)
C21 C -0.5116(14) 0.7953(9) 0.4372(7)
C22 C -0.1411(5) 0.8441(4) 0.4350(3)
C23 C -0.7015(7) 0.9750(6) 0.3593(4)
H10 H -0.7239 1.0337 0.3597
C24 C 0.0499(5) 0.6115(4) 0.0989(3)
C25 C 0.6501(8) 0.3464(6) 0.0740(6)
H11 H 0.6570 0.3936 0.0398
H12 H 0.7131 0.2990 0.0568
H13 H 0.6459 0.3609 0.1228
C26 C -0.6242(7) 0.9324(5) 0.3919(4)
H14 H -0.5943 0.9618 0.4148
C27 C -0.1855(12) 1.1178(7) 0.1086(7)
H15 H -0.2077 1.1732 0.1239
C28 C -0.6348(6) 0.8037(5) 0.3567(4)
C29 C -0.2136(9) 1.0147(9) 0.0519(5)
H16 H -0.2539 0.9991 0.0265
C30 C 0.3355(5) 0.5351(5) 0.1288(5)
H17 H 0.3712 0.5640 0.0845
H18 H 0.3184 0.5696 0.1712
C31 C -0.2381(5) 0.5856(4) 0.4201(3)
C32 C -0.5101(6) 0.7410(4) 0.0914(4)
C33 C -0.6394(7) 0.8706(6) 0.0806(5)
H19 H -0.7112 0.9057 0.0941
C34 C -0.3094(5) 0.6601(4) 0.4497(3)
C35 C -0.2544(12) 1.1257(9) 0.3422(9)
H20 H -0.2578 1.1806 0.3236
O9 O 0.0827(6) 0.9526(4) 0.1467(4)
C36 C 0.0017(5) 0.6729(4) 0.0553(3)
C37 C -0.4214(5) 0.5619(4) 0.2615(4)
H21 H -0.4927 0.5843 0.2580
C38 C 0.1204(5) 0.6642(4) 0.1843(3)
C39 C -0.3003(5) 0.5224(4) 0.3355(4)
C40 C 0.2287(6) 0.5300(5) 0.1211(4)
H22 H 0.2443 0.4993 0.0765
H23 H 0.1941 0.4985 0.1638
C41 C -0.2310(5) 0.4997(4) 0.2036(3)
C42 C 0.2360(7) 0.0827(5) 0.1569(5)
H24 H 0.2321 0.0629 0.1125
H25 H 0.2681 0.0357 0.1852
H26 H 0.2808 0.1211 0.1432
C43 C -0.3825(5) 0.6151(4) 0.1036(4)
C44 C 0.0034(5) 0.5468(4) 0.1233(3)
H27 H 0.0331 0.5053 0.1546
C45 C -0.1225(5) 0.6004(4) 0.0569(3)
C46 C -0.2798(6) 0.5158(4) 0.4100(4)
H28 H -0.3518 0.5228 0.4478
C47 C 0.4150(6) 0.4544(5) 0.1389(5)
H29 H 0.4784 0.4657 0.1459
H30 H 0.3811 0.4255 0.1839
O10 O -0.6404(6) 0.6826(4) 0.3178(4)
C48 C -0.3357(5) 0.5333(4) 0.1995(4)
C49 C -0.7128(6) 0.8502(6) 0.3232(4)
H31 H -0.7422 0.8227 0.2983
C50 C 0.1500(5) 0.6149(4) 0.1161(3)
H32 H 0.1891 0.6457 0.0742
O11 O -0.4790(6) 0.8415(4) 0.4600(4)
C51 C -0.0572(5) 0.3879(4) 0.1498(3)
H33 H -0.0313 0.3952 0.1905
H34 H 0.0061 0.3743 0.1056
O12 O -0.1444(6) 0.8558(5) 0.0087(4)
C52 C -0.1350(5) 0.4683(4) 0.1354(3)
H35 H -0.1653 0.4575 0.0978
C53 C -0.2602(9) 0.3608(4) 0.4292(4)
H36 H -0.3389 0.3835 0.4522
H37 H -0.2500 0.3479 0.3782
C54 C 0.1215(5) 0.7464(4) 0.1796(3)
C55 C -0.0825(5) 0.6685(4) 0.0332(3)
H38 H -0.1127 0.7107 0.0027
C56 C 0.0705(5) 0.7544(4) 0.3082(3)
N2 N -0.3248(9) 0.7162(8) 0.0178(7)
C57 C -0.2465(8) 0.9745(5) 0.4122(4)
C58 C 0.4525(7) 0.3991(6) 0.0753(5)
H39 H 0.4712 0.4318 0.0292
H40 H 0.3928 0.3775 0.0751
C59 C -0.6009(12) 0.7195(8) 0.3475(6)
C60 C -0.2736(5) 0.7210(4) 0.4670(3)
H41 H -0.3238 0.7696 0.4901
C61 C 0.0990(5) 0.7911(4) 0.2399(3)
H42 H 0.1030 0.8464 0.2347
C62 C 0.5526(7) 0.3252(6) 0.0779(5)
H43 H 0.5325 0.2927 0.1240
H44 H 0.5696 0.2889 0.0368
C63 C -0.5232(5) 0.6727(4) 0.3903(4)
C64 C -0.1652(5) 0.7103(4) 0.4504(3)
C65 C -0.0833(5) 0.5388(4) 0.1048(3)
C66 C -0.2090(6) 0.4296(4) 0.4251(4)
H45 H -0.1391 0.4179 0.3857
H46 H -0.1939 0.4302 0.4719
C67 C -0.2152(5) 0.4940(4) 0.2718(3)
H47 H -0.1444 0.4700 0.2756
C68 C 0.0271(11) 0.9291(8) 0.1198(7)
C69 C -0.0887(5) 0.6403(4) 0.4169(3)
C70 C 0.0650(6) 0.1988(4) 0.1633(4)
H48 H 0.0607 0.1782 0.1188
H49 H 0.1087 0.2386 0.1472
C71 C 0.1228(6) 0.1270(5) 0.2032(4)
H50 H 0.0795 0.0869 0.2193
H51 H 0.1277 0.1473 0.2476
C72 C -0.2270(14) 0.2844(5) 0.4664(6)
H52 H -0.2740 0.2497 0.4667
H53 H -0.2382 0.2956 0.5180
C73 C -0.1288(5) 0.5779(4) 0.4025(3)
H54 H -0.0786 0.5289 0.3800
N3 N -0.0464(7) 0.9326(6) 0.3543(5)
C74 C -0.1159(10) 0.2382(9) 0.4351(6)
H55 H -0.0673 0.2658 0.4448
H56 H -0.0992 0.2356 0.3813
C75 C 0.0892(5) 0.6307(4) 0.2547(3)
H57 H 0.0845 0.5755 0.2599
C76 C -0.0485(6) 0.2443(4) 0.2081(4)
H58 H -0.0919 0.2043 0.2243
H59 H -0.0438 0.2645 0.2527
N4 N -0.2326(9) 0.8965(6) 0.4481(6)
C77 C -0.1076(6) 0.3162(4) 0.1696(4)
H60 H -0.1828 0.3365 0.2014
H61 H -0.1103 0.2967 0.1241
C78 C 0.0616(6) 0.8408(5) 0.0931(3)
C79 C 0.0646(5) 0.6734(4) 0.3178(3)
C85 C -0.0964(9) 0.1428(7) 0.4726(4)
H66 H -0.1104 0.1439 0.5262
H67 H -0.1434 0.1137 0.4628
C87 C 0.0198(8) 0.1028(6) 0.4350(4)
H69 H 0.0280 0.0880 0.3855
H70 H 0.0457 0.0529 0.4629
H71 H 0.0621 0.1414 0.4320
C88 C 0.0327(5) 0.6315(4) 0.3941(3)
H72 H 0.0451 0.6631 0.4294
C89 C 0.1031(6) 0.5427(5) 0.3962(4)
H73 H 0.0805 0.5192 0.4465
H74 H 0.0899 0.5097 0.3630
C90 C 0.2235(6) 0.5339(5) 0.3744(4)
H75 H 0.2391 0.5603 0.4111
H76 H 0.2456 0.5625 0.3264
C92 C 0.2884(6) 0.4424(5) 0.3692(4)
H78 H 0.2645 0.4142 0.4172
H79 H 0.2721 0.4166 0.3324
C93 C 0.4070(6) 0.4288(5) 0.3488(6)
H80 H 0.4290 0.4647 0.3055
H81 H 0.4245 0.4458 0.3897
C94 C 0.4709(7) 0.3423(5) 0.3315(7)
H82 H 0.4624 0.3082 0.3774
H83 H 0.4421 0.3208 0.2990
C95 C 0.5831(13) 0.3339(9) 0.2967(17)
H84 H 0.5916 0.3801 0.2616
H85 H 0.6164 0.2817 0.2709
H86 H 0.6182 0.3341 0.3338
C80 C -0.1915(6) 0.7598(6) 0.2529(4)
H62 H -0.1314 0.7233 0.2659
C81 C -0.3475(6) 0.7830(5) 0.2163(4)
H63 H -0.3971 0.7612 0.2052
C82 C -0.2915(7) 0.8957(5) 0.2289(4)
H64 H -0.3008 0.9536 0.2268
C83 C -0.2074(7) 0.8436(6) 0.2499(5)
H65 H -0.1591 0.8655 0.2625
C84 C -0.3628(5) 0.8661(5) 0.2110(3)
C86 C -0.2637(7) 0.7300(5) 0.2370(4)
H68 H -0.2557 0.6723 0.2402
C101 C -0.4581(7) 0.9248(6) 0.1858(5)
H91 H -0.4297 0.9513 0.1385
H92 H -0.5004 0.9672 0.2223
H93 H -0.5045 0.8930 0.1807
C91 C 0.2535(8) 0.2312(6) 0.3424(5)
H77 H 0.2742 0.2016 0.3830
C96 C 0.1518(9) 0.2935(7) 0.3497(6)
H87 H 0.1001 0.3062 0.3964
C97 C 0.1323(9) 0.3330(7) 0.2884(6)
H88 H 0.0641 0.3727 0.2949
C98 C 0.1950(10) 0.3234(7) 0.2222(7)
H89 H 0.1754 0.3561 0.1824
C99 C 0.3019(12) 0.2571(9) 0.2109(6)
H90 H 0.3532 0.2445 0.1641
C100 C 0.3171(13) 0.2188(8) 0.2712(8)
C102 C 0.4336(8) 0.1521(7) 0.2573(11)
H94 H 0.4617 0.1366 0.2058
H95 H 0.4267 0.1030 0.2888
H96 H 0.4834 0.1762 0.2687
C103? C -0.0545(15) 0.9331(10) 0.3334(10)
C104? C -0.2511(16) 0.9039(12) 0.4599(12)
C105? C -0.3171(18) 0.7193(15) 0.0083(16)
C106? C -0.4950(16) 0.6635(13) 0.1317(13)
N5? N -0.6014(16) 0.7116(10) 0.3652(9)
N6? N -0.5122(19) 0.8028(10) 0.4240(11)
N7? N 0.0431(14) 0.9172(10) 0.1045(10)
N8? N -0.0909(15) 0.8774(11) 0.0437(12)
O13? O -0.2610(10) 0.7353(7) -0.0371(7)
O14? O -0.5707(10) 0.6441(7) 0.1786(6)
O15? O -0.3252(10) 0.9035(7) 0.5090(6)
O16? O 0.0132(10) 0.9599(7) 0.2985(6)
loop_
_geom_bond_atom_site_label_1
_geom_bond_atom_site_label_2
_geom_bond_site_symmetry_1
_geom_bond_site_symmetry_2
O1 C8 1_555 1_555
O2 C22 1_555 1_555
O3 C18 1_555 1_555
O4 C43 1_555 1_555
O5 C54 1_555 1_555
O6 C12 1_555 1_555
O7 C10 1_555 1_555
O8 C20 1_555 1_555
C1 C10 1_555 1_555
C2 H1 1_555 1_555
C3 H2 1_555 1_555
C4 H3 1_555 1_555
C5 C3 1_555 1_555
C6 H4 1_555 1_555
C7 H5 1_555 1_555
C8 C22 1_555 1_555
C9 C21 1_555 1_555
C10 C78 1_555 1_555
C11 H6 1_555 1_555
C12 C21 1_555 1_555
C13 H7 1_555 1_555
C14 C4 1_555 1_555
H8 C14 1_555 1_555
C15 C14 1_555 1_555
N1 C32 1_555 1_555
C16 C1 1_555 1_555
C17 C6 1_555 1_555
C18 C43 1_555 1_555
C19 C2 1_555 1_555
H9 C19 1_555 1_555
C20 C37 1_555 1_555
C21 O11 1_555 1_555
C22 N4 1_555 1_555
C23 C11 1_555 1_555
H10 C23 1_555 1_555
C24 C36 1_555 1_555
C25 H11 1_555 1_555
H12 C25 1_555 1_555
H13 C25 1_555 1_555
C26 C9 1_555 1_555
H14 C26 1_555 1_555
C27 C6 1_555 1_555
H15 C27 1_555 1_555
C28 C9 1_555 1_555
C29 C13 1_555 1_555
H16 C29 1_555 1_555
C30 H17 1_555 1_555
H18 C30 1_555 1_555
C31 C34 1_555 1_555
C32 C7 1_555 1_555
C33 C4 1_555 1_555
H19 C33 1_555 1_555
C34 O6 1_555 1_555
C35 C2 1_555 1_555
H20 C35 1_555 1_555
O9 C68 1_555 1_555
C36 O7 1_555 1_555
C37 H21 1_555 1_555
C38 C50 1_555 1_555
C39 C20 1_555 1_555
C40 C30 1_555 1_555
H22 C40 1_555 1_555
H23 C40 1_555 1_555
C41 C48 1_555 1_555
C42 H24 1_555 1_555
H25 C42 1_555 1_555
H26 C42 1_555 1_555
C43 N1 1_555 1_555
C44 C24 1_555 1_555
H27 C44 1_555 1_555
C45 O3 1_555 1_555
C46 C31 1_555 1_555
H28 C46 1_555 1_555
C47 C30 1_555 1_555
H29 C47 1_555 1_555
H30 C47 1_555 1_555
O10 C59 1_555 1_555
C48 O4 1_555 1_555
C49 C11 1_555 1_555
H31 C49 1_555 1_555
C50 C24 1_555 1_555
H32 C50 1_555 1_555
C51 H33 1_555 1_555
H34 C51 1_555 1_555
O12 C1 1_555 1_555
C52 C41 1_555 1_555
H35 C52 1_555 1_555
C53 H36 1_555 1_555
H37 C53 1_555 1_555
C54 C38 1_555 1_555
C55 C36 1_555 1_555
H38 C55 1_555 1_555
C56 O1 1_555 1_555
N2 C15 1_555 1_555
C57 C5 1_555 1_555
C58 C47 1_555 1_555
H39 C58 1_555 1_555
H40 C58 1_555 1_555
C59 C28 1_555 1_555
C60 C34 1_555 1_555
H41 C60 1_555 1_555
C61 C54 1_555 1_555
H42 C61 1_555 1_555
C62 C25 1_555 1_555
H43 C62 1_555 1_555
H44 C62 1_555 1_555
C63 O8 1_555 1_555
C64 O2 1_555 1_555
C65 C44 1_555 1_555
C66 C46 1_555 1_555
H45 C66 1_555 1_555
H46 C66 1_555 1_555
C67 C39 1_555 1_555
H47 C67 1_555 1_555
C68 C17 1_555 1_555
C69 C64 1_555 1_555
C70 H48 1_555 1_555
H49 C70 1_555 1_555
C71 C42 1_555 1_555
H50 C71 1_555 1_555
H51 C71 1_555 1_555
C72 C53 1_555 1_555
H52 C72 1_555 1_555
H53 C72 1_555 1_555
C73 C31 1_555 1_555
H54 C73 1_555 1_555
N3 C5 1_555 1_555
C74 C72 1_555 1_555
H55 C74 1_555 1_555
H56 C74 1_555 1_555
C75 C38 1_555 1_555
H57 C75 1_555 1_555
C76 C70 1_555 1_555
H58 C76 1_555 1_555
H59 C76 1_555 1_555
N4 C57 1_555 1_555
C77 C51 1_555 1_555
H60 C77 1_555 1_555
H61 C77 1_555 1_555
C78 O5 1_555 1_555
C79 C56 1_555 1_555
C80 H62 1_555 1_555
C81 H63 1_555 1_555
C82 H64 1_555 1_555
C83 C80 1_555 1_555
H65 C83 1_555 1_555
C84 C81 1_555 1_555
C85 C74 1_555 1_555
H66 C85 1_555 1_555
H67 C85 1_555 1_555
C86 C80 1_555 1_555
H68 C86 1_555 1_555
C87 C85 1_555 1_555
H69 C87 1_555 1_555
H70 C87 1_555 1_555
H71 C87 1_555 1_555
C88 C69 1_555 1_555
H72 C88 1_555 1_555
C89 C88 1_555 1_555
H73 C89 1_555 1_555
H74 C89 1_555 1_555
C90 C89 1_555 1_555
H75 C90 1_555 1_555
H76 C90 1_555 1_555
C91 H77 1_555 1_555
C92 C90 1_555 1_555
H78 C92 1_555 1_555
H79 C92 1_555 1_555
C93 C92 1_555 1_555
H80 C93 1_555 1_555
H81 C93 1_555 1_555
C94 C93 1_555 1_555
H82 C94 1_555 1_555
H83 C94 1_555 1_555
C95 C94 1_555 1_555
H84 C95 1_555 1_555
H85 C95 1_555 1_555
H86 C95 1_555 1_555
C96 C91 1_555 1_555
H87 C96 1_555 1_555
C97 C96 1_555 1_555
H88 C97 1_555 1_555
C98 C97 1_555 1_555
H89 C98 1_555 1_555
C99 C98 1_555 1_555
H90 C99 1_555 1_555
C100 C91 1_555 1_555
C101 C84 1_555 1_555
H91 C101 1_555 1_555
H92 C101 1_555 1_555
H93 C101 1_555 1_555
C102 C100 1_555 1_555
H94 C102 1_555 1_555
H95 C102 1_555 1_555
H96 C102 1_555 1_555
C3 C35 1_555 1_555
C7 C33 1_555 1_555
C8 N3 1_555 1_555
C12 C63 1_555 1_555
C13 C27 1_555 1_555
C15 C32 1_555 1_555
C16 C17 1_555 1_555
C16 C29 1_555 1_555
C18 N2 1_555 1_555
C19 C57 1_555 1_555
C23 C26 1_555 1_555
C28 C49 1_555 1_555
C37 C48 1_555 1_555
C39 C46 1_555 1_555
C40 C50 1_555 1_555
C41 C67 1_555 1_555
C45 C55 1_555 1_555
C45 C65 1_555 1_555
C51 C52 1_555 1_555
C52 C65 1_555 1_555
C53 C66 1_555 1_555
C56 C61 1_555 1_555
C58 C62 1_555 1_555
C59 C63 1_555 1_555
C60 C64 1_555 1_555
C68 C78 1_555 1_555
C69 C73 1_555 1_555
C70 C71 1_555 1_555
C75 C79 1_555 1_555
C76 C77 1_555 1_555
C79 C88 1_555 1_555
C81 C86 1_555 1_555
C82 C83 1_555 1_555
C82 C84 1_555 1_555
C99 C100 1_555 1_555

#END
