
#######################################################################
#
#                 Cambridge Crystallographic Data Centre
#                                CCDC 
#
#######################################################################
#
# If this CIF has been generated from an entry in the Cambridge 
# Structural Database, then it will include bibliographic, chemical, 
# crystal, experimental, refinement or atomic coordinate data resulting 
# from the CCDC's data processing and validation procedures.
#
#######################################################################

data_PAGWAX
_chemical_formula_moiety         'C22 H22 N1 O1 P1'
_chemical_name_systematic        4-(2-(Diphenylphosphino)phenyl)morpholine
_symmetry_cell_setting           monoclinic
_symmetry_space_group_name_H-M   'P 21/c'
_symmetry_Int_Tables_number      14
_space_group_name_Hall           '-P 2ybc'
loop_
_symmetry_equiv_pos_site_id
_symmetry_equiv_pos_as_xyz
1 x,y,z
2 -x,1/2+y,1/2-z
3 -x,-y,-z
4 x,1/2-y,1/2+z
_cell_length_a                   8.396(5)
_cell_length_b                   35.84(2)
_cell_length_c                   6.271(4)
_cell_angle_alpha                90
_cell_angle_beta                 96.211(6)
_cell_angle_gamma                90
_cell_volume                     1875.95
_exptl_crystal_colour            colorless
_exptl_crystal_description       block
_cell_formula_units_Z            4
loop_
_atom_site_label
_atom_site_type_symbol
_atom_site_fract_x
_atom_site_fract_y
_atom_site_fract_z
P1 P 0.86504(6) 0.131550(14) 0.02097(8)
N1 N 0.62510(19) 0.10203(4) 0.2782(3)
O1 O 0.5244(2) 0.02708(5) 0.2606(3)
C1 C 0.9857(2) 0.10212(6) 0.2136(3)
C2 C 1.0241(3) 0.06641(6) 0.1491(4)
H1 H 0.9909 0.0586 0.0099
C3 C 1.1114(3) 0.04228(7) 0.2900(5)
H2 H 1.1370 0.0186 0.2440
C4 C 1.1600(3) 0.05299(8) 0.4952(5)
H3 H 1.2168 0.0365 0.5897
C5 C 1.1248(3) 0.08804(8) 0.5614(4)
H4 H 1.1592 0.0955 0.7008
C6 C 1.0384(3) 0.11254(7) 0.4227(3)
H5 H 1.0154 0.1363 0.4703
C7 C 1.0101(2) 0.16582(5) -0.0580(3)
C8 C 1.1685(3) 0.16896(6) 0.0319(4)
H6 H 1.2065 0.1535 0.1454
C9 C 1.2695(3) 0.19472(7) -0.0456(4)
H7 H 1.3755 0.1962 0.0147
C10 C 1.2158(3) 0.21821(7) -0.2104(4)
H8 H 1.2844 0.2359 -0.2595
C11 C 1.0593(3) 0.21548(6) -0.3033(3)
H9 H 1.0219 0.2311 -0.4159
C12 C 0.9595(3) 0.18940(6) -0.2275(3)
H10 H 0.8547 0.1875 -0.2919
C13 C 0.7499(2) 0.16011(5) 0.1940(3)
C14 C 0.7616(2) 0.19866(6) 0.2128(3)
H11 H 0.8358 0.2114 0.1402
C15 C 0.6645(3) 0.21858(6) 0.3380(3)
H12 H 0.6730 0.2444 0.3476
C16 C 0.5557(3) 0.20000(6) 0.4476(4)
H13 H 0.4916 0.2132 0.5330
C17 C 0.5415(2) 0.16161(6) 0.4310(4)
H14 H 0.4685 0.1491 0.5069
C18 C 0.6350(2) 0.14160(5) 0.3023(3)
C19 C 0.5050(3) 0.08935(6) 0.1087(4)
H15 H 0.5139 0.1034 -0.0218
H16 H 0.3984 0.0931 0.1510
C20 C 0.5332(4) 0.04844(7) 0.0707(4)
H17 H 0.4536 0.0394 -0.0411
H18 H 0.6380 0.0452 0.0217
C21 C 0.6369(3) 0.04003(7) 0.4279(4)
H19 H 0.7444 0.0365 0.3880
H20 H 0.6271 0.0255 0.5565
C22 C 0.6114(3) 0.08078(6) 0.4740(4)
H21 H 0.5061 0.0844 0.5209
H22 H 0.6911 0.0892 0.5872
loop_
_geom_bond_atom_site_label_1
_geom_bond_atom_site_label_2
_geom_bond_site_symmetry_1
_geom_bond_site_symmetry_2
P1 C1 1_555 1_555
N1 C18 1_555 1_555
O1 C20 1_555 1_555
C1 C2 1_555 1_555
C2 H1 1_555 1_555
C3 C2 1_555 1_555
H2 C3 1_555 1_555
C4 C3 1_555 1_555
H3 C4 1_555 1_555
C5 C4 1_555 1_555
H4 C5 1_555 1_555
C6 C1 1_555 1_555
H5 C6 1_555 1_555
C7 P1 1_555 1_555
C8 C7 1_555 1_555
H6 C8 1_555 1_555
C9 C8 1_555 1_555
H7 C9 1_555 1_555
C10 C9 1_555 1_555
H8 C10 1_555 1_555
C11 C10 1_555 1_555
H9 C11 1_555 1_555
C12 C7 1_555 1_555
H10 C12 1_555 1_555
C13 P1 1_555 1_555
C14 C13 1_555 1_555
H11 C14 1_555 1_555
C15 C14 1_555 1_555
H12 C15 1_555 1_555
C16 C15 1_555 1_555
H13 C16 1_555 1_555
C17 C16 1_555 1_555
H14 C17 1_555 1_555
C18 C13 1_555 1_555
C19 N1 1_555 1_555
H15 C19 1_555 1_555
H16 C19 1_555 1_555
C20 C19 1_555 1_555
H17 C20 1_555 1_555
H18 C20 1_555 1_555
C21 O1 1_555 1_555
H19 C21 1_555 1_555
H20 C21 1_555 1_555
C22 N1 1_555 1_555
H21 C22 1_555 1_555
H22 C22 1_555 1_555
C5 C6 1_555 1_555
C11 C12 1_555 1_555
C17 C18 1_555 1_555
C21 C22 1_555 1_555

#END
