
#######################################################################
#
#                 Cambridge Crystallographic Data Centre
#                                CCDC 
#
#######################################################################
#
# If this CIF has been generated from an entry in the Cambridge 
# Structural Database, then it will include bibliographic, chemical, 
# crystal, experimental, refinement or atomic coordinate data resulting 
# from the CCDC's data processing and validation procedures.
#
#######################################################################

data_PAHKIU
_chemical_formula_moiety         
'C10 H12 N3 1+,C10 H11 N3,C7 H5 N1 O4,C7 H4 N1 O4 1-'
_chemical_name_systematic        
'2-Amino-5,7-dimethyl-1,8-naphthyridin-1-ium 5,7-dimethyl-1,8-naphthyridin-2-amine 4-nitrobenzoic acid 4-nitrobenzoate'
_symmetry_cell_setting           triclinic
_symmetry_space_group_name_H-M   'P -1'
_symmetry_Int_Tables_number      2
_space_group_name_Hall           '-P 1'
loop_
_symmetry_equiv_pos_site_id
_symmetry_equiv_pos_as_xyz
1 x,y,z
2 -x,-y,-z
_cell_length_a                   6.9270(5)
_cell_length_b                   9.5459(8)
_cell_length_c                   12.5861(11)
_cell_angle_alpha                104.729(1)
_cell_angle_beta                 94.118(1)
_cell_angle_gamma                91.757(2)
_cell_volume                     801.79
_exptl_crystal_colour            colorless
_exptl_crystal_description       block
_cell_formula_units_Z            1
loop_
_atom_site_label
_atom_site_type_symbol
_atom_site_fract_x
_atom_site_fract_y
_atom_site_fract_z
N4 N 0.7408(3) 0.5320(2) 0.18823(19)
O1 O 0.0939(2) 0.91053(18) 0.03342(13)
H4 H 0.0303 0.9604 0.0011
O2 O 0.2838(3) 0.89954(19) -0.10257(13)
O3 O 0.9044(3) 0.5138(2) 0.15969(18)
O4 O 0.6789(3) 0.4885(3) 0.2626(2)
C11 C 0.2419(3) 0.8684(2) -0.01879(16)
C12 C 0.3704(3) 0.7755(2) 0.03280(15)
C13 C 0.3024(3) 0.7070(2) 0.10783(16)
H14 H 0.1741 0.7156 0.1249
C14 C 0.4228(3) 0.6258(2) 0.15783(17)
H15 H 0.3767 0.5793 0.2082
C15 C 0.6111(3) 0.6151(2) 0.13186(17)
C16 C 0.6830(3) 0.6793(2) 0.05651(18)
H16 H 0.8109 0.6691 0.0390
C17 C 0.5603(3) 0.7601(2) 0.00691(17)
H17 H 0.6064 0.8046 -0.0446
N1 N 0.3323(2) 0.06692(17) 0.55887(12)
H1 H 0.4362 0.0348 0.5299
N2 N 0.2681(2) 0.16510(18) 0.41169(13)
N3 N 0.4085(3) -0.0338(2) 0.70246(14)
H2 H 0.5125 -0.0643 0.6728
H3 H 0.3823 -0.0517 0.7636
C1 C 0.2887(3) 0.0405(2) 0.65395(15)
C2 C 0.1144(3) 0.0909(2) 0.70205(16)
H5 H 0.0841 0.0712 0.7677
C3 C -0.0048(3) 0.1667(2) 0.65212(16)
H6 H -0.1188 0.1980 0.6831
C4 C 0.0400(3) 0.2000(2) 0.55254(15)
C5 C 0.2110(3) 0.1457(2) 0.50700(15)
C6 C 0.1545(3) 0.2392(2) 0.35751(17)
C7 C -0.0153(3) 0.2984(2) 0.39779(17)
H7 H -0.0889 0.3506 0.3580
C8 C -0.0758(3) 0.2807(2) 0.49511(17)
C9 C 0.2179(4) 0.2533(3) 0.24936(18)
H8 H 0.3497 0.2915 0.2593
H9 H 0.1360 0.3178 0.2219
H10 H 0.2088 0.1597 0.1976
C10 C -0.2593(3) 0.3441(3) 0.5375(2)
H11 H -0.3198 0.3912 0.4859
H12 H -0.2298 0.4136 0.6073
H13 H -0.3456 0.2682 0.5466
loop_
_geom_bond_atom_site_label_1
_geom_bond_atom_site_label_2
_geom_bond_site_symmetry_1
_geom_bond_site_symmetry_2
N1 H1 1_555 1_555
N2 C5 1_555 1_555
N3 H2 1_555 1_555
H3 N3 1_555 1_555
N4 O3 1_555 1_555
O1 H4 1_555 1_555
O2 C11 1_555 1_555
O4 N4 1_555 1_555
C1 N1 1_555 1_555
C2 C1 1_555 1_555
H5 C2 1_555 1_555
C3 C2 1_555 1_555
H6 C3 1_555 1_555
C4 C3 1_555 1_555
C5 N1 1_555 1_555
C6 N2 1_555 1_555
C7 C6 1_555 1_555
H7 C7 1_555 1_555
C8 C4 1_555 1_555
C9 C6 1_555 1_555
H8 C9 1_555 1_555
H9 C9 1_555 1_555
H10 C9 1_555 1_555
C10 C8 1_555 1_555
H11 C10 1_555 1_555
H12 C10 1_555 1_555
H13 C10 1_555 1_555
C11 O1 1_555 1_555
C12 C11 1_555 1_555
C13 C12 1_555 1_555
H14 C13 1_555 1_555
C14 C13 1_555 1_555
H15 C14 1_555 1_555
C15 N4 1_555 1_555
C16 C15 1_555 1_555
H16 C16 1_555 1_555
C17 C12 1_555 1_555
H17 C17 1_555 1_555
N3 C1 1_555 1_555
C4 C5 1_555 1_555
C7 C8 1_555 1_555
C14 C15 1_555 1_555
C16 C17 1_555 1_555

#END
