
#######################################################################
#
#                 Cambridge Crystallographic Data Centre
#                                CCDC 
#
#######################################################################
#
# If this CIF has been generated from an entry in the Cambridge 
# Structural Database, then it will include bibliographic, chemical, 
# crystal, experimental, refinement or atomic coordinate data resulting 
# from the CCDC's data processing and validation procedures.
#
#######################################################################

data_PAHQOH
_chemical_compound_source        
'twigs and leaves of Tara (Caesalpinia spinosa Kuntze)'
_chemical_name_common            
'isoneocaesalpin H n-hexane solvate monohydrate'
_chemical_formula_moiety         'C20 H28 O5,0.5(C6 H14),H2 O1'
_chemical_name_systematic        
'10a-hydroxy-4,7,11b-trimethyl-9-oxo-1,2,3,4,4a,5,6,6a,7,9,10a,11,11a,11b-tetradecahydrophenanthro[3,2-b]furan-4-carboxylic acid hexane solvate monohydrate'
_symmetry_cell_setting           orthorhombic
_symmetry_space_group_name_H-M   'C 2 2 21'
_symmetry_Int_Tables_number      20
_space_group_name_Hall           'C 2n 2'
loop_
_symmetry_equiv_pos_site_id
_symmetry_equiv_pos_as_xyz
1 x,y,z
2 x,-y,-z
3 -x,y,1/2-z
4 -x,-y,1/2+z
5 1/2+x,1/2+y,z
6 1/2+x,1/2-y,-z
7 1/2-x,1/2+y,1/2-z
8 1/2-x,1/2-y,1/2+z
_cell_length_a                   8.0451(2)
_cell_length_b                   13.6830(3)
_cell_length_c                   39.0617(10)
_cell_angle_alpha                90
_cell_angle_beta                 90
_cell_angle_gamma                90
_cell_volume                     4299.96
_exptl_crystal_colour            colorless
_exptl_crystal_description       prism
_cell_formula_units_Z            8
loop_
_atom_site_label
_atom_site_type_symbol
_atom_site_fract_x
_atom_site_fract_y
_atom_site_fract_z
O1 O 0.6480(2) 0.51526(11) 0.95660(4)
O2 O 0.8477(2) 0.40411(11) 0.94802(4)
O3 O 0.8883(2) -0.00572(18) 0.79042(5)
H1 H 0.8767 0.0025 0.7692
O4 O 1.1528(3) 0.01375(16) 0.77699(5)
O5 O 0.94628(19) 0.26064(11) 0.97167(4)
H2 H 0.9017 0.2781 0.9901
C1 C 0.6868(3) 0.43051(16) 0.95191(6)
C2 C 0.8558(3) 0.29776(15) 0.94427(6)
C3 C 0.9401(3) 0.27088(16) 0.91093(6)
H3 H 1.0600 0.2865 0.9125
H4 H 0.8919 0.3102 0.8921
C4 C 0.9184(3) 0.16126(16) 0.90288(6)
H5 H 0.9714 0.1241 0.9220
C5 C 1.0100(3) 0.13089(16) 0.86905(6)
C6 C 0.9779(3) 0.01960(17) 0.86337(6)
H6 H 1.0152 -0.0116 0.8852
C7 C 1.0880(3) -0.02922(18) 0.83541(6)
C8 C 1.0464(3) -0.00296(18) 0.79824(6)
C9 C 0.9514(3) 0.19254(17) 0.83829(6)
H7 H 0.9761 0.2616 0.8426
H8 H 0.8314 0.1842 0.8352
H9 H 1.0096 0.1710 0.8176
C10 C 0.5807(3) 0.34466(16) 0.94825(6)
H10 H 0.4626 0.3446 0.9489
C11 C 0.6766(3) 0.26664(16) 0.94385(5)
C12 C 0.6389(3) 0.16206(15) 0.93624(6)
H11 H 0.5169 0.1570 0.9316
C13 C 0.6790(3) 0.09431(16) 0.96690(6)
H12 H 0.7998 0.0873 0.9691
H13 H 0.6290 0.0299 0.9630
H14 H 0.6337 0.1228 0.9879
C14 C 0.7320(3) 0.13388(15) 0.90268(6)
H15 H 0.6788 0.1712 0.8836
C15 C 0.7079(3) 0.02538(16) 0.89499(6)
H16 H 0.7552 -0.0139 0.9139
H17 H 0.5876 0.0108 0.8936
C16 C 0.7915(3) -0.00337(17) 0.86153(6)
H18 H 0.7405 0.0331 0.8423
H19 H 0.7752 -0.0741 0.8573
C17 C 1.1990(3) 0.14655(18) 0.87430(6)
H20 H 1.2217 0.2176 0.8754
H21 H 1.2319 0.1176 0.8965
C18 C 1.3052(3) 0.10204(19) 0.84619(6)
H22 H 1.4242 0.1121 0.8516
H23 H 1.2813 0.1353 0.8242
C19 C 1.2706(3) -0.00660(19) 0.84257(6)
H24 H 1.3045 -0.0402 0.8639
H25 H 1.3392 -0.0330 0.8237
C20 C 1.0636(4) -0.14174(18) 0.83662(7)
H26 H 0.9481 -0.1577 0.8309
H27 H 1.0890 -0.1657 0.8597
H28 H 1.1382 -0.1729 0.8201
O6 O 0.2721(2) 0.20000(13) 0.97226(4)
H29 H 0.266(4) 0.140(3) 0.9649(9)
H30 H 0.174(5) 0.222(3) 0.9714(9)
C21 C 0.195(2) 0.2452(15) 0.2563(5)
H31 H 0.1269 0.1850 0.2553
H32 H 0.1978 0.2627 0.2809
C22 C 0.070(2) 0.3221(17) 0.2423(5)
H33 H 0.1206 0.3878 0.2444
H34 H 0.0515 0.3094 0.2176
C23 C 0.3765(19) 0.2019(15) 0.2510(3)
H35 H 0.3781 0.1332 0.2582
H36 H 0.4558 0.2391 0.2649
H37 H 0.4075 0.2066 0.2268
C21B C -0.195(2) 0.2452(15) 0.2437(5)
H31B H -0.1269 0.1850 0.2447
H32B H -0.1978 0.2627 0.2191
C22B C -0.070(2) 0.3221(17) 0.2577(5)
H33B H -0.1206 0.3878 0.2556
H34B H -0.0515 0.3094 0.2824
C23B C -0.3765(19) 0.2019(15) 0.2490(3)
H35B H -0.3781 0.1332 0.2418
H36B H -0.4558 0.2391 0.2351
H37B H -0.4075 0.2066 0.2732
loop_
_geom_bond_atom_site_label_1
_geom_bond_atom_site_label_2
_geom_bond_site_symmetry_1
_geom_bond_site_symmetry_2
O1 C1 1_555 1_555
O2 C1 1_555 1_555
O3 H1 1_555 1_555
O4 C8 1_555 1_555
O5 H2 1_555 1_555
C1 C10 1_555 1_555
C2 O2 1_555 1_555
C3 C2 1_555 1_555
H3 C3 1_555 1_555
H4 C3 1_555 1_555
C4 C3 1_555 1_555
H5 C4 1_555 1_555
C5 C4 1_555 1_555
C6 C5 1_555 1_555
H6 C6 1_555 1_555
C7 C6 1_555 1_555
C8 O3 1_555 1_555
C9 C5 1_555 1_555
H7 C9 1_555 1_555
H8 C9 1_555 1_555
H9 C9 1_555 1_555
C10 H10 1_555 1_555
C11 C2 1_555 1_555
C12 C11 1_555 1_555
H11 C12 1_555 1_555
C13 C12 1_555 1_555
H12 C13 1_555 1_555
H13 C13 1_555 1_555
H14 C13 1_555 1_555
C14 C4 1_555 1_555
H15 C14 1_555 1_555
C15 C14 1_555 1_555
H16 C15 1_555 1_555
H17 C15 1_555 1_555
C16 C6 1_555 1_555
H18 C16 1_555 1_555
H19 C16 1_555 1_555
C17 C5 1_555 1_555
H20 C17 1_555 1_555
H21 C17 1_555 1_555
C18 C17 1_555 1_555
H22 C18 1_555 1_555
H23 C18 1_555 1_555
C19 C7 1_555 1_555
H24 C19 1_555 1_555
H25 C19 1_555 1_555
C20 C7 1_555 1_555
H26 C20 1_555 1_555
H27 C20 1_555 1_555
H28 C20 1_555 1_555
O6 H29 1_555 1_555
H30 O6 1_555 1_555
C21 H31 1_555 1_555
H32 C21 1_555 1_555
C22 C21 1_555 1_555
H33 C22 1_555 1_555
H34 C22 1_555 1_555
C23 C21 1_555 1_555
H35 C23 1_555 1_555
H36 C23 1_555 1_555
H37 C23 1_555 1_555
C21B H31B 1_555 1_555
H32B C21B 1_555 1_555
C22B C22 1_555 1_555
H33B C22B 1_555 1_555
H34B C22B 1_555 1_555
C23B C21B 1_555 1_555
H35B C23B 1_555 1_555
H36B C23B 1_555 1_555
H37B C23B 1_555 1_555
O5 C2 1_555 1_555
C7 C8 1_555 1_555
C10 C11 1_555 1_555
C12 C14 1_555 1_555
C15 C16 1_555 1_555
C18 C19 1_555 1_555
C21B C22B 1_555 1_555

#END
