
#######################################################################
#
#                 Cambridge Crystallographic Data Centre
#                                CCDC 
#
#######################################################################
#
# If this CIF has been generated from an entry in the Cambridge 
# Structural Database, then it will include bibliographic, chemical, 
# crystal, experimental, refinement or atomic coordinate data resulting 
# from the CCDC's data processing and validation procedures.
#
#######################################################################

data_PAHREY
_chemical_formula_moiety         'C30 H38 O5'
_chemical_name_systematic        
'tricyclo[3.3.1.1^3,7^]decan-1-yl 16-hydroxy-3-methoxy-17-oxoestra-1,3,5(10)-triene-16-carboxylate'
_symmetry_cell_setting           triclinic
_symmetry_space_group_name_H-M   'P 1'
_symmetry_Int_Tables_number      1
_space_group_name_Hall           'P 1'
loop_
_symmetry_equiv_pos_site_id
_symmetry_equiv_pos_as_xyz
1 x,y,z
_cell_length_a                   6.3690(3)
_cell_length_b                   14.0432(6)
_cell_length_c                   15.4534(6)
_cell_angle_alpha                68.5180(10)
_cell_angle_beta                 89.2290(10)
_cell_angle_gamma                77.5010(10)
_cell_volume                     1252.37
_exptl_crystal_colour            colorless
_exptl_crystal_description       block
_cell_formula_units_Z            2
loop_
_atom_site_label
_atom_site_type_symbol
_atom_site_fract_x
_atom_site_fract_y
_atom_site_fract_z
C1 C 1.1157(4) 0.31488(19) 0.78699(16)
O1 O 1.2981(3) 0.29649(15) 0.73597(13)
H1 H 1.3083 0.2390 0.7293
C2 C 1.1040(3) 0.42344(19) 0.79695(15)
O2 O 1.2464(3) 0.44065(16) 0.83533(14)
O3 O 0.9785(2) 0.24035(12) 0.93191(11)
C3 C 0.8930(3) 0.49773(18) 0.74866(15)
O4 O 1.3109(3) 0.15844(14) 0.90823(12)
C4 C 0.8476(3) 0.45152(16) 0.67672(15)
H2 H 0.9559 0.4678 0.6291
C5 C 0.9071(4) 0.33204(18) 0.72975(17)
H3 H 0.7929 0.3082 0.7707
H4 H 0.9312 0.2944 0.6862
O5 O -0.2168(3) 0.82676(13) 0.38401(13)
C6 C 0.8980(4) 0.61297(18) 0.69765(18)
H5 H 1.0156 0.6185 0.6548
H6 H 0.9257 0.6440 0.7432
C7 C 0.6799(4) 0.67328(18) 0.64190(18)
H7 H 0.5671 0.6764 0.6861
H8 H 0.6892 0.7463 0.6044
C8 C 0.6126(3) 0.62314(16) 0.57662(15)
H9 H 0.7181 0.6315 0.5273
C9 C 0.6273(3) 0.50366(16) 0.62472(15)
H10 H 0.5129 0.4916 0.6699
C10 C 0.3767(5) 0.5107(2) 0.4971(2)
H11 H 0.2718 0.4697 0.5300
H12 H 0.3871 0.5058 0.4348
C11 C 0.5912(4) 0.46040(19) 0.54971(17)
H13 H 0.7055 0.4720 0.5055
H14 H 0.6034 0.3837 0.5796
C12 C 0.3908(3) 0.67702(17) 0.52607(15)
C13 C 0.2876(4) 0.62511(17) 0.48373(16)
C14 C 0.2825(4) 0.77790(18) 0.51876(18)
H15 H 0.3489 0.8146 0.5473
C15 C -0.0166(4) 0.77379(17) 0.42861(16)
C16 C 0.0823(4) 0.82591(18) 0.47145(19)
H16 H 0.0123 0.8943 0.4682
C17 C -0.3109(4) 0.78253(19) 0.32898(17)
H17 H -0.4523 0.8275 0.3012
H18 H -0.2170 0.7773 0.2794
H19 H -0.3280 0.7123 0.3685
C18 C 0.0862(4) 0.67356(17) 0.43480(15)
H20 H 0.0193 0.6377 0.4056
C19 C 0.7321(4) 0.4860(2) 0.82545(16)
H21 H 0.5913 0.5324 0.7985
H22 H 0.7175 0.4129 0.8520
H23 H 0.7852 0.5051 0.8746
C20 C 1.1484(4) 0.22712(19) 0.88302(16)
C21 C 0.9708(3) 0.17159(16) 1.02975(14)
C22 C 0.9732(4) 0.06030(18) 1.03716(16)
H24 H 1.1110 0.0297 1.0169
H25 H 0.8538 0.0612 0.9963
C23 C 0.9474(4) -0.00624(17) 1.13907(17)
H26 H 0.9498 -0.0798 1.1450
C24 C 0.7322(3) 0.04111(18) 1.16953(17)
H27 H 0.7152 -0.0015 1.2352
H28 H 0.6112 0.0406 1.1303
C25 C 0.7282(3) 0.15414(17) 1.15957(16)
H29 H 0.5875 0.1852 1.1788
C26 C 0.7557(3) 0.22052(17) 1.05811(16)
H30 H 0.6358 0.2225 1.0169
H31 H 0.7536 0.2934 1.0519
C27 C 1.1339(3) -0.00686(19) 1.20039(16)
H32 H 1.2726 -0.0369 1.1804
H33 H 1.1216 -0.0512 1.2661
C28 C 1.1290(3) 0.1058(2) 1.19248(16)
H34 H 1.2499 0.1048 1.2336
C29 C 0.9131(4) 0.1530(2) 1.22285(17)
H35 H 0.8959 0.1105 1.2885
H36 H 0.9105 0.2255 1.2181
C30 C 1.1553(3) 0.17346(18) 1.09094(16)
H37 H 1.1506 0.2465 1.0851
H38 H 1.2957 0.1450 1.0712
O6 O -0.1659(3) 0.58228(13) 0.24612(13)
H39 H -0.1689 0.6004 0.2923
O7 O -0.0821(3) 0.43305(15) 0.14879(14)
O8 O -0.0793(3) 0.39749(13) 0.38390(13)
O9 O 0.2684(2) 0.36111(12) 0.34896(11)
O10 O 0.9634(3) 0.94037(15) -0.22299(13)
C31 C 0.0386(3) 0.51639(17) 0.24741(16)
C32 C 0.0348(3) 0.48575(17) 0.15926(17)
C33 C 0.1943(3) 0.53493(17) 0.09397(16)
C34 C 0.2091(3) 0.62638(16) 0.12396(15)
H40 H 0.0686 0.6789 0.1019
C35 C 0.2133(4) 0.57967(17) 0.23078(15)
H41 H 0.3560 0.5337 0.2586
H42 H 0.1776 0.6356 0.2568
C36 C 0.1287(4) 0.5788(2) -0.01019(18)
H43 H -0.0160 0.6266 -0.0228
H44 H 0.1216 0.5205 -0.0308
C37 C 0.2940(4) 0.6389(2) -0.06479(17)
H45 H 0.2424 0.6726 -0.1315
H46 H 0.4326 0.5882 -0.0596
C38 C 0.3330(3) 0.72396(17) -0.02981(15)
H47 H 0.1943 0.7782 -0.0439
C39 C 0.3822(3) 0.68245(16) 0.07674(15)
H48 H 0.5260 0.6319 0.0940
C40 C 0.3883(4) 0.77638(17) 0.10435(16)
H49 H 0.2490 0.8285 0.0838
H50 H 0.4082 0.7522 0.1731
C41 C 0.5711(4) 0.82850(18) 0.06050(16)
H51 H 0.5389 0.9010 0.0598
H52 H 0.7060 0.7895 0.1003
C42 C 0.6080(3) 0.83314(16) -0.03773(15)
C43 C 0.5034(3) 0.78117(17) -0.07954(15)
C44 C 0.5594(4) 0.78573(19) -0.16885(16)
H53 H 0.4897 0.7515 -0.1987
C45 C 0.7121(4) 0.8383(2) -0.21471(16)
H54 H 0.7483 0.8386 -0.2746
C46 C 0.8131(4) 0.89077(18) -0.17318(16)
C47 C 0.7596(4) 0.88796(17) -0.08514(16)
H55 H 0.8273 0.9240 -0.0565
C48 C 1.0471(5) 1.0075(2) -0.18915(19)
H56 H 1.1524 1.0378 -0.2310
H57 H 0.9290 1.0640 -0.1867
H58 H 1.1173 0.9667 -0.1265
C49 C 0.4029(4) 0.44657(19) 0.1178(2)
H59 H 0.5153 0.4725 0.0780
H60 H 0.4519 0.4254 0.1834
H61 H 0.3732 0.3860 0.1070
C50 C 0.3334(3) 0.25385(16) 0.42088(15)
C51 C 0.0683(3) 0.41807(18) 0.33603(16)
C52 C 0.3044(4) 0.25209(19) 0.51926(17)
H62 H 0.1496 0.2745 0.5276
H63 H 0.3819 0.3009 0.5305
C53 C 0.3960(5) 0.1389(2) 0.58841(18)
H64 H 0.3785 0.1357 0.6538
C54 C 0.2751(4) 0.0650(2) 0.5699(2)
H65 H 0.3316 -0.0077 0.6148
H66 H 0.1201 0.0860 0.5787
C55 C 0.3025(4) 0.06873(19) 0.4713(2)
H67 H 0.2221 0.0202 0.4599
C56 C 0.2108(4) 0.18167(18) 0.40190(18)
H68 H 0.2270 0.1849 0.3371
H69 H 0.0555 0.2037 0.4097
C57 C 0.6368(4) 0.1062(2) 0.5743(2)
H70 H 0.7155 0.1548 0.5852
H71 H 0.6985 0.0344 0.6197
C58 C 0.6628(4) 0.10895(19) 0.47545(19)
H72 H 0.8192 0.0870 0.4667
C59 C 0.5409(4) 0.0345(2) 0.4580(2)
H73 H 0.5995 -0.0383 0.5021
H74 H 0.5587 0.0362 0.3938
C60 C 0.5717(4) 0.22156(19) 0.40643(19)
H75 H 0.6510 0.2701 0.4170
H76 H 0.5889 0.2249 0.3417
loop_
_geom_bond_atom_site_label_1
_geom_bond_atom_site_label_2
_geom_bond_site_symmetry_1
_geom_bond_site_symmetry_2
C1 O1 1_555 1_555
O1 H1 1_555 1_555
C2 C1 1_555 1_555
O2 C2 1_555 1_555
O3 C20 1_555 1_555
C3 C2 1_555 1_555
O4 C20 1_555 1_555
C4 C3 1_555 1_555
H2 C4 1_555 1_555
C5 C1 1_555 1_555
H3 C5 1_555 1_555
H4 C5 1_555 1_555
O5 C15 1_555 1_555
C6 C3 1_555 1_555
H5 C6 1_555 1_555
H6 C6 1_555 1_555
C7 C6 1_555 1_555
H7 C7 1_555 1_555
H8 C7 1_555 1_555
C8 C7 1_555 1_555
H9 C8 1_555 1_555
C9 C4 1_555 1_555
H10 C9 1_555 1_555
C10 H11 1_555 1_555
H12 C10 1_555 1_555
C11 C9 1_555 1_555
H13 C11 1_555 1_555
H14 C11 1_555 1_555
C12 C8 1_555 1_555
C13 C10 1_555 1_555
C14 C12 1_555 1_555
H15 C14 1_555 1_555
C15 C16 1_555 1_555
C16 C14 1_555 1_555
H16 C16 1_555 1_555
C17 O5 1_555 1_555
H17 C17 1_555 1_555
H18 C17 1_555 1_555
H19 C17 1_555 1_555
C18 C13 1_555 1_555
H20 C18 1_555 1_555
C19 C3 1_555 1_555
H21 C19 1_555 1_555
H22 C19 1_555 1_555
H23 C19 1_555 1_555
C20 C1 1_555 1_555
C21 O3 1_555 1_555
C22 C21 1_555 1_555
H24 C22 1_555 1_555
H25 C22 1_555 1_555
C23 C22 1_555 1_555
H26 C23 1_555 1_555
C24 C23 1_555 1_555
H27 C24 1_555 1_555
H28 C24 1_555 1_555
C25 C24 1_555 1_555
H29 C25 1_555 1_555
C26 C21 1_555 1_555
H30 C26 1_555 1_555
H31 C26 1_555 1_555
C27 C23 1_555 1_555
H32 C27 1_555 1_555
H33 C27 1_555 1_555
C28 C27 1_555 1_555
H34 C28 1_555 1_555
C29 C25 1_555 1_555
H35 C29 1_555 1_555
H36 C29 1_555 1_555
C30 C21 1_555 1_555
H37 C30 1_555 1_555
H38 C30 1_555 1_555
O6 H39 1_555 1_555
O7 C32 1_555 1_555
O8 C51 1_555 1_555
O9 C50 1_555 1_555
O10 C46 1_555 1_555
C31 O6 1_555 1_555
C32 C31 1_555 1_555
C33 C32 1_555 1_555
C34 C33 1_555 1_555
H40 C34 1_555 1_555
C35 C31 1_555 1_555
H41 C35 1_555 1_555
H42 C35 1_555 1_555
C36 C33 1_555 1_555
H43 C36 1_555 1_555
H44 C36 1_555 1_555
C37 C36 1_555 1_555
H45 C37 1_555 1_555
H46 C37 1_555 1_555
C38 C37 1_555 1_555
H47 C38 1_555 1_555
C39 C34 1_555 1_555
H48 C39 1_555 1_555
C40 C39 1_555 1_555
H49 C40 1_555 1_555
H50 C40 1_555 1_555
C41 C40 1_555 1_555
H51 C41 1_555 1_555
H52 C41 1_555 1_555
C42 C41 1_555 1_555
C43 C38 1_555 1_555
C44 C43 1_555 1_555
H53 C44 1_555 1_555
C45 C44 1_555 1_555
H54 C45 1_555 1_555
C46 C45 1_555 1_555
C47 C42 1_555 1_555
H55 C47 1_555 1_555
C48 O10 1_555 1_555
H56 C48 1_555 1_555
H57 C48 1_555 1_555
H58 C48 1_555 1_555
C49 C33 1_555 1_555
H59 C49 1_555 1_555
H60 C49 1_555 1_555
H61 C49 1_555 1_555
C50 C52 1_555 1_555
C51 O9 1_555 1_555
C52 H62 1_555 1_555
H63 C52 1_555 1_555
C53 C52 1_555 1_555
H64 C53 1_555 1_555
C54 C53 1_555 1_555
H65 C54 1_555 1_555
H66 C54 1_555 1_555
C55 C54 1_555 1_555
H67 C55 1_555 1_555
C56 C50 1_555 1_555
H68 C56 1_555 1_555
H69 C56 1_555 1_555
C57 C53 1_555 1_555
H70 C57 1_555 1_555
H71 C57 1_555 1_555
C58 C57 1_555 1_555
H72 C58 1_555 1_555
C59 C55 1_555 1_555
H73 C59 1_555 1_555
H74 C59 1_555 1_555
C60 C50 1_555 1_555
H75 C60 1_555 1_555
H76 C60 1_555 1_555
C4 C5 1_555 1_555
C8 C9 1_555 1_555
C10 C11 1_555 1_555
C12 C13 1_555 1_555
C15 C18 1_555 1_555
C25 C26 1_555 1_555
C28 C29 1_555 1_555
C28 C30 1_555 1_555
C31 C51 1_555 1_555
C34 C35 1_555 1_555
C38 C39 1_555 1_555
C42 C43 1_555 1_555
C46 C47 1_555 1_555
C55 C56 1_555 1_555
C58 C59 1_555 1_555
C58 C60 1_555 1_555

#END
