
#######################################################################
#
#                 Cambridge Crystallographic Data Centre
#                                CCDC 
#
#######################################################################
#
# If this CIF has been generated from an entry in the Cambridge 
# Structural Database, then it will include bibliographic, chemical, 
# crystal, experimental, refinement or atomic coordinate data resulting 
# from the CCDC's data processing and validation procedures.
#
#######################################################################

data_PAHXAZ01
_chemical_formula_moiety         
'C60 H44 N4 S16,Cl1 1-,C8 H20 N1 1+,2(C1 H2 Cl2)'
_chemical_name_systematic        
'6,14,22,30-tetrakis(1,3-Benzodithiol-2-ylidene)-2,2,10,10,18,18,26,26-octamethyl-5,7,13,15,21,23,29,31-octathia-33,34,35,36-tetraazanonacyclo[25.5.1.1^3,9^.1^11,17^.1^19,25^.0^4,8^.0^12,16^.0^20,24^.0^28,32^]hexatriaconta-1(32),3,8,11,16,19,24,27-octaene tetraethylammonium chloride dichloromethane solvate'
_symmetry_cell_setting           monoclinic
_symmetry_space_group_name_H-M   'I 2/a'
_symmetry_Int_Tables_number      15
_space_group_name_Hall           '-I 2ya'
loop_
_symmetry_equiv_pos_site_id
_symmetry_equiv_pos_as_xyz
1 x,y,z
2 1/2-x,y,-z
3 1/2+x,1/2+y,1/2+z
4 -x,1/2+y,1/2-z
5 -x,-y,-z
6 1/2+x,-y,z
7 1/2-x,1/2-y,1/2-z
8 x,1/2-y,1/2+z
_cell_length_a                   25.136(11)
_cell_length_b                   22.460(9)
_cell_length_c                   25.993(11)
_cell_angle_alpha                90
_cell_angle_beta                 93.64(4)
_cell_angle_gamma                90
_cell_volume                     14644.9
_exptl_crystal_colour            yellow
_exptl_crystal_description       prism
_cell_formula_units_Z            8
loop_
_atom_site_label
_atom_site_type_symbol
_atom_site_fract_x
_atom_site_fract_y
_atom_site_fract_z
C1 C -0.1409(3) 0.2335(4) 0.2424(3)
C2 C -0.1523(3) 0.2832(3) 0.2720(3)
C3 C -0.1235(3) 0.2802(3) 0.3201(3)
C4 C -0.0944(3) 0.2273(4) 0.3215(4)
C5 C -0.0540(3) 0.2023(4) 0.3633(3)
C6 C 0.0028(3) 0.2223(4) 0.3503(3)
C7 C 0.0346(3) 0.2699(4) 0.3673(3)
C8 C 0.0830(3) 0.2654(4) 0.3433(3)
C9 C 0.0815(3) 0.2161(4) 0.3106(3)
C10 C 0.1195(3) 0.1909(4) 0.2738(3)
C11 C 0.1065(3) 0.2138(4) 0.2200(3)
C12 C 0.1269(3) 0.2566(3) 0.1894(3)
C13 C 0.0987(3) 0.2570(3) 0.1410(3)
C14 C 0.0590(3) 0.2126(4) 0.1404(3)
C15 C 0.0165(3) 0.1939(4) 0.1000(3)
C16 C -0.0369(4) 0.2221(4) 0.1119(3)
C17 C -0.0614(3) 0.2752(4) 0.0984(3)
C18 C -0.1096(4) 0.2792(4) 0.1224(4)
C19 C -0.1160(3) 0.2297(4) 0.1518(3)
C20 C -0.1569(3) 0.2128(3) 0.1896(3)
C21 C -0.0575(3) 0.1325(3) 0.3649(3)
H1 H -0.0937 0.1205 0.3721
H2 H -0.0323 0.1173 0.3921
H3 H -0.0485 0.1162 0.3316
C22 C -0.0664(4) 0.2272(4) 0.4166(3)
H4 H -0.0636 0.2707 0.4162
H5 H -0.0408 0.2111 0.4430
H6 H -0.1026 0.2156 0.4245
C23 C 0.1185(3) 0.1217(4) 0.2745(3)
H7 H 0.0839 0.1076 0.2597
H8 H 0.1239 0.1076 0.3101
H9 H 0.1470 0.1063 0.2542
C24 C 0.1770(3) 0.2115(4) 0.2915(3)
H10 H 0.2025 0.1941 0.2687
H11 H 0.1856 0.1983 0.3270
H12 H 0.1790 0.2550 0.2898
C25 C 0.0128(4) 0.1247(4) 0.0983(3)
H13 H -0.0150 0.1127 0.0722
H14 H 0.0038 0.1098 0.1321
H15 H 0.0471 0.1081 0.0896
C26 C 0.0311(3) 0.2161(4) 0.0473(3)
H16 H 0.0030 0.2050 0.0212
H17 H 0.0649 0.1981 0.0386
H18 H 0.0349 0.2595 0.0482
C27 C -0.1666(3) 0.1432(3) 0.1888(3)
H19 H -0.1327 0.1226 0.1969
H20 H -0.1812 0.1311 0.1545
H21 H -0.1919 0.1328 0.2145
C28 C -0.2109(3) 0.2421(4) 0.1705(4)
H22 H -0.2384 0.2314 0.1939
H23 H -0.2213 0.2280 0.1357
H24 H -0.2067 0.2855 0.1701
C29 C -0.1743(4) 0.3811(4) 0.3196(3)
C30 C -0.1886(3) 0.4357(4) 0.3336(3)
C31 C -0.1874(3) 0.5426(4) 0.3736(4)
C32 C -0.1739(4) 0.5915(4) 0.4050(4)
H25 H -0.1530 0.5868 0.4365
C33 C -0.1926(4) 0.6486(4) 0.3882(4)
H26 H -0.1829 0.6832 0.4077
C34 C -0.2248(4) 0.6533(4) 0.3436(4)
H27 H -0.2387 0.6913 0.3338
C35 C -0.2381(4) 0.6039(4) 0.3118(4)
H28 H -0.2596 0.6086 0.2806
C36 C -0.2187(3) 0.5475(4) 0.3276(3)
C37 C 0.0912(3) 0.3583(4) 0.4009(3)
C38 C 0.1073(4) 0.4100(4) 0.4251(3)
C39 C 0.1564(4) 0.5106(4) 0.4440(3)
C40 C 0.1909(4) 0.5595(4) 0.4431(4)
H29 H 0.2240 0.5566 0.4277
C41 C 0.1751(4) 0.6128(4) 0.4655(4)
H30 H 0.1975 0.6467 0.4648
C42 C 0.1268(4) 0.6167(4) 0.4890(4)
H31 H 0.1166 0.6535 0.5036
C43 C 0.0936(4) 0.5680(4) 0.4914(3)
H32 H 0.0614 0.5701 0.5086
C44 C 0.1089(4) 0.5152(4) 0.4675(3)
C45 C 0.1673(3) 0.3412(4) 0.1374(3)
C46 C 0.1890(3) 0.3941(4) 0.1241(3)
C47 C 0.1896(3) 0.4995(4) 0.0854(4)
C48 C 0.1757(4) 0.5500(4) 0.0543(4)
H33 H 0.1597 0.5455 0.0204
C49 C 0.1864(4) 0.6064(4) 0.0749(4)
H34 H 0.1771 0.6407 0.0550
C50 C 0.2100(3) 0.6127(4) 0.1235(4)
H35 H 0.2174 0.6516 0.1365
C51 C 0.2238(3) 0.5627(4) 0.1549(4)
H36 H 0.2398 0.5677 0.1887
C52 C 0.2134(3) 0.5063(3) 0.1350(4)
C53 C -0.0977(3) 0.3818(4) 0.0799(3)
C54 C -0.0992(3) 0.4407(4) 0.0725(3)
C55 C -0.1271(4) 0.5535(4) 0.0734(3)
C56 C -0.1543(4) 0.6081(4) 0.0807(3)
H37 H -0.1880 0.6088 0.0953
C57 C -0.1299(4) 0.6612(5) 0.0658(4)
H38 H -0.1460 0.6986 0.0719
C58 C -0.0832(5) 0.6584(5) 0.0426(4)
H39 H -0.0681 0.6946 0.0314
C59 C -0.0562(4) 0.6063(5) 0.0341(4)
H40 H -0.0233 0.6067 0.0181
C60 C -0.0789(4) 0.5522(4) 0.0500(3)
N1 N -0.1044(3) 0.2005(3) 0.2746(3)
H41 H -0.0899 0.1667 0.2656
N2 N 0.0316(3) 0.1904(3) 0.3158(2)
H42 H 0.0200 0.1581 0.2995
N3 N 0.0639(3) 0.1880(3) 0.1891(3)
H43 H 0.0432 0.1597 0.1997
N4 N -0.0700(3) 0.1945(3) 0.1454(3)
H44 H -0.0634 0.1600 0.1606
S1 S -0.19241(9) 0.34686(10) 0.25980(9)
S2 S -0.13385(10) 0.33735(10) 0.36456(9)
S3 S -0.16696(10) 0.46892(10) 0.39255(9)
S4 S -0.23192(10) 0.48153(10) 0.29306(10)
S5 S 0.02789(9) 0.32846(10) 0.41095(9)
S6 S 0.13257(9) 0.31794(10) 0.36183(9)
S7 S 0.17187(10) 0.44068(11) 0.41775(11)
S8 S 0.06908(10) 0.44951(10) 0.46801(10)
S9 S 0.18153(9) 0.30637(9) 0.19735(9)
S10 S 0.12281(9) 0.30374(10) 0.09261(9)
S11 S 0.17806(10) 0.42602(10) 0.06259(9)
S12 S 0.22933(9) 0.43898(10) 0.16808(9)
S13 S -0.04552(10) 0.33611(11) 0.05845(9)
S14 S -0.14902(9) 0.34382(10) 0.10977(9)
S15 S -0.15384(10) 0.48481(11) 0.09189(11)
S16 S -0.05144(11) 0.48124(12) 0.04009(11)
C61 C -0.0039(4) 0.3626(4) 0.1972(3)
H45 H 0.0218 0.3491 0.1722
H46 H -0.0377 0.3724 0.1774
C62 C -0.0144(3) 0.3102(4) 0.2341(3)
H47 H 0.0188 0.2999 0.2540
H48 H -0.0271 0.2756 0.2139
H49 H -0.0414 0.3220 0.2576
C63 C -0.0179(4) 0.4400(4) 0.2641(4)
H50 H -0.0024 0.4766 0.2801
H51 H -0.0181 0.4092 0.2913
C64 C -0.0755(4) 0.4530(4) 0.2452(4)
H52 H -0.0761 0.4844 0.2190
H53 H -0.0956 0.4662 0.2743
H54 H -0.0918 0.4168 0.2302
C65 C 0.0215(4) 0.4663(4) 0.1828(3)
H55 H 0.0296 0.5046 0.2003
H56 H -0.0140 0.4702 0.1644
C66 C 0.0620(4) 0.4569(4) 0.1431(4)
H57 H 0.0978 0.4547 0.1603
H58 H 0.0603 0.4902 0.1187
H59 H 0.0541 0.4196 0.1245
C67 C 0.0718(4) 0.4049(4) 0.2490(4)
H60 H 0.0938 0.3862 0.2231
H61 H 0.0669 0.3749 0.2763
C68 C 0.1037(4) 0.4584(4) 0.2737(4)
H62 H 0.1064 0.4900 0.2480
H63 H 0.1395 0.4451 0.2856
H64 H 0.0852 0.4737 0.3030
N5 N 0.0179(3) 0.4192(3) 0.2233(3)
Cl1 Cl -0.02606(8) 0.09606(9) 0.23055(9)
Cl2 Cl 0.21190(10) 0.75872(10) 0.04012(9)
C69 C 0.2500 0.7142(6) 0.0000
H65 H 0.2266 0.6891 -0.0210
Cl2A Cl 0.28810(10) 0.75872(10) -0.04012(9)
H65A H 0.2734 0.6891 0.0210
loop_
_geom_bond_atom_site_label_1
_geom_bond_atom_site_label_2
_geom_bond_site_symmetry_1
_geom_bond_site_symmetry_2
C1 C2 1_555 1_555
C2 C3 1_555 1_555
C3 C4 1_555 1_555
C4 C5 1_555 1_555
C5 C6 1_555 1_555
C6 C7 1_555 1_555
C7 C8 1_555 1_555
C8 C9 1_555 1_555
C9 C10 1_555 1_555
C10 C11 1_555 1_555
C11 C12 1_555 1_555
C12 C13 1_555 1_555
C13 C14 1_555 1_555
C14 C15 1_555 1_555
C15 C16 1_555 1_555
C16 C17 1_555 1_555
C17 C18 1_555 1_555
C18 C19 1_555 1_555
C19 C20 1_555 1_555
C20 C1 1_555 1_555
C21 C5 1_555 1_555
H1 C21 1_555 1_555
H2 C21 1_555 1_555
H3 C21 1_555 1_555
C22 C5 1_555 1_555
H4 C22 1_555 1_555
H5 C22 1_555 1_555
H6 C22 1_555 1_555
C23 C10 1_555 1_555
H7 C23 1_555 1_555
H8 C23 1_555 1_555
H9 C23 1_555 1_555
C24 C10 1_555 1_555
H10 C24 1_555 1_555
H11 C24 1_555 1_555
H12 C24 1_555 1_555
C25 C15 1_555 1_555
H13 C25 1_555 1_555
H14 C25 1_555 1_555
H15 C25 1_555 1_555
C26 C15 1_555 1_555
H16 C26 1_555 1_555
H17 C26 1_555 1_555
H18 C26 1_555 1_555
C27 C20 1_555 1_555
H19 C27 1_555 1_555
H20 C27 1_555 1_555
H21 C27 1_555 1_555
C28 C20 1_555 1_555
H22 C28 1_555 1_555
H23 C28 1_555 1_555
H24 C28 1_555 1_555
C29 C30 1_555 1_555
C30 S3 1_555 1_555
C31 C32 1_555 1_555
C32 H25 1_555 1_555
C33 C32 1_555 1_555
H26 C33 1_555 1_555
C34 C33 1_555 1_555
H27 C34 1_555 1_555
C35 C34 1_555 1_555
H28 C35 1_555 1_555
C36 C31 1_555 1_555
C37 C38 1_555 1_555
C38 S7 1_555 1_555
C39 C40 1_555 1_555
C40 H29 1_555 1_555
C41 C40 1_555 1_555
H30 C41 1_555 1_555
C42 C41 1_555 1_555
H31 C42 1_555 1_555
C43 C42 1_555 1_555
H32 C43 1_555 1_555
C44 C39 1_555 1_555
C45 C46 1_555 1_555
C46 S11 1_555 1_555
C47 C48 1_555 1_555
C48 H33 1_555 1_555
C49 C48 1_555 1_555
H34 C49 1_555 1_555
C50 C49 1_555 1_555
H35 C50 1_555 1_555
C51 C50 1_555 1_555
H36 C51 1_555 1_555
C52 C47 1_555 1_555
C53 C54 1_555 1_555
C54 S15 1_555 1_555
C55 C56 1_555 1_555
C56 H37 1_555 1_555
C57 C56 1_555 1_555
H38 C57 1_555 1_555
C58 C57 1_555 1_555
H39 C58 1_555 1_555
C59 C58 1_555 1_555
H40 C59 1_555 1_555
C60 C55 1_555 1_555
N1 C1 1_555 1_555
H41 N1 1_555 1_555
N2 C6 1_555 1_555
H42 N2 1_555 1_555
N3 C11 1_555 1_555
H43 N3 1_555 1_555
N4 C16 1_555 1_555
H44 N4 1_555 1_555
S1 C2 1_555 1_555
S2 C3 1_555 1_555
S3 C31 1_555 1_555
S4 C30 1_555 1_555
S5 C7 1_555 1_555
S6 C8 1_555 1_555
S7 C39 1_555 1_555
S8 C38 1_555 1_555
S9 C12 1_555 1_555
S10 C13 1_555 1_555
S11 C47 1_555 1_555
S12 C46 1_555 1_555
S13 C17 1_555 1_555
S14 C18 1_555 1_555
S15 C55 1_555 1_555
S16 C54 1_555 1_555
C61 H45 1_555 1_555
H46 C61 1_555 1_555
C62 C61 1_555 1_555
H47 C62 1_555 1_555
H48 C62 1_555 1_555
H49 C62 1_555 1_555
C63 H50 1_555 1_555
H51 C63 1_555 1_555
C64 C63 1_555 1_555
H52 C64 1_555 1_555
H53 C64 1_555 1_555
H54 C64 1_555 1_555
C65 H55 1_555 1_555
H56 C65 1_555 1_555
C66 C65 1_555 1_555
H57 C66 1_555 1_555
H58 C66 1_555 1_555
H59 C66 1_555 1_555
C67 H60 1_555 1_555
H61 C67 1_555 1_555
C68 C67 1_555 1_555
H62 C68 1_555 1_555
H63 C68 1_555 1_555
H64 C68 1_555 1_555
N5 C61 1_555 1_555
Cl2 C69 1_555 1_555
C69 H65 1_555 1_555
Cl2A C69 1_555 1_555
H65A C69 1_555 1_555
C4 N1 1_555 1_555
C9 N2 1_555 1_555
C14 N3 1_555 1_555
C19 N4 1_555 1_555
C29 S1 1_555 1_555
C29 S2 1_555 1_555
C35 C36 1_555 1_555
C36 S4 1_555 1_555
C37 S5 1_555 1_555
C37 S6 1_555 1_555
C43 C44 1_555 1_555
C44 S8 1_555 1_555
C45 S9 1_555 1_555
C45 S10 1_555 1_555
C51 C52 1_555 1_555
C52 S12 1_555 1_555
C53 S13 1_555 1_555
C53 S14 1_555 1_555
C59 C60 1_555 1_555
C60 S16 1_555 1_555
C63 N5 1_555 1_555
C65 N5 1_555 1_555
C67 N5 1_555 1_555

#END
