
#######################################################################
#
#                 Cambridge Crystallographic Data Centre
#                                CCDC 
#
#######################################################################
#
# If this CIF has been generated from an entry in the Cambridge 
# Structural Database, then it will include bibliographic, chemical, 
# crystal, experimental, refinement or atomic coordinate data resulting 
# from the CCDC's data processing and validation procedures.
#
#######################################################################

data_PAJDAI
_chemical_formula_moiety         'C52 H38 F12 N4 O6,C1 H1 Cl3'
_chemical_name_systematic        
'9,11,20,22-tetramethoxy-2,7,13,18-tetrakis[4-(trifluoromethyl)phenyl]-10,21-dioxa-23,24,25,26-tetraazapentacyclo[17.3.1.1^3,6^.1^8,12^.1^14,17^]hexacosa-1(23),2,4,6,8(25),12,14,16,18-nonaene chloroform solvate'
_symmetry_cell_setting           monoclinic
_symmetry_space_group_name_H-M   'P 21/c'
_symmetry_Int_Tables_number      14
_space_group_name_Hall           '-P 2ybc'
loop_
_symmetry_equiv_pos_site_id
_symmetry_equiv_pos_as_xyz
1 x,y,z
2 -x,1/2+y,1/2-z
3 -x,-y,-z
4 x,1/2-y,1/2+z
_cell_length_a                   13.903(3)
_cell_length_b                   30.755(6)
_cell_length_c                   12.122(2)
_cell_angle_alpha                90
_cell_angle_beta                 98.163(3)
_cell_angle_gamma                90
_cell_volume                     5130.69
_exptl_crystal_colour            black
_exptl_crystal_description       block
_cell_formula_units_Z            4
loop_
_atom_site_label
_atom_site_type_symbol
_atom_site_fract_x
_atom_site_fract_y
_atom_site_fract_z
C1 C 0.72866(16) 0.14905(7) 0.72667(18)
C2 C 0.68085(16) 0.18639(7) 0.67967(18)
C3 C 0.70778(17) 0.23025(7) 0.7059(2)
H1 H 0.7597 0.2394 0.7605
C4 C 0.64623(17) 0.25682(7) 0.63906(19)
H2 H 0.6494 0.2877 0.6376
C5 C 0.57647(16) 0.23067(7) 0.57193(18)
C6 C 0.49711(16) 0.24597(6) 0.49624(18)
C7 C 0.42239(15) 0.22137(7) 0.43686(17)
C8 C 0.34008(15) 0.24537(7) 0.36710(18)
H3 H 0.3454 0.2770 0.3856
C9 C 0.23888(15) 0.18414(7) 0.38281(18)
H4 H 0.1953 0.1761 0.3129
C10 C 0.33445(15) 0.15927(7) 0.38893(17)
C11 C 0.32683(15) 0.11673(7) 0.34819(17)
C12 C 0.40152(15) 0.08545(7) 0.35217(17)
C13 C 0.39477(16) 0.04483(7) 0.29623(19)
H5 H 0.3389 0.0338 0.2505
C14 C 0.48245(16) 0.02415(7) 0.31925(18)
H6 H 0.4985 -0.0032 0.2903
C15 C 0.54544(16) 0.05062(7) 0.39407(17)
C16 C 0.64022(15) 0.03967(7) 0.44459(18)
C17 C 0.69270(15) 0.05971(7) 0.53812(18)
C18 C 0.79164(16) 0.04146(7) 0.58412(19)
H7 H 0.8003 0.0127 0.5484
C19 C 0.76565(16) 0.07056(7) 0.75935(18)
H8 H 0.8182 0.0829 0.8155
C20 C 0.71849(15) 0.10673(7) 0.68533(18)
C21 C 0.80486(16) 0.15908(7) 0.82515(18)
C22 C 0.90042(18) 0.16633(8) 0.8084(2)
H9 H 0.9184 0.1624 0.7363
C23 C 0.97011(18) 0.17937(8) 0.8965(2)
H10 H 1.0352 0.1845 0.8844
C24 C 0.94400(17) 0.18474(7) 1.00080(19)
C25 C 0.84977(18) 0.17708(9) 1.0190(2)
H11 H 0.8323 0.1806 1.0915
C26 C 0.78038(17) 0.16426(9) 0.9310(2)
H12 H 0.7155 0.1590 0.9436
C27 C 1.01692(19) 0.20027(8) 1.0971(2)
C28 C 0.49170(15) 0.29473(6) 0.48752(18)
C29 C 0.46768(16) 0.31895(7) 0.57715(18)
H13 H 0.4552 0.3046 0.6431
C30 C 0.46195(16) 0.36407(7) 0.57008(19)
H14 H 0.4461 0.3806 0.6312
C31 C 0.47954(16) 0.38473(7) 0.47302(19)
C32 C 0.50437(16) 0.36117(7) 0.38392(19)
H15 H 0.5170 0.3756 0.3182
C33 C 0.51062(16) 0.31602(7) 0.39154(19)
H16 H 0.5279 0.2997 0.3308
C34 C 0.4683(2) 0.43331(8) 0.4674(2)
C35 C 0.2928(2) 0.26805(9) 0.1816(2)
H17 H 0.2253 0.2656 0.1956
H18 H 0.2969 0.2599 0.1042
H19 H 0.3150 0.2981 0.1945
C36 C 0.09756(18) 0.18385(9) 0.4693(2)
H20 H 0.0935 0.2155 0.4611
H21 H 0.0723 0.1752 0.5375
H22 H 0.0589 0.1700 0.4049
C37 C 0.23184(15) 0.10153(7) 0.28553(18)
C38 C 0.21497(16) 0.10466(8) 0.17029(19)
H23 H 0.2627 0.1176 0.1319
C39 C 0.12934(17) 0.08911(8) 0.1101(2)
H24 H 0.1188 0.0913 0.0311
C40 C 0.05980(16) 0.07050(7) 0.16554(19)
C41 C 0.07479(17) 0.06721(7) 0.2806(2)
H25 H 0.0265 0.0545 0.3185
C42 C 0.16078(16) 0.08258(7) 0.34039(19)
H26 H 0.1712 0.0801 0.4193
C43 C -0.03308(17) 0.05390(8) 0.1019(2)
C44 C 0.68448(15) 0.00208(7) 0.39045(18)
C45 C 0.66073(18) -0.04075(7) 0.4116(2)
H27 H 0.6157 -0.0467 0.4618
C46 C 0.70226(19) -0.07505(7) 0.36013(19)
H28 H 0.6867 -0.1042 0.3763
C47 C 0.76615(17) -0.06650(8) 0.28552(19)
C48 C 0.7896(2) -0.02429(8) 0.2631(2)
H29 H 0.8337 -0.0185 0.2118
C49 C 0.74881(19) 0.00997(8) 0.3157(2)
H30 H 0.7654 0.0391 0.3000
C50 C 0.8089(2) -0.10361(8) 0.2281(2)
C51 C 0.95872(19) 0.05775(11) 0.5803(3)
H31 H 0.9738 0.0549 0.6614
H32 H 1.0020 0.0794 0.5540
H33 H 0.9680 0.0296 0.5453
C52 C 0.7267(2) 0.02892(8) 0.9106(2)
H34 H 0.7741 0.0076 0.8913
H35 H 0.6727 0.0137 0.9375
H36 H 0.7581 0.0483 0.9692
F1 F 1.10767(11) 0.20159(6) 1.07285(13)
F2 F 1.01880(11) 0.17473(5) 1.18651(12)
F3 F 0.99618(13) 0.24049(5) 1.12978(14)
F4 F 0.53158(15) 0.45350(5) 0.54369(14)
F5 F 0.37996(14) 0.44561(5) 0.48850(17)
F6 F 0.47875(13) 0.44986(4) 0.36889(13)
F7 F -0.04536(11) 0.06535(5) -0.00569(12)
F8 F -0.11165(10) 0.06807(6) 0.14489(14)
F9 F -0.03890(11) 0.01027(5) 0.10410(13)
F10 F 0.88290(18) -0.09056(6) 0.17302(18)
F11 F 0.8506(2) -0.13300(7) 0.29808(18)
F12 F 0.74679(16) -0.12300(9) 0.1535(3)
N1 N 0.60082(13) 0.18819(5) 0.59864(15)
H37 H 0.5695 0.1653 0.5681
N2 N 0.41947(13) 0.17743(5) 0.43617(15)
N3 N 0.49361(12) 0.08745(5) 0.41180(15)
H38 H 0.5160 0.1092 0.4551
N4 N 0.66492(13) 0.09634(6) 0.58632(14)
O1 O 0.35291(11) 0.23965(5) 0.25515(13)
O2 O 0.24945(11) 0.23005(5) 0.38892(13)
O3 O 0.19701(11) 0.17037(5) 0.47578(13)
O4 O 0.85982(11) 0.07142(5) 0.55125(14)
O5 O 0.80386(12) 0.03622(5) 0.70000(13)
O6 O 0.69065(12) 0.05405(5) 0.81389(13)
C53 C 0.77939(19) 0.34460(8) 0.9098(2)
H39 H 0.7787 0.3654 0.9730
Cl1 Cl 0.65937(5) 0.33842(3) 0.84147(6)
Cl2 Cl 0.85336(6) 0.36610(3) 0.81767(7)
Cl3 Cl 0.82574(6) 0.29466(2) 0.96374(6)
F13? F 0.8121(19) -0.0971(6) 0.1262(12)
F14? F 0.8853(14) -0.1216(8) 0.277(2)
F15? F 0.7522(13) -0.1402(4) 0.2371(17)
loop_
_geom_bond_atom_site_label_1
_geom_bond_atom_site_label_2
_geom_bond_site_symmetry_1
_geom_bond_site_symmetry_2
C1 C2 1_555 1_555
C2 C3 1_555 1_555
C3 H1 1_555 1_555
C4 C3 1_555 1_555
H2 C4 1_555 1_555
C5 C4 1_555 1_555
C6 C5 1_555 1_555
C7 C6 1_555 1_555
C8 C7 1_555 1_555
H3 C8 1_555 1_555
C9 H4 1_555 1_555
C10 C9 1_555 1_555
C11 C10 1_555 1_555
C12 C11 1_555 1_555
C13 C12 1_555 1_555
H5 C13 1_555 1_555
C14 C13 1_555 1_555
H6 C14 1_555 1_555
C15 C14 1_555 1_555
C16 C15 1_555 1_555
C17 C16 1_555 1_555
C18 C17 1_555 1_555
H7 C18 1_555 1_555
C19 H8 1_555 1_555
C20 C1 1_555 1_555
C21 C1 1_555 1_555
C22 C21 1_555 1_555
H9 C22 1_555 1_555
C23 C22 1_555 1_555
H10 C23 1_555 1_555
C24 C23 1_555 1_555
C25 C24 1_555 1_555
H11 C25 1_555 1_555
C26 C21 1_555 1_555
H12 C26 1_555 1_555
C27 C24 1_555 1_555
C28 C6 1_555 1_555
C29 C28 1_555 1_555
H13 C29 1_555 1_555
C30 C29 1_555 1_555
H14 C30 1_555 1_555
C31 C30 1_555 1_555
C32 C31 1_555 1_555
H15 C32 1_555 1_555
C33 C28 1_555 1_555
H16 C33 1_555 1_555
C34 C31 1_555 1_555
C35 H17 1_555 1_555
H18 C35 1_555 1_555
H19 C35 1_555 1_555
C36 H20 1_555 1_555
H21 C36 1_555 1_555
H22 C36 1_555 1_555
C37 C11 1_555 1_555
C38 C37 1_555 1_555
H23 C38 1_555 1_555
C39 C38 1_555 1_555
H24 C39 1_555 1_555
C40 C39 1_555 1_555
C41 C40 1_555 1_555
H25 C41 1_555 1_555
C42 C37 1_555 1_555
H26 C42 1_555 1_555
C43 C40 1_555 1_555
C44 C16 1_555 1_555
C45 C44 1_555 1_555
H27 C45 1_555 1_555
C46 C45 1_555 1_555
H28 C46 1_555 1_555
C47 C46 1_555 1_555
C48 C47 1_555 1_555
H29 C48 1_555 1_555
C49 C44 1_555 1_555
H30 C49 1_555 1_555
C50 C47 1_555 1_555
C51 H31 1_555 1_555
H32 C51 1_555 1_555
H33 C51 1_555 1_555
C52 H34 1_555 1_555
H35 C52 1_555 1_555
H36 C52 1_555 1_555
F1 C27 1_555 1_555
F2 C27 1_555 1_555
F3 C27 1_555 1_555
F4 C34 1_555 1_555
F5 C34 1_555 1_555
F6 C34 1_555 1_555
F7 C43 1_555 1_555
F8 C43 1_555 1_555
F9 C43 1_555 1_555
F10 C50 1_555 1_555
F11 C50 1_555 1_555
F12 C50 1_555 1_555
N1 C2 1_555 1_555
H37 N1 1_555 1_555
N2 C7 1_555 1_555
N3 C12 1_555 1_555
H38 N3 1_555 1_555
N4 C17 1_555 1_555
O1 C8 1_555 1_555
O2 C8 1_555 1_555
O3 C9 1_555 1_555
O4 C18 1_555 1_555
O5 C18 1_555 1_555
O6 C19 1_555 1_555
C53 H39 1_555 1_555
Cl1 C53 1_555 1_555
Cl2 C53 1_555 1_555
Cl3 C53 1_555 1_555
C5 N1 1_555 1_555
C9 O2 1_555 1_555
C10 N2 1_555 1_555
C15 N3 1_555 1_555
C19 C20 1_555 1_555
C19 O5 1_555 1_555
C20 N4 1_555 1_555
C25 C26 1_555 1_555
C32 C33 1_555 1_555
C35 O1 1_555 1_555
C36 O3 1_555 1_555
C41 C42 1_555 1_555
C48 C49 1_555 1_555
C51 O4 1_555 1_555
C52 O6 1_555 1_555

#END
