
#######################################################################
#
#                 Cambridge Crystallographic Data Centre
#                                CCDC 
#
#######################################################################
#
# If this CIF has been generated from an entry in the Cambridge 
# Structural Database, then it will include bibliographic, chemical, 
# crystal, experimental, refinement or atomic coordinate data resulting 
# from the CCDC's data processing and validation procedures.
#
#######################################################################

data_PAKCUB
_chemical_name_common            4-(2,5-Dioxo-2H-pyrrol-1(5H)-yl)antipyrine
_chemical_formula_moiety         'C15 H13 N3 O3'
_chemical_name_systematic        
1-(1,5-Dimethyl-3-oxo-2-phenyl-2,3-dihydro-1H-pyrazol-4-yl)-1H-pyrrole-2,5-dione
_symmetry_cell_setting           orthorhombic
_symmetry_space_group_name_H-M   'P b c a'
_symmetry_Int_Tables_number      61
_space_group_name_Hall           '-P 2ac 2ab'
loop_
_symmetry_equiv_pos_site_id
_symmetry_equiv_pos_as_xyz
1 x,y,z
2 1/2-x,-y,1/2+z
3 -x,1/2+y,1/2-z
4 1/2+x,1/2-y,-z
5 -x,-y,-z
6 1/2+x,y,1/2-z
7 x,1/2-y,1/2+z
8 1/2-x,1/2+y,z
_cell_length_a                   14.352(2)
_cell_length_b                   8.7895(13)
_cell_length_c                   22.581(3)
_cell_angle_alpha                90
_cell_angle_beta                 90
_cell_angle_gamma                90
_cell_volume                     2848.52
_exptl_crystal_colour            colorless
_exptl_crystal_description       prism
_cell_formula_units_Z            8
loop_
_atom_site_label
_atom_site_type_symbol
_atom_site_fract_x
_atom_site_fract_y
_atom_site_fract_z
N1 N 0.69114(14) -0.0324(3) 0.69647(9)
N2 N 0.78014(13) 0.0231(3) 0.68141(9)
N3 N 0.65731(14) 0.0585(2) 0.54344(8)
O1 O 0.54718(13) -0.0481(2) 0.65067(8)
O2 O 0.55877(15) 0.2603(3) 0.56014(9)
O3 O 0.73426(17) -0.1347(3) 0.49466(8)
C1 C 0.66499(17) -0.0427(3) 0.75721(10)
C2 C 0.60828(18) -0.1611(3) 0.77498(12)
H1 H 0.5868 -0.2317 0.7475
C3 C 0.5839(2) -0.1738(4) 0.83347(14)
H2 H 0.5453 -0.2530 0.8455
C4 C 0.6155(2) -0.0713(5) 0.87418(13)
H3 H 0.5993 -0.0815 0.9138
C5 C 0.6716(2) 0.0472(5) 0.85639(12)
H4 H 0.6930 0.1171 0.8841
C6 C 0.69626(19) 0.0631(4) 0.79750(11)
H5 H 0.7334 0.1439 0.7853
C7 C 0.63051(18) -0.0203(3) 0.64859(11)
C8 C 0.68980(18) 0.0329(3) 0.60157(10)
C9 C 0.77680(17) 0.0551(3) 0.62175(11)
C10 C 0.86173(18) 0.1027(3) 0.58935(12)
H6 H 0.9000 0.0153 0.5817
H7 H 0.8959 0.1745 0.6129
H8 H 0.8443 0.1491 0.5525
C11 C 0.85815(18) -0.0622(4) 0.70621(13)
H9 H 0.8576 -0.1640 0.6908
H10 H 0.8526 -0.0652 0.7486
H11 H 0.9156 -0.0134 0.6956
C12 C 0.59245(18) 0.1687(3) 0.52718(12)
C13 C 0.5746(2) 0.1437(4) 0.46375(13)
H12 H 0.5337 0.2004 0.4406
C14 C 0.6246(2) 0.0302(4) 0.44490(12)
H13 H 0.6252 -0.0067 0.4063
C15 C 0.6799(2) -0.0305(3) 0.49420(11)
loop_
_geom_bond_atom_site_label_1
_geom_bond_atom_site_label_2
_geom_bond_site_symmetry_1
_geom_bond_site_symmetry_2
N1 N2 1_555 1_555
N2 C9 1_555 1_555
N3 C8 1_555 1_555
O1 C7 1_555 1_555
O2 C12 1_555 1_555
O3 C15 1_555 1_555
C1 N1 1_555 1_555
C2 C1 1_555 1_555
H1 C2 1_555 1_555
C3 C2 1_555 1_555
H2 C3 1_555 1_555
C4 C3 1_555 1_555
H3 C4 1_555 1_555
C5 C4 1_555 1_555
H4 C5 1_555 1_555
C6 C1 1_555 1_555
H5 C6 1_555 1_555
C7 N1 1_555 1_555
C8 C7 1_555 1_555
C9 C8 1_555 1_555
C10 C9 1_555 1_555
H6 C10 1_555 1_555
H7 C10 1_555 1_555
H8 C10 1_555 1_555
C11 N2 1_555 1_555
H9 C11 1_555 1_555
H10 C11 1_555 1_555
H11 C11 1_555 1_555
C12 N3 1_555 1_555
C13 C12 1_555 1_555
H12 C13 1_555 1_555
C14 C13 1_555 1_555
H13 C14 1_555 1_555
C15 N3 1_555 1_555
C5 C6 1_555 1_555
C14 C15 1_555 1_555

#END
