
#######################################################################
#
#                 Cambridge Crystallographic Data Centre
#                                CCDC 
#
#######################################################################
#
# If this CIF has been generated from an entry in the Cambridge 
# Structural Database, then it will include bibliographic, chemical, 
# crystal, experimental, refinement or atomic coordinate data resulting 
# from the CCDC's data processing and validation procedures.
#
#######################################################################

data_PAKHER
_chemical_formula_moiety         'C25 H22 Br2 N2 O6'
_chemical_name_systematic        
'methyl 2-(3,5-bis(4-bromophenyl)-2-phenyl-1,2-oxazolidin-4-yl)-2-hydroxy-3-nitropropanoate'
_symmetry_cell_setting           monoclinic
_symmetry_space_group_name_H-M   'P 21'
_symmetry_Int_Tables_number      4
_space_group_name_Hall           'P 2yb'
loop_
_symmetry_equiv_pos_site_id
_symmetry_equiv_pos_as_xyz
1 x,y,z
2 -x,1/2+y,-z
_cell_length_a                   11.5663(3)
_cell_length_b                   12.1826(4)
_cell_length_c                   17.8696(5)
_cell_angle_alpha                90
_cell_angle_beta                 105.121(3)
_cell_angle_gamma                90
_cell_volume                     2430.78
_cell_formula_units_Z            4
loop_
_atom_site_label
_atom_site_type_symbol
_atom_site_fract_x
_atom_site_fract_y
_atom_site_fract_z
Br1 Br 0.56694(4) 0.79959(6) 0.13685(3)
Br2 Br 1.11020(9) 0.60517(6) -0.32964(4)
O1 O 1.0535(3) 0.9323(3) 0.02416(19)
O2 O 1.3105(3) 0.7062(3) 0.13997(18)
H1 H 1.3065 0.7435 0.1774
O3 O 1.0295(3) 0.5800(3) 0.12977(19)
C1 C 1.2233(5) 1.0762(4) 0.0952(3)
H2 H 1.1479 1.0768 0.1046
O4 O 1.2683(4) 0.4567(3) 0.1646(3)
C2 C 0.9474(4) 0.5600(5) 0.1779(3)
H3 H 0.8878 0.5077 0.1528
H4 H 0.9091 0.6276 0.1854
H5 H 0.9912 0.5316 0.2273
C3 C 0.8546(4) 0.7930(5) 0.0419(3)
H6 H 0.8672 0.7720 -0.0054
O5 O 1.3709(3) 0.4433(3) 0.0802(2)
C4 C 0.9297(4) 0.8670(4) 0.1699(3)
H7 H 0.9924 0.8953 0.2088
N1 N 1.2913(4) 0.4825(4) 0.1040(3)
C5 C 1.4234(5) 1.1494(5) 0.1205(3)
H8 H 1.4814 1.1988 0.1463
C6 C 1.2485(4) 1.0026(4) 0.0423(3)
O6 O 1.1540(3) 0.6728(3) 0.2273(2)
C7 C 1.1934(4) 0.8124(4) -0.0041(2)
H9 H 1.2788 0.8050 0.0219
C8 C 1.1712(4) 0.7662(4) -0.0853(3)
N2 N 1.1600(3) 0.9299(3) -0.0032(2)
C9 C 1.0714(4) 0.8488(4) 0.0839(3)
H10 H 1.1310 0.8729 0.1307
C10 C 0.7423(4) 0.7826(4) 0.0539(3)
H11 H 0.6792 0.7541 0.0154
C11 C 1.2663(4) 0.7259(5) -0.1106(3)
H12 H 1.3435 0.7311 -0.0785
C12 C 1.2135(4) 0.5671(4) 0.0542(3)
H13 H 1.1362 0.5350 0.0296
H14 H 1.2500 0.5905 0.0138
C13 C 1.3115(5) 1.1493(5) 0.1341(3)
H15 H 1.2945 1.1985 0.1696
C14 C 0.7249(4) 0.8151(5) 0.1237(3)
C15 C 1.1263(4) 0.6388(4) 0.1624(3)
C16 C 1.0568(4) 0.7602(4) -0.1351(3)
H16 H 0.9921 0.7883 -0.1195
C17 C 1.1200(4) 0.7532(4) 0.0458(3)
H17 H 1.0523 0.7155 0.0108
C18 C 1.0384(5) 0.7131(5) -0.2075(3)
H18 H 0.9615 0.7086 -0.2402
C19 C 1.1956(4) 0.6668(4) 0.1022(3)
C20 C 0.8152(4) 0.8573(4) 0.1823(3)
H19 H 0.8010 0.8789 0.2290
C21 C 1.3623(4) 1.0027(5) 0.0283(3)
H20 H 1.3796 0.9543 -0.0076
C22 C 0.9501(4) 0.8348(4) 0.1001(3)
C23 C 1.4490(5) 1.0754(4) 0.0682(3)
H21 H 1.5250 1.0745 0.0597
C24 C 1.1342(6) 0.6728(4) -0.2308(3)
C25 C 1.2483(5) 0.6777(5) -0.1834(3)
H22 H 1.3125 0.6494 -0.1995
Br3 Br 1.35237(5) 0.98855(5) 0.81725(3)
Br4 Br 1.95581(5) 0.72677(6) 0.38789(4)
O7 O 1.4749(4) 0.9622(3) 0.3529(2)
N3 N 1.4109(3) 0.6014(4) 0.4643(2)
C26 C 1.6549(4) 0.7129(4) 0.4733(3)
H23 H 1.6386 0.7202 0.5213
O8 O 1.2060(3) 0.8189(4) 0.34964(19)
H24 H 1.2130 0.7814 0.3130
C27 C 1.2939(4) 0.4869(5) 0.3607(3)
H25 H 1.3502 0.4994 0.3329
O9 O 1.3669(3) 0.8517(3) 0.26138(19)
O10 O 1.4009(3) 0.6557(3) 0.53368(18)
C28 C 1.1107(5) 0.3994(5) 0.3710(3)
H26 H 1.0455 0.3539 0.3507
C29 C 1.3864(5) 0.8943(4) 0.3237(3)
C30 C 1.1953(5) 0.4188(5) 0.3306(3)
H27 H 1.1866 0.3860 0.2825
C31 C 1.7726(4) 0.7188(5) 0.4681(3)
H28 H 1.8351 0.7279 0.5125
C32 C 1.7044(4) 0.6939(5) 0.3301(3)
H29 H 1.7210 0.6890 0.2821
C33 C 1.4328(4) 0.6925(4) 0.4134(3)
H30 H 1.3802 0.6816 0.3613
C34 C 1.2690(15) 0.9763(15) 0.4081(9)
H31 H 1.3333 1.0107 0.4470
H32 H 1.2052 0.9595 0.4324
C35 C 1.5618(4) 0.6963(4) 0.4078(3)
C36 C 1.3471(5) 0.9195(5) 0.7206(3)
C37 C 1.4466(4) 0.8299(4) 0.6377(3)
H33 H 1.5167 0.8033 0.6281
C38 C 1.3940(4) 0.7995(4) 0.4476(2)
H34 H 1.4655 0.8411 0.4740
C39 C 1.4514(4) 0.8798(5) 0.7084(3)
H35 H 1.5235 0.8860 0.7463
C40 C 1.2387(4) 0.9132(5) 0.6650(3)
H36 H 1.1696 0.9433 0.6739
C41 C 1.7957(4) 0.7108(5) 0.3966(3)
C42 C 1.2360(4) 0.8611(5) 0.5962(3)
H37 H 1.1633 0.8540 0.5590
C43 C 1.5879(4) 0.6844(4) 0.3363(3)
H38 H 1.5264 0.6698 0.2923
C44 C 1.3386(4) 0.8189(4) 0.5809(3)
C45 C 1.5534(5) 0.9895(6) 0.3045(3)
H39 H 1.5066 1.0013 0.2522
H40 H 1.6084 0.9301 0.3054
H41 H 1.5973 1.0550 0.3236
C46 C 1.3067(4) 0.5357(4) 0.4329(3)
N4 N 1.2213(13) 1.0594(14) 0.3417(7)
C47 C 1.2231(5) 0.5155(4) 0.4743(3)
H42 H 1.2327 0.5464 0.5231
C48 C 1.3147(4) 0.8709(4) 0.3834(3)
C49 C 1.3331(4) 0.7546(4) 0.5080(3)
H43 H 1.2498 0.7355 0.4827
O11 O 1.1897(7) 1.0205(6) 0.2753(4)
C50 C 1.1254(5) 0.4497(4) 0.4430(3)
H44 H 1.0683 0.4386 0.4704
O12 O 1.2160(9) 1.1528(7) 0.3577(5)
C51? C 1.3030(17) 0.9855(19) 0.4259(13)
H45? H 1.2618 0.9749 0.4662
H46? H 1.3816 1.0162 0.4492
N5? N 1.236(2) 1.056(2) 0.3668(11)
O13? O 1.2734(12) 1.0819(10) 0.3121(7)
O14? O 1.1486(9) 1.1035(11) 0.3786(5)
loop_
_geom_bond_atom_site_label_1
_geom_bond_atom_site_label_2
_geom_bond_site_symmetry_1
_geom_bond_site_symmetry_2
Br1 C14 1_555 1_555
Br2 C24 1_555 1_555
O1 N2 1_555 1_555
O2 H1 1_555 1_555
O3 C2 1_555 1_555
C1 H2 1_555 1_555
O4 N1 1_555 1_555
C2 H3 1_555 1_555
H4 C2 1_555 1_555
H5 C2 1_555 1_555
C3 H6 1_555 1_555
O5 N1 1_555 1_555
C4 H7 1_555 1_555
N1 C12 1_555 1_555
C5 H8 1_555 1_555
C6 C1 1_555 1_555
O6 C15 1_555 1_555
C7 H9 1_555 1_555
C8 C7 1_555 1_555
N2 C6 1_555 1_555
C9 O1 1_555 1_555
H10 C9 1_555 1_555
C10 C3 1_555 1_555
H11 C10 1_555 1_555
C11 C8 1_555 1_555
H12 C11 1_555 1_555
C12 H13 1_555 1_555
H14 C12 1_555 1_555
C13 C1 1_555 1_555
H15 C13 1_555 1_555
C14 C10 1_555 1_555
C15 O3 1_555 1_555
C16 C8 1_555 1_555
H16 C16 1_555 1_555
C17 C7 1_555 1_555
H17 C17 1_555 1_555
C18 C16 1_555 1_555
H18 C18 1_555 1_555
C19 O2 1_555 1_555
C20 C4 1_555 1_555
H19 C20 1_555 1_555
C21 C6 1_555 1_555
H20 C21 1_555 1_555
C22 C3 1_555 1_555
C23 C5 1_555 1_555
H21 C23 1_555 1_555
C24 C18 1_555 1_555
C25 C11 1_555 1_555
H22 C25 1_555 1_555
Br3 C36 1_555 1_555
Br4 C41 1_555 1_555
O7 C29 1_555 1_555
N3 O10 1_555 1_555
C26 H23 1_555 1_555
O8 H24 1_555 1_555
C27 H25 1_555 1_555
O9 C29 1_555 1_555
O10 C49 1_555 1_555
C28 H26 1_555 1_555
C29 C48 1_555 1_555
C30 C27 1_555 1_555
H27 C30 1_555 1_555
C31 C26 1_555 1_555
H28 C31 1_555 1_555
C32 H29 1_555 1_555
C33 N3 1_555 1_555
H30 C33 1_555 1_555
C34 H31 1_555 1_555
H32 C34 1_555 1_555
C35 C26 1_555 1_555
C36 C39 1_555 1_555
C37 H33 1_555 1_555
C38 C33 1_555 1_555
H34 C38 1_555 1_555
C39 C37 1_555 1_555
H35 C39 1_555 1_555
C40 C36 1_555 1_555
H36 C40 1_555 1_555
C41 C31 1_555 1_555
C42 C40 1_555 1_555
H37 C42 1_555 1_555
C43 C32 1_555 1_555
H38 C43 1_555 1_555
C44 C37 1_555 1_555
C45 O7 1_555 1_555
H39 C45 1_555 1_555
H40 C45 1_555 1_555
H41 C45 1_555 1_555
C46 N3 1_555 1_555
N4 C34 1_555 1_555
C47 C46 1_555 1_555
H42 C47 1_555 1_555
C48 O8 1_555 1_555
C49 C38 1_555 1_555
H43 C49 1_555 1_555
O11 N4 1_555 1_555
C50 C28 1_555 1_555
H44 C50 1_555 1_555
O12 N4 1_555 1_555
C4 C22 1_555 1_555
C5 C13 1_555 1_555
C7 N2 1_555 1_555
C9 C17 1_555 1_555
C9 C22 1_555 1_555
C12 C19 1_555 1_555
C14 C20 1_555 1_555
C15 C19 1_555 1_555
C17 C19 1_555 1_555
C21 C23 1_555 1_555
C24 C25 1_555 1_555
C27 C46 1_555 1_555
C28 C30 1_555 1_555
C32 C41 1_555 1_555
C33 C35 1_555 1_555
C34 C48 1_555 1_555
C35 C43 1_555 1_555
C38 C48 1_555 1_555
C42 C44 1_555 1_555
C44 C49 1_555 1_555
C47 C50 1_555 1_555

#END
