
#######################################################################
#
#                 Cambridge Crystallographic Data Centre
#                                CCDC 
#
#######################################################################
#
# If this CIF has been generated from an entry in the Cambridge 
# Structural Database, then it will include bibliographic, chemical, 
# crystal, experimental, refinement or atomic coordinate data resulting 
# from the CCDC's data processing and validation procedures.
#
#######################################################################

data_PALNUO
_chemical_formula_moiety         'C28 H30 N2 O7 Si1'
_chemical_name_systematic        
'6-(dimethyl(phenyl)silyl)-3-methyl-2-(4-methylphenyl)tetrahydro-2H-pyran-4-yl 3,5-dinitrobenzoate'
_symmetry_cell_setting           monoclinic
_symmetry_space_group_name_H-M   'P 21/n'
_symmetry_Int_Tables_number      14
_space_group_name_Hall           '-P 2yn'
loop_
_symmetry_equiv_pos_site_id
_symmetry_equiv_pos_as_xyz
1 x,y,z
2 1/2-x,1/2+y,1/2-z
3 -x,-y,-z
4 1/2+x,1/2-y,1/2+z
_cell_length_a                   17.7144(12)
_cell_length_b                   7.9561(6)
_cell_length_c                   19.1888(13)
_cell_angle_alpha                90
_cell_angle_beta                 97.786(3)
_cell_angle_gamma                90
_cell_volume                     2679.49
_exptl_crystal_colour            colorless
_exptl_crystal_description       Block
_cell_formula_units_Z            4
loop_
_atom_site_label
_atom_site_type_symbol
_atom_site_fract_x
_atom_site_fract_y
_atom_site_fract_z
C1 C 0.52816(8) 0.71138(18) 0.90123(7)
H1 H 0.5683 0.7935 0.8963
H2 H 0.5470 0.6288 0.9373
H3 H 0.4837 0.7693 0.9151
C2 C 0.45276(8) 0.74973(18) 0.74842(8)
H4 H 0.4045 0.7881 0.7626
H5 H 0.4427 0.6919 0.7030
H6 H 0.4859 0.8467 0.7441
C3 C 0.43865(8) 0.41409(17) 0.82467(7)
C4 C 0.37131(10) 0.3864(2) 0.78011(8)
H7 H 0.3547 0.4670 0.7448
C5 C 0.32757(12) 0.2425(3) 0.78609(10)
H8 H 0.2818 0.2257 0.7549
C6 C 0.35073(13) 0.1246(2) 0.83725(12)
H9 H 0.3214 0.0259 0.8410
C7 C 0.41647(12) 0.1508(2) 0.88283(13)
H10 H 0.4322 0.0706 0.9185
C8 C 0.46005(9) 0.2940(2) 0.87704(10)
H11 H 0.5051 0.3108 0.9091
C9 C 0.59147(7) 0.52321(15) 0.78513(6)
H12 H 0.6270 0.6205 0.7841
C10 C 0.58137(7) 0.43958(16) 0.71238(6)
H13 H 0.5418 0.3511 0.7102
H14 H 0.5648 0.5241 0.6756
C11 C 0.65684(7) 0.36300(15) 0.69981(6)
H15 H 0.6951 0.4552 0.6989
C12 C 0.68617(7) 0.23916(15) 0.75808(6)
H16 H 0.7376 0.1991 0.7495
C13 C 0.63484(7) 0.08559(15) 0.76121(7)
H17 H 0.5867 0.1203 0.7767
H18 H 0.6604 0.0035 0.7945
H19 H 0.6245 0.0345 0.7144
C14 C 0.69589(7) 0.34241(15) 0.82652(6)
H20 H 0.7302 0.4395 0.8202
C15 C 0.73082(7) 0.24387(15) 0.88999(6)
C16 C 0.80984(7) 0.23755(16) 0.90583(7)
H21 H 0.8407 0.2911 0.8756
C17 C 0.84408(8) 0.15400(18) 0.96529(7)
H22 H 0.8981 0.1510 0.9752
C18 C 0.80058(9) 0.07466(17) 1.01064(7)
C19 C 0.83761(10) -0.0028(2) 1.07873(7)
H23 H 0.8896 -0.0381 1.0736
H24 H 0.8080 -0.1006 1.0901
H25 H 0.8393 0.0802 1.1166
C20 C 0.72177(8) 0.07600(17) 0.99315(7)
H26 H 0.6911 0.0185 1.0224
C21 C 0.68697(8) 0.15961(16) 0.93377(6)
H27 H 0.6330 0.1592 0.9230
C22 C 0.71032(7) 0.24654(15) 0.60439(6)
C23 C 0.69543(7) 0.15348(15) 0.53633(6)
C24 C 0.62240(7) 0.13208(15) 0.50115(6)
H28 H 0.5796 0.1798 0.5188
C25 C 0.61344(7) 0.03942(16) 0.43961(6)
C26 C 0.67349(7) -0.03345(16) 0.41168(6)
H29 H 0.6659 -0.0969 0.3694
C27 C 0.74527(7) -0.00896(15) 0.44864(6)
C28 C 0.75784(7) 0.08303(15) 0.51023(6)
H30 H 0.8079 0.0978 0.5342
N1 N 0.81065(6) -0.09243(14) 0.42331(6)
N2 N 0.53619(6) 0.01203(15) 0.40308(6)
O1 O 0.64600(5) 0.27994(11) 0.63117(4)
O2 O 0.77374(5) 0.28153(12) 0.63161(4)
O3 O 0.87308(5) -0.07275(14) 0.45721(6)
O4 O 0.79790(6) -0.18084(14) 0.37065(5)
O5 O 0.52678(7) -0.10175(15) 0.36038(7)
O6 O 0.48533(6) 0.10413(16) 0.41783(6)
O7 O 0.62404(5) 0.40799(11) 0.83958(4)
Si1 Si 0.500506(19) 0.60240(4) 0.815921(17)
loop_
_geom_bond_atom_site_label_1
_geom_bond_atom_site_label_2
_geom_bond_site_symmetry_1
_geom_bond_site_symmetry_2
C1 H1 1_555 1_555
H2 C1 1_555 1_555
H3 C1 1_555 1_555
C2 H4 1_555 1_555
H5 C2 1_555 1_555
H6 C2 1_555 1_555
C3 C4 1_555 1_555
C4 H7 1_555 1_555
C5 C4 1_555 1_555
H8 C5 1_555 1_555
C6 C5 1_555 1_555
H9 C6 1_555 1_555
C7 C6 1_555 1_555
H10 C7 1_555 1_555
C8 C3 1_555 1_555
H11 C8 1_555 1_555
C9 H12 1_555 1_555
C10 C9 1_555 1_555
H13 C10 1_555 1_555
H14 C10 1_555 1_555
C11 C10 1_555 1_555
H15 C11 1_555 1_555
C12 C11 1_555 1_555
H16 C12 1_555 1_555
C13 C12 1_555 1_555
H17 C13 1_555 1_555
H18 C13 1_555 1_555
H19 C13 1_555 1_555
C14 C12 1_555 1_555
H20 C14 1_555 1_555
C15 C14 1_555 1_555
C16 C15 1_555 1_555
H21 C16 1_555 1_555
C17 C16 1_555 1_555
H22 C17 1_555 1_555
C18 C17 1_555 1_555
C19 C18 1_555 1_555
H23 C19 1_555 1_555
H24 C19 1_555 1_555
H25 C19 1_555 1_555
C20 C18 1_555 1_555
H26 C20 1_555 1_555
C21 C15 1_555 1_555
H27 C21 1_555 1_555
C22 C23 1_555 1_555
C23 C24 1_555 1_555
C24 H28 1_555 1_555
C25 C24 1_555 1_555
C26 C25 1_555 1_555
H29 C26 1_555 1_555
C27 C26 1_555 1_555
C28 C23 1_555 1_555
H30 C28 1_555 1_555
N1 C27 1_555 1_555
N2 C25 1_555 1_555
O1 C11 1_555 1_555
O2 C22 1_555 1_555
O3 N1 1_555 1_555
O4 N1 1_555 1_555
O5 N2 1_555 1_555
O6 N2 1_555 1_555
O7 C9 1_555 1_555
Si1 C1 1_555 1_555
C2 Si1 1_555 1_555
C3 Si1 1_555 1_555
C7 C8 1_555 1_555
C9 Si1 1_555 1_555
C14 O7 1_555 1_555
C20 C21 1_555 1_555
C22 O1 1_555 1_555
C27 C28 1_555 1_555

#END
