
#######################################################################
#
#                 Cambridge Crystallographic Data Centre
#                                CCDC 
#
#######################################################################
#
# If this CIF has been generated from an entry in the Cambridge 
# Structural Database, then it will include bibliographic, chemical, 
# crystal, experimental, refinement or atomic coordinate data resulting 
# from the CCDC's data processing and validation procedures.
#
#######################################################################

data_PALPAW
_chemical_formula_moiety         'C30 H33 Br1 N2 O7 Si1'
_chemical_name_systematic        
'2-(4-bromophenyl)-3-butyl-6-(dimethyl(phenyl)silyl)tetrahydro-2H-pyran-4-yl 3,5-dinitrobenzoate'
_symmetry_cell_setting           monoclinic
_symmetry_space_group_name_H-M   'P 21'
_symmetry_Int_Tables_number      4
_space_group_name_Hall           'P 2yb'
loop_
_symmetry_equiv_pos_site_id
_symmetry_equiv_pos_as_xyz
1 x,y,z
2 -x,1/2+y,-z
_cell_length_a                   19.9045(11)
_cell_length_b                   6.9512(4)
_cell_length_c                   22.6091(12)
_cell_angle_alpha                90
_cell_angle_beta                 105.797(2)
_cell_angle_gamma                90
_cell_volume                     3010.05
_exptl_crystal_colour            colorless
_exptl_crystal_description       Block
_cell_formula_units_Z            4
loop_
_atom_site_label
_atom_site_type_symbol
_atom_site_fract_x
_atom_site_fract_y
_atom_site_fract_z
Br1 Br 0.27362(4) 1.23772(9) 0.88558(3)
C1 C 0.4081(2) 0.6709(7) 0.7411(2)
H1 H 0.3822 0.5461 0.7361
C2 C 0.4852(2) 0.6313(7) 0.7716(2)
H2 H 0.5113 0.7548 0.7726
C3 C 0.5094(2) 0.4927(7) 0.7294(2)
H3 H 0.4823 0.3701 0.7259
C4 C 0.4993(2) 0.5788(8) 0.6661(2)
H4 H 0.5129 0.4839 0.6388
H5 H 0.5295 0.6936 0.6688
C5 C 0.4228(2) 0.6357(8) 0.6396(2)
H6 H 0.3936 0.5166 0.6309
C6 C 0.3754(2) 0.8068(7) 0.7771(2)
C7 C 0.3868(3) 1.0043(8) 0.7750(3)
H7 H 0.4158 1.0525 0.7512
C8 C 0.3566(4) 1.1299(8) 0.8072(3)
H8 H 0.3641 1.2645 0.8053
C9 C 0.3150(3) 1.0586(8) 0.8425(3)
C10 C 0.3034(3) 0.8666(8) 0.8461(2)
H9 H 0.2752 0.8195 0.8708
C11 C 0.6026(2) 0.2731(8) 0.7712(2)
C12 C 0.6804(2) 0.2582(8) 0.79889(19)
C13 C 0.7257(2) 0.4069(7) 0.7958(2)
H10 H 0.7090 0.5237 0.7753
C14 C 0.7962(3) 0.3798(7) 0.8238(2)
C15 C 0.8225(2) 0.2150(7) 0.8553(2)
H11 H 0.8709 0.2011 0.8752
C16 C 0.7751(3) 0.0703(7) 0.8567(2)
C17 C 0.7055(3) 0.0867(7) 0.8290(2)
H12 H 0.6745 -0.0165 0.8301
C18 C 0.4316(3) 1.0393(8) 0.5888(3)
H13 H 0.4816 1.0439 0.6099
H14 H 0.4050 1.0873 0.6164
H15 H 0.4220 1.1198 0.5519
C19 C 0.4561(3) 0.6856(10) 0.5157(3)
H16 H 0.4507 0.7692 0.4798
H17 H 0.4386 0.5566 0.5021
H18 H 0.5055 0.6779 0.5384
C20 C 0.3096(2) 0.7724(8) 0.5287(2)
C21 C 0.2775(3) 0.6005(8) 0.5038(3)
H19 H 0.3053 0.4892 0.5040
C22 C 0.2058(3) 0.5898(9) 0.4789(3)
H20 H 0.1852 0.4722 0.4615
C23 C 0.1642(3) 0.7477(11) 0.4790(3)
H21 H 0.1150 0.7379 0.4632
C24 C 0.1945(3) 0.9210(10) 0.5023(3)
H22 H 0.1662 1.0313 0.5018
C25 C 0.2663(3) 0.9326(8) 0.5263(2)
H23 H 0.2866 1.0525 0.5415
C26 C 0.4990(3) 0.5588(9) 0.8378(2)
H24 H 0.5321 0.4496 0.8441
H25 H 0.4548 0.5110 0.8444
C27 C 0.3337(2) 0.7407(8) 0.8131(2)
H26 H 0.3257 0.6065 0.8152
C28 C 0.5293(3) 0.7165(11) 0.8858(3)
H27 H 0.5762 0.7523 0.8823
H28 H 0.4993 0.8320 0.8757
C29 C 0.5356(4) 0.6600(11) 0.9521(3)
H29 H 0.5606 0.5357 0.9608
H30 H 0.5639 0.7580 0.9797
C30 C 0.4669(4) 0.6417(14) 0.9658(4)
H31 H 0.4406 0.7617 0.9549
H32 H 0.4744 0.6159 1.0098
H33 H 0.4405 0.5354 0.9419
N1 N 0.8453(2) 0.5335(7) 0.8201(2)
N2 N 0.8020(2) -0.1069(7) 0.8912(2)
O1 O 0.39883(15) 0.7557(6) 0.68179(13)
O2 O 0.58386(17) 0.4521(5) 0.75449(16)
O3 O 0.5641(2) 0.1392(6) 0.7676(3)
O4 O 0.8242(2) 0.6684(6) 0.78584(19)
O5 O 0.9048(2) 0.5180(9) 0.8526(3)
O6 O 0.7605(2) -0.2367(6) 0.89010(18)
O7 O 0.8636(2) -0.1129(6) 0.9187(2)
Si1 Si 0.40550(7) 0.7863(2) 0.56659(6)
Br2 Br 0.74560(4) -0.23334(10) 0.36445(3)
C31 C 0.9659(2) 0.3798(8) 0.2650(2)
H34 H 0.9915 0.2547 0.2681
C32 C 0.8885(2) 0.3447(7) 0.2307(2)
H35 H 0.8629 0.4701 0.2251
C33 C 0.9117(2) 0.3736(7) 0.1318(2)
H36 H 0.8836 0.4939 0.1204
C34 C 0.9878(2) 0.4270(8) 0.1619(2)
H37 H 1.0174 0.3105 0.1666
H38 H 1.0042 0.5195 0.1355
C35 C 0.9941(2) 0.5159(8) 0.2241(2)
H39 H 0.9681 0.6405 0.2191
C36 C 1.0877(3) 0.7246(8) 0.2758(2)
C37 C 1.1647(2) 0.7342(8) 0.3064(2)
C38 C 1.1898(3) 0.9039(7) 0.3380(2)
H40 H 1.1590 1.0066 0.3398
C39 C 1.2600(3) 0.9190(7) 0.3665(2)
C40 C 1.3066(3) 0.7747(8) 0.3649(2)
H41 H 1.3549 0.7872 0.3851
C41 C 1.2802(3) 0.6114(7) 0.3327(2)
C42 C 1.2104(2) 0.5855(7) 0.3041(2)
H42 H 1.1939 0.4689 0.2833
C43 C 0.8533(2) 0.2057(7) 0.2644(2)
C44 C 0.8101(2) 0.2683(8) 0.2990(2)
H43 H 0.8016 0.4022 0.3012
C45 C 0.7789(3) 0.1414(8) 0.3303(2)
H44 H 0.7507 0.1867 0.3551
C46 C 0.7896(3) -0.0518(8) 0.3247(3)
C47 C 0.8318(4) -0.1190(9) 0.2902(3)
H45 H 0.8389 -0.2533 0.2869
C48 C 0.8639(3) 0.0113(8) 0.2601(3)
H46 H 0.8933 -0.0342 0.2364
C49 C 0.9239(3) -0.0349(9) 0.0863(3)
H47 H 0.8913 -0.0848 0.1082
H48 H 0.9714 -0.0361 0.1139
H49 H 0.9221 -0.1159 0.0505
C50 C 0.9541(3) 0.3123(10) 0.0126(3)
H50 H 0.9519 0.2246 -0.0218
H51 H 1.0026 0.3238 0.0376
H52 H 0.9367 0.4392 -0.0034
C51 C 0.8048(2) 0.2231(8) 0.0168(2)
C52 C 0.7735(3) 0.3924(8) -0.0110(3)
H53 H 0.8009 0.5057 -0.0079
C53 C 0.7035(3) 0.3986(9) -0.0430(3)
H54 H 0.6834 0.5147 -0.0620
C54 C 0.6922(3) 0.0654(9) -0.0206(3)
H55 H 0.6645 -0.0475 -0.0241
C55 C 0.6627(3) 0.2334(10) -0.0472(2)
H56 H 0.6145 0.2373 -0.0686
C56 C 0.7619(3) 0.0595(8) 0.0113(2)
H57 H 0.7815 -0.0577 0.0298
C57 C 0.9757(3) 0.4600(11) 0.3305(3)
H58 H 0.9806 0.6016 0.3292
H59 H 0.9331 0.4320 0.3435
C58 C 1.0373(5) 0.381(2) 0.3777(4)
H60 H 1.0792 0.3859 0.3621
H61 H 1.0466 0.4593 0.4156
C59 C 1.0232(9) 0.186(2) 0.3910(6)
H62 H 1.0686 0.1197 0.4064
H63 H 0.9987 0.1237 0.3516
C60 C 0.9819(7) 0.148(2) 0.4350(6)
H64 H 1.0090 0.1859 0.4764
H65 H 0.9708 0.0108 0.4347
H66 H 0.9385 0.2228 0.4232
N3 N 1.3299(2) 0.4564(7) 0.3291(2)
N4 N 1.2868(3) 1.0968(7) 0.4004(2)
O8 O 0.88304(15) 0.2613(5) 0.17202(13)
O9 O 1.0500(2) 0.8610(7) 0.2727(3)
O10 O 1.06874(17) 0.5499(5) 0.25345(17)
O11 O 1.3898(2) 0.4736(8) 0.3604(3)
O12 O 1.3085(2) 0.3199(6) 0.29523(19)
O13 O 1.3490(2) 1.1049(6) 0.4262(2)
O14 O 1.2450(2) 1.2252(6) 0.40038(19)
Si2 Si 0.89922(6) 0.2159(2) 0.06071(6)
loop_
_geom_bond_atom_site_label_1
_geom_bond_atom_site_label_2
_geom_bond_site_symmetry_1
_geom_bond_site_symmetry_2
Br1 C9 1_555 1_555
C1 H1 1_555 1_555
C2 C1 1_555 1_555
H2 C2 1_555 1_555
C3 C2 1_555 1_555
H3 C3 1_555 1_555
C4 C3 1_555 1_555
H4 C4 1_555 1_555
H5 C4 1_555 1_555
C5 C4 1_555 1_555
H6 C5 1_555 1_555
C6 C1 1_555 1_555
C7 C6 1_555 1_555
H7 C7 1_555 1_555
C8 C7 1_555 1_555
H8 C8 1_555 1_555
C9 C8 1_555 1_555
C10 C9 1_555 1_555
H9 C10 1_555 1_555
C11 C12 1_555 1_555
C12 C13 1_555 1_555
C13 H10 1_555 1_555
C14 C13 1_555 1_555
C15 C14 1_555 1_555
H11 C15 1_555 1_555
C16 C15 1_555 1_555
C17 C12 1_555 1_555
H12 C17 1_555 1_555
C18 H13 1_555 1_555
H14 C18 1_555 1_555
H15 C18 1_555 1_555
C19 H16 1_555 1_555
H17 C19 1_555 1_555
H18 C19 1_555 1_555
C20 C21 1_555 1_555
C21 H19 1_555 1_555
C22 C21 1_555 1_555
H20 C22 1_555 1_555
C23 C22 1_555 1_555
H21 C23 1_555 1_555
C24 C23 1_555 1_555
H22 C24 1_555 1_555
C25 C20 1_555 1_555
H23 C25 1_555 1_555
C26 C2 1_555 1_555
H24 C26 1_555 1_555
H25 C26 1_555 1_555
C27 C6 1_555 1_555
H26 C27 1_555 1_555
C28 C26 1_555 1_555
H27 C28 1_555 1_555
H28 C28 1_555 1_555
C29 C28 1_555 1_555
H29 C29 1_555 1_555
H30 C29 1_555 1_555
C30 C29 1_555 1_555
H31 C30 1_555 1_555
H32 C30 1_555 1_555
H33 C30 1_555 1_555
N1 C14 1_555 1_555
N2 C16 1_555 1_555
O1 C1 1_555 1_555
O2 C3 1_555 1_555
O3 C11 1_555 1_555
O4 N1 1_555 1_555
O5 N1 1_555 1_555
O6 N2 1_555 1_555
O7 N2 1_555 1_555
Si1 C5 1_555 1_555
Br2 C46 1_555 1_555
C31 H34 1_555 1_555
C32 C31 1_555 1_555
H35 C32 1_555 1_555
C33 H36 1_555 1_555
C34 C33 1_555 1_555
H37 C34 1_555 1_555
H38 C34 1_555 1_555
C35 C31 1_555 1_555
H39 C35 1_555 1_555
C36 C37 1_555 1_555
C37 C38 1_555 1_555
C38 H40 1_555 1_555
C39 C38 1_555 1_555
C40 C39 1_555 1_555
H41 C40 1_555 1_555
C41 C40 1_555 1_555
C42 C37 1_555 1_555
H42 C42 1_555 1_555
C43 C32 1_555 1_555
C44 C43 1_555 1_555
H43 C44 1_555 1_555
C45 C44 1_555 1_555
H44 C45 1_555 1_555
C46 C45 1_555 1_555
C47 C46 1_555 1_555
H45 C47 1_555 1_555
C48 C43 1_555 1_555
H46 C48 1_555 1_555
C49 H47 1_555 1_555
H48 C49 1_555 1_555
H49 C49 1_555 1_555
C50 H50 1_555 1_555
H51 C50 1_555 1_555
H52 C50 1_555 1_555
C51 C52 1_555 1_555
C52 H53 1_555 1_555
C53 C52 1_555 1_555
H54 C53 1_555 1_555
C54 H55 1_555 1_555
C55 C53 1_555 1_555
H56 C55 1_555 1_555
C56 C51 1_555 1_555
H57 C56 1_555 1_555
C57 C31 1_555 1_555
H58 C57 1_555 1_555
H59 C57 1_555 1_555
C58 C57 1_555 1_555
H60 C58 1_555 1_555
H61 C58 1_555 1_555
C59 C58 1_555 1_555
H62 C59 1_555 1_555
H63 C59 1_555 1_555
C60 C59 1_555 1_555
H64 C60 1_555 1_555
H65 C60 1_555 1_555
H66 C60 1_555 1_555
N3 C41 1_555 1_555
N4 C39 1_555 1_555
O8 C32 1_555 1_555
O9 C36 1_555 1_555
O10 C35 1_555 1_555
O11 N3 1_555 1_555
O12 N3 1_555 1_555
O13 N4 1_555 1_555
O14 N4 1_555 1_555
Si2 C33 1_555 1_555
C5 O1 1_555 1_555
C10 C27 1_555 1_555
C11 O2 1_555 1_555
C16 C17 1_555 1_555
C18 Si1 1_555 1_555
C19 Si1 1_555 1_555
C20 Si1 1_555 1_555
C24 C25 1_555 1_555
C33 O8 1_555 1_555
C34 C35 1_555 1_555
C36 O10 1_555 1_555
C41 C42 1_555 1_555
C47 C48 1_555 1_555
C49 Si2 1_555 1_555
C50 Si2 1_555 1_555
C51 Si2 1_555 1_555
C54 C55 1_555 1_555
C54 C56 1_555 1_555

#END
