
#######################################################################
#
#                 Cambridge Crystallographic Data Centre
#                                CCDC 
#
#######################################################################
#
# If this CIF has been generated from an entry in the Cambridge 
# Structural Database, then it will include bibliographic, chemical, 
# crystal, experimental, refinement or atomic coordinate data resulting 
# from the CCDC's data processing and validation procedures.
#
#######################################################################

data_PALQIC
_chemical_formula_moiety         'C19 H16 N2 O3'
_chemical_name_systematic        
trans-2-Amino-3-cyano-4-(3',4'-methylenedioxyphenyl)-1-phenyl-2-cyclopentene-r-1-ol
_symmetry_cell_setting           orthorhombic
_symmetry_space_group_name_H-M   'P c a 21'
_symmetry_Int_Tables_number      29
_space_group_name_Hall           'P 2c -2ac'
loop_
_symmetry_equiv_pos_site_id
_symmetry_equiv_pos_as_xyz
1 x,y,z
2 -x,-y,1/2+z
3 1/2-x,y,1/2+z
4 1/2+x,-y,z
_cell_length_a                   11.547(2)
_cell_length_b                   13.168(4)
_cell_length_c                   10.645(3)
_cell_angle_alpha                90
_cell_angle_beta                 90
_cell_angle_gamma                90
_cell_volume                     1618.58
_chemical_melting_point          161-163deg.C
_cell_formula_units_Z            4
_exptl_crystal_recrystallization_method ethanol
loop_
_atom_site_label
_atom_site_type_symbol
_atom_site_fract_x
_atom_site_fract_y
_atom_site_fract_z
O1 O 0.1896(3) 0.5333(2) 0.1807
O2 O 0.3826(3) 0.5618(2) 0.1364(5)
O3 O -0.0170(2) 0.1090(2) -0.2795(4)
N1 N -0.0129(3) 0.0391(3) -0.0025(5)
N2 N 0.2948(4) 0.0995(4) 0.1024(6)
C1 C 0.2940(5) 0.5769(4) 0.2302(6)
C2 C 0.2254(4) 0.4668(3) 0.0880(5)
C3 C 0.1620(4) 0.3944(4) 0.0275(5)
C4 C 0.2172(3) 0.3410(3) -0.0704(5)
C5 C 0.3315(4) 0.3616(4) -0.0992(6)
C6 C 0.3958(4) 0.4343(4) -0.0332(7)
C7 C 0.3401(4) 0.4851(4) 0.0603(6)
C8 C 0.1570(4) 0.2536(3) -0.1364(5)
C9 C 0.0328(4) 0.2728(3) -0.1836(6)
C10 C -0.0331(4) 0.1710(3) -0.1696(6)
C11 C 0.0328(3) 0.1198(3) -0.0622(5)
C12 C 0.1381(4) 0.1631(3) -0.0474(5)
C13 C -0.1615(4) 0.1791(4) -0.1449(5)
C14 C -0.2004(4) 0.2353(4) -0.0428(6)
C15 C -0.3174(4) 0.2432(4) -0.0157(6)
C16 C -0.3967(4) 0.1943(4) -0.0922(7)
C17 C -0.3605(4) 0.1376(4) -0.1926(6)
C18 C -0.2421(4) 0.1296(3) -0.2207(5)
C19 C 0.2234(4) 0.1275(3) 0.0357(6)
loop_
_geom_bond_atom_site_label_1
_geom_bond_atom_site_label_2
_geom_bond_site_symmetry_1
_geom_bond_site_symmetry_2
O1 C1 1_555 1_555
O2 C1 1_555 1_555
O3 C10 1_555 1_555
N1 C11 1_555 1_555
N2 C19 1_555 1_555
C2 O1 1_555 1_555
C3 C2 1_555 1_555
C4 C3 1_555 1_555
C5 C4 1_555 1_555
C6 C5 1_555 1_555
C7 O2 1_555 1_555
C8 C4 1_555 1_555
C9 C8 1_555 1_555
C10 C9 1_555 1_555
C11 C10 1_555 1_555
C12 C8 1_555 1_555
C13 C10 1_555 1_555
C14 C13 1_555 1_555
C15 C14 1_555 1_555
C16 C15 1_555 1_555
C17 C16 1_555 1_555
C18 C13 1_555 1_555
C19 C12 1_555 1_555
C2 C7 1_555 1_555
C6 C7 1_555 1_555
C11 C12 1_555 1_555
C17 C18 1_555 1_555

#END
