
#######################################################################
#
#                 Cambridge Crystallographic Data Centre
#                                CCDC 
#
#######################################################################
#
# If this CIF has been generated from an entry in the Cambridge 
# Structural Database, then it will include bibliographic, chemical, 
# crystal, experimental, refinement or atomic coordinate data resulting 
# from the CCDC's data processing and validation procedures.
#
#######################################################################

data_PALSEC
_chemical_formula_moiety         'C15 H12 O4,2(C1 H2 Cl2)'
_chemical_name_systematic        
'2,2-Dihydroxy-1,3-diphenylpropane-1,3-dione dichloromethane solvate'
_symmetry_cell_setting           monoclinic
_symmetry_space_group_name_H-M   'P 21/c'
_symmetry_Int_Tables_number      14
_space_group_name_Hall           '-P 2ybc'
loop_
_symmetry_equiv_pos_site_id
_symmetry_equiv_pos_as_xyz
1 x,y,z
2 -x,1/2+y,1/2-z
3 -x,-y,-z
4 x,1/2-y,1/2+z
_cell_length_a                   6.0884(9)
_cell_length_b                   41.108(6)
_cell_length_c                   16.349(3)
_cell_angle_alpha                90
_cell_angle_beta                 96.298(2)
_cell_angle_gamma                90
_cell_volume                     4067.16
_cell_formula_units_Z            8
loop_
_atom_site_label
_atom_site_type_symbol
_atom_site_fract_x
_atom_site_fract_y
_atom_site_fract_z
C1 C 0.8280(5) 0.19943(8) 0.9046(2)
H1 H 0.6919 0.1891 0.8950
C2 C 0.8435(6) 0.23225(8) 0.8889(2)
H2 H 0.7188 0.2437 0.8672
C3 C 1.0423(6) 0.24809(8) 0.9050(2)
H3 H 1.0523 0.2702 0.8943
C4 C 1.2256(6) 0.23116(8) 0.9369(2)
H4 H 1.3593 0.2420 0.9492
C5 C 1.2133(5) 0.19811(7) 0.95100(19)
H5 H 1.3395 0.1868 0.9716
C6 C 1.0139(5) 0.18171(7) 0.93457(16)
C7 C 1.0100(4) 0.14626(7) 0.95037(16)
C8 C 0.7934(4) 0.12646(7) 0.93143(17)
C9 C 0.6755(5) 0.13028(7) 0.84298(17)
C10 C 0.7937(5) 0.12275(7) 0.77097(17)
C11 C 1.0018(5) 0.10854(7) 0.77738(19)
H6 H 1.0751 0.1038 0.8289
C12 C 1.1003(6) 0.10150(8) 0.7070(2)
H7 H 1.2396 0.0919 0.7114
C13 C 0.9940(7) 0.10854(9) 0.6310(2)
H8 H 1.0602 0.1033 0.5841
C14 C 0.7891(7) 0.12329(9) 0.6234(2)
H9 H 0.7194 0.1285 0.5716
C15 C 0.6886(6) 0.13027(8) 0.69246(19)
H10 H 0.5500 0.1400 0.6872
O1 O 1.1730(3) 0.13147(5) 0.97948(13)
O2 O 0.4827(3) 0.13834(6) 0.83563(13)
O3 O 0.8341(3) 0.09318(4) 0.93892(12)
H33 H 0.9180 0.0897 0.9807
O4 O 0.6600(3) 0.13783(5) 0.99018(12)
H34 H 0.5301 0.1338 0.9748
C16 C 0.1922(5) 0.16124(8) 0.3368(2)
H11 H 0.1246 0.1546 0.2858
C17 C 0.0905(6) 0.15587(9) 0.4067(3)
H12 H -0.0455 0.1454 0.4029
C18 C 0.1900(7) 0.16605(10) 0.4825(3)
H13 H 0.1190 0.1627 0.5294
C19 C 0.3907(7) 0.18087(10) 0.4889(2)
H14 H 0.4573 0.1874 0.5402
C20 C 0.4956(6) 0.18629(8) 0.4200(2)
H15 H 0.6331 0.1964 0.4247
C21 C 0.3967(5) 0.17665(7) 0.34294(19)
C22 C 0.5194(5) 0.18376(7) 0.27119(19)
C23 C 0.4059(5) 0.18095(7) 0.18152(19)
C24 C 0.1879(5) 0.20024(7) 0.16368(17)
C25 C 0.1814(5) 0.23590(7) 0.17630(17)
C26 C 0.3626(6) 0.25373(8) 0.2089(2)
H16 H 0.4984 0.2435 0.2211
C27 C 0.3437(7) 0.28670(8) 0.2236(2)
H17 H 0.4664 0.2984 0.2460
C28 C 0.1458(7) 0.30211(9) 0.2052(2)
H18 H 0.1327 0.3242 0.2160
C29 C -0.0327(7) 0.28487(9) 0.1710(3)
H19 H -0.1669 0.2954 0.1574
C30 C -0.0164(6) 0.25208(9) 0.1564(2)
H20 H -0.1394 0.2407 0.1330
O5 O 0.7116(4) 0.19206(6) 0.28017(14)
O6 O 0.0246(3) 0.18503(5) 0.13631(13)
O7 O 0.3670(4) 0.14750(5) 0.17110(16)
H35 H 0.2514 0.1447 0.1412
O8 O 0.5415(3) 0.19327(6) 0.12567(13)
H36 H 0.6706 0.1887 0.1411
C31 C 0.6566(5) 0.02553(7) 0.12282(17)
C32 C 0.8399(5) 0.00551(7) 0.1404(2)
H21 H 0.9777 0.0147 0.1558
C33 C 0.8197(6) -0.02783(8) 0.1354(2)
H22 H 0.9434 -0.0410 0.1473
C34 C 0.6149(6) -0.04175(8) 0.1125(2)
H23 H 0.6012 -0.0642 0.1087
C35 C 0.4324(6) -0.02236(8) 0.0956(2)
H24 H 0.2948 -0.0317 0.0809
C36 C 0.4523(5) 0.01077(7) 0.10021(19)
H25 H 0.3275 0.0237 0.0881
C37 C 0.6674(4) 0.06146(7) 0.12519(16)
C38 C 0.8884(4) 0.07937(7) 0.15113(18)
C39 C 0.9983(5) 0.07000(7) 0.23771(18)
C40 C 0.8720(5) 0.07263(7) 0.31026(18)
C41 C 0.6738(5) 0.08907(8) 0.3095(2)
H26 H 0.6143 0.0998 0.2621
C42 C 0.5639(6) 0.08952(9) 0.3791(2)
H27 H 0.4302 0.1005 0.3783
C43 C 0.6504(7) 0.07397(10) 0.4490(2)
H28 H 0.5757 0.0744 0.4957
C44 C 0.8484(7) 0.05752(11) 0.4507(2)
H29 H 0.9065 0.0468 0.4983
C45 C 0.9593(6) 0.05700(9) 0.3822(2)
H30 H 1.0937 0.0461 0.3837
O9 O 1.1887(4) 0.06054(6) 0.24348(14)
O10 O 0.5058(3) 0.07826(5) 0.10522(13)
O11 O 0.8569(3) 0.11291(5) 0.15435(14)
H37 H 0.7518 0.1181 0.1212
O12 O 1.0264(3) 0.07078(5) 0.09083(12)
H38 H 1.1555 0.0744 0.1083
C46 C 0.5003(8) 0.00748(13) 0.6692(3)
H31 H 0.4431 0.0064 0.7222
H32 H 0.5215 -0.0146 0.6507
Cl1 Cl 0.3111(3) 0.02639(5) 0.60057(14)
Cl2 Cl 0.7482(3) 0.02685(5) 0.68053(11)
loop_
_geom_bond_atom_site_label_1
_geom_bond_atom_site_label_2
_geom_bond_site_symmetry_1
_geom_bond_site_symmetry_2
C1 H1 1_555 1_555
C2 C1 1_555 1_555
H2 C2 1_555 1_555
C3 C2 1_555 1_555
H3 C3 1_555 1_555
C4 C3 1_555 1_555
H4 C4 1_555 1_555
C5 C4 1_555 1_555
H5 C5 1_555 1_555
C6 C1 1_555 1_555
C7 C6 1_555 1_555
C8 C7 1_555 1_555
C9 C8 1_555 1_555
C10 C9 1_555 1_555
C11 C10 1_555 1_555
H6 C11 1_555 1_555
C12 C11 1_555 1_555
H7 C12 1_555 1_555
C13 C12 1_555 1_555
H8 C13 1_555 1_555
C14 C13 1_555 1_555
H9 C14 1_555 1_555
C15 C10 1_555 1_555
H10 C15 1_555 1_555
C16 H11 1_555 1_555
C17 C16 1_555 1_555
H12 C17 1_555 1_555
C18 C17 1_555 1_555
H13 C18 1_555 1_555
C19 C18 1_555 1_555
H14 C19 1_555 1_555
C20 C19 1_555 1_555
H15 C20 1_555 1_555
C21 C16 1_555 1_555
C22 C21 1_555 1_555
C23 C22 1_555 1_555
C24 C23 1_555 1_555
C25 C24 1_555 1_555
C26 C25 1_555 1_555
H16 C26 1_555 1_555
C27 C26 1_555 1_555
H17 C27 1_555 1_555
C28 C27 1_555 1_555
H18 C28 1_555 1_555
C29 C28 1_555 1_555
H19 C29 1_555 1_555
C30 C25 1_555 1_555
H20 C30 1_555 1_555
C31 C32 1_555 1_555
C32 H21 1_555 1_555
C33 C32 1_555 1_555
H22 C33 1_555 1_555
C34 C33 1_555 1_555
H23 C34 1_555 1_555
C35 C34 1_555 1_555
H24 C35 1_555 1_555
C36 C31 1_555 1_555
H25 C36 1_555 1_555
C37 C31 1_555 1_555
C38 C37 1_555 1_555
C39 C38 1_555 1_555
C40 C39 1_555 1_555
C41 C40 1_555 1_555
H26 C41 1_555 1_555
C42 C41 1_555 1_555
H27 C42 1_555 1_555
C43 C42 1_555 1_555
H28 C43 1_555 1_555
C44 C43 1_555 1_555
H29 C44 1_555 1_555
C45 C40 1_555 1_555
H30 C45 1_555 1_555
C46 H31 1_555 1_555
H32 C46 1_555 1_555
Cl1 C46 1_555 1_555
Cl2 C46 1_555 1_555
O1 C7 1_555 1_555
O2 C9 1_555 1_555
O3 C8 1_555 1_555
H33 O3 1_555 1_555
O4 C8 1_555 1_555
H34 O4 1_555 1_555
O5 C22 1_555 1_555
O6 C24 1_555 1_555
O7 C23 1_555 1_555
H35 O7 1_555 1_555
O8 C23 1_555 1_555
H36 O8 1_555 1_555
O9 C39 1_555 1_555
O10 C37 1_555 1_555
O11 C38 1_555 1_555
H37 O11 1_555 1_555
O12 C38 1_555 1_555
H38 O12 1_555 1_555
C5 C6 1_555 1_555
C14 C15 1_555 1_555
C20 C21 1_555 1_555
C29 C30 1_555 1_555
C35 C36 1_555 1_555
C44 C45 1_555 1_555

#END
