
#######################################################################
#
#                 Cambridge Crystallographic Data Centre
#                                CCDC 
#
#######################################################################
#
# If this CIF has been generated from an entry in the Cambridge 
# Structural Database, then it will include bibliographic, chemical, 
# crystal, experimental, refinement or atomic coordinate data resulting 
# from the CCDC's data processing and validation procedures.
#
#######################################################################

data_PAMFUF
_chemical_formula_moiety         'C19 H38 N4 O1 S1'
_chemical_name_systematic        
2-((((2-Dimethylaminocyclohexyl)amino)thiocarbonyl)amino)-N,N-diethyl-3,3-dimethylbutanamide
_symmetry_cell_setting           monoclinic
_symmetry_space_group_name_H-M   'P 21'
_symmetry_Int_Tables_number      4
_space_group_name_Hall           'P 2yb'
loop_
_symmetry_equiv_pos_site_id
_symmetry_equiv_pos_as_xyz
1 x,y,z
2 -x,1/2+y,-z
_cell_length_a                   11.702(1)
_cell_length_b                   13.351(1)
_cell_length_c                   14.156(1)
_cell_angle_alpha                90
_cell_angle_beta                 100.81(1)
_cell_angle_gamma                90
_cell_volume                     2172.39
_exptl_crystal_colour            colorless
_exptl_crystal_description       needle
_cell_formula_units_Z            4
loop_
_atom_site_label
_atom_site_type_symbol
_atom_site_fract_x
_atom_site_fract_y
_atom_site_fract_z
S1 S 0.57365(6) 0.33409(6) 0.85028(5)
O1 O 0.48898(15) 0.65159(14) 0.77133(12)
N1 N 0.60254(18) 0.63852(17) 0.91763(15)
N2 N 0.19335(19) 0.37431(17) 0.64357(15)
N3 N 0.43214(18) 0.35091(17) 0.68057(15)
N4 N 0.56967(18) 0.47362(16) 0.71415(15)
C1 C 0.5215(2) 0.38904(19) 0.74374(17)
C2 C 0.3634(2) 0.2655(2) 0.70034(18)
H1 H 0.358(2) 0.2676(17) 0.7639(18)
C3 C 0.7442(2) 0.5846(2) 0.73205(17)
C4 C 0.2404(2) 0.2724(2) 0.63935(18)
H2 H 0.253(2) 0.2612(18) 0.5774(18)
C5 C 0.5748(2) 0.61285(19) 0.82416(17)
C6 C 0.6483(2) 0.5366(2) 0.78103(17)
H3 H 0.687(2) 0.495(2) 0.8327(18)
C7 C 0.5263(2) 0.7110(2) 0.95357(19)
H4 H 0.545(2) 0.706(2) 1.0264(19)
H5 H 0.438(2) 0.6853(19) 0.9271(18)
C8 C 0.8295(3) 0.5023(2) 0.7174(2)
H6 H 0.889(2) 0.530(2) 0.6906(18)
H7 H 0.790(3) 0.452(3) 0.673(2)
H8 H 0.865(3) 0.470(2) 0.786(2)
C9 C 0.0783(3) 0.3844(3) 0.5816(2)
H9 H 0.014(3) 0.352(3) 0.607(2)
H10 H 0.083(3) 0.353(2) 0.517(2)
H11 H 0.060(2) 0.457(2) 0.5709(19)
C10 C 0.4189(3) 0.1648(2) 0.6830(2)
H12 H 0.505(3) 0.165(2) 0.720(2)
H13 H 0.420(2) 0.158(2) 0.616(2)
C11 C 0.6948(3) 0.6334(2) 0.6357(2)
H14 H 0.641(3) 0.686(2) 0.6463(19)
H15 H 0.658(3) 0.588(2) 0.591(2)
H16 H 0.763(2) 0.664(2) 0.6061(19)
C12 C 0.3453(3) 0.0784(2) 0.7102(2)
H17 H 0.386(3) 0.009(3) 0.697(2)
H18 H 0.347(2) 0.0805(18) 0.7845(18)
C13 C 0.2215(3) 0.0841(2) 0.6532(2)
H19 H 0.172(2) 0.029(2) 0.6730(17)
H20 H 0.217(3) 0.076(2) 0.579(2)
C14 C 0.1658(2) 0.1860(2) 0.6658(2)
H21 H 0.089(3) 0.190(2) 0.625(2)
H22 H 0.153(2) 0.196(2) 0.733(2)
C15 C 0.8109(3) 0.6653(2) 0.7977(2)
H23 H 0.853(3) 0.636(3) 0.861(2)
H24 H 0.761(3) 0.721(2) 0.8103(19)
H25 H 0.876(2) 0.699(2) 0.7667(18)
C16 C 0.6906(3) 0.5907(3) 0.9915(2)
H26 H 0.739(3) 0.539(2) 0.958(2)
H27 H 0.645(2) 0.553(2) 1.034(2)
C17 C 0.7756(3) 0.6651(4) 1.0470(3)
H28 H 0.831(4) 0.628(4) 1.096(4)
H29 H 0.738(3) 0.713(3) 1.083(2)
H30 H 0.821(3) 0.708(3) 1.000(3)
C18 C 0.1893(3) 0.4100(3) 0.7396(2)
H31 H 0.161(3) 0.478(3) 0.735(2)
H32 H 0.265(3) 0.416(2) 0.778(2)
H33 H 0.128(3) 0.366(2) 0.768(2)
C19 C 0.5453(5) 0.8172(3) 0.9237(3)
H34 H 0.494(3) 0.868(3) 0.950(3)
H35 H 0.521(3) 0.829(3) 0.851(3)
H36 H 0.632(3) 0.829(3) 0.945(2)
H37 H 0.528(2) 0.5056(19) 0.6682(19)
H38 H 0.404(2) 0.389(2) 0.640(2)
S2 S 1.04062(6) 0.70832(5) 0.63954(4)
O2 O 1.38252(15) 0.52482(13) 0.54489(12)
N5 N 1.26269(19) 0.65884(17) 0.63973(14)
N6 N 1.22208(19) 0.70171(17) 0.78568(14)
C20 C 1.2438(2) 0.65814(19) 0.53557(16)
H39 H 1.160(2) 0.6669(18) 0.5137(16)
N7 N 1.22441(18) 0.50816(15) 0.42742(14)
C21 C 1.2759(2) 0.4164(2) 0.3952(2)
H40 H 1.211(2) 0.3762(18) 0.3624(17)
H41 H 1.315(2) 0.3768(19) 0.4510(19)
N8 N 1.2400(2) 0.59930(16) 0.96409(15)
C22 C 1.2034(2) 0.7047(2) 0.95732(17)
H42 H 1.276(2) 0.747(2) 0.9744(19)
C23 C 1.2868(2) 0.55784(19) 0.50316(17)
C24 C 1.2788(3) 0.7458(2) 0.38529(19)
H43 H 1.190(3) 0.749(2) 0.354(2)
H44 H 1.310(2) 0.686(2) 0.3602(19)
H45 H 1.309(3) 0.805(3) 0.358(2)
C25 C 1.1047(2) 0.5302(2) 0.37757(19)
H46 H 1.077(3) 0.590(2) 0.411(2)
H47 H 1.052(2) 0.473(2) 0.3868(18)
C26 C 1.3036(2) 0.74942(19) 0.49474(17)
C27 C 1.1344(3) 0.8490(2) 0.84988(19)
H48 H 1.219(3) 0.885(2) 0.870(2)
H49 H 1.105(2) 0.869(2) 0.777(2)
C28 C 1.0942(3) 0.5492(2) 0.2707(2)
H50 H 1.011(3) 0.569(2) 0.242(2)
H51 H 1.119(2) 0.485(2) 0.237(2)
H52 H 1.144(3) 0.612(3) 0.253(3)
C29 C 1.4348(2) 0.7494(2) 0.5313(2)
H53 H 1.469(2) 0.807(2) 0.5094(19)
H54 H 1.474(2) 0.690(2) 0.5090(19)
H55 H 1.458(2) 0.751(2) 0.607(2)
C30 C 1.3659(3) 0.4385(3) 0.3341(2)
H56 H 1.396(2) 0.376(2) 0.311(2)
H57 H 1.432(3) 0.473(3) 0.371(2)
H58 H 1.331(2) 0.475(2) 0.277(2)
C31 C 1.1200(2) 0.7356(2) 1.0239(2)
H59 H 1.150(2) 0.719(2) 1.090(2)
H60 H 1.042(2) 0.697(2) 0.9997(19)
C32 C 1.0977(3) 0.8483(2) 1.0194(2)
H61 H 1.043(3) 0.863(2) 1.061(2)
H62 H 1.171(3) 0.883(3) 1.048(2)
C33 C 1.1817(2) 0.68929(19) 0.69051(17)
C34 C 1.1507(2) 0.7357(2) 0.85388(17)
H63 H 1.073(2) 0.7037(18) 0.8322(15)
C35 C 1.2532(3) 0.8457(2) 0.5286(2)
H64 H 1.293(2) 0.907(2) 0.501(2)
H65 H 1.273(2) 0.857(2) 0.597(2)
H66 H 1.174(3) 0.851(2) 0.506(2)
C36 C 1.0529(3) 0.8830(3) 0.9169(2)
H67 H 1.047(3) 0.953(3) 0.912(2)
H68 H 0.974(2) 0.8539(19) 0.8920(18)
C37 C 1.3113(3) 0.5759(3) 1.0581(2)
H69 H 1.260(3) 0.568(2) 1.107(2)
H70 H 1.367(3) 0.629(3) 1.082(2)
H71 H 1.355(3) 0.513(2) 1.054(2)
C38 C 1.1443(3) 0.5286(3) 0.9410(2)
H72 H 1.084(3) 0.528(3) 0.986(2)
H73 H 1.178(2) 0.460(2) 0.940(2)
H74 H 1.096(3) 0.544(2) 0.873(2)
H75 H 1.335(3) 0.648(2) 0.670(2)
H76 H 1.290(2) 0.686(2) 0.8090(19)
loop_
_geom_bond_atom_site_label_1
_geom_bond_atom_site_label_2
_geom_bond_site_symmetry_1
_geom_bond_site_symmetry_2
S1 C1 1_555 1_555
O1 C5 1_555 1_555
N1 C5 1_555 1_555
N2 C4 1_555 1_555
N3 C1 1_555 1_555
N4 C1 1_555 1_555
C2 N3 1_555 1_555
H1 C2 1_555 1_555
C3 C6 1_555 1_555
C4 C2 1_555 1_555
H2 C4 1_555 1_555
C5 C6 1_555 1_555
C6 N4 1_555 1_555
H3 C6 1_555 1_555
C7 N1 1_555 1_555
H4 C7 1_555 1_555
H5 C7 1_555 1_555
C8 C3 1_555 1_555
H6 C8 1_555 1_555
H7 C8 1_555 1_555
H8 C8 1_555 1_555
C9 N2 1_555 1_555
H9 C9 1_555 1_555
H10 C9 1_555 1_555
H11 C9 1_555 1_555
C10 C2 1_555 1_555
H12 C10 1_555 1_555
H13 C10 1_555 1_555
C11 C3 1_555 1_555
H14 C11 1_555 1_555
H15 C11 1_555 1_555
H16 C11 1_555 1_555
C12 C10 1_555 1_555
H17 C12 1_555 1_555
H18 C12 1_555 1_555
C13 C12 1_555 1_555
H19 C13 1_555 1_555
H20 C13 1_555 1_555
C14 C4 1_555 1_555
H21 C14 1_555 1_555
H22 C14 1_555 1_555
C15 C3 1_555 1_555
H23 C15 1_555 1_555
H24 C15 1_555 1_555
H25 C15 1_555 1_555
C16 N1 1_555 1_555
H26 C16 1_555 1_555
H27 C16 1_555 1_555
C17 C16 1_555 1_555
H28 C17 1_555 1_555
H29 C17 1_555 1_555
H30 C17 1_555 1_555
C18 N2 1_555 1_555
H31 C18 1_555 1_555
H32 C18 1_555 1_555
H33 C18 1_555 1_555
C19 C7 1_555 1_555
H34 C19 1_555 1_555
H35 C19 1_555 1_555
H36 C19 1_555 1_555
H37 N4 1_555 1_555
H38 N3 1_555 1_555
S2 C33 1_555 1_555
O2 C23 1_555 1_555
N5 C20 1_555 1_555
N6 C33 1_555 1_555
C20 H39 1_555 1_555
N7 C21 1_555 1_555
C21 H40 1_555 1_555
H41 C21 1_555 1_555
N8 C22 1_555 1_555
C22 H42 1_555 1_555
C23 C20 1_555 1_555
C24 H43 1_555 1_555
H44 C24 1_555 1_555
H45 C24 1_555 1_555
C25 N7 1_555 1_555
H46 C25 1_555 1_555
H47 C25 1_555 1_555
C26 C20 1_555 1_555
C27 H48 1_555 1_555
H49 C27 1_555 1_555
C28 C25 1_555 1_555
H50 C28 1_555 1_555
H51 C28 1_555 1_555
H52 C28 1_555 1_555
C29 C26 1_555 1_555
H53 C29 1_555 1_555
H54 C29 1_555 1_555
H55 C29 1_555 1_555
C30 C21 1_555 1_555
H56 C30 1_555 1_555
H57 C30 1_555 1_555
H58 C30 1_555 1_555
C31 C22 1_555 1_555
H59 C31 1_555 1_555
H60 C31 1_555 1_555
C32 C31 1_555 1_555
H61 C32 1_555 1_555
H62 C32 1_555 1_555
C33 N5 1_555 1_555
C34 N6 1_555 1_555
H63 C34 1_555 1_555
C35 C26 1_555 1_555
H64 C35 1_555 1_555
H65 C35 1_555 1_555
H66 C35 1_555 1_555
C36 C27 1_555 1_555
H67 C36 1_555 1_555
H68 C36 1_555 1_555
C37 N8 1_555 1_555
H69 C37 1_555 1_555
H70 C37 1_555 1_555
H71 C37 1_555 1_555
C38 N8 1_555 1_555
H72 C38 1_555 1_555
H73 C38 1_555 1_555
H74 C38 1_555 1_555
H75 N5 1_555 1_555
H76 N6 1_555 1_555
C13 C14 1_555 1_555
N7 C23 1_555 1_555
C22 C34 1_555 1_555
C24 C26 1_555 1_555
C27 C34 1_555 1_555
C32 C36 1_555 1_555

#END
