
#######################################################################
#
#                 Cambridge Crystallographic Data Centre
#                                CCDC 
#
#######################################################################
#
# If this CIF has been generated from an entry in the Cambridge 
# Structural Database, then it will include bibliographic, chemical, 
# crystal, experimental, refinement or atomic coordinate data resulting 
# from the CCDC's data processing and validation procedures.
#
#######################################################################

data_PAMHET
_chemical_formula_moiety         'C60,C28 H18 N2 S8'
_chemical_name_systematic        
'C60fullerene 2,3-bis(2-pyridylsulfanyl)-6,7-diphenyltetrathiafulvalene'
_symmetry_cell_setting           triclinic
_symmetry_space_group_name_H-M   'P 1'
_symmetry_Int_Tables_number      1
_space_group_name_Hall           'P 1'
loop_
_symmetry_equiv_pos_site_id
_symmetry_equiv_pos_as_xyz
1 x,y,z
_cell_length_a                   10.3135(4)
_cell_length_b                   10.3164(6)
_cell_length_c                   13.7643(11)
_cell_angle_alpha                68.271(7)
_cell_angle_beta                 86.126(5)
_cell_angle_gamma                79.343(4)
_cell_volume                     1336.97
_exptl_crystal_colour            'dark black'
_exptl_crystal_description       block
_cell_formula_units_Z            1
loop_
_atom_site_label
_atom_site_type_symbol
_atom_site_fract_x
_atom_site_fract_y
_atom_site_fract_z
S1 S -0.4228(6) -0.0134(6) -0.8488(5)
S2 S -0.4019(6) -0.1947(7) -0.5911(5)
S3 S -0.4593(7) 0.1800(7) -1.0623(6)
S4 S -0.5381(6) -0.5802(7) -0.3902(5)
S5 S -0.5938(6) -0.2055(6) -0.8629(5)
S6 S -0.3337(8) -0.3768(8) -0.3723(6)
S7 S -0.5778(7) -0.3744(7) -0.6211(5)
S8 S -0.6621(7) -0.0194(7) -1.0896(6)
C1 C -0.6349(18) -0.1707(17) -1.1153(17)
C2 C -0.7428(15) -0.1886(18) -1.1613(16)
H1 H -0.8188 -0.1202 -1.1757
C3 C -0.7370(15) -0.309(2) -1.1858(16)
H2 H -0.8092 -0.3207 -1.2167
C4 C -0.6233(19) -0.4109(17) -1.1643(17)
H3 H -0.6195 -0.4913 -1.1807
C5 C -0.5155(15) -0.3930(18) -1.1182(16)
H4 H -0.4394 -0.4614 -1.1038
C6 C -0.575(2) -0.058(2) -0.9811(19)
C7 C -0.447(3) -0.338(3) -0.487(2)
C8 C -0.7453(14) -0.6426(14) -0.2673(12)
H5 H -0.6887 -0.7260 -0.2311
C9 C -0.6988(11) -0.5382(17) -0.3518(13)
C10 C -0.7835(15) -0.4136(15) -0.4058(11)
H6 H -0.7524 -0.3437 -0.4624
C11 C -0.9146(14) -0.3935(13) -0.3754(12)
H7 H -0.9712 -0.3101 -0.4115
C12 C -0.9611(11) -0.4979(17) -0.2909(13)
H8 H -1.0489 -0.4845 -0.2705
C13 C -0.8765(15) -0.6225(15) -0.2368(11)
H9 H -0.9076 -0.6924 -0.1803
C14 C -0.508(3) -0.159(3) -0.788(2)
C15 C -0.498(2) -0.232(3) -0.6863(19)
C16 C -0.504(2) -0.420(3) -0.4958(19)
C17 C -0.476(3) 0.020(3) -0.970(2)
C18 C -0.2063(18) 0.0133(16) -1.0483(12)
H10 H -0.2314 -0.0549 -0.9875
C19 C -0.0825(17) -0.0108(17) -1.0914(16)
H11 H -0.0249 -0.0952 -1.0594
C20 C -0.0449(15) 0.091(2) -1.1822(15)
H12 H 0.0379 0.0751 -1.2110
C21 C -0.1311(18) 0.2173(18) -1.2300(12)
H13 H -0.1059 0.2855 -1.2907
C22 C -0.2924(14) 0.1394(18) -1.0960(13)
C23 C -0.2658(12) -0.1805(15) -0.3055(13)
H14 H -0.1855 -0.2422 -0.2900
C24 C -0.3640(14) -0.2073(13) -0.3563(13)
C25 C -0.4840(12) -0.1152(15) -0.3794(12)
H15 H -0.5497 -0.1331 -0.4134
C26 C -0.5059(12) 0.0038(15) -0.3518(14)
H16 H -0.5862 0.0654 -0.3673
C27 C -0.4077(15) 0.0305(15) -0.3010(15)
H17 H -0.4224 0.1101 -0.2825
C28 C -0.2877(13) -0.0616(17) -0.2779(13)
H18 H -0.2220 -0.0437 -0.2439
N1 N -0.5212(15) -0.273(2) -1.0937(16)
N2 N -0.2548(16) 0.2414(15) -1.1869(13)
C31 C 0.1956(16) -0.887(3) -0.513(2)
C32 C 0.096(2) -0.8120(19) -0.4675(16)
C33 C -0.0189(17) -0.873(2) -0.455(2)
C34 C 0.009(2) -0.986(2) -0.4927(18)
C35 C 0.142(2) -0.995(3) -0.528(2)
C36 C 0.3158(15) -0.715(2) -0.8497(13)
C37 C 0.2627(18) -0.8216(15) -0.8683(15)
C38 C 0.1664(17) -0.753(2) -0.9485(14)
C39 C 0.1600(19) -0.6047(18) -0.9796(14)
C40 C 0.252(2) -0.5812(16) -0.9185(16)
C41 C -0.2003(18) -0.932(2) -0.5694(13)
C42 C -0.2487(15) -0.913(2) -0.6689(15)
C43 C -0.151(2) -0.985(2) -0.7172(13)
C44 C -0.0424(17) -1.050(2) -0.6475(16)
C45 C -0.0728(17) -1.017(2) -0.5561(13)
C46 C 0.2509(15) -0.4937(19) -0.7745(14)
C47 C 0.2195(19) -0.473(2) -0.8787(14)
C48 C 0.0969(19) -0.379(2) -0.9054(12)
C49 C 0.0525(16) -0.3421(19) -0.8178(15)
C50 C 0.1476(19) -0.413(2) -0.7369(11)
C51 C 0.1870(16) -0.595(2) -0.5685(18)
C52 C 0.1150(19) -0.4624(17) -0.6320(15)
C53 C -0.0199(17) -0.459(2) -0.603(2)
C54 C -0.031(2) -0.590(3) -0.521(2)
C55 C 0.097(3) -0.674(2) -0.5001(17)
C56 C 0.338(2) -0.8536(15) -0.6784(15)
C57 C 0.3498(19) -0.725(2) -0.7621(11)
C58 C 0.315(2) -0.6126(15) -0.7237(15)
C59 C 0.283(2) -0.672(2) -0.6162(14)
C60 C 0.297(2) -0.8212(19) -0.5882(11)
C61 C 0.0410(14) -0.8132(18) -0.9472(13)
C62 C 0.0246(15) -0.9391(15) -0.8621(13)
C63 C -0.1092(17) -0.9243(17) -0.8296(14)
C64 C -0.1755(13) -0.7892(19) -0.8946(15)
C65 C -0.0826(18) -0.7205(14) -0.9673(12)
C66 C -0.287(2) -0.5577(19) -0.8871(13)
C67 C -0.286(2) -0.705(2) -0.8595(15)
C68 C -0.321(2) -0.7614(16) -0.7523(16)
C69 C -0.343(2) -0.649(2) -0.7135(13)
C70 C -0.3218(19) -0.5234(16) -0.7969(17)
C71 C -0.1049(19) -0.5593(18) -0.9968(17)
C72 C -0.2055(13) -0.4855(19) -0.9515(16)
C73 C -0.1510(16) -0.3826(17) -0.9295(15)
C74 C -0.0168(15) -0.3928(19) -0.9611(17)
C75 C 0.0117(15) -0.502(2) -1.0027(16)
C76 C -0.1231(17) -0.3805(19) -0.6837(11)
C77 C -0.0858(18) -0.3244(19) -0.7904(13)
C78 C -0.174(2) -0.355(2) -0.8504(11)
C79 C -0.2658(19) -0.431(2) -0.7807(17)
C80 C -0.2343(19) -0.446(2) -0.6777(13)
C81 C 0.188(2) -1.039(2) -0.6322(12)
C82 C 0.0893(19) -1.055(3) -0.6920(18)
C83 C 0.121(2) -0.992(3) -0.7994(15)
C84 C 0.2394(19) -0.938(2) -0.8061(12)
C85 C 0.2812(15) -0.967(2) -0.7028(15)
C86 C -0.1355(19) -0.649(2) -0.5063(17)
C87 C -0.243(2) -0.5816(15) -0.5766(16)
C88 C -0.2993(16) -0.688(2) -0.5921(15)
C89 C -0.2263(18) -0.8219(16) -0.5314(16)
C90 C -0.1251(16) -0.7980(19) -0.4783(14)
C29? C -0.5212(15) -0.273(2) -1.0937(16)
H19? H -0.4490 -0.2610 -1.0629
C30? C -0.2548(16) 0.2414(15) -1.1869(13)
H20? H -0.3125 0.3258 -1.2188
N3? N -0.7835(15) -0.4136(15) -0.4058(11)
N4? N -0.2063(18) 0.0133(16) -1.0483(12)
N5? N -0.7453(14) -0.6426(14) -0.2673(12)
N6? N -0.2658(12) -0.1805(15) -0.3055(13)
N7? N -0.7428(15) -0.1886(18) -1.1613(16)
N8? N -0.4840(12) -0.1152(15) -0.3794(12)
loop_
_geom_bond_atom_site_label_1
_geom_bond_atom_site_label_2
_geom_bond_site_symmetry_1
_geom_bond_site_symmetry_2
S1 C14 1_555 1_555
S2 C7 1_555 1_555
S3 C17 1_555 1_555
S4 C9 1_555 1_555
S5 C6 1_555 1_555
S6 C7 1_555 1_555
S7 C15 1_555 1_555
S8 C1 1_555 1_555
C1 C2 1_555 1_555
C2 H1 1_555 1_555
C3 C2 1_555 1_555
H2 C3 1_555 1_555
C4 C3 1_555 1_555
H3 C4 1_555 1_555
C5 C4 1_555 1_555
H4 C5 1_555 1_555
C6 S8 1_555 1_555
C7 C16 1_555 1_555
C8 H5 1_555 1_555
C9 C8 1_555 1_555
C10 C9 1_555 1_555
H6 C10 1_555 1_555
C11 C10 1_555 1_555
H7 C11 1_555 1_555
C12 C11 1_555 1_555
H8 C12 1_555 1_555
C13 C8 1_555 1_555
H9 C13 1_555 1_555
C14 S5 1_555 1_555
C15 S2 1_555 1_555
C16 S4 1_555 1_555
C17 S1 1_555 1_555
C18 H10 1_555 1_555
C19 C18 1_555 1_555
H11 C19 1_555 1_555
C20 C19 1_555 1_555
H12 C20 1_555 1_555
C21 C20 1_555 1_555
H13 C21 1_555 1_555
C22 S3 1_555 1_555
C23 H14 1_555 1_555
C24 S6 1_555 1_555
C25 C24 1_555 1_555
H15 C25 1_555 1_555
C26 C25 1_555 1_555
H16 C26 1_555 1_555
C27 C26 1_555 1_555
H17 C27 1_555 1_555
C28 C23 1_555 1_555
H18 C28 1_555 1_555
N1 C1 1_555 1_555
N2 C21 1_555 1_555
C31 C32 1_555 1_555
C32 C33 1_555 1_555
C33 C34 1_555 1_555
C34 C35 1_555 1_555
C35 C31 1_555 1_555
C36 C37 1_555 1_555
C37 C38 1_555 1_555
C38 C39 1_555 1_555
C39 C40 1_555 1_555
C40 C36 1_555 1_555
C41 C42 1_555 1_555
C42 C43 1_555 1_555
C43 C44 1_555 1_555
C44 C45 1_555 1_555
C45 C34 1_555 1_555
C46 C47 1_555 1_555
C47 C40 1_555 1_555
C48 C47 1_555 1_555
C49 C48 1_555 1_555
C50 C46 1_555 1_555
C51 C52 1_555 1_555
C52 C50 1_555 1_555
C53 C52 1_555 1_555
C54 C53 1_555 1_555
C55 C32 1_555 1_555
C56 C57 1_555 1_555
C57 C36 1_555 1_555
C58 C46 1_555 1_555
C59 C51 1_555 1_555
C60 C31 1_555 1_555
C61 C38 1_555 1_555
C62 C61 1_555 1_555
C63 C43 1_555 1_555
C64 C63 1_555 1_555
C65 C61 1_555 1_555
C66 C67 1_555 1_555
C67 C64 1_555 1_555
C68 C42 1_555 1_555
C69 C68 1_555 1_555
C70 C66 1_555 1_555
C71 C65 1_555 1_555
C72 C66 1_555 1_555
C73 C72 1_555 1_555
C74 C48 1_555 1_555
C75 C39 1_555 1_555
C76 C53 1_555 1_555
C77 C49 1_555 1_555
C78 C73 1_555 1_555
C79 C70 1_555 1_555
C80 C76 1_555 1_555
C81 C35 1_555 1_555
C82 C44 1_555 1_555
C83 C62 1_555 1_555
C84 C37 1_555 1_555
C85 C56 1_555 1_555
C86 C54 1_555 1_555
C87 C80 1_555 1_555
C88 C69 1_555 1_555
C89 C41 1_555 1_555
C90 C33 1_555 1_555
S7 C16 1_555 1_555
C5 N1 1_555 1_555
C6 C17 1_555 1_555
C12 C13 1_555 1_555
C14 C15 1_555 1_555
C18 C22 1_555 1_555
C22 N2 1_555 1_555
C23 C24 1_555 1_555
C27 C28 1_555 1_555
C41 C45 1_555 1_555
C49 C50 1_555 1_555
C51 C55 1_555 1_555
C54 C55 1_555 1_555
C56 C60 1_555 1_555
C57 C58 1_555 1_555
C58 C59 1_555 1_555
C59 C60 1_555 1_555
C62 C63 1_555 1_555
C64 C65 1_555 1_555
C67 C68 1_555 1_555
C69 C70 1_555 1_555
C71 C72 1_555 1_555
C71 C75 1_555 1_555
C73 C74 1_555 1_555
C74 C75 1_555 1_555
C76 C77 1_555 1_555
C77 C78 1_555 1_555
C78 C79 1_555 1_555
C79 C80 1_555 1_555
C81 C82 1_555 1_555
C81 C85 1_555 1_555
C82 C83 1_555 1_555
C83 C84 1_555 1_555
C84 C85 1_555 1_555
C86 C87 1_555 1_555
C86 C90 1_555 1_555
C87 C88 1_555 1_555
C88 C89 1_555 1_555
C89 C90 1_555 1_555

#END
