
#######################################################################
#
#                 Cambridge Crystallographic Data Centre
#                                CCDC 
#
#######################################################################
#
# If this CIF has been generated from an entry in the Cambridge 
# Structural Database, then it will include bibliographic, chemical, 
# crystal, experimental, refinement or atomic coordinate data resulting 
# from the CCDC's data processing and validation procedures.
#
#######################################################################

data_PANHES
_chemical_formula_moiety         'C15 H9 Cl2 N1 O4 S1'
_chemical_name_systematic        
'2-(3,4-Dichlorobenzoylmethyl)-1,2-benzisothiazol-3(2H)-one 1,1-dioxide'
_symmetry_cell_setting           monoclinic
_symmetry_space_group_name_H-M   'P 21/c'
_symmetry_Int_Tables_number      14
_space_group_name_Hall           '-P 2ybc'
loop_
_symmetry_equiv_pos_site_id
_symmetry_equiv_pos_as_xyz
1 x,y,z
2 -x,1/2+y,1/2-z
3 -x,-y,-z
4 x,1/2-y,1/2+z
_cell_length_a                   7.7987(13)
_cell_length_b                   11.324(2)
_cell_length_c                   17.750(3)
_cell_angle_alpha                90
_cell_angle_beta                 100.625(3)
_cell_angle_gamma                90
_cell_volume                     1540.67
_exptl_crystal_colour            colorless
_exptl_crystal_description       block
_cell_formula_units_Z            4
_exptl_crystal_recrystallization_method 'ethyl acetate'
loop_
_atom_site_label
_atom_site_type_symbol
_atom_site_fract_x
_atom_site_fract_y
_atom_site_fract_z
S1 S 0.07855(8) 0.43182(5) 0.35808(4)
Cl1 Cl 0.17583(12) 0.98246(8) 0.64397(5)
Cl2 Cl 0.29133(12) 1.20555(7) 0.55695(6)
N1 N 0.2365(3) 0.51878(18) 0.40333(13)
O1 O -0.0004(2) 0.37114(17) 0.41285(12)
O2 O -0.0344(2) 0.49609(17) 0.30020(12)
O3 O 0.5313(2) 0.54850(17) 0.41737(13)
O4 O 0.2158(2) 0.73053(17) 0.33223(11)
C1 C 0.4030(3) 0.4921(2) 0.39073(16)
C2 C 0.3934(3) 0.3864(2) 0.34170(14)
C3 C 0.2260(3) 0.3433(2) 0.32015(13)
C4 C 0.1867(3) 0.2454(2) 0.27394(14)
H1 H 0.0730 0.2177 0.2600
C5 C 0.3251(4) 0.1905(2) 0.24945(16)
H2 H 0.3043 0.1242 0.2182
C6 C 0.4929(4) 0.2321(3) 0.27025(17)
H3 H 0.5831 0.1931 0.2529
C7 C 0.5304(3) 0.3300(2) 0.31619(16)
H4 H 0.6442 0.3577 0.3298
C8 C 0.2031(4) 0.6232(2) 0.44586(15)
H5 H 0.2864 0.6265 0.4937
H6 H 0.0871 0.6180 0.4581
C9 C 0.2170(3) 0.7355(2) 0.40054(15)
C10 C 0.2329(3) 0.8500(2) 0.44171(15)
C11 C 0.2025(3) 0.8618(2) 0.51607(15)
H7 H 0.1711 0.7960 0.5418
C12 C 0.2184(3) 0.9706(2) 0.55226(16)
C13 C 0.2675(4) 1.0685(2) 0.51408(19)
C14 C 0.2991(4) 1.0569(3) 0.44049(19)
H8 H 0.3331 1.1224 0.4153
C15 C 0.2806(4) 0.9493(2) 0.40424(17)
H9 H 0.3002 0.9427 0.3543
loop_
_geom_bond_atom_site_label_1
_geom_bond_atom_site_label_2
_geom_bond_site_symmetry_1
_geom_bond_site_symmetry_2
S1 N1 1_555 1_555
Cl1 C12 1_555 1_555
Cl2 C13 1_555 1_555
N1 C1 1_555 1_555
O1 S1 1_555 1_555
O2 S1 1_555 1_555
O3 C1 1_555 1_555
O4 C9 1_555 1_555
C1 C2 1_555 1_555
C2 C3 1_555 1_555
C3 S1 1_555 1_555
C4 C3 1_555 1_555
H1 C4 1_555 1_555
C5 C4 1_555 1_555
H2 C5 1_555 1_555
C6 C5 1_555 1_555
H3 C6 1_555 1_555
C7 C2 1_555 1_555
H4 C7 1_555 1_555
C8 N1 1_555 1_555
H5 C8 1_555 1_555
H6 C8 1_555 1_555
C9 C8 1_555 1_555
C10 C9 1_555 1_555
C11 C10 1_555 1_555
H7 C11 1_555 1_555
C12 C11 1_555 1_555
C13 C12 1_555 1_555
C14 C13 1_555 1_555
H8 C14 1_555 1_555
C15 C10 1_555 1_555
H9 C15 1_555 1_555
C6 C7 1_555 1_555
C14 C15 1_555 1_555

#END
