
#######################################################################
#
#                 Cambridge Crystallographic Data Centre
#                                CCDC 
#
#######################################################################
#
# If this CIF has been generated from an entry in the Cambridge 
# Structural Database, then it will include bibliographic, chemical, 
# crystal, experimental, refinement or atomic coordinate data resulting 
# from the CCDC's data processing and validation procedures.
#
#######################################################################

data_PANNOK
_chemical_formula_moiety         'C18 H17 N1 O2'
_chemical_name_systematic        
3-(1-hydroxy-1-phenylethyl)-1-methylquinolin-2(1H)-one
_symmetry_cell_setting           monoclinic
_symmetry_space_group_name_H-M   'P c'
_symmetry_Int_Tables_number      7
_space_group_name_Hall           'P -2yc'
loop_
_symmetry_equiv_pos_site_id
_symmetry_equiv_pos_as_xyz
1 x,y,z
2 x,-y,1/2+z
_cell_length_a                   5.7511(13)
_cell_length_b                   12.705(3)
_cell_length_c                   9.977(2)
_cell_angle_alpha                90
_cell_angle_beta                 98.772(5)
_cell_angle_gamma                90
_cell_volume                     720.47
_exptl_crystal_colour            colorless
_exptl_crystal_description       prismatic
_cell_formula_units_Z            2
loop_
_atom_site_label
_atom_site_type_symbol
_atom_site_fract_x
_atom_site_fract_y
_atom_site_fract_z
N1 N 0.0133(4) 0.25861(18) 0.2859(2)
O1 O -0.2336(4) 0.31024(18) 0.0988(2)
O2 O -0.2562(4) 0.18150(19) -0.1165(2)
H1 H -0.3237 0.2241 -0.0741
C1 C 0.2085(5) 0.2030(2) 0.3484(3)
C2 C 0.2829(6) 0.2058(3) 0.4886(3)
H2 H 0.2023 0.2470 0.5434
C3 C 0.4748(7) 0.1480(3) 0.5454(3)
H3 H 0.5227 0.1506 0.6387
C4 C 0.5978(6) 0.0861(3) 0.4667(3)
H4 H 0.7259 0.0467 0.5070
C5 C 0.5304(6) 0.0830(2) 0.3293(3)
H5 H 0.6148 0.0421 0.2762
C6 C 0.3346(6) 0.1410(2) 0.2673(3)
C7 C 0.2593(6) 0.1389(2) 0.1244(3)
H6 H 0.3423 0.0980 0.0705
C8 C 0.0740(5) 0.1936(2) 0.0654(3)
C9 C -0.0607(5) 0.2576(2) 0.1475(3)
C10 C -0.1220(7) 0.3228(3) 0.3686(4)
H7 H -0.0233 0.3773 0.4129
H8 H -0.1779 0.2791 0.4355
H9 H -0.2536 0.3539 0.3115
C11 C -0.0080(5) 0.1987(2) -0.0880(3)
C12 C 0.0601(6) 0.3046(2) -0.1445(3)
C13 C 0.2724(6) 0.3516(3) -0.0963(4)
H10 H 0.3672 0.3224 -0.0217
C14 C 0.3479(8) 0.4405(3) -0.1553(5)
H11 H 0.4944 0.4690 -0.1223
C15 C 0.2096(11) 0.4871(3) -0.2616(5)
H12 H 0.2605 0.5472 -0.3018
C16 C -0.0054(11) 0.4441(3) -0.3084(4)
H13 H -0.1020 0.4764 -0.3799
C17 C -0.0826(8) 0.3533(3) -0.2517(3)
H14 H -0.2292 0.3251 -0.2852
C18 C 0.0989(7) 0.1114(3) -0.1639(3)
H15 H 0.0563 0.0442 -0.1310
H16 H 0.2671 0.1182 -0.1496
H17 H 0.0406 0.1168 -0.2591
loop_
_geom_bond_atom_site_label_1
_geom_bond_atom_site_label_2
_geom_bond_site_symmetry_1
_geom_bond_site_symmetry_2
N1 C1 1_555 1_555
O1 C9 1_555 1_555
O2 H1 1_555 1_555
C1 C2 1_555 1_555
C2 H2 1_555 1_555
C3 C2 1_555 1_555
H3 C3 1_555 1_555
C4 C3 1_555 1_555
H4 C4 1_555 1_555
C5 C4 1_555 1_555
H5 C5 1_555 1_555
C6 C1 1_555 1_555
C7 C6 1_555 1_555
H6 C7 1_555 1_555
C8 C7 1_555 1_555
C9 N1 1_555 1_555
C10 N1 1_555 1_555
H7 C10 1_555 1_555
H8 C10 1_555 1_555
H9 C10 1_555 1_555
C11 O2 1_555 1_555
C12 C11 1_555 1_555
C13 C12 1_555 1_555
H10 C13 1_555 1_555
C14 C13 1_555 1_555
H11 C14 1_555 1_555
C15 C14 1_555 1_555
H12 C15 1_555 1_555
C16 C15 1_555 1_555
H13 C16 1_555 1_555
C17 C12 1_555 1_555
H14 C17 1_555 1_555
C18 C11 1_555 1_555
H15 C18 1_555 1_555
H16 C18 1_555 1_555
H17 C18 1_555 1_555
C5 C6 1_555 1_555
C8 C9 1_555 1_555
C8 C11 1_555 1_555
C16 C17 1_555 1_555

#END
