
#######################################################################
#
#                 Cambridge Crystallographic Data Centre
#                                CCDC 
#
#######################################################################
#
# If this CIF has been generated from an entry in the Cambridge 
# Structural Database, then it will include bibliographic, chemical, 
# crystal, experimental, refinement or atomic coordinate data resulting 
# from the CCDC's data processing and validation procedures.
#
#######################################################################

data_PANPZA10
_chemical_formula_moiety         'C42 H37 N7 P4,C1 H2 Cl2'
_chemical_name_systematic        
'N,N-bis(2-Anilino-1,3-diphenyl-1,3,2,4-diazadiphosphetidin-4-yl)aniline dichloromethane solvate'
_symmetry_cell_setting           monoclinic
_symmetry_space_group_name_H-M   'P 21/c'
_symmetry_Int_Tables_number      14
_space_group_name_Hall           '-P 2ybc'
loop_
_symmetry_equiv_pos_site_id
_symmetry_equiv_pos_as_xyz
1 x,y,z
2 -x,1/2+y,1/2-z
3 -x,-y,-z
4 x,1/2-y,1/2+z
_cell_length_a                   15.414(5)
_cell_length_b                   18.668(8)
_cell_length_c                   15.389(6)
_cell_angle_alpha                90
_cell_angle_beta                 103.6(1)
_cell_angle_gamma                90
_cell_volume                     4304
_chemical_melting_point          249-252deg.C
_cell_formula_units_Z            4
loop_
_atom_site_label
_atom_site_type_symbol
_atom_site_fract_x
_atom_site_fract_y
_atom_site_fract_z
P1 P 0.09317(18) 0.20773(13) 0.00493(16)
P2 P 0.06400(16) 0.07186(12) -0.04012(15)
P3 P 0.13697(16) -0.06062(12) -0.08995(15)
P4 P 0.27373(18) -0.12567(13) -0.13088(16)
N1 N 0.1952(5) 0.2371(4) -0.0009(4)
N2 N 0.0593(5) 0.1549(3) -0.0886(4)
N3 N 0.1140(5) 0.1233(3) 0.0501(4)
N4 N 0.1492(4) 0.0294(3) -0.0741(4)
N5 N 0.1785(4) -0.0783(4) -0.1824(4)
N6 N 0.2400(5) -0.0960(4) -0.0385(4)
N7 N 0.3569(5) -0.0691(4) -0.1387(5)
C1 C 0.2318(5) 0.3033(3) 0.0363(4)
C2 C 0.3226(5) 0.3152(4) 0.0450(5)
C3 C 0.3606(4) 0.3801(5) 0.0786(6)
C4 C 0.3078(6) 0.4332(3) 0.1036(5)
C5 C 0.2171(5) 0.4212(3) 0.0949(5)
C6 C 0.1791(4) 0.3563(4) 0.0613(5)
C7 C 0.0107(4) 0.1743(3) -0.17609(28)
C8 C -0.0308(4) 0.12167(22) -0.2356(4)
C9 C -0.0756(4) 0.14038(28) -0.3221(4)
C10 C -0.0789(4) 0.2117(3) -0.3491(3)
C11 C -0.03784(4) 0.26427(23) -0.2895(4)
C12 C 0.0074(4) 0.24556(26) -0.2030(4)
C13 C 0.1473(4) 0.1046(3) 0.1412(3)
C14 C 0.1636(4) 0.03326(27) 0.1661(4)
C15 C 0.1985(5) 0.01567(25) 0.2554(4)
C16 C 0.2170(4) 0.0694(4) 0.3199(3)
C17 C 0.2006(4) 0.1407(3) 0.2950(4)
C18 C 0.1658(4) 0.15827(23) 0.2057(4)
C19 C 0.2276(3) 0.0673(3) -0.0849(4)
C20 C 0.3022(4) 0.0726(3) -0.0137(3)
C21 C 0.3765(3) 0.1113(4) -0.0235(4)
C22 C 0.3762(4) 0.1446(3) -0.1044(5)
C23 C 0.3016(5) 0.1393(3) -0.1756(3)
C24 C 0.2273(4) 0.1006(3) -0.1658(3)
C25 C 0.1343(4) -0.0813(3) -0.27285(28)
C26 C 0.0464(4) -0.0578(3) -0.3003(4)
C27 C 0.0028(3) -0.0613(3) -0.3909(4)
C28 C 0.0470(4) -0.0881(4) -0.45245(29)
C29 C 0.1349(4) -0.1115(3) -0.4250(4)
C30 C 0.1785(3) -0.1081(3) -0.3349(4)
C31 C 0.2652(4) -0.1251(3) 0.0480(3)
C32 C 0.3541(4) -0.1193(4) 0.0942(5)
C33 C 0.3813(4) -0.1462(4) 0.1808(5)
C34 C 0.3196(5) -0.1788(4) 0.2211(4)
C35 C 0.2307(5) -0.1845(4) 0.1748(5)
C36 C 0.2035(3) -0.1576(4) 0.0883(4)
C37 C 0.4292(4) -0.0889(4) -0.1749(4)
C38 C 0.4792(6) -0.0333(3) -0.1986(5)
C39 C 0.5527(5) -0.0485(4) -0.2334(6)
C40 C 0.5763(5) -0.1193(5) -0.2445(6)
C41 C 0.5262(6) -0.1749(4) -0.2208(6)
C42 C 0.4527(5) -0.1597(3) -0.1860(5)
Cl1? Cl -0.452 0.287 -0.007
Cl2? Cl -0.334 0.401 0.033
Cl3? Cl -0.397 0.438 0.056
Cl4? Cl -0.372 0.303 -0.023
Cl5? Cl -0.460 0.430 -0.035
Cl6? Cl -0.392 0.396 -0.046
Cl7? Cl -0.324 0.333 0.029
Cl8? Cl -0.395 0.350 -0.049
loop_
_geom_bond_atom_site_label_1
_geom_bond_atom_site_label_2
_geom_bond_site_symmetry_1
_geom_bond_site_symmetry_2
P1 N1 1_555 1_555
P2 N2 1_555 1_555
P3 N4 1_555 1_555
P4 N5 1_555 1_555
N1 C1 1_555 1_555
N2 P1 1_555 1_555
N3 P1 1_555 1_555
N4 P2 1_555 1_555
N5 P3 1_555 1_555
N6 P3 1_555 1_555
N7 P4 1_555 1_555
C1 C2 1_555 1_555
C2 C3 1_555 1_555
C3 C4 1_555 1_555
C4 C5 1_555 1_555
C5 C6 1_555 1_555
C6 C1 1_555 1_555
C7 N2 1_555 1_555
C8 C7 1_555 1_555
C9 C8 1_555 1_555
C10 C9 1_555 1_555
C11 C10 1_555 1_555
C12 C7 1_555 1_555
C13 N3 1_555 1_555
C14 C13 1_555 1_555
C15 C14 1_555 1_555
C16 C15 1_555 1_555
C17 C16 1_555 1_555
C18 C13 1_555 1_555
C19 N4 1_555 1_555
C20 C19 1_555 1_555
C21 C20 1_555 1_555
C22 C21 1_555 1_555
C23 C22 1_555 1_555
C24 C19 1_555 1_555
C25 N5 1_555 1_555
C26 C25 1_555 1_555
C27 C26 1_555 1_555
C28 C27 1_555 1_555
C29 C28 1_555 1_555
C30 C25 1_555 1_555
C31 N6 1_555 1_555
C32 C31 1_555 1_555
C33 C32 1_555 1_555
C34 C33 1_555 1_555
C35 C34 1_555 1_555
C36 C31 1_555 1_555
C37 N7 1_555 1_555
C38 C37 1_555 1_555
C39 C38 1_555 1_555
C40 C39 1_555 1_555
C41 C40 1_555 1_555
C42 C37 1_555 1_555
P2 N3 1_555 1_555
P4 N6 1_555 1_555
C11 C12 1_555 1_555
C17 C18 1_555 1_555
C23 C24 1_555 1_555
C29 C30 1_555 1_555
C35 C36 1_555 1_555
C41 C42 1_555 1_555

#END
