
#######################################################################
#
#                 Cambridge Crystallographic Data Centre
#                                CCDC 
#
#######################################################################
#
# If this CIF has been generated from an entry in the Cambridge 
# Structural Database, then it will include bibliographic, chemical, 
# crystal, experimental, refinement or atomic coordinate data resulting 
# from the CCDC's data processing and validation procedures.
#
#######################################################################

data_PAPHEW
_chemical_compound_source        
'isolated from the whole plant of Salvia plebeia R. Br'
_chemical_name_common            'Plebein B'
_chemical_formula_moiety         'C15 H24 O2'
_chemical_name_systematic        
5-isopropyl-2-methyl-8-methylenetricyclo[4.4.0.0^2,7^]decane-3,9-diol
_symmetry_cell_setting           monoclinic
_symmetry_space_group_name_H-M   'C 2'
_symmetry_Int_Tables_number      5
_space_group_name_Hall           'C 2y'
loop_
_symmetry_equiv_pos_site_id
_symmetry_equiv_pos_as_xyz
1 x,y,z
2 -x,y,-z
3 1/2+x,1/2+y,z
4 1/2-x,1/2+y,-z
_cell_length_a                   18.8498(4)
_cell_length_b                   18.3097(4)
_cell_length_c                   18.3627(4)
_cell_angle_alpha                90
_cell_angle_beta                 117.3280(10)
_cell_angle_gamma                90
_cell_volume                     5630.28
_exptl_crystal_colour            colorless
_exptl_crystal_description       plate
_cell_formula_units_Z            16
loop_
_atom_site_label
_atom_site_type_symbol
_atom_site_fract_x
_atom_site_fract_y
_atom_site_fract_z
O1 O 0.5778(2) -0.1542(2) 0.8309(4)
H1 H 0.5976 -0.1880 0.8172
O2 O 0.5449(3) 0.1734(2) 0.7520(3)
H2 H 0.5621 0.2137 0.7484
C1 C 0.6129(3) 0.0572(2) 0.7791(4)
C2 C 0.5477(2) 0.0223(2) 0.7982(3)
H3 H 0.5094 0.0567 0.8016
C3 C 0.5853(3) -0.0300(3) 0.8683(3)
C4 C 0.6294(3) -0.0930(3) 0.8536(5)
H4 H 0.6769 -0.1041 0.9050
C5 C 0.6556(4) -0.0756(3) 0.7877(5)
H5 H 0.7114 -0.0614 0.8141
H6 H 0.6504 -0.1192 0.7557
C6 C 0.6059(3) -0.0145(3) 0.7308(4)
H7 H 0.6123 -0.0085 0.6811
C7 C 0.5179(3) -0.0193(3) 0.7163(3)
H8 H 0.4992 -0.0691 0.7173
C8 C 0.4601(4) 0.0271(3) 0.6442(4)
H9 H 0.4202 0.0469 0.6590
C9 C 0.5066(5) 0.0917(4) 0.6349(5)
H10 H 0.4697 0.1316 0.6085
H11 H 0.5293 0.0775 0.5991
C10 C 0.5741(4) 0.1194(3) 0.7162(4)
H12 H 0.6154 0.1417 0.7050
C11 C 0.6913(3) 0.0827(3) 0.8481(5)
H13 H 0.7122 0.0457 0.8897
H14 H 0.6829 0.1269 0.8712
H15 H 0.7287 0.0917 0.8271
C12 C 0.5757(3) -0.0264(4) 0.9343(4)
H16 H 0.5442 0.0102 0.9396
H17 H 0.6005 -0.0604 0.9761
C13 C 0.4152(6) -0.0150(5) 0.5641(5)
H18 H 0.4553 -0.0388 0.5522
C14 C 0.3624(7) -0.0769(6) 0.5734(5)
H19 H 0.3237 -0.0557 0.5874
H20 H 0.3958 -0.1101 0.6159
H21 H 0.3354 -0.1030 0.5226
C15 C 0.3661(6) 0.0339(6) 0.4926(5)
H22 H 0.4010 0.0639 0.4803
H23 H 0.3325 0.0644 0.5062
H24 H 0.3336 0.0045 0.4457
O3 O 0.9449(2) 0.3123(2) 0.8416(3)
H25 H 0.9909 0.3276 0.8611
O4 O 0.5943(2) 0.3147(2) 0.7655(3)
H26 H 0.5663 0.3383 0.7803
C16 C 0.7193(2) 0.3736(2) 0.7943(3)
C17 C 0.7620(2) 0.2976(2) 0.8111(2)
H27 H 0.7298 0.2560 0.8122
C18 C 0.8437(2) 0.3032(2) 0.8830(3)
C19 C 0.8999(2) 0.3558(2) 0.8705(3)
H28 H 0.9360 0.3785 0.9229
C20 C 0.8542(3) 0.4153(2) 0.8074(3)
H29 H 0.8525 0.4593 0.8361
H30 H 0.8826 0.4267 0.7762
C21 C 0.7688(3) 0.3923(2) 0.7484(3)
H31 H 0.7416 0.4235 0.7001
C22 C 0.7660(3) 0.3085(3) 0.7300(3)
H32 H 0.8145 0.2892 0.7300
C23 C 0.6881(4) 0.2839(3) 0.6570(3)
H33 H 0.6751 0.2357 0.6709
C24 C 0.6211(4) 0.3361(3) 0.6493(3)
H34 H 0.6198 0.3776 0.6159
H35 H 0.5702 0.3111 0.6216
C25 C 0.6320(3) 0.3636(3) 0.7326(4)
H36 H 0.6056 0.4112 0.7241
C26 C 0.7265(3) 0.4198(3) 0.8653(3)
H37 H 0.6940 0.3994 0.8879
H38 H 0.7089 0.4686 0.8466
H39 H 0.7812 0.4209 0.9066
C27 C 0.8675(3) 0.2646(3) 0.9510(3)
H40 H 0.8328 0.2315 0.9565
H41 H 0.9189 0.2705 0.9934
C28 C 0.6978(6) 0.2742(5) 0.5783(4)
H42 H 0.7195 0.3200 0.5692
C29 C 0.7540(7) 0.2153(6) 0.5848(5)
H43 H 0.7475 0.1750 0.6146
H44 H 0.8078 0.2333 0.6133
H45 H 0.7434 0.1995 0.5309
C30 C 0.6113(7) 0.2638(6) 0.5033(4)
H46 H 0.5837 0.2255 0.5158
H47 H 0.6161 0.2510 0.4551
H48 H 0.5817 0.3085 0.4938
O5 O 0.9986(2) 0.1795(2) 0.8419(3)
H49 H 0.9732 0.2162 0.8409
O6 O 0.9537(2) -0.1489(2) 0.7682(3)
H50 H 0.9336 -0.1893 0.7647
C31 C 0.9159(3) -0.0318(3) 0.7999(4)
C32 C 0.9953(3) 0.0041(3) 0.8084(3)
H51 H 1.0342 -0.0300 0.8061
C33 C 1.0275(3) 0.0551(3) 0.8801(3)
C34 C 0.9718(3) 0.1192(3) 0.8720(3)
H52 H 0.9779 0.1315 0.9265
C35 C 0.8842(3) 0.1006(3) 0.8159(4)
H53 H 0.8564 0.1441 0.7864
H54 H 0.8592 0.0842 0.8489
C36 C 0.8767(3) 0.0402(3) 0.7538(4)
H55 H 0.8228 0.0341 0.7085
C37 C 0.9429(4) 0.0453(3) 0.7272(3)
H56 H 0.9608 0.0952 0.7252
C38 C 0.9300(6) -0.0026(4) 0.6521(4)
H57 H 0.9800 -0.0178 0.6525
C39 C 0.8766(5) -0.0686(4) 0.6524(5)
H58 H 0.8210 -0.0547 0.6216
H59 H 0.8858 -0.1094 0.6241
C40 C 0.8917(3) -0.0945(3) 0.7384(5)
H60 H 0.8425 -0.1165 0.7341
C41 C 0.9111(3) -0.0558(3) 0.8763(5)
H61 H 0.9439 -0.0982 0.8989
H62 H 0.8567 -0.0673 0.8627
H63 H 0.9296 -0.0170 0.9159
C42 C 1.0967(3) 0.0480(3) 0.9462(3)
H64 H 1.1298 0.0088 0.9509
H65 H 1.1123 0.0823 0.9881
C43 C 0.8715(6) 0.0347(7) 0.5717(5)
H66 H 0.8232 0.0548 0.5714
C44 C 0.9247(5) 0.0870(10) 0.5678(5)
H67 H 0.9386 0.1216 0.6116
H68 H 0.8995 0.1120 0.5162
H69 H 0.9721 0.0630 0.5731
C45 C 0.8572(7) -0.0151(8) 0.4991(6)
H70 H 0.8222 0.0089 0.4488
H71 H 0.8333 -0.0599 0.5038
H72 H 0.9072 -0.0254 0.4993
O7 O 0.5978(3) 0.2173(3) 0.2680(6)
H73 H 0.5677 0.1988 0.2838
O8 O 0.8961(2) 0.2066(2) 0.2147(2)
H74 H 0.9296 0.1967 0.1994
C46 C 0.7887(2) 0.1518(2) 0.2327(3)
C47 C 0.7596(2) 0.2291(2) 0.2430(3)
H75 H 0.7952 0.2694 0.2460
C48 C 0.7354(3) 0.2286(3) 0.3089(4)
C49 C 0.6699(4) 0.1754(3) 0.2974(6)
H76 H 0.6814 0.1538 0.3506
C50 C 0.6619(3) 0.1144(3) 0.2374(4)
H77 H 0.6058 0.1033 0.2042
H78 H 0.6877 0.0708 0.2682
C51 C 0.6988(3) 0.1337(2) 0.1804(3)
H79 H 0.6864 0.0997 0.1349
C52 C 0.6878(3) 0.2166(3) 0.1566(4)
H80 H 0.6372 0.2377 0.1495
C53 C 0.7105(5) 0.2363(4) 0.0894(3)
H81 H 0.7371 0.2840 0.1035
C54 C 0.7717(5) 0.1810(4) 0.0901(3)
H82 H 0.7439 0.1385 0.0581
H83 H 0.8017 0.2026 0.0645
C55 C 0.8288(3) 0.1572(3) 0.1758(3)
H84 H 0.8495 0.1088 0.1727
C56 C 0.8407(3) 0.1074(3) 0.3081(3)
H85 H 0.8482 0.0594 0.2919
H86 H 0.8151 0.1038 0.3427
H87 H 0.8915 0.1309 0.3375
C57 C 0.7675(4) 0.2716(3) 0.3740(5)
H88 H 0.8075 0.3043 0.3800
H89 H 0.7500 0.2691 0.4138
C58 C 0.6405(8) 0.2436(5) 0.0056(6)
H90 H 0.6699 0.2373 -0.0263
C59 C 0.5866(6) 0.1781(5) -0.0272(4)
H91 H 0.5549 0.1829 -0.0854
H92 H 0.5522 0.1751 -0.0017
H93 H 0.6184 0.1346 -0.0154
C60 C 0.6124(9) 0.3117(7) -0.0207(9)
H94 H 0.6043 0.3367 0.0209
H95 H 0.5626 0.3086 -0.0699
H96 H 0.6504 0.3383 -0.0317
loop_
_geom_bond_atom_site_label_1
_geom_bond_atom_site_label_2
_geom_bond_site_symmetry_1
_geom_bond_site_symmetry_2
O1 H1 1_555 1_555
O2 H2 1_555 1_555
C1 C2 1_555 1_555
C2 H3 1_555 1_555
C3 C2 1_555 1_555
C4 O1 1_555 1_555
H4 C4 1_555 1_555
C5 C4 1_555 1_555
H5 C5 1_555 1_555
H6 C5 1_555 1_555
C6 C1 1_555 1_555
H7 C6 1_555 1_555
C7 C2 1_555 1_555
H8 C7 1_555 1_555
C8 C7 1_555 1_555
H9 C8 1_555 1_555
C9 C8 1_555 1_555
H10 C9 1_555 1_555
H11 C9 1_555 1_555
C10 O2 1_555 1_555
H12 C10 1_555 1_555
C11 C1 1_555 1_555
H13 C11 1_555 1_555
H14 C11 1_555 1_555
H15 C11 1_555 1_555
C12 C3 1_555 1_555
H16 C12 1_555 1_555
H17 C12 1_555 1_555
C13 C8 1_555 1_555
H18 C13 1_555 1_555
C14 C13 1_555 1_555
H19 C14 1_555 1_555
H20 C14 1_555 1_555
H21 C14 1_555 1_555
C15 C13 1_555 1_555
H22 C15 1_555 1_555
H23 C15 1_555 1_555
H24 C15 1_555 1_555
O3 H25 1_555 1_555
O4 H26 1_555 1_555
C16 C17 1_555 1_555
C17 H27 1_555 1_555
C18 C17 1_555 1_555
C19 O3 1_555 1_555
H28 C19 1_555 1_555
C20 C19 1_555 1_555
H29 C20 1_555 1_555
H30 C20 1_555 1_555
C21 C16 1_555 1_555
H31 C21 1_555 1_555
C22 C17 1_555 1_555
H32 C22 1_555 1_555
C23 C22 1_555 1_555
H33 C23 1_555 1_555
C24 C23 1_555 1_555
H34 C24 1_555 1_555
H35 C24 1_555 1_555
C25 O4 1_555 1_555
H36 C25 1_555 1_555
C26 C16 1_555 1_555
H37 C26 1_555 1_555
H38 C26 1_555 1_555
H39 C26 1_555 1_555
C27 C18 1_555 1_555
H40 C27 1_555 1_555
H41 C27 1_555 1_555
C28 C23 1_555 1_555
H42 C28 1_555 1_555
C29 C28 1_555 1_555
H43 C29 1_555 1_555
H44 C29 1_555 1_555
H45 C29 1_555 1_555
C30 C28 1_555 1_555
H46 C30 1_555 1_555
H47 C30 1_555 1_555
H48 C30 1_555 1_555
O5 H49 1_555 1_555
O6 H50 1_555 1_555
C31 C32 1_555 1_555
C32 H51 1_555 1_555
C33 C32 1_555 1_555
C34 O5 1_555 1_555
H52 C34 1_555 1_555
C35 C34 1_555 1_555
H53 C35 1_555 1_555
H54 C35 1_555 1_555
C36 C31 1_555 1_555
H55 C36 1_555 1_555
C37 C32 1_555 1_555
H56 C37 1_555 1_555
C38 C37 1_555 1_555
H57 C38 1_555 1_555
C39 C38 1_555 1_555
H58 C39 1_555 1_555
H59 C39 1_555 1_555
C40 O6 1_555 1_555
H60 C40 1_555 1_555
C41 C31 1_555 1_555
H61 C41 1_555 1_555
H62 C41 1_555 1_555
H63 C41 1_555 1_555
C42 C33 1_555 1_555
H64 C42 1_555 1_555
H65 C42 1_555 1_555
C43 C38 1_555 1_555
H66 C43 1_555 1_555
C44 C43 1_555 1_555
H67 C44 1_555 1_555
H68 C44 1_555 1_555
H69 C44 1_555 1_555
C45 C43 1_555 1_555
H70 C45 1_555 1_555
H71 C45 1_555 1_555
H72 C45 1_555 1_555
O7 H73 1_555 1_555
O8 H74 1_555 1_555
C46 C47 1_555 1_555
C47 H75 1_555 1_555
C48 C47 1_555 1_555
C49 O7 1_555 1_555
H76 C49 1_555 1_555
C50 C49 1_555 1_555
H77 C50 1_555 1_555
H78 C50 1_555 1_555
C51 C46 1_555 1_555
H79 C51 1_555 1_555
C52 C47 1_555 1_555
H80 C52 1_555 1_555
C53 C52 1_555 1_555
H81 C53 1_555 1_555
C54 C53 1_555 1_555
H82 C54 1_555 1_555
H83 C54 1_555 1_555
C55 O8 1_555 1_555
H84 C55 1_555 1_555
C56 C46 1_555 1_555
H85 C56 1_555 1_555
H86 C56 1_555 1_555
H87 C56 1_555 1_555
C57 C48 1_555 1_555
H88 C57 1_555 1_555
H89 C57 1_555 1_555
C58 C53 1_555 1_555
H90 C58 1_555 1_555
C59 C58 1_555 1_555
H91 C59 1_555 1_555
H92 C59 1_555 1_555
H93 C59 1_555 1_555
C60 C58 1_555 1_555
H94 C60 1_555 1_555
H95 C60 1_555 1_555
H96 C60 1_555 1_555
C1 C10 1_555 1_555
C3 C4 1_555 1_555
C5 C6 1_555 1_555
C6 C7 1_555 1_555
C9 C10 1_555 1_555
C16 C25 1_555 1_555
C18 C19 1_555 1_555
C20 C21 1_555 1_555
C21 C22 1_555 1_555
C24 C25 1_555 1_555
C31 C40 1_555 1_555
C33 C34 1_555 1_555
C35 C36 1_555 1_555
C36 C37 1_555 1_555
C39 C40 1_555 1_555
C46 C55 1_555 1_555
C48 C49 1_555 1_555
C50 C51 1_555 1_555
C51 C52 1_555 1_555
C54 C55 1_555 1_555

#END
