
#######################################################################
#
#                 Cambridge Crystallographic Data Centre
#                                CCDC 
#
#######################################################################
#
# If this CIF has been generated from an entry in the Cambridge 
# Structural Database, then it will include bibliographic, chemical, 
# crystal, experimental, refinement or atomic coordinate data resulting 
# from the CCDC's data processing and validation procedures.
#
#######################################################################

data_PAPPUU
_chemical_compound_source        'Walsura robusta'
_chemical_name_common            '11-Oxo-dihydrocedrelone monohydrate'
_chemical_formula_moiety         'C26 H30 O6,H2 O1'
_chemical_name_systematic        
'17-(3-furyl)-6-hydroxy-4,4,8-trimethyl-14,15-epoxyandrost-5-ene-3,7,11-trione monohydrate'
_chemical_properties_biological  
'potential cytoctoxic activity with cell viability less than 50% under the concentration of 10 muM on MCF-7/DOX cells'
_symmetry_cell_setting           monoclinic
_symmetry_space_group_name_H-M   'P 21'
_symmetry_Int_Tables_number      4
_space_group_name_Hall           'P 2yb'
loop_
_symmetry_equiv_pos_site_id
_symmetry_equiv_pos_as_xyz
1 x,y,z
2 -x,1/2+y,-z
_cell_length_a                   8.57530(10)
_cell_length_b                   10.1644(2)
_cell_length_c                   13.4830(2)
_cell_angle_alpha                90
_cell_angle_beta                 96.150(2)
_cell_angle_gamma                90
_cell_volume                     1168.45
_exptl_crystal_colour            colorless
_exptl_crystal_description       block
_chemical_melting_point          '235-236 deg.C'
_cell_formula_units_Z            2
_chemical_properties_physical    Heat-sensitive
_exptl_crystal_recrystallization_method methanol
loop_
_atom_site_label
_atom_site_type_symbol
_atom_site_fract_x
_atom_site_fract_y
_atom_site_fract_z
O1 O 1.08476(16) 0.45763(12) 0.36946(10)
O2 O 1.20484(15) 0.72197(16) 0.16805(10)
O3 O 1.52338(18) 0.75741(17) 0.69692(12)
O4 O 1.02880(17) 0.86561(18) 0.03832(10)
H1 H 1.1235 0.8517 0.0471
C1 C 1.10358(18) 0.59563(16) 0.34252(12)
O5 O 0.41436(19) 0.9066(2) 0.01294(13)
C2 C 0.96081(19) 0.6918(2) 0.47506(12)
H2 H 0.9501 0.6218 0.5228
H3 H 0.9551 0.7749 0.5099
O6 O 0.69789(17) 0.6485(3) 0.41190(11)
C3 C 0.99207(18) 0.63975(16) 0.25368(12)
C4 C 0.8027(2) 0.82310(18) 0.12208(12)
C5 C 0.86343(17) 0.73007(16) 0.29167(11)
H4 H 0.9193 0.8130 0.3066
C6 C 0.72982(18) 0.77017(17) 0.21251(12)
C7 C 1.06610(19) 0.72494(18) 0.17962(12)
C8 C 1.24292(19) 0.59738(18) 0.50697(13)
H5 H 1.1823 0.5289 0.5368
C9 C 1.2352(2) 0.5039(2) 0.34422(14)
H6 H 1.2750 0.4762 0.2820
C10 C 0.6953(2) 0.9026(2) 0.04520(14)
C11 C 0.9572(2) 0.8079(2) 0.11373(12)
C12 C 0.6070(2) 0.6610(2) 0.18403(15)
H7 H 0.5801 0.6184 0.2434
H8 H 0.6502 0.5975 0.1419
H9 H 0.5146 0.6994 0.1491
C13 C 0.9305(2) 0.51720(19) 0.19283(14)
H10 H 0.8746 0.5450 0.1309
H11 H 0.8614 0.4680 0.2304
H12 H 1.0174 0.4628 0.1796
C14 C 1.1983(2) 0.81324(19) 0.41531(14)
H13 H 1.2046 0.8667 0.4743
H14 H 1.1353 0.8571 0.3621
H15 H 1.3018 0.7991 0.3964
C15 C 0.82560(19) 0.6839(2) 0.39378(12)
C16 C 1.3461(2) 0.5278(2) 0.43664(15)
H16 H 1.4330 0.5834 0.4223
H17 H 1.3872 0.4457 0.4652
C17 C 1.12372(17) 0.68048(16) 0.43620(11)
C18 C 1.3312(2) 0.67157(18) 0.59136(13)
C19 C 0.5105(2) 0.9410(2) 0.18227(16)
H18 H 0.4133 0.9020 0.1987
H19 H 0.5027 1.0354 0.1911
C20 C 0.5285(2) 0.9129(2) 0.07515(16)
C21 C 0.6455(2) 0.88885(19) 0.25468(14)
H20 H 0.6051 0.8628 0.3162
H21 H 0.7209 0.9589 0.2703
C22 C 1.2654(3) 0.7373(2) 0.67053(17)
H22 H 1.1593 0.7448 0.6782
C23 C 1.4867(2) 0.6870(2) 0.61087(15)
H23 H 1.5600 0.6542 0.5712
C24 C 0.7517(3) 1.0468(3) 0.0425(2)
H24 H 0.8518 1.0498 0.0168
H25 H 0.7613 1.0826 0.1088
H26 H 0.6771 1.0976 0.0003
C25 C 1.3838(3) 0.7859(2) 0.73155(18)
H27 H 1.3728 0.8327 0.7896
C26 C 0.6912(3) 0.8395(4) -0.05770(16)
H28 H 0.6503 0.7518 -0.0554
H29 H 0.7954 0.8365 -0.0774
H30 H 0.6251 0.8906 -0.1051
O7 O 0.8779(8) 0.6373(9) -0.2391(8)
O8? O 0.9682(16) 0.554(2) -0.2553(17)
loop_
_geom_bond_atom_site_label_1
_geom_bond_atom_site_label_2
_geom_bond_site_symmetry_1
_geom_bond_site_symmetry_2
O1 C1 1_555 1_555
O2 C7 1_555 1_555
O3 C23 1_555 1_555
O4 H1 1_555 1_555
C1 C3 1_555 1_555
O5 C20 1_555 1_555
C2 H2 1_555 1_555
H3 C2 1_555 1_555
O6 C15 1_555 1_555
C3 C5 1_555 1_555
C4 C6 1_555 1_555
C5 H4 1_555 1_555
C6 C5 1_555 1_555
C7 C3 1_555 1_555
C8 H5 1_555 1_555
C9 O1 1_555 1_555
H6 C9 1_555 1_555
C10 C4 1_555 1_555
C11 O4 1_555 1_555
C12 C6 1_555 1_555
H7 C12 1_555 1_555
H8 C12 1_555 1_555
H9 C12 1_555 1_555
C13 C3 1_555 1_555
H10 C13 1_555 1_555
H11 C13 1_555 1_555
H12 C13 1_555 1_555
C14 H13 1_555 1_555
H14 C14 1_555 1_555
H15 C14 1_555 1_555
C15 C2 1_555 1_555
C16 C8 1_555 1_555
H16 C16 1_555 1_555
H17 C16 1_555 1_555
C17 C1 1_555 1_555
C18 C8 1_555 1_555
C19 H18 1_555 1_555
H19 C19 1_555 1_555
C20 C10 1_555 1_555
C21 C6 1_555 1_555
H20 C21 1_555 1_555
H21 C21 1_555 1_555
C22 C18 1_555 1_555
H22 C22 1_555 1_555
C23 C18 1_555 1_555
H23 C23 1_555 1_555
C24 C10 1_555 1_555
H24 C24 1_555 1_555
H25 C24 1_555 1_555
H26 C24 1_555 1_555
C25 O3 1_555 1_555
H27 C25 1_555 1_555
C26 C10 1_555 1_555
H28 C26 1_555 1_555
H29 C26 1_555 1_555
H30 C26 1_555 1_555
C1 C9 1_555 1_555
C2 C17 1_555 1_555
C4 C11 1_555 1_555
C5 C15 1_555 1_555
C7 C11 1_555 1_555
C8 C17 1_555 1_555
C9 C16 1_555 1_555
C14 C17 1_555 1_555
C19 C20 1_555 1_555
C19 C21 1_555 1_555
C22 C25 1_555 1_555

#END
