
#######################################################################
#
#                 Cambridge Crystallographic Data Centre
#                                CCDC 
#
#######################################################################
#
# If this CIF has been generated from an entry in the Cambridge 
# Structural Database, then it will include bibliographic, chemical, 
# crystal, experimental, refinement or atomic coordinate data resulting 
# from the CCDC's data processing and validation procedures.
#
#######################################################################

data_PAPPIF
_chemical_formula_moiety         'C38 H24 O6,C1 H2 Cl2'
_chemical_name_systematic        
'2,9,19,26-Tetraoxapentacyclo(30.2.2.2^10,13^,2^15,18^,2^27,30^)dotetraconta-1,10,12,15,17,27,29,32,35,37,39,41-dodecaene-4,6,21,23-tetrayne-14,31-dione dichloromethane solvate'
_symmetry_cell_setting           triclinic
_symmetry_space_group_name_H-M   'P -1'
_symmetry_Int_Tables_number      2
_space_group_name_Hall           '-P 1'
loop_
_symmetry_equiv_pos_site_id
_symmetry_equiv_pos_as_xyz
1 x,y,z
2 -x,-y,-z
_cell_length_a                   7.779(1)
_cell_length_b                   9.333(1)
_cell_length_c                   12.343(1)
_cell_angle_alpha                96.98(1)
_cell_angle_beta                 100.60(1)
_cell_angle_gamma                110.05(1)
_cell_volume                     810.741
_exptl_crystal_colour            colorless
_chemical_melting_point          'above 220 deg.C (dec)'
_cell_formula_units_Z            1
loop_
_atom_site_label
_atom_site_type_symbol
_atom_site_fract_x
_atom_site_fract_y
_atom_site_fract_z
C1 C -0.0077(5) 0.8235(4) 0.3477(3)
C2 C 0.0493(5) 0.8628(4) 0.2696(3)
C3 C 0.1289(5) 0.9098(5) 0.1754(3)
O1 O 0.3108(3) 0.8992(3) 0.1851(2)
C4 C 0.3205(5) 0.7558(4) 0.1674(3)
C5 C 0.4992(5) 0.7545(4) 0.1801(3)
C6 C 0.5265(5) 0.6164(4) 0.1624(3)
C7 C 0.3718(4) 0.4747(4) 0.1299(3)
C8 C 0.1939(5) 0.4794(4) 0.1171(3)
C9 C 0.1646(5) 0.6171(4) 0.1371(3)
C10 C 0.3901(5) 0.3220(4) 0.1048(3)
O2 O 0.2594(4) 0.2118(3) 0.0409(2)
C11 C 0.5652(5) 0.3006(4) 0.1559(3)
C12 C 0.6801(5) 0.3822(4) 0.2616(3)
C13 C 0.8399(5) 0.3560(4) 0.3070(3)
C14 C 0.8885(5) 0.2489(4) 0.2457(3)
C15 C 0.7751(5) 0.1638(4) 0.1411(3)
C16 C 0.6146(5) 0.1900(4) 0.0984(3)
O3 O 1.0491(4) 0.2183(3) 0.2783(2)
C17 C 1.1819(6) 0.3094(5) 0.3800(3)
C18 C 1.1220(5) 0.2642(5) 0.4801(3)
C19 C -0.0717(5) 0.7762(4) 0.4400(3)
H1 H 0.0446 0.8425 0.1071
H2 H 0.1396 1.0147 0.1723
H3 H 0.6050 0.8518 0.2034
H4 H 0.6509 0.6149 0.1704
H5 H 0.0884 0.3820 0.0925
H6 H 0.0403 0.6185 0.1304
H7 H 0.6455 0.4574 0.3032
H8 H 0.9191 0.4118 0.3798
H9 H 0.8094 0.0884 0.0996
H10 H 0.5331 0.1316 0.0268
H11 H 1.2003 0.4170 0.3827
H12 H 1.3002 0.2980 0.3808
C19A C 1.0717(5) 0.2238(4) 0.5600(3)
C18A C -0.1220(5) 0.7358(5) 0.5199(3)
C1A C 1.0077(5) 0.1765(4) 0.6523(3)
C17A C -0.1819(6) 0.6906(5) 0.6200(3)
C2A C 0.9507(5) 0.1372(4) 0.7304(3)
O3A O -0.0491(4) 0.7817(3) 0.7217(2)
H11A H -0.2003 0.5830 0.6173
H12A H -0.3002 0.7020 0.6192
C3A C 0.8711(5) 0.0902(5) 0.8246(3)
C14A C 0.1115(5) 0.7511(4) 0.7543(3)
O1A O 0.6892(3) 0.1008(3) 0.8149(2)
H1A H 0.9554 0.1575 0.8929
H2A H 0.8604 -0.0147 0.8277
C13A C 0.1601(5) 0.6440(4) 0.6930(3)
C15A C 0.2249(5) 0.8362(4) 0.8589(3)
C4A C 0.6795(5) 0.2442(4) 0.8326(3)
C12A C 0.3199(5) 0.6178(4) 0.7384(3)
H8A H 0.0809 0.5882 0.6202
C16A C 0.3854(5) 0.8100(4) 0.9016(3)
H9A H 0.1906 0.9116 0.9004
C5A C 0.5008(5) 0.2455(4) 0.8199(3)
C9A C 0.8354(5) 0.3829(4) 0.8629(3)
C11A C 0.4348(5) 0.6994(4) 0.8441(3)
H7A H 0.3545 0.5426 0.6968
H10A H 0.4669 0.8684 0.9732
C6A C 0.4735(5) 0.3836(4) 0.8376(3)
H3A H 0.3950 0.1482 0.7966
C8A C 0.8061(5) 0.5206(4) 0.8829(3)
H6A H 0.9597 0.3815 0.8696
C10A C 0.6099(5) 0.6780(4) 0.8952(3)
C7A C 0.6282(4) 0.5253(4) 0.8701(3)
H4A H 0.3491 0.3851 0.8296
H5A H 0.9116 0.6180 0.9075
O2A O 0.7406(4) 0.7882(3) 0.9591(2)
Cl1? Cl 0.5550(4) 0.1727(5) 0.5090(3)
C20? C 0.5669(11) 0.0201(28) 0.4518(7)
H13? H 0.6976 0.0349 0.4744
H14? H 0.5309 0.0011 0.3711
loop_
_geom_bond_atom_site_label_1
_geom_bond_atom_site_label_2
_geom_bond_site_symmetry_1
_geom_bond_site_symmetry_2
C1 C2 1_555 1_555
C2 C3 1_555 1_555
C3 O1 1_555 1_555
O1 C4 1_555 1_555
C4 C5 1_555 1_555
C5 C6 1_555 1_555
C6 C7 1_555 1_555
C7 C8 1_555 1_555
C8 C9 1_555 1_555
C9 C4 1_555 1_555
C10 C7 1_555 1_555
O2 C10 1_555 1_555
C11 C10 1_555 1_555
C12 C11 1_555 1_555
C13 C12 1_555 1_555
C14 C13 1_555 1_555
C15 C14 1_555 1_555
C16 C11 1_555 1_555
O3 C14 1_555 1_555
C17 O3 1_555 1_555
C18 C17 1_555 1_555
C19 C1 1_555 1_555
H1 C3 1_555 1_555
H2 C3 1_555 1_555
H3 C5 1_555 1_555
H4 C6 1_555 1_555
H5 C8 1_555 1_555
H6 C9 1_555 1_555
H7 C12 1_555 1_555
H8 C13 1_555 1_555
H9 C15 1_555 1_555
H10 C16 1_555 1_555
H11 C17 1_555 1_555
H12 C17 1_555 1_555
C19A C18 1_555 1_555
C18A C19 1_555 1_555
C1A C19A 1_555 1_555
C17A C18A 1_555 1_555
C2A C1A 1_555 1_555
O3A C17A 1_555 1_555
H11A C17A 1_555 1_555
H12A C17A 1_555 1_555
C3A C2A 1_555 1_555
C14A O3A 1_555 1_555
O1A C3A 1_555 1_555
H1A C3A 1_555 1_555
H2A C3A 1_555 1_555
C13A C14A 1_555 1_555
C15A C14A 1_555 1_555
C4A O1A 1_555 1_555
C12A C13A 1_555 1_555
H8A C13A 1_555 1_555
C16A C15A 1_555 1_555
H9A C15A 1_555 1_555
C5A C4A 1_555 1_555
C9A C4A 1_555 1_555
C11A C12A 1_555 1_555
H7A C12A 1_555 1_555
H10A C16A 1_555 1_555
C6A C5A 1_555 1_555
H3A C5A 1_555 1_555
C8A C9A 1_555 1_555
H6A C9A 1_555 1_555
C10A C11A 1_555 1_555
C7A C6A 1_555 1_555
H4A C6A 1_555 1_555
H5A C8A 1_555 1_555
O2A C10A 1_555 1_555
C15 C16 1_555 1_555
C16A C11A 1_555 1_555
C8A C7A 1_555 1_555
C10A C7A 1_555 1_555

#END
