
#######################################################################
#
#                 Cambridge Crystallographic Data Centre
#                                CCDC 
#
#######################################################################
#
# If this CIF has been generated from an entry in the Cambridge 
# Structural Database, then it will include bibliographic, chemical, 
# crystal, experimental, refinement or atomic coordinate data resulting 
# from the CCDC's data processing and validation procedures.
#
#######################################################################

data_PAPSIK
_chemical_formula_moiety         'C8 H10 N2 O1'
_chemical_name_systematic        N-(Pyridin-3-yl)propanamide
_symmetry_cell_setting           monoclinic
_symmetry_space_group_name_H-M   'P 21/n'
_symmetry_Int_Tables_number      14
_space_group_name_Hall           '-P 2yn'
loop_
_symmetry_equiv_pos_site_id
_symmetry_equiv_pos_as_xyz
1 x,y,z
2 1/2-x,1/2+y,1/2-z
3 -x,-y,-z
4 1/2+x,1/2-y,1/2+z
_cell_length_a                   13.6085(15)
_cell_length_b                   8.1708(9)
_cell_length_c                   15.5985(17)
_cell_angle_alpha                90
_cell_angle_beta                 110.465(4)
_cell_angle_gamma                90
_cell_volume                     1624.97
_exptl_crystal_colour            'light yellow'
_exptl_crystal_description       rod
_cell_formula_units_Z            8
loop_
_atom_site_label
_atom_site_type_symbol
_atom_site_fract_x
_atom_site_fract_y
_atom_site_fract_z
O1 O -0.2921(2) 0.2664(4) 0.11120(16)
N1 N 0.0311(2) 0.2747(4) 0.2268(2)
N2 N -0.2201(2) 0.1735(3) 0.25515(18)
H1 H -0.2354 0.1275 0.2985
C1 C -0.1131(3) 0.1976(4) 0.2721(2)
C2 C -0.0714(3) 0.2470(4) 0.2070(2)
H2 H -0.1165 0.2616 0.1470
C3 C 0.0945(3) 0.2516(5) 0.3119(3)
H3 H 0.1657 0.2717 0.3260
C4 C 0.0608(3) 0.1996(5) 0.3806(2)
H4 H 0.1082 0.1833 0.4395
C5 C -0.0439(3) 0.1723(5) 0.3603(2)
H5 H -0.0687 0.1369 0.4057
C6 C -0.3027(3) 0.2131(4) 0.1796(2)
C7 C -0.4078(3) 0.1837(5) 0.1883(3)
H6 H -0.4062 0.0781 0.2172
H7 H -0.4188 0.2663 0.2287
C8 C -0.4975(3) 0.1867(7) 0.1020(3)
H8 H -0.5610 0.1671 0.1142
H9 H -0.4889 0.1031 0.0620
H10 H -0.5014 0.2917 0.0735
O2 O 0.1480(2) 0.7020(3) 0.05652(18)
N3 N 0.2283(2) 0.3113(4) -0.07383(17)
N4 N 0.1167(2) 0.4491(4) 0.09852(16)
H11 H 0.0904 0.3982 0.1337
C9 C 0.1515(2) 0.3507(4) 0.04110(19)
C10 C 0.1956(2) 0.4090(4) -0.02071(19)
H12 H 0.2027 0.5216 -0.0254
C11 C 0.2195(3) 0.1511(5) -0.0654(2)
H13 H 0.2425 0.0823 -0.1020
C12 C 0.1785(3) 0.0820(5) -0.0057(3)
H14 H 0.1747 -0.0312 -0.0011
C13 C 0.1430(3) 0.1830(5) 0.0471(2)
H15 H 0.1130 0.1387 0.0871
C14 C 0.1192(3) 0.6136(5) 0.1052(2)
C15 C 0.0839(3) 0.6779(5) 0.1804(3)
H16 H 0.0078 0.6752 0.1586
H17 H 0.1087 0.6031 0.2318
C16 C 0.1162(5) 0.8366(7) 0.2128(4)
H18 H 0.0894 0.8636 0.2604
H19 H 0.0899 0.9135 0.1635
H20 H 0.1914 0.8413 0.2367
loop_
_geom_bond_atom_site_label_1
_geom_bond_atom_site_label_2
_geom_bond_site_symmetry_1
_geom_bond_site_symmetry_2
O1 C6 1_555 1_555
N1 C2 1_555 1_555
N2 H1 1_555 1_555
C1 N2 1_555 1_555
C2 C1 1_555 1_555
H2 C2 1_555 1_555
C3 N1 1_555 1_555
H3 C3 1_555 1_555
C4 C3 1_555 1_555
H4 C4 1_555 1_555
C5 C1 1_555 1_555
H5 C5 1_555 1_555
C6 N2 1_555 1_555
C7 C6 1_555 1_555
H6 C7 1_555 1_555
H7 C7 1_555 1_555
C8 C7 1_555 1_555
H8 C8 1_555 1_555
H9 C8 1_555 1_555
H10 C8 1_555 1_555
O2 C14 1_555 1_555
N3 C10 1_555 1_555
N4 H11 1_555 1_555
C9 N4 1_555 1_555
C10 C9 1_555 1_555
H12 C10 1_555 1_555
C11 N3 1_555 1_555
H13 C11 1_555 1_555
C12 C11 1_555 1_555
H14 C12 1_555 1_555
C13 C9 1_555 1_555
H15 C13 1_555 1_555
C14 N4 1_555 1_555
C15 C14 1_555 1_555
H16 C15 1_555 1_555
H17 C15 1_555 1_555
C16 C15 1_555 1_555
H18 C16 1_555 1_555
H19 C16 1_555 1_555
H20 C16 1_555 1_555
C4 C5 1_555 1_555
C12 C13 1_555 1_555

#END
