
#######################################################################
#
#                 Cambridge Crystallographic Data Centre
#                                CCDC 
#
#######################################################################
#
# If this CIF has been generated from an entry in the Cambridge 
# Structural Database, then it will include bibliographic, chemical, 
# crystal, experimental, refinement or atomic coordinate data resulting 
# from the CCDC's data processing and validation procedures.
#
#######################################################################

data_PAQBUG
_chemical_formula_moiety         
'2(C6 H5 N1 O3),C30 H30 N20 O10,K1 1+,I1 1-,14(H2 O1)'
_chemical_name_systematic        
'potassium cucurbit[5]uril iodide bis(4-nitrophenol) tetradecahydrate'
_symmetry_cell_setting           monoclinic
_symmetry_space_group_name_H-M   'P 21/c'
_symmetry_Int_Tables_number      14
_space_group_name_Hall           '-P 2ybc'
loop_
_symmetry_equiv_pos_site_id
_symmetry_equiv_pos_as_xyz
1 x,y,z
2 -x,1/2+y,1/2-z
3 -x,-y,-z
4 x,1/2-y,1/2+z
_cell_length_a                   16.445(4)
_cell_length_b                   11.991(3)
_cell_length_c                   29.729(7)
_cell_angle_alpha                90
_cell_angle_beta                 96.851(3)
_cell_angle_gamma                90
_cell_volume                     5820.46
_exptl_crystal_colour            colorless
_exptl_crystal_description       prism
_cell_formula_units_Z            4
loop_
_atom_site_label
_atom_site_type_symbol
_atom_site_fract_x
_atom_site_fract_y
_atom_site_fract_z
O1 O 0.1469(5) 0.4164(7) 0.7626(2)
O2 O 0.2405(11) 0.0368(9) 0.8123(6)
O3 O 0.2450(10) 0.4521(14) 0.8609(5)
K1 K 0.18994(9) 0.23467(13) 0.81277(5)
I1 I 0.28697(3) -0.34810(5) 0.582278(17)
C1 C 0.3509(4) 0.1593(5) 0.9024(2)
C2 C 0.3987(4) 0.0024(5) 0.9452(2)
H1 H 0.4196 0.0026 0.9778
C3 C 0.4658(4) 0.0425(5) 0.9160(2)
H2 H 0.5151 0.0699 0.9353
C4 C 0.4344(4) -0.1434(6) 0.9003(2)
C5 C 0.4643(4) 0.2061(5) 0.8594(2)
H3 H 0.4400 0.2806 0.8599
H4 H 0.5225 0.2125 0.8708
C6 C 0.5399(4) -0.0602(5) 0.8579(2)
H5 H 0.5615 -0.1361 0.8565
H6 H 0.5861 -0.0105 0.8674
C7 C 0.3930(4) 0.2008(5) 0.7808(2)
C8 C 0.5083(4) 0.0846(5) 0.7952(2)
H7 H 0.5657 0.1109 0.7974
C9 C 0.4701(4) 0.0710(5) 0.7443(2)
H8 H 0.5078 0.0985 0.7232
C10 C 0.4788(4) -0.1047(5) 0.7798(2)
C11 C 0.3485(4) 0.1660(5) 0.6998(2)
H9 H 0.3834 0.1652 0.6753
H10 H 0.3272 0.2419 0.7021
C12 C 0.4221(4) -0.1016(6) 0.6984(2)
H11 H 0.4419 -0.0644 0.6725
H12 H 0.4414 -0.1790 0.6988
C13 C 0.2038(4) 0.1119(5) 0.7011(2)
C14 C 0.2851(4) -0.0162(5) 0.6668(2)
H13 H 0.3012 -0.0077 0.6359
C15 C 0.1965(4) -0.0618(5) 0.6651(2)
H14 H 0.1707 -0.0696 0.6334
C16 C 0.2890(4) -0.1911(6) 0.7014(2)
C17 C 0.0684(4) 0.0217(5) 0.6952(2)
H15 H 0.0493 0.0990 0.6961
H16 H 0.0374 -0.0144 0.6689
C18 C 0.1423(4) -0.2465(5) 0.6954(2)
H17 H 0.0989 -0.2428 0.6698
H18 H 0.1641 -0.3227 0.6967
C19 C 0.0429(4) 0.0190(5) 0.7759(2)
C20 C 0.0355(4) -0.1549(5) 0.7389(2)
H19 H -0.0111 -0.1788 0.7168
C21 C 0.0165(4) -0.1697(5) 0.7884(2)
H20 H -0.0404 -0.1957 0.7895
C22 C 0.1268(4) -0.2865(5) 0.7751(2)
C23 C 0.0124(4) -0.0284(5) 0.8529(2)
H21 H -0.0061 0.0493 0.8526
H22 H -0.0323 -0.0752 0.8613
C24 C 0.0825(4) -0.2972(5) 0.8514(2)
H23 H 0.1051 -0.3727 0.8509
H24 H 0.0275 -0.3030 0.8608
C25 C 0.1341(4) 0.0488(6) 0.8993(2)
C26 C 0.1055(4) -0.1408(5) 0.9114(2)
H25 H 0.0617 -0.1657 0.9293
C27 C 0.1845(4) -0.1073(5) 0.9432(2)
H26 H 0.1773 -0.1169 0.9755
C28 C 0.2140(4) -0.2598(6) 0.8975(2)
C29 C 0.2567(4) 0.0821(6) 0.9542(2)
H27 H 0.2675 0.0598 0.9861
H28 H 0.2344 0.1580 0.9535
C30 C 0.3299(4) -0.1848(5) 0.9504(2)
H29 H 0.3318 -0.1665 0.9826
H30 H 0.3515 -0.2604 0.9481
N1 N 0.3337(3) 0.0845(4) 0.93529(17)
N2 N 0.4243(3) 0.1323(4) 0.88960(18)
N3 N 0.3809(3) -0.1080(4) 0.92949(17)
N4 N 0.4836(3) -0.0565(4) 0.89130(17)
N5 N 0.4565(3) 0.1658(4) 0.81275(17)
N6 N 0.3972(3) 0.1372(4) 0.74193(17)
N7 N 0.5035(3) -0.0279(4) 0.81332(17)
N8 N 0.4584(3) -0.0460(4) 0.74036(17)
N9 N 0.2805(3) 0.0902(5) 0.68852(17)
N10 N 0.1553(3) 0.0222(4) 0.68880(18)
N11 N 0.3335(3) -0.1016(4) 0.69203(17)
N12 N 0.2070(3) -0.1705(4) 0.68710(17)
N13 N 0.0504(3) -0.0351(4) 0.73608(16)
N14 N 0.0290(3) -0.0587(4) 0.80766(17)
N15 N 0.1071(3) -0.2242(4) 0.73641(17)
N16 N 0.0755(3) -0.2529(4) 0.80643(17)
N17 N 0.0823(3) -0.0406(4) 0.88682(17)
N18 N 0.1951(3) 0.0088(4) 0.93187(18)
N19 N 0.1333(3) -0.2323(4) 0.88486(18)
N20 N 0.2453(3) -0.1822(4) 0.92968(17)
O4 O 0.3068(3) 0.2383(3) 0.88919(15)
O5 O 0.3427(3) 0.2719(3) 0.78621(15)
O6 O 0.1829(3) 0.1973(3) 0.71937(15)
O7 O 0.0478(3) 0.1207(3) 0.78141(15)
O8 O 0.1266(3) 0.1431(3) 0.88585(16)
O9 O 0.4379(3) -0.2386(4) 0.88485(15)
O10 O 0.4786(3) -0.2057(4) 0.78474(15)
O11 O 0.3152(3) -0.2802(4) 0.71808(14)
O12 O 0.1776(3) -0.3611(3) 0.78061(16)
O13 O 0.2511(3) -0.3406(4) 0.88455(15)
C31 C 0.2281(4) 0.0734(6) 0.5464(2)
H31 H 0.2818 0.0661 0.5389
C32 C 0.2072(4) 0.1608(6) 0.5736(2)
H32 H 0.2468 0.2140 0.5843
C33 C 0.1282(4) 0.1694(6) 0.5848(2)
C34 C 0.0692(5) 0.0922(7) 0.5690(3)
H33 H 0.0157 0.0991 0.5768
C35 C 0.0882(4) 0.0059(7) 0.5421(2)
H34 H 0.0481 -0.0468 0.5314
C36 C 0.1677(4) -0.0029(6) 0.5305(2)
N21 N 0.1880(4) -0.0928(5) 0.5010(2)
O14 O 0.1073(3) 0.2548(4) 0.61134(18)
H39 H 0.1477 0.2954 0.6182
O15 O 0.1327(4) -0.1587(6) 0.4870(2)
O16 O 0.2579(4) -0.0998(5) 0.49189(19)
C37 C 0.5919(4) -0.0632(6) 0.5443(2)
H35 H 0.6446 -0.0608 0.5351
C38 C 0.5681(4) 0.0174(5) 0.5726(2)
H36 H 0.6045 0.0746 0.5832
C39 C 0.4891(4) 0.0143(5) 0.58586(19)
C40 C 0.4354(5) -0.0738(6) 0.5712(2)
H37 H 0.3829 -0.0770 0.5807
C41 C 0.4610(4) -0.1580(5) 0.5421(2)
H38 H 0.4264 -0.2176 0.5321
C42 C 0.5382(4) -0.1490(5) 0.5290(2)
N22 N 0.5655(4) -0.2346(5) 0.49948(17)
O17 O 0.4596(3) 0.0885(4) 0.61312(16)
H40 H 0.4953 0.1360 0.6210
O18 O 0.5204(3) -0.3165(4) 0.49049(16)
O19 O 0.6309(4) -0.2253(4) 0.48464(18)
loop_
_geom_bond_atom_site_label_1
_geom_bond_atom_site_label_2
_geom_bond_site_symmetry_1
_geom_bond_site_symmetry_2
C1 N1 1_555 1_555
C2 H1 1_555 1_555
C3 C2 1_555 1_555
H2 C3 1_555 1_555
C4 N3 1_555 1_555
C5 H3 1_555 1_555
H4 C5 1_555 1_555
C6 H5 1_555 1_555
H6 C6 1_555 1_555
C7 N5 1_555 1_555
C8 H7 1_555 1_555
C9 C8 1_555 1_555
H8 C9 1_555 1_555
C10 N7 1_555 1_555
C11 H9 1_555 1_555
H10 C11 1_555 1_555
C12 H11 1_555 1_555
H12 C12 1_555 1_555
C13 N9 1_555 1_555
C14 H13 1_555 1_555
C15 C14 1_555 1_555
H14 C15 1_555 1_555
C16 N11 1_555 1_555
C17 H15 1_555 1_555
H16 C17 1_555 1_555
C18 H17 1_555 1_555
H18 C18 1_555 1_555
C19 N13 1_555 1_555
C20 H19 1_555 1_555
C21 C20 1_555 1_555
H20 C21 1_555 1_555
C22 N15 1_555 1_555
C23 H21 1_555 1_555
H22 C23 1_555 1_555
C24 H23 1_555 1_555
H24 C24 1_555 1_555
C25 N17 1_555 1_555
C26 H25 1_555 1_555
C27 C26 1_555 1_555
H26 C27 1_555 1_555
C28 N19 1_555 1_555
C29 H27 1_555 1_555
H28 C29 1_555 1_555
C30 H29 1_555 1_555
H30 C30 1_555 1_555
N1 C2 1_555 1_555
N2 C1 1_555 1_555
N3 C2 1_555 1_555
N4 C3 1_555 1_555
N5 C5 1_555 1_555
N6 C7 1_555 1_555
N7 C6 1_555 1_555
N8 C9 1_555 1_555
N9 C11 1_555 1_555
N10 C13 1_555 1_555
N11 C12 1_555 1_555
N12 C15 1_555 1_555
N13 C17 1_555 1_555
N14 C19 1_555 1_555
N15 C18 1_555 1_555
N16 C21 1_555 1_555
N17 C23 1_555 1_555
N18 C25 1_555 1_555
N19 C24 1_555 1_555
N20 C27 1_555 1_555
O4 C1 1_555 1_555
O5 C7 1_555 1_555
O6 C13 1_555 1_555
O7 C19 1_555 1_555
O8 C25 1_555 1_555
O9 C4 1_555 1_555
O10 C10 1_555 1_555
O11 C16 1_555 1_555
O12 C22 1_555 1_555
O13 C28 1_555 1_555
C31 H31 1_555 1_555
C32 C31 1_555 1_555
H32 C32 1_555 1_555
C33 C32 1_555 1_555
C34 C33 1_555 1_555
H33 C34 1_555 1_555
C35 C34 1_555 1_555
H34 C35 1_555 1_555
C36 C31 1_555 1_555
C37 H35 1_555 1_555
C38 C37 1_555 1_555
H36 C38 1_555 1_555
C39 C38 1_555 1_555
C40 C39 1_555 1_555
H37 C40 1_555 1_555
C41 C40 1_555 1_555
H38 C41 1_555 1_555
C42 C37 1_555 1_555
N21 C36 1_555 1_555
N22 C42 1_555 1_555
O14 C33 1_555 1_555
H39 O14 1_555 1_555
O15 N21 1_555 1_555
O16 N21 1_555 1_555
O17 C39 1_555 1_555
H40 O17 1_555 1_555
O18 N22 1_555 1_555
O19 N22 1_555 1_555
C3 N2 1_555 1_555
C4 N4 1_555 1_555
C5 N2 1_555 1_555
C6 N4 1_555 1_555
C8 N5 1_555 1_555
C8 N7 1_555 1_555
C9 N6 1_555 1_555
C10 N8 1_555 1_555
C11 N6 1_555 1_555
C12 N8 1_555 1_555
C14 N9 1_555 1_555
C14 N11 1_555 1_555
C15 N10 1_555 1_555
C16 N12 1_555 1_555
C17 N10 1_555 1_555
C18 N12 1_555 1_555
C20 N13 1_555 1_555
C20 N15 1_555 1_555
C21 N14 1_555 1_555
C22 N16 1_555 1_555
C23 N14 1_555 1_555
C24 N16 1_555 1_555
C26 N17 1_555 1_555
C26 N19 1_555 1_555
C27 N18 1_555 1_555
C28 N20 1_555 1_555
C29 N1 1_555 1_555
C29 N18 1_555 1_555
C30 N3 1_555 1_555
C30 N20 1_555 1_555
C35 C36 1_555 1_555
C41 C42 1_555 1_555

#END
