
#######################################################################
#
#                 Cambridge Crystallographic Data Centre
#                                CCDC 
#
#######################################################################
#
# If this CIF has been generated from an entry in the Cambridge 
# Structural Database, then it will include bibliographic, chemical, 
# crystal, experimental, refinement or atomic coordinate data resulting 
# from the CCDC's data processing and validation procedures.
#
#######################################################################

data_PAQBIU
_chemical_formula_moiety         
'4(C6 H5 N1 O3),C30 H30 N20 O10,Ba1 2+,2(Cl1 1-),15(H2 O1)'
_chemical_name_systematic        
'barium cucurbit[5]uril dichloride tetrakis(4-nitrophenol) pentadecahydrate'
_symmetry_cell_setting           monoclinic
_symmetry_space_group_name_H-M   'P 21/c'
_symmetry_Int_Tables_number      14
_space_group_name_Hall           '-P 2ybc'
loop_
_symmetry_equiv_pos_site_id
_symmetry_equiv_pos_as_xyz
1 x,y,z
2 -x,1/2+y,1/2-z
3 -x,-y,-z
4 x,1/2-y,1/2+z
_cell_length_a                   20.4952(16)
_cell_length_b                   19.6231(16)
_cell_length_c                   19.3671(16)
_cell_angle_alpha                90
_cell_angle_beta                 103.305(2)
_cell_angle_gamma                90
_cell_volume                     7579.98
_exptl_crystal_colour            colorless
_exptl_crystal_description       prism
_cell_formula_units_Z            4
loop_
_atom_site_label
_atom_site_type_symbol
_atom_site_fract_x
_atom_site_fract_y
_atom_site_fract_z
O1 O 0.87618(16) 0.59701(15) 0.62674(17)
O2 O 1.18624(15) 0.18943(18) 0.99548(17)
O3 O 0.9104(2) 0.09797(17) 0.67215(17)
O4 O 0.81999(19) 0.27663(18) 0.83208(18)
O5 O 0.9303(3) 0.6359(2) 0.77751(16)
O6 O 0.7563(3) 0.1191(2) 0.6102(2)
O7 O 0.2057(2) 0.1613(2) 0.6501(3)
O8 O 0.7815(3) 0.5616(3) 1.0737(3)
O9 O 0.9130(3) 0.9142(4) 0.8367(3)
O10 O 0.8802(5) 0.5359(4) 1.1939(4)
Ba1 Ba 0.831489(10) 0.218100(10) 0.695683(10)
Cl1 Cl 0.97066(12) -0.00689(12) 1.08004(18)
Cl2 Cl 0.90235(18) 0.76545(19) 0.8228(2)
Cl3 Cl 1.17647(17) 0.3321(2) 1.0075(2)
C1 C 0.95582(18) 0.3497(2) 0.79849(19)
C2 C 1.03044(18) 0.2646(2) 0.8687(2)
H1 H 1.0770 0.2701 0.8952
H2 H 1.0312 0.2465 0.8217
C3 C 0.94867(17) 0.17291(19) 0.86961(18)
C4 C 0.87949(18) 0.07908(18) 0.89734(19)
H3 H 0.8836 0.0629 0.8506
H4 H 0.8937 0.0420 0.9313
C5 C 0.76780(17) 0.11757(17) 0.83389(18)
C6 C 0.64906(18) 0.15138(18) 0.79494(19)
H5 H 0.6539 0.1317 0.7499
H6 H 0.6095 0.1307 0.8068
C7 C 0.66660(17) 0.26112(19) 0.74065(18)
C8 C 0.66362(18) 0.38044(18) 0.70022(18)
H7 H 0.6695 0.3585 0.6566
H8 H 0.6238 0.4095 0.6878
C9 C 0.78298(18) 0.40709(18) 0.71663(18)
C10 C 0.89750(19) 0.4538(2) 0.74733(19)
H9 H 0.9021 0.4333 0.7025
H10 H 0.9144 0.5006 0.7487
C11 C 0.97412(19) 0.4467(2) 0.8712(2)
H11 H 1.0034 0.4844 0.8627
C12 C 1.01578(19) 0.3867(2) 0.9107(2)
H12 H 1.0644 0.3967 0.9211
C13 C 1.00787(18) 0.2093(2) 0.9813(2)
H13 H 1.0554 0.1996 1.0037
C14 C 0.96201(17) 0.1485(2) 0.99039(19)
H14 H 0.9883 0.1080 1.0107
C15 C 0.77970(18) 0.09365(18) 0.95508(18)
H15 H 0.7804 0.0474 0.9756
C16 C 0.70707(17) 0.11850(17) 0.92325(18)
H16 H 0.6738 0.0827 0.9262
C17 C 0.60471(17) 0.26534(19) 0.82900(19)
H17 H 0.5576 0.2510 0.8247
C18 C 0.60896(17) 0.33785(18) 0.79836(19)
H18 H 0.5642 0.3546 0.7733
C19 C 0.72229(19) 0.48202(18) 0.77308(19)
H19 H 0.6917 0.5179 0.7483
C20 C 0.7973(2) 0.50508(18) 0.78737(19)
H20 H 0.8017 0.5522 0.7707
C21 C 0.94584(19) 0.4291(2) 0.9806(2)
C22 C 1.01579(19) 0.3309(2) 1.0306(2)
H21 H 1.0090 0.3490 1.0755
H22 H 1.0641 0.3243 1.0357
C23 C 0.93634(17) 0.2428(2) 1.05343(18)
C24 C 0.87013(17) 0.13920(18) 1.05871(18)
H23 H 0.8657 0.1563 1.1049
H24 H 0.8827 0.0910 1.0645
C25 C 0.75841(17) 0.19174(18) 1.01556(17)
C26 C 0.64170(18) 0.22074(18) 0.9569(2)
H25 H 0.6408 0.2428 1.0020
H26 H 0.6013 0.1926 0.9431
C27 C 0.65068(17) 0.34063(19) 0.9215(2)
C28 C 0.64864(19) 0.45120(19) 0.8596(2)
H27 H 0.6123 0.4725 0.8244
H28 H 0.6474 0.4700 0.9061
C29 C 0.76775(19) 0.48185(18) 0.89563(19)
C30 C 0.8842(2) 0.5208(2) 0.9056(2)
H29 H 0.9010 0.5575 0.8800
H30 H 0.8791 0.5393 0.9510
N1 N 0.93817(16) 0.41627(17) 0.80505(17)
N2 N 0.99833(16) 0.33053(18) 0.86036(17)
N3 N 0.99738(16) 0.21547(17) 0.90545(17)
N4 N 0.92407(15) 0.13667(16) 0.91795(16)
N5 N 0.81007(15) 0.09478(16) 0.89426(15)
N6 N 0.70776(14) 0.13396(15) 0.84981(15)
N7 N 0.63808(15) 0.22336(14) 0.78574(17)
N8 N 0.65278(15) 0.32834(15) 0.74970(16)
N9 N 0.72152(15) 0.42244(15) 0.72873(16)
N10 N 0.82728(16) 0.45578(16) 0.74842(16)
N11 N 0.93293(17) 0.46708(18) 0.91914(17)
N12 N 0.81889(17) 0.49961(17) 0.86471(16)
N13 N 0.71183(16) 0.46897(16) 0.84350(16)
N14 N 0.63647(15) 0.37833(16) 0.86029(16)
N15 N 0.64017(16) 0.27313(16) 0.90312(17)
N16 N 0.99207(16) 0.38009(18) 0.97536(16)
N17 N 0.98221(16) 0.26498(18) 1.01688(17)
N18 N 0.92327(15) 0.17593(16) 1.03775(16)
N19 N 0.80573(15) 0.14450(15) 1.00905(15)
N20 N 0.70019(14) 0.17695(15) 0.96716(15)
O11 O 0.93739(13) 0.31387(14) 0.74557(14)
O12 O 0.93062(13) 0.16755(14) 0.80498(13)
O13 O 0.77996(13) 0.12096(13) 0.77509(13)
O14 O 0.69743(13) 0.23853(13) 0.69911(14)
O15 O 0.79511(13) 0.35890(13) 0.68126(13)
O16 O 0.92207(14) 0.43988(15) 1.03233(13)
O17 O 0.91259(14) 0.27753(13) 1.09451(14)
O18 O 0.76614(13) 0.23896(13) 1.05775(13)
O19 O 0.66834(14) 0.36308(15) 0.98123(14)
O20 O 0.77179(15) 0.47815(15) 0.95956(14)
C31 C 0.4425(4) 0.1654(3) 0.6786(4)
H31 H 0.4607 0.1309 0.7110
C32 C 0.4849(3) 0.2062(3) 0.6500(3)
H32 H 0.5316 0.2004 0.6638
C33 C 0.4576(2) 0.2552(3) 0.6012(2)
C34 C 0.3899(3) 0.2644(3) 0.5813(3)
H33 H 0.3719 0.2979 0.5476
C35 C 0.3477(3) 0.2247(3) 0.6105(3)
H34 H 0.3011 0.2314 0.5969
C36 C 0.3740(3) 0.1748(3) 0.6600(3)
N21 N 0.5024(2) 0.2994(3) 0.5719(3)
O21 O 0.3355(3) 0.1348(3) 0.6906(3)
H47 H 0.2954 0.1439 0.6741
O26 O 0.5623(2) 0.2927(3) 0.5922(3)
O27 O 0.4763(2) 0.3413(3) 0.5268(3)
C37 C 0.5869(2) 0.5147(2) 0.5737(2)
H35 H 0.5485 0.4878 0.5571
C38 C 0.6482(2) 0.4929(2) 0.5662(2)
H36 H 0.6524 0.4508 0.5446
C39 C 0.7054(2) 0.5339(2) 0.5910(2)
C40 C 0.6991(2) 0.5953(2) 0.6235(2)
H37 H 0.7372 0.6224 0.6406
C41 C 0.6370(3) 0.6172(2) 0.6313(3)
H38 H 0.6325 0.6590 0.6534
C42 C 0.5821(2) 0.5768(2) 0.6060(3)
N22 N 0.5157(2) 0.6008(3) 0.6132(2)
O22 O 0.76455(16) 0.50952(17) 0.58246(17)
H48 H 0.7947 0.5374 0.5985
O24 O 0.4664(2) 0.5672(2) 0.5864(3)
O25 O 0.5133(2) 0.6536(3) 0.6451(3)
C43 C 0.6248(3) 0.8112(2) 0.6581(4)
C44 C 0.6446(3) 0.7971(3) 0.5961(4)
H39 H 0.6137 0.7981 0.5520
C45 C 0.7101(3) 0.7818(3) 0.6006(4)
H40 H 0.7246 0.7710 0.5593
C46 C 0.7554(3) 0.7819(3) 0.6653(3)
C47 C 0.7339(3) 0.7959(3) 0.7257(3)
H41 H 0.7646 0.7962 0.7700
C48 C 0.6672(3) 0.8097(3) 0.7213(4)
H42 H 0.6518 0.8179 0.7627
N23 N 0.5544(3) 0.8275(3) 0.6538(5)
O23 O 0.8196(2) 0.7675(3) 0.6657(3)
H49 H 0.8425 0.7691 0.7070
O28 O 0.5132(3) 0.8219(4) 0.5960(5)
O29 O 0.5380(3) 0.8425(4) 0.7066(5)
C49 C 0.7379(3) 0.9336(3) 0.8702(3)
C50 C 0.6935(3) 0.9236(3) 0.9068(4)
H43 H 0.7063 0.9066 0.9533
C51 C 0.6295(3) 0.9377(3) 0.8779(3)
H44 H 0.5979 0.9295 0.9053
C52 C 0.6069(2) 0.9631(2) 0.8117(3)
C53 C 0.6560(4) 0.9766(3) 0.7708(3)
H45 H 0.6442 0.9949 0.7247
C54 C 0.7242(2) 0.9604(2) 0.8046(3)
H46 H 0.7588 0.9683 0.7811
N24 N 0.5366(3) 0.9752(3) 0.7848(4)
O30 O 0.8059(2) 0.9174(2) 0.9003(3)
H50 H 0.8292 0.9272 0.8718
O31 O 0.4969(2) 0.9506(3) 0.8106(4)
O32 O 0.5224(3) 1.0137(4) 0.7305(4)
loop_
_geom_bond_atom_site_label_1
_geom_bond_atom_site_label_2
_geom_bond_site_symmetry_1
_geom_bond_site_symmetry_2
C1 N1 1_555 1_555
C2 H1 1_555 1_555
H2 C2 1_555 1_555
C3 N3 1_555 1_555
C4 H3 1_555 1_555
H4 C4 1_555 1_555
C5 N5 1_555 1_555
C6 H5 1_555 1_555
H6 C6 1_555 1_555
C7 N7 1_555 1_555
C8 H7 1_555 1_555
H8 C8 1_555 1_555
C9 N9 1_555 1_555
C10 H9 1_555 1_555
H10 C10 1_555 1_555
C11 H11 1_555 1_555
C12 C11 1_555 1_555
H12 C12 1_555 1_555
C13 H13 1_555 1_555
C14 C13 1_555 1_555
H14 C14 1_555 1_555
C15 H15 1_555 1_555
C16 C15 1_555 1_555
H16 C16 1_555 1_555
C17 H17 1_555 1_555
C18 C17 1_555 1_555
H18 C18 1_555 1_555
C19 H19 1_555 1_555
C20 C19 1_555 1_555
H20 C20 1_555 1_555
C21 N11 1_555 1_555
C22 H21 1_555 1_555
H22 C22 1_555 1_555
C23 N17 1_555 1_555
C24 H23 1_555 1_555
H24 C24 1_555 1_555
C25 N19 1_555 1_555
C26 H25 1_555 1_555
H26 C26 1_555 1_555
C27 N14 1_555 1_555
C28 H27 1_555 1_555
H28 C28 1_555 1_555
C29 N12 1_555 1_555
C30 H29 1_555 1_555
H30 C30 1_555 1_555
C31 H31 1_555 1_555
C32 C31 1_555 1_555
H32 C32 1_555 1_555
C33 C32 1_555 1_555
C34 C33 1_555 1_555
H33 C34 1_555 1_555
C35 C34 1_555 1_555
H34 C35 1_555 1_555
C36 C31 1_555 1_555
C37 H35 1_555 1_555
C38 C37 1_555 1_555
H36 C38 1_555 1_555
C39 C38 1_555 1_555
C40 C39 1_555 1_555
H37 C40 1_555 1_555
C41 C40 1_555 1_555
H38 C41 1_555 1_555
C42 C37 1_555 1_555
C43 C44 1_555 1_555
C44 H39 1_555 1_555
C45 C44 1_555 1_555
H40 C45 1_555 1_555
C46 C45 1_555 1_555
C47 C46 1_555 1_555
H41 C47 1_555 1_555
C48 C43 1_555 1_555
H42 C48 1_555 1_555
C49 C50 1_555 1_555
C50 H43 1_555 1_555
C51 C50 1_555 1_555
H44 C51 1_555 1_555
C52 C51 1_555 1_555
C53 C52 1_555 1_555
H45 C53 1_555 1_555
C54 C49 1_555 1_555
H46 C54 1_555 1_555
N1 C10 1_555 1_555
N2 C1 1_555 1_555
N3 C2 1_555 1_555
N4 C3 1_555 1_555
N5 C4 1_555 1_555
N6 C5 1_555 1_555
N7 C6 1_555 1_555
N8 C7 1_555 1_555
N9 C8 1_555 1_555
N10 C9 1_555 1_555
N11 C11 1_555 1_555
N12 C20 1_555 1_555
N13 C19 1_555 1_555
N14 C18 1_555 1_555
N15 C17 1_555 1_555
N16 C12 1_555 1_555
N17 C13 1_555 1_555
N18 C14 1_555 1_555
N19 C15 1_555 1_555
N20 C16 1_555 1_555
N21 C33 1_555 1_555
N22 C42 1_555 1_555
N23 C43 1_555 1_555
N24 C52 1_555 1_555
O11 C1 1_555 1_555
O12 C3 1_555 1_555
O13 C5 1_555 1_555
O14 C7 1_555 1_555
O15 C9 1_555 1_555
O16 C21 1_555 1_555
O17 C23 1_555 1_555
O18 C25 1_555 1_555
O19 C27 1_555 1_555
O20 C29 1_555 1_555
O21 C36 1_555 1_555
H47 O21 1_555 1_555
O22 C39 1_555 1_555
H48 O22 1_555 1_555
O23 C46 1_555 1_555
H49 O23 1_555 1_555
O24 N22 1_555 1_555
O25 N22 1_555 1_555
O26 N21 1_555 1_555
O27 N21 1_555 1_555
O28 N23 1_555 1_555
O29 N23 1_555 1_555
O30 C49 1_555 1_555
H50 O30 1_555 1_555
O31 N24 1_555 1_555
O32 N24 1_555 1_555
C2 N2 1_555 1_555
C4 N4 1_555 1_555
C6 N6 1_555 1_555
C8 N8 1_555 1_555
C10 N10 1_555 1_555
C11 N1 1_555 1_555
C12 N2 1_555 1_555
C13 N3 1_555 1_555
C14 N4 1_555 1_555
C15 N5 1_555 1_555
C16 N6 1_555 1_555
C17 N7 1_555 1_555
C18 N8 1_555 1_555
C19 N9 1_555 1_555
C20 N10 1_555 1_555
C21 N16 1_555 1_555
C22 N16 1_555 1_555
C22 N17 1_555 1_555
C23 N18 1_555 1_555
C24 N18 1_555 1_555
C24 N19 1_555 1_555
C25 N20 1_555 1_555
C26 N15 1_555 1_555
C26 N20 1_555 1_555
C27 N15 1_555 1_555
C28 N13 1_555 1_555
C28 N14 1_555 1_555
C29 N13 1_555 1_555
C30 N11 1_555 1_555
C30 N12 1_555 1_555
C35 C36 1_555 1_555
C41 C42 1_555 1_555
C47 C48 1_555 1_555
C53 C54 1_555 1_555

#END
