
#######################################################################
#
#                 Cambridge Crystallographic Data Centre
#                                CCDC 
#
#######################################################################
#
# If this CIF has been generated from an entry in the Cambridge 
# Structural Database, then it will include bibliographic, chemical, 
# crystal, experimental, refinement or atomic coordinate data resulting 
# from the CCDC's data processing and validation procedures.
#
#######################################################################

data_PAQNED
_chemical_formula_moiety         'C27 H27 I1 N1 O2 1+,I3 1-'
_chemical_name_systematic        
'4-butyl-3-iodo-6,7-dimethoxy-1,2-diphenylquinolinium tri-iodide'
_symmetry_cell_setting           triclinic
_symmetry_space_group_name_H-M   'P -1'
_symmetry_Int_Tables_number      2
_space_group_name_Hall           '-P 1'
loop_
_symmetry_equiv_pos_site_id
_symmetry_equiv_pos_as_xyz
1 x,y,z
2 -x,-y,-z
_cell_length_a                   8.3623(6)
_cell_length_b                   11.8756(9)
_cell_length_c                   15.7416(12)
_cell_angle_alpha                94.5660(10)
_cell_angle_beta                 96.9990(10)
_cell_angle_gamma                104.3530(10)
_cell_volume                     1493.34
_exptl_crystal_colour            colorless
_exptl_crystal_description       block
_cell_formula_units_Z            2
loop_
_atom_site_label
_atom_site_type_symbol
_atom_site_fract_x
_atom_site_fract_y
_atom_site_fract_z
C1 C 0.1676(7) 0.3650(5) 0.1923(3)
C2 C 0.1174(7) 0.4601(5) 0.2256(4)
C3 C 0.2102(9) 0.5361(6) 0.2950(4)
C4 C 0.3682(7) 0.5198(5) 0.3286(3)
C5 C 0.4800(8) 0.5990(5) 0.3945(4)
H1 H 0.4518 0.6655 0.4162
C6 C 0.6292(8) 0.5793(5) 0.4270(3)
C7 C 0.6701(7) 0.4749(4) 0.3969(3)
C8 C 0.5654(7) 0.3970(4) 0.3325(3)
H2 H 0.5933 0.3296 0.3125
C9 C 0.4148(7) 0.4200(4) 0.2969(3)
C10 C 0.0720(6) 0.2813(5) 0.1170(3)
C11 C -0.0244(8) 0.1729(6) 0.1285(5)
H3 H -0.0337 0.1516 0.1836
C12 C -0.1080(10) 0.0955(6) 0.0562(6)
H4 H -0.1752 0.0227 0.0631
C13 C -0.0916(11) 0.1261(8) -0.0241(6)
H5 H -0.1464 0.0736 -0.0720
C14 C 0.0067(13) 0.2355(9) -0.0354(5)
H6 H 0.0187 0.2556 -0.0906
C15 C 0.0866(10) 0.3142(7) 0.0357(4)
H7 H 0.1494 0.3884 0.0288
C16 C 0.1487(10) 0.6324(7) 0.3391(5)
H8 H 0.1953 0.6472 0.3997
H9 H 0.0280 0.6089 0.3346
C17 C 0.2041(12) 0.7447(8) 0.2946(6)
H10 H 0.3229 0.7608 0.2924
H11 H 0.1468 0.7313 0.2359
C18 C 0.1682(17) 0.8496(9) 0.3402(10)
H12 H 0.1562 0.9036 0.2983
H13 H 0.0613 0.8241 0.3603
C19 C 0.289(3) 0.9136(19) 0.413(2)
H14 H 0.2953 0.8639 0.4578
H15 H 0.2559 0.9809 0.4343
H16 H 0.3970 0.9383 0.3949
C20 C 0.7223(11) 0.7625(6) 0.5126(5)
H17 H 0.7101 0.8027 0.4627
H18 H 0.8178 0.8068 0.5522
H19 H 0.6241 0.7536 0.5400
C21 C 0.8659(9) 0.3600(6) 0.4093(4)
H20 H 0.7879 0.2921 0.4228
H21 H 0.9751 0.3647 0.4389
H22 H 0.8680 0.3543 0.3482
C22 C 0.3681(7) 0.2472(4) 0.1933(3)
C23 C 0.3450(9) 0.1462(5) 0.2324(4)
H23 H 0.2879 0.1375 0.2796
C24 C 0.4096(10) 0.0568(5) 0.1994(5)
H24 H 0.3988 -0.0114 0.2260
C25 C 0.4876(9) 0.0689(6) 0.1291(5)
H25 H 0.5268 0.0077 0.1067
C26 C 0.5100(10) 0.1704(6) 0.0902(5)
H26 H 0.5651 0.1780 0.0422
C27 C 0.4499(8) 0.2609(5) 0.1230(4)
H27 H 0.4648 0.3301 0.0976
I1 I -0.11058(5) 0.48593(4) 0.16898(3)
N1 N 0.3116(5) 0.3454(4) 0.2293(3)
O1 O 0.7442(6) 0.6515(4) 0.4877(3)
O2 O 0.8157(6) 0.4631(4) 0.4359(3)
I2 I 0.52051(7) 0.60971(4) 0.10623(3)
I3 I 0.68379(5) 0.81868(3) 0.22471(3)
I4 I 0.83414(9) 1.03137(5) 0.34435(4)
C28? C 0.218(3) 0.6710(15) 0.2931(13)
H28? H 0.3326 0.7183 0.2985
H29? H 0.1551 0.6848 0.2409
C29? C 0.137(3) 0.6944(19) 0.3733(15)
H30? H 0.0202 0.6528 0.3620
H31? H 0.1889 0.6627 0.4211
C30? C 0.152(4) 0.821(2) 0.3994(19)
H32? H 0.0845 0.8261 0.4448
H33? H 0.1041 0.8530 0.3505
C31? C 0.320(6) 0.896(3) 0.429(5)
H34? H 0.3881 0.8945 0.3845
H35? H 0.3687 0.8673 0.4791
H36? H 0.3148 0.9746 0.4445
loop_
_geom_bond_atom_site_label_1
_geom_bond_atom_site_label_2
_geom_bond_site_symmetry_1
_geom_bond_site_symmetry_2
C1 C2 1_555 1_555
C2 C3 1_555 1_555
C3 C4 1_555 1_555
C4 C5 1_555 1_555
C5 H1 1_555 1_555
C6 C5 1_555 1_555
C7 C6 1_555 1_555
C8 C7 1_555 1_555
H2 C8 1_555 1_555
C9 C4 1_555 1_555
C10 C1 1_555 1_555
C11 C10 1_555 1_555
H3 C11 1_555 1_555
C12 C11 1_555 1_555
H4 C12 1_555 1_555
C13 C12 1_555 1_555
H5 C13 1_555 1_555
C14 C13 1_555 1_555
H6 C14 1_555 1_555
C15 C10 1_555 1_555
H7 C15 1_555 1_555
C16 C3 1_555 1_555
H8 C16 1_555 1_555
H9 C16 1_555 1_555
C17 C16 1_555 1_555
H10 C17 1_555 1_555
H11 C17 1_555 1_555
C18 C17 1_555 1_555
H12 C18 1_555 1_555
H13 C18 1_555 1_555
C19 C18 1_555 1_555
H14 C19 1_555 1_555
H15 C19 1_555 1_555
H16 C19 1_555 1_555
C20 H17 1_555 1_555
H18 C20 1_555 1_555
H19 C20 1_555 1_555
C21 H20 1_555 1_555
H21 C21 1_555 1_555
H22 C21 1_555 1_555
C22 C23 1_555 1_555
C23 H23 1_555 1_555
C24 C23 1_555 1_555
H24 C24 1_555 1_555
C25 C24 1_555 1_555
H25 C25 1_555 1_555
C26 C25 1_555 1_555
H26 C26 1_555 1_555
C27 C22 1_555 1_555
H27 C27 1_555 1_555
I1 C2 1_555 1_555
N1 C1 1_555 1_555
O1 C6 1_555 1_555
O2 C7 1_555 1_555
I2 I3 1_555 1_555
I3 I4 1_555 1_555
C8 C9 1_555 1_555
C9 N1 1_555 1_555
C14 C15 1_555 1_555
C20 O1 1_555 1_555
C21 O2 1_555 1_555
C22 N1 1_555 1_555
C26 C27 1_555 1_555

#END
