
#######################################################################
#
#                 Cambridge Crystallographic Data Centre
#                                CCDC 
#
#######################################################################
#
# If this CIF has been generated from an entry in the Cambridge 
# Structural Database, then it will include bibliographic, chemical, 
# crystal, experimental, refinement or atomic coordinate data resulting 
# from the CCDC's data processing and validation procedures.
#
#######################################################################

data_PAQQOQ
_chemical_formula_moiety         'C53 H35 N3'
_chemical_name_systematic        
N,N-diphenyl-4-(10-(1-phenyl-1H-phenanthro[9,10-d]imidazol-2-yl)-9-anthryl)aniline
_symmetry_cell_setting           triclinic
_symmetry_space_group_name_H-M   'P -1'
_symmetry_Int_Tables_number      2
_space_group_name_Hall           '-P 1'
loop_
_symmetry_equiv_pos_site_id
_symmetry_equiv_pos_as_xyz
1 x,y,z
2 -x,-y,-z
_cell_length_a                   9.774(2)
_cell_length_b                   14.218(3)
_cell_length_c                   14.357(3)
_cell_angle_alpha                90.59(3)
_cell_angle_beta                 105.40(3)
_cell_angle_gamma                104.73(3)
_cell_volume                     1853.8
_exptl_crystal_colour            yellow
_exptl_crystal_description       block
_cell_formula_units_Z            2
loop_
_atom_site_label
_atom_site_type_symbol
_atom_site_fract_x
_atom_site_fract_y
_atom_site_fract_z
C1 C 0.13451(19) 0.31568(13) 0.40563(12)
N1 N 0.01975(16) 0.24725(11) 0.34233(10)
N2 N 0.20135(16) 0.38528(11) 0.36091(10)
C2 C 0.12860(19) 0.36132(13) 0.26336(12)
N3 N 0.39358(17) 0.21544(11) 1.11616(10)
C3 C 0.16107(19) 0.41393(14) 0.18349(12)
C4 C 0.2770(2) 0.49935(15) 0.19773(15)
H1 H 0.338(2) 0.5224(17) 0.2649(17)
C5 C 0.3046(2) 0.54783(16) 0.11890(16)
H2 H 0.390(3) 0.6088(18) 0.1306(16)
C6 C 0.2177(2) 0.51102(17) 0.02550(15)
H3 H 0.241(3) 0.5495(19) -0.0344(18)
C7 C 0.1041(2) 0.42756(17) 0.01092(14)
H4 H 0.044(2) 0.4058(16) -0.0597(16)
C8 C 0.0710(2) 0.37540(15) 0.08918(12)
C9 C -0.0503(2) 0.28706(14) 0.07567(12)
C10 C -0.1457(3) 0.24929(18) -0.01702(14)
H5 H -0.124(2) 0.2850(16) -0.0708(16)
C11 C -0.2617(3) 0.16849(17) -0.03027(15)
H6 H -0.324(2) 0.1447(16) -0.0937(16)
C12 C -0.2895(3) 0.11955(16) 0.04856(15)
H7 H -0.376(2) 0.0602(16) 0.0416(15)
C13 C -0.1995(2) 0.15124(14) 0.14084(14)
H8 H -0.224(2) 0.1159(16) 0.2003(15)
C14 C -0.0791(2) 0.23560(14) 0.15562(12)
C15 C 0.01661(19) 0.27679(13) 0.24952(12)
C16 C -0.06701(19) 0.15926(13) 0.36857(11)
C17 C -0.1935(2) 0.16000(15) 0.39280(14)
H9 H -0.231(2) 0.2178(17) 0.3887(14)
C18 C -0.2761(2) 0.07456(15) 0.41815(15)
H10 H -0.364(3) 0.0748(18) 0.4381(16)
C19 C -0.2323(2) -0.01056(15) 0.41785(14)
H11 H -0.294(3) -0.075(2) 0.4394(18)
C20 C -0.1058(2) -0.01056(15) 0.39168(14)
H12 H -0.071(2) -0.0704(17) 0.3891(15)
C21 C -0.0213(2) 0.07520(14) 0.36785(13)
H13 H 0.074(2) 0.0793(16) 0.3511(15)
C22 C 0.17581(18) 0.30504(12) 0.51142(12)
C23 C 0.30246(18) 0.27467(12) 0.55373(12)
C24 C 0.3959(2) 0.25600(14) 0.49878(14)
H14 H 0.364(2) 0.2613(16) 0.4284(15)
C25 C 0.5232(2) 0.23271(15) 0.54192(15)
H15 H 0.583(2) 0.2175(17) 0.5025(16)
C26 C 0.5647(2) 0.22372(15) 0.64285(15)
H16 H 0.661(2) 0.2078(15) 0.6708(14)
C27 C 0.4767(2) 0.23687(14) 0.69771(14)
H17 H 0.500(2) 0.2268(14) 0.7670(14)
C28 C 0.34224(18) 0.26278(12) 0.65605(12)
C29 C 0.24983(18) 0.27764(12) 0.71266(11)
C30 C 0.12517(18) 0.31023(12) 0.67002(12)
C31 C 0.03177(19) 0.33072(14) 0.72497(13)
H18 H 0.057(2) 0.3184(15) 0.7910(15)
C32 C -0.0799(2) 0.37052(15) 0.68526(14)
H19 H -0.140(2) 0.3849(15) 0.7253(15)
C33 C -0.1101(2) 0.39154(15) 0.58658(15)
H20 H -0.186(2) 0.4229(17) 0.5617(15)
C34 C -0.02905(19) 0.36906(13) 0.52985(13)
H21 H -0.0489(17) 0.3833(12) 0.4615(12)
C35 C 0.08949(18) 0.32660(12) 0.56870(12)
C36 C 0.28777(18) 0.26120(13) 0.81786(12)
C37 C 0.33368(19) 0.33966(14) 0.88843(12)
H22 H 0.339(2) 0.4063(18) 0.8702(16)
C38 C 0.36916(19) 0.32467(14) 0.98637(12)
H23 H 0.401(2) 0.3807(15) 1.0338(14)
C39 C 0.35795(18) 0.23105(13) 1.01655(12)
C40 C 0.3123(2) 0.15209(14) 0.94612(13)
H24 H 0.310(2) 0.0877(16) 0.9659(15)
C41 C 0.2775(2) 0.16780(14) 0.84857(12)
H25 H 0.250(2) 0.1136(16) 0.7993(14)
C42 C 0.3172(2) 0.13132(14) 1.15066(12)
C43 C 0.1654(2) 0.09296(16) 1.11334(14)
H26 H 0.110(2) 0.1259(15) 1.0635(14)
C44 C 0.0932(2) 0.00977(17) 1.14782(16)
H27 H -0.014(3) -0.0164(18) 1.1207(16)
C45 C 0.1684(3) -0.03527(17) 1.22130(16)
H28 H 0.111(2) -0.0974(17) 1.2510(15)
C46 C 0.3197(3) 0.00343(17) 1.25998(17)
H29 H 0.372(3) -0.029(2) 1.318(2)
C47 C 0.3932(2) 0.08530(16) 1.22406(15)
H30 H 0.502(3) 0.1118(18) 1.2511(17)
C48 C 0.50296(19) 0.28905(13) 1.18369(11)
C49 C 0.4736(2) 0.32085(15) 1.26572(13)
H31 H 0.376(2) 0.2946(15) 1.2724(14)
C50 C 0.5789(2) 0.39240(16) 1.33144(13)
H32 H 0.555(2) 0.4160(16) 1.3880(15)
C51 C 0.7137(2) 0.43294(15) 1.31513(14)
H33 H 0.783(2) 0.4814(17) 1.3624(16)
C52 C 0.7433(2) 0.40172(14) 1.23246(15)
H34 H 0.844(3) 0.4313(18) 1.2185(17)
C53 C 0.6381(2) 0.32953(14) 1.16689(13)
H35 H 0.657(2) 0.3087(14) 1.1085(14)
loop_
_geom_bond_atom_site_label_1
_geom_bond_atom_site_label_2
_geom_bond_site_symmetry_1
_geom_bond_site_symmetry_2
C1 N1 1_555 1_555
N1 C15 1_555 1_555
N2 C1 1_555 1_555
C2 N2 1_555 1_555
N3 C39 1_555 1_555
C3 C2 1_555 1_555
C4 C3 1_555 1_555
H1 C4 1_555 1_555
C5 C4 1_555 1_555
H2 C5 1_555 1_555
C6 C5 1_555 1_555
H3 C6 1_555 1_555
C7 C6 1_555 1_555
H4 C7 1_555 1_555
C8 C3 1_555 1_555
C9 C8 1_555 1_555
C10 C9 1_555 1_555
H5 C10 1_555 1_555
C11 C10 1_555 1_555
H6 C11 1_555 1_555
C12 C11 1_555 1_555
H7 C12 1_555 1_555
C13 C12 1_555 1_555
H8 C13 1_555 1_555
C14 C9 1_555 1_555
C15 C2 1_555 1_555
C16 N1 1_555 1_555
C17 C16 1_555 1_555
H9 C17 1_555 1_555
C18 C17 1_555 1_555
H10 C18 1_555 1_555
C19 C18 1_555 1_555
H11 C19 1_555 1_555
C20 C19 1_555 1_555
H12 C20 1_555 1_555
C21 C16 1_555 1_555
H13 C21 1_555 1_555
C22 C1 1_555 1_555
C23 C22 1_555 1_555
C24 C23 1_555 1_555
H14 C24 1_555 1_555
C25 C24 1_555 1_555
H15 C25 1_555 1_555
C26 C25 1_555 1_555
H16 C26 1_555 1_555
C27 C26 1_555 1_555
H17 C27 1_555 1_555
C28 C23 1_555 1_555
C29 C28 1_555 1_555
C30 C29 1_555 1_555
C31 C30 1_555 1_555
H18 C31 1_555 1_555
C32 C31 1_555 1_555
H19 C32 1_555 1_555
C33 C32 1_555 1_555
H20 C33 1_555 1_555
C34 C33 1_555 1_555
H21 C34 1_555 1_555
C35 C22 1_555 1_555
C36 C29 1_555 1_555
C37 C36 1_555 1_555
H22 C37 1_555 1_555
C38 C37 1_555 1_555
H23 C38 1_555 1_555
C39 C38 1_555 1_555
C40 C39 1_555 1_555
H24 C40 1_555 1_555
C41 C36 1_555 1_555
H25 C41 1_555 1_555
C42 N3 1_555 1_555
C43 C42 1_555 1_555
H26 C43 1_555 1_555
C44 C43 1_555 1_555
H27 C44 1_555 1_555
C45 C44 1_555 1_555
H28 C45 1_555 1_555
C46 C45 1_555 1_555
H29 C46 1_555 1_555
C47 C42 1_555 1_555
H30 C47 1_555 1_555
C48 N3 1_555 1_555
C49 C48 1_555 1_555
H31 C49 1_555 1_555
C50 C49 1_555 1_555
H32 C50 1_555 1_555
C51 C50 1_555 1_555
H33 C51 1_555 1_555
C52 C51 1_555 1_555
H34 C52 1_555 1_555
C53 C48 1_555 1_555
H35 C53 1_555 1_555
C7 C8 1_555 1_555
C13 C14 1_555 1_555
C14 C15 1_555 1_555
C20 C21 1_555 1_555
C27 C28 1_555 1_555
C30 C35 1_555 1_555
C34 C35 1_555 1_555
C40 C41 1_555 1_555
C46 C47 1_555 1_555
C52 C53 1_555 1_555

#END
