
#######################################################################
#
#                 Cambridge Crystallographic Data Centre
#                                CCDC 
#
#######################################################################
#
# If this CIF has been generated from an entry in the Cambridge 
# Structural Database, then it will include bibliographic, chemical, 
# crystal, experimental, refinement or atomic coordinate data resulting 
# from the CCDC's data processing and validation procedures.
#
#######################################################################

data_PAQQUW
_chemical_formula_moiety         'C53 H33 N3'
_chemical_name_systematic        
1-phenyl-2-(10-(9-phenyl-9H-carbazol-3-yl)-9-anthryl)-1H-phenanthro[9,10-d]imidazole
_symmetry_cell_setting           triclinic
_symmetry_space_group_name_H-M   'P -1'
_symmetry_Int_Tables_number      2
_space_group_name_Hall           '-P 1'
loop_
_symmetry_equiv_pos_site_id
_symmetry_equiv_pos_as_xyz
1 x,y,z
2 -x,-y,-z
_cell_length_a                   9.0678(18)
_cell_length_b                   13.681(3)
_cell_length_c                   16.569(3)
_cell_angle_alpha                94.64(3)
_cell_angle_beta                 102.84(3)
_cell_angle_gamma                106.29(3)
_cell_volume                     1900.98
_exptl_crystal_colour            white
_exptl_crystal_description       block
_cell_formula_units_Z            2
loop_
_atom_site_label
_atom_site_type_symbol
_atom_site_fract_x
_atom_site_fract_y
_atom_site_fract_z
C1 C 0.9107(4) 0.9209(2) 0.23047(19)
C2 C 1.0806(4) 0.8116(2) 0.25962(19)
C3 C 0.9418(4) 0.7233(2) 0.24548(19)
C4 C 1.3777(4) 1.1184(2) 0.2266(2)
C5 C 0.7722(4) 0.8327(2) 0.21675(19)
N1 N 1.2517(3) 1.03119(19) 0.19399(16)
C6 C 1.0622(4) 0.9091(2) 0.25222(19)
C7 C 0.6465(4) 0.6419(2) 0.2052(2)
N2 N 1.2921(3) 1.06159(18) 0.33304(15)
C8 C 1.4720(4) 1.1823(2) 0.1809(2)
C9 C 0.7906(4) 0.7349(2) 0.22435(19)
C10 C 1.2026(4) 0.9991(2) 0.2590(2)
C11 C 0.3591(4) 0.4512(2) 0.29657(19)
C12 C 0.2279(4) 0.3796(2) 0.2403(2)
N3 N 0.2392(3) 0.39037(19) 0.15901(16)
C13 C 1.4064(4) 1.1399(2) 0.3119(2)
C14 C 0.5901(4) 0.5956(2) 0.2679(2)
H1 H 0.6440 0.6211 0.3236
C15 C 0.3740(4) 0.4720(2) 0.1628(2)
C16 C 0.4535(4) 0.5113(2) 0.24852(19)
C17 C 0.8900(4) 1.0196(2) 0.2211(2)
H2 H 0.9785 1.0774 0.2300
C18 C 1.5970(4) 1.2696(2) 0.2272(2)
C19 C 0.9674(4) 0.6254(2) 0.2516(2)
H3 H 0.8797 0.5671 0.2431
C20 C 0.6219(4) 0.8490(3) 0.1949(2)
H4 H 0.5310 0.7927 0.1857
C21 C 0.5670(4) 0.6004(3) 0.1216(2)
H5 H 0.6064 0.6311 0.0795
C22 C 1.2330(4) 0.7955(3) 0.2778(2)
H6 H 1.3237 0.8519 0.2868
C23 C 0.4327(4) 0.5161(3) 0.0994(2)
H7 H 0.3827 0.4894 0.0434
C24 C 0.6054(5) 0.9432(3) 0.1869(3)
H8 H 0.5047 0.9511 0.1732
C25 C 1.6265(4) 1.2916(2) 0.3177(2)
C26 C 1.5330(4) 1.2254(2) 0.3618(2)
C27 C 0.3692(4) 0.4572(3) 0.3822(2)
H9 H 0.4571 0.5029 0.4208
C28 C 1.2612(4) 1.0526(2) 0.4144(2)
C29 C 1.2490(4) 0.7011(3) 0.2821(2)
H10 H 1.3496 0.6929 0.2937
C30 C 0.1037(4) 0.3174(2) 0.2670(2)
H11 H 0.0156 0.2710 0.2290
C31 C 1.1124(5) 0.6144(3) 0.2689(3)
H12 H 1.1237 0.5493 0.2723
C32 C 0.1267(4) 0.3300(3) 0.0850(2)
C33 C 1.4456(5) 1.1592(3) 0.0937(2)
H13 H 1.3639 1.1013 0.0640
C34 C 0.7419(5) 1.0292(3) 0.1995(3)
H14 H 0.7302 1.0937 0.1928
C35 C 1.2950(5) 0.9767(3) 0.4574(2)
H15 H 1.3329 0.9281 0.4334
C36 C 1.5717(5) 1.2469(3) 0.4496(2)
H16 H 1.5124 1.2033 0.4790
C37 C 0.0839(5) 0.2227(3) 0.0770(3)
H17 H 0.1315 0.1906 0.1180
C38 C 0.1160(5) 0.3271(3) 0.3515(3)
H18 H 0.0335 0.2871 0.3707
C39 C 1.7507(5) 1.3778(3) 0.3646(3)
H19 H 1.8121 1.4225 0.3368
C40 C 0.2463(5) 0.3942(3) 0.4087(3)
H20 H 0.2520 0.3972 0.4656
C41 C 1.6905(5) 1.3309(3) 0.1810(3)
H21 H 1.7742 1.3888 0.2090
C42 C 0.0551(5) 0.3762(3) 0.0245(2)
H22 H 0.0818 0.4476 0.0304
C43 C 1.1986(6) 1.1210(3) 0.4481(3)
H23 H 1.1704 1.1701 0.4176
C44 C -0.0582(6) 0.3157(4) -0.0460(3)
H24 H -0.1041 0.3468 -0.0883
C45 C 1.6599(7) 1.3066(4) 0.0963(4)
H25 H 1.7227 1.3492 0.0677
C46 C 1.6952(6) 1.3309(3) 0.4928(3)
H26 H 1.7203 1.3436 0.5510
C47 C 1.7831(5) 1.3971(3) 0.4490(4)
H27 H 1.8649 1.4553 0.4781
C48 C 1.5404(6) 1.2220(4) 0.0522(3)
H28 H 1.5229 1.2068 -0.0055
C49 C 1.2144(6) 1.0422(4) 0.5719(3)
H29 H 1.1999 1.0389 0.6255
C50 C -0.1019(6) 0.2109(5) -0.0532(3)
H30 H -0.1807 0.1706 -0.0993
C51 C -0.0300(6) 0.1657(4) 0.0072(4)
H31 H -0.0587 0.0942 0.0010
C52 C 1.2718(6) 0.9734(4) 0.5367(3)
H32 H 1.2963 0.9228 0.5665
C53 C 1.1774(6) 1.1166(4) 0.5286(3)
H33 H 1.1381 1.1642 0.5528
loop_
_geom_bond_atom_site_label_1
_geom_bond_atom_site_label_2
_geom_bond_site_symmetry_1
_geom_bond_site_symmetry_2
C1 C5 1_555 1_555
C2 C3 1_555 1_555
C3 C9 1_555 1_555
C4 N1 1_555 1_555
C5 C9 1_555 1_555
N1 C10 1_555 1_555
C6 C1 1_555 1_555
C7 C9 1_555 1_555
N2 C10 1_555 1_555
C8 C4 1_555 1_555
C10 C6 1_555 1_555
C11 C12 1_555 1_555
C12 N3 1_555 1_555
N3 C15 1_555 1_555
C13 C4 1_555 1_555
C14 C7 1_555 1_555
H1 C14 1_555 1_555
C15 C16 1_555 1_555
C16 C11 1_555 1_555
C17 C1 1_555 1_555
H2 C17 1_555 1_555
C18 C8 1_555 1_555
C19 C3 1_555 1_555
H3 C19 1_555 1_555
C20 C5 1_555 1_555
H4 C20 1_555 1_555
C21 C7 1_555 1_555
H5 C21 1_555 1_555
C22 C2 1_555 1_555
H6 C22 1_555 1_555
C23 C15 1_555 1_555
H7 C23 1_555 1_555
C24 C20 1_555 1_555
H8 C24 1_555 1_555
C25 C18 1_555 1_555
C26 C13 1_555 1_555
C27 C11 1_555 1_555
H9 C27 1_555 1_555
C28 N2 1_555 1_555
C29 C22 1_555 1_555
H10 C29 1_555 1_555
C30 C12 1_555 1_555
H11 C30 1_555 1_555
C31 C19 1_555 1_555
H12 C31 1_555 1_555
C32 N3 1_555 1_555
C33 C8 1_555 1_555
H13 C33 1_555 1_555
C34 C17 1_555 1_555
H14 C34 1_555 1_555
C35 C28 1_555 1_555
H15 C35 1_555 1_555
C36 C26 1_555 1_555
H16 C36 1_555 1_555
C37 C32 1_555 1_555
H17 C37 1_555 1_555
C38 C30 1_555 1_555
H18 C38 1_555 1_555
C39 C25 1_555 1_555
H19 C39 1_555 1_555
C40 C27 1_555 1_555
H20 C40 1_555 1_555
C41 C18 1_555 1_555
H21 C41 1_555 1_555
C42 C32 1_555 1_555
H22 C42 1_555 1_555
C43 C28 1_555 1_555
H23 C43 1_555 1_555
C44 C42 1_555 1_555
H24 C44 1_555 1_555
C45 C41 1_555 1_555
H25 C45 1_555 1_555
C46 C36 1_555 1_555
H26 C46 1_555 1_555
C47 C39 1_555 1_555
H27 C47 1_555 1_555
C48 C33 1_555 1_555
H28 C48 1_555 1_555
C49 H29 1_555 1_555
C50 C44 1_555 1_555
H30 C50 1_555 1_555
C51 C37 1_555 1_555
H31 C51 1_555 1_555
C52 C35 1_555 1_555
H32 C52 1_555 1_555
C53 C43 1_555 1_555
H33 C53 1_555 1_555
C2 C6 1_555 1_555
N2 C13 1_555 1_555
C14 C16 1_555 1_555
C21 C23 1_555 1_555
C24 C34 1_555 1_555
C25 C26 1_555 1_555
C29 C31 1_555 1_555
C38 C40 1_555 1_555
C45 C48 1_555 1_555
C46 C47 1_555 1_555
C49 C52 1_555 1_555
C49 C53 1_555 1_555
C50 C51 1_555 1_555

#END
