
#######################################################################
#
#                 Cambridge Crystallographic Data Centre
#                                CCDC 
#
#######################################################################
#
# If this CIF has been generated from an entry in the Cambridge 
# Structural Database, then it will include bibliographic, chemical, 
# crystal, experimental, refinement or atomic coordinate data resulting 
# from the CCDC's data processing and validation procedures.
#
#######################################################################

data_PAQSOS
_chemical_formula_moiety         'C26 H25 P2 1+,C1 F3 O3 S1 1-'
_chemical_name_systematic        
'((diphenylphosphino)methyl)(methyl)diphenylphosphonium trifluoromethanesulfonate'
_symmetry_cell_setting           monoclinic
_symmetry_space_group_name_H-M   'P 21/n'
_symmetry_Int_Tables_number      14
_space_group_name_Hall           '-P 2yn'
loop_
_symmetry_equiv_pos_site_id
_symmetry_equiv_pos_as_xyz
1 x,y,z
2 1/2-x,1/2+y,1/2-z
3 -x,-y,-z
4 1/2+x,1/2-y,1/2+z
_cell_length_a                   12.6345(6)
_cell_length_b                   12.5936(6)
_cell_length_c                   17.5366(9)
_cell_angle_alpha                90
_cell_angle_beta                 110.656(2)
_cell_angle_gamma                90
_cell_volume                     2610.94
_exptl_crystal_colour            colorless
_exptl_crystal_description       block
_cell_formula_units_Z            4
loop_
_atom_site_label
_atom_site_type_symbol
_atom_site_fract_x
_atom_site_fract_y
_atom_site_fract_z
S1 S -0.23916(5) 0.54614(5) 0.07488(4)
O1 O -0.25699(15) 0.64159(14) 0.11365(11)
O2 O -0.16975(17) 0.46803(15) 0.12866(11)
O3 O -0.33793(17) 0.50601(17) 0.01262(13)
F1 F -0.1319(2) 0.51397(18) -0.02553(13)
F2 F -0.05063(18) 0.6253(2) 0.07155(16)
F3 F -0.1969(2) 0.67172(17) -0.02955(14)
C1 C -0.1503(3) 0.5920(3) 0.0195(2)
P1 P 0.43871(5) 0.84877(5) 0.05428(4)
P2 P 0.51698(5) 0.69713(5) 0.19241(4)
C2 C 0.4570(2) 0.85509(19) -0.04457(14)
C3 C 0.5613(2) 0.8304(2) -0.05074(16)
H1 H 0.6201 0.8020 -0.0050
C4 C 0.5797(2) 0.8470(2) -0.12299(17)
H2 H 0.6505 0.8285 -0.1269
C5 C 0.4956(2) 0.8904(2) -0.18980(16)
H3 H 0.5089 0.9022 -0.2392
C6 C 0.3927(2) 0.9164(2) -0.18418(15)
H4 H 0.3348 0.9462 -0.2298
C7 C 0.3737(2) 0.8992(2) -0.11239(15)
H5 H 0.3026 0.9177 -0.1091
C8 C 0.2339(2) 0.9185(2) 0.05783(15)
H6 H 0.2780 0.9758 0.0880
C9 C 0.1190(2) 0.9139(2) 0.04442(17)
H7 H 0.0845 0.9681 0.0653
C10 C 0.0547(2) 0.8309(2) 0.00100(16)
H8 H -0.0239 0.8280 -0.0080
C11 C 0.1048(2) 0.7517(2) -0.02965(15)
H9 H 0.0606 0.6941 -0.0592
C12 C 0.2187(2) 0.7566(2) -0.01717(14)
H10 H 0.2524 0.7029 -0.0391
C13 C 0.2848(2) 0.83969(19) 0.02733(14)
C14 C 0.4048(2) 0.7490(2) 0.22187(14)
C15 C 0.4175(2) 0.8433(2) 0.26473(15)
H11 H 0.4875 0.8802 0.2810
C16 C 0.3281(3) 0.8836(3) 0.28390(17)
H12 H 0.3369 0.9479 0.3139
C17 C 0.2263(3) 0.8306(3) 0.25942(18)
H13 H 0.1649 0.8587 0.2724
C18 C 0.2127(2) 0.7372(3) 0.21631(18)
H14 H 0.1421 0.7012 0.1995
C19 C 0.3018(2) 0.6956(2) 0.19732(16)
H15 H 0.2927 0.6310 0.1677
C20 C 0.54209(19) 0.56198(19) 0.22540(14)
C21 C 0.5507(2) 0.48186(19) 0.17351(15)
H16 H 0.5372 0.4967 0.1178
C22 C 0.5791(2) 0.3800(2) 0.20376(16)
H17 H 0.5850 0.3249 0.1685
C23 C 0.5989(2) 0.3580(2) 0.28500(16)
H18 H 0.6189 0.2881 0.3053
C24 C 0.5897(2) 0.4376(2) 0.33645(16)
H19 H 0.6034 0.4223 0.3922
C25 C 0.5607(2) 0.5396(2) 0.30715(15)
H20 H 0.5534 0.5942 0.3424
C26 C 0.64333(19) 0.7711(2) 0.24058(15)
H21 H 0.6646 0.7660 0.2999
H22 H 0.6305 0.8457 0.2239
H23 H 0.7043 0.7422 0.2244
C27 C 0.48036(19) 0.70793(19) 0.08406(13)
H24 H 0.4167 0.6597 0.0558
H25 H 0.5458 0.6880 0.0685
loop_
_geom_bond_atom_site_label_1
_geom_bond_atom_site_label_2
_geom_bond_site_symmetry_1
_geom_bond_site_symmetry_2
S1 O1 1_555 1_555
O2 S1 1_555 1_555
O3 S1 1_555 1_555
F1 C1 1_555 1_555
F2 C1 1_555 1_555
F3 C1 1_555 1_555
C1 S1 1_555 1_555
P1 C2 1_555 1_555
P2 C14 1_555 1_555
C2 C3 1_555 1_555
C3 H1 1_555 1_555
C4 C3 1_555 1_555
H2 C4 1_555 1_555
C5 C4 1_555 1_555
H3 C5 1_555 1_555
C6 C5 1_555 1_555
H4 C6 1_555 1_555
C7 C2 1_555 1_555
H5 C7 1_555 1_555
C8 H6 1_555 1_555
C9 C8 1_555 1_555
H7 C9 1_555 1_555
C10 C9 1_555 1_555
H8 C10 1_555 1_555
C11 C10 1_555 1_555
H9 C11 1_555 1_555
C12 C11 1_555 1_555
H10 C12 1_555 1_555
C13 P1 1_555 1_555
C14 C15 1_555 1_555
C15 H11 1_555 1_555
C16 C15 1_555 1_555
H12 C16 1_555 1_555
C17 C16 1_555 1_555
H13 C17 1_555 1_555
C18 C17 1_555 1_555
H14 C18 1_555 1_555
C19 C14 1_555 1_555
H15 C19 1_555 1_555
C20 P2 1_555 1_555
C21 C20 1_555 1_555
H16 C21 1_555 1_555
C22 C21 1_555 1_555
H17 C22 1_555 1_555
C23 C22 1_555 1_555
H18 C23 1_555 1_555
C24 C23 1_555 1_555
H19 C24 1_555 1_555
C25 C20 1_555 1_555
H20 C25 1_555 1_555
C26 P2 1_555 1_555
H21 C26 1_555 1_555
H22 C26 1_555 1_555
H23 C26 1_555 1_555
C27 P1 1_555 1_555
H24 C27 1_555 1_555
H25 C27 1_555 1_555
P2 C27 1_555 1_555
C6 C7 1_555 1_555
C8 C13 1_555 1_555
C12 C13 1_555 1_555
C18 C19 1_555 1_555
C24 C25 1_555 1_555

#END
