
#######################################################################
#
#                 Cambridge Crystallographic Data Centre
#                                CCDC 
#
#######################################################################
#
# If this CIF has been generated from an entry in the Cambridge 
# Structural Database, then it will include bibliographic, chemical, 
# crystal, experimental, refinement or atomic coordinate data resulting 
# from the CCDC's data processing and validation procedures.
#
#######################################################################

data_PAQVUA
_chemical_formula_moiety         'C32 H44 N2 O6'
_chemical_name_systematic        
2,4-bis(4-(diisobutylamino)-2,6-dihydroxyphenyl)squaraine
_symmetry_cell_setting           monoclinic
_symmetry_space_group_name_H-M   'P 21/n'
_symmetry_Int_Tables_number      14
_space_group_name_Hall           '-P 2yn'
loop_
_symmetry_equiv_pos_site_id
_symmetry_equiv_pos_as_xyz
1 x,y,z
2 1/2-x,1/2+y,1/2-z
3 -x,-y,-z
4 1/2+x,1/2-y,1/2+z
_cell_length_a                   6.2034(16)
_cell_length_b                   16.478(4)
_cell_length_c                   14.518(4)
_cell_angle_alpha                90
_cell_angle_beta                 92.406(4)
_cell_angle_gamma                90
_cell_volume                     1482.72
_exptl_crystal_colour            green
_exptl_crystal_description       prism
_cell_formula_units_Z            2
loop_
_atom_site_label
_atom_site_type_symbol
_atom_site_fract_x
_atom_site_fract_y
_atom_site_fract_z
C1 C 1.1105(2) 0.04358(9) 1.01387(10)
C2 C 0.9063(2) 0.04165(9) 0.96072(10)
C3 C 0.7816(2) 0.09667(9) 0.90754(10)
C4 C 0.8529(2) 0.17783(9) 0.89079(10)
C5 C 0.7310(2) 0.23187(9) 0.83961(10)
H1 H 0.7847 0.2851 0.8304
C6 C 0.5272(3) 0.21024(9) 0.80006(10)
C7 C 0.4547(2) 0.12975(9) 0.81363(10)
H2 H 0.3197 0.1132 0.7866
C8 C 0.5757(2) 0.07547(9) 0.86491(10)
C9 C 0.4832(3) 0.34893(9) 0.73920(11)
H3 H 0.3987 0.3740 0.6873
H4 H 0.6357 0.3470 0.7218
C10 C 0.4676(3) 0.40328(10) 0.82385(12)
H5 H 0.5529 0.3773 0.8759
C11 C 0.2365(3) 0.41286(11) 0.85322(13)
H6 H 0.2345 0.4473 0.9082
H7 H 0.1769 0.3594 0.8672
H8 H 0.1494 0.4381 0.8032
C12 C 0.5706(3) 0.48502(11) 0.80397(15)
H9 H 0.4913 0.5112 0.7523
H10 H 0.7210 0.4768 0.7881
H11 H 0.5657 0.5196 0.8587
C13 C 0.1956(3) 0.24717(10) 0.70721(11)
H12 H 0.0978 0.2934 0.7176
H13 H 0.1351 0.1991 0.7378
C14 C 0.1981(3) 0.23067(10) 0.60363(11)
H14 H 0.2538 0.2804 0.5731
C15 C 0.3426(3) 0.15985(11) 0.57944(12)
H15 H 0.2862 0.1097 0.6057
H16 H 0.4892 0.1696 0.6048
H17 H 0.3454 0.1545 0.5123
C16 C -0.0336(3) 0.21704(11) 0.56807(12)
H18 H -0.0382 0.2144 0.5006
H19 H -0.1241 0.2620 0.5879
H20 H -0.0874 0.1659 0.5929
N1 N 0.4066(2) 0.26544(8) 0.75114(9)
O1 O 1.24606(17) 0.09803(6) 1.03239(7)
O2 O 1.04568(18) 0.20629(6) 0.92402(8)
O3 O 0.48807(18) 0.00039(7) 0.87398(8)
H21 H 1.121(3) 0.1708(12) 0.9601(14)
H22 H 0.579(4) -0.0388(12) 0.9121(15)
C1B C 0.8895(2) -0.04358(9) 0.98613(10)
C2B C 1.0937(2) -0.04165(9) 1.03928(10)
C3B C 1.2184(2) -0.09667(9) 1.09246(10)
C4B C 1.1471(2) -0.17783(9) 1.10921(10)
C5B C 1.2690(2) -0.23187(9) 1.16039(10)
H1B H 1.2153 -0.2851 1.1696
C6B C 1.4728(3) -0.21024(9) 1.19994(10)
C7B C 1.5453(2) -0.12975(9) 1.18637(10)
H2B H 1.6803 -0.1132 1.2134
C8B C 1.4243(2) -0.07547(9) 1.13509(10)
C9B C 1.5168(3) -0.34893(9) 1.26080(11)
H3B H 1.6013 -0.3740 1.3127
H4B H 1.3643 -0.3470 1.2782
C10B C 1.5324(3) -0.40328(10) 1.17615(12)
H5B H 1.4471 -0.3773 1.1241
C11B C 1.7635(3) -0.41286(11) 1.14678(13)
H6B H 1.7655 -0.4473 1.0918
H7B H 1.8231 -0.3594 1.1328
H8B H 1.8506 -0.4381 1.1968
C12B C 1.4294(3) -0.48502(11) 1.19603(15)
H9B H 1.5087 -0.5112 1.2477
H10B H 1.2790 -0.4768 1.2119
H11B H 1.4343 -0.5196 1.1413
C13B C 1.8044(3) -0.24717(10) 1.29279(11)
H12B H 1.9022 -0.2934 1.2824
H13B H 1.8649 -0.1991 1.2622
C14B C 1.8019(3) -0.23067(10) 1.39637(11)
H14B H 1.7462 -0.2804 1.4269
C15B C 1.6574(3) -0.15985(11) 1.42056(12)
H15B H 1.7138 -0.1097 1.3943
H16B H 1.5108 -0.1696 1.3952
H17B H 1.6546 -0.1545 1.4877
C16B C 2.0336(3) -0.21704(11) 1.43193(12)
H18B H 2.0382 -0.2144 1.4994
H19B H 2.1241 -0.2620 1.4121
H20B H 2.0874 -0.1659 1.4071
N1B N 1.5934(2) -0.26544(8) 1.24886(9)
O1B O 0.75394(17) -0.09803(6) 0.96761(7)
O2B O 0.95432(18) -0.20629(6) 1.07598(8)
O3B O 1.51193(18) -0.00039(7) 1.12602(8)
H21B H 0.879(3) -0.1708(12) 1.0399(14)
H22B H 1.421(4) 0.0388(12) 1.0879(15)
loop_
_geom_bond_atom_site_label_1
_geom_bond_atom_site_label_2
_geom_bond_site_symmetry_1
_geom_bond_site_symmetry_2
C1 C2 1_555 1_555
C2 C3 1_555 1_555
C3 C4 1_555 1_555
C4 C5 1_555 1_555
C5 H1 1_555 1_555
C6 C5 1_555 1_555
C7 C6 1_555 1_555
H2 C7 1_555 1_555
C8 C3 1_555 1_555
C9 H3 1_555 1_555
H4 C9 1_555 1_555
C10 C9 1_555 1_555
H5 C10 1_555 1_555
C11 C10 1_555 1_555
H6 C11 1_555 1_555
H7 C11 1_555 1_555
H8 C11 1_555 1_555
C12 C10 1_555 1_555
H9 C12 1_555 1_555
H10 C12 1_555 1_555
H11 C12 1_555 1_555
C13 H12 1_555 1_555
H13 C13 1_555 1_555
C14 C13 1_555 1_555
H14 C14 1_555 1_555
C15 C14 1_555 1_555
H15 C15 1_555 1_555
H16 C15 1_555 1_555
H17 C15 1_555 1_555
C16 C14 1_555 1_555
H18 C16 1_555 1_555
H19 C16 1_555 1_555
H20 C16 1_555 1_555
N1 C6 1_555 1_555
O1 C1 1_555 1_555
O2 C4 1_555 1_555
O3 C8 1_555 1_555
H21 O2 1_555 1_555
H22 O3 1_555 1_555
C1B C2 1_555 1_555
C2B C1 1_555 1_555
C3B C2B 1_555 1_555
C4B C3B 1_555 1_555
C5B C4B 1_555 1_555
H1B C5B 1_555 1_555
C6B C5B 1_555 1_555
C7B C6B 1_555 1_555
H2B C7B 1_555 1_555
C8B C3B 1_555 1_555
C9B H3B 1_555 1_555
H4B C9B 1_555 1_555
C10B C9B 1_555 1_555
H5B C10B 1_555 1_555
C11B C10B 1_555 1_555
H6B C11B 1_555 1_555
H7B C11B 1_555 1_555
H8B C11B 1_555 1_555
C12B C10B 1_555 1_555
H9B C12B 1_555 1_555
H10B C12B 1_555 1_555
H11B C12B 1_555 1_555
C13B H12B 1_555 1_555
H13B C13B 1_555 1_555
C14B C13B 1_555 1_555
H14B C14B 1_555 1_555
C15B C14B 1_555 1_555
H15B C15B 1_555 1_555
H16B C15B 1_555 1_555
H17B C15B 1_555 1_555
C16B C14B 1_555 1_555
H18B C16B 1_555 1_555
H19B C16B 1_555 1_555
H20B C16B 1_555 1_555
N1B C6B 1_555 1_555
O1B C1B 1_555 1_555
O2B C4B 1_555 1_555
O3B C8B 1_555 1_555
H21B O2B 1_555 1_555
H22B O3B 1_555 1_555
C7 C8 1_555 1_555
C9 N1 1_555 1_555
C13 N1 1_555 1_555
C1B C2B 1_555 1_555
C7B C8B 1_555 1_555
C9B N1B 1_555 1_555
C13B N1B 1_555 1_555

#END
