
#######################################################################
#
#                 Cambridge Crystallographic Data Centre
#                                CCDC 
#
#######################################################################
#
# If this CIF has been generated from an entry in the Cambridge 
# Structural Database, then it will include bibliographic, chemical, 
# crystal, experimental, refinement or atomic coordinate data resulting 
# from the CCDC's data processing and validation procedures.
#
#######################################################################

data_PARDEU
_chemical_name_common            'Frutescone D'
_chemical_formula_moiety         'C29 H44 O3'
_chemical_name_systematic        
4'-isopropyl-7'-methoxy-6,6',8',8',10,10-hexamethyl-4',8'-dihydrospiro[bicyclo[7.2.0]undec-5-ene-2,2'-chromen]-5'(3'H)-one
_symmetry_cell_setting           monoclinic
_symmetry_space_group_name_H-M   'P 21'
_symmetry_Int_Tables_number      4
_space_group_name_Hall           'P 2yb'
loop_
_symmetry_equiv_pos_site_id
_symmetry_equiv_pos_as_xyz
1 x,y,z
2 -x,1/2+y,-z
_cell_length_a                   10.928(2)
_cell_length_b                   6.4320(13)
_cell_length_c                   19.345(4)
_cell_angle_alpha                90
_cell_angle_beta                 95.38(3)
_cell_angle_gamma                90
_cell_volume                     1353.75
_cell_formula_units_Z            2
loop_
_atom_site_label
_atom_site_type_symbol
_atom_site_fract_x
_atom_site_fract_y
_atom_site_fract_z
O1 O 0.3365(3) -0.0019(7) 0.28145(17)
C1 C 0.2151(5) 0.0956(11) 0.2918(3)
C2 C 0.2268(5) 0.1481(11) 0.3693(3)
H1 H 0.2151 0.0211 0.3959
O2 O 0.4015(4) 0.3457(10) 0.0752(2)
O3 O 0.6985(4) -0.1266(9) 0.1723(2)
C3 C 0.1665(5) 0.3284(13) 0.4032(3)
H2 H 0.1511 0.4379 0.3683
C4 C 0.0511(5) 0.3077(16) 0.4422(3)
H3 H 0.0452 0.1641 0.4569
H4 H 0.0630 0.3920 0.4839
C5 C -0.0688(6) 0.3667(17) 0.4047(4)
H5 H -0.0703 0.5155 0.3965
H6 H -0.1346 0.3332 0.4331
C6 C -0.0895(6) 0.2532(15) 0.3359(5)
C7 C -0.0405(6) 0.0622(15) 0.3317(4)
H7 H -0.0217 -0.0081 0.3734
C8 C -0.0134(5) -0.0479(13) 0.2675(4)
H8 H -0.0378 0.0378 0.2273
H9 H -0.0596 -0.1767 0.2631
C9 C 0.1290(5) -0.0959(11) 0.2707(3)
H10 H 0.1480 -0.2071 0.3039
H11 H 0.1477 -0.1456 0.2256
C10 C 0.3531(5) 0.2478(12) 0.3954(3)
H12 H 0.4119 0.1494 0.4173
H13 H 0.3896 0.3284 0.3602
C11 C 0.2901(7) 0.3791(15) 0.4465(4)
C12 C 0.3263(6) 0.6060(13) 0.4535(4)
H14 H 0.4030 0.6177 0.4818
H15 H 0.2638 0.6810 0.4749
H16 H 0.3349 0.6631 0.4084
C13 C 0.2973(5) 0.2745(16) 0.5175(3)
H17 H 0.3744 0.3080 0.5430
H18 H 0.2909 0.1266 0.5116
H19 H 0.2311 0.3233 0.5426
C14 C -0.1559(5) 0.3575(14) 0.2749(4)
H20 H -0.1628 0.2636 0.2361
H21 H -0.1113 0.4792 0.2632
H22 H -0.2366 0.3969 0.2859
C15 C 0.1935(5) 0.2843(11) 0.2465(3)
H23 H 0.2388 0.3991 0.2691
H24 H 0.1069 0.3191 0.2447
C16 C 0.2291(5) 0.2714(13) 0.1696(3)
H25 H 0.2389 0.4130 0.1522
C17 C 0.3529(5) 0.1618(12) 0.1729(3)
C18 C 0.4381(7) 0.2211(14) 0.1204(3)
C19 C 0.5544(6) 0.1094(13) 0.1210(3)
C20 C 0.5896(6) -0.0293(14) 0.1697(3)
C21 C 0.5166(6) -0.0774(12) 0.2286(3)
C22 C 0.3963(5) 0.0400(10) 0.2241(3)
C23 C 0.1291(6) 0.1576(17) 0.1203(4)
H26 H 0.0882 0.0530 0.1469
C24 C 0.0390(6) 0.3256(16) 0.0974(4)
H27 H 0.0077 0.3873 0.1374
H28 H -0.0277 0.2670 0.0679
H29 H 0.0794 0.4301 0.0723
C25 C 0.1678(6) 0.064(2) 0.0589(3)
H30 H 0.0978 0.0051 0.0320
H31 H 0.2263 -0.0442 0.0716
H32 H 0.2050 0.1670 0.0318
C26 C 0.6328(5) 0.1868(13) 0.0637(3)
H33 H 0.7125 0.2276 0.0842
H34 H 0.5931 0.3039 0.0403
H35 H 0.6414 0.0771 0.0308
C27 C 0.7294(6) -0.2486(17) 0.1169(3)
H36 H 0.8083 -0.3115 0.1285
H37 H 0.7325 -0.1630 0.0764
H38 H 0.6686 -0.3552 0.1075
C28 C 0.4847(6) -0.3082(12) 0.2248(4)
H39 H 0.4368 -0.3371 0.1818
H40 H 0.4383 -0.3443 0.2629
H41 H 0.5591 -0.3885 0.2275
C29 C 0.5910(4) -0.0225(13) 0.2976(2)
H42 H 0.6089 0.1237 0.2987
H43 H 0.6665 -0.0997 0.3017
H44 H 0.5441 -0.0571 0.3356
loop_
_geom_bond_atom_site_label_1
_geom_bond_atom_site_label_2
_geom_bond_site_symmetry_1
_geom_bond_site_symmetry_2
O1 C1 1_555 1_555
C1 C2 1_555 1_555
C2 H1 1_555 1_555
O2 C18 1_555 1_555
O3 C20 1_555 1_555
C3 C2 1_555 1_555
H2 C3 1_555 1_555
C4 C3 1_555 1_555
H3 C4 1_555 1_555
H4 C4 1_555 1_555
C5 C4 1_555 1_555
H5 C5 1_555 1_555
H6 C5 1_555 1_555
C6 C5 1_555 1_555
C7 C6 1_555 1_555
H7 C7 1_555 1_555
C8 C7 1_555 1_555
H8 C8 1_555 1_555
H9 C8 1_555 1_555
C9 C1 1_555 1_555
H10 C9 1_555 1_555
H11 C9 1_555 1_555
C10 C2 1_555 1_555
H12 C10 1_555 1_555
H13 C10 1_555 1_555
C11 C3 1_555 1_555
C12 C11 1_555 1_555
H14 C12 1_555 1_555
H15 C12 1_555 1_555
H16 C12 1_555 1_555
C13 C11 1_555 1_555
H17 C13 1_555 1_555
H18 C13 1_555 1_555
H19 C13 1_555 1_555
C14 C6 1_555 1_555
H20 C14 1_555 1_555
H21 C14 1_555 1_555
H22 C14 1_555 1_555
C15 C1 1_555 1_555
H23 C15 1_555 1_555
H24 C15 1_555 1_555
C16 C15 1_555 1_555
H25 C16 1_555 1_555
C17 C16 1_555 1_555
C18 C17 1_555 1_555
C19 C18 1_555 1_555
C20 C19 1_555 1_555
C21 C20 1_555 1_555
C22 O1 1_555 1_555
C23 C16 1_555 1_555
H26 C23 1_555 1_555
C24 C23 1_555 1_555
H27 C24 1_555 1_555
H28 C24 1_555 1_555
H29 C24 1_555 1_555
C25 C23 1_555 1_555
H30 C25 1_555 1_555
H31 C25 1_555 1_555
H32 C25 1_555 1_555
C26 C19 1_555 1_555
H33 C26 1_555 1_555
H34 C26 1_555 1_555
H35 C26 1_555 1_555
C27 O3 1_555 1_555
H36 C27 1_555 1_555
H37 C27 1_555 1_555
H38 C27 1_555 1_555
C28 C21 1_555 1_555
H39 C28 1_555 1_555
H40 C28 1_555 1_555
H41 C28 1_555 1_555
C29 C21 1_555 1_555
H42 C29 1_555 1_555
H43 C29 1_555 1_555
H44 C29 1_555 1_555
C8 C9 1_555 1_555
C10 C11 1_555 1_555
C17 C22 1_555 1_555
C21 C22 1_555 1_555

#END
