
#######################################################################
#
#                 Cambridge Crystallographic Data Centre
#                                CCDC 
#
#######################################################################
#
# If this CIF has been generated from an entry in the Cambridge 
# Structural Database, then it will include bibliographic, chemical, 
# crystal, experimental, refinement or atomic coordinate data resulting 
# from the CCDC's data processing and validation procedures.
#
#######################################################################

data_PARFAQ
_chemical_formula_moiety         'C12 H11 N1 O3'
_chemical_name_systematic        'Ethyl 2-oxo-3(2H)-indolylideneacetate'
_symmetry_cell_setting           monoclinic
_symmetry_space_group_name_H-M   'C 2/c'
_symmetry_Int_Tables_number      15
_space_group_name_Hall           '-C 2yn'
loop_
_symmetry_equiv_pos_site_id
_symmetry_equiv_pos_as_xyz
1 x,y,z
2 1/2+x,1/2+y,z
3 -x,y,1/2-z
4 1/2-x,1/2+y,1/2-z
5 -x,-y,-z
6 1/2-x,1/2-y,-z
7 x,-y,1/2+z
8 1/2+x,1/2-y,1/2+z
_cell_length_a                   23.2262(17)
_cell_length_b                   5.0845(4)
_cell_length_c                   17.6695(13)
_cell_angle_alpha                90
_cell_angle_beta                 90.2040(10)
_cell_angle_gamma                90
_cell_volume                     2086.64
_exptl_crystal_colour            yellow
_exptl_crystal_description       columnar
_chemical_melting_point          '168-170 deg.C'
_cell_formula_units_Z            8
_exptl_crystal_recrystallization_method ethanol
loop_
_atom_site_label
_atom_site_type_symbol
_atom_site_fract_x
_atom_site_fract_y
_atom_site_fract_z
O1 O 0.28881(4) 1.01213(18) -0.05750(5)
N1 N 0.28739(5) 1.0498(2) 0.07265(6)
H1 H 0.2635(7) 1.194(3) 0.0748(8)
C1 C 0.30324(5) 0.9400(2) 0.00625(7)
C2 C 0.34283(5) 0.7127(2) 0.02495(7)
C3 C 0.34625(5) 0.7074(2) 0.10775(7)
C4 C 0.37426(6) 0.5469(3) 0.15991(7)
H2 H 0.3968 0.4021 0.1434
C5 C 0.36867(6) 0.6023(3) 0.23660(7)
H3 H 0.3880 0.4950 0.2726
C6 C 0.33541(6) 0.8109(3) 0.26133(7)
H4 H 0.3325 0.8454 0.3140
C7 C 0.30611(5) 0.9712(3) 0.21023(7)
H5 H 0.2828 1.1130 0.2271
C8 C 0.31223(5) 0.9161(2) 0.13408(7)
C9 C 0.36653(5) 0.5816(3) -0.03279(7)
H6 H 0.3569(6) 0.635(3) -0.0827(8)
O2 O 0.4223(8) 0.242(3) 0.0310(5)
C10 C 0.4095(8) 0.368(4) -0.0235(5)
O3 O 0.42765(13) 0.2947(7) -0.09334(16)
C11 C 0.47549(16) 0.1078(8) -0.09455(19)
H7 H 0.4650 -0.0538 -0.0665
H8 H 0.5099 0.1863 -0.0702
C12 C 0.48794(13) 0.0433(7) -0.17534(17)
H9 H 0.4539 -0.0380 -0.1985
H10 H 0.5205 -0.0792 -0.1778
H11 H 0.4976 0.2049 -0.2027
O4? O 0.4274(9) 0.264(3) 0.0221(5)
C13? C 0.4124(8) 0.379(4) -0.0332(5)
O5? O 0.44306(13) 0.3940(7) -0.09786(17)
C14? C 0.49066(16) 0.2094(8) -0.1054(2)
H12? H 0.5106 0.1905 -0.0561
H13? H 0.5187 0.2787 -0.1425
C15? C 0.46946(12) -0.0537(6) -0.13125(18)
H14? H 0.4448 -0.1305 -0.0921
H15? H 0.5024 -0.1700 -0.1404
H16? H 0.4473 -0.0331 -0.1782
loop_
_geom_bond_atom_site_label_1
_geom_bond_atom_site_label_2
_geom_bond_site_symmetry_1
_geom_bond_site_symmetry_2
O1 C1 1_555 1_555
N1 H1 1_555 1_555
C1 N1 1_555 1_555
C2 C1 1_555 1_555
C3 C2 1_555 1_555
C4 C3 1_555 1_555
H2 C4 1_555 1_555
C5 C4 1_555 1_555
H3 C5 1_555 1_555
C6 C5 1_555 1_555
H4 C6 1_555 1_555
C7 C6 1_555 1_555
H5 C7 1_555 1_555
C8 N1 1_555 1_555
C9 C2 1_555 1_555
H6 C9 1_555 1_555
O2 C10 1_555 1_555
C10 C9 1_555 1_555
O3 C10 1_555 1_555
C11 O3 1_555 1_555
H7 C11 1_555 1_555
H8 C11 1_555 1_555
C12 C11 1_555 1_555
H9 C12 1_555 1_555
H10 C12 1_555 1_555
H11 C12 1_555 1_555
C3 C8 1_555 1_555
C7 C8 1_555 1_555

#END
