
#######################################################################
#
#                 Cambridge Crystallographic Data Centre
#                                CCDC 
#
#######################################################################
#
# If this CIF has been generated from an entry in the Cambridge 
# Structural Database, then it will include bibliographic, chemical, 
# crystal, experimental, refinement or atomic coordinate data resulting 
# from the CCDC's data processing and validation procedures.
#
#######################################################################

data_PARLOM
_chemical_formula_moiety         'C16 H18 N2 O2'
_chemical_name_systematic        
'Methyl 3-ethyl-1,2,3,6-tetrahydroazepino[4,5-b]indole-4-carboxylate'
_symmetry_cell_setting           orthorhombic
_symmetry_space_group_name_H-M   'P b c a'
_symmetry_Int_Tables_number      61
_space_group_name_Hall           '-P 2ac 2ab'
loop_
_symmetry_equiv_pos_site_id
_symmetry_equiv_pos_as_xyz
1 x,y,z
2 1/2-x,-y,1/2+z
3 1/2+x,1/2-y,-z
4 -x,1/2+y,1/2-z
5 -x,-y,-z
6 1/2+x,y,1/2-z
7 1/2-x,1/2+y,z
8 x,1/2-y,1/2+z
_cell_length_a                   6.3297(13)
_cell_length_b                   19.665(4)
_cell_length_c                   22.568(5)
_cell_angle_alpha                90
_cell_angle_beta                 90
_cell_angle_gamma                90
_cell_volume                     2809.12
_cell_formula_units_Z            8
loop_
_atom_site_label
_atom_site_type_symbol
_atom_site_fract_x
_atom_site_fract_y
_atom_site_fract_z
O1 O 0.6320(4) 0.47638(13) 0.34837(11)
N1 N 0.7561(5) 0.62439(15) 0.57768(12)
H1 H 0.8667 0.6014 0.5871
C1 C 0.6614(6) 0.6728(2) 0.61222(17)
O2 O 0.9094(4) 0.47699(14) 0.40946(11)
N2 N 0.4375(4) 0.57816(15) 0.40613(12)
C2 C 0.7116(6) 0.6947(2) 0.66895(17)
H2 H 0.8266 0.6770 0.6894
C3 C 0.5859(7) 0.7433(2) 0.69341(18)
H3 H 0.6157 0.7588 0.7314
C4 C 0.4125(7) 0.7706(2) 0.66289(18)
H4 H 0.3294 0.8035 0.6811
C5 C 0.3630(6) 0.7494(2) 0.60621(18)
H5 H 0.2499 0.7683 0.5858
C6 C 0.4882(6) 0.6984(2) 0.58028(16)
C7 C 0.4791(6) 0.66365(18) 0.52466(15)
C8 C 0.3161(5) 0.67123(18) 0.47706(15)
H6 H 0.3640 0.7046 0.4484
H7 H 0.1857 0.6878 0.4944
C9 C 0.2732(5) 0.60364(19) 0.44534(15)
H8 H 0.2462 0.5693 0.4753
H9 H 0.1447 0.6087 0.4223
C10 C 0.6238(5) 0.55362(18) 0.42929(16)
C11 C 0.7105(5) 0.56798(18) 0.48292(15)
H10 H 0.8269 0.5420 0.4938
C12 C 0.6438(6) 0.61842(18) 0.52463(16)
C13 C 0.4261(6) 0.60524(19) 0.34549(14)
H11 H 0.5613 0.5980 0.3263
H12 H 0.4026 0.6539 0.3476
C14 C 0.2557(6) 0.5740(2) 0.30778(15)
H13 H 0.2584 0.5942 0.2691
H14 H 0.1205 0.5820 0.3258
H15 H 0.2795 0.5260 0.3045
C15 C 0.7425(7) 0.4982(2) 0.39494(16)
C16 C 0.7358(6) 0.4234(2) 0.31426(15)
H16 H 0.6475 0.4105 0.2816
H17 H 0.7603 0.3846 0.3391
H18 H 0.8683 0.4401 0.2995
loop_
_geom_bond_atom_site_label_1
_geom_bond_atom_site_label_2
_geom_bond_site_symmetry_1
_geom_bond_site_symmetry_2
O1 C15 1_555 1_555
N1 H1 1_555 1_555
C1 N1 1_555 1_555
O2 C15 1_555 1_555
N2 C9 1_555 1_555
C2 C1 1_555 1_555
H2 C2 1_555 1_555
C3 C2 1_555 1_555
H3 C3 1_555 1_555
C4 C3 1_555 1_555
H4 C4 1_555 1_555
C5 C4 1_555 1_555
H5 C5 1_555 1_555
C6 C1 1_555 1_555
C7 C6 1_555 1_555
C8 C7 1_555 1_555
H6 C8 1_555 1_555
H7 C8 1_555 1_555
C9 C8 1_555 1_555
H8 C9 1_555 1_555
H9 C9 1_555 1_555
C10 N2 1_555 1_555
C11 C10 1_555 1_555
H10 C11 1_555 1_555
C12 N1 1_555 1_555
C13 N2 1_555 1_555
H11 C13 1_555 1_555
H12 C13 1_555 1_555
C14 C13 1_555 1_555
H13 C14 1_555 1_555
H14 C14 1_555 1_555
H15 C14 1_555 1_555
C15 C10 1_555 1_555
C16 O1 1_555 1_555
H16 C16 1_555 1_555
H17 C16 1_555 1_555
H18 C16 1_555 1_555
C5 C6 1_555 1_555
C7 C12 1_555 1_555
C11 C12 1_555 1_555

#END
